115012
  -OEChem-07051212562D

 83 87  0     1  0  0  0  0  0999 V2000
    2.5357   -1.8922    0.0000 O   0  0  0  0  0  0  0  0  0  0  0  0
   11.5367    1.2129    0.0000 O   0  0  0  0  0  0  0  0  0  0  0  0
    4.3500   -3.6701    0.0000 O   0  0  0  0  0  0  0  0  0  0  0  0
    7.0628   -0.3398    0.0000 C   0  0  2  0  0  0  0  0  0  0  0  0
    6.1968    0.1601    0.0000 C   0  0  1  0  0  0  0  0  0  0  0  0
    5.2868   -0.3467    0.0000 C   0  0  2  0  0  0  0  0  0  0  0  0
    7.9288    0.1601    0.0000 C   0  0  1  0  0  0  0  0  0  0  0  0
    5.2787   -1.3883    0.0000 C   0  0  1  0  0  0  0  0  0  0  0  0
    7.0789   -1.3814    0.0000 C   0  0  0  0  0  0  0  0  0  0  0  0
    7.9288    1.1602    0.0000 C   0  0  0  0  0  0  0  0  0  0  0  0
    8.8228    1.6948    0.0000 C   0  0  1  0  0  0  0  0  0  0  0  0
    6.1808   -1.9091    0.0000 C   0  0  0  0  0  0  0  0  0  0  0  0
    4.3433   -1.9380    0.0000 C   0  0  2  0  0  0  0  0  0  0  0  0
    9.7288    1.1810    0.0000 C   0  0  1  0  0  0  0  0  0  0  0  0
    8.8228   -0.3745    0.0000 C   0  0  0  0  0  0  0  0  0  0  0  0
    6.1968    1.1602    0.0000 C   0  0  0  0  0  0  0  0  0  0  0  0
    4.3599    0.2174    0.0000 C   0  0  0  0  0  0  0  0  0  0  0  0
    9.7288    0.1393    0.0000 C   0  0  0  0  0  0  0  0  0  0  0  0
    7.7056   -1.1059    0.0000 C   0  0  0  0  0  0  0  0  0  0  0  0
    7.0628    1.6602    0.0000 C   0  0  0  0  0  0  0  0  0  0  0  0
    3.4037   -1.3955    0.0000 C   0  0  2  0  0  0  0  0  0  0  0  0
    5.2945    0.6533    0.0000 C   0  0  0  0  0  0  0  0  0  0  0  0
    8.2709   -0.7795    0.0000 C   0  0  0  0  0  0  0  0  0  0  0  0
    3.4120   -0.3106    0.0000 C   0  0  0  0  0  0  0  0  0  0  0  0
    8.7977    2.7795    0.0000 C   0  0  0  0  0  0  0  0  0  0  0  0
   10.6726    1.7162    0.0000 C   0  0  1  0  0  0  0  0  0  0  0  0
    9.7288    3.3364    0.0000 C   0  0  0  0  0  0  0  0  0  0  0  0
   10.6726    2.8012    0.0000 C   0  0  0  0  0  0  0  0  0  0  0  0
    3.8467   -2.8060    0.0000 C   0  0  0  0  0  0  0  0  0  0  0  0
    4.8466   -2.8021    0.0000 C   0  0  0  0  0  0  0  0  0  0  0  0
   10.5987    0.6877    0.0000 C   0  0  0  0  0  0  0  0  0  0  0  0
   10.2188    4.2082    0.0000 C   0  0  0  0  0  0  0  0  0  0  0  0
    9.2188    4.1966    0.0000 C   0  0  0  0  0  0  0  0  0  0  0  0
    6.9329    0.5851    0.0000 H   0  0  0  0  0  0  0  0  0  0  0  0
    5.2820   -2.2383    0.0000 H   0  0  0  0  0  0  0  0  0  0  0  0
    7.2969   -1.9618    0.0000 H   0  0  0  0  0  0  0  0  0  0  0  0
    7.6880   -1.2659    0.0000 H   0  0  0  0  0  0  0  0  0  0  0  0
    9.5522    2.1311    0.0000 H   0  0  0  0  0  0  0  0  0  0  0  0
    5.7835   -2.3851    0.0000 H   0  0  0  0  0  0  0  0  0  0  0  0
    6.5818   -2.3820    0.0000 H   0  0  0  0  0  0  0  0  0  0  0  0
    8.4182   -0.8443    0.0000 H   0  0  0  0  0  0  0  0  0  0  0  0
    9.2164   -0.8535    0.0000 H   0  0  0  0  0  0  0  0  0  0  0  0
    5.9847    1.7428    0.0000 H   0  0  0  0  0  0  0  0  0  0  0  0
    5.5862    1.0525    0.0000 H   0  0  0  0  0  0  0  0  0  0  0  0
    4.7681    0.6840    0.0000 H   0  0  0  0  0  0  0  0  0  0  0  0
    3.9700    0.6994    0.0000 H   0  0  0  0  0  0  0  0  0  0  0  0
    9.9379   -0.4444    0.0000 H   0  0  0  0  0  0  0  0  0  0  0  0
   10.3397    0.2454    0.0000 H   0  0  0  0  0  0  0  0  0  0  0  0
    7.2306   -1.5044    0.0000 H   0  0  0  0  0  0  0  0  0  0  0  0
    8.1041   -1.5808    0.0000 H   0  0  0  0  0  0  0  0  0  0  0  0
    8.1805   -0.7074    0.0000 H   0  0  0  0  0  0  0  0  0  0  0  0
    7.0628    2.2802    0.0000 H   0  0  0  0  0  0  0  0  0  0  0  0
    3.4025   -2.0155    0.0000 H   0  0  0  0  0  0  0  0  0  0  0  0
    5.9145    0.6485    0.0000 H   0  0  0  0  0  0  0  0  0  0  0  0
    5.2993    1.2733    0.0000 H   0  0  0  0  0  0  0  0  0  0  0  0
    4.6745    0.6581    0.0000 H   0  0  0  0  0  0  0  0  0  0  0  0
    7.6884   -0.9916    0.0000 H   0  0  0  0  0  0  0  0  0  0  0  0
    8.4830   -1.3621    0.0000 H   0  0  0  0  0  0  0  0  0  0  0  0
    8.8535   -0.5674    0.0000 H   0  0  0  0  0  0  0  0  0  0  0  0
    3.2075    0.2747    0.0000 H   0  0  0  0  0  0  0  0  0  0  0  0
    2.8004   -0.4119    0.0000 H   0  0  0  0  0  0  0  0  0  0  0  0
    8.5752    3.3582    0.0000 H   0  0  0  0  0  0  0  0  0  0  0  0
    8.1894    2.6593    0.0000 H   0  0  0  0  0  0  0  0  0  0  0  0
   11.2101    2.0252    0.0000 H   0  0  0  0  0  0  0  0  0  0  0  0
   11.2835    2.6951    0.0000 H   0  0  0  0  0  0  0  0  0  0  0  0
   10.8817    3.3849    0.0000 H   0  0  0  0  0  0  0  0  0  0  0  0
    3.3702   -2.4093    0.0000 H   0  0  0  0  0  0  0  0  0  0  0  0
    3.3732   -3.2063    0.0000 H   0  0  0  0  0  0  0  0  0  0  0  0
    4.3109   -3.1142    0.0000 H   0  0  0  0  0  0  0  0  0  0  0  0
    5.1587   -3.3378    0.0000 H   0  0  0  0  0  0  0  0  0  0  0  0
    5.3824   -2.4900    0.0000 H   0  0  0  0  0  0  0  0  0  0  0  0
   10.2928    0.1483    0.0000 H   0  0  0  0  0  0  0  0  0  0  0  0
   11.1380    0.3818    0.0000 H   0  0  0  0  0  0  0  0  0  0  0  0
   10.9045    1.2270    0.0000 H   0  0  0  0  0  0  0  0  0  0  0  0
   10.7593    3.9044    0.0000 H   0  0  0  0  0  0  0  0  0  0  0  0
   10.5226    4.7487    0.0000 H   0  0  0  0  0  0  0  0  0  0  0  0
    9.6783    4.5120    0.0000 H   0  0  0  0  0  0  0  0  0  0  0  0
    9.7522    4.5128    0.0000 H   0  0  0  0  0  0  0  0  0  0  0  0
    8.9027    4.7299    0.0000 H   0  0  0  0  0  0  0  0  0  0  0  0
    8.6855    3.8804    0.0000 H   0  0  0  0  0  0  0  0  0  0  0  0
    2.0000   -1.5801    0.0000 H   0  0  0  0  0  0  0  0  0  0  0  0
   12.0748    1.5208    0.0000 H   0  0  0  0  0  0  0  0  0  0  0  0
    4.0421   -4.2082    0.0000 H   0  0  0  0  0  0  0  0  0  0  0  0
 21  1  1  1  0  0  0
  1 81  1  0  0  0  0
 26  2  1  1  0  0  0
  2 82  1  0  0  0  0
  3 29  1  0  0  0  0
  3 83  1  0  0  0  0
  4  5  1  0  0  0  0
  4  7  1  0  0  0  0
  4  9  1  0  0  0  0
  4 19  1  1  0  0  0
  5  6  1  0  0  0  0
  5 16  1  0  0  0  0
  5 34  1  6  0  0  0
  6  8  1  0  0  0  0
  6 17  1  0  0  0  0
  6 22  1  1  0  0  0
  7 10  1  0  0  0  0
  7 15  1  0  0  0  0
  7 23  1  6  0  0  0
  8 12  1  0  0  0  0
  8 13  1  0  0  0  0
  8 35  1  6  0  0  0
  9 12  1  0  0  0  0
  9 36  1  0  0  0  0
  9 37  1  0  0  0  0
 10 11  1  0  0  0  0
 10 20  2  0  0  0  0
 11 14  1  0  0  0  0
 11 25  1  0  0  0  0
 11 38  1  1  0  0  0
 12 39  1  0  0  0  0
 12 40  1  0  0  0  0
 13 21  1  0  0  0  0
 13 29  1  0  0  0  0
 13 30  1  6  0  0  0
 14 18  1  0  0  0  0
 14 26  1  0  0  0  0
 14 31  1  1  0  0  0
 15 18  1  0  0  0  0
 15 41  1  0  0  0  0
 15 42  1  0  0  0  0
 16 20  1  0  0  0  0
 16 43  1  0  0  0  0
 16 44  1  0  0  0  0
 17 24  1  0  0  0  0
 17 45  1  0  0  0  0
 17 46  1  0  0  0  0
 18 47  1  0  0  0  0
 18 48  1  0  0  0  0
 19 49  1  0  0  0  0
 19 50  1  0  0  0  0
 19 51  1  0  0  0  0
 20 52  1  0  0  0  0
 21 24  1  0  0  0  0
 21 53  1  0  0  0  0
 22 54  1  0  0  0  0
 22 55  1  0  0  0  0
 22 56  1  0  0  0  0
 23 57  1  0  0  0  0
 23 58  1  0  0  0  0
 23 59  1  0  0  0  0
 24 60  1  0  0  0  0
 24 61  1  0  0  0  0
 25 27  1  0  0  0  0
 25 62  1  0  0  0  0
 25 63  1  0  0  0  0
 26 28  1  0  0  0  0
 26 64  1  0  0  0  0
 27 28  1  0  0  0  0
 27 32  1  0  0  0  0
 27 33  1  0  0  0  0
 28 65  1  0  0  0  0
 28 66  1  0  0  0  0
 29 67  1  0  0  0  0
 29 68  1  0  0  0  0
 30 69  1  0  0  0  0
 30 70  1  0  0  0  0
 30 71  1  0  0  0  0
 31 72  1  0  0  0  0
 31 73  1  0  0  0  0
 31 74  1  0  0  0  0
 32 75  1  0  0  0  0
 32 76  1  0  0  0  0
 32 77  1  0  0  0  0
 33 78  1  0  0  0  0
 33 79  1  0  0  0  0
 33 80  1  0  0  0  0
M  END
> <PUBCHEM_COMPOUND_CID>
115012

> <PUBCHEM_COMPOUND_CANONICALIZED>
1

> <PUBCHEM_CACTVS_COMPLEXITY>
848

> <PUBCHEM_CACTVS_HBOND_ACCEPTOR>
3

> <PUBCHEM_CACTVS_HBOND_DONOR>
3

> <PUBCHEM_CACTVS_ROTATABLE_BOND>
1

> <PUBCHEM_CACTVS_SUBSKEYS>
AAADcfB4MAAAAAAAAAAAAAAAAAAAAAAAAAAwYMGCAAAAAADAAAAAGgAACAAADxSggAICAAAAAgCAAiBCAAAAAAAgAAAACAAAAAgAEAIAAQAAQAAFgAAIAAOAwPAPgAAAAAAAAADAAAYAADAAAAAAAAAAAA==

> <PUBCHEM_IUPAC_OPENEYE_NAME>
(3S,4S,4aR,6aR,6bS,8aR,9R,12aS,14aR,14bR)-4-(hydroxymethyl)-4,6a,6b,8a,11,11,14b-heptamethyl-1,2,3,4a,5,6,7,8,9,10,12,12a,14,14a-tetradecahydropicene-3,9-diol

> <PUBCHEM_IUPAC_CAS_NAME>
(3S,4S,4aR,6aR,6bS,8aR,9R,12aS,14aR,14bR)-4-(hydroxymethyl)-4,6a,6b,8a,11,11,14b-heptamethyl-1,2,3,4a,5,6,7,8,9,10,12,12a,14,14a-tetradecahydropicene-3,9-diol

> <PUBCHEM_IUPAC_NAME>
(3S,4S,4aR,6aR,6bS,8aR,9R,12aS,14aR,14bR)-4-(hydroxymethyl)-4,6a,6b,8a,11,11,14b-heptamethyl-1,2,3,4a,5,6,7,8,9,10,12,12a,14,14a-tetradecahydropicene-3,9-diol

> <PUBCHEM_IUPAC_SYSTEMATIC_NAME>
(3S,4S,4aR,6aR,6bS,8aR,9R,12aS,14aR,14bR)-4-(hydroxymethyl)-4,6a,6b,8a,11,11,14b-heptamethyl-1,2,3,4a,5,6,7,8,9,10,12,12a,14,14a-tetradecahydropicene-3,9-diol

> <PUBCHEM_IUPAC_TRADITIONAL_NAME>
(3S,4S,4aR,6aR,6bS,8aR,9R,12aS,14aR,14bR)-4,6a,6b,8a,11,11,14b-heptamethyl-4-methylol-1,2,3,4a,5,6,7,8,9,10,12,12a,14,14a-tetradecahydropicene-3,9-diol

> <PUBCHEM_IUPAC_INCHI>
InChI=1S/C30H50O3/c1-25(2)16-20-19-8-9-22-27(4)12-11-23(32)28(5,18-31)21(27)10-13-30(22,7)29(19,6)15-14-26(20,3)24(33)17-25/h8,20-24,31-33H,9-18H2,1-7H3/t20-,21+,22+,23-,24+,26+,27-,28+,29+,30+/m0/s1

> <PUBCHEM_IUPAC_INCHIKEY>
YOQAQNKGFOLRGT-UXXABWCISA-N

> <PUBCHEM_XLOGP3_AA>
7

> <PUBCHEM_EXACT_MASS>
458.375995

> <PUBCHEM_MOLECULAR_FORMULA>
C30H50O3

> <PUBCHEM_MOLECULAR_WEIGHT>
458.7162

> <PUBCHEM_OPENEYE_CAN_SMILES>
CC1(CC2C3=CCC4C5(CCC(C(C5CCC4(C3(CCC2(C(C1)O)C)C)C)(C)CO)O)C)C

> <PUBCHEM_OPENEYE_ISO_SMILES>
C[C@]12CC[C@@H]([C@]([C@@H]1CC[C@@]3([C@@H]2CC=C4[C@]3(CC[C@@]5([C@H]4CC(C[C@H]5O)(C)C)C)C)C)(C)CO)O

> <PUBCHEM_CACTVS_TPSA>
60.7

> <PUBCHEM_MONOISOTOPIC_WEIGHT>
458.375995

> <PUBCHEM_TOTAL_CHARGE>
0

> <PUBCHEM_HEAVY_ATOM_COUNT>
33

> <PUBCHEM_ATOM_DEF_STEREO_COUNT>
10

> <PUBCHEM_ATOM_UDEF_STEREO_COUNT>
0

> <PUBCHEM_BOND_DEF_STEREO_COUNT>
0

> <PUBCHEM_BOND_UDEF_STEREO_COUNT>
0

> <PUBCHEM_ISOTOPIC_ATOM_COUNT>
0

> <PUBCHEM_COMPONENT_COUNT>
1

> <PUBCHEM_CACTVS_TAUTO_COUNT>
1

> <PUBCHEM_COORDINATE_TYPE>
1
5
255

> <PUBCHEM_BONDANNOTATIONS>
21  1  5
11  38  5
13  30  6
14  31  5
26  2  5
4  19  5
5  34  6
6  22  5
7  23  6
8  35  6

$$$$

