91753
  -OEChem-07051213123D

 43 45  0     1  0  0  0  0  0999 V2000
   -1.2555   -0.7849   -1.1752 O   0  0  0  0  0  0  0  0  0  0  0  0
   -3.2281   -0.3605    0.7282 O   0  0  0  0  0  0  0  0  0  0  0  0
    4.0040    0.8636   -1.1793 O   0  0  0  0  0  0  0  0  0  0  0  0
   -5.3745   -0.4419   -0.1503 N   0  0  0  0  0  0  0  0  0  0  0  0
   -3.0647   -1.6506    0.1411 C   0  0  1  0  0  0  0  0  0  0  0  0
   -1.6030   -1.8143   -0.2554 C   0  0  0  0  0  0  0  0  0  0  0  0
   -3.4897   -2.7073    1.1495 C   0  0  0  0  0  0  0  0  0  0  0  0
    0.0515   -0.3757   -1.1766 C   0  0  0  0  0  0  0  0  0  0  0  0
    1.0560   -1.2759   -0.8382 C   0  0  0  0  0  0  0  0  0  0  0  0
    0.3618    0.9367   -1.5159 C   0  0  0  0  0  0  0  0  0  0  0  0
    2.7055    0.4563   -1.1790 C   0  0  0  0  0  0  0  0  0  0  0  0
   -4.4449    0.2410    0.5568 C   0  0  0  0  0  0  0  0  0  0  0  0
    2.3870   -0.8587   -0.8396 C   0  0  0  0  0  0  0  0  0  0  0  0
    1.6928    1.3539   -1.5172 C   0  0  0  0  0  0  0  0  0  0  0  0
    4.8466    0.5396   -0.1534 C   0  0  0  0  0  0  0  0  0  0  0  0
   -4.6597    1.4959    1.1061 C   0  0  0  0  0  0  0  0  0  0  0  0
    4.4151    0.6693    1.1639 C   0  0  0  0  0  0  0  0  0  0  0  0
    6.1316    0.0817   -0.4315 C   0  0  0  0  0  0  0  0  0  0  0  0
   -5.9047    2.0862    0.9181 C   0  0  0  0  0  0  0  0  0  0  0  0
   -6.5724    0.1634   -0.3123 C   0  0  0  0  0  0  0  0  0  0  0  0
   -6.8848    1.4137    0.1966 C   0  0  0  0  0  0  0  0  0  0  0  0
    5.2750    0.3385    2.2110 C   0  0  0  0  0  0  0  0  0  0  0  0
    6.9915   -0.2492    0.6157 C   0  0  0  0  0  0  0  0  0  0  0  0
    6.5633   -0.1207    1.9371 C   0  0  0  0  0  0  0  0  0  0  0  0
   -3.6405   -1.7535   -0.7876 H   0  0  0  0  0  0  0  0  0  0  0  0
   -0.9989   -1.7399    0.6591 H   0  0  0  0  0  0  0  0  0  0  0  0
   -1.4427   -2.7918   -0.7249 H   0  0  0  0  0  0  0  0  0  0  0  0
   -4.5468   -2.6009    1.4138 H   0  0  0  0  0  0  0  0  0  0  0  0
   -3.3363   -3.7159    0.7535 H   0  0  0  0  0  0  0  0  0  0  0  0
   -2.9228   -2.6092    2.0821 H   0  0  0  0  0  0  0  0  0  0  0  0
    0.8540   -2.3155   -0.5992 H   0  0  0  0  0  0  0  0  0  0  0  0
   -0.4239    1.6391   -1.7791 H   0  0  0  0  0  0  0  0  0  0  0  0
    3.1602   -1.5823   -0.5954 H   0  0  0  0  0  0  0  0  0  0  0  0
    1.9347    2.3796   -1.7818 H   0  0  0  0  0  0  0  0  0  0  0  0
   -3.8847    2.0076    1.6664 H   0  0  0  0  0  0  0  0  0  0  0  0
    3.4225    1.0415    1.4025 H   0  0  0  0  0  0  0  0  0  0  0  0
    6.4696   -0.0204   -1.4589 H   0  0  0  0  0  0  0  0  0  0  0  0
   -6.1106    3.0682    1.3330 H   0  0  0  0  0  0  0  0  0  0  0  0
   -7.3020   -0.4024   -0.8822 H   0  0  0  0  0  0  0  0  0  0  0  0
   -7.8623    1.8545    0.0376 H   0  0  0  0  0  0  0  0  0  0  0  0
    4.9432    0.4422    3.2399 H   0  0  0  0  0  0  0  0  0  0  0  0
    7.9946   -0.6066    0.4024 H   0  0  0  0  0  0  0  0  0  0  0  0
    7.2332   -0.3774    2.7524 H   0  0  0  0  0  0  0  0  0  0  0  0
  1  6  1  0  0  0  0
  1  8  1  0  0  0  0
  2  5  1  0  0  0  0
  2 12  1  0  0  0  0
  3 11  1  0  0  0  0
  3 15  1  0  0  0  0
  4 12  1  0  0  0  0
  4 20  2  0  0  0  0
  5  6  1  0  0  0  0
  5  7  1  0  0  0  0
  5 25  1  0  0  0  0
  6 26  1  0  0  0  0
  6 27  1  0  0  0  0
  7 28  1  0  0  0  0
  7 29  1  0  0  0  0
  7 30  1  0  0  0  0
  8  9  2  0  0  0  0
  8 10  1  0  0  0  0
  9 13  1  0  0  0  0
  9 31  1  0  0  0  0
 10 14  2  0  0  0  0
 10 32  1  0  0  0  0
 11 13  2  0  0  0  0
 11 14  1  0  0  0  0
 12 16  2  0  0  0  0
 13 33  1  0  0  0  0
 14 34  1  0  0  0  0
 15 17  2  0  0  0  0
 15 18  1  0  0  0  0
 16 19  1  0  0  0  0
 16 35  1  0  0  0  0
 17 22  1  0  0  0  0
 17 36  1  0  0  0  0
 18 23  2  0  0  0  0
 18 37  1  0  0  0  0
 19 21  2  0  0  0  0
 19 38  1  0  0  0  0
 20 21  1  0  0  0  0
 20 39  1  0  0  0  0
 21 40  1  0  0  0  0
 22 24  2  0  0  0  0
 22 41  1  0  0  0  0
 23 24  1  0  0  0  0
 23 42  1  0  0  0  0
 24 43  1  0  0  0  0
M  END
> <PUBCHEM_COMPOUND_CID>
91753

> <PUBCHEM_CONFORMER_RMSD>
1

> <PUBCHEM_CONFORMER_DIVERSEORDER>
1
22
3
120
143
54
108
51
105
61
180
21
153
7
47
140
63
146
189
32
59
98
199
126
28
188
104
173
148
164
96
85
34
178
184
118
25
13
37
74
99
138
50
160
197
30
43
9
182
92
136
64
35
60
26
132
48
167
190
10
84
88
125
163
144
112
18
162
109
46
156
72
94
161
151
107
8
185
134
29
145
11
89
116
186
55
20
152
198
101
83
66
119
17
68
174
58
6
201
91
200
158
62
45
36
111
168
70
154
19
52
121
137
31
65
142
192
183
181
95
5
76
171
41
202
15
82
75
38
193
86
2
170
56
191
117
122
57
78
90
53
77
16
159
129
149
175
187
14
33
44
23
40
155
102
150
195
166
80
147
110
139
73
71
114
87
39
106
81
27
12
124
67
49
196
69
115
133
130
24
127
113
176
123
141
128
4
179
42
93
177
103
194
172
131
97
100
79
169
157
135
165

> <PUBCHEM_MMFF94_PARTIAL_CHARGES>
36
1 -0.36
10 -0.15
11 0.08
12 0.39
13 -0.15
14 -0.15
15 0.08
16 -0.15
17 -0.15
18 -0.15
19 -0.15
2 -0.36
20 0.16
21 -0.15
22 -0.15
23 -0.15
24 -0.15
3 -0.17
31 0.15
32 0.15
33 0.15
34 0.15
35 0.15
36 0.15
37 0.15
38 0.15
39 0.15
4 -0.62
40 0.15
41 0.15
42 0.15
43 0.15
5 0.28
6 0.28
8 0.08
9 -0.15

> <PUBCHEM_EFFECTIVE_ROTOR_COUNT>
7

> <PUBCHEM_PHARMACOPHORE_FEATURES>
7
1 1 acceptor
1 2 acceptor
1 3 acceptor
1 4 acceptor
6 15 17 18 22 23 24 rings
6 4 12 16 19 20 21 rings
6 8 9 10 11 13 14 rings

> <PUBCHEM_HEAVY_ATOM_COUNT>
24

> <PUBCHEM_ATOM_DEF_STEREO_COUNT>
0

> <PUBCHEM_ATOM_UDEF_STEREO_COUNT>
1

> <PUBCHEM_BOND_DEF_STEREO_COUNT>
0

> <PUBCHEM_BOND_UDEF_STEREO_COUNT>
0

> <PUBCHEM_ISOTOPIC_ATOM_COUNT>
0

> <PUBCHEM_COMPONENT_COUNT>
1

> <PUBCHEM_CACTVS_TAUTO_COUNT>
1

> <PUBCHEM_CONFORMER_ID>
0001666900000001

> <PUBCHEM_MMFF94_ENERGY>
87.5421

> <PUBCHEM_FEATURE_SELFOVERLAP>
35.571

> <PUBCHEM_SHAPE_FINGERPRINT>
10042902 136 10591458578989426537
10319926 262 18410848833067970850
11036077 4 17846777378514315091
11089746 13 18113620070907613821
11186622 174 16009024021601979806
11524674 6 15123503697383192017
11961588 58 14418139508689769142
11991303 11 14779561053502959108
12107183 9 18060699481130542229
12403259 118 18335979762201777775
12596602 18 18270680849318583552
12633257 1 17988920046586583911
12838862 33 18337960099589356933
13103583 49 17846215523181292386
13402501 40 17458065975557022257
13668630 136 12535627193521201232
13673619 4 14261635031960495838
13685833 64 14261632841648422176
13878862 14 15647347346804662624
13941219 33 16056881329640792883
14123256 10 5978386114526259837
14123256 34 11383822780159978653
14251732 14 10303814289252061706
14251764 18 17846493704023406847
14251764 30 13902182673638995393
14347424 109 18343024381157936416
14466204 15 18411978061790557389
14617045 38 12319458796363759937
14739800 52 17968667119433124523
14767858 380 6411294632854490494
14951699 99 18190181187897335064
15142383 8 16415485964512939653
15238133 3 18410284805230635348
15274700 208 13913474598834017408
15301273 46 18409162226050716574
15352257 5 13614519662345637761
15420108 30 18409737265420191462
15461852 350 17749106647625980823
15537594 2 16559037069312867994
16990366 60 17472705728886342623
18335252 114 14779266406931890232
19489759 90 18261388936723903699
20157964 124 16008748018223738932
20511986 3 18261398905480141551
20554085 129 18261399974806017019
20567600 254 17095525097831429134
20621476 21 13039182623873961193
21033648 29 17967526861381798499
21150785 3 8934995984667144990
21196832 93 5977804507520534637
21267235 1 9583226242204188773
21315763 76 15357698561597487434
21344244 181 13182741481158690848
21403212 168 17917997204815819747
21623969 137 15267345141043421170
21774942 28 16878777352387627209
21859007 373 18041274486760150156
22765269 38 16660648453262146608
2297311 6 10952052251955393423
23559900 14 18190721184891080991
2838139 119 16515409572787448848
3117164 225 18270400477805686528
312425 54 17988366970979286544
33382 64 14908186365280315768
437815 12 13254790236026562461
439807 62 12679194842197583240
465052 167 16271930433010522402
5104073 3 17987230045311269312
513202 73 16343714269489654733
5207 217 5112003949840450668
5283384 27 16081378432002448888
5385378 56 18339075012041214211
6058803 2 17628060205580574439
653340 110 18121493815794095509
8217 86 10015577303177407845
9980921 7 15213886804724301760
9981440 41 18336816551334763331
999808 66 14549021004488003025

> <PUBCHEM_SHAPE_MULTIPOLES>
471.32
20.27
1.89
1.72
0.88
0.66
0.35
-6.62
9.22
3.37
0.36
-2.31
-0.26
-0.38

> <PUBCHEM_SHAPE_SELFOVERLAP>
1013.693

> <PUBCHEM_SHAPE_VOLUME>
258.6

> <PUBCHEM_COORDINATE_TYPE>
2
5
10

$$$$

