17396273
  -OEChem-06241222552D

 32 34  0     0  0  0  0  0  0999 V2000
    5.1349    2.7658    0.0000 S   0  0  0  0  0  0  0  0  0  0  0  0
    5.5772   -1.3349    0.0000 F   0  0  0  0  0  0  0  0  0  0  0  0
    4.9351   -0.0748    0.0000 F   0  0  0  0  0  0  0  0  0  0  0  0
    4.3171   -1.9769    0.0000 F   0  0  0  0  0  0  0  0  0  0  0  0
    4.9483    0.9387    0.0000 O   0  0  0  0  0  0  0  0  0  0  0  0
    2.8660   -1.3046    0.0000 N   0  0  0  0  0  0  0  0  0  0  0  0
    2.0570   -0.7168    0.0000 N   0  0  0  0  0  0  0  0  0  0  0  0
    3.5471    1.9568    0.0000 N   0  0  0  0  0  0  0  0  0  0  0  0
    3.8258    3.7168    0.0000 N   0  0  0  0  0  0  0  0  0  0  0  0
    3.6750   -0.7168    0.0000 C   0  0  0  0  0  0  0  0  0  0  0  0
    3.3660    0.2342    0.0000 C   0  0  0  0  0  0  0  0  0  0  0  0
    2.8660   -2.3046    0.0000 C   0  0  0  0  0  0  0  0  0  0  0  0
    2.3660    0.2342    0.0000 C   0  0  0  0  0  0  0  0  0  0  0  0
    4.6261   -1.0259    0.0000 C   0  0  0  0  0  0  0  0  0  0  0  0
    3.9538    1.0432    0.0000 C   0  0  0  0  0  0  0  0  0  0  0  0
    2.0000   -2.8046    0.0000 C   0  0  0  0  0  0  0  0  0  0  0  0
    3.7320   -2.8046    0.0000 C   0  0  0  0  0  0  0  0  0  0  0  0
    2.0000   -3.8046    0.0000 C   0  0  0  0  0  0  0  0  0  0  0  0
    3.7320   -3.8046    0.0000 C   0  0  0  0  0  0  0  0  0  0  0  0
    2.8660   -4.3046    0.0000 C   0  0  0  0  0  0  0  0  0  0  0  0
    4.1349    2.7658    0.0000 C   0  0  0  0  0  0  0  0  0  0  0  0
    5.4439    3.7168    0.0000 C   0  0  0  0  0  0  0  0  0  0  0  0
    4.6349    4.3046    0.0000 C   0  0  0  0  0  0  0  0  0  0  0  0
    2.0016    0.7358    0.0000 H   0  0  0  0  0  0  0  0  0  0  0  0
    1.4631   -2.4946    0.0000 H   0  0  0  0  0  0  0  0  0  0  0  0
    4.2690   -2.4946    0.0000 H   0  0  0  0  0  0  0  0  0  0  0  0
    2.9305    2.0216    0.0000 H   0  0  0  0  0  0  0  0  0  0  0  0
    1.4631   -4.1146    0.0000 H   0  0  0  0  0  0  0  0  0  0  0  0
    4.2690   -4.1146    0.0000 H   0  0  0  0  0  0  0  0  0  0  0  0
    2.8660   -4.9246    0.0000 H   0  0  0  0  0  0  0  0  0  0  0  0
    6.0335    3.9084    0.0000 H   0  0  0  0  0  0  0  0  0  0  0  0
    4.6349    4.9246    0.0000 H   0  0  0  0  0  0  0  0  0  0  0  0
  1 21  1  0  0  0  0
  1 22  1  0  0  0  0
  2 14  1  0  0  0  0
  3 14  1  0  0  0  0
  4 14  1  0  0  0  0
  5 15  2  0  0  0  0
  6  7  1  0  0  0  0
  6 10  1  0  0  0  0
  6 12  1  0  0  0  0
  7 13  2  0  0  0  0
  8 15  1  0  0  0  0
  8 21  1  0  0  0  0
  8 27  1  0  0  0  0
  9 21  2  0  0  0  0
  9 23  1  0  0  0  0
 10 11  2  0  0  0  0
 10 14  1  0  0  0  0
 11 13  1  0  0  0  0
 11 15  1  0  0  0  0
 12 16  2  0  0  0  0
 12 17  1  0  0  0  0
 13 24  1  0  0  0  0
 16 18  1  0  0  0  0
 16 25  1  0  0  0  0
 17 19  2  0  0  0  0
 17 26  1  0  0  0  0
 18 20  2  0  0  0  0
 18 28  1  0  0  0  0
 19 20  1  0  0  0  0
 19 29  1  0  0  0  0
 20 30  1  0  0  0  0
 22 23  2  0  0  0  0
 22 31  1  0  0  0  0
 23 32  1  0  0  0  0
M  END
> <PUBCHEM_COMPOUND_CID>
17396273

> <PUBCHEM_COMPOUND_CANONICALIZED>
1

> <PUBCHEM_CACTVS_COMPLEXITY>
431

> <PUBCHEM_CACTVS_HBOND_ACCEPTOR>
7

> <PUBCHEM_CACTVS_HBOND_DONOR>
1

> <PUBCHEM_CACTVS_ROTATABLE_BOND>
3

> <PUBCHEM_CACTVS_SUBSKEYS>
AAADccBzoYBAAAAAAAAAAAAAAAAAAWLAAAAwAAAAAAAAAAAB8AAAHwQYAAAADAjF3hS90ZLIEAiuAzV3dACS9Kl1ijlZ2C04ZNiIIPrA2dGEpYhoiQLIyecQAAAIAAAAAAAAAAAAAAAAAAAAAAAAAAAAAA==

> <PUBCHEM_IUPAC_OPENEYE_NAME>
1-phenyl-N-thiazol-2-yl-5-(trifluoromethyl)pyrazole-4-carboxamide

> <PUBCHEM_IUPAC_CAS_NAME>
1-phenyl-N-(2-thiazolyl)-5-(trifluoromethyl)-4-pyrazolecarboxamide

> <PUBCHEM_IUPAC_NAME>
1-phenyl-N-(1,3-thiazol-2-yl)-5-(trifluoromethyl)pyrazole-4-carboxamide

> <PUBCHEM_IUPAC_SYSTEMATIC_NAME>
1-phenyl-N-(1,3-thiazol-2-yl)-5-(trifluoromethyl)pyrazole-4-carboxamide

> <PUBCHEM_IUPAC_TRADITIONAL_NAME>
1-phenyl-N-thiazol-2-yl-5-(trifluoromethyl)pyrazole-4-carboxamide

> <PUBCHEM_IUPAC_INCHI>
InChI=1S/C14H9F3N4OS/c15-14(16,17)11-10(12(22)20-13-18-6-7-23-13)8-19-21(11)9-4-2-1-3-5-9/h1-8H,(H,18,20,22)

> <PUBCHEM_IUPAC_INCHIKEY>
VRMHMLQMWHACBF-UHFFFAOYSA-N

> <PUBCHEM_XLOGP3_AA>
3

> <PUBCHEM_EXACT_MASS>
338.044917

> <PUBCHEM_MOLECULAR_FORMULA>
C14H9F3N4OS

> <PUBCHEM_MOLECULAR_WEIGHT>
338.30767

> <PUBCHEM_OPENEYE_CAN_SMILES>
C1=CC=C(C=C1)N2C(=C(C=N2)C(=O)NC3=NC=CS3)C(F)(F)F

> <PUBCHEM_OPENEYE_ISO_SMILES>
C1=CC=C(C=C1)N2C(=C(C=N2)C(=O)NC3=NC=CS3)C(F)(F)F

> <PUBCHEM_CACTVS_TPSA>
88

> <PUBCHEM_MONOISOTOPIC_WEIGHT>
338.044917

> <PUBCHEM_TOTAL_CHARGE>
0

> <PUBCHEM_HEAVY_ATOM_COUNT>
23

> <PUBCHEM_ATOM_DEF_STEREO_COUNT>
0

> <PUBCHEM_ATOM_UDEF_STEREO_COUNT>
0

> <PUBCHEM_BOND_DEF_STEREO_COUNT>
0

> <PUBCHEM_BOND_UDEF_STEREO_COUNT>
0

> <PUBCHEM_ISOTOPIC_ATOM_COUNT>
0

> <PUBCHEM_COMPONENT_COUNT>
1

> <PUBCHEM_CACTVS_TAUTO_COUNT>
3

> <PUBCHEM_COORDINATE_TYPE>
1
5
255

> <PUBCHEM_BONDANNOTATIONS>
1  21  8
1  22  8
10  11  8
11  13  8
12  16  8
12  17  8
16  18  8
17  19  8
18  20  8
19  20  8
22  23  8
6  10  8
6  7  8
7  13  8
9  21  8
9  23  8

$$$$

