443234
  -OEChem-07051213013D

 30 32  0     1  0  0  0  0  0999 V2000
    1.9370   -0.3171   -1.1517 O   0  0  0  0  0  0  0  0  0  0  0  0
    2.1708    2.5882   -0.0087 O   0  0  0  0  0  0  0  0  0  0  0  0
    3.8755    1.1300    1.5031 O   0  0  0  0  0  0  0  0  0  0  0  0
    3.1634   -2.5555   -0.7178 O   0  0  0  0  0  0  0  0  0  0  0  0
   -0.2347   -0.1030   -0.2008 N   0  0  0  0  0  0  0  0  0  0  0  0
   -1.5189   -1.7464    0.5921 N   0  0  0  0  0  0  0  0  0  0  0  0
   -1.9421    1.5505   -0.7041 N   0  0  0  0  0  0  0  0  0  0  0  0
   -4.1702    0.7239   -0.1489 N   0  0  0  0  0  0  0  0  0  0  0  0
   -4.5398   -1.4532    0.7736 N   0  0  0  0  0  0  0  0  0  0  0  0
    0.9753    0.6128   -0.6101 C   0  0  1  0  0  0  0  0  0  0  0  0
    1.6609    1.3667    0.5259 C   0  0  1  0  0  0  0  0  0  0  0  0
    2.7966    0.4385    0.9071 C   0  0  1  0  0  0  0  0  0  0  0  0
    3.1659   -0.1751   -0.4285 C   0  0  1  0  0  0  0  0  0  0  0  0
   -1.5209    0.3565   -0.2607 C   0  0  0  0  0  0  0  0  0  0  0  0
    3.7289   -1.5512   -0.2981 C   0  0  0  0  0  0  0  0  0  0  0  0
   -0.2869   -1.3710    0.3180 C   0  0  0  0  0  0  0  0  0  0  0  0
   -2.3003   -0.6763    0.2354 C   0  0  0  0  0  0  0  0  0  0  0  0
   -3.6740   -0.4604    0.2834 C   0  0  0  0  0  0  0  0  0  0  0  0
   -3.2865    1.6422   -0.6090 C   0  0  0  0  0  0  0  0  0  0  0  0
    0.6795    1.2759   -1.4315 H   0  0  0  0  0  0  0  0  0  0  0  0
    1.0135    1.6179    1.3716 H   0  0  0  0  0  0  0  0  0  0  0  0
    2.4436   -0.3316    1.6038 H   0  0  0  0  0  0  0  0  0  0  0  0
    3.8629    0.4395   -1.0079 H   0  0  0  0  0  0  0  0  0  0  0  0
    4.7092   -1.6232    0.2030 H   0  0  0  0  0  0  0  0  0  0  0  0
    0.5959   -1.9732    0.4809 H   0  0  0  0  0  0  0  0  0  0  0  0
    1.4076    3.1365   -0.2591 H   0  0  0  0  0  0  0  0  0  0  0  0
    3.5318    1.5811    2.2930 H   0  0  0  0  0  0  0  0  0  0  0  0
   -3.7185    2.5782   -0.9467 H   0  0  0  0  0  0  0  0  0  0  0  0
   -5.5341   -1.2726    0.7982 H   0  0  0  0  0  0  0  0  0  0  0  0
   -4.1719   -2.3379    1.0964 H   0  0  0  0  0  0  0  0  0  0  0  0
  1 10  1  0  0  0  0
  1 13  1  0  0  0  0
  2 11  1  0  0  0  0
  2 26  1  0  0  0  0
  3 12  1  0  0  0  0
  3 27  1  0  0  0  0
  4 15  2  0  0  0  0
  5 10  1  0  0  0  0
  5 14  1  0  0  0  0
  5 16  1  0  0  0  0
  6 16  2  0  0  0  0
  6 17  1  0  0  0  0
  7 14  2  0  0  0  0
  7 19  1  0  0  0  0
  8 18  1  0  0  0  0
  8 19  2  0  0  0  0
  9 18  1  0  0  0  0
  9 29  1  0  0  0  0
  9 30  1  0  0  0  0
 10 11  1  0  0  0  0
 10 20  1  0  0  0  0
 11 12  1  0  0  0  0
 11 21  1  0  0  0  0
 12 13  1  0  0  0  0
 12 22  1  0  0  0  0
 13 15  1  0  0  0  0
 13 23  1  0  0  0  0
 14 17  1  0  0  0  0
 15 24  1  0  0  0  0
 16 25  1  0  0  0  0
 17 18  2  0  0  0  0
 19 28  1  0  0  0  0
M  END
> <PUBCHEM_COMPOUND_CID>
443234

> <PUBCHEM_CONFORMER_RMSD>
0.6

> <PUBCHEM_CONFORMER_DIVERSEORDER>
1
5
13
6
8
11
4
7
12
10
3
9
2

> <PUBCHEM_MMFF94_PARTIAL_CHARGES>
26
1 -0.56
10 0.54
11 0.28
12 0.28
13 0.34
14 0.11
15 0.45
16 0.04
17 0.23
18 0.41
19 0.47
2 -0.68
24 0.06
25 0.15
26 0.4
27 0.4
28 0.15
29 0.4
3 -0.68
30 0.4
4 -0.57
5 0.05
6 -0.57
7 -0.57
8 -0.62
9 -0.9

> <PUBCHEM_EFFECTIVE_ROTOR_COUNT>
3

> <PUBCHEM_PHARMACOPHORE_FEATURES>
14
1 1 acceptor
1 2 acceptor
1 2 donor
1 3 acceptor
1 3 donor
1 4 acceptor
1 9 cation
1 9 donor
3 5 6 16 cation
3 5 7 14 cation
3 7 8 19 cation
5 1 10 11 12 13 rings
5 5 6 14 16 17 rings
6 7 8 14 17 18 19 rings

> <PUBCHEM_HEAVY_ATOM_COUNT>
19

> <PUBCHEM_ATOM_DEF_STEREO_COUNT>
4

> <PUBCHEM_ATOM_UDEF_STEREO_COUNT>
0

> <PUBCHEM_BOND_DEF_STEREO_COUNT>
0

> <PUBCHEM_BOND_UDEF_STEREO_COUNT>
0

> <PUBCHEM_ISOTOPIC_ATOM_COUNT>
0

> <PUBCHEM_COMPONENT_COUNT>
1

> <PUBCHEM_CACTVS_TAUTO_COUNT>
6

> <PUBCHEM_CONFORMER_ID>
0006C36200000001

> <PUBCHEM_MMFF94_ENERGY>
41.1188

> <PUBCHEM_FEATURE_SELFOVERLAP>
71.672

> <PUBCHEM_SHAPE_FINGERPRINT>
10608611 8 18411421691600452429
10646746 165 18341898523330185741
10922523 26 18410294722125193550
1100329 8 16464741109156836552
11132069 177 18343866623891020205
12032990 46 18343012277528386179
12251169 10 18270973331969614192
12403259 226 18412545427033506613
12403259 415 18411699919777027197
12507560 40 18408608054356235720
12553582 1 17335038076225053907
13134695 92 17531821250171575360
13296908 3 18410011052409580116
13571099 22 18334857259650820294
13581323 91 18202004300258395613
13675066 3 18410857659388898235
14289901 80 18187366476456957411
14866123 147 17110152175556368034
15219456 202 18334580139501967876
15536298 74 18410014359539945619
15653759 3 18412543223388236021
16945 1 18340488867739747191
17804303 29 18343014523332039055
18186145 218 18187638124369198657
19049666 15 18336830900160492320
19784866 170 18335712594362783096
200 152 17748834037862545821
20510252 161 18411135814641018257
20645477 70 17822295720849345718
21065199 12 18408606950365167425
21065201 7 18131072674904809427
23402539 116 18268161876911850735
23559900 14 18410855490683582516
2748010 2 18341336690015306237
43471831 8 17917719032373938035
474 4 15431182161807277264
495365 180 17895773879652283306
5104073 3 18410009966036108083
69090 78 18260554394276442095
7364860 26 18339355254609971044
77492 1 14851606591662105533
9709674 26 18340767044245274283

> <PUBCHEM_SHAPE_MULTIPOLES>
342.63
8.07
2.18
0.96
2.56
0.04
0.1
1.08
0.81
-0.82
-0.06
-0.54
-0.07
1.5

> <PUBCHEM_SHAPE_SELFOVERLAP>
751.189

> <PUBCHEM_SHAPE_VOLUME>
182.3

> <PUBCHEM_COORDINATE_TYPE>
2
5
10

$$$$

