25201123
  -OEChem-07051213103D

 61 63  0     1  0  0  0  0  0999 V2000
   -4.7821   -1.3690   -1.6346 O   0  0  0  0  0  0  0  0  0  0  0  0
   -5.6200    1.3725    0.7095 O   0  0  0  0  0  0  0  0  0  0  0  0
   -1.5075   -3.2027    2.1498 O   0  0  0  0  0  0  0  0  0  0  0  0
   -5.3309    3.2281   -0.5604 O   0  0  0  0  0  0  0  0  0  0  0  0
    4.2528   -1.4856   -1.0964 O   0  0  0  0  0  0  0  0  0  0  0  0
    0.9393    4.4472    0.5708 O   0  0  0  0  0  0  0  0  0  0  0  0
    3.7305    3.0097   -0.4521 O   0  0  0  0  0  0  0  0  0  0  0  0
    4.4612    2.6388    1.6621 O   0  0  0  0  0  0  0  0  0  0  0  0
   -3.5858    0.1041   -0.2418 N   0  0  0  0  0  0  0  0  0  0  0  0
   -2.3546   -2.7807    0.0346 N   0  0  0  0  0  0  0  0  0  0  0  0
   -0.2241   -5.4382    1.1467 N   0  0  0  0  0  0  0  0  0  0  0  0
    6.7671    1.5149    0.8336 N   0  0  0  0  0  0  0  0  0  0  0  0
   -3.4001   -1.8341    0.4613 C   0  0  1  0  0  0  0  0  0  0  0  0
   -2.8772   -0.4527    0.8988 C   0  0  0  0  0  0  0  0  0  0  0  0
   -4.0848   -1.0778   -0.6899 C   0  0  0  0  0  0  0  0  0  0  0  0
   -3.6879    1.4484   -0.7116 C   0  0  2  0  0  0  0  0  0  0  0  0
   -2.4531    2.2482   -0.3697 C   0  0  0  0  0  0  0  0  0  0  0  0
   -1.4877   -3.3899    0.9342 C   0  0  0  0  0  0  0  0  0  0  0  0
   -4.9581    2.1143   -0.2114 C   0  0  0  0  0  0  0  0  0  0  0  0
   -0.4636   -4.2977    0.2427 C   0  0  1  0  0  0  0  0  0  0  0  0
   -1.3511    2.2308   -1.2248 C   0  0  0  0  0  0  0  0  0  0  0  0
   -2.4148    3.0046    0.8016 C   0  0  0  0  0  0  0  0  0  0  0  0
    0.7808   -3.5561   -0.1110 C   0  0  0  0  0  0  0  0  0  0  0  0
   -0.2111    2.9696   -0.9086 C   0  0  0  0  0  0  0  0  0  0  0  0
   -1.2748    3.7434    1.1179 C   0  0  0  0  0  0  0  0  0  0  0  0
   -0.1730    3.7258    0.2628 C   0  0  0  0  0  0  0  0  0  0  0  0
    1.1922   -3.4775   -1.4415 C   0  0  0  0  0  0  0  0  0  0  0  0
    1.5333   -2.9406    0.8892 C   0  0  0  0  0  0  0  0  0  0  0  0
    2.3562   -2.7835   -1.7718 C   0  0  0  0  0  0  0  0  0  0  0  0
    2.6974   -2.2467    0.5591 C   0  0  0  0  0  0  0  0  0  0  0  0
    3.1089   -2.1682   -0.7714 C   0  0  0  0  0  0  0  0  0  0  0  0
    5.3674    0.6738   -1.0478 C   0  0  0  0  0  0  0  0  0  0  0  0
    4.6057   -0.3916   -0.2627 C   0  0  0  0  0  0  0  0  0  0  0  0
    5.8236    1.8858   -0.2209 C   0  0  1  0  0  0  0  0  0  0  0  0
    4.6256    2.5328    0.4537 C   0  0  0  0  0  0  0  0  0  0  0  0
   -4.1167   -2.2933    1.1510 H   0  0  0  0  0  0  0  0  0  0  0  0
   -3.2581   -0.0987    1.8609 H   0  0  0  0  0  0  0  0  0  0  0  0
   -1.7930   -0.3146    0.8503 H   0  0  0  0  0  0  0  0  0  0  0  0
   -3.8127    1.3920   -1.8013 H   0  0  0  0  0  0  0  0  0  0  0  0
   -2.2471   -2.9931   -0.9545 H   0  0  0  0  0  0  0  0  0  0  0  0
   -0.9279   -4.7095   -0.6626 H   0  0  0  0  0  0  0  0  0  0  0  0
   -1.3683    1.6434   -2.1390 H   0  0  0  0  0  0  0  0  0  0  0  0
   -3.2484    3.0244    1.4977 H   0  0  0  0  0  0  0  0  0  0  0  0
    0.6447    2.9510   -1.5780 H   0  0  0  0  0  0  0  0  0  0  0  0
   -1.2557    4.3254    2.0355 H   0  0  0  0  0  0  0  0  0  0  0  0
    0.3987   -6.1036    0.6893 H   0  0  0  0  0  0  0  0  0  0  0  0
   -1.1003   -5.9369    1.3003 H   0  0  0  0  0  0  0  0  0  0  0  0
   -6.4230    1.8291    1.0396 H   0  0  0  0  0  0  0  0  0  0  0  0
    0.6166   -3.9508   -2.2325 H   0  0  0  0  0  0  0  0  0  0  0  0
    1.2372   -2.9983    1.9332 H   0  0  0  0  0  0  0  0  0  0  0  0
    2.6718   -2.7249   -2.8099 H   0  0  0  0  0  0  0  0  0  0  0  0
    3.2693   -1.8078    1.3712 H   0  0  0  0  0  0  0  0  0  0  0  0
    6.2389    0.2065   -1.5254 H   0  0  0  0  0  0  0  0  0  0  0  0
    4.7349    1.0088   -1.8806 H   0  0  0  0  0  0  0  0  0  0  0  0
    5.2281   -0.7698    0.5563 H   0  0  0  0  0  0  0  0  0  0  0  0
    3.7102    0.0810    0.1592 H   0  0  0  0  0  0  0  0  0  0  0  0
    6.2986    2.6300   -0.8697 H   0  0  0  0  0  0  0  0  0  0  0  0
    0.7926    4.9075    1.4150 H   0  0  0  0  0  0  0  0  0  0  0  0
    7.1129    2.3555    1.2951 H   0  0  0  0  0  0  0  0  0  0  0  0
    7.5809    1.0632    0.4182 H   0  0  0  0  0  0  0  0  0  0  0  0
    2.9602    3.4319   -0.0158 H   0  0  0  0  0  0  0  0  0  0  0  0
  1 15  2  0  0  0  0
  2 19  1  0  0  0  0
  2 48  1  0  0  0  0
  3 18  2  0  0  0  0
  4 19  2  0  0  0  0
  5 31  1  0  0  0  0
  5 33  1  0  0  0  0
  6 26  1  0  0  0  0
  6 58  1  0  0  0  0
  7 35  1  0  0  0  0
  7 61  1  0  0  0  0
  8 35  2  0  0  0  0
  9 14  1  0  0  0  0
  9 15  1  0  0  0  0
  9 16  1  0  0  0  0
 10 13  1  0  0  0  0
 10 18  1  0  0  0  0
 10 40  1  0  0  0  0
 11 20  1  0  0  0  0
 11 46  1  0  0  0  0
 11 47  1  0  0  0  0
 12 34  1  0  0  0  0
 12 59  1  0  0  0  0
 12 60  1  0  0  0  0
 13 14  1  0  0  0  0
 13 15  1  0  0  0  0
 13 36  1  0  0  0  0
 14 37  1  0  0  0  0
 14 38  1  0  0  0  0
 16 17  1  0  0  0  0
 16 19  1  0  0  0  0
 16 39  1  0  0  0  0
 17 21  2  0  0  0  0
 17 22  1  0  0  0  0
 18 20  1  0  0  0  0
 20 23  1  0  0  0  0
 20 41  1  0  0  0  0
 21 24  1  0  0  0  0
 21 42  1  0  0  0  0
 22 25  2  0  0  0  0
 22 43  1  0  0  0  0
 23 27  2  0  0  0  0
 23 28  1  0  0  0  0
 24 26  2  0  0  0  0
 24 44  1  0  0  0  0
 25 26  1  0  0  0  0
 25 45  1  0  0  0  0
 27 29  1  0  0  0  0
 27 49  1  0  0  0  0
 28 30  2  0  0  0  0
 28 50  1  0  0  0  0
 29 31  2  0  0  0  0
 29 51  1  0  0  0  0
 30 31  1  0  0  0  0
 30 52  1  0  0  0  0
 32 33  1  0  0  0  0
 32 34  1  0  0  0  0
 32 53  1  0  0  0  0
 32 54  1  0  0  0  0
 33 55  1  0  0  0  0
 33 56  1  0  0  0  0
 34 35  1  0  0  0  0
 34 57  1  0  0  0  0
M  END
> <PUBCHEM_COMPOUND_CID>
25201123

> <PUBCHEM_CONFORMER_RMSD>
1.2

> <PUBCHEM_CONFORMER_DIVERSEORDER>
1
50
76
33
68
25
41
59
77
34
45
13
73
20
26
71
7
58
48
27
67
66
54
63
14
6
62
28
11
8
74
64
15
37
69
51
39
46
60
49
52
17
36
35
61
19
31
65
5
53
38
40
12
57
2
44
9
72
22
23
43
32
21
56
47
42
55
4
18
75
30
70
29
24
3
16
10

> <PUBCHEM_MMFF94_PARTIAL_CHARGES>
50
1 -0.57
10 -0.65
11 -0.99
12 -0.99
13 0.28
14 0.22
15 0.58
16 0.5
17 -0.14
18 0.57
19 0.66
2 -0.65
20 0.47
21 -0.15
22 -0.15
23 -0.14
24 -0.15
25 -0.15
26 0.08
27 -0.15
28 -0.15
29 -0.15
3 -0.57
30 -0.15
31 0.08
33 0.28
34 0.33
35 0.66
4 -0.57
40 0.37
42 0.15
43 0.15
44 0.15
45 0.15
46 0.36
47 0.36
48 0.5
49 0.15
5 -0.36
50 0.15
51 0.15
52 0.15
58 0.45
59 0.36
6 -0.53
60 0.36
61 0.5
7 -0.65
8 -0.57
9 -0.59

> <PUBCHEM_EFFECTIVE_ROTOR_COUNT>
12.6

> <PUBCHEM_PHARMACOPHORE_FEATURES>
18
1 1 acceptor
1 10 donor
1 11 cation
1 11 donor
1 12 cation
1 12 donor
1 2 acceptor
1 3 acceptor
1 4 acceptor
1 5 acceptor
1 6 donor
1 7 acceptor
1 8 acceptor
3 2 4 19 anion
3 7 8 35 anion
4 9 13 14 15 rings
6 17 21 22 24 25 26 rings
6 23 27 28 29 30 31 rings

> <PUBCHEM_HEAVY_ATOM_COUNT>
35

> <PUBCHEM_ATOM_DEF_STEREO_COUNT>
4

> <PUBCHEM_ATOM_UDEF_STEREO_COUNT>
0

> <PUBCHEM_BOND_DEF_STEREO_COUNT>
0

> <PUBCHEM_BOND_UDEF_STEREO_COUNT>
0

> <PUBCHEM_ISOTOPIC_ATOM_COUNT>
0

> <PUBCHEM_COMPONENT_COUNT>
1

> <PUBCHEM_CACTVS_TAUTO_COUNT>
4

> <PUBCHEM_CONFORMER_ID>
018089E300000001

> <PUBCHEM_MMFF94_ENERGY>
80.1959

> <PUBCHEM_FEATURE_SELFOVERLAP>
91.457

> <PUBCHEM_SHAPE_FINGERPRINT>
10675989 125 18052540164344387681
10864689 126 18337949108245391764
13561361 72 18267307517780463192
1361 2 18339359772393625800
15320467 1 18194681467107998084
15927050 60 18336552698750955021
15975801 100 17343777360478852294
16112460 7 18190731115118972912
16992787 43 18411139139631280215
20764821 26 18338806722444719298
21133410 221 17682420061022348696
21344244 246 17038672366785755303
21859007 373 18260825957386479550
325973 47 18265329508830336068
354706 109 18193300540749722104
373842 8 17834396718217898006
437795 96 17976544905871989416
50150288 127 16517626261370025808
5776283 40 18194665181061965310
6036956 94 18055065463370401301

> <PUBCHEM_SHAPE_MULTIPOLES>
653.41
12.31
7.92
1.41
7.39
2.77
-0.02
-9.65
1.15
0.66
-1.89
0.18
0.62
1.52

> <PUBCHEM_SHAPE_SELFOVERLAP>
1386.162

> <PUBCHEM_SHAPE_VOLUME>
361.4

> <PUBCHEM_COORDINATE_TYPE>
2
5
10

$$$$

