441647
  -OEChem-07051212552D

 30 32  0     0  0  0  0  0  0999 V2000
    6.0290    0.9226    0.0000 O   0  3  0  0  0  0  0  0  0  0  0  0
    4.2690   -2.1121    0.0000 O   0  0  0  0  0  0  0  0  0  0  0  0
    2.5369    0.8879    0.0000 O   0  0  0  0  0  0  0  0  0  0  0  0
   10.3914    2.4221    0.0000 O   0  0  0  0  0  0  0  0  0  0  0  0
    5.1350   -0.6121    0.0000 C   0  0  0  0  0  0  0  0  0  0  0  0
    5.1350    0.3879    0.0000 C   0  0  0  0  0  0  0  0  0  0  0  0
    6.9350    0.4087    0.0000 C   0  0  0  0  0  0  0  0  0  0  0  0
    7.7991    0.9121    0.0000 C   0  0  0  0  0  0  0  0  0  0  0  0
    6.0290   -1.1467    0.0000 C   0  0  0  0  0  0  0  0  0  0  0  0
    6.9350   -0.6329    0.0000 C   0  0  0  0  0  0  0  0  0  0  0  0
    4.2690   -1.1121    0.0000 C   0  0  0  0  0  0  0  0  0  0  0  0
    4.2690    0.8879    0.0000 C   0  0  0  0  0  0  0  0  0  0  0  0
    3.4030    0.3879    0.0000 C   0  0  0  0  0  0  0  0  0  0  0  0
    3.4030   -0.6121    0.0000 C   0  0  0  0  0  0  0  0  0  0  0  0
    8.6671    0.4154    0.0000 C   0  0  0  0  0  0  0  0  0  0  0  0
    7.7953    1.9121    0.0000 C   0  0  0  0  0  0  0  0  0  0  0  0
    9.5312    0.9188    0.0000 C   0  0  0  0  0  0  0  0  0  0  0  0
    8.6594    2.4154    0.0000 C   0  0  0  0  0  0  0  0  0  0  0  0
    9.5273    1.9187    0.0000 C   0  0  0  0  0  0  0  0  0  0  0  0
    6.0218   -1.7667    0.0000 H   0  0  0  0  0  0  0  0  0  0  0  0
    7.4708   -0.9450    0.0000 H   0  0  0  0  0  0  0  0  0  0  0  0
    4.2690    1.5079    0.0000 H   0  0  0  0  0  0  0  0  0  0  0  0
    2.8660   -0.9221    0.0000 H   0  0  0  0  0  0  0  0  0  0  0  0
    8.6694   -0.2046    0.0000 H   0  0  0  0  0  0  0  0  0  0  0  0
    7.2571    2.2200    0.0000 H   0  0  0  0  0  0  0  0  0  0  0  0
   10.0693    0.6108    0.0000 H   0  0  0  0  0  0  0  0  0  0  0  0
    8.6570    3.0354    0.0000 H   0  0  0  0  0  0  0  0  0  0  0  0
    3.7320   -2.4221    0.0000 H   0  0  0  0  0  0  0  0  0  0  0  0
    2.0000    0.5779    0.0000 H   0  0  0  0  0  0  0  0  0  0  0  0
   10.9295    2.1142    0.0000 H   0  0  0  0  0  0  0  0  0  0  0  0
  1  6  1  0  0  0  0
  1  7  2  0  0  0  0
  2 11  1  0  0  0  0
  2 28  1  0  0  0  0
  3 13  1  0  0  0  0
  3 29  1  0  0  0  0
  4 19  1  0  0  0  0
  4 30  1  0  0  0  0
  5  6  1  0  0  0  0
  5  9  1  0  0  0  0
  5 11  2  0  0  0  0
  6 12  2  0  0  0  0
  7  8  1  0  0  0  0
  7 10  1  0  0  0  0
  8 15  2  0  0  0  0
  8 16  1  0  0  0  0
  9 10  2  0  0  0  0
  9 20  1  0  0  0  0
 10 21  1  0  0  0  0
 11 14  1  0  0  0  0
 12 13  1  0  0  0  0
 12 22  1  0  0  0  0
 13 14  2  0  0  0  0
 14 23  1  0  0  0  0
 15 17  1  0  0  0  0
 15 24  1  0  0  0  0
 16 18  2  0  0  0  0
 16 25  1  0  0  0  0
 17 19  2  0  0  0  0
 17 26  1  0  0  0  0
 18 19  1  0  0  0  0
 18 27  1  0  0  0  0
M  CHG  1   1   1
M  END
> <PUBCHEM_COMPOUND_CID>
441647

> <PUBCHEM_COMPOUND_CANONICALIZED>
1

> <PUBCHEM_CACTVS_COMPLEXITY>
301

> <PUBCHEM_CACTVS_HBOND_ACCEPTOR>
3

> <PUBCHEM_CACTVS_HBOND_DONOR>
3

> <PUBCHEM_CACTVS_ROTATABLE_BOND>
1

> <PUBCHEM_CACTVS_SUBSKEYS>
AAADccBwOAAAAAAAAAAAAAAAAAAAAAAAAAA0YIAAAAAAAACR9AAAGgAACAAADASAmAAwBsAABkCIAqBSAAACCAAkIAAIiAEGCMgMJzaGNRqCeWCl4BUIuYeI7OzOIAAACAAIAABAAAAQABAAAAAAAAAAAA==

> <PUBCHEM_IUPAC_OPENEYE_NAME>
2-(4-hydroxyphenyl)chromenylium-5,7-diol

> <PUBCHEM_IUPAC_CAS_NAME>
2-(4-hydroxyphenyl)-1-benzopyrylium-5,7-diol

> <PUBCHEM_IUPAC_NAME>
2-(4-hydroxyphenyl)chromenylium-5,7-diol

> <PUBCHEM_IUPAC_SYSTEMATIC_NAME>
2-(4-hydroxyphenyl)chromenylium-5,7-diol

> <PUBCHEM_IUPAC_TRADITIONAL_NAME>
2-(4-hydroxyphenyl)-1-benzopyrylium-5,7-diol

> <PUBCHEM_IUPAC_INCHI>
InChI=1S/C15H10O4/c16-10-3-1-9(2-4-10)14-6-5-12-13(18)7-11(17)8-15(12)19-14/h1-8H,(H2-,16,17,18)/p+1

> <PUBCHEM_IUPAC_INCHIKEY>
ZKMZBAABQFUXFE-UHFFFAOYSA-O

> <PUBCHEM_EXACT_MASS>
255.065734

> <PUBCHEM_MOLECULAR_FORMULA>
C15H11O4+

> <PUBCHEM_MOLECULAR_WEIGHT>
255.24544

> <PUBCHEM_OPENEYE_CAN_SMILES>
C1=CC(=CC=C1C2=[O+]C3=CC(=CC(=C3C=C2)O)O)O

> <PUBCHEM_OPENEYE_ISO_SMILES>
C1=CC(=CC=C1C2=[O+]C3=CC(=CC(=C3C=C2)O)O)O

> <PUBCHEM_CACTVS_TPSA>
61.7

> <PUBCHEM_MONOISOTOPIC_WEIGHT>
255.065734

> <PUBCHEM_TOTAL_CHARGE>
1

> <PUBCHEM_HEAVY_ATOM_COUNT>
19

> <PUBCHEM_ATOM_DEF_STEREO_COUNT>
0

> <PUBCHEM_ATOM_UDEF_STEREO_COUNT>
0

> <PUBCHEM_BOND_DEF_STEREO_COUNT>
0

> <PUBCHEM_BOND_UDEF_STEREO_COUNT>
0

> <PUBCHEM_ISOTOPIC_ATOM_COUNT>
0

> <PUBCHEM_COMPONENT_COUNT>
1

> <PUBCHEM_CACTVS_TAUTO_COUNT>
70

> <PUBCHEM_COORDINATE_TYPE>
1
5
255

> <PUBCHEM_BONDANNOTATIONS>
1  6  8
1  7  8
11  14  8
12  13  8
13  14  8
15  17  8
16  18  8
17  19  8
18  19  8
5  11  8
5  6  8
5  9  8
6  12  8
7  10  8
8  15  8
8  16  8
9  10  8

$$$$

