442629
  -OEChem-07051212583D

 35 36  0     1  0  0  0  0  0999 V2000
    1.6928    0.5527    1.2984 O   0  0  0  0  0  0  0  0  0  0  0  0
    1.8959    0.8780   -2.3679 O   0  0  0  0  0  0  0  0  0  0  0  0
    3.1312   -1.6676   -1.8721 O   0  0  0  0  0  0  0  0  0  0  0  0
    4.4988   -1.7380    0.6774 O   0  0  0  0  0  0  0  0  0  0  0  0
    4.0182    0.8495    1.6515 O   0  0  0  0  0  0  0  0  0  0  0  0
   -0.7454    0.8987    0.0217 O   0  0  0  0  0  0  0  0  0  0  0  0
   -2.3841    2.5077   -0.1379 O   0  0  0  0  0  0  0  0  0  0  0  0
   -3.3380   -2.1464    0.2545 N   0  0  0  0  0  0  0  0  0  0  0  0
    1.8275    0.1992   -1.1161 C   0  0  1  0  0  0  0  0  0  0  0  0
    3.1257   -0.5896   -0.9333 C   0  0  1  0  0  0  0  0  0  0  0  0
    1.6239    1.2049    0.0252 C   0  0  1  0  0  0  0  0  0  0  0  0
    3.2137   -1.1587    0.4813 C   0  0  2  0  0  0  0  0  0  0  0  0
    2.9479   -0.0867    1.5393 C   0  0  2  0  0  0  0  0  0  0  0  0
    0.2623    1.8904   -0.0512 C   0  0  0  0  0  0  0  0  0  0  0  0
   -2.0344    1.3423   -0.0328 C   0  0  0  0  0  0  0  0  0  0  0  0
   -2.9906    0.2099    0.0543 C   0  0  0  0  0  0  0  0  0  0  0  0
   -4.3429    0.4512    0.0179 C   0  0  0  0  0  0  0  0  0  0  0  0
   -2.5224   -1.0715    0.1707 C   0  0  0  0  0  0  0  0  0  0  0  0
   -5.2140   -0.6293    0.1015 C   0  0  0  0  0  0  0  0  0  0  0  0
   -4.6662   -1.8966    0.2175 C   0  0  0  0  0  0  0  0  0  0  0  0
    0.9872   -0.5046   -1.1665 H   0  0  0  0  0  0  0  0  0  0  0  0
    4.0024    0.0262   -1.1672 H   0  0  0  0  0  0  0  0  0  0  0  0
    2.3879    1.9915   -0.0222 H   0  0  0  0  0  0  0  0  0  0  0  0
    2.4753   -1.9635    0.5835 H   0  0  0  0  0  0  0  0  0  0  0  0
    2.8776   -0.5694    2.5195 H   0  0  0  0  0  0  0  0  0  0  0  0
    0.1666    2.4555   -0.9853 H   0  0  0  0  0  0  0  0  0  0  0  0
    0.1475    2.5738    0.7987 H   0  0  0  0  0  0  0  0  0  0  0  0
    1.8738    0.2072   -3.0708 H   0  0  0  0  0  0  0  0  0  0  0  0
    3.2067   -1.2841   -2.7619 H   0  0  0  0  0  0  0  0  0  0  0  0
    5.1610   -1.0292    0.6112 H   0  0  0  0  0  0  0  0  0  0  0  0
    4.3870    1.0088    0.7677 H   0  0  0  0  0  0  0  0  0  0  0  0
   -4.7479    1.4542   -0.0736 H   0  0  0  0  0  0  0  0  0  0  0  0
   -1.4696   -1.3291    0.2051 H   0  0  0  0  0  0  0  0  0  0  0  0
   -6.2880   -0.4842    0.0767 H   0  0  0  0  0  0  0  0  0  0  0  0
   -5.3026   -2.7727    0.2861 H   0  0  0  0  0  0  0  0  0  0  0  0
  1 11  1  0  0  0  0
  1 13  1  0  0  0  0
  2  9  1  0  0  0  0
  2 28  1  0  0  0  0
  3 10  1  0  0  0  0
  3 29  1  0  0  0  0
  4 12  1  0  0  0  0
  4 30  1  0  0  0  0
  5 13  1  0  0  0  0
  5 31  1  0  0  0  0
  6 14  1  0  0  0  0
  6 15  1  0  0  0  0
  7 15  2  0  0  0  0
  8 18  1  0  0  0  0
  8 20  2  0  0  0  0
  9 10  1  0  0  0  0
  9 11  1  0  0  0  0
  9 21  1  0  0  0  0
 10 12  1  0  0  0  0
 10 22  1  0  0  0  0
 11 14  1  0  0  0  0
 11 23  1  0  0  0  0
 12 13  1  0  0  0  0
 12 24  1  0  0  0  0
 13 25  1  0  0  0  0
 14 26  1  0  0  0  0
 14 27  1  0  0  0  0
 15 16  1  0  0  0  0
 16 17  1  0  0  0  0
 16 18  2  0  0  0  0
 17 19  2  0  0  0  0
 17 32  1  0  0  0  0
 18 33  1  0  0  0  0
 19 20  1  0  0  0  0
 19 34  1  0  0  0  0
 20 35  1  0  0  0  0
M  END
> <PUBCHEM_COMPOUND_CID>
442629

> <PUBCHEM_CONFORMER_RMSD>
0.8

> <PUBCHEM_CONFORMER_DIVERSEORDER>
1
94
82
75
32
99
129
31
39
100
46
128
87
72
98
34
138
9
107
112
4
102
136
144
104
52
67
118
139
2
111
42
101
66
141
148
49
127
116
51
122
22
124
114
90
108
41
140
143
20
29
63
76
133
91
106
40
11
110
55
25
21
109
3
145
7
121
79
35
92
134
115
54
142
38
73
17
130
126
10
30
74
36
105
119
45
71
50
93
15
16
61
47
95
146
85
37
132
137
12
86
26
13
120
96
103
58
62
18
78
113
14
27
28
97
81
6
57
125
64
131
24
44
77
60
56
23
33
59
147
89
83
8
88
53
19
123
84
68
48
70
135
5
80
69
43
117
65

> <PUBCHEM_MMFF94_PARTIAL_CHARGES>
28
1 -0.56
10 0.28
11 0.28
12 0.28
13 0.56
14 0.28
15 0.63
16 0.09
17 -0.15
18 0.16
19 -0.15
2 -0.68
20 0.16
28 0.4
29 0.4
3 -0.68
30 0.4
31 0.4
32 0.15
33 0.15
34 0.15
35 0.15
4 -0.68
5 -0.68
6 -0.43
7 -0.57
8 -0.62
9 0.28

> <PUBCHEM_EFFECTIVE_ROTOR_COUNT>
5.2

> <PUBCHEM_PHARMACOPHORE_FEATURES>
13
1 1 acceptor
1 2 acceptor
1 2 donor
1 3 acceptor
1 3 donor
1 4 acceptor
1 4 donor
1 5 acceptor
1 5 donor
1 7 acceptor
1 8 acceptor
6 1 9 10 11 12 13 rings
6 8 16 17 18 19 20 rings

> <PUBCHEM_HEAVY_ATOM_COUNT>
20

> <PUBCHEM_ATOM_DEF_STEREO_COUNT>
5

> <PUBCHEM_ATOM_UDEF_STEREO_COUNT>
0

> <PUBCHEM_BOND_DEF_STEREO_COUNT>
0

> <PUBCHEM_BOND_UDEF_STEREO_COUNT>
0

> <PUBCHEM_ISOTOPIC_ATOM_COUNT>
0

> <PUBCHEM_COMPONENT_COUNT>
1

> <PUBCHEM_CACTVS_TAUTO_COUNT>
1

> <PUBCHEM_CONFORMER_ID>
0006C10500000001

> <PUBCHEM_MMFF94_ENERGY>
54.7014

> <PUBCHEM_FEATURE_SELFOVERLAP>
66.021

> <PUBCHEM_SHAPE_FINGERPRINT>
10042902 136 17557441056789656378
12363563 72 18409444765688660321
12553582 1 18342446029034748489
13911882 115 18186798046283788298
14251764 30 15720771693656212588
14251764 38 5688219417142414147
14252887 29 18040996224102316072
14386348 63 18186800283655644935
15885798 251 18411417281270322273
16752209 62 18200881772539391753
1813 80 17775002358785117541
18186145 218 12751250194357371885
18915474 69 18060132111755987055
19107657 162 18260548935077252213
19862831 5 16917067759009631665
20281475 54 18412257320796290785
20403669 9 18408603669384816367
20645477 70 18267864995665623805
22646028 1 18131351908151191047
22646028 28 18343866602136466107
23557571 272 18335704974357615888
23559900 14 18334284392401998981
23598291 2 17489016179743209868
2637199 183 7637128095047270632
2838139 119 10158249928304924618
3004659 81 18060419093065355191
3009799 131 12895082838368317800
3060560 45 15051735274576054600
314173 41 18341607067181736585
316301 35 18336266855254804146
474 4 13840275753404875138
5104073 3 18334570223118872969
633830 44 12391248080137633235
7471813 234 16630251398146138940
8988823 20 17095813122791586881
960060 61 17275103899516110847
9709674 26 18334297565419824325

> <PUBCHEM_SHAPE_MULTIPOLES>
365.52
10.28
2.15
1.41
5.81
0.03
0.43
-5.23
-1.4
0.87
0.08
-2.3
-0.01
0.4

> <PUBCHEM_SHAPE_SELFOVERLAP>
767.988

> <PUBCHEM_SHAPE_VOLUME>
201.8

> <PUBCHEM_COORDINATE_TYPE>
2
5
10

$$$$

