5282139
  -OEChem-07051213032D

 50 50  0     1  0  0  0  0  0999 V2000
    5.1355    2.6200    0.0000 O   0  0  0  0  0  0  0  0  0  0  0  0
    1.6714    0.6200    0.0000 O   0  0  0  0  0  0  0  0  0  0  0  0
    3.4035    2.6200    0.0000 O   0  0  0  0  0  0  0  0  0  0  0  0
    2.5375    2.1200    0.0000 O   0  0  0  0  0  0  0  0  0  0  0  0
    1.4030   10.8600    0.0000 N   0  0  0  0  0  0  0  0  0  0  0  0
    4.0010    7.3600    0.0000 N   0  0  0  0  0  0  0  0  0  0  0  0
    3.1350    8.8600    0.0000 C   0  0  3  0  0  0  0  0  0  0  0  0
    2.2690    9.3600    0.0000 C   0  0  0  0  0  0  0  0  0  0  0  0
    2.2690   10.3600    0.0000 C   0  0  0  0  0  0  0  0  0  0  0  0
    4.0010    9.3600    0.0000 C   0  0  0  0  0  0  0  0  0  0  0  0
    3.1350    7.8600    0.0000 C   0  0  0  0  0  0  0  0  0  0  0  0
    4.8671    8.8600    0.0000 C   0  0  0  0  0  0  0  0  0  0  0  0
    4.0010   10.3600    0.0000 C   0  0  0  0  0  0  0  0  0  0  0  0
    2.2690    7.3600    0.0000 C   0  0  0  0  0  0  0  0  0  0  0  0
    1.4030   11.8600    0.0000 C   0  0  0  0  0  0  0  0  0  0  0  0
    0.5369   10.3600    0.0000 C   0  0  0  0  0  0  0  0  0  0  0  0
    5.7331    9.3600    0.0000 C   0  0  0  0  0  0  0  0  0  0  0  0
    4.8671   10.8600    0.0000 C   0  0  0  0  0  0  0  0  0  0  0  0
    2.2690    6.3600    0.0000 C   0  0  0  0  0  0  0  0  0  0  0  0
    5.7331   10.3600    0.0000 C   0  0  0  0  0  0  0  0  0  0  0  0
    4.0010    6.3600    0.0000 C   0  0  0  0  0  0  0  0  0  0  0  0
    3.1350    5.8600    0.0000 C   0  0  0  0  0  0  0  0  0  0  0  0
    3.4035    0.6200    0.0000 C   0  0  0  0  0  0  0  0  0  0  0  0
    4.2695    1.1200    0.0000 C   0  0  0  0  0  0  0  0  0  0  0  0
    4.2695    2.1200    0.0000 C   0  0  0  0  0  0  0  0  0  0  0  0
    2.5375    1.1200    0.0000 C   0  0  0  0  0  0  0  0  0  0  0  0
    2.5981    8.5500    0.0000 H   0  0  0  0  0  0  0  0  0  0  0  0
    1.6584    9.4677    0.0000 H   0  0  0  0  0  0  0  0  0  0  0  0
    2.0569    8.7774    0.0000 H   0  0  0  0  0  0  0  0  0  0  0  0
    2.8796   10.2523    0.0000 H   0  0  0  0  0  0  0  0  0  0  0  0
    2.4810   10.9426    0.0000 H   0  0  0  0  0  0  0  0  0  0  0  0
    4.8671    8.2400    0.0000 H   0  0  0  0  0  0  0  0  0  0  0  0
    3.4641   10.6700    0.0000 H   0  0  0  0  0  0  0  0  0  0  0  0
    1.7320    7.6700    0.0000 H   0  0  0  0  0  0  0  0  0  0  0  0
    2.0230   11.8600    0.0000 H   0  0  0  0  0  0  0  0  0  0  0  0
    1.4030   12.4800    0.0000 H   0  0  0  0  0  0  0  0  0  0  0  0
    0.2269   10.8969    0.0000 H   0  0  0  0  0  0  0  0  0  0  0  0
    0.0000   10.0500    0.0000 H   0  0  0  0  0  0  0  0  0  0  0  0
    0.8469    9.8231    0.0000 H   0  0  0  0  0  0  0  0  0  0  0  0
    0.7830   11.8600    0.0000 H   0  0  0  0  0  0  0  0  0  0  0  0
    6.2700    9.0500    0.0000 H   0  0  0  0  0  0  0  0  0  0  0  0
    4.8671   11.4800    0.0000 H   0  0  0  0  0  0  0  0  0  0  0  0
    1.7320    6.0500    0.0000 H   0  0  0  0  0  0  0  0  0  0  0  0
    6.2700   10.6700    0.0000 H   0  0  0  0  0  0  0  0  0  0  0  0
    4.5380    6.0500    0.0000 H   0  0  0  0  0  0  0  0  0  0  0  0
    3.1350    5.2400    0.0000 H   0  0  0  0  0  0  0  0  0  0  0  0
    3.4035    0.0000    0.0000 H   0  0  0  0  0  0  0  0  0  0  0  0
    4.8064    0.8100    0.0000 H   0  0  0  0  0  0  0  0  0  0  0  0
    5.1355    3.2400    0.0000 H   0  0  0  0  0  0  0  0  0  0  0  0
    1.1345    0.9300    0.0000 H   0  0  0  0  0  0  0  0  0  0  0  0
  1 25  1  0  0  0  0
  1 49  1  0  0  0  0
  2 26  1  0  0  0  0
  2 50  1  0  0  0  0
  3 25  2  0  0  0  0
  4 26  2  0  0  0  0
  5  9  1  0  0  0  0
  5 15  1  0  0  0  0
  5 16  1  0  0  0  0
  6 11  1  0  0  0  0
  6 21  2  0  0  0  0
  7  8  1  0  0  0  0
  7 10  1  0  0  0  0
  7 11  1  0  0  0  0
  7 27  1  0  0  0  0
  8  9  1  0  0  0  0
  8 28  1  0  0  0  0
  8 29  1  0  0  0  0
  9 30  1  0  0  0  0
  9 31  1  0  0  0  0
 10 12  2  0  0  0  0
 10 13  1  0  0  0  0
 11 14  2  0  0  0  0
 12 17  1  0  0  0  0
 12 32  1  0  0  0  0
 13 18  2  0  0  0  0
 13 33  1  0  0  0  0
 14 19  1  0  0  0  0
 14 34  1  0  0  0  0
 15 35  1  0  0  0  0
 15 36  1  0  0  0  0
 15 40  1  0  0  0  0
 16 37  1  0  0  0  0
 16 38  1  0  0  0  0
 16 39  1  0  0  0  0
 17 20  2  0  0  0  0
 17 41  1  0  0  0  0
 18 20  1  0  0  0  0
 18 42  1  0  0  0  0
 19 22  2  0  0  0  0
 19 43  1  0  0  0  0
 20 44  1  0  0  0  0
 21 22  1  0  0  0  0
 21 45  1  0  0  0  0
 22 46  1  0  0  0  0
 23 24  2  0  0  0  0
 23 26  1  0  0  0  0
 23 47  1  0  0  0  0
 24 25  1  0  0  0  0
 24 48  1  0  0  0  0
M  END
> <PUBCHEM_COMPOUND_CID>
5282139

> <PUBCHEM_COMPOUND_CANONICALIZED>
1

> <PUBCHEM_CACTVS_COMPLEXITY>
340

> <PUBCHEM_CACTVS_HBOND_ACCEPTOR>
6

> <PUBCHEM_CACTVS_HBOND_DONOR>
2

> <PUBCHEM_CACTVS_ROTATABLE_BOND>
7

> <PUBCHEM_CACTVS_SUBSKEYS>
AAADceB7OAAAAAAAAAAAAAAAAAAAAAAAAAA8QAAAAAAAAAABwAAAHgAACAAADQjBngQ+iJMIEgCoAzT3TACCgCAxAiAI2CA4ZNgIJOLAkZGEMAhggADI2YcQgMAOgAAAAAAAAAAAAAAAAAAAAAAAAAAAAA==

> <PUBCHEM_IUPAC_OPENEYE_NAME>
N,N-dimethyl-3-phenyl-3-(2-pyridyl)propan-1-amine; maleic acid

> <PUBCHEM_IUPAC_CAS_NAME>
(Z)-2-butenedioic acid; N,N-dimethyl-3-phenyl-3-(2-pyridinyl)-1-propanamine

> <PUBCHEM_IUPAC_NAME>
(Z)-but-2-enedioic acid; N,N-dimethyl-3-phenyl-3-pyridin-2-ylpropan-1-amine

> <PUBCHEM_IUPAC_SYSTEMATIC_NAME>
(Z)-but-2-enedioic acid; N,N-dimethyl-3-phenyl-3-pyridin-2-yl-propan-1-amine

> <PUBCHEM_IUPAC_TRADITIONAL_NAME>
dimethyl-[3-phenyl-3-(2-pyridyl)propyl]amine; maleic acid

> <PUBCHEM_IUPAC_INCHI>
InChI=1S/C16H20N2.C4H4O4/c1-18(2)13-11-15(14-8-4-3-5-9-14)16-10-6-7-12-17-16;5-3(6)1-2-4(7)8/h3-10,12,15H,11,13H2,1-2H3;1-2H,(H,5,6)(H,7,8)/b;2-1-

> <PUBCHEM_IUPAC_INCHIKEY>
SSOXZAQUVINQSA-BTJKTKAUSA-N

> <PUBCHEM_EXACT_MASS>
356.173607

> <PUBCHEM_MOLECULAR_FORMULA>
C20H24N2O4

> <PUBCHEM_MOLECULAR_WEIGHT>
356.41556

> <PUBCHEM_OPENEYE_CAN_SMILES>
CN(C)CCC(C1=CC=CC=C1)C2=CC=CC=N2.C(=CC(=O)O)C(=O)O

> <PUBCHEM_OPENEYE_ISO_SMILES>
CN(C)CCC(C1=CC=CC=C1)C2=CC=CC=N2.C(=C\C(=O)O)\C(=O)O

> <PUBCHEM_CACTVS_TPSA>
90.7

> <PUBCHEM_MONOISOTOPIC_WEIGHT>
356.173607

> <PUBCHEM_TOTAL_CHARGE>
0

> <PUBCHEM_HEAVY_ATOM_COUNT>
26

> <PUBCHEM_ATOM_DEF_STEREO_COUNT>
0

> <PUBCHEM_ATOM_UDEF_STEREO_COUNT>
1

> <PUBCHEM_BOND_DEF_STEREO_COUNT>
1

> <PUBCHEM_BOND_UDEF_STEREO_COUNT>
0

> <PUBCHEM_ISOTOPIC_ATOM_COUNT>
0

> <PUBCHEM_COMPONENT_COUNT>
2

> <PUBCHEM_CACTVS_TAUTO_COUNT>
2

> <PUBCHEM_COORDINATE_TYPE>
1
5
255

> <PUBCHEM_BONDANNOTATIONS>
10  12  8
10  13  8
11  14  8
12  17  8
13  18  8
14  19  8
17  20  8
18  20  8
19  22  8
21  22  8
6  11  8
6  21  8
7  8  3

$$$$

