6326970
  -OEChem-07051212462D

  1  0  0     0  0  0  0  0  0999 V2000
    2.0000    0.0000    0.0000 Se  0  0  0  0  0 15  0  0  0  0  0  0
M  END
> <PUBCHEM_COMPOUND_CID>
6326970

> <PUBCHEM_COMPOUND_CANONICALIZED>
1

> <PUBCHEM_CACTVS_COMPLEXITY>
0

> <PUBCHEM_CACTVS_HBOND_ACCEPTOR>
0

> <PUBCHEM_CACTVS_HBOND_DONOR>
0

> <PUBCHEM_CACTVS_ROTATABLE_BOND>
0

> <PUBCHEM_CACTVS_SUBSKEYS>
AAADcQAAAAAAAAAAIAAAAAAAAAAAAAAAAAAAAAAAAAAAAAAAAAAAAAAAAAAAAAAAAAAAAAAAAAAAAAAAAAAAAAAAAAAAAAAAAAAAAAAAAAAAAAAAAAAAAAAAAAAAAAAAAAAAAAAAAAAAAAAAAAAAAAAAAA==

> <PUBCHEM_IUPAC_OPENEYE_NAME>
selenium

> <PUBCHEM_IUPAC_CAS_NAME>
selenium

> <PUBCHEM_IUPAC_NAME>
selenium

> <PUBCHEM_IUPAC_SYSTEMATIC_NAME>
selenium

> <PUBCHEM_IUPAC_TRADITIONAL_NAME>
selenium

> <PUBCHEM_IUPAC_INCHI>
InChI=1S/Se

> <PUBCHEM_IUPAC_INCHIKEY>
BUGBHKTXTAQXES-UHFFFAOYSA-N

> <PUBCHEM_EXACT_MASS>
79.916521

> <PUBCHEM_MOLECULAR_FORMULA>
Se

> <PUBCHEM_MOLECULAR_WEIGHT>
78.96

> <PUBCHEM_OPENEYE_CAN_SMILES>
[Se]

> <PUBCHEM_OPENEYE_ISO_SMILES>
[Se]

> <PUBCHEM_CACTVS_TPSA>
0

> <PUBCHEM_MONOISOTOPIC_WEIGHT>
79.916521

> <PUBCHEM_TOTAL_CHARGE>
0

> <PUBCHEM_HEAVY_ATOM_COUNT>
1

> <PUBCHEM_ATOM_DEF_STEREO_COUNT>
0

> <PUBCHEM_ATOM_UDEF_STEREO_COUNT>
0

> <PUBCHEM_BOND_DEF_STEREO_COUNT>
0

> <PUBCHEM_BOND_UDEF_STEREO_COUNT>
0

> <PUBCHEM_ISOTOPIC_ATOM_COUNT>
0

> <PUBCHEM_COMPONENT_COUNT>
1

> <PUBCHEM_CACTVS_TAUTO_COUNT>
1

> <PUBCHEM_COORDINATE_TYPE>
1
5
255

$$$$

