17395677
  -OEChem-06241222513D

 38 40  0     1  0  0  0  0  0999 V2000
   -3.7834    3.7845   -0.0941 Cl  0  0  0  0  0  0  0  0  0  0  0  0
   -3.0796   -2.3607    0.8435 O   0  0  0  0  0  0  0  0  0  0  0  0
   -1.5543   -1.0179   -0.2456 N   0  0  0  0  0  0  0  0  0  0  0  0
    4.6013    0.5258    0.0787 N   0  0  0  0  0  0  0  0  0  0  0  0
    5.4133    0.3445    1.1313 N   0  0  0  0  0  0  0  0  0  0  0  0
    6.3470    1.7417   -0.4208 N   0  0  0  0  0  0  0  0  0  0  0  0
   -0.4863   -1.9919   -0.2472 C   0  0  2  0  0  0  0  0  0  0  0  0
    0.8681   -1.3218   -0.1606 C   0  0  0  0  0  0  0  0  0  0  0  0
   -0.6043   -2.9169   -1.4568 C   0  0  0  0  0  0  0  0  0  0  0  0
    1.6814   -1.5346    0.9525 C   0  0  0  0  0  0  0  0  0  0  0  0
    1.3026   -0.4910   -1.1933 C   0  0  0  0  0  0  0  0  0  0  0  0
    3.3637   -0.0857   -0.0001 C   0  0  0  0  0  0  0  0  0  0  0  0
    2.9293   -0.9165    1.0326 C   0  0  0  0  0  0  0  0  0  0  0  0
    2.5504    0.1272   -1.1131 C   0  0  0  0  0  0  0  0  0  0  0  0
   -2.8085   -1.2747    0.3130 C   0  0  0  0  0  0  0  0  0  0  0  0
   -3.7870   -0.2045    0.2069 C   0  0  0  0  0  0  0  0  0  0  0  0
   -3.3644    1.1218    0.1174 C   0  0  0  0  0  0  0  0  0  0  0  0
   -5.1491   -0.5047    0.1961 C   0  0  0  0  0  0  0  0  0  0  0  0
    5.1634    1.3576   -0.8390 C   0  0  0  0  0  0  0  0  0  0  0  0
   -4.3040    2.1478    0.0168 C   0  0  0  0  0  0  0  0  0  0  0  0
   -6.0887    0.5213    0.0956 C   0  0  0  0  0  0  0  0  0  0  0  0
   -5.6661    1.8475    0.0060 C   0  0  0  0  0  0  0  0  0  0  0  0
    6.4553    1.1013    0.7804 C   0  0  0  0  0  0  0  0  0  0  0  0
   -0.6180   -2.6201    0.6433 H   0  0  0  0  0  0  0  0  0  0  0  0
   -0.5690   -2.3632   -2.4018 H   0  0  0  0  0  0  0  0  0  0  0  0
    0.2050   -3.6553   -1.4687 H   0  0  0  0  0  0  0  0  0  0  0  0
   -1.5555   -3.4604   -1.4393 H   0  0  0  0  0  0  0  0  0  0  0  0
   -1.3985   -0.1612   -0.7662 H   0  0  0  0  0  0  0  0  0  0  0  0
    1.3568   -2.1787    1.7653 H   0  0  0  0  0  0  0  0  0  0  0  0
    0.6816   -0.3100   -2.0666 H   0  0  0  0  0  0  0  0  0  0  0  0
    3.5324   -1.1082    1.9163 H   0  0  0  0  0  0  0  0  0  0  0  0
    2.8360    0.7630   -1.9445 H   0  0  0  0  0  0  0  0  0  0  0  0
   -2.3120    1.3899    0.1585 H   0  0  0  0  0  0  0  0  0  0  0  0
   -5.4982   -1.5321    0.2611 H   0  0  0  0  0  0  0  0  0  0  0  0
    4.7183    1.6654   -1.7744 H   0  0  0  0  0  0  0  0  0  0  0  0
   -7.1493    0.2875    0.0862 H   0  0  0  0  0  0  0  0  0  0  0  0
   -6.4096    2.6366   -0.0721 H   0  0  0  0  0  0  0  0  0  0  0  0
    7.3209    1.1884    1.4200 H   0  0  0  0  0  0  0  0  0  0  0  0
  1 20  1  0  0  0  0
  2 15  2  0  0  0  0
  3  7  1  0  0  0  0
  3 15  1  0  0  0  0
  3 28  1  0  0  0  0
  4  5  1  0  0  0  0
  4 12  1  0  0  0  0
  4 19  1  0  0  0  0
  5 23  2  0  0  0  0
  6 19  2  0  0  0  0
  6 23  1  0  0  0  0
  7  8  1  0  0  0  0
  7  9  1  0  0  0  0
  7 24  1  0  0  0  0
  8 10  2  0  0  0  0
  8 11  1  0  0  0  0
  9 25  1  0  0  0  0
  9 26  1  0  0  0  0
  9 27  1  0  0  0  0
 10 13  1  0  0  0  0
 10 29  1  0  0  0  0
 11 14  2  0  0  0  0
 11 30  1  0  0  0  0
 12 13  2  0  0  0  0
 12 14  1  0  0  0  0
 13 31  1  0  0  0  0
 14 32  1  0  0  0  0
 15 16  1  0  0  0  0
 16 17  2  0  0  0  0
 16 18  1  0  0  0  0
 17 20  1  0  0  0  0
 17 33  1  0  0  0  0
 18 21  2  0  0  0  0
 18 34  1  0  0  0  0
 19 35  1  0  0  0  0
 20 22  2  0  0  0  0
 21 22  1  0  0  0  0
 21 36  1  0  0  0  0
 22 37  1  0  0  0  0
 23 38  1  0  0  0  0
M  END
> <PUBCHEM_COMPOUND_CID>
17395677

> <PUBCHEM_CONFORMER_RMSD>
0.8

> <PUBCHEM_CONFORMER_DIVERSEORDER>
1
21
15
43
35
41
10
33
24
32
44
30
26
14
40
20
3
11
13
22
9
34
31
6
39
16
18
29
25
38
27
17
12
23
19
8
4
36
7
42
5
37
2
28

> <PUBCHEM_MMFF94_PARTIAL_CHARGES>
33
1 -0.18
10 -0.15
11 -0.15
12 -0.02
13 -0.15
14 -0.15
15 0.54
16 0.09
17 -0.15
18 -0.15
19 0.04
2 -0.57
20 0.18
21 -0.15
22 -0.15
23 0.37
28 0.37
29 0.15
3 -0.73
30 0.15
31 0.15
32 0.15
33 0.15
34 0.15
35 0.15
36 0.15
37 0.15
38 0.15
4 0.59
5 -0.71
6 -0.57
7 0.44
8 -0.14

> <PUBCHEM_EFFECTIVE_ROTOR_COUNT>
5

> <PUBCHEM_PHARMACOPHORE_FEATURES>
7
1 2 acceptor
1 3 donor
3 4 6 19 cation
3 5 6 23 cation
5 4 5 6 19 23 rings
6 16 17 18 20 21 22 rings
6 8 10 11 12 13 14 rings

> <PUBCHEM_HEAVY_ATOM_COUNT>
23

> <PUBCHEM_ATOM_DEF_STEREO_COUNT>
0

> <PUBCHEM_ATOM_UDEF_STEREO_COUNT>
1

> <PUBCHEM_BOND_DEF_STEREO_COUNT>
0

> <PUBCHEM_BOND_UDEF_STEREO_COUNT>
0

> <PUBCHEM_ISOTOPIC_ATOM_COUNT>
0

> <PUBCHEM_COMPONENT_COUNT>
1

> <PUBCHEM_CACTVS_TAUTO_COUNT>
2

> <PUBCHEM_CONFORMER_ID>
01096FDD00000001

> <PUBCHEM_MMFF94_ENERGY>
57.9233

> <PUBCHEM_FEATURE_SELFOVERLAP>
38.269

> <PUBCHEM_SHAPE_FINGERPRINT>
10 15 18131063814408493865
10411042 1 17761492487864848855
105312 117 17894631426778231462
12107183 9 17912094042275746066
12236239 1 18273217473830314882
12596602 18 17561084700504687889
12633257 1 15984816008909291274
12969540 114 16515687728054801470
13167372 99 18342178873679488848
13257819 101 17966971621332524060
13402501 40 18259706692144156913
13785724 45 17762341714415417858
13911987 19 17385443228653274035
13947920 24 18186517717662640761
14251764 30 7420645242618706765
14251764 75 17829602117851920425
14341114 328 17847062168751635954
14347329 18 18261114101292048680
14466204 15 18413389834715476888
14739800 52 18340217348819047608
15183329 4 14634583878913338628
15188451 53 15123211197510061129
15238133 3 17917703587702585814
15419008 145 18130240354042519600
155225 5 18337389456242064017
15537594 2 6699814172407065357
15604295 49 18190182275120471888
15961568 22 18412260662186155317
17780758 139 12607409901273286599
17980427 23 18273211968003833063
19784866 240 9727633921114750375
20281389 69 18409450271905318856
20511986 3 17988374727337041569
21033648 29 18041571251672475266
21302155 148 18340768229703850685
21401589 2 18339912818906220017
21623969 137 13614246988247371072
21756936 100 18337116665941738382
22122407 14 17987786420092279856
22956985 138 16834858112863943571
23559900 14 17831296469443607119
23569914 2 17100075942200310128
24771293 8 18335413605021226649
270888 7 18337110167840705777
2838139 119 18261120659912889164
316301 35 9943219533838388757
3411729 13 18340770429175674602
3459 39 18336565875061779328
38570 142 17129830904500738358
397830 11 10951761916656278678
44249763 50 17605007918350151336
465052 167 11743839175314457010
474144 1 17559650898508742325
5104073 3 18059006310986885843
54039377 194 8070025609801495709
5718773 13 11023524880285928889
5911458 16 17845357874775286068
5969126 39 18117845400570078607
6327066 14 18409735092793499957
636775 72 17978230457915950856
653340 110 18055636367498168909
7062679 6 18413105044007942676
7808743 9 18408043991885088867
7970288 3 9223236238843185088
8863177 126 10375574993522932788
9981440 41 18343013415858718379

> <PUBCHEM_SHAPE_MULTIPOLES>
449.41
16.22
3.12
1.06
8.18
1.04
-0.11
12.79
2.18
-3.14
-0.44
0.93
-0.35
-0.01

> <PUBCHEM_SHAPE_SELFOVERLAP>
967.183

> <PUBCHEM_SHAPE_VOLUME>
249.7

> <PUBCHEM_COORDINATE_TYPE>
2
5
10

$$$$

