73563
  -OEChem-07051212483D

 26 25  0     1  0  0  0  0  0999 V2000
    1.5656    1.7560   -1.0007 O   0  0  0  0  0  0  0  0  0  0  0  0
   -1.0887    1.6115   -0.9991 O   0  0  0  0  0  0  0  0  0  0  0  0
    3.1935    0.5596    0.8481 O   0  0  0  0  0  0  0  0  0  0  0  0
    3.1594   -2.1092   -0.0189 O   0  0  0  0  0  0  0  0  0  0  0  0
   -2.5010   -1.5676   -1.0109 O   0  0  0  0  0  0  0  0  0  0  0  0
   -3.6968   -0.2293    0.3696 O   0  0  0  0  0  0  0  0  0  0  0  0
   -1.5495    0.6293    1.7059 N   0  0  0  0  0  0  0  0  0  0  0  0
    0.9610    0.9993    0.0598 C   0  0  1  0  0  0  0  0  0  0  0  0
   -0.3847    0.4758   -0.4765 C   0  0  1  0  0  0  0  0  0  0  0  0
    1.9559   -0.0828    0.5159 C   0  0  1  0  0  0  0  0  0  0  0  0
   -1.2651   -0.2456    0.5617 C   0  0  2  0  0  0  0  0  0  0  0  0
    2.2642   -1.1346   -0.5491 C   0  0  0  0  0  0  0  0  0  0  0  0
   -2.6140   -0.6625   -0.0060 C   0  0  0  0  0  0  0  0  0  0  0  0
    0.8052    1.7263    0.8649 H   0  0  0  0  0  0  0  0  0  0  0  0
   -0.2208   -0.1696   -1.3456 H   0  0  0  0  0  0  0  0  0  0  0  0
    1.5982   -0.5706    1.4287 H   0  0  0  0  0  0  0  0  0  0  0  0
   -0.7676   -1.1489    0.9318 H   0  0  0  0  0  0  0  0  0  0  0  0
    1.3637   -1.6679   -0.8626 H   0  0  0  0  0  0  0  0  0  0  0  0
    2.7392   -0.6965   -1.4328 H   0  0  0  0  0  0  0  0  0  0  0  0
    2.3061    2.2564   -0.6181 H   0  0  0  0  0  0  0  0  0  0  0  0
   -1.2984    2.1962   -0.2505 H   0  0  0  0  0  0  0  0  0  0  0  0
   -0.6825    0.8548    2.1911 H   0  0  0  0  0  0  0  0  0  0  0  0
   -2.1194    0.1252    2.3851 H   0  0  0  0  0  0  0  0  0  0  0  0
    3.6123    0.8589    0.0235 H   0  0  0  0  0  0  0  0  0  0  0  0
    3.9584   -1.6393    0.2754 H   0  0  0  0  0  0  0  0  0  0  0  0
   -3.3758   -1.8204   -1.3757 H   0  0  0  0  0  0  0  0  0  0  0  0
  1  8  1  0  0  0  0
  1 20  1  0  0  0  0
  2  9  1  0  0  0  0
  2 21  1  0  0  0  0
  3 10  1  0  0  0  0
  3 24  1  0  0  0  0
  4 12  1  0  0  0  0
  4 25  1  0  0  0  0
  5 13  1  0  0  0  0
  5 26  1  0  0  0  0
  6 13  2  0  0  0  0
  7 11  1  0  0  0  0
  7 22  1  0  0  0  0
  7 23  1  0  0  0  0
  8  9  1  0  0  0  0
  8 10  1  0  0  0  0
  8 14  1  0  0  0  0
  9 11  1  0  0  0  0
  9 15  1  0  0  0  0
 10 12  1  0  0  0  0
 10 16  1  0  0  0  0
 11 13  1  0  0  0  0
 11 17  1  0  0  0  0
 12 18  1  0  0  0  0
 12 19  1  0  0  0  0
M  END
> <PUBCHEM_COMPOUND_CID>
73563

> <PUBCHEM_CONFORMER_RMSD>
0.6

> <PUBCHEM_CONFORMER_DIVERSEORDER>
2
53
37
43
16
30
13
64
7
56
50
65
69
27
18
55
40
9
8
4
28
26
14
63
33
67
60
52
1
61
59
25
32
68
22
5
41
12
21
47
23
62
10
24
44
58
3
31
54
11
51
17
66
34
36
19
20
49
46
39
38
29
6
42
45
35
15
48
57

> <PUBCHEM_MMFF94_PARTIAL_CHARGES>
20
1 -0.68
10 0.28
11 0.33
12 0.28
13 0.66
2 -0.68
20 0.4
21 0.4
22 0.36
23 0.36
24 0.4
25 0.4
26 0.5
3 -0.68
4 -0.68
5 -0.65
6 -0.57
7 -0.99
8 0.28
9 0.28

> <PUBCHEM_EFFECTIVE_ROTOR_COUNT>
5

> <PUBCHEM_PHARMACOPHORE_FEATURES>
13
1 1 acceptor
1 1 donor
1 2 acceptor
1 2 donor
1 3 acceptor
1 3 donor
1 4 acceptor
1 4 donor
1 5 acceptor
1 6 acceptor
1 7 cation
1 7 donor
3 5 6 13 anion

> <PUBCHEM_HEAVY_ATOM_COUNT>
13

> <PUBCHEM_ATOM_DEF_STEREO_COUNT>
4

> <PUBCHEM_ATOM_UDEF_STEREO_COUNT>
0

> <PUBCHEM_BOND_DEF_STEREO_COUNT>
0

> <PUBCHEM_BOND_UDEF_STEREO_COUNT>
0

> <PUBCHEM_ISOTOPIC_ATOM_COUNT>
0

> <PUBCHEM_COMPONENT_COUNT>
1

> <PUBCHEM_CACTVS_TAUTO_COUNT>
1

> <PUBCHEM_CONFORMER_ID>
00011F5B00000002

> <PUBCHEM_MMFF94_ENERGY>
25.0023

> <PUBCHEM_FEATURE_SELFOVERLAP>
66.065

> <PUBCHEM_SHAPE_FINGERPRINT>
10353120 184 17346884463799862125
11769659 78 18187653500378797471
12932764 1 17968929782816828097
14252887 29 18271802389295511491
14350558 41 18334294236403581447
14390081 3 9295287244221458751
16945 1 18266175041487230613
18186145 218 16845860074828176373
20201158 50 18060424586033179642
20361792 2 18201997767745117710
20645477 70 18129948862779775679
20711985 344 17416407786472712708
20871998 22 18343864437356897724
21028194 46 7997975673647480339
230 275 9583239392597522638
23552423 10 18339357474728111935
369184 2 17458346346842636073
5084963 1 18408601478529171034
581208 293 18409733920024665754
81228 2 17774162447343841796

> <PUBCHEM_SHAPE_MULTIPOLES>
227.34
5.23
1.7
1.11
0.45
0.26
0.16
2.16
0.51
-0.87
-0.52
0.25
-0.26
-0.2

> <PUBCHEM_SHAPE_SELFOVERLAP>
436.072

> <PUBCHEM_SHAPE_VOLUME>
138.1

> <PUBCHEM_COORDINATE_TYPE>
2
5
10

$$$$

