62163
  -OEChem-07051213133D

 15 14  0     0  0  0  0  0  0999 V2000
   -2.4667    1.3235    0.1588 O   0  0  0  0  0  0  0  0  0  0  0  0
   -1.2215   -0.3754    0.2171 N   0  0  0  0  0  0  0  0  0  0  0  0
   -1.6296    0.6683   -0.4734 N   0  0  0  0  0  0  0  0  0  0  0  0
    3.6100   -0.0549   -0.1433 N   0  0  0  0  0  0  0  0  0  0  0  0
    0.1941   -0.7129    0.0121 C   0  0  0  0  0  0  0  0  0  0  0  0
    1.0715    0.5152    0.2407 C   0  0  0  0  0  0  0  0  0  0  0  0
   -2.0475   -1.5594   -0.0381 C   0  0  0  0  0  0  0  0  0  0  0  0
    2.4897    0.1955    0.0260 C   0  0  0  0  0  0  0  0  0  0  0  0
    0.4905   -1.5031    0.7149 H   0  0  0  0  0  0  0  0  0  0  0  0
    0.3628   -1.1042   -1.0018 H   0  0  0  0  0  0  0  0  0  0  0  0
    0.8142    1.3335   -0.4423 H   0  0  0  0  0  0  0  0  0  0  0  0
    0.9365    0.8912    1.2624 H   0  0  0  0  0  0  0  0  0  0  0  0
   -1.9838   -1.8966   -1.0804 H   0  0  0  0  0  0  0  0  0  0  0  0
   -3.1024   -1.3655    0.1939 H   0  0  0  0  0  0  0  0  0  0  0  0
   -1.7401   -2.3895    0.6090 H   0  0  0  0  0  0  0  0  0  0  0  0
  1  3  2  0  0  0  0
  2  3  1  0  0  0  0
  2  5  1  0  0  0  0
  2  7  1  0  0  0  0
  4  8  3  0  0  0  0
  5  6  1  0  0  0  0
  5  9  1  0  0  0  0
  5 10  1  0  0  0  0
  6  8  1  0  0  0  0
  6 11  1  0  0  0  0
  6 12  1  0  0  0  0
  7 13  1  0  0  0  0
  7 14  1  0  0  0  0
  7 15  1  0  0  0  0
M  END
> <PUBCHEM_COMPOUND_CID>
62163

> <PUBCHEM_CONFORMER_RMSD>
0.6

> <PUBCHEM_CONFORMER_DIVERSEORDER>
1
21
12
6
22
9
3
8
5
11
15
23
2
19
20
7
13
4
10
17
14
18
16

> <PUBCHEM_MMFF94_PARTIAL_CHARGES>
8
1 -0.16
2 -0.36
3 -0.01
4 -0.56
5 0.27
6 0.2
7 0.27
8 0.36

> <PUBCHEM_EFFECTIVE_ROTOR_COUNT>
3

> <PUBCHEM_PHARMACOPHORE_FEATURES>
1
1 4 acceptor

> <PUBCHEM_HEAVY_ATOM_COUNT>
8

> <PUBCHEM_ATOM_DEF_STEREO_COUNT>
0

> <PUBCHEM_ATOM_UDEF_STEREO_COUNT>
0

> <PUBCHEM_BOND_DEF_STEREO_COUNT>
0

> <PUBCHEM_BOND_UDEF_STEREO_COUNT>
0

> <PUBCHEM_ISOTOPIC_ATOM_COUNT>
0

> <PUBCHEM_COMPONENT_COUNT>
1

> <PUBCHEM_CACTVS_TAUTO_COUNT>
1

> <PUBCHEM_CONFORMER_ID>
0000F2D300000001

> <PUBCHEM_MMFF94_ENERGY>
12.5864

> <PUBCHEM_FEATURE_SELFOVERLAP>
5.074

> <PUBCHEM_SHAPE_FINGERPRINT>
12932741 1 17821738199723887328
12932764 1 17531249405398600710
14325111 11 18411138026522463786
14390081 3 18335708242927616936
19973954 147 18336830766974626488
21040471 1 18338804536432998409
23552423 10 18201158754573953418
29004967 10 16877933915494826594
3248919 1 17346599634585523130
5460574 1 8862953774969884802

> <PUBCHEM_SHAPE_MULTIPOLES>
143.82
4.71
1.27
0.61
3.25
0.07
0
-0.13
0.21
-1.22
-0.01
-0.01
0
0.04

> <PUBCHEM_SHAPE_SELFOVERLAP>
263.01

> <PUBCHEM_SHAPE_VOLUME>
90.8

> <PUBCHEM_COORDINATE_TYPE>
2
5
10

$$$$

