3080635
  -OEChem-07051213093D

 36 38  0     1  0  0  0  0  0999 V2000
    2.7095   -1.5543    0.2108 O   0  0  0  0  0  0  0  0  0  0  0  0
   -0.9826   -0.9432   -0.2260 C   0  0  2  0  0  0  0  0  0  0  0  0
   -0.8910    0.5174    0.3855 C   0  0  1  0  0  0  0  0  0  0  0  0
   -2.2532   -1.6534    0.3182 C   0  0  0  0  0  0  0  0  0  0  0  0
    0.2644   -1.7963    0.1979 C   0  0  0  0  0  0  0  0  0  0  0  0
    0.3954    1.2751   -0.0714 C   0  0  0  0  0  0  0  0  0  0  0  0
   -2.1982    1.2769    0.1866 C   0  0  0  0  0  0  0  0  0  0  0  0
   -3.5361   -0.8429    0.1250 C   0  0  0  0  0  0  0  0  0  0  0  0
   -1.0500   -0.9002   -1.7740 C   0  0  0  0  0  0  0  0  0  0  0  0
   -3.4155    0.5580    0.7189 C   0  0  0  0  0  0  0  0  0  0  0  0
    1.5893    0.3974    0.0385 C   0  0  0  0  0  0  0  0  0  0  0  0
    1.4903   -0.9705    0.1365 C   0  0  0  0  0  0  0  0  0  0  0  0
    2.9733    0.6832    0.0445 C   0  0  0  0  0  0  0  0  0  0  0  0
   -2.3220    2.4808   -0.3947 C   0  0  0  0  0  0  0  0  0  0  0  0
    3.6120   -0.5350    0.1517 C   0  0  0  0  0  0  0  0  0  0  0  0
    3.6144    2.0070   -0.0480 C   0  0  0  0  0  0  0  0  0  0  0  0
   -0.7898    0.3909    1.4762 H   0  0  0  0  0  0  0  0  0  0  0  0
   -2.1317   -1.8441    1.3930 H   0  0  0  0  0  0  0  0  0  0  0  0
   -2.3714   -2.6354   -0.1569 H   0  0  0  0  0  0  0  0  0  0  0  0
    0.3623   -2.6849   -0.4362 H   0  0  0  0  0  0  0  0  0  0  0  0
    0.1483   -2.1461    1.2313 H   0  0  0  0  0  0  0  0  0  0  0  0
    0.5346    2.1708    0.5463 H   0  0  0  0  0  0  0  0  0  0  0  0
    0.3055    1.6035   -1.1139 H   0  0  0  0  0  0  0  0  0  0  0  0
   -4.3702   -1.3685    0.6047 H   0  0  0  0  0  0  0  0  0  0  0  0
   -3.7840   -0.7775   -0.9409 H   0  0  0  0  0  0  0  0  0  0  0  0
   -1.2041   -1.9054   -2.1833 H   0  0  0  0  0  0  0  0  0  0  0  0
   -1.8688   -0.2712   -2.1361 H   0  0  0  0  0  0  0  0  0  0  0  0
   -0.1264   -0.5132   -2.2159 H   0  0  0  0  0  0  0  0  0  0  0  0
   -3.3345    0.4891    1.8111 H   0  0  0  0  0  0  0  0  0  0  0  0
   -4.3366    1.1147    0.5089 H   0  0  0  0  0  0  0  0  0  0  0  0
   -1.4739    3.0307   -0.7840 H   0  0  0  0  0  0  0  0  0  0  0  0
   -3.2925    2.9564   -0.4957 H   0  0  0  0  0  0  0  0  0  0  0  0
    4.6496   -0.8332    0.1959 H   0  0  0  0  0  0  0  0  0  0  0  0
    4.7051    1.9235   -0.0947 H   0  0  0  0  0  0  0  0  0  0  0  0
    3.2798    2.5356   -0.9465 H   0  0  0  0  0  0  0  0  0  0  0  0
    3.3603    2.6180    0.8242 H   0  0  0  0  0  0  0  0  0  0  0  0
  1 12  1  0  0  0  0
  1 15  1  0  0  0  0
  2  3  1  0  0  0  0
  2  4  1  0  0  0  0
  2  5  1  0  0  0  0
  2  9  1  0  0  0  0
  3  6  1  0  0  0  0
  3  7  1  0  0  0  0
  3 17  1  0  0  0  0
  4  8  1  0  0  0  0
  4 18  1  0  0  0  0
  4 19  1  0  0  0  0
  5 12  1  0  0  0  0
  5 20  1  0  0  0  0
  5 21  1  0  0  0  0
  6 11  1  0  0  0  0
  6 22  1  0  0  0  0
  6 23  1  0  0  0  0
  7 10  1  0  0  0  0
  7 14  2  0  0  0  0
  8 10  1  0  0  0  0
  8 24  1  0  0  0  0
  8 25  1  0  0  0  0
  9 26  1  0  0  0  0
  9 27  1  0  0  0  0
  9 28  1  0  0  0  0
 10 29  1  0  0  0  0
 10 30  1  0  0  0  0
 11 12  2  0  0  0  0
 11 13  1  0  0  0  0
 13 15  2  0  0  0  0
 13 16  1  0  0  0  0
 14 31  1  0  0  0  0
 14 32  1  0  0  0  0
 15 33  1  0  0  0  0
 16 34  1  0  0  0  0
 16 35  1  0  0  0  0
 16 36  1  0  0  0  0
M  END
> <PUBCHEM_COMPOUND_CID>
3080635

> <PUBCHEM_CONFORMER_RMSD>
0.6

> <PUBCHEM_CONFORMER_DIVERSEORDER>
1

> <PUBCHEM_MMFF94_PARTIAL_CHARGES>
15
1 -0.28
10 0.14
11 -0.18
12 -0.04
13 -0.18
14 -0.3
15 -0.01
16 0.18
3 0.14
31 0.15
32 0.15
33 0.15
5 0.18
6 0.18
7 -0.28

> <PUBCHEM_EFFECTIVE_ROTOR_COUNT>
1

> <PUBCHEM_PHARMACOPHORE_FEATURES>
4
1 1 acceptor
5 1 11 12 13 15 rings
6 2 3 4 7 8 10 rings
6 2 3 5 6 11 12 rings

> <PUBCHEM_HEAVY_ATOM_COUNT>
16

> <PUBCHEM_ATOM_DEF_STEREO_COUNT>
2

> <PUBCHEM_ATOM_UDEF_STEREO_COUNT>
0

> <PUBCHEM_BOND_DEF_STEREO_COUNT>
0

> <PUBCHEM_BOND_UDEF_STEREO_COUNT>
0

> <PUBCHEM_ISOTOPIC_ATOM_COUNT>
0

> <PUBCHEM_COMPONENT_COUNT>
1

> <PUBCHEM_CACTVS_TAUTO_COUNT>
1

> <PUBCHEM_CONFORMER_ID>
002F01BB00000001

> <PUBCHEM_MMFF94_ENERGY>
31.38

> <PUBCHEM_FEATURE_SELFOVERLAP>
20.406

> <PUBCHEM_SHAPE_FINGERPRINT>
10411042 1 16321183786706142818
10608611 8 18411420643586221208
10922523 26 18187363272364128878
10967382 1 18267302032299981216
11132069 177 18408605863722383459
11715629 250 18188496778837452552
12173636 292 18412546491847675716
12251169 10 18340487862928435514
13140716 1 18338802324577705800
13221675 6 18336546031996035458
13675066 3 18187653530886647922
14144814 61 18411418405834088778
14223421 5 18412259536513871986
14325111 11 18410854382165444512
14787075 74 17555447332522167187
15196674 1 18410572877392760809
15309172 13 17458057171079442303
15375462 6 18412261731263337189
15442244 35 18267868461567237578
15536298 74 18334855009372780776
15775835 57 18261105253543282801
16945 1 18411416258603797579
17804303 29 18267578190476464046
17844478 74 18272365369487724833
18186145 218 18260822748032987816
19422 9 18335136488143558714
200 152 18186813478296182471
20510252 161 18334855009009109145
21267235 1 18410845568903304010
21501502 16 18410012139015207010
22854114 111 18411417306660239984
2334 1 18410295791788340952
23402539 116 18264217915100756550
23463225 33 18412262869577259802
23559900 14 18189056555316457330
238 59 16977625779960880237
2748010 2 18337952393256653598
335352 9 18051130599006200294
474 4 17630883790570304964
5104073 3 18411134727518070121
528886 8 18410860940638514946
69090 78 18187088364355340943
7097593 13 17770795798711193650
7364860 26 18334290990141476742
84936 31 15938092433996095551
90525 40 18113622308606882007
9709674 26 18409725179481849470

> <PUBCHEM_SHAPE_MULTIPOLES>
323.4
6.18
2.26
0.88
2.17
0.66
-0.33
1.19
0.76
-0.28
-0.1
-0.37
-0.15
-0.12

> <PUBCHEM_SHAPE_SELFOVERLAP>
693.444

> <PUBCHEM_SHAPE_VOLUME>
179.9

> <PUBCHEM_COORDINATE_TYPE>
2
5
10

$$$$

