10050645
  -OEChem-07051213103D

 41 43  0     1  0  0  0  0  0999 V2000
   -5.4591    0.8033   -1.4872 Br  0  0  0  0  0  0  0  0  0  0  0  0
   -2.4604   -3.0885    1.4005 Br  0  0  0  0  0  0  0  0  0  0  0  0
   -1.6180    1.6903    0.8661 O   0  0  0  0  0  0  0  0  0  0  0  0
   -2.2223    0.3834   -2.4805 O   0  0  0  0  0  0  0  0  0  0  0  0
   -4.9527   -1.6095    0.4211 O   0  0  0  0  0  0  0  0  0  0  0  0
    2.2730    3.2109   -0.0952 O   0  0  0  0  0  0  0  0  0  0  0  0
   -0.3413    2.1664    1.2599 N   0  0  0  0  0  0  0  0  0  0  0  0
    2.6856    1.1690    0.9823 N   0  0  0  0  0  0  0  0  0  0  0  0
    4.1526   -1.2403   -1.4134 N   0  0  0  0  0  0  0  0  0  0  0  0
    4.4007   -2.9762   -0.0506 N   0  0  0  0  0  0  0  0  0  0  0  0
   -1.4420    0.7144   -0.1938 C   0  0  2  0  0  0  0  0  0  0  0  0
   -0.0945    1.0747   -0.8156 C   0  0  0  0  0  0  0  0  0  0  0  0
   -2.6147    0.8767   -1.1971 C   0  0  2  0  0  0  0  0  0  0  0  0
   -1.4326   -0.6516    0.4642 C   0  0  0  0  0  0  0  0  0  0  0  0
    0.4754    1.8057    0.3326 C   0  0  0  0  0  0  0  0  0  0  0  0
   -3.8621    0.1320   -0.7773 C   0  0  0  0  0  0  0  0  0  0  0  0
   -2.5356   -1.4151    0.5608 C   0  0  0  0  0  0  0  0  0  0  0  0
   -3.8090   -0.9315    0.0448 C   0  0  0  0  0  0  0  0  0  0  0  0
    1.9129    2.1413    0.3823 C   0  0  0  0  0  0  0  0  0  0  0  0
    4.1171    1.2811    1.1425 C   0  0  0  0  0  0  0  0  0  0  0  0
    4.8883    0.7048   -0.0429 C   0  0  0  0  0  0  0  0  0  0  0  0
    4.6236   -0.7680   -0.2450 C   0  0  0  0  0  0  0  0  0  0  0  0
   -5.4909   -1.0617    1.6080 C   0  0  0  0  0  0  0  0  0  0  0  0
    4.7753   -1.8194    0.5858 C   0  0  0  0  0  0  0  0  0  0  0  0
    4.0307   -2.5924   -1.2522 C   0  0  0  0  0  0  0  0  0  0  0  0
   -0.1769    1.7773   -1.6512 H   0  0  0  0  0  0  0  0  0  0  0  0
    0.5123    0.2147   -1.1092 H   0  0  0  0  0  0  0  0  0  0  0  0
   -2.8350    1.9459   -1.3072 H   0  0  0  0  0  0  0  0  0  0  0  0
   -0.4938   -0.9959    0.8929 H   0  0  0  0  0  0  0  0  0  0  0  0
   -1.9617   -0.5483   -2.3807 H   0  0  0  0  0  0  0  0  0  0  0  0
    2.2358    0.3258    1.3272 H   0  0  0  0  0  0  0  0  0  0  0  0
    4.3782    0.7627    2.0716 H   0  0  0  0  0  0  0  0  0  0  0  0
    4.3753    2.3388    1.2652 H   0  0  0  0  0  0  0  0  0  0  0  0
    4.6294    1.2579   -0.9547 H   0  0  0  0  0  0  0  0  0  0  0  0
    5.9634    0.8450    0.1223 H   0  0  0  0  0  0  0  0  0  0  0  0
   -4.7941   -1.1503    2.4487 H   0  0  0  0  0  0  0  0  0  0  0  0
   -6.3918   -1.6281    1.8632 H   0  0  0  0  0  0  0  0  0  0  0  0
   -5.7823   -0.0136    1.4828 H   0  0  0  0  0  0  0  0  0  0  0  0
    3.9288   -0.7137   -2.2481 H   0  0  0  0  0  0  0  0  0  0  0  0
    5.1311   -1.8321    1.6057 H   0  0  0  0  0  0  0  0  0  0  0  0
    3.6689   -3.2346   -2.0426 H   0  0  0  0  0  0  0  0  0  0  0  0
  1 16  1  0  0  0  0
  2 17  1  0  0  0  0
  3  7  1  0  0  0  0
  3 11  1  0  0  0  0
  4 13  1  0  0  0  0
  4 30  1  0  0  0  0
  5 18  1  0  0  0  0
  5 23  1  0  0  0  0
  6 19  2  0  0  0  0
  7 15  2  0  0  0  0
  8 19  1  0  0  0  0
  8 20  1  0  0  0  0
  8 31  1  0  0  0  0
  9 22  1  0  0  0  0
  9 25  1  0  0  0  0
  9 39  1  0  0  0  0
 10 24  1  0  0  0  0
 10 25  2  0  0  0  0
 11 12  1  0  0  0  0
 11 13  1  0  0  0  0
 11 14  1  0  0  0  0
 12 15  1  0  0  0  0
 12 26  1  0  0  0  0
 12 27  1  0  0  0  0
 13 16  1  0  0  0  0
 13 28  1  0  0  0  0
 14 17  2  0  0  0  0
 14 29  1  0  0  0  0
 15 19  1  0  0  0  0
 16 18  2  0  0  0  0
 17 18  1  0  0  0  0
 20 21  1  0  0  0  0
 20 32  1  0  0  0  0
 20 33  1  0  0  0  0
 21 22  1  0  0  0  0
 21 34  1  0  0  0  0
 21 35  1  0  0  0  0
 22 24  2  0  0  0  0
 23 36  1  0  0  0  0
 23 37  1  0  0  0  0
 23 38  1  0  0  0  0
 24 40  1  0  0  0  0
 25 41  1  0  0  0  0
M  END
> <PUBCHEM_COMPOUND_CID>
10050645

> <PUBCHEM_CONFORMER_RMSD>
0.8

> <PUBCHEM_CONFORMER_DIVERSEORDER>
1
127
174
96
32
84
202
41
12
130
164
178
46
186
161
123
112
163
129
14
58
60
179
50
204
89
76
21
157
171
37
104
56
154
77
160
88
117
169
139
40
136
167
27
118
173
18
113
143
198
187
90
128
131
114
151
211
152
25
44
91
51
54
158
15
155
144
110
68
48
159
43
138
36
162
149
80
140
168
185
95
94
66
210
148
93
166
57
87
11
196
82
122
100
39
200
42
137
135
61
23
102
69
38
165
7
126
19
193
172
47
79
64
170
146
205
71
34
72
184
63
181
53
55
6
142
9
86
134
99
97
145
119
65
120
133
180
121
111
2
132
192
49
125
107
3
203
150
83
35
106
153
188
20
182
147
17
105
29
208
5
30
176
8
115
156
59
10
194
78
52
45
33
24
183
190
92
81
62
109
206
189
175
4
207
85
31
73
101
108
197
28
209
191
74
13
116
201
141
75
16
177
195
70
98
103
124
26
199
22
67

> <PUBCHEM_MMFF94_PARTIAL_CHARGES>
31
1 -0.11
10 -0.57
11 0.42
12 0.06
13 0.42
14 -0.29
15 0.39
16 -0.03
17 0.11
18 0.08
19 0.63
2 -0.11
20 0.3
21 0.18
22 -0.33
23 0.28
24 0.08
25 0.04
29 0.15
3 -0.22
30 0.4
31 0.37
39 0.27
4 -0.68
40 0.15
41 0.15
5 -0.36
6 -0.57
7 -0.51
8 -0.73
9 0.03

> <PUBCHEM_EFFECTIVE_ROTOR_COUNT>
6.6

> <PUBCHEM_PHARMACOPHORE_FEATURES>
13
1 1 hydrophobe
1 2 hydrophobe
1 4 acceptor
1 4 donor
1 5 acceptor
1 6 acceptor
1 7 acceptor
1 8 donor
1 9 donor
3 9 10 25 cation
5 3 7 11 12 15 rings
5 9 10 22 24 25 rings
6 11 13 14 16 17 18 rings

> <PUBCHEM_HEAVY_ATOM_COUNT>
25

> <PUBCHEM_ATOM_DEF_STEREO_COUNT>
2

> <PUBCHEM_ATOM_UDEF_STEREO_COUNT>
0

> <PUBCHEM_BOND_DEF_STEREO_COUNT>
0

> <PUBCHEM_BOND_UDEF_STEREO_COUNT>
0

> <PUBCHEM_ISOTOPIC_ATOM_COUNT>
0

> <PUBCHEM_COMPONENT_COUNT>
1

> <PUBCHEM_CACTVS_TAUTO_COUNT>
4

> <PUBCHEM_CONFORMER_ID>
00995C5500000001

> <PUBCHEM_MMFF94_ENERGY>
50.5045

> <PUBCHEM_FEATURE_SELFOVERLAP>
65.974

> <PUBCHEM_SHAPE_FINGERPRINT>
11112241 14 17533800211976487416
11595378 159 14418123033031847066
11796584 16 18202293484817518905
12422481 6 17241590888143822633
12596602 18 15140970513189916130
12623949 98 17768231432953170147
13402501 40 18412543202388621058
13533116 47 18114460067737123673
13544592 145 18272094902586092373
13544653 18 18187088360129185748
1361 87 18337936996179641438
13617811 41 16702308914975206959
13692114 37 16374635955758487153
13782708 43 18271239427349173179
13914758 101 17386008408174893289
14251757 17 18342462542915093490
14386348 63 18411982434225279906
14617045 38 18337381657071116350
14840074 17 17458345242898930510
14848160 33 18335425699015642302
14866123 147 17903072583581746040
14910302 57 17988373653668772158
15537594 2 17894631414362548540
15664445 248 17703790284999737020
1813 80 17846775178731326077
20403669 9 18409443696221049050
20567600 75 18411706474197665149
20645477 70 18340209575086860640
21033650 10 16700897279447185900
21279426 13 18339365270462954405
21781051 124 17203035302421129227
2215653 11 18410866468435420421
23559900 14 18339367370575764328
3004659 81 18130792291561928938
314173 41 18343021043493451072
345986 75 17385721435012063210
3729539 64 17985276415355409875
46194498 28 17775001233535575220
463206 1 18115032874994170310
474 4 10663812006042851076
5104073 3 18041561446594681952
9709674 26 18341336574130316907

> <PUBCHEM_SHAPE_MULTIPOLES>
482.97
12.87
3.35
1.58
2.96
1.21
0.42
5.85
1.28
2.2
-0.73
-0.93
0.08
2.99

> <PUBCHEM_SHAPE_SELFOVERLAP>
1004.007

> <PUBCHEM_SHAPE_VOLUME>
282.4

> <PUBCHEM_COORDINATE_TYPE>
2
5
10

$$$$

