160577
  -OEChem-07051212483D

 44 45  0     1  0  0  0  0  0999 V2000
    2.3574    2.3512    0.5602 S   0  0  0  0  0  0  0  0  0  0  0  0
    1.0983   -1.6452   -1.4538 O   0  0  0  0  0  0  0  0  0  0  0  0
    6.7433    0.7630    1.1112 O   0  0  0  0  0  0  0  0  0  0  0  0
   -1.6805   -0.2072   -1.7584 O   0  0  0  0  0  0  0  0  0  0  0  0
    4.1799   -2.3207   -1.1063 O   0  0  0  0  0  0  0  0  0  0  0  0
    3.8418   -2.5738    1.1414 O   0  0  0  0  0  0  0  0  0  0  0  0
   -6.0486   -1.3164    2.1303 O   0  0  0  0  0  0  0  0  0  0  0  0
   -6.7861   -1.8092    0.0439 O   0  0  0  0  0  0  0  0  0  0  0  0
    2.5854   -0.0134   -0.6254 N   0  0  0  0  0  0  0  0  0  0  0  0
   -0.2273    1.2362   -0.6700 N   0  0  0  0  0  0  0  0  0  0  0  0
   -6.9070    0.8006   -0.6905 N   0  0  0  0  0  0  0  0  0  0  0  0
    2.3479    1.3784   -0.9628 C   0  0  1  0  0  0  0  0  0  0  0  0
    0.9652    0.9182   -1.4748 C   0  0  1  0  0  0  0  0  0  0  0  0
    1.5014   -0.5242   -1.2486 C   0  0  0  0  0  0  0  0  0  0  0  0
    3.6443   -0.4420    0.1088 C   0  0  0  0  0  0  0  0  0  0  0  0
    4.4005    0.4203    0.8292 C   0  0  0  0  0  0  0  0  0  0  0  0
    4.0809    1.9073    0.9644 C   0  0  0  0  0  0  0  0  0  0  0  0
   -1.4596    0.6336   -0.8907 C   0  0  0  0  0  0  0  0  0  0  0  0
   -2.5240    1.1598    0.0576 C   0  0  0  0  0  0  0  0  0  0  0  0
    5.6383    0.0344    1.6029 C   0  0  0  0  0  0  0  0  0  0  0  0
    3.8928   -1.8909    0.1383 C   0  0  0  0  0  0  0  0  0  0  0  0
   -3.8991    0.5233   -0.1497 C   0  0  0  0  0  0  0  0  0  0  0  0
   -4.9451    1.0740    0.8323 C   0  0  0  0  0  0  0  0  0  0  0  0
   -6.3659    0.5210    0.6394 C   0  0  2  0  0  0  0  0  0  0  0  0
   -6.4340   -0.9782    0.8712 C   0  0  0  0  0  0  0  0  0  0  0  0
    3.0142    1.7457   -1.7524 H   0  0  0  0  0  0  0  0  0  0  0  0
    0.7997    1.1510   -2.5333 H   0  0  0  0  0  0  0  0  0  0  0  0
   -0.1586    1.9267    0.0740 H   0  0  0  0  0  0  0  0  0  0  0  0
    4.7521    2.4877    0.3221 H   0  0  0  0  0  0  0  0  0  0  0  0
    4.2440    2.2301    1.9982 H   0  0  0  0  0  0  0  0  0  0  0  0
   -2.5945    2.2454   -0.0814 H   0  0  0  0  0  0  0  0  0  0  0  0
   -2.1833    0.9758    1.0837 H   0  0  0  0  0  0  0  0  0  0  0  0
    5.5034    0.2638    2.6656 H   0  0  0  0  0  0  0  0  0  0  0  0
    5.8812   -1.0277    1.5201 H   0  0  0  0  0  0  0  0  0  0  0  0
   -3.8156   -0.5639   -0.0324 H   0  0  0  0  0  0  0  0  0  0  0  0
   -4.2217    0.7036   -1.1821 H   0  0  0  0  0  0  0  0  0  0  0  0
   -4.6088    0.8671    1.8562 H   0  0  0  0  0  0  0  0  0  0  0  0
   -4.9788    2.1673    0.7358 H   0  0  0  0  0  0  0  0  0  0  0  0
   -7.0324    0.9894    1.3738 H   0  0  0  0  0  0  0  0  0  0  0  0
    7.5148    0.5157    1.6489 H   0  0  0  0  0  0  0  0  0  0  0  0
    4.3533   -3.2858   -1.1328 H   0  0  0  0  0  0  0  0  0  0  0  0
   -7.8889    0.5284   -0.7256 H   0  0  0  0  0  0  0  0  0  0  0  0
   -6.8836    1.8047   -0.8636 H   0  0  0  0  0  0  0  0  0  0  0  0
   -6.0906   -2.2854    2.2771 H   0  0  0  0  0  0  0  0  0  0  0  0
  1 12  1  0  0  0  0
  1 17  1  0  0  0  0
  2 14  2  0  0  0  0
  3 20  1  0  0  0  0
  3 40  1  0  0  0  0
  4 18  2  0  0  0  0
  5 21  1  0  0  0  0
  5 41  1  0  0  0  0
  6 21  2  0  0  0  0
  7 25  1  0  0  0  0
  7 44  1  0  0  0  0
  8 25  2  0  0  0  0
  9 12  1  0  0  0  0
  9 14  1  0  0  0  0
  9 15  1  0  0  0  0
 10 13  1  0  0  0  0
 10 18  1  0  0  0  0
 10 28  1  0  0  0  0
 11 24  1  0  0  0  0
 11 42  1  0  0  0  0
 11 43  1  0  0  0  0
 12 13  1  0  0  0  0
 12 26  1  0  0  0  0
 13 14  1  0  0  0  0
 13 27  1  0  0  0  0
 15 16  2  0  0  0  0
 15 21  1  0  0  0  0
 16 17  1  0  0  0  0
 16 20  1  0  0  0  0
 17 29  1  0  0  0  0
 17 30  1  0  0  0  0
 18 19  1  0  0  0  0
 19 22  1  0  0  0  0
 19 31  1  0  0  0  0
 19 32  1  0  0  0  0
 20 33  1  0  0  0  0
 20 34  1  0  0  0  0
 22 23  1  0  0  0  0
 22 35  1  0  0  0  0
 22 36  1  0  0  0  0
 23 24  1  0  0  0  0
 23 37  1  0  0  0  0
 23 38  1  0  0  0  0
 24 25  1  0  0  0  0
 24 39  1  0  0  0  0
M  END
> <PUBCHEM_COMPOUND_CID>
160577

> <PUBCHEM_CONFORMER_RMSD>
1

> <PUBCHEM_CONFORMER_DIVERSEORDER>
1
8
9
13
38
32
17
28
30
16
14
23
12
34
26
10
36
11
37
3
7
24
39
15
18
19
4
29
35
20
6
25
5
31
21
33
2
27
22

> <PUBCHEM_MMFF94_PARTIAL_CHARGES>
29
1 -0.45
10 -0.65
11 -0.99
12 0.44
13 0.28
14 0.58
15 0.12
16 -0.28
17 0.37
18 0.57
19 0.06
2 -0.57
20 0.42
21 0.71
24 0.33
25 0.66
28 0.37
3 -0.68
4 -0.57
40 0.4
41 0.5
42 0.36
43 0.36
44 0.5
5 -0.65
6 -0.57
7 -0.65
8 -0.57
9 -0.39

> <PUBCHEM_EFFECTIVE_ROTOR_COUNT>
9.6

> <PUBCHEM_PHARMACOPHORE_FEATURES>
15
1 10 donor
1 11 cation
1 11 donor
1 2 acceptor
1 3 acceptor
1 3 donor
1 4 acceptor
1 5 acceptor
1 6 acceptor
1 7 acceptor
1 8 acceptor
3 5 6 21 anion
3 7 8 25 anion
4 9 12 13 14 rings
6 1 9 12 15 16 17 rings

> <PUBCHEM_HEAVY_ATOM_COUNT>
25

> <PUBCHEM_ATOM_DEF_STEREO_COUNT>
3

> <PUBCHEM_ATOM_UDEF_STEREO_COUNT>
0

> <PUBCHEM_BOND_DEF_STEREO_COUNT>
0

> <PUBCHEM_BOND_UDEF_STEREO_COUNT>
0

> <PUBCHEM_ISOTOPIC_ATOM_COUNT>
0

> <PUBCHEM_COMPONENT_COUNT>
1

> <PUBCHEM_CACTVS_TAUTO_COUNT>
2

> <PUBCHEM_CONFORMER_ID>
0002734100000001

> <PUBCHEM_MMFF94_ENERGY>
52.2341

> <PUBCHEM_FEATURE_SELFOVERLAP>
76.49

> <PUBCHEM_SHAPE_FINGERPRINT>
10 15 18261115140505614497
10354089 29 18040720268754893904
10378564 45 10519989257335504490
10693767 8 12031524215316995576
11646440 116 16443342044400663809
11724838 91 17604156947473239373
11796584 16 16200424767702512921
12596602 18 18186517739485259867
13533116 47 18411978078859455473
13955234 65 15720217517735609341
14211702 104 18059563643445265963
14341114 176 18040997371074874668
14341114 328 16732706060264208181
14528608 73 8070026653916047565
14931854 50 10375595962223302208
14933364 13 8646773305439693093
15183329 4 11095891462617685877
15188451 53 17988928847317633289
15348495 7 18410571769760995825
15475509 35 17916594288172059282
17857418 61 17346598582371302761
18222031 100 17060049359313928901
19377110 9 17313388907527924093
20028762 73 18060418002028345523
21623969 137 18413673512872825226
21637258 2 16056607564283566824
22224240 67 18271531918821702016
23559900 14 17489010592565725149
25122255 55 17632284650246530627
29717793 49 13470688169886683916
312425 54 18341887541758258417
34797466 226 8718824297975886609
4340502 62 18113616768056644413
465052 167 18339073891096656078
5104073 3 18260820558000743393
8863177 126 18271523190630731986
960060 61 12679457577973271165

> <PUBCHEM_SHAPE_MULTIPOLES>
462.31
18.4
2.25
1.59
27.6
0.74
0.05
3.65
9.43
-2.02
0.25
-0.15
0.27
1.22

> <PUBCHEM_SHAPE_SELFOVERLAP>
942.594

> <PUBCHEM_SHAPE_VOLUME>
267.3

> <PUBCHEM_COORDINATE_TYPE>
2
5
10

$$$$

