14347
  -OEChem-07051213043D

 25 26  0     0  0  0  0  0  0999 V2000
   -0.5564   -2.3900    0.0006 O   0  0  0  0  0  0  0  0  0  0  0  0
    4.7150    1.0065    0.0006 O   0  0  0  0  0  0  0  0  0  0  0  0
    0.9213   -0.5770   -0.0006 C   0  0  0  0  0  0  0  0  0  0  0  0
   -1.6501   -0.3225   -0.0003 C   0  0  0  0  0  0  0  0  0  0  0  0
   -0.4571   -1.1540   -0.0001 C   0  0  0  0  0  0  0  0  0  0  0  0
    1.5274   -0.3230    1.2077 C   0  0  0  0  0  0  0  0  0  0  0  0
    1.5287   -0.3239   -1.2083 C   0  0  0  0  0  0  0  0  0  0  0  0
   -1.5319    1.0673   -0.0008 C   0  0  0  0  0  0  0  0  0  0  0  0
   -2.9129   -0.9150    0.0005 C   0  0  0  0  0  0  0  0  0  0  0  0
    2.8144    0.2149    1.2082 C   0  0  0  0  0  0  0  0  0  0  0  0
    2.8158    0.2140   -1.2078 C   0  0  0  0  0  0  0  0  0  0  0  0
    3.4586    0.4834    0.0004 C   0  0  0  0  0  0  0  0  0  0  0  0
   -2.6764    1.8648   -0.0006 C   0  0  0  0  0  0  0  0  0  0  0  0
   -4.0574   -0.1177    0.0005 C   0  0  0  0  0  0  0  0  0  0  0  0
   -3.9391    1.2722    0.0001 C   0  0  0  0  0  0  0  0  0  0  0  0
    1.0295   -0.5311    2.1497 H   0  0  0  0  0  0  0  0  0  0  0  0
    1.0319   -0.5326   -2.1508 H   0  0  0  0  0  0  0  0  0  0  0  0
   -0.5695    1.5701   -0.0014 H   0  0  0  0  0  0  0  0  0  0  0  0
   -3.0326   -1.9952    0.0010 H   0  0  0  0  0  0  0  0  0  0  0  0
    3.3044    0.4199    2.1563 H   0  0  0  0  0  0  0  0  0  0  0  0
    3.3126    0.4206   -2.1518 H   0  0  0  0  0  0  0  0  0  0  0  0
   -2.5849    2.9470   -0.0011 H   0  0  0  0  0  0  0  0  0  0  0  0
   -5.0409   -0.5787    0.0011 H   0  0  0  0  0  0  0  0  0  0  0  0
   -4.8302    1.8930    0.0001 H   0  0  0  0  0  0  0  0  0  0  0  0
    5.0054    1.1283    0.9208 H   0  0  0  0  0  0  0  0  0  0  0  0
  1  5  2  0  0  0  0
  2 12  1  0  0  0  0
  2 25  1  0  0  0  0
  3  5  1  0  0  0  0
  3  6  2  0  0  0  0
  3  7  1  0  0  0  0
  4  5  1  0  0  0  0
  4  8  2  0  0  0  0
  4  9  1  0  0  0  0
  6 10  1  0  0  0  0
  6 16  1  0  0  0  0
  7 11  2  0  0  0  0
  7 17  1  0  0  0  0
  8 13  1  0  0  0  0
  8 18  1  0  0  0  0
  9 14  2  0  0  0  0
  9 19  1  0  0  0  0
 10 12  2  0  0  0  0
 10 20  1  0  0  0  0
 11 12  1  0  0  0  0
 11 21  1  0  0  0  0
 13 15  2  0  0  0  0
 13 22  1  0  0  0  0
 14 15  1  0  0  0  0
 14 23  1  0  0  0  0
 15 24  1  0  0  0  0
M  END
> <PUBCHEM_COMPOUND_CID>
14347

> <PUBCHEM_CONFORMER_RMSD>
0.6

> <PUBCHEM_CONFORMER_DIVERSEORDER>
1

> <PUBCHEM_MMFF94_PARTIAL_CHARGES>
25
1 -0.57
10 -0.15
11 -0.15
12 0.08
13 -0.15
14 -0.15
15 -0.15
16 0.15
17 0.15
18 0.15
19 0.15
2 -0.53
20 0.15
21 0.15
22 0.15
23 0.15
24 0.15
25 0.45
3 0.09
4 0.09
5 0.4
6 -0.15
7 -0.15
8 -0.15
9 -0.15

> <PUBCHEM_EFFECTIVE_ROTOR_COUNT>
2

> <PUBCHEM_PHARMACOPHORE_FEATURES>
4
1 1 acceptor
1 2 donor
6 3 6 7 10 11 12 rings
6 4 8 9 13 14 15 rings

> <PUBCHEM_HEAVY_ATOM_COUNT>
15

> <PUBCHEM_ATOM_DEF_STEREO_COUNT>
0

> <PUBCHEM_ATOM_UDEF_STEREO_COUNT>
0

> <PUBCHEM_BOND_DEF_STEREO_COUNT>
0

> <PUBCHEM_BOND_UDEF_STEREO_COUNT>
0

> <PUBCHEM_ISOTOPIC_ATOM_COUNT>
0

> <PUBCHEM_COMPONENT_COUNT>
1

> <PUBCHEM_CACTVS_TAUTO_COUNT>
4

> <PUBCHEM_CONFORMER_ID>
0000380B00000001

> <PUBCHEM_MMFF94_ENERGY>
49.5267

> <PUBCHEM_FEATURE_SELFOVERLAP>
20.297

> <PUBCHEM_SHAPE_FINGERPRINT>
10498660 4 18337391651228301821
11031198 65 17240482515818985036
11132069 177 18271803553611566997
11471102 22 14979961375981338886
11543360 7 15792027666149739853
12236239 1 17775569719121143370
12251169 10 15985101907538650138
12346645 44 18412545448471374299
13538477 17 17988083279261724810
13764800 53 18340475738478280795
14739800 52 18194980556453290632
14943859 89 18334294270789602618
15219456 202 17967529099186373534
15775835 57 18201720673487440392
16945 1 18410573959851379623
17846911 113 18410577292619257929
18186145 218 17822281426908014227
200 152 15769781221688847859
20233049 118 18408888438569846768
20510252 161 18334571356679099657
20645477 56 18336263449339781664
20645477 70 16660912362112930086
21524375 3 18342176691187444187
21713013 43 14852187117007174949
23048698 100 17132116844281587944
23402539 116 18335147466153619246
23402655 69 16298381396301983449
23557571 272 18041838407275888183
23559900 14 18187641427853287750
25 1 17385719222787478270
276578 36 18272932756116281666
305870 269 18270402814009614634
3268164 11 18261967279792693685
4028521 119 18113900485243933193
474 4 17130419082929110092
7364860 26 18046910660526172511
77492 1 17704075070720680838
81228 2 17755593641787323799

> <PUBCHEM_SHAPE_MULTIPOLES>
296.95
7.69
1.59
1.01
0.71
0.24
0
-3.14
0
-1.05
0
0.89
0.01
0

> <PUBCHEM_SHAPE_SELFOVERLAP>
647.96

> <PUBCHEM_SHAPE_VOLUME>
161.5

> <PUBCHEM_COORDINATE_TYPE>
2
5
10

$$$$

