442060
  -OEChem-07051212563D

 88 93  0     1  0  0  0  0  0999 V2000
    0.8661   -1.2600   -1.5801 O   0  0  0  0  0  0  0  0  0  0  0  0
    0.9635    0.7011    0.9684 O   0  0  0  0  0  0  0  0  0  0  0  0
    0.5925    1.9553   -1.0017 O   0  0  0  0  0  0  0  0  0  0  0  0
    1.4077    3.0331    0.8289 O   0  0  0  0  0  0  0  0  0  0  0  0
    4.5427   -1.4147   -0.1565 O   0  0  0  0  0  0  0  0  0  0  0  0
    3.8240   -3.4759   -1.7648 O   0  0  0  0  0  0  0  0  0  0  0  0
    2.9769   -2.2669   -4.2472 O   0  0  0  0  0  0  0  0  0  0  0  0
    4.5114   -4.0762    1.0108 O   0  0  0  0  0  0  0  0  0  0  0  0
    2.5053    0.5471   -0.9608 C   0  0  1  0  0  0  0  0  0  0  0  0
    2.2955    0.2550    0.5708 C   0  0  2  0  0  0  0  0  0  0  0  0
    1.8914   -0.3653   -1.9938 C   0  0  1  0  0  0  0  0  0  0  0  0
    2.0779   -1.8688   -2.0825 C   0  0  1  0  0  0  0  0  0  0  0  0
    2.0119    1.9929   -1.2114 C   0  0  2  0  0  0  0  0  0  0  0  0
    2.3049   -1.2701    0.8983 C   0  0  1  0  0  0  0  0  0  0  0  0
    3.3940    1.0981    1.3561 C   0  0  1  0  0  0  0  0  0  0  0  0
    2.4902    2.9789   -0.1219 C   0  0  2  0  0  0  0  0  0  0  0  0
    3.3466   -2.1186    0.1419 C   0  0  1  0  0  0  0  0  0  0  0  0
    2.7558   -2.7839   -1.1022 C   0  0  2  0  0  0  0  0  0  0  0  0
    3.7082    2.4457    0.6335 C   0  0  0  0  0  0  0  0  0  0  0  0
    0.5507    1.9677    0.4230 C   0  0  2  0  0  0  0  0  0  0  0  0
    1.8347   -2.4728   -3.4337 C   0  0  0  0  0  0  0  0  0  0  0  0
    2.4648   -1.7003    2.3306 C   0  0  0  0  0  0  0  0  0  0  0  0
    3.0782    1.3875    2.8353 C   0  0  0  0  0  0  0  0  0  0  0  0
    3.7863   -3.1102    1.2013 C   0  0  0  0  0  0  0  0  0  0  0  0
    2.7006    4.3597   -0.6560 C   0  0  0  0  0  0  0  0  0  0  0  0
   -0.8627    2.2497    0.8917 C   0  0  0  0  0  0  0  0  0  0  0  0
    3.2758   -2.7412    2.5322 C   0  0  0  0  0  0  0  0  0  0  0  0
   -1.8440    1.1858    0.3922 C   0  0  0  0  0  0  0  0  0  0  0  0
    3.8342    4.5292   -1.6236 C   0  0  0  0  0  0  0  0  0  0  0  0
    1.9208    5.3881   -0.2904 C   0  0  0  0  0  0  0  0  0  0  0  0
    3.6058   -3.4637    3.7783 C   0  0  0  0  0  0  0  0  0  0  0  0
   -3.2998    1.4658    0.7794 C   0  0  0  0  0  0  0  0  0  0  0  0
   -4.2841    0.4383    0.2141 C   0  0  0  0  0  0  0  0  0  0  0  0
   -5.7389    0.7106    0.6112 C   0  0  0  0  0  0  0  0  0  0  0  0
   -6.7331   -0.2732   -0.0120 C   0  0  0  0  0  0  0  0  0  0  0  0
   -8.1702    0.0621    0.3957 C   0  0  0  0  0  0  0  0  0  0  0  0
   -9.2129   -0.8752   -0.2207 C   0  0  0  0  0  0  0  0  0  0  0  0
  -10.6471   -0.5562    0.2070 C   0  0  0  0  0  0  0  0  0  0  0  0
  -11.6503   -1.4741   -0.4930 C   0  0  0  0  0  0  0  0  0  0  0  0
  -13.0751   -1.1844   -0.0483 C   0  0  0  0  0  0  0  0  0  0  0  0
    3.5784    0.5307   -1.1864 H   0  0  0  0  0  0  0  0  0  0  0  0
    1.7679    0.1438   -2.9454 H   0  0  0  0  0  0  0  0  0  0  0  0
    2.2109    2.3057   -2.2404 H   0  0  0  0  0  0  0  0  0  0  0  0
    1.2988   -1.6560    0.6761 H   0  0  0  0  0  0  0  0  0  0  0  0
    4.3419    0.5539    1.3600 H   0  0  0  0  0  0  0  0  0  0  0  0
    2.0293   -3.5506   -0.8016 H   0  0  0  0  0  0  0  0  0  0  0  0
    4.5421    2.2813   -0.0617 H   0  0  0  0  0  0  0  0  0  0  0  0
    4.0661    3.1869    1.3596 H   0  0  0  0  0  0  0  0  0  0  0  0
    1.6368   -3.5479   -3.3615 H   0  0  0  0  0  0  0  0  0  0  0  0
    0.9763   -2.0128   -3.9370 H   0  0  0  0  0  0  0  0  0  0  0  0
    1.8799   -1.2589    3.1276 H   0  0  0  0  0  0  0  0  0  0  0  0
    2.0813    1.8108    2.9811 H   0  0  0  0  0  0  0  0  0  0  0  0
    3.1610    0.4935    3.4539 H   0  0  0  0  0  0  0  0  0  0  0  0
    3.8003    2.0979    3.2543 H   0  0  0  0  0  0  0  0  0  0  0  0
   -1.1823    3.2350    0.5296 H   0  0  0  0  0  0  0  0  0  0  0  0
   -0.8932    2.2895    1.9876 H   0  0  0  0  0  0  0  0  0  0  0  0
    4.9889   -1.1754    0.6723 H   0  0  0  0  0  0  0  0  0  0  0  0
    4.1331   -4.1817   -1.1721 H   0  0  0  0  0  0  0  0  0  0  0  0
   -1.5593    0.2028    0.7866 H   0  0  0  0  0  0  0  0  0  0  0  0
   -1.7864    1.1151   -0.7009 H   0  0  0  0  0  0  0  0  0  0  0  0
    4.7957    4.3415   -1.1362 H   0  0  0  0  0  0  0  0  0  0  0  0
    3.7420    3.8585   -2.4817 H   0  0  0  0  0  0  0  0  0  0  0  0
    3.8731    5.5496   -2.0216 H   0  0  0  0  0  0  0  0  0  0  0  0
    2.7902   -2.6717   -5.1114 H   0  0  0  0  0  0  0  0  0  0  0  0
    2.0967    6.3814   -0.6933 H   0  0  0  0  0  0  0  0  0  0  0  0
    1.0927    5.3027    0.4030 H   0  0  0  0  0  0  0  0  0  0  0  0
    3.3204   -4.5173    3.6993 H   0  0  0  0  0  0  0  0  0  0  0  0
    3.0817   -3.0363    4.6391 H   0  0  0  0  0  0  0  0  0  0  0  0
    4.6806   -3.4106    3.9779 H   0  0  0  0  0  0  0  0  0  0  0  0
   -3.5814    2.4642    0.4224 H   0  0  0  0  0  0  0  0  0  0  0  0
   -3.3830    1.4848    1.8729 H   0  0  0  0  0  0  0  0  0  0  0  0
   -4.2054    0.4321   -0.8800 H   0  0  0  0  0  0  0  0  0  0  0  0
   -3.9998   -0.5637    0.5580 H   0  0  0  0  0  0  0  0  0  0  0  0
   -5.8252    0.6726    1.7042 H   0  0  0  0  0  0  0  0  0  0  0  0
   -6.0054    1.7308    0.3078 H   0  0  0  0  0  0  0  0  0  0  0  0
   -6.6452   -0.2415   -1.1045 H   0  0  0  0  0  0  0  0  0  0  0  0
   -6.4883   -1.2942    0.3038 H   0  0  0  0  0  0  0  0  0  0  0  0
   -8.2538    0.0204    1.4889 H   0  0  0  0  0  0  0  0  0  0  0  0
   -8.3999    1.0933    0.1000 H   0  0  0  0  0  0  0  0  0  0  0  0
   -9.1390   -0.8167   -1.3139 H   0  0  0  0  0  0  0  0  0  0  0  0
   -8.9754   -1.9096    0.0573 H   0  0  0  0  0  0  0  0  0  0  0  0
  -10.7367   -0.6670    1.2943 H   0  0  0  0  0  0  0  0  0  0  0  0
  -10.8777    0.4889   -0.0319 H   0  0  0  0  0  0  0  0  0  0  0  0
  -11.5785   -1.3451   -1.5792 H   0  0  0  0  0  0  0  0  0  0  0  0
  -11.4124   -2.5215   -0.2740 H   0  0  0  0  0  0  0  0  0  0  0  0
  -13.7753   -1.8511   -0.5614 H   0  0  0  0  0  0  0  0  0  0  0  0
  -13.3562   -0.1522   -0.2805 H   0  0  0  0  0  0  0  0  0  0  0  0
  -13.1884   -1.3374    1.0297 H   0  0  0  0  0  0  0  0  0  0  0  0
  1 11  1  0  0  0  0
  1 12  1  0  0  0  0
  2 10  1  0  0  0  0
  2 20  1  0  0  0  0
  3 13  1  0  0  0  0
  3 20  1  0  0  0  0
  4 16  1  0  0  0  0
  4 20  1  0  0  0  0
  5 17  1  0  0  0  0
  5 57  1  0  0  0  0
  6 18  1  0  0  0  0
  6 58  1  0  0  0  0
  7 21  1  0  0  0  0
  7 64  1  0  0  0  0
  8 24  2  0  0  0  0
  9 10  1  0  0  0  0
  9 11  1  0  0  0  0
  9 13  1  0  0  0  0
  9 41  1  0  0  0  0
 10 14  1  0  0  0  0
 10 15  1  0  0  0  0
 11 12  1  0  0  0  0
 11 42  1  0  0  0  0
 12 18  1  0  0  0  0
 12 21  1  0  0  0  0
 13 16  1  0  0  0  0
 13 43  1  0  0  0  0
 14 17  1  0  0  0  0
 14 22  1  0  0  0  0
 14 44  1  0  0  0  0
 15 19  1  0  0  0  0
 15 23  1  0  0  0  0
 15 45  1  0  0  0  0
 16 19  1  0  0  0  0
 16 25  1  0  0  0  0
 17 18  1  0  0  0  0
 17 24  1  0  0  0  0
 18 46  1  0  0  0  0
 19 47  1  0  0  0  0
 19 48  1  0  0  0  0
 20 26  1  0  0  0  0
 21 49  1  0  0  0  0
 21 50  1  0  0  0  0
 22 27  2  0  0  0  0
 22 51  1  0  0  0  0
 23 52  1  0  0  0  0
 23 53  1  0  0  0  0
 23 54  1  0  0  0  0
 24 27  1  0  0  0  0
 25 29  1  0  0  0  0
 25 30  2  0  0  0  0
 26 28  1  0  0  0  0
 26 55  1  0  0  0  0
 26 56  1  0  0  0  0
 27 31  1  0  0  0  0
 28 32  1  0  0  0  0
 28 59  1  0  0  0  0
 28 60  1  0  0  0  0
 29 61  1  0  0  0  0
 29 62  1  0  0  0  0
 29 63  1  0  0  0  0
 30 65  1  0  0  0  0
 30 66  1  0  0  0  0
 31 67  1  0  0  0  0
 31 68  1  0  0  0  0
 31 69  1  0  0  0  0
 32 33  1  0  0  0  0
 32 70  1  0  0  0  0
 32 71  1  0  0  0  0
 33 34  1  0  0  0  0
 33 72  1  0  0  0  0
 33 73  1  0  0  0  0
 34 35  1  0  0  0  0
 34 74  1  0  0  0  0
 34 75  1  0  0  0  0
 35 36  1  0  0  0  0
 35 76  1  0  0  0  0
 35 77  1  0  0  0  0
 36 37  1  0  0  0  0
 36 78  1  0  0  0  0
 36 79  1  0  0  0  0
 37 38  1  0  0  0  0
 37 80  1  0  0  0  0
 37 81  1  0  0  0  0
 38 39  1  0  0  0  0
 38 82  1  0  0  0  0
 38 83  1  0  0  0  0
 39 40  1  0  0  0  0
 39 84  1  0  0  0  0
 39 85  1  0  0  0  0
 40 86  1  0  0  0  0
 40 87  1  0  0  0  0
 40 88  1  0  0  0  0
M  END
> <PUBCHEM_COMPOUND_CID>
442060

> <PUBCHEM_CONFORMER_RMSD>
1.2

> <PUBCHEM_CONFORMER_DIVERSEORDER>
1
29
19
44
43
37
10
42
48
53
54
5
23
4
20
7
31
2
40
46
28
45
51
32
35
47
49
21
25
15
16
52
8
17
36
34
18
9
13
24
50
30
27
26
12
6
14
3
11
39
38
22
33
41

> <PUBCHEM_MMFF94_PARTIAL_CHARGES>
33
1 -0.3
10 0.28
11 -0.05
12 -0.04
13 0.28
14 0.14
16 0.42
17 0.34
18 0.38
2 -0.56
20 0.84
21 0.38
22 -0.29
24 0.49
25 -0.28
27 -0.12
29 0.14
3 -0.56
30 -0.3
31 0.14
4 -0.56
42 0.1
5 -0.68
51 0.15
57 0.4
58 0.4
6 -0.68
64 0.4
65 0.15
66 0.15
7 -0.68
8 -0.57
9 0.09

> <PUBCHEM_EFFECTIVE_ROTOR_COUNT>
13.4

> <PUBCHEM_PHARMACOPHORE_FEATURES>
15
1 1 acceptor
1 2 acceptor
1 3 acceptor
1 4 acceptor
1 40 hydrophobe
1 5 acceptor
1 5 donor
1 6 acceptor
1 6 donor
1 7 acceptor
1 7 donor
1 8 acceptor
10 2 3 4 9 10 13 15 16 19 20 rings
5 14 17 22 24 27 rings
7 9 10 11 12 14 17 18 rings

> <PUBCHEM_HEAVY_ATOM_COUNT>
40

> <PUBCHEM_ATOM_DEF_STEREO_COUNT>
10

> <PUBCHEM_ATOM_UDEF_STEREO_COUNT>
1

> <PUBCHEM_BOND_DEF_STEREO_COUNT>
0

> <PUBCHEM_BOND_UDEF_STEREO_COUNT>
0

> <PUBCHEM_ISOTOPIC_ATOM_COUNT>
0

> <PUBCHEM_COMPONENT_COUNT>
1

> <PUBCHEM_CACTVS_TAUTO_COUNT>
3

> <PUBCHEM_CONFORMER_ID>
0006BECC00000001

> <PUBCHEM_MMFF94_ENERGY>
110.9593

> <PUBCHEM_FEATURE_SELFOVERLAP>
76.3

> <PUBCHEM_SHAPE_FINGERPRINT>
11181472 205 18335410263605644921
11763715 3 17553747853234731600
12788726 201 17119698093070989624
13782708 43 18271804653903766957
14118638 360 18334568024481466345
14400156 350 18128535964310512228
14537116 161 13254800157818091651
15324884 4 16887827579526637250
15328684 2 17313647331990112571
15484559 13 18267574716043730820
15554971 5 17967812757473033681
19301679 30 18114179774963395025
19315092 285 17344068743898051074
19841028 212 18411702072542164531
20578428 11 18271519802181000261
20587220 46 17313097553910642239
20721686 124 17845372159350942480
21360442 33 18060427945473332163
22149856 69 17240472642754808203
25222932 49 18270679891335329666
3044373 193 18413111646063740625
44317340 157 9439409004673502545
54728670 133 16608295980205955400
9831232 110 18262513814940168439
9962374 69 18334298665337945959

> <PUBCHEM_SHAPE_MULTIPOLES>
776.23
24.29
5.92
2.92
156.69
3.56
1.17
-14.28
-0.6
-13.79
0.12
-6.11
-3.55
-1.74

> <PUBCHEM_SHAPE_SELFOVERLAP>
1652.036

> <PUBCHEM_SHAPE_VOLUME>
426

> <PUBCHEM_COORDINATE_TYPE>
2
5
10

$$$$

