10837
  -OEChem-06261205013D

 20 20  0     0  0  0  0  0  0999 V2000
    1.8615   -1.3269    0.0007 O   0  0  0  0  0  0  0  0  0  0  0  0
    0.7311    0.7349    0.0004 N   0  0  0  0  0  0  0  0  0  0  0  0
    3.0395    0.6639   -0.0005 N   0  0  0  0  0  0  0  0  0  0  0  0
    4.2618    0.0238   -0.0008 N   0  0  0  0  0  0  0  0  0  0  0  0
   -0.6149    0.3677    0.0007 C   0  0  0  0  0  0  0  0  0  0  0  0
   -1.6059    1.3493    0.0004 C   0  0  0  0  0  0  0  0  0  0  0  0
   -0.9695   -0.9813    0.0003 C   0  0  0  0  0  0  0  0  0  0  0  0
   -2.9515    0.9820   -0.0002 C   0  0  0  0  0  0  0  0  0  0  0  0
   -2.3151   -1.3487   -0.0004 C   0  0  0  0  0  0  0  0  0  0  0  0
   -3.3061   -0.3670   -0.0008 C   0  0  0  0  0  0  0  0  0  0  0  0
    1.8690   -0.0977    0.0003 C   0  0  0  0  0  0  0  0  0  0  0  0
   -1.3440    2.4043    0.0004 H   0  0  0  0  0  0  0  0  0  0  0  0
   -0.2617   -1.7981    0.0004 H   0  0  0  0  0  0  0  0  0  0  0  0
    0.9148    1.7354    0.0002 H   0  0  0  0  0  0  0  0  0  0  0  0
   -3.7233    1.7462   -0.0005 H   0  0  0  0  0  0  0  0  0  0  0  0
   -2.5927   -2.3988   -0.0008 H   0  0  0  0  0  0  0  0  0  0  0  0
   -4.3539   -0.6531   -0.0013 H   0  0  0  0  0  0  0  0  0  0  0  0
    3.0231    1.6783   -0.0008 H   0  0  0  0  0  0  0  0  0  0  0  0
    4.7727    0.3623   -0.8151 H   0  0  0  0  0  0  0  0  0  0  0  0
    4.7733    0.3628    0.8129 H   0  0  0  0  0  0  0  0  0  0  0  0
  1 11  2  0  0  0  0
  2  5  1  0  0  0  0
  2 11  1  0  0  0  0
  2 14  1  0  0  0  0
  3  4  1  0  0  0  0
  3 11  1  0  0  0  0
  3 18  1  0  0  0  0
  4 19  1  0  0  0  0
  4 20  1  0  0  0  0
  5  6  2  0  0  0  0
  5  7  1  0  0  0  0
  6  8  1  0  0  0  0
  6 12  1  0  0  0  0
  7  9  2  0  0  0  0
  7 13  1  0  0  0  0
  8 10  2  0  0  0  0
  8 15  1  0  0  0  0
  9 10  1  0  0  0  0
  9 16  1  0  0  0  0
 10 17  1  0  0  0  0
M  END
> <PUBCHEM_COMPOUND_CID>
10837

> <PUBCHEM_CONFORMER_RMSD>
0.6

> <PUBCHEM_CONFORMER_DIVERSEORDER>
1
2
3
4

> <PUBCHEM_MMFF94_PARTIAL_CHARGES>
20
1 -0.57
10 -0.15
11 0.69
12 0.15
13 0.15
14 0.37
15 0.15
16 0.15
17 0.15
18 0.37
19 0.36
2 -0.55
20 0.36
3 -0.42
4 -0.73
5 0.12
6 -0.15
7 -0.15
8 -0.15
9 -0.15

> <PUBCHEM_EFFECTIVE_ROTOR_COUNT>
3

> <PUBCHEM_PHARMACOPHORE_FEATURES>
5
1 1 acceptor
1 2 donor
1 3 donor
1 4 donor
6 5 6 7 8 9 10 rings

> <PUBCHEM_HEAVY_ATOM_COUNT>
11

> <PUBCHEM_ATOM_DEF_STEREO_COUNT>
0

> <PUBCHEM_ATOM_UDEF_STEREO_COUNT>
0

> <PUBCHEM_BOND_DEF_STEREO_COUNT>
0

> <PUBCHEM_BOND_UDEF_STEREO_COUNT>
0

> <PUBCHEM_ISOTOPIC_ATOM_COUNT>
0

> <PUBCHEM_COMPONENT_COUNT>
1

> <PUBCHEM_CACTVS_TAUTO_COUNT>
3

> <PUBCHEM_CONFORMER_ID>
00002A5500000001

> <PUBCHEM_MMFF94_ENERGY>
28.8799

> <PUBCHEM_FEATURE_SELFOVERLAP>
26.932

> <PUBCHEM_SHAPE_FINGERPRINT>
10608611 8 18408609158047189024
11062470 55 18410856555344835277
12932764 1 17240495709700035787
13024252 1 15626224615695436473
13380535 76 18411138047612646134
14144814 61 18411982485342842384
14325111 11 18410855503262574497
15775835 57 18341328989291983649
20201158 50 18335139795215596583
20645464 45 18040991847725664223
20871998 184 18187641350201296919
23402539 116 18187090546800049349
23402655 69 18263378039464222373
23552423 10 18272651195361258311
3312278 4 18410572877250459475
369184 2 18334013908615460601
6333449 129 18408325484162819085
75552 356 18411417289248138703

> <PUBCHEM_SHAPE_MULTIPOLES>
205.56
6.13
1.37
0.58
5.06
0.12
0
-0.14
0
-0.67
0
-0.09
0
0

> <PUBCHEM_SHAPE_SELFOVERLAP>
421.98

> <PUBCHEM_SHAPE_VOLUME>
117.6

> <PUBCHEM_COORDINATE_TYPE>
2
5
10

$$$$

