5284519
  -OEChem-07051212523D

 55 58  0     1  0  0  0  0  0999 V2000
   -3.2221    0.2660   -2.1022 S   0  0  0  0  0  0  0  0  0  0  0  0
   -2.2946    0.9661    2.1477 O   0  0  0  0  0  0  0  0  0  0  0  0
   -6.3516   -0.5215    1.6083 O   0  0  0  0  0  0  0  0  0  0  0  0
   -6.2698    1.6782    1.0160 O   0  0  0  0  0  0  0  0  0  0  0  0
    0.6888    1.2458    1.3047 O   0  0  0  0  0  0  0  0  0  0  0  0
    3.8189   -0.3797   -2.1048 O   0  0  0  0  0  0  0  0  0  0  0  0
    4.6239    1.6044    1.6541 O   0  0  0  0  0  0  0  0  0  0  0  0
   -3.6704    1.2578    0.2522 N   0  0  0  0  0  0  0  0  0  0  0  0
   -0.6209    0.9020   -0.5791 N   0  0  0  0  0  0  0  0  0  0  0  0
    2.8429    0.2711   -0.1153 N   0  0  0  0  0  0  0  0  0  0  0  0
    5.1136    0.7180   -0.5124 N   0  0  0  0  0  0  0  0  0  0  0  0
    6.7615    1.7161    0.7142 N   0  0  0  0  0  0  0  0  0  0  0  0
   -3.0267    1.7037   -0.9870 C   0  0  1  0  0  0  0  0  0  0  0  0
   -4.8295   -0.1991   -1.2842 C   0  0  0  0  0  0  0  0  0  0  0  0
   -4.5939    0.1424    0.2029 C   0  0  2  0  0  0  0  0  0  0  0  0
   -1.7138    1.7924   -0.1969 C   0  0  1  0  0  0  0  0  0  0  0  0
   -2.5382    1.3089    1.0129 C   0  0  0  0  0  0  0  0  0  0  0  0
   -5.9505    0.6080   -1.9531 C   0  0  0  0  0  0  0  0  0  0  0  0
   -5.0726   -1.6965   -1.4808 C   0  0  0  0  0  0  0  0  0  0  0  0
   -5.8141    0.5454    0.9676 C   0  0  0  0  0  0  0  0  0  0  0  0
    0.5084    0.7000    0.2177 C   0  0  0  0  0  0  0  0  0  0  0  0
    1.5260   -0.2340   -0.4244 C   0  0  2  0  0  0  0  0  0  0  0  0
    1.3437   -1.6629    0.0314 C   0  0  0  0  0  0  0  0  0  0  0  0
    3.9103    0.1567   -0.9981 C   0  0  0  0  0  0  0  0  0  0  0  0
    2.0189   -2.1263    1.1607 C   0  0  0  0  0  0  0  0  0  0  0  0
    0.4999   -2.5189   -0.6767 C   0  0  0  0  0  0  0  0  0  0  0  0
    6.2982    0.7545   -1.3562 C   0  0  0  0  0  0  0  0  0  0  0  0
    7.4255    1.2119   -0.4541 C   0  0  0  0  0  0  0  0  0  0  0  0
    5.3991    1.3739    0.7352 C   0  0  0  0  0  0  0  0  0  0  0  0
    1.8507   -3.4454    1.5817 C   0  0  0  0  0  0  0  0  0  0  0  0
    0.3316   -3.8380   -0.2555 C   0  0  0  0  0  0  0  0  0  0  0  0
    1.0070   -4.3012    0.8736 C   0  0  0  0  0  0  0  0  0  0  0  0
   -3.4293    2.6511   -1.3568 H   0  0  0  0  0  0  0  0  0  0  0  0
   -4.1079   -0.6898    0.7307 H   0  0  0  0  0  0  0  0  0  0  0  0
   -1.3580    2.8226   -0.0725 H   0  0  0  0  0  0  0  0  0  0  0  0
   -6.0010    0.4066   -3.0299 H   0  0  0  0  0  0  0  0  0  0  0  0
   -6.9283    0.3404   -1.5361 H   0  0  0  0  0  0  0  0  0  0  0  0
   -5.8225    1.6883   -1.8216 H   0  0  0  0  0  0  0  0  0  0  0  0
   -5.1701   -1.9544   -2.5418 H   0  0  0  0  0  0  0  0  0  0  0  0
   -4.2594   -2.3007   -1.0619 H   0  0  0  0  0  0  0  0  0  0  0  0
   -5.9984   -2.0062   -0.9828 H   0  0  0  0  0  0  0  0  0  0  0  0
   -0.6735    0.4021   -1.4635 H   0  0  0  0  0  0  0  0  0  0  0  0
    1.4128   -0.1924   -1.5154 H   0  0  0  0  0  0  0  0  0  0  0  0
   -7.1544   -0.2773    2.1164 H   0  0  0  0  0  0  0  0  0  0  0  0
    2.9948    0.7065    0.7888 H   0  0  0  0  0  0  0  0  0  0  0  0
    2.6710   -1.4809    1.7425 H   0  0  0  0  0  0  0  0  0  0  0  0
   -0.0332   -2.1701   -1.5572 H   0  0  0  0  0  0  0  0  0  0  0  0
    6.1114    1.4726   -2.1628 H   0  0  0  0  0  0  0  0  0  0  0  0
    6.4848   -0.2245   -1.8088 H   0  0  0  0  0  0  0  0  0  0  0  0
    8.0622    0.3772   -0.1452 H   0  0  0  0  0  0  0  0  0  0  0  0
    8.0433    1.9935   -0.9035 H   0  0  0  0  0  0  0  0  0  0  0  0
    7.2340    2.1814    1.4828 H   0  0  0  0  0  0  0  0  0  0  0  0
    2.3736   -3.8054    2.4629 H   0  0  0  0  0  0  0  0  0  0  0  0
   -0.3260   -4.5041   -0.8062 H   0  0  0  0  0  0  0  0  0  0  0  0
    0.8750   -5.3279    1.2022 H   0  0  0  0  0  0  0  0  0  0  0  0
  1 13  1  0  0  0  0
  1 14  1  0  0  0  0
  2 17  2  0  0  0  0
  3 20  1  0  0  0  0
  3 44  1  0  0  0  0
  4 20  2  0  0  0  0
  5 21  2  0  0  0  0
  6 24  2  0  0  0  0
  7 29  2  0  0  0  0
  8 13  1  0  0  0  0
  8 15  1  0  0  0  0
  8 17  1  0  0  0  0
  9 16  1  0  0  0  0
  9 21  1  0  0  0  0
  9 42  1  0  0  0  0
 10 22  1  0  0  0  0
 10 24  1  0  0  0  0
 10 45  1  0  0  0  0
 11 24  1  0  0  0  0
 11 27  1  0  0  0  0
 11 29  1  0  0  0  0
 12 28  1  0  0  0  0
 12 29  1  0  0  0  0
 12 52  1  0  0  0  0
 13 16  1  0  0  0  0
 13 33  1  0  0  0  0
 14 15  1  0  0  0  0
 14 18  1  0  0  0  0
 14 19  1  0  0  0  0
 15 20  1  0  0  0  0
 15 34  1  0  0  0  0
 16 17  1  0  0  0  0
 16 35  1  0  0  0  0
 18 36  1  0  0  0  0
 18 37  1  0  0  0  0
 18 38  1  0  0  0  0
 19 39  1  0  0  0  0
 19 40  1  0  0  0  0
 19 41  1  0  0  0  0
 21 22  1  0  0  0  0
 22 23  1  0  0  0  0
 22 43  1  0  0  0  0
 23 25  2  0  0  0  0
 23 26  1  0  0  0  0
 25 30  1  0  0  0  0
 25 46  1  0  0  0  0
 26 31  2  0  0  0  0
 26 47  1  0  0  0  0
 27 28  1  0  0  0  0
 27 48  1  0  0  0  0
 27 49  1  0  0  0  0
 28 50  1  0  0  0  0
 28 51  1  0  0  0  0
 30 32  2  0  0  0  0
 30 53  1  0  0  0  0
 31 32  1  0  0  0  0
 31 54  1  0  0  0  0
 32 55  1  0  0  0  0
M  END
> <PUBCHEM_COMPOUND_CID>
5284519

> <PUBCHEM_CONFORMER_RMSD>
1

> <PUBCHEM_CONFORMER_DIVERSEORDER>
1
45
62
11
23
33
66
51
96
68
86
30
46
19
44
72
67
82
73
50
81
59
99
7
90
20
95
58
17
70
80
56
85
47
42
52
93
36
28
91
92
79
97
12
8
54
60
53
100
16
89
21
40
34
83
10
43
38
49
35
87
48
24
4
3
78
55
2
75
64
37
74
6
63
29
22
5
15
88
84
31
27
61
26
76
39
13
9
77
71
57
69
14
18
41
65
25
98
94
32

> <PUBCHEM_MMFF94_PARTIAL_CHARGES>
39
1 -0.45
10 -0.73
11 -0.42
12 -0.73
13 0.44
14 0.23
15 0.36
16 0.28
17 0.58
2 -0.57
20 0.66
21 0.57
22 0.5
23 -0.14
24 0.69
25 -0.15
26 -0.15
27 0.3
28 0.3
29 0.69
3 -0.65
30 -0.15
31 -0.15
32 -0.15
4 -0.57
42 0.37
44 0.5
45 0.37
46 0.15
47 0.15
5 -0.57
52 0.37
53 0.15
54 0.15
55 0.15
6 -0.57
7 -0.57
8 -0.59
9 -0.65

> <PUBCHEM_EFFECTIVE_ROTOR_COUNT>
9.6

> <PUBCHEM_PHARMACOPHORE_FEATURES>
15
1 10 donor
1 12 donor
1 2 acceptor
1 3 acceptor
1 4 acceptor
1 5 acceptor
1 6 acceptor
1 7 acceptor
1 9 donor
3 14 18 19 hydrophobe
3 3 4 20 anion
4 8 13 16 17 rings
5 11 12 27 28 29 rings
6 23 25 26 30 31 32 rings
7 1 8 13 14 15 16 17 rings

> <PUBCHEM_HEAVY_ATOM_COUNT>
32

> <PUBCHEM_ATOM_DEF_STEREO_COUNT>
4

> <PUBCHEM_ATOM_UDEF_STEREO_COUNT>
0

> <PUBCHEM_BOND_DEF_STEREO_COUNT>
0

> <PUBCHEM_BOND_UDEF_STEREO_COUNT>
0

> <PUBCHEM_ISOTOPIC_ATOM_COUNT>
0

> <PUBCHEM_COMPONENT_COUNT>
1

> <PUBCHEM_CACTVS_TAUTO_COUNT>
8

> <PUBCHEM_CONFORMER_ID>
0050A2A700000001

> <PUBCHEM_MMFF94_ENERGY>
86.0289

> <PUBCHEM_FEATURE_SELFOVERLAP>
79.905

> <PUBCHEM_SHAPE_FINGERPRINT>
102385 1 17766285653817518092
10319688 67 18264790787393632560
11007060 377 18189614952177491744
11135926 11 18413392055334693519
11136131 41 18059024976773336362
11991303 11 17988070090076905422
12166972 35 11095873865878315783
12373685 5 16773535312703561259
12553582 1 18041285473697663597
12597179 24 18060415820126625146
12788726 201 17314221349589160001
13631057 29 18263651675930490871
13911987 19 18201708531958156892
14190465 44 18194969531393469552
14347424 109 18051403274365542265
146900 427 18335140924807703137
14765038 42 18187917392271030027
14840074 17 18408890646245944405
15021287 119 9871742490878021001
15537594 2 18334573564645717567
15775530 1 17612315143568718840
15849732 13 17489869324501126364
173720 79 18201451259522532914
19319366 153 18339370746045870142
20197701 30 18343582949965101966
21054139 6 18411426072314088007
21521721 280 18408880716181666912
21792961 116 5617269083064201532
21796203 349 17401736001832908251
22224240 67 18411133619432532425
22393880 68 18264207091967670316
22956985 138 17415285207061413410
23516275 137 17169802635700547663
3178227 256 18343013372381387872
4258327 124 17986377899069721980
4340502 62 18412259549994807990
437815 12 8070028856680259371
469060 322 17988651740069657231
5758199 1 18408881832577660608
6669772 16 18408599293277716702
6823239 73 15357992182435801475
77296 10 14836118836524421368

> <PUBCHEM_SHAPE_MULTIPOLES>
602.27
17.01
3.5
1.87
6.25
5.64
0.13
-11.07
1.46
2.27
-0.98
-1.32
-0.14
-0.67

> <PUBCHEM_SHAPE_SELFOVERLAP>
1274.862

> <PUBCHEM_SHAPE_VOLUME>
339.2

> <PUBCHEM_COORDINATE_TYPE>
2
5
10

$$$$

