240986
  -OEChem-07051213063D

 46 49  0     1  0  0  0  0  0999 V2000
   -1.6970   -0.7323    1.6338 O   0  0  0  0  0  0  0  0  0  0  0  0
   -4.8089    1.1262    0.8215 O   0  0  0  0  0  0  0  0  0  0  0  0
    5.4622   -0.1468    1.2606 O   0  0  0  0  0  0  0  0  0  0  0  0
   -1.9025   -0.6919    0.2041 C   0  0  2  0  0  0  0  0  0  0  0  0
   -0.5210   -0.7323   -0.4716 C   0  0  1  0  0  0  0  0  0  0  0  0
   -2.6382    0.6229   -0.1603 C   0  0  2  0  0  0  0  0  0  0  0  0
    0.3440    0.4836    0.0309 C   0  0  1  0  0  0  0  0  0  0  0  0
    1.7776    0.5017   -0.6266 C   0  0  1  0  0  0  0  0  0  0  0  0
   -1.8767    1.7996    0.4415 C   0  0  0  0  0  0  0  0  0  0  0  0
   -0.4270    1.8350   -0.0813 C   0  0  0  0  0  0  0  0  0  0  0  0
   -2.9300   -1.7783   -0.1162 C   0  0  0  0  0  0  0  0  0  0  0  0
    0.2202   -2.0593   -0.2321 C   0  0  0  0  0  0  0  0  0  0  0  0
   -3.9970    0.2960    0.4359 C   0  0  0  0  0  0  0  0  0  0  0  0
   -4.2398   -1.2049    0.4584 C   0  0  0  0  0  0  0  0  0  0  0  0
    1.5927   -2.0610   -0.8986 C   0  0  0  0  0  0  0  0  0  0  0  0
    2.4053   -0.8818   -0.4245 C   0  0  0  0  0  0  0  0  0  0  0  0
   -2.8957    0.8581   -1.6655 C   0  0  0  0  0  0  0  0  0  0  0  0
    1.7330    0.8165   -2.1392 C   0  0  0  0  0  0  0  0  0  0  0  0
    2.6330    1.5919    0.0041 C   0  0  0  0  0  0  0  0  0  0  0  0
    3.5847   -1.0823    0.1848 C   0  0  0  0  0  0  0  0  0  0  0  0
    3.8065    1.3974    0.6136 C   0  0  0  0  0  0  0  0  0  0  0  0
    4.3745    0.0420    0.7266 C   0  0  0  0  0  0  0  0  0  0  0  0
   -0.6638   -0.6474   -1.5545 H   0  0  0  0  0  0  0  0  0  0  0  0
    0.5048    0.3306    1.1105 H   0  0  0  0  0  0  0  0  0  0  0  0
   -1.8710    1.7488    1.5372 H   0  0  0  0  0  0  0  0  0  0  0  0
   -2.3749    2.7464    0.1976 H   0  0  0  0  0  0  0  0  0  0  0  0
   -0.4436    2.1688   -1.1238 H   0  0  0  0  0  0  0  0  0  0  0  0
    0.1027    2.6132    0.4795 H   0  0  0  0  0  0  0  0  0  0  0  0
   -2.6996   -2.7347    0.3648 H   0  0  0  0  0  0  0  0  0  0  0  0
   -3.0194   -1.9514   -1.1939 H   0  0  0  0  0  0  0  0  0  0  0  0
   -0.3673   -2.8934   -0.6331 H   0  0  0  0  0  0  0  0  0  0  0  0
    0.3355   -2.2410    0.8441 H   0  0  0  0  0  0  0  0  0  0  0  0
   -4.4046   -1.5317    1.4889 H   0  0  0  0  0  0  0  0  0  0  0  0
   -5.0954   -1.4678   -0.1679 H   0  0  0  0  0  0  0  0  0  0  0  0
    1.4856   -2.0258   -1.9887 H   0  0  0  0  0  0  0  0  0  0  0  0
    2.0940   -3.0098   -0.6713 H   0  0  0  0  0  0  0  0  0  0  0  0
   -1.9753    0.9503   -2.2477 H   0  0  0  0  0  0  0  0  0  0  0  0
   -3.4914    0.0594   -2.1201 H   0  0  0  0  0  0  0  0  0  0  0  0
   -3.4645    1.7848   -1.8108 H   0  0  0  0  0  0  0  0  0  0  0  0
   -2.5210   -0.5386    2.1070 H   0  0  0  0  0  0  0  0  0  0  0  0
    2.7267    0.7103   -2.5939 H   0  0  0  0  0  0  0  0  0  0  0  0
    1.0587    0.1538   -2.6896 H   0  0  0  0  0  0  0  0  0  0  0  0
    1.4056    1.8439   -2.3351 H   0  0  0  0  0  0  0  0  0  0  0  0
    2.2808    2.6181   -0.0733 H   0  0  0  0  0  0  0  0  0  0  0  0
    3.9955   -2.0771    0.3215 H   0  0  0  0  0  0  0  0  0  0  0  0
    4.3722    2.2249    1.0256 H   0  0  0  0  0  0  0  0  0  0  0  0
  1  4  1  0  0  0  0
  1 40  1  0  0  0  0
  2 13  2  0  0  0  0
  3 22  2  0  0  0  0
  4  5  1  0  0  0  0
  4  6  1  0  0  0  0
  4 11  1  0  0  0  0
  5  7  1  0  0  0  0
  5 12  1  0  0  0  0
  5 23  1  0  0  0  0
  6  9  1  0  0  0  0
  6 13  1  0  0  0  0
  6 17  1  0  0  0  0
  7  8  1  0  0  0  0
  7 10  1  0  0  0  0
  7 24  1  0  0  0  0
  8 16  1  0  0  0  0
  8 18  1  0  0  0  0
  8 19  1  0  0  0  0
  9 10  1  0  0  0  0
  9 25  1  0  0  0  0
  9 26  1  0  0  0  0
 10 27  1  0  0  0  0
 10 28  1  0  0  0  0
 11 14  1  0  0  0  0
 11 29  1  0  0  0  0
 11 30  1  0  0  0  0
 12 15  1  0  0  0  0
 12 31  1  0  0  0  0
 12 32  1  0  0  0  0
 13 14  1  0  0  0  0
 14 33  1  0  0  0  0
 14 34  1  0  0  0  0
 15 16  1  0  0  0  0
 15 35  1  0  0  0  0
 15 36  1  0  0  0  0
 16 20  2  0  0  0  0
 17 37  1  0  0  0  0
 17 38  1  0  0  0  0
 17 39  1  0  0  0  0
 18 41  1  0  0  0  0
 18 42  1  0  0  0  0
 18 43  1  0  0  0  0
 19 21  2  0  0  0  0
 19 44  1  0  0  0  0
 20 22  1  0  0  0  0
 20 45  1  0  0  0  0
 21 22  1  0  0  0  0
 21 46  1  0  0  0  0
M  END
> <PUBCHEM_COMPOUND_CID>
240986

> <PUBCHEM_CONFORMER_RMSD>
0.6

> <PUBCHEM_CONFORMER_DIVERSEORDER>
1

> <PUBCHEM_MMFF94_PARTIAL_CHARGES>
18
1 -0.68
13 0.45
14 0.06
15 0.14
16 -0.28
19 -0.29
2 -0.57
20 -0.14
21 -0.14
22 0.54
3 -0.57
4 0.28
40 0.4
44 0.15
45 0.15
46 0.15
6 0.06
8 0.28

> <PUBCHEM_EFFECTIVE_ROTOR_COUNT>
1.2

> <PUBCHEM_PHARMACOPHORE_FEATURES>
8
1 1 acceptor
1 1 donor
1 2 acceptor
1 3 acceptor
5 4 6 11 13 14 rings
6 4 5 6 7 9 10 rings
6 5 7 8 12 15 16 rings
6 8 16 19 20 21 22 rings

> <PUBCHEM_HEAVY_ATOM_COUNT>
22

> <PUBCHEM_ATOM_DEF_STEREO_COUNT>
5

> <PUBCHEM_ATOM_UDEF_STEREO_COUNT>
0

> <PUBCHEM_BOND_DEF_STEREO_COUNT>
0

> <PUBCHEM_BOND_UDEF_STEREO_COUNT>
0

> <PUBCHEM_ISOTOPIC_ATOM_COUNT>
0

> <PUBCHEM_COMPONENT_COUNT>
1

> <PUBCHEM_CACTVS_TAUTO_COUNT>
6

> <PUBCHEM_CONFORMER_ID>
0003AD5A00000001

> <PUBCHEM_MMFF94_ENERGY>
71.1784

> <PUBCHEM_FEATURE_SELFOVERLAP>
40.696

> <PUBCHEM_SHAPE_FINGERPRINT>
10062212 137 18341052930543554123
10646746 165 18334572477470287304
10759866 29 17915732073260273740
10967382 1 18408600387554697863
11132069 177 18412820296455855071
11370993 70 18335143106698815242
12011746 2 18408885161873335550
121448 382 14346087382081762868
12173636 292 18261947561792964245
12236239 1 18060697269802679012
12251169 10 18411143519970258234
12403259 415 18411985767004259932
12403260 363 18263935340590987637
12403814 3 17988923358391516821
12633257 1 17632570539663520627
12839892 36 18335710416144736570
128620 24 16660361471905279839
13140716 1 18337954480589744952
13214271 11 18259705592927291367
13224815 77 18411975845333978300
13583140 156 17489045819438723494
13675066 3 18201717353609362017
14178342 30 18337944683890941297
14223421 5 18263078971515054678
14289901 80 15502648325800106479
14341114 176 18335982047509364570
15163728 17 14419516205075471713
15196674 1 18408884018599729275
15375358 24 18335419084349190301
15536298 74 18187920720258741606
15788980 27 17346602971332052341
16945 1 18266457800696014839
17349148 13 18201438064660209230
17492 89 18410011052431776851
17980427 23 18271526403424428268
1813 80 17203327849517203390
18186145 218 18410007758201332342
19050596 39 18410854347747495401
192875 21 17632296735577502679
200 152 18187375311431597367
20715895 44 18198348553547030997
21033648 29 18264790851254282200
21069387 34 16702019747094461808
21267235 1 18410565167599838946
21637258 2 15841285817602846586
21756936 100 17606974880571209192
22182313 1 18197497535213735335
22854114 59 18114180834986477322
23184049 59 18411420596520636742
23402539 116 18335148574260475669
23419403 2 16537710047957542595
23557571 272 18114447981678189983
23559900 14 18261669368007932334
26918003 58 18411986866267694961
2748010 2 18339068363167686975
296302 2 16877664564857273775
3286 77 18267585715427750933
335352 9 18336823216295117151
34934 24 18334861653724240895
350125 39 18409165498668414416
351380 180 18410015437845535106
394222 165 17414130436136162068
4340502 62 18260820523730422043
474 4 17749108872593061040
5104073 3 18411698746950087457
633830 44 17894627041732634052
7364860 26 18115018744498999566
9709674 26 18335134344939170863

> <PUBCHEM_SHAPE_MULTIPOLES>
435.14
8.81
2.06
1.27
1.76
0.29
0.41
-0.46
-3.1
-0.17
0.12
0.21
-0.18
0.21

> <PUBCHEM_SHAPE_SELFOVERLAP>
951.115

> <PUBCHEM_SHAPE_VOLUME>
234.3

> <PUBCHEM_COORDINATE_TYPE>
2
5
10

$$$$

