2797
  -OEChem-07051213043D

 25 25  0     0  0  0  0  0  0999 V2000
    4.9133   -0.0251   -0.4025 Cl  0  0  0  0  0  0  0  0  0  0  0  0
   -0.8391    0.0422    0.7734 O   0  0  0  0  0  0  0  0  0  0  0  0
   -4.1019   -0.0979   -0.7042 O   0  0  0  0  0  0  0  0  0  0  0  0
   -3.3804    0.1327    1.4276 O   0  0  0  0  0  0  0  0  0  0  0  0
   -1.7207   -0.0154   -0.3483 C   0  0  0  0  0  0  0  0  0  0  0  0
   -1.4589   -1.3238   -1.0884 C   0  0  0  0  0  0  0  0  0  0  0  0
   -1.4559    1.2079   -1.2210 C   0  0  0  0  0  0  0  0  0  0  0  0
   -3.1276    0.0164    0.2343 C   0  0  0  0  0  0  0  0  0  0  0  0
    0.5007    0.0265    0.4997 C   0  0  0  0  0  0  0  0  0  0  0  0
    1.1787    1.2248    0.2985 C   0  0  0  0  0  0  0  0  0  0  0  0
    1.1763   -1.1878    0.4243 C   0  0  0  0  0  0  0  0  0  0  0  0
    2.5452    1.2089    0.0190 C   0  0  0  0  0  0  0  0  0  0  0  0
    2.5428   -1.2039    0.1450 C   0  0  0  0  0  0  0  0  0  0  0  0
    3.2274   -0.0055   -0.0576 C   0  0  0  0  0  0  0  0  0  0  0  0
   -2.2241   -1.4964   -1.8544 H   0  0  0  0  0  0  0  0  0  0  0  0
   -0.4992   -1.3361   -1.6145 H   0  0  0  0  0  0  0  0  0  0  0  0
   -1.4908   -2.1821   -0.4076 H   0  0  0  0  0  0  0  0  0  0  0  0
   -1.4797    2.1324   -0.6328 H   0  0  0  0  0  0  0  0  0  0  0  0
   -2.2273    1.3033   -1.9944 H   0  0  0  0  0  0  0  0  0  0  0  0
   -0.4996    1.1600   -1.7512 H   0  0  0  0  0  0  0  0  0  0  0  0
    0.6666    2.1790    0.3797 H   0  0  0  0  0  0  0  0  0  0  0  0
    0.6620   -2.1272    0.6041 H   0  0  0  0  0  0  0  0  0  0  0  0
    3.0667    2.1506   -0.1314 H   0  0  0  0  0  0  0  0  0  0  0  0
    3.0624   -2.1573    0.0935 H   0  0  0  0  0  0  0  0  0  0  0  0
   -4.9980   -0.0749   -0.3059 H   0  0  0  0  0  0  0  0  0  0  0  0
  1 14  1  0  0  0  0
  2  5  1  0  0  0  0
  2  9  1  0  0  0  0
  3  8  1  0  0  0  0
  3 25  1  0  0  0  0
  4  8  2  0  0  0  0
  5  6  1  0  0  0  0
  5  7  1  0  0  0  0
  5  8  1  0  0  0  0
  6 15  1  0  0  0  0
  6 16  1  0  0  0  0
  6 17  1  0  0  0  0
  7 18  1  0  0  0  0
  7 19  1  0  0  0  0
  7 20  1  0  0  0  0
  9 10  2  0  0  0  0
  9 11  1  0  0  0  0
 10 12  1  0  0  0  0
 10 21  1  0  0  0  0
 11 13  2  0  0  0  0
 11 22  1  0  0  0  0
 12 14  2  0  0  0  0
 12 23  1  0  0  0  0
 13 14  1  0  0  0  0
 13 24  1  0  0  0  0
M  END
> <PUBCHEM_COMPOUND_CID>
2797

> <PUBCHEM_CONFORMER_RMSD>
0.6

> <PUBCHEM_CONFORMER_DIVERSEORDER>
1
8
9
3
5
7
4
2
10
6

> <PUBCHEM_MMFF94_PARTIAL_CHARGES>
17
1 -0.18
10 -0.15
11 -0.15
12 -0.15
13 -0.15
14 0.18
2 -0.36
21 0.15
22 0.15
23 0.15
24 0.15
25 0.5
3 -0.65
4 -0.57
5 0.34
8 0.66
9 0.08

> <PUBCHEM_EFFECTIVE_ROTOR_COUNT>
3

> <PUBCHEM_PHARMACOPHORE_FEATURES>
6
1 2 acceptor
1 3 acceptor
1 4 acceptor
3 3 4 8 anion
3 5 6 7 hydrophobe
6 9 10 11 12 13 14 rings

> <PUBCHEM_HEAVY_ATOM_COUNT>
14

> <PUBCHEM_ATOM_DEF_STEREO_COUNT>
0

> <PUBCHEM_ATOM_UDEF_STEREO_COUNT>
0

> <PUBCHEM_BOND_DEF_STEREO_COUNT>
0

> <PUBCHEM_BOND_UDEF_STEREO_COUNT>
0

> <PUBCHEM_ISOTOPIC_ATOM_COUNT>
0

> <PUBCHEM_COMPONENT_COUNT>
1

> <PUBCHEM_CACTVS_TAUTO_COUNT>
1

> <PUBCHEM_CONFORMER_ID>
00000AED00000001

> <PUBCHEM_MMFF94_ENERGY>
48.7125

> <PUBCHEM_FEATURE_SELFOVERLAP>
30.517

> <PUBCHEM_SHAPE_FINGERPRINT>
11031198 65 18201432584588050526
11062470 55 14490190514121095128
11401426 45 18335707122542305496
11471102 20 18411984658944486088
12500047 106 13912325711038598860
12932764 1 18339655485465841304
13214271 11 17703791401326769047
13221675 6 18408886235024517038
13581323 91 15502380027730312309
14115302 16 17603586287910830398
14144814 61 18040718073562050795
14911166 2 18411412904772234342
14943859 89 18342175549047708458
14993402 34 18113340812323866775
15309172 13 18333447655758660419
15775835 57 18410575063457391478
16945 1 18341062856028053506
17844478 74 17988921188858155489
18175812 5 17703788094117587407
18186145 218 18334019363382383488
19422 9 17967812704424547919
200 152 18335146396865089197
20201158 50 18202002144248142746
20279233 1 17632858633438133051
20645477 70 18270972365385999975
21119208 17 18187365424174191182
22802520 49 17772763894464889764
23402539 116 16702305624555185938
23402655 69 18340495550835616405
23557571 272 15698005158013936350
23559900 14 16702023106339194738
25 1 18343866632217243290
528886 8 18410297990896018714
74978 22 17531254898260767809
77492 1 17821727238761606625

> <PUBCHEM_SHAPE_MULTIPOLES>
272.38
7.39
1.28
1.04
1.91
0.01
0.03
0.04
0.51
0.39
0.17
-0.74
-0.01
-0.06

> <PUBCHEM_SHAPE_SELFOVERLAP>
557.543

> <PUBCHEM_SHAPE_VOLUME>
158.8

> <PUBCHEM_COORDINATE_TYPE>
2
5
10

$$$$

