19587
  -OEChem-07051213133D

 29 29  0     1  0  0  0  0  0999 V2000
    5.8961   -0.4440    0.1645 Cl  0  0  0  0  0  0  0  0  0  0  0  0
   -0.8347   -1.3834   -0.8462 O   0  0  0  0  0  0  0  0  0  0  0  0
   -2.1494    0.1684    0.2593 N   0  0  0  0  0  0  0  0  0  0  0  0
    0.1058    0.6516   -0.2242 N   0  0  0  0  0  0  0  0  0  0  0  0
   -3.3597   -0.6505    0.2475 C   0  0  1  0  0  0  0  0  0  0  0  0
   -0.9340   -0.2777   -0.3099 C   0  0  0  0  0  0  0  0  0  0  0  0
   -3.8056   -0.9654    1.6694 C   0  0  0  0  0  0  0  0  0  0  0  0
   -2.2743    1.4740    0.8948 C   0  0  0  0  0  0  0  0  0  0  0  0
    1.4950    0.3887   -0.1305 C   0  0  0  0  0  0  0  0  0  0  0  0
    2.3797    1.4502   -0.0537 C   0  0  0  0  0  0  0  0  0  0  0  0
    1.9350   -0.9235   -0.1183 C   0  0  0  0  0  0  0  0  0  0  0  0
   -4.4224    0.0350   -0.5007 C   0  0  0  0  0  0  0  0  0  0  0  0
    3.7473    1.1915    0.0380 C   0  0  0  0  0  0  0  0  0  0  0  0
    3.3026   -1.1825   -0.0264 C   0  0  0  0  0  0  0  0  0  0  0  0
    4.2088   -0.1248    0.0517 C   0  0  0  0  0  0  0  0  0  0  0  0
   -5.2902    0.5925   -1.1153 C   0  0  0  0  0  0  0  0  0  0  0  0
   -3.1392   -1.5996   -0.2537 H   0  0  0  0  0  0  0  0  0  0  0  0
   -4.1679   -0.0900    2.2180 H   0  0  0  0  0  0  0  0  0  0  0  0
   -4.6298   -1.6886    1.6577 H   0  0  0  0  0  0  0  0  0  0  0  0
   -2.9853   -1.4060    2.2470 H   0  0  0  0  0  0  0  0  0  0  0  0
   -3.2443    1.6315    1.3706 H   0  0  0  0  0  0  0  0  0  0  0  0
   -2.1434    2.2490    0.1325 H   0  0  0  0  0  0  0  0  0  0  0  0
   -1.4926    1.5842    1.6530 H   0  0  0  0  0  0  0  0  0  0  0  0
   -0.1406    1.6346   -0.1609 H   0  0  0  0  0  0  0  0  0  0  0  0
    2.0305    2.4788   -0.0638 H   0  0  0  0  0  0  0  0  0  0  0  0
    1.2791   -1.7838   -0.1490 H   0  0  0  0  0  0  0  0  0  0  0  0
    4.4418    2.0255    0.0980 H   0  0  0  0  0  0  0  0  0  0  0  0
    3.6483   -2.2130   -0.0110 H   0  0  0  0  0  0  0  0  0  0  0  0
   -6.0597    1.0873   -1.6603 H   0  0  0  0  0  0  0  0  0  0  0  0
  1 15  1  0  0  0  0
  2  6  2  0  0  0  0
  3  5  1  0  0  0  0
  3  6  1  0  0  0  0
  3  8  1  0  0  0  0
  4  6  1  0  0  0  0
  4  9  1  0  0  0  0
  4 24  1  0  0  0  0
  5  7  1  0  0  0  0
  5 12  1  0  0  0  0
  5 17  1  0  0  0  0
  7 18  1  0  0  0  0
  7 19  1  0  0  0  0
  7 20  1  0  0  0  0
  8 21  1  0  0  0  0
  8 22  1  0  0  0  0
  8 23  1  0  0  0  0
  9 10  2  0  0  0  0
  9 11  1  0  0  0  0
 10 13  1  0  0  0  0
 10 25  1  0  0  0  0
 11 14  2  0  0  0  0
 11 26  1  0  0  0  0
 12 16  3  0  0  0  0
 13 15  2  0  0  0  0
 13 27  1  0  0  0  0
 14 15  1  0  0  0  0
 14 28  1  0  0  0  0
 16 29  1  0  0  0  0
M  END
> <PUBCHEM_COMPOUND_CID>
19587

> <PUBCHEM_CONFORMER_RMSD>
0.6

> <PUBCHEM_CONFORMER_DIVERSEORDER>
7
58
56
2
43
70
78
12
71
14
76
10
67
73
17
37
65
52
9
80
21
64
57
26
20
29
6
39
46
61
74
28
25
53
27
82
48
3
40
23
59
77
41
18
34
60
63
1
22
33
31
19
72
45
11
68
36
30
47
62
15
50
75
51
54
49
24
79
69
44
38
42
16
81
32
8
35
5
13
66
4
55

> <PUBCHEM_MMFF94_PARTIAL_CHARGES>
21
1 -0.18
10 -0.15
11 -0.15
12 -0.2
13 -0.15
14 -0.15
15 0.18
16 -0.18
2 -0.57
24 0.37
25 0.15
26 0.15
27 0.15
28 0.15
29 0.18
3 -0.66
4 -0.55
5 0.5
6 0.69
8 0.3
9 0.12

> <PUBCHEM_EFFECTIVE_ROTOR_COUNT>
4

> <PUBCHEM_PHARMACOPHORE_FEATURES>
4
1 16 hydrophobe
1 2 acceptor
1 4 donor
6 9 10 11 13 14 15 rings

> <PUBCHEM_HEAVY_ATOM_COUNT>
16

> <PUBCHEM_ATOM_DEF_STEREO_COUNT>
0

> <PUBCHEM_ATOM_UDEF_STEREO_COUNT>
1

> <PUBCHEM_BOND_DEF_STEREO_COUNT>
0

> <PUBCHEM_BOND_UDEF_STEREO_COUNT>
0

> <PUBCHEM_ISOTOPIC_ATOM_COUNT>
0

> <PUBCHEM_COMPONENT_COUNT>
1

> <PUBCHEM_CACTVS_TAUTO_COUNT>
2

> <PUBCHEM_CONFORMER_ID>
00004C8300000007

> <PUBCHEM_MMFF94_ENERGY>
43.8711

> <PUBCHEM_FEATURE_SELFOVERLAP>
20.297

> <PUBCHEM_SHAPE_FINGERPRINT>
10366900 7 17458347433227100330
11471102 20 18410013226143092812
11796584 16 16988565731973621578
12236239 1 17603590724596210038
12251169 10 18333169457957787966
124424 183 18342458136552824029
12500047 106 17489590056647203059
12507557 5 18412825772085756201
12670546 56 17822013120533135488
13533116 47 17916879043960179179
13675066 3 18201438030363839241
13760787 5 18114175315969410641
14123238 8 6555408725761210581
14251718 22 5256400621725596558
14252887 29 18114173177587426150
15242439 84 18060140946445621189
15375358 24 18202283597887316259
17802600 8 18113622287148006000
17834072 33 18260834756513491422
17834076 25 14908181962463947253
18186145 218 10087635975009397528
18522853 276 18259423031070848640
19026448 4 17917709067975438049
19489759 90 17846785109344131989
200 152 18114187445173241437
20279233 1 17918270965387643203
20645477 70 18409452522078227151
21267235 1 18334848425140599190
22485316 2 17346882251538289898
23035841 295 12175623997207210904
23402539 116 17458349654009976701
23402655 69 18409168809354574100
23557571 272 17560526208664068372
23559900 14 18131354098289333936
26918003 58 18272370866834834763
29717793 49 17822008735466634364
300161 21 13326858807478594374
3268164 11 15068622716944072537
351380 180 18334017198312703845
3545911 37 18060420227052713685
42 15 18412258432955086360
4214541 1 18202846548077932453
5104073 3 18337107860931325442
542803 24 14549019887780629509
69090 78 17967536757018233759

> <PUBCHEM_SHAPE_MULTIPOLES>
315.31
12.06
1.38
0.99
1.35
0.15
0.2
-0.5
-0.39
0.25
0.13
-1.3
-0.1
0.49

> <PUBCHEM_SHAPE_SELFOVERLAP>
634.879

> <PUBCHEM_SHAPE_VOLUME>
185.7

> <PUBCHEM_COORDINATE_TYPE>
2
5
10

$$$$

