442858
  -OEChem-07051213002D

 28 30  0     0  0  0  0  0  0999 V2000
    3.8611    0.7076    0.0000 O   0  0  0  0  0  0  0  0  0  0  0  0
    4.6701   -3.8802    0.0000 O   0  0  0  0  0  0  0  0  0  0  0  0
    5.1701    1.6586    0.0000 N   0  0  0  0  0  0  0  0  0  0  0  0
    2.0000    3.1721    0.0000 N   0  0  0  0  0  0  0  0  0  0  0  0
    4.6701   -0.8802    0.0000 C   0  0  0  0  0  0  0  0  0  0  0  0
    4.6701    0.1198    0.0000 C   0  0  0  0  0  0  0  0  0  0  0  0
    4.1701    1.6586    0.0000 C   0  0  0  0  0  0  0  0  0  0  0  0
    3.5823    2.4676    0.0000 C   0  0  0  0  0  0  0  0  0  0  0  0
    3.8041   -1.3802    0.0000 C   0  0  0  0  0  0  0  0  0  0  0  0
    5.5361   -1.3802    0.0000 C   0  0  0  0  0  0  0  0  0  0  0  0
    5.4791    0.7076    0.0000 C   0  0  0  0  0  0  0  0  0  0  0  0
    3.8041   -2.3802    0.0000 C   0  0  0  0  0  0  0  0  0  0  0  0
    5.5361   -2.3802    0.0000 C   0  0  0  0  0  0  0  0  0  0  0  0
    4.6701   -2.8802    0.0000 C   0  0  0  0  0  0  0  0  0  0  0  0
    3.9890    3.3812    0.0000 C   0  0  0  0  0  0  0  0  0  0  0  0
    2.5878    2.3631    0.0000 C   0  0  0  0  0  0  0  0  0  0  0  0
    3.4013    4.1902    0.0000 C   0  0  0  0  0  0  0  0  0  0  0  0
    2.4067    4.0857    0.0000 C   0  0  0  0  0  0  0  0  0  0  0  0
    3.2671   -1.0702    0.0000 H   0  0  0  0  0  0  0  0  0  0  0  0
    6.0730   -1.0702    0.0000 H   0  0  0  0  0  0  0  0  0  0  0  0
    6.0688    0.5160    0.0000 H   0  0  0  0  0  0  0  0  0  0  0  0
    3.2671   -2.6902    0.0000 H   0  0  0  0  0  0  0  0  0  0  0  0
    6.0730   -2.6902    0.0000 H   0  0  0  0  0  0  0  0  0  0  0  0
    4.6056    3.4460    0.0000 H   0  0  0  0  0  0  0  0  0  0  0  0
    2.3356    1.7967    0.0000 H   0  0  0  0  0  0  0  0  0  0  0  0
    3.6534    4.7566    0.0000 H   0  0  0  0  0  0  0  0  0  0  0  0
    2.0423    4.5873    0.0000 H   0  0  0  0  0  0  0  0  0  0  0  0
    5.2070   -4.1902    0.0000 H   0  0  0  0  0  0  0  0  0  0  0  0
  1  6  1  0  0  0  0
  1  7  1  0  0  0  0
  2 14  1  0  0  0  0
  2 28  1  0  0  0  0
  3  7  2  0  0  0  0
  3 11  1  0  0  0  0
  4 16  1  0  0  0  0
  4 18  2  0  0  0  0
  5  6  1  0  0  0  0
  5  9  2  0  0  0  0
  5 10  1  0  0  0  0
  6 11  2  0  0  0  0
  7  8  1  0  0  0  0
  8 15  1  0  0  0  0
  8 16  2  0  0  0  0
  9 12  1  0  0  0  0
  9 19  1  0  0  0  0
 10 13  2  0  0  0  0
 10 20  1  0  0  0  0
 11 21  1  0  0  0  0
 12 14  2  0  0  0  0
 12 22  1  0  0  0  0
 13 14  1  0  0  0  0
 13 23  1  0  0  0  0
 15 17  2  0  0  0  0
 15 24  1  0  0  0  0
 16 25  1  0  0  0  0
 17 18  1  0  0  0  0
 17 26  1  0  0  0  0
 18 27  1  0  0  0  0
M  END
> <PUBCHEM_COMPOUND_CID>
442858

> <PUBCHEM_COMPOUND_CANONICALIZED>
1

> <PUBCHEM_CACTVS_COMPLEXITY>
267

> <PUBCHEM_CACTVS_HBOND_ACCEPTOR>
4

> <PUBCHEM_CACTVS_HBOND_DONOR>
1

> <PUBCHEM_CACTVS_ROTATABLE_BOND>
2

> <PUBCHEM_CACTVS_SUBSKEYS>
AAADccBzMAAAAAAAAAAAAAAAAAAAAWAAAAA8QAAAAAAAAAAB8AAAHgAACAAADATBmgQ8hpIIFkCoArF3VASCiCA/YiAI2CG/bNgOJvrC9buPeYjmxhHY+ceY/a7OIAAAAAAAAABAAAAAAAAAAAAAAAAAAA==

> <PUBCHEM_IUPAC_OPENEYE_NAME>
4-[2-(3-pyridyl)oxazol-5-yl]phenol

> <PUBCHEM_IUPAC_CAS_NAME>
4-[2-(3-pyridinyl)-5-oxazolyl]phenol

> <PUBCHEM_IUPAC_NAME>
4-(2-pyridin-3-yl-1,3-oxazol-5-yl)phenol

> <PUBCHEM_IUPAC_SYSTEMATIC_NAME>
4-(2-pyridin-3-yl-1,3-oxazol-5-yl)phenol

> <PUBCHEM_IUPAC_TRADITIONAL_NAME>
4-[2-(3-pyridyl)oxazol-5-yl]phenol

> <PUBCHEM_IUPAC_INCHI>
InChI=1S/C14H10N2O2/c17-12-5-3-10(4-6-12)13-9-16-14(18-13)11-2-1-7-15-8-11/h1-9,17H

> <PUBCHEM_IUPAC_INCHIKEY>
FUXBKWOAAPDDGE-UHFFFAOYSA-N

> <PUBCHEM_XLOGP3_AA>
2.2

> <PUBCHEM_EXACT_MASS>
238.074228

> <PUBCHEM_MOLECULAR_FORMULA>
C14H10N2O2

> <PUBCHEM_MOLECULAR_WEIGHT>
238.2414

> <PUBCHEM_OPENEYE_CAN_SMILES>
C1=CC(=CN=C1)C2=NC=C(O2)C3=CC=C(C=C3)O

> <PUBCHEM_OPENEYE_ISO_SMILES>
C1=CC(=CN=C1)C2=NC=C(O2)C3=CC=C(C=C3)O

> <PUBCHEM_CACTVS_TPSA>
59.2

> <PUBCHEM_MONOISOTOPIC_WEIGHT>
238.074228

> <PUBCHEM_TOTAL_CHARGE>
0

> <PUBCHEM_HEAVY_ATOM_COUNT>
18

> <PUBCHEM_ATOM_DEF_STEREO_COUNT>
0

> <PUBCHEM_ATOM_UDEF_STEREO_COUNT>
0

> <PUBCHEM_BOND_DEF_STEREO_COUNT>
0

> <PUBCHEM_BOND_UDEF_STEREO_COUNT>
0

> <PUBCHEM_ISOTOPIC_ATOM_COUNT>
0

> <PUBCHEM_COMPONENT_COUNT>
1

> <PUBCHEM_CACTVS_TAUTO_COUNT>
2

> <PUBCHEM_COORDINATE_TYPE>
1
5
255

> <PUBCHEM_BONDANNOTATIONS>
1  6  8
1  7  8
10  13  8
12  14  8
13  14  8
15  17  8
17  18  8
3  11  8
3  7  8
4  16  8
4  18  8
5  10  8
5  9  8
6  11  8
8  15  8
8  16  8
9  12  8

$$$$

