54691352
  -OEChem-07051213032D

 61 65  0     0  0  0  0  0  0999 V2000
   14.6260    2.0630    0.0000 O   0  0  0  0  0  0  0  0  0  0  0  0
    5.6011    0.1447    0.0000 O   0  0  0  0  0  0  0  0  0  0  0  0
   14.6260   -0.9370    0.0000 O   0  0  0  0  0  0  0  0  0  0  0  0
    6.8213   -2.5960    0.0000 O   0  0  0  0  0  0  0  0  0  0  0  0
   12.0279    1.5630    0.0000 O   0  0  0  0  0  0  0  0  0  0  0  0
    8.1779    0.7446    0.0000 O   0  0  0  0  0  0  0  0  0  0  0  0
   18.1561    2.0871    0.0000 O   0  0  0  0  0  0  0  0  0  0  0  0
    2.3664   -1.2691    0.0000 O   0  0  0  0  0  0  0  0  0  0  0  0
   12.8939    2.0630    0.0000 O   0  0  0  0  0  0  0  0  0  0  0  0
    7.1834    0.8492    0.0000 O   0  0  0  0  0  0  0  0  0  0  0  0
   11.0573   -0.9316    0.0000 N   0  0  0  0  0  0  0  0  0  0  0  0
   12.8939    0.0630    0.0000 N   0  0  0  0  0  0  0  0  0  0  0  0
    7.9969   -0.9779    0.0000 N   0  0  0  0  0  0  0  0  0  0  0  0
   10.2483    0.4697    0.0000 C   0  0  0  0  0  0  0  0  0  0  0  0
   11.1619    0.0630    0.0000 C   0  0  0  0  0  0  0  0  0  0  0  0
    9.5792   -0.2734    0.0000 C   0  0  0  0  0  0  0  0  0  0  0  0
   15.4920    0.5630    0.0000 C   0  0  0  0  0  0  0  0  0  0  0  0
    5.4201   -1.5779    0.0000 C   0  0  0  0  0  0  0  0  0  0  0  0
   15.4920    1.5630    0.0000 C   0  0  0  0  0  0  0  0  0  0  0  0
    5.0133   -0.6643    0.0000 C   0  0  0  0  0  0  0  0  0  0  0  0
   10.0792   -1.1395    0.0000 C   0  0  0  0  0  0  0  0  0  0  0  0
   13.7600    0.5630    0.0000 C   0  0  0  0  0  0  0  0  0  0  0  0
    7.0024   -0.8734    0.0000 C   0  0  0  0  0  0  0  0  0  0  0  0
   14.6260    0.0630    0.0000 C   0  0  0  0  0  0  0  0  0  0  0  0
    6.4146   -1.6824    0.0000 C   0  0  0  0  0  0  0  0  0  0  0  0
   12.0279    0.5630    0.0000 C   0  0  0  0  0  0  0  0  0  0  0  0
    8.5847   -0.1689    0.0000 C   0  0  0  0  0  0  0  0  0  0  0  0
   16.3859    2.0976    0.0000 C   0  0  0  0  0  0  0  0  0  0  0  0
    3.9792   -0.5395    0.0000 C   0  0  0  0  0  0  0  0  0  0  0  0
   10.0404    1.4478    0.0000 C   0  0  0  0  0  0  0  0  0  0  0  0
   16.3859    0.0283    0.0000 C   0  0  0  0  0  0  0  0  0  0  0  0
    4.8209   -2.4299    0.0000 C   0  0  0  0  0  0  0  0  0  0  0  0
   17.2920    1.5838    0.0000 C   0  0  0  0  0  0  0  0  0  0  0  0
    3.3605   -1.3775    0.0000 C   0  0  0  0  0  0  0  0  0  0  0  0
   13.7600    1.5630    0.0000 C   0  0  0  0  0  0  0  0  0  0  0  0
    6.5956    0.0401    0.0000 C   0  0  0  0  0  0  0  0  0  0  0  0
   17.2920    0.5421    0.0000 C   0  0  0  0  0  0  0  0  0  0  0  0
    3.7841   -2.3290    0.0000 C   0  0  0  0  0  0  0  0  0  0  0  0
   16.3744    3.0976    0.0000 C   0  0  0  0  0  0  0  0  0  0  0  0
    3.5831    0.3787    0.0000 C   0  0  0  0  0  0  0  0  0  0  0  0
   11.5181   -1.3464    0.0000 H   0  0  0  0  0  0  0  0  0  0  0  0
    9.8270   -1.7059    0.0000 H   0  0  0  0  0  0  0  0  0  0  0  0
   10.6469    1.5768    0.0000 H   0  0  0  0  0  0  0  0  0  0  0  0
    9.9115    2.0543    0.0000 H   0  0  0  0  0  0  0  0  0  0  0  0
    9.4340    1.3189    0.0000 H   0  0  0  0  0  0  0  0  0  0  0  0
   12.8939   -0.5570    0.0000 H   0  0  0  0  0  0  0  0  0  0  0  0
    8.2491   -1.5443    0.0000 H   0  0  0  0  0  0  0  0  0  0  0  0
   16.3788   -0.5917    0.0000 H   0  0  0  0  0  0  0  0  0  0  0  0
    5.0796   -2.9934    0.0000 H   0  0  0  0  0  0  0  0  0  0  0  0
   17.8277    0.2301    0.0000 H   0  0  0  0  0  0  0  0  0  0  0  0
    3.4216   -2.8320    0.0000 H   0  0  0  0  0  0  0  0  0  0  0  0
   16.9943    3.1047    0.0000 H   0  0  0  0  0  0  0  0  0  0  0  0
   16.3672    3.7175    0.0000 H   0  0  0  0  0  0  0  0  0  0  0  0
   15.7544    3.0904    0.0000 H   0  0  0  0  0  0  0  0  0  0  0  0
    4.1523    0.6243    0.0000 H   0  0  0  0  0  0  0  0  0  0  0  0
    3.3374    0.9480    0.0000 H   0  0  0  0  0  0  0  0  0  0  0  0
    3.0138    0.1331    0.0000 H   0  0  0  0  0  0  0  0  0  0  0  0
   15.1629   -1.2470    0.0000 H   0  0  0  0  0  0  0  0  0  0  0  0
    6.4569   -3.0976    0.0000 H   0  0  0  0  0  0  0  0  0  0  0  0
   18.6942    1.7792    0.0000 H   0  0  0  0  0  0  0  0  0  0  0  0
    2.0000   -1.7693    0.0000 H   0  0  0  0  0  0  0  0  0  0  0  0
  1 19  1  0  0  0  0
  1 35  1  0  0  0  0
  2 20  1  0  0  0  0
  2 36  1  0  0  0  0
  3 24  1  0  0  0  0
  3 58  1  0  0  0  0
  4 25  1  0  0  0  0
  4 59  1  0  0  0  0
  5 26  2  0  0  0  0
  6 27  2  0  0  0  0
  7 33  1  0  0  0  0
  7 60  1  0  0  0  0
  8 34  1  0  0  0  0
  8 61  1  0  0  0  0
  9 35  2  0  0  0  0
 10 36  2  0  0  0  0
 11 15  1  0  0  0  0
 11 21  1  0  0  0  0
 11 41  1  0  0  0  0
 12 22  1  0  0  0  0
 12 26  1  0  0  0  0
 12 46  1  0  0  0  0
 13 23  1  0  0  0  0
 13 27  1  0  0  0  0
 13 47  1  0  0  0  0
 14 15  2  0  0  0  0
 14 16  1  0  0  0  0
 14 30  1  0  0  0  0
 15 26  1  0  0  0  0
 16 21  2  0  0  0  0
 16 27  1  0  0  0  0
 17 19  2  0  0  0  0
 17 24  1  0  0  0  0
 17 31  1  0  0  0  0
 18 20  2  0  0  0  0
 18 25  1  0  0  0  0
 18 32  1  0  0  0  0
 19 28  1  0  0  0  0
 20 29  1  0  0  0  0
 21 42  1  0  0  0  0
 22 24  2  0  0  0  0
 22 35  1  0  0  0  0
 23 25  2  0  0  0  0
 23 36  1  0  0  0  0
 28 33  2  0  0  0  0
 28 39  1  0  0  0  0
 29 34  2  0  0  0  0
 29 40  1  0  0  0  0
 30 43  1  0  0  0  0
 30 44  1  0  0  0  0
 30 45  1  0  0  0  0
 31 37  2  0  0  0  0
 31 48  1  0  0  0  0
 32 38  2  0  0  0  0
 32 49  1  0  0  0  0
 33 37  1  0  0  0  0
 34 38  1  0  0  0  0
 37 50  1  0  0  0  0
 38 51  1  0  0  0  0
 39 52  1  0  0  0  0
 39 53  1  0  0  0  0
 39 54  1  0  0  0  0
 40 55  1  0  0  0  0
 40 56  1  0  0  0  0
 40 57  1  0  0  0  0
M  END
> <PUBCHEM_COMPOUND_CID>
54691352

> <PUBCHEM_COMPOUND_CANONICALIZED>
1

> <PUBCHEM_CACTVS_COMPLEXITY>
1170

> <PUBCHEM_CACTVS_HBOND_ACCEPTOR>
10

> <PUBCHEM_CACTVS_HBOND_DONOR>
7

> <PUBCHEM_CACTVS_ROTATABLE_BOND>
4

> <PUBCHEM_CACTVS_SUBSKEYS>
AAADceB7PAAAAAAAAAAAAAAAAAAAAWAAAAAwYIEAAAAAAACB0AAAHgAQCAAADAzBngQ+jpLJlgCoAzX3XACCiCA3ICAI2aGuTNgOZ3rG9LuXe6jlxBXY+cec42wOoAACCAAIAABAAAQQABAAAAAAAAAAAA==

> <PUBCHEM_IUPAC_OPENEYE_NAME>
N2,N4-bis(4,7-dihydroxy-8-methyl-2-oxo-chromen-3-yl)-3-methyl-1H-pyrrole-2,4-dicarboxamide

> <PUBCHEM_IUPAC_CAS_NAME>
N2,N4-bis(4,7-dihydroxy-8-methyl-2-oxo-1-benzopyran-3-yl)-3-methyl-1H-pyrrole-2,4-dicarboxamide

> <PUBCHEM_IUPAC_NAME>
2-N,4-N-bis(4,7-dihydroxy-8-methyl-2-oxochromen-3-yl)-3-methyl-1H-pyrrole-2,4-dicarboxamide

> <PUBCHEM_IUPAC_SYSTEMATIC_NAME>
3-methyl-N2,N4-bis[8-methyl-4,7-bis(oxidanyl)-2-oxidanylidene-chromen-3-yl]-1H-pyrrole-2,4-dicarboxamide

> <PUBCHEM_IUPAC_TRADITIONAL_NAME>
N,N'-bis(4,7-dihydroxy-2-keto-8-methyl-chromen-3-yl)-3-methyl-1H-pyrrole-2,4-dicarboxamide

> <PUBCHEM_IUPAC_INCHI>
InChI=1S/C27H21N3O10/c1-9-14(24(35)29-18-20(33)12-4-6-15(31)10(2)22(12)39-26(18)37)8-28-17(9)25(36)30-19-21(34)13-5-7-16(32)11(3)23(13)40-27(19)38/h4-8,28,31-34H,1-3H3,(H,29,35)(H,30,36)

> <PUBCHEM_IUPAC_INCHIKEY>
KUACUXAJPDYURP-UHFFFAOYSA-N

> <PUBCHEM_XLOGP3_AA>
2.2

> <PUBCHEM_EXACT_MASS>
547.122694

> <PUBCHEM_MOLECULAR_FORMULA>
C27H21N3O10

> <PUBCHEM_MOLECULAR_WEIGHT>
547.46974

> <PUBCHEM_OPENEYE_CAN_SMILES>
CC1=C(C=CC2=C1OC(=O)C(=C2O)NC(=O)C3=CNC(=C3C)C(=O)NC4=C(C5=C(C(=C(C=C5)O)C)OC4=O)O)O

> <PUBCHEM_OPENEYE_ISO_SMILES>
CC1=C(C=CC2=C1OC(=O)C(=C2O)NC(=O)C3=CNC(=C3C)C(=O)NC4=C(C5=C(C(=C(C=C5)O)C)OC4=O)O)O

> <PUBCHEM_CACTVS_TPSA>
208

> <PUBCHEM_MONOISOTOPIC_WEIGHT>
547.122694

> <PUBCHEM_TOTAL_CHARGE>
0

> <PUBCHEM_HEAVY_ATOM_COUNT>
40

> <PUBCHEM_ATOM_DEF_STEREO_COUNT>
0

> <PUBCHEM_ATOM_UDEF_STEREO_COUNT>
0

> <PUBCHEM_BOND_DEF_STEREO_COUNT>
0

> <PUBCHEM_BOND_UDEF_STEREO_COUNT>
0

> <PUBCHEM_ISOTOPIC_ATOM_COUNT>
0

> <PUBCHEM_COMPONENT_COUNT>
1

> <PUBCHEM_CACTVS_TAUTO_COUNT>
998

> <PUBCHEM_COORDINATE_TYPE>
1
5
255

> <PUBCHEM_BONDANNOTATIONS>
1  19  8
1  35  8
11  15  8
11  21  8
14  15  8
14  16  8
16  21  8
17  19  8
17  24  8
17  31  8
18  20  8
18  25  8
18  32  8
19  28  8
2  20  8
2  36  8
20  29  8
22  24  8
22  35  8
23  25  8
23  36  8
28  33  8
29  34  8
31  37  8
32  38  8
33  37  8
34  38  8

$$$$

