54691344
  -OEChem-07051213033D

 21 22  0     0  0  0  0  0  0999 V2000
    2.2295   -2.4482    0.0387 Cl  0  0  0  0  0  0  0  0  0  0  0  0
   -0.5271   -1.4806    0.0256 O   0  0  0  0  0  0  0  0  0  0  0  0
   -1.8146    2.4933    0.0421 O   0  0  0  0  0  0  0  0  0  0  0  0
    4.0517   -0.0828   -0.0168 O   0  0  0  0  0  0  0  0  0  0  0  0
   -2.6862   -2.1968   -0.0529 O   0  0  0  0  0  0  0  0  0  0  0  0
   -3.7127    0.3116   -0.0068 N   0  0  0  0  0  0  0  0  0  0  0  0
   -0.0168    0.9024    0.0100 C   0  0  0  0  0  0  0  0  0  0  0  0
    0.4050   -0.4259    0.0227 C   0  0  0  0  0  0  0  0  0  0  0  0
   -1.4611    1.1601    0.0204 C   0  0  0  0  0  0  0  0  0  0  0  0
    0.9744    1.8927   -0.0307 C   0  0  0  0  0  0  0  0  0  0  0  0
   -2.3535    0.1561   -0.0036 C   0  0  0  0  0  0  0  0  0  0  0  0
    1.7542   -0.7855    0.0172 C   0  0  0  0  0  0  0  0  0  0  0  0
    2.7214    0.2123   -0.0106 C   0  0  0  0  0  0  0  0  0  0  0  0
    2.3321    1.5496   -0.0378 C   0  0  0  0  0  0  0  0  0  0  0  0
   -1.8962   -1.2582   -0.0176 C   0  0  0  0  0  0  0  0  0  0  0  0
    0.7080    2.9469   -0.0523 H   0  0  0  0  0  0  0  0  0  0  0  0
    3.0741    2.3437   -0.0645 H   0  0  0  0  0  0  0  0  0  0  0  0
   -4.1327    1.2311    0.0048 H   0  0  0  0  0  0  0  0  0  0  0  0
   -4.3092   -0.5067   -0.0213 H   0  0  0  0  0  0  0  0  0  0  0  0
   -2.7833    2.5588    0.0451 H   0  0  0  0  0  0  0  0  0  0  0  0
    4.5628    0.7444   -0.0382 H   0  0  0  0  0  0  0  0  0  0  0  0
  1 12  1  0  0  0  0
  2  8  1  0  0  0  0
  2 15  1  0  0  0  0
  3  9  1  0  0  0  0
  3 20  1  0  0  0  0
  4 13  1  0  0  0  0
  4 21  1  0  0  0  0
  5 15  2  0  0  0  0
  6 11  1  0  0  0  0
  6 18  1  0  0  0  0
  6 19  1  0  0  0  0
  7  8  2  0  0  0  0
  7  9  1  0  0  0  0
  7 10  1  0  0  0  0
  8 12  1  0  0  0  0
  9 11  2  0  0  0  0
 10 14  2  0  0  0  0
 10 16  1  0  0  0  0
 11 15  1  0  0  0  0
 12 13  2  0  0  0  0
 13 14  1  0  0  0  0
 14 17  1  0  0  0  0
M  END
> <PUBCHEM_COMPOUND_CID>
54691344

> <PUBCHEM_CONFORMER_RMSD>
0.4

> <PUBCHEM_CONFORMER_DIVERSEORDER>
1

> <PUBCHEM_MMFF94_PARTIAL_CHARGES>
21
1 -0.18
10 -0.15
11 0.11
12 0.18
13 0.08
14 -0.15
15 0.71
16 0.15
17 0.15
18 0.4
19 0.4
2 -0.23
20 0.45
21 0.45
3 -0.53
4 -0.53
5 -0.57
6 -0.9
7 0.03
8 0.08
9 0.05

> <PUBCHEM_EFFECTIVE_ROTOR_COUNT>
0

> <PUBCHEM_PHARMACOPHORE_FEATURES>
7
1 3 donor
1 4 donor
1 5 acceptor
1 6 cation
1 6 donor
6 2 7 8 9 11 15 rings
6 7 8 10 12 13 14 rings

> <PUBCHEM_HEAVY_ATOM_COUNT>
15

> <PUBCHEM_ATOM_DEF_STEREO_COUNT>
0

> <PUBCHEM_ATOM_UDEF_STEREO_COUNT>
0

> <PUBCHEM_BOND_DEF_STEREO_COUNT>
0

> <PUBCHEM_BOND_UDEF_STEREO_COUNT>
0

> <PUBCHEM_ISOTOPIC_ATOM_COUNT>
0

> <PUBCHEM_COMPONENT_COUNT>
1

> <PUBCHEM_CACTVS_TAUTO_COUNT>
23

> <PUBCHEM_CONFORMER_ID>
0342861000000001

> <PUBCHEM_MMFF94_ENERGY>
48.1313

> <PUBCHEM_FEATURE_SELFOVERLAP>
35.548

> <PUBCHEM_SHAPE_FINGERPRINT>
10608611 8 18409733945478328680
10967382 1 18410574023811438051
11132069 177 18410299077438381016
11471102 20 18411142402735507421
13140716 1 18266176128119186209
13221675 6 18411134740418879674
13380535 76 18410857663451997186
13897977 150 18410296869856774269
14144814 61 18338516446995616472
14325111 11 18338797788833855884
14790565 3 14237130865464561251
15196674 1 18338797801676286924
15442244 35 18266460004177923738
16945 1 18410575089000406632
193761 8 18338797934809717090
19591789 44 15884602520386175238
20201158 50 18410857659220164534
21267235 1 18338789031601443063
21501502 16 18339078177152049244
2334 1 17978509728402176865
23402539 116 18334023800067815317
23463225 33 18413390955880879906
23552423 10 18342174410469846934
23559900 14 18334861645514237888
2748010 2 18051130590221229605
3312278 4 18410571760374281131
528886 8 18410016515597405202
53812653 166 18334581230798233672
7364860 26 18334859450358662170
8809292 202 18272084955215234994

> <PUBCHEM_SHAPE_MULTIPOLES>
282.1
5.22
2.53
0.59
0.13
0.36
0
0.64
0.04
-0.07
0
0.04
0
-0.06

> <PUBCHEM_SHAPE_SELFOVERLAP>
611.197

> <PUBCHEM_SHAPE_VOLUME>
154.4

> <PUBCHEM_COORDINATE_TYPE>
2
5
10

$$$$

