5282118
  -OEChem-07051213033D

 33 36  0     0  0  0  0  0  0999 V2000
   -1.1783    3.0302   -0.0011 O   0  0  0  0  0  0  0  0  0  0  0  0
   -2.2155   -2.7622    0.0008 O   0  0  0  0  0  0  0  0  0  0  0  0
    0.3671   -2.5969    0.0021 O   0  0  0  0  0  0  0  0  0  0  0  0
    1.7759    2.5874    0.0003 O   0  0  0  0  0  0  0  0  0  0  0  0
    4.2985    1.9462    0.0004 O   0  0  0  0  0  0  0  0  0  0  0  0
   -0.2983   -0.3143    0.0031 C   0  0  0  0  0  0  0  0  0  0  0  0
   -1.7519   -0.3919    0.0027 C   0  0  0  0  0  0  0  0  0  0  0  0
    0.0854    0.9693    0.0028 C   0  0  0  0  0  0  0  0  0  0  0  0
   -2.2637    0.9032    0.0017 C   0  0  0  0  0  0  0  0  0  0  0  0
   -1.1278    1.8186    0.0017 C   0  0  0  0  0  0  0  0  0  0  0  0
    0.6813   -1.4153    0.0016 C   0  0  0  0  0  0  0  0  0  0  0  0
    2.1138   -1.0296    0.0004 C   0  0  0  0  0  0  0  0  0  0  0  0
    2.5008    0.3181    0.0005 C   0  0  0  0  0  0  0  0  0  0  0  0
    1.4889    1.3981    0.0017 C   0  0  0  0  0  0  0  0  0  0  0  0
   -2.6224   -1.4682    0.0016 C   0  0  0  0  0  0  0  0  0  0  0  0
   -3.6154    1.1890   -0.0007 C   0  0  0  0  0  0  0  0  0  0  0  0
   -4.4916    0.1047   -0.0017 C   0  0  0  0  0  0  0  0  0  0  0  0
   -3.9997   -1.2126   -0.0001 C   0  0  0  0  0  0  0  0  0  0  0  0
    3.8589    0.6558   -0.0015 C   0  0  0  0  0  0  0  0  0  0  0  0
    3.0901   -2.0328   -0.0016 C   0  0  0  0  0  0  0  0  0  0  0  0
    4.8260   -0.3497   -0.0039 C   0  0  0  0  0  0  0  0  0  0  0  0
    4.4428   -1.6899   -0.0038 C   0  0  0  0  0  0  0  0  0  0  0  0
   -5.9647    0.3429   -0.0072 C   0  0  0  0  0  0  0  0  0  0  0  0
   -3.9738    2.2122   -0.0007 H   0  0  0  0  0  0  0  0  0  0  0  0
   -4.6975   -2.0480    0.0002 H   0  0  0  0  0  0  0  0  0  0  0  0
    2.8206   -3.0855   -0.0017 H   0  0  0  0  0  0  0  0  0  0  0  0
    5.8829   -0.0959   -0.0052 H   0  0  0  0  0  0  0  0  0  0  0  0
    5.1991   -2.4696   -0.0055 H   0  0  0  0  0  0  0  0  0  0  0  0
   -6.3573    0.2892    1.0131 H   0  0  0  0  0  0  0  0  0  0  0  0
   -6.2088    1.3265   -0.4226 H   0  0  0  0  0  0  0  0  0  0  0  0
   -6.4786   -0.4021   -0.6239 H   0  0  0  0  0  0  0  0  0  0  0  0
   -1.3205   -2.8135   -0.3658 H   0  0  0  0  0  0  0  0  0  0  0  0
    3.5520    2.5639    0.0065 H   0  0  0  0  0  0  0  0  0  0  0  0
  1 10  2  0  0  0  0
  2 15  1  0  0  0  0
  2 32  1  0  0  0  0
  3 11  2  0  0  0  0
  4 14  2  0  0  0  0
  5 19  1  0  0  0  0
  5 33  1  0  0  0  0
  6  7  1  0  0  0  0
  6  8  2  0  0  0  0
  6 11  1  0  0  0  0
  7  9  2  0  0  0  0
  7 15  1  0  0  0  0
  8 10  1  0  0  0  0
  8 14  1  0  0  0  0
  9 10  1  0  0  0  0
  9 16  1  0  0  0  0
 11 12  1  0  0  0  0
 12 13  2  0  0  0  0
 12 20  1  0  0  0  0
 13 14  1  0  0  0  0
 13 19  1  0  0  0  0
 15 18  2  0  0  0  0
 16 17  2  0  0  0  0
 16 24  1  0  0  0  0
 17 18  1  0  0  0  0
 17 23  1  0  0  0  0
 18 25  1  0  0  0  0
 19 21  2  0  0  0  0
 20 22  2  0  0  0  0
 20 26  1  0  0  0  0
 21 22  1  0  0  0  0
 21 27  1  0  0  0  0
 22 28  1  0  0  0  0
 23 29  1  0  0  0  0
 23 30  1  0  0  0  0
 23 31  1  0  0  0  0
M  END
> <PUBCHEM_COMPOUND_CID>
5282118

> <PUBCHEM_CONFORMER_RMSD>
0.6

> <PUBCHEM_CONFORMER_DIVERSEORDER>
1

> <PUBCHEM_MMFF94_PARTIAL_CHARGES>
30
1 -0.57
10 0.47
11 0.47
12 0.09
13 0.09
14 0.47
15 0.08
16 -0.15
17 -0.14
18 -0.15
19 0.08
2 -0.53
20 -0.15
21 -0.15
22 -0.15
23 0.14
24 0.15
25 0.15
26 0.15
27 0.15
28 0.15
3 -0.57
32 0.45
33 0.45
4 -0.57
5 -0.53
6 -0.01
7 0.03
8 0.03
9 0.09

> <PUBCHEM_EFFECTIVE_ROTOR_COUNT>
0

> <PUBCHEM_PHARMACOPHORE_FEATURES>
10
1 1 acceptor
1 2 donor
1 3 acceptor
1 4 acceptor
1 5 donor
1 8 anion
5 6 7 8 9 10 rings
6 12 13 19 20 21 22 rings
6 6 8 11 12 13 14 rings
6 7 9 15 16 17 18 rings

> <PUBCHEM_HEAVY_ATOM_COUNT>
23

> <PUBCHEM_ATOM_DEF_STEREO_COUNT>
0

> <PUBCHEM_ATOM_UDEF_STEREO_COUNT>
0

> <PUBCHEM_BOND_DEF_STEREO_COUNT>
0

> <PUBCHEM_BOND_UDEF_STEREO_COUNT>
0

> <PUBCHEM_ISOTOPIC_ATOM_COUNT>
0

> <PUBCHEM_COMPONENT_COUNT>
1

> <PUBCHEM_CACTVS_TAUTO_COUNT>
87

> <PUBCHEM_CONFORMER_ID>
0050994600000001

> <PUBCHEM_MMFF94_ENERGY>
74.2824

> <PUBCHEM_FEATURE_SELFOVERLAP>
50.917

> <PUBCHEM_SHAPE_FINGERPRINT>
10411042 1 18050286165998661286
10616163 171 18265330616652336639
10906281 52 18263906856916474199
10967382 1 18410575076078425570
1100329 8 18411419475386797803
11578080 2 16952269611499678266
12011746 2 18410572920004979727
12107183 9 17688024631864268105
12236239 1 17894631453096270957
12403259 226 18267871756039547868
12553582 1 18338811086010133447
12788726 201 17749377204843784977
12838862 33 18338818765401401513
13140716 1 18410571743468783715
138480 1 14663579537709386976
13862211 1 18410579517291244751
14341114 176 18410848863316897083
14790565 3 18337946904726916313
15196674 1 18410856538302356483
15536298 74 18407760334917077866
16945 1 18338799034484972617
17492 89 18267305524288540018
1813 80 17346598568916883869
19141452 34 18334295353670136943
19591789 44 18266740379637764226
200 152 18114186349956515849
20028762 73 18187653517459096567
20510252 161 18189617318313938665
21267235 1 18338227262531796142
21279426 13 18195247939024344829
21421861 104 18058456571799082978
21792934 111 18338247075790965529
221490 88 18269267976296746242
2334 1 18194401095916692519
23402539 116 18261399957636333375
23559900 14 18336550430543933992
2748010 2 18338519612586980029
2871803 45 18341896332923128078
3004659 81 18272651272939681998
335352 9 18410574019595774359
34934 24 18410296869709172107
350125 39 18411136965797579404
3545911 37 18411135835603794204
3680242 22 18270119161484446498
4214541 1 18338516446974731649
474 4 17632286836168567140
5104073 3 18410573989499212387
5283173 99 18129673040011877005
8809292 202 18343579638091649251
9709674 26 18411695457052980866

> <PUBCHEM_SHAPE_MULTIPOLES>
443.98
9.97
2.79
0.6
2.69
0.22
0
-0.82
0.02
-0.64
0
0.01
-0.01
0

> <PUBCHEM_SHAPE_SELFOVERLAP>
1026.331

> <PUBCHEM_SHAPE_VOLUME>
227.8

> <PUBCHEM_COORDINATE_TYPE>
2
5
10

$$$$

