2769
  -OEChem-07051212523D

 61 63  0     1  0  0  0  0  0999 V2000
   -7.5152    2.3148   -1.0986 Cl  0  0  0  0  0  0  0  0  0  0  0  0
    8.8673   -1.6697   -1.2843 F   0  0  0  0  0  0  0  0  0  0  0  0
   -0.1985   -2.1131    0.5625 O   0  0  0  0  0  0  0  0  0  0  0  0
    5.2254    1.4962    1.3544 O   0  0  0  0  0  0  0  0  0  0  0  0
   -3.2634   -0.8943   -2.5156 O   0  0  0  0  0  0  0  0  0  0  0  0
   -3.9520   -1.8301    1.0681 O   0  0  0  0  0  0  0  0  0  0  0  0
    1.1912    1.2861    0.0473 N   0  0  1  0  0  0  0  0  0  0  0  0
   -2.0194   -0.3146   -0.6468 N   0  0  0  0  0  0  0  0  0  0  0  0
   -7.9989    0.7112    1.4421 N   0  0  0  0  0  0  0  0  0  0  0  0
   -0.7171   -0.5519   -1.2327 C   0  0  2  0  0  0  0  0  0  0  0  0
    0.3032   -1.0084   -0.1821 C   0  0  1  0  0  0  0  0  0  0  0  0
   -0.1976    0.7084   -1.9287 C   0  0  0  0  0  0  0  0  0  0  0  0
    0.6761    0.1231    0.7806 C   0  0  0  0  0  0  0  0  0  0  0  0
    0.2076    1.7915   -0.9207 C   0  0  0  0  0  0  0  0  0  0  0  0
    1.5873    2.3441    0.9760 C   0  0  0  0  0  0  0  0  0  0  0  0
    2.9002    1.9818    1.6626 C   0  0  0  0  0  0  0  0  0  0  0  0
   -3.1962   -0.5099   -1.3511 C   0  0  0  0  0  0  0  0  0  0  0  0
    4.0306    1.8175    0.6556 C   0  0  0  0  0  0  0  0  0  0  0  0
   -0.1302   -3.3185   -0.1860 C   0  0  0  0  0  0  0  0  0  0  0  0
   -4.4490   -0.1964   -0.6167 C   0  0  0  0  0  0  0  0  0  0  0  0
   -4.7743   -0.8685    0.5617 C   0  0  0  0  0  0  0  0  0  0  0  0
   -5.3046    0.7840   -1.1195 C   0  0  0  0  0  0  0  0  0  0  0  0
    6.1335    0.7075    0.6970 C   0  0  0  0  0  0  0  0  0  0  0  0
   -5.9551   -0.5603    1.2372 C   0  0  0  0  0  0  0  0  0  0  0  0
   -6.4852    1.0924   -0.4434 C   0  0  0  0  0  0  0  0  0  0  0  0
   -6.8105    0.4202    0.7348 C   0  0  0  0  0  0  0  0  0  0  0  0
    6.2247    0.7607   -0.6940 C   0  0  0  0  0  0  0  0  0  0  0  0
    6.9655   -0.1486    1.4186 C   0  0  0  0  0  0  0  0  0  0  0  0
   -4.3646   -2.4642    2.2769 C   0  0  0  0  0  0  0  0  0  0  0  0
    7.1488   -0.0420   -1.3632 C   0  0  0  0  0  0  0  0  0  0  0  0
    7.8892   -0.9513    0.7493 C   0  0  0  0  0  0  0  0  0  0  0  0
    7.9811   -0.8979   -0.6416 C   0  0  0  0  0  0  0  0  0  0  0  0
   -0.8401   -1.3299   -1.9944 H   0  0  0  0  0  0  0  0  0  0  0  0
    1.2289   -1.3122   -0.6931 H   0  0  0  0  0  0  0  0  0  0  0  0
   -0.9542    1.1137   -2.6112 H   0  0  0  0  0  0  0  0  0  0  0  0
    0.6754    0.4473   -2.5413 H   0  0  0  0  0  0  0  0  0  0  0  0
   -0.1832    0.3902    1.4101 H   0  0  0  0  0  0  0  0  0  0  0  0
    1.4288   -0.2813    1.4665 H   0  0  0  0  0  0  0  0  0  0  0  0
   -0.6835    2.1747   -0.4065 H   0  0  0  0  0  0  0  0  0  0  0  0
    0.6394    2.6274   -1.4847 H   0  0  0  0  0  0  0  0  0  0  0  0
    1.7458    3.2861    0.4345 H   0  0  0  0  0  0  0  0  0  0  0  0
    0.8077    2.5409    1.7227 H   0  0  0  0  0  0  0  0  0  0  0  0
   -2.0683    0.0579    0.2969 H   0  0  0  0  0  0  0  0  0  0  0  0
    3.1677    2.7863    2.3602 H   0  0  0  0  0  0  0  0  0  0  0  0
    2.8170    1.0879    2.2903 H   0  0  0  0  0  0  0  0  0  0  0  0
    3.7590    1.0176   -0.0437 H   0  0  0  0  0  0  0  0  0  0  0  0
    4.1826    2.7499    0.0995 H   0  0  0  0  0  0  0  0  0  0  0  0
   -0.8227   -3.3039   -1.0314 H   0  0  0  0  0  0  0  0  0  0  0  0
   -0.4285   -4.1392    0.4729 H   0  0  0  0  0  0  0  0  0  0  0  0
    0.8904   -3.5143   -0.5296 H   0  0  0  0  0  0  0  0  0  0  0  0
   -5.0465    1.3077   -2.0374 H   0  0  0  0  0  0  0  0  0  0  0  0
   -6.2609   -1.0485    2.1568 H   0  0  0  0  0  0  0  0  0  0  0  0
    5.6172    1.4341   -1.2912 H   0  0  0  0  0  0  0  0  0  0  0  0
    6.8982   -0.1945    2.5021 H   0  0  0  0  0  0  0  0  0  0  0  0
   -8.6306    1.4185    1.0905 H   0  0  0  0  0  0  0  0  0  0  0  0
   -8.2203    0.2134    2.2941 H   0  0  0  0  0  0  0  0  0  0  0  0
   -3.5932   -3.1980    2.5332 H   0  0  0  0  0  0  0  0  0  0  0  0
   -5.2984   -3.0210    2.1437 H   0  0  0  0  0  0  0  0  0  0  0  0
   -4.4141   -1.7544    3.1097 H   0  0  0  0  0  0  0  0  0  0  0  0
    7.2253    0.0034   -2.4456 H   0  0  0  0  0  0  0  0  0  0  0  0
    8.5368   -1.6182    1.3106 H   0  0  0  0  0  0  0  0  0  0  0  0
  1 25  1  0  0  0  0
  2 32  1  0  0  0  0
  3 11  1  0  0  0  0
  3 19  1  0  0  0  0
  4 18  1  0  0  0  0
  4 23  1  0  0  0  0
  5 17  2  0  0  0  0
  6 21  1  0  0  0  0
  6 29  1  0  0  0  0
  7 13  1  0  0  0  0
  7 14  1  0  0  0  0
  7 15  1  0  0  0  0
  8 10  1  0  0  0  0
  8 17  1  0  0  0  0
  8 43  1  0  0  0  0
  9 26  1  0  0  0  0
  9 55  1  0  0  0  0
  9 56  1  0  0  0  0
 10 11  1  0  0  0  0
 10 12  1  0  0  0  0
 10 33  1  0  0  0  0
 11 13  1  0  0  0  0
 11 34  1  0  0  0  0
 12 14  1  0  0  0  0
 12 35  1  0  0  0  0
 12 36  1  0  0  0  0
 13 37  1  0  0  0  0
 13 38  1  0  0  0  0
 14 39  1  0  0  0  0
 14 40  1  0  0  0  0
 15 16  1  0  0  0  0
 15 41  1  0  0  0  0
 15 42  1  0  0  0  0
 16 18  1  0  0  0  0
 16 44  1  0  0  0  0
 16 45  1  0  0  0  0
 17 20  1  0  0  0  0
 18 46  1  0  0  0  0
 18 47  1  0  0  0  0
 19 48  1  0  0  0  0
 19 49  1  0  0  0  0
 19 50  1  0  0  0  0
 20 21  1  0  0  0  0
 20 22  2  0  0  0  0
 21 24  2  0  0  0  0
 22 25  1  0  0  0  0
 22 51  1  0  0  0  0
 23 27  2  0  0  0  0
 23 28  1  0  0  0  0
 24 26  1  0  0  0  0
 24 52  1  0  0  0  0
 25 26  2  0  0  0  0
 27 30  1  0  0  0  0
 27 53  1  0  0  0  0
 28 31  2  0  0  0  0
 28 54  1  0  0  0  0
 29 57  1  0  0  0  0
 29 58  1  0  0  0  0
 29 59  1  0  0  0  0
 30 32  2  0  0  0  0
 30 60  1  0  0  0  0
 31 32  1  0  0  0  0
 31 61  1  0  0  0  0
M  END
> <PUBCHEM_COMPOUND_CID>
2769

> <PUBCHEM_CONFORMER_RMSD>
1.4

> <PUBCHEM_CONFORMER_DIVERSEORDER>
5
42
28
49
136
21
74
22
105
163
58
51
117
101
97
44
54
38
93
41
64
8
23
45
141
134
77
68
47
96
79
148
40
46
24
32
135
75
151
145
150
142
164
103
57
56
78
2
12
60
132
18
67
137
6
153
121
85
113
73
112
152
84
94
155
3
118
16
110
120
87
140
33
86
76
37
50
25
80
92
34
149
156
154
29
127
88
69
66
139
143
138
131
133
122
35
83
161
19
11
102
43
157
99
116
53
144
90
72
82
89
130
71
107
146
109
14
159
30
162
59
48
52
126
10
111
115
81
119
31
26
65
13
1
91
106
98
70
158
123
20
39
125
62
36
108
160
55
4
129
17
9
128
15
100
114
124
147
27
104
61
7
63
95

> <PUBCHEM_MMFF94_PARTIAL_CHARGES>
39
1 -0.18
10 0.3
11 0.28
13 0.27
14 0.27
15 0.27
17 0.54
18 0.28
19 0.28
2 -0.19
20 0.09
21 0.08
22 -0.15
23 0.08
24 -0.15
25 0.18
26 0.1
27 -0.15
28 -0.15
29 0.28
3 -0.56
30 -0.15
31 -0.15
32 0.19
4 -0.36
43 0.37
5 -0.57
51 0.15
52 0.15
53 0.15
54 0.15
55 0.4
56 0.4
6 -0.36
60 0.15
61 0.15
7 -0.81
8 -0.73
9 -0.9

> <PUBCHEM_EFFECTIVE_ROTOR_COUNT>
11.2

> <PUBCHEM_PHARMACOPHORE_FEATURES>
11
1 3 acceptor
1 4 acceptor
1 5 acceptor
1 6 acceptor
1 7 cation
1 8 donor
1 9 cation
1 9 donor
6 20 21 22 24 25 26 rings
6 23 27 28 30 31 32 rings
6 7 10 11 12 13 14 rings

> <PUBCHEM_HEAVY_ATOM_COUNT>
32

> <PUBCHEM_ATOM_DEF_STEREO_COUNT>
0

> <PUBCHEM_ATOM_UDEF_STEREO_COUNT>
2

> <PUBCHEM_BOND_DEF_STEREO_COUNT>
0

> <PUBCHEM_BOND_UDEF_STEREO_COUNT>
0

> <PUBCHEM_ISOTOPIC_ATOM_COUNT>
0

> <PUBCHEM_COMPONENT_COUNT>
1

> <PUBCHEM_CACTVS_TAUTO_COUNT>
3

> <PUBCHEM_CONFORMER_ID>
00000AD100000005

> <PUBCHEM_MMFF94_ENERGY>
101.1751

> <PUBCHEM_FEATURE_SELFOVERLAP>
55.817

> <PUBCHEM_SHAPE_FINGERPRINT>
10299344 5 16774079570326047800
10674148 151 18412269441647609888
10692045 39 18260546688967722388
10794284 68 15841271548998868343
10930396 42 6843630242229380174
11211813 89 18407757028747217656
11273773 46 18411976997335305402
11672396 43 18118413843570134383
13782708 43 18196653999616692074
13914758 101 16515399668634886728
14068700 686 10663282036799982376
14347424 109 16877950413155606496
14444916 359 18131070445696094034
1454969 45 11815900063112525784
14675019 173 18343022181259819268
14767858 380 13686303469857100740
14856354 85 17632576024901318503
14955137 171 17916867906893871428
15183329 4 16515678910534798688
15320295 40 5833991637891895074
15352257 5 17917996061974912858
15444296 121 16917061149445496233
15444296 7 10519691302527218592
15461852 350 18342466907514320615
15475509 8 18409171004642518620
15685185 35 12750650926656608478
15728490 51 12895063007676488009
21049683 271 13614235971139143151
21130935 74 17459200594859028246
21403212 168 17095522911387205092
21781051 124 18059850654449853890
21796203 349 15266761313866605093
21814621 53 18188214173988704602
23559900 14 18129933611962636479
23569943 247 18040720307510417974
2838139 119 16660363645860754905
3525247 94 17385731279715513223
439807 62 18341332288871638034
444769 64 18113618975717430886
5028188 123 17418089893049478198
550186 72 12247415513457861350
6004065 56 9799683814381947906
6371009 1 14779543457116476913
6371380 46 18335707122062296712
6394761 36 18333732424701052008

> <PUBCHEM_SHAPE_MULTIPOLES>
614.72
25.96
2.54
1.9
23.92
0.93
0.11
-1.11
-1.39
-1.25
-0.56
-0.39
0.11
2.75

> <PUBCHEM_SHAPE_SELFOVERLAP>
1281.544

> <PUBCHEM_SHAPE_VOLUME>
351

> <PUBCHEM_COORDINATE_TYPE>
2
5
10

$$$$

