10375422
  -OEChem-07051213103D

 26 27  0     1  0  0  0  0  0999 V2000
   -1.7221   -1.4960   -0.2680 O   0  0  0  0  0  0  0  0  0  0  0  0
    2.6351   -0.6483    1.4631 O   0  0  0  0  0  0  0  0  0  0  0  0
    2.1468    1.8279    0.6079 O   0  0  0  0  0  0  0  0  0  0  0  0
   -3.4913   -0.4984    0.8207 O   0  0  0  0  0  0  0  0  0  0  0  0
   -0.6168    0.4004   -1.1046 C   0  0  2  0  0  0  0  0  0  0  0  0
   -0.4191   -1.0571   -0.7037 C   0  0  1  0  0  0  0  0  0  0  0  0
    0.5732   -1.2733    0.4465 C   0  0  0  0  0  0  0  0  0  0  0  0
    1.9035   -0.5517    0.2465 C   0  0  1  0  0  0  0  0  0  0  0  0
    0.6672    1.2205   -1.1730 C   0  0  0  0  0  0  0  0  0  0  0  0
    1.6111    0.9203   -0.0274 C   0  0  0  0  0  0  0  0  0  0  0  0
   -1.6668    0.7866   -0.1163 C   0  0  0  0  0  0  0  0  0  0  0  0
    2.7470   -1.1594   -0.8716 C   0  0  0  0  0  0  0  0  0  0  0  0
   -2.4293   -0.4353    0.2290 C   0  0  0  0  0  0  0  0  0  0  0  0
   -1.9385    1.9637    0.4511 C   0  0  0  0  0  0  0  0  0  0  0  0
   -1.0978    0.4356   -2.0925 H   0  0  0  0  0  0  0  0  0  0  0  0
   -0.1293   -1.6576   -1.5734 H   0  0  0  0  0  0  0  0  0  0  0  0
    0.1236   -0.9513    1.3971 H   0  0  0  0  0  0  0  0  0  0  0  0
    0.7347   -2.3504    0.5890 H   0  0  0  0  0  0  0  0  0  0  0  0
    0.4527    2.2944   -1.1880 H   0  0  0  0  0  0  0  0  0  0  0  0
    1.2038    0.9948   -2.1018 H   0  0  0  0  0  0  0  0  0  0  0  0
    3.0017   -2.2011   -0.6462 H   0  0  0  0  0  0  0  0  0  0  0  0
    2.2453   -1.1310   -1.8432 H   0  0  0  0  0  0  0  0  0  0  0  0
    3.6962   -0.6200   -0.9712 H   0  0  0  0  0  0  0  0  0  0  0  0
    2.7606   -1.5912    1.6660 H   0  0  0  0  0  0  0  0  0  0  0  0
   -1.3687    2.8523    0.2042 H   0  0  0  0  0  0  0  0  0  0  0  0
   -2.7380    2.0755    1.1759 H   0  0  0  0  0  0  0  0  0  0  0  0
  1  6  1  0  0  0  0
  1 13  1  0  0  0  0
  2  8  1  0  0  0  0
  2 24  1  0  0  0  0
  3 10  2  0  0  0  0
  4 13  2  0  0  0  0
  5  6  1  0  0  0  0
  5  9  1  0  0  0  0
  5 11  1  0  0  0  0
  5 15  1  0  0  0  0
  6  7  1  0  0  0  0
  6 16  1  0  0  0  0
  7  8  1  0  0  0  0
  7 17  1  0  0  0  0
  7 18  1  0  0  0  0
  8 10  1  0  0  0  0
  8 12  1  0  0  0  0
  9 10  1  0  0  0  0
  9 19  1  0  0  0  0
  9 20  1  0  0  0  0
 11 13  1  0  0  0  0
 11 14  2  0  0  0  0
 12 21  1  0  0  0  0
 12 22  1  0  0  0  0
 12 23  1  0  0  0  0
 14 25  1  0  0  0  0
 14 26  1  0  0  0  0
M  END
> <PUBCHEM_COMPOUND_CID>
10375422

> <PUBCHEM_CONFORMER_RMSD>
0.4

> <PUBCHEM_CONFORMER_DIVERSEORDER>
1
4
2
3

> <PUBCHEM_MMFF94_PARTIAL_CHARGES>
15
1 -0.43
10 0.45
11 -0.12
13 0.71
14 -0.3
2 -0.68
24 0.4
25 0.15
26 0.15
3 -0.57
4 -0.57
5 0.14
6 0.28
8 0.34
9 0.06

> <PUBCHEM_EFFECTIVE_ROTOR_COUNT>
0.8

> <PUBCHEM_PHARMACOPHORE_FEATURES>
6
1 2 acceptor
1 2 donor
1 3 acceptor
1 4 acceptor
5 1 5 6 11 13 rings
6 5 6 7 8 9 10 rings

> <PUBCHEM_HEAVY_ATOM_COUNT>
14

> <PUBCHEM_ATOM_DEF_STEREO_COUNT>
3

> <PUBCHEM_ATOM_UDEF_STEREO_COUNT>
0

> <PUBCHEM_BOND_DEF_STEREO_COUNT>
0

> <PUBCHEM_BOND_UDEF_STEREO_COUNT>
0

> <PUBCHEM_ISOTOPIC_ATOM_COUNT>
0

> <PUBCHEM_COMPONENT_COUNT>
1

> <PUBCHEM_CACTVS_TAUTO_COUNT>
2

> <PUBCHEM_CONFORMER_ID>
009E50FE00000001

> <PUBCHEM_MMFF94_ENERGY>
30.5703

> <PUBCHEM_FEATURE_SELFOVERLAP>
30.63

> <PUBCHEM_SHAPE_FINGERPRINT>
12251169 10 18410863165378781234
12382932 28 18123753058521314955
12423570 1 15805838953607079735
12524768 44 18338519638114307879
12696612 119 18341621386513063152
15076042 46 18335136509750276909
15775835 57 18188763938303050449
16945 1 18335707164743178095
19422 9 18058433465217895286
19973954 147 18334295383180916008
20653091 64 18131066035080632952
20715346 28 18041286581187309246
22445834 79 18343866644859487243
23419403 2 16895462209399960903
23552423 10 18058726892798271591
241688 4 18131357439805525660
2748010 2 18342185478627235156
369184 2 18261961760480071501
5084963 1 18131063848710086453
7364860 26 18260542282510735364

> <PUBCHEM_SHAPE_MULTIPOLES>
264.64
4.22
1.83
1.11
0.7
0.52
0.02
-0.57
-1.08
0.06
-0.08
-0.39
0.02
0.06

> <PUBCHEM_SHAPE_SELFOVERLAP>
564.578

> <PUBCHEM_SHAPE_VOLUME>
147.6

> <PUBCHEM_COORDINATE_TYPE>
2
5
10

$$$$

