99735
  -OEChem-07051212542D

 30 30  0     1  0  0  0  0  0999 V2000
    5.0000   -3.0420    0.0000 Cl  0  0  0  0  0  0  0  0  0  0  0  0
    2.0000   -1.3100    0.0000 Cl  0  0  0  0  0  0  0  0  0  0  0  0
    5.0000    0.4221    0.0000 P   0  0  3  0  0  0  0  0  0  0  0  0
    5.8660    0.9221    0.0000 O   0  0  0  0  0  0  0  0  0  0  0  0
    5.5000   -0.4440    0.0000 O   0  0  0  0  0  0  0  0  0  0  0  0
    3.2680    2.4220    0.0000 O   0  0  0  0  0  0  0  0  0  0  0  0
    4.5000   -0.4440    0.0000 N   0  0  0  0  0  0  0  0  0  0  0  0
    4.1340    0.9221    0.0000 N   0  0  0  0  0  0  0  0  0  0  0  0
    4.1340    1.9220    0.0000 C   0  0  3  0  0  0  0  0  0  0  0  0
    5.0000    2.4220    0.0000 C   0  0  0  0  0  0  0  0  0  0  0  0
    5.8660    1.9220    0.0000 C   0  0  0  0  0  0  0  0  0  0  0  0
    5.0000   -1.3100    0.0000 C   0  0  0  0  0  0  0  0  0  0  0  0
    3.5000   -0.4440    0.0000 C   0  0  0  0  0  0  0  0  0  0  0  0
    3.0000   -1.3100    0.0000 C   0  0  0  0  0  0  0  0  0  0  0  0
    4.5000   -2.1760    0.0000 C   0  0  0  0  0  0  0  0  0  0  0  0
    4.1340    2.5420    0.0000 H   0  0  0  0  0  0  0  0  0  0  0  0
    5.3985    2.8970    0.0000 H   0  0  0  0  0  0  0  0  0  0  0  0
    4.6015    2.8970    0.0000 H   0  0  0  0  0  0  0  0  0  0  0  0
    3.5970    0.6121    0.0000 H   0  0  0  0  0  0  0  0  0  0  0  0
    6.4766    1.8144    0.0000 H   0  0  0  0  0  0  0  0  0  0  0  0
    6.0781    2.5047    0.0000 H   0  0  0  0  0  0  0  0  0  0  0  0
    5.4750   -1.7085    0.0000 H   0  0  0  0  0  0  0  0  0  0  0  0
    5.4750   -0.9115    0.0000 H   0  0  0  0  0  0  0  0  0  0  0  0
    3.6077    0.1666    0.0000 H   0  0  0  0  0  0  0  0  0  0  0  0
    2.9174   -0.2319    0.0000 H   0  0  0  0  0  0  0  0  0  0  0  0
    2.8923   -1.9206    0.0000 H   0  0  0  0  0  0  0  0  0  0  0  0
    3.5826   -1.5220    0.0000 H   0  0  0  0  0  0  0  0  0  0  0  0
    4.0250   -1.7775    0.0000 H   0  0  0  0  0  0  0  0  0  0  0  0
    4.0250   -2.5746    0.0000 H   0  0  0  0  0  0  0  0  0  0  0  0
    3.2680    3.0420    0.0000 H   0  0  0  0  0  0  0  0  0  0  0  0
  1 15  1  0  0  0  0
  2 14  1  0  0  0  0
  3  4  1  0  0  0  0
  3  5  2  0  0  0  0
  3  7  1  0  0  0  0
  3  8  1  0  0  0  0
  4 11  1  0  0  0  0
  6  9  1  0  0  0  0
  6 30  1  0  0  0  0
  7 12  1  0  0  0  0
  7 13  1  0  0  0  0
  8  9  1  0  0  0  0
  8 19  1  0  0  0  0
  9 10  1  0  0  0  0
  9 16  1  0  0  0  0
 10 11  1  0  0  0  0
 10 17  1  0  0  0  0
 10 18  1  0  0  0  0
 11 20  1  0  0  0  0
 11 21  1  0  0  0  0
 12 15  1  0  0  0  0
 12 22  1  0  0  0  0
 12 23  1  0  0  0  0
 13 14  1  0  0  0  0
 13 24  1  0  0  0  0
 13 25  1  0  0  0  0
 14 26  1  0  0  0  0
 14 27  1  0  0  0  0
 15 28  1  0  0  0  0
 15 29  1  0  0  0  0
M  END
> <PUBCHEM_COMPOUND_CID>
99735

> <PUBCHEM_COMPOUND_CANONICALIZED>
1

> <PUBCHEM_CACTVS_COMPLEXITY>
238

> <PUBCHEM_CACTVS_HBOND_ACCEPTOR>
5

> <PUBCHEM_CACTVS_HBOND_DONOR>
2

> <PUBCHEM_CACTVS_ROTATABLE_BOND>
5

> <PUBCHEM_CACTVS_SUBSKEYS>
AAADccBjMAIGAAAAAAAAAAAAAAAAAAAAAAAsAAAAAAAAAAAAAAAAHgIQiCAACAPhgEYAAAJAAxAAQAAAAIAAAAAAAAAAAIAIAAEAEAAAAABAQAADEACAAAAAAAAAAAAAAAAAAAAAAAAAAAAAAAAAAAAAAA==

> <PUBCHEM_IUPAC_OPENEYE_NAME>
2-[bis(2-chloroethyl)amino]-2-oxo-1,3,2$l^{5}-oxazaphosphinan-4-ol

> <PUBCHEM_IUPAC_CAS_NAME>
2-[bis(2-chloroethyl)amino]-2-oxo-1,3,2$l^{5}-oxazaphosphorinan-4-ol

> <PUBCHEM_IUPAC_NAME>
2-[bis(2-chloroethyl)amino]-2-oxo-1,3,2$l^{5}-oxazaphosphinan-4-ol

> <PUBCHEM_IUPAC_SYSTEMATIC_NAME>
2-[bis(2-chloroethyl)amino]-2-oxidanylidene-1,3,2$l^{5}-oxazaphosphinan-4-ol

> <PUBCHEM_IUPAC_TRADITIONAL_NAME>
2-[bis(2-chloroethyl)amino]-2-keto-1,3,2$l^{5}-oxazaphosphorinan-4-ol

> <PUBCHEM_IUPAC_INCHI>
InChI=1S/C7H15Cl2N2O3P/c8-2-4-11(5-3-9)15(13)10-7(12)1-6-14-15/h7,12H,1-6H2,(H,10,13)

> <PUBCHEM_IUPAC_INCHIKEY>
RANONBLIHMVXAJ-UHFFFAOYSA-N

> <PUBCHEM_XLOGP3_AA>
0.2

> <PUBCHEM_EXACT_MASS>
276.019734

> <PUBCHEM_MOLECULAR_FORMULA>
C7H15Cl2N2O3P

> <PUBCHEM_MOLECULAR_WEIGHT>
277.085362

> <PUBCHEM_OPENEYE_CAN_SMILES>
C1COP(=O)(NC1O)N(CCCl)CCCl

> <PUBCHEM_OPENEYE_ISO_SMILES>
C1COP(=O)(NC1O)N(CCCl)CCCl

> <PUBCHEM_CACTVS_TPSA>
61.8

> <PUBCHEM_MONOISOTOPIC_WEIGHT>
276.019734

> <PUBCHEM_TOTAL_CHARGE>
0

> <PUBCHEM_HEAVY_ATOM_COUNT>
15

> <PUBCHEM_ATOM_DEF_STEREO_COUNT>
0

> <PUBCHEM_ATOM_UDEF_STEREO_COUNT>
2

> <PUBCHEM_BOND_DEF_STEREO_COUNT>
0

> <PUBCHEM_BOND_UDEF_STEREO_COUNT>
0

> <PUBCHEM_ISOTOPIC_ATOM_COUNT>
0

> <PUBCHEM_COMPONENT_COUNT>
1

> <PUBCHEM_CACTVS_TAUTO_COUNT>
2

> <PUBCHEM_COORDINATE_TYPE>
1
5
255

> <PUBCHEM_BONDANNOTATIONS>
3  7  3
9  6  3

$$$$

