443765
  -OEChem-07051213033D

 19 19  0     0  0  0  0  0  0999 V2000
    3.0508    2.0039   -0.3770 O   0  0  0  0  0  0  0  0  0  0  0  0
    2.0547   -2.6171    0.2852 O   0  0  0  0  0  0  0  0  0  0  0  0
   -2.0108    1.6961    0.6144 O   0  0  0  0  0  0  0  0  0  0  0  0
   -3.8299    0.1760   -0.0612 O   0  0  0  0  0  0  0  0  0  0  0  0
   -2.3411   -1.4714   -0.6588 O   0  0  0  0  0  0  0  0  0  0  0  0
   -0.1486    0.2991    0.1195 C   0  0  0  0  0  0  0  0  0  0  0  0
    0.2787   -1.0227    0.2459 C   0  0  0  0  0  0  0  0  0  0  0  0
    0.7827    1.3162   -0.0902 C   0  0  0  0  0  0  0  0  0  0  0  0
    2.1413    1.0115   -0.1737 C   0  0  0  0  0  0  0  0  0  0  0  0
    1.6373   -1.3273    0.1626 C   0  0  0  0  0  0  0  0  0  0  0  0
    2.5686   -0.3102   -0.0471 C   0  0  0  0  0  0  0  0  0  0  0  0
   -1.5652    0.6174    0.2073 C   0  0  0  0  0  0  0  0  0  0  0  0
   -2.6185   -0.3717   -0.2269 C   0  0  0  0  0  0  0  0  0  0  0  0
   -0.4019   -1.8370    0.4699 H   0  0  0  0  0  0  0  0  0  0  0  0
    0.4535    2.3478   -0.1919 H   0  0  0  0  0  0  0  0  0  0  0  0
    3.6291   -0.5406   -0.1130 H   0  0  0  0  0  0  0  0  0  0  0  0
    2.5818    2.8536   -0.4406 H   0  0  0  0  0  0  0  0  0  0  0  0
    3.0234   -2.6443    0.2021 H   0  0  0  0  0  0  0  0  0  0  0  0
   -4.5519   -0.4290   -0.3350 H   0  0  0  0  0  0  0  0  0  0  0  0
  1  9  1  0  0  0  0
  1 17  1  0  0  0  0
  2 10  1  0  0  0  0
  2 18  1  0  0  0  0
  3 12  2  0  0  0  0
  4 13  1  0  0  0  0
  4 19  1  0  0  0  0
  5 13  2  0  0  0  0
  6  7  2  0  0  0  0
  6  8  1  0  0  0  0
  6 12  1  0  0  0  0
  7 10  1  0  0  0  0
  7 14  1  0  0  0  0
  8  9  2  0  0  0  0
  8 15  1  0  0  0  0
  9 11  1  0  0  0  0
 10 11  2  0  0  0  0
 11 16  1  0  0  0  0
 12 13  1  0  0  0  0
M  END
> <PUBCHEM_COMPOUND_CID>
443765

> <PUBCHEM_CONFORMER_RMSD>
0.6

> <PUBCHEM_CONFORMER_DIVERSEORDER>
1
3
2

> <PUBCHEM_MMFF94_PARTIAL_CHARGES>
19
1 -0.53
10 0.08
11 -0.15
12 0.48
13 0.72
14 0.15
15 0.15
16 0.15
17 0.45
18 0.45
19 0.5
2 -0.53
3 -0.57
4 -0.65
5 -0.57
6 0.09
7 -0.15
8 -0.15
9 0.08

> <PUBCHEM_EFFECTIVE_ROTOR_COUNT>
2

> <PUBCHEM_PHARMACOPHORE_FEATURES>
7
1 1 donor
1 2 donor
1 3 acceptor
1 4 acceptor
1 5 acceptor
3 4 5 13 anion
6 6 7 8 9 10 11 rings

> <PUBCHEM_HEAVY_ATOM_COUNT>
13

> <PUBCHEM_ATOM_DEF_STEREO_COUNT>
0

> <PUBCHEM_ATOM_UDEF_STEREO_COUNT>
0

> <PUBCHEM_BOND_DEF_STEREO_COUNT>
0

> <PUBCHEM_BOND_UDEF_STEREO_COUNT>
0

> <PUBCHEM_ISOTOPIC_ATOM_COUNT>
0

> <PUBCHEM_COMPONENT_COUNT>
1

> <PUBCHEM_CACTVS_TAUTO_COUNT>
5

> <PUBCHEM_CONFORMER_ID>
0006C57500000001

> <PUBCHEM_MMFF94_ENERGY>
34.634

> <PUBCHEM_FEATURE_SELFOVERLAP>
35.594

> <PUBCHEM_SHAPE_FINGERPRINT>
12897270 3 18337673022914255109
13380535 76 18270963436549359746
14128692 85 18263924500357471434
14325111 11 18339642239502123661
15279307 12 18335136462495197775
15442244 35 18121498222081530705
15775835 57 18335414621677950093
16945 1 18410853243983065944
17990270 104 18266740362463208842
18619055 16 18336838562629938421
19021347 11 18411983520725411646
20559304 39 18336267928616086122
20645477 70 18411425042133937935
20871998 22 18048316944741194654
21499 59 18199186183437636212
21501502 16 18336826506387972913
21501925 9 18339655549837843866
23402539 116 18189904102287107940
23402655 69 18409456882044662341
23463225 33 18336547243292961471
23552423 10 18411699910828123527
25610 137 18339354155029446625
2748010 2 16535945473428733845
3312278 4 18336826369175599907
6992083 37 17614270491490300056
7364860 26 18334295396540545562
8030462 33 18411690002402005213

> <PUBCHEM_SHAPE_MULTIPOLES>
238.19
4.97
2.1
0.66
2.54
0.51
0
-0.42
-0.43
-1.39
0.06
0.07
0
-0.6

> <PUBCHEM_SHAPE_SELFOVERLAP>
508.274

> <PUBCHEM_SHAPE_VOLUME>
131.4

> <PUBCHEM_COORDINATE_TYPE>
2
5
10

$$$$

