10154
  -OEChem-06261204213D

 45 48  0     1  0  0  0  0  0999 V2000
    0.5478    2.8277    0.0141 O   0  0  0  0  0  0  0  0  0  0  0  0
   -1.8576    4.0147    0.0886 O   0  0  0  0  0  0  0  0  0  0  0  0
    4.4242    0.4095    0.8081 O   0  0  0  0  0  0  0  0  0  0  0  0
    4.4600   -2.2252   -0.0651 O   0  0  0  0  0  0  0  0  0  0  0  0
   -2.8601   -2.3180   -0.2740 N   0  0  2  0  0  0  0  0  0  0  0  0
   -1.5911   -1.6726    0.1524 C   0  0  2  0  0  0  0  0  0  0  0  0
   -1.6540   -0.1422    0.1067 C   0  0  0  0  0  0  0  0  0  0  0  0
   -0.3979   -2.1469   -0.7080 C   0  0  0  0  0  0  0  0  0  0  0  0
   -2.9006    0.5138    0.1151 C   0  0  0  0  0  0  0  0  0  0  0  0
   -3.9916   -1.7314    0.4620 C   0  0  0  0  0  0  0  0  0  0  0  0
   -0.4485    0.6051    0.1216 C   0  0  0  0  0  0  0  0  0  0  0  0
   -4.1809   -0.2720    0.0585 C   0  0  0  0  0  0  0  0  0  0  0  0
    0.8852   -1.4578   -0.3003 C   0  0  0  0  0  0  0  0  0  0  0  0
    0.8502   -0.1064    0.1058 C   0  0  0  0  0  0  0  0  0  0  0  0
   -0.5417    2.0086    0.1168 C   0  0  0  0  0  0  0  0  0  0  0  0
   -2.9530    1.9109    0.1081 C   0  0  0  0  0  0  0  0  0  0  0  0
   -2.8471   -3.7681   -0.0530 C   0  0  0  0  0  0  0  0  0  0  0  0
   -1.7789    2.6537    0.1122 C   0  0  0  0  0  0  0  0  0  0  0  0
    2.1016   -2.1544   -0.3685 C   0  0  0  0  0  0  0  0  0  0  0  0
    2.0650    0.4954    0.4803 C   0  0  0  0  0  0  0  0  0  0  0  0
    3.2712   -0.2092    0.4266 C   0  0  0  0  0  0  0  0  0  0  0  0
    3.2903   -1.5310   -0.0031 C   0  0  0  0  0  0  0  0  0  0  0  0
    0.9502    3.2016   -1.2998 C   0  0  0  0  0  0  0  0  0  0  0  0
    5.1573    1.0942   -0.2051 C   0  0  0  0  0  0  0  0  0  0  0  0
   -1.3952   -1.9343    1.2039 H   0  0  0  0  0  0  0  0  0  0  0  0
   -0.5762   -1.9414   -1.7720 H   0  0  0  0  0  0  0  0  0  0  0  0
   -0.2580   -3.2276   -0.5972 H   0  0  0  0  0  0  0  0  0  0  0  0
   -3.8357   -1.8120    1.5465 H   0  0  0  0  0  0  0  0  0  0  0  0
   -4.9225   -2.2642    0.2299 H   0  0  0  0  0  0  0  0  0  0  0  0
   -4.9274    0.1824    0.7210 H   0  0  0  0  0  0  0  0  0  0  0  0
   -4.5694   -0.2207   -0.9667 H   0  0  0  0  0  0  0  0  0  0  0  0
   -3.9179    2.4124    0.0920 H   0  0  0  0  0  0  0  0  0  0  0  0
   -2.6244   -4.0258    0.9886 H   0  0  0  0  0  0  0  0  0  0  0  0
   -2.1216   -4.2659   -0.7027 H   0  0  0  0  0  0  0  0  0  0  0  0
   -3.8183   -4.2061   -0.3121 H   0  0  0  0  0  0  0  0  0  0  0  0
    2.1189   -3.1891   -0.7030 H   0  0  0  0  0  0  0  0  0  0  0  0
    2.1145    1.5005    0.8843 H   0  0  0  0  0  0  0  0  0  0  0  0
   -2.7932    4.2803    0.0825 H   0  0  0  0  0  0  0  0  0  0  0  0
    1.0771    2.3227   -1.9402 H   0  0  0  0  0  0  0  0  0  0  0  0
    1.9107    3.7198   -1.2283 H   0  0  0  0  0  0  0  0  0  0  0  0
    0.2207    3.8842   -1.7462 H   0  0  0  0  0  0  0  0  0  0  0  0
    5.1759   -1.6563    0.2663 H   0  0  0  0  0  0  0  0  0  0  0  0
    4.5655    1.9211   -0.6106 H   0  0  0  0  0  0  0  0  0  0  0  0
    5.4438    0.4091   -1.0093 H   0  0  0  0  0  0  0  0  0  0  0  0
    6.0656    1.5029    0.2460 H   0  0  0  0  0  0  0  0  0  0  0  0
  1 15  1  0  0  0  0
  1 23  1  0  0  0  0
  2 18  1  0  0  0  0
  2 38  1  0  0  0  0
  3 21  1  0  0  0  0
  3 24  1  0  0  0  0
  4 22  1  0  0  0  0
  4 42  1  0  0  0  0
  5  6  1  0  0  0  0
  5 10  1  0  0  0  0
  5 17  1  0  0  0  0
  6  7  1  0  0  0  0
  6  8  1  0  0  0  0
  6 25  1  0  0  0  0
  7  9  1  0  0  0  0
  7 11  2  0  0  0  0
  8 13  1  0  0  0  0
  8 26  1  0  0  0  0
  8 27  1  0  0  0  0
  9 12  1  0  0  0  0
  9 16  2  0  0  0  0
 10 12  1  0  0  0  0
 10 28  1  0  0  0  0
 10 29  1  0  0  0  0
 11 14  1  0  0  0  0
 11 15  1  0  0  0  0
 12 30  1  0  0  0  0
 12 31  1  0  0  0  0
 13 14  1  0  0  0  0
 13 19  2  0  0  0  0
 14 20  2  0  0  0  0
 15 18  2  0  0  0  0
 16 18  1  0  0  0  0
 16 32  1  0  0  0  0
 17 33  1  0  0  0  0
 17 34  1  0  0  0  0
 17 35  1  0  0  0  0
 19 22  1  0  0  0  0
 19 36  1  0  0  0  0
 20 21  1  0  0  0  0
 20 37  1  0  0  0  0
 21 22  2  0  0  0  0
 23 39  1  0  0  0  0
 23 40  1  0  0  0  0
 23 41  1  0  0  0  0
 24 43  1  0  0  0  0
 24 44  1  0  0  0  0
 24 45  1  0  0  0  0
M  END
> <PUBCHEM_COMPOUND_CID>
10154

> <PUBCHEM_CONFORMER_RMSD>
0.6

> <PUBCHEM_CONFORMER_DIVERSEORDER>
1
3
4
2

> <PUBCHEM_MMFF94_PARTIAL_CHARGES>
27
1 -0.36
10 0.27
12 0.14
13 -0.14
15 0.08
16 -0.15
17 0.27
18 0.08
19 -0.15
2 -0.53
20 -0.15
21 0.08
22 0.08
23 0.28
24 0.28
3 -0.36
32 0.15
36 0.15
37 0.15
38 0.45
4 -0.53
42 0.45
5 -0.81
6 0.41
7 -0.14
8 0.14
9 -0.14

> <PUBCHEM_EFFECTIVE_ROTOR_COUNT>
2.8

> <PUBCHEM_PHARMACOPHORE_FEATURES>
9
1 1 acceptor
1 2 donor
1 3 acceptor
1 4 donor
1 5 cation
6 13 14 19 20 21 22 rings
6 5 6 7 9 10 12 rings
6 6 7 8 11 13 14 rings
6 7 9 11 15 16 18 rings

> <PUBCHEM_HEAVY_ATOM_COUNT>
24

> <PUBCHEM_ATOM_DEF_STEREO_COUNT>
1

> <PUBCHEM_ATOM_UDEF_STEREO_COUNT>
0

> <PUBCHEM_BOND_DEF_STEREO_COUNT>
0

> <PUBCHEM_BOND_UDEF_STEREO_COUNT>
0

> <PUBCHEM_ISOTOPIC_ATOM_COUNT>
0

> <PUBCHEM_COMPONENT_COUNT>
1

> <PUBCHEM_CACTVS_TAUTO_COUNT>
104

> <PUBCHEM_CONFORMER_ID>
000027AA00000001

> <PUBCHEM_MMFF94_ENERGY>
95.306

> <PUBCHEM_FEATURE_SELFOVERLAP>
45.757

> <PUBCHEM_SHAPE_FINGERPRINT>
10319926 262 18120114990185595362
10411042 1 18121782720810715279
10498660 4 18411417332519591204
10616163 171 18408884018947986302
10670039 82 18341320125366033444
10906281 52 18335126618989129605
10967382 1 17761493591121693875
1100329 8 18339922589814464499
11578080 2 17345499053126055196
12035759 4 18125416666933049452
12173636 292 18194404626390684517
12403259 226 18334302001825635762
12553582 1 18338504241057556119
12633257 1 17974850889065770336
12788726 201 18343025484093808314
13140716 1 18192710051533992425
138480 1 15672104327950179201
14081887 123 18335715939456101864
14223421 5 18335704974541809762
14787075 74 18058449790425569138
14790565 3 17331111698948955609
15042514 8 18267866279407710330
15196674 1 18409167752845399130
15927050 60 16679215588203136404
16087824 20 18410013248382898269
16945 1 18410566289023782877
17357779 13 18337410291470256237
17492 89 18412263977901251922
1813 80 17703788106754517894
19591789 44 18049721016557241187
20028762 73 16027310715805135854
20510252 161 18261957465475930553
20642791 178 18127120879759455461
20905425 154 18048023082909705357
21267235 1 18410566271506777810
2334 1 17905325131125590885
23402539 116 18263655111661474551
23557571 272 18261384568689357982
23558518 356 18271237326450178400
23559900 14 17973729378974894958
238 59 16112073854075774061
2748010 2 18049994795221348909
335352 9 17977384159397895862
34934 24 18411425007463105915
350125 39 18408603695623962706
5104073 3 18335985371592701170
81228 2 18341885342159781763
9709674 26 18189616231798216342
9925002 15 17320438790990459542

> <PUBCHEM_SHAPE_MULTIPOLES>
465.45
7.85
4.39
0.76
5.81
1.67
-0.09
-2.83
0.86
-2.34
-0.7
0.18
0.15
-0.17

> <PUBCHEM_SHAPE_SELFOVERLAP>
1028.165

> <PUBCHEM_SHAPE_VOLUME>
250.3

> <PUBCHEM_COORDINATE_TYPE>
2
5
10

$$$$

