33306
  -OEChem-07051212573D

 35 38  0     1  0  0  0  0  0999 V2000
    3.8201    1.6059    0.3089 O   0  0  0  0  0  0  0  0  0  0  0  0
    1.0527   -0.2363    0.8876 O   0  0  0  0  0  0  0  0  0  0  0  0
   -2.1341   -3.4089   -0.3517 O   0  0  0  0  0  0  0  0  0  0  0  0
   -3.3909    1.2632   -0.3497 O   0  0  0  0  0  0  0  0  0  0  0  0
   -3.8864    3.4991   -0.3184 O   0  0  0  0  0  0  0  0  0  0  0  0
    4.5742    0.5448   -0.2910 C   0  0  0  0  0  0  0  0  0  0  0  0
    3.3593    0.2785    0.5197 C   0  0  2  0  0  0  0  0  0  0  0  0
    2.0228   -0.0116   -0.1293 C   0  0  0  0  0  0  0  0  0  0  0  0
    5.9368    0.4002    0.2751 C   0  0  0  0  0  0  0  0  0  0  0  0
    4.4580    0.5062   -1.7686 C   0  0  0  0  0  0  0  0  0  0  0  0
   -0.2247   -0.5023    0.4737 C   0  0  0  0  0  0  0  0  0  0  0  0
   -0.6281   -1.8319    0.2403 C   0  0  0  0  0  0  0  0  0  0  0  0
   -1.1534    0.5314    0.2751 C   0  0  0  0  0  0  0  0  0  0  0  0
   -1.9333   -2.0719   -0.1794 C   0  0  0  0  0  0  0  0  0  0  0  0
   -2.4479    0.2288   -0.1466 C   0  0  0  0  0  0  0  0  0  0  0  0
   -2.8848   -1.0768   -0.3885 C   0  0  0  0  0  0  0  0  0  0  0  0
   -0.0096   -3.1075    0.3244 C   0  0  0  0  0  0  0  0  0  0  0  0
   -0.7980    1.9239    0.4995 C   0  0  0  0  0  0  0  0  0  0  0  0
   -0.9642   -4.0269   -0.0441 C   0  0  0  0  0  0  0  0  0  0  0  0
   -1.6971    2.8915    0.3042 C   0  0  0  0  0  0  0  0  0  0  0  0
   -3.0715    2.6004   -0.1412 C   0  0  0  0  0  0  0  0  0  0  0  0
    3.4804   -0.1757    1.4942 H   0  0  0  0  0  0  0  0  0  0  0  0
    2.1153   -0.9163   -0.7417 H   0  0  0  0  0  0  0  0  0  0  0  0
    1.7042    0.8188   -0.7698 H   0  0  0  0  0  0  0  0  0  0  0  0
    6.3666   -0.5668   -0.0057 H   0  0  0  0  0  0  0  0  0  0  0  0
    5.9336    0.4568    1.3692 H   0  0  0  0  0  0  0  0  0  0  0  0
    6.5996    1.1889   -0.0961 H   0  0  0  0  0  0  0  0  0  0  0  0
    5.2994    1.0293   -2.2368 H   0  0  0  0  0  0  0  0  0  0  0  0
    3.5473    0.9819   -2.1466 H   0  0  0  0  0  0  0  0  0  0  0  0
    4.4730   -0.5295   -2.1237 H   0  0  0  0  0  0  0  0  0  0  0  0
   -3.8921   -1.3031   -0.7159 H   0  0  0  0  0  0  0  0  0  0  0  0
    1.0069   -3.3293    0.6173 H   0  0  0  0  0  0  0  0  0  0  0  0
    0.2009    2.1788    0.8346 H   0  0  0  0  0  0  0  0  0  0  0  0
   -0.9677   -5.1033   -0.1343 H   0  0  0  0  0  0  0  0  0  0  0  0
   -1.4365    3.9306    0.4732 H   0  0  0  0  0  0  0  0  0  0  0  0
  1  6  1  0  0  0  0
  1  7  1  0  0  0  0
  2  8  1  0  0  0  0
  2 11  1  0  0  0  0
  3 14  1  0  0  0  0
  3 19  1  0  0  0  0
  4 15  1  0  0  0  0
  4 21  1  0  0  0  0
  5 21  2  0  0  0  0
  6  7  1  0  0  0  0
  6  9  1  0  0  0  0
  6 10  1  0  0  0  0
  7  8  1  0  0  0  0
  7 22  1  0  0  0  0
  8 23  1  0  0  0  0
  8 24  1  0  0  0  0
  9 25  1  0  0  0  0
  9 26  1  0  0  0  0
  9 27  1  0  0  0  0
 10 28  1  0  0  0  0
 10 29  1  0  0  0  0
 10 30  1  0  0  0  0
 11 12  1  0  0  0  0
 11 13  2  0  0  0  0
 12 14  2  0  0  0  0
 12 17  1  0  0  0  0
 13 15  1  0  0  0  0
 13 18  1  0  0  0  0
 14 16  1  0  0  0  0
 15 16  2  0  0  0  0
 16 31  1  0  0  0  0
 17 19  2  0  0  0  0
 17 32  1  0  0  0  0
 18 20  2  0  0  0  0
 18 33  1  0  0  0  0
 19 34  1  0  0  0  0
 20 21  1  0  0  0  0
 20 35  1  0  0  0  0
M  END
> <PUBCHEM_COMPOUND_CID>
33306

> <PUBCHEM_CONFORMER_RMSD>
0.6

> <PUBCHEM_CONFORMER_DIVERSEORDER>
1
11
15
12
16
13
14
2
6
4
3
10
5
8
9
7

> <PUBCHEM_MMFF94_PARTIAL_CHARGES>
26
1 -0.3
10 0.09
11 0.08
13 0.03
14 0.14
15 0.08
16 -0.15
17 -0.15
18 -0.18
19 -0.01
2 -0.36
20 -0.14
21 0.71
22 0.1
3 -0.28
31 0.15
32 0.15
33 0.15
34 0.15
35 0.15
4 -0.23
5 -0.57
6 -0.04
7 -0.05
8 0.38
9 0.09

> <PUBCHEM_EFFECTIVE_ROTOR_COUNT>
3.6

> <PUBCHEM_PHARMACOPHORE_FEATURES>
8
1 1 acceptor
1 2 acceptor
1 3 acceptor
1 5 acceptor
3 6 9 10 hydrophobe
5 3 12 14 17 19 rings
6 11 12 13 14 15 16 rings
6 4 13 15 18 20 21 rings

> <PUBCHEM_HEAVY_ATOM_COUNT>
21

> <PUBCHEM_ATOM_DEF_STEREO_COUNT>
1

> <PUBCHEM_ATOM_UDEF_STEREO_COUNT>
0

> <PUBCHEM_BOND_DEF_STEREO_COUNT>
0

> <PUBCHEM_BOND_UDEF_STEREO_COUNT>
0

> <PUBCHEM_ISOTOPIC_ATOM_COUNT>
0

> <PUBCHEM_COMPONENT_COUNT>
1

> <PUBCHEM_CACTVS_TAUTO_COUNT>
1

> <PUBCHEM_CONFORMER_ID>
0000821A00000001

> <PUBCHEM_MMFF94_ENERGY>
61.8462

> <PUBCHEM_FEATURE_SELFOVERLAP>
40.726

> <PUBCHEM_SHAPE_FINGERPRINT>
10319926 262 18190484700878080984
10411042 1 17834397821777203195
107951 10 18335414716198879743
1100329 8 18195245521300505283
12107183 9 18126577936686553674
12173636 292 18411143557965620212
12390115 104 18261942063918821049
12553582 1 18123199995483181427
12788726 201 18127116482029429302
13140716 1 18052532167147087219
138480 1 17113258300162528315
14142880 1 18131635599257440189
14508225 48 17902525791675217335
14790565 3 18409724050596677209
14955137 171 17910101418491095563
15042514 8 18268423534508914323
15463212 79 18201445765879547072
16752209 62 18410584963256833978
167882 2 17980202212010573035
16988056 13 16398043625847148084
17134986 127 18123470745894138607
17539 30 18262808337004507983
17818456 19 18268443498038541770
18785283 64 17763739197729623697
19591789 44 18409449181131357673
20101258 96 17909535169406126818
20510252 161 18334856112884009569
20693207 138 17823674427332451012
21065201 7 18335420128654114298
21426921 1 18339079272832900946
21524375 3 18129099094614707848
2255824 54 17615973643929269347
23366157 5 17695348466422923395
23402539 116 18335427820070155478
23419403 2 17097222623177452673
23557571 272 18188486874785325184
23559900 14 18259704519654913778
283562 15 18408888430269828603
3071541 12 17688873455226155795
3091708 16 9125694160022426731
312425 83 18053627405983797236
394222 165 17985836071063121635
458136 41 18047747389159532601
559249 180 18340772637178897706
7364860 26 17689158232942896947
9709674 26 18260542304259969582
9981440 41 18341332304996271699

> <PUBCHEM_SHAPE_MULTIPOLES>
402.82
8.7
4.42
0.87
15.17
2.12
0.22
-5.32
1.59
-6.21
0.06
0.72
-0.08
-0.07

> <PUBCHEM_SHAPE_SELFOVERLAP>
890.581

> <PUBCHEM_SHAPE_VOLUME>
219.3

> <PUBCHEM_COORDINATE_TYPE>
2
5
10

$$$$

