8344
  -OEChem-06261202453D

 38 38  0     0  0  0  0  0  0999 V2000
    0.3519   -1.7601   -0.3269 O   0  0  0  0  0  0  0  0  0  0  0  0
   -0.7024    1.4419    0.5883 O   0  0  0  0  0  0  0  0  0  0  0  0
   -2.4267   -1.9710   -0.0187 O   0  0  0  0  0  0  0  0  0  0  0  0
   -3.1399    1.6051   -0.7518 O   0  0  0  0  0  0  0  0  0  0  0  0
    2.2607   -2.5025    0.7238 O   0  0  0  0  0  0  0  0  0  0  0  0
    0.2910    0.1947    2.2485 O   0  0  0  0  0  0  0  0  0  0  0  0
    2.1590   -0.2912   -0.1619 C   0  0  0  0  0  0  0  0  0  0  0  0
    1.5438    0.8593    0.3318 C   0  0  0  0  0  0  0  0  0  0  0  0
    3.3025   -0.1855   -0.9538 C   0  0  0  0  0  0  0  0  0  0  0  0
    2.0723    2.1153    0.0337 C   0  0  0  0  0  0  0  0  0  0  0  0
    1.6317   -1.6173    0.1323 C   0  0  0  0  0  0  0  0  0  0  0  0
    0.3486    0.7819    1.1618 C   0  0  0  0  0  0  0  0  0  0  0  0
   -0.2785   -3.0246   -0.0961 C   0  0  0  0  0  0  0  0  0  0  0  0
   -1.9378    1.4385    1.3118 C   0  0  0  0  0  0  0  0  0  0  0  0
    3.8308    1.0707   -1.2518 C   0  0  0  0  0  0  0  0  0  0  0  0
    3.2157    2.2211   -0.7581 C   0  0  0  0  0  0  0  0  0  0  0  0
   -1.6810   -2.9909   -0.6721 C   0  0  0  0  0  0  0  0  0  0  0  0
   -2.9752    2.2141    0.5231 C   0  0  0  0  0  0  0  0  0  0  0  0
   -3.7468   -1.8791   -0.5357 C   0  0  0  0  0  0  0  0  0  0  0  0
   -4.1199    2.2796   -1.5283 C   0  0  0  0  0  0  0  0  0  0  0  0
    3.7911   -1.0737   -1.3462 H   0  0  0  0  0  0  0  0  0  0  0  0
    1.6067    3.0211    0.4140 H   0  0  0  0  0  0  0  0  0  0  0  0
   -0.3239   -3.1975    0.9853 H   0  0  0  0  0  0  0  0  0  0  0  0
    0.3055   -3.8180   -0.5748 H   0  0  0  0  0  0  0  0  0  0  0  0
   -1.7897    1.9012    2.2935 H   0  0  0  0  0  0  0  0  0  0  0  0
   -2.2646    0.4010    1.4396 H   0  0  0  0  0  0  0  0  0  0  0  0
    4.7210    1.1530   -1.8684 H   0  0  0  0  0  0  0  0  0  0  0  0
    3.6277    3.1990   -0.9896 H   0  0  0  0  0  0  0  0  0  0  0  0
   -1.6352   -2.7650   -1.7438 H   0  0  0  0  0  0  0  0  0  0  0  0
   -2.1690   -3.9606   -0.5251 H   0  0  0  0  0  0  0  0  0  0  0  0
   -3.9285    2.2180    1.0630 H   0  0  0  0  0  0  0  0  0  0  0  0
   -2.6347    3.2460    0.3790 H   0  0  0  0  0  0  0  0  0  0  0  0
   -3.7250   -1.6062   -1.5951 H   0  0  0  0  0  0  0  0  0  0  0  0
   -4.2801   -2.8249   -0.3999 H   0  0  0  0  0  0  0  0  0  0  0  0
   -4.2784   -1.0979    0.0143 H   0  0  0  0  0  0  0  0  0  0  0  0
   -5.0940    2.2448   -1.0308 H   0  0  0  0  0  0  0  0  0  0  0  0
   -3.8226    3.3179   -1.7043 H   0  0  0  0  0  0  0  0  0  0  0  0
   -4.2032    1.7721   -2.4931 H   0  0  0  0  0  0  0  0  0  0  0  0
  1 11  1  0  0  0  0
  1 13  1  0  0  0  0
  2 12  1  0  0  0  0
  2 14  1  0  0  0  0
  3 17  1  0  0  0  0
  3 19  1  0  0  0  0
  4 18  1  0  0  0  0
  4 20  1  0  0  0  0
  5 11  2  0  0  0  0
  6 12  2  0  0  0  0
  7  8  1  0  0  0  0
  7  9  2  0  0  0  0
  7 11  1  0  0  0  0
  8 10  2  0  0  0  0
  8 12  1  0  0  0  0
  9 15  1  0  0  0  0
  9 21  1  0  0  0  0
 10 16  1  0  0  0  0
 10 22  1  0  0  0  0
 13 17  1  0  0  0  0
 13 23  1  0  0  0  0
 13 24  1  0  0  0  0
 14 18  1  0  0  0  0
 14 25  1  0  0  0  0
 14 26  1  0  0  0  0
 15 16  2  0  0  0  0
 15 27  1  0  0  0  0
 16 28  1  0  0  0  0
 17 29  1  0  0  0  0
 17 30  1  0  0  0  0
 18 31  1  0  0  0  0
 18 32  1  0  0  0  0
 19 33  1  0  0  0  0
 19 34  1  0  0  0  0
 19 35  1  0  0  0  0
 20 36  1  0  0  0  0
 20 37  1  0  0  0  0
 20 38  1  0  0  0  0
M  END
> <PUBCHEM_COMPOUND_CID>
8344

> <PUBCHEM_CONFORMER_RMSD>
1

> <PUBCHEM_CONFORMER_DIVERSEORDER>
1
36
17
20
31
27
22
50
35
53
26
49
33
29
2
16
42
28
7
47
38
32
34
12
19
23
48
30
18
5
3
51
15
21
37
13
9
24
8
46
41
10
45
6
39
25
43
52
40
44
11
14
4

> <PUBCHEM_MMFF94_PARTIAL_CHARGES>
24
1 -0.43
10 -0.15
11 0.63
12 0.63
13 0.28
14 0.28
15 -0.15
16 -0.15
17 0.28
18 0.28
19 0.28
2 -0.43
20 0.28
21 0.15
22 0.15
27 0.15
28 0.15
3 -0.56
4 -0.56
5 -0.57
6 -0.57
7 0.09
8 0.09
9 -0.15

> <PUBCHEM_EFFECTIVE_ROTOR_COUNT>
10

> <PUBCHEM_PHARMACOPHORE_FEATURES>
5
1 3 acceptor
1 4 acceptor
1 5 acceptor
1 6 acceptor
6 7 8 9 10 15 16 rings

> <PUBCHEM_HEAVY_ATOM_COUNT>
20

> <PUBCHEM_ATOM_DEF_STEREO_COUNT>
0

> <PUBCHEM_ATOM_UDEF_STEREO_COUNT>
0

> <PUBCHEM_BOND_DEF_STEREO_COUNT>
0

> <PUBCHEM_BOND_UDEF_STEREO_COUNT>
0

> <PUBCHEM_ISOTOPIC_ATOM_COUNT>
0

> <PUBCHEM_COMPONENT_COUNT>
1

> <PUBCHEM_CACTVS_TAUTO_COUNT>
1

> <PUBCHEM_CONFORMER_ID>
0000209800000001

> <PUBCHEM_MMFF94_ENERGY>
57.4275

> <PUBCHEM_FEATURE_SELFOVERLAP>
25.372

> <PUBCHEM_SHAPE_FINGERPRINT>
104564 63 18189042132072582779
10498660 4 18052551975752631719
10756046 5 18336815451432258182
10759866 29 18343302565345634015
12054548 360 17829890932251674751
13134695 92 17627505274663026544
13583140 156 17559099094295562235
13836976 161 18194407925120597053
14251745 187 17828203198945666882
14251751 93 18410284800803441813
15210252 30 17839761269983499397
16945 1 18046611327486479514
17357779 13 17971763164268148551
17921350 177 16696143081030400917
17980427 26 16845296098272128560
20645477 70 18054215802996266017
21285901 2 17827060827881689430
23559900 14 18114164347577900964
23566358 2 18188473736227081750
238 59 18197223765888648013
2871803 45 18263643961694076983
3060560 45 18268422619654188196
53917941 68 18340201891690964156
81228 2 17760069732269963528

> <PUBCHEM_SHAPE_MULTIPOLES>
376.37
6.71
3.93
1.37
2.18
1.91
0.3
-3.16
-3.37
2.6
-0.57
0.27
-0.6
-0.37

> <PUBCHEM_SHAPE_SELFOVERLAP>
763.024

> <PUBCHEM_SHAPE_VOLUME>
220.4

> <PUBCHEM_COORDINATE_TYPE>
2
5
10

$$$$

