6009
  -OEChem-06261201033D

 34 35  0     1  0  0  0  0  0999 V2000
    0.6350   -2.0085    0.3333 O   0  0  0  0  0  0  0  0  0  0  0  0
    0.3248    1.4319    0.0412 N   0  0  2  0  0  0  0  0  0  0  0  0
   -0.2845    0.1800    0.2138 N   0  0  0  0  0  0  0  0  0  0  0  0
    3.1629   -0.7792   -0.1850 N   0  0  0  0  0  0  0  0  0  0  0  0
    1.6810    1.2032   -0.1795 C   0  0  0  0  0  0  0  0  0  0  0  0
    2.0050   -0.0945   -0.0789 C   0  0  0  0  0  0  0  0  0  0  0  0
    0.7173   -0.7962    0.2137 C   0  0  0  0  0  0  0  0  0  0  0  0
   -1.6773   -0.0370    0.0657 C   0  0  0  0  0  0  0  0  0  0  0  0
    2.6223    2.3307   -0.4419 C   0  0  0  0  0  0  0  0  0  0  0  0
   -0.1217    2.5440    0.8744 C   0  0  0  0  0  0  0  0  0  0  0  0
    4.3022   -0.5171    0.6985 C   0  0  0  0  0  0  0  0  0  0  0  0
    3.2786   -1.9848   -1.0101 C   0  0  0  0  0  0  0  0  0  0  0  0
   -2.2551   -1.2306    0.5097 C   0  0  0  0  0  0  0  0  0  0  0  0
   -2.4840    0.9409   -0.5247 C   0  0  0  0  0  0  0  0  0  0  0  0
   -3.6259   -1.4443    0.3645 C   0  0  0  0  0  0  0  0  0  0  0  0
   -3.8548    0.7271   -0.6698 C   0  0  0  0  0  0  0  0  0  0  0  0
   -4.4257   -0.4655   -0.2251 C   0  0  0  0  0  0  0  0  0  0  0  0
    3.6161    1.9776   -0.7340 H   0  0  0  0  0  0  0  0  0  0  0  0
    2.7356    2.9558    0.4492 H   0  0  0  0  0  0  0  0  0  0  0  0
    2.2467    2.9558   -1.2588 H   0  0  0  0  0  0  0  0  0  0  0  0
    0.0869    3.4955    0.3739 H   0  0  0  0  0  0  0  0  0  0  0  0
    0.4081    2.5370    1.8342 H   0  0  0  0  0  0  0  0  0  0  0  0
   -1.1902    2.5214    1.1017 H   0  0  0  0  0  0  0  0  0  0  0  0
    4.1589    0.3903    1.2952 H   0  0  0  0  0  0  0  0  0  0  0  0
    5.2163   -0.3915    0.1091 H   0  0  0  0  0  0  0  0  0  0  0  0
    4.4425   -1.3548    1.3897 H   0  0  0  0  0  0  0  0  0  0  0  0
    4.2784   -2.0505   -1.4528 H   0  0  0  0  0  0  0  0  0  0  0  0
    2.5563   -1.9756   -1.8341 H   0  0  0  0  0  0  0  0  0  0  0  0
    3.1115   -2.8805   -0.4031 H   0  0  0  0  0  0  0  0  0  0  0  0
   -1.6731   -2.0043    0.9998 H   0  0  0  0  0  0  0  0  0  0  0  0
   -2.0740    1.8662   -0.9191 H   0  0  0  0  0  0  0  0  0  0  0  0
   -4.0720   -2.3700    0.7162 H   0  0  0  0  0  0  0  0  0  0  0  0
   -4.4768    1.4853   -1.1366 H   0  0  0  0  0  0  0  0  0  0  0  0
   -5.4928   -0.6321   -0.3386 H   0  0  0  0  0  0  0  0  0  0  0  0
  1  7  2  0  0  0  0
  2  3  1  0  0  0  0
  2  5  1  0  0  0  0
  2 10  1  0  0  0  0
  3  7  1  0  0  0  0
  3  8  1  0  0  0  0
  4  6  1  0  0  0  0
  4 11  1  0  0  0  0
  4 12  1  0  0  0  0
  5  6  2  0  0  0  0
  5  9  1  0  0  0  0
  6  7  1  0  0  0  0
  8 13  2  0  0  0  0
  8 14  1  0  0  0  0
  9 18  1  0  0  0  0
  9 19  1  0  0  0  0
  9 20  1  0  0  0  0
 10 21  1  0  0  0  0
 10 22  1  0  0  0  0
 10 23  1  0  0  0  0
 11 24  1  0  0  0  0
 11 25  1  0  0  0  0
 11 26  1  0  0  0  0
 12 27  1  0  0  0  0
 12 28  1  0  0  0  0
 12 29  1  0  0  0  0
 13 15  1  0  0  0  0
 13 30  1  0  0  0  0
 14 16  2  0  0  0  0
 14 31  1  0  0  0  0
 15 17  2  0  0  0  0
 15 32  1  0  0  0  0
 16 17  1  0  0  0  0
 16 33  1  0  0  0  0
 17 34  1  0  0  0  0
M  END
> <PUBCHEM_COMPOUND_CID>
6009

> <PUBCHEM_CONFORMER_RMSD>
0.6

> <PUBCHEM_CONFORMER_DIVERSEORDER>
1
3
2
4

> <PUBCHEM_MMFF94_PARTIAL_CHARGES>
22
1 -0.57
10 0.37
11 0.37
12 0.37
13 -0.15
14 -0.15
15 -0.15
16 -0.15
17 -0.15
2 -0.49
3 -0.16
30 0.15
31 0.15
32 0.15
33 0.15
34 0.15
4 -0.84
5 -0.04
6 0.11
7 0.62
8 0.12
9 0.14

> <PUBCHEM_EFFECTIVE_ROTOR_COUNT>
2

> <PUBCHEM_PHARMACOPHORE_FEATURES>
4
1 1 acceptor
1 4 cation
5 2 3 5 6 7 rings
6 8 13 14 15 16 17 rings

> <PUBCHEM_HEAVY_ATOM_COUNT>
17

> <PUBCHEM_ATOM_DEF_STEREO_COUNT>
0

> <PUBCHEM_ATOM_UDEF_STEREO_COUNT>
0

> <PUBCHEM_BOND_DEF_STEREO_COUNT>
0

> <PUBCHEM_BOND_UDEF_STEREO_COUNT>
0

> <PUBCHEM_ISOTOPIC_ATOM_COUNT>
0

> <PUBCHEM_COMPONENT_COUNT>
1

> <PUBCHEM_CACTVS_TAUTO_COUNT>
1

> <PUBCHEM_CONFORMER_ID>
0000177900000001

> <PUBCHEM_MMFF94_ENERGY>
71.7333

> <PUBCHEM_FEATURE_SELFOVERLAP>
20.297

> <PUBCHEM_SHAPE_FINGERPRINT>
10608611 8 18271530818946168109
10967382 1 18338796684974292472
11471102 20 18411421691478860365
11543360 7 15984808320738639247
116883 192 18189890005761135868
11806522 49 18409731781115082604
12032990 46 18408881858273598263
13134695 92 17822302296333720096
13140716 1 18412260627446251521
13296908 3 18410855443254273711
13583140 156 5038530047587843270
14115302 16 18130777984440329799
14252887 29 18113334236876999838
15196674 1 18341613672983700229
15219456 202 18270963445091808333
15536298 74 18410012100402835692
15848700 24 18335704970341820590
16945 1 18270114759195520128
18186145 218 17988928872728598045
200 152 18113625577752025791
20201158 50 18413108389856102891
20645477 70 18410013208757729335
20671657 53 18338793524089339804
21267235 1 18411974767682549059
21501925 9 18409452479365417608
221490 88 18341604859247065995
2334 1 18267862791846338408
23402539 116 18261967322283579686
23559900 14 18338240465841356930
2748010 2 18341328890317851136
3312278 4 18339643455209710777
335352 9 18341051929789683853
5104073 3 18341328899519748825
7364860 26 18335983052305183048
81228 2 18120080943167085720
8809292 202 18202279178524302435
9709674 26 18341890736760531243

> <PUBCHEM_SHAPE_MULTIPOLES>
329.04
7.67
2.37
0.84
2.18
0.78
0.02
-2.39
0.74
-1.27
-0.05
-0.14
0
0.48

> <PUBCHEM_SHAPE_SELFOVERLAP>
692.958

> <PUBCHEM_SHAPE_VOLUME>
187.9

> <PUBCHEM_COORDINATE_TYPE>
2
5
10

$$$$

