156280
  -OEChem-07051212593D

 22 23  0     0  0  0  0  0  0999 V2000
    1.6696    1.2943   -0.0109 O   0  0  0  0  0  0  0  0  0  0  0  0
   -3.1472    0.4718   -0.3524 O   0  0  0  0  0  0  0  0  0  0  0  0
   -1.0126    2.2726   -0.2553 O   0  0  0  0  0  0  0  0  0  0  0  0
    0.0561   -3.0277    0.0135 O   0  0  0  0  0  0  0  0  0  0  0  0
    0.8655   -0.8134    0.0001 C   0  0  0  0  0  0  0  0  0  0  0  0
    0.5575    0.5236   -0.0709 C   0  0  0  0  0  0  0  0  0  0  0  0
    2.2730   -0.8792    0.1114 C   0  0  0  0  0  0  0  0  0  0  0  0
    2.7155    0.4274    0.1011 C   0  0  0  0  0  0  0  0  0  0  0  0
   -0.7553    1.0760   -0.1926 C   0  0  0  0  0  0  0  0  0  0  0  0
   -0.1605   -1.8245   -0.0444 C   0  0  0  0  0  0  0  0  0  0  0  0
   -1.8422    0.0419   -0.2383 C   0  0  0  0  0  0  0  0  0  0  0  0
   -1.5488   -1.2716   -0.1694 C   0  0  0  0  0  0  0  0  0  0  0  0
    4.0523    1.0332    0.1842 C   0  0  0  0  0  0  0  0  0  0  0  0
   -3.7230    0.6755    0.9237 C   0  0  0  0  0  0  0  0  0  0  0  0
    2.8906   -1.7627    0.1901 H   0  0  0  0  0  0  0  0  0  0  0  0
   -2.3443   -2.0109   -0.2051 H   0  0  0  0  0  0  0  0  0  0  0  0
    4.8287    0.2669    0.2724 H   0  0  0  0  0  0  0  0  0  0  0  0
    4.2617    1.6264   -0.7113 H   0  0  0  0  0  0  0  0  0  0  0  0
    4.1232    1.6898    1.0569 H   0  0  0  0  0  0  0  0  0  0  0  0
   -3.7715   -0.2599    1.4922 H   0  0  0  0  0  0  0  0  0  0  0  0
   -4.7462    1.0363    0.7822 H   0  0  0  0  0  0  0  0  0  0  0  0
   -3.1744    1.4335    1.4938 H   0  0  0  0  0  0  0  0  0  0  0  0
  1  6  1  0  0  0  0
  1  8  1  0  0  0  0
  2 11  1  0  0  0  0
  2 14  1  0  0  0  0
  3  9  2  0  0  0  0
  4 10  2  0  0  0  0
  5  6  2  0  0  0  0
  5  7  1  0  0  0  0
  5 10  1  0  0  0  0
  6  9  1  0  0  0  0
  7  8  2  0  0  0  0
  7 15  1  0  0  0  0
  8 13  1  0  0  0  0
  9 11  1  0  0  0  0
 10 12  1  0  0  0  0
 11 12  2  0  0  0  0
 12 16  1  0  0  0  0
 13 17  1  0  0  0  0
 13 18  1  0  0  0  0
 13 19  1  0  0  0  0
 14 20  1  0  0  0  0
 14 21  1  0  0  0  0
 14 22  1  0  0  0  0
M  END
> <PUBCHEM_COMPOUND_CID>
156280

> <PUBCHEM_CONFORMER_RMSD>
0.4

> <PUBCHEM_CONFORMER_DIVERSEORDER>
1
3
2

> <PUBCHEM_MMFF94_PARTIAL_CHARGES>
16
1 -0.28
10 0.64
11 0.09
12 -0.14
13 0.18
14 0.28
15 0.15
16 0.15
2 -0.36
3 -0.57
4 -0.57
5 -0.09
6 0.05
7 -0.15
8 -0.04
9 0.64

> <PUBCHEM_EFFECTIVE_ROTOR_COUNT>
1

> <PUBCHEM_PHARMACOPHORE_FEATURES>
6
1 1 acceptor
1 2 acceptor
1 3 acceptor
1 4 acceptor
5 1 5 6 7 8 rings
6 5 6 9 10 11 12 rings

> <PUBCHEM_HEAVY_ATOM_COUNT>
14

> <PUBCHEM_ATOM_DEF_STEREO_COUNT>
0

> <PUBCHEM_ATOM_UDEF_STEREO_COUNT>
0

> <PUBCHEM_BOND_DEF_STEREO_COUNT>
0

> <PUBCHEM_BOND_UDEF_STEREO_COUNT>
0

> <PUBCHEM_ISOTOPIC_ATOM_COUNT>
0

> <PUBCHEM_COMPONENT_COUNT>
1

> <PUBCHEM_CACTVS_TAUTO_COUNT>
1

> <PUBCHEM_CONFORMER_ID>
0002627800000001

> <PUBCHEM_MMFF94_ENERGY>
27.2762

> <PUBCHEM_FEATURE_SELFOVERLAP>
30.549

> <PUBCHEM_SHAPE_FINGERPRINT>
10219947 1 18341891913639196293
10967382 1 18410857684947607926
11132069 177 18335989692197846800
11471102 20 18339084899208455789
12346645 44 18261107517165205657
12382932 28 18410855417189097064
13380535 76 18335987493311832294
14325111 11 18410294709213859308
15309172 13 18411416215384969529
15775835 57 18334574646228259856
161256 15 18121206843052647367
16945 1 18267028430130251407
17844478 74 17988919007257472805
17846911 113 18409738347904008360
18186145 218 18334010618406956284
193761 8 17762339518973920364
20510252 161 18261108517670896792
20588541 1 18335417937619334996
20645476 183 17845638262592033022
20871998 184 18117273645136712670
2334 1 18267023856053397655
23402539 116 18117571638504889839
23402655 69 18263096538654294005
23463225 33 18270687596480193970
23557571 272 17973709291486347676
23559900 14 18261951840008152548
2748010 2 18339357470406894343
528886 8 18410299090143811347
53812653 166 18334580113980207632
54173680 148 18124034525130124114
6333449 129 18337395920282758558
7364860 26 18046910651783036254
81228 2 17906747907313903650

> <PUBCHEM_SHAPE_MULTIPOLES>
264.64
5.26
2.23
0.68
0.73
1.18
-0.06
-2.4
-0.94
-0.16
0.07
-0.24
-0.06
-0.09

> <PUBCHEM_SHAPE_SELFOVERLAP>
577.843

> <PUBCHEM_SHAPE_VOLUME>
145

> <PUBCHEM_COORDINATE_TYPE>
2
5
10

$$$$

