53297355
  -OEChem-07051212583D

 60 64  0     1  0  0  0  0  0999 V2000
    1.2807   -2.1823    1.2653 O   0  0  0  0  0  0  0  0  0  0  0  0
    3.1281   -0.1863   -0.1186 O   0  0  0  0  0  0  0  0  0  0  0  0
   -1.6074   -0.1458   -2.1732 O   0  0  0  0  0  0  0  0  0  0  0  0
   -2.6468   -1.1311   -0.3329 O   0  0  0  0  0  0  0  0  0  0  0  0
   -1.6947   -3.0260    1.6853 O   0  0  0  0  0  0  0  0  0  0  0  0
   -3.6210    0.9198    0.2047 O   0  0  0  0  0  0  0  0  0  0  0  0
    3.3435    1.8375    0.9574 O   0  0  0  0  0  0  0  0  0  0  0  0
   -5.2181   -2.1901   -0.8573 O   0  0  0  0  0  0  0  0  0  0  0  0
   -7.3114   -0.8145    0.6941 O   0  0  0  0  0  0  0  0  0  0  0  0
   -7.1014    2.0491    0.3606 O   0  0  0  0  0  0  0  0  0  0  0  0
   -3.1817    3.6330    0.1819 O   0  0  0  0  0  0  0  0  0  0  0  0
    9.3749    0.0668   -0.1771 O   0  0  0  0  0  0  0  0  0  0  0  0
    0.0329   -1.5565    0.9348 C   0  0  1  0  0  0  0  0  0  0  0  0
    1.2435   -0.7500    1.2345 C   0  0  2  0  0  0  0  0  0  0  0  0
   -0.2799   -1.4486   -0.5376 C   0  0  2  0  0  0  0  0  0  0  0  0
    1.0358   -0.9101   -1.1629 C   0  0  2  0  0  0  0  0  0  0  0  0
    1.7149   -0.1019   -0.0309 C   0  0  2  0  0  0  0  0  0  0  0  0
   -1.0166   -1.7934    1.9494 C   0  0  0  0  0  0  0  0  0  0  0  0
   -1.4549   -0.4903   -0.7904 C   0  0  1  0  0  0  0  0  0  0  0  0
    0.7905   -0.1052   -2.3968 C   0  0  0  0  0  0  0  0  0  0  0  0
   -0.4462    0.1785   -2.8168 C   0  0  0  0  0  0  0  0  0  0  0  0
   -3.7893   -0.2964   -0.5200 C   0  0  2  0  0  0  0  0  0  0  0  0
    3.8264    0.8545    0.4170 C   0  0  0  0  0  0  0  0  0  0  0  0
   -5.0154   -1.0564   -0.0140 C   0  0  1  0  0  0  0  0  0  0  0  0
   -6.2648   -0.1757   -0.0386 C   0  0  2  0  0  0  0  0  0  0  0  0
   -4.7231    1.8136    0.0388 C   0  0  1  0  0  0  0  0  0  0  0  0
   -5.9966    1.1835    0.6077 C   0  0  1  0  0  0  0  0  0  0  0  0
    5.2881    0.6463    0.2614 C   0  0  0  0  0  0  0  0  0  0  0  0
   -4.3706    3.1157    0.7510 C   0  0  0  0  0  0  0  0  0  0  0  0
    6.1837    1.6004    0.7445 C   0  0  0  0  0  0  0  0  0  0  0  0
    5.7659   -0.5027   -0.3688 C   0  0  0  0  0  0  0  0  0  0  0  0
    7.5570    1.4057    0.5971 C   0  0  0  0  0  0  0  0  0  0  0  0
    7.1391   -0.6976   -0.5164 C   0  0  0  0  0  0  0  0  0  0  0  0
    8.0347    0.2566   -0.0334 C   0  0  0  0  0  0  0  0  0  0  0  0
    1.3393   -0.1842    2.1458 H   0  0  0  0  0  0  0  0  0  0  0  0
   -0.5104   -2.4387   -0.9513 H   0  0  0  0  0  0  0  0  0  0  0  0
    1.6754   -1.7622   -1.4324 H   0  0  0  0  0  0  0  0  0  0  0  0
    1.3689    0.9402   -0.0614 H   0  0  0  0  0  0  0  0  0  0  0  0
   -1.7481   -0.9805    1.9800 H   0  0  0  0  0  0  0  0  0  0  0  0
   -0.5836   -1.8710    2.9536 H   0  0  0  0  0  0  0  0  0  0  0  0
   -1.3004    0.4362   -0.2200 H   0  0  0  0  0  0  0  0  0  0  0  0
    1.6443    0.2054   -2.9909 H   0  0  0  0  0  0  0  0  0  0  0  0
   -0.6522    0.6852   -3.7490 H   0  0  0  0  0  0  0  0  0  0  0  0
   -2.3749   -3.1271    2.3728 H   0  0  0  0  0  0  0  0  0  0  0  0
   -3.9082   -0.0824   -1.5902 H   0  0  0  0  0  0  0  0  0  0  0  0
   -4.8365   -1.4421    0.9968 H   0  0  0  0  0  0  0  0  0  0  0  0
   -6.6388   -0.0547   -1.0621 H   0  0  0  0  0  0  0  0  0  0  0  0
   -4.8355    2.0327   -1.0319 H   0  0  0  0  0  0  0  0  0  0  0  0
   -5.9113    1.0642    1.6948 H   0  0  0  0  0  0  0  0  0  0  0  0
   -5.1648    3.8605    0.6432 H   0  0  0  0  0  0  0  0  0  0  0  0
   -4.1812    2.9392    1.8151 H   0  0  0  0  0  0  0  0  0  0  0  0
   -5.3803   -1.8690   -1.7607 H   0  0  0  0  0  0  0  0  0  0  0  0
   -7.0020   -0.9523    1.6057 H   0  0  0  0  0  0  0  0  0  0  0  0
    5.8318    2.5022    1.2383 H   0  0  0  0  0  0  0  0  0  0  0  0
    5.1043   -1.2706   -0.7595 H   0  0  0  0  0  0  0  0  0  0  0  0
   -7.1772    2.1725   -0.6010 H   0  0  0  0  0  0  0  0  0  0  0  0
   -2.9733    4.4579    0.6527 H   0  0  0  0  0  0  0  0  0  0  0  0
    8.2499    2.1524    0.9753 H   0  0  0  0  0  0  0  0  0  0  0  0
    7.4991   -1.5967   -1.0093 H   0  0  0  0  0  0  0  0  0  0  0  0
    9.5261   -0.7782   -0.6345 H   0  0  0  0  0  0  0  0  0  0  0  0
  1 13  1  0  0  0  0
  1 14  1  0  0  0  0
  2 17  1  0  0  0  0
  2 23  1  0  0  0  0
  3 19  1  0  0  0  0
  3 21  1  0  0  0  0
  4 19  1  0  0  0  0
  4 22  1  0  0  0  0
  5 18  1  0  0  0  0
  5 44  1  0  0  0  0
  6 22  1  0  0  0  0
  6 26  1  0  0  0  0
  7 23  2  0  0  0  0
  8 24  1  0  0  0  0
  8 52  1  0  0  0  0
  9 25  1  0  0  0  0
  9 53  1  0  0  0  0
 10 27  1  0  0  0  0
 10 56  1  0  0  0  0
 11 29  1  0  0  0  0
 11 57  1  0  0  0  0
 12 34  1  0  0  0  0
 12 60  1  0  0  0  0
 13 14  1  0  0  0  0
 13 15  1  0  0  0  0
 13 18  1  0  0  0  0
 14 17  1  0  0  0  0
 14 35  1  0  0  0  0
 15 16  1  0  0  0  0
 15 19  1  0  0  0  0
 15 36  1  0  0  0  0
 16 17  1  0  0  0  0
 16 20  1  0  0  0  0
 16 37  1  0  0  0  0
 17 38  1  0  0  0  0
 18 39  1  0  0  0  0
 18 40  1  0  0  0  0
 19 41  1  0  0  0  0
 20 21  2  0  0  0  0
 20 42  1  0  0  0  0
 21 43  1  0  0  0  0
 22 24  1  0  0  0  0
 22 45  1  0  0  0  0
 23 28  1  0  0  0  0
 24 25  1  0  0  0  0
 24 46  1  0  0  0  0
 25 27  1  0  0  0  0
 25 47  1  0  0  0  0
 26 27  1  0  0  0  0
 26 29  1  0  0  0  0
 26 48  1  0  0  0  0
 27 49  1  0  0  0  0
 28 30  2  0  0  0  0
 28 31  1  0  0  0  0
 29 50  1  0  0  0  0
 29 51  1  0  0  0  0
 30 32  1  0  0  0  0
 30 54  1  0  0  0  0
 31 33  2  0  0  0  0
 31 55  1  0  0  0  0
 32 34  2  0  0  0  0
 32 58  1  0  0  0  0
 33 34  1  0  0  0  0
 33 59  1  0  0  0  0
M  END
> <PUBCHEM_COMPOUND_CID>
53297355

> <PUBCHEM_CONFORMER_RMSD>
1

> <PUBCHEM_CONFORMER_DIVERSEORDER>
1
9
54
75
44
24
79
64
40
15
37
41
11
55
60
47
50
23
28
63
72
14
57
76
45
62
58
66
36
39
21
77
65
74
34
73
43
81
12
35
68
80
51
67
19
42
16
78
59
31
22
38
27
48
33
32
69
30
61
10
2
56
71
13
25
49
53
20
4
70
18
29
26
5
46
7
3
6
52
17
8

> <PUBCHEM_MMFF94_PARTIAL_CHARGES>
47
1 -0.3
10 -0.68
11 -0.68
12 -0.53
13 -0.04
14 -0.05
15 0.09
16 0.14
17 0.38
18 0.38
19 0.56
2 -0.43
20 -0.29
21 -0.07
22 0.56
23 0.63
24 0.28
25 0.28
26 0.28
27 0.28
28 0.09
29 0.28
3 -0.36
30 -0.15
31 -0.15
32 -0.15
33 -0.15
34 0.08
35 0.1
4 -0.56
42 0.15
43 0.15
44 0.4
5 -0.68
52 0.4
53 0.4
54 0.15
55 0.15
56 0.4
57 0.4
58 0.15
59 0.15
6 -0.56
60 0.45
7 -0.57
8 -0.68
9 -0.68

> <PUBCHEM_EFFECTIVE_ROTOR_COUNT>
9

> <PUBCHEM_PHARMACOPHORE_FEATURES>
20
1 1 acceptor
1 10 acceptor
1 10 donor
1 11 acceptor
1 11 donor
1 12 donor
1 3 acceptor
1 4 acceptor
1 5 acceptor
1 5 donor
1 6 acceptor
1 7 acceptor
1 8 acceptor
1 8 donor
1 9 acceptor
1 9 donor
6 1 13 14 15 16 17 rings
6 28 30 31 32 33 34 rings
6 3 15 16 19 20 21 rings
6 6 22 24 25 26 27 rings

> <PUBCHEM_HEAVY_ATOM_COUNT>
34

> <PUBCHEM_ATOM_DEF_STEREO_COUNT>
10

> <PUBCHEM_ATOM_UDEF_STEREO_COUNT>
1

> <PUBCHEM_BOND_DEF_STEREO_COUNT>
0

> <PUBCHEM_BOND_UDEF_STEREO_COUNT>
0

> <PUBCHEM_ISOTOPIC_ATOM_COUNT>
0

> <PUBCHEM_COMPONENT_COUNT>
1

> <PUBCHEM_CACTVS_TAUTO_COUNT>
4

> <PUBCHEM_CONFORMER_ID>
032D40CB00000001

> <PUBCHEM_MMFF94_ENERGY>
97.6049

> <PUBCHEM_FEATURE_SELFOVERLAP>
101.636

> <PUBCHEM_SHAPE_FINGERPRINT>
100830 39 18333731346796441488
10165383 225 18060139847271694666
10670039 82 18408610274738712177
10674148 151 18342178865696125104
11135609 99 11455590089647270817
11991303 11 16950570930506558622
12104220 1 18131072627691980301
12107698 1 18259988141208430793
12236239 1 16805605812243883966
13692115 27 16771248185993057163
13726171 33 17824254020221679353
13914758 101 18186518813633362730
14279260 333 18262241131592713714
14849402 71 18343582941122018368
14856354 85 18059852839928954383
14933364 13 18260830388837641204
15183329 4 15936411143705344608
15301273 46 17417817274311201702
15484559 13 5101664997676751153
15604295 49 17677624073429094872
15849732 13 17676205754493265932
15961568 22 18259984907689277269
19304152 47 18059001925979082281
19611394 137 18269265760895410459
19958102 18 15430304837945005492
21033648 29 18262531273887372080
21756936 100 18334304153530417503
21792961 116 16588020208326357791
21796203 349 16127506285866565893
22224240 67 17704072888829808962
23576562 1 16009614372909237737
244849 19 18191840475049249166
2838139 119 17967257489612872269
3009799 131 14129060318262079186
392239 28 18271233929690359777
4073 2 18200029535322438946
4093350 32 18335701689272415914
4098825 35 18040999540112610534
4339292 15 16733560299759602207
44802255 64 17603304830193254046
5385378 56 17988928916179905762
54039377 194 8285904801558610941
5758199 1 18131633391391100898
6201320 215 18041848440815858144
9689198 14 18407758149106005728

> <PUBCHEM_SHAPE_MULTIPOLES>
629.27
21.84
2.6
1.67
25.25
1.32
-0.88
8.79
2.81
-3.82
1.14
-0.37
-0.62
0.21

> <PUBCHEM_SHAPE_SELFOVERLAP>
1362.167

> <PUBCHEM_SHAPE_VOLUME>
340.3

> <PUBCHEM_COORDINATE_TYPE>
2
5
10

$$$$

