9061
  -OEChem-06261203223D

 24 25  0     0  0  0  0  0  0999 V2000
   -3.6052    0.5409   -1.0855 O   0  0  0  0  0  0  0  0  0  0  0  0
    3.1704    1.9920   -0.0311 O   0  0  0  0  0  0  0  0  0  0  0  0
   -0.4060   -2.1633   -0.0003 N   0  0  0  0  0  0  0  0  0  0  0  0
   -1.2780   -0.1871    0.5111 C   0  0  0  0  0  0  0  0  0  0  0  0
    0.1106   -0.0083    0.2571 C   0  0  0  0  0  0  0  0  0  0  0  0
    0.6340   -1.2633   -0.0612 C   0  0  0  0  0  0  0  0  0  0  0  0
   -2.2457    0.8636    0.8854 C   0  0  0  0  0  0  0  0  0  0  0  0
   -1.5656   -1.5223    0.3446 C   0  0  0  0  0  0  0  0  0  0  0  0
    0.9752    1.1042    0.2675 C   0  0  0  0  0  0  0  0  0  0  0  0
    1.9842   -1.4622   -0.3708 C   0  0  0  0  0  0  0  0  0  0  0  0
   -2.9248    1.5292   -0.3227 C   0  0  0  0  0  0  0  0  0  0  0  0
    2.3281    0.9204   -0.0400 C   0  0  0  0  0  0  0  0  0  0  0  0
    2.8228   -0.3439   -0.3540 C   0  0  0  0  0  0  0  0  0  0  0  0
   -1.7549    1.6363    1.4887 H   0  0  0  0  0  0  0  0  0  0  0  0
   -3.0207    0.4187    1.5234 H   0  0  0  0  0  0  0  0  0  0  0  0
   -2.4898   -2.0752    0.4398 H   0  0  0  0  0  0  0  0  0  0  0  0
   -0.3244   -3.1537   -0.1839 H   0  0  0  0  0  0  0  0  0  0  0  0
    0.5929    2.0918    0.5108 H   0  0  0  0  0  0  0  0  0  0  0  0
    2.3701   -2.4461   -0.6153 H   0  0  0  0  0  0  0  0  0  0  0  0
   -2.1874    2.0114   -0.9723 H   0  0  0  0  0  0  0  0  0  0  0  0
   -3.6475    2.2835    0.0033 H   0  0  0  0  0  0  0  0  0  0  0  0
    3.8767   -0.4706   -0.5907 H   0  0  0  0  0  0  0  0  0  0  0  0
   -4.2715    0.1321   -0.5070 H   0  0  0  0  0  0  0  0  0  0  0  0
    2.6653    2.7885    0.2063 H   0  0  0  0  0  0  0  0  0  0  0  0
  1 11  1  0  0  0  0
  1 23  1  0  0  0  0
  2 12  1  0  0  0  0
  2 24  1  0  0  0  0
  3  6  1  0  0  0  0
  3  8  1  0  0  0  0
  3 17  1  0  0  0  0
  4  5  1  0  0  0  0
  4  7  1  0  0  0  0
  4  8  2  0  0  0  0
  5  6  2  0  0  0  0
  5  9  1  0  0  0  0
  6 10  1  0  0  0  0
  7 11  1  0  0  0  0
  7 14  1  0  0  0  0
  7 15  1  0  0  0  0
  8 16  1  0  0  0  0
  9 12  2  0  0  0  0
  9 18  1  0  0  0  0
 10 13  2  0  0  0  0
 10 19  1  0  0  0  0
 11 20  1  0  0  0  0
 11 21  1  0  0  0  0
 12 13  1  0  0  0  0
 13 22  1  0  0  0  0
M  END
> <PUBCHEM_COMPOUND_CID>
9061

> <PUBCHEM_CONFORMER_RMSD>
0.6

> <PUBCHEM_CONFORMER_DIVERSEORDER>
1
5
3
2
4

> <PUBCHEM_MMFF94_PARTIAL_CHARGES>
19
1 -0.68
10 -0.15
11 0.28
12 0.08
13 -0.15
16 0.15
17 0.27
18 0.15
19 0.15
2 -0.53
22 0.15
23 0.4
24 0.45
3 0.03
4 -0.18
6 -0.15
7 0.18
8 -0.3
9 -0.15

> <PUBCHEM_EFFECTIVE_ROTOR_COUNT>
2

> <PUBCHEM_PHARMACOPHORE_FEATURES>
7
1 1 acceptor
1 1 donor
1 2 donor
1 3 cation
1 3 donor
5 3 4 5 6 8 rings
6 5 6 9 10 12 13 rings

> <PUBCHEM_HEAVY_ATOM_COUNT>
13

> <PUBCHEM_ATOM_DEF_STEREO_COUNT>
0

> <PUBCHEM_ATOM_UDEF_STEREO_COUNT>
0

> <PUBCHEM_BOND_DEF_STEREO_COUNT>
0

> <PUBCHEM_BOND_UDEF_STEREO_COUNT>
0

> <PUBCHEM_ISOTOPIC_ATOM_COUNT>
0

> <PUBCHEM_COMPONENT_COUNT>
1

> <PUBCHEM_CACTVS_TAUTO_COUNT>
8

> <PUBCHEM_CONFORMER_ID>
0000236500000001

> <PUBCHEM_MMFF94_ENERGY>
18.8379

> <PUBCHEM_FEATURE_SELFOVERLAP>
35.612

> <PUBCHEM_SHAPE_FINGERPRINT>
1 1 18267864059009559199
10608611 8 18411697664597404392
11206711 2 18118962481932317302
12138202 97 18339646637627652199
124424 183 17988360493926088650
13380535 21 18266156397239836146
13380535 76 18408889525016932018
13897977 150 18410006641446687456
14325111 11 18410570695375489457
14614273 12 18194116317888585161
14897335 6 18409172086615015872
14911166 2 18265041604319024214
15279308 100 18341323478885918188
16945 1 18265321992399983442
18186145 218 18262513818269978989
20715346 28 18130492089831488601
21501502 16 18409729530267584282
21639500 275 18338526347043069773
21947302 44 18410015467630653086
2334 1 18337102354999587466
23402655 69 18261960768580418901
23419403 2 14277703080082771002
23559900 14 18189313781203045718
25 1 18196649812017764277
2748010 2 18336813213501069518
528886 8 18409729603350457362
6333449 129 18338232665647899977

> <PUBCHEM_SHAPE_MULTIPOLES>
250.81
4.95
2.06
0.8
1.19
0.25
-0.03
-2.39
-1.07
-0.47
-0.01
0.45
-0.07
0.31

> <PUBCHEM_SHAPE_SELFOVERLAP>
542.927

> <PUBCHEM_SHAPE_VOLUME>
139

> <PUBCHEM_COORDINATE_TYPE>
2
5
10

$$$$

