585141
  -OEChem-06241222452D

 53 58  0     0  0  0  0  0  0999 V2000
    4.5390    0.0309    0.0000 O   0  0  0  0  0  0  0  0  0  0  0  0
    2.8070    0.0309    0.0000 O   0  0  0  0  0  0  0  0  0  0  0  0
    3.6730   -1.4691    0.0000 C   0  0  0  0  0  0  0  0  0  0  0  0
    4.5092   -2.9174    0.0000 C   0  0  0  0  0  0  0  0  0  0  0  0
    2.8368   -2.9174    0.0000 C   0  0  0  0  0  0  0  0  0  0  0  0
    2.9819   -3.3525    0.0000 C   0  0  0  0  0  0  0  0  0  0  0  0
    5.4717    1.2808    0.0000 C   0  0  0  0  0  0  0  0  0  0  0  0
    3.8563    1.7137    0.0000 C   0  0  0  0  0  0  0  0  0  0  0  0
    4.5390    1.0309    0.0000 C   0  0  0  0  0  0  0  0  0  0  0  0
    5.0388    2.8962    0.0000 C   0  0  0  0  0  0  0  0  0  0  0  0
    4.6285    3.1013    0.0000 C   0  0  0  0  0  0  0  0  0  0  0  0
    4.5092   -1.9519    0.0000 C   0  0  0  0  0  0  0  0  0  0  0  0
    2.8368   -1.9519    0.0000 C   0  0  0  0  0  0  0  0  0  0  0  0
    2.9819   -2.3072    0.0000 C   0  0  0  0  0  0  0  0  0  0  0  0
    3.6730   -3.2202    0.0000 C   0  0  0  0  0  0  0  0  0  0  0  0
    3.8876   -3.8293    0.0000 C   0  0  0  0  0  0  0  0  0  0  0  0
    2.0000   -3.4002    0.0000 C   0  0  0  0  0  0  0  0  0  0  0  0
    5.7216    2.2135    0.0000 C   0  0  0  0  0  0  0  0  0  0  0  0
    5.3677    2.3621    0.0000 C   0  0  0  0  0  0  0  0  0  0  0  0
    4.2335    2.5190    0.0000 C   0  0  0  0  0  0  0  0  0  0  0  0
    3.6510    2.7980    0.0000 C   0  0  0  0  0  0  0  0  0  0  0  0
    5.2892    3.8293    0.0000 C   0  0  0  0  0  0  0  0  0  0  0  0
    3.6730   -0.4691    0.0000 C   0  0  0  0  0  0  0  0  0  0  0  0
    2.8478   -3.9578    0.0000 H   0  0  0  0  0  0  0  0  0  0  0  0
    2.8912   -3.5350    0.0000 H   0  0  0  0  0  0  0  0  0  0  0  0
    5.1016   -3.1001    0.0000 H   0  0  0  0  0  0  0  0  0  0  0  0
    3.3081    1.4239    0.0000 H   0  0  0  0  0  0  0  0  0  0  0  0
    5.9101    0.8424    0.0000 H   0  0  0  0  0  0  0  0  0  0  0  0
    3.9662    0.7937    0.0000 H   0  0  0  0  0  0  0  0  0  0  0  0
    4.5636    3.2944    0.0000 H   0  0  0  0  0  0  0  0  0  0  0  0
    4.2954    3.6241    0.0000 H   0  0  0  0  0  0  0  0  0  0  0  0
    2.6383   -1.7912    0.0000 H   0  0  0  0  0  0  0  0  0  0  0  0
    2.3885   -2.4867    0.0000 H   0  0  0  0  0  0  0  0  0  0  0  0
    2.6247   -1.3692    0.0000 H   0  0  0  0  0  0  0  0  0  0  0  0
    2.2262   -2.0595    0.0000 H   0  0  0  0  0  0  0  0  0  0  0  0
    5.1198   -2.0595    0.0000 H   0  0  0  0  0  0  0  0  0  0  0  0
    4.7212   -1.3692    0.0000 H   0  0  0  0  0  0  0  0  0  0  0  0
    1.5188   -3.0093    0.0000 H   0  0  0  0  0  0  0  0  0  0  0  0
    1.8068   -3.9893    0.0000 H   0  0  0  0  0  0  0  0  0  0  0  0
    3.5782   -4.3666    0.0000 H   0  0  0  0  0  0  0  0  0  0  0  0
    4.4127   -4.1588    0.0000 H   0  0  0  0  0  0  0  0  0  0  0  0
    3.3030   -3.7177    0.0000 H   0  0  0  0  0  0  0  0  0  0  0  0
    4.0430   -3.7177    0.0000 H   0  0  0  0  0  0  0  0  0  0  0  0
    6.2835    1.9515    0.0000 H   0  0  0  0  0  0  0  0  0  0  0  0
    6.0772    2.7214    0.0000 H   0  0  0  0  0  0  0  0  0  0  0  0
    5.9756    2.2402    0.0000 H   0  0  0  0  0  0  0  0  0  0  0  0
    5.6604    2.9087    0.0000 H   0  0  0  0  0  0  0  0  0  0  0  0
    4.1432    3.1324    0.0000 H   0  0  0  0  0  0  0  0  0  0  0  0
    3.6200    2.6092    0.0000 H   0  0  0  0  0  0  0  0  0  0  0  0
    3.4899    3.3967    0.0000 H   0  0  0  0  0  0  0  0  0  0  0  0
    3.0466    2.6597    0.0000 H   0  0  0  0  0  0  0  0  0  0  0  0
    5.9059    3.8932    0.0000 H   0  0  0  0  0  0  0  0  0  0  0  0
    5.0092    4.3825    0.0000 H   0  0  0  0  0  0  0  0  0  0  0  0
  1  9  1  0  0  0  0
  1 23  1  0  0  0  0
  2 23  2  0  0  0  0
  3 12  1  0  0  0  0
  3 13  1  0  0  0  0
  3 14  1  0  0  0  0
  3 23  1  0  0  0  0
  4 12  1  0  0  0  0
  4 15  1  0  0  0  0
  4 16  1  0  0  0  0
  4 26  1  0  0  0  0
  5 13  1  0  0  0  0
  5 15  1  0  0  0  0
  5 17  1  0  0  0  0
  5 25  1  0  0  0  0
  6 14  1  0  0  0  0
  6 16  1  0  0  0  0
  6 17  1  0  0  0  0
  6 24  1  0  0  0  0
  7  9  1  0  0  0  0
  7 18  1  0  0  0  0
  7 19  1  0  0  0  0
  7 28  1  0  0  0  0
  8  9  1  0  0  0  0
  8 20  1  0  0  0  0
  8 21  1  0  0  0  0
  8 27  1  0  0  0  0
  9 29  1  0  0  0  0
 10 18  1  0  0  0  0
 10 20  1  0  0  0  0
 10 22  1  0  0  0  0
 10 30  1  0  0  0  0
 11 19  1  0  0  0  0
 11 21  1  0  0  0  0
 11 22  1  0  0  0  0
 11 31  1  0  0  0  0
 12 36  1  0  0  0  0
 12 37  1  0  0  0  0
 13 34  1  0  0  0  0
 13 35  1  0  0  0  0
 14 32  1  0  0  0  0
 14 33  1  0  0  0  0
 15 42  1  0  0  0  0
 15 43  1  0  0  0  0
 16 40  1  0  0  0  0
 16 41  1  0  0  0  0
 17 38  1  0  0  0  0
 17 39  1  0  0  0  0
 18 44  1  0  0  0  0
 18 45  1  0  0  0  0
 19 46  1  0  0  0  0
 19 47  1  0  0  0  0
 20 48  1  0  0  0  0
 20 49  1  0  0  0  0
 21 50  1  0  0  0  0
 21 51  1  0  0  0  0
 22 52  1  0  0  0  0
 22 53  1  0  0  0  0
M  END
> <PUBCHEM_COMPOUND_CID>
585141

> <PUBCHEM_COMPOUND_CANONICALIZED>
1

> <PUBCHEM_CACTVS_COMPLEXITY>
467

> <PUBCHEM_CACTVS_HBOND_ACCEPTOR>
2

> <PUBCHEM_CACTVS_HBOND_DONOR>
0

> <PUBCHEM_CACTVS_ROTATABLE_BOND>
3

> <PUBCHEM_CACTVS_SUBSKEYS>
AAADceB4MAAAAAAAAAAAAAAAAAAAAAAAAAAwYMGDAAAAAAAAAAAAGgAAAAAADxSggAIACAAABAAIAACQCAAAAAAAAAAAAAEAAAAAABIAAAACAAAEAAAAAAGIyOCPAAAAAAAAAABAAAQAABAAAAAAAAAAAA==

> <PUBCHEM_IUPAC_OPENEYE_NAME>
2-adamantyl adamantane-1-carboxylate

> <PUBCHEM_IUPAC_CAS_NAME>
1-adamantanecarboxylic acid 2-adamantyl ester

> <PUBCHEM_IUPAC_NAME>
2-adamantyl adamantane-1-carboxylate

> <PUBCHEM_IUPAC_SYSTEMATIC_NAME>
2-adamantyl adamantane-1-carboxylate

> <PUBCHEM_IUPAC_TRADITIONAL_NAME>
adamantane-1-carboxylic acid 2-adamantyl ester

> <PUBCHEM_IUPAC_INCHI>
InChI=1S/C21H30O2/c22-20(21-9-14-2-15(10-21)4-16(3-14)11-21)23-19-17-5-12-1-13(7-17)8-18(19)6-12/h12-19H,1-11H2

> <PUBCHEM_IUPAC_INCHIKEY>
HCSCVWJWMLYUDD-UHFFFAOYSA-N

> <PUBCHEM_XLOGP3_AA>
5.1

> <PUBCHEM_EXACT_MASS>
314.22458

> <PUBCHEM_MOLECULAR_FORMULA>
C21H30O2

> <PUBCHEM_MOLECULAR_WEIGHT>
314.4617

> <PUBCHEM_OPENEYE_CAN_SMILES>
C1C2CC3CC1CC(C2)C3OC(=O)C45CC6CC(C4)CC(C6)C5

> <PUBCHEM_OPENEYE_ISO_SMILES>
C1C2CC3CC1CC(C2)C3OC(=O)C45CC6CC(C4)CC(C6)C5

> <PUBCHEM_CACTVS_TPSA>
26.3

> <PUBCHEM_MONOISOTOPIC_WEIGHT>
314.22458

> <PUBCHEM_TOTAL_CHARGE>
0

> <PUBCHEM_HEAVY_ATOM_COUNT>
23

> <PUBCHEM_ATOM_DEF_STEREO_COUNT>
0

> <PUBCHEM_ATOM_UDEF_STEREO_COUNT>
0

> <PUBCHEM_BOND_DEF_STEREO_COUNT>
0

> <PUBCHEM_BOND_UDEF_STEREO_COUNT>
0

> <PUBCHEM_ISOTOPIC_ATOM_COUNT>
0

> <PUBCHEM_COMPONENT_COUNT>
1

> <PUBCHEM_CACTVS_TAUTO_COUNT>
1

> <PUBCHEM_COORDINATE_TYPE>
1
5
255

$$$$

