656722
  -OEChem-07051213043D

 73 76  0     1  0  0  0  0  0999 V2000
   -1.3763   -0.2425    3.0541 P   0  0  0  0  0  0  0  0  0  0  0  0
    4.4403   -2.0321    1.7569 P   0  0  0  0  0  0  0  0  0  0  0  0
    5.9302    0.3934   -1.8382 P   0  0  0  0  0  0  0  0  0  0  0  0
    0.6685    2.3427    0.5026 O   0  0  0  0  0  0  0  0  0  0  0  0
   -2.8610    2.9919    0.3277 O   0  0  0  0  0  0  0  0  0  0  0  0
    1.4282    0.8089   -1.0965 O   0  0  0  0  0  0  0  0  0  0  0  0
   -1.0679    1.0976    2.1959 O   0  0  0  0  0  0  0  0  0  0  0  0
    3.3569   -0.8815    1.4334 O   0  0  0  0  0  0  0  0  0  0  0  0
    4.3262    0.5616   -1.7531 O   0  0  0  0  0  0  0  0  0  0  0  0
    3.4047    2.5192    0.1566 O   0  0  0  0  0  0  0  0  0  0  0  0
   -2.1285    5.6347   -0.3469 O   0  0  0  0  0  0  0  0  0  0  0  0
    0.2557   -1.8108   -1.8036 O   0  0  0  0  0  0  0  0  0  0  0  0
   -0.4945   -0.0295    4.3928 O   0  0  0  0  0  0  0  0  0  0  0  0
   -2.8937   -0.0257    3.5698 O   0  0  0  0  0  0  0  0  0  0  0  0
   -1.1237   -1.5308    2.3269 O   0  0  0  0  0  0  0  0  0  0  0  0
    3.8129   -2.7467    3.0648 O   0  0  0  0  0  0  0  0  0  0  0  0
    4.2059   -3.1244    0.5877 O   0  0  0  0  0  0  0  0  0  0  0  0
    6.3126    1.2922   -3.1269 O   0  0  0  0  0  0  0  0  0  0  0  0
    6.4769    1.2727   -0.5960 O   0  0  0  0  0  0  0  0  0  0  0  0
    5.8538   -1.5528    1.9133 O   0  0  0  0  0  0  0  0  0  0  0  0
    6.4207   -1.0241   -1.8859 O   0  0  0  0  0  0  0  0  0  0  0  0
   -0.3735   -3.6885   -0.6138 O   0  0  0  0  0  0  0  0  0  0  0  0
   -3.6584    0.8465   -0.3015 N   0  0  0  0  0  0  0  0  0  0  0  0
   -4.5105    0.2738   -2.2804 N   0  0  0  0  0  0  0  0  0  0  0  0
   -4.6546   -0.8734    1.0948 N   0  0  0  0  0  0  0  0  0  0  0  0
   -6.0622   -2.3748   -0.2169 N   0  0  0  0  0  0  0  0  0  0  0  0
   -6.3669   -2.1160   -2.5764 N   0  0  0  0  0  0  0  0  0  0  0  0
   -0.6661    2.1975    0.0667 C   0  0  1  0  0  0  0  0  0  0  0  0
   -1.4338    1.1256    0.8172 C   0  0  2  0  0  0  0  0  0  0  0  0
   -1.4957    3.4400    0.3406 C   0  0  1  0  0  0  0  0  0  0  0  0
   -2.8843    1.5947    0.6903 C   0  0  1  0  0  0  0  0  0  0  0  0
    1.4175    1.1479    0.2887 C   0  0  1  0  0  0  0  0  0  0  0  0
    2.8430    1.3729    0.7970 C   0  0  1  0  0  0  0  0  0  0  0  0
    3.7274    0.1533    0.5279 C   0  0  2  0  0  0  0  0  0  0  0  0
    3.5943   -0.3413   -0.9183 C   0  0  1  0  0  0  0  0  0  0  0  0
    2.1403   -0.3925   -1.4189 C   0  0  1  0  0  0  0  0  0  0  0  0
   -1.3044    4.5353   -0.6932 C   0  0  0  0  0  0  0  0  0  0  0  0
    1.3743   -1.6298   -0.9550 C   0  0  0  0  0  0  0  0  0  0  0  0
   -4.4365   -0.2528   -0.0743 C   0  0  0  0  0  0  0  0  0  0  0  0
   -3.7354    1.1245   -1.6406 C   0  0  0  0  0  0  0  0  0  0  0  0
   -4.9554   -0.5925   -1.3135 C   0  0  0  0  0  0  0  0  0  0  0  0
   -5.7971   -1.6992   -1.3610 C   0  0  0  0  0  0  0  0  0  0  0  0
   -0.5446   -2.8868   -1.5222 C   0  0  0  0  0  0  0  0  0  0  0  0
   -5.4830   -1.9265    0.9230 C   0  0  0  0  0  0  0  0  0  0  0  0
   -1.6820   -2.9518   -2.4958 C   0  0  0  0  0  0  0  0  0  0  0  0
   -0.7011    1.9869   -1.0107 H   0  0  0  0  0  0  0  0  0  0  0  0
   -1.2668    0.1336    0.3846 H   0  0  0  0  0  0  0  0  0  0  0  0
   -1.2926    3.8444    1.3406 H   0  0  0  0  0  0  0  0  0  0  0  0
   -3.4373    1.5284    1.6320 H   0  0  0  0  0  0  0  0  0  0  0  0
    0.9765    0.3399    0.8765 H   0  0  0  0  0  0  0  0  0  0  0  0
    2.8032    1.5949    1.8704 H   0  0  0  0  0  0  0  0  0  0  0  0
    4.7572    0.4347    0.7518 H   0  0  0  0  0  0  0  0  0  0  0  0
    4.0341   -1.3325   -1.0465 H   0  0  0  0  0  0  0  0  0  0  0  0
    2.1649   -0.4081   -2.5163 H   0  0  0  0  0  0  0  0  0  0  0  0
   -1.6076    4.1936   -1.6882 H   0  0  0  0  0  0  0  0  0  0  0  0
   -0.2629    4.8695   -0.7257 H   0  0  0  0  0  0  0  0  0  0  0  0
    1.0353   -1.5589    0.0812 H   0  0  0  0  0  0  0  0  0  0  0  0
    2.0149   -2.5138   -1.0522 H   0  0  0  0  0  0  0  0  0  0  0  0
    4.2962    2.6522    0.5215 H   0  0  0  0  0  0  0  0  0  0  0  0
   -3.2070    1.9496   -2.0982 H   0  0  0  0  0  0  0  0  0  0  0  0
   -1.9892    6.3211   -1.0215 H   0  0  0  0  0  0  0  0  0  0  0  0
   -0.4378   -0.7601    5.0448 H   0  0  0  0  0  0  0  0  0  0  0  0
   -3.3396   -0.7539    4.0526 H   0  0  0  0  0  0  0  0  0  0  0  0
   -5.7163   -2.4913    1.8193 H   0  0  0  0  0  0  0  0  0  0  0  0
    4.3361   -3.4368    3.5253 H   0  0  0  0  0  0  0  0  0  0  0  0
    4.8003   -3.9032    0.5394 H   0  0  0  0  0  0  0  0  0  0  0  0
    7.2375    1.2841   -3.4535 H   0  0  0  0  0  0  0  0  0  0  0  0
    7.4382    1.2727   -0.4011 H   0  0  0  0  0  0  0  0  0  0  0  0
   -6.1696   -1.6144   -3.4318 H   0  0  0  0  0  0  0  0  0  0  0  0
   -6.9747   -2.9237   -2.5854 H   0  0  0  0  0  0  0  0  0  0  0  0
   -2.2125   -1.9965   -2.5106 H   0  0  0  0  0  0  0  0  0  0  0  0
   -2.3846   -3.7291   -2.1823 H   0  0  0  0  0  0  0  0  0  0  0  0
   -1.3024   -3.1955   -3.4909 H   0  0  0  0  0  0  0  0  0  0  0  0
  1  7  1  0  0  0  0
  1 13  1  0  0  0  0
  1 14  1  0  0  0  0
  1 15  2  0  0  0  0
  2  8  1  0  0  0  0
  2 16  1  0  0  0  0
  2 17  1  0  0  0  0
  2 20  2  0  0  0  0
  3  9  1  0  0  0  0
  3 18  1  0  0  0  0
  3 19  1  0  0  0  0
  3 21  2  0  0  0  0
  4 28  1  0  0  0  0
  4 32  1  0  0  0  0
  5 30  1  0  0  0  0
  5 31  1  0  0  0  0
  6 32  1  0  0  0  0
  6 36  1  0  0  0  0
  7 29  1  0  0  0  0
  8 34  1  0  0  0  0
  9 35  1  0  0  0  0
 10 33  1  0  0  0  0
 10 59  1  0  0  0  0
 11 37  1  0  0  0  0
 11 61  1  0  0  0  0
 12 38  1  0  0  0  0
 12 43  1  0  0  0  0
 13 62  1  0  0  0  0
 14 63  1  0  0  0  0
 16 65  1  0  0  0  0
 17 66  1  0  0  0  0
 18 67  1  0  0  0  0
 19 68  1  0  0  0  0
 22 43  2  0  0  0  0
 23 31  1  0  0  0  0
 23 39  1  0  0  0  0
 23 40  1  0  0  0  0
 24 40  2  0  0  0  0
 24 41  1  0  0  0  0
 25 39  2  0  0  0  0
 25 44  1  0  0  0  0
 26 42  1  0  0  0  0
 26 44  2  0  0  0  0
 27 42  1  0  0  0  0
 27 69  1  0  0  0  0
 27 70  1  0  0  0  0
 28 29  1  0  0  0  0
 28 30  1  0  0  0  0
 28 46  1  0  0  0  0
 29 31  1  0  0  0  0
 29 47  1  0  0  0  0
 30 37  1  0  0  0  0
 30 48  1  0  0  0  0
 31 49  1  0  0  0  0
 32 33  1  0  0  0  0
 32 50  1  0  0  0  0
 33 34  1  0  0  0  0
 33 51  1  0  0  0  0
 34 35  1  0  0  0  0
 34 52  1  0  0  0  0
 35 36  1  0  0  0  0
 35 53  1  0  0  0  0
 36 38  1  0  0  0  0
 36 54  1  0  0  0  0
 37 55  1  0  0  0  0
 37 56  1  0  0  0  0
 38 57  1  0  0  0  0
 38 58  1  0  0  0  0
 39 41  1  0  0  0  0
 40 60  1  0  0  0  0
 41 42  2  0  0  0  0
 43 45  1  0  0  0  0
 44 64  1  0  0  0  0
 45 71  1  0  0  0  0
 45 72  1  0  0  0  0
 45 73  1  0  0  0  0
M  END
> <PUBCHEM_COMPOUND_CID>
656722

> <PUBCHEM_CONFORMER_RMSD>
1.4

> <PUBCHEM_CONFORMER_DIVERSEORDER>
2
9
6
5
7
3
11
12
10
4
8
1

> <PUBCHEM_MMFF94_PARTIAL_CHARGES>
57
1 1.51
10 -0.68
11 -0.68
12 -0.43
13 -0.77
14 -0.77
15 -0.7
16 -0.77
17 -0.77
18 -0.77
19 -0.77
2 1.51
20 -0.7
21 -0.7
22 -0.57
23 0.05
24 -0.57
25 -0.57
26 -0.62
27 -0.9
28 0.28
29 0.28
3 1.51
30 0.28
31 0.54
32 0.56
33 0.28
34 0.28
35 0.28
36 0.28
37 0.28
38 0.28
39 0.11
4 -0.56
40 0.04
41 0.23
42 0.41
43 0.66
44 0.47
45 0.06
5 -0.56
59 0.4
6 -0.56
60 0.15
61 0.4
62 0.5
63 0.5
64 0.15
65 0.5
66 0.5
67 0.5
68 0.5
69 0.4
7 -0.55
70 0.4
8 -0.55
9 -0.55

> <PUBCHEM_EFFECTIVE_ROTOR_COUNT>
15.2

> <PUBCHEM_PHARMACOPHORE_FEATURES>
29
1 10 acceptor
1 10 donor
1 11 acceptor
1 11 donor
1 13 acceptor
1 14 acceptor
1 15 acceptor
1 16 acceptor
1 17 acceptor
1 18 acceptor
1 19 acceptor
1 20 acceptor
1 21 acceptor
1 22 acceptor
1 27 cation
1 27 donor
1 4 acceptor
1 5 acceptor
1 6 acceptor
3 23 24 40 cation
3 23 25 39 cation
3 25 26 44 cation
4 1 13 14 15 anion
4 2 16 17 20 anion
4 3 18 19 21 anion
5 23 24 39 40 41 rings
5 5 28 29 30 31 rings
6 25 26 39 41 42 44 rings
6 6 32 33 34 35 36 rings

> <PUBCHEM_HEAVY_ATOM_COUNT>
45

> <PUBCHEM_ATOM_DEF_STEREO_COUNT>
9

> <PUBCHEM_ATOM_UDEF_STEREO_COUNT>
0

> <PUBCHEM_BOND_DEF_STEREO_COUNT>
0

> <PUBCHEM_BOND_UDEF_STEREO_COUNT>
0

> <PUBCHEM_ISOTOPIC_ATOM_COUNT>
0

> <PUBCHEM_COMPONENT_COUNT>
1

> <PUBCHEM_CACTVS_TAUTO_COUNT>
3

> <PUBCHEM_CONFORMER_ID>
000A055200000002

> <PUBCHEM_MMFF94_ENERGY>
9.7201

> <PUBCHEM_FEATURE_SELFOVERLAP>
147.927

> <PUBCHEM_SHAPE_FINGERPRINT>
11007060 377 18260814987728827556
12788726 201 18410856581425894972
13560911 43 18337395941800014135
15328829 1 18272379672573105910
21796203 349 17905852969911479833
23559900 14 17543342113685987796
392239 28 16009330750047757882
4403749 210 18045812184454669328
469060 322 18262499456289653309
6669772 16 18053962657523463929

> <PUBCHEM_SHAPE_MULTIPOLES>
801.21
14.31
4.61
3.34
6.18
3.74
2.54
-6.99
-6.48
-2.77
-1.11
0.77
-1.51
-2.68

> <PUBCHEM_SHAPE_SELFOVERLAP>
1650.657

> <PUBCHEM_SHAPE_VOLUME>
461.8

> <PUBCHEM_COORDINATE_TYPE>
2
5
10

$$$$

