5458383
  -OEChem-07051213153D

 70 73  0     1  0  0  0  0  0999 V2000
   -0.3252    0.4872    0.1943 O   0  0  0  0  0  0  0  0  0  0  0  0
   -0.6555   -4.3975    0.3859 O   0  0  0  0  0  0  0  0  0  0  0  0
    0.3372   -0.6591   -2.4355 O   0  0  0  0  0  0  0  0  0  0  0  0
   -1.0217    0.1268    2.3782 O   0  0  0  0  0  0  0  0  0  0  0  0
   -3.5647    4.2057    0.8206 O   0  0  0  0  0  0  0  0  0  0  0  0
    2.2941   -0.3975   -1.2194 N   0  0  0  0  0  0  0  0  0  0  0  0
    1.5726   -0.9496    0.9537 C   0  0  2  0  0  0  0  0  0  0  0  0
    0.3255   -0.7921    0.0198 C   0  0  1  0  0  0  0  0  0  0  0  0
    2.7240   -0.3134    0.1492 C   0  0  2  0  0  0  0  0  0  0  0  0
    1.7956   -2.4323    1.3821 C   0  0  1  0  0  0  0  0  0  0  0  0
   -0.6618   -1.9866    0.1047 C   0  0  2  0  0  0  0  0  0  0  0  0
    0.0459   -3.3243   -0.2481 C   0  0  1  0  0  0  0  0  0  0  0  0
    0.9380   -0.6290   -1.3711 C   0  0  0  0  0  0  0  0  0  0  0  0
    1.4854   -3.3741    0.2339 C   0  0  0  0  0  0  0  0  0  0  0  0
    2.9702    1.1415    0.5402 C   0  0  0  0  0  0  0  0  0  0  0  0
    3.1295   -2.6537    2.1072 C   0  0  0  0  0  0  0  0  0  0  0  0
   -1.9220   -1.8243   -0.7313 C   0  0  0  0  0  0  0  0  0  0  0  0
    2.3779   -4.1717   -0.3745 C   0  0  0  0  0  0  0  0  0  0  0  0
    4.2794    1.6474   -0.0008 C   0  0  0  0  0  0  0  0  0  0  0  0
   -3.1486   -1.6871   -0.2021 C   0  0  0  0  0  0  0  0  0  0  0  0
   -0.9890    0.7717    1.3440 C   0  0  0  0  0  0  0  0  0  0  0  0
   -4.4215   -1.6104   -1.0006 C   0  0  0  0  0  0  0  0  0  0  0  0
    5.4328    1.5131    0.7607 C   0  0  0  0  0  0  0  0  0  0  0  0
    4.3181    2.2427   -1.2547 C   0  0  0  0  0  0  0  0  0  0  0  0
   -5.2788   -0.3658   -0.6698 C   0  0  1  0  0  0  0  0  0  0  0  0
   -1.7815    1.9839    1.0718 C   0  0  0  0  0  0  0  0  0  0  0  0
   -4.6863    0.9069   -1.3149 C   0  0  0  0  0  0  0  0  0  0  0  0
    6.6468    1.9826    0.2593 C   0  0  0  0  0  0  0  0  0  0  0  0
    5.5322    2.7122   -1.7561 C   0  0  0  0  0  0  0  0  0  0  0  0
   -6.7178   -0.6034   -1.1433 C   0  0  0  0  0  0  0  0  0  0  0  0
   -5.3828    2.2295   -0.9474 C   0  0  0  0  0  0  0  0  0  0  0  0
    6.6965    2.5821   -0.9991 C   0  0  0  0  0  0  0  0  0  0  0  0
   -3.0562    1.9815    1.4745 C   0  0  0  0  0  0  0  0  0  0  0  0
   -5.3383    2.6100    0.5335 C   0  0  0  0  0  0  0  0  0  0  0  0
   -3.9500    3.0469    0.9554 C   0  0  0  0  0  0  0  0  0  0  0  0
    1.4372   -0.3845    1.8838 H   0  0  0  0  0  0  0  0  0  0  0  0
    3.6522   -0.8840    0.2255 H   0  0  0  0  0  0  0  0  0  0  0  0
    1.0388   -2.6471    2.1523 H   0  0  0  0  0  0  0  0  0  0  0  0
   -0.9991   -2.0584    1.1485 H   0  0  0  0  0  0  0  0  0  0  0  0
    0.0089   -3.5042   -1.3297 H   0  0  0  0  0  0  0  0  0  0  0  0
    2.9171   -0.2577   -2.0087 H   0  0  0  0  0  0  0  0  0  0  0  0
    2.9944    1.2383    1.6338 H   0  0  0  0  0  0  0  0  0  0  0  0
    2.1545    1.7949    0.2037 H   0  0  0  0  0  0  0  0  0  0  0  0
    3.9981   -2.5685    1.4486 H   0  0  0  0  0  0  0  0  0  0  0  0
    3.2499   -1.9269    2.9180 H   0  0  0  0  0  0  0  0  0  0  0  0
    3.1583   -3.6535    2.5557 H   0  0  0  0  0  0  0  0  0  0  0  0
   -1.8204   -1.8626   -1.8122 H   0  0  0  0  0  0  0  0  0  0  0  0
    2.0827   -4.8073   -1.2034 H   0  0  0  0  0  0  0  0  0  0  0  0
    3.4173   -4.2168   -0.0728 H   0  0  0  0  0  0  0  0  0  0  0  0
   -0.6233   -4.2580    1.3478 H   0  0  0  0  0  0  0  0  0  0  0  0
   -3.2601   -1.6731    0.8796 H   0  0  0  0  0  0  0  0  0  0  0  0
   -4.2144   -1.6475   -2.0775 H   0  0  0  0  0  0  0  0  0  0  0  0
   -4.9929   -2.5171   -0.7636 H   0  0  0  0  0  0  0  0  0  0  0  0
    5.4060    1.0452    1.7409 H   0  0  0  0  0  0  0  0  0  0  0  0
    3.4176    2.3524   -1.8523 H   0  0  0  0  0  0  0  0  0  0  0  0
   -5.3031   -0.2479    0.4198 H   0  0  0  0  0  0  0  0  0  0  0  0
   -1.3605    2.7525    0.4339 H   0  0  0  0  0  0  0  0  0  0  0  0
   -4.7319    0.7998   -2.4072 H   0  0  0  0  0  0  0  0  0  0  0  0
   -3.6211    0.9852   -1.0761 H   0  0  0  0  0  0  0  0  0  0  0  0
    7.5536    1.8806    0.8483 H   0  0  0  0  0  0  0  0  0  0  0  0
    5.5709    3.1795   -2.7357 H   0  0  0  0  0  0  0  0  0  0  0  0
   -6.7686   -0.6846   -2.2343 H   0  0  0  0  0  0  0  0  0  0  0  0
   -7.1199   -1.5288   -0.7168 H   0  0  0  0  0  0  0  0  0  0  0  0
   -7.3811    0.2074   -0.8280 H   0  0  0  0  0  0  0  0  0  0  0  0
   -6.4287    2.1938   -1.2712 H   0  0  0  0  0  0  0  0  0  0  0  0
   -4.9135    3.0295   -1.5348 H   0  0  0  0  0  0  0  0  0  0  0  0
    7.6417    2.9476   -1.3896 H   0  0  0  0  0  0  0  0  0  0  0  0
   -3.5037    1.1565    2.0165 H   0  0  0  0  0  0  0  0  0  0  0  0
   -5.6977    1.8049    1.1808 H   0  0  0  0  0  0  0  0  0  0  0  0
   -6.0083    3.4600    0.7130 H   0  0  0  0  0  0  0  0  0  0  0  0
  1  8  1  0  0  0  0
  1 21  1  0  0  0  0
  2 12  1  0  0  0  0
  2 50  1  0  0  0  0
  3 13  2  0  0  0  0
  4 21  2  0  0  0  0
  5 35  2  0  0  0  0
  6  9  1  0  0  0  0
  6 13  1  0  0  0  0
  6 41  1  0  0  0  0
  7  8  1  0  0  0  0
  7  9  1  0  0  0  0
  7 10  1  0  0  0  0
  7 36  1  0  0  0  0
  8 11  1  0  0  0  0
  8 13  1  0  0  0  0
  9 15  1  0  0  0  0
  9 37  1  0  0  0  0
 10 14  1  0  0  0  0
 10 16  1  0  0  0  0
 10 38  1  0  0  0  0
 11 12  1  0  0  0  0
 11 17  1  0  0  0  0
 11 39  1  0  0  0  0
 12 14  1  0  0  0  0
 12 40  1  0  0  0  0
 14 18  2  0  0  0  0
 15 19  1  0  0  0  0
 15 42  1  0  0  0  0
 15 43  1  0  0  0  0
 16 44  1  0  0  0  0
 16 45  1  0  0  0  0
 16 46  1  0  0  0  0
 17 20  2  0  0  0  0
 17 47  1  0  0  0  0
 18 48  1  0  0  0  0
 18 49  1  0  0  0  0
 19 23  2  0  0  0  0
 19 24  1  0  0  0  0
 20 22  1  0  0  0  0
 20 51  1  0  0  0  0
 21 26  1  0  0  0  0
 22 25  1  0  0  0  0
 22 52  1  0  0  0  0
 22 53  1  0  0  0  0
 23 28  1  0  0  0  0
 23 54  1  0  0  0  0
 24 29  2  0  0  0  0
 24 55  1  0  0  0  0
 25 27  1  0  0  0  0
 25 30  1  0  0  0  0
 25 56  1  0  0  0  0
 26 33  2  0  0  0  0
 26 57  1  0  0  0  0
 27 31  1  0  0  0  0
 27 58  1  0  0  0  0
 27 59  1  0  0  0  0
 28 32  2  0  0  0  0
 28 60  1  0  0  0  0
 29 32  1  0  0  0  0
 29 61  1  0  0  0  0
 30 62  1  0  0  0  0
 30 63  1  0  0  0  0
 30 64  1  0  0  0  0
 31 34  1  0  0  0  0
 31 65  1  0  0  0  0
 31 66  1  0  0  0  0
 32 67  1  0  0  0  0
 33 35  1  0  0  0  0
 33 68  1  0  0  0  0
 34 35  1  0  0  0  0
 34 69  1  0  0  0  0
 34 70  1  0  0  0  0
M  END
> <PUBCHEM_COMPOUND_CID>
5458383

> <PUBCHEM_CONFORMER_RMSD>
0.8

> <PUBCHEM_CONFORMER_DIVERSEORDER>
1
2

> <PUBCHEM_MMFF94_PARTIAL_CHARGES>
42
1 -0.43
10 0.14
11 0.14
12 0.42
13 0.57
14 -0.28
15 0.14
17 -0.29
18 -0.3
19 -0.14
2 -0.68
20 -0.29
21 0.71
22 0.14
23 -0.15
24 -0.15
26 -0.14
28 -0.15
29 -0.15
3 -0.57
32 -0.15
33 -0.14
34 0.06
35 0.49
4 -0.57
41 0.37
47 0.15
48 0.15
49 0.15
5 -0.57
50 0.4
51 0.15
54 0.15
55 0.15
57 0.15
6 -0.73
60 0.15
61 0.15
67 0.15
68 0.15
8 0.34
9 0.3

> <PUBCHEM_EFFECTIVE_ROTOR_COUNT>
4

> <PUBCHEM_PHARMACOPHORE_FEATURES>
9
1 2 acceptor
1 2 donor
1 3 acceptor
1 4 acceptor
1 5 acceptor
1 6 donor
5 6 7 8 9 13 rings
6 19 23 24 28 29 32 rings
6 7 8 10 11 12 14 rings

> <PUBCHEM_HEAVY_ATOM_COUNT>
35

> <PUBCHEM_ATOM_DEF_STEREO_COUNT>
7

> <PUBCHEM_ATOM_UDEF_STEREO_COUNT>
0

> <PUBCHEM_BOND_DEF_STEREO_COUNT>
2

> <PUBCHEM_BOND_UDEF_STEREO_COUNT>
0

> <PUBCHEM_ISOTOPIC_ATOM_COUNT>
0

> <PUBCHEM_COMPONENT_COUNT>
1

> <PUBCHEM_CACTVS_TAUTO_COUNT>
4

> <PUBCHEM_CONFORMER_ID>
005349CF00000001

> <PUBCHEM_MMFF94_ENERGY>
95.6647

> <PUBCHEM_FEATURE_SELFOVERLAP>
45.981

> <PUBCHEM_SHAPE_FINGERPRINT>
10032420 55 18261122837371800393
10190206 1 18334288730324547456
10759866 29 18335144236617962559
12422481 6 17131843074713622956
12717326 150 13915092142730309324
12788726 201 18260832557558840251
13726171 33 17603855746197385985
14190465 44 18191032197360667128
14400156 266 18042680792814499350
14739800 52 18262816106679318496
14790565 3 18340207397327191524
15064981 113 18042950010096563356
15082195 135 18262521531978832878
15163728 17 18411409614173294516
15219648 60 18113627789602063722
15347590 135 17987226756284583115
15790856 291 18044374916198004702
21033648 144 18059854008434404189
21639891 77 17765426548578470251
21792965 68 18120092785405426524
23559900 14 17243575583788337167
244849 19 15840441460500894323
27425 322 17986952058813776817
3411729 13 18202292389728023790
4058900 60 18273497857953949826
469060 322 18198322006638316089
563151 74 16128389146543484112
563151 97 18412261735516113108
6034566 193 18058998480845098260
6058803 2 17972888235594267593
6608658 132 18115604655748090143
7226269 152 18192147101290427046
9981440 41 18340761563872097979

> <PUBCHEM_SHAPE_MULTIPOLES>
685.96
14.29
5.24
1.75
1.76
2.34
-0.08
-15.46
4.56
0.88
-0.69
0.23
-0.24
-3.17

> <PUBCHEM_SHAPE_SELFOVERLAP>
1452.626

> <PUBCHEM_SHAPE_VOLUME>
378.9

> <PUBCHEM_COORDINATE_TYPE>
2
5
10

$$$$

