442006
  -OEChem-07051212562D

 90 94  0     1  0  0  0  0  0999 V2000
    2.8990    4.5497    0.0000 O   0  0  0  0  0  0  0  0  0  0  0  0
    6.3402    1.6207    0.0000 O   0  0  0  0  0  0  0  0  0  0  0  0
    6.5580    4.6890    0.0000 O   0  0  0  0  0  0  0  0  0  0  0  0
    4.6326    6.7937    0.0000 O   0  0  0  0  0  0  0  0  0  0  0  0
    3.8222    6.9128    0.0000 O   0  0  0  0  0  0  0  0  0  0  0  0
    2.4545    6.4997    0.0000 O   0  0  0  0  0  0  0  0  0  0  0  0
    5.4561    7.7769    0.0000 O   0  0  0  0  0  0  0  0  0  0  0  0
    5.3535    0.1972    0.0000 O   0  0  0  0  0  0  0  0  0  0  0  0
    4.6622    2.7838    0.0000 C   0  0  1  0  0  0  0  0  0  0  0  0
    5.5183    2.1904    0.0000 C   0  0  1  0  0  0  0  0  0  0  0  0
    4.5761    1.7453    0.0000 C   0  0  0  0  0  0  0  0  0  0  0  0
    4.7561    3.8212    0.0000 C   0  0  1  0  0  0  0  0  0  0  0  0
    5.6570    4.2551    0.0000 C   0  0  1  0  0  0  0  0  0  0  0  0
    3.8551    4.2551    0.0000 C   0  0  1  0  0  0  0  0  0  0  0  0
    6.4568    2.6424    0.0000 C   0  0  0  0  0  0  0  0  0  0  0  0
    6.5266    3.6816    0.0000 C   0  0  1  0  0  0  0  0  0  0  0  0
    3.6326    5.2300    0.0000 C   0  0  1  0  0  0  0  0  0  0  0  0
    5.8796    5.2300    0.0000 C   0  0  1  0  0  0  0  0  0  0  0  0
    3.5795    1.8277    0.0000 C   0  0  0  0  0  0  0  0  0  0  0  0
    5.0030    0.8410    0.0000 C   0  0  0  0  0  0  0  0  0  0  0  0
    5.2561    6.0118    0.0000 C   0  0  1  0  0  0  0  0  0  0  0  0
    4.2561    6.0118    0.0000 C   0  0  2  0  0  0  0  0  0  0  0  0
    7.5246    3.6184    0.0000 C   0  0  0  0  0  0  0  0  0  0  0  0
    3.4101    6.2049    0.0000 C   0  0  0  0  0  0  0  0  0  0  0  0
    6.8094    5.5817    0.0000 C   0  0  0  0  0  0  0  0  0  0  0  0
    5.8059    6.8400    0.0000 C   0  0  0  0  0  0  0  0  0  0  0  0
    6.7639    6.5748    0.0000 C   0  0  0  0  0  0  0  0  0  0  0  0
    6.2578    0.6241    0.0000 C   0  0  0  0  0  0  0  0  0  0  0  0
    7.5457    7.1982    0.0000 C   0  0  0  0  0  0  0  0  0  0  0  0
    7.0796    0.0545    0.0000 C   0  0  0  0  0  0  0  0  0  0  0  0
    6.9972   -0.9421    0.0000 C   0  0  0  0  0  0  0  0  0  0  0  0
    7.8191   -1.5118    0.0000 C   0  0  0  0  0  0  0  0  0  0  0  0
    7.7367   -2.5084    0.0000 C   0  0  0  0  0  0  0  0  0  0  0  0
    8.5586   -3.0781    0.0000 C   0  0  0  0  0  0  0  0  0  0  0  0
    8.4761   -4.0747    0.0000 C   0  0  0  0  0  0  0  0  0  0  0  0
    9.2980   -4.6444    0.0000 C   0  0  0  0  0  0  0  0  0  0  0  0
    9.2156   -5.6409    0.0000 C   0  0  0  0  0  0  0  0  0  0  0  0
   10.0375   -6.2106    0.0000 C   0  0  0  0  0  0  0  0  0  0  0  0
    9.9550   -7.2072    0.0000 C   0  0  0  0  0  0  0  0  0  0  0  0
   10.7769   -7.7769    0.0000 C   0  0  0  0  0  0  0  0  0  0  0  0
    3.8154    2.8572    0.0000 H   0  0  0  0  0  0  0  0  0  0  0  0
    4.0167    3.4019    0.0000 H   0  0  0  0  0  0  0  0  0  0  0  0
    3.5447    3.4638    0.0000 H   0  0  0  0  0  0  0  0  0  0  0  0
    6.6262    2.0460    0.0000 H   0  0  0  0  0  0  0  0  0  0  0  0
    7.0734    2.7073    0.0000 H   0  0  0  0  0  0  0  0  0  0  0  0
    6.7235    4.2696    0.0000 H   0  0  0  0  0  0  0  0  0  0  0  0
    6.5204    4.6716    0.0000 H   0  0  0  0  0  0  0  0  0  0  0  0
    3.6306    2.4456    0.0000 H   0  0  0  0  0  0  0  0  0  0  0  0
    2.9616    1.8788    0.0000 H   0  0  0  0  0  0  0  0  0  0  0  0
    3.5284    1.2098    0.0000 H   0  0  0  0  0  0  0  0  0  0  0  0
    4.4424    0.5763    0.0000 H   0  0  0  0  0  0  0  0  0  0  0  0
    5.2677    0.2803    0.0000 H   0  0  0  0  0  0  0  0  0  0  0  0
    5.5637    1.1057    0.0000 H   0  0  0  0  0  0  0  0  0  0  0  0
    4.5859    6.5368    0.0000 H   0  0  0  0  0  0  0  0  0  0  0  0
    7.4854    2.9997    0.0000 H   0  0  0  0  0  0  0  0  0  0  0  0
    8.1434    3.5793    0.0000 H   0  0  0  0  0  0  0  0  0  0  0  0
    7.5638    4.2372    0.0000 H   0  0  0  0  0  0  0  0  0  0  0  0
    4.0293    6.2358    0.0000 H   0  0  0  0  0  0  0  0  0  0  0  0
    3.4872    6.8201    0.0000 H   0  0  0  0  0  0  0  0  0  0  0  0
    7.1763    4.6426    0.0000 H   0  0  0  0  0  0  0  0  0  0  0  0
    7.3274    5.2411    0.0000 H   0  0  0  0  0  0  0  0  0  0  0  0
    4.8591    7.3708    0.0000 H   0  0  0  0  0  0  0  0  0  0  0  0
    3.2039    6.9591    0.0000 H   0  0  0  0  0  0  0  0  0  0  0  0
    2.0000    6.0780    0.0000 H   0  0  0  0  0  0  0  0  0  0  0  0
    7.9323    6.7135    0.0000 H   0  0  0  0  0  0  0  0  0  0  0  0
    8.0305    7.5848    0.0000 H   0  0  0  0  0  0  0  0  0  0  0  0
    7.1592    7.6830    0.0000 H   0  0  0  0  0  0  0  0  0  0  0  0
    7.6793   -0.1031    0.0000 H   0  0  0  0  0  0  0  0  0  0  0  0
    7.3390    0.6176    0.0000 H   0  0  0  0  0  0  0  0  0  0  0  0
    6.3976   -0.7845    0.0000 H   0  0  0  0  0  0  0  0  0  0  0  0
    6.7379   -1.5053    0.0000 H   0  0  0  0  0  0  0  0  0  0  0  0
    8.4187   -1.6694    0.0000 H   0  0  0  0  0  0  0  0  0  0  0  0
    8.0784   -0.9487    0.0000 H   0  0  0  0  0  0  0  0  0  0  0  0
    7.1370   -2.3508    0.0000 H   0  0  0  0  0  0  0  0  0  0  0  0
    7.4773   -3.0715    0.0000 H   0  0  0  0  0  0  0  0  0  0  0  0
    9.1582   -3.2357    0.0000 H   0  0  0  0  0  0  0  0  0  0  0  0
    8.8179   -2.5149    0.0000 H   0  0  0  0  0  0  0  0  0  0  0  0
    7.8765   -3.9171    0.0000 H   0  0  0  0  0  0  0  0  0  0  0  0
    8.2168   -4.6378    0.0000 H   0  0  0  0  0  0  0  0  0  0  0  0
    9.8976   -4.8020    0.0000 H   0  0  0  0  0  0  0  0  0  0  0  0
    9.5574   -4.0812    0.0000 H   0  0  0  0  0  0  0  0  0  0  0  0
    8.6160   -5.4833    0.0000 H   0  0  0  0  0  0  0  0  0  0  0  0
    8.9562   -6.2041    0.0000 H   0  0  0  0  0  0  0  0  0  0  0  0
   10.6371   -6.3682    0.0000 H   0  0  0  0  0  0  0  0  0  0  0  0
   10.2968   -5.6475    0.0000 H   0  0  0  0  0  0  0  0  0  0  0  0
    9.3554   -7.0496    0.0000 H   0  0  0  0  0  0  0  0  0  0  0  0
    9.6957   -7.7704    0.0000 H   0  0  0  0  0  0  0  0  0  0  0  0
   10.4237   -8.2864    0.0000 H   0  0  0  0  0  0  0  0  0  0  0  0
   11.2865   -8.1301    0.0000 H   0  0  0  0  0  0  0  0  0  0  0  0
   11.1301   -7.2673    0.0000 H   0  0  0  0  0  0  0  0  0  0  0  0
  1 14  1  0  0  0  0
  1 17  1  0  0  0  0
 10  2  1  6  0  0  0
  2 28  1  0  0  0  0
 13  3  1  6  0  0  0
  3 60  1  0  0  0  0
 21  4  1  1  0  0  0
  4 62  1  0  0  0  0
 22  5  1  1  0  0  0
  5 63  1  0  0  0  0
  6 24  1  0  0  0  0
  6 64  1  0  0  0  0
  7 26  2  0  0  0  0
  8 28  2  0  0  0  0
  9 10  1  0  0  0  0
  9 11  1  0  0  0  0
  9 12  1  0  0  0  0
  9 41  1  6  0  0  0
 10 11  1  0  0  0  0
 10 15  1  0  0  0  0
 11 19  1  0  0  0  0
 11 20  1  0  0  0  0
 12 13  1  0  0  0  0
 12 14  1  0  0  0  0
 12 42  1  1  0  0  0
 13 16  1  0  0  0  0
 13 18  1  0  0  0  0
 14 17  1  0  0  0  0
 14 43  1  1  0  0  0
 15 16  1  0  0  0  0
 15 44  1  0  0  0  0
 15 45  1  0  0  0  0
 16 23  1  6  0  0  0
 16 46  1  0  0  0  0
 17 22  1  0  0  0  0
 17 24  1  1  0  0  0
 18 21  1  0  0  0  0
 18 25  1  0  0  0  0
 18 47  1  6  0  0  0
 19 48  1  0  0  0  0
 19 49  1  0  0  0  0
 19 50  1  0  0  0  0
 20 51  1  0  0  0  0
 20 52  1  0  0  0  0
 20 53  1  0  0  0  0
 21 22  1  0  0  0  0
 21 26  1  0  0  0  0
 22 54  1  0  0  0  0
 23 55  1  0  0  0  0
 23 56  1  0  0  0  0
 23 57  1  0  0  0  0
 24 58  1  0  0  0  0
 24 59  1  0  0  0  0
 25 27  2  0  0  0  0
 25 61  1  0  0  0  0
 26 27  1  0  0  0  0
 27 29  1  0  0  0  0
 28 30  1  0  0  0  0
 29 65  1  0  0  0  0
 29 66  1  0  0  0  0
 29 67  1  0  0  0  0
 30 31  1  0  0  0  0
 30 68  1  0  0  0  0
 30 69  1  0  0  0  0
 31 32  1  0  0  0  0
 31 70  1  0  0  0  0
 31 71  1  0  0  0  0
 32 33  1  0  0  0  0
 32 72  1  0  0  0  0
 32 73  1  0  0  0  0
 33 34  1  0  0  0  0
 33 74  1  0  0  0  0
 33 75  1  0  0  0  0
 34 35  1  0  0  0  0
 34 76  1  0  0  0  0
 34 77  1  0  0  0  0
 35 36  1  0  0  0  0
 35 78  1  0  0  0  0
 35 79  1  0  0  0  0
 36 37  1  0  0  0  0
 36 80  1  0  0  0  0
 36 81  1  0  0  0  0
 37 38  1  0  0  0  0
 37 82  1  0  0  0  0
 37 83  1  0  0  0  0
 38 39  1  0  0  0  0
 38 84  1  0  0  0  0
 38 85  1  0  0  0  0
 39 40  1  0  0  0  0
 39 86  1  0  0  0  0
 39 87  1  0  0  0  0
 40 88  1  0  0  0  0
 40 89  1  0  0  0  0
 40 90  1  0  0  0  0
M  END
> <PUBCHEM_COMPOUND_CID>
442006

> <PUBCHEM_COMPOUND_CANONICALIZED>
1

> <PUBCHEM_CACTVS_COMPLEXITY>
1050

> <PUBCHEM_CACTVS_HBOND_ACCEPTOR>
8

> <PUBCHEM_CACTVS_HBOND_DONOR>
4

> <PUBCHEM_CACTVS_ROTATABLE_BOND>
13

> <PUBCHEM_CACTVS_SUBSKEYS>
AAADcfB8PAAAAAAAAAAAAAAAGiAAAQAAAAAwAAAABgwSAACAAAAAGgAACAAAD1SggAICCAAABgCIAqDSCAIAAAAgAAAACAFAAEgBEBYAAQACQAAF4AALAYPK7PzPgAAAAAAAAADCAAYAADAAAAAAAAAAAA==

> <PUBCHEM_IUPAC_INCHI>
InChI=1S/C32H50O8/c1-6-7-8-9-10-11-12-13-14-15-22(34)39-30-17-20(3)31(37)21-16-19(2)25(35)32(21,38)27(36)29(18-33)26(40-29)23(31)24(30)28(30,4)5/h16,20-21,23-24,26-27,33,36-38H,6-15,17-18H2,1-5H3/t20-,21+,23-,24-,26+,27-,29+,30+,31+,32-/m1/s1

> <PUBCHEM_IUPAC_INCHIKEY>
JGUYJMIAKPTIAH-MTAILJIJSA-N

> <PUBCHEM_XLOGP3_AA>
5.1

> <PUBCHEM_EXACT_MASS>
562.350569

> <PUBCHEM_MOLECULAR_FORMULA>
C32H50O8

> <PUBCHEM_MOLECULAR_WEIGHT>
562.7346

> <PUBCHEM_OPENEYE_CAN_SMILES>
CCCCCCCCCCCC(=O)OC12CC(C3(C4C=C(C(=O)C4(C(C5(C(C3C1C2(C)C)O5)CO)O)O)C)O)C

> <PUBCHEM_OPENEYE_ISO_SMILES>
CCCCCCCCCCCC(=O)O[C@@]12C[C@H]([C@@]3([C@@H]4C=C(C(=O)[C@]4([C@@H]([C@@]5([C@H]([C@H]3[C@@H]1C2(C)C)O5)CO)O)O)C)O)C

> <PUBCHEM_CACTVS_TPSA>
137

> <PUBCHEM_MONOISOTOPIC_WEIGHT>
562.350569

> <PUBCHEM_TOTAL_CHARGE>
0

> <PUBCHEM_HEAVY_ATOM_COUNT>
40

> <PUBCHEM_ATOM_DEF_STEREO_COUNT>
10

> <PUBCHEM_ATOM_UDEF_STEREO_COUNT>
0

> <PUBCHEM_BOND_DEF_STEREO_COUNT>
0

> <PUBCHEM_BOND_UDEF_STEREO_COUNT>
0

> <PUBCHEM_ISOTOPIC_ATOM_COUNT>
0

> <PUBCHEM_COMPONENT_COUNT>
1

> <PUBCHEM_CACTVS_TAUTO_COUNT>
3

> <PUBCHEM_COORDINATE_TYPE>
1
5
255

> <PUBCHEM_BONDANNOTATIONS>
12  42  5
14  43  5
16  23  6
17  24  5
18  47  6
10  2  6
13  3  6
21  4  5
22  5  5
9  41  6

$$$$

