46173966
  -OEChem-07051213103D

 55 58  0     1  0  0  0  0  0999 V2000
   -1.0655    0.7305    1.3285 O   0  0  0  0  0  0  0  0  0  0  0  0
   -1.6370   -1.3593   -1.6407 O   0  0  0  0  0  0  0  0  0  0  0  0
    0.6706    0.7271    2.9203 O   0  0  0  0  0  0  0  0  0  0  0  0
   -2.2437    2.6666   -0.3032 O   0  0  0  0  0  0  0  0  0  0  0  0
    0.2538    1.2040   -1.7887 O   0  0  0  0  0  0  0  0  0  0  0  0
    0.8430   -2.6169   -1.7174 O   0  0  0  0  0  0  0  0  0  0  0  0
    3.7139    1.6296   -1.9289 O   0  0  0  0  0  0  0  0  0  0  0  0
   -1.2841    0.4478   -0.0734 C   0  0  1  0  0  0  0  0  0  0  0  0
   -1.4777   -1.0792   -0.2439 C   0  0  2  0  0  0  0  0  0  0  0  0
   -0.2401   -1.8746    0.3363 C   0  0  2  0  0  0  0  0  0  0  0  0
    0.2730    0.2913    1.6259 C   0  0  2  0  0  0  0  0  0  0  0  0
    1.1152    0.9028    0.4761 C   0  0  2  0  0  0  0  0  0  0  0  0
    0.2139   -1.2468    1.6760 C   0  0  0  0  0  0  0  0  0  0  0  0
   -2.4601    1.2827   -0.5879 C   0  0  1  0  0  0  0  0  0  0  0  0
    0.0543    0.8986   -0.6192 C   0  0  0  0  0  0  0  0  0  0  0  0
   -2.8161   -1.4717    0.4383 C   0  0  0  0  0  0  0  0  0  0  0  0
   -3.7822    0.8595    0.0769 C   0  0  2  0  0  0  0  0  0  0  0  0
   -4.0062   -0.6492   -0.0703 C   0  0  0  0  0  0  0  0  0  0  0  0
    2.2990    0.0433    0.0593 C   0  0  0  0  0  0  0  0  0  0  0  0
    0.9182   -1.9243   -0.6983 C   0  0  0  0  0  0  0  0  0  0  0  0
   -0.5632   -3.3648    0.6094 C   0  0  0  0  0  0  0  0  0  0  0  0
    1.4420    2.3953    0.6904 C   0  0  0  0  0  0  0  0  0  0  0  0
    2.1907   -1.1883   -0.4723 C   0  0  0  0  0  0  0  0  0  0  0  0
    3.6840    0.6082    0.2583 C   0  0  2  0  0  0  0  0  0  0  0  0
   -4.9716    1.6307   -0.5026 C   0  0  0  0  0  0  0  0  0  0  0  0
    4.4180    0.7346   -1.0755 C   0  0  0  0  0  0  0  0  0  0  0  0
    4.4578   -0.2775    1.2267 C   0  0  0  0  0  0  0  0  0  0  0  0
   -0.5052   -1.5324    2.4576 H   0  0  0  0  0  0  0  0  0  0  0  0
    1.1741   -1.6602    2.0123 H   0  0  0  0  0  0  0  0  0  0  0  0
   -2.5324    1.1821   -1.6783 H   0  0  0  0  0  0  0  0  0  0  0  0
   -3.0511   -2.5222    0.2301 H   0  0  0  0  0  0  0  0  0  0  0  0
   -2.7438   -1.3606    1.5266 H   0  0  0  0  0  0  0  0  0  0  0  0
   -3.7370    1.1048    1.1468 H   0  0  0  0  0  0  0  0  0  0  0  0
   -4.9043   -0.9458    0.4852 H   0  0  0  0  0  0  0  0  0  0  0  0
   -4.1968   -0.8966   -1.1225 H   0  0  0  0  0  0  0  0  0  0  0  0
   -1.2730   -3.4878    1.4342 H   0  0  0  0  0  0  0  0  0  0  0  0
    0.3435   -3.9201    0.8796 H   0  0  0  0  0  0  0  0  0  0  0  0
   -0.9893   -3.8503   -0.2760 H   0  0  0  0  0  0  0  0  0  0  0  0
    2.0396    2.5601    1.5933 H   0  0  0  0  0  0  0  0  0  0  0  0
    1.9629    2.8322   -0.1689 H   0  0  0  0  0  0  0  0  0  0  0  0
    0.5241    2.9831    0.8197 H   0  0  0  0  0  0  0  0  0  0  0  0
    3.0670   -1.7404   -0.8003 H   0  0  0  0  0  0  0  0  0  0  0  0
   -0.8998   -0.9556   -2.1278 H   0  0  0  0  0  0  0  0  0  0  0  0
    0.3023    0.1229    3.5859 H   0  0  0  0  0  0  0  0  0  0  0  0
    3.6677    1.6017    0.7065 H   0  0  0  0  0  0  0  0  0  0  0  0
   -5.0409    1.4975   -1.5875 H   0  0  0  0  0  0  0  0  0  0  0  0
   -4.8943    2.7023   -0.2940 H   0  0  0  0  0  0  0  0  0  0  0  0
   -5.9107    1.2816   -0.0597 H   0  0  0  0  0  0  0  0  0  0  0  0
   -2.8385    3.1834   -0.8721 H   0  0  0  0  0  0  0  0  0  0  0  0
    4.5400   -0.2214   -1.5947 H   0  0  0  0  0  0  0  0  0  0  0  0
    5.4190    1.1500   -0.9124 H   0  0  0  0  0  0  0  0  0  0  0  0
    3.9124   -0.4082    2.1686 H   0  0  0  0  0  0  0  0  0  0  0  0
    5.4222    0.1829    1.4708 H   0  0  0  0  0  0  0  0  0  0  0  0
    4.6747   -1.2702    0.8177 H   0  0  0  0  0  0  0  0  0  0  0  0
    4.2230    1.6959   -2.7547 H   0  0  0  0  0  0  0  0  0  0  0  0
  1  8  1  0  0  0  0
  1 11  1  0  0  0  0
  2  9  1  0  0  0  0
  2 43  1  0  0  0  0
  3 11  1  0  0  0  0
  3 44  1  0  0  0  0
  4 14  1  0  0  0  0
  4 49  1  0  0  0  0
  5 15  2  0  0  0  0
  6 20  2  0  0  0  0
  7 26  1  0  0  0  0
  7 55  1  0  0  0  0
  8  9  1  0  0  0  0
  8 14  1  0  0  0  0
  8 15  1  0  0  0  0
  9 10  1  0  0  0  0
  9 16  1  0  0  0  0
 10 13  1  0  0  0  0
 10 20  1  0  0  0  0
 10 21  1  0  0  0  0
 11 12  1  0  0  0  0
 11 13  1  0  0  0  0
 12 15  1  0  0  0  0
 12 19  1  0  0  0  0
 12 22  1  0  0  0  0
 13 28  1  0  0  0  0
 13 29  1  0  0  0  0
 14 17  1  0  0  0  0
 14 30  1  0  0  0  0
 16 18  1  0  0  0  0
 16 31  1  0  0  0  0
 16 32  1  0  0  0  0
 17 18  1  0  0  0  0
 17 25  1  0  0  0  0
 17 33  1  0  0  0  0
 18 34  1  0  0  0  0
 18 35  1  0  0  0  0
 19 23  2  0  0  0  0
 19 24  1  0  0  0  0
 20 23  1  0  0  0  0
 21 36  1  0  0  0  0
 21 37  1  0  0  0  0
 21 38  1  0  0  0  0
 22 39  1  0  0  0  0
 22 40  1  0  0  0  0
 22 41  1  0  0  0  0
 23 42  1  0  0  0  0
 24 26  1  0  0  0  0
 24 27  1  0  0  0  0
 24 45  1  0  0  0  0
 25 46  1  0  0  0  0
 25 47  1  0  0  0  0
 25 48  1  0  0  0  0
 26 50  1  0  0  0  0
 26 51  1  0  0  0  0
 27 52  1  0  0  0  0
 27 53  1  0  0  0  0
 27 54  1  0  0  0  0
M  END
> <PUBCHEM_COMPOUND_CID>
46173966

> <PUBCHEM_CONFORMER_RMSD>
0.8

> <PUBCHEM_CONFORMER_DIVERSEORDER>
1

> <PUBCHEM_MMFF94_PARTIAL_CHARGES>
24
1 -0.56
10 0.06
11 0.56
12 0.2
14 0.28
15 0.45
19 -0.28
2 -0.68
20 0.49
23 -0.14
24 0.14
26 0.28
3 -0.68
4 -0.68
42 0.15
43 0.4
44 0.4
49 0.4
5 -0.57
55 0.4
6 -0.57
7 -0.68
8 0.34
9 0.28

> <PUBCHEM_EFFECTIVE_ROTOR_COUNT>
3.2

> <PUBCHEM_PHARMACOPHORE_FEATURES>
15
1 1 acceptor
1 2 acceptor
1 2 donor
1 27 hydrophobe
1 3 acceptor
1 3 donor
1 4 acceptor
1 4 donor
1 5 acceptor
1 6 acceptor
1 7 acceptor
1 7 donor
6 8 9 14 16 17 18 rings
7 10 11 12 13 19 20 23 rings
8 1 8 9 10 11 12 13 15 rings

> <PUBCHEM_HEAVY_ATOM_COUNT>
27

> <PUBCHEM_ATOM_DEF_STEREO_COUNT>
7

> <PUBCHEM_ATOM_UDEF_STEREO_COUNT>
1

> <PUBCHEM_BOND_DEF_STEREO_COUNT>
0

> <PUBCHEM_BOND_UDEF_STEREO_COUNT>
0

> <PUBCHEM_ISOTOPIC_ATOM_COUNT>
0

> <PUBCHEM_COMPONENT_COUNT>
1

> <PUBCHEM_CACTVS_TAUTO_COUNT>
3

> <PUBCHEM_CONFORMER_ID>
02C08F0E00000001

> <PUBCHEM_MMFF94_ENERGY>
100.5323

> <PUBCHEM_FEATURE_SELFOVERLAP>
77.588

> <PUBCHEM_SHAPE_FINGERPRINT>
10863032 1 18412543249147581238
10948715 1 18202280320547480102
11315181 36 17822559544375658708
11370993 70 18408328791008042645
12403814 3 18059864951710062868
12422481 6 17840333308040207434
12592029 89 18342738571683355810
12788726 201 17769930186718076146
13140716 1 18120373146829664019
13583140 156 16988549191875255040
14251745 187 18408892845074111755
144361 1 18409171042964564275
14790565 3 18341604949732003861
1601671 61 18410294735031421689
16945 1 18267030466081958322
20691752 17 18195269735867417991
22907989 373 18051674569478269180
23402539 116 18343312456628592180
23419403 2 14854162801493998570
23493267 7 18130792218120282339
23559900 14 18335695088012657606
238 59 17975168540705249573
2748010 2 18262505022203590422
298252 57 18342739623971266936
3323516 105 18186798097316857303
4340502 62 18337674221537080985
474 4 17203318988324789324
5845 1 7808556723809650126

> <PUBCHEM_SHAPE_MULTIPOLES>
514.56
6.9
2.75
1.7
0.19
1.11
0.41
-3.22
-1.21
0.76
-0.37
-0.99
-0.06
-0.03

> <PUBCHEM_SHAPE_SELFOVERLAP>
1129.686

> <PUBCHEM_SHAPE_VOLUME>
276

> <PUBCHEM_COORDINATE_TYPE>
2
5
10

$$$$

