582728
  -OEChem-06241222432D

 65 67  0     1  0  0  0  0  0999 V2000
    5.2927    1.4704    0.0000 O   0  0  0  0  0  0  0  0  0  0  0  0
    8.2747   -0.5562    0.0000 O   0  0  0  0  0  0  0  0  0  0  0  0
    6.5819    2.6272    0.0000 O   0  0  0  0  0  0  0  0  0  0  0  0
    8.9426   -1.3006    0.0000 O   0  0  0  0  0  0  0  0  0  0  0  0
    9.1602    4.9407    0.0000 O   0  0  0  0  0  0  0  0  0  0  0  0
    6.6284   -0.0182    0.0000 N   0  0  0  0  0  0  0  0  0  0  0  0
    7.6534   -2.4573    0.0000 N   0  0  0  0  0  0  0  0  0  0  0  0
    5.6964   -4.4792    0.0000 N   0  0  0  0  0  0  0  0  0  0  0  0
    6.9856   -1.7130    0.0000 C   0  0  3  0  0  0  0  0  0  0  0  0
    6.0071   -1.9192    0.0000 C   0  0  0  0  0  0  0  0  0  0  0  0
    5.6964   -2.8697    0.0000 C   0  0  0  0  0  0  0  0  0  0  0  0
    6.9390    0.9324    0.0000 C   0  0  3  0  0  0  0  0  0  0  0  0
    4.7502   -3.1745    0.0000 C   0  0  0  0  0  0  0  0  0  0  0  0
    7.2962   -0.7625    0.0000 C   0  0  0  0  0  0  0  0  0  0  0  0
    7.9176    1.1386    0.0000 C   0  0  0  0  0  0  0  0  0  0  0  0
    4.7502   -4.1745    0.0000 C   0  0  0  0  0  0  0  0  0  0  0  0
    6.2800   -3.6745    0.0000 C   0  0  0  0  0  0  0  0  0  0  0  0
    8.2282    2.0891    0.0000 C   0  0  0  0  0  0  0  0  0  0  0  0
    6.2712    1.6767    0.0000 C   0  0  0  0  0  0  0  0  0  0  0  0
    3.8842   -2.6745    0.0000 C   0  0  0  0  0  0  0  0  0  0  0  0
    3.8842   -4.6745    0.0000 C   0  0  0  0  0  0  0  0  0  0  0  0
    8.6319   -2.2511    0.0000 C   0  0  0  0  0  0  0  0  0  0  0  0
    3.0181   -3.1745    0.0000 C   0  0  0  0  0  0  0  0  0  0  0  0
    3.0181   -4.1745    0.0000 C   0  0  0  0  0  0  0  0  0  0  0  0
    4.6249    2.2147    0.0000 C   0  0  0  0  0  0  0  0  0  0  0  0
    7.5604    2.8334    0.0000 C   0  0  0  0  0  0  0  0  0  0  0  0
    9.2067    2.2953    0.0000 C   0  0  0  0  0  0  0  0  0  0  0  0
    3.6464    2.0085    0.0000 C   0  0  0  0  0  0  0  0  0  0  0  0
    2.9785    2.7528    0.0000 C   0  0  0  0  0  0  0  0  0  0  0  0
    7.8710    3.7839    0.0000 C   0  0  0  0  0  0  0  0  0  0  0  0
    9.5174    3.2458    0.0000 C   0  0  0  0  0  0  0  0  0  0  0  0
    9.2998   -2.9954    0.0000 C   0  0  0  0  0  0  0  0  0  0  0  0
    8.8495    3.9901    0.0000 C   0  0  0  0  0  0  0  0  0  0  0  0
    2.0000    2.5466    0.0000 C   0  0  0  0  0  0  0  0  0  0  0  0
    6.7930   -2.3023    0.0000 H   0  0  0  0  0  0  0  0  0  0  0  0
    5.9865   -1.2996    0.0000 H   0  0  0  0  0  0  0  0  0  0  0  0
    5.3932   -1.8318    0.0000 H   0  0  0  0  0  0  0  0  0  0  0  0
    7.3531    0.4709    0.0000 H   0  0  0  0  0  0  0  0  0  0  0  0
    7.9381    0.5189    0.0000 H   0  0  0  0  0  0  0  0  0  0  0  0
    8.5314    1.0512    0.0000 H   0  0  0  0  0  0  0  0  0  0  0  0
    6.0217   -0.1460    0.0000 H   0  0  0  0  0  0  0  0  0  0  0  0
    6.9000   -3.6745    0.0000 H   0  0  0  0  0  0  0  0  0  0  0  0
    7.4608   -3.0466    0.0000 H   0  0  0  0  0  0  0  0  0  0  0  0
    5.8890   -5.0685    0.0000 H   0  0  0  0  0  0  0  0  0  0  0  0
    3.8842   -2.0545    0.0000 H   0  0  0  0  0  0  0  0  0  0  0  0
    3.8842   -5.2945    0.0000 H   0  0  0  0  0  0  0  0  0  0  0  0
    2.4812   -2.8645    0.0000 H   0  0  0  0  0  0  0  0  0  0  0  0
    2.4812   -4.4845    0.0000 H   0  0  0  0  0  0  0  0  0  0  0  0
    5.1512    2.5424    0.0000 H   0  0  0  0  0  0  0  0  0  0  0  0
    4.3936    2.7900    0.0000 H   0  0  0  0  0  0  0  0  0  0  0  0
    6.9537    2.7055    0.0000 H   0  0  0  0  0  0  0  0  0  0  0  0
    9.6208    1.8338    0.0000 H   0  0  0  0  0  0  0  0  0  0  0  0
    3.1200    1.6809    0.0000 H   0  0  0  0  0  0  0  0  0  0  0  0
    3.8776    1.4333    0.0000 H   0  0  0  0  0  0  0  0  0  0  0  0
    3.5049    3.0805    0.0000 H   0  0  0  0  0  0  0  0  0  0  0  0
    2.7472    3.3281    0.0000 H   0  0  0  0  0  0  0  0  0  0  0  0
    7.4570    4.2454    0.0000 H   0  0  0  0  0  0  0  0  0  0  0  0
   10.1241    3.3737    0.0000 H   0  0  0  0  0  0  0  0  0  0  0  0
    8.8383   -3.4094    0.0000 H   0  0  0  0  0  0  0  0  0  0  0  0
    9.7138   -3.4568    0.0000 H   0  0  0  0  0  0  0  0  0  0  0  0
    9.7612   -2.5813    0.0000 H   0  0  0  0  0  0  0  0  0  0  0  0
    1.8721    3.1533    0.0000 H   0  0  0  0  0  0  0  0  0  0  0  0
    1.3933    2.4188    0.0000 H   0  0  0  0  0  0  0  0  0  0  0  0
    2.1279    1.9399    0.0000 H   0  0  0  0  0  0  0  0  0  0  0  0
    9.7669    5.0685    0.0000 H   0  0  0  0  0  0  0  0  0  0  0  0
  1 19  1  0  0  0  0
  1 25  1  0  0  0  0
  2 14  2  0  0  0  0
  3 19  2  0  0  0  0
  4 22  2  0  0  0  0
  5 33  1  0  0  0  0
  5 65  1  0  0  0  0
  6 12  1  0  0  0  0
  6 14  1  0  0  0  0
  6 41  1  0  0  0  0
  7  9  1  0  0  0  0
  7 22  1  0  0  0  0
  7 43  1  0  0  0  0
  8 16  1  0  0  0  0
  8 17  1  0  0  0  0
  8 44  1  0  0  0  0
  9 10  1  0  0  0  0
  9 14  1  0  0  0  0
  9 35  1  0  0  0  0
 10 11  1  0  0  0  0
 10 36  1  0  0  0  0
 10 37  1  0  0  0  0
 11 13  1  0  0  0  0
 11 17  2  0  0  0  0
 12 15  1  0  0  0  0
 12 19  1  0  0  0  0
 12 38  1  0  0  0  0
 13 16  1  0  0  0  0
 13 20  2  0  0  0  0
 15 18  1  0  0  0  0
 15 39  1  0  0  0  0
 15 40  1  0  0  0  0
 16 21  2  0  0  0  0
 17 42  1  0  0  0  0
 18 26  2  0  0  0  0
 18 27  1  0  0  0  0
 20 23  1  0  0  0  0
 20 45  1  0  0  0  0
 21 24  1  0  0  0  0
 21 46  1  0  0  0  0
 22 32  1  0  0  0  0
 23 24  2  0  0  0  0
 23 47  1  0  0  0  0
 24 48  1  0  0  0  0
 25 28  1  0  0  0  0
 25 49  1  0  0  0  0
 25 50  1  0  0  0  0
 26 30  1  0  0  0  0
 26 51  1  0  0  0  0
 27 31  2  0  0  0  0
 27 52  1  0  0  0  0
 28 29  1  0  0  0  0
 28 53  1  0  0  0  0
 28 54  1  0  0  0  0
 29 34  1  0  0  0  0
 29 55  1  0  0  0  0
 29 56  1  0  0  0  0
 30 33  2  0  0  0  0
 30 57  1  0  0  0  0
 31 33  1  0  0  0  0
 31 58  1  0  0  0  0
 32 59  1  0  0  0  0
 32 60  1  0  0  0  0
 32 61  1  0  0  0  0
 34 62  1  0  0  0  0
 34 63  1  0  0  0  0
 34 64  1  0  0  0  0
M  END
> <PUBCHEM_COMPOUND_CID>
582728

> <PUBCHEM_COMPOUND_CANONICALIZED>
1

> <PUBCHEM_CACTVS_COMPLEXITY>
679

> <PUBCHEM_CACTVS_HBOND_ACCEPTOR>
5

> <PUBCHEM_CACTVS_HBOND_DONOR>
4

> <PUBCHEM_CACTVS_ROTATABLE_BOND>
12

> <PUBCHEM_CACTVS_SUBSKEYS>
AAADceB7OAAAAAAAAAAAAAAAAAAAAWAAAAAwYAAAAAAAAFgB9AAAHgAQCAAADCzhngY+zvLJlgCoAzX3XACCgCAxIiAI2aG+bJgKZvLCkbOXcAhk1hHY2AeYyeCOoAAAAAACAABAAAAAAAQAAAAAAAAAAA==

> <PUBCHEM_IUPAC_OPENEYE_NAME>
butyl 2-[[2-acetamido-3-(1H-indol-3-yl)propanoyl]amino]-3-(4-hydroxyphenyl)propanoate

> <PUBCHEM_IUPAC_CAS_NAME>
2-[[2-acetamido-3-(1H-indol-3-yl)-1-oxopropyl]amino]-3-(4-hydroxyphenyl)propanoic acid butyl ester

> <PUBCHEM_IUPAC_NAME>
butyl 2-[[2-acetamido-3-(1H-indol-3-yl)propanoyl]amino]-3-(4-hydroxyphenyl)propanoate

> <PUBCHEM_IUPAC_SYSTEMATIC_NAME>
butyl 2-[[2-acetamido-3-(1H-indol-3-yl)propanoyl]amino]-3-(4-hydroxyphenyl)propanoate

> <PUBCHEM_IUPAC_TRADITIONAL_NAME>
2-[[2-acetamido-3-(1H-indol-3-yl)propanoyl]amino]-3-(4-hydroxyphenyl)propionic acid butyl ester

> <PUBCHEM_IUPAC_INCHI>
InChI=1S/C26H31N3O5/c1-3-4-13-34-26(33)24(14-18-9-11-20(31)12-10-18)29-25(32)23(28-17(2)30)15-19-16-27-22-8-6-5-7-21(19)22/h5-12,16,23-24,27,31H,3-4,13-15H2,1-2H3,(H,28,30)(H,29,32)

> <PUBCHEM_IUPAC_INCHIKEY>
MRBVTNFXDWDTFM-UHFFFAOYSA-N

> <PUBCHEM_XLOGP3>
3

> <PUBCHEM_EXACT_MASS>
465.226371

> <PUBCHEM_MOLECULAR_FORMULA>
C26H31N3O5

> <PUBCHEM_MOLECULAR_WEIGHT>
465.54144

> <PUBCHEM_OPENEYE_CAN_SMILES>
CCCCOC(=O)C(CC1=CC=C(C=C1)O)NC(=O)C(CC2=CNC3=CC=CC=C32)NC(=O)C

> <PUBCHEM_OPENEYE_ISO_SMILES>
CCCCOC(=O)C(CC1=CC=C(C=C1)O)NC(=O)C(CC2=CNC3=CC=CC=C32)NC(=O)C

> <PUBCHEM_CACTVS_TPSA>
121

> <PUBCHEM_MONOISOTOPIC_WEIGHT>
465.226371

> <PUBCHEM_TOTAL_CHARGE>
0

> <PUBCHEM_HEAVY_ATOM_COUNT>
34

> <PUBCHEM_ATOM_DEF_STEREO_COUNT>
0

> <PUBCHEM_ATOM_UDEF_STEREO_COUNT>
2

> <PUBCHEM_BOND_DEF_STEREO_COUNT>
0

> <PUBCHEM_BOND_UDEF_STEREO_COUNT>
0

> <PUBCHEM_ISOTOPIC_ATOM_COUNT>
0

> <PUBCHEM_COMPONENT_COUNT>
1

> <PUBCHEM_CACTVS_TAUTO_COUNT>
8

> <PUBCHEM_COORDINATE_TYPE>
1
5
255

> <PUBCHEM_BONDANNOTATIONS>
11  13  8
11  17  8
12  15  3
13  16  8
13  20  8
16  21  8
18  26  8
18  27  8
20  23  8
21  24  8
23  24  8
26  30  8
27  31  8
30  33  8
31  33  8
8  16  8
8  17  8
9  10  3

$$$$

