5280781
  -OEChem-07051212503D

 54 57  0     1  0  0  0  0  0999 V2000
    3.8965    0.6723   -0.2924 O   0  0  0  0  0  0  0  0  0  0  0  0
    3.1427   -1.5169   -0.5802 O   0  0  0  0  0  0  0  0  0  0  0  0
    7.8195   -0.4974   -0.6226 O   0  0  0  0  0  0  0  0  0  0  0  0
    7.1790    2.0806    0.5175 O   0  0  0  0  0  0  0  0  0  0  0  0
    5.7335   -2.4679    0.0454 O   0  0  0  0  0  0  0  0  0  0  0  0
    3.0954    3.1886    0.4707 O   0  0  0  0  0  0  0  0  0  0  0  0
   -1.2225   -0.2873   -1.9920 O   0  0  0  0  0  0  0  0  0  0  0  0
   -0.2997   -1.2017    2.6771 O   0  0  0  0  0  0  0  0  0  0  0  0
   -2.6523   -0.4945    1.8239 O   0  0  0  0  0  0  0  0  0  0  0  0
   -8.6038    0.9375    0.1678 O   0  0  0  0  0  0  0  0  0  0  0  0
    6.6031   -0.2170    0.0718 C   0  0  1  0  0  0  0  0  0  0  0  0
    6.2474    1.2499   -0.1706 C   0  0  1  0  0  0  0  0  0  0  0  0
    5.5005   -1.1452   -0.4379 C   0  0  2  0  0  0  0  0  0  0  0  0
    4.8329    1.5554    0.3277 C   0  0  1  0  0  0  0  0  0  0  0  0
    4.1238   -0.6931    0.0490 C   0  0  1  0  0  0  0  0  0  0  0  0
    4.4117    2.9824   -0.0085 C   0  0  0  0  0  0  0  0  0  0  0  0
    1.8399   -1.2583   -0.2720 C   0  0  0  0  0  0  0  0  0  0  0  0
    0.9444   -0.8988   -1.2792 C   0  0  0  0  0  0  0  0  0  0  0  0
    1.4041   -1.3554    1.0501 C   0  0  0  0  0  0  0  0  0  0  0  0
   -0.3886   -0.6369   -0.9610 C   0  0  0  0  0  0  0  0  0  0  0  0
   -0.8240   -0.7340    0.3601 C   0  0  0  0  0  0  0  0  0  0  0  0
    0.0715   -1.0935    1.3709 C   0  0  0  0  0  0  0  0  0  0  0  0
   -2.2365   -0.4490    0.6734 C   0  0  0  0  0  0  0  0  0  0  0  0
   -3.1113   -0.0932   -0.4777 C   0  0  0  0  0  0  0  0  0  0  0  0
   -2.5408   -0.0447   -1.6911 C   0  0  0  0  0  0  0  0  0  0  0  0
   -4.5485    0.1767   -0.3098 C   0  0  0  0  0  0  0  0  0  0  0  0
   -5.4713   -0.8684   -0.3890 C   0  0  0  0  0  0  0  0  0  0  0  0
   -4.9934    1.4782   -0.0693 C   0  0  0  0  0  0  0  0  0  0  0  0
   -6.8332   -0.6129   -0.2290 C   0  0  0  0  0  0  0  0  0  0  0  0
   -6.3553    1.7336    0.0910 C   0  0  0  0  0  0  0  0  0  0  0  0
   -7.2752    0.6881    0.0111 C   0  0  0  0  0  0  0  0  0  0  0  0
   -9.4894   -0.1775    0.0747 C   0  0  0  0  0  0  0  0  0  0  0  0
    6.8013   -0.4064    1.1341 H   0  0  0  0  0  0  0  0  0  0  0  0
    6.3361    1.4743   -1.2407 H   0  0  0  0  0  0  0  0  0  0  0  0
    5.5198   -1.1955   -1.5337 H   0  0  0  0  0  0  0  0  0  0  0  0
    4.7623    1.4289    1.4167 H   0  0  0  0  0  0  0  0  0  0  0  0
    4.0633   -0.8231    1.1376 H   0  0  0  0  0  0  0  0  0  0  0  0
    4.4039    3.1537   -1.0901 H   0  0  0  0  0  0  0  0  0  0  0  0
    5.0688    3.7201    0.4607 H   0  0  0  0  0  0  0  0  0  0  0  0
    8.4951    0.1154   -0.2850 H   0  0  0  0  0  0  0  0  0  0  0  0
    7.1030    1.8930    1.4687 H   0  0  0  0  0  0  0  0  0  0  0  0
    6.6211   -2.7330   -0.2510 H   0  0  0  0  0  0  0  0  0  0  0  0
    2.5223    2.5231    0.0529 H   0  0  0  0  0  0  0  0  0  0  0  0
    1.2865   -0.8232   -2.3082 H   0  0  0  0  0  0  0  0  0  0  0  0
    2.0981   -1.6540    1.8318 H   0  0  0  0  0  0  0  0  0  0  0  0
   -3.0787    0.1982   -2.5993 H   0  0  0  0  0  0  0  0  0  0  0  0
    0.4698   -1.4584    3.2135 H   0  0  0  0  0  0  0  0  0  0  0  0
   -5.1413   -1.8879   -0.5744 H   0  0  0  0  0  0  0  0  0  0  0  0
   -4.2888    2.3038   -0.0031 H   0  0  0  0  0  0  0  0  0  0  0  0
   -7.4927   -1.4709   -0.3026 H   0  0  0  0  0  0  0  0  0  0  0  0
   -6.6936    2.7491    0.2781 H   0  0  0  0  0  0  0  0  0  0  0  0
   -9.3018   -0.9077    0.8693 H   0  0  0  0  0  0  0  0  0  0  0  0
   -9.4614   -0.6315   -0.9216 H   0  0  0  0  0  0  0  0  0  0  0  0
  -10.5051    0.2033    0.2239 H   0  0  0  0  0  0  0  0  0  0  0  0
  1 14  1  0  0  0  0
  1 15  1  0  0  0  0
  2 15  1  0  0  0  0
  2 17  1  0  0  0  0
  3 11  1  0  0  0  0
  3 40  1  0  0  0  0
  4 12  1  0  0  0  0
  4 41  1  0  0  0  0
  5 13  1  0  0  0  0
  5 42  1  0  0  0  0
  6 16  1  0  0  0  0
  6 43  1  0  0  0  0
  7 20  1  0  0  0  0
  7 25  1  0  0  0  0
  8 22  1  0  0  0  0
  8 47  1  0  0  0  0
  9 23  2  0  0  0  0
 10 31  1  0  0  0  0
 10 32  1  0  0  0  0
 11 12  1  0  0  0  0
 11 13  1  0  0  0  0
 11 33  1  0  0  0  0
 12 14  1  0  0  0  0
 12 34  1  0  0  0  0
 13 15  1  0  0  0  0
 13 35  1  0  0  0  0
 14 16  1  0  0  0  0
 14 36  1  0  0  0  0
 15 37  1  0  0  0  0
 16 38  1  0  0  0  0
 16 39  1  0  0  0  0
 17 18  1  0  0  0  0
 17 19  2  0  0  0  0
 18 20  2  0  0  0  0
 18 44  1  0  0  0  0
 19 22  1  0  0  0  0
 19 45  1  0  0  0  0
 20 21  1  0  0  0  0
 21 22  2  0  0  0  0
 21 23  1  0  0  0  0
 23 24  1  0  0  0  0
 24 25  2  0  0  0  0
 24 26  1  0  0  0  0
 25 46  1  0  0  0  0
 26 27  2  0  0  0  0
 26 28  1  0  0  0  0
 27 29  1  0  0  0  0
 27 48  1  0  0  0  0
 28 30  2  0  0  0  0
 28 49  1  0  0  0  0
 29 31  2  0  0  0  0
 29 50  1  0  0  0  0
 30 31  1  0  0  0  0
 30 51  1  0  0  0  0
 32 52  1  0  0  0  0
 32 53  1  0  0  0  0
 32 54  1  0  0  0  0
M  END
> <PUBCHEM_COMPOUND_CID>
5280781

> <PUBCHEM_CONFORMER_RMSD>
0.8

> <PUBCHEM_CONFORMER_DIVERSEORDER>
1
41
105
96
2
82
90
79
130
135
129
35
24
44
136
66
133
47
132
108
37
92
114
67
134
63
15
53
139
4
30
112
98
83
106
110
74
125
93
117
54
103
119
64
131
128
13
77
91
14
20
25
141
80
21
56
100
71
122
95
72
121
7
69
84
115
18
28
81
123
49
70
23
140
32
3
43
113
111
116
45
39
59
102
46
109
9
120
22
94
58
42
68
12
78
76
5
11
8
138
126
87
97
33
107
65
61
62
31
73
89
26
57
127
60
75
50
10
101
36
34
88
99
19
38
40
17
27
29
51
55
124
85
6
52
16
104
86
137
118
48

> <PUBCHEM_MMFF94_PARTIAL_CHARGES>
44
1 -0.56
10 -0.36
11 0.28
12 0.28
13 0.28
14 0.28
15 0.56
16 0.28
17 0.08
18 -0.15
19 -0.15
2 -0.36
20 0.08
21 0.09
22 0.08
23 0.47
24 -0.01
25 -0.07
26 0.03
27 -0.15
28 -0.15
29 -0.15
3 -0.68
30 -0.15
31 0.08
32 0.28
4 -0.68
40 0.4
41 0.4
42 0.4
43 0.4
44 0.15
45 0.15
46 0.15
47 0.45
48 0.15
49 0.15
5 -0.68
50 0.15
51 0.15
6 -0.68
7 -0.16
8 -0.53
9 -0.57

> <PUBCHEM_EFFECTIVE_ROTOR_COUNT>
6.2

> <PUBCHEM_PHARMACOPHORE_FEATURES>
18
1 1 acceptor
1 10 acceptor
1 2 acceptor
1 3 acceptor
1 3 donor
1 4 acceptor
1 4 donor
1 5 acceptor
1 5 donor
1 6 acceptor
1 6 donor
1 7 acceptor
1 8 donor
1 9 acceptor
6 1 11 12 13 14 15 rings
6 17 18 19 20 21 22 rings
6 26 27 28 29 30 31 rings
6 7 20 21 23 24 25 rings

> <PUBCHEM_HEAVY_ATOM_COUNT>
32

> <PUBCHEM_ATOM_DEF_STEREO_COUNT>
5

> <PUBCHEM_ATOM_UDEF_STEREO_COUNT>
0

> <PUBCHEM_BOND_DEF_STEREO_COUNT>
0

> <PUBCHEM_BOND_UDEF_STEREO_COUNT>
0

> <PUBCHEM_ISOTOPIC_ATOM_COUNT>
0

> <PUBCHEM_COMPONENT_COUNT>
1

> <PUBCHEM_CACTVS_TAUTO_COUNT>
5

> <PUBCHEM_CONFORMER_ID>
0050940D00000001

> <PUBCHEM_MMFF94_ENERGY>
115.5623

> <PUBCHEM_FEATURE_SELFOVERLAP>
91.428

> <PUBCHEM_SHAPE_FINGERPRINT>
10 15 15123503705387569902
10050765 1 15070343345320178439
10165383 225 17561080307391609258
106641 1 14764343830360413046
10673678 19 18040714715045435276
11456790 92 18202288030578662848
11646440 116 17275098453349945157
11991303 11 17386013832175328903
12107698 1 18409449223474693780
12236239 1 17748829609640740774
12522641 24 17988652942676311514
12838862 33 16630536120476963983
13165053 68 18191872211216539151
13533116 47 17631740490395623994
13617811 41 15430031058742314233
13685833 64 8862944978518088516
13692114 37 17632008655474601235
14849402 71 18341328903229919716
14933364 13 18409449202210438271
15131766 46 18044665200474736276
15183329 4 15140959552243141139
15419008 145 18268158720174672584
15439362 3 17461456723884321272
1577012 14 17894639123480529454
15840311 113 18408602556772119901
16989713 51 16444206218755942303
16994733 274 18410858784850081081
18335252 114 18260274057265773756
19301679 30 17977109282594362250
19319366 153 16950285147572596766
20157964 124 18334574659804485582
20511986 3 17096379345800621280
20554085 129 17060342924243600995
21033648 29 18059579023749084592
21150785 3 17748827428018672843
21641784 216 16443333300189939361
21792961 116 16950278546529413767
22122407 14 18334284358184919312
22224240 67 17346878957789042755
22956985 138 14474742487667913162
23559900 14 17561075896180680038
23569914 2 17690616005137641509
23576562 1 16081953438172292881
249057 3 18113620084119810246
2747138 104 17203317932332351413
2838139 119 18408888416662538989
3092352 35 17967534584508905527
34797466 226 18261107500433703487
397830 11 18270952441580996083
4073 2 18201717298028586146
4093350 32 18408041831764653830
4098825 35 18334579053302646319
4325135 7 18333450945972296877
4625314 4 18408606972784132759
5265222 85 18114185194700744463
5385378 56 17131837615805252842
5758199 1 17775283885222281875

> <PUBCHEM_SHAPE_MULTIPOLES>
599.85
24.38
2.2
1.31
19.18
1.61
-0.31
7.46
0.61
-3.86
-0.32
0.35
-0.48
0.43

> <PUBCHEM_SHAPE_SELFOVERLAP>
1310.098

> <PUBCHEM_SHAPE_VOLUME>
322.9

> <PUBCHEM_COORDINATE_TYPE>
2
5
10

$$$$

