198036
  -OEChem-07051212563D

 72 75  0     1  0  0  0  0  0999 V2000
    3.4075    0.8606    0.4415 O   0  0  0  0  0  0  0  0  0  0  0  0
    0.4516   -0.6847    2.0176 O   0  0  0  0  0  0  0  0  0  0  0  0
   -1.6206   -1.3438   -1.6979 O   0  0  0  0  0  0  0  0  0  0  0  0
    4.7218    0.4835   -1.4124 O   0  0  0  0  0  0  0  0  0  0  0  0
   -3.8837   -3.1528   -1.2291 O   0  0  0  0  0  0  0  0  0  0  0  0
   -4.6884    2.1295   -0.0070 O   0  0  0  0  0  0  0  0  0  0  0  0
   -6.1025    3.2944    1.4005 O   0  0  0  0  0  0  0  0  0  0  0  0
    0.9807    1.4108    0.2662 C   0  0  1  0  0  0  0  0  0  0  0  0
    2.2057    0.7850   -0.3396 C   0  0  1  0  0  0  0  0  0  0  0  0
    1.6539    2.0650   -0.9103 C   0  0  0  0  0  0  0  0  0  0  0  0
   -0.2865    0.5853    0.1158 C   0  0  1  0  0  0  0  0  0  0  0  0
    0.0167   -0.8634    0.6509 C   0  0  1  0  0  0  0  0  0  0  0  0
    1.9952   -0.5212   -1.0440 C   0  0  0  0  0  0  0  0  0  0  0  0
    1.1955   -1.5283   -0.1745 C   0  0  1  0  0  0  0  0  0  0  0  0
    2.3997    3.3295   -0.6341 C   0  0  0  0  0  0  0  0  0  0  0  0
    0.9860    2.0812   -2.2439 C   0  0  0  0  0  0  0  0  0  0  0  0
   -1.2860   -1.7181    0.7273 C   0  0  1  0  0  0  0  0  0  0  0  0
   -1.5147    1.2521    0.6923 C   0  0  0  0  0  0  0  0  0  0  0  0
   -2.2680   -1.5123   -0.4427 C   0  0  1  0  0  0  0  0  0  0  0  0
    2.1926   -2.3198    0.6882 C   0  0  0  0  0  0  0  0  0  0  0  0
   -2.7960    0.8637    0.5250 C   0  0  0  0  0  0  0  0  0  0  0  0
   -3.2871   -0.3972   -0.1758 C   0  0  0  0  0  0  0  0  0  0  0  0
   -1.1593   -3.2170    0.8151 C   0  0  0  0  0  0  0  0  0  0  0  0
    4.6040    0.6928   -0.2122 C   0  0  0  0  0  0  0  0  0  0  0  0
   -2.8821   -2.8869   -0.5812 C   0  0  0  0  0  0  0  0  0  0  0  0
   -2.0705   -3.9020    0.1170 C   0  0  0  0  0  0  0  0  0  0  0  0
   -3.9084    1.7140    1.0873 C   0  0  0  0  0  0  0  0  0  0  0  0
    5.7625    0.8348    0.7597 C   0  0  1  0  0  0  0  0  0  0  0  0
   -2.3094   -5.3576    0.0314 C   0  0  0  0  0  0  0  0  0  0  0  0
    6.9699   -0.0063    0.3206 C   0  0  0  0  0  0  0  0  0  0  0  0
    6.1322    2.3125    0.8541 C   0  0  0  0  0  0  0  0  0  0  0  0
    6.6617   -1.4979    0.2856 C   0  0  0  0  0  0  0  0  0  0  0  0
   -5.7706    2.9255    0.2821 C   0  0  0  0  0  0  0  0  0  0  0  0
   -6.5035    3.2891   -0.9735 C   0  0  0  0  0  0  0  0  0  0  0  0
    1.0884    1.8524    1.2508 H   0  0  0  0  0  0  0  0  0  0  0  0
   -0.5126    0.5055   -0.9454 H   0  0  0  0  0  0  0  0  0  0  0  0
    1.4560   -0.4060   -1.9868 H   0  0  0  0  0  0  0  0  0  0  0  0
    2.9347   -0.9906   -1.3500 H   0  0  0  0  0  0  0  0  0  0  0  0
    0.7740   -2.2499   -0.8827 H   0  0  0  0  0  0  0  0  0  0  0  0
    2.7915    3.3792    0.3878 H   0  0  0  0  0  0  0  0  0  0  0  0
    3.2467    3.4341   -1.3208 H   0  0  0  0  0  0  0  0  0  0  0  0
    1.7471    4.1995   -0.7669 H   0  0  0  0  0  0  0  0  0  0  0  0
    1.7363    2.2362   -3.0284 H   0  0  0  0  0  0  0  0  0  0  0  0
    0.4195    1.1977   -2.5362 H   0  0  0  0  0  0  0  0  0  0  0  0
    0.2851    2.9228   -2.2960 H   0  0  0  0  0  0  0  0  0  0  0  0
   -1.8007   -1.4629    1.6678 H   0  0  0  0  0  0  0  0  0  0  0  0
   -1.3303    2.1774    1.2363 H   0  0  0  0  0  0  0  0  0  0  0  0
    2.7613   -1.6640    1.3553 H   0  0  0  0  0  0  0  0  0  0  0  0
    1.6903   -3.0688    1.3045 H   0  0  0  0  0  0  0  0  0  0  0  0
    2.9126   -2.8518    0.0562 H   0  0  0  0  0  0  0  0  0  0  0  0
   -0.2494   -0.2250    2.5094 H   0  0  0  0  0  0  0  0  0  0  0  0
   -3.7526   -0.1016   -1.1250 H   0  0  0  0  0  0  0  0  0  0  0  0
   -4.0878   -0.8209    0.4465 H   0  0  0  0  0  0  0  0  0  0  0  0
   -0.4518   -3.7002    1.4752 H   0  0  0  0  0  0  0  0  0  0  0  0
   -1.0120   -2.0851   -1.8488 H   0  0  0  0  0  0  0  0  0  0  0  0
   -4.5117    1.1226    1.7867 H   0  0  0  0  0  0  0  0  0  0  0  0
   -3.5215    2.5904    1.6208 H   0  0  0  0  0  0  0  0  0  0  0  0
    5.4331    0.4776    1.7436 H   0  0  0  0  0  0  0  0  0  0  0  0
   -1.5992   -5.9163    0.6494 H   0  0  0  0  0  0  0  0  0  0  0  0
   -2.2016   -5.7029   -1.0015 H   0  0  0  0  0  0  0  0  0  0  0  0
   -3.3195   -5.6022    0.3743 H   0  0  0  0  0  0  0  0  0  0  0  0
    7.3159    0.3076   -0.6719 H   0  0  0  0  0  0  0  0  0  0  0  0
    7.8015    0.1620    1.0156 H   0  0  0  0  0  0  0  0  0  0  0  0
    6.9516    2.4655    1.5639 H   0  0  0  0  0  0  0  0  0  0  0  0
    5.2778    2.9086    1.1926 H   0  0  0  0  0  0  0  0  0  0  0  0
    6.4435    2.7081   -0.1192 H   0  0  0  0  0  0  0  0  0  0  0  0
    7.5655   -2.0606    0.0305 H   0  0  0  0  0  0  0  0  0  0  0  0
    5.8989   -1.7406   -0.4599 H   0  0  0  0  0  0  0  0  0  0  0  0
    6.3114   -1.8476    1.2619 H   0  0  0  0  0  0  0  0  0  0  0  0
   -6.8660    2.3830   -1.4654 H   0  0  0  0  0  0  0  0  0  0  0  0
   -5.8418    3.8499   -1.6383 H   0  0  0  0  0  0  0  0  0  0  0  0
   -7.3626    3.9182   -0.7236 H   0  0  0  0  0  0  0  0  0  0  0  0
  1  9  1  0  0  0  0
  1 24  1  0  0  0  0
  2 12  1  0  0  0  0
  2 51  1  0  0  0  0
  3 19  1  0  0  0  0
  3 55  1  0  0  0  0
  4 24  2  0  0  0  0
  5 25  2  0  0  0  0
  6 27  1  0  0  0  0
  6 33  1  0  0  0  0
  7 33  2  0  0  0  0
  8  9  1  0  0  0  0
  8 10  1  0  0  0  0
  8 11  1  0  0  0  0
  8 35  1  0  0  0  0
  9 10  1  0  0  0  0
  9 13  1  0  0  0  0
 10 15  1  0  0  0  0
 10 16  1  0  0  0  0
 11 12  1  0  0  0  0
 11 18  1  0  0  0  0
 11 36  1  0  0  0  0
 12 14  1  0  0  0  0
 12 17  1  0  0  0  0
 13 14  1  0  0  0  0
 13 37  1  0  0  0  0
 13 38  1  0  0  0  0
 14 20  1  0  0  0  0
 14 39  1  0  0  0  0
 15 40  1  0  0  0  0
 15 41  1  0  0  0  0
 15 42  1  0  0  0  0
 16 43  1  0  0  0  0
 16 44  1  0  0  0  0
 16 45  1  0  0  0  0
 17 19  1  0  0  0  0
 17 23  1  0  0  0  0
 17 46  1  0  0  0  0
 18 21  2  0  0  0  0
 18 47  1  0  0  0  0
 19 22  1  0  0  0  0
 19 25  1  0  0  0  0
 20 48  1  0  0  0  0
 20 49  1  0  0  0  0
 20 50  1  0  0  0  0
 21 22  1  0  0  0  0
 21 27  1  0  0  0  0
 22 52  1  0  0  0  0
 22 53  1  0  0  0  0
 23 26  2  0  0  0  0
 23 54  1  0  0  0  0
 24 28  1  0  0  0  0
 25 26  1  0  0  0  0
 26 29  1  0  0  0  0
 27 56  1  0  0  0  0
 27 57  1  0  0  0  0
 28 30  1  0  0  0  0
 28 31  1  0  0  0  0
 28 58  1  0  0  0  0
 29 59  1  0  0  0  0
 29 60  1  0  0  0  0
 29 61  1  0  0  0  0
 30 32  1  0  0  0  0
 30 62  1  0  0  0  0
 30 63  1  0  0  0  0
 31 64  1  0  0  0  0
 31 65  1  0  0  0  0
 31 66  1  0  0  0  0
 32 67  1  0  0  0  0
 32 68  1  0  0  0  0
 32 69  1  0  0  0  0
 33 34  1  0  0  0  0
 34 70  1  0  0  0  0
 34 71  1  0  0  0  0
 34 72  1  0  0  0  0
M  END
> <PUBCHEM_COMPOUND_CID>
198036

> <PUBCHEM_CONFORMER_RMSD>
1

> <PUBCHEM_CONFORMER_DIVERSEORDER>
1
12
31
28
7
30
5
18
19
20
17
15
21
25
29
16
8
9
27
13
24
6
2
26
10
3
22
11
23
4
14

> <PUBCHEM_MMFF94_PARTIAL_CHARGES>
34
1 -0.3
10 -0.19
11 0.23
12 0.28
13 0.09
15 0.09
16 0.09
17 0.14
18 -0.29
19 0.34
2 -0.68
21 -0.28
22 0.14
23 -0.29
24 0.66
25 0.49
26 -0.12
27 0.42
28 0.06
29 0.14
3 -0.68
33 0.66
34 0.06
35 0.1
4 -0.57
47 0.15
5 -0.57
51 0.4
54 0.15
55 0.4
6 -0.43
7 -0.57
8 -0.19
9 0.05

> <PUBCHEM_EFFECTIVE_ROTOR_COUNT>
7.8

> <PUBCHEM_PHARMACOPHORE_FEATURES>
13
1 2 acceptor
1 2 donor
1 3 acceptor
1 3 donor
1 31 hydrophobe
1 32 hydrophobe
1 4 acceptor
1 5 acceptor
1 7 acceptor
3 10 15 16 hydrophobe
5 17 19 23 25 26 rings
7 11 12 17 18 19 21 22 rings
7 8 9 10 11 12 13 14 rings

> <PUBCHEM_HEAVY_ATOM_COUNT>
34

> <PUBCHEM_ATOM_DEF_STEREO_COUNT>
7

> <PUBCHEM_ATOM_UDEF_STEREO_COUNT>
1

> <PUBCHEM_BOND_DEF_STEREO_COUNT>
0

> <PUBCHEM_BOND_UDEF_STEREO_COUNT>
0

> <PUBCHEM_ISOTOPIC_ATOM_COUNT>
0

> <PUBCHEM_COMPONENT_COUNT>
1

> <PUBCHEM_CACTVS_TAUTO_COUNT>
3

> <PUBCHEM_CONFORMER_ID>
0003059400000001

> <PUBCHEM_MMFF94_ENERGY>
92.731

> <PUBCHEM_FEATURE_SELFOVERLAP>
66.001

> <PUBCHEM_SHAPE_FINGERPRINT>
10050765 1 18266175024925111528
10675989 125 17973717275408629097
1100329 8 18410853248516105232
11136131 41 17984427614238459355
11578080 2 17024309626452455859
11763715 3 17478588137099087287
12107183 9 18341614841278517832
12293681 160 17894914091751105257
12403260 363 18124314909316698622
12422481 6 18342453751433614380
12788726 201 18051404077286620443
12977781 61 17531788230040914087
13140716 1 18338513020050161752
13540713 5 17986098618325264844
13583140 156 16950564325311092720
13782708 43 17604969470388480702
14347332 77 18124031222147442118
14394314 77 18343591733663826640
14790565 3 18192428799758853385
15131766 46 15838982224251428220
15420108 30 18341904046800449523
15439362 3 18050850224274755889
15849732 13 18131346457511197004
15927050 60 18409731793932393683
17349148 13 18267581304612570766
17492 89 18052256190156094818
19141452 34 18413387644598485092
20642791 105 18337390440046933435
21033648 144 18058169604540713341
23558518 356 17984411949833360369
23559900 14 17980774744115451954
249057 3 18265330797711142270
335352 9 18340766035397328468
34934 24 18410856598394969024
3633792 109 18045502173304079505
38695281 34 18340484586174558153
4073 2 18337954490155528360
5104073 3 18335145246557601200
53917941 68 18409452479386607489
6669772 16 18190738824669853615
6691757 9 18187075174315629145

> <PUBCHEM_SHAPE_MULTIPOLES>
658.62
13.96
5.38
1.34
9.56
4.23
0.27
-11.16
-1.88
-8.63
0.28
-0.18
-0.41
-1.24

> <PUBCHEM_SHAPE_SELFOVERLAP>
1395.715

> <PUBCHEM_SHAPE_VOLUME>
365.5

> <PUBCHEM_COORDINATE_TYPE>
2
5
10

$$$$

