5280544
  -OEChem-07051212473D

 32 34  0     0  0  0  0  0  0999 V2000
   -0.0604    0.7471    0.0014 O   0  0  0  0  0  0  0  0  0  0  0  0
    1.1515   -2.7341    0.0199 O   0  0  0  0  0  0  0  0  0  0  0  0
   -4.0344   -2.0273   -0.0041 O   0  0  0  0  0  0  0  0  0  0  0  0
   -1.6404    2.9482    0.0019 O   0  0  0  0  0  0  0  0  0  0  0  0
   -1.6152   -3.0195    0.0061 O   0  0  0  0  0  0  0  0  0  0  0  0
   -4.3954    2.7012    0.0000 O   0  0  0  0  0  0  0  0  0  0  0  0
    6.2327    0.9118    0.0048 O   0  0  0  0  0  0  0  0  0  0  0  0
   -2.0129   -0.6949   -0.0010 C   0  0  0  0  0  0  0  0  0  0  0  0
   -1.4193    0.5654   -0.0003 C   0  0  0  0  0  0  0  0  0  0  0  0
    0.7566   -0.3724   -0.0098 C   0  0  0  0  0  0  0  0  0  0  0  0
   -1.1513   -1.8871    0.0008 C   0  0  0  0  0  0  0  0  0  0  0  0
    0.3111   -1.6420   -0.0021 C   0  0  0  0  0  0  0  0  0  0  0  0
    2.1916   -0.0367   -0.0059 C   0  0  0  0  0  0  0  0  0  0  0  0
   -3.4045   -0.8194   -0.0016 C   0  0  0  0  0  0  0  0  0  0  0  0
   -2.2147    1.7115    0.0004 C   0  0  0  0  0  0  0  0  0  0  0  0
   -3.6045    1.5914   -0.0005 C   0  0  0  0  0  0  0  0  0  0  0  0
   -4.1980    0.3284   -0.0016 C   0  0  0  0  0  0  0  0  0  0  0  0
    2.8764    0.1129   -1.2121 C   0  0  0  0  0  0  0  0  0  0  0  0
    2.8654    0.1324    1.2038 C   0  0  0  0  0  0  0  0  0  0  0  0
    4.2344    0.4314   -1.2085 C   0  0  0  0  0  0  0  0  0  0  0  0
    4.2233    0.4512    1.2074 C   0  0  0  0  0  0  0  0  0  0  0  0
    4.9080    0.6005    0.0011 C   0  0  0  0  0  0  0  0  0  0  0  0
   -5.2812    0.2321   -0.0025 H   0  0  0  0  0  0  0  0  0  0  0  0
    2.3646   -0.0152   -2.1628 H   0  0  0  0  0  0  0  0  0  0  0  0
    2.3452    0.0197    2.1519 H   0  0  0  0  0  0  0  0  0  0  0  0
    4.7561    0.5453   -2.1550 H   0  0  0  0  0  0  0  0  0  0  0  0
    4.7425    0.5818    2.1529 H   0  0  0  0  0  0  0  0  0  0  0  0
    2.0761   -2.4387    0.0191 H   0  0  0  0  0  0  0  0  0  0  0  0
   -3.3871   -2.7488   -0.0096 H   0  0  0  0  0  0  0  0  0  0  0  0
   -0.6737    2.8371    0.0023 H   0  0  0  0  0  0  0  0  0  0  0  0
   -5.3282    2.4260   -0.0007 H   0  0  0  0  0  0  0  0  0  0  0  0
    6.5438    0.9762   -0.9145 H   0  0  0  0  0  0  0  0  0  0  0  0
  1  9  1  0  0  0  0
  1 10  1  0  0  0  0
  2 12  1  0  0  0  0
  2 28  1  0  0  0  0
  3 14  1  0  0  0  0
  3 29  1  0  0  0  0
  4 15  1  0  0  0  0
  4 30  1  0  0  0  0
  5 11  2  0  0  0  0
  6 16  1  0  0  0  0
  6 31  1  0  0  0  0
  7 22  1  0  0  0  0
  7 32  1  0  0  0  0
  8  9  2  0  0  0  0
  8 11  1  0  0  0  0
  8 14  1  0  0  0  0
  9 15  1  0  0  0  0
 10 12  2  0  0  0  0
 10 13  1  0  0  0  0
 11 12  1  0  0  0  0
 13 18  2  0  0  0  0
 13 19  1  0  0  0  0
 14 17  2  0  0  0  0
 15 16  2  0  0  0  0
 16 17  1  0  0  0  0
 17 23  1  0  0  0  0
 18 20  1  0  0  0  0
 18 24  1  0  0  0  0
 19 21  2  0  0  0  0
 19 25  1  0  0  0  0
 20 22  2  0  0  0  0
 20 26  1  0  0  0  0
 21 22  1  0  0  0  0
 21 27  1  0  0  0  0
M  END
> <PUBCHEM_COMPOUND_CID>
5280544

> <PUBCHEM_CONFORMER_RMSD>
0.6

> <PUBCHEM_CONFORMER_DIVERSEORDER>
1

> <PUBCHEM_MMFF94_PARTIAL_CHARGES>
32
1 -0.16
10 0.05
11 0.47
12 0.09
13 0.03
14 0.08
15 0.08
16 0.08
17 -0.15
18 -0.15
19 -0.15
2 -0.53
20 -0.15
21 -0.15
22 0.08
23 0.15
24 0.15
25 0.15
26 0.15
27 0.15
28 0.45
29 0.45
3 -0.53
30 0.45
31 0.45
32 0.45
4 -0.53
5 -0.57
6 -0.53
7 -0.53
8 0.09
9 0.08

> <PUBCHEM_EFFECTIVE_ROTOR_COUNT>
1

> <PUBCHEM_PHARMACOPHORE_FEATURES>
10
1 1 acceptor
1 2 donor
1 3 donor
1 4 donor
1 5 acceptor
1 6 donor
1 7 donor
6 1 8 9 10 11 12 rings
6 13 18 19 20 21 22 rings
6 8 9 14 15 16 17 rings

> <PUBCHEM_HEAVY_ATOM_COUNT>
22

> <PUBCHEM_ATOM_DEF_STEREO_COUNT>
0

> <PUBCHEM_ATOM_UDEF_STEREO_COUNT>
0

> <PUBCHEM_BOND_DEF_STEREO_COUNT>
0

> <PUBCHEM_BOND_UDEF_STEREO_COUNT>
0

> <PUBCHEM_ISOTOPIC_ATOM_COUNT>
0

> <PUBCHEM_COMPONENT_COUNT>
1

> <PUBCHEM_CACTVS_TAUTO_COUNT>
343

> <PUBCHEM_CONFORMER_ID>
0050932000000001

> <PUBCHEM_MMFF94_ENERGY>
66.2007

> <PUBCHEM_FEATURE_SELFOVERLAP>
50.776

> <PUBCHEM_SHAPE_FINGERPRINT>
10319926 262 18263383446853986986
10411042 1 17762336920820321995
10493431 412 18336537335457816929
10498660 4 18410011073916506789
10646746 165 18408044013628820808
10670039 82 18342449362008563460
11315181 36 18060139791558497372
12107183 9 17911250725947933586
12173636 292 18338238292334808365
12236239 1 17775007856495938000
12390115 104 18188759656553147729
12403259 415 17968099685997887712
12403814 3 17418098723866300853
12596602 18 17346315947642756400
12788726 201 17412725243075266442
13140716 1 18051689941498738595
14739800 52 18124321498361754264
14790565 3 18411127039786001005
15042514 8 18195523688762956275
15196674 1 18410575127618351430
16087824 20 18409169910432965791
16752209 62 18411704244476836826
16945 1 18410573951240410983
16988056 13 15533920996337958420
18186145 218 17821723948853646154
18915476 22 16950551233786551750
200 152 15769785623655734326
20510252 161 18334010596831815289
20645477 56 18408882936468560656
20645477 70 16660630887431482102
20715895 44 17699021887569355453
21033648 29 17749119863630792600
21267235 1 18340199670792036139
22122407 14 15985097522482861957
22182313 1 18263904657735632439
2297311 6 18336255748241841446
23366157 5 17986389116822763138
23402539 116 18408891702375356478
23557571 272 18260261911319449204
23559900 14 18260823843724194438
2748010 2 18266731562439268279
2916195 48 18187371987253848600
34934 24 18339366374427843853
4214541 1 18410575085211828516
469060 322 18268409292686823137
474 4 17632290190184506218
5104073 3 18340483477640434331
5265222 85 18263353695890119574
7064713 232 18342176708404561764
7364860 26 17974572695112316159
7808743 9 18411982472769683528
9709674 26 18334850611094746126
9981440 41 18343299279701213859

> <PUBCHEM_SHAPE_MULTIPOLES>
411.66
10.29
2.66
0.88
8.5
0.48
0
-4.37
0.01
-3.38
-0.01
1.04
-0.08
0.01

> <PUBCHEM_SHAPE_SELFOVERLAP>
924.526

> <PUBCHEM_SHAPE_VOLUME>
216

> <PUBCHEM_COORDINATE_TYPE>
2
5
10

$$$$

