5282270
  -OEChem-07051213042D

 61 61  0     1  0  0  0  0  0999 V2000
    6.3230   -3.7957    0.0000 O   0  0  0  0  0  0  0  0  0  0  0  0
    9.1709   -1.7266    0.0000 O   0  0  0  0  0  0  0  0  0  0  0  0
    7.4108    1.5521    0.0000 O   0  0  0  0  0  0  0  0  0  0  0  0
   10.0089    4.0521    0.0000 O   0  0  0  0  0  0  0  0  0  0  0  0
   10.8749    2.5521    0.0000 O   0  0  0  0  0  0  0  0  0  0  0  0
    6.6018   -2.0357    0.0000 C   0  0  3  0  0  0  0  0  0  0  0  0
    7.4108   -1.4479    0.0000 C   0  0  3  0  0  0  0  0  0  0  0  0
    6.9108   -2.9867    0.0000 C   0  0  3  0  0  0  0  0  0  0  0  0
    8.2198   -2.0357    0.0000 C   0  0  3  0  0  0  0  0  0  0  0  0
    7.9108   -2.9867    0.0000 C   0  0  0  0  0  0  0  0  0  0  0  0
    5.6507   -1.7266    0.0000 C   0  0  0  0  0  0  0  0  0  0  0  0
    7.4108   -0.4479    0.0000 C   0  0  0  0  0  0  0  0  0  0  0  0
    4.9076   -2.3958    0.0000 C   0  0  0  0  0  0  0  0  0  0  0  0
    8.2768    0.0521    0.0000 C   0  0  0  0  0  0  0  0  0  0  0  0
    8.2768    1.0521    0.0000 C   0  0  3  0  0  0  0  0  0  0  0  0
    3.9565   -2.0868    0.0000 C   0  0  0  0  0  0  0  0  0  0  0  0
    9.1429    1.5521    0.0000 C   0  0  0  0  0  0  0  0  0  0  0  0
    3.7486   -1.1086    0.0000 C   0  0  0  0  0  0  0  0  0  0  0  0
    9.1429    2.5521    0.0000 C   0  0  0  0  0  0  0  0  0  0  0  0
    2.7976   -0.7996    0.0000 C   0  0  0  0  0  0  0  0  0  0  0  0
   10.0089    3.0521    0.0000 C   0  0  0  0  0  0  0  0  0  0  0  0
    2.5896    0.1786    0.0000 C   0  0  0  0  0  0  0  0  0  0  0  0
    3.3328    0.8477    0.0000 C   0  0  0  0  0  0  0  0  0  0  0  0
    3.1249    1.8258    0.0000 C   0  0  0  0  0  0  0  0  0  0  0  0
    3.8680    2.4950    0.0000 C   0  0  0  0  0  0  0  0  0  0  0  0
    4.8191    2.1860    0.0000 C   0  0  0  0  0  0  0  0  0  0  0  0
    5.5622    2.8551    0.0000 C   0  0  0  0  0  0  0  0  0  0  0  0
    6.4688   -1.1961    0.0000 H   0  0  0  0  0  0  0  0  0  0  0  0
    8.1682   -1.0620    0.0000 H   0  0  0  0  0  0  0  0  0  0  0  0
    7.2967   -3.7441    0.0000 H   0  0  0  0  0  0  0  0  0  0  0  0
    8.3528   -1.1961    0.0000 H   0  0  0  0  0  0  0  0  0  0  0  0
    7.8460   -3.6033    0.0000 H   0  0  0  0  0  0  0  0  0  0  0  0
    8.5173   -3.1156    0.0000 H   0  0  0  0  0  0  0  0  0  0  0  0
    5.9418   -1.1792    0.0000 H   0  0  0  0  0  0  0  0  0  0  0  0
    5.1622   -1.3449    0.0000 H   0  0  0  0  0  0  0  0  0  0  0  0
    6.8739   -0.1379    0.0000 H   0  0  0  0  0  0  0  0  0  0  0  0
    6.5752   -4.3621    0.0000 H   0  0  0  0  0  0  0  0  0  0  0  0
    9.6316   -2.1415    0.0000 H   0  0  0  0  0  0  0  0  0  0  0  0
    5.0365   -3.0022    0.0000 H   0  0  0  0  0  0  0  0  0  0  0  0
    8.8138   -0.2579    0.0000 H   0  0  0  0  0  0  0  0  0  0  0  0
    7.5407    0.6271    0.0000 H   0  0  0  0  0  0  0  0  0  0  0  0
    3.4958   -2.5016    0.0000 H   0  0  0  0  0  0  0  0  0  0  0  0
    9.3549    0.9695    0.0000 H   0  0  0  0  0  0  0  0  0  0  0  0
    9.7534    1.6598    0.0000 H   0  0  0  0  0  0  0  0  0  0  0  0
    4.3682   -1.0870    0.0000 H   0  0  0  0  0  0  0  0  0  0  0  0
    3.8349   -0.4946    0.0000 H   0  0  0  0  0  0  0  0  0  0  0  0
    8.9308    3.1347    0.0000 H   0  0  0  0  0  0  0  0  0  0  0  0
    8.5323    2.4445    0.0000 H   0  0  0  0  0  0  0  0  0  0  0  0
    7.4108    2.1721    0.0000 H   0  0  0  0  0  0  0  0  0  0  0  0
    2.3368   -1.2144    0.0000 H   0  0  0  0  0  0  0  0  0  0  0  0
    2.0000    0.3701    0.0000 H   0  0  0  0  0  0  0  0  0  0  0  0
    3.6614    0.3219    0.0000 H   0  0  0  0  0  0  0  0  0  0  0  0
    3.9076    1.0800    0.0000 H   0  0  0  0  0  0  0  0  0  0  0  0
   10.5458    4.3621    0.0000 H   0  0  0  0  0  0  0  0  0  0  0  0
    2.5352    2.0174    0.0000 H   0  0  0  0  0  0  0  0  0  0  0  0
    3.7391    3.1014    0.0000 H   0  0  0  0  0  0  0  0  0  0  0  0
    4.5280    1.6385    0.0000 H   0  0  0  0  0  0  0  0  0  0  0  0
    5.3077    1.8042    0.0000 H   0  0  0  0  0  0  0  0  0  0  0  0
    5.9771    2.3943    0.0000 H   0  0  0  0  0  0  0  0  0  0  0  0
    6.0230    3.2699    0.0000 H   0  0  0  0  0  0  0  0  0  0  0  0
    5.1474    3.3158    0.0000 H   0  0  0  0  0  0  0  0  0  0  0  0
  1  8  1  0  0  0  0
  1 37  1  0  0  0  0
  2  9  1  0  0  0  0
  2 38  1  0  0  0  0
  3 15  1  0  0  0  0
  3 49  1  0  0  0  0
  4 21  1  0  0  0  0
  4 54  1  0  0  0  0
  5 21  2  0  0  0  0
  6  7  1  0  0  0  0
  6  8  1  0  0  0  0
  6 11  1  0  0  0  0
  6 28  1  0  0  0  0
  7  9  1  0  0  0  0
  7 12  1  0  0  0  0
  7 29  1  0  0  0  0
  8 10  1  0  0  0  0
  8 30  1  0  0  0  0
  9 10  1  0  0  0  0
  9 31  1  0  0  0  0
 10 32  1  0  0  0  0
 10 33  1  0  0  0  0
 11 13  1  0  0  0  0
 11 34  1  0  0  0  0
 11 35  1  0  0  0  0
 12 14  2  0  0  0  0
 12 36  1  0  0  0  0
 13 16  2  0  0  0  0
 13 39  1  0  0  0  0
 14 15  1  0  0  0  0
 14 40  1  0  0  0  0
 15 17  1  0  0  0  0
 15 41  1  0  0  0  0
 16 18  1  0  0  0  0
 16 42  1  0  0  0  0
 17 19  1  0  0  0  0
 17 43  1  0  0  0  0
 17 44  1  0  0  0  0
 18 20  1  0  0  0  0
 18 45  1  0  0  0  0
 18 46  1  0  0  0  0
 19 21  1  0  0  0  0
 19 47  1  0  0  0  0
 19 48  1  0  0  0  0
 20 22  2  0  0  0  0
 20 50  1  0  0  0  0
 22 23  1  0  0  0  0
 22 51  1  0  0  0  0
 23 24  1  0  0  0  0
 23 52  1  0  0  0  0
 23 53  1  0  0  0  0
 24 25  2  0  0  0  0
 24 55  1  0  0  0  0
 25 26  1  0  0  0  0
 25 56  1  0  0  0  0
 26 27  1  0  0  0  0
 26 57  1  0  0  0  0
 26 58  1  0  0  0  0
 27 59  1  0  0  0  0
 27 60  1  0  0  0  0
 27 61  1  0  0  0  0
M  END
> <PUBCHEM_COMPOUND_CID>
5282270

> <PUBCHEM_COMPOUND_CANONICALIZED>
1

> <PUBCHEM_CACTVS_COMPLEXITY>
535

> <PUBCHEM_CACTVS_HBOND_ACCEPTOR>
5

> <PUBCHEM_CACTVS_HBOND_DONOR>
4

> <PUBCHEM_CACTVS_ROTATABLE_BOND>
12

> <PUBCHEM_CACTVS_SUBSKEYS>
AAADcfB4OAAAAAAAAAAAAAAAAAAAAYAAAAAAAAAAAAAAAAAAAAAAGgAACAAADRSggAICCAAAAgCIACDSCAAAAAAgAAAICAEAAAgAFBIAAQAAUAAFwAAIEAPKwKAOgAAAAAAAAAAAAAAAAAAAAIQADAAAAA==

> <PUBCHEM_IUPAC_OPENEYE_NAME>
(E)-6-[3,5-dihydroxy-2-[(2Z,5Z,8Z)-undeca-2,5,8-trienyl]cyclopentyl]-4-hydroxy-hex-5-enoic acid

> <PUBCHEM_IUPAC_CAS_NAME>
(E)-6-[3,5-dihydroxy-2-[(2Z,5Z,8Z)-undeca-2,5,8-trienyl]cyclopentyl]-4-hydroxy-5-hexenoic acid

> <PUBCHEM_IUPAC_NAME>
(E)-6-[3,5-dihydroxy-2-[(2Z,5Z,8Z)-undeca-2,5,8-trienyl]cyclopentyl]-4-hydroxyhex-5-enoic acid

> <PUBCHEM_IUPAC_SYSTEMATIC_NAME>
(E)-6-[3,5-bis(oxidanyl)-2-[(2Z,5Z,8Z)-undeca-2,5,8-trienyl]cyclopentyl]-4-oxidanyl-hex-5-enoic acid

> <PUBCHEM_IUPAC_TRADITIONAL_NAME>
(E)-6-[3,5-dihydroxy-2-[(2Z,5Z,8Z)-undeca-2,5,8-trienyl]cyclopentyl]-4-hydroxy-hex-5-enoic acid

> <PUBCHEM_IUPAC_INCHI>
InChI=1S/C22H34O5/c1-2-3-4-5-6-7-8-9-10-11-18-19(21(25)16-20(18)24)14-12-17(23)13-15-22(26)27/h3-4,6-7,9-10,12,14,17-21,23-25H,2,5,8,11,13,15-16H2,1H3,(H,26,27)/b4-3-,7-6-,10-9-,14-12+

> <PUBCHEM_IUPAC_INCHIKEY>
XAFFULPVQSAGOV-GSPMAKDWSA-N

> <PUBCHEM_XLOGP3>
2.8

> <PUBCHEM_EXACT_MASS>
378.240624

> <PUBCHEM_MOLECULAR_FORMULA>
C22H34O5

> <PUBCHEM_MOLECULAR_WEIGHT>
378.50236

> <PUBCHEM_OPENEYE_CAN_SMILES>
CCC=CCC=CCC=CCC1C(CC(C1C=CC(CCC(=O)O)O)O)O

> <PUBCHEM_OPENEYE_ISO_SMILES>
CC/C=C\C/C=C\C/C=C\CC1C(CC(C1/C=C/C(CCC(=O)O)O)O)O

> <PUBCHEM_CACTVS_TPSA>
98

> <PUBCHEM_MONOISOTOPIC_WEIGHT>
378.240624

> <PUBCHEM_TOTAL_CHARGE>
0

> <PUBCHEM_HEAVY_ATOM_COUNT>
27

> <PUBCHEM_ATOM_DEF_STEREO_COUNT>
0

> <PUBCHEM_ATOM_UDEF_STEREO_COUNT>
5

> <PUBCHEM_BOND_DEF_STEREO_COUNT>
4

> <PUBCHEM_BOND_UDEF_STEREO_COUNT>
0

> <PUBCHEM_ISOTOPIC_ATOM_COUNT>
0

> <PUBCHEM_COMPONENT_COUNT>
1

> <PUBCHEM_CACTVS_TAUTO_COUNT>
1

> <PUBCHEM_COORDINATE_TYPE>
1
5
255

> <PUBCHEM_BONDANNOTATIONS>
15  41  3
6  28  3
7  29  3
8  30  3
9  31  3

$$$$

