47205523
  -OEChem-06241222593D

 29 30  0     0  0  0  0  0  0999 V2000
    4.2701   -1.5290   -0.0851 S   0  0  0  0  0  0  0  0  0  0  0  0
    2.0374    0.0156   -0.0532 O   0  0  0  0  0  0  0  0  0  0  0  0
    3.3846   -2.5160   -0.6656 O   0  0  0  0  0  0  0  0  0  0  0  0
    5.5782   -1.2773   -0.6517 O   0  0  0  0  0  0  0  0  0  0  0  0
   -0.1533    2.7867    0.0194 O   0  0  0  0  0  0  0  0  0  0  0  0
   -0.6461    0.4883   -0.0367 N   0  0  0  0  0  0  0  0  0  0  0  0
    4.4227   -1.8146    1.5873 N   0  0  0  0  0  0  0  0  0  0  0  0
   -5.3544   -3.0638   -0.0390 N   0  0  0  0  0  0  0  0  0  0  0  0
    3.3964    0.0147   -0.0578 C   0  0  0  0  0  0  0  0  0  0  0  0
    1.6497    1.3178   -0.0314 C   0  0  0  0  0  0  0  0  0  0  0  0
    3.8806    1.3021   -0.0392 C   0  0  0  0  0  0  0  0  0  0  0  0
    2.7463    2.1483   -0.0219 C   0  0  0  0  0  0  0  0  0  0  0  0
    0.1925    1.6109   -0.0218 C   0  0  0  0  0  0  0  0  0  0  0  0
   -2.0406    0.4575   -0.0086 C   0  0  0  0  0  0  0  0  0  0  0  0
   -2.7124   -0.7650   -0.0295 C   0  0  0  0  0  0  0  0  0  0  0  0
   -2.7632    1.6495    0.0410 C   0  0  0  0  0  0  0  0  0  0  0  0
   -4.1066   -0.7951   -0.0013 C   0  0  0  0  0  0  0  0  0  0  0  0
   -4.1574    1.6194    0.0692 C   0  0  0  0  0  0  0  0  0  0  0  0
   -4.8292    0.3970    0.0480 C   0  0  0  0  0  0  0  0  0  0  0  0
   -4.7952   -2.0470   -0.0220 C   0  0  0  0  0  0  0  0  0  0  0  0
    4.9198    1.5982   -0.0372 H   0  0  0  0  0  0  0  0  0  0  0  0
    2.7352    3.2289   -0.0046 H   0  0  0  0  0  0  0  0  0  0  0  0
   -0.1898   -0.4211   -0.0683 H   0  0  0  0  0  0  0  0  0  0  0  0
   -2.1474   -1.6945   -0.0679 H   0  0  0  0  0  0  0  0  0  0  0  0
   -2.3179    2.6341    0.0600 H   0  0  0  0  0  0  0  0  0  0  0  0
   -4.7212    2.5471    0.1078 H   0  0  0  0  0  0  0  0  0  0  0  0
   -5.9163    0.3900    0.0707 H   0  0  0  0  0  0  0  0  0  0  0  0
    4.4934   -2.7945    1.8896 H   0  0  0  0  0  0  0  0  0  0  0  0
    5.0493   -1.1930    2.1145 H   0  0  0  0  0  0  0  0  0  0  0  0
  1  3  2  0  0  0  0
  1  4  2  0  0  0  0
  1  7  1  0  0  0  0
  1  9  1  0  0  0  0
  2  9  1  0  0  0  0
  2 10  1  0  0  0  0
  5 13  2  0  0  0  0
  6 13  1  0  0  0  0
  6 14  1  0  0  0  0
  6 23  1  0  0  0  0
  7 28  1  0  0  0  0
  7 29  1  0  0  0  0
  8 20  3  0  0  0  0
  9 11  2  0  0  0  0
 10 12  2  0  0  0  0
 10 13  1  0  0  0  0
 11 12  1  0  0  0  0
 11 21  1  0  0  0  0
 12 22  1  0  0  0  0
 14 15  1  0  0  0  0
 14 16  2  0  0  0  0
 15 17  2  0  0  0  0
 15 24  1  0  0  0  0
 16 18  1  0  0  0  0
 16 25  1  0  0  0  0
 17 19  1  0  0  0  0
 17 20  1  0  0  0  0
 18 19  2  0  0  0  0
 18 26  1  0  0  0  0
 19 27  1  0  0  0  0
M  END
> <PUBCHEM_COMPOUND_CID>
47205523

> <PUBCHEM_CONFORMER_RMSD>
0.6

> <PUBCHEM_CONFORMER_DIVERSEORDER>
1
71
63
11
52
79
16
74
54
65
9
58
10
27
75
17
53
66
44
14
25
59
70
78
2
8
51
6
64
45
33
7
41
69
32
56
15
4
68
57
73
55
3
13
77
67
72
80
12
62
50
36
5
31
61
49
43
21
42
20
35
60
34
30
76
22
46
26
47
39
29
19
37
24
38
18
23
28
48
40

> <PUBCHEM_MMFF94_PARTIAL_CHARGES>
29
1 1.5
10 0.05
11 -0.15
12 -0.15
13 0.71
14 0.12
15 -0.15
16 -0.15
17 0.07
18 -0.15
19 -0.15
2 -0.28
20 0.48
21 0.15
22 0.15
23 0.37
24 0.15
25 0.15
26 0.15
27 0.15
28 0.42
29 0.42
3 -0.65
4 -0.65
5 -0.57
6 -0.55
7 -0.98
8 -0.56
9 0.08

> <PUBCHEM_EFFECTIVE_ROTOR_COUNT>
4

> <PUBCHEM_PHARMACOPHORE_FEATURES>
9
1 2 acceptor
1 3 acceptor
1 4 acceptor
1 5 acceptor
1 6 donor
1 7 donor
1 8 acceptor
5 2 9 10 11 12 rings
6 14 15 16 17 18 19 rings

> <PUBCHEM_HEAVY_ATOM_COUNT>
20

> <PUBCHEM_ATOM_DEF_STEREO_COUNT>
0

> <PUBCHEM_ATOM_UDEF_STEREO_COUNT>
0

> <PUBCHEM_BOND_DEF_STEREO_COUNT>
0

> <PUBCHEM_BOND_UDEF_STEREO_COUNT>
0

> <PUBCHEM_ISOTOPIC_ATOM_COUNT>
0

> <PUBCHEM_COMPONENT_COUNT>
1

> <PUBCHEM_CACTVS_TAUTO_COUNT>
2

> <PUBCHEM_CONFORMER_ID>
02D04C9300000001

> <PUBCHEM_MMFF94_ENERGY>
34.6127

> <PUBCHEM_FEATURE_SELFOVERLAP>
45.689

> <PUBCHEM_SHAPE_FINGERPRINT>
10670039 82 7925625657310311914
11405975 8 18335136522835860097
11796584 16 18337954609623379964
12107183 9 18120366816296017201
12555020 224 18411146861692217797
12596602 18 17240480278088556066
12916754 54 18410290281609336625
13167823 11 18409449167771597975
13255334 9 18410007745295610567
13533116 47 18264769853306338579
13551218 46 18335697196820702071
13740256 8 18409727378720915228
1420 369 18409730646874613810
14251740 57 18261110751523713566
14420673 8 18263919015521094119
15196674 1 18410292493195435341
15352361 1 18410011048104141231
17492 89 18337952286231014007
17857418 61 18412268345560465283
1813 80 17418373597077760372
19141452 34 18338794624007584613
20281475 54 18411697669050874149
20374829 77 18342177807952605792
20645477 70 18341332206422948260
21033648 29 13984924261034948371
21065198 57 18408885140003516009
21267235 1 18410002256358736357
221490 88 18340199709124637712
22620623 9 17131286756406238013
23424784 1240 18334844030925682919
23559900 14 18408610274633320976
239999 70 18187356602855002764
3004659 81 18272087223337508884
314194 84 18191022297006524167
316301 35 18411705361484825706
335352 9 18338516443508284117
3421961 26 18335703819338324304
4073 2 18129657495976171297
4214541 1 18410009966173582037
44062 13 18341052999384155397
465052 167 18187639198448756766
5104073 3 18260828181287976289
5365585 94 18058441003265743627
559249 180 18339646758398341873
633830 44 16917062265847264845
77779 3 18410572868771651765
7970288 3 18123471846092477986
960060 61 17846491543797164932
9709674 26 18270957934553789811

> <PUBCHEM_SHAPE_MULTIPOLES>
377.02
13.05
3.07
0.73
1.39
0.91
0.14
8.88
0.04
0.49
-0.02
-0.6
0.25
-0.2

> <PUBCHEM_SHAPE_SELFOVERLAP>
796.443

> <PUBCHEM_SHAPE_VOLUME>
211.2

> <PUBCHEM_COORDINATE_TYPE>
2
5
10

$$$$

