441538
  -OEChem-07051212553D

 38 39  0     1  0  0  0  0  0999 V2000
   -3.0566   -2.3049    0.0482 P   0  0  0  0  0  0  0  0  0  0  0  0
   -0.9527    1.2949    1.1614 O   0  0  0  0  0  0  0  0  0  0  0  0
   -2.1655    3.8779    0.2520 O   0  0  0  0  0  0  0  0  0  0  0  0
    0.1487    3.7716   -1.1848 O   0  0  0  0  0  0  0  0  0  0  0  0
   -2.7024   -0.8249    0.6012 O   0  0  0  0  0  0  0  0  0  0  0  0
   -1.8657   -2.6180   -1.0001 O   0  0  0  0  0  0  0  0  0  0  0  0
   -4.3330   -2.0376   -0.9080 O   0  0  0  0  0  0  0  0  0  0  0  0
   -3.2666   -3.3446    1.1099 O   0  0  0  0  0  0  0  0  0  0  0  0
    2.9267   -2.9581   -0.8888 O   0  0  0  0  0  0  0  0  0  0  0  0
    0.9917   -2.9778    0.3301 O   0  0  0  0  0  0  0  0  0  0  0  0
    1.2774    1.2442    0.3599 N   0  0  0  0  0  0  0  0  0  0  0  0
    4.6604   -1.1205   -0.0809 N   0  0  0  0  0  0  0  0  0  0  0  0
   -1.9143    2.6873   -0.4940 C   0  0  1  0  0  0  0  0  0  0  0  0
   -0.4340    2.5491   -0.7801 C   0  0  2  0  0  0  0  0  0  0  0  0
   -2.1745    1.4979    0.4191 C   0  0  1  0  0  0  0  0  0  0  0  0
    0.1052    2.0589    0.5545 C   0  0  1  0  0  0  0  0  0  0  0  0
   -2.4890    0.2144   -0.3377 C   0  0  0  0  0  0  0  0  0  0  0  0
    1.1878   -0.1398    0.1865 C   0  0  0  0  0  0  0  0  0  0  0  0
    2.5619    1.7859    0.4085 C   0  0  0  0  0  0  0  0  0  0  0  0
    2.2312   -0.9706    0.0382 C   0  0  0  0  0  0  0  0  0  0  0  0
    3.7007    1.0942    0.2762 C   0  0  0  0  0  0  0  0  0  0  0  0
    3.6068   -0.3823    0.0661 C   0  0  0  0  0  0  0  0  0  0  0  0
    1.9556   -2.3974   -0.1374 C   0  0  0  0  0  0  0  0  0  0  0  0
   -2.5372    2.7190   -1.3916 H   0  0  0  0  0  0  0  0  0  0  0  0
   -0.2800    1.8117   -1.5775 H   0  0  0  0  0  0  0  0  0  0  0  0
   -2.9613    1.7002    1.1547 H   0  0  0  0  0  0  0  0  0  0  0  0
    0.3288    2.8946    1.2300 H   0  0  0  0  0  0  0  0  0  0  0  0
   -1.6744   -0.0695   -1.0088 H   0  0  0  0  0  0  0  0  0  0  0  0
   -3.3966    0.3528   -0.9340 H   0  0  0  0  0  0  0  0  0  0  0  0
   -1.7048    3.8206    1.1056 H   0  0  0  0  0  0  0  0  0  0  0  0
    1.1010    3.6168   -1.3042 H   0  0  0  0  0  0  0  0  0  0  0  0
    0.1771   -0.5232    0.1690 H   0  0  0  0  0  0  0  0  0  0  0  0
    2.5808    2.8592    0.5643 H   0  0  0  0  0  0  0  0  0  0  0  0
    4.6737    1.5669    0.3179 H   0  0  0  0  0  0  0  0  0  0  0  0
    5.5119   -0.5509   -0.0328 H   0  0  0  0  0  0  0  0  0  0  0  0
   -1.8235   -3.5033   -1.4202 H   0  0  0  0  0  0  0  0  0  0  0  0
   -4.8010   -2.8052   -1.3003 H   0  0  0  0  0  0  0  0  0  0  0  0
    2.7768   -3.9173   -1.0290 H   0  0  0  0  0  0  0  0  0  0  0  0
  1  5  1  0  0  0  0
  1  6  1  0  0  0  0
  1  7  1  0  0  0  0
  1  8  2  0  0  0  0
  2 15  1  0  0  0  0
  2 16  1  0  0  0  0
  3 13  1  0  0  0  0
  3 30  1  0  0  0  0
  4 14  1  0  0  0  0
  4 31  1  0  0  0  0
  5 17  1  0  0  0  0
  6 36  1  0  0  0  0
  7 37  1  0  0  0  0
  9 23  1  0  0  0  0
  9 38  1  0  0  0  0
 10 23  2  0  0  0  0
 11 16  1  0  0  0  0
 11 18  1  0  0  0  0
 11 19  1  0  0  0  0
 12 22  2  0  0  0  0
 12 35  1  0  0  0  0
 13 14  1  0  0  0  0
 13 15  1  0  0  0  0
 13 24  1  0  0  0  0
 14 16  1  0  0  0  0
 14 25  1  0  0  0  0
 15 17  1  0  0  0  0
 15 26  1  0  0  0  0
 16 27  1  0  0  0  0
 17 28  1  0  0  0  0
 17 29  1  0  0  0  0
 18 20  2  0  0  0  0
 18 32  1  0  0  0  0
 19 21  2  0  0  0  0
 19 33  1  0  0  0  0
 20 22  1  0  0  0  0
 20 23  1  0  0  0  0
 21 22  1  0  0  0  0
 21 34  1  0  0  0  0
M  END
> <PUBCHEM_COMPOUND_CID>
441538

> <PUBCHEM_CONFORMER_RMSD>
0.8

> <PUBCHEM_CONFORMER_DIVERSEORDER>
1
49
50
21
33
24
20
34
12
8
31
38
58
30
17
54
15
44
9
29
57
23
4
46
56
7
28
40
16
11
43
39
13
35
27
36
6
22
42
53
3
51
47
32
10
18
48
26
52
5
45
19
41
14
59
55
25
2
37

> <PUBCHEM_MMFF94_PARTIAL_CHARGES>
32
1 1.51
10 -0.57
11 -0.57
12 -0.85
13 0.28
14 0.28
15 0.28
16 0.65
17 0.28
18 -0.05
19 -0.05
2 -0.56
20 0.03
21 -0.14
22 0.42
23 0.71
3 -0.68
30 0.4
31 0.4
32 0.15
33 0.15
34 0.15
35 0.4
36 0.5
37 0.5
38 0.5
4 -0.68
5 -0.55
6 -0.77
7 -0.77
8 -0.7
9 -0.65

> <PUBCHEM_EFFECTIVE_ROTOR_COUNT>
6

> <PUBCHEM_PHARMACOPHORE_FEATURES>
17
1 10 acceptor
1 11 cation
1 12 acceptor
1 12 donor
1 2 acceptor
1 3 acceptor
1 3 donor
1 4 acceptor
1 4 donor
1 6 acceptor
1 7 acceptor
1 8 acceptor
1 9 acceptor
3 9 10 23 anion
4 1 6 7 8 anion
5 2 13 14 15 16 rings
6 11 18 19 20 21 22 rings

> <PUBCHEM_HEAVY_ATOM_COUNT>
23

> <PUBCHEM_ATOM_DEF_STEREO_COUNT>
4

> <PUBCHEM_ATOM_UDEF_STEREO_COUNT>
0

> <PUBCHEM_BOND_DEF_STEREO_COUNT>
0

> <PUBCHEM_BOND_UDEF_STEREO_COUNT>
0

> <PUBCHEM_ISOTOPIC_ATOM_COUNT>
0

> <PUBCHEM_COMPONENT_COUNT>
1

> <PUBCHEM_CACTVS_TAUTO_COUNT>
1

> <PUBCHEM_CONFORMER_ID>
0006BCC200000001

> <PUBCHEM_MMFF94_ENERGY>
27.7736

> <PUBCHEM_FEATURE_SELFOVERLAP>
86.377

> <PUBCHEM_SHAPE_FINGERPRINT>
10616163 171 18409448119804956398
10967382 1 17545321242741532800
1100329 8 17690565603474162346
12553582 1 18268418062698921371
12592029 89 17113254997639204817
12596599 1 17461140076971926039
12839892 36 18265917842441053202
13004483 165 18338530680860276019
13140716 1 18409733954400339240
138480 1 15672668377341342727
14178342 30 18336840770164507832
14223421 5 18335142020314539614
14251705 54 18267863891453171571
14251757 5 17688003724412851566
14790565 3 17618776964541299893
17093844 170 18338529550967210377
17357779 13 18336281041325411791
17492 54 17841708509165698172
17859628 97 17402891623197320075
19591789 44 16179311601327219377
20645477 70 17694515741279130547
20905425 154 18334855026146838598
22113638 7 17831870040307462126
221490 88 18336260219761927258
23559900 14 18336559277992356856
238 59 16618453865591577805
2871803 45 18410018701741280383
46194498 28 17557162609864362453
6443956 14 18194688064525943981
81228 2 18413112779460333865
9709674 26 18263647440512026782

> <PUBCHEM_SHAPE_MULTIPOLES>
414.39
6.86
5.09
0.92
1.53
0.55
-0.04
-4.71
-0.14
-2.93
-0.68
-0.35
0.02
0.48

> <PUBCHEM_SHAPE_SELFOVERLAP>
856.261

> <PUBCHEM_SHAPE_VOLUME>
238.8

> <PUBCHEM_COORDINATE_TYPE>
2
5
10

$$$$

