439404
  -OEChem-07051212453D

 29 29  0     1  0  0  0  0  0999 V2000
    3.7336   -0.0720    0.1444 P   0  0  0  0  0  0  0  0  0  0  0  0
   -1.0266    1.3903   -0.2106 O   0  0  0  0  0  0  0  0  0  0  0  0
   -0.5050   -1.1585   -1.3898 O   0  0  0  0  0  0  0  0  0  0  0  0
   -2.5229   -2.4619    0.0093 O   0  0  0  0  0  0  0  0  0  0  0  0
   -4.2368   -0.1971    0.5559 O   0  0  0  0  0  0  0  0  0  0  0  0
   -3.1836    2.2632   -0.3961 O   0  0  0  0  0  0  0  0  0  0  0  0
    2.1583   -0.1816    0.5032 O   0  0  0  0  0  0  0  0  0  0  0  0
    4.0900    1.4754    0.4501 O   0  0  0  0  0  0  0  0  0  0  0  0
    3.7427   -0.1437   -1.4710 O   0  0  0  0  0  0  0  0  0  0  0  0
    4.6106   -1.0797    0.8285 O   0  0  0  0  0  0  0  0  0  0  0  0
   -0.6000   -0.9885    0.0259 C   0  0  2  0  0  0  0  0  0  0  0  0
   -2.0471   -1.2010    0.4719 C   0  0  1  0  0  0  0  0  0  0  0  0
   -0.1485    0.4301    0.3898 C   0  0  1  0  0  0  0  0  0  0  0  0
   -2.9548   -0.0940   -0.0634 C   0  0  2  0  0  0  0  0  0  0  0  0
   -2.3720    1.2851    0.2533 C   0  0  1  0  0  0  0  0  0  0  0  0
    1.2621    0.7337   -0.1013 C   0  0  0  0  0  0  0  0  0  0  0  0
    0.0432   -1.7495    0.4800 H   0  0  0  0  0  0  0  0  0  0  0  0
   -2.0948   -1.2245    1.5678 H   0  0  0  0  0  0  0  0  0  0  0  0
   -0.1767    0.5518    1.4810 H   0  0  0  0  0  0  0  0  0  0  0  0
   -3.1156   -0.2172   -1.1413 H   0  0  0  0  0  0  0  0  0  0  0  0
   -2.4125    1.4881    1.3310 H   0  0  0  0  0  0  0  0  0  0  0  0
    1.5343    1.7580    0.1765 H   0  0  0  0  0  0  0  0  0  0  0  0
    1.3252    0.6692   -1.1929 H   0  0  0  0  0  0  0  0  0  0  0  0
   -0.9521   -0.4093   -1.8184 H   0  0  0  0  0  0  0  0  0  0  0  0
   -3.4479   -2.5480    0.2973 H   0  0  0  0  0  0  0  0  0  0  0  0
   -4.7842    0.5306    0.2143 H   0  0  0  0  0  0  0  0  0  0  0  0
   -3.0780    3.0944    0.0971 H   0  0  0  0  0  0  0  0  0  0  0  0
    5.0215    1.7724    0.3712 H   0  0  0  0  0  0  0  0  0  0  0  0
    4.6034   -0.1888   -1.9392 H   0  0  0  0  0  0  0  0  0  0  0  0
  1  7  1  0  0  0  0
  1  8  1  0  0  0  0
  1  9  1  0  0  0  0
  1 10  2  0  0  0  0
  2 13  1  0  0  0  0
  2 15  1  0  0  0  0
  3 11  1  0  0  0  0
  3 24  1  0  0  0  0
  4 12  1  0  0  0  0
  4 25  1  0  0  0  0
  5 14  1  0  0  0  0
  5 26  1  0  0  0  0
  6 15  1  0  0  0  0
  6 27  1  0  0  0  0
  7 16  1  0  0  0  0
  8 28  1  0  0  0  0
  9 29  1  0  0  0  0
 11 12  1  0  0  0  0
 11 13  1  0  0  0  0
 11 17  1  0  0  0  0
 12 14  1  0  0  0  0
 12 18  1  0  0  0  0
 13 16  1  0  0  0  0
 13 19  1  0  0  0  0
 14 15  1  0  0  0  0
 14 20  1  0  0  0  0
 15 21  1  0  0  0  0
 16 22  1  0  0  0  0
 16 23  1  0  0  0  0
M  END
> <PUBCHEM_COMPOUND_CID>
439404

> <PUBCHEM_CONFORMER_RMSD>
0.6

> <PUBCHEM_CONFORMER_DIVERSEORDER>
2
26
24
14
25
1
22
28
21
27
11
4
36
33
17
29
23
15
34
8
5
19
6
10
12
9
13
35
32
3
20
31
18
16
30
7

> <PUBCHEM_MMFF94_PARTIAL_CHARGES>
22
1 1.51
10 -0.7
11 0.28
12 0.28
13 0.28
14 0.28
15 0.56
16 0.28
2 -0.56
24 0.4
25 0.4
26 0.4
27 0.4
28 0.5
29 0.5
3 -0.68
4 -0.68
5 -0.68
6 -0.68
7 -0.55
8 -0.77
9 -0.77

> <PUBCHEM_EFFECTIVE_ROTOR_COUNT>
4.2

> <PUBCHEM_PHARMACOPHORE_FEATURES>
14
1 10 acceptor
1 2 acceptor
1 3 acceptor
1 3 donor
1 4 acceptor
1 4 donor
1 5 acceptor
1 5 donor
1 6 acceptor
1 6 donor
1 8 acceptor
1 9 acceptor
4 1 8 9 10 anion
6 2 11 12 13 14 15 rings

> <PUBCHEM_HEAVY_ATOM_COUNT>
16

> <PUBCHEM_ATOM_DEF_STEREO_COUNT>
4

> <PUBCHEM_ATOM_UDEF_STEREO_COUNT>
1

> <PUBCHEM_BOND_DEF_STEREO_COUNT>
0

> <PUBCHEM_BOND_UDEF_STEREO_COUNT>
0

> <PUBCHEM_ISOTOPIC_ATOM_COUNT>
0

> <PUBCHEM_COMPONENT_COUNT>
1

> <PUBCHEM_CACTVS_TAUTO_COUNT>
1

> <PUBCHEM_CONFORMER_ID>
0006B46C00000002

> <PUBCHEM_MMFF94_ENERGY>
1.6085

> <PUBCHEM_FEATURE_SELFOVERLAP>
71.144

> <PUBCHEM_SHAPE_FINGERPRINT>
10608611 8 18335143081208729384
12186901 62 18339350950519704749
13024252 1 15626508289642596785
13296908 3 18335421236370418264
13862211 1 18410857621357048531
14144814 61 18341895203505004488
15219456 202 18115864268850841535
16945 1 18411704270789589251
17804303 29 18336261262979862521
18186145 218 17895469336374746176
19422 9 18060416911264225138
20279233 1 17240485819065560462
20510252 161 18261390083211556153
20645477 56 18411133671098896345
20645477 70 16950554528474672182
20871998 184 18187925023953102823
22485316 2 18412829049604622122
23402539 116 18408612448672178247
23557571 272 18335414656533826988
23559900 14 18260828250460814580
2748010 2 17977389339639897577
4175511 318 18130513015091704413
4214541 1 18411984680530248472
5104073 3 18411139134576723328
559249 180 18128544953929536442
573450 72 18272380788589161898
69090 78 18040439875550545407
9709674 26 18334292097900485734

> <PUBCHEM_SHAPE_MULTIPOLES>
280.3
8.14
1.86
0.9
6.92
0.01
0.24
-0.24
-0.85
-1.53
0.06
0.49
0.15
0.11

> <PUBCHEM_SHAPE_SELFOVERLAP>
547.31

> <PUBCHEM_SHAPE_VOLUME>
169.4

> <PUBCHEM_COORDINATE_TYPE>
2
5
10

$$$$

