442282
  -OEChem-07051212572D

 35 39  0     1  0  0  0  0  0999 V2000
    2.0000   -1.4520    0.0000 O   0  0  0  0  0  0  0  0  0  0  0  0
    4.5988   -2.9524    0.0000 O   0  0  0  0  0  0  0  0  0  0  0  0
    2.9956    1.2151    0.0000 O   0  0  0  0  0  0  0  0  0  0  0  0
    6.0858   -0.2340    0.0000 O   0  0  0  0  0  0  0  0  0  0  0  0
    6.0212   -1.9995    0.0000 O   0  0  0  0  0  0  0  0  0  0  0  0
    2.9007    2.9889    0.0000 O   0  0  0  0  0  0  0  0  0  0  0  0
    2.8665   -1.9520    0.0000 C   0  0  2  0  0  0  0  0  0  0  0  0
    2.8665   -0.9520    0.0000 C   0  0  2  0  0  0  0  0  0  0  0  0
    3.7326   -2.4520    0.0000 C   0  0  1  0  0  0  0  0  0  0  0  0
    4.5986   -1.9520    0.0000 C   0  0  1  0  0  0  0  0  0  0  0  0
    3.7326   -0.4520    0.0000 C   0  0  0  0  0  0  0  0  0  0  0  0
    3.7326    0.5480    0.0000 C   0  0  1  0  0  0  0  0  0  0  0  0
    2.3665   -0.0860    0.0000 C   0  0  0  0  0  0  0  0  0  0  0  0
    4.5986    1.0480    0.0000 C   0  0  2  0  0  0  0  0  0  0  0  0
    4.5986   -0.9520    0.0000 C   0  0  0  0  0  0  0  0  0  0  0  0
    5.4646    0.5480    0.0000 C   0  0  1  0  0  0  0  0  0  0  0  0
    5.4646   -0.4520    0.0000 C   0  0  0  0  0  0  0  0  0  0  0  0
    4.3894    2.0198    0.0000 C   0  0  0  0  0  0  0  0  0  0  0  0
    5.5865   -1.0990    0.0000 C   0  0  0  0  0  0  0  0  0  0  0  0
    3.4007    2.1229    0.0000 C   0  0  0  0  0  0  0  0  0  0  0  0
    5.0572    2.7641    0.0000 C   0  0  0  0  0  0  0  0  0  0  0  0
    2.4417   -2.6882    0.0000 H   0  0  0  0  0  0  0  0  0  0  0  0
    3.4225   -2.9889    0.0000 H   0  0  0  0  0  0  0  0  0  0  0  0
    5.1355   -1.6420    0.0000 H   0  0  0  0  0  0  0  0  0  0  0  0
    3.9446   -1.0346    0.0000 H   0  0  0  0  0  0  0  0  0  0  0  0
    4.3431   -0.3443    0.0000 H   0  0  0  0  0  0  0  0  0  0  0  0
    2.9964    0.1230    0.0000 H   0  0  0  0  0  0  0  0  0  0  0  0
    2.9035    0.2240    0.0000 H   0  0  0  0  0  0  0  0  0  0  0  0
    2.0565    0.4510    0.0000 H   0  0  0  0  0  0  0  0  0  0  0  0
    1.8296   -0.3960    0.0000 H   0  0  0  0  0  0  0  0  0  0  0  0
    5.0236    1.7841    0.0000 H   0  0  0  0  0  0  0  0  0  0  0  0
    5.8896    1.2841    0.0000 H   0  0  0  0  0  0  0  0  0  0  0  0
    6.0016   -0.7620    0.0000 H   0  0  0  0  0  0  0  0  0  0  0  0
    5.6639    2.6363    0.0000 H   0  0  0  0  0  0  0  0  0  0  0  0
    4.8646    3.3534    0.0000 H   0  0  0  0  0  0  0  0  0  0  0  0
  1  7  1  0  0  0  0
  1  8  1  0  0  0  0
  9  2  1  1  0  0  0
 10  2  1  1  0  0  0
  3 12  1  0  0  0  0
  3 20  1  0  0  0  0
  4 16  1  0  0  0  0
  4 19  1  0  0  0  0
  5 19  2  0  0  0  0
  6 20  2  0  0  0  0
  7  8  1  0  0  0  0
  7  9  1  0  0  0  0
  7 22  1  1  0  0  0
  8 11  1  0  0  0  0
  8 13  1  6  0  0  0
  9 10  1  0  0  0  0
  9 23  1  0  0  0  0
 10 15  1  0  0  0  0
 10 24  1  0  0  0  0
 11 12  1  0  0  0  0
 11 25  1  0  0  0  0
 11 26  1  0  0  0  0
 12 14  1  0  0  0  0
 12 27  1  1  0  0  0
 13 28  1  0  0  0  0
 13 29  1  0  0  0  0
 13 30  1  0  0  0  0
 14 16  1  0  0  0  0
 14 18  1  0  0  0  0
 14 31  1  6  0  0  0
 15 17  2  0  0  0  0
 15 19  1  0  0  0  0
 16 17  1  0  0  0  0
 16 32  1  1  0  0  0
 17 33  1  0  0  0  0
 18 20  1  0  0  0  0
 18 21  2  0  0  0  0
 21 34  1  0  0  0  0
 21 35  1  0  0  0  0
M  END
> <PUBCHEM_COMPOUND_CID>
442282

> <PUBCHEM_COMPOUND_CANONICALIZED>
1

> <PUBCHEM_CACTVS_COMPLEXITY>
636

> <PUBCHEM_CACTVS_HBOND_ACCEPTOR>
6

> <PUBCHEM_CACTVS_HBOND_DONOR>
0

> <PUBCHEM_CACTVS_ROTATABLE_BOND>
0

> <PUBCHEM_CACTVS_SUBSKEYS>
AAADccBwOAAAAAAAAAAAAAAAEiQAASIAAAAAAAAAAAAAAACAAAAAGgAAAAAADVSggAICCAAABACIAiDSCAAAAAAgAAAACAEAAEgBBBYAIQACEAAF4AAKIYPK7PzOAAAAAAAAAAAAAAAAAAAAAAAAAAAAAA==

> <PUBCHEM_IUPAC_INCHI>
InChI=1S/C15H14O6/c1-5-9-7-3-6(14(17)18-7)10-11(20-10)12-15(2,21-12)4-8(9)19-13(5)16/h3,7-12H,1,4H2,2H3/t7-,8+,9+,10-,11-,12+,15+/m1/s1

> <PUBCHEM_IUPAC_INCHIKEY>
JRZGAAFGODYEEA-ATNXOXLHSA-N

> <PUBCHEM_XLOGP3_AA>
0.2

> <PUBCHEM_EXACT_MASS>
290.079038

> <PUBCHEM_MOLECULAR_FORMULA>
C15H14O6

> <PUBCHEM_MOLECULAR_WEIGHT>
290.26806

> <PUBCHEM_OPENEYE_CAN_SMILES>
CC12CC3C(C4C=C(C5C(C1O2)O5)C(=O)O4)C(=C)C(=O)O3

> <PUBCHEM_OPENEYE_ISO_SMILES>
C[C@]12C[C@H]3[C@H]([C@H]4C=C([C@@H]5[C@H]([C@@H]1O2)O5)C(=O)O4)C(=C)C(=O)O3

> <PUBCHEM_CACTVS_TPSA>
77.7

> <PUBCHEM_MONOISOTOPIC_WEIGHT>
290.079038

> <PUBCHEM_TOTAL_CHARGE>
0

> <PUBCHEM_HEAVY_ATOM_COUNT>
21

> <PUBCHEM_ATOM_DEF_STEREO_COUNT>
7

> <PUBCHEM_ATOM_UDEF_STEREO_COUNT>
0

> <PUBCHEM_BOND_DEF_STEREO_COUNT>
0

> <PUBCHEM_BOND_UDEF_STEREO_COUNT>
0

> <PUBCHEM_ISOTOPIC_ATOM_COUNT>
0

> <PUBCHEM_COMPONENT_COUNT>
1

> <PUBCHEM_CACTVS_TAUTO_COUNT>
1

> <PUBCHEM_COORDINATE_TYPE>
1
5
255

> <PUBCHEM_BONDANNOTATIONS>
12  27  5
14  31  6
16  32  5
10  2  5
9  2  5
7  22  5
8  13  6

$$$$

