62608
  -OEChem-07051213143D

 34 36  0     0  0  0  0  0  0999 V2000
    0.0606   -0.4531    0.5474 N   0  0  0  0  0  0  0  0  0  0  0  0
    0.6572   -0.3511   -0.5485 N   0  0  0  0  0  0  0  0  0  0  0  0
    2.6037   -2.3943   -0.2420 N   0  0  0  0  0  0  0  0  0  0  0  0
    6.0211    1.0012    0.3300 N   0  0  0  0  0  0  0  0  0  0  0  0
   -2.2646    0.2217    0.1688 C   0  0  0  0  0  0  0  0  0  0  0  0
   -3.6097   -0.1573   -0.0547 C   0  0  0  0  0  0  0  0  0  0  0  0
   -1.2875   -0.7746    0.3263 C   0  0  0  0  0  0  0  0  0  0  0  0
   -1.9362    1.5859    0.2280 C   0  0  0  0  0  0  0  0  0  0  0  0
   -3.9381   -1.5215   -0.1139 C   0  0  0  0  0  0  0  0  0  0  0  0
   -4.5868    0.8391   -0.2122 C   0  0  0  0  0  0  0  0  0  0  0  0
   -1.6315   -2.1253    0.2645 C   0  0  0  0  0  0  0  0  0  0  0  0
   -2.9544   -2.4979    0.0448 C   0  0  0  0  0  0  0  0  0  0  0  0
   -2.9199    2.5624    0.0694 C   0  0  0  0  0  0  0  0  0  0  0  0
   -4.2427    2.1897   -0.1502 C   0  0  0  0  0  0  0  0  0  0  0  0
    2.0071   -0.0289   -0.3266 C   0  0  0  0  0  0  0  0  0  0  0  0
    2.9636   -1.0298   -0.1765 C   0  0  0  0  0  0  0  0  0  0  0  0
    4.6721    0.6546    0.1079 C   0  0  0  0  0  0  0  0  0  0  0  0
    4.2982   -0.6876    0.0411 C   0  0  0  0  0  0  0  0  0  0  0  0
    2.3767    1.3123   -0.2606 C   0  0  0  0  0  0  0  0  0  0  0  0
    3.7112    1.6546   -0.0429 C   0  0  0  0  0  0  0  0  0  0  0  0
   -0.9165    1.9195    0.4036 H   0  0  0  0  0  0  0  0  0  0  0  0
   -4.9656   -1.8358   -0.2847 H   0  0  0  0  0  0  0  0  0  0  0  0
   -5.6271    0.5708   -0.3847 H   0  0  0  0  0  0  0  0  0  0  0  0
   -0.8749   -2.8961    0.3874 H   0  0  0  0  0  0  0  0  0  0  0  0
   -3.2217   -3.5495   -0.0031 H   0  0  0  0  0  0  0  0  0  0  0  0
   -2.6532    3.6140    0.1188 H   0  0  0  0  0  0  0  0  0  0  0  0
   -5.0081    2.9504   -0.2733 H   0  0  0  0  0  0  0  0  0  0  0  0
    5.0484   -1.4668    0.1590 H   0  0  0  0  0  0  0  0  0  0  0  0
    1.6365    2.0992   -0.3789 H   0  0  0  0  0  0  0  0  0  0  0  0
    3.9899    2.7040    0.0070 H   0  0  0  0  0  0  0  0  0  0  0  0
    3.3075   -3.1115   -0.1295 H   0  0  0  0  0  0  0  0  0  0  0  0
    1.6381   -2.6516   -0.3981 H   0  0  0  0  0  0  0  0  0  0  0  0
    6.7190    0.2770    0.4365 H   0  0  0  0  0  0  0  0  0  0  0  0
    6.2929    1.9742    0.3752 H   0  0  0  0  0  0  0  0  0  0  0  0
  1  2  2  0  0  0  0
  1  7  1  0  0  0  0
  2 15  1  0  0  0  0
  3 16  1  0  0  0  0
  3 31  1  0  0  0  0
  3 32  1  0  0  0  0
  4 17  1  0  0  0  0
  4 33  1  0  0  0  0
  4 34  1  0  0  0  0
  5  6  1  0  0  0  0
  5  7  1  0  0  0  0
  5  8  2  0  0  0  0
  6  9  1  0  0  0  0
  6 10  2  0  0  0  0
  7 11  2  0  0  0  0
  8 13  1  0  0  0  0
  8 21  1  0  0  0  0
  9 12  2  0  0  0  0
  9 22  1  0  0  0  0
 10 14  1  0  0  0  0
 10 23  1  0  0  0  0
 11 12  1  0  0  0  0
 11 24  1  0  0  0  0
 12 25  1  0  0  0  0
 13 14  2  0  0  0  0
 13 26  1  0  0  0  0
 14 27  1  0  0  0  0
 15 16  2  0  0  0  0
 15 19  1  0  0  0  0
 16 18  1  0  0  0  0
 17 18  2  0  0  0  0
 17 20  1  0  0  0  0
 18 28  1  0  0  0  0
 19 20  2  0  0  0  0
 19 29  1  0  0  0  0
 20 30  1  0  0  0  0
M  END
> <PUBCHEM_COMPOUND_CID>
62608

> <PUBCHEM_CONFORMER_RMSD>
0.6

> <PUBCHEM_CONFORMER_DIVERSEORDER>
1
3
4
5
2
8
6
7

> <PUBCHEM_MMFF94_PARTIAL_CHARGES>
32
1 -0.18
10 -0.15
11 -0.15
12 -0.15
13 -0.15
14 -0.15
15 0.18
16 0.1
17 0.1
18 -0.15
19 -0.15
2 -0.18
20 -0.15
21 0.15
22 0.15
23 0.15
24 0.15
25 0.15
26 0.15
27 0.15
28 0.15
29 0.15
3 -0.9
30 0.15
31 0.4
32 0.4
33 0.4
34 0.4
4 -0.9
7 0.18
8 -0.15
9 -0.15

> <PUBCHEM_EFFECTIVE_ROTOR_COUNT>
2

> <PUBCHEM_PHARMACOPHORE_FEATURES>
7
1 3 cation
1 3 donor
1 4 cation
1 4 donor
6 15 16 17 18 19 20 rings
6 5 6 7 9 11 12 rings
6 5 6 8 10 13 14 rings

> <PUBCHEM_HEAVY_ATOM_COUNT>
20

> <PUBCHEM_ATOM_DEF_STEREO_COUNT>
0

> <PUBCHEM_ATOM_UDEF_STEREO_COUNT>
0

> <PUBCHEM_BOND_DEF_STEREO_COUNT>
0

> <PUBCHEM_BOND_UDEF_STEREO_COUNT>
0

> <PUBCHEM_ISOTOPIC_ATOM_COUNT>
0

> <PUBCHEM_COMPONENT_COUNT>
1

> <PUBCHEM_CACTVS_TAUTO_COUNT>
12

> <PUBCHEM_CONFORMER_ID>
0000F49000000001

> <PUBCHEM_MMFF94_ENERGY>
80.975

> <PUBCHEM_FEATURE_SELFOVERLAP>
35.547

> <PUBCHEM_SHAPE_FINGERPRINT>
10014705 185 18342458153511212133
10411042 1 17834675998841561691
10493431 412 18263634225710677113
10608611 8 18409446985732993741
10616163 171 18409445851883149015
10646746 165 18410854365259712996
11315181 36 17988646238295385660
11370993 70 18410013255743984486
11405975 8 18340205288561656914
11595378 159 17632308898867382216
12107183 9 17981896551108080282
12173636 292 18411420644055395175
12403260 363 18269841913235225596
13167823 11 18341897376795658818
13403585 85 18336552607992132976
13583140 156 17894919494655945078
14341114 176 18410287030150087100
14466204 15 18410300194694634040
14508225 48 18120388566643010583
14790565 3 18046900761149197849
15196674 1 18410855477661484836
15442244 35 18267866262491357770
17492 89 18411416219754790107
1813 80 16702016513348052862
200 152 17968096391262092527
20510252 161 18408880733582854827
20645477 56 18412542132883254769
20645477 70 17095513054785537838
21033648 29 17677065563880208088
21065198 57 18410855460523937134
21267235 1 18340477872650167867
21421861 104 17630336448701688834
21709351 56 18410577245633113500
21859007 373 17342676774334162540
22393880 68 18335692863082552326
23227448 37 18409730668739691245
23402539 116 18410299081764815061
23557571 272 18261948566055708093
23559900 14 18189335830837584014
245318 6 16840772458549960668
351380 180 18410013234390402276
3545911 37 18409445894974980260
4028521 119 18342744043877911485
4073 2 18130501960394666642
4214541 1 18411418418814072436
441001 317 18409168800806986840
474 4 17703784795588050380
5104073 3 18412543240715890106
573450 72 18271817817034420458
69090 78 18411419548575009703
77779 3 18410854352301029478
9709674 26 18409160021846750886
9981440 41 18342176661239108171

> <PUBCHEM_SHAPE_MULTIPOLES>
391.67
11.28
2.71
0.66
9.06
0.21
0
-3.34
-0.04
-2.22
0
0
0
0.21

> <PUBCHEM_SHAPE_SELFOVERLAP>
868.488

> <PUBCHEM_SHAPE_VOLUME>
208.5

> <PUBCHEM_COORDINATE_TYPE>
2
5
10

$$$$

