7846968
  -OEChem-06241222482D

 44 48  0     0  0  0  0  0  0999 V2000
    5.4547    2.1145    0.0000 S   0  0  0  0  0  0  0  0  0  0  0  0
    4.5274   -1.4692    0.0000 O   0  0  0  0  0  0  0  0  0  0  0  0
    6.2594   -1.4692    0.0000 O   0  0  0  0  0  0  0  0  0  0  0  0
    7.0641    2.1145    0.0000 N   0  0  0  0  0  0  0  0  0  0  0  0
    4.5274   -2.4692    0.0000 C   0  0  0  0  0  0  0  0  0  0  0  0
    5.3364   -3.0569    0.0000 C   0  0  0  0  0  0  0  0  0  0  0  0
    3.7183   -3.0569    0.0000 C   0  0  0  0  0  0  0  0  0  0  0  0
    5.0274   -4.0080    0.0000 C   0  0  0  0  0  0  0  0  0  0  0  0
    4.0274   -4.0080    0.0000 C   0  0  0  0  0  0  0  0  0  0  0  0
    6.3518   -2.8247    0.0000 C   0  0  0  0  0  0  0  0  0  0  0  0
    2.7029   -2.8247    0.0000 C   0  0  0  0  0  0  0  0  0  0  0  0
    5.7123   -4.7927    0.0000 C   0  0  0  0  0  0  0  0  0  0  0  0
    3.3424   -4.7927    0.0000 C   0  0  0  0  0  0  0  0  0  0  0  0
    7.0547   -3.5934    0.0000 C   0  0  0  0  0  0  0  0  0  0  0  0
    2.0000   -3.5934    0.0000 C   0  0  0  0  0  0  0  0  0  0  0  0
    2.3219   -4.5840    0.0000 C   0  0  0  0  0  0  0  0  0  0  0  0
    6.7328   -4.5840    0.0000 C   0  0  0  0  0  0  0  0  0  0  0  0
    5.3934    0.0308    0.0000 C   0  0  0  0  0  0  0  0  0  0  0  0
    5.3934   -0.9692    0.0000 C   0  0  0  0  0  0  0  0  0  0  0  0
    6.2594    0.5308    0.0000 C   0  0  0  0  0  0  0  0  0  0  0  0
    6.2594    1.5308    0.0000 C   0  0  0  0  0  0  0  0  0  0  0  0
    5.7594    3.0607    0.0000 C   0  0  0  0  0  0  0  0  0  0  0  0
    6.7594    3.0607    0.0000 C   0  0  0  0  0  0  0  0  0  0  0  0
    5.2594    3.9267    0.0000 C   0  0  0  0  0  0  0  0  0  0  0  0
    7.2594    3.9267    0.0000 C   0  0  0  0  0  0  0  0  0  0  0  0
    5.7594    4.7927    0.0000 C   0  0  0  0  0  0  0  0  0  0  0  0
    6.7594    4.7927    0.0000 C   0  0  0  0  0  0  0  0  0  0  0  0
    5.0798   -2.1877    0.0000 H   0  0  0  0  0  0  0  0  0  0  0  0
    6.5365   -2.2329    0.0000 H   0  0  0  0  0  0  0  0  0  0  0  0
    2.5182   -2.2329    0.0000 H   0  0  0  0  0  0  0  0  0  0  0  0
    5.5139   -5.3801    0.0000 H   0  0  0  0  0  0  0  0  0  0  0  0
    3.5408   -5.3801    0.0000 H   0  0  0  0  0  0  0  0  0  0  0  0
    1.3940   -3.4621    0.0000 H   0  0  0  0  0  0  0  0  0  0  0  0
    7.6607   -3.4621    0.0000 H   0  0  0  0  0  0  0  0  0  0  0  0
    5.1813    0.6135    0.0000 H   0  0  0  0  0  0  0  0  0  0  0  0
    4.7828   -0.0768    0.0000 H   0  0  0  0  0  0  0  0  0  0  0  0
    1.9088   -5.0464    0.0000 H   0  0  0  0  0  0  0  0  0  0  0  0
    7.1459   -5.0464    0.0000 H   0  0  0  0  0  0  0  0  0  0  0  0
    6.4715   -0.0518    0.0000 H   0  0  0  0  0  0  0  0  0  0  0  0
    6.8700    0.6385    0.0000 H   0  0  0  0  0  0  0  0  0  0  0  0
    4.6394    3.9267    0.0000 H   0  0  0  0  0  0  0  0  0  0  0  0
    7.8794    3.9267    0.0000 H   0  0  0  0  0  0  0  0  0  0  0  0
    5.4494    5.3297    0.0000 H   0  0  0  0  0  0  0  0  0  0  0  0
    7.0694    5.3297    0.0000 H   0  0  0  0  0  0  0  0  0  0  0  0
  1 21  1  0  0  0  0
  1 22  1  0  0  0  0
  2  5  1  0  0  0  0
  2 19  1  0  0  0  0
  3 19  2  0  0  0  0
  4 21  2  0  0  0  0
  4 23  1  0  0  0  0
  5  6  1  0  0  0  0
  5  7  1  0  0  0  0
  5 28  1  0  0  0  0
  6  8  1  0  0  0  0
  6 10  2  0  0  0  0
  7  9  1  0  0  0  0
  7 11  2  0  0  0  0
  8  9  1  0  0  0  0
  8 12  2  0  0  0  0
  9 13  2  0  0  0  0
 10 14  1  0  0  0  0
 10 29  1  0  0  0  0
 11 15  1  0  0  0  0
 11 30  1  0  0  0  0
 12 17  1  0  0  0  0
 12 31  1  0  0  0  0
 13 16  1  0  0  0  0
 13 32  1  0  0  0  0
 14 17  2  0  0  0  0
 14 34  1  0  0  0  0
 15 16  2  0  0  0  0
 15 33  1  0  0  0  0
 16 37  1  0  0  0  0
 17 38  1  0  0  0  0
 18 19  1  0  0  0  0
 18 20  1  0  0  0  0
 18 35  1  0  0  0  0
 18 36  1  0  0  0  0
 20 21  1  0  0  0  0
 20 39  1  0  0  0  0
 20 40  1  0  0  0  0
 22 23  1  0  0  0  0
 22 24  2  0  0  0  0
 23 25  2  0  0  0  0
 24 26  1  0  0  0  0
 24 41  1  0  0  0  0
 25 27  1  0  0  0  0
 25 42  1  0  0  0  0
 26 27  2  0  0  0  0
 26 43  1  0  0  0  0
 27 44  1  0  0  0  0
M  END
> <PUBCHEM_COMPOUND_CID>
7846968

> <PUBCHEM_COMPOUND_CANONICALIZED>
1

> <PUBCHEM_CACTVS_COMPLEXITY>
519

> <PUBCHEM_CACTVS_HBOND_ACCEPTOR>
4

> <PUBCHEM_CACTVS_HBOND_DONOR>
0

> <PUBCHEM_CACTVS_ROTATABLE_BOND>
5

> <PUBCHEM_CACTVS_SUBSKEYS>
AAADceB6MABAAAAAAAAAAAAAAAAAAeIAAAAwYMAAAAAAAHgB9AAAHgQAAAAADByh3gIwybIIFAisAyTyTACD8KBhCjhImD0wbJgIJrLgsZmGMAhkwAHo6Ae0wOAOgAAAAAAQAQAAAAAAACACAYAADAAAAA==

> <PUBCHEM_IUPAC_OPENEYE_NAME>
9H-fluoren-9-yl 3-(1,3-benzothiazol-2-yl)propanoate

> <PUBCHEM_IUPAC_CAS_NAME>
3-(1,3-benzothiazol-2-yl)propanoic acid 9H-fluoren-9-yl ester

> <PUBCHEM_IUPAC_NAME>
9H-fluoren-9-yl 3-(1,3-benzothiazol-2-yl)propanoate

> <PUBCHEM_IUPAC_SYSTEMATIC_NAME>
9H-fluoren-9-yl 3-(1,3-benzothiazol-2-yl)propanoate

> <PUBCHEM_IUPAC_TRADITIONAL_NAME>
3-(1,3-benzothiazol-2-yl)propionic acid 9H-fluoren-9-yl ester

> <PUBCHEM_IUPAC_INCHI>
InChI=1S/C23H17NO2S/c25-22(14-13-21-24-19-11-5-6-12-20(19)27-21)26-23-17-9-3-1-7-15(17)16-8-2-4-10-18(16)23/h1-12,23H,13-14H2

> <PUBCHEM_IUPAC_INCHIKEY>
YASALCNNESEGIA-UHFFFAOYSA-N

> <PUBCHEM_XLOGP3_AA>
5.4

> <PUBCHEM_EXACT_MASS>
371.098

> <PUBCHEM_MOLECULAR_FORMULA>
C23H17NO2S

> <PUBCHEM_MOLECULAR_WEIGHT>
371.45158

> <PUBCHEM_OPENEYE_CAN_SMILES>
C1=CC=C2C(=C1)C(C3=CC=CC=C32)OC(=O)CCC4=NC5=CC=CC=C5S4

> <PUBCHEM_OPENEYE_ISO_SMILES>
C1=CC=C2C(=C1)C(C3=CC=CC=C32)OC(=O)CCC4=NC5=CC=CC=C5S4

> <PUBCHEM_CACTVS_TPSA>
67.4

> <PUBCHEM_MONOISOTOPIC_WEIGHT>
371.098

> <PUBCHEM_TOTAL_CHARGE>
0

> <PUBCHEM_HEAVY_ATOM_COUNT>
27

> <PUBCHEM_ATOM_DEF_STEREO_COUNT>
0

> <PUBCHEM_ATOM_UDEF_STEREO_COUNT>
0

> <PUBCHEM_BOND_DEF_STEREO_COUNT>
0

> <PUBCHEM_BOND_UDEF_STEREO_COUNT>
0

> <PUBCHEM_ISOTOPIC_ATOM_COUNT>
0

> <PUBCHEM_COMPONENT_COUNT>
1

> <PUBCHEM_CACTVS_TAUTO_COUNT>
2

> <PUBCHEM_COORDINATE_TYPE>
1
5
255

> <PUBCHEM_BONDANNOTATIONS>
1  21  8
1  22  8
10  14  8
11  15  8
12  17  8
13  16  8
14  17  8
15  16  8
22  23  8
22  24  8
23  25  8
24  26  8
25  27  8
26  27  8
4  21  8
4  23  8
6  10  8
6  8  8
7  11  8
7  9  8
8  12  8
9  13  8

$$$$

