5353656
  -OEChem-07051212513D

 27 29  0     0  0  0  0  0  0999 V2000
    4.4882   -0.6043   -0.1096 O   0  0  0  0  0  0  0  0  0  0  0  0
   -0.2503   -1.5065    0.0282 N   0  0  0  0  0  0  0  0  0  0  0  0
   -3.4619    0.3344   -0.0326 N   0  0  0  0  0  0  0  0  0  0  0  0
   -0.7012    0.7168    0.1011 C   0  0  0  0  0  0  0  0  0  0  0  0
   -1.5889    1.9139    0.2305 C   0  0  0  0  0  0  0  0  0  0  0  0
   -1.2995   -0.6256    0.0538 C   0  0  0  0  0  0  0  0  0  0  0  0
    0.6386    0.5858    0.0501 C   0  0  0  0  0  0  0  0  0  0  0  0
   -2.9726    1.6606   -0.3856 C   0  0  0  0  0  0  0  0  0  0  0  0
   -2.6351   -0.7771    0.0302 C   0  0  0  0  0  0  0  0  0  0  0  0
    0.9470   -0.8441    0.0035 C   0  0  0  0  0  0  0  0  0  0  0  0
    1.6678    1.5851    0.0740 C   0  0  0  0  0  0  0  0  0  0  0  0
    2.2136   -1.2660   -0.0493 C   0  0  0  0  0  0  0  0  0  0  0  0
   -3.3099   -2.1163    0.0353 C   0  0  0  0  0  0  0  0  0  0  0  0
    2.9505    1.1973    0.0221 C   0  0  0  0  0  0  0  0  0  0  0  0
    3.3137   -0.2539   -0.0518 C   0  0  0  0  0  0  0  0  0  0  0  0
   -1.7162    2.1287    1.2994 H   0  0  0  0  0  0  0  0  0  0  0  0
   -1.1368    2.7996   -0.2284 H   0  0  0  0  0  0  0  0  0  0  0  0
   -3.6826    2.4206   -0.0431 H   0  0  0  0  0  0  0  0  0  0  0  0
   -2.9129    1.7352   -1.4781 H   0  0  0  0  0  0  0  0  0  0  0  0
   -0.3442   -2.5089   -0.0161 H   0  0  0  0  0  0  0  0  0  0  0  0
   -4.4615    0.1632   -0.0712 H   0  0  0  0  0  0  0  0  0  0  0  0
    1.4041    2.6345    0.1314 H   0  0  0  0  0  0  0  0  0  0  0  0
    2.4775   -2.3159   -0.0867 H   0  0  0  0  0  0  0  0  0  0  0  0
   -3.9750   -2.2016    0.9013 H   0  0  0  0  0  0  0  0  0  0  0  0
   -2.5985   -2.9464    0.0828 H   0  0  0  0  0  0  0  0  0  0  0  0
   -3.9085   -2.2433   -0.8730 H   0  0  0  0  0  0  0  0  0  0  0  0
    3.7596    1.9185    0.0344 H   0  0  0  0  0  0  0  0  0  0  0  0
  1 15  2  0  0  0  0
  2  6  1  0  0  0  0
  2 10  1  0  0  0  0
  2 20  1  0  0  0  0
  3  8  1  0  0  0  0
  3  9  1  0  0  0  0
  3 21  1  0  0  0  0
  4  5  1  0  0  0  0
  4  6  1  0  0  0  0
  4  7  2  0  0  0  0
  5  8  1  0  0  0  0
  5 16  1  0  0  0  0
  5 17  1  0  0  0  0
  6  9  2  0  0  0  0
  7 10  1  0  0  0  0
  7 11  1  0  0  0  0
  8 18  1  0  0  0  0
  8 19  1  0  0  0  0
  9 13  1  0  0  0  0
 10 12  2  0  0  0  0
 11 14  2  0  0  0  0
 11 22  1  0  0  0  0
 12 15  1  0  0  0  0
 12 23  1  0  0  0  0
 13 24  1  0  0  0  0
 13 25  1  0  0  0  0
 13 26  1  0  0  0  0
 14 15  1  0  0  0  0
 14 27  1  0  0  0  0
M  END
> <PUBCHEM_COMPOUND_CID>
5353656

> <PUBCHEM_CONFORMER_RMSD>
0.4

> <PUBCHEM_CONFORMER_DIVERSEORDER>
1

> <PUBCHEM_MMFF94_PARTIAL_CHARGES>
19
1 -0.57
10 0.1
11 -0.15
12 -0.14
13 0.14
14 -0.14
15 0.54
2 -0.6
20 0.4
21 0.4
22 0.15
23 0.15
27 0.15
3 -0.87
4 -0.14
5 0.14
6 0.1
8 0.37
9 -0.04

> <PUBCHEM_EFFECTIVE_ROTOR_COUNT>
0.6

> <PUBCHEM_PHARMACOPHORE_FEATURES>
8
1 1 acceptor
1 2 cation
1 2 donor
1 3 cation
1 3 donor
5 2 4 6 7 10 rings
6 3 4 5 6 8 9 rings
6 7 10 11 12 14 15 rings

> <PUBCHEM_HEAVY_ATOM_COUNT>
15

> <PUBCHEM_ATOM_DEF_STEREO_COUNT>
0

> <PUBCHEM_ATOM_UDEF_STEREO_COUNT>
0

> <PUBCHEM_BOND_DEF_STEREO_COUNT>
0

> <PUBCHEM_BOND_UDEF_STEREO_COUNT>
0

> <PUBCHEM_ISOTOPIC_ATOM_COUNT>
0

> <PUBCHEM_COMPONENT_COUNT>
1

> <PUBCHEM_CACTVS_TAUTO_COUNT>
12

> <PUBCHEM_CONFORMER_ID>
0051B0B800000001

> <PUBCHEM_MMFF94_ENERGY>
50.8285

> <PUBCHEM_FEATURE_SELFOVERLAP>
40.79

> <PUBCHEM_SHAPE_FINGERPRINT>
10062212 137 18411146856616879122
10608611 8 18410296899716161288
10922523 26 18260828206809645334
10967382 1 18338517563718735795
11132069 177 18410017649611378048
11769659 78 18411704257398447554
12032990 46 18339075969718376123
12932764 1 17417821668009971689
13140716 1 18409448089671711409
13380535 76 18337674234137289087
14144814 61 18410856581315118784
14325111 11 18410856542565681768
14790565 3 15677712172733994025
15196674 1 18410573963998523936
15219456 202 18335987484415864576
15442244 35 18194966472574290890
15536298 74 18334576811440520096
15775835 57 18130222782365375412
16945 1 18265894846563651073
17802600 8 18409735053542707912
17804303 29 18408600362122582052
17844478 74 18270955748499812627
18186145 218 18411701001881802564
200 152 17894638049796753181
20510252 161 18334575698553432425
21267235 1 18411128130490896683
21501502 16 18411979148153422116
221490 88 18339636742292021042
2334 1 18338517443538902721
23402539 116 18409176505925445110
23402655 69 18191600842192263861
23463225 33 18413389860595673604
23557571 272 18260256443599215327
23559900 14 18262522623644006210
2748010 2 18409452453405878573
2871803 45 18341621356601539271
3312278 4 18409729581849182091
335352 9 18266459995387315036
5104073 3 18410012117825298944
528886 8 18338523039907650312
53812653 166 18336550511942350504
6333449 129 18410294739605749477
69090 78 18336270123761066765
7364860 26 18193277626977767834
8809292 202 18342735195939391659
9709674 26 18410005525056254174

> <PUBCHEM_SHAPE_MULTIPOLES>
292.86
6.48
2.08
0.62
2.12
0.11
0
-0.96
-0.32
-1.19
0.01
-0.04
0.04
0.16

> <PUBCHEM_SHAPE_SELFOVERLAP>
648.499

> <PUBCHEM_SHAPE_VOLUME>
156.6

> <PUBCHEM_COORDINATE_TYPE>
2
5
10

$$$$

