38283
  -OEChem-07051213033D

 53 55  0     1  0  0  0  0  0999 V2000
    0.0741    1.7071   -0.5556 O   0  0  0  0  0  0  0  0  0  0  0  0
    1.4591    3.5578   -0.6242 O   0  0  0  0  0  0  0  0  0  0  0  0
   -3.3374   -1.6308    0.7890 O   0  0  0  0  0  0  0  0  0  0  0  0
   -0.7039    3.9066    1.9170 N   0  0  0  0  0  0  0  0  0  0  0  0
    3.5715    1.3882   -0.0485 C   0  0  0  0  0  0  0  0  0  0  0  0
    2.5685    0.2881    0.0239 C   0  0  1  0  0  0  0  0  0  0  0  0
    2.3662    1.4056   -0.9423 C   0  0  1  0  0  0  0  0  0  0  0  0
    4.9032    1.0494   -0.6293 C   0  0  0  0  0  0  0  0  0  0  0  0
    3.6448    2.4194    1.0281 C   0  0  0  0  0  0  0  0  0  0  0  0
    2.9011   -1.0425   -0.5199 C   0  0  0  0  0  0  0  0  0  0  0  0
    1.2646    2.3526   -0.6915 C   0  0  0  0  0  0  0  0  0  0  0  0
    3.5338   -2.0536    0.1057 C   0  0  0  0  0  0  0  0  0  0  0  0
    4.0238   -1.9823    1.5243 C   0  0  0  0  0  0  0  0  0  0  0  0
    3.7984   -3.3574   -0.5944 C   0  0  0  0  0  0  0  0  0  0  0  0
   -1.0563    2.5493   -0.3082 C   0  0  1  0  0  0  0  0  0  0  0  0
   -2.3065    1.7023   -0.2618 C   0  0  0  0  0  0  0  0  0  0  0  0
   -0.8605    3.3065    0.9361 C   0  0  0  0  0  0  0  0  0  0  0  0
   -2.2358    0.4166    0.2486 C   0  0  0  0  0  0  0  0  0  0  0  0
   -3.4989    2.2282   -0.7311 C   0  0  0  0  0  0  0  0  0  0  0  0
   -3.3902   -0.3653    0.2910 C   0  0  0  0  0  0  0  0  0  0  0  0
   -4.6533    1.4464   -0.6886 C   0  0  0  0  0  0  0  0  0  0  0  0
   -4.5989    0.1496   -0.1775 C   0  0  0  0  0  0  0  0  0  0  0  0
   -2.2869   -2.4381    0.3856 C   0  0  0  0  0  0  0  0  0  0  0  0
   -1.9403   -2.4738   -0.9529 C   0  0  0  0  0  0  0  0  0  0  0  0
   -1.6123   -3.1884    1.3315 C   0  0  0  0  0  0  0  0  0  0  0  0
   -0.8829   -3.2877   -1.3595 C   0  0  0  0  0  0  0  0  0  0  0  0
   -0.5548   -4.0022    0.9250 C   0  0  0  0  0  0  0  0  0  0  0  0
   -0.1902   -4.0518   -0.4205 C   0  0  0  0  0  0  0  0  0  0  0  0
    1.9219    0.2514    0.8955 H   0  0  0  0  0  0  0  0  0  0  0  0
    2.5446    1.2207   -1.9977 H   0  0  0  0  0  0  0  0  0  0  0  0
    5.4509    1.9656   -0.8787 H   0  0  0  0  0  0  0  0  0  0  0  0
    5.5109    0.4883    0.0889 H   0  0  0  0  0  0  0  0  0  0  0  0
    4.8409    0.4677   -1.5556 H   0  0  0  0  0  0  0  0  0  0  0  0
    2.7056    2.5263    1.5819 H   0  0  0  0  0  0  0  0  0  0  0  0
    4.4099    2.1455    1.7635 H   0  0  0  0  0  0  0  0  0  0  0  0
    3.9156    3.3970    0.6151 H   0  0  0  0  0  0  0  0  0  0  0  0
    2.5773   -1.2151   -1.5454 H   0  0  0  0  0  0  0  0  0  0  0  0
    3.5446   -2.7599    2.1283 H   0  0  0  0  0  0  0  0  0  0  0  0
    5.1074   -2.1363    1.5570 H   0  0  0  0  0  0  0  0  0  0  0  0
    3.8136   -1.0198    1.9997 H   0  0  0  0  0  0  0  0  0  0  0  0
    4.8752   -3.5496   -0.6424 H   0  0  0  0  0  0  0  0  0  0  0  0
    3.3219   -4.1816   -0.0535 H   0  0  0  0  0  0  0  0  0  0  0  0
    3.4125   -3.3659   -1.6191 H   0  0  0  0  0  0  0  0  0  0  0  0
   -1.1388    3.2396   -1.1587 H   0  0  0  0  0  0  0  0  0  0  0  0
   -1.2996    0.0339    0.6460 H   0  0  0  0  0  0  0  0  0  0  0  0
   -3.5525    3.2373   -1.1295 H   0  0  0  0  0  0  0  0  0  0  0  0
   -5.5945    1.8473   -1.0532 H   0  0  0  0  0  0  0  0  0  0  0  0
   -5.5014   -0.4548   -0.1474 H   0  0  0  0  0  0  0  0  0  0  0  0
   -2.4785   -1.9066   -1.7067 H   0  0  0  0  0  0  0  0  0  0  0  0
   -1.8946   -3.1502    2.3792 H   0  0  0  0  0  0  0  0  0  0  0  0
   -0.6015   -3.3299   -2.4076 H   0  0  0  0  0  0  0  0  0  0  0  0
   -0.0145   -4.5965    1.6561 H   0  0  0  0  0  0  0  0  0  0  0  0
    0.6327   -4.6858   -0.7372 H   0  0  0  0  0  0  0  0  0  0  0  0
  1 11  1  0  0  0  0
  1 15  1  0  0  0  0
  2 11  2  0  0  0  0
  3 20  1  0  0  0  0
  3 23  1  0  0  0  0
  4 17  3  0  0  0  0
  5  6  1  0  0  0  0
  5  7  1  0  0  0  0
  5  8  1  0  0  0  0
  5  9  1  0  0  0  0
  6  7  1  0  0  0  0
  6 10  1  0  0  0  0
  6 29  1  0  0  0  0
  7 11  1  0  0  0  0
  7 30  1  0  0  0  0
  8 31  1  0  0  0  0
  8 32  1  0  0  0  0
  8 33  1  0  0  0  0
  9 34  1  0  0  0  0
  9 35  1  0  0  0  0
  9 36  1  0  0  0  0
 10 12  2  0  0  0  0
 10 37  1  0  0  0  0
 12 13  1  0  0  0  0
 12 14  1  0  0  0  0
 13 38  1  0  0  0  0
 13 39  1  0  0  0  0
 13 40  1  0  0  0  0
 14 41  1  0  0  0  0
 14 42  1  0  0  0  0
 14 43  1  0  0  0  0
 15 16  1  0  0  0  0
 15 17  1  0  0  0  0
 15 44  1  0  0  0  0
 16 18  2  0  0  0  0
 16 19  1  0  0  0  0
 18 20  1  0  0  0  0
 18 45  1  0  0  0  0
 19 21  2  0  0  0  0
 19 46  1  0  0  0  0
 20 22  2  0  0  0  0
 21 22  1  0  0  0  0
 21 47  1  0  0  0  0
 22 48  1  0  0  0  0
 23 24  2  0  0  0  0
 23 25  1  0  0  0  0
 24 26  1  0  0  0  0
 24 49  1  0  0  0  0
 25 27  2  0  0  0  0
 25 50  1  0  0  0  0
 26 28  2  0  0  0  0
 26 51  1  0  0  0  0
 27 28  1  0  0  0  0
 27 52  1  0  0  0  0
 28 53  1  0  0  0  0
M  END
> <PUBCHEM_COMPOUND_CID>
38283

> <PUBCHEM_CONFORMER_RMSD>
1.4

> <PUBCHEM_CONFORMER_DIVERSEORDER>
1
91
90
42
48
52
94
146
51
71
128
45
145
15
4
127
124
53
77
137
156
20
12
7
153
63
68
5
131
172
98
107
41
24
73
133
75
28
64
21
86
134
164
9
139
142
31
46
176
147
99
190
103
13
27
187
121
22
16
129
19
154
79
58
149
194
170
109
113
100
10
159
152
89
66
65
111
193
26
67
148
50
118
3
93
130
114
184
88
56
87
95
92
104
23
108
70
116
186
120
69
168
54
44
11
57
165
188
183
105
167
151
171
39
135
32
182
192
55
8
189
158
6
119
144
143
72
78
106
61
162
25
14
96
197
74
101
115
122
62
117
85
40
157
174
80
33
178
43
2
36
191
177
160
175
112
49
29
30
60
141
83
150
17
59
34
123
18
181
47
84
110
126
38
102
180
82
125
155
169
35
161
138
81
140
76
37
166
163
195
136
132
173
179
97
196
185

> <PUBCHEM_MMFF94_PARTIAL_CHARGES>
40
1 -0.43
10 -0.19
11 0.72
12 -0.28
13 0.14
14 0.14
15 0.62
16 -0.14
17 0.36
18 -0.15
19 -0.15
2 -0.57
20 0.08
21 -0.15
22 -0.15
23 0.08
24 -0.15
25 -0.15
26 -0.15
27 -0.15
28 -0.15
29 0.1
3 -0.17
30 0.1
37 0.15
4 -0.56
45 0.15
46 0.15
47 0.15
48 0.15
49 0.15
5 -0.19
50 0.15
51 0.15
52 0.15
53 0.15
6 -0.06
7 -0.1
8 0.09
9 0.09

> <PUBCHEM_EFFECTIVE_ROTOR_COUNT>
7.6

> <PUBCHEM_PHARMACOPHORE_FEATURES>
7
1 2 acceptor
1 3 acceptor
1 4 acceptor
3 12 13 14 hydrophobe
3 5 8 9 hydrophobe
6 16 18 19 20 21 22 rings
6 23 24 25 26 27 28 rings

> <PUBCHEM_HEAVY_ATOM_COUNT>
28

> <PUBCHEM_ATOM_DEF_STEREO_COUNT>
0

> <PUBCHEM_ATOM_UDEF_STEREO_COUNT>
3

> <PUBCHEM_BOND_DEF_STEREO_COUNT>
0

> <PUBCHEM_BOND_UDEF_STEREO_COUNT>
0

> <PUBCHEM_ISOTOPIC_ATOM_COUNT>
0

> <PUBCHEM_COMPONENT_COUNT>
1

> <PUBCHEM_CACTVS_TAUTO_COUNT>
1

> <PUBCHEM_CONFORMER_ID>
0000958B00000001

> <PUBCHEM_MMFF94_ENERGY>
77.2171

> <PUBCHEM_FEATURE_SELFOVERLAP>
35.52

> <PUBCHEM_SHAPE_FINGERPRINT>
10074138 170 14510202312852807281
10616163 171 18196648501894561534
10675989 125 18194126432959554445
107951 10 17275106133305312937
1100329 8 18340493368960717615
11513181 2 18333168362478183302
12038231 1 18268427021853351966
12156800 1 16302094378850810007
12539773 59 16022499313214865203
12553582 1 17835513830468561775
12788726 201 18187357787417065952
12838863 1 18052562111802032111
13122387 1 18194678391874802666
13140716 1 18337381742817234729
13402501 40 18122343742376464614
14081887 123 18335148540228129408
14251757 5 18196348369832969372
14725015 67 18198069277181729387
15403338 16 16698658742234041787
16112460 7 18190448553631503000
19930381 70 18196373847584457663
20764821 26 18410569608659320423
20775438 99 17324123276357690039
21857420 4 16526448540940420943
22113638 7 18339369659502968583
23559900 14 18410578370851975112
238918 7 17686075181081093806
3298306 158 18054800739103163901
463206 1 18194679259341736488
5309563 4 17333925353288347043
6287921 2 17324369991899900427
6433294 58 18195242209311332533

> <PUBCHEM_SHAPE_MULTIPOLES>
553.64
8.66
6.35
1.25
2.22
2.52
-0.31
-0.92
0.38
0.26
-0.86
0.16
0.06
0.15

> <PUBCHEM_SHAPE_SELFOVERLAP>
1181.151

> <PUBCHEM_SHAPE_VOLUME>
307.1

> <PUBCHEM_COORDINATE_TYPE>
2
5
10

$$$$

