6038
  -OEChem-07051212513D

 18 19  0     0  0  0  0  0  0999 V2000
   -3.3368   -0.7550    0.0003 O   0  0  0  0  0  0  0  0  0  0  0  0
   -1.0632   -1.1195   -0.0003 N   0  0  0  0  0  0  0  0  0  0  0  0
    0.2483   -0.6110   -0.0002 C   0  0  0  0  0  0  0  0  0  0  0  0
    0.4491    0.7744    0.0000 C   0  0  0  0  0  0  0  0  0  0  0  0
   -0.7146    1.6574    0.0000 C   0  0  0  0  0  0  0  0  0  0  0  0
    1.3345   -1.4880    0.0000 C   0  0  0  0  0  0  0  0  0  0  0  0
    1.7525    1.2795   -0.0001 C   0  0  0  0  0  0  0  0  0  0  0  0
   -2.1880   -0.3177    0.0000 C   0  0  0  0  0  0  0  0  0  0  0  0
   -1.9535    1.1522    0.0000 C   0  0  0  0  0  0  0  0  0  0  0  0
    2.6316   -0.9761    0.0003 C   0  0  0  0  0  0  0  0  0  0  0  0
    2.8402    0.4037    0.0000 C   0  0  0  0  0  0  0  0  0  0  0  0
   -1.1838   -2.1283   -0.0003 H   0  0  0  0  0  0  0  0  0  0  0  0
   -0.5564    2.7304    0.0000 H   0  0  0  0  0  0  0  0  0  0  0  0
    1.1834   -2.5640    0.0000 H   0  0  0  0  0  0  0  0  0  0  0  0
    1.9351    2.3511   -0.0001 H   0  0  0  0  0  0  0  0  0  0  0  0
   -2.8227    1.8002    0.0001 H   0  0  0  0  0  0  0  0  0  0  0  0
    3.4816   -1.6524    0.0004 H   0  0  0  0  0  0  0  0  0  0  0  0
    3.8524    0.7981    0.0000 H   0  0  0  0  0  0  0  0  0  0  0  0
  1  8  2  0  0  0  0
  2  3  1  0  0  0  0
  2  8  1  0  0  0  0
  2 12  1  0  0  0  0
  3  4  1  0  0  0  0
  3  6  2  0  0  0  0
  4  5  1  0  0  0  0
  4  7  2  0  0  0  0
  5  9  2  0  0  0  0
  5 13  1  0  0  0  0
  6 10  1  0  0  0  0
  6 14  1  0  0  0  0
  7 11  1  0  0  0  0
  7 15  1  0  0  0  0
  8  9  1  0  0  0  0
  9 16  1  0  0  0  0
 10 11  2  0  0  0  0
 10 17  1  0  0  0  0
 11 18  1  0  0  0  0
M  END
> <PUBCHEM_COMPOUND_CID>
6038

> <PUBCHEM_CONFORMER_RMSD>
0.4

> <PUBCHEM_CONFORMER_DIVERSEORDER>
1

> <PUBCHEM_MMFF94_PARTIAL_CHARGES>
18
1 -0.57
10 -0.15
11 -0.15
12 0.37
13 0.15
14 0.15
15 0.15
16 0.15
17 0.15
18 0.15
2 -0.55
3 0.12
4 0.03
5 -0.18
6 -0.15
7 -0.15
8 0.62
9 -0.14

> <PUBCHEM_EFFECTIVE_ROTOR_COUNT>
0

> <PUBCHEM_PHARMACOPHORE_FEATURES>
4
1 1 acceptor
1 2 donor
6 2 3 4 5 8 9 rings
6 3 4 6 7 10 11 rings

> <PUBCHEM_HEAVY_ATOM_COUNT>
11

> <PUBCHEM_ATOM_DEF_STEREO_COUNT>
0

> <PUBCHEM_ATOM_UDEF_STEREO_COUNT>
0

> <PUBCHEM_BOND_DEF_STEREO_COUNT>
0

> <PUBCHEM_BOND_UDEF_STEREO_COUNT>
0

> <PUBCHEM_ISOTOPIC_ATOM_COUNT>
0

> <PUBCHEM_COMPONENT_COUNT>
1

> <PUBCHEM_CACTVS_TAUTO_COUNT>
2

> <PUBCHEM_CONFORMER_ID>
0000179600000001

> <PUBCHEM_MMFF94_ENERGY>
28.2147

> <PUBCHEM_FEATURE_SELFOVERLAP>
20.323

> <PUBCHEM_SHAPE_FINGERPRINT>
10857977 72 18410023134168453664
11206711 2 18341328989117995132
12032990 46 18411130325203250251
12897270 3 18411420617721225068
12932764 1 17313112946687918908
14128692 85 18409443726074414220
14325111 11 18410855481740427648
16945 1 18410855434490298276
17844478 74 18131342008299137569
17990270 104 18337389460710123582
193761 8 17834113430485160007
19973954 147 18337952406199746516
20201158 50 18413109454770602515
21040471 1 18410855464834663680
21501502 16 18339077202268345584
23402655 69 18265069088258142621
23463225 33 18341614858236476850
23552423 10 18272085036877356302
23559900 14 17397544686011375238
241688 4 18269836578511616104
2748010 2 18338518667472635508
369184 2 18410013272913005289
5084963 1 18333731333837056464
528886 8 18337676308569524386

> <PUBCHEM_SHAPE_MULTIPOLES>
215.52
4.22
1.69
0.6
0.75
0.18
0
-0.68
0
-0.05
0
-0.04
0.02
0

> <PUBCHEM_SHAPE_SELFOVERLAP>
470.659

> <PUBCHEM_SHAPE_VOLUME>
116.4

> <PUBCHEM_COORDINATE_TYPE>
2
5
10

$$$$

