5281475
  -OEChem-07051212573D

 43 44  0     1  0  0  0  0  0999 V2000
    2.5804    1.4548    0.9170 O   0  0  0  0  0  0  0  0  0  0  0  0
   -0.0577   -2.1978   -0.4079 O   0  0  0  0  0  0  0  0  0  0  0  0
    4.5456    0.3867    0.4292 O   0  0  0  0  0  0  0  0  0  0  0  0
   -1.1650   -3.2782    1.3078 O   0  0  0  0  0  0  0  0  0  0  0  0
    1.0082    0.0419   -0.2480 C   0  0  2  0  0  0  0  0  0  0  0  0
    1.1749    1.3177    0.6121 C   0  0  2  0  0  0  0  0  0  0  0  0
    0.1273   -1.0569    0.4240 C   0  0  1  0  0  0  0  0  0  0  0  0
    0.7162    2.6373   -0.0552 C   0  0  0  0  0  0  0  0  0  0  0  0
    2.4318   -0.3698   -0.4436 C   0  0  0  0  0  0  0  0  0  0  0  0
   -0.7570    2.6756   -0.4159 C   0  0  0  0  0  0  0  0  0  0  0  0
   -1.2122   -0.5126    0.8550 C   0  0  0  0  0  0  0  0  0  0  0  0
    3.3362    0.4943    0.3293 C   0  0  0  0  0  0  0  0  0  0  0  0
   -2.3123   -0.2308    0.1241 C   0  0  0  0  0  0  0  0  0  0  0  0
   -3.3710    0.6775    0.7396 C   0  0  0  0  0  0  0  0  0  0  0  0
   -3.1393    2.1675    0.3737 C   0  0  0  0  0  0  0  0  0  0  0  0
   -1.6881    2.5450    0.5521 C   0  0  0  0  0  0  0  0  0  0  0  0
    2.9246   -1.3303   -1.2316 C   0  0  0  0  0  0  0  0  0  0  0  0
   -1.0465    2.7516   -1.8894 C   0  0  0  0  0  0  0  0  0  0  0  0
   -2.5294   -0.5740   -1.3214 C   0  0  0  0  0  0  0  0  0  0  0  0
   -0.7232   -3.2387    0.1675 C   0  0  0  0  0  0  0  0  0  0  0  0
   -0.8435   -4.3610   -0.8185 C   0  0  0  0  0  0  0  0  0  0  0  0
    0.5843    0.2783   -1.2307 H   0  0  0  0  0  0  0  0  0  0  0  0
    0.6814    1.2176    1.5845 H   0  0  0  0  0  0  0  0  0  0  0  0
    0.6561   -1.3971    1.3268 H   0  0  0  0  0  0  0  0  0  0  0  0
    1.3320    2.8153   -0.9470 H   0  0  0  0  0  0  0  0  0  0  0  0
    0.9479    3.4800    0.6101 H   0  0  0  0  0  0  0  0  0  0  0  0
   -1.2075   -0.1668    1.8899 H   0  0  0  0  0  0  0  0  0  0  0  0
   -4.3709    0.3642    0.4161 H   0  0  0  0  0  0  0  0  0  0  0  0
   -3.3668    0.5768    1.8333 H   0  0  0  0  0  0  0  0  0  0  0  0
   -3.7565    2.8012    1.0211 H   0  0  0  0  0  0  0  0  0  0  0  0
   -3.4895    2.3461   -0.6464 H   0  0  0  0  0  0  0  0  0  0  0  0
   -1.3511    2.5311    1.5883 H   0  0  0  0  0  0  0  0  0  0  0  0
    2.2659   -1.9497   -1.8307 H   0  0  0  0  0  0  0  0  0  0  0  0
    3.9894   -1.5226   -1.3088 H   0  0  0  0  0  0  0  0  0  0  0  0
   -0.6776    1.8592   -2.4033 H   0  0  0  0  0  0  0  0  0  0  0  0
   -0.5457    3.6256   -2.3202 H   0  0  0  0  0  0  0  0  0  0  0  0
   -2.1084    2.8572   -2.1198 H   0  0  0  0  0  0  0  0  0  0  0  0
   -1.6275   -0.9400   -1.8164 H   0  0  0  0  0  0  0  0  0  0  0  0
   -2.8628    0.3016   -1.8865 H   0  0  0  0  0  0  0  0  0  0  0  0
   -3.3016   -1.3451   -1.4066 H   0  0  0  0  0  0  0  0  0  0  0  0
    0.1515   -4.6991   -1.1186 H   0  0  0  0  0  0  0  0  0  0  0  0
   -1.4168   -4.0296   -1.6881 H   0  0  0  0  0  0  0  0  0  0  0  0
   -1.3701   -5.1986   -0.3521 H   0  0  0  0  0  0  0  0  0  0  0  0
  1  6  1  0  0  0  0
  1 12  1  0  0  0  0
  2  7  1  0  0  0  0
  2 20  1  0  0  0  0
  3 12  2  0  0  0  0
  4 20  2  0  0  0  0
  5  6  1  0  0  0  0
  5  7  1  0  0  0  0
  5  9  1  0  0  0  0
  5 22  1  0  0  0  0
  6  8  1  0  0  0  0
  6 23  1  0  0  0  0
  7 11  1  0  0  0  0
  7 24  1  0  0  0  0
  8 10  1  0  0  0  0
  8 25  1  0  0  0  0
  8 26  1  0  0  0  0
  9 12  1  0  0  0  0
  9 17  2  0  0  0  0
 10 16  2  0  0  0  0
 10 18  1  0  0  0  0
 11 13  2  0  0  0  0
 11 27  1  0  0  0  0
 13 14  1  0  0  0  0
 13 19  1  0  0  0  0
 14 15  1  0  0  0  0
 14 28  1  0  0  0  0
 14 29  1  0  0  0  0
 15 16  1  0  0  0  0
 15 30  1  0  0  0  0
 15 31  1  0  0  0  0
 16 32  1  0  0  0  0
 17 33  1  0  0  0  0
 17 34  1  0  0  0  0
 18 35  1  0  0  0  0
 18 36  1  0  0  0  0
 18 37  1  0  0  0  0
 19 38  1  0  0  0  0
 19 39  1  0  0  0  0
 19 40  1  0  0  0  0
 20 21  1  0  0  0  0
 21 41  1  0  0  0  0
 21 42  1  0  0  0  0
 21 43  1  0  0  0  0
M  END
> <PUBCHEM_COMPOUND_CID>
5281475

> <PUBCHEM_CONFORMER_RMSD>
0.6

> <PUBCHEM_CONFORMER_DIVERSEORDER>
1
6
5
7
4
2
3

> <PUBCHEM_MMFF94_PARTIAL_CHARGES>
25
1 -0.43
10 -0.28
11 -0.29
12 0.71
13 -0.28
14 0.14
15 0.14
16 -0.29
17 -0.3
18 0.14
19 0.14
2 -0.43
20 0.66
21 0.06
27 0.15
3 -0.57
32 0.15
33 0.15
34 0.15
4 -0.57
5 0.14
6 0.28
7 0.42
8 0.14
9 -0.12

> <PUBCHEM_EFFECTIVE_ROTOR_COUNT>
3

> <PUBCHEM_PHARMACOPHORE_FEATURES>
3
1 3 acceptor
1 4 acceptor
5 1 5 6 9 12 rings

> <PUBCHEM_HEAVY_ATOM_COUNT>
21

> <PUBCHEM_ATOM_DEF_STEREO_COUNT>
3

> <PUBCHEM_ATOM_UDEF_STEREO_COUNT>
0

> <PUBCHEM_BOND_DEF_STEREO_COUNT>
2

> <PUBCHEM_BOND_UDEF_STEREO_COUNT>
0

> <PUBCHEM_ISOTOPIC_ATOM_COUNT>
0

> <PUBCHEM_COMPONENT_COUNT>
1

> <PUBCHEM_CACTVS_TAUTO_COUNT>
1

> <PUBCHEM_CONFORMER_ID>
005096C300000001

> <PUBCHEM_MMFF94_ENERGY>
52.915

> <PUBCHEM_FEATURE_SELFOVERLAP>
15.223

> <PUBCHEM_SHAPE_FINGERPRINT>
10411042 1 17760930632863804682
10967382 1 18337950194191264993
11132069 177 18340763857332243209
11578080 2 16448974645376005443
116883 192 18047468920364620703
12553582 1 17401757532709229338
13140716 1 18122346770465071224
14223421 5 17838330036467075241
14251745 187 18334863860831269416
14614273 12 18128259093464253189
15042514 8 18341330002983815802
16728300 4 17413618338310630938
16945 1 18263636265007401840
17357779 13 18339377296224034853
18981168 100 16696942443221431957
19591789 44 18193269917268488623
20028762 73 18188480286627688311
20600515 1 18411413982630177796
20905425 154 17544464718783007239
21524375 3 18340486780523161715
2334 1 18338519750020743272
23402539 116 18335714797031899479
23559900 14 17973158715692649126
23566358 2 17186708966711402799
238 59 17333959919290367933
2748010 2 18339068388937315057
3060560 45 18410301324033369919
484985 159 16255688429595753216
589210 1 17762894364540195485
7364860 26 17760928845734987787
81228 2 18196933266779694011
9709674 26 18187923937648084694

> <PUBCHEM_SHAPE_MULTIPOLES>
408.69
5.12
4.65
1.22
1.45
4.89
0.38
-3.01
-0.17
0.26
0.34
-0.3
-0.03
0.74

> <PUBCHEM_SHAPE_SELFOVERLAP>
843.719

> <PUBCHEM_SHAPE_VOLUME>
231

> <PUBCHEM_COORDINATE_TYPE>
2
5
10

$$$$

