5316525
  -OEChem-07051213112D

 31 32  0     0  0  0  0  0  0999 V2000
    7.2241   -1.9747    0.0000 O   0  0  0  0  0  0  0  0  0  0  0  0
    3.7320   -1.9400    0.0000 O   0  0  0  0  0  0  0  0  0  0  0  0
    8.9942   -1.9642    0.0000 O   0  0  0  0  0  0  0  0  0  0  0  0
    4.5981   -0.4400    0.0000 C   0  0  0  0  0  0  0  0  0  0  0  0
    3.7320    0.0600    0.0000 C   0  0  0  0  0  0  0  0  0  0  0  0
    6.3301   -0.4400    0.0000 C   0  0  0  0  0  0  0  0  0  0  0  0
    5.4641    0.0600    0.0000 C   0  0  0  0  0  0  0  0  0  0  0  0
    4.5981   -1.4400    0.0000 C   0  0  0  0  0  0  0  0  0  0  0  0
    6.3301   -1.4400    0.0000 C   0  0  0  0  0  0  0  0  0  0  0  0
    5.4641   -1.9400    0.0000 C   0  0  0  0  0  0  0  0  0  0  0  0
    3.7320    1.0600    0.0000 C   0  0  0  0  0  0  0  0  0  0  0  0
    2.8660    1.5600    0.0000 C   0  0  0  0  0  0  0  0  0  0  0  0
    7.2241    0.0947    0.0000 C   0  0  0  0  0  0  0  0  0  0  0  0
    8.1301   -0.4192    0.0000 C   0  0  0  0  0  0  0  0  0  0  0  0
    2.8660    2.5600    0.0000 C   0  0  0  0  0  0  0  0  0  0  0  0
    2.0000    1.0600    0.0000 C   0  0  0  0  0  0  0  0  0  0  0  0
    8.1301   -1.4608    0.0000 C   0  0  0  0  0  0  0  0  0  0  0  0
    3.1215    0.1677    0.0000 H   0  0  0  0  0  0  0  0  0  0  0  0
    3.5200   -0.5226    0.0000 H   0  0  0  0  0  0  0  0  0  0  0  0
    5.4641    0.6800    0.0000 H   0  0  0  0  0  0  0  0  0  0  0  0
    5.4641   -2.5600    0.0000 H   0  0  0  0  0  0  0  0  0  0  0  0
    4.2690    1.3700    0.0000 H   0  0  0  0  0  0  0  0  0  0  0  0
    7.2169    0.7146    0.0000 H   0  0  0  0  0  0  0  0  0  0  0  0
    8.6659   -0.1071    0.0000 H   0  0  0  0  0  0  0  0  0  0  0  0
    1.6900    1.5969    0.0000 H   0  0  0  0  0  0  0  0  0  0  0  0
    1.4631    0.7500    0.0000 H   0  0  0  0  0  0  0  0  0  0  0  0
    3.4860    2.5600    0.0000 H   0  0  0  0  0  0  0  0  0  0  0  0
    2.8660    3.1800    0.0000 H   0  0  0  0  0  0  0  0  0  0  0  0
    2.2460    2.5600    0.0000 H   0  0  0  0  0  0  0  0  0  0  0  0
    2.3100    0.5231    0.0000 H   0  0  0  0  0  0  0  0  0  0  0  0
    3.7320   -2.5600    0.0000 H   0  0  0  0  0  0  0  0  0  0  0  0
  1  9  1  0  0  0  0
  1 17  1  0  0  0  0
  2  8  1  0  0  0  0
  2 31  1  0  0  0  0
  3 17  2  0  0  0  0
  4  5  1  0  0  0  0
  4  7  1  0  0  0  0
  4  8  2  0  0  0  0
  5 11  1  0  0  0  0
  5 18  1  0  0  0  0
  5 19  1  0  0  0  0
  6  7  2  0  0  0  0
  6  9  1  0  0  0  0
  6 13  1  0  0  0  0
  7 20  1  0  0  0  0
  8 10  1  0  0  0  0
  9 10  2  0  0  0  0
 10 21  1  0  0  0  0
 11 12  2  0  0  0  0
 11 22  1  0  0  0  0
 12 15  1  0  0  0  0
 12 16  1  0  0  0  0
 13 14  2  0  0  0  0
 13 23  1  0  0  0  0
 14 17  1  0  0  0  0
 14 24  1  0  0  0  0
 15 27  1  0  0  0  0
 15 28  1  0  0  0  0
 15 29  1  0  0  0  0
 16 25  1  0  0  0  0
 16 26  1  0  0  0  0
 16 30  1  0  0  0  0
M  END
> <PUBCHEM_COMPOUND_CID>
5316525

> <PUBCHEM_COMPOUND_CANONICALIZED>
1

> <PUBCHEM_CACTVS_COMPLEXITY>
353

> <PUBCHEM_CACTVS_HBOND_ACCEPTOR>
3

> <PUBCHEM_CACTVS_HBOND_DONOR>
1

> <PUBCHEM_CACTVS_ROTATABLE_BOND>
2

> <PUBCHEM_CACTVS_SUBSKEYS>
AAADccBwMAAAAAAAAAAAAAAAAAAAAAAAAAAwQAAAAAAAAACBAAAAGgAACAAADASAmAAyDoAABgCIAiDSCAACCAAgIAAIiAAGCMgMJyKGMRqCeiClwBUIuYeA4OwOIAACCAAIAABAAAQQABAAAAAAAAAAAA==

> <PUBCHEM_IUPAC_OPENEYE_NAME>
7-hydroxy-6-(3-methylbut-2-enyl)chromen-2-one

> <PUBCHEM_IUPAC_CAS_NAME>
7-hydroxy-6-(3-methylbut-2-enyl)-1-benzopyran-2-one

> <PUBCHEM_IUPAC_NAME>
7-hydroxy-6-(3-methylbut-2-enyl)chromen-2-one

> <PUBCHEM_IUPAC_SYSTEMATIC_NAME>
6-(3-methylbut-2-enyl)-7-oxidanyl-chromen-2-one

> <PUBCHEM_IUPAC_TRADITIONAL_NAME>
7-hydroxy-6-(3-methylbut-2-enyl)coumarin

> <PUBCHEM_IUPAC_INCHI>
InChI=1S/C14H14O3/c1-9(2)3-4-10-7-11-5-6-14(16)17-13(11)8-12(10)15/h3,5-8,15H,4H2,1-2H3

> <PUBCHEM_IUPAC_INCHIKEY>
FIDUIAPDSKSUGO-UHFFFAOYSA-N

> <PUBCHEM_XLOGP3_AA>
3.5

> <PUBCHEM_EXACT_MASS>
230.094294

> <PUBCHEM_MOLECULAR_FORMULA>
C14H14O3

> <PUBCHEM_MOLECULAR_WEIGHT>
230.25916

> <PUBCHEM_OPENEYE_CAN_SMILES>
CC(=CCC1=C(C=C2C(=C1)C=CC(=O)O2)O)C

> <PUBCHEM_OPENEYE_ISO_SMILES>
CC(=CCC1=C(C=C2C(=C1)C=CC(=O)O2)O)C

> <PUBCHEM_CACTVS_TPSA>
46.5

> <PUBCHEM_MONOISOTOPIC_WEIGHT>
230.094294

> <PUBCHEM_TOTAL_CHARGE>
0

> <PUBCHEM_HEAVY_ATOM_COUNT>
17

> <PUBCHEM_ATOM_DEF_STEREO_COUNT>
0

> <PUBCHEM_ATOM_UDEF_STEREO_COUNT>
0

> <PUBCHEM_BOND_DEF_STEREO_COUNT>
0

> <PUBCHEM_BOND_UDEF_STEREO_COUNT>
0

> <PUBCHEM_ISOTOPIC_ATOM_COUNT>
0

> <PUBCHEM_COMPONENT_COUNT>
1

> <PUBCHEM_CACTVS_TAUTO_COUNT>
5

> <PUBCHEM_COORDINATE_TYPE>
1
5
255

> <PUBCHEM_BONDANNOTATIONS>
1  17  8
1  9  8
13  14  8
14  17  8
4  7  8
4  8  8
6  13  8
6  7  8
6  9  8
8  10  8
9  10  8

$$$$

