10078
  -OEChem-06261204183D

 40 44  0     1  0  0  0  0  0999 V2000
    0.9960    1.7452   -0.0290 O   0  0  0  0  0  0  0  0  0  0  0  0
   -1.6005    3.1219    0.6031 O   0  0  0  0  0  0  0  0  0  0  0  0
    3.8767    1.0065   -0.1212 O   0  0  0  0  0  0  0  0  0  0  0  0
   -2.7923   -1.9743    0.9409 N   0  0  0  0  0  0  0  0  0  0  0  0
   -0.7494    0.1488    0.0651 C   0  0  2  0  0  0  0  0  0  0  0  0
   -1.6966   -0.6095   -0.8200 C   0  0  1  0  0  0  0  0  0  0  0  0
   -0.3061    1.4418   -0.5970 C   0  0  1  0  0  0  0  0  0  0  0  0
   -1.6900   -1.9564   -0.0109 C   0  0  2  0  0  0  0  0  0  0  0  0
    0.5812   -0.5185   -0.0481 C   0  0  0  0  0  0  0  0  0  0  0  0
   -1.3313    0.1703    1.5483 C   0  0  0  0  0  0  0  0  0  0  0  0
   -0.4517   -2.8035   -0.4894 C   0  0  0  0  0  0  0  0  0  0  0  0
    0.7952   -1.8833   -0.3153 C   0  0  0  0  0  0  0  0  0  0  0  0
   -2.6746   -0.6935    1.7444 C   0  0  0  0  0  0  0  0  0  0  0  0
   -1.4658    2.4363   -0.6315 C   0  0  1  0  0  0  0  0  0  0  0  0
   -2.8718    0.3290   -1.0684 C   0  0  0  0  0  0  0  0  0  0  0  0
    1.5579    0.4652   -0.0293 C   0  0  0  0  0  0  0  0  0  0  0  0
   -2.7615    1.6788   -0.9716 C   0  0  0  0  0  0  0  0  0  0  0  0
    2.1240   -2.2601   -0.4460 C   0  0  0  0  0  0  0  0  0  0  0  0
    2.8746    0.0948   -0.1393 C   0  0  0  0  0  0  0  0  0  0  0  0
    3.1493   -1.2793   -0.3363 C   0  0  0  0  0  0  0  0  0  0  0  0
    4.4368    1.3399    1.1512 C   0  0  0  0  0  0  0  0  0  0  0  0
   -1.2931   -0.8097   -1.8257 H   0  0  0  0  0  0  0  0  0  0  0  0
   -0.0974    1.2614   -1.6707 H   0  0  0  0  0  0  0  0  0  0  0  0
   -2.3372   -2.5335   -0.7014 H   0  0  0  0  0  0  0  0  0  0  0  0
   -1.5277    1.1818    1.9073 H   0  0  0  0  0  0  0  0  0  0  0  0
   -0.5804   -0.2523    2.2298 H   0  0  0  0  0  0  0  0  0  0  0  0
   -0.5252   -3.1103   -1.5393 H   0  0  0  0  0  0  0  0  0  0  0  0
   -0.3351   -3.6831    0.1517 H   0  0  0  0  0  0  0  0  0  0  0  0
   -2.7704   -0.9431    2.8078 H   0  0  0  0  0  0  0  0  0  0  0  0
   -3.5402   -0.0668    1.5031 H   0  0  0  0  0  0  0  0  0  0  0  0
   -1.2696    3.1944   -1.3979 H   0  0  0  0  0  0  0  0  0  0  0  0
   -2.6654   -2.7628    1.5755 H   0  0  0  0  0  0  0  0  0  0  0  0
   -3.8224   -0.1113   -1.3535 H   0  0  0  0  0  0  0  0  0  0  0  0
   -3.6422    2.2869   -1.1619 H   0  0  0  0  0  0  0  0  0  0  0  0
    2.3911   -3.2940   -0.6433 H   0  0  0  0  0  0  0  0  0  0  0  0
    4.1838   -1.6018   -0.4456 H   0  0  0  0  0  0  0  0  0  0  0  0
   -2.3712    3.7110    0.5335 H   0  0  0  0  0  0  0  0  0  0  0  0
    4.8662    0.4509    1.6238 H   0  0  0  0  0  0  0  0  0  0  0  0
    3.6737    1.7812    1.8001 H   0  0  0  0  0  0  0  0  0  0  0  0
    5.2318    2.0736    0.9936 H   0  0  0  0  0  0  0  0  0  0  0  0
  1  7  1  0  0  0  0
  1 16  1  0  0  0  0
  2 14  1  0  0  0  0
  2 37  1  0  0  0  0
  3 19  1  0  0  0  0
  3 21  1  0  0  0  0
  4  8  1  0  0  0  0
  4 13  1  0  0  0  0
  4 32  1  0  0  0  0
  5  6  1  0  0  0  0
  5  7  1  0  0  0  0
  5  9  1  0  0  0  0
  5 10  1  0  0  0  0
  6  8  1  0  0  0  0
  6 15  1  0  0  0  0
  6 22  1  0  0  0  0
  7 14  1  0  0  0  0
  7 23  1  0  0  0  0
  8 11  1  0  0  0  0
  8 24  1  0  0  0  0
  9 12  2  0  0  0  0
  9 16  1  0  0  0  0
 10 13  1  0  0  0  0
 10 25  1  0  0  0  0
 10 26  1  0  0  0  0
 11 12  1  0  0  0  0
 11 27  1  0  0  0  0
 11 28  1  0  0  0  0
 12 18  1  0  0  0  0
 13 29  1  0  0  0  0
 13 30  1  0  0  0  0
 14 17  1  0  0  0  0
 14 31  1  0  0  0  0
 15 17  2  0  0  0  0
 15 33  1  0  0  0  0
 16 19  2  0  0  0  0
 17 34  1  0  0  0  0
 18 20  2  0  0  0  0
 18 35  1  0  0  0  0
 19 20  1  0  0  0  0
 20 36  1  0  0  0  0
 21 38  1  0  0  0  0
 21 39  1  0  0  0  0
 21 40  1  0  0  0  0
M  END
> <PUBCHEM_COMPOUND_CID>
10078

> <PUBCHEM_CONFORMER_RMSD>
0.6

> <PUBCHEM_CONFORMER_DIVERSEORDER>
1
3
2
4

> <PUBCHEM_MMFF94_PARTIAL_CHARGES>
26
1 -0.36
11 0.14
12 -0.14
13 0.27
14 0.42
15 -0.29
16 0.08
17 -0.29
18 -0.15
19 0.08
2 -0.68
20 -0.15
21 0.28
3 -0.36
32 0.36
33 0.15
34 0.15
35 0.15
36 0.15
37 0.4
4 -0.9
5 0.14
6 0.14
7 0.28
8 0.27
9 -0.14

> <PUBCHEM_EFFECTIVE_ROTOR_COUNT>
2.2

> <PUBCHEM_PHARMACOPHORE_FEATURES>
11
1 1 acceptor
1 2 acceptor
1 2 donor
1 3 acceptor
1 4 cation
1 4 donor
5 1 5 7 9 16 rings
6 4 5 6 8 10 13 rings
6 5 6 7 14 15 17 rings
6 5 6 8 9 11 12 rings
6 9 12 16 18 19 20 rings

> <PUBCHEM_HEAVY_ATOM_COUNT>
21

> <PUBCHEM_ATOM_DEF_STEREO_COUNT>
2

> <PUBCHEM_ATOM_UDEF_STEREO_COUNT>
3

> <PUBCHEM_BOND_DEF_STEREO_COUNT>
0

> <PUBCHEM_BOND_UDEF_STEREO_COUNT>
0

> <PUBCHEM_ISOTOPIC_ATOM_COUNT>
0

> <PUBCHEM_COMPONENT_COUNT>
1

> <PUBCHEM_CACTVS_TAUTO_COUNT>
1

> <PUBCHEM_CONFORMER_ID>
0000275E00000001

> <PUBCHEM_MMFF94_ENERGY>
153.0906

> <PUBCHEM_FEATURE_SELFOVERLAP>
57.069

> <PUBCHEM_SHAPE_FINGERPRINT>
10411042 1 17402339170688088142
10863032 1 18339930427639253791
10948715 1 18196096766285444421
10967382 1 18410579521501543468
11132069 177 18263363595093241730
11578080 2 17314538987968989113
11680986 33 18341049739261462502
12035758 1 18272365331439577187
12403814 3 18268430139867486946
12423570 1 10319118529301909807
12491281 212 17903637724110828253
12553582 1 18124303913862901822
12730499 353 17123113180566622141
13027679 85 18192431866359850973
13140716 1 17978508629280868058
13172582 1 18194113023722710562
13544592 271 18341343239861856333
13583140 156 17130728110131333088
14142880 1 18114457877557062289
14223421 5 18409441510024497594
14790565 3 17405404626059454165
15309172 13 18335415730053780034
16945 1 18409726223221692902
20510252 161 18408043991800556560
21501502 16 18193562391835604220
22182313 1 18411693313874674582
2334 1 17545601154423935876
23419403 2 17341267965247672975
23493267 7 17845928641041073330
23557571 272 18342725308945723342
23559900 14 18264497346649032094
25 1 17548977110261147669
2748010 2 18339072804395960046
350125 39 18337376253870337126
81228 2 17987781008295830217
9709674 26 18336832012673242238
9981440 41 18266762301150596778

> <PUBCHEM_SHAPE_MULTIPOLES>
409.58
5.55
3.05
1.2
5.1
0.05
0.44
1.44
0.76
-0.74
-0.2
-0.74
0.02
1.1

> <PUBCHEM_SHAPE_SELFOVERLAP>
923.293

> <PUBCHEM_SHAPE_VOLUME>
215.9

> <PUBCHEM_COORDINATE_TYPE>
2
5
10

$$$$

