37786
  -OEChem-07051213062D

 33 38  0     1  0  0  0  0  0999 V2000
    5.4799    2.8522    0.0000 O   0  0  0  0  0  0  0  0  0  0  0  0
    5.4796    1.8517    0.0000 C   0  0  3  0  0  0  0  0  0  0  0  0
    4.6136    2.3517    0.0000 C   0  0  3  0  0  0  0  0  0  0  0  0
    5.4796    0.8517    0.0000 C   0  0  0  0  0  0  0  0  0  0  0  0
    3.7476    1.8517    0.0000 C   0  0  0  0  0  0  0  0  0  0  0  0
    4.6136    0.3517    0.0000 C   0  0  0  0  0  0  0  0  0  0  0  0
    3.7476    0.8517    0.0000 C   0  0  0  0  0  0  0  0  0  0  0  0
    4.5976   -0.6898    0.0000 C   0  0  0  0  0  0  0  0  0  0  0  0
    6.3896    0.3449    0.0000 C   0  0  0  0  0  0  0  0  0  0  0  0
    2.8881    0.3569    0.0000 C   0  0  0  0  0  0  0  0  0  0  0  0
    2.8768    2.3659    0.0000 C   0  0  0  0  0  0  0  0  0  0  0  0
    5.4956   -1.2176    0.0000 C   0  0  0  0  0  0  0  0  0  0  0  0
    6.3977   -0.6967    0.0000 C   0  0  0  0  0  0  0  0  0  0  0  0
    3.7204   -1.1526    0.0000 C   0  0  0  0  0  0  0  0  0  0  0  0
    2.8747   -0.6347    0.0000 C   0  0  0  0  0  0  0  0  0  0  0  0
    2.0057    0.8508    0.0000 C   0  0  0  0  0  0  0  0  0  0  0  0
    2.0000    1.8621    0.0000 C   0  0  0  0  0  0  0  0  0  0  0  0
    5.4789   -2.3024    0.0000 C   0  0  0  0  0  0  0  0  0  0  0  0
    7.3456   -1.2247    0.0000 C   0  0  0  0  0  0  0  0  0  0  0  0
    6.4143   -2.8522    0.0000 C   0  0  0  0  0  0  0  0  0  0  0  0
    7.3539   -2.3096    0.0000 C   0  0  0  0  0  0  0  0  0  0  0  0
    6.0996    1.8516    0.0000 H   0  0  0  0  0  0  0  0  0  0  0  0
    4.3036    2.8886    0.0000 H   0  0  0  0  0  0  0  0  0  0  0  0
    6.9230    0.6610    0.0000 H   0  0  0  0  0  0  0  0  0  0  0  0
    2.8805    2.9859    0.0000 H   0  0  0  0  0  0  0  0  0  0  0  0
    3.7006   -1.7722    0.0000 H   0  0  0  0  0  0  0  0  0  0  0  0
    2.3318   -0.9340    0.0000 H   0  0  0  0  0  0  0  0  0  0  0  0
    1.4717    0.5357    0.0000 H   0  0  0  0  0  0  0  0  0  0  0  0
    1.4625    2.1711    0.0000 H   0  0  0  0  0  0  0  0  0  0  0  0
    4.9384   -2.6062    0.0000 H   0  0  0  0  0  0  0  0  0  0  0  0
    7.8789   -0.9085    0.0000 H   0  0  0  0  0  0  0  0  0  0  0  0
    6.4119   -3.4721    0.0000 H   0  0  0  0  0  0  0  0  0  0  0  0
    7.8921   -2.6176    0.0000 H   0  0  0  0  0  0  0  0  0  0  0  0
  1  2  1  0  0  0  0
  1  3  1  0  0  0  0
  2  3  1  0  0  0  0
  2  4  1  0  0  0  0
  2 22  1  0  0  0  0
  3  5  1  0  0  0  0
  3 23  1  0  0  0  0
  4  6  1  0  0  0  0
  4  9  2  0  0  0  0
  5  7  1  0  0  0  0
  5 11  2  0  0  0  0
  6  7  1  0  0  0  0
  6  8  2  0  0  0  0
  7 10  2  0  0  0  0
  8 12  1  0  0  0  0
  8 14  1  0  0  0  0
  9 13  1  0  0  0  0
  9 24  1  0  0  0  0
 10 15  1  0  0  0  0
 10 16  1  0  0  0  0
 11 17  1  0  0  0  0
 11 25  1  0  0  0  0
 12 13  1  0  0  0  0
 12 18  2  0  0  0  0
 13 19  2  0  0  0  0
 14 15  2  0  0  0  0
 14 26  1  0  0  0  0
 15 27  1  0  0  0  0
 16 17  2  0  0  0  0
 16 28  1  0  0  0  0
 17 29  1  0  0  0  0
 18 20  1  0  0  0  0
 18 30  1  0  0  0  0
 19 21  1  0  0  0  0
 19 31  1  0  0  0  0
 20 21  2  0  0  0  0
 20 32  1  0  0  0  0
 21 33  1  0  0  0  0
M  END
> <PUBCHEM_COMPOUND_CID>
37786

> <PUBCHEM_COMPOUND_CANONICALIZED>
1

> <PUBCHEM_CACTVS_COMPLEXITY>
445

> <PUBCHEM_CACTVS_HBOND_ACCEPTOR>
1

> <PUBCHEM_CACTVS_HBOND_DONOR>
0

> <PUBCHEM_CACTVS_ROTATABLE_BOND>
0

> <PUBCHEM_CACTVS_SUBSKEYS>
AAADccB4IAAAAAAAAAAAAAAAEgAAAAAAAAAwYMGDBIAAAADBVAAAGgAAAAAADBSgmAIwAMAABACAAiBCAAACAAAgAAAIiAAACIgIJiKAMRiCMAAkwAEIqAeAwPAOwAACAAAQAADAAAYAADAAAAAAAAAAAA==

> <PUBCHEM_IUPAC_INCHI>
InChI=1S/C20H12O/c1-2-6-13-12(4-1)10-16-18-14(13)9-8-11-5-3-7-15(17(11)18)19-20(16)21-19/h1-10,19-20H

> <PUBCHEM_IUPAC_INCHIKEY>
XGZQLNASOQVQTD-UHFFFAOYSA-N

> <PUBCHEM_XLOGP3_AA>
4.7

> <PUBCHEM_EXACT_MASS>
268.088815

> <PUBCHEM_MOLECULAR_FORMULA>
C20H12O

> <PUBCHEM_MOLECULAR_WEIGHT>
268.30868

> <PUBCHEM_OPENEYE_CAN_SMILES>
C1=CC=C2C3=C4C(=CC2=C1)C5C(O5)C6=CC=CC(=C64)C=C3

> <PUBCHEM_OPENEYE_ISO_SMILES>
C1=CC=C2C3=C4C(=CC2=C1)C5C(O5)C6=CC=CC(=C64)C=C3

> <PUBCHEM_CACTVS_TPSA>
12.5

> <PUBCHEM_MONOISOTOPIC_WEIGHT>
268.088815

> <PUBCHEM_TOTAL_CHARGE>
0

> <PUBCHEM_HEAVY_ATOM_COUNT>
21

> <PUBCHEM_ATOM_DEF_STEREO_COUNT>
0

> <PUBCHEM_ATOM_UDEF_STEREO_COUNT>
2

> <PUBCHEM_BOND_DEF_STEREO_COUNT>
0

> <PUBCHEM_BOND_UDEF_STEREO_COUNT>
0

> <PUBCHEM_ISOTOPIC_ATOM_COUNT>
0

> <PUBCHEM_COMPONENT_COUNT>
1

> <PUBCHEM_CACTVS_TAUTO_COUNT>
1

> <PUBCHEM_COORDINATE_TYPE>
1
5
255

> <PUBCHEM_BONDANNOTATIONS>
2  1  3
3  1  3
10  15  8
10  16  8
11  17  8
12  13  8
12  18  8
13  19  8
14  15  8
16  17  8
18  20  8
19  21  8
20  21  8
4  6  8
4  9  8
5  11  8
5  7  8
6  7  8
6  8  8
7  10  8
8  12  8
8  14  8
9  13  8

$$$$

