3081924
  -OEChem-07051213132D

 28 29  0     0  0  0  0  0  0999 V2000
    5.4641   -0.6900    0.0000 Br  0  0  0  0  0  0  0  0  0  0  0  0
    5.4641    1.3100    0.0000 O   0  0  0  0  0  0  0  0  0  0  0  0
    2.0000   -1.6900    0.0000 O   0  0  0  0  0  0  0  0  0  0  0  0
    2.0000   -3.6900    0.0000 O   0  0  0  0  0  0  0  0  0  0  0  0
    3.7320   -3.6900    0.0000 O   0  0  0  0  0  0  0  0  0  0  0  0
    3.7320    1.3100    0.0000 N   0  0  0  0  0  0  0  0  0  0  0  0
    2.8660    0.8100    0.0000 N   0  0  0  0  0  0  0  0  0  0  0  0
    3.7320   -1.6900    0.0000 N   0  0  0  0  0  0  0  0  0  0  0  0
    3.7320    2.3100    0.0000 C   0  0  0  0  0  0  0  0  0  0  0  0
    3.7320   -0.6900    0.0000 C   0  0  0  0  0  0  0  0  0  0  0  0
    4.5981    0.8100    0.0000 C   0  0  0  0  0  0  0  0  0  0  0  0
    4.5981   -0.1900    0.0000 C   0  0  0  0  0  0  0  0  0  0  0  0
    4.5981    2.8100    0.0000 C   0  0  0  0  0  0  0  0  0  0  0  0
    2.8660    2.8100    0.0000 C   0  0  0  0  0  0  0  0  0  0  0  0
    2.8660   -0.1900    0.0000 C   0  0  0  0  0  0  0  0  0  0  0  0
    4.5981    3.8100    0.0000 C   0  0  0  0  0  0  0  0  0  0  0  0
    2.8660    3.8100    0.0000 C   0  0  0  0  0  0  0  0  0  0  0  0
    3.7320    4.3100    0.0000 C   0  0  0  0  0  0  0  0  0  0  0  0
    2.8660   -2.1900    0.0000 C   0  0  0  0  0  0  0  0  0  0  0  0
    2.8660   -3.1900    0.0000 C   0  0  0  0  0  0  0  0  0  0  0  0
    2.3291   -0.5000    0.0000 H   0  0  0  0  0  0  0  0  0  0  0  0
    5.1350    2.5000    0.0000 H   0  0  0  0  0  0  0  0  0  0  0  0
    2.3291    2.5000    0.0000 H   0  0  0  0  0  0  0  0  0  0  0  0
    4.2690   -2.0000    0.0000 H   0  0  0  0  0  0  0  0  0  0  0  0
    5.1350    4.1200    0.0000 H   0  0  0  0  0  0  0  0  0  0  0  0
    2.3291    4.1200    0.0000 H   0  0  0  0  0  0  0  0  0  0  0  0
    3.7320    4.9300    0.0000 H   0  0  0  0  0  0  0  0  0  0  0  0
    2.0000   -4.3100    0.0000 H   0  0  0  0  0  0  0  0  0  0  0  0
  1 12  1  0  0  0  0
  2 11  2  0  0  0  0
  3 19  2  0  0  0  0
  4 20  1  0  0  0  0
  4 28  1  0  0  0  0
  5 20  2  0  0  0  0
  6  7  1  0  0  0  0
  6  9  1  0  0  0  0
  6 11  1  0  0  0  0
  7 15  2  0  0  0  0
  8 10  1  0  0  0  0
  8 19  1  0  0  0  0
  8 24  1  0  0  0  0
  9 13  2  0  0  0  0
  9 14  1  0  0  0  0
 10 12  2  0  0  0  0
 10 15  1  0  0  0  0
 11 12  1  0  0  0  0
 13 16  1  0  0  0  0
 13 22  1  0  0  0  0
 14 17  2  0  0  0  0
 14 23  1  0  0  0  0
 15 21  1  0  0  0  0
 16 18  2  0  0  0  0
 16 25  1  0  0  0  0
 17 18  1  0  0  0  0
 17 26  1  0  0  0  0
 18 27  1  0  0  0  0
 19 20  1  0  0  0  0
M  END
> <PUBCHEM_COMPOUND_CID>
3081924

> <PUBCHEM_COMPOUND_CANONICALIZED>
1

> <PUBCHEM_CACTVS_COMPLEXITY>
509

> <PUBCHEM_CACTVS_HBOND_ACCEPTOR>
5

> <PUBCHEM_CACTVS_HBOND_DONOR>
2

> <PUBCHEM_CACTVS_ROTATABLE_BOND>
3

> <PUBCHEM_CACTVS_SUBSKEYS>
AAADccBzOAAAEAAAAAAAAAAAAAAAAAAAAAAwQAAAAAAAAAABAAAAHgBYCAABiAjBkAQwyILAAgCoADXzWAKSBAAhAgAaiADAZNgqICLAkbGEIAhgnADYyUcQAAAAAAAAAAAAAAAAAAAAAAAAAAAAAAAAAA==

> <PUBCHEM_IUPAC_OPENEYE_NAME>
2-[(5-bromo-6-oxo-1-phenyl-pyridazin-4-yl)amino]-2-oxo-acetic acid

> <PUBCHEM_IUPAC_CAS_NAME>
2-[(5-bromo-6-oxo-1-phenyl-4-pyridazinyl)amino]-2-oxoacetic acid

> <PUBCHEM_IUPAC_NAME>
2-[(5-bromo-6-oxo-1-phenylpyridazin-4-yl)amino]-2-oxoacetic acid

> <PUBCHEM_IUPAC_SYSTEMATIC_NAME>
2-[(5-bromanyl-6-oxidanylidene-1-phenyl-pyridazin-4-yl)amino]-2-oxidanylidene-ethanoic acid

> <PUBCHEM_IUPAC_TRADITIONAL_NAME>
2-[(5-bromo-6-keto-1-phenyl-pyridazin-4-yl)amino]-2-keto-acetic acid

> <PUBCHEM_IUPAC_INCHI>
InChI=1S/C12H8BrN3O4/c13-9-8(15-10(17)12(19)20)6-14-16(11(9)18)7-4-2-1-3-5-7/h1-6H,(H,15,17)(H,19,20)

> <PUBCHEM_IUPAC_INCHIKEY>
XRGQIRXQFSJBKJ-UHFFFAOYSA-N

> <PUBCHEM_XLOGP3_AA>
1.3

> <PUBCHEM_EXACT_MASS>
336.969818

> <PUBCHEM_MOLECULAR_FORMULA>
C12H8BrN3O4

> <PUBCHEM_MOLECULAR_WEIGHT>
338.11362

> <PUBCHEM_OPENEYE_CAN_SMILES>
C1=CC=C(C=C1)N2C(=O)C(=C(C=N2)NC(=O)C(=O)O)Br

> <PUBCHEM_OPENEYE_ISO_SMILES>
C1=CC=C(C=C1)N2C(=O)C(=C(C=N2)NC(=O)C(=O)O)Br

> <PUBCHEM_CACTVS_TPSA>
99.1

> <PUBCHEM_MONOISOTOPIC_WEIGHT>
336.969818

> <PUBCHEM_TOTAL_CHARGE>
0

> <PUBCHEM_HEAVY_ATOM_COUNT>
20

> <PUBCHEM_ATOM_DEF_STEREO_COUNT>
0

> <PUBCHEM_ATOM_UDEF_STEREO_COUNT>
0

> <PUBCHEM_BOND_DEF_STEREO_COUNT>
0

> <PUBCHEM_BOND_UDEF_STEREO_COUNT>
0

> <PUBCHEM_ISOTOPIC_ATOM_COUNT>
0

> <PUBCHEM_COMPONENT_COUNT>
1

> <PUBCHEM_CACTVS_TAUTO_COUNT>
4

> <PUBCHEM_COORDINATE_TYPE>
1
5
255

> <PUBCHEM_BONDANNOTATIONS>
10  12  8
10  15  8
11  12  8
13  16  8
14  17  8
16  18  8
17  18  8
6  11  8
6  7  8
7  15  8
9  13  8
9  14  8

$$$$

