6102829
  -OEChem-07051213152D

 66 68  0     1  0  0  0  0  0999 V2000
    6.8671   -0.3088    0.0000 P   0  0  3  0  0  0  0  0  0  0  0  0
    8.5991   -0.3088    0.0000 P   0  0  3  0  0  0  0  0  0  0  0  0
    5.1350   -1.3088    0.0000 O   0  0  0  0  0  0  0  0  0  0  0  0
   12.1107   -0.2155    0.0000 O   0  0  0  0  0  0  0  0  0  0  0  0
    6.0010    0.1912    0.0000 O   0  0  0  0  0  0  0  0  0  0  0  0
    2.5369    0.1912    0.0000 O   0  0  0  0  0  0  0  0  0  0  0  0
   10.5586    1.8549    0.0000 O   0  0  0  0  0  0  0  0  0  0  0  0
   12.6866    2.3072    0.0000 O   0  0  0  0  0  0  0  0  0  0  0  0
    9.4651    0.1912    0.0000 O   0  0  0  0  0  0  0  0  0  0  0  0
    7.7331   -0.8088    0.0000 O   0  0  0  0  0  0  0  0  0  0  0  0
    7.3671    0.5572    0.0000 O   0  0  0  0  0  0  0  0  0  0  0  0
    6.3671   -1.1748    0.0000 O   0  0  0  0  0  0  0  0  0  0  0  0
    9.0991   -1.1748    0.0000 O   0  0  0  0  0  0  0  0  0  0  0  0
   13.5933   -1.2995    0.0000 O   0  0  0  0  0  0  0  0  0  0  0  0
    6.0010    1.1912    0.0000 O   0  0  0  0  0  0  0  0  0  0  0  0
    8.0991    0.5572    0.0000 O   0  0  0  0  0  0  0  0  0  0  0  0
   16.7580    0.1095    0.0000 O   0  0  0  0  0  0  0  0  0  0  0  0
    4.2690    1.1912    0.0000 N   0  0  0  0  0  0  0  0  0  0  0  0
   13.7744    0.4231    0.0000 N   0  0  0  0  0  0  0  0  0  0  0  0
    2.5369   -1.8088    0.0000 N   0  0  0  0  0  0  0  0  0  0  0  0
   15.1756   -0.5950    0.0000 N   0  0  0  0  0  0  0  0  0  0  0  0
    3.4030   -0.3088    0.0000 C   0  0  2  0  0  0  0  0  0  0  0  0
    4.2690    0.1912    0.0000 C   0  0  2  0  0  0  0  0  0  0  0  0
    3.4030   -1.3088    0.0000 C   0  0  2  0  0  0  0  0  0  0  0  0
    4.2690   -1.8088    0.0000 C   0  0  2  0  0  0  0  0  0  0  0  0
   11.3017    1.1857    0.0000 C   0  0  1  0  0  0  0  0  0  0  0  0
   12.2799    1.3936    0.0000 C   0  0  2  0  0  0  0  0  0  0  0  0
   11.1972    0.1912    0.0000 C   0  0  1  0  0  0  0  0  0  0  0  0
    5.1350   -0.3088    0.0000 C   0  0  2  0  0  0  0  0  0  0  0  0
   12.7799    0.5276    0.0000 C   0  0  1  0  0  0  0  0  0  0  0  0
   10.3312   -0.3088    0.0000 C   0  0  0  0  0  0  0  0  0  0  0  0
    4.2690   -2.8088    0.0000 C   0  0  0  0  0  0  0  0  0  0  0  0
    5.1350    1.6912    0.0000 C   0  0  0  0  0  0  0  0  0  0  0  0
   14.1811   -0.4905    0.0000 C   0  0  0  0  0  0  0  0  0  0  0  0
   14.3622    1.2321    0.0000 C   0  0  0  0  0  0  0  0  0  0  0  0
   15.3567    1.1276    0.0000 C   0  0  0  0  0  0  0  0  0  0  0  0
    5.1350    2.6912    0.0000 C   0  0  0  0  0  0  0  0  0  0  0  0
   15.7634    0.2140    0.0000 C   0  0  0  0  0  0  0  0  0  0  0  0
    3.4030    0.3112    0.0000 H   0  0  0  0  0  0  0  0  0  0  0  0
    4.8059    0.5012    0.0000 H   0  0  0  0  0  0  0  0  0  0  0  0
    3.4030   -1.9288    0.0000 H   0  0  0  0  0  0  0  0  0  0  0  0
    4.8059   -2.1188    0.0000 H   0  0  0  0  0  0  0  0  0  0  0  0
   11.4622    1.7846    0.0000 H   0  0  0  0  0  0  0  0  0  0  0  0
   12.8990    1.4261    0.0000 H   0  0  0  0  0  0  0  0  0  0  0  0
   11.2296   -0.4279    0.0000 H   0  0  0  0  0  0  0  0  0  0  0  0
    5.1350    0.3112    0.0000 H   0  0  0  0  0  0  0  0  0  0  0  0
   13.0021   -0.0512    0.0000 H   0  0  0  0  0  0  0  0  0  0  0  0
    9.9326   -0.7837    0.0000 H   0  0  0  0  0  0  0  0  0  0  0  0
   10.7297   -0.7837    0.0000 H   0  0  0  0  0  0  0  0  0  0  0  0
    3.7320    1.5012    0.0000 H   0  0  0  0  0  0  0  0  0  0  0  0
    3.6490   -2.8088    0.0000 H   0  0  0  0  0  0  0  0  0  0  0  0
    4.2690   -3.4288    0.0000 H   0  0  0  0  0  0  0  0  0  0  0  0
    4.8890   -2.8088    0.0000 H   0  0  0  0  0  0  0  0  0  0  0  0
    2.5369   -2.4288    0.0000 H   0  0  0  0  0  0  0  0  0  0  0  0
    2.0000   -1.4988    0.0000 H   0  0  0  0  0  0  0  0  0  0  0  0
    2.0000   -0.1188    0.0000 H   0  0  0  0  0  0  0  0  0  0  0  0
   10.6875    2.4613    0.0000 H   0  0  0  0  0  0  0  0  0  0  0  0
   12.3222    2.8088    0.0000 H   0  0  0  0  0  0  0  0  0  0  0  0
   14.1100    1.7985    0.0000 H   0  0  0  0  0  0  0  0  0  0  0  0
   15.4278   -1.1614    0.0000 H   0  0  0  0  0  0  0  0  0  0  0  0
   15.7211    1.6292    0.0000 H   0  0  0  0  0  0  0  0  0  0  0  0
    5.7550    2.6912    0.0000 H   0  0  0  0  0  0  0  0  0  0  0  0
    5.1350    3.3112    0.0000 H   0  0  0  0  0  0  0  0  0  0  0  0
    4.5150    2.6912    0.0000 H   0  0  0  0  0  0  0  0  0  0  0  0
    7.0571    1.0942    0.0000 H   0  0  0  0  0  0  0  0  0  0  0  0
    8.7891   -1.7118    0.0000 H   0  0  0  0  0  0  0  0  0  0  0  0
  1  5  1  0  0  0  0
  1 10  1  0  0  0  0
  1 11  1  0  0  0  0
  1 12  2  0  0  0  0
  2  9  1  0  0  0  0
  2 10  1  0  0  0  0
  2 13  1  0  0  0  0
  2 16  2  0  0  0  0
  3 25  1  0  0  0  0
  3 29  1  0  0  0  0
  4 28  1  0  0  0  0
  4 30  1  0  0  0  0
 29  5  1  1  0  0  0
 22  6  1  6  0  0  0
  6 56  1  0  0  0  0
 26  7  1  1  0  0  0
  7 57  1  0  0  0  0
 27  8  1  1  0  0  0
  8 58  1  0  0  0  0
  9 31  1  0  0  0  0
 11 65  1  0  0  0  0
 13 66  1  0  0  0  0
 14 34  2  0  0  0  0
 15 33  2  0  0  0  0
 17 38  2  0  0  0  0
 23 18  1  1  0  0  0
 18 33  1  0  0  0  0
 18 50  1  0  0  0  0
 30 19  1  6  0  0  0
 19 34  1  0  0  0  0
 19 35  1  0  0  0  0
 24 20  1  6  0  0  0
 20 54  1  0  0  0  0
 20 55  1  0  0  0  0
 21 34  1  0  0  0  0
 21 38  1  0  0  0  0
 21 60  1  0  0  0  0
 22 23  1  0  0  0  0
 22 24  1  0  0  0  0
 22 39  1  0  0  0  0
 23 29  1  0  0  0  0
 23 40  1  0  0  0  0
 24 25  1  0  0  0  0
 24 41  1  0  0  0  0
 25 32  1  1  0  0  0
 25 42  1  0  0  0  0
 26 27  1  0  0  0  0
 26 28  1  0  0  0  0
 26 43  1  0  0  0  0
 27 30  1  0  0  0  0
 27 44  1  0  0  0  0
 28 31  1  6  0  0  0
 28 45  1  0  0  0  0
 29 46  1  0  0  0  0
 30 47  1  0  0  0  0
 31 48  1  0  0  0  0
 31 49  1  0  0  0  0
 32 51  1  0  0  0  0
 32 52  1  0  0  0  0
 32 53  1  0  0  0  0
 33 37  1  0  0  0  0
 35 36  2  0  0  0  0
 35 59  1  0  0  0  0
 36 38  1  0  0  0  0
 36 61  1  0  0  0  0
 37 62  1  0  0  0  0
 37 63  1  0  0  0  0
 37 64  1  0  0  0  0
M  END
> <PUBCHEM_COMPOUND_CID>
6102829

> <PUBCHEM_COMPOUND_CANONICALIZED>
1

> <PUBCHEM_CACTVS_COMPLEXITY>
1060

> <PUBCHEM_CACTVS_HBOND_ACCEPTOR>
16

> <PUBCHEM_CACTVS_HBOND_DONOR>
8

> <PUBCHEM_CACTVS_ROTATABLE_BOND>
9

> <PUBCHEM_CACTVS_SUBSKEYS>
AAADceB7vAMAAAAAAAAAAAAAAAAAASAAAAAkQAAAAAAAAAAAAAAAHgAQCCAACDzxgAcDCAPABxCIQCFWUICAAAAAAgAIAIAIAECTEAIAwAAPQAAPFyKXAMHwcAYAAAAAAAAAAAAAAAAAAAAAAAAAAAAAAA==

> <PUBCHEM_IUPAC_OPENEYE_NAME>
[(2R,3R,4S,5R,6S)-3-acetamido-5-amino-4-hydroxy-6-methyl-tetrahydropyran-2-yl] [[(2R,3S,4R,5R)-5-(2,4-dioxopyrimidin-1-yl)-3,4-dihydroxy-tetrahydrofuran-2-yl]methoxy-hydroxy-phosphoryl] hydrogen phosphate

> <PUBCHEM_IUPAC_CAS_NAME>
[(2R,3R,4S,5R,6S)-3-acetamido-5-amino-4-hydroxy-6-methyl-2-oxanyl] [[(2R,3S,4R,5R)-5-(2,4-dioxo-1-pyrimidinyl)-3,4-dihydroxy-2-oxolanyl]methoxy-hydroxyphosphoryl] hydrogen phosphate

> <PUBCHEM_IUPAC_NAME>
[(2R,3R,4S,5R,6S)-3-acetamido-5-amino-4-hydroxy-6-methyloxan-2-yl] [[(2R,3S,4R,5R)-5-(2,4-dioxopyrimidin-1-yl)-3,4-dihydroxyoxolan-2-yl]methoxy-hydroxyphosphoryl] hydrogen phosphate

> <PUBCHEM_IUPAC_SYSTEMATIC_NAME>
[(2R,3R,4S,5R,6S)-3-acetamido-5-azanyl-6-methyl-4-oxidanyl-oxan-2-yl] [[(2R,3S,4R,5R)-5-[2,4-bis(oxidanylidene)pyrimidin-1-yl]-3,4-bis(oxidanyl)oxolan-2-yl]methoxy-oxidanyl-phosphoryl] hydrogen phosphate

> <PUBCHEM_IUPAC_TRADITIONAL_NAME>
[(2R,3R,4S,5R,6S)-3-acetamido-5-amino-4-hydroxy-6-methyl-tetrahydropyran-2-yl] [[(2R,3S,4R,5R)-5-(2,4-diketopyrimidin-1-yl)-3,4-dihydroxy-tetrahydrofuran-2-yl]methoxy-hydroxy-phosphoryl] hydrogen phosphate

> <PUBCHEM_IUPAC_INCHI>
InChI=1S/C17H28N4O15P2/c1-6-10(18)13(25)11(19-7(2)22)16(33-6)35-38(30,31)36-37(28,29)32-5-8-12(24)14(26)15(34-8)21-4-3-9(23)20-17(21)27/h3-4,6,8,10-16,24-26H,5,18H2,1-2H3,(H,19,22)(H,28,29)(H,30,31)(H,20,23,27)/t6-,8+,10-,11+,12+,13-,14+,15+,16+/m0/s1

> <PUBCHEM_IUPAC_INCHIKEY>
FUUMLYWEEZBCQR-NAGKVERXSA-N

> <PUBCHEM_XLOGP3_AA>
-8.7

> <PUBCHEM_EXACT_MASS>
590.102639

> <PUBCHEM_MOLECULAR_FORMULA>
C17H28N4O15P2

> <PUBCHEM_MOLECULAR_WEIGHT>
590.369544

> <PUBCHEM_OPENEYE_CAN_SMILES>
CC1C(C(C(C(O1)OP(=O)(O)OP(=O)(O)OCC2C(C(C(O2)N3C=CC(=O)NC3=O)O)O)NC(=O)C)O)N

> <PUBCHEM_OPENEYE_ISO_SMILES>
C[C@H]1[C@@H]([C@@H]([C@H]([C@H](O1)OP(=O)(O)OP(=O)(O)OC[C@@H]2[C@H]([C@H]([C@@H](O2)N3C=CC(=O)NC3=O)O)O)NC(=O)C)O)N

> <PUBCHEM_CACTVS_TPSA>
286

> <PUBCHEM_MONOISOTOPIC_WEIGHT>
590.102639

> <PUBCHEM_TOTAL_CHARGE>
0

> <PUBCHEM_HEAVY_ATOM_COUNT>
38

> <PUBCHEM_ATOM_DEF_STEREO_COUNT>
9

> <PUBCHEM_ATOM_UDEF_STEREO_COUNT>
0

> <PUBCHEM_BOND_DEF_STEREO_COUNT>
0

> <PUBCHEM_BOND_UDEF_STEREO_COUNT>
0

> <PUBCHEM_ISOTOPIC_ATOM_COUNT>
0

> <PUBCHEM_COMPONENT_COUNT>
1

> <PUBCHEM_CACTVS_TAUTO_COUNT>
6

> <PUBCHEM_COORDINATE_TYPE>
1
5
255

> <PUBCHEM_BONDANNOTATIONS>
23  18  5
30  19  6
19  34  8
19  35  8
24  20  6
21  34  8
21  38  8
25  32  5
28  31  6
35  36  8
36  38  8
29  5  5
22  6  6
26  7  5
27  8  5

$$$$

