439923
  -OEChem-07051212482D

 24 23  0     0  0  0  0  0  0999 V2000
    6.8671   -1.5000    0.0000 S   0  0  0  0  0  0  0  0  0  0  0  0
    3.4030    1.5000    0.0000 P   0  0  0  0  0  0  0  0  0  0  0  0
    7.7331   -2.0000    0.0000 O   0  0  0  0  0  0  0  0  0  0  0  0
    6.3671   -2.3660    0.0000 O   0  0  0  0  0  0  0  0  0  0  0  0
    7.3671   -0.6340    0.0000 O   0  0  0  0  0  0  0  0  0  0  0  0
    2.5369    1.0000    0.0000 O   0  0  0  0  0  0  0  0  0  0  0  0
    2.9030    2.3660    0.0000 O   0  0  0  0  0  0  0  0  0  0  0  0
    3.9030    0.6340    0.0000 O   0  0  0  0  0  0  0  0  0  0  0  0
    5.1350    0.5000    0.0000 N   0  0  0  0  0  0  0  0  0  0  0  0
    4.2690    2.0000    0.0000 N   0  0  0  0  0  0  0  0  0  0  0  0
    6.0010    2.0000    0.0000 N   0  0  0  0  0  0  0  0  0  0  0  0
    6.0010   -1.0000    0.0000 C   0  0  0  0  0  0  0  0  0  0  0  0
    6.0010    0.0000    0.0000 C   0  0  0  0  0  0  0  0  0  0  0  0
    5.1350    1.5000    0.0000 C   0  0  0  0  0  0  0  0  0  0  0  0
    5.3905   -0.8923    0.0000 H   0  0  0  0  0  0  0  0  0  0  0  0
    5.7890   -1.5826    0.0000 H   0  0  0  0  0  0  0  0  0  0  0  0
    6.6116   -0.1077    0.0000 H   0  0  0  0  0  0  0  0  0  0  0  0
    6.2131    0.5826    0.0000 H   0  0  0  0  0  0  0  0  0  0  0  0
    4.2690    2.6200    0.0000 H   0  0  0  0  0  0  0  0  0  0  0  0
    6.5380    1.6900    0.0000 H   0  0  0  0  0  0  0  0  0  0  0  0
    6.0010    2.6200    0.0000 H   0  0  0  0  0  0  0  0  0  0  0  0
    7.7331   -2.6200    0.0000 H   0  0  0  0  0  0  0  0  0  0  0  0
    2.0000    1.3100    0.0000 H   0  0  0  0  0  0  0  0  0  0  0  0
    2.2830    2.3660    0.0000 H   0  0  0  0  0  0  0  0  0  0  0  0
  1  3  1  0  0  0  0
  1  4  2  0  0  0  0
  1  5  2  0  0  0  0
  1 12  1  0  0  0  0
  2  6  1  0  0  0  0
  2  7  1  0  0  0  0
  2  8  2  0  0  0  0
  2 10  1  0  0  0  0
  3 22  1  0  0  0  0
  6 23  1  0  0  0  0
  7 24  1  0  0  0  0
  9 13  1  0  0  0  0
  9 14  2  0  0  0  0
 10 14  1  0  0  0  0
 10 19  1  0  0  0  0
 11 14  1  0  0  0  0
 11 20  1  0  0  0  0
 11 21  1  0  0  0  0
 12 13  1  0  0  0  0
 12 15  1  0  0  0  0
 12 16  1  0  0  0  0
 13 17  1  0  0  0  0
 13 18  1  0  0  0  0
M  END
> <PUBCHEM_COMPOUND_CID>
439923

> <PUBCHEM_COMPOUND_CANONICALIZED>
1

> <PUBCHEM_CACTVS_COMPLEXITY>
351

> <PUBCHEM_CACTVS_HBOND_ACCEPTOR>
7

> <PUBCHEM_CACTVS_HBOND_DONOR>
5

> <PUBCHEM_CACTVS_ROTATABLE_BOND>
5

> <PUBCHEM_CACTVS_SUBSKEYS>
AAADccBDOAJAAAAAAAAAAAAAAAAAAAAAAAAAAAAAAAAAAAAAAAAAHAQQiCAAAADFQASBAAJAAJIgQAAAJPBAAAEAAAAAAAAAAAAAAAAAAAAAAAAAAAAAAAAAAAAAAAAAAAAAAAAAAAAAAAAAAAAAAAAAAA==

> <PUBCHEM_IUPAC_OPENEYE_NAME>
2-[[amino-(phosphonoamino)methylene]amino]ethanesulfonic acid

> <PUBCHEM_IUPAC_CAS_NAME>
2-[[amino-(phosphonoamino)methylidene]amino]ethanesulfonic acid

> <PUBCHEM_IUPAC_NAME>
2-[[amino-(phosphonoamino)methylidene]amino]ethanesulfonic acid

> <PUBCHEM_IUPAC_SYSTEMATIC_NAME>
2-[[azanyl-(phosphonoamino)methylidene]amino]ethanesulfonic acid

> <PUBCHEM_IUPAC_TRADITIONAL_NAME>
2-[[amino-(phosphonoamino)methylene]amino]ethanesulfonic acid

> <PUBCHEM_IUPAC_INCHI>
InChI=1S/C3H10N3O6PS/c4-3(6-13(7,8)9)5-1-2-14(10,11)12/h1-2H2,(H,10,11,12)(H5,4,5,6,7,8,9)

> <PUBCHEM_IUPAC_INCHIKEY>
JOYGYOHHMWVUFM-UHFFFAOYSA-N

> <PUBCHEM_XLOGP3_AA>
-3.7

> <PUBCHEM_EXACT_MASS>
247.002793

> <PUBCHEM_MOLECULAR_FORMULA>
C3H10N3O6PS

> <PUBCHEM_MOLECULAR_WEIGHT>
247.166762

> <PUBCHEM_OPENEYE_CAN_SMILES>
C(CS(=O)(=O)O)N=C(N)NP(=O)(O)O

> <PUBCHEM_OPENEYE_ISO_SMILES>
C(CS(=O)(=O)O)N=C(N)NP(=O)(O)O

> <PUBCHEM_CACTVS_TPSA>
171

> <PUBCHEM_MONOISOTOPIC_WEIGHT>
247.002793

> <PUBCHEM_TOTAL_CHARGE>
0

> <PUBCHEM_HEAVY_ATOM_COUNT>
14

> <PUBCHEM_ATOM_DEF_STEREO_COUNT>
0

> <PUBCHEM_ATOM_UDEF_STEREO_COUNT>
0

> <PUBCHEM_BOND_DEF_STEREO_COUNT>
0

> <PUBCHEM_BOND_UDEF_STEREO_COUNT>
0

> <PUBCHEM_ISOTOPIC_ATOM_COUNT>
0

> <PUBCHEM_COMPONENT_COUNT>
1

> <PUBCHEM_CACTVS_TAUTO_COUNT>
5

> <PUBCHEM_COORDINATE_TYPE>
1
5
255

$$$$

