13878324
  -OEChem-07051213093D

 54 56  0     1  0  0  0  0  0999 V2000
   -4.7738   -2.6830    0.7794 O   0  0  0  0  0  0  0  0  0  0  0  0
   -3.1466   -2.9412   -1.4568 O   0  0  0  0  0  0  0  0  0  0  0  0
    3.7655   -2.4678   -0.3574 O   0  0  0  0  0  0  0  0  0  0  0  0
    5.7349   -0.5790    0.1210 O   0  0  0  0  0  0  0  0  0  0  0  0
    5.0189    2.0390    0.6700 O   0  0  0  0  0  0  0  0  0  0  0  0
   -1.7983    2.9801   -0.2290 N   0  0  2  0  0  0  0  0  0  0  0  0
   -1.6783    1.7486   -1.0556 C   0  0  2  0  0  0  0  0  0  0  0  0
   -2.5132    0.5649   -0.5597 C   0  0  0  0  0  0  0  0  0  0  0  0
   -0.1913    1.3477   -1.1038 C   0  0  0  0  0  0  0  0  0  0  0  0
   -3.1535    3.1652    0.3029 C   0  0  0  0  0  0  0  0  0  0  0  0
   -3.4979    2.0166    1.2456 C   0  0  0  0  0  0  0  0  0  0  0  0
   -3.3791    0.6971    0.5396 C   0  0  0  0  0  0  0  0  0  0  0  0
    0.2901    0.9012    0.2691 C   0  0  0  0  0  0  0  0  0  0  0  0
   -1.4096    4.1791   -0.9815 C   0  0  0  0  0  0  0  0  0  0  0  0
   -2.4691   -0.6690   -1.2319 C   0  0  0  0  0  0  0  0  0  0  0  0
   -4.1198   -0.4047    0.9917 C   0  0  0  0  0  0  0  0  0  0  0  0
    1.7439    0.5056    0.2291 C   0  0  0  0  0  0  0  0  0  0  0  0
   -3.2215   -1.7573   -0.7868 C   0  0  0  0  0  0  0  0  0  0  0  0
   -4.0393   -1.6279    0.3305 C   0  0  0  0  0  0  0  0  0  0  0  0
    2.0851   -0.8099   -0.0477 C   0  0  0  0  0  0  0  0  0  0  0  0
    2.7171    1.4638    0.4698 C   0  0  0  0  0  0  0  0  0  0  0  0
    3.4307   -1.1756   -0.0847 C   0  0  0  0  0  0  0  0  0  0  0  0
    4.0627    1.0981    0.4326 C   0  0  0  0  0  0  0  0  0  0  0  0
    4.4196   -0.2216    0.1556 C   0  0  0  0  0  0  0  0  0  0  0  0
   -4.1588   -3.5394    1.7404 C   0  0  0  0  0  0  0  0  0  0  0  0
    3.9639   -2.8105   -1.7275 C   0  0  0  0  0  0  0  0  0  0  0  0
    6.3179   -1.0201    1.3451 C   0  0  0  0  0  0  0  0  0  0  0  0
   -2.0324    1.9652   -2.0733 H   0  0  0  0  0  0  0  0  0  0  0  0
    0.4310    2.1690   -1.4776 H   0  0  0  0  0  0  0  0  0  0  0  0
   -0.0403    0.5381   -1.8296 H   0  0  0  0  0  0  0  0  0  0  0  0
   -3.8891    3.2341   -0.5102 H   0  0  0  0  0  0  0  0  0  0  0  0
   -3.2123    4.0983    0.8770 H   0  0  0  0  0  0  0  0  0  0  0  0
   -4.5219    2.1577    1.6114 H   0  0  0  0  0  0  0  0  0  0  0  0
   -2.8282    2.0173    2.1146 H   0  0  0  0  0  0  0  0  0  0  0  0
   -0.2810    0.0483    0.6537 H   0  0  0  0  0  0  0  0  0  0  0  0
    0.1639    1.6987    1.0124 H   0  0  0  0  0  0  0  0  0  0  0  0
   -0.3698    4.1319   -1.3166 H   0  0  0  0  0  0  0  0  0  0  0  0
   -1.4773    5.0687   -0.3444 H   0  0  0  0  0  0  0  0  0  0  0  0
   -2.0481    4.3387   -1.8580 H   0  0  0  0  0  0  0  0  0  0  0  0
   -1.8449   -0.7892   -2.1143 H   0  0  0  0  0  0  0  0  0  0  0  0
   -4.7713   -0.3022    1.8567 H   0  0  0  0  0  0  0  0  0  0  0  0
    1.3166   -1.5549   -0.2369 H   0  0  0  0  0  0  0  0  0  0  0  0
    2.4428    2.4934    0.6842 H   0  0  0  0  0  0  0  0  0  0  0  0
   -3.7580   -3.5722   -1.0393 H   0  0  0  0  0  0  0  0  0  0  0  0
   -4.8552   -4.3499    1.9721 H   0  0  0  0  0  0  0  0  0  0  0  0
   -3.9451   -2.9874    2.6612 H   0  0  0  0  0  0  0  0  0  0  0  0
   -3.2369   -3.9733    1.3407 H   0  0  0  0  0  0  0  0  0  0  0  0
    5.8928    1.6259    0.5628 H   0  0  0  0  0  0  0  0  0  0  0  0
    3.0437   -2.6529   -2.2992 H   0  0  0  0  0  0  0  0  0  0  0  0
    4.2316   -3.8694   -1.7806 H   0  0  0  0  0  0  0  0  0  0  0  0
    4.7797   -2.2214   -2.1582 H   0  0  0  0  0  0  0  0  0  0  0  0
    6.2439   -0.2442    2.1136 H   0  0  0  0  0  0  0  0  0  0  0  0
    7.3751   -1.2321    1.1637 H   0  0  0  0  0  0  0  0  0  0  0  0
    5.8323   -1.9378    1.6917 H   0  0  0  0  0  0  0  0  0  0  0  0
  1 19  1  0  0  0  0
  1 25  1  0  0  0  0
  2 18  1  0  0  0  0
  2 44  1  0  0  0  0
  3 22  1  0  0  0  0
  3 26  1  0  0  0  0
  4 24  1  0  0  0  0
  4 27  1  0  0  0  0
  5 23  1  0  0  0  0
  5 48  1  0  0  0  0
  6  7  1  0  0  0  0
  6 10  1  0  0  0  0
  6 14  1  0  0  0  0
  7  8  1  0  0  0  0
  7  9  1  0  0  0  0
  7 28  1  0  0  0  0
  8 12  1  0  0  0  0
  8 15  2  0  0  0  0
  9 13  1  0  0  0  0
  9 29  1  0  0  0  0
  9 30  1  0  0  0  0
 10 11  1  0  0  0  0
 10 31  1  0  0  0  0
 10 32  1  0  0  0  0
 11 12  1  0  0  0  0
 11 33  1  0  0  0  0
 11 34  1  0  0  0  0
 12 16  2  0  0  0  0
 13 17  1  0  0  0  0
 13 35  1  0  0  0  0
 13 36  1  0  0  0  0
 14 37  1  0  0  0  0
 14 38  1  0  0  0  0
 14 39  1  0  0  0  0
 15 18  1  0  0  0  0
 15 40  1  0  0  0  0
 16 19  1  0  0  0  0
 16 41  1  0  0  0  0
 17 20  1  0  0  0  0
 17 21  2  0  0  0  0
 18 19  2  0  0  0  0
 20 22  2  0  0  0  0
 20 42  1  0  0  0  0
 21 23  1  0  0  0  0
 21 43  1  0  0  0  0
 22 24  1  0  0  0  0
 23 24  2  0  0  0  0
 25 45  1  0  0  0  0
 25 46  1  0  0  0  0
 25 47  1  0  0  0  0
 26 49  1  0  0  0  0
 26 50  1  0  0  0  0
 26 51  1  0  0  0  0
 27 52  1  0  0  0  0
 27 53  1  0  0  0  0
 27 54  1  0  0  0  0
M  END
> <PUBCHEM_COMPOUND_CID>
13878324

> <PUBCHEM_CONFORMER_RMSD>
0.8

> <PUBCHEM_CONFORMER_DIVERSEORDER>
1
27
32
44
4
49
19
39
43
40
36
54
3
38
26
55
45
41
13
48
30
23
51
29
11
47
42
21
31
9
35
34
52
12
50
33
18
53
46
16
2
28
15
8
25
14
37
22
17
24
7
10
20
6
5

> <PUBCHEM_MMFF94_PARTIAL_CHARGES>
32
1 -0.36
10 0.27
11 0.14
12 -0.14
13 0.14
14 0.27
15 -0.15
16 -0.15
17 -0.14
18 0.08
19 0.08
2 -0.53
20 -0.15
21 -0.15
22 0.08
23 0.08
24 0.08
25 0.28
26 0.28
27 0.28
3 -0.36
4 -0.36
40 0.15
41 0.15
42 0.15
43 0.15
44 0.45
48 0.45
5 -0.53
6 -0.81
7 0.41
8 -0.14

> <PUBCHEM_EFFECTIVE_ROTOR_COUNT>
6.8

> <PUBCHEM_PHARMACOPHORE_FEATURES>
9
1 1 acceptor
1 2 donor
1 3 acceptor
1 4 acceptor
1 5 donor
1 6 cation
6 17 20 21 22 23 24 rings
6 6 7 8 10 11 12 rings
6 8 12 15 16 18 19 rings

> <PUBCHEM_HEAVY_ATOM_COUNT>
27

> <PUBCHEM_ATOM_DEF_STEREO_COUNT>
1

> <PUBCHEM_ATOM_UDEF_STEREO_COUNT>
0

> <PUBCHEM_BOND_DEF_STEREO_COUNT>
0

> <PUBCHEM_BOND_UDEF_STEREO_COUNT>
0

> <PUBCHEM_ISOTOPIC_ATOM_COUNT>
0

> <PUBCHEM_COMPONENT_COUNT>
1

> <PUBCHEM_CACTVS_TAUTO_COUNT>
26

> <PUBCHEM_CONFORMER_ID>
00D3C43400000001

> <PUBCHEM_MMFF94_ENERGY>
103.8175

> <PUBCHEM_FEATURE_SELFOVERLAP>
45.695

> <PUBCHEM_SHAPE_FINGERPRINT>
11014199 57 18342166731385047133
11370993 144 17969498388815033649
11405975 8 18264492956664792208
11552529 35 17967818219384218897
12422481 6 18117810349193679123
12553582 1 18193551160796851367
12633257 1 16588856859813784523
13544653 18 18340209570643830093
13583140 156 17531543039269756888
14844126 61 18409173203628526323
15230672 131 17621308470243085150
15361156 5 18271791446135533372
17349148 13 16774078496942803088
17780758 139 18408045112850350497
1813 80 17775558732747970021
21065198 57 18264208178763493012
22122407 14 16443346494287567145
221490 88 18335701685024141934
23559900 14 18337963371325587040
3737641 26 18334005073804760710
4073 2 18411418457980435794
484985 159 18202010949427120871
508706 21 18338238292155401798
5104073 3 18335991921708055736
613672 6 18269562633071660619
6287921 2 18412539899627433588
7970288 3 18126283039352266451
9709674 26 18262243347115408716

> <PUBCHEM_SHAPE_MULTIPOLES>
521.32
12.74
4.43
1.37
14.61
0.43
-0.11
-6.91
3.99
-4.89
-0.37
-0.43
-0.69
1.59

> <PUBCHEM_SHAPE_SELFOVERLAP>
1109.661

> <PUBCHEM_SHAPE_VOLUME>
292.4

> <PUBCHEM_COORDINATE_TYPE>
2
5
10

$$$$

