5281437
  -OEChem-07051212572D

 37 38  0     1  0  0  0  0  0999 V2000
    3.5836   -0.4324    0.0000 O   0  0  0  0  0  0  0  0  0  0  0  0
    2.0000    0.3724    0.0000 O   0  0  0  0  0  0  0  0  0  0  0  0
    4.5298    0.8724    0.0000 C   0  0  1  0  0  0  0  0  0  0  0  0
    4.5298   -0.1276    0.0000 C   0  0  1  0  0  0  0  0  0  0  0  0
    5.3958    1.3724    0.0000 C   0  0  0  0  0  0  0  0  0  0  0  0
    6.2619    0.8724    0.0000 C   0  0  0  0  0  0  0  0  0  0  0  0
    3.5836    1.1771    0.0000 C   0  0  0  0  0  0  0  0  0  0  0  0
    5.3958   -0.6276    0.0000 C   0  0  0  0  0  0  0  0  0  0  0  0
    6.2619   -0.1276    0.0000 C   0  0  0  0  0  0  0  0  0  0  0  0
    5.3958   -1.6276    0.0000 C   0  0  0  0  0  0  0  0  0  0  0  0
    3.0000    0.3724    0.0000 C   0  0  0  0  0  0  0  0  0  0  0  0
    6.2619   -2.1276    0.0000 C   0  0  0  0  0  0  0  0  0  0  0  0
    7.1279   -1.6276    0.0000 C   0  0  0  0  0  0  0  0  0  0  0  0
    7.1279   -0.6276    0.0000 C   0  0  0  0  0  0  0  0  0  0  0  0
    3.2729    2.1276    0.0000 C   0  0  0  0  0  0  0  0  0  0  0  0
    4.8053   -0.6577    0.0000 C   0  0  0  0  0  0  0  0  0  0  0  0
    4.5298   -2.1276    0.0000 C   0  0  0  0  0  0  0  0  0  0  0  0
    4.4399    1.7176    0.0000 H   0  0  0  0  0  0  0  0  0  0  0  0
    4.4399   -0.9729    0.0000 H   0  0  0  0  0  0  0  0  0  0  0  0
    5.7944    1.8473    0.0000 H   0  0  0  0  0  0  0  0  0  0  0  0
    4.9973    1.8473    0.0000 H   0  0  0  0  0  0  0  0  0  0  0  0
    6.8725    0.7647    0.0000 H   0  0  0  0  0  0  0  0  0  0  0  0
    6.4739    1.4550    0.0000 H   0  0  0  0  0  0  0  0  0  0  0  0
    6.0064   -0.7353    0.0000 H   0  0  0  0  0  0  0  0  0  0  0  0
    5.8633   -2.6026    0.0000 H   0  0  0  0  0  0  0  0  0  0  0  0
    6.6604   -2.6026    0.0000 H   0  0  0  0  0  0  0  0  0  0  0  0
    7.3400   -2.2102    0.0000 H   0  0  0  0  0  0  0  0  0  0  0  0
    7.7385   -1.5200    0.0000 H   0  0  0  0  0  0  0  0  0  0  0  0
    7.6648   -0.3176    0.0000 H   0  0  0  0  0  0  0  0  0  0  0  0
    3.6870    2.5891    0.0000 H   0  0  0  0  0  0  0  0  0  0  0  0
    2.6663    2.2555    0.0000 H   0  0  0  0  0  0  0  0  0  0  0  0
    4.5933   -0.0751    0.0000 H   0  0  0  0  0  0  0  0  0  0  0  0
    4.2227   -0.8698    0.0000 H   0  0  0  0  0  0  0  0  0  0  0  0
    5.0174   -1.2403    0.0000 H   0  0  0  0  0  0  0  0  0  0  0  0
    4.2198   -1.5907    0.0000 H   0  0  0  0  0  0  0  0  0  0  0  0
    3.9929   -2.4376    0.0000 H   0  0  0  0  0  0  0  0  0  0  0  0
    4.8398   -2.6646    0.0000 H   0  0  0  0  0  0  0  0  0  0  0  0
  1  4  1  0  0  0  0
  1 11  1  0  0  0  0
  2 11  2  0  0  0  0
  3  4  1  0  0  0  0
  3  5  1  0  0  0  0
  3  7  1  0  0  0  0
  3 18  1  1  0  0  0
  4  8  1  0  0  0  0
  4 19  1  6  0  0  0
  5  6  1  0  0  0  0
  5 20  1  0  0  0  0
  5 21  1  0  0  0  0
  6  9  1  0  0  0  0
  6 22  1  0  0  0  0
  6 23  1  0  0  0  0
  7 11  1  0  0  0  0
  7 15  2  0  0  0  0
  8 10  2  0  0  0  0
  8 24  1  0  0  0  0
  9 14  2  0  0  0  0
  9 16  1  0  0  0  0
 10 12  1  0  0  0  0
 10 17  1  0  0  0  0
 12 13  1  0  0  0  0
 12 25  1  0  0  0  0
 12 26  1  0  0  0  0
 13 14  1  0  0  0  0
 13 27  1  0  0  0  0
 13 28  1  0  0  0  0
 14 29  1  0  0  0  0
 15 30  1  0  0  0  0
 15 31  1  0  0  0  0
 16 32  1  0  0  0  0
 16 33  1  0  0  0  0
 16 34  1  0  0  0  0
 17 35  1  0  0  0  0
 17 36  1  0  0  0  0
 17 37  1  0  0  0  0
M  END
> <PUBCHEM_COMPOUND_CID>
5281437

> <PUBCHEM_COMPOUND_CANONICALIZED>
1

> <PUBCHEM_CACTVS_COMPLEXITY>
401

> <PUBCHEM_CACTVS_HBOND_ACCEPTOR>
2

> <PUBCHEM_CACTVS_HBOND_DONOR>
0

> <PUBCHEM_CACTVS_ROTATABLE_BOND>
0

> <PUBCHEM_CACTVS_SUBSKEYS>
AAADceBwMAAAAAAAAAAAAAAAAAAAASAAAAAAAAAAAAAAAACAAAAAGgAAAAAADRSggAICCAAABACIAiDSCAAAAAAgAAAACAEAAEgABBIAIQACEAAEwAAIIIOKyCCOAAAAAAAAAAAAAAAAAAAAAAAAAAAAAA==

> <PUBCHEM_IUPAC_OPENEYE_NAME>
(3aS,6E,10E,11aR)-6,10-dimethyl-3-methylene-3a,4,5,8,9,11a-hexahydrocyclodeca[b]furan-2-one

> <PUBCHEM_IUPAC_CAS_NAME>
(3aS,6E,10E,11aR)-6,10-dimethyl-3-methylene-3a,4,5,8,9,11a-hexahydrocyclodeca[b]furan-2-one

> <PUBCHEM_IUPAC_NAME>
(3aS,6E,10E,11aR)-6,10-dimethyl-3-methylidene-3a,4,5,8,9,11a-hexahydrocyclodeca[b]furan-2-one

> <PUBCHEM_IUPAC_SYSTEMATIC_NAME>
(3aS,6E,10E,11aR)-6,10-dimethyl-3-methylidene-3a,4,5,8,9,11a-hexahydrocyclodeca[b]furan-2-one

> <PUBCHEM_IUPAC_TRADITIONAL_NAME>
(3aS,6E,10E,11aR)-6,10-dimethyl-3-methylene-3a,4,5,8,9,11a-hexahydrocyclodeca[b]furan-2-one

> <PUBCHEM_IUPAC_INCHI>
InChI=1S/C15H20O2/c1-10-5-4-6-11(2)9-14-13(8-7-10)12(3)15(16)17-14/h5,9,13-14H,3-4,6-8H2,1-2H3/b10-5+,11-9+/t13-,14+/m0/s1

> <PUBCHEM_IUPAC_INCHIKEY>
HRYLQFBHBWLLLL-AHNJNIBGSA-N

> <PUBCHEM_XLOGP3>
2.1

> <PUBCHEM_EXACT_MASS>
232.14633

> <PUBCHEM_MOLECULAR_FORMULA>
C15H20O2

> <PUBCHEM_MOLECULAR_WEIGHT>
232.3181

> <PUBCHEM_OPENEYE_CAN_SMILES>
CC1=CCCC(=CC2C(CC1)C(=C)C(=O)O2)C

> <PUBCHEM_OPENEYE_ISO_SMILES>
C/C/1=C\CC/C(=C/[C@@H]2[C@@H](CC1)C(=C)C(=O)O2)/C

> <PUBCHEM_CACTVS_TPSA>
26.3

> <PUBCHEM_MONOISOTOPIC_WEIGHT>
232.14633

> <PUBCHEM_TOTAL_CHARGE>
0

> <PUBCHEM_HEAVY_ATOM_COUNT>
17

> <PUBCHEM_ATOM_DEF_STEREO_COUNT>
2

> <PUBCHEM_ATOM_UDEF_STEREO_COUNT>
0

> <PUBCHEM_BOND_DEF_STEREO_COUNT>
2

> <PUBCHEM_BOND_UDEF_STEREO_COUNT>
0

> <PUBCHEM_ISOTOPIC_ATOM_COUNT>
0

> <PUBCHEM_COMPONENT_COUNT>
1

> <PUBCHEM_CACTVS_TAUTO_COUNT>
1

> <PUBCHEM_COORDINATE_TYPE>
1
5
255

> <PUBCHEM_BONDANNOTATIONS>
3  18  5
4  19  6

$$$$

