442917
  -OEChem-07051213003D

 35 37  0     1  0  0  0  0  0999 V2000
    2.0052    1.3244    0.1632 O   0  0  0  0  0  0  0  0  0  0  0  0
   -0.3391   -2.6460   -0.2808 O   0  0  0  0  0  0  0  0  0  0  0  0
   -0.4199    1.4241    0.1598 N   0  0  0  0  0  0  0  0  0  0  0  0
    2.9493    0.2904   -0.2414 C   0  0  0  0  0  0  0  0  0  0  0  0
    2.2442   -1.0818   -0.0309 C   0  0  2  0  0  0  0  0  0  0  0  0
    0.8353   -0.6235   -0.0265 C   0  0  0  0  0  0  0  0  0  0  0  0
    0.7573    0.6985    0.0983 C   0  0  0  0  0  0  0  0  0  0  0  0
    3.2651    0.5246   -1.7313 C   0  0  0  0  0  0  0  0  0  0  0  0
    4.2294    0.4935    0.5717 C   0  0  0  0  0  0  0  0  0  0  0  0
    2.5748   -1.8095    1.2712 C   0  0  0  0  0  0  0  0  0  0  0  0
   -0.3823   -1.4319   -0.1401 C   0  0  0  0  0  0  0  0  0  0  0  0
   -1.6564    0.7310    0.0734 C   0  0  0  0  0  0  0  0  0  0  0  0
   -1.6662   -0.6802   -0.0760 C   0  0  0  0  0  0  0  0  0  0  0  0
   -0.4442    2.8773    0.3035 C   0  0  0  0  0  0  0  0  0  0  0  0
   -2.9047    1.3767    0.1267 C   0  0  0  0  0  0  0  0  0  0  0  0
   -2.8653   -1.3992   -0.1668 C   0  0  0  0  0  0  0  0  0  0  0  0
   -4.1012    0.6574    0.0362 C   0  0  0  0  0  0  0  0  0  0  0  0
   -4.0812   -0.7257   -0.1103 C   0  0  0  0  0  0  0  0  0  0  0  0
    2.4452   -1.7549   -0.8725 H   0  0  0  0  0  0  0  0  0  0  0  0
    2.3646    0.4460   -2.3509 H   0  0  0  0  0  0  0  0  0  0  0  0
    3.6588    1.5350   -1.8907 H   0  0  0  0  0  0  0  0  0  0  0  0
    4.0005   -0.1981   -2.0997 H   0  0  0  0  0  0  0  0  0  0  0  0
    4.6653    1.4785    0.3668 H   0  0  0  0  0  0  0  0  0  0  0  0
    4.0266    0.4792    1.6478 H   0  0  0  0  0  0  0  0  0  0  0  0
    4.9804   -0.2680    0.3392 H   0  0  0  0  0  0  0  0  0  0  0  0
    2.3760   -1.1892    2.1524 H   0  0  0  0  0  0  0  0  0  0  0  0
    1.9757   -2.7216    1.3706 H   0  0  0  0  0  0  0  0  0  0  0  0
    3.6270   -2.1108    1.2936 H   0  0  0  0  0  0  0  0  0  0  0  0
   -0.9597    3.1704    1.2251 H   0  0  0  0  0  0  0  0  0  0  0  0
   -0.9364    3.3468   -0.5556 H   0  0  0  0  0  0  0  0  0  0  0  0
    0.5636    3.3034    0.3593 H   0  0  0  0  0  0  0  0  0  0  0  0
   -2.9811    2.4548    0.2398 H   0  0  0  0  0  0  0  0  0  0  0  0
   -2.8693   -2.4796   -0.2812 H   0  0  0  0  0  0  0  0  0  0  0  0
   -5.0509    1.1832    0.0803 H   0  0  0  0  0  0  0  0  0  0  0  0
   -5.0133   -1.2786   -0.1801 H   0  0  0  0  0  0  0  0  0  0  0  0
  1  4  1  0  0  0  0
  1  7  1  0  0  0  0
  2 11  2  0  0  0  0
  3  7  1  0  0  0  0
  3 12  1  0  0  0  0
  3 14  1  0  0  0  0
  4  5  1  0  0  0  0
  4  8  1  0  0  0  0
  4  9  1  0  0  0  0
  5  6  1  0  0  0  0
  5 10  1  0  0  0  0
  5 19  1  0  0  0  0
  6  7  2  0  0  0  0
  6 11  1  0  0  0  0
  8 20  1  0  0  0  0
  8 21  1  0  0  0  0
  8 22  1  0  0  0  0
  9 23  1  0  0  0  0
  9 24  1  0  0  0  0
  9 25  1  0  0  0  0
 10 26  1  0  0  0  0
 10 27  1  0  0  0  0
 10 28  1  0  0  0  0
 11 13  1  0  0  0  0
 12 13  1  0  0  0  0
 12 15  2  0  0  0  0
 13 16  2  0  0  0  0
 14 29  1  0  0  0  0
 14 30  1  0  0  0  0
 14 31  1  0  0  0  0
 15 17  1  0  0  0  0
 15 32  1  0  0  0  0
 16 18  1  0  0  0  0
 16 33  1  0  0  0  0
 17 18  2  0  0  0  0
 17 34  1  0  0  0  0
 18 35  1  0  0  0  0
M  END
> <PUBCHEM_COMPOUND_CID>
442917

> <PUBCHEM_CONFORMER_RMSD>
0.6

> <PUBCHEM_CONFORMER_DIVERSEORDER>
1
2

> <PUBCHEM_MMFF94_PARTIAL_CHARGES>
19
1 -0.36
11 0.47
12 0.1
13 0.09
14 0.37
15 -0.15
16 -0.15
17 -0.15
18 -0.15
2 -0.57
3 -0.57
32 0.15
33 0.15
34 0.15
35 0.15
4 0.28
5 0.14
6 -0.12
7 0.18

> <PUBCHEM_EFFECTIVE_ROTOR_COUNT>
0.6

> <PUBCHEM_PHARMACOPHORE_FEATURES>
7
1 1 acceptor
1 2 acceptor
1 3 cation
3 4 8 9 hydrophobe
5 1 4 5 6 7 rings
6 12 13 15 16 17 18 rings
6 3 6 7 11 12 13 rings

> <PUBCHEM_HEAVY_ATOM_COUNT>
18

> <PUBCHEM_ATOM_DEF_STEREO_COUNT>
0

> <PUBCHEM_ATOM_UDEF_STEREO_COUNT>
1

> <PUBCHEM_BOND_DEF_STEREO_COUNT>
0

> <PUBCHEM_BOND_UDEF_STEREO_COUNT>
0

> <PUBCHEM_ISOTOPIC_ATOM_COUNT>
0

> <PUBCHEM_COMPONENT_COUNT>
1

> <PUBCHEM_CACTVS_TAUTO_COUNT>
1

> <PUBCHEM_CONFORMER_ID>
0006C22500000001

> <PUBCHEM_MMFF94_ENERGY>
62.3342

> <PUBCHEM_FEATURE_SELFOVERLAP>
35.631

> <PUBCHEM_SHAPE_FINGERPRINT>
10062212 137 18339090379660714827
10411042 1 15600330726346361424
10498660 4 18409726283256594893
10759866 29 18131343129174851638
10967382 1 18409730668560362331
10980938 120 18413106177657860098
11132069 177 18407760343670620729
11578080 2 17628392361324748388
12236239 1 17989207036575628292
12403814 3 17632582634439281933
12553582 1 18408884036254430049
13140716 1 18338517568219555267
13221675 6 18409164394117670143
13538477 17 18342740685129161254
14115302 16 18201432541770162142
14144814 61 18409167722880809427
15196674 1 18409731793947275939
15309172 13 18335975420084871323
15375462 189 18342735217498429401
15442244 35 18123754411510190986
15536298 74 18335422404433048922
15775835 57 18413385449273896495
16752209 62 18335982064066695836
16945 1 18267303127532413923
18186145 218 18114174254896171689
193761 8 17760646267062165901
20028762 73 17824540765171085407
20233049 118 18411135818677308164
20510252 161 18186801417326830801
20559304 39 18340492269791870994
20645476 183 18059561443551409710
20715895 44 17697050489022211773
21267235 1 18410566275759365155
21501502 16 18340768264194840659
2334 1 18410013217326317787
23402539 116 18187937152930028390
23419403 2 15875124270867480743
23463225 33 18341053007552129195
23557571 272 18041274370917131134
23559900 14 18187642523111990308
2748010 2 18336268963898454589
335352 9 17977666733970415999
34934 24 18409456859873350274
350125 39 18049998101934775048
4340502 62 16917066642381451723
43471831 8 18339923821964085395
4409770 3 15899550351476480214
474 4 17417522489689939284
5104073 3 18411136982866497867
537710 114 18412822486657320861
53812653 166 18334018267622371824
7097593 13 17696483157642752042
7364860 26 18263646324290547722
9709674 26 18335134263419376678
9981440 41 17407954389561504648

> <PUBCHEM_SHAPE_MULTIPOLES>
353.71
6.96
2.34
0.91
0.96
0.23
0.17
0.15
0.16
0.36
-0.28
-0.87
-0.04
-0.6

> <PUBCHEM_SHAPE_SELFOVERLAP>
774.663

> <PUBCHEM_SHAPE_VOLUME>
194

> <PUBCHEM_COORDINATE_TYPE>
2
5
10

$$$$

