3086172
  -OEChem-07051213123D

 47 49  0     1  0  0  0  0  0999 V2000
    6.0516   -0.6150   -1.7378 Cl  0  0  0  0  0  0  0  0  0  0  0  0
    5.8446    0.2458    1.0782 Cl  0  0  0  0  0  0  0  0  0  0  0  0
    0.7696   -0.5541    0.3448 O   0  0  0  0  0  0  0  0  0  0  0  0
    2.9765   -1.0477    0.8288 O   0  0  0  0  0  0  0  0  0  0  0  0
   -4.2007   -0.5628    0.1963 O   0  0  0  0  0  0  0  0  0  0  0  0
    1.0071   -3.2166    2.4311 N   0  0  0  0  0  0  0  0  0  0  0  0
    1.8930    2.1305   -0.2984 C   0  0  0  0  0  0  0  0  0  0  0  0
    3.3343    1.8642    0.0232 C   0  0  1  0  0  0  0  0  0  0  0  0
    2.2536    1.2061    0.8201 C   0  0  2  0  0  0  0  0  0  0  0  0
    1.3615    3.4888    0.0147 C   0  0  0  0  0  0  0  0  0  0  0  0
    1.2809    1.5175   -1.5139 C   0  0  0  0  0  0  0  0  0  0  0  0
    4.1444    1.0353   -0.8567 C   0  0  0  0  0  0  0  0  0  0  0  0
    2.0567   -0.2582    0.6690 C   0  0  0  0  0  0  0  0  0  0  0  0
    5.2235    0.3072   -0.5318 C   0  0  0  0  0  0  0  0  0  0  0  0
    0.4852   -1.9495    0.1774 C   0  0  2  0  0  0  0  0  0  0  0  0
   -0.9262   -2.1265   -0.2703 C   0  0  0  0  0  0  0  0  0  0  0  0
    0.7758   -2.6646    1.4369 C   0  0  0  0  0  0  0  0  0  0  0  0
   -1.9153   -1.2512    0.1781 C   0  0  0  0  0  0  0  0  0  0  0  0
   -1.2570   -3.1674   -1.1379 C   0  0  0  0  0  0  0  0  0  0  0  0
   -3.2352   -1.4166   -0.2413 C   0  0  0  0  0  0  0  0  0  0  0  0
   -2.5770   -3.3329   -1.5571 C   0  0  0  0  0  0  0  0  0  0  0  0
   -3.5662   -2.4576   -1.1088 C   0  0  0  0  0  0  0  0  0  0  0  0
   -3.9144    0.7922    0.1860 C   0  0  0  0  0  0  0  0  0  0  0  0
   -3.3060    1.3439   -0.9269 C   0  0  0  0  0  0  0  0  0  0  0  0
   -4.2442    1.5587    1.2890 C   0  0  0  0  0  0  0  0  0  0  0  0
   -3.0177    2.7085   -0.9372 C   0  0  0  0  0  0  0  0  0  0  0  0
   -3.9559    2.9234    1.2788 C   0  0  0  0  0  0  0  0  0  0  0  0
   -3.3426    3.4984    0.1656 C   0  0  0  0  0  0  0  0  0  0  0  0
    3.8863    2.6645    0.5074 H   0  0  0  0  0  0  0  0  0  0  0  0
    2.1223    1.5644    1.8366 H   0  0  0  0  0  0  0  0  0  0  0  0
    0.2770    3.4532    0.1636 H   0  0  0  0  0  0  0  0  0  0  0  0
    1.5710    4.1838   -0.8054 H   0  0  0  0  0  0  0  0  0  0  0  0
    1.8043    3.9074    0.9254 H   0  0  0  0  0  0  0  0  0  0  0  0
    1.4502    2.1665   -2.3813 H   0  0  0  0  0  0  0  0  0  0  0  0
    0.1956    1.4268   -1.3895 H   0  0  0  0  0  0  0  0  0  0  0  0
    1.6610    0.5288   -1.7884 H   0  0  0  0  0  0  0  0  0  0  0  0
    3.8646    1.0424   -1.9089 H   0  0  0  0  0  0  0  0  0  0  0  0
    1.1494   -2.3185   -0.6161 H   0  0  0  0  0  0  0  0  0  0  0  0
   -1.6604   -0.4630    0.8824 H   0  0  0  0  0  0  0  0  0  0  0  0
   -0.4968   -3.8577   -1.4940 H   0  0  0  0  0  0  0  0  0  0  0  0
   -2.8349   -4.1435   -2.2323 H   0  0  0  0  0  0  0  0  0  0  0  0
   -4.5927   -2.5913   -1.4390 H   0  0  0  0  0  0  0  0  0  0  0  0
   -3.0634    0.7553   -1.8068 H   0  0  0  0  0  0  0  0  0  0  0  0
   -4.7210    1.1123    2.1564 H   0  0  0  0  0  0  0  0  0  0  0  0
   -2.5432    3.1569   -1.8051 H   0  0  0  0  0  0  0  0  0  0  0  0
   -4.2086    3.5384    2.1376 H   0  0  0  0  0  0  0  0  0  0  0  0
   -3.1182    4.5609    0.1574 H   0  0  0  0  0  0  0  0  0  0  0  0
  1 14  1  0  0  0  0
  2 14  1  0  0  0  0
  3 13  1  0  0  0  0
  3 15  1  0  0  0  0
  4 13  2  0  0  0  0
  5 20  1  0  0  0  0
  5 23  1  0  0  0  0
  6 17  3  0  0  0  0
  7  8  1  0  0  0  0
  7  9  1  0  0  0  0
  7 10  1  0  0  0  0
  7 11  1  0  0  0  0
  8  9  1  0  0  0  0
  8 12  1  0  0  0  0
  8 29  1  0  0  0  0
  9 13  1  0  0  0  0
  9 30  1  0  0  0  0
 10 31  1  0  0  0  0
 10 32  1  0  0  0  0
 10 33  1  0  0  0  0
 11 34  1  0  0  0  0
 11 35  1  0  0  0  0
 11 36  1  0  0  0  0
 12 14  2  0  0  0  0
 12 37  1  0  0  0  0
 15 16  1  0  0  0  0
 15 17  1  0  0  0  0
 15 38  1  0  0  0  0
 16 18  2  0  0  0  0
 16 19  1  0  0  0  0
 18 20  1  0  0  0  0
 18 39  1  0  0  0  0
 19 21  2  0  0  0  0
 19 40  1  0  0  0  0
 20 22  2  0  0  0  0
 21 22  1  0  0  0  0
 21 41  1  0  0  0  0
 22 42  1  0  0  0  0
 23 24  2  0  0  0  0
 23 25  1  0  0  0  0
 24 26  1  0  0  0  0
 24 43  1  0  0  0  0
 25 27  2  0  0  0  0
 25 44  1  0  0  0  0
 26 28  2  0  0  0  0
 26 45  1  0  0  0  0
 27 28  1  0  0  0  0
 27 46  1  0  0  0  0
 28 47  1  0  0  0  0
M  END
> <PUBCHEM_COMPOUND_CID>
3086172

> <PUBCHEM_CONFORMER_RMSD>
1

> <PUBCHEM_CONFORMER_DIVERSEORDER>
1
317
280
230
426
183
134
194
397
115
420
460
308
105
67
130
128
133
278
355
186
429
14
144
328
318
282
71
152
124
309
450
26
111
199
438
279
402
372
371
204
288
296
123
375
226
234
456
326
471
121
235
398
340
267
343
312
106
442
351
410
127
370
147
206
386
176
428
461
261
431
346
241
102
33
203
157
425
390
378
475
54
112
75
143
160
178
162
448
88
182
350
262
213
242
89
316
172
10
291
145
383
196
387
294
465
337
103
80
421
125
191
158
169
246
467
452
205
90
265
271
427
37
414
358
405
395
436
119
159
469
163
179
207
30
17
289
173
217
466
430
275
142
227
338
85
434
284
255
339
446
417
221
354
50
109
306
376
322
394
257
270
51
455
65
324
401
449
330
359
47
403
170
83
100
97
27
304
367
252
432
228
399
31
373
385
135
388
347
68
225
476
6
222
107
293
202
19
453
216
248
408
146
299
413
260
64
13
310
174
305
406
237
348
211
141
341
366
70
148
232
353
122
311
404
129
451
423
422
42
349
419
108
379
59
24
223
84
415
238
184
247
462
444
380
137
360
153
35
302
215
53
56
136
126
443
259
381
63
412
295
168
96
368
274
188
181
49
459
251
307
154
416
9
396
193
4
72
91
94
192
286
474
249
52
263
253
118
180
11
81
468
266
36
209
313
101
365
441
190
214
43
233
352
283
197
292
325
273
23
392
411
92
171
314
131
60
472
269
344
374
44
12
166
5
256
457
445
389
78
208
418
104
55
357
139
161
229
356
48
38
321
334
110
439
200
210
369
177
175
220
287
41
156
327
155
149
73
301
32
39
464
243
400
435
297
409
224
20
272
300
382
58
95
377
28
424
315
212
454
342
151
433
239
201
98
361
218
458
285
473
345
138
187
29
437
440
336
18
391
22
195
447
140
164
15
463
46
363
150
185
319
254
189
362
331
335
116
281
77
244
132
45
7
167
165
250
277
236
258
57
3
320
114
69
79
62
76
120
240
66
393
8
333
40
303
74
2
332
34
87
245
61
231
470
219
198
99
407
323
290
329
268
364
113
21
16
25
86
117
298
82
264
384
276
93

> <PUBCHEM_MMFF94_PARTIAL_CHARGES>
40
1 -0.14
10 0.09
11 0.09
12 -0.19
13 0.72
14 0.28
15 0.62
16 -0.14
17 0.36
18 -0.15
19 -0.15
2 -0.14
20 0.08
21 -0.15
22 -0.15
23 0.08
24 -0.15
25 -0.15
26 -0.15
27 -0.15
28 -0.15
29 0.1
3 -0.43
30 0.1
37 0.15
39 0.15
4 -0.57
40 0.15
41 0.15
42 0.15
43 0.15
44 0.15
45 0.15
46 0.15
47 0.15
5 -0.17
6 -0.56
7 -0.19
8 -0.06
9 -0.1

> <PUBCHEM_EFFECTIVE_ROTOR_COUNT>
7.6

> <PUBCHEM_PHARMACOPHORE_FEATURES>
6
1 4 acceptor
1 5 acceptor
1 6 acceptor
3 7 10 11 hydrophobe
6 16 18 19 20 21 22 rings
6 23 24 25 26 27 28 rings

> <PUBCHEM_HEAVY_ATOM_COUNT>
28

> <PUBCHEM_ATOM_DEF_STEREO_COUNT>
3

> <PUBCHEM_ATOM_UDEF_STEREO_COUNT>
0

> <PUBCHEM_BOND_DEF_STEREO_COUNT>
0

> <PUBCHEM_BOND_UDEF_STEREO_COUNT>
0

> <PUBCHEM_ISOTOPIC_ATOM_COUNT>
0

> <PUBCHEM_COMPONENT_COUNT>
1

> <PUBCHEM_CACTVS_TAUTO_COUNT>
1

> <PUBCHEM_CONFORMER_ID>
002F175C00000001

> <PUBCHEM_MMFF94_ENERGY>
81.8513

> <PUBCHEM_FEATURE_SELFOVERLAP>
30.446

> <PUBCHEM_SHAPE_FINGERPRINT>
10165383 225 17968363637840119363
10483366 6 17612289154695256726
10670039 82 18410292497379568132
11513181 2 17970917884333732527
12422481 6 17985566669650864818
12788726 201 18051135787253191304
12978246 48 18410858789171447913
13122387 1 18122911090682202409
13583140 156 17629766931817371499
14251751 93 18408324362891479518
14251757 17 17968921102487508870
14289585 56 17417808487214855532
14347332 77 18188776019999068831
14363568 33 17469862842401954871
14466204 15 18412834590218046200
14790565 3 18272931652794781664
15021287 119 17346601881180934620
15183329 4 18413107265017698934
15297060 5 17750228286772285105
15420108 30 18264497367390366289
1601671 61 18412262878631444008
19311894 1 18333445460708605980
20775438 99 15811463385017769311
21033650 10 18266438967981814238
21796203 349 16245147716293897408
21987440 362 17834945748108895972
23559900 14 17967529061407439040
3459 83 17679568198236965086
350125 39 18409729569439072801
3610482 184 18127951058731310876
437795 70 18263907935095768974
445580 125 18260258668561261400
5048184 11 18410011082933897665
508706 21 18260259737717910151
5252454 2 18339364170767061129

> <PUBCHEM_SHAPE_MULTIPOLES>
557.38
11.18
4.81
1.58
10.22
0.2
-0.24
-3.78
1.27
-4.86
0.04
0.54
0.84
-1.72

> <PUBCHEM_SHAPE_SELFOVERLAP>
1178.554

> <PUBCHEM_SHAPE_VOLUME>
311.3

> <PUBCHEM_COORDINATE_TYPE>
2
5
10

$$$$

