441824
  -OEChem-07051212562D

 82 86  0     1  0  0  0  0  0999 V2000
    8.2352    1.3686    0.0000 O   0  0  0  0  0  0  0  0  0  0  0  0
    5.3307    0.3027    0.0000 O   0  0  0  0  0  0  0  0  0  0  0  0
    2.5357   -3.2497    0.0000 O   0  0  0  0  0  0  0  0  0  0  0  0
    6.6209    3.5470    0.0000 O   0  0  0  0  0  0  0  0  0  0  0  0
    7.9288   -1.1973    0.0000 C   0  0  2  0  0  0  0  0  0  0  0  0
    7.9288   -0.1973    0.0000 C   0  0  1  0  0  0  0  0  0  0  0  0
    7.0628   -1.6973    0.0000 C   0  0  1  0  0  0  0  0  0  0  0  0
    8.8750    0.1074    0.0000 C   0  0  2  0  0  0  0  0  0  0  0  0
    6.1968   -1.1973    0.0000 C   0  0  2  0  0  0  0  0  0  0  0  0
    8.8750   -1.5021    0.0000 C   0  0  0  0  0  0  0  0  0  0  0  0
    9.4586   -0.6973    0.0000 C   0  0  0  0  0  0  0  0  0  0  0  0
    7.0628    0.3027    0.0000 C   0  0  0  0  0  0  0  0  0  0  0  0
    9.1857    1.0579    0.0000 C   0  0  2  0  0  0  0  0  0  0  0  0
    5.2868   -1.7042    0.0000 C   0  0  1  0  0  0  0  0  0  0  0  0
    6.1968   -0.1973    0.0000 C   0  0  0  0  0  0  0  0  0  0  0  0
    7.0789   -2.7388    0.0000 C   0  0  0  0  0  0  0  0  0  0  0  0
    7.9288   -2.1973    0.0000 C   0  0  0  0  0  0  0  0  0  0  0  0
    7.9288    0.8027    0.0000 C   0  0  0  0  0  0  0  0  0  0  0  0
    5.2787   -2.7458    0.0000 C   0  0  0  0  0  0  0  0  0  0  0  0
    5.3307   -0.6973    0.0000 C   0  0  0  0  0  0  0  0  0  0  0  0
    9.7749    1.8659    0.0000 C   0  0  0  0  0  0  0  0  0  0  0  0
    4.3599   -1.1401    0.0000 C   0  0  0  0  0  0  0  0  0  0  0  0
    6.1808   -3.2666    0.0000 C   0  0  0  0  0  0  0  0  0  0  0  0
    4.3433   -3.2955    0.0000 C   0  0  0  0  0  0  0  0  0  0  0  0
    9.9937    0.4687    0.0000 C   0  0  0  0  0  0  0  0  0  0  0  0
    9.1885    2.6760    0.0000 C   0  0  0  0  0  0  0  0  0  0  0  0
    3.4120   -1.6680    0.0000 C   0  0  0  0  0  0  0  0  0  0  0  0
    8.2369    2.3686    0.0000 C   0  0  1  0  0  0  0  0  0  0  0  0
    3.4037   -2.7530    0.0000 C   0  0  2  0  0  0  0  0  0  0  0  0
    3.8467   -4.1634    0.0000 C   0  0  0  0  0  0  0  0  0  0  0  0
    4.8466   -4.1596    0.0000 C   0  0  0  0  0  0  0  0  0  0  0  0
    7.4289    2.9578    0.0000 C   0  0  0  0  0  0  0  0  0  0  0  0
    8.0181    3.7658    0.0000 C   0  0  0  0  0  0  0  0  0  0  0  0
    6.8397    2.1498    0.0000 C   0  0  0  0  0  0  0  0  0  0  0  0
    7.8022   -2.1166    0.0000 H   0  0  0  0  0  0  0  0  0  0  0  0
    9.7148    0.2393    0.0000 H   0  0  0  0  0  0  0  0  0  0  0  0
    8.6240   -2.0690    0.0000 H   0  0  0  0  0  0  0  0  0  0  0  0
    9.4124   -1.8113    0.0000 H   0  0  0  0  0  0  0  0  0  0  0  0
    9.9195   -1.1121    0.0000 H   0  0  0  0  0  0  0  0  0  0  0  0
    9.9195   -0.2826    0.0000 H   0  0  0  0  0  0  0  0  0  0  0  0
    7.4613    0.7776    0.0000 H   0  0  0  0  0  0  0  0  0  0  0  0
    6.6643    0.7776    0.0000 H   0  0  0  0  0  0  0  0  0  0  0  0
    5.3031   -0.8543    0.0000 H   0  0  0  0  0  0  0  0  0  0  0  0
    7.2969   -3.3192    0.0000 H   0  0  0  0  0  0  0  0  0  0  0  0
    7.6880   -2.6233    0.0000 H   0  0  0  0  0  0  0  0  0  0  0  0
    7.3088   -2.1973    0.0000 H   0  0  0  0  0  0  0  0  0  0  0  0
    7.9288   -2.8173    0.0000 H   0  0  0  0  0  0  0  0  0  0  0  0
    8.5488   -2.1973    0.0000 H   0  0  0  0  0  0  0  0  0  0  0  0
    8.5488    0.8027    0.0000 H   0  0  0  0  0  0  0  0  0  0  0  0
    7.9288    1.4227    0.0000 H   0  0  0  0  0  0  0  0  0  0  0  0
    7.3088    0.8027    0.0000 H   0  0  0  0  0  0  0  0  0  0  0  0
    5.6407   -0.1604    0.0000 H   0  0  0  0  0  0  0  0  0  0  0  0
    4.7938   -0.3873    0.0000 H   0  0  0  0  0  0  0  0  0  0  0  0
    5.0207   -1.2343    0.0000 H   0  0  0  0  0  0  0  0  0  0  0  0
   10.2349    1.4503    0.0000 H   0  0  0  0  0  0  0  0  0  0  0  0
   10.2364    2.2800    0.0000 H   0  0  0  0  0  0  0  0  0  0  0  0
    4.7681   -0.6734    0.0000 H   0  0  0  0  0  0  0  0  0  0  0  0
    3.9700   -0.6581    0.0000 H   0  0  0  0  0  0  0  0  0  0  0  0
    6.1832   -3.8866    0.0000 H   0  0  0  0  0  0  0  0  0  0  0  0
    9.6284   -0.0322    0.0000 H   0  0  0  0  0  0  0  0  0  0  0  0
   10.4947    0.1034    0.0000 H   0  0  0  0  0  0  0  0  0  0  0  0
   10.3590    0.9697    0.0000 H   0  0  0  0  0  0  0  0  0  0  0  0
    9.7260    2.9850    0.0000 H   0  0  0  0  0  0  0  0  0  0  0  0
    8.9373    3.2428    0.0000 H   0  0  0  0  0  0  0  0  0  0  0  0
    3.2075   -1.0828    0.0000 H   0  0  0  0  0  0  0  0  0  0  0  0
    2.8004   -1.7694    0.0000 H   0  0  0  0  0  0  0  0  0  0  0  0
    7.4789    1.9840    0.0000 H   0  0  0  0  0  0  0  0  0  0  0  0
    2.8686   -2.4399    0.0000 H   0  0  0  0  0  0  0  0  0  0  0  0
    3.3085   -3.8555    0.0000 H   0  0  0  0  0  0  0  0  0  0  0  0
    3.5387   -4.7016    0.0000 H   0  0  0  0  0  0  0  0  0  0  0  0
    4.3848   -4.4714    0.0000 H   0  0  0  0  0  0  0  0  0  0  0  0
    4.3109   -4.4717    0.0000 H   0  0  0  0  0  0  0  0  0  0  0  0
    5.1587   -4.6953    0.0000 H   0  0  0  0  0  0  0  0  0  0  0  0
    5.3824   -3.8475    0.0000 H   0  0  0  0  0  0  0  0  0  0  0  0
    2.0000   -2.9376    0.0000 H   0  0  0  0  0  0  0  0  0  0  0  0
    8.5191    3.4005    0.0000 H   0  0  0  0  0  0  0  0  0  0  0  0
    8.3834    4.2667    0.0000 H   0  0  0  0  0  0  0  0  0  0  0  0
    7.5171    4.1311    0.0000 H   0  0  0  0  0  0  0  0  0  0  0  0
    6.3388    2.5151    0.0000 H   0  0  0  0  0  0  0  0  0  0  0  0
    6.4744    1.6488    0.0000 H   0  0  0  0  0  0  0  0  0  0  0  0
    7.3407    1.7845    0.0000 H   0  0  0  0  0  0  0  0  0  0  0  0
    6.6868    4.1634    0.0000 H   0  0  0  0  0  0  0  0  0  0  0  0
  1 13  1  0  0  0  0
  1 28  1  0  0  0  0
  2 15  2  0  0  0  0
 29  3  1  1  0  0  0
  3 75  1  0  0  0  0
  4 32  1  0  0  0  0
  4 82  1  0  0  0  0
  5  6  1  0  0  0  0
  5  7  1  0  0  0  0
  5 10  1  0  0  0  0
  5 17  1  6  0  0  0
  6  8  1  0  0  0  0
  6 12  1  0  0  0  0
  6 18  1  1  0  0  0
  7  9  1  0  0  0  0
  7 16  1  0  0  0  0
  7 35  1  1  0  0  0
  8 11  1  0  0  0  0
  8 13  1  0  0  0  0
  8 36  1  6  0  0  0
  9 14  1  0  0  0  0
  9 15  1  0  0  0  0
  9 20  1  1  0  0  0
 10 11  1  0  0  0  0
 10 37  1  0  0  0  0
 10 38  1  0  0  0  0
 11 39  1  0  0  0  0
 11 40  1  0  0  0  0
 12 15  1  0  0  0  0
 12 41  1  0  0  0  0
 12 42  1  0  0  0  0
 13 21  1  0  0  0  0
 13 25  1  6  0  0  0
 14 19  1  0  0  0  0
 14 22  1  0  0  0  0
 14 43  1  6  0  0  0
 16 23  1  0  0  0  0
 16 44  1  0  0  0  0
 16 45  1  0  0  0  0
 17 46  1  0  0  0  0
 17 47  1  0  0  0  0
 17 48  1  0  0  0  0
 18 49  1  0  0  0  0
 18 50  1  0  0  0  0
 18 51  1  0  0  0  0
 19 23  2  0  0  0  0
 19 24  1  0  0  0  0
 20 52  1  0  0  0  0
 20 53  1  0  0  0  0
 20 54  1  0  0  0  0
 21 26  1  0  0  0  0
 21 55  1  0  0  0  0
 21 56  1  0  0  0  0
 22 27  1  0  0  0  0
 22 57  1  0  0  0  0
 22 58  1  0  0  0  0
 23 59  1  0  0  0  0
 24 29  1  0  0  0  0
 24 30  1  0  0  0  0
 24 31  1  0  0  0  0
 25 60  1  0  0  0  0
 25 61  1  0  0  0  0
 25 62  1  0  0  0  0
 26 28  1  0  0  0  0
 26 63  1  0  0  0  0
 26 64  1  0  0  0  0
 27 29  1  0  0  0  0
 27 65  1  0  0  0  0
 27 66  1  0  0  0  0
 28 32  1  0  0  0  0
 28 67  1  1  0  0  0
 29 68  1  0  0  0  0
 30 69  1  0  0  0  0
 30 70  1  0  0  0  0
 30 71  1  0  0  0  0
 31 72  1  0  0  0  0
 31 73  1  0  0  0  0
 31 74  1  0  0  0  0
 32 33  1  0  0  0  0
 32 34  1  0  0  0  0
 33 76  1  0  0  0  0
 33 77  1  0  0  0  0
 33 78  1  0  0  0  0
 34 79  1  0  0  0  0
 34 80  1  0  0  0  0
 34 81  1  0  0  0  0
M  END
> <PUBCHEM_COMPOUND_CID>
441824

> <PUBCHEM_COMPOUND_CANONICALIZED>
1

> <PUBCHEM_CACTVS_COMPLEXITY>
919

> <PUBCHEM_CACTVS_HBOND_ACCEPTOR>
4

> <PUBCHEM_CACTVS_HBOND_DONOR>
2

> <PUBCHEM_CACTVS_ROTATABLE_BOND>
2

> <PUBCHEM_CACTVS_SUBSKEYS>
AAADcfB4OAAAAAAAAAAAAAAAAAAAAaIAAAAwYIAAAAAAAGCAAAAAGgAACAAAD1SggAICAAAABgCIAqBSAAAAAAAgAAAACAEAAAgBEBIAAQACQAAEwAALAAOI7PTPgAAAAAAAAADAAAQAADAAAQAACAAAAA==

> <PUBCHEM_IUPAC_OPENEYE_NAME>
(3S,8S,9R,10R,13R,14S,17S)-3-hydroxy-17-[(2S,5S)-5-(1-hydroxy-1-methyl-ethyl)-2-methyl-tetrahydrofuran-2-yl]-4,4,9,13,14-pentamethyl-1,2,3,7,8,10,12,15,16,17-decahydrocyclopenta[a]phenanthren-11-one

> <PUBCHEM_IUPAC_CAS_NAME>
(3S,8S,9R,10R,13R,14S,17S)-3-hydroxy-17-[(2S,5S)-5-(2-hydroxypropan-2-yl)-2-methyl-2-oxolanyl]-4,4,9,13,14-pentamethyl-1,2,3,7,8,10,12,15,16,17-decahydrocyclopenta[a]phenanthren-11-one

> <PUBCHEM_IUPAC_NAME>
(3S,8S,9R,10R,13R,14S,17S)-3-hydroxy-17-[(2S,5S)-5-(2-hydroxypropan-2-yl)-2-methyloxolan-2-yl]-4,4,9,13,14-pentamethyl-1,2,3,7,8,10,12,15,16,17-decahydrocyclopenta[a]phenanthren-11-one

> <PUBCHEM_IUPAC_SYSTEMATIC_NAME>
(3S,8S,9R,10R,13R,14S,17S)-4,4,9,13,14-pentamethyl-17-[(2S,5S)-2-methyl-5-(2-oxidanylpropan-2-yl)oxolan-2-yl]-3-oxidanyl-1,2,3,7,8,10,12,15,16,17-decahydrocyclopenta[a]phenanthren-11-one

> <PUBCHEM_IUPAC_TRADITIONAL_NAME>
(3S,8S,9R,10R,13R,14S,17S)-3-hydroxy-17-[(2S,5S)-5-(1-hydroxy-1-methyl-ethyl)-2-methyl-tetrahydrofuran-2-yl]-4,4,9,13,14-pentamethyl-1,2,3,7,8,10,12,15,16,17-decahydrocyclopenta[a]phenanthren-11-one

> <PUBCHEM_IUPAC_INCHI>
InChI=1S/C30H48O4/c1-25(2)18-9-11-21-27(5)15-13-20(29(7)16-14-24(34-29)26(3,4)33)28(27,6)17-23(32)30(21,8)19(18)10-12-22(25)31/h9,19-22,24,31,33H,10-17H2,1-8H3/t19-,20+,21+,22+,24+,27+,28-,29+,30+/m1/s1

> <PUBCHEM_IUPAC_INCHIKEY>
DJFUSGZOFOKWFY-HVNJZMCDSA-N

> <PUBCHEM_XLOGP3_AA>
4.7

> <PUBCHEM_EXACT_MASS>
472.35526

> <PUBCHEM_MOLECULAR_FORMULA>
C30H48O4

> <PUBCHEM_MOLECULAR_WEIGHT>
472.69972

> <PUBCHEM_OPENEYE_CAN_SMILES>
CC1(C(CCC2C1=CCC3C2(C(=O)CC4(C3(CCC4C5(CCC(O5)C(C)(C)O)C)C)C)C)O)C

> <PUBCHEM_OPENEYE_ISO_SMILES>
C[C@]1(CC[C@H](O1)C(C)(C)O)[C@H]2CC[C@@]3([C@@]2(CC(=O)[C@@]4([C@H]3CC=C5[C@H]4CC[C@@H](C5(C)C)O)C)C)C

> <PUBCHEM_CACTVS_TPSA>
66.8

> <PUBCHEM_MONOISOTOPIC_WEIGHT>
472.35526

> <PUBCHEM_TOTAL_CHARGE>
0

> <PUBCHEM_HEAVY_ATOM_COUNT>
34

> <PUBCHEM_ATOM_DEF_STEREO_COUNT>
9

> <PUBCHEM_ATOM_UDEF_STEREO_COUNT>
0

> <PUBCHEM_BOND_DEF_STEREO_COUNT>
0

> <PUBCHEM_BOND_UDEF_STEREO_COUNT>
0

> <PUBCHEM_ISOTOPIC_ATOM_COUNT>
0

> <PUBCHEM_COMPONENT_COUNT>
1

> <PUBCHEM_CACTVS_TAUTO_COUNT>
2

> <PUBCHEM_COORDINATE_TYPE>
1
5
255

> <PUBCHEM_BONDANNOTATIONS>
13  25  6
14  43  6
28  67  5
29  3  5
5  17  6
6  18  5
7  35  5
8  36  6
9  20  5

$$$$

