54778
  -OEChem-07051213013D

 30 31  0     0  0  0  0  0  0999 V2000
   -1.4069   -2.5664    0.0702 Cl  0  0  0  0  0  0  0  0  0  0  0  0
    1.0210    1.5035   -0.2329 O   0  0  0  0  0  0  0  0  0  0  0  0
    2.0997   -1.8016   -0.6072 O   0  0  0  0  0  0  0  0  0  0  0  0
    0.8564    0.1696   -0.6556 N   0  0  0  0  0  0  0  0  0  0  0  0
    2.8836    0.2451    0.4512 C   0  0  0  0  0  0  0  0  0  0  0  0
    2.4321    1.6269   -0.0205 C   0  0  0  0  0  0  0  0  0  0  0  0
    1.9342   -0.6205   -0.3416 C   0  0  0  0  0  0  0  0  0  0  0  0
    4.3437   -0.0311    0.1186 C   0  0  0  0  0  0  0  0  0  0  0  0
    2.6116    0.0443    1.9453 C   0  0  0  0  0  0  0  0  0  0  0  0
   -0.3281   -0.1012   -1.4339 C   0  0  0  0  0  0  0  0  0  0  0  0
   -1.5840    0.0643   -0.6201 C   0  0  0  0  0  0  0  0  0  0  0  0
   -2.1314   -0.9998    0.0852 C   0  0  0  0  0  0  0  0  0  0  0  0
   -2.1830    1.3180   -0.5944 C   0  0  0  0  0  0  0  0  0  0  0  0
   -3.2964   -0.8079    0.8279 C   0  0  0  0  0  0  0  0  0  0  0  0
   -3.3480    1.5098    0.1483 C   0  0  0  0  0  0  0  0  0  0  0  0
   -3.9048    0.4470    0.8595 C   0  0  0  0  0  0  0  0  0  0  0  0
    2.6204    2.4119    0.7184 H   0  0  0  0  0  0  0  0  0  0  0  0
    2.8947    1.9207   -0.9705 H   0  0  0  0  0  0  0  0  0  0  0  0
    4.5255    0.0355   -0.9601 H   0  0  0  0  0  0  0  0  0  0  0  0
    5.0046    0.6852    0.6183 H   0  0  0  0  0  0  0  0  0  0  0  0
    4.6373   -1.0395    0.4314 H   0  0  0  0  0  0  0  0  0  0  0  0
    3.2165    0.7286    2.5501 H   0  0  0  0  0  0  0  0  0  0  0  0
    1.5585    0.2159    2.1962 H   0  0  0  0  0  0  0  0  0  0  0  0
    2.8511   -0.9805    2.2521 H   0  0  0  0  0  0  0  0  0  0  0  0
   -0.2520   -1.0996   -1.8762 H   0  0  0  0  0  0  0  0  0  0  0  0
   -0.3312    0.5964   -2.2810 H   0  0  0  0  0  0  0  0  0  0  0  0
   -1.7608    2.1553   -1.1432 H   0  0  0  0  0  0  0  0  0  0  0  0
   -3.7428   -1.6258    1.3879 H   0  0  0  0  0  0  0  0  0  0  0  0
   -3.8215    2.4870    0.1730 H   0  0  0  0  0  0  0  0  0  0  0  0
   -4.8118    0.5966    1.4378 H   0  0  0  0  0  0  0  0  0  0  0  0
  1 12  1  0  0  0  0
  2  4  1  0  0  0  0
  2  6  1  0  0  0  0
  3  7  2  0  0  0  0
  4  7  1  0  0  0  0
  4 10  1  0  0  0  0
  5  6  1  0  0  0  0
  5  7  1  0  0  0  0
  5  8  1  0  0  0  0
  5  9  1  0  0  0  0
  6 17  1  0  0  0  0
  6 18  1  0  0  0  0
  8 19  1  0  0  0  0
  8 20  1  0  0  0  0
  8 21  1  0  0  0  0
  9 22  1  0  0  0  0
  9 23  1  0  0  0  0
  9 24  1  0  0  0  0
 10 11  1  0  0  0  0
 10 25  1  0  0  0  0
 10 26  1  0  0  0  0
 11 12  1  0  0  0  0
 11 13  2  0  0  0  0
 12 14  2  0  0  0  0
 13 15  1  0  0  0  0
 13 27  1  0  0  0  0
 14 16  1  0  0  0  0
 14 28  1  0  0  0  0
 15 16  2  0  0  0  0
 15 29  1  0  0  0  0
 16 30  1  0  0  0  0
M  END
> <PUBCHEM_COMPOUND_CID>
54778

> <PUBCHEM_CONFORMER_RMSD>
0.6

> <PUBCHEM_CONFORMER_DIVERSEORDER>
1
13
16
18
15
11
3
17
14
4
8
19
20
7
9
10
6
22
21
12
2
5

> <PUBCHEM_MMFF94_PARTIAL_CHARGES>
18
1 -0.18
10 0.44
11 -0.14
12 0.18
13 -0.15
14 -0.15
15 -0.15
16 -0.15
2 -0.32
27 0.15
28 0.15
29 0.15
3 -0.57
30 0.15
4 -0.32
5 0.06
6 0.28
7 0.57

> <PUBCHEM_EFFECTIVE_ROTOR_COUNT>
2.8

> <PUBCHEM_PHARMACOPHORE_FEATURES>
4
1 3 acceptor
3 5 8 9 hydrophobe
5 2 4 5 6 7 rings
6 11 12 13 14 15 16 rings

> <PUBCHEM_HEAVY_ATOM_COUNT>
16

> <PUBCHEM_ATOM_DEF_STEREO_COUNT>
0

> <PUBCHEM_ATOM_UDEF_STEREO_COUNT>
0

> <PUBCHEM_BOND_DEF_STEREO_COUNT>
0

> <PUBCHEM_BOND_UDEF_STEREO_COUNT>
0

> <PUBCHEM_ISOTOPIC_ATOM_COUNT>
0

> <PUBCHEM_COMPONENT_COUNT>
1

> <PUBCHEM_CACTVS_TAUTO_COUNT>
1

> <PUBCHEM_CONFORMER_ID>
0000D5FA00000001

> <PUBCHEM_MMFF94_ENERGY>
39.9465

> <PUBCHEM_FEATURE_SELFOVERLAP>
20.297

> <PUBCHEM_SHAPE_FINGERPRINT>
10366900 7 18187370891398527155
10618630 7 15338845295328348936
10799339 124 18334856147090818873
12077114 3 18342464776435341101
12251169 10 18412261714188833229
12382932 28 18411422808159762305
124424 183 17167863071481675296
12500047 106 18334861627395313427
12633257 1 18411704274551839497
12696612 119 18342455889815670500
12932764 1 17561095691262739740
13004483 165 17683257862696645815
13581323 91 18131351899318611367
14144814 61 18413670201484805277
14178342 30 18336841792245450122
15309172 13 18411417323766262583
15375462 189 17561091319149543496
15653759 3 18413105073856429329
15775835 57 17775569762039135657
16945 1 18411141311708215423
17804303 29 18269823384477636375
18186145 218 18041831934907638735
19049666 15 18122624126383457093
19862831 5 6555413102443628985
200 152 18114758040289730439
20361792 2 15626224585277283423
20442098 301 18343024350154006202
21501502 16 18268708299102895852
22445834 79 17918281939002684939
23402539 116 18262244331280253863
23559900 14 18336543931815193182
2748010 2 18196376046280555615
4028521 119 6988046721701465307
69090 78 18409168805624161055
7097593 13 18201452380018536586

> <PUBCHEM_SHAPE_MULTIPOLES>
314.42
7.11
1.92
1.19
1.12
0.71
-0.29
-1.06
-2.17
-0.79
0.13
0.28
0.02
0.23

> <PUBCHEM_SHAPE_SELFOVERLAP>
654.44

> <PUBCHEM_SHAPE_VOLUME>
182.8

> <PUBCHEM_COORDINATE_TYPE>
2
5
10

$$$$

