442732
  -OEChem-07051212593D

 48 50  0     1  0  0  0  0  0999 V2000
   -2.2472   -2.2339   -0.0784 O   0  0  0  0  0  0  0  0  0  0  0  0
   -3.5721   -1.8307    1.8283 O   0  0  0  0  0  0  0  0  0  0  0  0
    0.4368   -2.9118   -0.3326 O   0  0  0  0  0  0  0  0  0  0  0  0
    2.8045   -2.1672   -0.3778 O   0  0  0  0  0  0  0  0  0  0  0  0
    1.2114    3.0110    0.4151 O   0  0  0  0  0  0  0  0  0  0  0  0
    3.7840    2.4834    0.1789 O   0  0  0  0  0  0  0  0  0  0  0  0
   -3.1893   -0.0092    0.2115 C   0  0  2  0  0  0  0  0  0  0  0  0
   -1.6940   -0.0098    0.1839 C   0  0  0  0  0  0  0  0  0  0  0  0
   -3.4044   -1.5314    0.4430 C   0  0  1  0  0  0  0  0  0  0  0  0
   -3.7248    0.4098   -1.1673 C   0  0  0  0  0  0  0  0  0  0  0  0
   -1.2394   -1.3043   -0.0077 C   0  0  0  0  0  0  0  0  0  0  0  0
   -0.7952    1.0371    0.2669 C   0  0  0  0  0  0  0  0  0  0  0  0
   -3.7890    0.8793    1.3026 C   0  0  0  0  0  0  0  0  0  0  0  0
    0.5738    0.7473    0.1532 C   0  0  0  0  0  0  0  0  0  0  0  0
    1.0485   -0.5646   -0.0508 C   0  0  0  0  0  0  0  0  0  0  0  0
    0.1059   -1.6055   -0.1362 C   0  0  0  0  0  0  0  0  0  0  0  0
   -1.3132    2.4271    0.4352 C   0  0  0  0  0  0  0  0  0  0  0  0
   -5.2152    0.4918   -1.1542 C   0  0  0  0  0  0  0  0  0  0  0  0
    2.4993   -0.8346   -0.1728 C   0  0  0  0  0  0  0  0  0  0  0  0
    1.5418    1.8483    0.2403 C   0  0  0  0  0  0  0  0  0  0  0  0
    3.4338    0.1342   -0.0952 C   0  0  0  0  0  0  0  0  0  0  0  0
    4.9226   -0.0518   -0.1891 C   0  0  0  0  0  0  0  0  0  0  0  0
    3.0021    1.5448    0.1107 C   0  0  0  0  0  0  0  0  0  0  0  0
    5.4112   -0.9455    0.9441 C   0  0  0  0  0  0  0  0  0  0  0  0
    5.3068   -0.6279   -1.5472 C   0  0  0  0  0  0  0  0  0  0  0  0
   -5.8987    1.6141   -1.4045 C   0  0  0  0  0  0  0  0  0  0  0  0
   -4.2873   -1.9216   -0.0713 H   0  0  0  0  0  0  0  0  0  0  0  0
   -3.4243   -0.3109   -1.9398 H   0  0  0  0  0  0  0  0  0  0  0  0
   -3.2972    1.3695   -1.4832 H   0  0  0  0  0  0  0  0  0  0  0  0
   -4.7660    0.4916    1.6192 H   0  0  0  0  0  0  0  0  0  0  0  0
   -3.1609    0.9120    2.2009 H   0  0  0  0  0  0  0  0  0  0  0  0
   -3.9818    1.9108    0.9973 H   0  0  0  0  0  0  0  0  0  0  0  0
   -1.1699    2.7806    1.4604 H   0  0  0  0  0  0  0  0  0  0  0  0
   -0.8479    3.1136   -0.2792 H   0  0  0  0  0  0  0  0  0  0  0  0
   -2.3573    2.5506    0.1683 H   0  0  0  0  0  0  0  0  0  0  0  0
   -5.7795   -0.4154   -0.9573 H   0  0  0  0  0  0  0  0  0  0  0  0
   -2.9125   -1.3273    2.3335 H   0  0  0  0  0  0  0  0  0  0  0  0
    5.4513    0.9028   -0.0896 H   0  0  0  0  0  0  0  0  0  0  0  0
   -0.3767   -3.4452   -0.3541 H   0  0  0  0  0  0  0  0  0  0  0  0
    5.0461   -1.9742    0.8621 H   0  0  0  0  0  0  0  0  0  0  0  0
    5.1037   -0.5526    1.9198 H   0  0  0  0  0  0  0  0  0  0  0  0
    6.5063   -0.9939    0.9417 H   0  0  0  0  0  0  0  0  0  0  0  0
    4.9199   -0.0077   -2.3636 H   0  0  0  0  0  0  0  0  0  0  0  0
    4.9414   -1.6491   -1.6943 H   0  0  0  0  0  0  0  0  0  0  0  0
    6.3976   -0.6603   -1.6492 H   0  0  0  0  0  0  0  0  0  0  0  0
   -6.9832    1.6103   -1.3939 H   0  0  0  0  0  0  0  0  0  0  0  0
   -5.3955    2.5500   -1.6205 H   0  0  0  0  0  0  0  0  0  0  0  0
    2.2115   -2.7166    0.1599 H   0  0  0  0  0  0  0  0  0  0  0  0
  1  9  1  0  0  0  0
  1 11  1  0  0  0  0
  2  9  1  0  0  0  0
  2 37  1  0  0  0  0
  3 16  1  0  0  0  0
  3 39  1  0  0  0  0
  4 19  1  0  0  0  0
  4 48  1  0  0  0  0
  5 20  2  0  0  0  0
  6 23  2  0  0  0  0
  7  8  1  0  0  0  0
  7  9  1  0  0  0  0
  7 10  1  0  0  0  0
  7 13  1  0  0  0  0
  8 11  2  0  0  0  0
  8 12  1  0  0  0  0
  9 27  1  0  0  0  0
 10 18  1  0  0  0  0
 10 28  1  0  0  0  0
 10 29  1  0  0  0  0
 11 16  1  0  0  0  0
 12 14  2  0  0  0  0
 12 17  1  0  0  0  0
 13 30  1  0  0  0  0
 13 31  1  0  0  0  0
 13 32  1  0  0  0  0
 14 15  1  0  0  0  0
 14 20  1  0  0  0  0
 15 16  2  0  0  0  0
 15 19  1  0  0  0  0
 17 33  1  0  0  0  0
 17 34  1  0  0  0  0
 17 35  1  0  0  0  0
 18 26  2  0  0  0  0
 18 36  1  0  0  0  0
 19 21  2  0  0  0  0
 20 23  1  0  0  0  0
 21 22  1  0  0  0  0
 21 23  1  0  0  0  0
 22 24  1  0  0  0  0
 22 25  1  0  0  0  0
 22 38  1  0  0  0  0
 24 40  1  0  0  0  0
 24 41  1  0  0  0  0
 24 42  1  0  0  0  0
 25 43  1  0  0  0  0
 25 44  1  0  0  0  0
 25 45  1  0  0  0  0
 26 46  1  0  0  0  0
 26 47  1  0  0  0  0
M  END
> <PUBCHEM_COMPOUND_CID>
442732

> <PUBCHEM_CONFORMER_RMSD>
0.8

> <PUBCHEM_CONFORMER_DIVERSEORDER>
1
3
4
2

> <PUBCHEM_MMFF94_PARTIAL_CHARGES>
29
1 -0.36
10 0.14
11 0.08
12 -0.14
14 0.09
15 0.03
16 0.08
17 0.14
18 -0.29
19 0.05
2 -0.68
20 0.48
21 -0.12
22 0.14
23 0.56
26 -0.3
3 -0.53
36 0.15
37 0.4
39 0.45
4 -0.53
46 0.15
47 0.15
48 0.45
5 -0.57
6 -0.57
7 0.14
8 -0.14
9 0.56

> <PUBCHEM_EFFECTIVE_ROTOR_COUNT>
3.6

> <PUBCHEM_PHARMACOPHORE_FEATURES>
12
1 1 acceptor
1 2 acceptor
1 2 donor
1 26 hydrophobe
1 3 donor
1 4 donor
1 5 acceptor
1 6 acceptor
3 22 24 25 hydrophobe
5 1 7 8 9 11 rings
6 14 15 19 20 21 23 rings
6 8 11 12 14 15 16 rings

> <PUBCHEM_HEAVY_ATOM_COUNT>
26

> <PUBCHEM_ATOM_DEF_STEREO_COUNT>
1

> <PUBCHEM_ATOM_UDEF_STEREO_COUNT>
1

> <PUBCHEM_BOND_DEF_STEREO_COUNT>
0

> <PUBCHEM_BOND_UDEF_STEREO_COUNT>
0

> <PUBCHEM_ISOTOPIC_ATOM_COUNT>
0

> <PUBCHEM_COMPONENT_COUNT>
1

> <PUBCHEM_CACTVS_TAUTO_COUNT>
259

> <PUBCHEM_CONFORMER_ID>
0006C16C00000001

> <PUBCHEM_MMFF94_ENERGY>
90.3091

> <PUBCHEM_FEATURE_SELFOVERLAP>
61.083

> <PUBCHEM_SHAPE_FINGERPRINT>
10693767 8 17896048804572409575
10906281 52 18264759025567373157
10967382 1 18408600374886041264
11578080 2 17058657488935526607
11796584 16 17489590091022883090
12011746 2 18408603690743238412
12236239 1 17312825987270196901
12403259 415 18342453695103063285
12553582 1 18336538404218514024
12596602 18 14261342579242769885
12788726 201 18192160497578773441
12838862 33 18265354901077747712
13140716 1 18337383851392995739
13224815 77 18409163277389107049
13402501 40 18341620338694310005
13583140 156 17346596396095974649
13862211 1 18335706074254001478
14790565 3 18263907990419439440
15099037 51 18410015446213878077
15196674 1 18337671910607402728
15788980 27 17203608194300251930
1601671 61 18411697708011067142
16945 1 18337104670055551243
17349148 13 17749101175647656472
1813 80 17560803165499018820
18222031 100 18040435516775820996
19591789 44 18193270802206058850
200 152 17676492752344277325
20028762 73 17968654887462029559
20715895 44 18270410493796346445
20775438 99 16669136503125657927
21029758 11 18261115200666688136
21033648 29 18341339881229170385
21267235 1 18336251367127610898
21279426 13 18410856568351180236
21521239 73 18042707047795819823
21792961 116 18200582696502047390
21859007 373 18057350424827305004
221357 26 18336558204477217533
22182313 1 18267297647502147909
22393880 68 18337681836445817583
2334 1 18192993712459100459
23402539 116 18259992586456936100
23493267 7 17917999360620267009
23559900 14 18336270050594168184
23569914 152 16816583670430511149
23569914 2 15838492906895596140
23569943 247 17388524193115493846
2748010 2 18337951165228387667
3004659 81 18131070472430865110
335352 9 18410295826148060196
34934 24 18410583898126303118
350125 39 18267013965176205699
5104073 3 18337668620715215440
5283173 99 18271816760810413389
9709674 26 18261948669203728982

> <PUBCHEM_SHAPE_MULTIPOLES>
499.85
11.35
2.74
1.13
0.59
0.29
-0.05
0.87
-2.9
0.24
0.33
-0.82
-0.07
1.11

> <PUBCHEM_SHAPE_SELFOVERLAP>
1098.02

> <PUBCHEM_SHAPE_VOLUME>
269

> <PUBCHEM_COORDINATE_TYPE>
2
5
10

$$$$

