9314
  -OEChem-06261203362D

 26 25  0     0  0  0  0  0  0999 V2000
    3.4030   -0.2015    0.0000 As  0  0  0  0  0  0  0  0  0  0  0  0
    5.1350   -1.2015    0.0000 Cl  0  0  0  0  0  0  0  0  0  0  0  0
    2.5369   -0.7015    0.0000 O   0  0  0  0  0  0  0  0  0  0  0  0
    2.9030    0.6645    0.0000 O   0  0  0  0  0  0  0  0  0  0  0  0
    3.9030   -1.0675    0.0000 O   0  0  0  0  0  0  0  0  0  0  0  0
    6.8671   -0.2015    0.0000 C   0  0  0  0  0  0  0  0  0  0  0  0
    7.7331    0.2985    0.0000 C   0  0  0  0  0  0  0  0  0  0  0  0
    6.0010    0.2985    0.0000 C   0  0  0  0  0  0  0  0  0  0  0  0
    8.5991   -0.2015    0.0000 C   0  0  0  0  0  0  0  0  0  0  0  0
    5.1350   -0.2015    0.0000 C   0  0  0  0  0  0  0  0  0  0  0  0
    9.4651    0.2985    0.0000 C   0  0  0  0  0  0  0  0  0  0  0  0
    4.2690    0.2985    0.0000 C   0  0  0  0  0  0  0  0  0  0  0  0
    6.4685   -0.6764    0.0000 H   0  0  0  0  0  0  0  0  0  0  0  0
    7.2656   -0.6764    0.0000 H   0  0  0  0  0  0  0  0  0  0  0  0
    8.1316    0.7735    0.0000 H   0  0  0  0  0  0  0  0  0  0  0  0
    7.3346    0.7735    0.0000 H   0  0  0  0  0  0  0  0  0  0  0  0
    6.3996    0.7735    0.0000 H   0  0  0  0  0  0  0  0  0  0  0  0
    5.6025    0.7735    0.0000 H   0  0  0  0  0  0  0  0  0  0  0  0
    8.2006   -0.6764    0.0000 H   0  0  0  0  0  0  0  0  0  0  0  0
    8.9976   -0.6764    0.0000 H   0  0  0  0  0  0  0  0  0  0  0  0
    9.7751   -0.2384    0.0000 H   0  0  0  0  0  0  0  0  0  0  0  0
   10.0021    0.6085    0.0000 H   0  0  0  0  0  0  0  0  0  0  0  0
    9.1551    0.8355    0.0000 H   0  0  0  0  0  0  0  0  0  0  0  0
    4.2690    0.9185    0.0000 H   0  0  0  0  0  0  0  0  0  0  0  0
    2.0000   -0.3915    0.0000 H   0  0  0  0  0  0  0  0  0  0  0  0
    3.2130    1.2015    0.0000 H   0  0  0  0  0  0  0  0  0  0  0  0
  1  3  1  0  0  0  0
  1  4  1  0  0  0  0
  1  5  2  0  0  0  0
  1 12  1  0  0  0  0
  2 10  1  0  0  0  0
  3 25  1  0  0  0  0
  4 26  1  0  0  0  0
  6  7  1  0  0  0  0
  6  8  1  0  0  0  0
  6 13  1  0  0  0  0
  6 14  1  0  0  0  0
  7  9  1  0  0  0  0
  7 15  1  0  0  0  0
  7 16  1  0  0  0  0
  8 10  1  0  0  0  0
  8 17  1  0  0  0  0
  8 18  1  0  0  0  0
  9 11  1  0  0  0  0
  9 19  1  0  0  0  0
  9 20  1  0  0  0  0
 10 12  2  3  0  0  0
 11 21  1  0  0  0  0
 11 22  1  0  0  0  0
 11 23  1  0  0  0  0
 12 24  1  0  0  0  0
M  END
> <PUBCHEM_COMPOUND_CID>
9314

> <PUBCHEM_COMPOUND_CANONICALIZED>
1

> <PUBCHEM_CACTVS_COMPLEXITY>
197

> <PUBCHEM_CACTVS_HBOND_ACCEPTOR>
3

> <PUBCHEM_CACTVS_HBOND_DONOR>
2

> <PUBCHEM_CACTVS_ROTATABLE_BOND>
5

> <PUBCHEM_CACTVS_SUBSKEYS>
AAADccBgMAAEAAAAQAAAAAAAAAAAAAAAAAAAAAAAAAAAAAAAAAAAGAMACAAACAKAAAACAAAAAACAAABCAAAAAAAgAACAAAAAAggAAAIBAQAAAAAAgAAAAAEAAAAAAAAAAAAAAAAAAAAAAAAAAAAAAAAAAA==

> <PUBCHEM_IUPAC_OPENEYE_NAME>
2-chlorohept-1-enylarsonic acid

> <PUBCHEM_IUPAC_CAS_NAME>
2-chlorohept-1-enylarsonic acid

> <PUBCHEM_IUPAC_NAME>
2-chlorohept-1-enylarsonic acid

> <PUBCHEM_IUPAC_SYSTEMATIC_NAME>
2-chloranylhept-1-enylarsonic acid

> <PUBCHEM_IUPAC_TRADITIONAL_NAME>
2-chlorohept-1-enylarsonic acid

> <PUBCHEM_IUPAC_INCHI>
InChI=1S/C7H14AsClO3/c1-2-3-4-5-7(9)6-8(10,11)12/h6H,2-5H2,1H3,(H2,10,11,12)

> <PUBCHEM_IUPAC_INCHIKEY>
BVLOSGJWCPXUJT-UHFFFAOYSA-N

> <PUBCHEM_EXACT_MASS>
255.984743

> <PUBCHEM_MOLECULAR_FORMULA>
C7H14AsClO3

> <PUBCHEM_MOLECULAR_WEIGHT>
256.55886

> <PUBCHEM_OPENEYE_CAN_SMILES>
CCCCCC(=C[As](=O)(O)O)Cl

> <PUBCHEM_OPENEYE_ISO_SMILES>
CCCCCC(=C[As](=O)(O)O)Cl

> <PUBCHEM_CACTVS_TPSA>
57.5

> <PUBCHEM_MONOISOTOPIC_WEIGHT>
255.984743

> <PUBCHEM_TOTAL_CHARGE>
0

> <PUBCHEM_HEAVY_ATOM_COUNT>
12

> <PUBCHEM_ATOM_DEF_STEREO_COUNT>
0

> <PUBCHEM_ATOM_UDEF_STEREO_COUNT>
0

> <PUBCHEM_BOND_DEF_STEREO_COUNT>
0

> <PUBCHEM_BOND_UDEF_STEREO_COUNT>
1

> <PUBCHEM_ISOTOPIC_ATOM_COUNT>
0

> <PUBCHEM_COMPONENT_COUNT>
1

> <PUBCHEM_CACTVS_TAUTO_COUNT>
1

> <PUBCHEM_COORDINATE_TYPE>
1
5
255

> <PUBCHEM_BONDANNOTATIONS>
10  12  1

$$$$

