18772482
  -OEChem-07051213123D

 60 61  0     0  0  0  0  0  0999 V2000
   -0.8297   -1.0952   -0.4911 O   0  0  0  0  0  0  0  0  0  0  0  0
   -0.8979   -1.4252    1.8033 O   0  0  0  0  0  0  0  0  0  0  0  0
   -3.3389    0.0351   -1.4125 N   0  0  0  0  0  0  0  0  0  0  0  0
   -4.6181    0.3124   -1.1079 N   0  0  0  0  0  0  0  0  0  0  0  0
   -1.2768    3.6295    0.2549 N   0  0  0  0  0  0  0  0  0  0  0  0
    5.3127    0.4678   -0.0942 C   0  0  0  0  0  0  0  0  0  0  0  0
    3.8341    0.6631   -0.0982 C   0  0  0  0  0  0  0  0  0  0  0  0
    5.9161   -0.1177   -1.4140 C   0  0  0  0  0  0  0  0  0  0  0  0
    6.0610    1.8163    0.1417 C   0  0  0  0  0  0  0  0  0  0  0  0
    5.7502   -0.5166    1.0344 C   0  0  0  0  0  0  0  0  0  0  0  0
   -0.2122   -3.2470    0.3286 C   0  0  0  0  0  0  0  0  0  0  0  0
    3.1958    1.1805    1.0290 C   0  0  0  0  0  0  0  0  0  0  0  0
    3.0896    0.3280   -1.2291 C   0  0  0  0  0  0  0  0  0  0  0  0
    1.0684    1.0280   -0.1059 C   0  0  0  0  0  0  0  0  0  0  0  0
   -2.6815    0.3776   -0.3014 C   0  0  0  0  0  0  0  0  0  0  0  0
   -1.2628    0.2020   -0.2946 C   0  0  0  0  0  0  0  0  0  0  0  0
    1.8130    1.3631    1.0251 C   0  0  0  0  0  0  0  0  0  0  0  0
    1.7067    0.5104   -1.2330 C   0  0  0  0  0  0  0  0  0  0  0  0
   -0.3956    1.2205   -0.1098 C   0  0  0  0  0  0  0  0  0  0  0  0
   -0.6824   -1.8249    0.6646 C   0  0  0  0  0  0  0  0  0  0  0  0
    1.1377   -3.1813   -0.4046 C   0  0  0  0  0  0  0  0  0  0  0  0
   -1.2408   -3.9271   -0.5849 C   0  0  0  0  0  0  0  0  0  0  0  0
   -0.0353   -4.0478    1.6257 C   0  0  0  0  0  0  0  0  0  0  0  0
   -3.5343    0.8697    0.7048 C   0  0  0  0  0  0  0  0  0  0  0  0
   -4.7890    0.8149    0.1486 C   0  0  0  0  0  0  0  0  0  0  0  0
   -3.1522    1.3363    2.0498 C   0  0  0  0  0  0  0  0  0  0  0  0
   -2.9431   -0.5014   -2.6848 C   0  0  0  0  0  0  0  0  0  0  0  0
   -6.1111    1.1789    0.6639 C   0  0  0  0  0  0  0  0  0  0  0  0
   -0.8838    2.5498    0.0914 C   0  0  0  0  0  0  0  0  0  0  0  0
    7.0041   -0.2319   -1.3341 H   0  0  0  0  0  0  0  0  0  0  0  0
    5.5058   -1.1094   -1.6379 H   0  0  0  0  0  0  0  0  0  0  0  0
    5.7253    0.5407   -2.2696 H   0  0  0  0  0  0  0  0  0  0  0  0
    7.1483    1.6788    0.1163 H   0  0  0  0  0  0  0  0  0  0  0  0
    5.7962    2.5486   -0.6302 H   0  0  0  0  0  0  0  0  0  0  0  0
    5.8139    2.2569    1.1138 H   0  0  0  0  0  0  0  0  0  0  0  0
    5.2576   -1.4889    0.9152 H   0  0  0  0  0  0  0  0  0  0  0  0
    5.4951   -0.1370    2.0300 H   0  0  0  0  0  0  0  0  0  0  0  0
    6.8334   -0.6839    1.0200 H   0  0  0  0  0  0  0  0  0  0  0  0
    3.7508    1.4482    1.9235 H   0  0  0  0  0  0  0  0  0  0  0  0
    3.5340   -0.0767   -2.1315 H   0  0  0  0  0  0  0  0  0  0  0  0
    1.3327    1.7616    1.9156 H   0  0  0  0  0  0  0  0  0  0  0  0
    1.1448    0.2494   -2.1267 H   0  0  0  0  0  0  0  0  0  0  0  0
    1.5322   -4.1848   -0.6003 H   0  0  0  0  0  0  0  0  0  0  0  0
    1.8803   -2.6365    0.1896 H   0  0  0  0  0  0  0  0  0  0  0  0
    1.0523   -2.6671   -1.3684 H   0  0  0  0  0  0  0  0  0  0  0  0
   -0.9642   -4.9678   -0.7867 H   0  0  0  0  0  0  0  0  0  0  0  0
   -2.2347   -3.9256   -0.1226 H   0  0  0  0  0  0  0  0  0  0  0  0
   -1.3309   -3.4158   -1.5496 H   0  0  0  0  0  0  0  0  0  0  0  0
    0.3071   -5.0680    1.4194 H   0  0  0  0  0  0  0  0  0  0  0  0
   -0.9792   -4.1187    2.1784 H   0  0  0  0  0  0  0  0  0  0  0  0
    0.6987   -3.5757    2.2890 H   0  0  0  0  0  0  0  0  0  0  0  0
   -2.1443    1.0248    2.3369 H   0  0  0  0  0  0  0  0  0  0  0  0
   -3.8371    0.9280    2.8014 H   0  0  0  0  0  0  0  0  0  0  0  0
   -3.2082    2.4276    2.1108 H   0  0  0  0  0  0  0  0  0  0  0  0
   -2.8484   -1.5850   -2.5864 H   0  0  0  0  0  0  0  0  0  0  0  0
   -3.7076   -0.2592   -3.4275 H   0  0  0  0  0  0  0  0  0  0  0  0
   -1.9927   -0.0565   -2.9882 H   0  0  0  0  0  0  0  0  0  0  0  0
   -6.4663    0.4244    1.3728 H   0  0  0  0  0  0  0  0  0  0  0  0
   -6.8492    1.2613   -0.1406 H   0  0  0  0  0  0  0  0  0  0  0  0
   -6.0753    2.1429    1.1816 H   0  0  0  0  0  0  0  0  0  0  0  0
  1 16  1  0  0  0  0
  1 20  1  0  0  0  0
  2 20  2  0  0  0  0
  3  4  1  0  0  0  0
  3 15  1  0  0  0  0
  3 27  1  0  0  0  0
  4 25  2  0  0  0  0
  5 29  3  0  0  0  0
  6  7  1  0  0  0  0
  6  8  1  0  0  0  0
  6  9  1  0  0  0  0
  6 10  1  0  0  0  0
  7 12  2  0  0  0  0
  7 13  1  0  0  0  0
  8 30  1  0  0  0  0
  8 31  1  0  0  0  0
  8 32  1  0  0  0  0
  9 33  1  0  0  0  0
  9 34  1  0  0  0  0
  9 35  1  0  0  0  0
 10 36  1  0  0  0  0
 10 37  1  0  0  0  0
 10 38  1  0  0  0  0
 11 20  1  0  0  0  0
 11 21  1  0  0  0  0
 11 22  1  0  0  0  0
 11 23  1  0  0  0  0
 12 17  1  0  0  0  0
 12 39  1  0  0  0  0
 13 18  2  0  0  0  0
 13 40  1  0  0  0  0
 14 17  2  0  0  0  0
 14 18  1  0  0  0  0
 14 19  1  0  0  0  0
 15 16  1  0  0  0  0
 15 24  2  0  0  0  0
 16 19  2  0  0  0  0
 17 41  1  0  0  0  0
 18 42  1  0  0  0  0
 19 29  1  0  0  0  0
 21 43  1  0  0  0  0
 21 44  1  0  0  0  0
 21 45  1  0  0  0  0
 22 46  1  0  0  0  0
 22 47  1  0  0  0  0
 22 48  1  0  0  0  0
 23 49  1  0  0  0  0
 23 50  1  0  0  0  0
 23 51  1  0  0  0  0
 24 25  1  0  0  0  0
 24 26  1  0  0  0  0
 25 28  1  0  0  0  0
 26 52  1  0  0  0  0
 26 53  1  0  0  0  0
 26 54  1  0  0  0  0
 27 55  1  0  0  0  0
 27 56  1  0  0  0  0
 27 57  1  0  0  0  0
 28 58  1  0  0  0  0
 28 59  1  0  0  0  0
 28 60  1  0  0  0  0
M  END
> <PUBCHEM_COMPOUND_CID>
18772482

> <PUBCHEM_CONFORMER_RMSD>
0.8

> <PUBCHEM_CONFORMER_DIVERSEORDER>
1
9
6
16
18
17
8
13
5
11
10
14
12
2
7
15
3
4

> <PUBCHEM_MMFF94_PARTIAL_CHARGES>
27
1 -0.23
11 0.06
12 -0.15
13 -0.15
14 0.03
15 -0.2
16 0.12
17 -0.15
18 -0.15
19 0.04
2 -0.57
20 0.66
24 -0.18
25 0.11
26 0.18
27 0.26
28 0.18
29 0.49
3 0.31
39 0.15
4 -0.71
40 0.15
41 0.15
42 0.15
5 -0.56
6 0.14
7 -0.14

> <PUBCHEM_EFFECTIVE_ROTOR_COUNT>
6

> <PUBCHEM_PHARMACOPHORE_FEATURES>
7
1 2 acceptor
1 4 acceptor
1 5 acceptor
4 11 21 22 23 hydrophobe
4 6 8 9 10 hydrophobe
5 3 4 15 24 25 rings
6 7 12 13 14 17 18 rings

> <PUBCHEM_HEAVY_ATOM_COUNT>
29

> <PUBCHEM_ATOM_DEF_STEREO_COUNT>
0

> <PUBCHEM_ATOM_UDEF_STEREO_COUNT>
0

> <PUBCHEM_BOND_DEF_STEREO_COUNT>
1

> <PUBCHEM_BOND_UDEF_STEREO_COUNT>
0

> <PUBCHEM_ISOTOPIC_ATOM_COUNT>
0

> <PUBCHEM_COMPONENT_COUNT>
1

> <PUBCHEM_CACTVS_TAUTO_COUNT>
1

> <PUBCHEM_CONFORMER_ID>
011E720200000001

> <PUBCHEM_MMFF94_ENERGY>
99.3247

> <PUBCHEM_FEATURE_SELFOVERLAP>
35.52

> <PUBCHEM_SHAPE_FINGERPRINT>
10006869 2 17901103346142234585
10366900 7 18113901529464357024
107951 10 17418371385596974930
10906281 52 18188193322181548636
1100329 8 18339078168620461721
11036077 3 18410851075241047571
11445158 3 17774144701177045053
11578080 2 18046626699111518872
12633257 1 18408329874089076296
12643181 29 18411132538303852694
12788726 201 18259982708560299968
13140716 1 18267862783436044216
133893 2 17628644355392003803
13533116 47 18340490066890217026
13617811 41 18271791454409594172
13726171 33 17909796913983919020
13911987 19 18272660038662309997
144659 39 17773575158247876532
14790565 3 18337951311094284808
14866123 147 18268991990521095771
15361156 5 18114733846934650644
15420108 30 17244968678143645129
15664445 248 17393311531267215695
15927050 60 18409729568938893831
17349148 13 18413673513237153652
20028762 73 18117551822233102855
20600515 1 18336535019953759124
21033648 144 18194694674497262220
21033650 10 17606367022049512964
21421861 104 18123469651009820345
21781051 124 17986929947499178051
22956985 138 17628358478064116739
23402539 116 18334299751173511124
23559900 14 18336546011518510492
249057 3 18201431460045312124
266924 87 18196097861492068669
283562 15 18337390542979221969
3178227 256 18340473505406952217
340366 18 17917140599157983540
34934 24 18188492484165698773
38695281 34 18337677515824846703
4015057 19 17896326822559187192
404807 14 15002147502048153894
4073 2 18262520270144372480
44802255 64 17346607361348123366
469060 322 18270383001969654329
5265222 85 18270667664006257644
5385378 56 18269548502523495683
7226269 152 18408605859586145700
81228 2 17552365371575612835

> <PUBCHEM_SHAPE_MULTIPOLES>
570.12
11.64
3.85
1.67
8.96
4.61
0.32
-6.39
0.54
-1.14
-1.17
-0.83
0.39
-0.5

> <PUBCHEM_SHAPE_SELFOVERLAP>
1203.17

> <PUBCHEM_SHAPE_VOLUME>
323.5

> <PUBCHEM_COORDINATE_TYPE>
2
5
10

$$$$

