9847
  -OEChem-06261204073D

 12 11  0     0  0  0  0  0  0999 V2000
   -2.4268   -0.5769    0.0013 F   0  0  0  0  0  0  0  0  0  0  0  0
    2.4268    0.5769    0.0013 F   0  0  0  0  0  0  0  0  0  0  0  0
   -0.3502    0.5716   -0.0005 C   0  0  0  0  0  0  0  0  0  0  0  0
    0.3502   -0.5716   -0.0007 C   0  0  0  0  0  0  0  0  0  0  0  0
   -1.8416    0.6516   -0.0008 C   0  0  0  0  0  0  0  0  0  0  0  0
    1.8416   -0.6516   -0.0006 C   0  0  0  0  0  0  0  0  0  0  0  0
    0.1774    1.5218   -0.0002 H   0  0  0  0  0  0  0  0  0  0  0  0
   -0.1774   -1.5218   -0.0011 H   0  0  0  0  0  0  0  0  0  0  0  0
   -2.1902    1.1844   -0.8900 H   0  0  0  0  0  0  0  0  0  0  0  0
   -2.1903    1.1872    0.8868 H   0  0  0  0  0  0  0  0  0  0  0  0
    2.1905   -1.1846   -0.8898 H   0  0  0  0  0  0  0  0  0  0  0  0
    2.1901   -1.1870    0.8872 H   0  0  0  0  0  0  0  0  0  0  0  0
  1  5  1  0  0  0  0
  2  6  1  0  0  0  0
  3  4  2  0  0  0  0
  3  5  1  0  0  0  0
  3  7  1  0  0  0  0
  4  6  1  0  0  0  0
  4  8  1  0  0  0  0
  5  9  1  0  0  0  0
  5 10  1  0  0  0  0
  6 11  1  0  0  0  0
  6 12  1  0  0  0  0
M  END
> <PUBCHEM_COMPOUND_CID>
9847

> <PUBCHEM_CONFORMER_RMSD>
0.4

> <PUBCHEM_CONFORMER_DIVERSEORDER>
1
4
3
2

> <PUBCHEM_MMFF94_PARTIAL_CHARGES>
8
1 -0.34
2 -0.34
3 -0.29
4 -0.29
5 0.48
6 0.48
7 0.15
8 0.15

> <PUBCHEM_EFFECTIVE_ROTOR_COUNT>
2

> <PUBCHEM_PHARMACOPHORE_FEATURES>
0

> <PUBCHEM_HEAVY_ATOM_COUNT>
6

> <PUBCHEM_ATOM_DEF_STEREO_COUNT>
0

> <PUBCHEM_ATOM_UDEF_STEREO_COUNT>
0

> <PUBCHEM_BOND_DEF_STEREO_COUNT>
0

> <PUBCHEM_BOND_UDEF_STEREO_COUNT>
1

> <PUBCHEM_ISOTOPIC_ATOM_COUNT>
0

> <PUBCHEM_COMPONENT_COUNT>
1

> <PUBCHEM_CACTVS_TAUTO_COUNT>
1

> <PUBCHEM_CONFORMER_ID>
0000267700000001

> <PUBCHEM_MMFF94_ENERGY>
-2.6194

> <PUBCHEM_FEATURE_SELFOVERLAP>
0

> <PUBCHEM_SHAPE_FINGERPRINT>
139733 1 9223225248042376001
14390081 3 18334298677489572816
16714656 1 18187083940380790079
20096714 4 18409449206621501872
24536 1 17898018068430394576
29004967 10 18410007749600815571
5460574 1 9223229645804011520

> <PUBCHEM_SHAPE_MULTIPOLES>
108.93
3.36
0.93
0.58
0
0
0
0
0
0
0
0
0
0

> <PUBCHEM_SHAPE_SELFOVERLAP>
193.539

> <PUBCHEM_SHAPE_VOLUME>
70.4

> <PUBCHEM_COORDINATE_TYPE>
2
5
10

$$$$

