9064
  -OEChem-07051212513D

 35 37  0     1  0  0  0  0  0999 V2000
    0.4056    0.6852   -0.3567 O   0  0  0  0  0  0  0  0  0  0  0  0
   -0.6774   -2.8272    0.0639 O   0  0  0  0  0  0  0  0  0  0  0  0
    4.3934   -1.9411    0.4537 O   0  0  0  0  0  0  0  0  0  0  0  0
    4.6486    2.7719   -0.1473 O   0  0  0  0  0  0  0  0  0  0  0  0
   -4.1299    0.9790    2.1223 O   0  0  0  0  0  0  0  0  0  0  0  0
   -5.8277    0.7778   -0.0685 O   0  0  0  0  0  0  0  0  0  0  0  0
    0.0772   -1.6546    0.3517 C   0  0  2  0  0  0  0  0  0  0  0  0
   -0.3381   -0.5205   -0.5960 C   0  0  1  0  0  0  0  0  0  0  0  0
    1.5584   -1.9631    0.1509 C   0  0  0  0  0  0  0  0  0  0  0  0
    2.3661   -0.7033    0.0709 C   0  0  0  0  0  0  0  0  0  0  0  0
    1.7552    0.5287   -0.1865 C   0  0  0  0  0  0  0  0  0  0  0  0
   -1.8080   -0.1719   -0.4515 C   0  0  0  0  0  0  0  0  0  0  0  0
    3.7578   -0.7555    0.2274 C   0  0  0  0  0  0  0  0  0  0  0  0
    2.5213    1.6960   -0.2476 C   0  0  0  0  0  0  0  0  0  0  0  0
   -2.3033    0.2482    0.7808 C   0  0  0  0  0  0  0  0  0  0  0  0
   -2.6566   -0.2741   -1.5515 C   0  0  0  0  0  0  0  0  0  0  0  0
    4.5224    0.4089    0.1541 C   0  0  0  0  0  0  0  0  0  0  0  0
    3.9038    1.6348   -0.0794 C   0  0  0  0  0  0  0  0  0  0  0  0
   -3.6545    0.5681    0.9138 C   0  0  0  0  0  0  0  0  0  0  0  0
   -4.0077    0.0457   -1.4185 C   0  0  0  0  0  0  0  0  0  0  0  0
   -4.5067    0.4668   -0.1860 C   0  0  0  0  0  0  0  0  0  0  0  0
   -0.0919   -1.3767    1.3993 H   0  0  0  0  0  0  0  0  0  0  0  0
   -0.1546   -0.8269   -1.6358 H   0  0  0  0  0  0  0  0  0  0  0  0
    1.7034   -2.5410   -0.7711 H   0  0  0  0  0  0  0  0  0  0  0  0
    1.8997   -2.5978    0.9780 H   0  0  0  0  0  0  0  0  0  0  0  0
    2.0345    2.6508   -0.4329 H   0  0  0  0  0  0  0  0  0  0  0  0
   -1.6415    0.3400    1.6382 H   0  0  0  0  0  0  0  0  0  0  0  0
   -0.3756   -3.5253    0.6699 H   0  0  0  0  0  0  0  0  0  0  0  0
   -2.2827   -0.6009   -2.5179 H   0  0  0  0  0  0  0  0  0  0  0  0
    5.6018    0.3689    0.2791 H   0  0  0  0  0  0  0  0  0  0  0  0
   -4.6605   -0.0374   -2.2834 H   0  0  0  0  0  0  0  0  0  0  0  0
    5.3492   -1.7810    0.5349 H   0  0  0  0  0  0  0  0  0  0  0  0
    4.0583    3.5263   -0.3156 H   0  0  0  0  0  0  0  0  0  0  0  0
   -3.3995    0.9880    2.7646 H   0  0  0  0  0  0  0  0  0  0  0  0
   -6.2610    0.6492   -0.9297 H   0  0  0  0  0  0  0  0  0  0  0  0
  1  8  1  0  0  0  0
  1 11  1  0  0  0  0
  2  7  1  0  0  0  0
  2 28  1  0  0  0  0
  3 13  1  0  0  0  0
  3 32  1  0  0  0  0
  4 18  1  0  0  0  0
  4 33  1  0  0  0  0
  5 19  1  0  0  0  0
  5 34  1  0  0  0  0
  6 21  1  0  0  0  0
  6 35  1  0  0  0  0
  7  8  1  0  0  0  0
  7  9  1  0  0  0  0
  7 22  1  0  0  0  0
  8 12  1  0  0  0  0
  8 23  1  0  0  0  0
  9 10  1  0  0  0  0
  9 24  1  0  0  0  0
  9 25  1  0  0  0  0
 10 11  1  0  0  0  0
 10 13  2  0  0  0  0
 11 14  2  0  0  0  0
 12 15  2  0  0  0  0
 12 16  1  0  0  0  0
 13 17  1  0  0  0  0
 14 18  1  0  0  0  0
 14 26  1  0  0  0  0
 15 19  1  0  0  0  0
 15 27  1  0  0  0  0
 16 20  2  0  0  0  0
 16 29  1  0  0  0  0
 17 18  2  0  0  0  0
 17 30  1  0  0  0  0
 19 21  2  0  0  0  0
 20 21  1  0  0  0  0
 20 31  1  0  0  0  0
M  END
> <PUBCHEM_COMPOUND_CID>
9064

> <PUBCHEM_CONFORMER_RMSD>
0.6

> <PUBCHEM_CONFORMER_DIVERSEORDER>
1
3
7
11
10
12
5
9
4
8
6
2

> <PUBCHEM_MMFF94_PARTIAL_CHARGES>
31
1 -0.36
10 -0.14
11 0.08
12 -0.14
13 0.08
14 -0.15
15 -0.15
16 -0.15
17 -0.15
18 0.08
19 0.08
2 -0.68
20 -0.15
21 0.08
26 0.15
27 0.15
28 0.4
29 0.15
3 -0.53
30 0.15
31 0.15
32 0.45
33 0.45
34 0.45
35 0.45
4 -0.53
5 -0.53
6 -0.53
7 0.28
8 0.42
9 0.14

> <PUBCHEM_EFFECTIVE_ROTOR_COUNT>
1.8

> <PUBCHEM_PHARMACOPHORE_FEATURES>
10
1 1 acceptor
1 2 acceptor
1 2 donor
1 3 donor
1 4 donor
1 5 donor
1 6 donor
6 1 7 8 9 10 11 rings
6 10 11 13 14 17 18 rings
6 12 15 16 19 20 21 rings

> <PUBCHEM_HEAVY_ATOM_COUNT>
21

> <PUBCHEM_ATOM_DEF_STEREO_COUNT>
2

> <PUBCHEM_ATOM_UDEF_STEREO_COUNT>
0

> <PUBCHEM_BOND_DEF_STEREO_COUNT>
0

> <PUBCHEM_BOND_UDEF_STEREO_COUNT>
0

> <PUBCHEM_ISOTOPIC_ATOM_COUNT>
0

> <PUBCHEM_COMPONENT_COUNT>
1

> <PUBCHEM_CACTVS_TAUTO_COUNT>
90

> <PUBCHEM_CONFORMER_ID>
0000236800000001

> <PUBCHEM_MMFF94_ENERGY>
60.472

> <PUBCHEM_FEATURE_SELFOVERLAP>
50.777

> <PUBCHEM_SHAPE_FINGERPRINT>
10411042 1 17763468709412216154
11045977 3 17917985092364603739
11089746 13 17822011961488447776
11471102 20 18413394250168340270
12107183 9 17612867514906335651
12236239 1 18040721389698783439
12390115 104 17980750546818579436
12403259 415 17846224387972446069
12616971 3 18261682544629837023
12633257 1 18342188747809276274
12644460 14 18201725063561013826
12916748 109 16660082209274569955
13140716 1 18343304730542076850
13583140 156 15840732698070170092
13675066 3 17561363971988997748
14386348 63 17275100669711117099
14739800 52 17314248691351122416
14848178 96 18191311464254526512
15196674 1 18340489980189310134
15342168 16 18341890749508043133
15475509 35 16199883868258668768
15475509 8 17826207848230986102
16988056 13 14578523423193385097
1813 80 17682953650221014510
18186145 218 18410573989826324318
200 152 18335147501056669887
204376 136 18341612590235496095
20612939 158 18410013247517748092
20645477 70 18271252702480902126
20739085 24 18199734981553211244
21033648 144 18339372863880751156
21033648 29 17632028501864003717
21033650 10 16516224306808824920
21065201 7 15626226865635865979
22854114 59 18273495676052099125
23184049 59 18343863324939243228
23366157 5 17243560173804733055
23402539 116 16805617979279630581
23559900 14 18335425647718945810
25147074 1 18266757800526471702
335352 9 18412265026494894006
34797466 226 14924230373979915273
4340502 62 18341883113905464819
474 4 18407759239748013611
5104073 3 18199759046634168824
5283173 99 6555148098798965467
602551 16 15625931024009387992
6034566 193 17627216867646732156
633830 44 18260257577291278967
77492 1 17967821582517698087
8272917 22 18336547217338652150
90127 26 17917434258466503421
9971528 1 18114185285110789470
9981440 41 17103716252825554264
9999458 23 18059857290037390174

> <PUBCHEM_SHAPE_MULTIPOLES>
396.95
10.9
2.14
1.12
3.44
0.43
0.14
-4.68
0.8
-2.76
0.16
1.66
-0.16
-0.85

> <PUBCHEM_SHAPE_SELFOVERLAP>
876.144

> <PUBCHEM_SHAPE_VOLUME>
212.2

> <PUBCHEM_COORDINATE_TYPE>
2
5
10

$$$$

