586249
  -OEChem-06241222463D

 45 45  0     0  0  0  0  0  0999 V2000
    5.4773    0.7049    1.5730 O   0  0  0  0  0  0  0  0  0  0  0  0
   -2.4737   -1.0899    0.1196 C   0  0  0  0  0  0  0  0  0  0  0  0
   -3.9766   -0.7623    0.3241 C   0  0  0  0  0  0  0  0  0  0  0  0
   -1.6863    0.1427   -0.3715 C   0  0  0  0  0  0  0  0  0  0  0  0
   -4.1800    0.5494    1.0642 C   0  0  0  0  0  0  0  0  0  0  0  0
   -2.2041    1.3946   -0.3182 C   0  0  0  0  0  0  0  0  0  0  0  0
   -3.5605    1.6979    0.2803 C   0  0  0  0  0  0  0  0  0  0  0  0
   -0.2967   -0.1278   -0.9055 C   0  0  0  0  0  0  0  0  0  0  0  0
   -2.4053   -2.2454   -0.9031 C   0  0  0  0  0  0  0  0  0  0  0  0
   -1.8768   -1.5829    1.4565 C   0  0  0  0  0  0  0  0  0  0  0  0
    0.7767   -0.0501    0.1750 C   0  0  0  0  0  0  0  0  0  0  0  0
   -1.5202    2.6248   -0.8612 C   0  0  0  0  0  0  0  0  0  0  0  0
    2.1847   -0.3105   -0.3196 C   0  0  0  0  0  0  0  0  0  0  0  0
    3.2042    0.5669   -0.2358 C   0  0  0  0  0  0  0  0  0  0  0  0
    2.4214   -1.6836   -0.8955 C   0  0  0  0  0  0  0  0  0  0  0  0
    4.6349    0.3697   -0.6576 C   0  0  0  0  0  0  0  0  0  0  0  0
    5.4811   -0.1983    0.4753 C   0  0  0  0  0  0  0  0  0  0  0  0
   -4.4784   -1.5710    0.8702 H   0  0  0  0  0  0  0  0  0  0  0  0
   -4.4799   -0.6944   -0.6507 H   0  0  0  0  0  0  0  0  0  0  0  0
   -3.7340    0.4944    2.0642 H   0  0  0  0  0  0  0  0  0  0  0  0
   -5.2501    0.7379    1.2089 H   0  0  0  0  0  0  0  0  0  0  0  0
   -3.4887    2.5653    0.9477 H   0  0  0  0  0  0  0  0  0  0  0  0
   -4.2371    1.9808   -0.5364 H   0  0  0  0  0  0  0  0  0  0  0  0
   -0.2505   -1.0971   -1.4065 H   0  0  0  0  0  0  0  0  0  0  0  0
   -0.0511    0.5669   -1.7172 H   0  0  0  0  0  0  0  0  0  0  0  0
   -2.6434   -1.8989   -1.9154 H   0  0  0  0  0  0  0  0  0  0  0  0
   -1.4258   -2.7343   -0.9274 H   0  0  0  0  0  0  0  0  0  0  0  0
   -3.1273   -3.0309   -0.6475 H   0  0  0  0  0  0  0  0  0  0  0  0
   -0.9442   -2.1361    1.3094 H   0  0  0  0  0  0  0  0  0  0  0  0
   -1.6830   -0.7579    2.1507 H   0  0  0  0  0  0  0  0  0  0  0  0
   -2.5611   -2.2785    1.9569 H   0  0  0  0  0  0  0  0  0  0  0  0
    0.5893   -0.7588    0.9846 H   0  0  0  0  0  0  0  0  0  0  0  0
    0.7389    0.9427    0.6432 H   0  0  0  0  0  0  0  0  0  0  0  0
   -1.5286    3.4205   -0.1076 H   0  0  0  0  0  0  0  0  0  0  0  0
   -2.0534    2.9878   -1.7459 H   0  0  0  0  0  0  0  0  0  0  0  0
   -0.4736    2.4807   -1.1335 H   0  0  0  0  0  0  0  0  0  0  0  0
    2.9934    1.5388    0.2091 H   0  0  0  0  0  0  0  0  0  0  0  0
    3.4739   -1.9741   -0.9362 H   0  0  0  0  0  0  0  0  0  0  0  0
    2.0148   -1.7448   -1.9100 H   0  0  0  0  0  0  0  0  0  0  0  0
    1.9212   -2.4399   -0.2800 H   0  0  0  0  0  0  0  0  0  0  0  0
    4.7070   -0.2687   -1.5441 H   0  0  0  0  0  0  0  0  0  0  0  0
    5.0287    1.3502   -0.9533 H   0  0  0  0  0  0  0  0  0  0  0  0
    5.1187   -1.1733    0.8173 H   0  0  0  0  0  0  0  0  0  0  0  0
    6.5170   -0.3183    0.1437 H   0  0  0  0  0  0  0  0  0  0  0  0
    4.5985    0.6678    1.9870 H   0  0  0  0  0  0  0  0  0  0  0  0
  1 17  1  0  0  0  0
  1 45  1  0  0  0  0
  2  3  1  0  0  0  0
  2  4  1  0  0  0  0
  2  9  1  0  0  0  0
  2 10  1  0  0  0  0
  3  5  1  0  0  0  0
  3 18  1  0  0  0  0
  3 19  1  0  0  0  0
  4  6  2  0  0  0  0
  4  8  1  0  0  0  0
  5  7  1  0  0  0  0
  5 20  1  0  0  0  0
  5 21  1  0  0  0  0
  6  7  1  0  0  0  0
  6 12  1  0  0  0  0
  7 22  1  0  0  0  0
  7 23  1  0  0  0  0
  8 11  1  0  0  0  0
  8 24  1  0  0  0  0
  8 25  1  0  0  0  0
  9 26  1  0  0  0  0
  9 27  1  0  0  0  0
  9 28  1  0  0  0  0
 10 29  1  0  0  0  0
 10 30  1  0  0  0  0
 10 31  1  0  0  0  0
 11 13  1  0  0  0  0
 11 32  1  0  0  0  0
 11 33  1  0  0  0  0
 12 34  1  0  0  0  0
 12 35  1  0  0  0  0
 12 36  1  0  0  0  0
 13 14  2  0  0  0  0
 13 15  1  0  0  0  0
 14 16  1  0  0  0  0
 14 37  1  0  0  0  0
 15 38  1  0  0  0  0
 15 39  1  0  0  0  0
 15 40  1  0  0  0  0
 16 17  1  0  0  0  0
 16 41  1  0  0  0  0
 16 42  1  0  0  0  0
 17 43  1  0  0  0  0
 17 44  1  0  0  0  0
M  END
> <PUBCHEM_COMPOUND_CID>
586249

> <PUBCHEM_CONFORMER_RMSD>
0.8

> <PUBCHEM_CONFORMER_DIVERSEORDER>
4
20
33
12
5
9
14
23
25
6
35
22
19
27
2
31
15
34
11
26
21
24
29
17
36
18
32
28
1
13
7
30
16
10
8
3

> <PUBCHEM_MMFF94_PARTIAL_CHARGES>
15
1 -0.68
11 0.14
12 0.14
13 -0.28
14 -0.29
15 0.14
16 0.14
17 0.28
2 0.14
37 0.15
4 -0.28
45 0.4
6 -0.28
7 0.14
8 0.14

> <PUBCHEM_EFFECTIVE_ROTOR_COUNT>
5.8

> <PUBCHEM_PHARMACOPHORE_FEATURES>
5
1 1 acceptor
1 1 donor
1 15 hydrophobe
3 2 9 10 hydrophobe
6 2 3 4 5 6 7 rings

> <PUBCHEM_HEAVY_ATOM_COUNT>
17

> <PUBCHEM_ATOM_DEF_STEREO_COUNT>
0

> <PUBCHEM_ATOM_UDEF_STEREO_COUNT>
0

> <PUBCHEM_BOND_DEF_STEREO_COUNT>
0

> <PUBCHEM_BOND_UDEF_STEREO_COUNT>
1

> <PUBCHEM_ISOTOPIC_ATOM_COUNT>
0

> <PUBCHEM_COMPONENT_COUNT>
1

> <PUBCHEM_CACTVS_TAUTO_COUNT>
1

> <PUBCHEM_CONFORMER_ID>
0008F20900000004

> <PUBCHEM_MMFF94_ENERGY>
29.0244

> <PUBCHEM_FEATURE_SELFOVERLAP>
25.371

> <PUBCHEM_SHAPE_FINGERPRINT>
10366900 7 18410856525496387586
10680689 15 18335135376168983358
11132069 177 18412255168832896925
11315181 36 17846498102386285948
12236239 1 16917064451911180833
12633257 1 18343016683885555904
12670546 177 8142082087669718162
13167823 11 18060140964163703730
13214271 11 18334296461238728717
13675066 3 18259706697023952406
15219456 202 18261384611069546223
15375358 24 18186799205666404558
17834072 33 7565337635533201394
1813 80 16558741356503714574
19050596 39 18201434762183871012
200 152 13758070783813218709
20510252 161 18339072817486804409
20645477 56 18335419101265445388
20645477 70 17168418393847713646
21637258 2 15625644017969504881
21650355 55 18272927190165531501
2297311 6 18339344336628823700
23402539 116 18202007611609661239
23557571 272 18336812182893580908
23559900 14 18267011937846303310
3009799 131 18341621400189139335
3545911 37 18261386789060868860
4214541 1 18410853295818131084
5104073 3 18336539537989978731
573450 72 18131359609159421882
5924683 9 18188498973128241959
9709674 26 18339912792445942830

> <PUBCHEM_SHAPE_MULTIPOLES>
343.98
10.53
2.12
1.18
14.71
0.29
0.26
1.28
3.36
-2.13
-0.47
0.26
-0.16
0.43

> <PUBCHEM_SHAPE_SELFOVERLAP>
673.181

> <PUBCHEM_SHAPE_VOLUME>
207.1

> <PUBCHEM_COORDINATE_TYPE>
2
5
10

$$$$

