53297390
  -OEChem-07051213123D

 47 50  0     1  0  0  0  0  0999 V2000
   -4.3696   -0.4365   -1.2018 O   0  0  0  0  0  0  0  0  0  0  0  0
   -2.0430   -3.5323    0.6188 O   0  0  0  0  0  0  0  0  0  0  0  0
   -3.2557    1.7519   -1.3458 O   0  0  0  0  0  0  0  0  0  0  0  0
    0.2339   -2.9384   -0.4820 O   0  0  0  0  0  0  0  0  0  0  0  0
   -3.6113    2.8993    0.6274 O   0  0  0  0  0  0  0  0  0  0  0  0
    2.6594   -2.3085   -0.5329 O   0  0  0  0  0  0  0  0  0  0  0  0
    1.5623    2.7486    0.7937 O   0  0  0  0  0  0  0  0  0  0  0  0
    5.1749   -1.8263   -0.6408 O   0  0  0  0  0  0  0  0  0  0  0  0
   -4.1799   -0.4664    0.2165 C   0  0  2  0  0  0  0  0  0  0  0  0
   -3.0891    0.5430    0.6562 C   0  0  1  0  0  0  0  0  0  0  0  0
   -3.7733   -1.8837    0.6325 C   0  0  0  0  0  0  0  0  0  0  0  0
   -2.4517   -2.3148   -0.0057 C   0  0  1  0  0  0  0  0  0  0  0  0
   -1.6614    0.0718    0.4165 C   0  0  0  0  0  0  0  0  0  0  0  0
   -1.3632   -1.2735    0.1245 C   0  0  0  0  0  0  0  0  0  0  0  0
   -5.5372   -0.1212    0.8425 C   0  0  0  0  0  0  0  0  0  0  0  0
   -0.5998    0.9881    0.5565 C   0  0  0  0  0  0  0  0  0  0  0  0
   -0.0255   -1.6490   -0.1042 C   0  0  0  0  0  0  0  0  0  0  0  0
   -3.3524    1.8760    0.0086 C   0  0  0  0  0  0  0  0  0  0  0  0
    0.7283    0.5968    0.3501 C   0  0  0  0  0  0  0  0  0  0  0  0
    1.0146   -0.7206    0.0098 C   0  0  0  0  0  0  0  0  0  0  0  0
    2.4086   -1.1499   -0.2253 C   0  0  0  0  0  0  0  0  0  0  0  0
    1.8143    1.5888    0.4917 C   0  0  0  0  0  0  0  0  0  0  0  0
    3.4963   -0.1606   -0.0841 C   0  0  0  0  0  0  0  0  0  0  0  0
    3.2095    1.1612    0.2627 C   0  0  0  0  0  0  0  0  0  0  0  0
    4.8225   -0.5540   -0.2995 C   0  0  0  0  0  0  0  0  0  0  0  0
    4.2487    2.0900    0.3940 C   0  0  0  0  0  0  0  0  0  0  0  0
   -3.4842    2.9521   -2.0911 C   0  0  0  0  0  0  0  0  0  0  0  0
    5.8551    0.3746   -0.1673 C   0  0  0  0  0  0  0  0  0  0  0  0
    5.5690    1.6937    0.1787 C   0  0  0  0  0  0  0  0  0  0  0  0
   -3.1708    0.6834    1.7439 H   0  0  0  0  0  0  0  0  0  0  0  0
   -3.6979   -1.9500    1.7270 H   0  0  0  0  0  0  0  0  0  0  0  0
   -4.5455   -2.6078    0.3398 H   0  0  0  0  0  0  0  0  0  0  0  0
   -2.6014   -2.5174   -1.0735 H   0  0  0  0  0  0  0  0  0  0  0  0
   -5.8853    0.8694    0.5295 H   0  0  0  0  0  0  0  0  0  0  0  0
   -5.4933   -0.1402    1.9364 H   0  0  0  0  0  0  0  0  0  0  0  0
   -6.3064   -0.8313    0.5166 H   0  0  0  0  0  0  0  0  0  0  0  0
   -0.8203    2.0178    0.8299 H   0  0  0  0  0  0  0  0  0  0  0  0
   -4.8264    0.3876   -1.4394 H   0  0  0  0  0  0  0  0  0  0  0  0
   -2.7439   -4.1891    0.4671 H   0  0  0  0  0  0  0  0  0  0  0  0
    1.1070   -3.0065   -0.8967 H   0  0  0  0  0  0  0  0  0  0  0  0
    4.0517    3.1243    0.6627 H   0  0  0  0  0  0  0  0  0  0  0  0
   -3.3791    2.7171   -3.1536 H   0  0  0  0  0  0  0  0  0  0  0  0
   -2.7424    3.7105   -1.8235 H   0  0  0  0  0  0  0  0  0  0  0  0
   -4.4983    3.3214   -1.9115 H   0  0  0  0  0  0  0  0  0  0  0  0
    6.8873    0.0770   -0.3328 H   0  0  0  0  0  0  0  0  0  0  0  0
    6.3749    2.4148    0.2808 H   0  0  0  0  0  0  0  0  0  0  0  0
    4.3927   -2.3938   -0.7068 H   0  0  0  0  0  0  0  0  0  0  0  0
  1  9  1  0  0  0  0
  1 38  1  0  0  0  0
  2 12  1  0  0  0  0
  2 39  1  0  0  0  0
  3 18  1  0  0  0  0
  3 27  1  0  0  0  0
  4 17  1  0  0  0  0
  4 40  1  0  0  0  0
  5 18  2  0  0  0  0
  6 21  2  0  0  0  0
  7 22  2  0  0  0  0
  8 25  1  0  0  0  0
  8 47  1  0  0  0  0
  9 10  1  0  0  0  0
  9 11  1  0  0  0  0
  9 15  1  0  0  0  0
 10 13  1  0  0  0  0
 10 18  1  0  0  0  0
 10 30  1  0  0  0  0
 11 12  1  0  0  0  0
 11 31  1  0  0  0  0
 11 32  1  0  0  0  0
 12 14  1  0  0  0  0
 12 33  1  0  0  0  0
 13 14  1  0  0  0  0
 13 16  2  0  0  0  0
 14 17  2  0  0  0  0
 15 34  1  0  0  0  0
 15 35  1  0  0  0  0
 15 36  1  0  0  0  0
 16 19  1  0  0  0  0
 16 37  1  0  0  0  0
 17 20  1  0  0  0  0
 19 20  2  0  0  0  0
 19 22  1  0  0  0  0
 20 21  1  0  0  0  0
 21 23  1  0  0  0  0
 22 24  1  0  0  0  0
 23 24  2  0  0  0  0
 23 25  1  0  0  0  0
 24 26  1  0  0  0  0
 25 28  2  0  0  0  0
 26 29  2  0  0  0  0
 26 41  1  0  0  0  0
 27 42  1  0  0  0  0
 27 43  1  0  0  0  0
 27 44  1  0  0  0  0
 28 29  1  0  0  0  0
 28 45  1  0  0  0  0
 29 46  1  0  0  0  0
M  END
> <PUBCHEM_COMPOUND_CID>
53297390

> <PUBCHEM_CONFORMER_RMSD>
0.8

> <PUBCHEM_CONFORMER_DIVERSEORDER>
1
3
2

> <PUBCHEM_MMFF94_PARTIAL_CHARGES>
35
1 -0.68
10 0.2
12 0.42
13 -0.14
14 -0.14
16 -0.15
17 0.08
18 0.66
19 0.09
2 -0.68
20 0.09
21 0.4
22 0.4
23 0.09
24 0.09
25 0.08
26 -0.15
27 0.28
28 -0.15
29 -0.15
3 -0.43
37 0.15
38 0.4
39 0.4
4 -0.53
40 0.45
41 0.15
45 0.15
46 0.15
47 0.45
5 -0.57
6 -0.57
7 -0.57
8 -0.53
9 0.28

> <PUBCHEM_EFFECTIVE_ROTOR_COUNT>
2.8

> <PUBCHEM_PHARMACOPHORE_FEATURES>
13
1 1 acceptor
1 1 donor
1 2 acceptor
1 2 donor
1 4 donor
1 5 acceptor
1 6 acceptor
1 7 acceptor
1 8 donor
6 13 14 16 17 19 20 rings
6 19 20 21 22 23 24 rings
6 23 24 25 26 28 29 rings
6 9 10 11 12 13 14 rings

> <PUBCHEM_HEAVY_ATOM_COUNT>
29

> <PUBCHEM_ATOM_DEF_STEREO_COUNT>
3

> <PUBCHEM_ATOM_UDEF_STEREO_COUNT>
0

> <PUBCHEM_BOND_DEF_STEREO_COUNT>
0

> <PUBCHEM_BOND_UDEF_STEREO_COUNT>
0

> <PUBCHEM_ISOTOPIC_ATOM_COUNT>
0

> <PUBCHEM_COMPONENT_COUNT>
1

> <PUBCHEM_CACTVS_TAUTO_COUNT>
81

> <PUBCHEM_CONFORMER_ID>
032D40EE00000001

> <PUBCHEM_MMFF94_ENERGY>
97.0581

> <PUBCHEM_FEATURE_SELFOVERLAP>
66.039

> <PUBCHEM_SHAPE_FINGERPRINT>
10411042 1 17617376186901839971
10675989 125 17261045835775478165
11112241 14 16300657227037880992
11578080 2 17130444573158987775
11595378 159 17418107515221425672
12107183 9 17981330298340723658
12236239 1 17385437726504567539
12403259 226 18264772052081765417
12403259 415 18412545439660166501
12596602 18 15625935396244072101
12788726 201 17168410670921561177
13140716 1 18123181308580960827
13402501 40 18409445865047190489
13944108 23 16400018339919588525
14251751 93 18412267224536941561
14341114 176 18410847737813997545
14790565 3 17831288776519117065
15042514 8 18197211439422517275
15196674 1 18407755941719402650
17349148 13 17749388182858677728
19591789 44 18408602539618318658
19958102 18 18413393145897755719
200 152 17603582997923891611
20775438 99 16524461663472956527
21033648 144 18336552616191430588
21033648 29 18340501013981782465
21236236 1 18408602573904281929
21267235 1 18335126592997935594
21279426 13 18336542845678817942
21315764 268 18412546496369658468
21857420 4 14025811060897303149
221357 26 18334861610505666029
22393880 68 18341334499829969942
23227448 37 18336265652178106246
23559900 14 18262803947616522928
23566358 2 18334291002303640366
3004659 81 18341608231798271326
335352 9 18335134276699618630
3380486 145 18122327005405734275
350125 39 18409724028588551577
3545911 37 18335978693029090984
3680242 22 18339359785979875370
4073 2 18271519781107097082
4214541 1 18410290302751753416
508706 21 18343310274985952045
5104073 3 18408884049234206970
5283173 99 18341897428461840812
9709674 26 18336261245657867250

> <PUBCHEM_SHAPE_MULTIPOLES>
549.85
12.03
3.42
1.01
7.23
0.2
0.37
-2.6
0.45
-1.76
0.45
-0.97
-0.58
1.72

> <PUBCHEM_SHAPE_SELFOVERLAP>
1236.358

> <PUBCHEM_SHAPE_VOLUME>
285.7

> <PUBCHEM_COORDINATE_TYPE>
2
5
10

$$$$

