583324
  -OEChem-06241222453D

 35 37  0     0  0  0  0  0  0999 V2000
   -1.2023   -0.0098    0.7804 S   0  0  0  0  0  0  0  0  0  0  0  0
    3.0299    1.6924   -0.1124 O   0  0  0  0  0  0  0  0  0  0  0  0
   -1.0924    1.2303    1.5337 O   0  0  0  0  0  0  0  0  0  0  0  0
   -0.8578   -1.2873    1.3853 O   0  0  0  0  0  0  0  0  0  0  0  0
    0.9489    2.5982   -0.3635 O   0  0  0  0  0  0  0  0  0  0  0  0
    1.8141   -0.8411   -0.4968 N   0  0  0  0  0  0  0  0  0  0  0  0
   -0.3792    0.1507   -0.7591 C   0  0  0  0  0  0  0  0  0  0  0  0
   -2.9360   -0.1270    0.3288 C   0  0  0  0  0  0  0  0  0  0  0  0
    1.1021    0.2372   -0.5234 C   0  0  0  0  0  0  0  0  0  0  0  0
   -3.4622   -1.3708    0.0938 C   0  0  0  0  0  0  0  0  0  0  0  0
   -3.6616    1.0325    0.2381 C   0  0  0  0  0  0  0  0  0  0  0  0
   -5.5825   -0.3053   -0.3597 C   0  0  0  0  0  0  0  0  0  0  0  0
    3.1862   -0.7217   -0.2753 C   0  0  0  0  0  0  0  0  0  0  0  0
   -4.8093   -1.4616   -0.2567 C   0  0  0  0  0  0  0  0  0  0  0  0
   -5.0086    0.9418   -0.1123 C   0  0  0  0  0  0  0  0  0  0  0  0
    1.6821    1.6231   -0.3257 C   0  0  0  0  0  0  0  0  0  0  0  0
    3.7894    0.5155   -0.0862 C   0  0  0  0  0  0  0  0  0  0  0  0
    3.9882   -1.8661   -0.2405 C   0  0  0  0  0  0  0  0  0  0  0  0
    5.1606    0.6393    0.1356 C   0  0  0  0  0  0  0  0  0  0  0  0
   -7.0231   -0.4022   -0.7331 C   0  0  0  0  0  0  0  0  0  0  0  0
    5.3640   -1.7602   -0.0195 C   0  0  0  0  0  0  0  0  0  0  0  0
    5.9494   -0.5080    0.1684 C   0  0  0  0  0  0  0  0  0  0  0  0
   -0.6004   -0.7372   -1.3591 H   0  0  0  0  0  0  0  0  0  0  0  0
   -0.7517    1.0350   -1.2805 H   0  0  0  0  0  0  0  0  0  0  0  0
   -2.8720   -2.2783    0.1607 H   0  0  0  0  0  0  0  0  0  0  0  0
   -3.2289    2.0109    0.4166 H   0  0  0  0  0  0  0  0  0  0  0  0
   -5.2440   -2.4386   -0.4506 H   0  0  0  0  0  0  0  0  0  0  0  0
   -5.5998    1.8502   -0.1933 H   0  0  0  0  0  0  0  0  0  0  0  0
    3.5471   -2.8493   -0.3851 H   0  0  0  0  0  0  0  0  0  0  0  0
    5.6140    1.6150    0.2815 H   0  0  0  0  0  0  0  0  0  0  0  0
   -7.4587   -1.3454   -0.3861 H   0  0  0  0  0  0  0  0  0  0  0  0
   -7.6048    0.4059   -0.2767 H   0  0  0  0  0  0  0  0  0  0  0  0
   -7.1340   -0.3436   -1.8204 H   0  0  0  0  0  0  0  0  0  0  0  0
    5.9788   -2.6553    0.0060 H   0  0  0  0  0  0  0  0  0  0  0  0
    7.0188   -0.4284    0.3399 H   0  0  0  0  0  0  0  0  0  0  0  0
  1  3  2  0  0  0  0
  1  4  2  0  0  0  0
  1  7  1  0  0  0  0
  1  8  1  0  0  0  0
  2 16  1  0  0  0  0
  2 17  1  0  0  0  0
  5 16  2  0  0  0  0
  6  9  2  0  0  0  0
  6 13  1  0  0  0  0
  7  9  1  0  0  0  0
  7 23  1  0  0  0  0
  7 24  1  0  0  0  0
  8 10  2  0  0  0  0
  8 11  1  0  0  0  0
  9 16  1  0  0  0  0
 10 14  1  0  0  0  0
 10 25  1  0  0  0  0
 11 15  2  0  0  0  0
 11 26  1  0  0  0  0
 12 14  2  0  0  0  0
 12 15  1  0  0  0  0
 12 20  1  0  0  0  0
 13 17  1  0  0  0  0
 13 18  2  0  0  0  0
 14 27  1  0  0  0  0
 15 28  1  0  0  0  0
 17 19  2  0  0  0  0
 18 21  1  0  0  0  0
 18 29  1  0  0  0  0
 19 22  1  0  0  0  0
 19 30  1  0  0  0  0
 20 31  1  0  0  0  0
 20 32  1  0  0  0  0
 20 33  1  0  0  0  0
 21 22  2  0  0  0  0
 21 34  1  0  0  0  0
 22 35  1  0  0  0  0
M  END
> <PUBCHEM_COMPOUND_CID>
583324

> <PUBCHEM_CONFORMER_RMSD>
0.6

> <PUBCHEM_CONFORMER_DIVERSEORDER>
1
3
9
8
2
4
5
6
7

> <PUBCHEM_MMFF94_PARTIAL_CHARGES>
30
1 1.2
10 -0.15
11 -0.15
12 -0.14
13 0.18
14 -0.15
15 -0.15
16 0.72
17 0.08
18 -0.15
19 -0.15
2 -0.23
20 0.14
21 -0.15
22 -0.15
25 0.15
26 0.15
27 0.15
28 0.15
29 0.15
3 -0.65
30 0.15
34 0.15
35 0.15
4 -0.65
5 -0.57
6 -0.63
7 0.17
8 -0.01
9 0.39

> <PUBCHEM_EFFECTIVE_ROTOR_COUNT>
3

> <PUBCHEM_PHARMACOPHORE_FEATURES>
7
1 3 acceptor
1 4 acceptor
1 5 acceptor
1 6 acceptor
6 13 17 18 19 21 22 rings
6 2 6 9 13 16 17 rings
6 8 10 11 12 14 15 rings

> <PUBCHEM_HEAVY_ATOM_COUNT>
22

> <PUBCHEM_ATOM_DEF_STEREO_COUNT>
0

> <PUBCHEM_ATOM_UDEF_STEREO_COUNT>
0

> <PUBCHEM_BOND_DEF_STEREO_COUNT>
0

> <PUBCHEM_BOND_UDEF_STEREO_COUNT>
0

> <PUBCHEM_ISOTOPIC_ATOM_COUNT>
0

> <PUBCHEM_COMPONENT_COUNT>
1

> <PUBCHEM_CACTVS_TAUTO_COUNT>
2

> <PUBCHEM_CONFORMER_ID>
0008E69C00000001

> <PUBCHEM_MMFF94_ENERGY>
58.2708

> <PUBCHEM_FEATURE_SELFOVERLAP>
35.571

> <PUBCHEM_SHAPE_FINGERPRINT>
10 15 17968108495518988106
10447042 23 18187087256280094038
10595046 47 18335983065226819925
11545043 162 17060046009387066185
12011746 2 18411974767993623102
12107183 9 17687459487230161179
12166972 35 18260266330593351553
12236239 1 18040152928706228828
12467345 10 18334577940663705631
12516196 113 18335142003176939864
13167823 11 18409449172119624615
13533116 47 18187083988105841978
13685833 64 18343298167610229363
14170010 4 18412546487600414709
14790565 3 17477756889445786780
15183329 4 18131072657746078347
15420108 30 17399786589307527929
15788980 27 18413385428110322411
17349148 13 18113609093060849833
17492 89 18125717881785466107
17834072 8 17989771098777977143
17857418 61 18335140882058619919
17980427 23 17603855732848338273
18222031 100 18334847343040806534
19489759 90 18408885152919462449
19784866 170 7709459416093634753
200 152 18186802486984313371
20028762 73 18186803608225012214
20511986 3 18260561029599727707
20645477 70 18410008866772711326
21267235 1 18408595972344278254
21279426 13 18056766643870119079
21285901 2 16916789651198266726
22079108 93 6988315032292125244
221357 26 18272093807522679245
2215653 11 18202001031751548510
22224240 67 18334864888377947050
23402539 116 18409450301806624389
23536379 177 18409167727402552019
23557571 272 14490457703836288601
23559900 14 18339646637896703713
23569943 247 17487063511643806339
26918003 58 18334575733023881651
3004659 81 18131631197332452438
3009799 131 18343304772921595635
347723 3 16702304563708637953
34797466 226 16515681118295590984
351380 180 18412544297435898261
4073 2 18059571334908643178
4214541 1 18410291428391790053
4340502 62 14418134028480311268
439807 62 18116719509363914671
465052 167 18261107487533061918
5104073 3 18334570231096767409
5283156 175 18187085057984832127
5283173 99 18340491182965042149
559249 180 18336829788212297039
7495541 125 17313389980858375939
960060 61 17988914575019794862
9709674 26 18127684937983172819
9971528 1 18202563951872515588

> <PUBCHEM_SHAPE_MULTIPOLES>
428.14
15.54
1.88
0.89
6.6
0.34
-0.19
-4.59
1.95
-1.14
0.04
0.36
0.01
-0.19

> <PUBCHEM_SHAPE_SELFOVERLAP>
922.354

> <PUBCHEM_SHAPE_VOLUME>
236.4

> <PUBCHEM_COORDINATE_TYPE>
2
5
10

$$$$

