5281608
  -OEChem-07051212583D

 45 47  0     0  0  0  0  0  0999 V2000
   -0.0243   -0.8656   -0.1279 O   0  0  0  0  0  0  0  0  0  0  0  0
    1.3966    2.4822   -0.7285 O   0  0  0  0  0  0  0  0  0  0  0  0
   -5.4585    0.0599    0.2106 O   0  0  0  0  0  0  0  0  0  0  0  0
   -4.4351   -2.4949    0.4750 O   0  0  0  0  0  0  0  0  0  0  0  0
   -3.7907    2.1744   -0.2224 O   0  0  0  0  0  0  0  0  0  0  0  0
   -1.3359    2.9691   -0.5512 O   0  0  0  0  0  0  0  0  0  0  0  0
    5.1154   -0.7336    1.8382 O   0  0  0  0  0  0  0  0  0  0  0  0
    6.2238   -1.4932   -0.5941 O   0  0  0  0  0  0  0  0  0  0  0  0
   -1.8759    0.7029   -0.1835 C   0  0  0  0  0  0  0  0  0  0  0  0
   -1.3642   -0.5858   -0.0501 C   0  0  0  0  0  0  0  0  0  0  0  0
    0.8589    0.1819   -0.3361 C   0  0  0  0  0  0  0  0  0  0  0  0
    0.4947    1.4681   -0.4897 C   0  0  0  0  0  0  0  0  0  0  0  0
   -0.9448    1.8170   -0.4189 C   0  0  0  0  0  0  0  0  0  0  0  0
   -3.2520    0.9283   -0.0966 C   0  0  0  0  0  0  0  0  0  0  0  0
    2.2647   -0.2557   -0.4004 C   0  0  0  0  0  0  0  0  0  0  0  0
   -2.2270   -1.6598    0.1711 C   0  0  0  0  0  0  0  0  0  0  0  0
   -4.1128   -0.1474    0.1251 C   0  0  0  0  0  0  0  0  0  0  0  0
   -3.6016   -1.4389    0.2587 C   0  0  0  0  0  0  0  0  0  0  0  0
    3.0387   -0.2905    0.7597 C   0  0  0  0  0  0  0  0  0  0  0  0
    2.8222   -0.6359   -1.6215 C   0  0  0  0  0  0  0  0  0  0  0  0
    4.3691   -0.7052    0.6990 C   0  0  0  0  0  0  0  0  0  0  0  0
    4.1527   -1.0503   -1.6823 C   0  0  0  0  0  0  0  0  0  0  0  0
    4.9262   -1.0851   -0.5220 C   0  0  0  0  0  0  0  0  0  0  0  0
    1.8549    3.0446    0.4861 C   0  0  0  0  0  0  0  0  0  0  0  0
   -5.9898    0.3300    1.5055 C   0  0  0  0  0  0  0  0  0  0  0  0
   -4.9387   -3.1691   -0.6764 C   0  0  0  0  0  0  0  0  0  0  0  0
    5.8334    0.4525    2.1727 C   0  0  0  0  0  0  0  0  0  0  0  0
   -1.8298   -2.6664    0.2759 H   0  0  0  0  0  0  0  0  0  0  0  0
    2.6100   -0.0068    1.7185 H   0  0  0  0  0  0  0  0  0  0  0  0
    2.2317   -0.6147   -2.5343 H   0  0  0  0  0  0  0  0  0  0  0  0
    4.5806   -1.3453   -2.6365 H   0  0  0  0  0  0  0  0  0  0  0  0
   -3.0970    2.8369   -0.3598 H   0  0  0  0  0  0  0  0  0  0  0  0
    2.4016    2.3282    1.1026 H   0  0  0  0  0  0  0  0  0  0  0  0
    1.0264    3.4717    1.0623 H   0  0  0  0  0  0  0  0  0  0  0  0
    2.5421    3.8602    0.2407 H   0  0  0  0  0  0  0  0  0  0  0  0
   -5.8114   -0.5143    2.1789 H   0  0  0  0  0  0  0  0  0  0  0  0
   -5.5488    1.2412    1.9217 H   0  0  0  0  0  0  0  0  0  0  0  0
   -7.0689    0.4772    1.4089 H   0  0  0  0  0  0  0  0  0  0  0  0
   -5.5219   -2.4844   -1.3001 H   0  0  0  0  0  0  0  0  0  0  0  0
   -5.5923   -3.9787   -0.3407 H   0  0  0  0  0  0  0  0  0  0  0  0
   -4.1175   -3.6003   -1.2578 H   0  0  0  0  0  0  0  0  0  0  0  0
    6.5978   -1.4948    0.3038 H   0  0  0  0  0  0  0  0  0  0  0  0
    5.1395    1.2784    2.3593 H   0  0  0  0  0  0  0  0  0  0  0  0
    6.5314    0.7227    1.3740 H   0  0  0  0  0  0  0  0  0  0  0  0
    6.4037    0.2618    3.0858 H   0  0  0  0  0  0  0  0  0  0  0  0
  1 10  1  0  0  0  0
  1 11  1  0  0  0  0
  2 12  1  0  0  0  0
  2 24  1  0  0  0  0
  3 17  1  0  0  0  0
  3 25  1  0  0  0  0
  4 18  1  0  0  0  0
  4 26  1  0  0  0  0
  5 14  1  0  0  0  0
  5 32  1  0  0  0  0
  6 13  2  0  0  0  0
  7 21  1  0  0  0  0
  7 27  1  0  0  0  0
  8 23  1  0  0  0  0
  8 42  1  0  0  0  0
  9 10  1  0  0  0  0
  9 13  1  0  0  0  0
  9 14  2  0  0  0  0
 10 16  2  0  0  0  0
 11 12  2  0  0  0  0
 11 15  1  0  0  0  0
 12 13  1  0  0  0  0
 14 17  1  0  0  0  0
 15 19  2  0  0  0  0
 15 20  1  0  0  0  0
 16 18  1  0  0  0  0
 16 28  1  0  0  0  0
 17 18  2  0  0  0  0
 19 21  1  0  0  0  0
 19 29  1  0  0  0  0
 20 22  2  0  0  0  0
 20 30  1  0  0  0  0
 21 23  2  0  0  0  0
 22 23  1  0  0  0  0
 22 31  1  0  0  0  0
 24 33  1  0  0  0  0
 24 34  1  0  0  0  0
 24 35  1  0  0  0  0
 25 36  1  0  0  0  0
 25 37  1  0  0  0  0
 25 38  1  0  0  0  0
 26 39  1  0  0  0  0
 26 40  1  0  0  0  0
 26 41  1  0  0  0  0
 27 43  1  0  0  0  0
 27 44  1  0  0  0  0
 27 45  1  0  0  0  0
M  END
> <PUBCHEM_COMPOUND_CID>
5281608

> <PUBCHEM_CONFORMER_RMSD>
0.8

> <PUBCHEM_CONFORMER_DIVERSEORDER>
1
5
7
4
6
3
8
2

> <PUBCHEM_MMFF94_PARTIAL_CHARGES>
33
1 -0.16
10 0.08
11 0.05
12 0.09
13 0.47
14 0.08
15 0.03
16 -0.15
17 0.08
18 0.08
19 -0.15
2 -0.36
20 -0.15
21 0.08
22 -0.15
23 0.08
24 0.28
25 0.28
26 0.28
27 0.28
28 0.15
29 0.15
3 -0.36
30 0.15
31 0.15
32 0.45
4 -0.36
42 0.45
5 -0.53
6 -0.57
7 -0.36
8 -0.53
9 0.09

> <PUBCHEM_EFFECTIVE_ROTOR_COUNT>
5

> <PUBCHEM_PHARMACOPHORE_FEATURES>
11
1 1 acceptor
1 2 acceptor
1 3 acceptor
1 4 acceptor
1 5 donor
1 6 acceptor
1 7 acceptor
1 8 donor
6 1 9 10 11 12 13 rings
6 15 19 20 21 22 23 rings
6 9 10 14 16 17 18 rings

> <PUBCHEM_HEAVY_ATOM_COUNT>
27

> <PUBCHEM_ATOM_DEF_STEREO_COUNT>
0

> <PUBCHEM_ATOM_UDEF_STEREO_COUNT>
0

> <PUBCHEM_BOND_DEF_STEREO_COUNT>
0

> <PUBCHEM_BOND_UDEF_STEREO_COUNT>
0

> <PUBCHEM_ISOTOPIC_ATOM_COUNT>
0

> <PUBCHEM_COMPONENT_COUNT>
1

> <PUBCHEM_CACTVS_TAUTO_COUNT>
25

> <PUBCHEM_CONFORMER_ID>
0050974800000001

> <PUBCHEM_MMFF94_ENERGY>
120.6431

> <PUBCHEM_FEATURE_SELFOVERLAP>
55.855

> <PUBCHEM_SHAPE_FINGERPRINT>
11405975 8 18336257956255828451
11963148 33 17477488599195871755
12236239 1 17417522627323830958
12553582 1 18343302586851937135
12633257 1 18337378397190737229
12788726 201 18130221687201631849
13140716 1 18338513045856375617
13540713 5 18121200010587802421
13782708 43 17895192251345651790
15131766 46 15214172698832242936
15196674 1 18339073775480373525
15348495 7 17967536757155520386
15537594 2 18202558505827746971
17349148 13 17346596409065155314
17492 89 18121494657871130919
17804303 29 18412259558131432253
1813 80 17346608434773527068
18222031 100 18410292489148576414
19141452 34 18113896057338483679
200 152 16272207517971370654
20028762 73 18261393287336929959
20691752 17 17489593303262754845
21033648 29 17313962916420908642
21267235 1 18271231790443178907
21792934 111 18409167680928065033
21859007 373 18129680710897548133
22122407 14 15574431011940660603
2297311 6 18337662126967230406
23366157 5 17844240727399777988
23402539 116 18410012135132138351
23522609 53 17983820541833370237
23557571 272 18262795306637974532
23559900 14 18337956692878054613
23569914 152 12531750315659268915
25147074 1 18268419158010767925
3004659 81 17989199352742141998
335352 9 18412541025319685077
3383291 50 18410852119694451035
3411729 13 18267022744316822672
350125 39 18342166796216160853
3882209 13 17179150425561570518
474 4 5473141829823434772
5104073 3 18265886974510960547
6669772 16 12823290179388362024
9709674 26 18197210339841797659

> <PUBCHEM_SHAPE_MULTIPOLES>
508.69
13.86
2.86
1.35
2.16
0.92
0.39
-6.95
4.63
-2.28
-0.53
1.98
-0.1
0.59

> <PUBCHEM_SHAPE_SELFOVERLAP>
1113.026

> <PUBCHEM_SHAPE_VOLUME>
276.6

> <PUBCHEM_COORDINATE_TYPE>
2
5
10

$$$$

