17396456
  -OEChem-06241222562D

 46 48  0     0  0  0  0  0  0999 V2000
    2.0000   -4.0950    0.0000 Cl  0  0  0  0  0  0  0  0  0  0  0  0
    8.0622    2.4050    0.0000 O   0  0  0  0  0  0  0  0  0  0  0  0
    2.8660   -0.5950    0.0000 O   0  0  0  0  0  0  0  0  0  0  0  0
    3.7320   -5.0950    0.0000 O   0  0  0  0  0  0  0  0  0  0  0  0
    6.3301    0.4050    0.0000 N   0  0  0  0  0  0  0  0  0  0  0  0
    4.5981   -0.5950    0.0000 N   0  0  0  0  0  0  0  0  0  0  0  0
    5.4641    0.9050    0.0000 C   0  0  0  0  0  0  0  0  0  0  0  0
    6.3301   -0.5950    0.0000 C   0  0  0  0  0  0  0  0  0  0  0  0
    4.5981    0.4050    0.0000 C   0  0  0  0  0  0  0  0  0  0  0  0
    5.4641   -1.0950    0.0000 C   0  0  0  0  0  0  0  0  0  0  0  0
    7.1962    0.9050    0.0000 C   0  0  0  0  0  0  0  0  0  0  0  0
    3.7320   -1.0950    0.0000 C   0  0  0  0  0  0  0  0  0  0  0  0
    7.1962    1.9050    0.0000 C   0  0  0  0  0  0  0  0  0  0  0  0
    3.7320   -2.0950    0.0000 C   0  0  0  0  0  0  0  0  0  0  0  0
    2.8660   -2.5950    0.0000 C   0  0  0  0  0  0  0  0  0  0  0  0
    4.5981   -2.5950    0.0000 C   0  0  0  0  0  0  0  0  0  0  0  0
    8.0622    3.4050    0.0000 C   0  0  0  0  0  0  0  0  0  0  0  0
    2.8660   -3.5950    0.0000 C   0  0  0  0  0  0  0  0  0  0  0  0
    4.5981   -3.5950    0.0000 C   0  0  0  0  0  0  0  0  0  0  0  0
    3.7320   -4.0950    0.0000 C   0  0  0  0  0  0  0  0  0  0  0  0
    8.9282    3.9050    0.0000 C   0  0  0  0  0  0  0  0  0  0  0  0
    7.1962    3.9050    0.0000 C   0  0  0  0  0  0  0  0  0  0  0  0
    8.9282    4.9050    0.0000 C   0  0  0  0  0  0  0  0  0  0  0  0
    7.1962    4.9050    0.0000 C   0  0  0  0  0  0  0  0  0  0  0  0
    8.0622    5.4050    0.0000 C   0  0  0  0  0  0  0  0  0  0  0  0
    5.8626    1.3800    0.0000 H   0  0  0  0  0  0  0  0  0  0  0  0
    5.0656    1.3800    0.0000 H   0  0  0  0  0  0  0  0  0  0  0  0
    6.5422   -1.1776    0.0000 H   0  0  0  0  0  0  0  0  0  0  0  0
    6.9407   -0.4873    0.0000 H   0  0  0  0  0  0  0  0  0  0  0  0
    4.3860    0.9876    0.0000 H   0  0  0  0  0  0  0  0  0  0  0  0
    3.9875    0.2973    0.0000 H   0  0  0  0  0  0  0  0  0  0  0  0
    5.0656   -1.5700    0.0000 H   0  0  0  0  0  0  0  0  0  0  0  0
    5.8626   -1.5700    0.0000 H   0  0  0  0  0  0  0  0  0  0  0  0
    7.4082    0.3224    0.0000 H   0  0  0  0  0  0  0  0  0  0  0  0
    7.8067    1.0127    0.0000 H   0  0  0  0  0  0  0  0  0  0  0  0
    6.9841    2.4876    0.0000 H   0  0  0  0  0  0  0  0  0  0  0  0
    6.5856    1.7973    0.0000 H   0  0  0  0  0  0  0  0  0  0  0  0
    2.3291   -2.2850    0.0000 H   0  0  0  0  0  0  0  0  0  0  0  0
    5.1350   -2.2850    0.0000 H   0  0  0  0  0  0  0  0  0  0  0  0
    5.1350   -3.9050    0.0000 H   0  0  0  0  0  0  0  0  0  0  0  0
    9.4651    3.5950    0.0000 H   0  0  0  0  0  0  0  0  0  0  0  0
    6.6592    3.5950    0.0000 H   0  0  0  0  0  0  0  0  0  0  0  0
    9.4651    5.2150    0.0000 H   0  0  0  0  0  0  0  0  0  0  0  0
    6.6592    5.2150    0.0000 H   0  0  0  0  0  0  0  0  0  0  0  0
    8.0622    6.0250    0.0000 H   0  0  0  0  0  0  0  0  0  0  0  0
    4.2690   -5.4050    0.0000 H   0  0  0  0  0  0  0  0  0  0  0  0
  1 18  1  0  0  0  0
  2 13  1  0  0  0  0
  2 17  1  0  0  0  0
  3 12  2  0  0  0  0
  4 20  1  0  0  0  0
  4 46  1  0  0  0  0
  5  7  1  0  0  0  0
  5  8  1  0  0  0  0
  5 11  1  0  0  0  0
  6  9  1  0  0  0  0
  6 10  1  0  0  0  0
  6 12  1  0  0  0  0
  7  9  1  0  0  0  0
  7 26  1  0  0  0  0
  7 27  1  0  0  0  0
  8 10  1  0  0  0  0
  8 28  1  0  0  0  0
  8 29  1  0  0  0  0
  9 30  1  0  0  0  0
  9 31  1  0  0  0  0
 10 32  1  0  0  0  0
 10 33  1  0  0  0  0
 11 13  1  0  0  0  0
 11 34  1  0  0  0  0
 11 35  1  0  0  0  0
 12 14  1  0  0  0  0
 13 36  1  0  0  0  0
 13 37  1  0  0  0  0
 14 15  2  0  0  0  0
 14 16  1  0  0  0  0
 15 18  1  0  0  0  0
 15 38  1  0  0  0  0
 16 19  2  0  0  0  0
 16 39  1  0  0  0  0
 17 21  2  0  0  0  0
 17 22  1  0  0  0  0
 18 20  2  0  0  0  0
 19 20  1  0  0  0  0
 19 40  1  0  0  0  0
 21 23  1  0  0  0  0
 21 41  1  0  0  0  0
 22 24  2  0  0  0  0
 22 42  1  0  0  0  0
 23 25  2  0  0  0  0
 23 43  1  0  0  0  0
 24 25  1  0  0  0  0
 24 44  1  0  0  0  0
 25 45  1  0  0  0  0
M  END
> <PUBCHEM_COMPOUND_CID>
17396456

> <PUBCHEM_COMPOUND_CANONICALIZED>
1

> <PUBCHEM_CACTVS_COMPLEXITY>
423

> <PUBCHEM_CACTVS_HBOND_ACCEPTOR>
4

> <PUBCHEM_CACTVS_HBOND_DONOR>
1

> <PUBCHEM_CACTVS_ROTATABLE_BOND>
5

> <PUBCHEM_CACTVS_SUBSKEYS>
AAADceB7MAAEAAAAAAAAAAAAAAAAAAAAAAA8YIAAAAAAAAABQAAAHgIACAAADAbhmCYwBoMABgCIAiFSEACCCAAkJUAIiAEOD8gOZjKHtxuXeSjkxhGYuYeY3ALOIAAAIAAACABAAABAAAAQAAAAAAAAAA==

> <PUBCHEM_IUPAC_OPENEYE_NAME>
(3-chloro-4-hydroxy-phenyl)-[4-(2-phenoxyethyl)piperazin-1-yl]methanone

> <PUBCHEM_IUPAC_CAS_NAME>
(3-chloro-4-hydroxyphenyl)-[4-(2-phenoxyethyl)-1-piperazinyl]methanone

> <PUBCHEM_IUPAC_NAME>
(3-chloro-4-hydroxyphenyl)-[4-(2-phenoxyethyl)piperazin-1-yl]methanone

> <PUBCHEM_IUPAC_SYSTEMATIC_NAME>
(3-chloranyl-4-oxidanyl-phenyl)-[4-(2-phenoxyethyl)piperazin-1-yl]methanone

> <PUBCHEM_IUPAC_TRADITIONAL_NAME>
(3-chloro-4-hydroxy-phenyl)-[4-(2-phenoxyethyl)piperazino]methanone

> <PUBCHEM_IUPAC_INCHI>
InChI=1S/C19H21ClN2O3/c20-17-14-15(6-7-18(17)23)19(24)22-10-8-21(9-11-22)12-13-25-16-4-2-1-3-5-16/h1-7,14,23H,8-13H2

> <PUBCHEM_IUPAC_INCHIKEY>
QUYJSXBBVPDKSF-UHFFFAOYSA-N

> <PUBCHEM_XLOGP3_AA>
3.1

> <PUBCHEM_EXACT_MASS>
360.12407

> <PUBCHEM_MOLECULAR_FORMULA>
C19H21ClN2O3

> <PUBCHEM_MOLECULAR_WEIGHT>
360.83464

> <PUBCHEM_OPENEYE_CAN_SMILES>
C1CN(CCN1CCOC2=CC=CC=C2)C(=O)C3=CC(=C(C=C3)O)Cl

> <PUBCHEM_OPENEYE_ISO_SMILES>
C1CN(CCN1CCOC2=CC=CC=C2)C(=O)C3=CC(=C(C=C3)O)Cl

> <PUBCHEM_CACTVS_TPSA>
53

> <PUBCHEM_MONOISOTOPIC_WEIGHT>
360.12407

> <PUBCHEM_TOTAL_CHARGE>
0

> <PUBCHEM_HEAVY_ATOM_COUNT>
25

> <PUBCHEM_ATOM_DEF_STEREO_COUNT>
0

> <PUBCHEM_ATOM_UDEF_STEREO_COUNT>
0

> <PUBCHEM_BOND_DEF_STEREO_COUNT>
0

> <PUBCHEM_BOND_UDEF_STEREO_COUNT>
0

> <PUBCHEM_ISOTOPIC_ATOM_COUNT>
0

> <PUBCHEM_COMPONENT_COUNT>
1

> <PUBCHEM_CACTVS_TAUTO_COUNT>
5

> <PUBCHEM_COORDINATE_TYPE>
1
5
255

> <PUBCHEM_BONDANNOTATIONS>
14  15  8
14  16  8
15  18  8
16  19  8
17  21  8
17  22  8
18  20  8
19  20  8
21  23  8
22  24  8
23  25  8
24  25  8

$$$$

