155692
  -OEChem-07051213112D

 75 79  0     1  0  0  0  0  0999 V2000
    6.8671   -0.3621    0.0000 O   0  0  0  0  0  0  0  0  0  0  0  0
    5.1350    1.6379    0.0000 O   0  0  0  0  0  0  0  0  0  0  0  0
    6.0010   -1.8621    0.0000 O   0  0  0  0  0  0  0  0  0  0  0  0
    5.1350   -1.3621    0.0000 O   0  0  0  0  0  0  0  0  0  0  0  0
    3.4030   -0.3621    0.0000 O   0  0  0  0  0  0  0  0  0  0  0  0
    8.5991   -1.3621    0.0000 O   0  0  0  0  0  0  0  0  0  0  0  0
    8.5991   -3.3621    0.0000 O   0  0  0  0  0  0  0  0  0  0  0  0
    6.8671   -4.3621    0.0000 O   0  0  0  0  0  0  0  0  0  0  0  0
    2.5369    1.1379    0.0000 O   0  0  0  0  0  0  0  0  0  0  0  0
    6.0010    3.1379    0.0000 O   0  0  0  0  0  0  0  0  0  0  0  0
    5.1350   -4.3621    0.0000 O   0  0  0  0  0  0  0  0  0  0  0  0
    7.7331    0.1379    0.0000 O   0  0  0  0  0  0  0  0  0  0  0  0
    9.4931    3.1726    0.0000 O   0  0  0  0  0  0  0  0  0  0  0  0
    9.4815    0.1033    0.0000 O   0  0  0  0  0  0  0  0  0  0  0  0
   13.8555    4.6721    0.0000 O   0  0  0  0  0  0  0  0  0  0  0  0
    6.0010    0.1379    0.0000 C   0  0  2  0  0  0  0  0  0  0  0  0
    5.1350   -0.3621    0.0000 C   0  0  2  0  0  0  0  0  0  0  0  0
    6.0010    1.1379    0.0000 C   0  0  2  0  0  0  0  0  0  0  0  0
    4.2690    0.1379    0.0000 C   0  0  1  0  0  0  0  0  0  0  0  0
    4.2690    1.1379    0.0000 C   0  0  1  0  0  0  0  0  0  0  0  0
    6.8671   -1.3621    0.0000 C   0  0  2  0  0  0  0  0  0  0  0  0
    7.7331   -1.8621    0.0000 C   0  0  1  0  0  0  0  0  0  0  0  0
    7.7331   -2.8621    0.0000 C   0  0  2  0  0  0  0  0  0  0  0  0
    6.8671   -3.3621    0.0000 C   0  0  1  0  0  0  0  0  0  0  0  0
    6.0010   -2.8621    0.0000 C   0  0  1  0  0  0  0  0  0  0  0  0
    6.8671    1.6379    0.0000 C   0  0  0  0  0  0  0  0  0  0  0  0
    3.4030    1.6379    0.0000 C   0  0  0  0  0  0  0  0  0  0  0  0
    5.1350   -3.3621    0.0000 C   0  0  0  0  0  0  0  0  0  0  0  0
    7.7331    1.1379    0.0000 C   0  0  0  0  0  0  0  0  0  0  0  0
    6.8671    2.6379    0.0000 C   0  0  0  0  0  0  0  0  0  0  0  0
    8.5991    1.6379    0.0000 C   0  0  0  0  0  0  0  0  0  0  0  0
    7.7331    3.1379    0.0000 C   0  0  0  0  0  0  0  0  0  0  0  0
    8.5991    2.6379    0.0000 C   0  0  0  0  0  0  0  0  0  0  0  0
    9.4931    1.1033    0.0000 C   0  0  0  0  0  0  0  0  0  0  0  0
   10.3991    1.6171    0.0000 C   0  0  0  0  0  0  0  0  0  0  0  0
   10.3991    2.6587    0.0000 C   0  0  0  0  0  0  0  0  0  0  0  0
    6.0010    4.1379    0.0000 C   0  0  0  0  0  0  0  0  0  0  0  0
   11.2632    3.1621    0.0000 C   0  0  0  0  0  0  0  0  0  0  0  0
   12.1312    2.6654    0.0000 C   0  0  0  0  0  0  0  0  0  0  0  0
   11.2594    4.1621    0.0000 C   0  0  0  0  0  0  0  0  0  0  0  0
   12.9953    3.1688    0.0000 C   0  0  0  0  0  0  0  0  0  0  0  0
   12.1235    4.6654    0.0000 C   0  0  0  0  0  0  0  0  0  0  0  0
   12.9914    4.1687    0.0000 C   0  0  0  0  0  0  0  0  0  0  0  0
    6.5380    0.4479    0.0000 H   0  0  0  0  0  0  0  0  0  0  0  0
    5.6720   -0.6721    0.0000 H   0  0  0  0  0  0  0  0  0  0  0  0
    6.7372    0.7129    0.0000 H   0  0  0  0  0  0  0  0  0  0  0  0
    4.2690   -0.4821    0.0000 H   0  0  0  0  0  0  0  0  0  0  0  0
    4.2690    1.7579    0.0000 H   0  0  0  0  0  0  0  0  0  0  0  0
    6.3301   -1.0521    0.0000 H   0  0  0  0  0  0  0  0  0  0  0  0
    7.7331   -1.2421    0.0000 H   0  0  0  0  0  0  0  0  0  0  0  0
    7.7331   -3.4821    0.0000 H   0  0  0  0  0  0  0  0  0  0  0  0
    6.3301   -3.6721    0.0000 H   0  0  0  0  0  0  0  0  0  0  0  0
    5.4641   -2.5521    0.0000 H   0  0  0  0  0  0  0  0  0  0  0  0
    3.8015    2.1129    0.0000 H   0  0  0  0  0  0  0  0  0  0  0  0
    3.0044    2.1129    0.0000 H   0  0  0  0  0  0  0  0  0  0  0  0
    4.5981   -1.6721    0.0000 H   0  0  0  0  0  0  0  0  0  0  0  0
    4.9230   -2.7795    0.0000 H   0  0  0  0  0  0  0  0  0  0  0  0
    4.5244   -3.4697    0.0000 H   0  0  0  0  0  0  0  0  0  0  0  0
    3.4030   -0.9821    0.0000 H   0  0  0  0  0  0  0  0  0  0  0  0
    9.1360   -1.6721    0.0000 H   0  0  0  0  0  0  0  0  0  0  0  0
    8.5991   -3.9821    0.0000 H   0  0  0  0  0  0  0  0  0  0  0  0
    7.4040   -4.6721    0.0000 H   0  0  0  0  0  0  0  0  0  0  0  0
    7.7331    3.7579    0.0000 H   0  0  0  0  0  0  0  0  0  0  0  0
    2.0000    1.4479    0.0000 H   0  0  0  0  0  0  0  0  0  0  0  0
    4.5981   -4.6721    0.0000 H   0  0  0  0  0  0  0  0  0  0  0  0
    8.2700   -0.1721    0.0000 H   0  0  0  0  0  0  0  0  0  0  0  0
   10.9349    1.3050    0.0000 H   0  0  0  0  0  0  0  0  0  0  0  0
    6.6210    4.1379    0.0000 H   0  0  0  0  0  0  0  0  0  0  0  0
    6.0010    4.7579    0.0000 H   0  0  0  0  0  0  0  0  0  0  0  0
    5.3810    4.1379    0.0000 H   0  0  0  0  0  0  0  0  0  0  0  0
   12.1336    2.0454    0.0000 H   0  0  0  0  0  0  0  0  0  0  0  0
   10.7212    4.4700    0.0000 H   0  0  0  0  0  0  0  0  0  0  0  0
   13.5334    2.8608    0.0000 H   0  0  0  0  0  0  0  0  0  0  0  0
   12.1211    5.2854    0.0000 H   0  0  0  0  0  0  0  0  0  0  0  0
   14.3936    4.3642    0.0000 H   0  0  0  0  0  0  0  0  0  0  0  0
 16  1  1  6  0  0  0
 21  1  1  1  0  0  0
  2 18  1  0  0  0  0
  2 20  1  0  0  0  0
  3 21  1  0  0  0  0
  3 25  1  0  0  0  0
 17  4  1  1  0  0  0
  4 56  1  0  0  0  0
 19  5  1  6  0  0  0
  5 59  1  0  0  0  0
 22  6  1  6  0  0  0
  6 60  1  0  0  0  0
 23  7  1  1  0  0  0
  7 61  1  0  0  0  0
 24  8  1  6  0  0  0
  8 62  1  0  0  0  0
  9 27  1  0  0  0  0
  9 64  1  0  0  0  0
 10 30  1  0  0  0  0
 10 37  1  0  0  0  0
 11 28  1  0  0  0  0
 11 65  1  0  0  0  0
 12 29  1  0  0  0  0
 12 66  1  0  0  0  0
 13 33  1  0  0  0  0
 13 36  1  0  0  0  0
 14 34  2  0  0  0  0
 15 43  1  0  0  0  0
 15 75  1  0  0  0  0
 16 17  1  0  0  0  0
 16 18  1  0  0  0  0
 16 44  1  0  0  0  0
 17 19  1  0  0  0  0
 17 45  1  0  0  0  0
 18 26  1  0  0  0  0
 18 46  1  6  0  0  0
 19 20  1  0  0  0  0
 19 47  1  0  0  0  0
 20 27  1  1  0  0  0
 20 48  1  0  0  0  0
 21 22  1  0  0  0  0
 21 49  1  0  0  0  0
 22 23  1  0  0  0  0
 22 50  1  0  0  0  0
 23 24  1  0  0  0  0
 23 51  1  0  0  0  0
 24 25  1  0  0  0  0
 24 52  1  0  0  0  0
 25 28  1  1  0  0  0
 25 53  1  0  0  0  0
 26 29  1  0  0  0  0
 26 30  2  0  0  0  0
 27 54  1  0  0  0  0
 27 55  1  0  0  0  0
 28 57  1  0  0  0  0
 28 58  1  0  0  0  0
 29 31  2  0  0  0  0
 30 32  1  0  0  0  0
 31 33  1  0  0  0  0
 31 34  1  0  0  0  0
 32 33  2  0  0  0  0
 32 63  1  0  0  0  0
 34 35  1  0  0  0  0
 35 36  2  0  0  0  0
 35 67  1  0  0  0  0
 36 38  1  0  0  0  0
 37 68  1  0  0  0  0
 37 69  1  0  0  0  0
 37 70  1  0  0  0  0
 38 39  2  0  0  0  0
 38 40  1  0  0  0  0
 39 41  1  0  0  0  0
 39 71  1  0  0  0  0
 40 42  2  0  0  0  0
 40 72  1  0  0  0  0
 41 43  2  0  0  0  0
 41 73  1  0  0  0  0
 42 43  1  0  0  0  0
 42 74  1  0  0  0  0
M  END
> <PUBCHEM_COMPOUND_CID>
155692

> <PUBCHEM_COMPOUND_CANONICALIZED>
1

> <PUBCHEM_CACTVS_COMPLEXITY>
987

> <PUBCHEM_CACTVS_HBOND_ACCEPTOR>
15

> <PUBCHEM_CACTVS_HBOND_DONOR>
9

> <PUBCHEM_CACTVS_ROTATABLE_BOND>
7

> <PUBCHEM_CACTVS_SUBSKEYS>
AAADcfB4PAAAAAAAAAAAAAAAAAAAAAAAAAA0aIECAAAAAACBQAAAGgAACAAADBSwmAMyDoAABgCIAqBSAAACCAAkIAAIiAEGCMgdNzaGNRqieWCl4BUPuQfI7PzOIAACCAAIAABAAAQQABAAAAAAAAAAAA==

> <PUBCHEM_IUPAC_OPENEYE_NAME>
6-[(2S,3R,4S,5S,6R)-4,5-dihydroxy-6-(hydroxymethyl)-3-[(2S,3R,4S,5S,6R)-3,4,5-trihydroxy-6-(hydroxymethyl)tetrahydropyran-2-yl]oxy-tetrahydropyran-2-yl]-5-hydroxy-2-(4-hydroxyphenyl)-7-methoxy-chromen-4-one

> <PUBCHEM_IUPAC_CAS_NAME>
6-[(2S,3R,4S,5S,6R)-4,5-dihydroxy-6-(hydroxymethyl)-3-[[(2S,3R,4S,5S,6R)-3,4,5-trihydroxy-6-(hydroxymethyl)-2-oxanyl]oxy]-2-oxanyl]-5-hydroxy-2-(4-hydroxyphenyl)-7-methoxy-1-benzopyran-4-one

> <PUBCHEM_IUPAC_NAME>
6-[(2S,3R,4S,5S,6R)-4,5-dihydroxy-6-(hydroxymethyl)-3-[(2S,3R,4S,5S,6R)-3,4,5-trihydroxy-6-(hydroxymethyl)oxan-2-yl]oxyoxan-2-yl]-5-hydroxy-2-(4-hydroxyphenyl)-7-methoxychromen-4-one

> <PUBCHEM_IUPAC_SYSTEMATIC_NAME>
6-[(2S,3R,4S,5S,6R)-6-(hydroxymethyl)-3-[(2S,3R,4S,5S,6R)-6-(hydroxymethyl)-3,4,5-tris(oxidanyl)oxan-2-yl]oxy-4,5-bis(oxidanyl)oxan-2-yl]-2-(4-hydroxyphenyl)-7-methoxy-5-oxidanyl-chromen-4-one

> <PUBCHEM_IUPAC_TRADITIONAL_NAME>
6-[(2S,3R,4S,5S,6R)-4,5-dihydroxy-6-methylol-3-[(2S,3R,4S,5S,6R)-3,4,5-trihydroxy-6-methylol-tetrahydropyran-2-yl]oxy-tetrahydropyran-2-yl]-5-hydroxy-2-(4-hydroxyphenyl)-7-methoxy-chromone

> <PUBCHEM_IUPAC_INCHI>
InChI=1S/C28H32O15/c1-39-14-7-15-18(12(32)6-13(40-15)10-2-4-11(31)5-3-10)22(35)19(14)26-27(24(37)21(34)16(8-29)41-26)43-28-25(38)23(36)20(33)17(9-30)42-28/h2-7,16-17,20-21,23-31,33-38H,8-9H2,1H3/t16-,17-,20-,21-,23+,24+,25-,26+,27-,28+/m1/s1

> <PUBCHEM_IUPAC_INCHIKEY>
VGGSULWDCMWZPO-ODEMIOGVSA-N

> <PUBCHEM_XLOGP3_AA>
-1.1

> <PUBCHEM_EXACT_MASS>
608.17412

> <PUBCHEM_MOLECULAR_FORMULA>
C28H32O15

> <PUBCHEM_MOLECULAR_WEIGHT>
608.54468

> <PUBCHEM_OPENEYE_CAN_SMILES>
COC1=C(C(=C2C(=C1)OC(=CC2=O)C3=CC=C(C=C3)O)O)C4C(C(C(C(O4)CO)O)O)OC5C(C(C(C(O5)CO)O)O)O

> <PUBCHEM_OPENEYE_ISO_SMILES>
COC1=C(C(=C2C(=C1)OC(=CC2=O)C3=CC=C(C=C3)O)O)[C@H]4[C@@H]([C@H]([C@@H]([C@H](O4)CO)O)O)O[C@H]5[C@@H]([C@H]([C@@H]([C@H](O5)CO)O)O)O

> <PUBCHEM_CACTVS_TPSA>
245

> <PUBCHEM_MONOISOTOPIC_WEIGHT>
608.17412

> <PUBCHEM_TOTAL_CHARGE>
0

> <PUBCHEM_HEAVY_ATOM_COUNT>
43

> <PUBCHEM_ATOM_DEF_STEREO_COUNT>
10

> <PUBCHEM_ATOM_UDEF_STEREO_COUNT>
0

> <PUBCHEM_BOND_DEF_STEREO_COUNT>
0

> <PUBCHEM_BOND_UDEF_STEREO_COUNT>
0

> <PUBCHEM_ISOTOPIC_ATOM_COUNT>
0

> <PUBCHEM_COMPONENT_COUNT>
1

> <PUBCHEM_CACTVS_TAUTO_COUNT>
24

> <PUBCHEM_COORDINATE_TYPE>
1
5
255

> <PUBCHEM_BONDANNOTATIONS>
16  1  6
21  1  5
13  33  8
13  36  8
18  46  6
20  27  5
25  28  5
26  29  8
26  30  8
29  31  8
30  32  8
31  33  8
31  34  8
32  33  8
34  35  8
35  36  8
38  39  8
38  40  8
39  41  8
17  4  5
40  42  8
41  43  8
42  43  8
19  5  6
22  6  6
23  7  5
24  8  6

$$$$

