7152
  -OEChem-06261201503D

 23 22  0     0  0  0  0  0  0999 V2000
    2.5287   -2.8723    0.0612 O   0  0  0  0  0  0  0  0  0  0  0  0
    1.9801    2.3207    0.9074 O   0  0  0  0  0  0  0  0  0  0  0  0
   -3.1990    0.1282    0.9683 O   0  0  0  0  0  0  0  0  0  0  0  0
    1.3702    2.0874   -1.2687 O   0  0  0  0  0  0  0  0  0  0  0  0
   -2.7072   -0.0982   -1.2383 O   0  0  0  0  0  0  0  0  0  0  0  0
   -0.0147   -0.2089   -0.0914 N   0  0  0  0  0  0  0  0  0  0  0  0
    1.2349   -0.8723    0.2792 C   0  0  0  0  0  0  0  0  0  0  0  0
   -0.0480    1.1526    0.4415 C   0  0  0  0  0  0  0  0  0  0  0  0
   -1.1629   -0.9750    0.3916 C   0  0  0  0  0  0  0  0  0  0  0  0
    1.2938   -2.2731   -0.3089 C   0  0  0  0  0  0  0  0  0  0  0  0
    1.1470    1.9024   -0.0790 C   0  0  0  0  0  0  0  0  0  0  0  0
   -2.4229   -0.2916   -0.0630 C   0  0  0  0  0  0  0  0  0  0  0  0
    1.3584   -0.9253    1.3697 H   0  0  0  0  0  0  0  0  0  0  0  0
    2.1151   -0.3391   -0.0991 H   0  0  0  0  0  0  0  0  0  0  0  0
   -0.0399    1.1613    1.5389 H   0  0  0  0  0  0  0  0  0  0  0  0
   -0.9246    1.7227    0.1141 H   0  0  0  0  0  0  0  0  0  0  0  0
   -1.1625   -1.0763    1.4840 H   0  0  0  0  0  0  0  0  0  0  0  0
   -1.2365   -1.9784   -0.0376 H   0  0  0  0  0  0  0  0  0  0  0  0
    1.2334   -2.2486   -1.4021 H   0  0  0  0  0  0  0  0  0  0  0  0
    0.5193   -2.9371    0.0800 H   0  0  0  0  0  0  0  0  0  0  0  0
    2.5497   -3.7573   -0.3411 H   0  0  0  0  0  0  0  0  0  0  0  0
    2.7638    2.7900    0.5498 H   0  0  0  0  0  0  0  0  0  0  0  0
   -4.0063    0.5889    0.6547 H   0  0  0  0  0  0  0  0  0  0  0  0
  1 10  1  0  0  0  0
  1 21  1  0  0  0  0
  2 11  1  0  0  0  0
  2 22  1  0  0  0  0
  3 12  1  0  0  0  0
  3 23  1  0  0  0  0
  4 11  2  0  0  0  0
  5 12  2  0  0  0  0
  6  7  1  0  0  0  0
  6  8  1  0  0  0  0
  6  9  1  0  0  0  0
  7 10  1  0  0  0  0
  7 13  1  0  0  0  0
  7 14  1  0  0  0  0
  8 11  1  0  0  0  0
  8 15  1  0  0  0  0
  8 16  1  0  0  0  0
  9 12  1  0  0  0  0
  9 17  1  0  0  0  0
  9 18  1  0  0  0  0
 10 19  1  0  0  0  0
 10 20  1  0  0  0  0
M  END
> <PUBCHEM_COMPOUND_CID>
7152

> <PUBCHEM_CONFORMER_RMSD>
0.6

> <PUBCHEM_CONFORMER_DIVERSEORDER>
1
40
9
19
51
54
6
8
57
43
56
33
52
41
30
29
5
53
50
38
46
10
58
14
44
55
48
26
21
17
27
25
24
45
49
47
22
42
11
18
32
13
34
28
31
39
20
2
12
35
16
4
15
7
37
36
3
23

> <PUBCHEM_MMFF94_PARTIAL_CHARGES>
15
1 -0.68
10 0.28
11 0.66
12 0.66
2 -0.65
21 0.4
22 0.5
23 0.5
3 -0.65
4 -0.57
5 -0.57
6 -0.81
7 0.27
8 0.33
9 0.33

> <PUBCHEM_EFFECTIVE_ROTOR_COUNT>
6

> <PUBCHEM_PHARMACOPHORE_FEATURES>
9
1 1 acceptor
1 1 donor
1 2 acceptor
1 3 acceptor
1 4 acceptor
1 5 acceptor
1 6 cation
3 2 4 11 anion
3 3 5 12 anion

> <PUBCHEM_HEAVY_ATOM_COUNT>
12

> <PUBCHEM_ATOM_DEF_STEREO_COUNT>
0

> <PUBCHEM_ATOM_UDEF_STEREO_COUNT>
0

> <PUBCHEM_BOND_DEF_STEREO_COUNT>
0

> <PUBCHEM_BOND_UDEF_STEREO_COUNT>
0

> <PUBCHEM_ISOTOPIC_ATOM_COUNT>
0

> <PUBCHEM_COMPONENT_COUNT>
1

> <PUBCHEM_CACTVS_TAUTO_COUNT>
1

> <PUBCHEM_CONFORMER_ID>
00001BF000000001

> <PUBCHEM_MMFF94_ENERGY>
22.7156

> <PUBCHEM_FEATURE_SELFOVERLAP>
45.785

> <PUBCHEM_SHAPE_FINGERPRINT>
1 1 18266460910363028862
100427 49 18266458887433555730
12716758 59 17614271174638259840
14817 1 12934304319941607604
16945 1 18409173207348220610
18410436 195 18191589859248217786
19021347 4 17904764375636830914
20711985 327 18188776183244482590
20711985 344 17548148074030330994
21028194 46 17983304720376141769
21040471 1 17834109749814485296
21061003 4 18268705198400693979
23552423 10 18336263462098238855
2748010 2 18122638411423558326
305870 269 18335702676528805537
7364860 26 18335137583339074763
81228 2 17546441640726873018

> <PUBCHEM_SHAPE_MULTIPOLES>
212.63
3.76
2.97
0.96
2.8
0.37
-0.16
0.79
0.11
-3.59
-0.09
0.22
-0.34
0

> <PUBCHEM_SHAPE_SELFOVERLAP>
406.967

> <PUBCHEM_SHAPE_VOLUME>
130.5

> <PUBCHEM_COORDINATE_TYPE>
2
5
10

$$$$

