5505
  -OEChem-07051212533D

 36 36  0     0  0  0  0  0  0999 V2000
    1.0779    2.1150    0.2777 S   0  0  0  0  0  0  0  0  0  0  0  0
    1.0725    2.7600   -1.0211 O   0  0  0  0  0  0  0  0  0  0  0  0
    1.7013    2.7605    1.4168 O   0  0  0  0  0  0  0  0  0  0  0  0
   -1.3548    1.2564   -1.4519 O   0  0  0  0  0  0  0  0  0  0  0  0
   -2.7377    0.9669    0.3790 N   0  0  0  0  0  0  0  0  0  0  0  0
   -0.5174    1.6602    0.6908 N   0  0  0  0  0  0  0  0  0  0  0  0
   -3.9754   -0.9538   -0.5379 C   0  0  0  0  0  0  0  0  0  0  0  0
   -3.9106    0.5573   -0.3427 C   0  0  0  0  0  0  0  0  0  0  0  0
   -4.0272   -1.7163    0.7879 C   0  0  0  0  0  0  0  0  0  0  0  0
    1.8462    0.5329    0.1031 C   0  0  0  0  0  0  0  0  0  0  0  0
   -4.1521   -3.2150    0.5620 C   0  0  0  0  0  0  0  0  0  0  0  0
   -1.5396    1.2875   -0.2389 C   0  0  0  0  0  0  0  0  0  0  0  0
    1.8411   -0.0874   -1.1344 C   0  0  0  0  0  0  0  0  0  0  0  0
    2.4386   -0.0569    1.2063 C   0  0  0  0  0  0  0  0  0  0  0  0
    3.0487   -1.9453   -0.1719 C   0  0  0  0  0  0  0  0  0  0  0  0
    2.4470   -1.3362   -1.2729 C   0  0  0  0  0  0  0  0  0  0  0  0
    3.0445   -1.3057    1.0678 C   0  0  0  0  0  0  0  0  0  0  0  0
    3.6970   -3.2803   -0.3197 C   0  0  0  0  0  0  0  0  0  0  0  0
   -3.1046   -1.2890   -1.1150 H   0  0  0  0  0  0  0  0  0  0  0  0
   -4.8657   -1.1931   -1.1318 H   0  0  0  0  0  0  0  0  0  0  0  0
   -4.7807    0.9074    0.2228 H   0  0  0  0  0  0  0  0  0  0  0  0
   -3.9233    1.0546   -1.3187 H   0  0  0  0  0  0  0  0  0  0  0  0
   -4.8807   -1.3706    1.3825 H   0  0  0  0  0  0  0  0  0  0  0  0
   -3.1221   -1.5231    1.3746 H   0  0  0  0  0  0  0  0  0  0  0  0
   -2.7884    1.0187    1.3918 H   0  0  0  0  0  0  0  0  0  0  0  0
   -3.2976   -3.5985   -0.0046 H   0  0  0  0  0  0  0  0  0  0  0  0
   -4.1877   -3.7412    1.5211 H   0  0  0  0  0  0  0  0  0  0  0  0
   -5.0664   -3.4539    0.0096 H   0  0  0  0  0  0  0  0  0  0  0  0
   -0.7689    1.6973    1.6867 H   0  0  0  0  0  0  0  0  0  0  0  0
    1.3752    0.3685   -2.0024 H   0  0  0  0  0  0  0  0  0  0  0  0
    2.4395    0.4205    2.1813 H   0  0  0  0  0  0  0  0  0  0  0  0
    2.4446   -1.8241   -2.2440 H   0  0  0  0  0  0  0  0  0  0  0  0
    3.5102   -1.7703    1.9330 H   0  0  0  0  0  0  0  0  0  0  0  0
    3.6338   -3.8552    0.6104 H   0  0  0  0  0  0  0  0  0  0  0  0
    3.2053   -3.8746   -1.0973 H   0  0  0  0  0  0  0  0  0  0  0  0
    4.7517   -3.1582   -0.5859 H   0  0  0  0  0  0  0  0  0  0  0  0
  1  2  2  0  0  0  0
  1  3  2  0  0  0  0
  1  6  1  0  0  0  0
  1 10  1  0  0  0  0
  4 12  2  0  0  0  0
  5  8  1  0  0  0  0
  5 12  1  0  0  0  0
  5 25  1  0  0  0  0
  6 12  1  0  0  0  0
  6 29  1  0  0  0  0
  7  8  1  0  0  0  0
  7  9  1  0  0  0  0
  7 19  1  0  0  0  0
  7 20  1  0  0  0  0
  8 21  1  0  0  0  0
  8 22  1  0  0  0  0
  9 11  1  0  0  0  0
  9 23  1  0  0  0  0
  9 24  1  0  0  0  0
 10 13  2  0  0  0  0
 10 14  1  0  0  0  0
 11 26  1  0  0  0  0
 11 27  1  0  0  0  0
 11 28  1  0  0  0  0
 13 16  1  0  0  0  0
 13 30  1  0  0  0  0
 14 17  2  0  0  0  0
 14 31  1  0  0  0  0
 15 16  2  0  0  0  0
 15 17  1  0  0  0  0
 15 18  1  0  0  0  0
 16 32  1  0  0  0  0
 17 33  1  0  0  0  0
 18 34  1  0  0  0  0
 18 35  1  0  0  0  0
 18 36  1  0  0  0  0
M  END
> <PUBCHEM_COMPOUND_CID>
5505

> <PUBCHEM_CONFORMER_RMSD>
0.8

> <PUBCHEM_CONFORMER_DIVERSEORDER>
1
71
48
37
46
18
25
7
51
35
65
31
26
57
49
30
47
4
38
32
36
22
55
20
27
23
33
24
9
67
64
11
61
58
63
34
15
17
68
8
28
44
6
16
60
13
29
19
21
50
40
43
54
52
56
3
66
42
12
59
39
53
62
10
70
5
14
41
45
72
2
69

> <PUBCHEM_MMFF94_PARTIAL_CHARGES>
21
1 1.45
10 -0.01
12 0.87
13 -0.15
14 -0.15
15 -0.14
16 -0.15
17 -0.15
18 0.14
2 -0.65
25 0.37
29 0.42
3 -0.65
30 0.15
31 0.15
32 0.15
33 0.15
4 -0.57
5 -0.73
6 -0.79
8 0.3

> <PUBCHEM_EFFECTIVE_ROTOR_COUNT>
7

> <PUBCHEM_PHARMACOPHORE_FEATURES>
7
1 11 hydrophobe
1 2 acceptor
1 3 acceptor
1 4 acceptor
1 5 donor
1 6 donor
6 10 13 14 15 16 17 rings

> <PUBCHEM_HEAVY_ATOM_COUNT>
18

> <PUBCHEM_ATOM_DEF_STEREO_COUNT>
0

> <PUBCHEM_ATOM_UDEF_STEREO_COUNT>
0

> <PUBCHEM_BOND_DEF_STEREO_COUNT>
0

> <PUBCHEM_BOND_UDEF_STEREO_COUNT>
0

> <PUBCHEM_ISOTOPIC_ATOM_COUNT>
0

> <PUBCHEM_COMPONENT_COUNT>
1

> <PUBCHEM_CACTVS_TAUTO_COUNT>
3

> <PUBCHEM_CONFORMER_ID>
0000158100000001

> <PUBCHEM_MMFF94_ENERGY>
8.8497

> <PUBCHEM_FEATURE_SELFOVERLAP>
35.581

> <PUBCHEM_SHAPE_FINGERPRINT>
117890 22 18410293571533114891
12006461 19 18410293648541566473
12363563 72 18336546139296403854
12506688 2 18408039611060521561
12596599 1 18408878560176571923
12633257 1 18189602999320157099
12969540 37 18411703153750166526
13257819 37 17481122528686897844
13533116 47 18262516993094836115
13911882 115 18259989288555536170
14251705 54 18409448085445529807
14251731 5 18412819196839290987
14863182 85 17908978807985369181
15352361 1 18410012182123661591
15422964 175 18262807379231815692
15635459 17 18125435320197600819
18186145 218 11743845780763122469
20291156 8 18339078314601604214
20645477 70 18336841784003149077
21864079 5 8934994850442565459
221490 88 18411416185346799531
23379529 103 18192418891343570278
23503958 25 8358253804389122999
23559900 14 18412831257223281877
314173 41 18341047505767549299
5486654 36 18339062900428112123
5902787 121 18411702118552128945
6433294 58 18267582408097971155
7987 15 18265873844501290443
9709674 26 18410301285473375815

> <PUBCHEM_SHAPE_MULTIPOLES>
346.71
8.27
3.82
1.27
8.13
1.06
-0.04
8.02
0.55
-0.75
0.37
-0.54
-0.2
1.2

> <PUBCHEM_SHAPE_SELFOVERLAP>
684.293

> <PUBCHEM_SHAPE_VOLUME>
207

> <PUBCHEM_COORDINATE_TYPE>
2
5
10

$$$$

