5282316
  -OEChem-07051213043D

 54 53  0     0  0  0  0  0  0999 V2000
   -6.9870    1.2666    0.4377 O   0  0  0  0  0  0  0  0  0  0  0  0
   -5.8071    0.0349    1.9347 O   0  0  0  0  0  0  0  0  0  0  0  0
    5.8945    0.2473   -0.9054 O   0  5  0  0  0  0  0  0  0  0  0  0
    6.3677   -0.4595    1.1262 O   0  0  0  0  0  0  0  0  0  0  0  0
    5.5941   -0.0485    0.2556 N   0  3  0  0  0  0  0  0  0  0  0  0
   -2.5816   -2.0970   -0.4405 C   0  0  0  0  0  0  0  0  0  0  0  0
   -1.2830   -1.3364   -0.7203 C   0  0  0  0  0  0  0  0  0  0  0  0
   -3.7921   -1.1660   -0.5079 C   0  0  0  0  0  0  0  0  0  0  0  0
   -0.0668   -2.2616   -0.6169 C   0  0  0  0  0  0  0  0  0  0  0  0
   -5.1291   -1.8532   -0.2039 C   0  0  0  0  0  0  0  0  0  0  0  0
    1.2629   -1.5582   -0.9071 C   0  0  0  0  0  0  0  0  0  0  0  0
   -6.3387   -0.9161   -0.2432 C   0  0  0  0  0  0  0  0  0  0  0  0
    1.6350    2.3622   -0.3559 C   0  0  0  0  0  0  0  0  0  0  0  0
    0.2435    2.9174   -0.0351 C   0  0  0  0  0  0  0  0  0  0  0  0
    2.3621    1.7967    0.8672 C   0  0  0  0  0  0  0  0  0  0  0  0
    2.4530   -2.4667   -0.7781 C   0  0  0  0  0  0  0  0  0  0  0  0
   -0.5552    3.4437   -1.2300 C   0  0  0  0  0  0  0  0  0  0  0  0
    3.5782   -1.1600    1.1145 C   0  0  0  0  0  0  0  0  0  0  0  0
    3.4440   -2.2729    0.1064 C   0  0  0  0  0  0  0  0  0  0  0  0
    3.7520    1.3474    0.5068 C   0  0  0  0  0  0  0  0  0  0  0  0
    4.2206    0.0979    0.6264 C   0  0  0  0  0  0  0  0  0  0  0  0
   -6.3211    0.1493    0.8306 C   0  0  0  0  0  0  0  0  0  0  0  0
   -1.9462    3.9328   -0.8615 C   0  0  0  0  0  0  0  0  0  0  0  0
   -2.7014   -2.9081   -1.1686 H   0  0  0  0  0  0  0  0  0  0  0  0
   -2.5318   -2.5581    0.5533 H   0  0  0  0  0  0  0  0  0  0  0  0
   -1.1742   -0.5117   -0.0055 H   0  0  0  0  0  0  0  0  0  0  0  0
   -1.3225   -0.8930   -1.7225 H   0  0  0  0  0  0  0  0  0  0  0  0
   -3.8447   -0.7159   -1.5072 H   0  0  0  0  0  0  0  0  0  0  0  0
   -3.6399   -0.3408    0.1980 H   0  0  0  0  0  0  0  0  0  0  0  0
   -0.1910   -3.1002   -1.3143 H   0  0  0  0  0  0  0  0  0  0  0  0
   -0.0320   -2.6947    0.3913 H   0  0  0  0  0  0  0  0  0  0  0  0
   -5.0700   -2.3290    0.7828 H   0  0  0  0  0  0  0  0  0  0  0  0
   -5.2872   -2.6572   -0.9330 H   0  0  0  0  0  0  0  0  0  0  0  0
    1.2457   -1.1708   -1.9334 H   0  0  0  0  0  0  0  0  0  0  0  0
    1.3409   -0.6860   -0.2571 H   0  0  0  0  0  0  0  0  0  0  0  0
   -6.3773   -0.4282   -1.2242 H   0  0  0  0  0  0  0  0  0  0  0  0
   -7.2602   -1.4945   -0.1159 H   0  0  0  0  0  0  0  0  0  0  0  0
    2.2352    3.1648   -0.8040 H   0  0  0  0  0  0  0  0  0  0  0  0
    1.5403    1.5821   -1.1213 H   0  0  0  0  0  0  0  0  0  0  0  0
   -0.3414    2.1265    0.4520 H   0  0  0  0  0  0  0  0  0  0  0  0
    0.3469    3.7232    0.7027 H   0  0  0  0  0  0  0  0  0  0  0  0
    2.4483    2.5795    1.6309 H   0  0  0  0  0  0  0  0  0  0  0  0
    1.7647    0.9981    1.3145 H   0  0  0  0  0  0  0  0  0  0  0  0
    2.5083   -3.3184   -1.4509 H   0  0  0  0  0  0  0  0  0  0  0  0
   -0.6472    2.6489   -1.9799 H   0  0  0  0  0  0  0  0  0  0  0  0
   -0.0007    4.2633   -1.7019 H   0  0  0  0  0  0  0  0  0  0  0  0
    4.1475   -1.5535    1.9683 H   0  0  0  0  0  0  0  0  0  0  0  0
    2.5939   -0.9541    1.5483 H   0  0  0  0  0  0  0  0  0  0  0  0
    4.4026    2.1455    0.1494 H   0  0  0  0  0  0  0  0  0  0  0  0
    4.2634   -2.9902    0.0944 H   0  0  0  0  0  0  0  0  0  0  0  0
   -2.5409    3.1244   -0.4241 H   0  0  0  0  0  0  0  0  0  0  0  0
   -2.4693    4.2980   -1.7507 H   0  0  0  0  0  0  0  0  0  0  0  0
   -1.8929    4.7510   -0.1365 H   0  0  0  0  0  0  0  0  0  0  0  0
   -6.9907    1.9545    1.1370 H   0  0  0  0  0  0  0  0  0  0  0  0
  1 22  1  0  0  0  0
  1 54  1  0  0  0  0
  2 22  2  0  0  0  0
  3  5  1  0  0  0  0
  4  5  2  0  0  0  0
  5 21  1  0  0  0  0
  6  7  1  0  0  0  0
  6  8  1  0  0  0  0
  6 24  1  0  0  0  0
  6 25  1  0  0  0  0
  7  9  1  0  0  0  0
  7 26  1  0  0  0  0
  7 27  1  0  0  0  0
  8 10  1  0  0  0  0
  8 28  1  0  0  0  0
  8 29  1  0  0  0  0
  9 11  1  0  0  0  0
  9 30  1  0  0  0  0
  9 31  1  0  0  0  0
 10 12  1  0  0  0  0
 10 32  1  0  0  0  0
 10 33  1  0  0  0  0
 11 16  1  0  0  0  0
 11 34  1  0  0  0  0
 11 35  1  0  0  0  0
 12 22  1  0  0  0  0
 12 36  1  0  0  0  0
 12 37  1  0  0  0  0
 13 14  1  0  0  0  0
 13 15  1  0  0  0  0
 13 38  1  0  0  0  0
 13 39  1  0  0  0  0
 14 17  1  0  0  0  0
 14 40  1  0  0  0  0
 14 41  1  0  0  0  0
 15 20  1  0  0  0  0
 15 42  1  0  0  0  0
 15 43  1  0  0  0  0
 16 19  2  0  0  0  0
 16 44  1  0  0  0  0
 17 23  1  0  0  0  0
 17 45  1  0  0  0  0
 17 46  1  0  0  0  0
 18 19  1  0  0  0  0
 18 21  1  0  0  0  0
 18 47  1  0  0  0  0
 18 48  1  0  0  0  0
 19 50  1  0  0  0  0
 20 21  2  0  0  0  0
 20 49  1  0  0  0  0
 23 51  1  0  0  0  0
 23 52  1  0  0  0  0
 23 53  1  0  0  0  0
M  CHG  2   3  -1   5   1
M  END
> <PUBCHEM_COMPOUND_CID>
5282316

> <PUBCHEM_CONFORMER_RMSD>
1.4

> <PUBCHEM_CONFORMER_DIVERSEORDER>
1
56
71
81
15
38
73
14
28
70
30
4
82
79
48
75
59
85
2
77
31
32
61
65
34
84
72
41
9
3
42
36
55
50
10
44
78
24
43
47
23
12
66
63
19
6
58
20
76
45
80
46
51
57
27
49
53
35
22
37
69
40
67
13
83
25
11
5
7
17
18
8
60
39
29
16
74
33
64
52
26
68
21
62
54

> <PUBCHEM_MMFF94_PARTIAL_CHARGES>
18
1 -0.65
11 0.14
12 0.06
15 0.14
16 -0.29
18 0.28
19 -0.29
2 -0.57
20 -0.29
21 0.07
22 0.66
3 -0.52
4 -0.52
44 0.15
49 0.15
5 0.84
50 0.15
54 0.5

> <PUBCHEM_EFFECTIVE_ROTOR_COUNT>
15

> <PUBCHEM_PHARMACOPHORE_FEATURES>
8
1 1 acceptor
1 2 acceptor
1 23 hydrophobe
1 3 acceptor
1 3 anion
1 4 acceptor
3 1 2 22 anion
5 13 14 15 17 20 hydrophobe

> <PUBCHEM_HEAVY_ATOM_COUNT>
23

> <PUBCHEM_ATOM_DEF_STEREO_COUNT>
0

> <PUBCHEM_ATOM_UDEF_STEREO_COUNT>
0

> <PUBCHEM_BOND_DEF_STEREO_COUNT>
2

> <PUBCHEM_BOND_UDEF_STEREO_COUNT>
0

> <PUBCHEM_ISOTOPIC_ATOM_COUNT>
0

> <PUBCHEM_COMPONENT_COUNT>
1

> <PUBCHEM_CACTVS_TAUTO_COUNT>
1

> <PUBCHEM_CONFORMER_ID>
00509A0C00000001

> <PUBCHEM_MMFF94_ENERGY>
17.7895

> <PUBCHEM_FEATURE_SELFOVERLAP>
40.733

> <PUBCHEM_SHAPE_FINGERPRINT>
10688039 33 18202289112509280108
12422481 6 18334294310103853809
12596602 18 14548746109528232414
13075007 39 17916572134566670163
13561361 72 18267872859561241297
20621476 7 18410296886915356845
5283268 108 18412830200344517126

> <PUBCHEM_SHAPE_MULTIPOLES>
444.87
16.43
4.29
1.19
15.63
4.11
-0.23
-3.39
-5.95
0.6
1.66
0.31
0.18
-0.11

> <PUBCHEM_SHAPE_SELFOVERLAP>
839.412

> <PUBCHEM_SHAPE_VOLUME>
274.8

> <PUBCHEM_COORDINATE_TYPE>
2
5
10

$$$$

