439790
  -OEChem-07051212473D

 24 23  0     0  0  0  0  0  0999 V2000
    1.8137    1.3768   -0.0146 O   0  0  0  0  0  0  0  0  0  0  0  0
    2.8098   -0.7181    0.0084 N   0  0  0  0  0  0  0  0  0  0  0  0
   -0.8170    0.3195    0.0332 C   0  0  0  0  0  0  0  0  0  0  0  0
   -2.1316   -0.4641   -0.0260 C   0  0  0  0  0  0  0  0  0  0  0  0
   -3.3378    0.4747    0.0093 C   0  0  0  0  0  0  0  0  0  0  0  0
    0.4065   -0.5956    0.0278 C   0  0  0  0  0  0  0  0  0  0  0  0
   -4.6465   -0.2983   -0.0209 C   0  0  0  0  0  0  0  0  0  0  0  0
    1.7293    0.1519    0.0128 C   0  0  0  0  0  0  0  0  0  0  0  0
    4.1736   -0.2467   -0.0300 C   0  0  0  0  0  0  0  0  0  0  0  0
   -0.7981    0.9433    0.9356 H   0  0  0  0  0  0  0  0  0  0  0  0
   -0.7642    1.0058   -0.8214 H   0  0  0  0  0  0  0  0  0  0  0  0
   -2.1593   -1.0674   -0.9414 H   0  0  0  0  0  0  0  0  0  0  0  0
   -2.1809   -1.1587    0.8214 H   0  0  0  0  0  0  0  0  0  0  0  0
   -3.3027    1.1581   -0.8471 H   0  0  0  0  0  0  0  0  0  0  0  0
   -3.3055    1.0891    0.9165 H   0  0  0  0  0  0  0  0  0  0  0  0
    0.3888   -1.2408    0.9145 H   0  0  0  0  0  0  0  0  0  0  0  0
    0.3775   -1.2440   -0.8566 H   0  0  0  0  0  0  0  0  0  0  0  0
   -5.4953    0.3923    0.0039 H   0  0  0  0  0  0  0  0  0  0  0  0
   -4.7251   -0.9008   -0.9315 H   0  0  0  0  0  0  0  0  0  0  0  0
   -4.7273   -0.9671    0.8420 H   0  0  0  0  0  0  0  0  0  0  0  0
    2.6476   -1.7209   -0.0057 H   0  0  0  0  0  0  0  0  0  0  0  0
    4.8213   -1.0208    0.3878 H   0  0  0  0  0  0  0  0  0  0  0  0
    4.2736    0.6770    0.5458 H   0  0  0  0  0  0  0  0  0  0  0  0
    4.4454   -0.0597   -1.0719 H   0  0  0  0  0  0  0  0  0  0  0  0
  1  8  2  0  0  0  0
  2  8  1  0  0  0  0
  2  9  1  0  0  0  0
  2 21  1  0  0  0  0
  3  4  1  0  0  0  0
  3  6  1  0  0  0  0
  3 10  1  0  0  0  0
  3 11  1  0  0  0  0
  4  5  1  0  0  0  0
  4 12  1  0  0  0  0
  4 13  1  0  0  0  0
  5  7  1  0  0  0  0
  5 14  1  0  0  0  0
  5 15  1  0  0  0  0
  6  8  1  0  0  0  0
  6 16  1  0  0  0  0
  6 17  1  0  0  0  0
  7 18  1  0  0  0  0
  7 19  1  0  0  0  0
  7 20  1  0  0  0  0
  9 22  1  0  0  0  0
  9 23  1  0  0  0  0
  9 24  1  0  0  0  0
M  END
> <PUBCHEM_COMPOUND_CID>
439790

> <PUBCHEM_CONFORMER_RMSD>
0.6

> <PUBCHEM_CONFORMER_DIVERSEORDER>
1
41
5
42
36
45
19
22
32
4
44
40
43
7
23
8
15
2
34
27
14
18
26
17
35
10
3
30
20
39
25
24
21
13
31
6
16
29
38
11
28
12
9
33
37

> <PUBCHEM_MMFF94_PARTIAL_CHARGES>
6
1 -0.57
2 -0.73
21 0.37
6 0.06
8 0.57
9 0.3

> <PUBCHEM_EFFECTIVE_ROTOR_COUNT>
5

> <PUBCHEM_PHARMACOPHORE_FEATURES>
4
1 1 acceptor
1 2 donor
1 7 hydrophobe
4 3 4 5 6 hydrophobe

> <PUBCHEM_HEAVY_ATOM_COUNT>
9

> <PUBCHEM_ATOM_DEF_STEREO_COUNT>
0

> <PUBCHEM_ATOM_UDEF_STEREO_COUNT>
0

> <PUBCHEM_BOND_DEF_STEREO_COUNT>
0

> <PUBCHEM_BOND_UDEF_STEREO_COUNT>
0

> <PUBCHEM_ISOTOPIC_ATOM_COUNT>
0

> <PUBCHEM_COMPONENT_COUNT>
1

> <PUBCHEM_CACTVS_TAUTO_COUNT>
2

> <PUBCHEM_CONFORMER_ID>
0006B5EE00000001

> <PUBCHEM_MMFF94_ENERGY>
0.4416

> <PUBCHEM_FEATURE_SELFOVERLAP>
20.297

> <PUBCHEM_SHAPE_FINGERPRINT>
11062470 55 7709457225633978919
12932764 1 16988296295452409763
14123238 8 18187366523358797207
14325111 11 18410856529939002371
17834076 25 16008749104565588930
18342897 14 18409729577512153136
190213 19 17822009817914170699
20645477 70 18338234980978774662
20719005 15 18410573981320804931
21119208 17 18333450949924470167
23402539 116 17530972405925629125
3248919 1 16660912305988067671

> <PUBCHEM_SHAPE_MULTIPOLES>
174.37
8.47
0.93
0.6
2.54
0.17
0
-0.78
0.11
-0.26
0
0.05
-0.01
-0.01

> <PUBCHEM_SHAPE_SELFOVERLAP>
311.499

> <PUBCHEM_SHAPE_VOLUME>
113.7

> <PUBCHEM_COORDINATE_TYPE>
2
5
10

$$$$

