14865953
  -OEChem-07051213102D

 41 42  0     1  0  0  0  0  0999 V2000
    2.1340    2.4330    0.0000 Br  0  0  0  0  0  0  0  0  0  0  0  0
    5.5981   -1.5670    0.0000 Br  0  0  0  0  0  0  0  0  0  0  0  0
    4.3660   -2.4330    0.0000 Cl  0  0  0  0  0  0  0  0  0  0  0  0
    3.8660    0.4330    0.0000 C   0  0  2  0  0  0  0  0  0  0  0  0
    3.0000    0.9330    0.0000 C   0  0  0  0  0  0  0  0  0  0  0  0
    4.7320   -0.0670    0.0000 C   0  0  0  0  0  0  0  0  0  0  0  0
    3.0000   -0.0670    0.0000 C   0  0  0  0  0  0  0  0  0  0  0  0
    3.0000    1.9330    0.0000 C   0  0  2  0  0  0  0  0  0  0  0  0
    4.7320    0.9330    0.0000 C   0  0  0  0  0  0  0  0  0  0  0  0
    4.7320   -1.0670    0.0000 C   0  0  1  0  0  0  0  0  0  0  0  0
    3.0000   -1.0670    0.0000 C   0  0  0  0  0  0  0  0  0  0  0  0
    3.8660   -1.5670    0.0000 C   0  0  2  0  0  0  0  0  0  0  0  0
    3.8660    2.4330    0.0000 C   0  0  0  0  0  0  0  0  0  0  0  0
    4.7320    1.9330    0.0000 C   0  0  0  0  0  0  0  0  0  0  0  0
    2.0000    0.9330    0.0000 C   0  0  0  0  0  0  0  0  0  0  0  0
    2.2340    0.2902    0.0000 C   0  0  0  0  0  0  0  0  0  0  0  0
    3.3660   -2.4330    0.0000 C   0  0  0  0  0  0  0  0  0  0  0  0
    5.5981    0.4330    0.0000 C   0  0  0  0  0  0  0  0  0  0  0  0
    5.3426   -0.1746    0.0000 H   0  0  0  0  0  0  0  0  0  0  0  0
    4.9441    0.5156    0.0000 H   0  0  0  0  0  0  0  0  0  0  0  0
    2.7880    0.5156    0.0000 H   0  0  0  0  0  0  0  0  0  0  0  0
    2.3894   -0.1746    0.0000 H   0  0  0  0  0  0  0  0  0  0  0  0
    3.0000    2.5530    0.0000 H   0  0  0  0  0  0  0  0  0  0  0  0
    4.7320   -1.6870    0.0000 H   0  0  0  0  0  0  0  0  0  0  0  0
    2.3894   -0.9593    0.0000 H   0  0  0  0  0  0  0  0  0  0  0  0
    2.7880   -1.6496    0.0000 H   0  0  0  0  0  0  0  0  0  0  0  0
    4.2646    2.9080    0.0000 H   0  0  0  0  0  0  0  0  0  0  0  0
    3.4675    2.9080    0.0000 H   0  0  0  0  0  0  0  0  0  0  0  0
    5.3426    1.8254    0.0000 H   0  0  0  0  0  0  0  0  0  0  0  0
    4.9441    2.5156    0.0000 H   0  0  0  0  0  0  0  0  0  0  0  0
    2.0000    1.5530    0.0000 H   0  0  0  0  0  0  0  0  0  0  0  0
    1.3800    0.9330    0.0000 H   0  0  0  0  0  0  0  0  0  0  0  0
    2.0000    0.3130    0.0000 H   0  0  0  0  0  0  0  0  0  0  0  0
    1.8354    0.7651    0.0000 H   0  0  0  0  0  0  0  0  0  0  0  0
    1.7590   -0.1083    0.0000 H   0  0  0  0  0  0  0  0  0  0  0  0
    2.6325   -0.1847    0.0000 H   0  0  0  0  0  0  0  0  0  0  0  0
    2.8291   -2.1230    0.0000 H   0  0  0  0  0  0  0  0  0  0  0  0
    3.0560   -2.9700    0.0000 H   0  0  0  0  0  0  0  0  0  0  0  0
    3.9030   -2.7430    0.0000 H   0  0  0  0  0  0  0  0  0  0  0  0
    5.5981   -0.1870    0.0000 H   0  0  0  0  0  0  0  0  0  0  0  0
    6.1350    0.7430    0.0000 H   0  0  0  0  0  0  0  0  0  0  0  0
  8  1  1  1  0  0  0
 10  2  1  6  0  0  0
 12  3  1  1  0  0  0
  4  5  1  0  0  0  0
  4  6  1  6  0  0  0
  4  7  1  0  0  0  0
  4  9  1  0  0  0  0
  5  8  1  0  0  0  0
  5 15  1  0  0  0  0
  5 16  1  0  0  0  0
  6 10  1  0  0  0  0
  6 19  1  0  0  0  0
  6 20  1  0  0  0  0
  7 11  1  0  0  0  0
  7 21  1  0  0  0  0
  7 22  1  0  0  0  0
  8 13  1  0  0  0  0
  8 23  1  0  0  0  0
  9 14  1  0  0  0  0
  9 18  2  0  0  0  0
 10 12  1  0  0  0  0
 10 24  1  0  0  0  0
 11 12  1  0  0  0  0
 11 25  1  0  0  0  0
 11 26  1  0  0  0  0
 12 17  1  0  0  0  0
 13 14  1  0  0  0  0
 13 27  1  0  0  0  0
 13 28  1  0  0  0  0
 14 29  1  0  0  0  0
 14 30  1  0  0  0  0
 15 31  1  0  0  0  0
 15 32  1  0  0  0  0
 15 33  1  0  0  0  0
 16 34  1  0  0  0  0
 16 35  1  0  0  0  0
 16 36  1  0  0  0  0
 17 37  1  0  0  0  0
 17 38  1  0  0  0  0
 17 39  1  0  0  0  0
 18 40  1  0  0  0  0
 18 41  1  0  0  0  0
M  END
> <PUBCHEM_COMPOUND_CID>
14865953

> <PUBCHEM_COMPOUND_CANONICALIZED>
1

> <PUBCHEM_CACTVS_COMPLEXITY>
366

> <PUBCHEM_CACTVS_HBOND_ACCEPTOR>
0

> <PUBCHEM_CACTVS_HBOND_DONOR>
0

> <PUBCHEM_CACTVS_ROTATABLE_BOND>
0

> <PUBCHEM_CACTVS_SUBSKEYS>
AAADceBwAAAEGAAAAAAAAAAAAAAAAAAAAAAwYAAAAAAAAAAAAAAAGAJAAAABzgKAAAACAAAAAACAAgBCAAAAAAAgAAAAAAAAAigAAAIBAQAAAAAAgAAAAAEAgMAPgAAAAAAAAACIAAAgACEABAAAAAAAAA==

> <PUBCHEM_IUPAC_OPENEYE_NAME>
(4S,6S,9S,10S)-4,10-dibromo-9-chloro-5,5,9-trimethyl-1-methylene-spiro[5.5]undecane

> <PUBCHEM_IUPAC_CAS_NAME>
(4S,6S,9S,10S)-4,10-dibromo-9-chloro-5,5,9-trimethyl-1-methylenespiro[5.5]undecane

> <PUBCHEM_IUPAC_NAME>
(4S,6S,9S,10S)-4,10-dibromo-9-chloro-5,5,9-trimethyl-1-methylidenespiro[5.5]undecane

> <PUBCHEM_IUPAC_SYSTEMATIC_NAME>
(4S,6S,9S,10S)-4,10-bis(bromanyl)-9-chloranyl-5,5,9-trimethyl-1-methylidene-spiro[5.5]undecane

> <PUBCHEM_IUPAC_TRADITIONAL_NAME>
(4S,6S,9S,10S)-4,10-dibromo-9-chloro-5,5,9-trimethyl-1-methylene-spiro[5.5]undecane

> <PUBCHEM_IUPAC_INCHI>
InChI=1S/C15H23Br2Cl/c1-10-5-6-11(16)13(2,3)15(10)8-7-14(4,18)12(17)9-15/h11-12H,1,5-9H2,2-4H3/t11-,12-,14-,15-/m0/s1

> <PUBCHEM_IUPAC_INCHIKEY>
REKADLCYCOKRRC-JURCDPSOSA-N

> <PUBCHEM_XLOGP3_AA>
5.7

> <PUBCHEM_EXACT_MASS>
397.983456

> <PUBCHEM_MOLECULAR_FORMULA>
C15H23Br2Cl

> <PUBCHEM_MOLECULAR_WEIGHT>
398.60412

> <PUBCHEM_OPENEYE_CAN_SMILES>
CC1(C(CCC(=C)C12CCC(C(C2)Br)(C)Cl)Br)C

> <PUBCHEM_OPENEYE_ISO_SMILES>
C[C@@]1(CC[C@]2(C[C@@H]1Br)C(=C)CC[C@@H](C2(C)C)Br)Cl

> <PUBCHEM_CACTVS_TPSA>
0

> <PUBCHEM_MONOISOTOPIC_WEIGHT>
395.985503

> <PUBCHEM_TOTAL_CHARGE>
0

> <PUBCHEM_HEAVY_ATOM_COUNT>
18

> <PUBCHEM_ATOM_DEF_STEREO_COUNT>
4

> <PUBCHEM_ATOM_UDEF_STEREO_COUNT>
0

> <PUBCHEM_BOND_DEF_STEREO_COUNT>
0

> <PUBCHEM_BOND_UDEF_STEREO_COUNT>
0

> <PUBCHEM_ISOTOPIC_ATOM_COUNT>
0

> <PUBCHEM_COMPONENT_COUNT>
1

> <PUBCHEM_CACTVS_TAUTO_COUNT>
1

> <PUBCHEM_COORDINATE_TYPE>
1
5
255

> <PUBCHEM_BONDANNOTATIONS>
8  1  5
10  2  6
12  3  5
4  6  6

$$$$

