5858445
  -OEChem-07051213142D

 31 33  0     0  0  0  0  0  0999 V2000
    2.0000    1.2327    0.0000 O   0  0  0  0  0  0  0  0  0  0  0  0
    3.7320    0.2327    0.0000 N   0  0  0  0  0  0  0  0  0  0  0  0
    2.8660   -0.2673    0.0000 N   0  0  0  0  0  0  0  0  0  0  0  0
    4.5981    1.7327    0.0000 C   0  0  0  0  0  0  0  0  0  0  0  0
    4.5981    2.7327    0.0000 C   0  0  0  0  0  0  0  0  0  0  0  0
    3.7320    1.2327    0.0000 C   0  0  0  0  0  0  0  0  0  0  0  0
    5.4920    1.1980    0.0000 C   0  0  0  0  0  0  0  0  0  0  0  0
    3.7320    3.2327    0.0000 C   0  0  0  0  0  0  0  0  0  0  0  0
    5.4920    3.2673    0.0000 C   0  0  0  0  0  0  0  0  0  0  0  0
    2.8660    1.7327    0.0000 C   0  0  0  0  0  0  0  0  0  0  0  0
    2.8660    2.7327    0.0000 C   0  0  0  0  0  0  0  0  0  0  0  0
    6.3981    1.7118    0.0000 C   0  0  0  0  0  0  0  0  0  0  0  0
    6.3981    2.7535    0.0000 C   0  0  0  0  0  0  0  0  0  0  0  0
    2.8660   -1.2673    0.0000 C   0  0  0  0  0  0  0  0  0  0  0  0
    2.0000   -1.7673    0.0000 C   0  0  0  0  0  0  0  0  0  0  0  0
    3.7320   -1.7673    0.0000 C   0  0  0  0  0  0  0  0  0  0  0  0
    2.0000   -2.7673    0.0000 C   0  0  0  0  0  0  0  0  0  0  0  0
    3.7320   -2.7673    0.0000 C   0  0  0  0  0  0  0  0  0  0  0  0
    2.8660   -3.2673    0.0000 C   0  0  0  0  0  0  0  0  0  0  0  0
    5.4848    0.5780    0.0000 H   0  0  0  0  0  0  0  0  0  0  0  0
    3.7320    3.8527    0.0000 H   0  0  0  0  0  0  0  0  0  0  0  0
    5.4848    3.8873    0.0000 H   0  0  0  0  0  0  0  0  0  0  0  0
    2.3291    3.0427    0.0000 H   0  0  0  0  0  0  0  0  0  0  0  0
    6.9338    1.3998    0.0000 H   0  0  0  0  0  0  0  0  0  0  0  0
    6.9338    3.0656    0.0000 H   0  0  0  0  0  0  0  0  0  0  0  0
    2.3291    0.0427    0.0000 H   0  0  0  0  0  0  0  0  0  0  0  0
    1.4631   -1.4573    0.0000 H   0  0  0  0  0  0  0  0  0  0  0  0
    4.2690   -1.4573    0.0000 H   0  0  0  0  0  0  0  0  0  0  0  0
    1.4631   -3.0773    0.0000 H   0  0  0  0  0  0  0  0  0  0  0  0
    4.2690   -3.0773    0.0000 H   0  0  0  0  0  0  0  0  0  0  0  0
    2.8660   -3.8873    0.0000 H   0  0  0  0  0  0  0  0  0  0  0  0
  1 10  2  0  0  0  0
  2  3  1  0  0  0  0
  2  6  2  0  0  0  0
  3 14  1  0  0  0  0
  3 26  1  0  0  0  0
  4  5  1  0  0  0  0
  4  6  1  0  0  0  0
  4  7  2  0  0  0  0
  5  8  1  0  0  0  0
  5  9  2  0  0  0  0
  6 10  1  0  0  0  0
  7 12  1  0  0  0  0
  7 20  1  0  0  0  0
  8 11  2  0  0  0  0
  8 21  1  0  0  0  0
  9 13  1  0  0  0  0
  9 22  1  0  0  0  0
 10 11  1  0  0  0  0
 11 23  1  0  0  0  0
 12 13  2  0  0  0  0
 12 24  1  0  0  0  0
 13 25  1  0  0  0  0
 14 15  2  0  0  0  0
 14 16  1  0  0  0  0
 15 17  1  0  0  0  0
 15 27  1  0  0  0  0
 16 18  2  0  0  0  0
 16 28  1  0  0  0  0
 17 19  2  0  0  0  0
 17 29  1  0  0  0  0
 18 19  1  0  0  0  0
 18 30  1  0  0  0  0
 19 31  1  0  0  0  0
M  END
> <PUBCHEM_COMPOUND_CID>
5858445

> <PUBCHEM_COMPOUND_CANONICALIZED>
1

> <PUBCHEM_CACTVS_COMPLEXITY>
394

> <PUBCHEM_CACTVS_HBOND_ACCEPTOR>
3

> <PUBCHEM_CACTVS_HBOND_DONOR>
1

> <PUBCHEM_CACTVS_ROTATABLE_BOND>
2

> <PUBCHEM_CACTVS_SUBSKEYS>
AAADccB7IAAAAAAAAAAAAAAAAAAAAAAAAAAwYIAAAAAAAACBQAAAHgAYAAAADAyBmAAwwIBiAACoA6RyQACSBAAgAgAYiAEgZNgIILKAlZGAIABgmAAIyYcYiICOgAAAAAAQAAAAAAAAACAAAAAAAAAAAA==

> <PUBCHEM_IUPAC_OPENEYE_NAME>
(1Z)-1-(phenylhydrazono)naphthalen-2-one

> <PUBCHEM_IUPAC_CAS_NAME>
(1Z)-1-(phenylhydrazinylidene)-2-naphthalenone

> <PUBCHEM_IUPAC_NAME>
(1Z)-1-(phenylhydrazinylidene)naphthalen-2-one

> <PUBCHEM_IUPAC_SYSTEMATIC_NAME>
(1Z)-1-(phenylhydrazinylidene)naphthalen-2-one

> <PUBCHEM_IUPAC_TRADITIONAL_NAME>
(1Z)-1-(phenylhydrazono)naphthalen-2-one

> <PUBCHEM_IUPAC_INCHI>
InChI=1S/C16H12N2O/c19-15-11-10-12-6-4-5-9-14(12)16(15)18-17-13-7-2-1-3-8-13/h1-11,17H/b18-16-

> <PUBCHEM_IUPAC_INCHIKEY>
ZONYAPYTDIVJGG-VLGSPTGOSA-N

> <PUBCHEM_XLOGP3_AA>
3.6

> <PUBCHEM_EXACT_MASS>
248.094963

> <PUBCHEM_MOLECULAR_FORMULA>
C16H12N2O

> <PUBCHEM_MOLECULAR_WEIGHT>
248.27928

> <PUBCHEM_OPENEYE_CAN_SMILES>
C1=CC=C(C=C1)NN=C2C(=O)C=CC3=CC=CC=C32

> <PUBCHEM_OPENEYE_ISO_SMILES>
C1=CC=C(C=C1)N/N=C/2\C(=O)C=CC3=CC=CC=C32

> <PUBCHEM_CACTVS_TPSA>
41.5

> <PUBCHEM_MONOISOTOPIC_WEIGHT>
248.094963

> <PUBCHEM_TOTAL_CHARGE>
0

> <PUBCHEM_HEAVY_ATOM_COUNT>
19

> <PUBCHEM_ATOM_DEF_STEREO_COUNT>
0

> <PUBCHEM_ATOM_UDEF_STEREO_COUNT>
0

> <PUBCHEM_BOND_DEF_STEREO_COUNT>
1

> <PUBCHEM_BOND_UDEF_STEREO_COUNT>
0

> <PUBCHEM_ISOTOPIC_ATOM_COUNT>
0

> <PUBCHEM_COMPONENT_COUNT>
1

> <PUBCHEM_CACTVS_TAUTO_COUNT>
4

> <PUBCHEM_COORDINATE_TYPE>
1
5
255

> <PUBCHEM_BONDANNOTATIONS>
12  13  8
14  15  8
14  16  8
15  17  8
16  18  8
17  19  8
18  19  8
4  5  8
4  7  8
5  9  8
7  12  8
9  13  8

$$$$

