3973
  -OEChem-07051213062D

 40 43  0     0  0  0  0  0  0999 V2000
    2.0000   -0.9828    0.0000 O   0  0  0  0  0  0  0  0  0  0  0  0
    5.4641    0.0172    0.0000 O   0  0  0  0  0  0  0  0  0  0  0  0
    5.4641    3.0172    0.0000 O   0  0  0  0  0  0  0  0  0  0  0  0
    3.7320    0.0172    0.0000 N   0  0  0  0  0  0  0  0  0  0  0  0
    2.8660    0.5172    0.0000 C   0  0  0  0  0  0  0  0  0  0  0  0
    3.7320   -0.9828    0.0000 C   0  0  0  0  0  0  0  0  0  0  0  0
    2.8660   -1.4828    0.0000 C   0  0  0  0  0  0  0  0  0  0  0  0
    2.0000    0.0172    0.0000 C   0  0  0  0  0  0  0  0  0  0  0  0
    4.5981    0.5172    0.0000 C   0  0  0  0  0  0  0  0  0  0  0  0
    6.3301    0.5172    0.0000 C   0  0  0  0  0  0  0  0  0  0  0  0
    6.3301    1.5172    0.0000 C   0  0  0  0  0  0  0  0  0  0  0  0
    4.5981    1.5172    0.0000 C   0  0  0  0  0  0  0  0  0  0  0  0
    7.2241   -0.0174    0.0000 C   0  0  0  0  0  0  0  0  0  0  0  0
    5.4641    2.0172    0.0000 C   0  0  0  0  0  0  0  0  0  0  0  0
    7.2241    2.0519    0.0000 C   0  0  0  0  0  0  0  0  0  0  0  0
    7.2125   -1.0174    0.0000 C   0  0  0  0  0  0  0  0  0  0  0  0
    8.1301    0.4964    0.0000 C   0  0  0  0  0  0  0  0  0  0  0  0
    8.1301    1.5380    0.0000 C   0  0  0  0  0  0  0  0  0  0  0  0
    8.0727   -1.5273    0.0000 C   0  0  0  0  0  0  0  0  0  0  0  0
    6.3408   -1.5073    0.0000 C   0  0  0  0  0  0  0  0  0  0  0  0
    8.0611   -2.5273    0.0000 C   0  0  0  0  0  0  0  0  0  0  0  0
    6.3292   -2.5072    0.0000 C   0  0  0  0  0  0  0  0  0  0  0  0
    7.1894   -3.0172    0.0000 C   0  0  0  0  0  0  0  0  0  0  0  0
    3.2646    0.9922    0.0000 H   0  0  0  0  0  0  0  0  0  0  0  0
    2.4675    0.9922    0.0000 H   0  0  0  0  0  0  0  0  0  0  0  0
    3.9441   -1.5654    0.0000 H   0  0  0  0  0  0  0  0  0  0  0  0
    4.3426   -0.8751    0.0000 H   0  0  0  0  0  0  0  0  0  0  0  0
    2.4675   -1.9577    0.0000 H   0  0  0  0  0  0  0  0  0  0  0  0
    3.2646   -1.9577    0.0000 H   0  0  0  0  0  0  0  0  0  0  0  0
    1.7880    0.5998    0.0000 H   0  0  0  0  0  0  0  0  0  0  0  0
    1.3894   -0.0904    0.0000 H   0  0  0  0  0  0  0  0  0  0  0  0
    4.0611    1.8272    0.0000 H   0  0  0  0  0  0  0  0  0  0  0  0
    7.2169    2.6718    0.0000 H   0  0  0  0  0  0  0  0  0  0  0  0
    8.6659    0.1843    0.0000 H   0  0  0  0  0  0  0  0  0  0  0  0
    8.6659    1.8501    0.0000 H   0  0  0  0  0  0  0  0  0  0  0  0
    8.6132   -1.2236    0.0000 H   0  0  0  0  0  0  0  0  0  0  0  0
    5.8074   -1.1911    0.0000 H   0  0  0  0  0  0  0  0  0  0  0  0
    8.5944   -2.8435    0.0000 H   0  0  0  0  0  0  0  0  0  0  0  0
    5.7887   -2.8110    0.0000 H   0  0  0  0  0  0  0  0  0  0  0  0
    7.1822   -3.6372    0.0000 H   0  0  0  0  0  0  0  0  0  0  0  0
  1  7  1  0  0  0  0
  1  8  1  0  0  0  0
  2  9  1  0  0  0  0
  2 10  1  0  0  0  0
  3 14  2  0  0  0  0
  4  5  1  0  0  0  0
  4  6  1  0  0  0  0
  4  9  1  0  0  0  0
  5  8  1  0  0  0  0
  5 24  1  0  0  0  0
  5 25  1  0  0  0  0
  6  7  1  0  0  0  0
  6 26  1  0  0  0  0
  6 27  1  0  0  0  0
  7 28  1  0  0  0  0
  7 29  1  0  0  0  0
  8 30  1  0  0  0  0
  8 31  1  0  0  0  0
  9 12  2  0  0  0  0
 10 11  2  0  0  0  0
 10 13  1  0  0  0  0
 11 14  1  0  0  0  0
 11 15  1  0  0  0  0
 12 14  1  0  0  0  0
 12 32  1  0  0  0  0
 13 16  1  0  0  0  0
 13 17  2  0  0  0  0
 15 18  2  0  0  0  0
 15 33  1  0  0  0  0
 16 19  2  0  0  0  0
 16 20  1  0  0  0  0
 17 18  1  0  0  0  0
 17 34  1  0  0  0  0
 18 35  1  0  0  0  0
 19 21  1  0  0  0  0
 19 36  1  0  0  0  0
 20 22  2  0  0  0  0
 20 37  1  0  0  0  0
 21 23  2  0  0  0  0
 21 38  1  0  0  0  0
 22 23  1  0  0  0  0
 22 39  1  0  0  0  0
 23 40  1  0  0  0  0
M  END
> <PUBCHEM_COMPOUND_CID>
3973

> <PUBCHEM_COMPOUND_CANONICALIZED>
1

> <PUBCHEM_CACTVS_COMPLEXITY>
463

> <PUBCHEM_CACTVS_HBOND_ACCEPTOR>
4

> <PUBCHEM_CACTVS_HBOND_DONOR>
0

> <PUBCHEM_CACTVS_ROTATABLE_BOND>
2

> <PUBCHEM_CACTVS_SUBSKEYS>
AAADceB6MAAAAAAAAAAAAAAAAAAAAAAAAAA8YIEAAAAAAACBQAAAHgAAAAAADAThmAYwBoMABACIAqBSQAACCAAkIgAIiAEMCMgOJjaENRqLMWAk4BGYqceIyOCOgAACAAAIAAAAAAQAABAAAAAAAAAAAA==

> <PUBCHEM_IUPAC_OPENEYE_NAME>
2-morpholino-8-phenyl-chromen-4-one

> <PUBCHEM_IUPAC_CAS_NAME>
2-(4-morpholinyl)-8-phenyl-1-benzopyran-4-one

> <PUBCHEM_IUPAC_NAME>
2-morpholin-4-yl-8-phenylchromen-4-one

> <PUBCHEM_IUPAC_SYSTEMATIC_NAME>
2-morpholin-4-yl-8-phenyl-chromen-4-one

> <PUBCHEM_IUPAC_TRADITIONAL_NAME>
2-morpholino-8-phenyl-chromone

> <PUBCHEM_IUPAC_INCHI>
InChI=1S/C19H17NO3/c21-17-13-18(20-9-11-22-12-10-20)23-19-15(7-4-8-16(17)19)14-5-2-1-3-6-14/h1-8,13H,9-12H2

> <PUBCHEM_IUPAC_INCHIKEY>
CZQHHVNHHHRRDU-UHFFFAOYSA-N

> <PUBCHEM_XLOGP3_AA>
3.1

> <PUBCHEM_EXACT_MASS>
307.120843

> <PUBCHEM_MOLECULAR_FORMULA>
C19H17NO3

> <PUBCHEM_MOLECULAR_WEIGHT>
307.34318

> <PUBCHEM_OPENEYE_CAN_SMILES>
C1COCCN1C2=CC(=O)C3=C(O2)C(=CC=C3)C4=CC=CC=C4

> <PUBCHEM_OPENEYE_ISO_SMILES>
C1COCCN1C2=CC(=O)C3=C(O2)C(=CC=C3)C4=CC=CC=C4

> <PUBCHEM_CACTVS_TPSA>
38.8

> <PUBCHEM_MONOISOTOPIC_WEIGHT>
307.120843

> <PUBCHEM_TOTAL_CHARGE>
0

> <PUBCHEM_HEAVY_ATOM_COUNT>
23

> <PUBCHEM_ATOM_DEF_STEREO_COUNT>
0

> <PUBCHEM_ATOM_UDEF_STEREO_COUNT>
0

> <PUBCHEM_BOND_DEF_STEREO_COUNT>
0

> <PUBCHEM_BOND_UDEF_STEREO_COUNT>
0

> <PUBCHEM_ISOTOPIC_ATOM_COUNT>
0

> <PUBCHEM_COMPONENT_COUNT>
1

> <PUBCHEM_CACTVS_TAUTO_COUNT>
1

> <PUBCHEM_COORDINATE_TYPE>
1
5
255

> <PUBCHEM_BONDANNOTATIONS>
10  11  8
10  13  8
11  14  8
11  15  8
12  14  8
13  17  8
15  18  8
16  19  8
16  20  8
17  18  8
19  21  8
2  10  8
2  9  8
20  22  8
21  23  8
22  23  8
9  12  8

$$$$

