2784
  -OEChem-07051212542D

 52 55  0     1  0  0  0  0  0999 V2000
    5.3461   -0.1452    0.0000 O   0  0  0  0  0  0  0  0  0  0  0  0
    3.6730    0.3031    0.0000 O   0  0  0  0  0  0  0  0  0  0  0  0
    5.8637    1.2690    0.0000 O   0  0  0  0  0  0  0  0  0  0  0  0
    5.1990   -3.4256    0.0000 N   0  3  0  0  0  0  0  0  0  0  0  0
    5.4578   -2.4597    0.0000 C   0  0  0  0  0  0  0  0  0  0  0  0
    4.2212   -1.6111    0.0000 C   0  0  0  0  0  0  0  0  0  0  0  0
    5.0872   -1.1111    0.0000 C   0  0  3  0  0  0  0  0  0  0  0  0
    3.4670   -4.4256    0.0000 C   0  0  0  0  0  0  0  0  0  0  0  0
    7.0310   -4.1845    0.0000 C   0  0  0  0  0  0  0  0  0  0  0  0
    7.2898   -3.2185    0.0000 C   0  0  0  0  0  0  0  0  0  0  0  0
    2.9670   -3.5596    0.0000 C   0  0  0  0  0  0  0  0  0  0  0  0
    4.9402   -4.3916    0.0000 C   0  0  0  0  0  0  0  0  0  0  0  0
    4.6390    0.5619    0.0000 C   0  0  0  0  0  0  0  0  0  0  0  0
    4.8978    1.5279    0.0000 C   0  0  0  0  0  0  0  0  0  0  0  0
    5.1566    2.4938    0.0000 C   0  0  0  0  0  0  0  0  0  0  0  0
    3.9318    1.7867    0.0000 C   0  0  0  0  0  0  0  0  0  0  0  0
    3.6730    2.7526    0.0000 C   0  0  0  0  0  0  0  0  0  0  0  0
    6.1225    2.7526    0.0000 C   0  0  0  0  0  0  0  0  0  0  0  0
    3.2247    1.0796    0.0000 C   0  0  0  0  0  0  0  0  0  0  0  0
    4.4495    3.2009    0.0000 C   0  0  0  0  0  0  0  0  0  0  0  0
    2.7071    3.0114    0.0000 C   0  0  0  0  0  0  0  0  0  0  0  0
    6.3813    3.7185    0.0000 C   0  0  0  0  0  0  0  0  0  0  0  0
    2.2588    1.3384    0.0000 C   0  0  0  0  0  0  0  0  0  0  0  0
    4.7083    4.1668    0.0000 C   0  0  0  0  0  0  0  0  0  0  0  0
    2.0000    2.3043    0.0000 C   0  0  0  0  0  0  0  0  0  0  0  0
    5.6742    4.4256    0.0000 C   0  0  0  0  0  0  0  0  0  0  0  0
    5.4650   -3.0797    0.0000 H   0  0  0  0  0  0  0  0  0  0  0  0
    3.9165   -1.0711    0.0000 H   0  0  0  0  0  0  0  0  0  0  0  0
    3.6783   -1.9105    0.0000 H   0  0  0  0  0  0  0  0  0  0  0  0
    5.7072   -1.1091    0.0000 H   0  0  0  0  0  0  0  0  0  0  0  0
    2.9300   -4.7356    0.0000 H   0  0  0  0  0  0  0  0  0  0  0  0
    3.7770   -4.9626    0.0000 H   0  0  0  0  0  0  0  0  0  0  0  0
    6.8189   -4.7671    0.0000 H   0  0  0  0  0  0  0  0  0  0  0  0
    7.6223   -4.3709    0.0000 H   0  0  0  0  0  0  0  0  0  0  0  0
    2.6963   -3.0018    0.0000 H   0  0  0  0  0  0  0  0  0  0  0  0
    2.4192   -3.8501    0.0000 H   0  0  0  0  0  0  0  0  0  0  0  0
    7.8811   -3.4050    0.0000 H   0  0  0  0  0  0  0  0  0  0  0  0
    7.5018   -2.6359    0.0000 H   0  0  0  0  0  0  0  0  0  0  0  0
    4.3413   -4.2311    0.0000 H   0  0  0  0  0  0  0  0  0  0  0  0
    4.7797   -4.9904    0.0000 H   0  0  0  0  0  0  0  0  0  0  0  0
    5.5391   -4.5520    0.0000 H   0  0  0  0  0  0  0  0  0  0  0  0
    6.3021    1.7075    0.0000 H   0  0  0  0  0  0  0  0  0  0  0  0
    4.1114    3.1910    0.0000 H   0  0  0  0  0  0  0  0  0  0  0  0
    6.5609    2.3142    0.0000 H   0  0  0  0  0  0  0  0  0  0  0  0
    3.3852    0.4807    0.0000 H   0  0  0  0  0  0  0  0  0  0  0  0
    3.8506    3.0404    0.0000 H   0  0  0  0  0  0  0  0  0  0  0  0
    2.5466    3.6103    0.0000 H   0  0  0  0  0  0  0  0  0  0  0  0
    6.9802    3.8790    0.0000 H   0  0  0  0  0  0  0  0  0  0  0  0
    1.8204    0.9000    0.0000 H   0  0  0  0  0  0  0  0  0  0  0  0
    4.2699    4.6052    0.0000 H   0  0  0  0  0  0  0  0  0  0  0  0
    1.4011    2.4648    0.0000 H   0  0  0  0  0  0  0  0  0  0  0  0
    5.8347    5.0245    0.0000 H   0  0  0  0  0  0  0  0  0  0  0  0
  1  7  1  0  0  0  0
  1 13  1  0  0  0  0
  2 13  2  0  0  0  0
  3 14  1  0  0  0  0
  3 42  1  0  0  0  0
  4  6  1  0  0  0  0
  4  8  1  0  0  0  0
  4  9  1  0  0  0  0
  4 12  1  0  0  0  0
  5  7  1  0  0  0  0
  5 10  1  0  0  0  0
  5 11  1  0  0  0  0
  5 27  1  0  0  0  0
  6  7  1  0  0  0  0
  6 28  1  0  0  0  0
  6 29  1  0  0  0  0
  7 30  1  0  0  0  0
  8 11  1  0  0  0  0
  8 31  1  0  0  0  0
  8 32  1  0  0  0  0
  9 10  1  0  0  0  0
  9 33  1  0  0  0  0
  9 34  1  0  0  0  0
 10 37  1  0  0  0  0
 10 38  1  0  0  0  0
 11 35  1  0  0  0  0
 11 36  1  0  0  0  0
 12 39  1  0  0  0  0
 12 40  1  0  0  0  0
 12 41  1  0  0  0  0
 13 14  1  0  0  0  0
 14 15  1  0  0  0  0
 14 16  1  0  0  0  0
 15 18  2  0  0  0  0
 15 20  1  0  0  0  0
 16 17  2  0  0  0  0
 16 19  1  0  0  0  0
 17 21  1  0  0  0  0
 17 43  1  0  0  0  0
 18 22  1  0  0  0  0
 18 44  1  0  0  0  0
 19 23  2  0  0  0  0
 19 45  1  0  0  0  0
 20 24  2  0  0  0  0
 20 46  1  0  0  0  0
 21 25  2  0  0  0  0
 21 47  1  0  0  0  0
 22 26  2  0  0  0  0
 22 48  1  0  0  0  0
 23 25  1  0  0  0  0
 23 49  1  0  0  0  0
 24 26  1  0  0  0  0
 24 50  1  0  0  0  0
 25 51  1  0  0  0  0
 26 52  1  0  0  0  0
M  CHG  1   4   1
M  END
> <PUBCHEM_COMPOUND_CID>
2784

> <PUBCHEM_COMPOUND_CANONICALIZED>
1

> <PUBCHEM_CACTVS_COMPLEXITY>
482

> <PUBCHEM_CACTVS_HBOND_ACCEPTOR>
3

> <PUBCHEM_CACTVS_HBOND_DONOR>
1

> <PUBCHEM_CACTVS_ROTATABLE_BOND>
5

> <PUBCHEM_CACTVS_SUBSKEYS>
AAADceB6MAAAAAAAAAAAAAAAAAAAAAAAAAA8eLECAAAAAAABQAAAHgAACAAADVThmAYyCIMABgCIAiDSCAICAAAgAAAIiAFICIgLJjKAlRCHcAAkwAGbmAe4yOCOgAAAAAAAAAAAAAAAAAAAAAAAAAAAAA==

> <PUBCHEM_IUPAC_OPENEYE_NAME>
(1-methylquinuclidin-1-ium-3-yl) 2-hydroxy-2,2-diphenyl-acetate

> <PUBCHEM_IUPAC_CAS_NAME>
2-hydroxy-2,2-diphenylacetic acid (1-methyl-1-azoniabicyclo[2.2.2]octan-3-yl) ester

> <PUBCHEM_IUPAC_NAME>
(1-methyl-1-azoniabicyclo[2.2.2]octan-3-yl) 2-hydroxy-2,2-diphenylacetate

> <PUBCHEM_IUPAC_SYSTEMATIC_NAME>
(1-methyl-1-azoniabicyclo[2.2.2]octan-3-yl) 2-oxidanyl-2,2-diphenyl-ethanoate

> <PUBCHEM_IUPAC_TRADITIONAL_NAME>
2-hydroxy-2,2-diphenyl-acetic acid (1-methylquinuclidin-1-ium-3-yl) ester

> <PUBCHEM_IUPAC_INCHI>
InChI=1S/C22H26NO3/c1-23-14-12-17(13-15-23)20(16-23)26-21(24)22(25,18-8-4-2-5-9-18)19-10-6-3-7-11-19/h2-11,17,20,25H,12-16H2,1H3/q+1

> <PUBCHEM_IUPAC_INCHIKEY>
HOOSGZJRQIVJSZ-UHFFFAOYSA-N

> <PUBCHEM_XLOGP3_AA>
3.3

> <PUBCHEM_EXACT_MASS>
352.191269

> <PUBCHEM_MOLECULAR_FORMULA>
C22H26NO3+

> <PUBCHEM_MOLECULAR_WEIGHT>
352.44674

> <PUBCHEM_OPENEYE_CAN_SMILES>
C[N+]12CCC(CC1)C(C2)OC(=O)C(C3=CC=CC=C3)(C4=CC=CC=C4)O

> <PUBCHEM_OPENEYE_ISO_SMILES>
C[N+]12CCC(CC1)C(C2)OC(=O)C(C3=CC=CC=C3)(C4=CC=CC=C4)O

> <PUBCHEM_CACTVS_TPSA>
46.5

> <PUBCHEM_MONOISOTOPIC_WEIGHT>
352.191269

> <PUBCHEM_TOTAL_CHARGE>
1

> <PUBCHEM_HEAVY_ATOM_COUNT>
26

> <PUBCHEM_ATOM_DEF_STEREO_COUNT>
0

> <PUBCHEM_ATOM_UDEF_STEREO_COUNT>
1

> <PUBCHEM_BOND_DEF_STEREO_COUNT>
0

> <PUBCHEM_BOND_UDEF_STEREO_COUNT>
0

> <PUBCHEM_ISOTOPIC_ATOM_COUNT>
0

> <PUBCHEM_COMPONENT_COUNT>
1

> <PUBCHEM_CACTVS_TAUTO_COUNT>
1

> <PUBCHEM_COORDINATE_TYPE>
1
5
255

> <PUBCHEM_BONDANNOTATIONS>
7  1  3
15  18  8
15  20  8
16  17  8
16  19  8
17  21  8
18  22  8
19  23  8
20  24  8
21  25  8
22  26  8
23  25  8
24  26  8

$$$$

