5281832
  -OEChem-07051213003D

 36 38  0     0  0  0  0  0  0999 V2000
    3.8071   -1.1122    0.2022 O   0  0  0  0  0  0  0  0  0  0  0  0
    3.6991    1.6391   -0.0139 O   0  0  0  0  0  0  0  0  0  0  0  0
    1.5155   -2.5726    0.2082 O   0  0  0  0  0  0  0  0  0  0  0  0
   -1.0119   -2.5812   -0.0214 O   0  0  0  0  0  0  0  0  0  0  0  0
   -1.1571    1.4526   -0.3268 N   0  0  0  0  0  0  0  0  0  0  0  0
    0.1093    0.8406   -0.1864 C   0  0  0  0  0  0  0  0  0  0  0  0
    0.1920   -0.5587   -0.0483 C   0  0  0  0  0  0  0  0  0  0  0  0
   -2.3683    0.7573   -0.1089 C   0  0  0  0  0  0  0  0  0  0  0  0
   -2.3481   -0.6441    0.0308 C   0  0  0  0  0  0  0  0  0  0  0  0
   -1.0530   -1.3577   -0.0202 C   0  0  0  0  0  0  0  0  0  0  0  0
    1.4235   -1.2176    0.0749 C   0  0  0  0  0  0  0  0  0  0  0  0
    1.3219    1.5538   -0.1588 C   0  0  0  0  0  0  0  0  0  0  0  0
    2.6040   -0.4832    0.0791 C   0  0  0  0  0  0  0  0  0  0  0  0
    2.5530    0.9011   -0.0318 C   0  0  0  0  0  0  0  0  0  0  0  0
   -1.2157    2.8777   -0.6642 C   0  0  0  0  0  0  0  0  0  0  0  0
   -3.6219    1.3875   -0.0042 C   0  0  0  0  0  0  0  0  0  0  0  0
   -3.5225   -1.3841    0.2288 C   0  0  0  0  0  0  0  0  0  0  0  0
   -4.7961    0.6538    0.1978 C   0  0  0  0  0  0  0  0  0  0  0  0
   -4.7471   -0.7305    0.3083 C   0  0  0  0  0  0  0  0  0  0  0  0
    4.4562   -1.5092   -1.0037 C   0  0  0  0  0  0  0  0  0  0  0  0
    4.1602    2.0876    1.2585 C   0  0  0  0  0  0  0  0  0  0  0  0
    1.3371    2.6390   -0.2207 H   0  0  0  0  0  0  0  0  0  0  0  0
   -0.3875    3.1870   -1.3112 H   0  0  0  0  0  0  0  0  0  0  0  0
   -1.2037    3.4880    0.2451 H   0  0  0  0  0  0  0  0  0  0  0  0
   -2.1054    3.1315   -1.2508 H   0  0  0  0  0  0  0  0  0  0  0  0
   -3.7223    2.4680   -0.0605 H   0  0  0  0  0  0  0  0  0  0  0  0
   -3.4990   -2.4656    0.3314 H   0  0  0  0  0  0  0  0  0  0  0  0
   -5.7490    1.1702    0.2725 H   0  0  0  0  0  0  0  0  0  0  0  0
   -5.6594   -1.2979    0.4655 H   0  0  0  0  0  0  0  0  0  0  0  0
    0.6413   -2.9693    0.3357 H   0  0  0  0  0  0  0  0  0  0  0  0
    4.6811   -0.6367   -1.6251 H   0  0  0  0  0  0  0  0  0  0  0  0
    3.8349   -2.2169   -1.5615 H   0  0  0  0  0  0  0  0  0  0  0  0
    5.3961   -2.0018   -0.7403 H   0  0  0  0  0  0  0  0  0  0  0  0
    5.0839    2.6531    1.1083 H   0  0  0  0  0  0  0  0  0  0  0  0
    4.3735    1.2370    1.9135 H   0  0  0  0  0  0  0  0  0  0  0  0
    3.4196    2.7447    1.7251 H   0  0  0  0  0  0  0  0  0  0  0  0
  1 13  1  0  0  0  0
  1 20  1  0  0  0  0
  2 14  1  0  0  0  0
  2 21  1  0  0  0  0
  3 11  1  0  0  0  0
  3 30  1  0  0  0  0
  4 10  2  0  0  0  0
  5  6  1  0  0  0  0
  5  8  1  0  0  0  0
  5 15  1  0  0  0  0
  6  7  1  0  0  0  0
  6 12  2  0  0  0  0
  7 10  1  0  0  0  0
  7 11  2  0  0  0  0
  8  9  1  0  0  0  0
  8 16  2  0  0  0  0
  9 10  1  0  0  0  0
  9 17  2  0  0  0  0
 11 13  1  0  0  0  0
 12 14  1  0  0  0  0
 12 22  1  0  0  0  0
 13 14  2  0  0  0  0
 15 23  1  0  0  0  0
 15 24  1  0  0  0  0
 15 25  1  0  0  0  0
 16 18  1  0  0  0  0
 16 26  1  0  0  0  0
 17 19  1  0  0  0  0
 17 27  1  0  0  0  0
 18 19  2  0  0  0  0
 18 28  1  0  0  0  0
 19 29  1  0  0  0  0
 20 31  1  0  0  0  0
 20 32  1  0  0  0  0
 20 33  1  0  0  0  0
 21 34  1  0  0  0  0
 21 35  1  0  0  0  0
 21 36  1  0  0  0  0
M  END
> <PUBCHEM_COMPOUND_CID>
5281832

> <PUBCHEM_CONFORMER_RMSD>
0.6

> <PUBCHEM_CONFORMER_DIVERSEORDER>
1
3
2

> <PUBCHEM_MMFF94_PARTIAL_CHARGES>
27
1 -0.36
10 0.4
11 0.08
12 -0.15
13 0.08
14 0.08
15 0.37
16 -0.15
17 -0.15
18 -0.15
19 -0.15
2 -0.36
20 0.28
21 0.28
22 0.15
26 0.15
27 0.15
28 0.15
29 0.15
3 -0.53
30 0.45
4 -0.57
5 -0.57
6 0.1
7 0.09
8 0.1
9 0.09

> <PUBCHEM_EFFECTIVE_ROTOR_COUNT>
2

> <PUBCHEM_PHARMACOPHORE_FEATURES>
8
1 1 acceptor
1 2 acceptor
1 3 donor
1 4 acceptor
1 5 cation
6 5 6 7 8 9 10 rings
6 6 7 11 12 13 14 rings
6 8 9 16 17 18 19 rings

> <PUBCHEM_HEAVY_ATOM_COUNT>
21

> <PUBCHEM_ATOM_DEF_STEREO_COUNT>
0

> <PUBCHEM_ATOM_UDEF_STEREO_COUNT>
0

> <PUBCHEM_BOND_DEF_STEREO_COUNT>
0

> <PUBCHEM_BOND_UDEF_STEREO_COUNT>
0

> <PUBCHEM_ISOTOPIC_ATOM_COUNT>
0

> <PUBCHEM_COMPONENT_COUNT>
1

> <PUBCHEM_CACTVS_TAUTO_COUNT>
5

> <PUBCHEM_CONFORMER_ID>
0050982800000001

> <PUBCHEM_MMFF94_ENERGY>
100.2546

> <PUBCHEM_FEATURE_SELFOVERLAP>
40.644

> <PUBCHEM_SHAPE_FINGERPRINT>
10608611 8 18411141363242807748
10967382 1 18340205198071632485
11132069 177 18342179938346230761
11471102 20 18411421700221697805
11578080 2 16952262997165698371
12011746 2 18340484577289114247
12236239 1 17894631444754230375
12403259 226 18339083803865344052
12403259 415 18341051899503665317
13140716 1 18340493279051312818
13583140 156 14707501325235140063
13675066 3 18340485577974055571
13862211 1 18412267267613702047
14178342 30 17905340532720273474
14223421 5 18340490087621280973
14790565 3 18340194233068235340
15196674 1 18410855451912741097
15536298 74 18408322176863914828
16945 1 18340777055776676230
17804303 29 18410569625807131636
1813 80 17203611462575484700
18186145 218 18342742939585792398
19591789 44 18411417349341030438
19784866 170 18341050718292563872
200 152 18113339725997873087
20510252 161 18334858320518805425
20645477 70 18260829319090318942
21267235 1 18339912788604383131
21452121 103 18334301937944471400
221490 88 18411974780377520906
22182313 1 18271259295044848116
2334 1 18196371424806021894
23402539 116 18336273327727509509
23463225 33 18342454837938838997
23559900 14 18408604764622510916
2748010 2 18412262809252506478
2871803 45 18343023315251354719
3004659 81 18127679630279821222
335352 9 18339078305995702879
34934 24 18339086968971066723
350125 39 18411417332751946396
495365 180 17530688671906754170
5104073 3 18410854360901417059
69090 78 18408608041439769719
7097593 13 17340142438750265003
7364860 26 18334295392266664310
8809292 202 18272926133276685187
9709674 26 18339075982466192859

> <PUBCHEM_SHAPE_MULTIPOLES>
403.71
8.87
2.75
0.77
0.7
0.23
-0.04
0.23
-0.87
-0.95
0.08
-0.47
0.17
1.03

> <PUBCHEM_SHAPE_SELFOVERLAP>
891.088

> <PUBCHEM_SHAPE_VOLUME>
217.3

> <PUBCHEM_COORDINATE_TYPE>
2
5
10

$$$$

