442919
  -OEChem-07051213002D

 29 29  0     1  0  0  0  0  0999 V2000
    3.4030    1.6550    0.0000 O   0  0  0  0  0  0  0  0  0  0  0  0
    2.5369    0.1550    0.0000 O   0  0  0  0  0  0  0  0  0  0  0  0
    6.0010    0.1550    0.0000 O   0  0  0  0  0  0  0  0  0  0  0  0
    4.2690   -2.8450    0.0000 O   0  0  0  0  0  0  0  0  0  0  0  0
    5.1350    1.6550    0.0000 C   0  0  3  0  0  0  0  0  0  0  0  0
    5.1350    2.6550    0.0000 C   0  0  0  0  0  0  0  0  0  0  0  0
    4.2690    1.1550    0.0000 C   0  0  0  0  0  0  0  0  0  0  0  0
    6.0010    1.1550    0.0000 C   0  0  0  0  0  0  0  0  0  0  0  0
    4.2690    0.1550    0.0000 C   0  0  0  0  0  0  0  0  0  0  0  0
    6.0010    3.1550    0.0000 C   0  0  0  0  0  0  0  0  0  0  0  0
    3.4030   -0.3450    0.0000 C   0  0  0  0  0  0  0  0  0  0  0  0
    5.1350   -0.3450    0.0000 C   0  0  0  0  0  0  0  0  0  0  0  0
    3.4030   -1.3450    0.0000 C   0  0  0  0  0  0  0  0  0  0  0  0
    5.1350   -1.3450    0.0000 C   0  0  0  0  0  0  0  0  0  0  0  0
    4.2690   -1.8450    0.0000 C   0  0  0  0  0  0  0  0  0  0  0  0
    5.1350    0.8050    0.0000 H   0  0  0  0  0  0  0  0  0  0  0  0
    4.9230    3.2376    0.0000 H   0  0  0  0  0  0  0  0  0  0  0  0
    4.5244    2.5473    0.0000 H   0  0  0  0  0  0  0  0  0  0  0  0
    5.6910    0.6181    0.0000 H   0  0  0  0  0  0  0  0  0  0  0  0
    6.5380    0.8450    0.0000 H   0  0  0  0  0  0  0  0  0  0  0  0
    6.3110    1.6919    0.0000 H   0  0  0  0  0  0  0  0  0  0  0  0
    6.3110    2.6181    0.0000 H   0  0  0  0  0  0  0  0  0  0  0  0
    6.5380    3.4650    0.0000 H   0  0  0  0  0  0  0  0  0  0  0  0
    5.6910    3.6919    0.0000 H   0  0  0  0  0  0  0  0  0  0  0  0
    2.8660   -1.6550    0.0000 H   0  0  0  0  0  0  0  0  0  0  0  0
    5.6720   -1.6550    0.0000 H   0  0  0  0  0  0  0  0  0  0  0  0
    2.0000   -0.1550    0.0000 H   0  0  0  0  0  0  0  0  0  0  0  0
    6.5380   -0.1550    0.0000 H   0  0  0  0  0  0  0  0  0  0  0  0
    3.7320   -3.1550    0.0000 H   0  0  0  0  0  0  0  0  0  0  0  0
  1  7  2  0  0  0  0
  2 11  1  0  0  0  0
  2 27  1  0  0  0  0
  3 12  1  0  0  0  0
  3 28  1  0  0  0  0
  4 15  1  0  0  0  0
  4 29  1  0  0  0  0
  5  6  1  0  0  0  0
  5  7  1  0  0  0  0
  5  8  1  0  0  0  0
  5 16  1  0  0  0  0
  6 10  1  0  0  0  0
  6 17  1  0  0  0  0
  6 18  1  0  0  0  0
  7  9  1  0  0  0  0
  8 19  1  0  0  0  0
  8 20  1  0  0  0  0
  8 21  1  0  0  0  0
  9 11  2  0  0  0  0
  9 12  1  0  0  0  0
 10 22  1  0  0  0  0
 10 23  1  0  0  0  0
 10 24  1  0  0  0  0
 11 13  1  0  0  0  0
 12 14  2  0  0  0  0
 13 15  2  0  0  0  0
 13 25  1  0  0  0  0
 14 15  1  0  0  0  0
 14 26  1  0  0  0  0
M  END
> <PUBCHEM_COMPOUND_CID>
442919

> <PUBCHEM_COMPOUND_CANONICALIZED>
1

> <PUBCHEM_CACTVS_COMPLEXITY>
217

> <PUBCHEM_CACTVS_HBOND_ACCEPTOR>
4

> <PUBCHEM_CACTVS_HBOND_DONOR>
3

> <PUBCHEM_CACTVS_ROTATABLE_BOND>
3

> <PUBCHEM_CACTVS_SUBSKEYS>
AAADccBwOAAAAAAAAAAAAAAAAAAAAAAAAAAwAAAAAAAAAAABAAAAGgAACAAADQSAmAAyBoAAAgCIAqBSAAACAAAkIAAAiAEGCMgIJzaCFRKAcUAl4BUImQeI7OTOIAAACAAIAABAAAAQABAAAAAAAAAAAA==

> <PUBCHEM_IUPAC_OPENEYE_NAME>
2-methyl-1-(2,4,6-trihydroxyphenyl)butan-1-one

> <PUBCHEM_IUPAC_CAS_NAME>
2-methyl-1-(2,4,6-trihydroxyphenyl)-1-butanone

> <PUBCHEM_IUPAC_NAME>
2-methyl-1-(2,4,6-trihydroxyphenyl)butan-1-one

> <PUBCHEM_IUPAC_SYSTEMATIC_NAME>
2-methyl-1-[2,4,6-tris(oxidanyl)phenyl]butan-1-one

> <PUBCHEM_IUPAC_TRADITIONAL_NAME>
2-methyl-1-(2,4,6-trihydroxyphenyl)butan-1-one

> <PUBCHEM_IUPAC_INCHI>
InChI=1S/C11H14O4/c1-3-6(2)11(15)10-8(13)4-7(12)5-9(10)14/h4-6,12-14H,3H2,1-2H3

> <PUBCHEM_IUPAC_INCHIKEY>
ASABIRFQGVWRDC-UHFFFAOYSA-N

> <PUBCHEM_XLOGP3_AA>
2.5

> <PUBCHEM_EXACT_MASS>
210.089209

> <PUBCHEM_MOLECULAR_FORMULA>
C11H14O4

> <PUBCHEM_MOLECULAR_WEIGHT>
210.22646

> <PUBCHEM_OPENEYE_CAN_SMILES>
CCC(C)C(=O)C1=C(C=C(C=C1O)O)O

> <PUBCHEM_OPENEYE_ISO_SMILES>
CCC(C)C(=O)C1=C(C=C(C=C1O)O)O

> <PUBCHEM_CACTVS_TPSA>
77.8

> <PUBCHEM_MONOISOTOPIC_WEIGHT>
210.089209

> <PUBCHEM_TOTAL_CHARGE>
0

> <PUBCHEM_HEAVY_ATOM_COUNT>
15

> <PUBCHEM_ATOM_DEF_STEREO_COUNT>
0

> <PUBCHEM_ATOM_UDEF_STEREO_COUNT>
1

> <PUBCHEM_BOND_DEF_STEREO_COUNT>
0

> <PUBCHEM_BOND_UDEF_STEREO_COUNT>
0

> <PUBCHEM_ISOTOPIC_ATOM_COUNT>
0

> <PUBCHEM_COMPONENT_COUNT>
1

> <PUBCHEM_CACTVS_TAUTO_COUNT>
25

> <PUBCHEM_COORDINATE_TYPE>
1
5
255

> <PUBCHEM_BONDANNOTATIONS>
11  13  8
12  14  8
13  15  8
14  15  8
5  16  3
9  11  8
9  12  8

$$$$

