17395855
  -OEChem-06241222523D

 53 55  0     1  0  0  0  0  0999 V2000
    2.7162    1.6068   -0.4481 O   0  0  0  0  0  0  0  0  0  0  0  0
    0.7339    2.4504   -1.9359 O   0  0  0  0  0  0  0  0  0  0  0  0
    6.5130   -0.8777    1.0713 O   0  0  0  0  0  0  0  0  0  0  0  0
    2.6837   -3.1753   -0.6146 O   0  0  0  0  0  0  0  0  0  0  0  0
   -0.8306    1.4888   -0.5121 N   0  0  0  0  0  0  0  0  0  0  0  0
   -3.4423    0.3470   -0.0081 N   0  0  0  0  0  0  0  0  0  0  0  0
   -1.1759    0.9018    0.7846 C   0  0  0  0  0  0  0  0  0  0  0  0
   -1.9063    1.5660   -1.4972 C   0  0  0  0  0  0  0  0  0  0  0  0
   -2.6748    0.9582    1.0799 C   0  0  0  0  0  0  0  0  0  0  0  0
   -2.8870    0.4031   -1.3633 C   0  0  0  0  0  0  0  0  0  0  0  0
    0.4415    1.9559   -0.8447 C   0  0  0  0  0  0  0  0  0  0  0  0
   -4.6841   -0.2383    0.2273 C   0  0  0  0  0  0  0  0  0  0  0  0
    1.4969    1.8366    0.2273 C   0  0  2  0  0  0  0  0  0  0  0  0
   -5.1128   -1.3057   -0.5619 C   0  0  0  0  0  0  0  0  0  0  0  0
   -5.4990    0.2424    1.2525 C   0  0  0  0  0  0  0  0  0  0  0  0
    1.5659    3.0983    1.0552 C   0  0  0  0  0  0  0  0  0  0  0  0
   -6.3561   -1.8923   -0.3257 C   0  0  0  0  0  0  0  0  0  0  0  0
   -6.7422   -0.3443    1.4885 C   0  0  0  0  0  0  0  0  0  0  0  0
   -7.1708   -1.4116    0.6994 C   0  0  0  0  0  0  0  0  0  0  0  0
    3.3399    0.4027   -0.2237 C   0  0  0  0  0  0  0  0  0  0  0  0
    2.6875   -0.7900   -0.5369 C   0  0  0  0  0  0  0  0  0  0  0  0
    4.6255    0.3731    0.3167 C   0  0  0  0  0  0  0  0  0  0  0  0
    5.2586   -0.8488    0.5440 C   0  0  0  0  0  0  0  0  0  0  0  0
    3.3205   -2.0119   -0.3093 C   0  0  0  0  0  0  0  0  0  0  0  0
    4.6060   -2.0413    0.2310 C   0  0  0  0  0  0  0  0  0  0  0  0
    7.1217    0.3783    1.3679 C   0  0  0  0  0  0  0  0  0  0  0  0
    1.3710   -3.0722   -1.1641 C   0  0  0  0  0  0  0  0  0  0  0  0
   -0.8338   -0.1402    0.7609 H   0  0  0  0  0  0  0  0  0  0  0  0
   -0.6481    1.4119    1.5935 H   0  0  0  0  0  0  0  0  0  0  0  0
   -2.4195    2.5214   -1.3320 H   0  0  0  0  0  0  0  0  0  0  0  0
   -1.4889    1.5906   -2.5094 H   0  0  0  0  0  0  0  0  0  0  0  0
   -2.8500    0.4351    2.0281 H   0  0  0  0  0  0  0  0  0  0  0  0
   -2.9916    2.0011    1.2040 H   0  0  0  0  0  0  0  0  0  0  0  0
   -3.6822    0.5426   -2.1058 H   0  0  0  0  0  0  0  0  0  0  0  0
   -2.3740   -0.5411   -1.5839 H   0  0  0  0  0  0  0  0  0  0  0  0
    1.2888    0.9994    0.9003 H   0  0  0  0  0  0  0  0  0  0  0  0
   -4.4962   -1.7125   -1.3587 H   0  0  0  0  0  0  0  0  0  0  0  0
   -5.2014    1.0817    1.8751 H   0  0  0  0  0  0  0  0  0  0  0  0
    1.8427    3.9579    0.4338 H   0  0  0  0  0  0  0  0  0  0  0  0
    2.3402    3.0087    1.8248 H   0  0  0  0  0  0  0  0  0  0  0  0
    0.6141    3.3305    1.5416 H   0  0  0  0  0  0  0  0  0  0  0  0
   -6.6889   -2.7254   -0.9379 H   0  0  0  0  0  0  0  0  0  0  0  0
   -7.3783    0.0317    2.2845 H   0  0  0  0  0  0  0  0  0  0  0  0
   -8.1389   -1.8684    0.8832 H   0  0  0  0  0  0  0  0  0  0  0  0
    1.6948   -0.7115   -0.9666 H   0  0  0  0  0  0  0  0  0  0  0  0
    5.0791    1.3334    0.5391 H   0  0  0  0  0  0  0  0  0  0  0  0
    5.0994   -2.9936    0.4083 H   0  0  0  0  0  0  0  0  0  0  0  0
    7.2717    0.9767    0.4628 H   0  0  0  0  0  0  0  0  0  0  0  0
    6.5659    0.9228    2.1388 H   0  0  0  0  0  0  0  0  0  0  0  0
    8.1144    0.1670    1.7791 H   0  0  0  0  0  0  0  0  0  0  0  0
    0.6733   -2.6089   -0.4579 H   0  0  0  0  0  0  0  0  0  0  0  0
    1.3794   -2.5635   -2.1341 H   0  0  0  0  0  0  0  0  0  0  0  0
    1.0143   -4.0921   -1.3418 H   0  0  0  0  0  0  0  0  0  0  0  0
  1 13  1  0  0  0  0
  1 20  1  0  0  0  0
  2 11  2  0  0  0  0
  3 23  1  0  0  0  0
  3 26  1  0  0  0  0
  4 24  1  0  0  0  0
  4 27  1  0  0  0  0
  5  7  1  0  0  0  0
  5  8  1  0  0  0  0
  5 11  1  0  0  0  0
  6  9  1  0  0  0  0
  6 10  1  0  0  0  0
  6 12  1  0  0  0  0
  7  9  1  0  0  0  0
  7 28  1  0  0  0  0
  7 29  1  0  0  0  0
  8 10  1  0  0  0  0
  8 30  1  0  0  0  0
  8 31  1  0  0  0  0
  9 32  1  0  0  0  0
  9 33  1  0  0  0  0
 10 34  1  0  0  0  0
 10 35  1  0  0  0  0
 11 13  1  0  0  0  0
 12 14  2  0  0  0  0
 12 15  1  0  0  0  0
 13 16  1  0  0  0  0
 13 36  1  0  0  0  0
 14 17  1  0  0  0  0
 14 37  1  0  0  0  0
 15 18  2  0  0  0  0
 15 38  1  0  0  0  0
 16 39  1  0  0  0  0
 16 40  1  0  0  0  0
 16 41  1  0  0  0  0
 17 19  2  0  0  0  0
 17 42  1  0  0  0  0
 18 19  1  0  0  0  0
 18 43  1  0  0  0  0
 19 44  1  0  0  0  0
 20 21  2  0  0  0  0
 20 22  1  0  0  0  0
 21 24  1  0  0  0  0
 21 45  1  0  0  0  0
 22 23  2  0  0  0  0
 22 46  1  0  0  0  0
 23 25  1  0  0  0  0
 24 25  2  0  0  0  0
 25 47  1  0  0  0  0
 26 48  1  0  0  0  0
 26 49  1  0  0  0  0
 26 50  1  0  0  0  0
 27 51  1  0  0  0  0
 27 52  1  0  0  0  0
 27 53  1  0  0  0  0
M  END
> <PUBCHEM_COMPOUND_CID>
17395855

> <PUBCHEM_CONFORMER_RMSD>
1.2

> <PUBCHEM_CONFORMER_DIVERSEORDER>
1
6
25
20
29
17
15
10
3
5
31
18
7
23
11
30
24
9
28
22
32
34
33
13
27
19
14
4
21
35
26
8
12
16
36
2

> <PUBCHEM_MMFF94_PARTIAL_CHARGES>
34
1 -0.36
10 0.37
11 0.57
12 0.1
13 0.34
14 -0.15
15 -0.15
17 -0.15
18 -0.15
19 -0.15
2 -0.57
20 0.08
21 -0.15
22 -0.15
23 0.08
24 0.08
25 -0.15
26 0.28
27 0.28
3 -0.36
37 0.15
38 0.15
4 -0.36
42 0.15
43 0.15
44 0.15
45 0.15
46 0.15
47 0.15
5 -0.66
6 -0.84
7 0.3
8 0.3
9 0.37

> <PUBCHEM_EFFECTIVE_ROTOR_COUNT>
8.2

> <PUBCHEM_PHARMACOPHORE_FEATURES>
8
1 1 acceptor
1 2 acceptor
1 3 acceptor
1 4 acceptor
1 6 cation
6 12 14 15 17 18 19 rings
6 20 21 22 23 24 25 rings
6 5 6 7 8 9 10 rings

> <PUBCHEM_HEAVY_ATOM_COUNT>
27

> <PUBCHEM_ATOM_DEF_STEREO_COUNT>
0

> <PUBCHEM_ATOM_UDEF_STEREO_COUNT>
1

> <PUBCHEM_BOND_DEF_STEREO_COUNT>
0

> <PUBCHEM_BOND_UDEF_STEREO_COUNT>
0

> <PUBCHEM_ISOTOPIC_ATOM_COUNT>
0

> <PUBCHEM_COMPONENT_COUNT>
1

> <PUBCHEM_CACTVS_TAUTO_COUNT>
1

> <PUBCHEM_CONFORMER_ID>
0109708F00000001

> <PUBCHEM_MMFF94_ENERGY>
110.5393

> <PUBCHEM_FEATURE_SELFOVERLAP>
40.605

> <PUBCHEM_SHAPE_FINGERPRINT>
10 15 15285355107246990513
10258939 38 18060430135696045624
10670039 82 13686029712968315599
11211813 128 18341615941412618282
11828532 37 16844431744942033803
12035758 1 18262540121419788232
12107183 9 18117825811197491353
12596602 18 17095239237202804658
13150687 139 17700101380913312540
13402501 40 18344144795595106571
13533116 47 18336259047104038817
13583140 156 17604441802631864785
13673619 4 18202002122831867773
13685833 64 18272088283730512776
13782708 43 17917997195460929435
1454969 45 18342170043390291180
14765038 42 17894639119602293004
14849402 71 17969508104532835136
15003188 100 9439108849981895931
15183329 4 10952054450709773031
15250474 111 18041564620823719119
15510800 12 17988348338868409403
15927050 60 17684091280036560684
17492 89 18124035899778375114
17857418 61 18335698326375462683
190975 80 18412269411224012536
1979834 28 18113893896753733918
20028762 73 18259984855485019062
21197605 99 18336825277874956062
21315763 178 17822013116486133295
21315764 119 14333413362940296779
21585482 310 17845921966820508555
21623969 137 18410575102043642158
22224240 67 18187651280523881218
23522609 53 18056164013094821085
23559900 14 16558179394356036005
23576562 1 9798820697880459378
25222932 49 17988651817363438794
3737641 26 17970627605006477878
3886686 26 17320961467372850673
392239 28 17678485063714809672
4340502 62 17894632543944150242
439807 62 17346883372925622443
46194498 28 17560518408745268893
463206 1 18337952273377864591
5104073 3 18191312791525105938
5718773 13 17917438674220430778
9689198 14 15140965015763451322

> <PUBCHEM_SHAPE_MULTIPOLES>
522.21
18.08
3.11
1.41
10.24
0.68
-0.16
9.76
8.68
-2.32
-0.79
0.49
-0.48
0.3

> <PUBCHEM_SHAPE_SELFOVERLAP>
1103.116

> <PUBCHEM_SHAPE_VOLUME>
292.5

> <PUBCHEM_COORDINATE_TYPE>
2
5
10

$$$$

