441537
  -OEChem-07051212552D

 53 55  0     1  0  0  0  0  0999 V2000
    6.2781   -1.4853    0.0000 S   0  0  0  0  0  0  0  0  0  0  0  0
    4.9889    3.1819    0.0000 S   0  0  0  0  0  0  0  0  0  0  0  0
    8.2816    0.7476    0.0000 S   0  0  0  0  0  0  0  0  0  0  0  0
    7.9244   -0.9473    0.0000 O   0  0  0  0  0  0  0  0  0  0  0  0
    8.8564   -3.7988    0.0000 O   0  0  0  0  0  0  0  0  0  0  0  0
   10.1921   -2.3102    0.0000 O   0  0  0  0  0  0  0  0  0  0  0  0
    6.8994   -3.3864    0.0000 O   0  0  0  0  0  0  0  0  0  0  0  0
   10.5493   -0.6154    0.0000 O   0  0  0  0  0  0  0  0  0  0  0  0
    5.2996    4.1324    0.0000 O   0  0  0  0  0  0  0  0  0  0  0  0
    7.6138    0.0033    0.0000 O   0  0  0  0  0  0  0  0  0  0  0  0
    5.9394    2.8712    0.0000 O   0  0  0  0  0  0  0  0  0  0  0  0
    4.0384    3.4926    0.0000 O   0  0  0  0  0  0  0  0  0  0  0  0
    8.9495    1.4919    0.0000 O   0  0  0  0  0  0  0  0  0  0  0  0
    7.5373    1.4154    0.0000 O   0  0  0  0  0  0  0  0  0  0  0  0
    9.0259    0.0797    0.0000 O   0  0  0  0  0  0  0  0  0  0  0  0
    4.6783    2.2314    0.0000 N   0  0  0  0  0  0  0  0  0  0  0  0
    6.6353    0.2095    0.0000 N   0  0  0  0  0  0  0  0  0  0  0  0
    8.5458   -2.8483    0.0000 C   0  0  1  0  0  0  0  0  0  0  0  0
    9.2136   -2.1040    0.0000 C   0  0  1  0  0  0  0  0  0  0  0  0
    7.5673   -2.6421    0.0000 C   0  0  2  0  0  0  0  0  0  0  0  0
    8.9030   -1.1535    0.0000 C   0  0  1  0  0  0  0  0  0  0  0  0
    7.2566   -1.6916    0.0000 C   0  0  2  0  0  0  0  0  0  0  0  0
    9.5708   -0.4092    0.0000 C   0  0  0  0  0  0  0  0  0  0  0  0
    4.9889   -0.3286    0.0000 C   0  0  0  0  0  0  0  0  0  0  0  0
    5.9674   -0.5348    0.0000 C   0  0  0  0  0  0  0  0  0  0  0  0
    4.6783    0.6219    0.0000 C   0  0  0  0  0  0  0  0  0  0  0  0
    3.7320    0.9267    0.0000 C   0  0  0  0  0  0  0  0  0  0  0  0
    3.7320    1.9266    0.0000 C   0  0  0  0  0  0  0  0  0  0  0  0
    5.2619    1.4266    0.0000 C   0  0  0  0  0  0  0  0  0  0  0  0
    2.8660    0.4267    0.0000 C   0  0  0  0  0  0  0  0  0  0  0  0
    2.8660    2.4266    0.0000 C   0  0  0  0  0  0  0  0  0  0  0  0
    2.0000    0.9267    0.0000 C   0  0  0  0  0  0  0  0  0  0  0  0
    2.0000    1.9266    0.0000 C   0  0  0  0  0  0  0  0  0  0  0  0
    9.1524   -2.9762    0.0000 H   0  0  0  0  0  0  0  0  0  0  0  0
    9.6277   -1.6425    0.0000 H   0  0  0  0  0  0  0  0  0  0  0  0
    6.9606   -2.5142    0.0000 H   0  0  0  0  0  0  0  0  0  0  0  0
    8.7104   -0.5642    0.0000 H   0  0  0  0  0  0  0  0  0  0  0  0
    7.0640   -1.1022    0.0000 H   0  0  0  0  0  0  0  0  0  0  0  0
    9.8021    0.1661    0.0000 H   0  0  0  0  0  0  0  0  0  0  0  0
    9.0444   -0.0815    0.0000 H   0  0  0  0  0  0  0  0  0  0  0  0
    8.4424   -4.2603    0.0000 H   0  0  0  0  0  0  0  0  0  0  0  0
   10.3847   -2.8995    0.0000 H   0  0  0  0  0  0  0  0  0  0  0  0
    6.2928   -3.2585    0.0000 H   0  0  0  0  0  0  0  0  0  0  0  0
    4.3751   -0.4159    0.0000 H   0  0  0  0  0  0  0  0  0  0  0  0
    4.9684   -0.9483    0.0000 H   0  0  0  0  0  0  0  0  0  0  0  0
    5.8819    1.4266    0.0000 H   0  0  0  0  0  0  0  0  0  0  0  0
   10.9634   -0.1539    0.0000 H   0  0  0  0  0  0  0  0  0  0  0  0
    2.8660   -0.1933    0.0000 H   0  0  0  0  0  0  0  0  0  0  0  0
    2.8660    3.0466    0.0000 H   0  0  0  0  0  0  0  0  0  0  0  0
    1.4631    0.6167    0.0000 H   0  0  0  0  0  0  0  0  0  0  0  0
    1.4631    2.2366    0.0000 H   0  0  0  0  0  0  0  0  0  0  0  0
    5.9063    4.2603    0.0000 H   0  0  0  0  0  0  0  0  0  0  0  0
    8.7569    2.0812    0.0000 H   0  0  0  0  0  0  0  0  0  0  0  0
 22  1  1  6  0  0  0
  1 25  1  0  0  0  0
  2  9  1  0  0  0  0
  2 11  2  0  0  0  0
  2 12  2  0  0  0  0
  2 16  1  0  0  0  0
  3 10  1  0  0  0  0
  3 13  1  0  0  0  0
  3 14  2  0  0  0  0
  3 15  2  0  0  0  0
  4 21  1  0  0  0  0
  4 22  1  0  0  0  0
 18  5  1  6  0  0  0
  5 41  1  0  0  0  0
 19  6  1  1  0  0  0
  6 42  1  0  0  0  0
 20  7  1  1  0  0  0
  7 43  1  0  0  0  0
  8 23  1  0  0  0  0
  8 47  1  0  0  0  0
  9 52  1  0  0  0  0
 10 17  1  0  0  0  0
 13 53  1  0  0  0  0
 16 28  1  0  0  0  0
 16 29  1  0  0  0  0
 17 25  2  3  0  0  0
 18 19  1  0  0  0  0
 18 20  1  0  0  0  0
 18 34  1  0  0  0  0
 19 21  1  0  0  0  0
 19 35  1  0  0  0  0
 20 22  1  0  0  0  0
 20 36  1  0  0  0  0
 21 23  1  6  0  0  0
 21 37  1  0  0  0  0
 22 38  1  0  0  0  0
 23 39  1  0  0  0  0
 23 40  1  0  0  0  0
 24 25  1  0  0  0  0
 24 26  1  0  0  0  0
 24 44  1  0  0  0  0
 24 45  1  0  0  0  0
 26 27  1  0  0  0  0
 26 29  2  0  0  0  0
 27 28  1  0  0  0  0
 27 30  2  0  0  0  0
 28 31  2  0  0  0  0
 29 46  1  0  0  0  0
 30 32  1  0  0  0  0
 30 48  1  0  0  0  0
 31 33  1  0  0  0  0
 31 49  1  0  0  0  0
 32 33  2  0  0  0  0
 32 50  1  0  0  0  0
 33 51  1  0  0  0  0
M  END
> <PUBCHEM_COMPOUND_CID>
441537

> <PUBCHEM_COMPOUND_CANONICALIZED>
1

> <PUBCHEM_CACTVS_COMPLEXITY>
918

> <PUBCHEM_CACTVS_HBOND_ACCEPTOR>
14

> <PUBCHEM_CACTVS_HBOND_DONOR>
6

> <PUBCHEM_CACTVS_ROTATABLE_BOND>
8

> <PUBCHEM_CACTVS_SUBSKEYS>
AAADceB7PABgAAAAAAAAAAAAAAAAAWAAAAA0QAAAAAAAAFgB8AAAHgQESAAADBzl3ga8wPIYFoigAzRnRDCCgCAxAjAI2CA4ZJgJMOLgkZGGYAhlgADryAfQ4MQOgAAAAAACAAAAAAAAAAQAAAAAAAAAAA==

> <PUBCHEM_IUPAC_OPENEYE_NAME>
3-[2-sulfooxyimino-2-[(2S,3R,4S,5S,6R)-3,4,5-trihydroxy-6-(hydroxymethyl)tetrahydropyran-2-yl]sulfanyl-ethyl]indole-1-sulfonic acid

> <PUBCHEM_IUPAC_CAS_NAME>
3-[2-sulfooxyimino-2-[[(2S,3R,4S,5S,6R)-3,4,5-trihydroxy-6-(hydroxymethyl)-2-oxanyl]thio]ethyl]-1-indolesulfonic acid

> <PUBCHEM_IUPAC_NAME>
3-[2-sulfooxyimino-2-[(2S,3R,4S,5S,6R)-3,4,5-trihydroxy-6-(hydroxymethyl)oxan-2-yl]sulfanylethyl]indole-1-sulfonic acid

> <PUBCHEM_IUPAC_SYSTEMATIC_NAME>
3-[2-[(2S,3R,4S,5S,6R)-6-(hydroxymethyl)-3,4,5-tris(oxidanyl)oxan-2-yl]sulfanyl-2-sulfooxyimino-ethyl]indole-1-sulfonic acid

> <PUBCHEM_IUPAC_TRADITIONAL_NAME>
3-[2-sulfooximino-2-[[(2S,3R,4S,5S,6R)-3,4,5-trihydroxy-6-methylol-tetrahydropyran-2-yl]thio]ethyl]indole-1-sulfonic acid

> <PUBCHEM_IUPAC_INCHI>
InChI=1S/C16H20N2O12S3/c19-7-11-13(20)14(21)15(22)16(29-11)31-12(17-30-33(26,27)28)5-8-6-18(32(23,24)25)10-4-2-1-3-9(8)10/h1-4,6,11,13-16,19-22H,5,7H2,(H,23,24,25)(H,26,27,28)/t11-,13-,14+,15-,16+/m1/s1

> <PUBCHEM_IUPAC_INCHIKEY>
JZFQZINWXSEVSO-JZYAIQKZSA-N

> <PUBCHEM_XLOGP3_AA>
-1

> <PUBCHEM_EXACT_MASS>
528.017837

> <PUBCHEM_MOLECULAR_FORMULA>
C16H20N2O12S3

> <PUBCHEM_MOLECULAR_WEIGHT>
528.5312

> <PUBCHEM_OPENEYE_CAN_SMILES>
C1=CC=C2C(=C1)C(=CN2S(=O)(=O)O)CC(=NOS(=O)(=O)O)SC3C(C(C(C(O3)CO)O)O)O

> <PUBCHEM_OPENEYE_ISO_SMILES>
C1=CC=C2C(=C1)C(=CN2S(=O)(=O)O)CC(=NOS(=O)(=O)O)S[C@H]3[C@@H]([C@H]([C@@H]([C@H](O3)CO)O)O)O

> <PUBCHEM_CACTVS_TPSA>
268

> <PUBCHEM_MONOISOTOPIC_WEIGHT>
528.017837

> <PUBCHEM_TOTAL_CHARGE>
0

> <PUBCHEM_HEAVY_ATOM_COUNT>
33

> <PUBCHEM_ATOM_DEF_STEREO_COUNT>
5

> <PUBCHEM_ATOM_UDEF_STEREO_COUNT>
0

> <PUBCHEM_BOND_DEF_STEREO_COUNT>
0

> <PUBCHEM_BOND_UDEF_STEREO_COUNT>
1

> <PUBCHEM_ISOTOPIC_ATOM_COUNT>
0

> <PUBCHEM_COMPONENT_COUNT>
1

> <PUBCHEM_CACTVS_TAUTO_COUNT>
2

> <PUBCHEM_COORDINATE_TYPE>
1
5
255

> <PUBCHEM_BONDANNOTATIONS>
22  1  6
16  28  8
16  29  8
17  25  1
21  23  6
26  27  8
26  29  8
27  28  8
27  30  8
28  31  8
30  32  8
31  33  8
32  33  8
18  5  6
19  6  5
20  7  5

$$$$

