12099
  -OEChem-06261206313D

 18 18  0     0  0  0  0  0  0999 V2000
   -3.2118   -0.7045    0.9065 Br  0  0  0  0  0  0  0  0  0  0  0  0
   -0.8250    0.0782   -0.3746 C   0  0  0  0  0  0  0  0  0  0  0  0
    1.4737   -0.5467    0.0288 C   0  0  0  0  0  0  0  0  0  0  0  0
    0.1644   -0.9020   -0.2959 C   0  0  0  0  0  0  0  0  0  0  0  0
   -0.5050    1.4135   -0.1286 C   0  0  0  0  0  0  0  0  0  0  0  0
    1.7935    0.7886    0.2748 C   0  0  0  0  0  0  0  0  0  0  0  0
    0.8042    1.7687    0.1960 C   0  0  0  0  0  0  0  0  0  0  0  0
   -2.2254   -0.3011   -0.7210 C   0  0  0  0  0  0  0  0  0  0  0  0
    2.5316   -1.5947    0.1141 C   0  0  0  0  0  0  0  0  0  0  0  0
   -0.0838   -1.9432   -0.4885 H   0  0  0  0  0  0  0  0  0  0  0  0
   -1.2666    2.1867   -0.1859 H   0  0  0  0  0  0  0  0  0  0  0  0
    2.8100    1.0784    0.5270 H   0  0  0  0  0  0  0  0  0  0  0  0
    1.0532    2.8084    0.3873 H   0  0  0  0  0  0  0  0  0  0  0  0
   -2.2678   -1.1927   -1.3537 H   0  0  0  0  0  0  0  0  0  0  0  0
   -2.7588    0.5076   -1.2296 H   0  0  0  0  0  0  0  0  0  0  0  0
    2.1178   -2.5435    0.4722 H   0  0  0  0  0  0  0  0  0  0  0  0
    2.9805   -1.7561   -0.8710 H   0  0  0  0  0  0  0  0  0  0  0  0
    3.3215   -1.3050    0.8155 H   0  0  0  0  0  0  0  0  0  0  0  0
  1  8  1  0  0  0  0
  2  4  1  0  0  0  0
  2  5  2  0  0  0  0
  2  8  1  0  0  0  0
  3  4  2  0  0  0  0
  3  6  1  0  0  0  0
  3  9  1  0  0  0  0
  4 10  1  0  0  0  0
  5  7  1  0  0  0  0
  5 11  1  0  0  0  0
  6  7  2  0  0  0  0
  6 12  1  0  0  0  0
  7 13  1  0  0  0  0
  8 14  1  0  0  0  0
  8 15  1  0  0  0  0
  9 16  1  0  0  0  0
  9 17  1  0  0  0  0
  9 18  1  0  0  0  0
M  END
> <PUBCHEM_COMPOUND_CID>
12099

> <PUBCHEM_CONFORMER_RMSD>
0.4

> <PUBCHEM_CONFORMER_DIVERSEORDER>
1
3
4
2

> <PUBCHEM_MMFF94_PARTIAL_CHARGES>
13
1 -0.23
10 0.15
11 0.15
12 0.15
13 0.15
2 -0.14
3 -0.14
4 -0.15
5 -0.15
6 -0.15
7 -0.15
8 0.37
9 0.14

> <PUBCHEM_EFFECTIVE_ROTOR_COUNT>
1

> <PUBCHEM_PHARMACOPHORE_FEATURES>
2
1 1 hydrophobe
6 2 3 4 5 6 7 rings

> <PUBCHEM_HEAVY_ATOM_COUNT>
9

> <PUBCHEM_ATOM_DEF_STEREO_COUNT>
0

> <PUBCHEM_ATOM_UDEF_STEREO_COUNT>
0

> <PUBCHEM_BOND_DEF_STEREO_COUNT>
0

> <PUBCHEM_BOND_UDEF_STEREO_COUNT>
0

> <PUBCHEM_ISOTOPIC_ATOM_COUNT>
0

> <PUBCHEM_COMPONENT_COUNT>
1

> <PUBCHEM_CACTVS_TAUTO_COUNT>
1

> <PUBCHEM_CONFORMER_ID>
00002F4300000001

> <PUBCHEM_MMFF94_ENERGY>
19.2312

> <PUBCHEM_FEATURE_SELFOVERLAP>
10.148

> <PUBCHEM_SHAPE_FINGERPRINT>
16945 1 18337680689325487412
20653091 64 18412256225088825257
20871998 22 18189606310307627014
21040471 1 17617388277075717108
23552423 10 18199188558680897910
2748010 2 18264785409388013836
29004967 10 18342461404627342961

> <PUBCHEM_SHAPE_MULTIPOLES>
191.16
4.03
1.72
0.84
2.46
0.32
-0.04
-1.79
-0.92
-0.97
-0.12
0.45
-0.07
0.22

> <PUBCHEM_SHAPE_SELFOVERLAP>
375.355

> <PUBCHEM_SHAPE_VOLUME>
116.6

> <PUBCHEM_COORDINATE_TYPE>
2
5
10

$$$$

