443776
  -OEChem-07051213033D

 65 68  0     1  0  0  0  0  0999 V2000
    0.9753    0.7620   -1.6763 O   0  0  0  0  0  0  0  0  0  0  0  0
    0.1123   -2.1414    2.0239 O   0  0  0  0  0  0  0  0  0  0  0  0
   -4.8105   -1.1143   -1.4825 O   0  0  0  0  0  0  0  0  0  0  0  0
   -5.4504    0.9247    0.0198 O   0  0  0  0  0  0  0  0  0  0  0  0
    5.1776    0.9804   -0.5789 N   0  0  2  0  0  0  0  0  0  0  0  0
    5.5542   -0.3209    0.0150 C   0  0  2  0  0  0  0  0  0  0  0  0
    3.7493    1.0394   -1.0048 C   0  0  1  0  0  0  0  0  0  0  0  0
    4.6783   -0.5768    1.2531 C   0  0  0  0  0  0  0  0  0  0  0  0
    2.7809    0.1756   -0.2010 C   0  0  0  0  0  0  0  0  0  0  0  0
    3.2246   -0.5895    0.8860 C   0  0  0  0  0  0  0  0  0  0  0  0
    1.4234    0.1096   -0.5603 C   0  0  0  0  0  0  0  0  0  0  0  0
    7.0246   -0.3862    0.4567 C   0  0  0  0  0  0  0  0  0  0  0  0
    3.2938    2.5098   -0.9198 C   0  0  0  0  0  0  0  0  0  0  0  0
    6.0577    1.3349   -1.7025 C   0  0  0  0  0  0  0  0  0  0  0  0
    2.3135   -1.3487    1.6338 C   0  0  0  0  0  0  0  0  0  0  0  0
    0.5230   -0.6611    0.1764 C   0  0  0  0  0  0  0  0  0  0  0  0
    0.9667   -1.3837    1.2791 C   0  0  0  0  0  0  0  0  0  0  0  0
   -0.8768   -0.7160   -0.2068 C   0  0  0  0  0  0  0  0  0  0  0  0
   -1.8322    0.1845    0.2945 C   0  0  0  0  0  0  0  0  0  0  0  0
   -1.2475   -1.7147   -1.1089 C   0  0  0  0  0  0  0  0  0  0  0  0
   -3.1793    0.0703   -0.1242 C   0  0  0  0  0  0  0  0  0  0  0  0
   -1.4786    1.1958    1.2026 C   0  0  0  0  0  0  0  0  0  0  0  0
   -3.5329   -0.9410   -1.0323 C   0  0  0  0  0  0  0  0  0  0  0  0
   -2.5721   -1.8269   -1.5206 C   0  0  0  0  0  0  0  0  0  0  0  0
    1.0534    0.0540   -2.9089 C   0  0  0  0  0  0  0  0  0  0  0  0
   -4.1332    0.9709    0.3775 C   0  0  0  0  0  0  0  0  0  0  0  0
   -2.4393    2.0818    1.6909 C   0  0  0  0  0  0  0  0  0  0  0  0
   -0.0595   -3.5004    1.6284 C   0  0  0  0  0  0  0  0  0  0  0  0
   -3.7641    1.9696    1.2791 C   0  0  0  0  0  0  0  0  0  0  0  0
   -2.0471    3.1508    2.6545 C   0  0  0  0  0  0  0  0  0  0  0  0
   -5.6482   -1.9840   -0.7264 C   0  0  0  0  0  0  0  0  0  0  0  0
   -5.8369    1.6914   -1.1171 C   0  0  0  0  0  0  0  0  0  0  0  0
    5.3879   -1.1220   -0.7197 H   0  0  0  0  0  0  0  0  0  0  0  0
    3.6867    0.6901   -2.0438 H   0  0  0  0  0  0  0  0  0  0  0  0
    4.8444    0.1925    2.0184 H   0  0  0  0  0  0  0  0  0  0  0  0
    4.9504   -1.5449    1.6925 H   0  0  0  0  0  0  0  0  0  0  0  0
    7.7056   -0.3801   -0.4003 H   0  0  0  0  0  0  0  0  0  0  0  0
    7.2832    0.4544    1.1103 H   0  0  0  0  0  0  0  0  0  0  0  0
    7.2228   -1.3118    1.0087 H   0  0  0  0  0  0  0  0  0  0  0  0
    3.9534    3.1796   -1.4801 H   0  0  0  0  0  0  0  0  0  0  0  0
    2.2928    2.6775   -1.3242 H   0  0  0  0  0  0  0  0  0  0  0  0
    3.2843    2.8562    0.1212 H   0  0  0  0  0  0  0  0  0  0  0  0
    2.6602   -1.9235    2.4896 H   0  0  0  0  0  0  0  0  0  0  0  0
    5.7455    2.2609   -2.1948 H   0  0  0  0  0  0  0  0  0  0  0  0
    6.0840    0.5454   -2.4624 H   0  0  0  0  0  0  0  0  0  0  0  0
    7.0787    1.5258   -1.3574 H   0  0  0  0  0  0  0  0  0  0  0  0
   -0.5162   -2.4160   -1.5045 H   0  0  0  0  0  0  0  0  0  0  0  0
   -0.4547    1.3155    1.5496 H   0  0  0  0  0  0  0  0  0  0  0  0
   -2.8488   -2.6075   -2.2245 H   0  0  0  0  0  0  0  0  0  0  0  0
    0.0538    0.0039   -3.3496 H   0  0  0  0  0  0  0  0  0  0  0  0
    1.4466   -0.9621   -2.7923 H   0  0  0  0  0  0  0  0  0  0  0  0
    1.7031    0.6097   -3.5910 H   0  0  0  0  0  0  0  0  0  0  0  0
   -1.1251   -3.7423    1.6716 H   0  0  0  0  0  0  0  0  0  0  0  0
    0.4755   -4.1423    2.3343 H   0  0  0  0  0  0  0  0  0  0  0  0
    0.3100   -3.6968    0.6162 H   0  0  0  0  0  0  0  0  0  0  0  0
   -4.5157    2.6571    1.6601 H   0  0  0  0  0  0  0  0  0  0  0  0
   -1.0562    3.5505    2.4131 H   0  0  0  0  0  0  0  0  0  0  0  0
   -2.7475    3.9924    2.6251 H   0  0  0  0  0  0  0  0  0  0  0  0
   -2.0279    2.7498    3.6727 H   0  0  0  0  0  0  0  0  0  0  0  0
   -5.5744   -1.7871    0.3481 H   0  0  0  0  0  0  0  0  0  0  0  0
   -5.3790   -3.0254   -0.9285 H   0  0  0  0  0  0  0  0  0  0  0  0
   -6.6829   -1.8240   -1.0417 H   0  0  0  0  0  0  0  0  0  0  0  0
   -5.1411    1.5596   -1.9521 H   0  0  0  0  0  0  0  0  0  0  0  0
   -5.8916    2.7509   -0.8481 H   0  0  0  0  0  0  0  0  0  0  0  0
   -6.8300    1.3604   -1.4329 H   0  0  0  0  0  0  0  0  0  0  0  0
  1 11  1  0  0  0  0
  1 25  1  0  0  0  0
  2 17  1  0  0  0  0
  2 28  1  0  0  0  0
  3 23  1  0  0  0  0
  3 31  1  0  0  0  0
  4 26  1  0  0  0  0
  4 32  1  0  0  0  0
  5  6  1  0  0  0  0
  5  7  1  0  0  0  0
  5 14  1  0  0  0  0
  6  8  1  0  0  0  0
  6 12  1  0  0  0  0
  6 33  1  0  0  0  0
  7  9  1  0  0  0  0
  7 13  1  0  0  0  0
  7 34  1  0  0  0  0
  8 10  1  0  0  0  0
  8 35  1  0  0  0  0
  8 36  1  0  0  0  0
  9 10  1  0  0  0  0
  9 11  2  0  0  0  0
 10 15  2  0  0  0  0
 11 16  1  0  0  0  0
 12 37  1  0  0  0  0
 12 38  1  0  0  0  0
 12 39  1  0  0  0  0
 13 40  1  0  0  0  0
 13 41  1  0  0  0  0
 13 42  1  0  0  0  0
 14 44  1  0  0  0  0
 14 45  1  0  0  0  0
 14 46  1  0  0  0  0
 15 17  1  0  0  0  0
 15 43  1  0  0  0  0
 16 17  2  0  0  0  0
 16 18  1  0  0  0  0
 18 19  2  0  0  0  0
 18 20  1  0  0  0  0
 19 21  1  0  0  0  0
 19 22  1  0  0  0  0
 20 24  2  0  0  0  0
 20 47  1  0  0  0  0
 21 23  2  0  0  0  0
 21 26  1  0  0  0  0
 22 27  2  0  0  0  0
 22 48  1  0  0  0  0
 23 24  1  0  0  0  0
 24 49  1  0  0  0  0
 25 50  1  0  0  0  0
 25 51  1  0  0  0  0
 25 52  1  0  0  0  0
 26 29  2  0  0  0  0
 27 29  1  0  0  0  0
 27 30  1  0  0  0  0
 28 53  1  0  0  0  0
 28 54  1  0  0  0  0
 28 55  1  0  0  0  0
 29 56  1  0  0  0  0
 30 57  1  0  0  0  0
 30 58  1  0  0  0  0
 30 59  1  0  0  0  0
 31 60  1  0  0  0  0
 31 61  1  0  0  0  0
 31 62  1  0  0  0  0
 32 63  1  0  0  0  0
 32 64  1  0  0  0  0
 32 65  1  0  0  0  0
M  END
> <PUBCHEM_COMPOUND_CID>
443776

> <PUBCHEM_CONFORMER_RMSD>
0.8

> <PUBCHEM_CONFORMER_DIVERSEORDER>
1
4
5
2
3
6

> <PUBCHEM_MMFF94_PARTIAL_CHARGES>
31
1 -0.36
10 -0.14
11 0.08
14 0.27
15 -0.15
17 0.08
2 -0.36
20 -0.15
22 -0.15
23 0.08
24 -0.15
25 0.28
26 0.08
27 -0.14
28 0.28
29 -0.15
3 -0.36
30 0.14
31 0.28
32 0.28
4 -0.36
43 0.15
47 0.15
48 0.15
49 0.15
5 -0.81
56 0.15
6 0.27
7 0.41
8 0.14
9 -0.14

> <PUBCHEM_EFFECTIVE_ROTOR_COUNT>
5.8

> <PUBCHEM_PHARMACOPHORE_FEATURES>
9
1 1 acceptor
1 2 acceptor
1 3 acceptor
1 4 acceptor
1 5 cation
6 18 19 20 21 23 24 rings
6 19 21 22 26 27 29 rings
6 5 6 7 8 9 10 rings
6 9 10 11 15 16 17 rings

> <PUBCHEM_HEAVY_ATOM_COUNT>
32

> <PUBCHEM_ATOM_DEF_STEREO_COUNT>
2

> <PUBCHEM_ATOM_UDEF_STEREO_COUNT>
0

> <PUBCHEM_BOND_DEF_STEREO_COUNT>
0

> <PUBCHEM_BOND_UDEF_STEREO_COUNT>
0

> <PUBCHEM_ISOTOPIC_ATOM_COUNT>
0

> <PUBCHEM_COMPONENT_COUNT>
1

> <PUBCHEM_CACTVS_TAUTO_COUNT>
1

> <PUBCHEM_CONFORMER_ID>
0006C58000000001

> <PUBCHEM_MMFF94_ENERGY>
151.9342

> <PUBCHEM_FEATURE_SELFOVERLAP>
45.728

> <PUBCHEM_SHAPE_FINGERPRINT>
10670039 82 17968090971113936160
10906281 52 16056315162661999639
11007060 377 17988353759749859560
11578080 2 17765485028969093413
11640471 11 18340480153599321585
1200032 147 17462819289109876585
12107183 9 17611741602373521578
12107698 1 18041280963481213296
12166972 35 18271246010922056653
12236239 1 18413394232503284854
12403259 415 16153426138756583488
12596602 18 18342457015033499378
12633257 1 18060422405091749802
12655364 131 17985840452215282658
12788726 201 18261108535167588755
13140716 1 17489307418119308394
13583140 156 18131624604579155193
13947920 75 18187083966372230696
13965767 371 17543332204690553633
14294032 229 17896306082336409529
14747281 78 14708872506693573785
14840074 17 17489867133514008390
14955137 171 15697985324624947638
15064981 113 17822849905102012260
15183329 4 18113609119468918436
15297060 5 17458623484261204329
15420108 30 17830728017088551016
20511986 3 18340220629857848925
21033648 144 17987239937449095084
21033648 29 16916798344433373164
21033650 10 17897136166412437328
21756936 100 18268409314029991720
21792961 116 16008742521087540996
22122407 14 17774713272657574357
23557571 272 17530679892291961495
23559900 14 17458068153036466048
23569917 315 18130790053632053802
335352 9 17703794700706047846
34797466 226 17241042086139780292
3633792 109 18201732755320108687
4258327 124 16771814456298361926
46194498 28 15430336727518048408
474 4 18272367611423912338
5104073 3 17416968327840998984
6608658 132 18337096960537345292
77296 10 17677325143161259006
7808743 9 17823128098354397833
9849439 229 17463679150448440921
9981440 41 18113608010803535519

> <PUBCHEM_SHAPE_MULTIPOLES>
630.09
13.49
2.81
2.22
7.54
0.21
-0.05
2.98
-3.55
-2.57
1.46
0.24
0.15
-3.01

> <PUBCHEM_SHAPE_SELFOVERLAP>
1371.662

> <PUBCHEM_SHAPE_VOLUME>
347.2

> <PUBCHEM_COORDINATE_TYPE>
2
5
10

$$$$

