5281461
  -OEChem-07051212573D

 52 53  0     1  0  0  0  0  0999 V2000
    2.1808    2.0939    1.1100 O   0  0  0  0  0  0  0  0  0  0  0  0
   -1.2224    0.5595   -0.5613 O   0  0  0  0  0  0  0  0  0  0  0  0
    2.2817    4.1469    0.0815 O   0  0  0  0  0  0  0  0  0  0  0  0
   -2.6086   -0.5174   -2.0502 O   0  0  0  0  0  0  0  0  0  0  0  0
   -2.5909    1.0453    2.1630 O   0  0  0  0  0  0  0  0  0  0  0  0
   -6.7084   -0.9568    0.4335 O   0  0  0  0  0  0  0  0  0  0  0  0
    1.1913    0.7876   -0.6209 C   0  0  2  0  0  0  0  0  0  0  0  0
   -0.0363   -0.0279   -1.1108 C   0  0  1  0  0  0  0  0  0  0  0  0
    1.4396    0.8829    0.8924 C   0  0  1  0  0  0  0  0  0  0  0  0
   -0.0961   -1.5498   -0.8083 C   0  0  0  0  0  0  0  0  0  0  0  0
    1.1771    2.2544   -0.9404 C   0  0  0  0  0  0  0  0  0  0  0  0
    2.1755   -0.2866    1.4876 C   0  0  0  0  0  0  0  0  0  0  0  0
    1.2006   -2.3233   -0.9295 C   0  0  0  0  0  0  0  0  0  0  0  0
    1.9270    2.9822    0.1066 C   0  0  0  0  0  0  0  0  0  0  0  0
    3.3657   -0.8163    1.1251 C   0  0  0  0  0  0  0  0  0  0  0  0
    3.6732   -2.2609    1.5111 C   0  0  0  0  0  0  0  0  0  0  0  0
    3.1276   -3.2613    0.4537 C   0  0  0  0  0  0  0  0  0  0  0  0
    1.6818   -2.9389    0.1701 C   0  0  0  0  0  0  0  0  0  0  0  0
    0.6054    2.9121   -1.9530 C   0  0  0  0  0  0  0  0  0  0  0  0
    1.9028   -2.2717   -2.2557 C   0  0  0  0  0  0  0  0  0  0  0  0
    4.3719   -0.1741    0.2145 C   0  0  0  0  0  0  0  0  0  0  0  0
   -2.4043    0.0107   -0.9662 C   0  0  0  0  0  0  0  0  0  0  0  0
   -3.4239    0.1434    0.1190 C   0  0  0  0  0  0  0  0  0  0  0  0
   -3.3749    1.3462    1.0167 C   0  0  0  0  0  0  0  0  0  0  0  0
   -4.3565   -0.8267    0.1649 C   0  0  0  0  0  0  0  0  0  0  0  0
   -5.4794   -0.9532    1.1466 C   0  0  0  0  0  0  0  0  0  0  0  0
    2.0812    0.3956   -1.1216 H   0  0  0  0  0  0  0  0  0  0  0  0
   -0.0795    0.0872   -2.2031 H   0  0  0  0  0  0  0  0  0  0  0  0
    0.4911    0.9951    1.4353 H   0  0  0  0  0  0  0  0  0  0  0  0
   -0.8125   -2.0384   -1.4805 H   0  0  0  0  0  0  0  0  0  0  0  0
   -0.5228   -1.6846    0.1958 H   0  0  0  0  0  0  0  0  0  0  0  0
    1.5526   -0.8718    2.1649 H   0  0  0  0  0  0  0  0  0  0  0  0
    4.7537   -2.4013    1.6334 H   0  0  0  0  0  0  0  0  0  0  0  0
    3.2279   -2.4900    2.4888 H   0  0  0  0  0  0  0  0  0  0  0  0
    3.2072   -4.2846    0.8364 H   0  0  0  0  0  0  0  0  0  0  0  0
    3.7471   -3.2059   -0.4465 H   0  0  0  0  0  0  0  0  0  0  0  0
    1.0455   -2.9912    1.0537 H   0  0  0  0  0  0  0  0  0  0  0  0
    0.0514    2.3878   -2.7236 H   0  0  0  0  0  0  0  0  0  0  0  0
    0.6752    3.9908   -2.0457 H   0  0  0  0  0  0  0  0  0  0  0  0
    1.1866   -2.4640   -3.0622 H   0  0  0  0  0  0  0  0  0  0  0  0
    2.6791   -3.0372   -2.3441 H   0  0  0  0  0  0  0  0  0  0  0  0
    2.3644   -1.2990   -2.4357 H   0  0  0  0  0  0  0  0  0  0  0  0
    4.4419   -0.7221   -0.7301 H   0  0  0  0  0  0  0  0  0  0  0  0
    5.3591   -0.1795    0.6887 H   0  0  0  0  0  0  0  0  0  0  0  0
    4.1388    0.8674   -0.0161 H   0  0  0  0  0  0  0  0  0  0  0  0
   -4.3728    1.6542    1.3428 H   0  0  0  0  0  0  0  0  0  0  0  0
   -2.9309    2.2040    0.4996 H   0  0  0  0  0  0  0  0  0  0  0  0
   -4.3030   -1.6473   -0.5497 H   0  0  0  0  0  0  0  0  0  0  0  0
   -5.5058   -0.1466    1.8827 H   0  0  0  0  0  0  0  0  0  0  0  0
   -5.3878   -1.9033    1.6827 H   0  0  0  0  0  0  0  0  0  0  0  0
   -2.5683    1.8474    2.7121 H   0  0  0  0  0  0  0  0  0  0  0  0
   -7.4179   -1.0746    1.0879 H   0  0  0  0  0  0  0  0  0  0  0  0
  1  9  1  0  0  0  0
  1 14  1  0  0  0  0
  2  8  1  0  0  0  0
  2 22  1  0  0  0  0
  3 14  2  0  0  0  0
  4 22  2  0  0  0  0
  5 24  1  0  0  0  0
  5 51  1  0  0  0  0
  6 26  1  0  0  0  0
  6 52  1  0  0  0  0
  7  8  1  0  0  0  0
  7  9  1  0  0  0  0
  7 11  1  0  0  0  0
  7 27  1  0  0  0  0
  8 10  1  0  0  0  0
  8 28  1  0  0  0  0
  9 12  1  0  0  0  0
  9 29  1  0  0  0  0
 10 13  1  0  0  0  0
 10 30  1  0  0  0  0
 10 31  1  0  0  0  0
 11 14  1  0  0  0  0
 11 19  2  0  0  0  0
 12 15  2  0  0  0  0
 12 32  1  0  0  0  0
 13 18  2  0  0  0  0
 13 20  1  0  0  0  0
 15 16  1  0  0  0  0
 15 21  1  0  0  0  0
 16 17  1  0  0  0  0
 16 33  1  0  0  0  0
 16 34  1  0  0  0  0
 17 18  1  0  0  0  0
 17 35  1  0  0  0  0
 17 36  1  0  0  0  0
 18 37  1  0  0  0  0
 19 38  1  0  0  0  0
 19 39  1  0  0  0  0
 20 40  1  0  0  0  0
 20 41  1  0  0  0  0
 20 42  1  0  0  0  0
 21 43  1  0  0  0  0
 21 44  1  0  0  0  0
 21 45  1  0  0  0  0
 22 23  1  0  0  0  0
 23 24  1  0  0  0  0
 23 25  2  0  0  0  0
 24 46  1  0  0  0  0
 24 47  1  0  0  0  0
 25 26  1  0  0  0  0
 25 48  1  0  0  0  0
 26 49  1  0  0  0  0
 26 50  1  0  0  0  0
M  END
> <PUBCHEM_COMPOUND_CID>
5281461

> <PUBCHEM_CONFORMER_RMSD>
0.8

> <PUBCHEM_CONFORMER_DIVERSEORDER>
1
59
71
75
25
60
43
22
13
74
81
15
37
34
5
26
69
38
29
63
31
73
20
67
28
76
47
82
14
19
7
51
12
61
77
8
17
53
21
54
24
58
84
10
55
48
9
18
42
45
41
66
6
57
83
50
2
80
68
30
11
64
70
33
36
40
65
72
4
49
78
46
35
62
39
52
27
79
56
85
44
23
3
16
32

> <PUBCHEM_MMFF94_PARTIAL_CHARGES>
33
1 -0.43
10 0.14
11 -0.12
12 -0.29
13 -0.28
14 0.71
15 -0.28
16 0.14
17 0.14
18 -0.29
19 -0.3
2 -0.43
20 0.14
21 0.14
22 0.71
23 -0.12
24 0.42
25 -0.29
26 0.42
3 -0.57
32 0.15
37 0.15
38 0.15
39 0.15
4 -0.57
48 0.15
5 -0.68
51 0.4
52 0.4
6 -0.68
7 0.14
8 0.28
9 0.42

> <PUBCHEM_EFFECTIVE_ROTOR_COUNT>
6

> <PUBCHEM_PHARMACOPHORE_FEATURES>
7
1 3 acceptor
1 4 acceptor
1 5 acceptor
1 5 donor
1 6 acceptor
1 6 donor
5 1 7 9 11 14 rings

> <PUBCHEM_HEAVY_ATOM_COUNT>
26

> <PUBCHEM_ATOM_DEF_STEREO_COUNT>
3

> <PUBCHEM_ATOM_UDEF_STEREO_COUNT>
0

> <PUBCHEM_BOND_DEF_STEREO_COUNT>
3

> <PUBCHEM_BOND_UDEF_STEREO_COUNT>
0

> <PUBCHEM_ISOTOPIC_ATOM_COUNT>
0

> <PUBCHEM_COMPONENT_COUNT>
1

> <PUBCHEM_CACTVS_TAUTO_COUNT>
1

> <PUBCHEM_CONFORMER_ID>
005096B500000001

> <PUBCHEM_MMFF94_ENERGY>
68.6971

> <PUBCHEM_FEATURE_SELFOVERLAP>
35.52

> <PUBCHEM_SHAPE_FINGERPRINT>
11244481 83 17845350216067127690
12422481 6 17607546905474003178
12553582 1 18338815493232278054
12633257 1 18342185431588693683
13140716 1 18194122915016556238
13533116 47 18343580712423959827
14341114 176 18334293188859128299
14363568 33 18340778070011788076
14787075 74 17775000211227837194
14790565 3 18339644443670250628
14955137 171 18335976511217508966
1601671 61 18334015012606899398
1813 80 18268140027927685358
18785283 64 18341895134537490774
20600515 1 17912085263320128620
20739085 24 18261954171436669042
21421861 104 18261663823136308579
23558518 356 17185597910607433876
23559900 14 18261938735698747391
2748010 2 17686662256123188142
3380486 145 17828235351345333710
35225 105 17045958851210168904
6786 2 16906878451611415844
81228 2 17402609044271602916
9841814 1 18341882022329799575
9999458 23 18338513032697063596

> <PUBCHEM_SHAPE_MULTIPOLES>
499.85
8.96
3.99
1.86
15.34
2.26
0.39
-5.08
-4.19
-4.52
0.54
-0.1
-0.12
-0.18

> <PUBCHEM_SHAPE_SELFOVERLAP>
1028.871

> <PUBCHEM_SHAPE_VOLUME>
285.4

> <PUBCHEM_COORDINATE_TYPE>
2
5
10

$$$$

