13210
  -OEChem-06261207543D

 21 22  0     0  0  0  0  0  0999 V2000
    2.0560    0.3675   -0.0001 P   0  0  0  0  0  0  0  0  0  0  0  0
    1.6559   -1.2068   -0.0328 O   0  0  0  0  0  0  0  0  0  0  0  0
    1.1434    0.8476    1.2553 O   0  0  0  0  0  0  0  0  0  0  0  0
    1.1295    0.9028   -1.2225 O   0  0  0  0  0  0  0  0  0  0  0  0
   -0.6360   -0.3042    0.0001 C   0  0  0  0  0  0  0  0  0  0  0  0
    0.2661   -1.5501   -0.0330 C   0  0  0  0  0  0  0  0  0  0  0  0
   -0.2452    0.4995    1.2525 C   0  0  0  0  0  0  0  0  0  0  0  0
   -0.2591    0.5546   -1.2195 C   0  0  0  0  0  0  0  0  0  0  0  0
   -2.1145   -0.6731    0.0002 C   0  0  0  0  0  0  0  0  0  0  0  0
   -2.9962    0.5621   -0.0001 C   0  0  0  0  0  0  0  0  0  0  0  0
    0.0814   -2.1921    0.8367 H   0  0  0  0  0  0  0  0  0  0  0  0
    0.0721   -2.1523   -0.9287 H   0  0  0  0  0  0  0  0  0  0  0  0
   -0.7932    1.4436    1.3279 H   0  0  0  0  0  0  0  0  0  0  0  0
   -0.4486   -0.0712    2.1667 H   0  0  0  0  0  0  0  0  0  0  0  0
   -0.4738    0.0264   -2.1562 H   0  0  0  0  0  0  0  0  0  0  0  0
   -0.8058    1.5023   -1.2446 H   0  0  0  0  0  0  0  0  0  0  0  0
   -2.3522   -1.2838    0.8798 H   0  0  0  0  0  0  0  0  0  0  0  0
   -2.3533   -1.2822   -0.8804 H   0  0  0  0  0  0  0  0  0  0  0  0
   -2.8505    1.1927    0.8800 H   0  0  0  0  0  0  0  0  0  0  0  0
   -2.8778    1.1688   -0.9013 H   0  0  0  0  0  0  0  0  0  0  0  0
   -4.0460    0.2462    0.0191 H   0  0  0  0  0  0  0  0  0  0  0  0
  1  2  1  0  0  0  0
  1  3  1  0  0  0  0
  1  4  1  0  0  0  0
  2  6  1  0  0  0  0
  3  7  1  0  0  0  0
  4  8  1  0  0  0  0
  5  6  1  0  0  0  0
  5  7  1  0  0  0  0
  5  8  1  0  0  0  0
  5  9  1  0  0  0  0
  6 11  1  0  0  0  0
  6 12  1  0  0  0  0
  7 13  1  0  0  0  0
  7 14  1  0  0  0  0
  8 15  1  0  0  0  0
  8 16  1  0  0  0  0
  9 10  1  0  0  0  0
  9 17  1  0  0  0  0
  9 18  1  0  0  0  0
 10 19  1  0  0  0  0
 10 20  1  0  0  0  0
 10 21  1  0  0  0  0
M  END
> <PUBCHEM_COMPOUND_CID>
13210

> <PUBCHEM_CONFORMER_RMSD>
0.4

> <PUBCHEM_CONFORMER_DIVERSEORDER>
1

> <PUBCHEM_MMFF94_PARTIAL_CHARGES>
7
1 0.3
2 -0.38
3 -0.38
4 -0.38
6 0.28
7 0.28
8 0.28

> <PUBCHEM_EFFECTIVE_ROTOR_COUNT>
2.2

> <PUBCHEM_PHARMACOPHORE_FEATURES>
2
1 10 hydrophobe
8 1 2 3 4 5 6 7 8 rings

> <PUBCHEM_HEAVY_ATOM_COUNT>
10

> <PUBCHEM_ATOM_DEF_STEREO_COUNT>
0

> <PUBCHEM_ATOM_UDEF_STEREO_COUNT>
0

> <PUBCHEM_BOND_DEF_STEREO_COUNT>
0

> <PUBCHEM_BOND_UDEF_STEREO_COUNT>
0

> <PUBCHEM_ISOTOPIC_ATOM_COUNT>
0

> <PUBCHEM_COMPONENT_COUNT>
1

> <PUBCHEM_CACTVS_TAUTO_COUNT>
1

> <PUBCHEM_CONFORMER_ID>
0000339A00000001

> <PUBCHEM_MMFF94_ENERGY>
35.5937

> <PUBCHEM_FEATURE_SELFOVERLAP>
10.148

> <PUBCHEM_SHAPE_FINGERPRINT>
12423570 1 15533997670050823338
137420 1 16953114294132855556
16945 1 18338234971987322095
20653085 51 17555988339572004468
21040471 1 18338235938391990895
29004967 10 17917987295561279499
5084963 1 18342458127683353563
528886 8 18202560674569459615

> <PUBCHEM_SHAPE_MULTIPOLES>
192.04
3.04
1.25
1.16
1.72
0.4
0.03
-0.36
0
-0.22
-0.03
-0.21
-0.38
0.01

> <PUBCHEM_SHAPE_SELFOVERLAP>
383.666

> <PUBCHEM_SHAPE_VOLUME>
116.4

> <PUBCHEM_COORDINATE_TYPE>
2
5
10

$$$$

