441781
  -OEChem-07051212563D

 38 40  0     0  0  0  0  0  0999 V2000
    0.7829   -1.0563    0.1917 O   0  0  0  0  0  0  0  0  0  0  0  0
   -1.7942   -2.3998    0.2049 O   0  0  0  0  0  0  0  0  0  0  0  0
    3.6318   -1.5715    0.4563 O   0  0  0  0  0  0  0  0  0  0  0  0
   -4.0223   -0.7794   -0.1707 O   0  0  0  0  0  0  0  0  0  0  0  0
   -3.7268    1.9371   -0.5309 O   0  0  0  0  0  0  0  0  0  0  0  0
    5.3003    0.6575    0.2620 O   0  0  0  0  0  0  0  0  0  0  0  0
   -0.2272    0.9374   -0.1541 C   0  0  0  0  0  0  0  0  0  0  0  0
    1.1807    1.1522   -0.0885 C   0  0  0  0  0  0  0  0  0  0  0  0
   -0.4149   -0.4299    0.0235 C   0  0  0  0  0  0  0  0  0  0  0  0
    1.7500   -0.0994    0.1240 C   0  0  0  0  0  0  0  0  0  0  0  0
   -1.6612   -1.0540    0.0262 C   0  0  0  0  0  0  0  0  0  0  0  0
   -1.3607    1.7491   -0.3437 C   0  0  0  0  0  0  0  0  0  0  0  0
    3.1199   -0.3243    0.2483 C   0  0  0  0  0  0  0  0  0  0  0  0
    2.0334    2.2672   -0.1853 C   0  0  0  0  0  0  0  0  0  0  0  0
   -2.7724   -0.2275   -0.1641 C   0  0  0  0  0  0  0  0  0  0  0  0
   -2.6275    1.1496   -0.3461 C   0  0  0  0  0  0  0  0  0  0  0  0
    3.9472    0.7981    0.1489 C   0  0  0  0  0  0  0  0  0  0  0  0
    3.4159    2.0722   -0.0639 C   0  0  0  0  0  0  0  0  0  0  0  0
   -1.1528   -3.2447   -0.7473 C   0  0  0  0  0  0  0  0  0  0  0  0
   -4.4308   -1.4627    1.0104 C   0  0  0  0  0  0  0  0  0  0  0  0
    3.3609   -2.5555   -0.5388 C   0  0  0  0  0  0  0  0  0  0  0  0
   -4.3325    2.4846    0.6372 C   0  0  0  0  0  0  0  0  0  0  0  0
   -1.2570    2.8211   -0.4868 H   0  0  0  0  0  0  0  0  0  0  0  0
    1.6360    3.2641   -0.3505 H   0  0  0  0  0  0  0  0  0  0  0  0
    4.0720    2.9365   -0.1389 H   0  0  0  0  0  0  0  0  0  0  0  0
   -1.6774   -4.2044   -0.7561 H   0  0  0  0  0  0  0  0  0  0  0  0
   -0.1156   -3.4250   -0.4528 H   0  0  0  0  0  0  0  0  0  0  0  0
   -1.1940   -2.8200   -1.7562 H   0  0  0  0  0  0  0  0  0  0  0  0
    5.7193    1.5304    0.1693 H   0  0  0  0  0  0  0  0  0  0  0  0
   -3.9306   -1.0786    1.9065 H   0  0  0  0  0  0  0  0  0  0  0  0
   -4.2508   -2.5362    0.9043 H   0  0  0  0  0  0  0  0  0  0  0  0
   -5.5075   -1.3115    1.1315 H   0  0  0  0  0  0  0  0  0  0  0  0
    4.1451   -3.3162   -0.4857 H   0  0  0  0  0  0  0  0  0  0  0  0
    3.3669   -2.1239   -1.5455 H   0  0  0  0  0  0  0  0  0  0  0  0
    2.4014   -3.0398   -0.3386 H   0  0  0  0  0  0  0  0  0  0  0  0
   -3.6297    3.1388    1.1629 H   0  0  0  0  0  0  0  0  0  0  0  0
   -4.6758    1.6889    1.3055 H   0  0  0  0  0  0  0  0  0  0  0  0
   -5.1974    3.0780    0.3285 H   0  0  0  0  0  0  0  0  0  0  0  0
  1  9  1  0  0  0  0
  1 10  1  0  0  0  0
  2 11  1  0  0  0  0
  2 19  1  0  0  0  0
  3 13  1  0  0  0  0
  3 21  1  0  0  0  0
  4 15  1  0  0  0  0
  4 20  1  0  0  0  0
  5 16  1  0  0  0  0
  5 22  1  0  0  0  0
  6 17  1  0  0  0  0
  6 29  1  0  0  0  0
  7  8  1  0  0  0  0
  7  9  1  0  0  0  0
  7 12  2  0  0  0  0
  8 10  2  0  0  0  0
  8 14  1  0  0  0  0
  9 11  2  0  0  0  0
 10 13  1  0  0  0  0
 11 15  1  0  0  0  0
 12 16  1  0  0  0  0
 12 23  1  0  0  0  0
 13 17  2  0  0  0  0
 14 18  2  0  0  0  0
 14 24  1  0  0  0  0
 15 16  2  0  0  0  0
 17 18  1  0  0  0  0
 18 25  1  0  0  0  0
 19 26  1  0  0  0  0
 19 27  1  0  0  0  0
 19 28  1  0  0  0  0
 20 30  1  0  0  0  0
 20 31  1  0  0  0  0
 20 32  1  0  0  0  0
 21 33  1  0  0  0  0
 21 34  1  0  0  0  0
 21 35  1  0  0  0  0
 22 36  1  0  0  0  0
 22 37  1  0  0  0  0
 22 38  1  0  0  0  0
M  END
> <PUBCHEM_COMPOUND_CID>
441781

> <PUBCHEM_CONFORMER_RMSD>
0.6

> <PUBCHEM_CONFORMER_DIVERSEORDER>
4
7
1
3
5
2
6

> <PUBCHEM_MMFF94_PARTIAL_CHARGES>
24
1 -0.28
10 0.14
11 0.08
12 -0.15
13 0.08
14 -0.15
15 0.08
16 0.08
17 0.08
18 -0.15
19 0.28
2 -0.36
20 0.28
21 0.28
22 0.28
23 0.15
24 0.15
25 0.15
29 0.45
3 -0.36
4 -0.36
5 -0.36
6 -0.53
9 0.14

> <PUBCHEM_EFFECTIVE_ROTOR_COUNT>
4

> <PUBCHEM_PHARMACOPHORE_FEATURES>
9
1 1 acceptor
1 2 acceptor
1 3 acceptor
1 4 acceptor
1 5 acceptor
1 6 donor
5 1 7 8 9 10 rings
6 7 9 11 12 15 16 rings
6 8 10 13 14 17 18 rings

> <PUBCHEM_HEAVY_ATOM_COUNT>
22

> <PUBCHEM_ATOM_DEF_STEREO_COUNT>
0

> <PUBCHEM_ATOM_UDEF_STEREO_COUNT>
0

> <PUBCHEM_BOND_DEF_STEREO_COUNT>
0

> <PUBCHEM_BOND_UDEF_STEREO_COUNT>
0

> <PUBCHEM_ISOTOPIC_ATOM_COUNT>
0

> <PUBCHEM_COMPONENT_COUNT>
1

> <PUBCHEM_CACTVS_TAUTO_COUNT>
3

> <PUBCHEM_CONFORMER_ID>
0006BDB500000004

> <PUBCHEM_MMFF94_ENERGY>
90.4119

> <PUBCHEM_FEATURE_SELFOVERLAP>
45.884

> <PUBCHEM_SHAPE_FINGERPRINT>
10411042 1 16680911675817036607
10608611 8 18411705361279181492
10616163 171 18337954463742587886
10967382 1 18411421670257172926
11405975 8 18339361984317036073
12390115 104 18261937618527533713
12500047 106 18335991904048007912
12553582 1 18338807693286844886
13140716 1 18339637957936674913
14178342 30 18266478515840163800
14790565 3 18338509841331283409
14866123 147 17109027371129780634
15042514 8 18123748656618355387
15196674 1 18411702118488805936
15442244 35 18411421747598284736
15536298 74 18409451414250522780
16945 1 18193283996287323021
17492 89 18411419518205043619
1813 80 17060337427096996580
18186145 218 18200317739589495748
19591789 44 18411981381821454051
20510252 161 18334010584421907425
20739085 24 17980739838663529880
21267235 1 18341605980470562730
21421861 104 17845102951190647978
21501502 16 18411985732496581524
21521239 73 18044682964685690069
221490 88 18413102888002879842
2334 1 18411983546722244221
23402539 116 18263088734513873335
23557571 272 18261103042015102428
23558518 356 18057606460690686866
23559900 14 18335143150286525302
2748010 2 18412828010291127845
335352 9 18195247938723553988
34934 24 18339931398402121706
350125 39 18410853253148305801
4214541 1 18412265034077512952
5104073 3 18412548738284572016
69090 78 18410578349123268383
7364860 26 18408886214029546508
7832392 63 18411422795771011868
9709674 26 18411417302202054078

> <PUBCHEM_SHAPE_MULTIPOLES>
417.53
8.96
3.23
0.75
1.14
1.2
-0.02
-1.5
-1.37
-0.87
0.37
-0.29
0.1
0.2

> <PUBCHEM_SHAPE_SELFOVERLAP>
920.276

> <PUBCHEM_SHAPE_VOLUME>
229.2

> <PUBCHEM_COORDINATE_TYPE>
2
5
10

$$$$

