5205
  -OEChem-06261200343D

 39 42  0     1  0  0  0  0  0999 V2000
    3.2989   -1.0439    0.5113 N   0  0  1  0  0  0  0  0  0  0  0  0
    0.5152   -1.1270   -0.0970 C   0  0  0  0  0  0  0  0  0  0  0  0
    1.1404    0.0774   -0.1140 C   0  0  0  0  0  0  0  0  0  0  0  0
    1.3325   -2.4080   -0.0174 C   0  0  0  0  0  0  0  0  0  0  0  0
    2.6591    0.1633   -0.0354 C   0  0  0  0  0  0  0  0  0  0  0  0
    2.8387   -2.2191   -0.2261 C   0  0  0  0  0  0  0  0  0  0  0  0
   -0.9667   -1.3081   -0.1224 C   0  0  0  0  0  0  0  0  0  0  0  0
    0.4437    1.3942   -0.1696 C   0  0  0  0  0  0  0  0  0  0  0  0
   -1.8200   -0.5249    0.6872 C   0  0  0  0  0  0  0  0  0  0  0  0
   -0.6778    1.6712    0.6416 C   0  0  0  0  0  0  0  0  0  0  0  0
   -1.2697    0.6020    1.5278 C   0  0  0  0  0  0  0  0  0  0  0  0
    4.7553   -0.9275    0.4517 C   0  0  0  0  0  0  0  0  0  0  0  0
   -1.5497   -2.2942   -0.9383 C   0  0  0  0  0  0  0  0  0  0  0  0
    0.9308    2.4117   -1.0091 C   0  0  0  0  0  0  0  0  0  0  0  0
   -3.2070   -0.7528    0.6760 C   0  0  0  0  0  0  0  0  0  0  0  0
   -1.2802    2.9394    0.5953 C   0  0  0  0  0  0  0  0  0  0  0  0
   -2.9297   -2.5105   -0.9416 C   0  0  0  0  0  0  0  0  0  0  0  0
    0.3234    3.6682   -1.0461 C   0  0  0  0  0  0  0  0  0  0  0  0
   -3.7575   -1.7441   -0.1310 C   0  0  0  0  0  0  0  0  0  0  0  0
   -0.7798    3.9327   -0.2429 C   0  0  0  0  0  0  0  0  0  0  0  0
    1.1640   -2.8520    0.9733 H   0  0  0  0  0  0  0  0  0  0  0  0
    1.0031   -3.1450   -0.7564 H   0  0  0  0  0  0  0  0  0  0  0  0
    3.0519    0.3788   -1.0385 H   0  0  0  0  0  0  0  0  0  0  0  0
    2.9323    1.0035    0.6165 H   0  0  0  0  0  0  0  0  0  0  0  0
    3.3496   -3.1225    0.1296 H   0  0  0  0  0  0  0  0  0  0  0  0
    3.0603   -2.1247   -1.2980 H   0  0  0  0  0  0  0  0  0  0  0  0
   -2.0590    1.0266    2.1610 H   0  0  0  0  0  0  0  0  0  0  0  0
   -0.5143    0.2233    2.2285 H   0  0  0  0  0  0  0  0  0  0  0  0
    5.0953   -0.0582    1.0254 H   0  0  0  0  0  0  0  0  0  0  0  0
    5.1229   -0.8283   -0.5760 H   0  0  0  0  0  0  0  0  0  0  0  0
    5.2290   -1.8063    0.9033 H   0  0  0  0  0  0  0  0  0  0  0  0
   -0.9445   -2.9058   -1.6026 H   0  0  0  0  0  0  0  0  0  0  0  0
    1.7885    2.2405   -1.6555 H   0  0  0  0  0  0  0  0  0  0  0  0
   -3.8690   -0.1488    1.2918 H   0  0  0  0  0  0  0  0  0  0  0  0
   -2.1499    3.1585    1.2099 H   0  0  0  0  0  0  0  0  0  0  0  0
   -3.3556   -3.2777   -1.5819 H   0  0  0  0  0  0  0  0  0  0  0  0
    0.7141    4.4395   -1.7036 H   0  0  0  0  0  0  0  0  0  0  0  0
   -4.8305   -1.9105   -0.1345 H   0  0  0  0  0  0  0  0  0  0  0  0
   -1.2535    4.9094   -0.2722 H   0  0  0  0  0  0  0  0  0  0  0  0
  1  5  1  0  0  0  0
  1  6  1  0  0  0  0
  1 12  1  0  0  0  0
  2  3  2  0  0  0  0
  2  4  1  0  0  0  0
  2  7  1  0  0  0  0
  3  5  1  0  0  0  0
  3  8  1  0  0  0  0
  4  6  1  0  0  0  0
  4 21  1  0  0  0  0
  4 22  1  0  0  0  0
  5 23  1  0  0  0  0
  5 24  1  0  0  0  0
  6 25  1  0  0  0  0
  6 26  1  0  0  0  0
  7  9  1  0  0  0  0
  7 13  2  0  0  0  0
  8 10  1  0  0  0  0
  8 14  2  0  0  0  0
  9 11  1  0  0  0  0
  9 15  2  0  0  0  0
 10 11  1  0  0  0  0
 10 16  2  0  0  0  0
 11 27  1  0  0  0  0
 11 28  1  0  0  0  0
 12 29  1  0  0  0  0
 12 30  1  0  0  0  0
 12 31  1  0  0  0  0
 13 17  1  0  0  0  0
 13 32  1  0  0  0  0
 14 18  1  0  0  0  0
 14 33  1  0  0  0  0
 15 19  1  0  0  0  0
 15 34  1  0  0  0  0
 16 20  1  0  0  0  0
 16 35  1  0  0  0  0
 17 19  2  0  0  0  0
 17 36  1  0  0  0  0
 18 20  2  0  0  0  0
 18 37  1  0  0  0  0
 19 38  1  0  0  0  0
 20 39  1  0  0  0  0
M  END
> <PUBCHEM_COMPOUND_CID>
5205

> <PUBCHEM_CONFORMER_RMSD>
0.6

> <PUBCHEM_CONFORMER_DIVERSEORDER>
1
2

> <PUBCHEM_MMFF94_PARTIAL_CHARGES>
28
1 -0.81
10 -0.14
11 0.29
12 0.27
13 -0.15
14 -0.15
15 -0.15
16 -0.15
17 -0.15
18 -0.15
19 -0.15
2 -0.17
20 -0.15
3 -0.17
32 0.15
33 0.15
34 0.15
35 0.15
36 0.15
37 0.15
38 0.15
39 0.15
4 0.14
5 0.41
6 0.27
7 0.03
8 0.03
9 -0.14

> <PUBCHEM_EFFECTIVE_ROTOR_COUNT>
1

> <PUBCHEM_PHARMACOPHORE_FEATURES>
5
1 1 cation
6 1 2 3 4 5 6 rings
6 7 9 13 15 17 19 rings
6 8 10 14 16 18 20 rings
7 2 3 7 8 9 10 11 rings

> <PUBCHEM_HEAVY_ATOM_COUNT>
20

> <PUBCHEM_ATOM_DEF_STEREO_COUNT>
0

> <PUBCHEM_ATOM_UDEF_STEREO_COUNT>
0

> <PUBCHEM_BOND_DEF_STEREO_COUNT>
0

> <PUBCHEM_BOND_UDEF_STEREO_COUNT>
0

> <PUBCHEM_ISOTOPIC_ATOM_COUNT>
0

> <PUBCHEM_COMPONENT_COUNT>
1

> <PUBCHEM_CACTVS_TAUTO_COUNT>
1

> <PUBCHEM_CONFORMER_ID>
0000145500000001

> <PUBCHEM_MMFF94_ENERGY>
68.9075

> <PUBCHEM_FEATURE_SELFOVERLAP>
25.401

> <PUBCHEM_SHAPE_FINGERPRINT>
104564 63 18336826501971556502
10670039 82 18342163481086490596
10871710 139 18268971198857884372
10967382 1 18193835933844143210
1100329 8 17690280409413793738
11045515 52 18271815596335855247
11101153 10 18343018866688888780
11265709 11 18411980243385751098
11578080 2 17896056389737751249
12035759 4 18196629870532374692
12422481 6 17760622043795069497
12553582 1 18339346492465230342
12788726 201 18199759200625347714
13004483 165 18339657731470480379
13009979 54 17969204651917865347
13132413 78 18263363607529718357
13140716 1 18336819801769684625
13681431 1 18126575526228770144
138480 1 15167984873374777132
13965767 371 17610871832535226419
14181834 199 18125999360608114965
14840074 17 17550699637520156240
16945 1 18187361068855910930
17357779 13 18262537964433556263
1813 80 18337097995613362374
18785283 64 17839735964025777787
19591789 44 16393233696045414410
21041028 32 18342163454403881409
21197605 99 17833256899003096505
21304303 282 17048855377402491580
21339142 126 18338239370329518242
21524375 3 17189810676085933898
22112679 90 18189034443964695163
22182313 1 17474926093500987785
2255824 54 17978228257810357839
22907989 373 18125427851017157100
2334 1 18048027476349752619
23388829 49 18337666425839174752
23402539 116 18409175411025782598
23419403 2 17824857501158629217
23559900 14 17976555914011150327
238 59 17546770008430737911
25 1 17547284502557966917
25147074 1 17753038407530665883
257057 1 18410015407564706849
2748010 2 17401461137131715681
3091708 16 9280764898921027440
34934 24 18269557294142286819
352729 6 17616814778571437824
458136 41 17332797254595053755
6992083 37 18334562560538637147
7364860 26 17978513031263663071
7471813 234 17898023338825077487
81228 2 18340764956901276434
84936 182 17614842912200185849
90316 7 18411140276621233562

> <PUBCHEM_SHAPE_MULTIPOLES>
406.61
5.39
4.63
1.04
2.4
4.71
0.05
-5.43
0.54
-0.4
-1.3
-0.33
0.24
-1.03

> <PUBCHEM_SHAPE_SELFOVERLAP>
899.227

> <PUBCHEM_SHAPE_VOLUME>
212.9

> <PUBCHEM_COORDINATE_TYPE>
2
5
10

$$$$

