11966
  -OEChem-06261206202D

 28 28  0     0  0  0  0  0  0999 V2000
    3.7320    1.5670    0.0000 O   0  0  0  0  0  0  0  0  0  0  0  0
    3.7320    0.5670    0.0000 O   0  0  0  0  0  0  0  0  0  0  0  0
    2.0000    0.5670    0.0000 O   0  0  0  0  0  0  0  0  0  0  0  0
    4.5981    2.0670    0.0000 C   0  0  0  0  0  0  0  0  0  0  0  0
    5.4641    2.5670    0.0000 C   0  0  0  0  0  0  0  0  0  0  0  0
    4.0981    2.9330    0.0000 C   0  0  0  0  0  0  0  0  0  0  0  0
    5.0981    1.2010    0.0000 C   0  0  0  0  0  0  0  0  0  0  0  0
    2.8660   -0.9330    0.0000 C   0  0  0  0  0  0  0  0  0  0  0  0
    2.8660    0.0670    0.0000 C   0  0  0  0  0  0  0  0  0  0  0  0
    2.0000   -1.4330    0.0000 C   0  0  0  0  0  0  0  0  0  0  0  0
    3.7320   -1.4330    0.0000 C   0  0  0  0  0  0  0  0  0  0  0  0
    2.0000   -2.4330    0.0000 C   0  0  0  0  0  0  0  0  0  0  0  0
    3.7320   -2.4330    0.0000 C   0  0  0  0  0  0  0  0  0  0  0  0
    2.8660   -2.9330    0.0000 C   0  0  0  0  0  0  0  0  0  0  0  0
    5.7741    2.0300    0.0000 H   0  0  0  0  0  0  0  0  0  0  0  0
    6.0010    2.8770    0.0000 H   0  0  0  0  0  0  0  0  0  0  0  0
    5.1541    3.1039    0.0000 H   0  0  0  0  0  0  0  0  0  0  0  0
    4.6350    3.2430    0.0000 H   0  0  0  0  0  0  0  0  0  0  0  0
    3.7881    3.4700    0.0000 H   0  0  0  0  0  0  0  0  0  0  0  0
    3.5611    2.6230    0.0000 H   0  0  0  0  0  0  0  0  0  0  0  0
    4.5611    0.8910    0.0000 H   0  0  0  0  0  0  0  0  0  0  0  0
    5.4081    0.6640    0.0000 H   0  0  0  0  0  0  0  0  0  0  0  0
    5.6350    1.5110    0.0000 H   0  0  0  0  0  0  0  0  0  0  0  0
    1.4631   -1.1230    0.0000 H   0  0  0  0  0  0  0  0  0  0  0  0
    4.2690   -1.1230    0.0000 H   0  0  0  0  0  0  0  0  0  0  0  0
    1.4631   -2.7430    0.0000 H   0  0  0  0  0  0  0  0  0  0  0  0
    4.2690   -2.7430    0.0000 H   0  0  0  0  0  0  0  0  0  0  0  0
    2.8660   -3.5530    0.0000 H   0  0  0  0  0  0  0  0  0  0  0  0
  1  2  1  0  0  0  0
  1  4  1  0  0  0  0
  2  9  1  0  0  0  0
  3  9  2  0  0  0  0
  4  5  1  0  0  0  0
  4  6  1  0  0  0  0
  4  7  1  0  0  0  0
  5 15  1  0  0  0  0
  5 16  1  0  0  0  0
  5 17  1  0  0  0  0
  6 18  1  0  0  0  0
  6 19  1  0  0  0  0
  6 20  1  0  0  0  0
  7 21  1  0  0  0  0
  7 22  1  0  0  0  0
  7 23  1  0  0  0  0
  8  9  1  0  0  0  0
  8 10  2  0  0  0  0
  8 11  1  0  0  0  0
 10 12  1  0  0  0  0
 10 24  1  0  0  0  0
 11 13  2  0  0  0  0
 11 25  1  0  0  0  0
 12 14  2  0  0  0  0
 12 26  1  0  0  0  0
 13 14  1  0  0  0  0
 13 27  1  0  0  0  0
 14 28  1  0  0  0  0
M  END
> <PUBCHEM_COMPOUND_CID>
11966

> <PUBCHEM_COMPOUND_CANONICALIZED>
1

> <PUBCHEM_CACTVS_COMPLEXITY>
187

> <PUBCHEM_CACTVS_HBOND_ACCEPTOR>
3

> <PUBCHEM_CACTVS_HBOND_DONOR>
0

> <PUBCHEM_CACTVS_ROTATABLE_BOND>
4

> <PUBCHEM_CACTVS_SUBSKEYS>
AAADccBwMAAAAAAAAAAAAAAAAAAAAAAAAAAwAAAAAAAAAAABAAAAGgAABAAADESAmAAyCIAAAACIAiDSCAACAAAkAAAIiAEACMgIJjKAFRCAMQAkwAEIiYeIyCCOAAAAAAAAAAAAAAAAAAAAAAAAAAAAAA==

> <PUBCHEM_IUPAC_OPENEYE_NAME>
tert-butyl benzenecarboperoxoate

> <PUBCHEM_IUPAC_CAS_NAME>
benzenecarboperoxoic acid tert-butyl ester

> <PUBCHEM_IUPAC_NAME>
tert-butyl benzenecarboperoxoate

> <PUBCHEM_IUPAC_SYSTEMATIC_NAME>
tert-butyl benzenecarboperoxoate

> <PUBCHEM_IUPAC_TRADITIONAL_NAME>
benzenecarboperoxoic acid tert-butyl ester

> <PUBCHEM_IUPAC_INCHI>
InChI=1S/C11H14O3/c1-11(2,3)14-13-10(12)9-7-5-4-6-8-9/h4-8H,1-3H3

> <PUBCHEM_IUPAC_INCHIKEY>
GJBRNHKUVLOCEB-UHFFFAOYSA-N

> <PUBCHEM_XLOGP3_AA>
2.8

> <PUBCHEM_EXACT_MASS>
194.094294

> <PUBCHEM_MOLECULAR_FORMULA>
C11H14O3

> <PUBCHEM_MOLECULAR_WEIGHT>
194.22706

> <PUBCHEM_OPENEYE_CAN_SMILES>
CC(C)(C)OOC(=O)C1=CC=CC=C1

> <PUBCHEM_OPENEYE_ISO_SMILES>
CC(C)(C)OOC(=O)C1=CC=CC=C1

> <PUBCHEM_CACTVS_TPSA>
35.5

> <PUBCHEM_MONOISOTOPIC_WEIGHT>
194.094294

> <PUBCHEM_TOTAL_CHARGE>
0

> <PUBCHEM_HEAVY_ATOM_COUNT>
14

> <PUBCHEM_ATOM_DEF_STEREO_COUNT>
0

> <PUBCHEM_ATOM_UDEF_STEREO_COUNT>
0

> <PUBCHEM_BOND_DEF_STEREO_COUNT>
0

> <PUBCHEM_BOND_UDEF_STEREO_COUNT>
0

> <PUBCHEM_ISOTOPIC_ATOM_COUNT>
0

> <PUBCHEM_COMPONENT_COUNT>
1

> <PUBCHEM_CACTVS_TAUTO_COUNT>
1

> <PUBCHEM_COORDINATE_TYPE>
1
5
255

> <PUBCHEM_BONDANNOTATIONS>
10  12  8
11  13  8
12  14  8
13  14  8
8  10  8
8  11  8

$$$$

