6918615
  -OEChem-07051213073D

 31 31  0     0  0  0  0  0  0999 V2000
    0.0018   -0.9116   -1.6123 F   0  0  0  0  0  0  0  0  0  0  0  0
   -2.4175   -0.7451   -0.3360 O   0  0  0  0  0  0  0  0  0  0  0  0
    2.4175   -0.7475   -0.3287 O   0  0  0  0  0  0  0  0  0  0  0  0
   -3.7482   -2.0930    0.9725 O   0  0  0  0  0  0  0  0  0  0  0  0
    3.7429   -2.0967    0.9839 O   0  0  0  0  0  0  0  0  0  0  0  0
   -4.6554   -0.6857   -0.6034 N   0  0  0  0  0  0  0  0  0  0  0  0
    4.6563   -0.6904   -0.5894 N   0  0  0  0  0  0  0  0  0  0  0  0
    0.0000   -0.5947   -0.2748 C   0  0  0  0  0  0  0  0  0  0  0  0
    0.0004    0.9101   -0.0454 C   0  0  0  0  0  0  0  0  0  0  0  0
   -1.2568   -1.2559    0.3118 C   0  0  0  0  0  0  0  0  0  0  0  0
    1.2544   -1.2571    0.3156 C   0  0  0  0  0  0  0  0  0  0  0  0
   -0.0331    1.3871    1.2489 C   0  0  0  0  0  0  0  0  0  0  0  0
    0.0347    1.7514   -1.1385 C   0  0  0  0  0  0  0  0  0  0  0  0
   -0.0325    2.7661    1.4594 C   0  0  0  0  0  0  0  0  0  0  0  0
    0.0354    3.1303   -0.9280 C   0  0  0  0  0  0  0  0  0  0  0  0
    0.0018    3.6376    0.3711 C   0  0  0  0  0  0  0  0  0  0  0  0
   -3.6145   -1.2507    0.0911 C   0  0  0  0  0  0  0  0  0  0  0  0
    3.6128   -1.2543    0.1021 C   0  0  0  0  0  0  0  0  0  0  0  0
   -1.2154   -2.3358    0.1214 H   0  0  0  0  0  0  0  0  0  0  0  0
   -1.3361   -1.0970    1.3937 H   0  0  0  0  0  0  0  0  0  0  0  0
    1.2128   -2.3374    0.1281 H   0  0  0  0  0  0  0  0  0  0  0  0
    1.3292   -1.0928    1.3972 H   0  0  0  0  0  0  0  0  0  0  0  0
   -0.0570    0.7263    2.1096 H   0  0  0  0  0  0  0  0  0  0  0  0
    0.0617    1.3722   -2.1552 H   0  0  0  0  0  0  0  0  0  0  0  0
   -0.0579    3.1612    2.4707 H   0  0  0  0  0  0  0  0  0  0  0  0
    0.0624    3.8092   -1.7754 H   0  0  0  0  0  0  0  0  0  0  0  0
    0.0026    4.7113    0.5349 H   0  0  0  0  0  0  0  0  0  0  0  0
   -4.4938    0.0089   -1.3249 H   0  0  0  0  0  0  0  0  0  0  0  0
   -5.6181   -0.9450   -0.4161 H   0  0  0  0  0  0  0  0  0  0  0  0
    4.4974    0.0042   -1.3115 H   0  0  0  0  0  0  0  0  0  0  0  0
    5.6183   -0.9506   -0.3992 H   0  0  0  0  0  0  0  0  0  0  0  0
  1  8  1  0  0  0  0
  2 10  1  0  0  0  0
  2 17  1  0  0  0  0
  3 11  1  0  0  0  0
  3 18  1  0  0  0  0
  4 17  2  0  0  0  0
  5 18  2  0  0  0  0
  6 17  1  0  0  0  0
  6 28  1  0  0  0  0
  6 29  1  0  0  0  0
  7 18  1  0  0  0  0
  7 30  1  0  0  0  0
  7 31  1  0  0  0  0
  8  9  1  0  0  0  0
  8 10  1  0  0  0  0
  8 11  1  0  0  0  0
  9 12  2  0  0  0  0
  9 13  1  0  0  0  0
 10 19  1  0  0  0  0
 10 20  1  0  0  0  0
 11 21  1  0  0  0  0
 11 22  1  0  0  0  0
 12 14  1  0  0  0  0
 12 23  1  0  0  0  0
 13 15  2  0  0  0  0
 13 24  1  0  0  0  0
 14 16  2  0  0  0  0
 14 25  1  0  0  0  0
 15 16  1  0  0  0  0
 15 26  1  0  0  0  0
 16 27  1  0  0  0  0
M  END
> <PUBCHEM_COMPOUND_CID>
6918615

> <PUBCHEM_CONFORMER_RMSD>
0.8

> <PUBCHEM_CONFORMER_DIVERSEORDER>
1
32
7
14
70
78
58
81
45
66
35
67
82
57
63
74
27
87
60
43
73
30
40
24
10
93
79
5
84
69
17
72
83
13
62
47
49
29
11
31
41
80
33
44
53
76
21
71
51
75
42
34
12
61
38
19
16
85
15
37
18
92
56
59
88
89
68
6
22
54
50
77
23
20
86
55
65
9
8
91
90
39
26
25
64
46
36
48
4
52
2
28
3

> <PUBCHEM_MMFF94_PARTIAL_CHARGES>
27
1 -0.34
10 0.28
11 0.28
12 -0.15
13 -0.15
14 -0.15
15 -0.15
16 -0.15
17 0.78
18 0.78
2 -0.43
23 0.15
24 0.15
25 0.15
26 0.15
27 0.15
28 0.37
29 0.37
3 -0.43
30 0.37
31 0.37
4 -0.57
5 -0.57
6 -0.8
7 -0.8
8 0.48
9 -0.14

> <PUBCHEM_EFFECTIVE_ROTOR_COUNT>
7

> <PUBCHEM_PHARMACOPHORE_FEATURES>
5
1 4 acceptor
1 5 acceptor
1 6 donor
1 7 donor
6 9 12 13 14 15 16 rings

> <PUBCHEM_HEAVY_ATOM_COUNT>
18

> <PUBCHEM_ATOM_DEF_STEREO_COUNT>
0

> <PUBCHEM_ATOM_UDEF_STEREO_COUNT>
0

> <PUBCHEM_BOND_DEF_STEREO_COUNT>
0

> <PUBCHEM_BOND_UDEF_STEREO_COUNT>
0

> <PUBCHEM_ISOTOPIC_ATOM_COUNT>
0

> <PUBCHEM_COMPONENT_COUNT>
1

> <PUBCHEM_CACTVS_TAUTO_COUNT>
3

> <PUBCHEM_CONFORMER_ID>
006991D700000001

> <PUBCHEM_MMFF94_ENERGY>
37.8108

> <PUBCHEM_FEATURE_SELFOVERLAP>
25.371

> <PUBCHEM_SHAPE_FINGERPRINT>
12788726 201 18341330102010721682
13004483 165 18340212997722160450
13132413 78 18408597076467546709
13134695 92 18262244322226134349
13294875 104 17463689784270117249
13955234 65 17907570338343981363
14170010 4 18263370200905845819
14178342 30 17767141052663547786
14181834 199 17970071037052282661
17980427 23 17603859010261371273
1813 80 18187914075870540462
18222031 100 18186524288904691191
18410436 195 18408322164010752393
18785283 64 17696468486065934905
20097449 115 18409730646958840971
20510252 161 18338521962213919306
20600515 1 18188752994694893942
20671657 1 18048028576352062167
21029758 11 18410858750321179783
21029758 27 18410006615734912503
21041028 32 18335695027640405185
21296965 67 18410856559697954814
21524375 3 9295288335064134543
22112679 90 18046593876427817793
23175994 123 18411978061975245199
23419403 2 18190486937417038925
23557571 272 18263074586517248918
23558518 356 17764026165532344434
305870 269 17687470061693000233
458136 41 17548960175537454361
68521 5 18338515356073955732
7164475 11 18196655314119212566
7364860 26 18120935001734859329
7471813 234 17968106270446366309
81228 2 18122045753086515603

> <PUBCHEM_SHAPE_MULTIPOLES>
329.72
6.23
3.77
1.2
0.02
4.16
-0.03
-7.47
0.07
-0.02
-0.61
0
0.47
-0.03

> <PUBCHEM_SHAPE_SELFOVERLAP>
683.311

> <PUBCHEM_SHAPE_VOLUME>
187.1

> <PUBCHEM_COORDINATE_TYPE>
2
5
10

$$$$

