440334
  -OEChem-07051212493D

 71 75  0     1  0  0  0  0  0999 V2000
    3.9810    2.2307   -0.6543 P   0  0  1  0  0  0  0  0  0  0  0  0
    3.9301   -0.0599   -2.5004 P   0  0  2  0  0  0  0  0  0  0  0  0
   -0.8573    3.4066    0.0950 O   0  0  0  0  0  0  0  0  0  0  0  0
    1.1592   -3.1169   -1.2146 O   0  0  0  0  0  0  0  0  0  0  0  0
   -1.3707    0.9834    2.6998 O   0  0  0  0  0  0  0  0  0  0  0  0
   -0.0327    3.3258    3.0296 O   0  0  0  0  0  0  0  0  0  0  0  0
   -1.3681   -3.3568   -2.8962 O   0  0  0  0  0  0  0  0  0  0  0  0
   -2.3122   -2.5514   -0.4792 O   0  0  0  0  0  0  0  0  0  0  0  0
    2.7338    2.7763    0.2206 O   0  0  0  0  0  0  0  0  0  0  0  0
    2.9123   -1.3170   -2.4751 O   0  0  0  0  0  0  0  0  0  0  0  0
    3.4983    0.7842   -1.1913 O   0  0  0  0  0  0  0  0  0  0  0  0
    3.9676    3.1449   -1.9891 O   0  0  0  0  0  0  0  0  0  0  0  0
    3.3875    0.8556   -3.7186 O   0  0  0  0  0  0  0  0  0  0  0  0
    5.2961    2.2111    0.0696 O   0  0  0  0  0  0  0  0  0  0  0  0
    5.3892   -0.4046   -2.5679 O   0  0  0  0  0  0  0  0  0  0  0  0
   -5.9200   -0.4012   -2.2598 O   0  0  0  0  0  0  0  0  0  0  0  0
    3.1394   -0.7662    4.1811 O   0  0  0  0  0  0  0  0  0  0  0  0
   -2.5572    1.7687   -0.1460 N   0  0  0  0  0  0  0  0  0  0  0  0
    0.3696   -2.9896    1.0780 N   0  3  0  0  0  0  0  0  0  0  0  0
   -3.2335    0.8033   -2.0571 N   0  0  0  0  0  0  0  0  0  0  0  0
   -4.5831    1.3739    1.1448 N   0  0  0  0  0  0  0  0  0  0  0  0
   -6.3181    0.2143   -0.0584 N   0  0  0  0  0  0  0  0  0  0  0  0
    3.4627   -0.3677    1.9461 N   0  0  0  0  0  0  0  0  0  0  0  0
   -0.7472    1.5556    1.5683 C   0  0  2  0  0  0  0  0  0  0  0  0
    0.3717    2.5132    1.9276 C   0  0  1  0  0  0  0  0  0  0  0  0
   -1.6917    2.4682    0.8009 C   0  0  1  0  0  0  0  0  0  0  0  0
    0.4652    3.3868    0.6805 C   0  0  1  0  0  0  0  0  0  0  0  0
   -0.7426   -2.2100   -2.3201 C   0  0  1  0  0  0  0  0  0  0  0  0
   -0.9889   -2.1985   -0.8247 C   0  0  2  0  0  0  0  0  0  0  0  0
    0.7707   -2.3837   -2.3989 C   0  0  1  0  0  0  0  0  0  0  0  0
    0.0175   -3.2287   -0.3445 C   0  0  1  0  0  0  0  0  0  0  0  0
    1.4401    2.8421   -0.3539 C   0  0  0  0  0  0  0  0  0  0  0  0
    1.5206   -1.0590   -2.4118 C   0  0  0  0  0  0  0  0  0  0  0  0
   -3.8141    1.3095    0.0536 C   0  0  0  0  0  0  0  0  0  0  0  0
   -2.2464    1.4370   -1.4460 C   0  0  0  0  0  0  0  0  0  0  0  0
    1.3685   -2.1433    1.3633 C   0  0  0  0  0  0  0  0  0  0  0  0
   -4.2185    0.7237   -1.1132 C   0  0  0  0  0  0  0  0  0  0  0  0
   -0.3237   -3.6280    2.0306 C   0  0  0  0  0  0  0  0  0  0  0  0
    1.7185   -1.9004    2.6838 C   0  0  0  0  0  0  0  0  0  0  0  0
   -0.0176   -3.4239    3.3685 C   0  0  0  0  0  0  0  0  0  0  0  0
   -5.5400    0.1281   -1.2225 C   0  0  0  0  0  0  0  0  0  0  0  0
    1.0152   -2.5498    3.6940 C   0  0  0  0  0  0  0  0  0  0  0  0
   -5.8310    0.7978    1.0041 C   0  0  0  0  0  0  0  0  0  0  0  0
    2.7998   -0.9844    3.0040 C   0  0  0  0  0  0  0  0  0  0  0  0
   -0.3682    0.7516    0.9274 H   0  0  0  0  0  0  0  0  0  0  0  0
    1.2950    2.0037    2.2156 H   0  0  0  0  0  0  0  0  0  0  0  0
   -2.3468    3.0407    1.4688 H   0  0  0  0  0  0  0  0  0  0  0  0
    0.7376    4.4168    0.9380 H   0  0  0  0  0  0  0  0  0  0  0  0
   -1.1294   -1.3252   -2.8329 H   0  0  0  0  0  0  0  0  0  0  0  0
   -0.7679   -1.2098   -0.4093 H   0  0  0  0  0  0  0  0  0  0  0  0
    1.0760   -2.9920   -3.2579 H   0  0  0  0  0  0  0  0  0  0  0  0
   -0.3601   -4.2560   -0.4217 H   0  0  0  0  0  0  0  0  0  0  0  0
    1.4556    3.4967   -1.2321 H   0  0  0  0  0  0  0  0  0  0  0  0
    1.1355    1.8488   -0.6982 H   0  0  0  0  0  0  0  0  0  0  0  0
    1.2142   -0.4757   -3.2847 H   0  0  0  0  0  0  0  0  0  0  0  0
    1.3102   -0.4827   -1.5066 H   0  0  0  0  0  0  0  0  0  0  0  0
   -0.6874    0.4991    3.1940 H   0  0  0  0  0  0  0  0  0  0  0  0
    0.6897    3.9516    3.2087 H   0  0  0  0  0  0  0  0  0  0  0  0
   -1.2893    1.6728   -1.8914 H   0  0  0  0  0  0  0  0  0  0  0  0
   -1.1519   -3.3589   -3.8444 H   0  0  0  0  0  0  0  0  0  0  0  0
   -2.9067   -1.9254   -0.9260 H   0  0  0  0  0  0  0  0  0  0  0  0
    1.8403   -1.6767    0.5148 H   0  0  0  0  0  0  0  0  0  0  0  0
   -1.1186   -4.2921    1.7137 H   0  0  0  0  0  0  0  0  0  0  0  0
   -4.2956    1.8021    2.0185 H   0  0  0  0  0  0  0  0  0  0  0  0
   -0.5744   -3.9352    4.1464 H   0  0  0  0  0  0  0  0  0  0  0  0
    1.2539   -2.3894    4.7419 H   0  0  0  0  0  0  0  0  0  0  0  0
   -6.4352    0.8692    1.9222 H   0  0  0  0  0  0  0  0  0  0  0  0
    4.7168    3.0759   -2.6185 H   0  0  0  0  0  0  0  0  0  0  0  0
    2.4803    1.2259   -3.6815 H   0  0  0  0  0  0  0  0  0  0  0  0
    4.2255    0.2732    2.1413 H   0  0  0  0  0  0  0  0  0  0  0  0
    3.2518   -0.4915    0.9639 H   0  0  0  0  0  0  0  0  0  0  0  0
  1  9  1  0  0  0  0
  1 11  1  0  0  0  0
  1 12  1  0  0  0  0
  1 14  2  0  0  0  0
  2 10  1  0  0  0  0
  2 11  1  0  0  0  0
  2 13  1  0  0  0  0
  2 15  2  0  0  0  0
  3 26  1  0  0  0  0
  3 27  1  0  0  0  0
  4 30  1  0  0  0  0
  4 31  1  0  0  0  0
  5 24  1  0  0  0  0
  5 57  1  0  0  0  0
  6 25  1  0  0  0  0
  6 58  1  0  0  0  0
  7 28  1  0  0  0  0
  7 60  1  0  0  0  0
  8 29  1  0  0  0  0
  8 61  1  0  0  0  0
  9 32  1  0  0  0  0
 10 33  1  0  0  0  0
 12 68  1  0  0  0  0
 13 69  1  0  0  0  0
 16 41  2  0  0  0  0
 17 44  2  0  0  0  0
 18 26  1  0  0  0  0
 18 34  1  0  0  0  0
 18 35  1  0  0  0  0
 19 31  1  0  0  0  0
 19 36  1  0  0  0  0
 19 38  2  0  0  0  0
 20 35  2  0  0  0  0
 20 37  1  0  0  0  0
 21 34  1  0  0  0  0
 21 43  1  0  0  0  0
 21 64  1  0  0  0  0
 22 41  1  0  0  0  0
 22 43  2  0  0  0  0
 23 44  1  0  0  0  0
 23 70  1  0  0  0  0
 23 71  1  0  0  0  0
 24 25  1  0  0  0  0
 24 26  1  0  0  0  0
 24 45  1  0  0  0  0
 25 27  1  0  0  0  0
 25 46  1  0  0  0  0
 26 47  1  0  0  0  0
 27 32  1  0  0  0  0
 27 48  1  0  0  0  0
 28 29  1  0  0  0  0
 28 30  1  0  0  0  0
 28 49  1  0  0  0  0
 29 31  1  0  0  0  0
 29 50  1  0  0  0  0
 30 33  1  0  0  0  0
 30 51  1  0  0  0  0
 31 52  1  0  0  0  0
 32 53  1  0  0  0  0
 32 54  1  0  0  0  0
 33 55  1  0  0  0  0
 33 56  1  0  0  0  0
 34 37  2  0  0  0  0
 35 59  1  0  0  0  0
 36 39  2  0  0  0  0
 36 62  1  0  0  0  0
 37 41  1  0  0  0  0
 38 40  1  0  0  0  0
 38 63  1  0  0  0  0
 39 42  1  0  0  0  0
 39 44  1  0  0  0  0
 40 42  2  0  0  0  0
 40 65  1  0  0  0  0
 42 66  1  0  0  0  0
 43 67  1  0  0  0  0
M  CHG  1  19   1
M  END
> <PUBCHEM_COMPOUND_CID>
440334

> <PUBCHEM_CONFORMER_RMSD>
1.8

> <PUBCHEM_CONFORMER_DIVERSEORDER>
1
165
194
180
163
210
2
185
206
29
134
108
151
18
183
20
144
213
5
202
40
148
207
31
218
52
15
215
131
99
172
35
186
101
17
8
177
3
209
169
196
46
34
39
135
166
187
63
25
41
179
168
138
162
130
104
43
83
193
201
86
92
16
158
152
141
142
127
9
170
4
37
116
55
70
14
94
150
53
100
219
61
128
45
72
133
36
189
143
59
67
90
93
71
160
212
217
140
109
49
181
75
79
77
42
214
195
11
126
145
110
123
91
64
182
154
10
174
12
171
146
13
208
124
136
7
199
113
184
175
112
118
114
198
82
47
188
102
211
122
56
33
159
26
6
51
97
38
65
60
161
23
164
80
176
96
95
73
50
216
119
167
88
58
103
106
191
27
200
44
54
132
155
173
87
115
125
111
205
24
157
68
48
120
197
153
139
203
81
21
129
105
192
19
66
84
57
32
30
137
178
89
28
69
98
149
74
204
62
22
117
107
76
85
147
190
78
156
121

> <PUBCHEM_MMFF94_PARTIAL_CHARGES>
59
1 1.51
10 -0.55
11 -0.54
12 -0.77
13 -0.77
14 -0.7
15 -0.7
16 -0.57
17 -0.57
18 0.05
19 -0.21
2 1.51
20 -0.57
21 -0.53
22 -0.66
23 -0.8
24 0.28
25 0.28
26 0.54
27 0.28
28 0.28
29 0.28
3 -0.56
30 0.28
31 0.77
32 0.28
33 0.28
34 -0.07
35 0.04
36 0.21
37 0.14
38 0.21
39 0.09
4 -0.56
40 -0.15
41 0.87
42 -0.15
43 0.44
44 0.54
5 -0.68
57 0.4
58 0.4
59 0.15
6 -0.68
60 0.4
61 0.4
62 0.15
63 0.15
64 0.4
65 0.15
66 0.15
67 0.06
68 0.5
69 0.5
7 -0.68
70 0.37
71 0.37
8 -0.68
9 -0.55

> <PUBCHEM_EFFECTIVE_ROTOR_COUNT>
13

> <PUBCHEM_PHARMACOPHORE_FEATURES>
25
1 12 acceptor
1 13 acceptor
1 14 acceptor
1 15 acceptor
1 16 acceptor
1 17 acceptor
1 21 donor
1 22 donor
1 23 donor
1 3 acceptor
1 4 acceptor
1 5 acceptor
1 5 donor
1 6 acceptor
1 6 donor
1 7 acceptor
1 7 donor
1 8 acceptor
1 8 donor
3 18 20 35 cation
5 18 20 34 35 37 rings
5 3 24 25 26 27 rings
5 4 28 29 30 31 rings
6 19 36 38 39 40 42 rings
6 21 22 34 37 41 43 rings

> <PUBCHEM_HEAVY_ATOM_COUNT>
44

> <PUBCHEM_ATOM_DEF_STEREO_COUNT>
8

> <PUBCHEM_ATOM_UDEF_STEREO_COUNT>
0

> <PUBCHEM_BOND_DEF_STEREO_COUNT>
0

> <PUBCHEM_BOND_UDEF_STEREO_COUNT>
0

> <PUBCHEM_ISOTOPIC_ATOM_COUNT>
0

> <PUBCHEM_COMPONENT_COUNT>
1

> <PUBCHEM_CACTVS_TAUTO_COUNT>
6

> <PUBCHEM_CONFORMER_ID>
0006B80E00000001

> <PUBCHEM_MMFF94_ENERGY>
77.2893

> <PUBCHEM_FEATURE_SELFOVERLAP>
127.066

> <PUBCHEM_SHAPE_FINGERPRINT>
10581848 127 16126694678644359667
12156800 1 17679894538362642690
13165054 342 17415261846069118720
15264996 19 17843112602783992187
161222 10 17606151470087186311
19315092 285 17630604733702288695
19319366 153 18201455648330244072
20764821 26 18042384881755744676
21792938 131 17968934318186144533
27425 322 17915454991439501957
35225 105 17412983718591108250
5081480 168 5905474109775333747
6287921 2 16879376561035267943

> <PUBCHEM_SHAPE_MULTIPOLES>
795.27
9.69
5.24
4.49
9.76
1.82
0.39
-6.01
-4.31
-2.83
2.44
-3.38
2.41
-2.3

> <PUBCHEM_SHAPE_SELFOVERLAP>
1686.559

> <PUBCHEM_SHAPE_VOLUME>
448.5

> <PUBCHEM_COORDINATE_TYPE>
2
5
10

$$$$

