8987
  -OEChem-07051213133D

 19 18  0     0  0  0  0  0  0999 V2000
    2.0415   -1.2754    0.6034 S   0  0  0  0  0  0  0  0  0  0  0  0
    2.0247    1.4511   -0.5423 S   0  0  0  0  0  0  0  0  0  0  0  0
   -0.2694    0.0000   -0.0263 N   0  0  0  0  0  0  0  0  0  0  0  0
   -1.1498    1.0721   -0.4983 C   0  0  0  0  0  0  0  0  0  0  0  0
   -0.9889   -1.1735    0.4775 C   0  0  0  0  0  0  0  0  0  0  0  0
   -1.5536    1.9926    0.6410 C   0  0  0  0  0  0  0  0  0  0  0  0
   -1.2389   -2.1819   -0.6309 C   0  0  0  0  0  0  0  0  0  0  0  0
    1.1343    0.1150   -0.0241 C   0  0  0  0  0  0  0  0  0  0  0  0
   -0.6569    1.6550   -1.2815 H   0  0  0  0  0  0  0  0  0  0  0  0
   -2.0400    0.6301   -0.9603 H   0  0  0  0  0  0  0  0  0  0  0  0
   -0.4495   -1.6469    1.3017 H   0  0  0  0  0  0  0  0  0  0  0  0
   -1.9475   -0.8519    0.9011 H   0  0  0  0  0  0  0  0  0  0  0  0
   -2.1001    1.4507    1.4194 H   0  0  0  0  0  0  0  0  0  0  0  0
   -0.6806    2.4552    1.1119 H   0  0  0  0  0  0  0  0  0  0  0  0
   -2.2019    2.7920    0.2687 H   0  0  0  0  0  0  0  0  0  0  0  0
   -1.8413   -1.7468   -1.4350 H   0  0  0  0  0  0  0  0  0  0  0  0
   -0.3026   -2.5344   -1.0743 H   0  0  0  0  0  0  0  0  0  0  0  0
   -1.7770   -3.0502   -0.2381 H   0  0  0  0  0  0  0  0  0  0  0  0
    3.2657   -0.7549    0.4341 H   0  0  0  0  0  0  0  0  0  0  0  0
  1  8  1  0  0  0  0
  1 19  1  0  0  0  0
  2  8  2  0  0  0  0
  3  4  1  0  0  0  0
  3  5  1  0  0  0  0
  3  8  1  0  0  0  0
  4  6  1  0  0  0  0
  4  9  1  0  0  0  0
  4 10  1  0  0  0  0
  5  7  1  0  0  0  0
  5 11  1  0  0  0  0
  5 12  1  0  0  0  0
  6 13  1  0  0  0  0
  6 14  1  0  0  0  0
  6 15  1  0  0  0  0
  7 16  1  0  0  0  0
  7 17  1  0  0  0  0
  7 18  1  0  0  0  0
M  END
> <PUBCHEM_COMPOUND_CID>
8987

> <PUBCHEM_CONFORMER_RMSD>
0.6

> <PUBCHEM_CONFORMER_DIVERSEORDER>
1
5
10
7
4
9
8
2
11
3
6

> <PUBCHEM_MMFF94_PARTIAL_CHARGES>
7
1 -0.32
19 0.18
2 -0.38
3 -0.66
4 0.3
5 0.3
8 0.58

> <PUBCHEM_EFFECTIVE_ROTOR_COUNT>
3

> <PUBCHEM_PHARMACOPHORE_FEATURES>
2
1 2 acceptor
3 1 2 8 anion

> <PUBCHEM_HEAVY_ATOM_COUNT>
8

> <PUBCHEM_ATOM_DEF_STEREO_COUNT>
0

> <PUBCHEM_ATOM_UDEF_STEREO_COUNT>
0

> <PUBCHEM_BOND_DEF_STEREO_COUNT>
0

> <PUBCHEM_BOND_UDEF_STEREO_COUNT>
0

> <PUBCHEM_ISOTOPIC_ATOM_COUNT>
0

> <PUBCHEM_COMPONENT_COUNT>
1

> <PUBCHEM_CACTVS_TAUTO_COUNT>
1

> <PUBCHEM_CONFORMER_ID>
0000231B00000001

> <PUBCHEM_MMFF94_ENERGY>
14.1423

> <PUBCHEM_FEATURE_SELFOVERLAP>
10.148

> <PUBCHEM_SHAPE_FINGERPRINT>
137420 1 15464685835736072623
18185500 45 17977945683285225910
21040471 1 18264770041857703104
23552423 10 18201160949323438190
29004967 10 17696190309581792723
5084963 1 18192726758603534025

> <PUBCHEM_SHAPE_MULTIPOLES>
167.35
2.76
2.56
0.88
1.15
0.13
-0.01
-0.21
-0.03
-0.85
0.02
-0.02
0.01
-0.79

> <PUBCHEM_SHAPE_SELFOVERLAP>
281.957

> <PUBCHEM_SHAPE_VOLUME>
115.3

> <PUBCHEM_COORDINATE_TYPE>
2
5
10

$$$$

