13895593
  -OEChem-07051213103D

 40 39  0     1  0  0  0  0  0999 V2000
    3.9677   -1.8932    1.2966 O   0  0  0  0  0  0  0  0  0  0  0  0
   -1.7320    1.5807   -0.0941 C   0  0  0  0  0  0  0  0  0  0  0  0
   -3.1828    1.7518   -0.5606 C   0  0  0  0  0  0  0  0  0  0  0  0
   -0.9631    2.9008   -0.0011 C   0  0  0  0  0  0  0  0  0  0  0  0
   -3.9895    0.4551   -0.6885 C   0  0  0  0  0  0  0  0  0  0  0  0
    0.4775    2.6692    0.4621 C   0  0  0  0  0  0  0  0  0  0  0  0
   -4.1439   -0.2710    0.6162 C   0  0  0  0  0  0  0  0  0  0  0  0
    1.2431    3.9577    0.5247 C   0  0  0  0  0  0  0  0  0  0  0  0
   -3.7781   -1.5475    0.8075 C   0  0  0  0  0  0  0  0  0  0  0  0
   -3.1695   -2.4080   -0.2577 C   0  0  0  0  0  0  0  0  0  0  0  0
    2.3718    4.1902   -0.1547 C   0  0  0  0  0  0  0  0  0  0  0  0
   -1.7058   -2.3144   -0.2055 C   0  0  0  0  0  0  0  0  0  0  0  0
   -0.5079   -2.2411   -0.1685 C   0  0  0  0  0  0  0  0  0  0  0  0
    3.5247   -1.9973   -0.0528 C   0  0  2  0  0  0  0  0  0  0  0  0
    0.8609   -2.1569   -0.1263 C   0  0  0  0  0  0  0  0  0  0  0  0
    3.9844   -0.8235   -0.8731 C   0  0  0  0  0  0  0  0  0  0  0  0
    2.0588   -2.0834   -0.0896 C   0  0  0  0  0  0  0  0  0  0  0  0
    4.6836    0.2308   -0.4347 C   0  0  0  0  0  0  0  0  0  0  0  0
   -1.2138    0.9108   -0.7910 H   0  0  0  0  0  0  0  0  0  0  0  0
   -1.7159    1.0935    0.8880 H   0  0  0  0  0  0  0  0  0  0  0  0
   -3.6998    2.4292    0.1316 H   0  0  0  0  0  0  0  0  0  0  0  0
   -3.1829    2.2532   -1.5369 H   0  0  0  0  0  0  0  0  0  0  0  0
   -1.4765    3.5746    0.6961 H   0  0  0  0  0  0  0  0  0  0  0  0
   -0.9645    3.3919   -0.9824 H   0  0  0  0  0  0  0  0  0  0  0  0
   -3.5277   -0.1463   -1.4748 H   0  0  0  0  0  0  0  0  0  0  0  0
   -4.9941    0.7082   -1.0499 H   0  0  0  0  0  0  0  0  0  0  0  0
    0.9720    1.9567   -0.2097 H   0  0  0  0  0  0  0  0  0  0  0  0
    0.4755    2.2168    1.4611 H   0  0  0  0  0  0  0  0  0  0  0  0
   -4.5883    0.2745    1.4446 H   0  0  0  0  0  0  0  0  0  0  0  0
    0.8580    4.7375    1.1766 H   0  0  0  0  0  0  0  0  0  0  0  0
   -3.9298   -1.9926    1.7878 H   0  0  0  0  0  0  0  0  0  0  0  0
   -3.5477   -2.1853   -1.2592 H   0  0  0  0  0  0  0  0  0  0  0  0
   -3.4726   -3.4450   -0.0660 H   0  0  0  0  0  0  0  0  0  0  0  0
    2.8836    5.1417   -0.0602 H   0  0  0  0  0  0  0  0  0  0  0  0
    2.8029    3.4432   -0.8119 H   0  0  0  0  0  0  0  0  0  0  0  0
    3.9670   -2.9065   -0.4751 H   0  0  0  0  0  0  0  0  0  0  0  0
    3.7346   -0.8498   -1.9328 H   0  0  0  0  0  0  0  0  0  0  0  0
    3.7185   -2.7153    1.7530 H   0  0  0  0  0  0  0  0  0  0  0  0
    4.9691    1.0197   -1.1225 H   0  0  0  0  0  0  0  0  0  0  0  0
    4.9823    0.3365    0.6016 H   0  0  0  0  0  0  0  0  0  0  0  0
  1 14  1  0  0  0  0
  1 38  1  0  0  0  0
  2  3  1  0  0  0  0
  2  4  1  0  0  0  0
  2 19  1  0  0  0  0
  2 20  1  0  0  0  0
  3  5  1  0  0  0  0
  3 21  1  0  0  0  0
  3 22  1  0  0  0  0
  4  6  1  0  0  0  0
  4 23  1  0  0  0  0
  4 24  1  0  0  0  0
  5  7  1  0  0  0  0
  5 25  1  0  0  0  0
  5 26  1  0  0  0  0
  6  8  1  0  0  0  0
  6 27  1  0  0  0  0
  6 28  1  0  0  0  0
  7  9  2  0  0  0  0
  7 29  1  0  0  0  0
  8 11  2  0  0  0  0
  8 30  1  0  0  0  0
  9 10  1  0  0  0  0
  9 31  1  0  0  0  0
 10 12  1  0  0  0  0
 10 32  1  0  0  0  0
 10 33  1  0  0  0  0
 11 34  1  0  0  0  0
 11 35  1  0  0  0  0
 12 13  3  0  0  0  0
 13 15  1  0  0  0  0
 14 16  1  0  0  0  0
 14 17  1  0  0  0  0
 14 36  1  0  0  0  0
 15 17  3  0  0  0  0
 16 18  2  0  0  0  0
 16 37  1  0  0  0  0
 18 39  1  0  0  0  0
 18 40  1  0  0  0  0
M  END
> <PUBCHEM_COMPOUND_CID>
13895593

> <PUBCHEM_CONFORMER_RMSD>
0.8

> <PUBCHEM_CONFORMER_DIVERSEORDER>
1
215
267
192
97
182
195
211
131
69
102
68
222
251
129
105
92
122
30
8
60
227
115
79
206
186
55
47
53
234
187
193
93
126
243
128
250
164
45
201
98
34
70
253
140
259
135
232
196
266
23
200
110
82
143
235
214
261
65
212
207
223
219
21
28
44
174
134
151
189
19
48
72
185
169
220
237
95
107
262
236
213
147
205
230
77
56
171
177
61
175
118
244
161
124
75
233
155
80
176
58
156
199
208
159
14
54
78
67
252
141
133
7
43
81
258
228
238
121
180
83
172
106
49
224
257
229
108
204
226
111
87
173
216
32
125
15
51
119
183
154
99
25
218
114
89
255
132
225
203
130
197
62
209
162
24
104
202
57
50
2
100
165
157
13
178
33
210
264
263
148
239
101
265
166
153
88
245
91
136
127
149
137
150
96
260
35
254
73
170
117
163
71
103
17
184
145
152
84
76
109
158
256
42
9
86
249
240
29
64
12
241
242
16
22
190
116
198
188
231
194
36
144
146
142
112
179
246
20
168
217
11
63
90
46
167
59
52
37
247
221
139
3
5
123
27
18
191
181
66
85
160
138
74
39
6
4
41
94
10
38
40
113
248
31
26
120

> <PUBCHEM_MMFF94_PARTIAL_CHARGES>
22
1 -0.68
10 0.34
11 -0.3
12 -0.2
14 0.62
16 -0.29
17 -0.2
18 -0.3
29 0.15
30 0.15
31 0.15
34 0.15
35 0.15
37 0.15
38 0.4
39 0.15
40 0.15
5 0.14
6 0.14
7 -0.29
8 -0.29
9 -0.29

> <PUBCHEM_EFFECTIVE_ROTOR_COUNT>
8

> <PUBCHEM_PHARMACOPHORE_FEATURES>
4
1 1 acceptor
1 1 donor
1 11 hydrophobe
1 18 hydrophobe

> <PUBCHEM_HEAVY_ATOM_COUNT>
18

> <PUBCHEM_ATOM_DEF_STEREO_COUNT>
1

> <PUBCHEM_ATOM_UDEF_STEREO_COUNT>
0

> <PUBCHEM_BOND_DEF_STEREO_COUNT>
1

> <PUBCHEM_BOND_UDEF_STEREO_COUNT>
0

> <PUBCHEM_ISOTOPIC_ATOM_COUNT>
0

> <PUBCHEM_COMPONENT_COUNT>
1

> <PUBCHEM_CACTVS_TAUTO_COUNT>
1

> <PUBCHEM_CONFORMER_ID>
00D407A900000001

> <PUBCHEM_MMFF94_ENERGY>
4.582

> <PUBCHEM_FEATURE_SELFOVERLAP>
20.297

> <PUBCHEM_SHAPE_FINGERPRINT>
10498660 4 18338513165741192878
12038231 1 15888556373037648676
12054548 360 18410294734973172179
14790565 3 17616246327108958169
15006816 218 18121220870342099793
18336668 15 18202559566990260620
3014063 31 18337386046401124812
338550 245 18125158226304173588
6433294 58 18338231544962590468

> <PUBCHEM_SHAPE_MULTIPOLES>
364.56
9
5.66
0.87
2.03
5.73
0.07
-3.5
-0.22
3.15
0.43
0.09
-0.1
0.26

> <PUBCHEM_SHAPE_SELFOVERLAP>
690.574

> <PUBCHEM_SHAPE_VOLUME>
220.3

> <PUBCHEM_COORDINATE_TYPE>
2
5
10

$$$$

