4878
  -OEChem-06261200233D

 37 39  0     0  0  0  0  0  0999 V2000
   -6.1234   -0.6558   -0.0002 Cl  0  0  0  0  0  0  0  0  0  0  0  0
    1.7818   -0.8193    0.0001 N   0  0  0  0  0  0  0  0  0  0  0  0
    0.5569   -1.3228    0.0004 N   0  0  0  0  0  0  0  0  0  0  0  0
    2.9984    1.2649   -0.0004 N   0  0  0  0  0  0  0  0  0  0  0  0
    1.4607    3.1585   -0.0007 N   0  0  0  0  0  0  0  0  0  0  0  0
   -0.9115    2.8938    0.0007 N   0  0  0  0  0  0  0  0  0  0  0  0
    2.9254   -1.7727    0.0004 C   0  0  0  0  0  0  0  0  0  0  0  0
    3.7914   -1.5476    1.2598 C   0  0  0  0  0  0  0  0  0  0  0  0
    3.7841   -1.5581   -1.2659 C   0  0  0  0  0  0  0  0  0  0  0  0
    2.5020   -3.2625    0.0071 C   0  0  0  0  0  0  0  0  0  0  0  0
    1.8860    0.5132   -0.0002 C   0  0  0  0  0  0  0  0  0  0  0  0
    0.5772    0.9626   -0.0003 C   0  0  0  0  0  0  0  0  0  0  0  0
   -0.1931   -0.2152    0.0001 C   0  0  0  0  0  0  0  0  0  0  0  0
   -1.6302   -0.3234    0.0000 C   0  0  0  0  0  0  0  0  0  0  0  0
    0.3814    2.3396   -0.0005 C   0  0  0  0  0  0  0  0  0  0  0  0
   -2.3204   -0.3757   -1.2080 C   0  0  0  0  0  0  0  0  0  0  0  0
   -2.3208   -0.3734    1.2081 C   0  0  0  0  0  0  0  0  0  0  0  0
    2.6846    2.5785   -0.0007 C   0  0  0  0  0  0  0  0  0  0  0  0
   -3.7115   -0.4788   -1.2079 C   0  0  0  0  0  0  0  0  0  0  0  0
   -3.7118   -0.4766    1.2079 C   0  0  0  0  0  0  0  0  0  0  0  0
   -4.4072   -0.5293    0.0000 C   0  0  0  0  0  0  0  0  0  0  0  0
    4.6009   -2.2846    1.3185 H   0  0  0  0  0  0  0  0  0  0  0  0
    4.2623   -0.5600    1.2742 H   0  0  0  0  0  0  0  0  0  0  0  0
    3.1890   -1.6392    2.1712 H   0  0  0  0  0  0  0  0  0  0  0  0
    4.2506   -0.5686   -1.2930 H   0  0  0  0  0  0  0  0  0  0  0  0
    4.5961   -2.2927   -1.3212 H   0  0  0  0  0  0  0  0  0  0  0  0
    3.1771   -1.6610   -2.1731 H   0  0  0  0  0  0  0  0  0  0  0  0
    3.3741   -3.9266    0.0075 H   0  0  0  0  0  0  0  0  0  0  0  0
    1.9052   -3.5027    0.8948 H   0  0  0  0  0  0  0  0  0  0  0  0
    1.9007   -3.5097   -0.8758 H   0  0  0  0  0  0  0  0  0  0  0  0
   -1.7924   -0.3366   -2.1577 H   0  0  0  0  0  0  0  0  0  0  0  0
   -1.7929   -0.3324    2.1578 H   0  0  0  0  0  0  0  0  0  0  0  0
    3.5264    3.2627   -0.0009 H   0  0  0  0  0  0  0  0  0  0  0  0
   -1.7343    2.3092    0.0020 H   0  0  0  0  0  0  0  0  0  0  0  0
   -1.0090    3.9003    0.0016 H   0  0  0  0  0  0  0  0  0  0  0  0
   -4.2402   -0.5185   -2.1568 H   0  0  0  0  0  0  0  0  0  0  0  0
   -4.2407   -0.5145    2.1568 H   0  0  0  0  0  0  0  0  0  0  0  0
  1 21  1  0  0  0  0
  2  3  1  0  0  0  0
  2  7  1  0  0  0  0
  2 11  1  0  0  0  0
  3 13  2  0  0  0  0
  4 11  2  0  0  0  0
  4 18  1  0  0  0  0
  5 15  1  0  0  0  0
  5 18  2  0  0  0  0
  6 15  1  0  0  0  0
  6 34  1  0  0  0  0
  6 35  1  0  0  0  0
  7  8  1  0  0  0  0
  7  9  1  0  0  0  0
  7 10  1  0  0  0  0
  8 22  1  0  0  0  0
  8 23  1  0  0  0  0
  8 24  1  0  0  0  0
  9 25  1  0  0  0  0
  9 26  1  0  0  0  0
  9 27  1  0  0  0  0
 10 28  1  0  0  0  0
 10 29  1  0  0  0  0
 10 30  1  0  0  0  0
 11 12  1  0  0  0  0
 12 13  1  0  0  0  0
 12 15  2  0  0  0  0
 13 14  1  0  0  0  0
 14 16  2  0  0  0  0
 14 17  1  0  0  0  0
 16 19  1  0  0  0  0
 16 31  1  0  0  0  0
 17 20  2  0  0  0  0
 17 32  1  0  0  0  0
 18 33  1  0  0  0  0
 19 21  2  0  0  0  0
 19 36  1  0  0  0  0
 20 21  1  0  0  0  0
 20 37  1  0  0  0  0
M  END
> <PUBCHEM_COMPOUND_CID>
4878

> <PUBCHEM_CONFORMER_RMSD>
0.6

> <PUBCHEM_CONFORMER_DIVERSEORDER>
1
2

> <PUBCHEM_MMFF94_PARTIAL_CHARGES>
24
1 -0.18
11 0.11
13 0.23
14 0.05
15 0.41
16 -0.15
17 -0.15
18 0.47
19 -0.15
2 0.31
20 -0.15
21 0.18
3 -0.71
31 0.15
32 0.15
33 0.15
34 0.4
35 0.4
36 0.15
37 0.15
4 -0.57
5 -0.62
6 -0.9
7 0.26

> <PUBCHEM_EFFECTIVE_ROTOR_COUNT>
2

> <PUBCHEM_PHARMACOPHORE_FEATURES>
9
1 3 acceptor
1 6 cation
1 6 donor
3 2 4 11 cation
3 4 5 18 cation
4 7 8 9 10 hydrophobe
5 2 3 11 12 13 rings
6 14 16 17 19 20 21 rings
6 4 5 11 12 15 18 rings

> <PUBCHEM_HEAVY_ATOM_COUNT>
21

> <PUBCHEM_ATOM_DEF_STEREO_COUNT>
0

> <PUBCHEM_ATOM_UDEF_STEREO_COUNT>
0

> <PUBCHEM_BOND_DEF_STEREO_COUNT>
0

> <PUBCHEM_BOND_UDEF_STEREO_COUNT>
0

> <PUBCHEM_ISOTOPIC_ATOM_COUNT>
0

> <PUBCHEM_COMPONENT_COUNT>
1

> <PUBCHEM_CACTVS_TAUTO_COUNT>
5

> <PUBCHEM_CONFORMER_ID>
0000130E00000001

> <PUBCHEM_MMFF94_ENERGY>
58.8028

> <PUBCHEM_FEATURE_SELFOVERLAP>
45.956

> <PUBCHEM_SHAPE_FINGERPRINT>
10411042 1 18266458887718795074
10693767 8 18114172026309611254
10967382 1 18338797819135873860
10989021 7 18408320016384738161
11471102 20 18411417267720658581
116883 192 18265337376820051764
12107183 9 18118675759407547441
12236239 1 17676765392863221987
12363563 72 18268989950395324866
12553582 1 18337668728058255118
12644460 14 18411978022908745282
12707595 3 18271807955657938578
12730499 353 18198053682350454931
13009979 54 17677035936800297555
13134695 92 18411705374185085181
13140716 1 17978234859639471560
13533116 47 18335136454601575971
14178342 30 17828220808395996018
14790565 3 18123738769356233348
15042514 8 17617940674299546074
15442244 35 18335978778775839417
16945 1 18338517443781651716
17357779 13 18340778142392969900
17818456 19 17460582852515456521
1813 80 18115293609457699350
18186145 218 17703798028725011799
18222031 100 18260827141510510902
19049666 15 18060430126847024341
19784866 34 18048599213901928040
20369508 70 18342741822889410331
20645477 70 18412548686845274799
20832881 197 18201157775638057915
21041028 32 18409731802479526033
21296965 67 18337955704660711890
21344244 78 18114473300990247073
221357 26 18342464768298951053
22182313 1 18337969985949561500
2255824 54 18336262358238954854
23175994 123 18342173423060145351
23419403 2 17771663193616534580
23559900 14 18411700946395550003
23598291 2 18040721325026594991
25 1 18196656194054634901
2748010 2 18265627648470020332
3091708 16 9358151821845591240
312423 11 18260813904943141393
3286 77 18272652350939758071
3421961 26 18410857667804883011
42630746 31 18335985277039927762
474 4 18120091684869925241
5104073 3 18411133611670689283
54173680 148 17762337316072350914
6049 1 17918278649379470197
7364860 26 18409446947437049172
77492 1 17676482805410801927
81228 2 17907581672535815376
8272917 22 18337388249555525159
8863177 126 17987221267163599163
9709674 26 18127688236887587723
9841814 1 18342179981448806986

> <PUBCHEM_SHAPE_MULTIPOLES>
409.13
9.03
3.13
1.05
10.86
1.71
0
-4.66
0
-4.13
0
0.27
-0.37
0

> <PUBCHEM_SHAPE_SELFOVERLAP>
887.686

> <PUBCHEM_SHAPE_VOLUME>
225.3

> <PUBCHEM_COORDINATE_TYPE>
2
5
10

$$$$

