440980
  -OEChem-07051212513D

 15 15  0     0  0  0  0  0  0999 V2000
    1.5954    2.4940    0.0001 Cl  0  0  0  0  0  0  0  0  0  0  0  0
    2.4400   -0.3813   -0.0001 O   0  0  0  0  0  0  0  0  0  0  0  0
    0.7365   -2.5493    0.0000 O   0  0  0  0  0  0  0  0  0  0  0  0
   -3.0222    0.3822    0.0000 O   0  0  0  0  0  0  0  0  0  0  0  0
    0.2357   -1.2823    0.0001 C   0  0  0  0  0  0  0  0  0  0  0  0
    1.0905   -0.1800    0.0001 C   0  0  0  0  0  0  0  0  0  0  0  0
   -1.6737    0.1981   -0.0001 C   0  0  0  0  0  0  0  0  0  0  0  0
   -1.1463   -1.0932    0.0000 C   0  0  0  0  0  0  0  0  0  0  0  0
    0.5631    1.1115    0.0000 C   0  0  0  0  0  0  0  0  0  0  0  0
   -0.8190    1.3003   -0.0001 C   0  0  0  0  0  0  0  0  0  0  0  0
   -1.8072   -1.9566    0.0000 H   0  0  0  0  0  0  0  0  0  0  0  0
   -1.2397    2.3033   -0.0001 H   0  0  0  0  0  0  0  0  0  0  0  0
    2.8789    0.4869   -0.0001 H   0  0  0  0  0  0  0  0  0  0  0  0
    1.7080   -2.4940    0.0000 H   0  0  0  0  0  0  0  0  0  0  0  0
   -3.4592   -0.4868    0.0001 H   0  0  0  0  0  0  0  0  0  0  0  0
  1  9  1  0  0  0  0
  2  6  1  0  0  0  0
  2 13  1  0  0  0  0
  3  5  1  0  0  0  0
  3 14  1  0  0  0  0
  4  7  1  0  0  0  0
  4 15  1  0  0  0  0
  5  6  2  0  0  0  0
  5  8  1  0  0  0  0
  6  9  1  0  0  0  0
  7  8  2  0  0  0  0
  7 10  1  0  0  0  0
  8 11  1  0  0  0  0
  9 10  2  0  0  0  0
 10 12  1  0  0  0  0
M  END
> <PUBCHEM_COMPOUND_CID>
440980

> <PUBCHEM_CONFORMER_RMSD>
0.4

> <PUBCHEM_CONFORMER_DIVERSEORDER>
1

> <PUBCHEM_MMFF94_PARTIAL_CHARGES>
15
1 -0.18
10 -0.15
11 0.15
12 0.15
13 0.45
14 0.45
15 0.45
2 -0.53
3 -0.53
4 -0.53
5 0.08
6 0.08
7 0.08
8 -0.15
9 0.18

> <PUBCHEM_EFFECTIVE_ROTOR_COUNT>
0

> <PUBCHEM_PHARMACOPHORE_FEATURES>
4
1 2 donor
1 3 donor
1 4 donor
6 5 6 7 8 9 10 rings

> <PUBCHEM_HEAVY_ATOM_COUNT>
10

> <PUBCHEM_ATOM_DEF_STEREO_COUNT>
0

> <PUBCHEM_ATOM_UDEF_STEREO_COUNT>
0

> <PUBCHEM_BOND_DEF_STEREO_COUNT>
0

> <PUBCHEM_BOND_UDEF_STEREO_COUNT>
0

> <PUBCHEM_ISOTOPIC_ATOM_COUNT>
0

> <PUBCHEM_COMPONENT_COUNT>
1

> <PUBCHEM_CACTVS_TAUTO_COUNT>
16

> <PUBCHEM_CONFORMER_ID>
0006BA9400000001

> <PUBCHEM_MMFF94_ENERGY>
20.7468

> <PUBCHEM_FEATURE_SELFOVERLAP>
20.302

> <PUBCHEM_SHAPE_FINGERPRINT>
12423570 1 14455529913204417756
16945 1 18410855498978072261
18185500 45 18265052616293235559
193761 8 17978229361743416838
21040471 1 18122344566788294725
23552423 10 18340772520291205143
241688 4 17762335125243345953
2748010 2 18268145344975839461
29004967 10 18269548497990956395
5084963 1 18114183007991924785

> <PUBCHEM_SHAPE_MULTIPOLES>
190.06
2.86
2.41
0.59
0.2
0.92
0
-1.45
0
0.21
0
0.02
-0.03
0

> <PUBCHEM_SHAPE_SELFOVERLAP>
392.645

> <PUBCHEM_SHAPE_VOLUME>
110

> <PUBCHEM_COORDINATE_TYPE>
2
5
10

$$$$

