23724595
  -OEChem-07051213082D

 83 86  0     1  0  0  0  0  0999 V2000
    6.1733   -4.0372    0.0000 O   0  0  0  0  0  0  0  0  0  0  0  0
    2.5405   -0.9287    0.0000 O   0  0  0  0  0  0  0  0  0  0  0  0
    2.5244   -3.0203    0.0000 O   0  0  0  0  0  0  0  0  0  0  0  0
   10.8207    0.7492    0.0000 O   0  0  0  0  0  0  0  0  0  0  0  0
    9.7956    3.1884    0.0000 O   0  0  0  0  0  0  0  0  0  0  0  0
    7.9174    0.0321    0.0000 C   0  0  1  0  0  0  0  0  0  0  0  0
    7.9174   -0.9679    0.0000 C   0  0  3  0  0  0  0  0  0  0  0  0
    7.0514   -1.4679    0.0000 C   0  0  1  0  0  0  0  0  0  0  0  0
    6.1854   -0.9679    0.0000 C   0  0  1  0  0  0  0  0  0  0  0  0
    5.2754   -1.4748    0.0000 C   0  0  2  0  0  0  0  0  0  0  0  0
    8.8637    0.3368    0.0000 C   0  0  2  0  0  0  0  0  0  0  0  0
    5.2674   -2.5164    0.0000 C   0  0  1  0  0  0  0  0  0  0  0  0
    7.0514    0.5321    0.0000 C   0  0  0  0  0  0  0  0  0  0  0  0
    6.1854    0.0321    0.0000 C   0  0  0  0  0  0  0  0  0  0  0  0
    8.8637   -1.2727    0.0000 C   0  0  0  0  0  0  0  0  0  0  0  0
    7.0675   -2.5094    0.0000 C   0  0  0  0  0  0  0  0  0  0  0  0
    9.4473   -0.4679    0.0000 C   0  0  0  0  0  0  0  0  0  0  0  0
    6.1694   -3.0372    0.0000 C   0  0  2  0  0  0  0  0  0  0  0  0
    4.3486   -0.9107    0.0000 C   0  0  0  0  0  0  0  0  0  0  0  0
    7.9174    1.0321    0.0000 C   0  0  0  0  0  0  0  0  0  0  0  0
    9.1743    1.2873    0.0000 C   0  0  1  0  0  0  0  0  0  0  0  0
    4.3319   -3.0661    0.0000 C   0  0  0  0  0  0  0  0  0  0  0  0
    5.2831   -0.4748    0.0000 C   0  0  0  0  0  0  0  0  0  0  0  0
    3.4007   -1.4386    0.0000 C   0  0  2  0  0  0  0  0  0  0  0  0
    3.3923   -2.5236    0.0000 C   0  0  1  0  0  0  0  0  0  0  0  0
   10.1528    1.4936    0.0000 C   0  0  2  0  0  0  0  0  0  0  0  0
    8.5065    2.0316    0.0000 C   0  0  0  0  0  0  0  0  0  0  0  0
   10.4635    2.4441    0.0000 C   0  0  1  0  0  0  0  0  0  0  0  0
   11.4420    2.6503    0.0000 C   0  0  2  0  0  0  0  0  0  0  0  0
   11.7527    3.6008    0.0000 C   0  0  0  0  0  0  0  0  0  0  0  0
   12.1098    1.9060    0.0000 C   0  0  0  0  0  0  0  0  0  0  0  0
   12.7312    3.8070    0.0000 C   0  0  0  0  0  0  0  0  0  0  0  0
   11.0848    4.3451    0.0000 C   0  0  0  0  0  0  0  0  0  0  0  0
    7.9830   -1.5844    0.0000 H   0  0  0  0  0  0  0  0  0  0  0  0
    7.7908   -1.8872    0.0000 H   0  0  0  0  0  0  0  0  0  0  0  0
    6.9215   -0.5429    0.0000 H   0  0  0  0  0  0  0  0  0  0  0  0
    9.7034    0.4687    0.0000 H   0  0  0  0  0  0  0  0  0  0  0  0
    5.2706   -3.3664    0.0000 H   0  0  0  0  0  0  0  0  0  0  0  0
    7.4500    1.0070    0.0000 H   0  0  0  0  0  0  0  0  0  0  0  0
    6.6529    1.0070    0.0000 H   0  0  0  0  0  0  0  0  0  0  0  0
    5.9733    0.6147    0.0000 H   0  0  0  0  0  0  0  0  0  0  0  0
    5.5748   -0.0756    0.0000 H   0  0  0  0  0  0  0  0  0  0  0  0
    8.6126   -1.8396    0.0000 H   0  0  0  0  0  0  0  0  0  0  0  0
    9.4010   -1.5819    0.0000 H   0  0  0  0  0  0  0  0  0  0  0  0
    7.2855   -3.0898    0.0000 H   0  0  0  0  0  0  0  0  0  0  0  0
    7.6766   -2.3939    0.0000 H   0  0  0  0  0  0  0  0  0  0  0  0
    9.9081   -0.8827    0.0000 H   0  0  0  0  0  0  0  0  0  0  0  0
    9.9081   -0.0532    0.0000 H   0  0  0  0  0  0  0  0  0  0  0  0
    6.7082   -3.3441    0.0000 H   0  0  0  0  0  0  0  0  0  0  0  0
    4.7568   -0.4440    0.0000 H   0  0  0  0  0  0  0  0  0  0  0  0
    3.9586   -0.4287    0.0000 H   0  0  0  0  0  0  0  0  0  0  0  0
    8.5374    1.0321    0.0000 H   0  0  0  0  0  0  0  0  0  0  0  0
    7.9174    1.6521    0.0000 H   0  0  0  0  0  0  0  0  0  0  0  0
    7.2974    1.0321    0.0000 H   0  0  0  0  0  0  0  0  0  0  0  0
    8.5676    1.1595    0.0000 H   0  0  0  0  0  0  0  0  0  0  0  0
    3.9346   -3.5421    0.0000 H   0  0  0  0  0  0  0  0  0  0  0  0
    4.7329   -3.5390    0.0000 H   0  0  0  0  0  0  0  0  0  0  0  0
    5.9031   -0.4796    0.0000 H   0  0  0  0  0  0  0  0  0  0  0  0
    5.2879    0.1452    0.0000 H   0  0  0  0  0  0  0  0  0  0  0  0
    4.6631   -0.4700    0.0000 H   0  0  0  0  0  0  0  0  0  0  0  0
    2.8608   -1.7434    0.0000 H   0  0  0  0  0  0  0  0  0  0  0  0
    2.8572   -2.2105    0.0000 H   0  0  0  0  0  0  0  0  0  0  0  0
    9.9602    0.9042    0.0000 H   0  0  0  0  0  0  0  0  0  0  0  0
    8.9680    2.4457    0.0000 H   0  0  0  0  0  0  0  0  0  0  0  0
    8.0924    2.4931    0.0000 H   0  0  0  0  0  0  0  0  0  0  0  0
    8.0450    1.6176    0.0000 H   0  0  0  0  0  0  0  0  0  0  0  0
    6.7114   -4.3451    0.0000 H   0  0  0  0  0  0  0  0  0  0  0  0
   10.6561    3.0334    0.0000 H   0  0  0  0  0  0  0  0  0  0  0  0
    2.0000   -1.2324    0.0000 H   0  0  0  0  0  0  0  0  0  0  0  0
    2.5220   -3.6402    0.0000 H   0  0  0  0  0  0  0  0  0  0  0  0
   11.2494    2.0610    0.0000 H   0  0  0  0  0  0  0  0  0  0  0  0
   11.4273    0.8771    0.0000 H   0  0  0  0  0  0  0  0  0  0  0  0
   11.9453    4.1901    0.0000 H   0  0  0  0  0  0  0  0  0  0  0  0
    9.9883    3.7777    0.0000 H   0  0  0  0  0  0  0  0  0  0  0  0
   11.6484    1.4919    0.0000 H   0  0  0  0  0  0  0  0  0  0  0  0
   12.5239    1.4445    0.0000 H   0  0  0  0  0  0  0  0  0  0  0  0
   12.5713    2.3200    0.0000 H   0  0  0  0  0  0  0  0  0  0  0  0
   12.8590    3.2003    0.0000 H   0  0  0  0  0  0  0  0  0  0  0  0
   13.3378    3.9349    0.0000 H   0  0  0  0  0  0  0  0  0  0  0  0
   12.6033    4.4137    0.0000 H   0  0  0  0  0  0  0  0  0  0  0  0
   11.5463    4.7592    0.0000 H   0  0  0  0  0  0  0  0  0  0  0  0
   10.6708    4.8066    0.0000 H   0  0  0  0  0  0  0  0  0  0  0  0
   10.6234    3.9310    0.0000 H   0  0  0  0  0  0  0  0  0  0  0  0
 18  1  1  6  0  0  0
  1 67  1  0  0  0  0
 24  2  1  6  0  0  0
  2 69  1  0  0  0  0
 25  3  1  6  0  0  0
  3 70  1  0  0  0  0
 26  4  1  6  0  0  0
  4 72  1  0  0  0  0
 28  5  1  6  0  0  0
  5 74  1  0  0  0  0
  6  7  1  0  0  0  0
  6 11  1  0  0  0  0
  6 13  1  0  0  0  0
  6 20  1  1  0  0  0
  7  8  1  0  0  0  0
  7 15  1  0  0  0  0
  7 34  1  0  0  0  0
  8  9  1  0  0  0  0
  8 16  1  0  0  0  0
  8 35  1  1  0  0  0
  9 10  1  0  0  0  0
  9 14  1  0  0  0  0
  9 36  1  6  0  0  0
 10 12  1  0  0  0  0
 10 19  1  0  0  0  0
 10 23  1  1  0  0  0
 11 17  1  0  0  0  0
 11 21  1  0  0  0  0
 11 37  1  6  0  0  0
 12 18  1  0  0  0  0
 12 22  1  0  0  0  0
 12 38  1  6  0  0  0
 13 14  1  0  0  0  0
 13 39  1  0  0  0  0
 13 40  1  0  0  0  0
 14 41  1  0  0  0  0
 14 42  1  0  0  0  0
 15 17  1  0  0  0  0
 15 43  1  0  0  0  0
 15 44  1  0  0  0  0
 16 18  1  0  0  0  0
 16 45  1  0  0  0  0
 16 46  1  0  0  0  0
 17 47  1  0  0  0  0
 17 48  1  0  0  0  0
 18 49  1  0  0  0  0
 19 24  1  0  0  0  0
 19 50  1  0  0  0  0
 19 51  1  0  0  0  0
 20 52  1  0  0  0  0
 20 53  1  0  0  0  0
 20 54  1  0  0  0  0
 21 26  1  0  0  0  0
 21 27  1  6  0  0  0
 21 55  1  0  0  0  0
 22 25  1  0  0  0  0
 22 56  1  0  0  0  0
 22 57  1  0  0  0  0
 23 58  1  0  0  0  0
 23 59  1  0  0  0  0
 23 60  1  0  0  0  0
 24 25  1  0  0  0  0
 24 61  1  0  0  0  0
 25 62  1  0  0  0  0
 26 28  1  0  0  0  0
 26 63  1  0  0  0  0
 27 64  1  0  0  0  0
 27 65  1  0  0  0  0
 27 66  1  0  0  0  0
 28 29  1  0  0  0  0
 28 68  1  0  0  0  0
 29 30  1  0  0  0  0
 29 31  1  6  0  0  0
 29 71  1  0  0  0  0
 30 32  1  0  0  0  0
 30 33  1  0  0  0  0
 30 73  1  0  0  0  0
 31 75  1  0  0  0  0
 31 76  1  0  0  0  0
 31 77  1  0  0  0  0
 32 78  1  0  0  0  0
 32 79  1  0  0  0  0
 32 80  1  0  0  0  0
 33 81  1  0  0  0  0
 33 82  1  0  0  0  0
 33 83  1  0  0  0  0
M  END
> <PUBCHEM_COMPOUND_CID>
23724595

> <PUBCHEM_COMPOUND_CANONICALIZED>
1

> <PUBCHEM_CACTVS_COMPLEXITY>
698

> <PUBCHEM_CACTVS_HBOND_ACCEPTOR>
5

> <PUBCHEM_CACTVS_HBOND_DONOR>
5

> <PUBCHEM_CACTVS_ROTATABLE_BOND>
5

> <PUBCHEM_CACTVS_SUBSKEYS>
AAADcfB4OAAAAAAAAAAAAAAAAAAAAYAAAAAwYMAAAAAAAGDAAAAAGgAACAAADxSggAICAAAAAgAAAAAAAAAAAAAAAAAAAAAAAAABEAIAAAAAQAAEAAABAAHA4PQPgAAAAAAAAADAAAYAADCAAQAACAAAAA==

> <PUBCHEM_IUPAC_OPENEYE_NAME>
(2R,3S,5S,6S,8S,9S,10R,13S,17R)-17-[(1S,2R,3R,4S)-2,3-dihydroxy-1,4,5-trimethyl-hexyl]-10,13-dimethyl-2,3,4,5,6,7,8,9,11,12,14,15,16,17-tetradecahydro-1H-cyclopenta[a]phenanthrene-2,3,6-triol

> <PUBCHEM_IUPAC_CAS_NAME>
(2R,3S,5S,6S,8S,9S,10R,13S,17R)-17-[(2S,3R,4R,5S)-3,4-dihydroxy-5,6-dimethylheptan-2-yl]-10,13-dimethyl-2,3,4,5,6,7,8,9,11,12,14,15,16,17-tetradecahydro-1H-cyclopenta[a]phenanthrene-2,3,6-triol

> <PUBCHEM_IUPAC_NAME>
(2R,3S,5S,6S,8S,9S,10R,13S,17R)-17-[(2S,3R,4R,5S)-3,4-dihydroxy-5,6-dimethylheptan-2-yl]-10,13-dimethyl-2,3,4,5,6,7,8,9,11,12,14,15,16,17-tetradecahydro-1H-cyclopenta[a]phenanthrene-2,3,6-triol

> <PUBCHEM_IUPAC_SYSTEMATIC_NAME>
(2R,3S,5S,6S,8S,9S,10R,13S,17R)-17-[(2S,3R,4R,5S)-5,6-dimethyl-3,4-bis(oxidanyl)heptan-2-yl]-10,13-dimethyl-2,3,4,5,6,7,8,9,11,12,14,15,16,17-tetradecahydro-1H-cyclopenta[a]phenanthrene-2,3,6-triol

> <PUBCHEM_IUPAC_TRADITIONAL_NAME>
(2R,3S,5S,6S,8S,9S,10R,13S,17R)-17-[(1S,2R,3R,4S)-2,3-dihydroxy-1,4,5-trimethyl-hexyl]-10,13-dimethyl-2,3,4,5,6,7,8,9,11,12,14,15,16,17-tetradecahydro-1H-cyclopenta[a]phenanthrene-2,3,6-triol

> <PUBCHEM_IUPAC_INCHI>
InChI=1S/C28H50O5/c1-14(2)15(3)25(32)26(33)16(4)18-7-8-19-17-11-22(29)21-12-23(30)24(31)13-28(21,6)20(17)9-10-27(18,19)5/h14-26,29-33H,7-13H2,1-6H3/t15-,16-,17-,18+,19?,20-,21+,22-,23-,24+,25+,26+,27+,28+/m0/s1

> <PUBCHEM_IUPAC_INCHIKEY>
CVXIEYXJQSRIAC-NVHAJTKRSA-N

> <PUBCHEM_XLOGP3_AA>
5

> <PUBCHEM_EXACT_MASS>
466.365825

> <PUBCHEM_MOLECULAR_FORMULA>
C28H50O5

> <PUBCHEM_MOLECULAR_WEIGHT>
466.6936

> <PUBCHEM_OPENEYE_CAN_SMILES>
CC(C)C(C)C(C(C(C)C1CCC2C1(CCC3C2CC(C4C3(CC(C(C4)O)O)C)O)C)O)O

> <PUBCHEM_OPENEYE_ISO_SMILES>
C[C@@H]([C@H]1CCC2[C@@]1(CC[C@H]3[C@H]2C[C@@H]([C@@H]4[C@@]3(C[C@H]([C@H](C4)O)O)C)O)C)[C@H]([C@@H]([C@@H](C)C(C)C)O)O

> <PUBCHEM_CACTVS_TPSA>
101

> <PUBCHEM_MONOISOTOPIC_WEIGHT>
466.365825

> <PUBCHEM_TOTAL_CHARGE>
0

> <PUBCHEM_HEAVY_ATOM_COUNT>
33

> <PUBCHEM_ATOM_DEF_STEREO_COUNT>
13

> <PUBCHEM_ATOM_UDEF_STEREO_COUNT>
1

> <PUBCHEM_BOND_DEF_STEREO_COUNT>
0

> <PUBCHEM_BOND_UDEF_STEREO_COUNT>
0

> <PUBCHEM_ISOTOPIC_ATOM_COUNT>
0

> <PUBCHEM_COMPONENT_COUNT>
1

> <PUBCHEM_CACTVS_TAUTO_COUNT>
1

> <PUBCHEM_COORDINATE_TYPE>
1
5
255

> <PUBCHEM_BONDANNOTATIONS>
18  1  6
10  23  5
11  37  6
12  38  6
24  2  6
21  27  6
29  31  6
25  3  6
26  4  6
28  5  6
6  20  5
7  15  3
8  35  5
9  36  6

$$$$

