133246
  -OEChem-07051212443D

 30 31  0     1  0  0  0  0  0999 V2000
   -3.5324    1.4411    0.2263 O   0  0  0  0  0  0  0  0  0  0  0  0
   -4.5893   -1.2082    0.2769 O   0  0  0  0  0  0  0  0  0  0  0  0
    1.3499   -2.4574    0.8487 O   0  0  0  0  0  0  0  0  0  0  0  0
   -0.4387   -0.5282    0.2130 N   0  0  0  0  0  0  0  0  0  0  0  0
    0.6151    2.1495    0.1967 N   0  0  0  0  0  0  0  0  0  0  0  0
    2.6986    1.0907   -0.2987 N   0  0  0  0  0  0  0  0  0  0  0  0
    3.1163   -1.2478   -0.0097 N   0  0  0  0  0  0  0  0  0  0  0  0
    4.7934    0.2311   -0.7278 N   0  0  0  0  0  0  0  0  0  0  0  0
   -1.2991    0.6281   -0.0597 C   0  0  1  0  0  0  0  0  0  0  0  0
   -2.7039    0.2981    0.4301 C   0  0  2  0  0  0  0  0  0  0  0  0
   -3.3029   -0.9287   -0.2718 C   0  0  2  0  0  0  0  0  0  0  0  0
   -0.7541    1.8697    0.6349 C   0  0  0  0  0  0  0  0  0  0  0  0
    0.8231   -0.2728    0.2292 C   0  0  0  0  0  0  0  0  0  0  0  0
    1.3649    1.1143    0.0360 C   0  0  0  0  0  0  0  0  0  0  0  0
   -3.4484   -0.7243   -1.7753 C   0  0  0  0  0  0  0  0  0  0  0  0
    1.7995   -1.4175    0.3813 C   0  0  0  0  0  0  0  0  0  0  0  0
    3.5079   -0.0376   -0.3300 C   0  0  0  0  0  0  0  0  0  0  0  0
   -1.3050    0.8269   -1.1387 H   0  0  0  0  0  0  0  0  0  0  0  0
   -2.6973    0.1135    1.5115 H   0  0  0  0  0  0  0  0  0  0  0  0
   -1.3667    2.7447    0.3926 H   0  0  0  0  0  0  0  0  0  0  0  0
   -0.7657    1.7590    1.7265 H   0  0  0  0  0  0  0  0  0  0  0  0
   -2.6850   -1.8156   -0.0936 H   0  0  0  0  0  0  0  0  0  0  0  0
   -4.0944    0.1274   -2.0111 H   0  0  0  0  0  0  0  0  0  0  0  0
   -3.9374   -1.5999   -2.2186 H   0  0  0  0  0  0  0  0  0  0  0  0
   -2.4867   -0.5971   -2.2780 H   0  0  0  0  0  0  0  0  0  0  0  0
   -3.4286    1.7383   -0.6932 H   0  0  0  0  0  0  0  0  0  0  0  0
    3.1401    1.9843   -0.4990 H   0  0  0  0  0  0  0  0  0  0  0  0
   -4.4740   -1.3659    1.2294 H   0  0  0  0  0  0  0  0  0  0  0  0
    5.4873   -0.5059   -0.7904 H   0  0  0  0  0  0  0  0  0  0  0  0
    5.0877    1.1697   -0.9743 H   0  0  0  0  0  0  0  0  0  0  0  0
  1 10  1  0  0  0  0
  1 26  1  0  0  0  0
  2 11  1  0  0  0  0
  2 28  1  0  0  0  0
  3 16  2  0  0  0  0
  4  9  1  0  0  0  0
  4 13  2  0  0  0  0
  5 12  1  0  0  0  0
  5 14  2  0  0  0  0
  6 14  1  0  0  0  0
  6 17  1  0  0  0  0
  6 27  1  0  0  0  0
  7 16  1  0  0  0  0
  7 17  2  0  0  0  0
  8 17  1  0  0  0  0
  8 29  1  0  0  0  0
  8 30  1  0  0  0  0
  9 10  1  0  0  0  0
  9 12  1  0  0  0  0
  9 18  1  0  0  0  0
 10 11  1  0  0  0  0
 10 19  1  0  0  0  0
 11 15  1  0  0  0  0
 11 22  1  0  0  0  0
 12 20  1  0  0  0  0
 12 21  1  0  0  0  0
 13 14  1  0  0  0  0
 13 16  1  0  0  0  0
 15 23  1  0  0  0  0
 15 24  1  0  0  0  0
 15 25  1  0  0  0  0
M  END
> <PUBCHEM_COMPOUND_CID>
133246

> <PUBCHEM_CONFORMER_RMSD>
0.6

> <PUBCHEM_CONFORMER_DIVERSEORDER>
2
5
1
6
7
4
3
10
9
11
8

> <PUBCHEM_MMFF94_PARTIAL_CHARGES>
21
1 -0.68
10 0.28
11 0.28
12 0.25
13 0.45
14 0.5
16 0.78
17 0.55
2 -0.68
26 0.4
27 0.4
28 0.4
29 0.4
3 -0.57
30 0.4
4 -0.7
5 -0.7
6 -0.5
7 -0.66
8 -0.85
9 0.25

> <PUBCHEM_EFFECTIVE_ROTOR_COUNT>
2.4

> <PUBCHEM_PHARMACOPHORE_FEATURES>
12
1 1 acceptor
1 1 donor
1 2 acceptor
1 2 donor
1 3 acceptor
1 4 acceptor
1 6 donor
1 7 donor
1 8 donor
3 5 6 14 cation
6 4 5 9 12 13 14 rings
6 6 7 13 14 16 17 rings

> <PUBCHEM_HEAVY_ATOM_COUNT>
17

> <PUBCHEM_ATOM_DEF_STEREO_COUNT>
3

> <PUBCHEM_ATOM_UDEF_STEREO_COUNT>
0

> <PUBCHEM_BOND_DEF_STEREO_COUNT>
0

> <PUBCHEM_BOND_UDEF_STEREO_COUNT>
0

> <PUBCHEM_ISOTOPIC_ATOM_COUNT>
0

> <PUBCHEM_COMPONENT_COUNT>
1

> <PUBCHEM_CACTVS_TAUTO_COUNT>
8

> <PUBCHEM_CONFORMER_ID>
0002087E00000002

> <PUBCHEM_MMFF94_ENERGY>
43.3081

> <PUBCHEM_FEATURE_SELFOVERLAP>
61.064

> <PUBCHEM_SHAPE_FINGERPRINT>
10062212 137 18337115652218290371
11543360 7 16343416211454283623
11578080 2 17605583040157104825
11806522 49 18410009914443752112
12032990 46 18335415755448952960
12553582 1 18261683601344980239
13760787 19 18410289259164241173
14251717 144 18413392012100118734
14252887 29 17894620457505337150
14576447 43 18335427828607621863
14787075 74 18042414521620907960
15196674 1 18411134766468180386
15375462 189 18409727383042217563
15536298 74 18114184090571960592
15757776 16 18411985766993300966
16945 1 18342463624993670192
18186145 218 17632294613710852699
19422 9 18333726944248558991
19433438 38 17775574138890508391
200 152 18409168813607232716
20645477 70 18261402100740663671
21267235 1 18336535058333696591
21501502 16 18197779014685950888
21634736 98 18045232535019671663
221490 88 18196365910274047579
23402539 116 18409167731887384588
23402655 69 18340206400699723581
23559900 14 18121508122461462330
2748010 2 17908981007019024928
2871803 45 18412548708087742991
3312278 4 18410007775566032097
34934 24 18337673143268544857
4990 188 18114451336632840398
5104073 3 18410574023906391104
603831 33 18409455816222807630
7364860 26 18042129747539543176
8809292 202 18129375995567565779
90525 40 18040436616013330863

> <PUBCHEM_SHAPE_MULTIPOLES>
307.34
7.7
2
0.92
0.84
0.09
0.3
-1.84
1.85
-0.12
-0.44
0.49
-0.22
-0.67

> <PUBCHEM_SHAPE_SELFOVERLAP>
646.253

> <PUBCHEM_SHAPE_VOLUME>
169.8

> <PUBCHEM_COORDINATE_TYPE>
2
5
10

$$$$

