182378
  -OEChem-07051213152D

 33 34  0     1  0  0  0  0  0999 V2000
    5.4071   -1.2857    0.0000 O   0  0  0  0  0  0  0  0  0  0  0  0
    2.8380   -0.9766    0.0000 O   0  0  0  0  0  0  0  0  0  0  0  0
    3.5103   -3.0457    0.0000 O   0  0  0  0  0  0  0  0  0  0  0  0
    6.6804   -2.9412    0.0000 O   0  0  0  0  0  0  0  0  0  0  0  0
    2.8660    3.3021    0.0000 O   0  0  0  0  0  0  0  0  0  0  0  0
    2.0000    1.8021    0.0000 O   0  0  0  0  0  0  0  0  0  0  0  0
    4.5981    0.3021    0.0000 N   0  0  0  0  0  0  0  0  0  0  0  0
    4.5981    3.3021    0.0000 N   0  0  0  0  0  0  0  0  0  0  0  0
    3.7891   -1.2857    0.0000 C   0  0  2  0  0  0  0  0  0  0  0  0
    4.0981   -2.2367    0.0000 C   0  0  1  0  0  0  0  0  0  0  0  0
    4.5981   -0.6979    0.0000 C   0  0  1  0  0  0  0  0  0  0  0  0
    5.0981   -2.2367    0.0000 C   0  0  1  0  0  0  0  0  0  0  0  0
    5.6859   -3.0457    0.0000 C   0  0  0  0  0  0  0  0  0  0  0  0
    3.7320    0.8021    0.0000 C   0  0  0  0  0  0  0  0  0  0  0  0
    5.4641    0.8021    0.0000 C   0  0  0  0  0  0  0  0  0  0  0  0
    3.7320    1.8021    0.0000 C   0  0  0  0  0  0  0  0  0  0  0  0
    5.4641    1.8021    0.0000 C   0  0  0  0  0  0  0  0  0  0  0  0
    4.5981    2.3021    0.0000 C   0  0  0  0  0  0  0  0  0  0  0  0
    2.8660    2.3021    0.0000 C   0  0  0  0  0  0  0  0  0  0  0  0
    3.3506   -1.7241    0.0000 H   0  0  0  0  0  0  0  0  0  0  0  0
    4.3796   -2.7891    0.0000 H   0  0  0  0  0  0  0  0  0  0  0  0
    5.1505   -0.4164    0.0000 H   0  0  0  0  0  0  0  0  0  0  0  0
    5.7104   -2.1397    0.0000 H   0  0  0  0  0  0  0  0  0  0  0  0
    5.1286   -3.3175    0.0000 H   0  0  0  0  0  0  0  0  0  0  0  0
    5.8568   -3.6417    0.0000 H   0  0  0  0  0  0  0  0  0  0  0  0
    2.3772   -1.3915    0.0000 H   0  0  0  0  0  0  0  0  0  0  0  0
    3.7625   -3.6121    0.0000 H   0  0  0  0  0  0  0  0  0  0  0  0
    3.1951    0.4921    0.0000 H   0  0  0  0  0  0  0  0  0  0  0  0
    6.0010    0.4921    0.0000 H   0  0  0  0  0  0  0  0  0  0  0  0
    6.0010    2.1121    0.0000 H   0  0  0  0  0  0  0  0  0  0  0  0
    7.0448   -3.4428    0.0000 H   0  0  0  0  0  0  0  0  0  0  0  0
    5.1350    3.6121    0.0000 H   0  0  0  0  0  0  0  0  0  0  0  0
    2.3291    3.6121    0.0000 H   0  0  0  0  0  0  0  0  0  0  0  0
  1 11  1  0  0  0  0
  1 12  1  0  0  0  0
  9  2  1  1  0  0  0
  2 26  1  0  0  0  0
 10  3  1  1  0  0  0
  3 27  1  0  0  0  0
  4 13  1  0  0  0  0
  4 31  1  0  0  0  0
  5 19  1  0  0  0  0
  5 33  1  0  0  0  0
  6 19  2  0  0  0  0
 11  7  1  6  0  0  0
  7 14  1  0  0  0  0
  7 15  1  0  0  0  0
  8 18  2  0  0  0  0
  8 32  1  0  0  0  0
  9 10  1  0  0  0  0
  9 11  1  0  0  0  0
  9 20  1  0  0  0  0
 10 12  1  0  0  0  0
 10 21  1  0  0  0  0
 11 22  1  0  0  0  0
 12 13  1  6  0  0  0
 12 23  1  0  0  0  0
 13 24  1  0  0  0  0
 13 25  1  0  0  0  0
 14 16  2  0  0  0  0
 14 28  1  0  0  0  0
 15 17  2  0  0  0  0
 15 29  1  0  0  0  0
 16 18  1  0  0  0  0
 16 19  1  0  0  0  0
 17 18  1  0  0  0  0
 17 30  1  0  0  0  0
M  END
> <PUBCHEM_COMPOUND_CID>
182378

> <PUBCHEM_COMPOUND_CANONICALIZED>
1

> <PUBCHEM_CACTVS_COMPLEXITY>
460

> <PUBCHEM_CACTVS_HBOND_ACCEPTOR>
8

> <PUBCHEM_CACTVS_HBOND_DONOR>
5

> <PUBCHEM_CACTVS_ROTATABLE_BOND>
3

> <PUBCHEM_CACTVS_SUBSKEYS>
AAADccBzOAAAAAAAAAAAAAAAAAAAASAAAAAgAAAAAAAAAAAAAAAAHgAQCAAADBzhgAYACANABgCoAyD2SAAAAAAgAgAIAAE4AFgDFBIAgAAOQAAHgAATEMDwMAIAAAAAAAAAAAAAAAAAAAAAAAAAAAAAAA==

> <PUBCHEM_IUPAC_OPENEYE_NAME>
1-[(2R,3R,4S,5R)-3,4-dihydroxy-5-(hydroxymethyl)tetrahydrofuran-2-yl]-4-imino-pyridine-3-carboxylic acid

> <PUBCHEM_IUPAC_CAS_NAME>
1-[(2R,3R,4S,5R)-3,4-dihydroxy-5-(hydroxymethyl)-2-oxolanyl]-4-imino-3-pyridinecarboxylic acid

> <PUBCHEM_IUPAC_NAME>
1-[(2R,3R,4S,5R)-3,4-dihydroxy-5-(hydroxymethyl)oxolan-2-yl]-4-iminopyridine-3-carboxylic acid

> <PUBCHEM_IUPAC_SYSTEMATIC_NAME>
4-azanylidene-1-[(2R,3R,4S,5R)-5-(hydroxymethyl)-3,4-bis(oxidanyl)oxolan-2-yl]pyridine-3-carboxylic acid

> <PUBCHEM_IUPAC_TRADITIONAL_NAME>
1-[(2R,3R,4S,5R)-3,4-dihydroxy-5-methylol-tetrahydrofuran-2-yl]-4-imino-nicotinic acid

> <PUBCHEM_IUPAC_INCHI>
InChI=1S/C11H14N2O6/c12-6-1-2-13(3-5(6)11(17)18)10-9(16)8(15)7(4-14)19-10/h1-3,7-10,12,14-16H,4H2,(H,17,18)/t7-,8-,9-,10-/m1/s1

> <PUBCHEM_IUPAC_INCHIKEY>
FYEBWHCXONMZDU-ZYUZMQFOSA-N

> <PUBCHEM_XLOGP3_AA>
-1.4

> <PUBCHEM_EXACT_MASS>
270.085186

> <PUBCHEM_MOLECULAR_FORMULA>
C11H14N2O6

> <PUBCHEM_MOLECULAR_WEIGHT>
270.23866

> <PUBCHEM_OPENEYE_CAN_SMILES>
C1=CN(C=C(C1=N)C(=O)O)C2C(C(C(O2)CO)O)O

> <PUBCHEM_OPENEYE_ISO_SMILES>
C1=CN(C=C(C1=N)C(=O)O)[C@H]2[C@@H]([C@@H]([C@H](O2)CO)O)O

> <PUBCHEM_CACTVS_TPSA>
134

> <PUBCHEM_MONOISOTOPIC_WEIGHT>
270.085186

> <PUBCHEM_TOTAL_CHARGE>
0

> <PUBCHEM_HEAVY_ATOM_COUNT>
19

> <PUBCHEM_ATOM_DEF_STEREO_COUNT>
4

> <PUBCHEM_ATOM_UDEF_STEREO_COUNT>
0

> <PUBCHEM_BOND_DEF_STEREO_COUNT>
0

> <PUBCHEM_BOND_UDEF_STEREO_COUNT>
0

> <PUBCHEM_ISOTOPIC_ATOM_COUNT>
0

> <PUBCHEM_COMPONENT_COUNT>
1

> <PUBCHEM_CACTVS_TAUTO_COUNT>
1

> <PUBCHEM_COORDINATE_TYPE>
1
5
255

> <PUBCHEM_BONDANNOTATIONS>
12  13  6
14  16  8
15  17  8
16  18  8
17  18  8
9  2  5
10  3  5
11  7  6
7  14  8
7  15  8

$$$$

