9910234
  -OEChem-07051213113D

 59 61  0     1  0  0  0  0  0999 V2000
    0.0312    0.7472   -0.7074 O   0  0  0  0  0  0  0  0  0  0  0  0
    4.4743   -0.8259   -1.3488 O   0  0  0  0  0  0  0  0  0  0  0  0
    1.3963    4.2176    1.0026 O   0  0  0  0  0  0  0  0  0  0  0  0
    3.8467    3.3674    0.7677 O   0  0  0  0  0  0  0  0  0  0  0  0
   -2.7960    1.3098    2.2719 O   0  0  0  0  0  0  0  0  0  0  0  0
   -6.2152    0.4041   -0.9222 O   0  0  0  0  0  0  0  0  0  0  0  0
    0.7617   -2.0920   -0.7705 C   0  0  2  0  0  0  0  0  0  0  0  0
    1.6850   -1.2514   -1.6870 C   0  0  0  0  0  0  0  0  0  0  0  0
    2.2349   -0.0204   -1.0274 C   0  0  0  0  0  0  0  0  0  0  0  0
    1.3746    0.9651   -0.5415 C   0  0  0  0  0  0  0  0  0  0  0  0
   -0.7728    1.4624    0.2438 C   0  0  1  0  0  0  0  0  0  0  0  0
   -0.4796    2.9605    0.1925 C   0  0  0  0  0  0  0  0  0  0  0  0
    1.9011    2.1159    0.0524 C   0  0  0  0  0  0  0  0  0  0  0  0
    1.6316   -2.8588    0.2568 C   0  0  0  0  0  0  0  0  0  0  0  0
    0.9804    3.1864    0.4877 C   0  0  0  0  0  0  0  0  0  0  0  0
   -0.1700   -3.0109   -1.5596 C   0  0  0  0  0  0  0  0  0  0  0  0
    3.6151    0.1310   -0.8898 C   0  0  0  0  0  0  0  0  0  0  0  0
   -2.2305    1.1808   -0.0538 C   0  0  0  0  0  0  0  0  0  0  0  0
    3.2827    2.2689    0.1925 C   0  0  0  0  0  0  0  0  0  0  0  0
    4.1372    1.2706   -0.2769 C   0  0  0  0  0  0  0  0  0  0  0  0
    0.8078   -3.6195    1.2624 C   0  0  0  0  0  0  0  0  0  0  0  0
    0.4317   -4.0772   -2.4335 C   0  0  0  0  0  0  0  0  0  0  0  0
   -3.1701    1.1176    0.9759 C   0  0  0  0  0  0  0  0  0  0  0  0
   -2.6316    0.9829   -1.3754 C   0  0  0  0  0  0  0  0  0  0  0  0
   -1.5039   -2.8727   -1.4757 C   0  0  0  0  0  0  0  0  0  0  0  0
    0.4234   -3.2326    2.4935 C   0  0  0  0  0  0  0  0  0  0  0  0
   -4.5090    0.8572    0.6842 C   0  0  0  0  0  0  0  0  0  0  0  0
   -3.9705    0.7223   -1.6672 C   0  0  0  0  0  0  0  0  0  0  0  0
   -4.9091    0.6596   -0.6373 C   0  0  0  0  0  0  0  0  0  0  0  0
    0.7586   -1.9200    3.1424 C   0  0  0  0  0  0  0  0  0  0  0  0
   -0.4161   -4.1460    3.3478 C   0  0  0  0  0  0  0  0  0  0  0  0
    0.1219   -1.4391   -0.1694 H   0  0  0  0  0  0  0  0  0  0  0  0
    1.1195   -0.9157   -2.5682 H   0  0  0  0  0  0  0  0  0  0  0  0
    2.4794   -1.8903   -2.0911 H   0  0  0  0  0  0  0  0  0  0  0  0
   -0.5283    1.0533    1.2349 H   0  0  0  0  0  0  0  0  0  0  0  0
   -0.6875    3.3829   -0.7977 H   0  0  0  0  0  0  0  0  0  0  0  0
   -1.0776    3.4953    0.9386 H   0  0  0  0  0  0  0  0  0  0  0  0
    2.3004   -2.1663    0.7795 H   0  0  0  0  0  0  0  0  0  0  0  0
    2.2966   -3.5685   -0.2515 H   0  0  0  0  0  0  0  0  0  0  0  0
    5.2127    1.3907   -0.1685 H   0  0  0  0  0  0  0  0  0  0  0  0
    0.4891   -4.6031    0.9184 H   0  0  0  0  0  0  0  0  0  0  0  0
    1.0875   -3.6324   -3.1880 H   0  0  0  0  0  0  0  0  0  0  0  0
    1.0146   -4.7856   -1.8375 H   0  0  0  0  0  0  0  0  0  0  0  0
   -0.3339   -4.6521   -2.9660 H   0  0  0  0  0  0  0  0  0  0  0  0
   -1.9240    1.0386   -2.1981 H   0  0  0  0  0  0  0  0  0  0  0  0
   -2.1758   -3.5189   -2.0308 H   0  0  0  0  0  0  0  0  0  0  0  0
   -1.9577   -2.1142   -0.8472 H   0  0  0  0  0  0  0  0  0  0  0  0
    5.3877   -0.5477   -1.1638 H   0  0  0  0  0  0  0  0  0  0  0  0
   -5.2417    0.8080    1.4861 H   0  0  0  0  0  0  0  0  0  0  0  0
   -4.2767    0.5712   -2.6988 H   0  0  0  0  0  0  0  0  0  0  0  0
    3.1618    3.9586    1.1154 H   0  0  0  0  0  0  0  0  0  0  0  0
    1.3787   -2.0838    4.0295 H   0  0  0  0  0  0  0  0  0  0  0  0
    1.2972   -1.2392    2.4782 H   0  0  0  0  0  0  0  0  0  0  0  0
   -0.1586   -1.4068    3.4506 H   0  0  0  0  0  0  0  0  0  0  0  0
   -1.3708   -3.6672    3.5893 H   0  0  0  0  0  0  0  0  0  0  0  0
    0.1052   -4.3745    4.2833 H   0  0  0  0  0  0  0  0  0  0  0  0
   -0.6383   -5.0964    2.8514 H   0  0  0  0  0  0  0  0  0  0  0  0
   -3.5783    1.2291    2.8440 H   0  0  0  0  0  0  0  0  0  0  0  0
   -6.7235    0.3961   -0.0930 H   0  0  0  0  0  0  0  0  0  0  0  0
  1 10  1  0  0  0  0
  1 11  1  0  0  0  0
  2 17  1  0  0  0  0
  2 48  1  0  0  0  0
  3 15  2  0  0  0  0
  4 19  1  0  0  0  0
  4 51  1  0  0  0  0
  5 23  1  0  0  0  0
  5 58  1  0  0  0  0
  6 29  1  0  0  0  0
  6 59  1  0  0  0  0
  7  8  1  0  0  0  0
  7 14  1  0  0  0  0
  7 16  1  0  0  0  0
  7 32  1  0  0  0  0
  8  9  1  0  0  0  0
  8 33  1  0  0  0  0
  8 34  1  0  0  0  0
  9 10  2  0  0  0  0
  9 17  1  0  0  0  0
 10 13  1  0  0  0  0
 11 12  1  0  0  0  0
 11 18  1  0  0  0  0
 11 35  1  0  0  0  0
 12 15  1  0  0  0  0
 12 36  1  0  0  0  0
 12 37  1  0  0  0  0
 13 15  1  0  0  0  0
 13 19  2  0  0  0  0
 14 21  1  0  0  0  0
 14 38  1  0  0  0  0
 14 39  1  0  0  0  0
 16 22  1  0  0  0  0
 16 25  2  0  0  0  0
 17 20  2  0  0  0  0
 18 23  2  0  0  0  0
 18 24  1  0  0  0  0
 19 20  1  0  0  0  0
 20 40  1  0  0  0  0
 21 26  2  0  0  0  0
 21 41  1  0  0  0  0
 22 42  1  0  0  0  0
 22 43  1  0  0  0  0
 22 44  1  0  0  0  0
 23 27  1  0  0  0  0
 24 28  2  0  0  0  0
 24 45  1  0  0  0  0
 25 46  1  0  0  0  0
 25 47  1  0  0  0  0
 26 30  1  0  0  0  0
 26 31  1  0  0  0  0
 27 29  2  0  0  0  0
 27 49  1  0  0  0  0
 28 29  1  0  0  0  0
 28 50  1  0  0  0  0
 30 52  1  0  0  0  0
 30 53  1  0  0  0  0
 30 54  1  0  0  0  0
 31 55  1  0  0  0  0
 31 56  1  0  0  0  0
 31 57  1  0  0  0  0
M  END
> <PUBCHEM_COMPOUND_CID>
9910234

> <PUBCHEM_CONFORMER_RMSD>
0.8

> <PUBCHEM_CONFORMER_DIVERSEORDER>
1
279
233
157
237
154
43
171
292
212
349
191
184
54
312
225
238
327
269
337
271
3
211
319
48
174
293
206
328
22
150
194
285
229
197
9
158
344
294
388
274
99
97
103
25
114
318
265
132
363
355
104
261
276
188
66
345
273
14
151
219
198
190
126
264
263
250
375
10
346
24
286
201
304
125
87
172
7
369
221
155
252
204
311
64
141
135
47
6
60
232
300
370
336
365
29
295
227
218
107
20
320
205
313
91
305
39
254
377
247
173
249
145
332
248
46
282
324
284
357
86
95
8
153
85
164
170
15
343
230
35
322
105
383
131
83
175
338
291
18
180
182
79
351
117
386
189
223
81
387
353
73
267
315
326
376
61
200
208
287
333
143
80
366
253
373
228
298
193
272
367
245
244
106
146
63
84
240
321
31
243
268
307
296
32
350
137
169
260
330
92
390
138
202
167
203
2
68
360
44
207
161
281
391
361
160
53
385
30
308
278
162
121
165
51
70
372
235
178
38
241
301
183
392
210
192
384
257
21
98
108
140
215
77
129
234
222
334
119
331
256
65
335
379
266
156
231
110
277
382
316
168
226
62
217
111
37
67
196
74
58
128
12
101
42
144
299
116
82
358
255
323
55
133
69
52
56
242
36
378
148
50
347
362
176
283
120
213
75
123
177
181
258
115
359
354
220
368
102
306
122
239
147
199
109
13
339
136
159
289
325
19
139
152
118
124
309
341
41
303
72
259
4
280
76
27
310
88
216
251
262
348
93
275
90
209
329
356
187
112
186
78
317
381
340
214
94
11
290
342
163
113
270
149
96
142
49
364
127
89
185
16
371
389
302
288
28
33
134
26
352
5
179
23
166
224
374
236
100
59
45
314
130
57
40
17
195
297
246
380
34
71

> <PUBCHEM_MMFF94_PARTIAL_CHARGES>
42
1 -0.36
10 0.08
11 0.42
12 0.06
13 0.09
14 0.14
15 0.42
16 -0.28
17 0.08
18 -0.14
19 0.08
2 -0.53
20 -0.15
21 -0.29
22 0.14
23 0.08
24 -0.15
25 -0.3
26 -0.28
27 -0.15
28 -0.15
29 0.08
3 -0.57
30 0.14
31 0.14
4 -0.53
40 0.15
41 0.15
45 0.15
46 0.15
47 0.15
48 0.45
49 0.15
5 -0.53
50 0.15
51 0.45
58 0.45
59 0.45
6 -0.53
7 0.14
8 0.14
9 -0.14

> <PUBCHEM_EFFECTIVE_ROTOR_COUNT>
6.6

> <PUBCHEM_PHARMACOPHORE_FEATURES>
11
1 1 acceptor
1 2 donor
1 3 acceptor
1 4 donor
1 5 donor
1 6 donor
3 26 30 31 hydrophobe
5 7 8 14 16 21 hydrophobe
6 1 10 11 12 13 15 rings
6 18 23 24 27 28 29 rings
6 9 10 13 17 19 20 rings

> <PUBCHEM_HEAVY_ATOM_COUNT>
31

> <PUBCHEM_ATOM_DEF_STEREO_COUNT>
1

> <PUBCHEM_ATOM_UDEF_STEREO_COUNT>
1

> <PUBCHEM_BOND_DEF_STEREO_COUNT>
0

> <PUBCHEM_BOND_UDEF_STEREO_COUNT>
0

> <PUBCHEM_ISOTOPIC_ATOM_COUNT>
0

> <PUBCHEM_COMPONENT_COUNT>
1

> <PUBCHEM_CACTVS_TAUTO_COUNT>
189

> <PUBCHEM_CONFORMER_ID>
009737DA00000001

> <PUBCHEM_MMFF94_ENERGY>
80.117

> <PUBCHEM_FEATURE_SELFOVERLAP>
55.847

> <PUBCHEM_SHAPE_FINGERPRINT>
10119406 146 17978760697435084294
10305334 12 17471066494080899544
1100329 8 18334301942123303220
11421498 54 17168411766465047883
11578080 2 13612301818675582372
11607047 403 15290760194370638214
12156800 1 17537758436440658690
12160290 23 17834094365167693877
12553582 1 17901377115519374093
12788726 201 17400665726130988944
13140716 1 18335701607477340924
13383668 90 15123221200309980506
17138139 8 17244451620120892989
19026451 147 18266186221720008555
20028762 73 17822292422246047038
20511986 3 17386016091550165045
20567600 347 18131917069801955419
20600515 1 16332201506600047408
21049683 118 17901702317384474593
21421861 104 17907002233844514977
23558518 356 17691141339455319276
27425 322 17772484395252841421
3380486 145 16537360983249663458
3380486 77 15610188607739383732
3383291 50 18263640844398075486
35225 105 17984991383960870106
4058900 60 18343292678257618020
6669772 16 18341339907515516752
81228 2 17693385442597627508
86090 222 17627186236234980595
9896288 288 17474412626387699042
9981440 41 16885567631337747896

> <PUBCHEM_SHAPE_MULTIPOLES>
602.75
7.6
5.85
2.61
8.68
3.13
1.69
-5.17
-2.3
-3.84
2.51
0.14
3.81
0.16

> <PUBCHEM_SHAPE_SELFOVERLAP>
1291.001

> <PUBCHEM_SHAPE_VOLUME>
332.9

> <PUBCHEM_COORDINATE_TYPE>
2
5
10

$$$$

