51090953
  -OEChem-06241223012D

 53 56  0     1  0  0  0  0  0999 V2000
    4.5981    1.9827    0.0000 O   0  0  0  0  0  0  0  0  0  0  0  0
    4.5981    3.9827    0.0000 O   0  0  0  0  0  0  0  0  0  0  0  0
    2.0000    2.4827    0.0000 O   0  0  0  0  0  0  0  0  0  0  0  0
    2.8660   -2.0173    0.0000 N   0  0  0  0  0  0  0  0  0  0  0  0
    2.8660    0.9827    0.0000 N   0  0  0  0  0  0  0  0  0  0  0  0
    2.8660   -1.0173    0.0000 C   0  0  0  0  0  0  0  0  0  0  0  0
    2.0000   -0.5173    0.0000 C   0  0  0  0  0  0  0  0  0  0  0  0
    3.7320   -0.5173    0.0000 C   0  0  0  0  0  0  0  0  0  0  0  0
    2.0000    0.4827    0.0000 C   0  0  0  0  0  0  0  0  0  0  0  0
    3.7320    0.4827    0.0000 C   0  0  0  0  0  0  0  0  0  0  0  0
    2.0000   -2.5173    0.0000 C   0  0  0  0  0  0  0  0  0  0  0  0
    3.7320   -2.5173    0.0000 C   0  0  0  0  0  0  0  0  0  0  0  0
    2.0000   -3.5173    0.0000 C   0  0  0  0  0  0  0  0  0  0  0  0
    3.7320   -3.5173    0.0000 C   0  0  0  0  0  0  0  0  0  0  0  0
    2.8660   -4.0173    0.0000 C   0  0  0  0  0  0  0  0  0  0  0  0
    2.8660    1.9827    0.0000 C   0  0  0  0  0  0  0  0  0  0  0  0
    3.7320    2.4827    0.0000 C   0  0  3  0  0  0  0  0  0  0  0  0
    3.7320    3.4827    0.0000 C   0  0  3  0  0  0  0  0  0  0  0  0
    2.8660    3.9827    0.0000 C   0  0  0  0  0  0  0  0  0  0  0  0
    5.4641    2.4827    0.0000 C   0  0  0  0  0  0  0  0  0  0  0  0
    5.4641    3.4827    0.0000 C   0  0  0  0  0  0  0  0  0  0  0  0
    6.3580    1.9480    0.0000 C   0  0  0  0  0  0  0  0  0  0  0  0
    6.3580    4.0173    0.0000 C   0  0  0  0  0  0  0  0  0  0  0  0
    7.2641    2.4618    0.0000 C   0  0  0  0  0  0  0  0  0  0  0  0
    7.2641    3.5035    0.0000 C   0  0  0  0  0  0  0  0  0  0  0  0
    3.4030   -1.3273    0.0000 H   0  0  0  0  0  0  0  0  0  0  0  0
    1.3894   -0.4097    0.0000 H   0  0  0  0  0  0  0  0  0  0  0  0
    1.7880   -1.0999    0.0000 H   0  0  0  0  0  0  0  0  0  0  0  0
    3.9441   -1.0999    0.0000 H   0  0  0  0  0  0  0  0  0  0  0  0
    4.3426   -0.4097    0.0000 H   0  0  0  0  0  0  0  0  0  0  0  0
    1.7880    1.0653    0.0000 H   0  0  0  0  0  0  0  0  0  0  0  0
    1.3894    0.3750    0.0000 H   0  0  0  0  0  0  0  0  0  0  0  0
    4.3426    0.3750    0.0000 H   0  0  0  0  0  0  0  0  0  0  0  0
    3.9441    1.0653    0.0000 H   0  0  0  0  0  0  0  0  0  0  0  0
    1.7880   -1.9347    0.0000 H   0  0  0  0  0  0  0  0  0  0  0  0
    1.3894   -2.6250    0.0000 H   0  0  0  0  0  0  0  0  0  0  0  0
    4.3426   -2.6250    0.0000 H   0  0  0  0  0  0  0  0  0  0  0  0
    3.9441   -1.9347    0.0000 H   0  0  0  0  0  0  0  0  0  0  0  0
    1.3894   -3.4097    0.0000 H   0  0  0  0  0  0  0  0  0  0  0  0
    1.7880   -4.0999    0.0000 H   0  0  0  0  0  0  0  0  0  0  0  0
    3.9441   -4.0999    0.0000 H   0  0  0  0  0  0  0  0  0  0  0  0
    4.3426   -3.4097    0.0000 H   0  0  0  0  0  0  0  0  0  0  0  0
    2.4675   -4.4923    0.0000 H   0  0  0  0  0  0  0  0  0  0  0  0
    3.2646   -4.4923    0.0000 H   0  0  0  0  0  0  0  0  0  0  0  0
    3.7320    1.8627    0.0000 H   0  0  0  0  0  0  0  0  0  0  0  0
    3.7320    4.1027    0.0000 H   0  0  0  0  0  0  0  0  0  0  0  0
    3.1760    4.5196    0.0000 H   0  0  0  0  0  0  0  0  0  0  0  0
    2.3291    4.2927    0.0000 H   0  0  0  0  0  0  0  0  0  0  0  0
    2.5560    3.4457    0.0000 H   0  0  0  0  0  0  0  0  0  0  0  0
    6.3509    1.3280    0.0000 H   0  0  0  0  0  0  0  0  0  0  0  0
    6.3509    4.6373    0.0000 H   0  0  0  0  0  0  0  0  0  0  0  0
    7.7998    2.1498    0.0000 H   0  0  0  0  0  0  0  0  0  0  0  0
    7.7998    3.8156    0.0000 H   0  0  0  0  0  0  0  0  0  0  0  0
  1 17  1  0  0  0  0
  1 20  1  0  0  0  0
  2 18  1  0  0  0  0
  2 21  1  0  0  0  0
  3 16  2  0  0  0  0
  4  6  1  0  0  0  0
  4 11  1  0  0  0  0
  4 12  1  0  0  0  0
  5  9  1  0  0  0  0
  5 10  1  0  0  0  0
  5 16  1  0  0  0  0
  6  7  1  0  0  0  0
  6  8  1  0  0  0  0
  6 26  1  0  0  0  0
  7  9  1  0  0  0  0
  7 27  1  0  0  0  0
  7 28  1  0  0  0  0
  8 10  1  0  0  0  0
  8 29  1  0  0  0  0
  8 30  1  0  0  0  0
  9 31  1  0  0  0  0
  9 32  1  0  0  0  0
 10 33  1  0  0  0  0
 10 34  1  0  0  0  0
 11 13  1  0  0  0  0
 11 35  1  0  0  0  0
 11 36  1  0  0  0  0
 12 14  1  0  0  0  0
 12 37  1  0  0  0  0
 12 38  1  0  0  0  0
 13 15  1  0  0  0  0
 13 39  1  0  0  0  0
 13 40  1  0  0  0  0
 14 15  1  0  0  0  0
 14 41  1  0  0  0  0
 14 42  1  0  0  0  0
 15 43  1  0  0  0  0
 15 44  1  0  0  0  0
 16 17  1  0  0  0  0
 17 18  1  0  0  0  0
 17 45  1  0  0  0  0
 18 19  1  0  0  0  0
 18 46  1  0  0  0  0
 19 47  1  0  0  0  0
 19 48  1  0  0  0  0
 19 49  1  0  0  0  0
 20 21  1  0  0  0  0
 20 22  2  0  0  0  0
 21 23  2  0  0  0  0
 22 24  1  0  0  0  0
 22 50  1  0  0  0  0
 23 25  1  0  0  0  0
 23 51  1  0  0  0  0
 24 25  2  0  0  0  0
 24 52  1  0  0  0  0
 25 53  1  0  0  0  0
M  END
> <PUBCHEM_COMPOUND_CID>
51090953

> <PUBCHEM_COMPOUND_CANONICALIZED>
1

> <PUBCHEM_CACTVS_COMPLEXITY>
458

> <PUBCHEM_CACTVS_HBOND_ACCEPTOR>
4

> <PUBCHEM_CACTVS_HBOND_DONOR>
0

> <PUBCHEM_CACTVS_ROTATABLE_BOND>
2

> <PUBCHEM_CACTVS_SUBSKEYS>
AAADceB7MAAAAAAAAAAAAAAAAAAAAAAAAAA8WJEAAAAAAACRAAAAHgAAAAAACDzhkAYyBoMABACIACFSEAICCAAgIAAIiAFOiIgPJjaE8R6HOCKm5hGaqAeQQAAAAAAAAAAAQAAAAAAAAACAAAAAAAAAAA==

> <PUBCHEM_IUPAC_OPENEYE_NAME>
(2-methyl-2,3-dihydro-1,4-benzodioxin-3-yl)-[4-(1-piperidyl)-1-piperidyl]methanone

> <PUBCHEM_IUPAC_CAS_NAME>
(2-methyl-2,3-dihydro-1,4-benzodioxin-3-yl)-[4-(1-piperidinyl)-1-piperidinyl]methanone

> <PUBCHEM_IUPAC_NAME>
(2-methyl-2,3-dihydro-1,4-benzodioxin-3-yl)-(4-piperidin-1-ylpiperidin-1-yl)methanone

> <PUBCHEM_IUPAC_SYSTEMATIC_NAME>
(2-methyl-2,3-dihydro-1,4-benzodioxin-3-yl)-(4-piperidin-1-ylpiperidin-1-yl)methanone

> <PUBCHEM_IUPAC_TRADITIONAL_NAME>
(2-methyl-2,3-dihydro-1,4-benzodioxin-3-yl)-(4-piperidinopiperidino)methanone

> <PUBCHEM_IUPAC_INCHI>
InChI=1S/C20H28N2O3/c1-15-19(25-18-8-4-3-7-17(18)24-15)20(23)22-13-9-16(10-14-22)21-11-5-2-6-12-21/h3-4,7-8,15-16,19H,2,5-6,9-14H2,1H3

> <PUBCHEM_IUPAC_INCHIKEY>
WAUMPPSBASUIBY-UHFFFAOYSA-N

> <PUBCHEM_XLOGP3_AA>
3.1

> <PUBCHEM_EXACT_MASS>
344.209993

> <PUBCHEM_MOLECULAR_FORMULA>
C20H28N2O3

> <PUBCHEM_MOLECULAR_WEIGHT>
344.44792

> <PUBCHEM_OPENEYE_CAN_SMILES>
CC1C(OC2=CC=CC=C2O1)C(=O)N3CCC(CC3)N4CCCCC4

> <PUBCHEM_OPENEYE_ISO_SMILES>
CC1C(OC2=CC=CC=C2O1)C(=O)N3CCC(CC3)N4CCCCC4

> <PUBCHEM_CACTVS_TPSA>
42

> <PUBCHEM_MONOISOTOPIC_WEIGHT>
344.209993

> <PUBCHEM_TOTAL_CHARGE>
0

> <PUBCHEM_HEAVY_ATOM_COUNT>
25

> <PUBCHEM_ATOM_DEF_STEREO_COUNT>
0

> <PUBCHEM_ATOM_UDEF_STEREO_COUNT>
2

> <PUBCHEM_BOND_DEF_STEREO_COUNT>
0

> <PUBCHEM_BOND_UDEF_STEREO_COUNT>
0

> <PUBCHEM_ISOTOPIC_ATOM_COUNT>
0

> <PUBCHEM_COMPONENT_COUNT>
1

> <PUBCHEM_CACTVS_TAUTO_COUNT>
1

> <PUBCHEM_COORDINATE_TYPE>
1
5
255

> <PUBCHEM_BONDANNOTATIONS>
17  16  3
18  19  3
20  21  8
20  22  8
21  23  8
22  24  8
23  25  8
24  25  8

$$$$

