9638853
  -OEChem-07051213153D

 19 19  0     0  0  0  0  0  0999 V2000
    3.8338   -0.2964    0.9960 O   0  0  0  0  0  0  0  0  0  0  0  0
    3.0017   -0.4045   -0.1210 N   0  0  0  0  0  0  0  0  0  0  0  0
   -0.3811    0.2436   -0.4927 C   0  0  0  0  0  0  0  0  0  0  0  0
    0.9657    0.5587   -1.0507 C   0  0  0  0  0  0  0  0  0  0  0  0
   -0.8543   -1.0685   -0.5116 C   0  0  0  0  0  0  0  0  0  0  0  0
   -1.1674    1.2608    0.0485 C   0  0  0  0  0  0  0  0  0  0  0  0
   -2.1137   -1.3635    0.0104 C   0  0  0  0  0  0  0  0  0  0  0  0
   -2.4268    0.9657    0.5707 C   0  0  0  0  0  0  0  0  0  0  0  0
   -2.8999   -0.3464    0.5516 C   0  0  0  0  0  0  0  0  0  0  0  0
    2.0419    0.4506   -0.0012 C   0  0  0  0  0  0  0  0  0  0  0  0
    0.9845    1.5826   -1.4425 H   0  0  0  0  0  0  0  0  0  0  0  0
    1.2000   -0.1039   -1.8922 H   0  0  0  0  0  0  0  0  0  0  0  0
   -0.2505   -1.8701   -0.9290 H   0  0  0  0  0  0  0  0  0  0  0  0
   -0.8099    2.2869    0.0712 H   0  0  0  0  0  0  0  0  0  0  0  0
   -2.4819   -2.3852   -0.0039 H   0  0  0  0  0  0  0  0  0  0  0  0
   -3.0390    1.7575    0.9926 H   0  0  0  0  0  0  0  0  0  0  0  0
   -3.8803   -0.5761    0.9583 H   0  0  0  0  0  0  0  0  0  0  0  0
    1.9714    1.1338    0.8650 H   0  0  0  0  0  0  0  0  0  0  0  0
    4.5067   -0.9713    0.8043 H   0  0  0  0  0  0  0  0  0  0  0  0
  1  2  1  0  0  0  0
  1 19  1  0  0  0  0
  2 10  2  0  0  0  0
  3  4  1  0  0  0  0
  3  5  2  0  0  0  0
  3  6  1  0  0  0  0
  4 10  1  0  0  0  0
  4 11  1  0  0  0  0
  4 12  1  0  0  0  0
  5  7  1  0  0  0  0
  5 13  1  0  0  0  0
  6  8  2  0  0  0  0
  6 14  1  0  0  0  0
  7  9  2  0  0  0  0
  7 15  1  0  0  0  0
  8  9  1  0  0  0  0
  8 16  1  0  0  0  0
  9 17  1  0  0  0  0
 10 18  1  0  0  0  0
M  END
> <PUBCHEM_COMPOUND_CID>
9638853

> <PUBCHEM_CONFORMER_RMSD>
0.4

> <PUBCHEM_CONFORMER_DIVERSEORDER>
1
9
6
5
3
4
2
8
7

> <PUBCHEM_MMFF94_PARTIAL_CHARGES>
17
1 -0.34
10 0.33
13 0.15
14 0.15
15 0.15
16 0.15
17 0.15
18 0.06
19 0.4
2 -0.51
3 -0.14
4 0.2
5 -0.15
6 -0.15
7 -0.15
8 -0.15
9 -0.15

> <PUBCHEM_EFFECTIVE_ROTOR_COUNT>
2

> <PUBCHEM_PHARMACOPHORE_FEATURES>
3
1 1 anion
1 2 acceptor
6 3 5 6 7 8 9 rings

> <PUBCHEM_HEAVY_ATOM_COUNT>
10

> <PUBCHEM_ATOM_DEF_STEREO_COUNT>
0

> <PUBCHEM_ATOM_UDEF_STEREO_COUNT>
0

> <PUBCHEM_BOND_DEF_STEREO_COUNT>
1

> <PUBCHEM_BOND_UDEF_STEREO_COUNT>
0

> <PUBCHEM_ISOTOPIC_ATOM_COUNT>
0

> <PUBCHEM_COMPONENT_COUNT>
1

> <PUBCHEM_CACTVS_TAUTO_COUNT>
2

> <PUBCHEM_CONFORMER_ID>
009313C500000001

> <PUBCHEM_MMFF94_ENERGY>
20.2663

> <PUBCHEM_FEATURE_SELFOVERLAP>
15.223

> <PUBCHEM_SHAPE_FINGERPRINT>
10857977 72 17968367962281504509
12251169 10 18334575724549939672
12932764 1 18060412500127279092
13024252 1 14836406951857733325
14390081 3 7925914763963501582
16945 1 18261655022685080437
20361792 2 16988848267590703134
20645464 45 17458057179347402718
20653085 51 7708921780487584503
20711985 344 15122410842522071436
20871998 184 17968652710034176015
21040471 1 18191560125690917613
22445834 79 18273216425763180378
23402539 116 18334304184423584589
23552423 10 17765985113353951277
2748010 2 17904457930131679061
29004967 10 15913043154039056469
369184 2 18187081737183847429

> <PUBCHEM_SHAPE_MULTIPOLES>
194.94
5.15
1.27
0.91
4.34
0.05
0.02
0.71
-1.91
-0.78
0.02
0.3
-0.02
-0.28

> <PUBCHEM_SHAPE_SELFOVERLAP>
396.193

> <PUBCHEM_SHAPE_VOLUME>
113.5

> <PUBCHEM_COORDINATE_TYPE>
2
5
10

$$$$

