3428
  -OEChem-06251223243D

 50 49  0     1  0  0  0  0  0999 V2000
    2.5125   -1.0262   -0.4408 N   0  0  0  0  0  0  0  0  0  0  0  0
    4.0128    2.0457    1.0808 N   0  0  0  0  0  0  0  0  0  0  0  0
   -0.6110   -2.6759   -0.2202 N   0  0  0  0  0  0  0  0  0  0  0  0
   -0.9798    1.8046   -0.5794 N   0  0  0  0  0  0  0  0  0  0  0  0
   -3.3026   -0.9894    2.7411 N   0  0  0  0  0  0  0  0  0  0  0  0
   -2.8747    3.2808   -0.5635 N   0  0  0  0  0  0  0  0  0  0  0  0
   -2.8182    1.4736   -1.9515 N   0  0  0  0  0  0  0  0  0  0  0  0
    3.3295    1.2730    0.0383 C   0  0  2  0  0  0  0  0  0  0  0  0
    1.9803    1.9270   -0.3269 C   0  0  0  0  0  0  0  0  0  0  0  0
    3.1528   -0.1676    0.5515 C   0  0  0  0  0  0  0  0  0  0  0  0
    2.3257   -2.3713    0.0825 C   0  0  0  0  0  0  0  0  0  0  0  0
    0.9965    2.0015    0.8502 C   0  0  0  0  0  0  0  0  0  0  0  0
    1.6508   -3.2932   -0.9353 C   0  0  0  0  0  0  0  0  0  0  0  0
    0.2739   -2.7916   -1.3741 C   0  0  0  0  0  0  0  0  0  0  0  0
   -0.3392    2.6225    0.4517 C   0  0  0  0  0  0  0  0  0  0  0  0
   -1.9236   -2.1890   -0.6196 C   0  0  0  0  0  0  0  0  0  0  0  0
   -2.8708   -2.0506    0.5742 C   0  0  0  0  0  0  0  0  0  0  0  0
   -2.3647   -1.0620    1.6262 C   0  0  0  0  0  0  0  0  0  0  0  0
   -2.1501    2.1881   -0.9852 C   0  0  0  0  0  0  0  0  0  0  0  0
    3.9649    1.2659   -0.8561 H   0  0  0  0  0  0  0  0  0  0  0  0
    1.5300    1.3781   -1.1624 H   0  0  0  0  0  0  0  0  0  0  0  0
    2.1658    2.9432   -0.6993 H   0  0  0  0  0  0  0  0  0  0  0  0
    4.1451   -0.5784    0.7843 H   0  0  0  0  0  0  0  0  0  0  0  0
    2.5873   -0.1787    1.4909 H   0  0  0  0  0  0  0  0  0  0  0  0
    3.2988   -2.8077    0.3407 H   0  0  0  0  0  0  0  0  0  0  0  0
    1.7344   -2.3439    1.0056 H   0  0  0  0  0  0  0  0  0  0  0  0
    0.7943    0.9995    1.2429 H   0  0  0  0  0  0  0  0  0  0  0  0
    1.4265    2.5925    1.6667 H   0  0  0  0  0  0  0  0  0  0  0  0
    1.5595   -4.2969   -0.5011 H   0  0  0  0  0  0  0  0  0  0  0  0
    2.2901   -3.3941   -1.8215 H   0  0  0  0  0  0  0  0  0  0  0  0
    3.0766   -1.0562   -1.2893 H   0  0  0  0  0  0  0  0  0  0  0  0
   -0.1409   -3.5036   -2.0979 H   0  0  0  0  0  0  0  0  0  0  0  0
    0.3713   -1.8261   -1.8843 H   0  0  0  0  0  0  0  0  0  0  0  0
    4.9320    1.6433    1.2597 H   0  0  0  0  0  0  0  0  0  0  0  0
    4.1744    2.9961    0.7502 H   0  0  0  0  0  0  0  0  0  0  0  0
   -0.9738    2.6760    1.3446 H   0  0  0  0  0  0  0  0  0  0  0  0
   -0.1689    3.6413    0.0831 H   0  0  0  0  0  0  0  0  0  0  0  0
   -0.7023   -3.5813    0.2394 H   0  0  0  0  0  0  0  0  0  0  0  0
   -2.3773   -2.8768   -1.3436 H   0  0  0  0  0  0  0  0  0  0  0  0
   -1.8267   -1.2132   -1.1075 H   0  0  0  0  0  0  0  0  0  0  0  0
   -3.0222   -3.0363    1.0336 H   0  0  0  0  0  0  0  0  0  0  0  0
   -3.8505   -1.7227    0.2035 H   0  0  0  0  0  0  0  0  0  0  0  0
   -1.3885   -1.3705    2.0137 H   0  0  0  0  0  0  0  0  0  0  0  0
   -2.2504   -0.0672    1.1857 H   0  0  0  0  0  0  0  0  0  0  0  0
   -2.9819   -0.2873    3.4067 H   0  0  0  0  0  0  0  0  0  0  0  0
   -4.2107   -0.6706    2.4055 H   0  0  0  0  0  0  0  0  0  0  0  0
   -2.5292    3.9188    0.1444 H   0  0  0  0  0  0  0  0  0  0  0  0
   -3.7883    3.4843   -0.9546 H   0  0  0  0  0  0  0  0  0  0  0  0
   -2.4069    0.6478   -2.3721 H   0  0  0  0  0  0  0  0  0  0  0  0
   -3.7354    1.7556   -2.2796 H   0  0  0  0  0  0  0  0  0  0  0  0
  1 10  1  0  0  0  0
  1 11  1  0  0  0  0
  1 31  1  0  0  0  0
  2  8  1  0  0  0  0
  2 34  1  0  0  0  0
  2 35  1  0  0  0  0
  3 14  1  0  0  0  0
  3 16  1  0  0  0  0
  3 38  1  0  0  0  0
  4 15  1  0  0  0  0
  4 19  2  0  0  0  0
  5 18  1  0  0  0  0
  5 45  1  0  0  0  0
  5 46  1  0  0  0  0
  6 19  1  0  0  0  0
  6 47  1  0  0  0  0
  6 48  1  0  0  0  0
  7 19  1  0  0  0  0
  7 49  1  0  0  0  0
  7 50  1  0  0  0  0
  8  9  1  0  0  0  0
  8 10  1  0  0  0  0
  8 20  1  0  0  0  0
  9 12  1  0  0  0  0
  9 21  1  0  0  0  0
  9 22  1  0  0  0  0
 10 23  1  0  0  0  0
 10 24  1  0  0  0  0
 11 13  1  0  0  0  0
 11 25  1  0  0  0  0
 11 26  1  0  0  0  0
 12 15  1  0  0  0  0
 12 27  1  0  0  0  0
 12 28  1  0  0  0  0
 13 14  1  0  0  0  0
 13 29  1  0  0  0  0
 13 30  1  0  0  0  0
 14 32  1  0  0  0  0
 14 33  1  0  0  0  0
 15 36  1  0  0  0  0
 15 37  1  0  0  0  0
 16 17  1  0  0  0  0
 16 39  1  0  0  0  0
 16 40  1  0  0  0  0
 17 18  1  0  0  0  0
 17 41  1  0  0  0  0
 17 42  1  0  0  0  0
 18 43  1  0  0  0  0
 18 44  1  0  0  0  0
M  END
> <PUBCHEM_COMPOUND_CID>
3428

> <PUBCHEM_CONFORMER_RMSD>
1.2

> <PUBCHEM_CONFORMER_DIVERSEORDER>
1
34
5
75
41
38
15
81
13
65
67
39
23
59
66
74
55
77
68
40
32
42
17
63
2
29
18
58
60
26
71
22
51
46
69
43
37
49
57
76
61
25
80
78
64
50
56
3
20
82
48
27
53
24
21
36
79
11
14
12
72
52
44
19
4
6
45
70
35
8
9
54
47
30
62
73
28
7
33
16
31
10

> <PUBCHEM_MMFF94_PARTIAL_CHARGES>
25
1 -0.9
10 0.27
11 0.27
14 0.27
15 0.25
16 0.27
18 0.27
19 0.55
2 -0.99
3 -0.9
31 0.36
34 0.36
35 0.36
38 0.36
4 -0.7
45 0.36
46 0.36
47 0.4
48 0.4
49 0.4
5 -0.99
50 0.4
6 -0.85
7 -0.85
8 0.27

> <PUBCHEM_EFFECTIVE_ROTOR_COUNT>
13

> <PUBCHEM_PHARMACOPHORE_FEATURES>
11
1 1 cation
1 1 donor
1 2 cation
1 2 donor
1 3 cation
1 3 donor
1 5 cation
1 5 donor
1 6 donor
1 7 donor
4 4 6 7 19 cation

> <PUBCHEM_HEAVY_ATOM_COUNT>
19

> <PUBCHEM_ATOM_DEF_STEREO_COUNT>
0

> <PUBCHEM_ATOM_UDEF_STEREO_COUNT>
1

> <PUBCHEM_BOND_DEF_STEREO_COUNT>
0

> <PUBCHEM_BOND_UDEF_STEREO_COUNT>
0

> <PUBCHEM_ISOTOPIC_ATOM_COUNT>
0

> <PUBCHEM_COMPONENT_COUNT>
1

> <PUBCHEM_CACTVS_TAUTO_COUNT>
2

> <PUBCHEM_CONFORMER_ID>
00000D6400000001

> <PUBCHEM_MMFF94_ENERGY>
2.86

> <PUBCHEM_FEATURE_SELFOVERLAP>
55.874

> <PUBCHEM_SHAPE_FINGERPRINT>
10382601 240 18265313059163810026
10708813 3 17471850303678418503
12539773 59 17100028503927198935
13032168 30 16674725810181892730
19026451 147 16683756086416741087
20621476 7 18338506426837161795
238 59 18118423940367788127
6992083 37 17760359994506934435

> <PUBCHEM_SHAPE_MULTIPOLES>
356.14
6.07
5.08
1.66
1.58
0.49
-0.64
-1.31
-1.95
-0.83
1.67
-1.88
0.12
2.07

> <PUBCHEM_SHAPE_SELFOVERLAP>
656.927

> <PUBCHEM_SHAPE_VOLUME>
218.3

> <PUBCHEM_COORDINATE_TYPE>
2
5
10

$$$$

