440385
  -OEChem-07051212493D

 19 19  0     1  0  0  0  0  0999 V2000
   -0.7103   -0.6483   -0.3759 O   0  0  0  0  0  0  0  0  0  0  0  0
    3.3369    0.2742    0.2259 O   0  0  0  0  0  0  0  0  0  0  0  0
   -2.8304   -1.4816   -0.0464 O   0  0  0  0  0  0  0  0  0  0  0  0
    2.0647   -1.5761   -0.1460 O   0  0  0  0  0  0  0  0  0  0  0  0
   -0.0694    0.6210   -0.1592 C   0  0  1  0  0  0  0  0  0  0  0  0
    1.0776    0.4282    0.8284 C   0  0  0  0  0  0  0  0  0  0  0  0
    0.4294    1.1531   -1.4994 C   0  0  0  0  0  0  0  0  0  0  0  0
   -1.1593    1.4565    0.4042 C   0  0  0  0  0  0  0  0  0  0  0  0
   -2.2949    0.7735    0.5074 C   0  0  0  0  0  0  0  0  0  0  0  0
   -2.0178   -0.5748    0.0107 C   0  0  0  0  0  0  0  0  0  0  0  0
    2.1735   -0.4255    0.2503 C   0  0  0  0  0  0  0  0  0  0  0  0
    1.4894    1.3998    1.1305 H   0  0  0  0  0  0  0  0  0  0  0  0
    0.7419   -0.0739    1.7447 H   0  0  0  0  0  0  0  0  0  0  0  0
    0.9792    2.0933   -1.3821 H   0  0  0  0  0  0  0  0  0  0  0  0
    1.0732    0.4297   -2.0117 H   0  0  0  0  0  0  0  0  0  0  0  0
   -0.4083    1.3360   -2.1839 H   0  0  0  0  0  0  0  0  0  0  0  0
   -1.0467    2.4916    0.6946 H   0  0  0  0  0  0  0  0  0  0  0  0
   -3.2438    1.1184    0.8785 H   0  0  0  0  0  0  0  0  0  0  0  0
    4.0738   -0.2547   -0.1477 H   0  0  0  0  0  0  0  0  0  0  0  0
  1  5  1  0  0  0  0
  1 10  1  0  0  0  0
  2 11  1  0  0  0  0
  2 19  1  0  0  0  0
  3 10  2  0  0  0  0
  4 11  2  0  0  0  0
  5  6  1  0  0  0  0
  5  7  1  0  0  0  0
  5  8  1  0  0  0  0
  6 11  1  0  0  0  0
  6 12  1  0  0  0  0
  6 13  1  0  0  0  0
  7 14  1  0  0  0  0
  7 15  1  0  0  0  0
  7 16  1  0  0  0  0
  8  9  2  0  0  0  0
  8 17  1  0  0  0  0
  9 10  1  0  0  0  0
  9 18  1  0  0  0  0
M  END
> <PUBCHEM_COMPOUND_CID>
440385

> <PUBCHEM_CONFORMER_RMSD>
0.6

> <PUBCHEM_CONFORMER_DIVERSEORDER>
1
4
7
8
3
5
9
6
10
2

> <PUBCHEM_MMFF94_PARTIAL_CHARGES>
13
1 -0.43
10 0.71
11 0.66
17 0.15
18 0.15
19 0.5
2 -0.65
3 -0.57
4 -0.57
5 0.42
6 0.06
8 -0.29
9 -0.14

> <PUBCHEM_EFFECTIVE_ROTOR_COUNT>
2.4

> <PUBCHEM_PHARMACOPHORE_FEATURES>
5
1 2 acceptor
1 3 acceptor
1 4 acceptor
3 2 4 11 anion
5 1 5 8 9 10 rings

> <PUBCHEM_HEAVY_ATOM_COUNT>
11

> <PUBCHEM_ATOM_DEF_STEREO_COUNT>
0

> <PUBCHEM_ATOM_UDEF_STEREO_COUNT>
1

> <PUBCHEM_BOND_DEF_STEREO_COUNT>
0

> <PUBCHEM_BOND_UDEF_STEREO_COUNT>
0

> <PUBCHEM_ISOTOPIC_ATOM_COUNT>
0

> <PUBCHEM_COMPONENT_COUNT>
1

> <PUBCHEM_CACTVS_TAUTO_COUNT>
1

> <PUBCHEM_CONFORMER_ID>
0006B84100000001

> <PUBCHEM_MMFF94_ENERGY>
13.8836

> <PUBCHEM_FEATURE_SELFOVERLAP>
25.428

> <PUBCHEM_SHAPE_FINGERPRINT>
10857977 72 18261405420217555416
12932764 1 17844809376900673664
13024252 1 14835834161807377485
14128692 85 18272086033320331517
16945 1 18265051520992270073
20871998 184 18040714758011010607
21040471 1 18045198678304140817
23552423 10 18343297063476437203
29004967 10 17131826594813467608
369184 2 17968383445443466857

> <PUBCHEM_SHAPE_MULTIPOLES>
202.9
4.01
1.47
0.94
1.19
0.19
0.23
1.19
-0.56
-0.42
0.16
0.11
-0.32
-0.21

> <PUBCHEM_SHAPE_SELFOVERLAP>
420.82

> <PUBCHEM_SHAPE_VOLUME>
117.2

> <PUBCHEM_COORDINATE_TYPE>
2
5
10

$$$$

