174880
  -OEChem-07051212572D

 52 55  0     1  0  0  0  0  0999 V2000
    3.7230   -2.8763    0.0000 O   0  0  0  0  0  0  0  0  0  0  0  0
    4.5447    0.2891    0.0000 O   0  0  0  0  0  0  0  0  0  0  0  0
    8.0559   -2.9564    0.0000 O   0  0  0  0  0  0  0  0  0  0  0  0
    2.0000   -2.4441    0.0000 O   0  0  0  0  0  0  0  0  0  0  0  0
    5.1318   -5.4506    0.0000 O   0  0  0  0  0  0  0  0  0  0  0  0
    6.1053    1.0406    0.0000 O   0  0  0  0  0  0  0  0  0  0  0  0
    6.9275    5.3213    0.0000 O   0  0  0  0  0  0  0  0  0  0  0  0
    4.5777   -2.3686    0.0000 C   0  0  1  0  0  0  0  0  0  0  0  0
    4.3551   -1.3937    0.0000 C   0  0  1  0  0  0  0  0  0  0  0  0
    5.4786   -2.8025    0.0000 C   0  0  2  0  0  0  0  0  0  0  0  0
    4.9786   -0.6119    0.0000 C   0  0  2  0  0  0  0  0  0  0  0  0
    6.3796   -2.3686    0.0000 C   0  0  0  0  0  0  0  0  0  0  0  0
    5.9786   -0.6119    0.0000 C   0  0  0  0  0  0  0  0  0  0  0  0
    6.6021   -1.3937    0.0000 C   0  0  0  0  0  0  0  0  0  0  0  0
    5.6146   -3.7872    0.0000 C   0  0  0  0  0  0  0  0  0  0  0  0
    3.3648   -1.3072    0.0000 C   0  0  0  0  0  0  0  0  0  0  0  0
    7.0647   -3.0889    0.0000 C   0  0  0  0  0  0  0  0  0  0  0  0
    2.9749   -2.2216    0.0000 C   0  0  0  0  0  0  0  0  0  0  0  0
    6.5929   -3.9639    0.0000 C   0  0  0  0  0  0  0  0  0  0  0  0
    4.8930   -4.4796    0.0000 C   0  0  0  0  0  0  0  0  0  0  0  0
    7.5770   -1.1712    0.0000 C   0  0  0  0  0  0  0  0  0  0  0  0
    2.8504   -0.4496    0.0000 C   0  0  0  0  0  0  0  0  0  0  0  0
    5.1081    1.1153    0.0000 C   0  0  0  0  0  0  0  0  0  0  0  0
    4.6742    2.0163    0.0000 C   0  0  0  0  0  0  0  0  0  0  0  0
    5.2375    2.8426    0.0000 C   0  0  0  0  0  0  0  0  0  0  0  0
    6.2347    2.7678    0.0000 C   0  0  0  0  0  0  0  0  0  0  0  0
    4.8036    3.7435    0.0000 C   0  0  0  0  0  0  0  0  0  0  0  0
    6.7980    3.5941    0.0000 C   0  0  0  0  0  0  0  0  0  0  0  0
    5.3669    4.5698    0.0000 C   0  0  0  0  0  0  0  0  0  0  0  0
    6.3641    4.4950    0.0000 C   0  0  0  0  0  0  0  0  0  0  0  0
    4.6147   -3.2178    0.0000 H   0  0  0  0  0  0  0  0  0  0  0  0
    4.0200   -0.6125    0.0000 H   0  0  0  0  0  0  0  0  0  0  0  0
    4.7916   -3.3030    0.0000 H   0  0  0  0  0  0  0  0  0  0  0  0
    4.3625   -0.5424    0.0000 H   0  0  0  0  0  0  0  0  0  0  0  0
    6.5372   -0.3429    0.0000 H   0  0  0  0  0  0  0  0  0  0  0  0
    5.8407   -0.0074    0.0000 H   0  0  0  0  0  0  0  0  0  0  0  0
    6.8619   -4.5225    0.0000 H   0  0  0  0  0  0  0  0  0  0  0  0
    4.5480   -3.9644    0.0000 H   0  0  0  0  0  0  0  0  0  0  0  0
    4.3258   -4.7299    0.0000 H   0  0  0  0  0  0  0  0  0  0  0  0
    7.7150   -1.7756    0.0000 H   0  0  0  0  0  0  0  0  0  0  0  0
    8.1815   -1.0332    0.0000 H   0  0  0  0  0  0  0  0  0  0  0  0
    7.4391   -0.5667    0.0000 H   0  0  0  0  0  0  0  0  0  0  0  0
    3.1514    0.0924    0.0000 H   0  0  0  0  0  0  0  0  0  0  0  0
    2.2305   -0.4599    0.0000 H   0  0  0  0  0  0  0  0  0  0  0  0
    4.6844   -5.8799    0.0000 H   0  0  0  0  0  0  0  0  0  0  0  0
    4.2303    2.4492    0.0000 H   0  0  0  0  0  0  0  0  0  0  0  0
    4.1708    1.6544    0.0000 H   0  0  0  0  0  0  0  0  0  0  0  0
    6.5037    2.2092    0.0000 H   0  0  0  0  0  0  0  0  0  0  0  0
    4.1854    3.7898    0.0000 H   0  0  0  0  0  0  0  0  0  0  0  0
    7.4163    3.5477    0.0000 H   0  0  0  0  0  0  0  0  0  0  0  0
    5.0979    5.1284    0.0000 H   0  0  0  0  0  0  0  0  0  0  0  0
    6.6584    5.8799    0.0000 H   0  0  0  0  0  0  0  0  0  0  0  0
  1  8  1  0  0  0  0
  1 18  1  0  0  0  0
 11  2  1  1  0  0  0
  2 23  1  0  0  0  0
  3 17  2  0  0  0  0
  4 18  2  0  0  0  0
  5 20  1  0  0  0  0
  5 45  1  0  0  0  0
  6 23  2  0  0  0  0
  7 30  1  0  0  0  0
  7 52  1  0  0  0  0
  8  9  1  0  0  0  0
  8 10  1  0  0  0  0
  8 31  1  6  0  0  0
  9 11  1  0  0  0  0
  9 16  1  0  0  0  0
  9 32  1  1  0  0  0
 10 12  1  0  0  0  0
 10 15  1  0  0  0  0
 10 33  1  1  0  0  0
 11 13  1  0  0  0  0
 11 34  1  0  0  0  0
 12 14  2  0  0  0  0
 12 17  1  0  0  0  0
 13 14  1  0  0  0  0
 13 35  1  0  0  0  0
 13 36  1  0  0  0  0
 14 21  1  0  0  0  0
 15 19  2  0  0  0  0
 15 20  1  0  0  0  0
 16 18  1  0  0  0  0
 16 22  2  0  0  0  0
 17 19  1  0  0  0  0
 19 37  1  0  0  0  0
 20 38  1  0  0  0  0
 20 39  1  0  0  0  0
 21 40  1  0  0  0  0
 21 41  1  0  0  0  0
 21 42  1  0  0  0  0
 22 43  1  0  0  0  0
 22 44  1  0  0  0  0
 23 24  1  0  0  0  0
 24 25  1  0  0  0  0
 24 46  1  0  0  0  0
 24 47  1  0  0  0  0
 25 26  2  0  0  0  0
 25 27  1  0  0  0  0
 26 28  1  0  0  0  0
 26 48  1  0  0  0  0
 27 29  2  0  0  0  0
 27 49  1  0  0  0  0
 28 30  2  0  0  0  0
 28 50  1  0  0  0  0
 29 30  1  0  0  0  0
 29 51  1  0  0  0  0
M  END
> <PUBCHEM_COMPOUND_CID>
174880

> <PUBCHEM_COMPOUND_CANONICALIZED>
1

> <PUBCHEM_CACTVS_COMPLEXITY>
844

> <PUBCHEM_CACTVS_HBOND_ACCEPTOR>
7

> <PUBCHEM_CACTVS_HBOND_DONOR>
2

> <PUBCHEM_CACTVS_ROTATABLE_BOND>
5

> <PUBCHEM_CACTVS_SUBSKEYS>
AAADceB4OAAAAAAAAAAAAAAAAAAAASIAAAAwAAAABAAAAACBAAAAGgAACAAADRSgmAIyDoAABgCIAqDSCAACAAAgIAAIiAEGCMgINjKCNRKCcAAlwBEIuYfKzPCOIAAAAAAAAABAAAAAAAAAAAAAAAAAAA==

> <PUBCHEM_IUPAC_OPENEYE_NAME>
[(3aR,4S,9aS,9bR)-9-(hydroxymethyl)-6-methyl-3-methylene-2,7-dioxo-4,5,9a,9b-tetrahydro-3aH-azuleno[4,5-b]furan-4-yl] 2-(4-hydroxyphenyl)acetate

> <PUBCHEM_IUPAC_CAS_NAME>
2-(4-hydroxyphenyl)acetic acid [(3aR,4S,9aS,9bR)-9-(hydroxymethyl)-6-methyl-3-methylene-2,7-dioxo-4,5,9a,9b-tetrahydro-3aH-azuleno[4,5-b]furan-4-yl] ester

> <PUBCHEM_IUPAC_NAME>
[(3aR,4S,9aS,9bR)-9-(hydroxymethyl)-6-methyl-3-methylidene-2,7-dioxo-4,5,9a,9b-tetrahydro-3aH-azuleno[4,5-b]furan-4-yl] 2-(4-hydroxyphenyl)acetate

> <PUBCHEM_IUPAC_SYSTEMATIC_NAME>
[(3aR,4S,9aS,9bR)-9-(hydroxymethyl)-6-methyl-3-methylidene-2,7-bis(oxidanylidene)-4,5,9a,9b-tetrahydro-3aH-azuleno[4,5-b]furan-4-yl] 2-(4-hydroxyphenyl)ethanoate

> <PUBCHEM_IUPAC_TRADITIONAL_NAME>
2-(4-hydroxyphenyl)acetic acid [(3aR,4S,9aS,9bR)-2,7-diketo-6-methyl-3-methylene-9-methylol-4,5,9a,9b-tetrahydro-3aH-azuleno[4,5-b]furan-4-yl] ester

> <PUBCHEM_IUPAC_INCHI>
InChI=1S/C23H22O7/c1-11-7-17(29-18(27)8-13-3-5-15(25)6-4-13)20-12(2)23(28)30-22(20)21-14(10-24)9-16(26)19(11)21/h3-6,9,17,20-22,24-25H,2,7-8,10H2,1H3/t17-,20+,21-,22-/m0/s1

> <PUBCHEM_IUPAC_INCHIKEY>
UMVSOHBRAQTGQI-XGARDCMYSA-N

> <PUBCHEM_XLOGP3_AA>
1.1

> <PUBCHEM_EXACT_MASS>
410.136553

> <PUBCHEM_MOLECULAR_FORMULA>
C23H22O7

> <PUBCHEM_MOLECULAR_WEIGHT>
410.41658

> <PUBCHEM_OPENEYE_CAN_SMILES>
CC1=C2C(C3C(C(C1)OC(=O)CC4=CC=C(C=C4)O)C(=C)C(=O)O3)C(=CC2=O)CO

> <PUBCHEM_OPENEYE_ISO_SMILES>
CC1=C2[C@@H]([C@@H]3[C@@H]([C@H](C1)OC(=O)CC4=CC=C(C=C4)O)C(=C)C(=O)O3)C(=CC2=O)CO

> <PUBCHEM_CACTVS_TPSA>
110

> <PUBCHEM_MONOISOTOPIC_WEIGHT>
410.136553

> <PUBCHEM_TOTAL_CHARGE>
0

> <PUBCHEM_HEAVY_ATOM_COUNT>
30

> <PUBCHEM_ATOM_DEF_STEREO_COUNT>
4

> <PUBCHEM_ATOM_UDEF_STEREO_COUNT>
0

> <PUBCHEM_BOND_DEF_STEREO_COUNT>
0

> <PUBCHEM_BOND_UDEF_STEREO_COUNT>
0

> <PUBCHEM_ISOTOPIC_ATOM_COUNT>
0

> <PUBCHEM_COMPONENT_COUNT>
1

> <PUBCHEM_CACTVS_TAUTO_COUNT>
36

> <PUBCHEM_COORDINATE_TYPE>
1
5
255

> <PUBCHEM_BONDANNOTATIONS>
10  33  5
11  2  5
25  26  8
25  27  8
26  28  8
27  29  8
28  30  8
29  30  8
8  31  6
9  32  5

$$$$

