168919
  -OEChem-07051212573D

 37 41  0     0  0  0  0  0  0999 V2000
   -0.9370    1.3592    0.0065 N   0  0  0  0  0  0  0  0  0  0  0  0
    1.5670   -1.4182    0.0019 N   0  0  0  0  0  0  0  0  0  0  0  0
   -2.7707   -0.7978    0.0255 C   0  0  0  0  0  0  0  0  0  0  0  0
   -3.2361    0.5909   -0.0237 C   0  0  0  0  0  0  0  0  0  0  0  0
   -3.7734   -1.9179    0.1337 C   0  0  0  0  0  0  0  0  0  0  0  0
   -4.7043    0.9002   -0.1355 C   0  0  0  0  0  0  0  0  0  0  0  0
   -5.1820   -1.5491   -0.3242 C   0  0  0  0  0  0  0  0  0  0  0  0
   -5.6190   -0.2362    0.3121 C   0  0  0  0  0  0  0  0  0  0  0  0
   -0.4546    0.0133    0.0036 C   0  0  0  0  0  0  0  0  0  0  0  0
   -1.4463   -1.0598    0.0200 C   0  0  0  0  0  0  0  0  0  0  0  0
   -2.3135    1.5733   -0.0142 C   0  0  0  0  0  0  0  0  0  0  0  0
    0.8717   -0.2332    0.0010 C   0  0  0  0  0  0  0  0  0  0  0  0
    1.8035    0.8893   -0.0004 C   0  0  0  0  0  0  0  0  0  0  0  0
   -0.0100    2.4158    0.0061 C   0  0  0  0  0  0  0  0  0  0  0  0
    3.0494    0.4162   -0.0025 C   0  0  0  0  0  0  0  0  0  0  0  0
    1.3266    2.2525    0.0029 C   0  0  0  0  0  0  0  0  0  0  0  0
    2.8132   -1.0467   -0.0006 C   0  0  0  0  0  0  0  0  0  0  0  0
    4.3671    0.9641   -0.0040 C   0  0  0  0  0  0  0  0  0  0  0  0
    4.0148   -1.9106   -0.0010 C   0  0  0  0  0  0  0  0  0  0  0  0
    5.4101    0.1183   -0.0042 C   0  0  0  0  0  0  0  0  0  0  0  0
    5.2233   -1.3238   -0.0028 C   0  0  0  0  0  0  0  0  0  0  0  0
   -3.4352   -2.7915   -0.4374 H   0  0  0  0  0  0  0  0  0  0  0  0
   -3.8227   -2.2273    1.1864 H   0  0  0  0  0  0  0  0  0  0  0  0
   -4.9514    1.8008    0.4403 H   0  0  0  0  0  0  0  0  0  0  0  0
   -4.9239    1.1264   -1.1875 H   0  0  0  0  0  0  0  0  0  0  0  0
   -5.2115   -1.4637   -1.4177 H   0  0  0  0  0  0  0  0  0  0  0  0
   -5.8786   -2.3480   -0.0456 H   0  0  0  0  0  0  0  0  0  0  0  0
   -5.6003   -0.3255    1.4055 H   0  0  0  0  0  0  0  0  0  0  0  0
   -6.6524   -0.0091    0.0263 H   0  0  0  0  0  0  0  0  0  0  0  0
   -1.0931   -2.0861    0.0648 H   0  0  0  0  0  0  0  0  0  0  0  0
   -2.6032    2.6186   -0.0574 H   0  0  0  0  0  0  0  0  0  0  0  0
   -0.4521    3.4067    0.0074 H   0  0  0  0  0  0  0  0  0  0  0  0
    2.0126    3.0895    0.0022 H   0  0  0  0  0  0  0  0  0  0  0  0
    4.5110    2.0377   -0.0048 H   0  0  0  0  0  0  0  0  0  0  0  0
    3.8913   -2.9860    0.0001 H   0  0  0  0  0  0  0  0  0  0  0  0
    6.4278    0.4938   -0.0052 H   0  0  0  0  0  0  0  0  0  0  0  0
    6.1213   -1.9336   -0.0031 H   0  0  0  0  0  0  0  0  0  0  0  0
  1  9  1  0  0  0  0
  1 11  1  0  0  0  0
  1 14  1  0  0  0  0
  2 12  1  0  0  0  0
  2 17  2  0  0  0  0
  3  4  1  0  0  0  0
  3  5  1  0  0  0  0
  3 10  2  0  0  0  0
  4  6  1  0  0  0  0
  4 11  2  0  0  0  0
  5  7  1  0  0  0  0
  5 22  1  0  0  0  0
  5 23  1  0  0  0  0
  6  8  1  0  0  0  0
  6 24  1  0  0  0  0
  6 25  1  0  0  0  0
  7  8  1  0  0  0  0
  7 26  1  0  0  0  0
  7 27  1  0  0  0  0
  8 28  1  0  0  0  0
  8 29  1  0  0  0  0
  9 10  1  0  0  0  0
  9 12  2  0  0  0  0
 10 30  1  0  0  0  0
 11 31  1  0  0  0  0
 12 13  1  0  0  0  0
 13 15  2  0  0  0  0
 13 16  1  0  0  0  0
 14 16  2  0  0  0  0
 14 32  1  0  0  0  0
 15 17  1  0  0  0  0
 15 18  1  0  0  0  0
 16 33  1  0  0  0  0
 17 19  1  0  0  0  0
 18 20  2  0  0  0  0
 18 34  1  0  0  0  0
 19 21  2  0  0  0  0
 19 35  1  0  0  0  0
 20 21  1  0  0  0  0
 20 36  1  0  0  0  0
 21 37  1  0  0  0  0
M  END
> <PUBCHEM_COMPOUND_CID>
168919

> <PUBCHEM_CONFORMER_RMSD>
0.6

> <PUBCHEM_CONFORMER_DIVERSEORDER>
1

> <PUBCHEM_MMFF94_PARTIAL_CHARGES>
26
1 -0.3
10 -0.15
11 -0.05
12 0.17
14 -0.05
15 0.01
16 -0.15
17 0.42
18 -0.15
19 -0.14
2 -0.62
20 -0.15
21 -0.15
3 -0.14
30 0.15
31 0.15
32 0.15
33 0.15
34 0.15
35 0.15
36 0.15
37 0.15
4 -0.14
5 0.14
6 0.14
9 0.1

> <PUBCHEM_EFFECTIVE_ROTOR_COUNT>
0.8

> <PUBCHEM_PHARMACOPHORE_FEATURES>
7
1 1 cation
1 2 acceptor
5 2 12 13 15 17 rings
6 1 3 4 9 10 11 rings
6 1 9 12 13 14 16 rings
6 15 17 18 19 20 21 rings
6 3 4 5 6 7 8 rings

> <PUBCHEM_HEAVY_ATOM_COUNT>
21

> <PUBCHEM_ATOM_DEF_STEREO_COUNT>
0

> <PUBCHEM_ATOM_UDEF_STEREO_COUNT>
0

> <PUBCHEM_BOND_DEF_STEREO_COUNT>
0

> <PUBCHEM_BOND_UDEF_STEREO_COUNT>
0

> <PUBCHEM_ISOTOPIC_ATOM_COUNT>
0

> <PUBCHEM_COMPONENT_COUNT>
1

> <PUBCHEM_CACTVS_TAUTO_COUNT>
1

> <PUBCHEM_CONFORMER_ID>
000293D700000001

> <PUBCHEM_MMFF94_ENERGY>
60.4437

> <PUBCHEM_FEATURE_SELFOVERLAP>
35.792

> <PUBCHEM_SHAPE_FINGERPRINT>
10835480 77 18411147926058967877
10906281 52 18267000856318683826
11806522 49 18412544301688732452
12107183 9 17689998259531340170
12166972 35 17774999103236668300
12236239 1 18334856116909931665
12516196 113 18260551112546693104
13167823 11 18410576192770292814
13288520 33 18409447003176594141
13544653 18 18341887489490429200
13583140 156 14635155693230703235
13685833 64 18341889667724943027
13862211 1 18411141337589093994
14251764 18 18260543412635604531
14341114 176 18410287004243055331
14787075 74 18271805696794914376
15196674 1 18410856568229750165
15352361 1 18410856563966424879
15788980 27 18202561782744764435
15927050 60 17613157369770922476
17492 89 18122907521680768259
1813 80 17489870435958834668
19141452 34 18260830380321845663
200 152 18187085048756542011
20028762 73 18113623339700447839
20261772 1 17967537848124627862
21236236 1 18336265743121687305
21267235 1 18410284835379613798
21279426 13 18268713981682193335
21421861 104 17843407529281653194
221490 88 18269830909318081811
22950370 63 18410571794723404940
23402539 116 18408609166673774207
23522609 53 18122593202456330725
23557571 272 18188484791430742220
23559900 14 18337962199099903385
23622692 118 17897738569935673975
239999 70 18260260859548457646
2871803 45 18272373087633795410
3004659 81 18202001049569552254
314194 84 18335984190260584835
335352 9 18410856582037974445
34797466 226 16950557745368564656
34934 24 18411987987190725659
350125 39 18410291397863178505
3545911 37 18410855464423129095
4073 2 18059288773263034722
4214541 1 18410855494498456165
4463277 17 18410291410726630604
46194498 28 17489309620720210829
465052 167 18261387823736946486
4921388 177 16200141050784295291
5104073 3 18408886247719405296
5283173 99 18129670827713264389
7495541 125 17967538952062747392
8863177 126 17843949365846195747
9709674 26 18198059184282922811

> <PUBCHEM_SHAPE_MULTIPOLES>
422.21
12.2
2.26
0.62
1.48
0.43
0
-4.62
0.02
-0.05
0.02
0.06
-0.01
-0.02

> <PUBCHEM_SHAPE_SELFOVERLAP>
961.409

> <PUBCHEM_SHAPE_VOLUME>
216

> <PUBCHEM_COORDINATE_TYPE>
2
5
10

$$$$

