26454
  -OEChem-07051212473D

 27 26  0     0  0  0  0  0  0999 V2000
   -1.3492   -1.3952    0.4344 O   0  0  0  0  0  0  0  0  0  0  0  0
    1.2632   -1.2757   -0.4653 O   0  0  0  0  0  0  0  0  0  0  0  0
   -2.5218    0.6622   -0.0276 C   0  0  0  0  0  0  0  0  0  0  0  0
    2.5732    0.6377    0.1965 C   0  0  0  0  0  0  0  0  0  0  0  0
    0.0123    0.5919    0.4039 C   0  0  0  0  0  0  0  0  0  0  0  0
   -1.2862   -0.1792    0.2615 C   0  0  0  0  0  0  0  0  0  0  0  0
    1.2802   -0.1417    0.0104 C   0  0  0  0  0  0  0  0  0  0  0  0
   -3.8172   -0.1434   -0.0941 C   0  0  0  0  0  0  0  0  0  0  0  0
    3.8024   -0.1486   -0.2503 C   0  0  0  0  0  0  0  0  0  0  0  0
   -5.0322    0.7266   -0.3850 C   0  0  0  0  0  0  0  0  0  0  0  0
    5.0753    0.6653   -0.0844 C   0  0  0  0  0  0  0  0  0  0  0  0
   -2.3595    1.1747   -0.9825 H   0  0  0  0  0  0  0  0  0  0  0  0
   -2.6005    1.4185    0.7618 H   0  0  0  0  0  0  0  0  0  0  0  0
    2.6609    0.8971    1.2573 H   0  0  0  0  0  0  0  0  0  0  0  0
    2.4931    1.5636   -0.3840 H   0  0  0  0  0  0  0  0  0  0  0  0
   -0.0475    1.4827   -0.2313 H   0  0  0  0  0  0  0  0  0  0  0  0
    0.0959    0.9058    1.4493 H   0  0  0  0  0  0  0  0  0  0  0  0
   -3.9728   -0.6710    0.8547 H   0  0  0  0  0  0  0  0  0  0  0  0
   -3.7332   -0.9135   -0.8702 H   0  0  0  0  0  0  0  0  0  0  0  0
    3.8850   -1.0747    0.3310 H   0  0  0  0  0  0  0  0  0  0  0  0
    3.6975   -0.4427   -1.3015 H   0  0  0  0  0  0  0  0  0  0  0  0
   -4.9249    1.2383   -1.3466 H   0  0  0  0  0  0  0  0  0  0  0  0
   -5.1665    1.4832    0.3945 H   0  0  0  0  0  0  0  0  0  0  0  0
   -5.9376    0.1131   -0.4244 H   0  0  0  0  0  0  0  0  0  0  0  0
    5.2272    0.9464    0.9626 H   0  0  0  0  0  0  0  0  0  0  0  0
    5.9429    0.0825   -0.4089 H   0  0  0  0  0  0  0  0  0  0  0  0
    5.0371    1.5801   -0.6842 H   0  0  0  0  0  0  0  0  0  0  0  0
  1  6  2  0  0  0  0
  2  7  2  0  0  0  0
  3  6  1  0  0  0  0
  3  8  1  0  0  0  0
  3 12  1  0  0  0  0
  3 13  1  0  0  0  0
  4  7  1  0  0  0  0
  4  9  1  0  0  0  0
  4 14  1  0  0  0  0
  4 15  1  0  0  0  0
  5  6  1  0  0  0  0
  5  7  1  0  0  0  0
  5 16  1  0  0  0  0
  5 17  1  0  0  0  0
  8 10  1  0  0  0  0
  8 18  1  0  0  0  0
  8 19  1  0  0  0  0
  9 11  1  0  0  0  0
  9 20  1  0  0  0  0
  9 21  1  0  0  0  0
 10 22  1  0  0  0  0
 10 23  1  0  0  0  0
 10 24  1  0  0  0  0
 11 25  1  0  0  0  0
 11 26  1  0  0  0  0
 11 27  1  0  0  0  0
M  END
> <PUBCHEM_COMPOUND_CID>
26454

> <PUBCHEM_CONFORMER_RMSD>
0.8

> <PUBCHEM_CONFORMER_DIVERSEORDER>
1
114
102
3
111
78
22
109
74
112
86
50
52
19
47
29
100
55
77
13
82
7
87
10
46
49
8
116
25
89
93
107
97
41
26
117
95
73
118
59
16
113
6
83
4
96
15
91
11
103
119
67
70
57
27
48
69
85
84
38
115
79
35
76
98
45
110
30
92
40
65
81
75
60
58
34
44
51
105
56
17
61
18
39
71
66
33
64
21
42
68
88
94
101
43
37
108
32
63
9
106
62
72
99
24
36
5
23
54
90
31
2
12
20
28
53
104
80
14

> <PUBCHEM_MMFF94_PARTIAL_CHARGES>
7
1 -0.57
2 -0.57
3 0.06
4 0.06
5 0.12
6 0.45
7 0.45

> <PUBCHEM_EFFECTIVE_ROTOR_COUNT>
6

> <PUBCHEM_PHARMACOPHORE_FEATURES>
5
1 1 acceptor
1 10 hydrophobe
1 11 hydrophobe
1 2 acceptor
1 5 anion

> <PUBCHEM_HEAVY_ATOM_COUNT>
11

> <PUBCHEM_ATOM_DEF_STEREO_COUNT>
0

> <PUBCHEM_ATOM_UDEF_STEREO_COUNT>
0

> <PUBCHEM_BOND_DEF_STEREO_COUNT>
0

> <PUBCHEM_BOND_UDEF_STEREO_COUNT>
0

> <PUBCHEM_ISOTOPIC_ATOM_COUNT>
0

> <PUBCHEM_COMPONENT_COUNT>
1

> <PUBCHEM_CACTVS_TAUTO_COUNT>
5

> <PUBCHEM_CONFORMER_ID>
0000675600000001

> <PUBCHEM_MMFF94_ENERGY>
2.3014

> <PUBCHEM_FEATURE_SELFOVERLAP>
25.376

> <PUBCHEM_SHAPE_FINGERPRINT>
11062470 55 18202563977515302656
11401426 45 18187087243279186336
114248 4 18259704493104479133
13380535 76 18410290319789392506
14123238 8 17775286058143216109
14911166 2 18259704488577500664
14993402 34 16443066092730425773
15501527 16 18341891896623065353
15501527 24 18041003925390179869
17834072 33 16515693203737527893
17834076 25 18411419513898857636
18342897 14 12391515286541825326
187816 3 17894630357526176369
200 152 17168144542179223361
20201158 50 18334009501583544963
20279233 1 18187636999467718270
20645477 56 18202563960398867004
20645477 70 18042120015286127430
20719005 15 18408603660325097528
20767249 213 17847061064655124492
21119208 17 17167865261719947349
21293036 1 17676487250237794652
23402539 116 18343590628981206773
23402655 69 18187650249404994149
366044 4 18343302569967603635
42 15 10087639312420630077
42788 4 18412545409505516676

> <PUBCHEM_SHAPE_MULTIPOLES>
214.64
10.08
1.06
0.67
0.23
0.22
0
-2.78
1.48
-0.08
0
-0.04
0
0.25

> <PUBCHEM_SHAPE_SELFOVERLAP>
394.718

> <PUBCHEM_SHAPE_VOLUME>
136.2

> <PUBCHEM_COORDINATE_TYPE>
2
5
10

$$$$

