443407
  -OEChem-07051213023D

 63 68  0     1  0  0  0  0  0999 V2000
   -1.3578   -1.8942    1.1038 O   0  0  0  0  0  0  0  0  0  0  0  0
    1.3407   -2.7155    0.2928 O   0  0  0  0  0  0  0  0  0  0  0  0
    2.9863   -0.8094   -2.0079 O   0  0  0  0  0  0  0  0  0  0  0  0
   -4.0264   -2.9401    0.6488 O   0  0  0  0  0  0  0  0  0  0  0  0
   -0.4613    3.2722    0.2364 N   0  0  2  0  0  0  0  0  0  0  0  0
   -0.6971    0.4295    0.6858 C   0  0  1  0  0  0  0  0  0  0  0  0
    0.0140    0.9959   -0.5771 C   0  0  1  0  0  0  0  0  0  0  0  0
   -0.2112   -0.9870    1.0576 C   0  0  2  0  0  0  0  0  0  0  0  0
    0.8811   -1.4043    0.0246 C   0  0  1  0  0  0  0  0  0  0  0  0
   -0.7158    2.3419   -0.8891 C   0  0  1  0  0  0  0  0  0  0  0  0
    1.5396    1.0670   -0.2766 C   0  0  0  0  0  0  0  0  0  0  0  0
    2.0483   -0.3558    0.1566 C   0  0  2  0  0  0  0  0  0  0  0  0
   -0.6498    1.4060    1.8758 C   0  0  0  0  0  0  0  0  0  0  0  0
   -2.0928    0.1215    0.2923 C   0  0  0  0  0  0  0  0  0  0  0  0
   -0.0677   -0.0387   -1.7140 C   0  0  0  0  0  0  0  0  0  0  0  0
   -2.2583    2.1248   -1.1855 C   0  0  0  0  0  0  0  0  0  0  0  0
    0.3414   -1.2771   -1.3865 C   0  0  0  0  0  0  0  0  0  0  0  0
   -1.0665    2.8348    1.4985 C   0  0  0  0  0  0  0  0  0  0  0  0
    3.3120   -0.7435   -0.6185 C   0  0  2  0  0  0  0  0  0  0  0  0
   -2.8827    0.9148   -0.5231 C   0  0  0  0  0  0  0  0  0  0  0  0
   -2.4220   -1.1745    0.6194 C   0  0  0  0  0  0  0  0  0  0  0  0
    4.4514    0.2782   -0.4345 C   0  0  0  0  0  0  0  0  0  0  0  0
   -0.8063    4.6566   -0.0701 C   0  0  0  0  0  0  0  0  0  0  0  0
   -4.1577    0.4368   -0.8246 C   0  0  0  0  0  0  0  0  0  0  0  0
    3.7872   -2.1316   -0.1789 C   0  0  0  0  0  0  0  0  0  0  0  0
   -3.6719   -1.6727    0.3230 C   0  0  0  0  0  0  0  0  0  0  0  0
   -4.5570   -0.8398   -0.3775 C   0  0  0  0  0  0  0  0  0  0  0  0
    0.3014   -3.6781    0.1534 C   0  0  0  0  0  0  0  0  0  0  0  0
    4.9618    0.4097    1.0055 C   0  0  0  0  0  0  0  0  0  0  0  0
    6.1371    1.3727    1.0897 C   0  0  0  0  0  0  0  0  0  0  0  0
    0.2222   -1.0196    2.0659 H   0  0  0  0  0  0  0  0  0  0  0  0
   -0.2590    2.7754   -1.7894 H   0  0  0  0  0  0  0  0  0  0  0  0
    1.7684    1.7780    0.5253 H   0  0  0  0  0  0  0  0  0  0  0  0
    2.0477    1.4586   -1.1643 H   0  0  0  0  0  0  0  0  0  0  0  0
    2.3085   -0.3109    1.2230 H   0  0  0  0  0  0  0  0  0  0  0  0
    0.3686    1.4364    2.2837 H   0  0  0  0  0  0  0  0  0  0  0  0
   -1.2921    1.0551    2.6943 H   0  0  0  0  0  0  0  0  0  0  0  0
   -0.4111    0.2187   -2.7078 H   0  0  0  0  0  0  0  0  0  0  0  0
   -2.3525    1.9786   -2.2705 H   0  0  0  0  0  0  0  0  0  0  0  0
   -2.8497    3.0140   -0.9461 H   0  0  0  0  0  0  0  0  0  0  0  0
    0.3676   -2.0763   -2.1164 H   0  0  0  0  0  0  0  0  0  0  0  0
   -2.1605    2.9043    1.4587 H   0  0  0  0  0  0  0  0  0  0  0  0
   -0.7480    3.5008    2.3104 H   0  0  0  0  0  0  0  0  0  0  0  0
    4.1632    1.2670   -0.8097 H   0  0  0  0  0  0  0  0  0  0  0  0
    5.2889   -0.0163   -1.0833 H   0  0  0  0  0  0  0  0  0  0  0  0
   -1.8839    4.8178   -0.1716 H   0  0  0  0  0  0  0  0  0  0  0  0
   -0.3189    4.9833   -0.9951 H   0  0  0  0  0  0  0  0  0  0  0  0
   -0.4422    5.3207    0.7220 H   0  0  0  0  0  0  0  0  0  0  0  0
   -4.8296    1.0166   -1.4514 H   0  0  0  0  0  0  0  0  0  0  0  0
    3.7067   -2.2968    0.9004 H   0  0  0  0  0  0  0  0  0  0  0  0
    4.8495   -2.2561   -0.4297 H   0  0  0  0  0  0  0  0  0  0  0  0
    3.3093   -2.9410   -0.7403 H   0  0  0  0  0  0  0  0  0  0  0  0
    3.0074    0.0858   -2.3840 H   0  0  0  0  0  0  0  0  0  0  0  0
   -5.5479   -1.2036   -0.6401 H   0  0  0  0  0  0  0  0  0  0  0  0
    0.7820   -4.6117   -0.1595 H   0  0  0  0  0  0  0  0  0  0  0  0
   -0.4677   -3.4626   -0.5922 H   0  0  0  0  0  0  0  0  0  0  0  0
   -0.1401   -3.8912    1.1315 H   0  0  0  0  0  0  0  0  0  0  0  0
    5.2835   -0.5609    1.3962 H   0  0  0  0  0  0  0  0  0  0  0  0
    4.1678    0.7817    1.6607 H   0  0  0  0  0  0  0  0  0  0  0  0
   -3.2779   -3.3582    1.1092 H   0  0  0  0  0  0  0  0  0  0  0  0
    5.8514    2.3712    0.7437 H   0  0  0  0  0  0  0  0  0  0  0  0
    6.9753    1.0232    0.4785 H   0  0  0  0  0  0  0  0  0  0  0  0
    6.4837    1.4581    2.1243 H   0  0  0  0  0  0  0  0  0  0  0  0
  1  8  1  0  0  0  0
  1 21  1  0  0  0  0
  2  9  1  0  0  0  0
  2 28  1  0  0  0  0
  3 19  1  0  0  0  0
  3 53  1  0  0  0  0
  4 26  1  0  0  0  0
  4 60  1  0  0  0  0
  5 10  1  0  0  0  0
  5 18  1  0  0  0  0
  5 23  1  0  0  0  0
  6  7  1  0  0  0  0
  6  8  1  0  0  0  0
  6 13  1  0  0  0  0
  6 14  1  0  0  0  0
  7 10  1  0  0  0  0
  7 11  1  0  0  0  0
  7 15  1  0  0  0  0
  8  9  1  0  0  0  0
  8 31  1  0  0  0  0
  9 12  1  0  0  0  0
  9 17  1  0  0  0  0
 10 16  1  0  0  0  0
 10 32  1  0  0  0  0
 11 12  1  0  0  0  0
 11 33  1  0  0  0  0
 11 34  1  0  0  0  0
 12 19  1  0  0  0  0
 12 35  1  0  0  0  0
 13 18  1  0  0  0  0
 13 36  1  0  0  0  0
 13 37  1  0  0  0  0
 14 20  2  0  0  0  0
 14 21  1  0  0  0  0
 15 17  2  0  0  0  0
 15 38  1  0  0  0  0
 16 20  1  0  0  0  0
 16 39  1  0  0  0  0
 16 40  1  0  0  0  0
 17 41  1  0  0  0  0
 18 42  1  0  0  0  0
 18 43  1  0  0  0  0
 19 22  1  0  0  0  0
 19 25  1  0  0  0  0
 20 24  1  0  0  0  0
 21 26  2  0  0  0  0
 22 29  1  0  0  0  0
 22 44  1  0  0  0  0
 22 45  1  0  0  0  0
 23 46  1  0  0  0  0
 23 47  1  0  0  0  0
 23 48  1  0  0  0  0
 24 27  2  0  0  0  0
 24 49  1  0  0  0  0
 25 50  1  0  0  0  0
 25 51  1  0  0  0  0
 25 52  1  0  0  0  0
 26 27  1  0  0  0  0
 27 54  1  0  0  0  0
 28 55  1  0  0  0  0
 28 56  1  0  0  0  0
 28 57  1  0  0  0  0
 29 30  1  0  0  0  0
 29 58  1  0  0  0  0
 29 59  1  0  0  0  0
 30 61  1  0  0  0  0
 30 62  1  0  0  0  0
 30 63  1  0  0  0  0
M  END
> <PUBCHEM_COMPOUND_CID>
443407

> <PUBCHEM_CONFORMER_RMSD>
0.8

> <PUBCHEM_CONFORMER_DIVERSEORDER>
2
1
3

> <PUBCHEM_MMFF94_PARTIAL_CHARGES>
29
1 -0.36
10 0.27
14 -0.14
15 -0.29
16 0.14
17 -0.29
18 0.27
19 0.28
2 -0.56
20 -0.14
21 0.08
23 0.27
24 -0.15
26 0.08
27 -0.15
28 0.28
3 -0.68
38 0.15
4 -0.53
41 0.15
49 0.15
5 -0.81
53 0.4
54 0.15
6 0.14
60 0.45
7 0.14
8 0.28
9 0.42

> <PUBCHEM_EFFECTIVE_ROTOR_COUNT>
5.4

> <PUBCHEM_PHARMACOPHORE_FEATURES>
12
1 1 acceptor
1 2 acceptor
1 3 acceptor
1 3 donor
1 30 hydrophobe
1 4 donor
1 5 cation
5 1 6 8 14 21 rings
6 14 20 21 24 26 27 rings
6 5 6 7 10 13 18 rings
6 6 7 10 14 16 20 rings
8 6 7 8 9 11 12 15 17 rings

> <PUBCHEM_HEAVY_ATOM_COUNT>
30

> <PUBCHEM_ATOM_DEF_STEREO_COUNT>
7

> <PUBCHEM_ATOM_UDEF_STEREO_COUNT>
0

> <PUBCHEM_BOND_DEF_STEREO_COUNT>
0

> <PUBCHEM_BOND_UDEF_STEREO_COUNT>
0

> <PUBCHEM_ISOTOPIC_ATOM_COUNT>
0

> <PUBCHEM_COMPONENT_COUNT>
1

> <PUBCHEM_CACTVS_TAUTO_COUNT>
3

> <PUBCHEM_CONFORMER_ID>
0006C40F00000002

> <PUBCHEM_MMFF94_ENERGY>
148.8367

> <PUBCHEM_FEATURE_SELFOVERLAP>
62.751

> <PUBCHEM_SHAPE_FINGERPRINT>
10670039 82 18336811041218802812
10675989 125 17693955389781047261
10863032 1 18052263083082115861
10906281 52 18340189865407969229
10930396 42 17976295402964575728
10948715 1 17833830855939215181
1100329 8 18122905317892605426
11115154 58 17750538268697763365
12035758 1 18266457611775528547
12403260 363 18269839890527376582
12403814 3 17676776447623758524
12788726 201 18342180002707527976
13027679 85 18409729565128521473
13140716 1 18340476807582395377
13224815 77 18187644760362780746
13911987 19 18270105817263365132
14081887 123 18339081608836076568
14142880 1 18187921819723364656
14223421 5 18264203797754244574
14787075 74 18188779335955790326
15131766 46 15937277494670481144
16945 1 18267864059067418957
17349148 13 17560509703168104606
17980427 23 17604414229247403025
18393751 57 17897176715430482426
20510252 161 18409448111352048648
20600515 1 18189877752324720985
20715895 44 17845102937810257093
20775438 99 17472162587168882887
22393880 68 18194398021042239286
22907989 373 17912887752184145198
229495 10 15214123345009407710
23419403 2 17968951781507696633
23557571 272 18336537317443997799
23558518 356 18055625372502209570
23559900 14 18340770459271561462
283562 15 18410574023895918856
3178227 256 18270384024698729203
3380486 145 18341037554634403523
3886686 26 17478076177166508698
392239 28 18409166576251096864
404807 14 15404191625520982512
463206 1 18411979131522984751
469060 322 18339630179492575984
5104073 3 18339641251897055666
6004065 56 18191598453857812815
9709674 26 18120652693519273438
9981440 41 18270406108634315378

> <PUBCHEM_SHAPE_MULTIPOLES>
588.93
8.09
4.02
1.42
8.17
1.89
-0.08
-1.17
0.7
-1.67
0.59
0.18
0.27
1.08

> <PUBCHEM_SHAPE_SELFOVERLAP>
1325.317

> <PUBCHEM_SHAPE_VOLUME>
308.7

> <PUBCHEM_COORDINATE_TYPE>
2
5
10

$$$$

