656541
  -OEChem-07051212553D

 50 50  0     1  0  0  0  0  0999 V2000
    0.8711   -0.6192    2.0935 S   0  0  0  0  0  0  0  0  0  0  0  0
   -6.0749   -1.6472   -0.2725 S   0  0  0  0  0  0  0  0  0  0  0  0
    0.0481    3.9470   -0.1855 S   0  0  0  0  0  0  0  0  0  0  0  0
    1.8705   -0.7163   -0.3833 O   0  0  0  0  0  0  0  0  0  0  0  0
    5.2907   -2.7735    0.5962 O   0  0  0  0  0  0  0  0  0  0  0  0
    5.0736   -1.4359   -2.0007 O   0  0  0  0  0  0  0  0  0  0  0  0
    3.8743   -1.3047    2.6353 O   0  0  0  0  0  0  0  0  0  0  0  0
    1.3411    0.3504   -2.8577 O   0  0  0  0  0  0  0  0  0  0  0  0
   -6.7472   -0.3600   -0.2132 O   0  0  0  0  0  0  0  0  0  0  0  0
   -6.2461   -2.6197    0.7940 O   0  0  0  0  0  0  0  0  0  0  0  0
   -0.6135    2.6243    0.5058 O   0  0  0  0  0  0  0  0  0  0  0  0
   -1.2442    4.9121   -0.4231 O   0  0  0  0  0  0  0  0  0  0  0  0
    0.9061    4.5930    0.7904 O   0  0  0  0  0  0  0  0  0  0  0  0
    0.5621    3.5723   -1.4896 O   0  0  0  0  0  0  0  0  0  0  0  0
    0.3679    1.7194    0.9202 N   0  0  0  0  0  0  0  0  0  0  0  0
    4.5006   -1.6114    0.3375 C   0  0  1  0  0  0  0  0  0  0  0  0
    3.9888   -1.6537   -1.1028 C   0  0  1  0  0  0  0  0  0  0  0  0
    3.3440   -1.5939    1.3420 C   0  0  2  0  0  0  0  0  0  0  0  0
    2.9295   -0.5724   -1.3305 C   0  0  1  0  0  0  0  0  0  0  0  0
    2.3071   -0.5319    0.9631 C   0  0  2  0  0  0  0  0  0  0  0  0
    2.3148   -0.6687   -2.7235 C   0  0  0  0  0  0  0  0  0  0  0  0
   -1.6455    0.4345    1.6670 C   0  0  0  0  0  0  0  0  0  0  0  0
   -0.1596    0.6704    1.4684 C   0  0  0  0  0  0  0  0  0  0  0  0
   -2.2332   -0.3226    0.4751 C   0  0  0  0  0  0  0  0  0  0  0  0
   -3.7246   -0.6004    0.6761 C   0  0  0  0  0  0  0  0  0  0  0  0
   -4.3476   -1.3597   -0.4871 C   0  0  0  0  0  0  0  0  0  0  0  0
   -6.5539   -2.4319   -1.7950 C   0  0  0  0  0  0  0  0  0  0  0  0
    5.1642   -0.7520    0.4899 H   0  0  0  0  0  0  0  0  0  0  0  0
    3.5777   -2.6473   -1.3188 H   0  0  0  0  0  0  0  0  0  0  0  0
    2.8872   -2.5908    1.3850 H   0  0  0  0  0  0  0  0  0  0  0  0
    3.3607    0.4319   -1.2195 H   0  0  0  0  0  0  0  0  0  0  0  0
    2.7389    0.4706    1.0735 H   0  0  0  0  0  0  0  0  0  0  0  0
    1.8109   -1.6312   -2.8615 H   0  0  0  0  0  0  0  0  0  0  0  0
    3.0689   -0.5394   -3.5056 H   0  0  0  0  0  0  0  0  0  0  0  0
    4.7346   -3.5569    0.4458 H   0  0  0  0  0  0  0  0  0  0  0  0
    5.4410   -0.5538   -1.8202 H   0  0  0  0  0  0  0  0  0  0  0  0
    4.2691   -0.4166    2.6069 H   0  0  0  0  0  0  0  0  0  0  0  0
   -2.1639    1.3888    1.8083 H   0  0  0  0  0  0  0  0  0  0  0  0
   -1.8055   -0.1383    2.5886 H   0  0  0  0  0  0  0  0  0  0  0  0
   -1.7008   -1.2708    0.3317 H   0  0  0  0  0  0  0  0  0  0  0  0
   -2.0854    0.2602   -0.4425 H   0  0  0  0  0  0  0  0  0  0  0  0
   -4.2525    0.3509    0.8169 H   0  0  0  0  0  0  0  0  0  0  0  0
   -3.8679   -1.1727    1.6010 H   0  0  0  0  0  0  0  0  0  0  0  0
   -4.2288   -0.7902   -1.4148 H   0  0  0  0  0  0  0  0  0  0  0  0
   -3.8663   -2.3349   -0.6119 H   0  0  0  0  0  0  0  0  0  0  0  0
    0.9595    0.2674   -3.7482 H   0  0  0  0  0  0  0  0  0  0  0  0
   -6.3504   -1.7496   -2.6223 H   0  0  0  0  0  0  0  0  0  0  0  0
   -7.6225   -2.6503   -1.7436 H   0  0  0  0  0  0  0  0  0  0  0  0
   -5.9872   -3.3580   -1.9070 H   0  0  0  0  0  0  0  0  0  0  0  0
   -1.0492    5.7828   -0.8425 H   0  0  0  0  0  0  0  0  0  0  0  0
  1 20  1  0  0  0  0
  1 23  1  0  0  0  0
  2  9  2  0  0  0  0
  2 10  2  0  0  0  0
  2 26  1  0  0  0  0
  2 27  1  0  0  0  0
  3 11  1  0  0  0  0
  3 12  1  0  0  0  0
  3 13  2  0  0  0  0
  3 14  2  0  0  0  0
  4 19  1  0  0  0  0
  4 20  1  0  0  0  0
  5 16  1  0  0  0  0
  5 35  1  0  0  0  0
  6 17  1  0  0  0  0
  6 36  1  0  0  0  0
  7 18  1  0  0  0  0
  7 37  1  0  0  0  0
  8 21  1  0  0  0  0
  8 46  1  0  0  0  0
 11 15  1  0  0  0  0
 12 50  1  0  0  0  0
 15 23  2  0  0  0  0
 16 17  1  0  0  0  0
 16 18  1  0  0  0  0
 16 28  1  0  0  0  0
 17 19  1  0  0  0  0
 17 29  1  0  0  0  0
 18 20  1  0  0  0  0
 18 30  1  0  0  0  0
 19 21  1  0  0  0  0
 19 31  1  0  0  0  0
 20 32  1  0  0  0  0
 21 33  1  0  0  0  0
 21 34  1  0  0  0  0
 22 23  1  0  0  0  0
 22 24  1  0  0  0  0
 22 38  1  0  0  0  0
 22 39  1  0  0  0  0
 24 25  1  0  0  0  0
 24 40  1  0  0  0  0
 24 41  1  0  0  0  0
 25 26  1  0  0  0  0
 25 42  1  0  0  0  0
 25 43  1  0  0  0  0
 26 44  1  0  0  0  0
 26 45  1  0  0  0  0
 27 47  1  0  0  0  0
 27 48  1  0  0  0  0
 27 49  1  0  0  0  0
M  END
> <PUBCHEM_COMPOUND_CID>
656541

> <PUBCHEM_CONFORMER_RMSD>
1

> <PUBCHEM_CONFORMER_DIVERSEORDER>
1
105
132
136
27
131
109
48
139
102
122
34
57
95
78
20
15
87
6
114
88
81
110
140
94
86
69
36
63
126
23
32
138
17
101
10
61
40
117
14
3
133
80
12
50
77
106
30
107
99
98
51
141
31
135
113
121
130
120
74
104
24
115
33
112
38
73
128
8
123
60
65
100
28
90
9
7
72
71
124
79
56
118
11
116
103
41
2
93
91
46
85
5
54
75
58
92
4
96
76
108
16
26
55
134
83
52
129
64
127
97
19
70
125
68
45
25
39
119
67
18
21
82
13
84
137
22
43
42
44
59
47
29
62
111
49
66
53
35
37
89

> <PUBCHEM_MMFF94_PARTIAL_CHARGES>
30
1 -0.37
10 -0.65
11 -0.12
12 -0.68
13 -0.65
14 -0.65
15 -0.51
16 0.28
17 0.28
18 0.28
19 0.28
2 1.09
20 0.51
21 0.28
22 0.06
23 0.53
26 0.11
27 0.11
3 1.67
35 0.4
36 0.4
37 0.4
4 -0.56
46 0.4
5 -0.68
50 0.5
6 -0.68
7 -0.68
8 -0.68
9 -0.65

> <PUBCHEM_EFFECTIVE_ROTOR_COUNT>
11.2

> <PUBCHEM_PHARMACOPHORE_FEATURES>
17
1 10 acceptor
1 12 acceptor
1 13 acceptor
1 14 acceptor
1 15 acceptor
1 4 acceptor
1 5 acceptor
1 5 donor
1 6 acceptor
1 6 donor
1 7 acceptor
1 7 donor
1 8 acceptor
1 8 donor
1 9 acceptor
4 3 12 13 14 anion
6 4 16 17 18 19 20 rings

> <PUBCHEM_HEAVY_ATOM_COUNT>
27

> <PUBCHEM_ATOM_DEF_STEREO_COUNT>
5

> <PUBCHEM_ATOM_UDEF_STEREO_COUNT>
0

> <PUBCHEM_BOND_DEF_STEREO_COUNT>
0

> <PUBCHEM_BOND_UDEF_STEREO_COUNT>
1

> <PUBCHEM_ISOTOPIC_ATOM_COUNT>
0

> <PUBCHEM_COMPONENT_COUNT>
1

> <PUBCHEM_CACTVS_TAUTO_COUNT>
1

> <PUBCHEM_CONFORMER_ID>
000A049D00000001

> <PUBCHEM_MMFF94_ENERGY>
45.9713

> <PUBCHEM_FEATURE_SELFOVERLAP>
86.359

> <PUBCHEM_SHAPE_FINGERPRINT>
10721379 63 18193263110157151673
12633046 712 17773854464577443691
12788726 201 18055618753747038841
13583140 156 17609234673223820554
14004458 79 18267302217099944497
14068700 675 18130230466621004738
14863182 85 16733257937575675703
15064986 96 7347509984950048604
1813 80 18334012787565745051
19026451 147 18340195307083690526
20388580 30 18262233327151814417
20775438 99 17837784330982077099
221357 26 15841558500022704215
23559900 14 18339369540035181779
23598288 3 17841415239897719009
2838139 119 13973969779169235283
3388396 114 17914867951789763436
4017518 198 17611742307192061920
7471813 234 18201709691730701412

> <PUBCHEM_SHAPE_MULTIPOLES>
497.65
13.42
4.8
2.45
22.75
9.58
0.84
-18.05
3.14
-0.2
0.79
-2.36
-0.77
-0.89

> <PUBCHEM_SHAPE_SELFOVERLAP>
947.98

> <PUBCHEM_SHAPE_VOLUME>
306.1

> <PUBCHEM_COORDINATE_TYPE>
2
5
10

$$$$

