89954
  -OEChem-07051212513D

 14 13  0     0  0  0  0  0  0999 V2000
   -0.8269   -0.1506    0.0037 P   0  0  0  0  0  0  0  0  0  0  0  0
   -2.1096    0.3656   -0.8195 O   0  0  0  0  0  0  0  0  0  0  0  0
   -1.0446    0.4470    1.4819 O   0  0  0  0  0  0  0  0  0  0  0  0
    2.2073   -0.6562   -0.0311 O   0  0  0  0  0  0  0  0  0  0  0  0
   -0.5292   -1.6050   -0.0824 O   0  0  0  0  0  0  0  0  0  0  0  0
    0.4974    0.8982   -0.6462 C   0  0  0  0  0  0  0  0  0  0  0  0
    1.8057    0.7010    0.0935 C   0  0  0  0  0  0  0  0  0  0  0  0
    0.1880    1.9464   -0.5827 H   0  0  0  0  0  0  0  0  0  0  0  0
    0.6212    0.6449   -1.7049 H   0  0  0  0  0  0  0  0  0  0  0  0
    1.6919    0.9226    1.1582 H   0  0  0  0  0  0  0  0  0  0  0  0
    2.5929    1.3413   -0.3154 H   0  0  0  0  0  0  0  0  0  0  0  0
   -2.9781   -0.0654   -0.6714 H   0  0  0  0  0  0  0  0  0  0  0  0
   -1.7080    0.0315    2.0730 H   0  0  0  0  0  0  0  0  0  0  0  0
    2.3255   -0.8420   -0.9782 H   0  0  0  0  0  0  0  0  0  0  0  0
  1  2  1  0  0  0  0
  1  3  1  0  0  0  0
  1  5  2  0  0  0  0
  1  6  1  0  0  0  0
  2 12  1  0  0  0  0
  3 13  1  0  0  0  0
  4  7  1  0  0  0  0
  4 14  1  0  0  0  0
  6  7  1  0  0  0  0
  6  8  1  0  0  0  0
  6  9  1  0  0  0  0
  7 10  1  0  0  0  0
  7 11  1  0  0  0  0
M  END
> <PUBCHEM_COMPOUND_CID>
89954

> <PUBCHEM_CONFORMER_RMSD>
0.4

> <PUBCHEM_CONFORMER_DIVERSEORDER>
1
3
2

> <PUBCHEM_MMFF94_PARTIAL_CHARGES>
9
1 1.24
12 0.5
13 0.5
14 0.4
2 -0.77
3 -0.77
4 -0.68
5 -0.7
7 0.28

> <PUBCHEM_EFFECTIVE_ROTOR_COUNT>
2

> <PUBCHEM_PHARMACOPHORE_FEATURES>
6
1 2 acceptor
1 3 acceptor
1 4 acceptor
1 4 donor
1 5 acceptor
4 1 2 3 5 anion

> <PUBCHEM_HEAVY_ATOM_COUNT>
7

> <PUBCHEM_ATOM_DEF_STEREO_COUNT>
0

> <PUBCHEM_ATOM_UDEF_STEREO_COUNT>
0

> <PUBCHEM_BOND_DEF_STEREO_COUNT>
0

> <PUBCHEM_BOND_UDEF_STEREO_COUNT>
0

> <PUBCHEM_ISOTOPIC_ATOM_COUNT>
0

> <PUBCHEM_COMPONENT_COUNT>
1

> <PUBCHEM_CACTVS_TAUTO_COUNT>
1

> <PUBCHEM_CONFORMER_ID>
00015F6200000001

> <PUBCHEM_MMFF94_ENERGY>
-26.5963

> <PUBCHEM_FEATURE_SELFOVERLAP>
30.484

> <PUBCHEM_SHAPE_FINGERPRINT>
16714656 1 17988649630908093172
20096714 4 18060427888778634173
21040471 1 18342746203819031100
24536 1 17678156253191470348
29004967 10 17632285753567919352
5943 1 8059686605839043123

> <PUBCHEM_SHAPE_MULTIPOLES>
124.43
2.55
1.18
0.98
0.68
0.35
-0.34
-0.09
0.18
0.04
0.16
-0.4
-0.17
0.02

> <PUBCHEM_SHAPE_SELFOVERLAP>
210.293

> <PUBCHEM_SHAPE_VOLUME>
84.1

> <PUBCHEM_COORDINATE_TYPE>
2
5
10

$$$$

