9239
  -OEChem-06261203323D

 20 22  0     0  0  0  0  0  0999 V2000
   -0.2725   -1.3476   -0.9723 O   0  0  0  0  0  0  0  0  0  0  0  0
    1.3038    0.4385   -0.9715 O   0  0  0  0  0  0  0  0  0  0  0  0
   -1.0312    0.9105   -0.9714 O   0  0  0  0  0  0  0  0  0  0  0  0
   -0.2849   -1.4094    0.4638 C   0  0  0  0  0  0  0  0  0  0  0  0
    1.3628    0.4576    0.4646 C   0  0  0  0  0  0  0  0  0  0  0  0
   -1.0780    0.9511    0.4648 C   0  0  0  0  0  0  0  0  0  0  0  0
    1.0925   -0.9646    0.9705 C   0  0  0  0  0  0  0  0  0  0  0  0
   -1.3812   -0.4645    0.9707 C   0  0  0  0  0  0  0  0  0  0  0  0
    0.2887    1.4278    0.9715 C   0  0  0  0  0  0  0  0  0  0  0  0
    0.0000    0.0006   -1.3908 C   0  0  0  0  0  0  0  0  0  0  0  0
   -0.4934   -2.4414    0.7621 H   0  0  0  0  0  0  0  0  0  0  0  0
    2.3607    0.7928    0.7636 H   0  0  0  0  0  0  0  0  0  0  0  0
   -1.8673    1.6475    0.7639 H   0  0  0  0  0  0  0  0  0  0  0  0
    1.1406   -1.0075    2.0638 H   0  0  0  0  0  0  0  0  0  0  0  0
    1.8552   -1.6375    0.5604 H   0  0  0  0  0  0  0  0  0  0  0  0
   -2.3455   -0.7883    0.5607 H   0  0  0  0  0  0  0  0  0  0  0  0
   -1.4422   -0.4854    2.0640 H   0  0  0  0  0  0  0  0  0  0  0  0
    0.3014    1.4903    2.0649 H   0  0  0  0  0  0  0  0  0  0  0  0
    0.4902    2.4251    0.5621 H   0  0  0  0  0  0  0  0  0  0  0  0
    0.0001    0.0011   -2.4844 H   0  0  0  0  0  0  0  0  0  0  0  0
  1  4  1  0  0  0  0
  1 10  1  0  0  0  0
  2  5  1  0  0  0  0
  2 10  1  0  0  0  0
  3  6  1  0  0  0  0
  3 10  1  0  0  0  0
  4  7  1  0  0  0  0
  4  8  1  0  0  0  0
  4 11  1  0  0  0  0
  5  7  1  0  0  0  0
  5  9  1  0  0  0  0
  5 12  1  0  0  0  0
  6  8  1  0  0  0  0
  6  9  1  0  0  0  0
  6 13  1  0  0  0  0
  7 14  1  0  0  0  0
  7 15  1  0  0  0  0
  8 16  1  0  0  0  0
  8 17  1  0  0  0  0
  9 18  1  0  0  0  0
  9 19  1  0  0  0  0
 10 20  1  0  0  0  0
M  END
> <PUBCHEM_COMPOUND_CID>
9239

> <PUBCHEM_CONFORMER_RMSD>
0.4

> <PUBCHEM_CONFORMER_DIVERSEORDER>
1

> <PUBCHEM_MMFF94_PARTIAL_CHARGES>
7
1 -0.56
10 0.84
2 -0.56
3 -0.56
4 0.28
5 0.28
6 0.28

> <PUBCHEM_EFFECTIVE_ROTOR_COUNT>
1.2

> <PUBCHEM_PHARMACOPHORE_FEATURES>
7
1 1 acceptor
1 2 acceptor
1 3 acceptor
6 1 2 4 5 7 10 rings
6 1 3 4 6 8 10 rings
6 2 3 5 6 9 10 rings
6 4 5 6 7 8 9 rings

> <PUBCHEM_HEAVY_ATOM_COUNT>
10

> <PUBCHEM_ATOM_DEF_STEREO_COUNT>
0

> <PUBCHEM_ATOM_UDEF_STEREO_COUNT>
0

> <PUBCHEM_BOND_DEF_STEREO_COUNT>
0

> <PUBCHEM_BOND_UDEF_STEREO_COUNT>
0

> <PUBCHEM_ISOTOPIC_ATOM_COUNT>
0

> <PUBCHEM_COMPONENT_COUNT>
1

> <PUBCHEM_CACTVS_TAUTO_COUNT>
1

> <PUBCHEM_CONFORMER_ID>
0000241700000001

> <PUBCHEM_MMFF94_ENERGY>
19.4247

> <PUBCHEM_FEATURE_SELFOVERLAP>
49.627

> <PUBCHEM_SHAPE_FINGERPRINT>
12423570 1 6504490780376202154
13024252 1 7261708925030385129
137420 1 12305313897004535915
16945 1 17330619306337516462
369184 2 5973818760563142562

> <PUBCHEM_SHAPE_MULTIPOLES>
188.19
1.5
1.5
1.39
0.14
0.02
0.3
-0.02
-0.23
-0.14
-0.23
0
0
0

> <PUBCHEM_SHAPE_SELFOVERLAP>
413.126

> <PUBCHEM_SHAPE_VOLUME>
96.9

> <PUBCHEM_COORDINATE_TYPE>
2
5
10

$$$$

