17532
  -OEChem-07051212522D

 28 29  0     0  0  0  0  0  0999 V2000
    2.0000    2.5000    0.0000 Cl  0  0  0  0  0  0  0  0  0  0  0  0
    2.8660   -3.0000    0.0000 Cl  0  0  0  0  0  0  0  0  0  0  0  0
    6.3301    3.0000    0.0000 Cl  0  0  0  0  0  0  0  0  0  0  0  0
    2.8660    1.0000    0.0000 C   0  0  0  0  0  0  0  0  0  0  0  0
    2.8660    0.0000    0.0000 C   0  0  0  0  0  0  0  0  0  0  0  0
    3.7320    1.5000    0.0000 C   0  0  0  0  0  0  0  0  0  0  0  0
    2.0000    1.5000    0.0000 C   0  0  0  0  0  0  0  0  0  0  0  0
    2.0000   -0.5000    0.0000 C   0  0  0  0  0  0  0  0  0  0  0  0
    4.5981    1.0000    0.0000 C   0  0  0  0  0  0  0  0  0  0  0  0
    3.7320   -0.5000    0.0000 C   0  0  0  0  0  0  0  0  0  0  0  0
    3.7320    2.5000    0.0000 C   0  0  0  0  0  0  0  0  0  0  0  0
    2.0000   -1.5000    0.0000 C   0  0  0  0  0  0  0  0  0  0  0  0
    5.4641    1.5000    0.0000 C   0  0  0  0  0  0  0  0  0  0  0  0
    3.7320   -1.5000    0.0000 C   0  0  0  0  0  0  0  0  0  0  0  0
    4.5981    3.0000    0.0000 C   0  0  0  0  0  0  0  0  0  0  0  0
    2.8660   -2.0000    0.0000 C   0  0  0  0  0  0  0  0  0  0  0  0
    5.4641    2.5000    0.0000 C   0  0  0  0  0  0  0  0  0  0  0  0
    2.8660    1.6200    0.0000 H   0  0  0  0  0  0  0  0  0  0  0  0
    1.3894    1.6077    0.0000 H   0  0  0  0  0  0  0  0  0  0  0  0
    1.7880    0.9174    0.0000 H   0  0  0  0  0  0  0  0  0  0  0  0
    1.4631   -0.1900    0.0000 H   0  0  0  0  0  0  0  0  0  0  0  0
    4.5981    0.3800    0.0000 H   0  0  0  0  0  0  0  0  0  0  0  0
    4.2690   -0.1900    0.0000 H   0  0  0  0  0  0  0  0  0  0  0  0
    3.1951    2.8100    0.0000 H   0  0  0  0  0  0  0  0  0  0  0  0
    1.4631   -1.8100    0.0000 H   0  0  0  0  0  0  0  0  0  0  0  0
    6.0010    1.1900    0.0000 H   0  0  0  0  0  0  0  0  0  0  0  0
    4.2690   -1.8100    0.0000 H   0  0  0  0  0  0  0  0  0  0  0  0
    4.5981    3.6200    0.0000 H   0  0  0  0  0  0  0  0  0  0  0  0
  1  7  1  0  0  0  0
  2 16  1  0  0  0  0
  3 17  1  0  0  0  0
  4  5  1  0  0  0  0
  4  6  1  0  0  0  0
  4  7  1  0  0  0  0
  4 18  1  0  0  0  0
  5  8  2  0  0  0  0
  5 10  1  0  0  0  0
  6  9  2  0  0  0  0
  6 11  1  0  0  0  0
  7 19  1  0  0  0  0
  7 20  1  0  0  0  0
  8 12  1  0  0  0  0
  8 21  1  0  0  0  0
  9 13  1  0  0  0  0
  9 22  1  0  0  0  0
 10 14  2  0  0  0  0
 10 23  1  0  0  0  0
 11 15  2  0  0  0  0
 11 24  1  0  0  0  0
 12 16  2  0  0  0  0
 12 25  1  0  0  0  0
 13 17  2  0  0  0  0
 13 26  1  0  0  0  0
 14 16  1  0  0  0  0
 14 27  1  0  0  0  0
 15 17  1  0  0  0  0
 15 28  1  0  0  0  0
M  END
> <PUBCHEM_COMPOUND_CID>
17532

> <PUBCHEM_COMPOUND_CANONICALIZED>
1

> <PUBCHEM_CACTVS_COMPLEXITY>
194

> <PUBCHEM_CACTVS_HBOND_ACCEPTOR>
0

> <PUBCHEM_CACTVS_HBOND_DONOR>
0

> <PUBCHEM_CACTVS_ROTATABLE_BOND>
3

> <PUBCHEM_CACTVS_SUBSKEYS>
AAADccBwAAAGAAAAAAAAAAAAAAAAAAAAAAAwYAAAAAAAAAABQAAAGAIAAAAADQOAGGAwAIAAAACAAiBCAAACAAAgBQAIiAAAAogIICKBExCAIAAggAAIiAcAgMAOhAAAAAAAAAAIAAAAAAAAAAAAAAAAAA==

> <PUBCHEM_IUPAC_OPENEYE_NAME>
1-chloro-4-[2-chloro-1-(4-chlorophenyl)ethyl]benzene

> <PUBCHEM_IUPAC_CAS_NAME>
1-chloro-4-[2-chloro-1-(4-chlorophenyl)ethyl]benzene

> <PUBCHEM_IUPAC_NAME>
1-chloro-4-[2-chloro-1-(4-chlorophenyl)ethyl]benzene

> <PUBCHEM_IUPAC_SYSTEMATIC_NAME>
1-chloranyl-4-[2-chloranyl-1-(4-chlorophenyl)ethyl]benzene

> <PUBCHEM_IUPAC_TRADITIONAL_NAME>
1-chloro-4-[2-chloro-1-(4-chlorophenyl)ethyl]benzene

> <PUBCHEM_IUPAC_INCHI>
InChI=1S/C14H11Cl3/c15-9-14(10-1-5-12(16)6-2-10)11-3-7-13(17)8-4-11/h1-8,14H,9H2

> <PUBCHEM_IUPAC_INCHIKEY>
CHBOSHOWERDCMH-UHFFFAOYSA-N

> <PUBCHEM_XLOGP3>
5.6

> <PUBCHEM_EXACT_MASS>
283.992633

> <PUBCHEM_MOLECULAR_FORMULA>
C14H11Cl3

> <PUBCHEM_MOLECULAR_WEIGHT>
285.59614

> <PUBCHEM_OPENEYE_CAN_SMILES>
C1=CC(=CC=C1C(CCl)C2=CC=C(C=C2)Cl)Cl

> <PUBCHEM_OPENEYE_ISO_SMILES>
C1=CC(=CC=C1C(CCl)C2=CC=C(C=C2)Cl)Cl

> <PUBCHEM_CACTVS_TPSA>
0

> <PUBCHEM_MONOISOTOPIC_WEIGHT>
283.992633

> <PUBCHEM_TOTAL_CHARGE>
0

> <PUBCHEM_HEAVY_ATOM_COUNT>
17

> <PUBCHEM_ATOM_DEF_STEREO_COUNT>
0

> <PUBCHEM_ATOM_UDEF_STEREO_COUNT>
0

> <PUBCHEM_BOND_DEF_STEREO_COUNT>
0

> <PUBCHEM_BOND_UDEF_STEREO_COUNT>
0

> <PUBCHEM_ISOTOPIC_ATOM_COUNT>
0

> <PUBCHEM_COMPONENT_COUNT>
1

> <PUBCHEM_CACTVS_TAUTO_COUNT>
1

> <PUBCHEM_COORDINATE_TYPE>
1
5
255

> <PUBCHEM_BONDANNOTATIONS>
10  14  8
11  15  8
12  16  8
13  17  8
14  16  8
15  17  8
5  10  8
5  8  8
6  11  8
6  9  8
8  12  8
9  13  8

$$$$

