51091018
  -OEChem-06241223012D

 42 43  0     0  0  0  0  0  0999 V2000
    5.4432   -0.3299    0.0000 S   0  0  0  0  0  0  0  0  0  0  0  0
    4.4727   -1.8245    0.0000 S   0  0  0  0  0  0  0  0  0  0  0  0
    6.3092    4.1701    0.0000 O   0  0  0  0  0  0  0  0  0  0  0  0
    4.6701   -3.6504    0.0000 O   0  0  0  0  0  0  0  0  0  0  0  0
    8.0413    4.1701    0.0000 N   0  0  0  0  0  0  0  0  0  0  0  0
    3.6636   -0.4232    0.0000 N   0  0  0  0  0  0  0  0  0  0  0  0
    3.2688   -4.6685    0.0000 N   0  0  0  0  0  0  0  0  0  0  0  0
    6.3092    1.1701    0.0000 C   0  0  0  0  0  0  0  0  0  0  0  0
    5.4432    0.6701    0.0000 C   0  0  0  0  0  0  0  0  0  0  0  0
    7.1753    2.6701    0.0000 C   0  0  0  0  0  0  0  0  0  0  0  0
    6.3092    2.1701    0.0000 C   0  0  0  0  0  0  0  0  0  0  0  0
    3.4945   -2.0324    0.0000 C   0  0  0  0  0  0  0  0  0  0  0  0
    2.9945   -1.1663    0.0000 C   0  0  0  0  0  0  0  0  0  0  0  0
    7.1753    0.6701    0.0000 C   0  0  0  0  0  0  0  0  0  0  0  0
    3.0878   -2.9459    0.0000 C   0  0  0  0  0  0  0  0  0  0  0  0
    8.0413    2.1701    0.0000 C   0  0  0  0  0  0  0  0  0  0  0  0
    4.5772   -0.8299    0.0000 C   0  0  0  0  0  0  0  0  0  0  0  0
    7.1753    3.6701    0.0000 C   0  0  0  0  0  0  0  0  0  0  0  0
    8.0413    1.1701    0.0000 C   0  0  0  0  0  0  0  0  0  0  0  0
    2.0000   -1.0618    0.0000 C   0  0  0  0  0  0  0  0  0  0  0  0
    3.6756   -3.7549    0.0000 C   0  0  0  0  0  0  0  0  0  0  0  0
    8.0413    5.1701    0.0000 C   0  0  0  0  0  0  0  0  0  0  0  0
    8.9073    3.6701    0.0000 C   0  0  0  0  0  0  0  0  0  0  0  0
    5.2312    1.2527    0.0000 H   0  0  0  0  0  0  0  0  0  0  0  0
    4.8326    0.5624    0.0000 H   0  0  0  0  0  0  0  0  0  0  0  0
    5.7723    2.4801    0.0000 H   0  0  0  0  0  0  0  0  0  0  0  0
    7.1753    0.0501    0.0000 H   0  0  0  0  0  0  0  0  0  0  0  0
    2.5738   -2.5992    0.0000 H   0  0  0  0  0  0  0  0  0  0  0  0
    2.6571   -3.3919    0.0000 H   0  0  0  0  0  0  0  0  0  0  0  0
    8.5782    2.4801    0.0000 H   0  0  0  0  0  0  0  0  0  0  0  0
    8.5782    0.8601    0.0000 H   0  0  0  0  0  0  0  0  0  0  0  0
    2.0648   -0.4452    0.0000 H   0  0  0  0  0  0  0  0  0  0  0  0
    1.3834   -0.9970    0.0000 H   0  0  0  0  0  0  0  0  0  0  0  0
    1.9352   -1.6784    0.0000 H   0  0  0  0  0  0  0  0  0  0  0  0
    8.6613    5.1701    0.0000 H   0  0  0  0  0  0  0  0  0  0  0  0
    8.0413    5.7901    0.0000 H   0  0  0  0  0  0  0  0  0  0  0  0
    7.4213    5.1701    0.0000 H   0  0  0  0  0  0  0  0  0  0  0  0
    8.5973    3.1331    0.0000 H   0  0  0  0  0  0  0  0  0  0  0  0
    9.4443    3.3601    0.0000 H   0  0  0  0  0  0  0  0  0  0  0  0
    9.2173    4.2070    0.0000 H   0  0  0  0  0  0  0  0  0  0  0  0
    3.6333   -5.1701    0.0000 H   0  0  0  0  0  0  0  0  0  0  0  0
    2.6522   -4.7333    0.0000 H   0  0  0  0  0  0  0  0  0  0  0  0
  1  9  1  0  0  0  0
  1 17  1  0  0  0  0
  2 12  1  0  0  0  0
  2 17  1  0  0  0  0
  3 18  2  0  0  0  0
  4 21  2  0  0  0  0
  5 18  1  0  0  0  0
  5 22  1  0  0  0  0
  5 23  1  0  0  0  0
  6 13  1  0  0  0  0
  6 17  2  0  0  0  0
  7 21  1  0  0  0  0
  7 41  1  0  0  0  0
  7 42  1  0  0  0  0
  8  9  1  0  0  0  0
  8 11  2  0  0  0  0
  8 14  1  0  0  0  0
  9 24  1  0  0  0  0
  9 25  1  0  0  0  0
 10 11  1  0  0  0  0
 10 16  2  0  0  0  0
 10 18  1  0  0  0  0
 11 26  1  0  0  0  0
 12 13  2  0  0  0  0
 12 15  1  0  0  0  0
 13 20  1  0  0  0  0
 14 19  2  0  0  0  0
 14 27  1  0  0  0  0
 15 21  1  0  0  0  0
 15 28  1  0  0  0  0
 15 29  1  0  0  0  0
 16 19  1  0  0  0  0
 16 30  1  0  0  0  0
 19 31  1  0  0  0  0
 20 32  1  0  0  0  0
 20 33  1  0  0  0  0
 20 34  1  0  0  0  0
 22 35  1  0  0  0  0
 22 36  1  0  0  0  0
 22 37  1  0  0  0  0
 23 38  1  0  0  0  0
 23 39  1  0  0  0  0
 23 40  1  0  0  0  0
M  END
> <PUBCHEM_COMPOUND_CID>
51091018

> <PUBCHEM_COMPOUND_CANONICALIZED>
1

> <PUBCHEM_CACTVS_COMPLEXITY>
434

> <PUBCHEM_CACTVS_HBOND_ACCEPTOR>
5

> <PUBCHEM_CACTVS_HBOND_DONOR>
1

> <PUBCHEM_CACTVS_ROTATABLE_BOND>
6

> <PUBCHEM_CACTVS_SUBSKEYS>
AAADceB7MABgAAAAAAAAAAAAAAAAAWAAAAAwAAAAAAAAAAABwAAAHgQQAAAADAiF3gSygZNIEAisAyVyVACC8aBlCDgImBU4RMgIIDLglRGEIQhgkgBIyYcciECOAAACAAAAAAAAAAQAAAAAAAAAAAAAAA==

> <PUBCHEM_IUPAC_OPENEYE_NAME>
3-[[5-(2-amino-2-oxo-ethyl)-4-methyl-thiazol-2-yl]sulfanylmethyl]-N,N-dimethyl-benzamide

> <PUBCHEM_IUPAC_CAS_NAME>
3-[[[5-(2-amino-2-oxoethyl)-4-methyl-2-thiazolyl]thio]methyl]-N,N-dimethylbenzamide

> <PUBCHEM_IUPAC_NAME>
3-[[5-(2-amino-2-oxoethyl)-4-methyl-1,3-thiazol-2-yl]sulfanylmethyl]-N,N-dimethylbenzamide

> <PUBCHEM_IUPAC_SYSTEMATIC_NAME>
3-[[5-(2-azanyl-2-oxidanylidene-ethyl)-4-methyl-1,3-thiazol-2-yl]sulfanylmethyl]-N,N-dimethyl-benzamide

> <PUBCHEM_IUPAC_TRADITIONAL_NAME>
3-[[[5-(2-amino-2-keto-ethyl)-4-methyl-thiazol-2-yl]thio]methyl]-N,N-dimethyl-benzamide

> <PUBCHEM_IUPAC_INCHI>
InChI=1S/C16H19N3O2S2/c1-10-13(8-14(17)20)23-16(18-10)22-9-11-5-4-6-12(7-11)15(21)19(2)3/h4-7H,8-9H2,1-3H3,(H2,17,20)

> <PUBCHEM_IUPAC_INCHIKEY>
YYNWVZBUUILSTA-UHFFFAOYSA-N

> <PUBCHEM_XLOGP3_AA>
2

> <PUBCHEM_EXACT_MASS>
349.091869

> <PUBCHEM_MOLECULAR_FORMULA>
C16H19N3O2S2

> <PUBCHEM_MOLECULAR_WEIGHT>
349.47096

> <PUBCHEM_OPENEYE_CAN_SMILES>
CC1=C(SC(=N1)SCC2=CC=CC(=C2)C(=O)N(C)C)CC(=O)N

> <PUBCHEM_OPENEYE_ISO_SMILES>
CC1=C(SC(=N1)SCC2=CC=CC(=C2)C(=O)N(C)C)CC(=O)N

> <PUBCHEM_CACTVS_TPSA>
130

> <PUBCHEM_MONOISOTOPIC_WEIGHT>
349.091869

> <PUBCHEM_TOTAL_CHARGE>
0

> <PUBCHEM_HEAVY_ATOM_COUNT>
23

> <PUBCHEM_ATOM_DEF_STEREO_COUNT>
0

> <PUBCHEM_ATOM_UDEF_STEREO_COUNT>
0

> <PUBCHEM_BOND_DEF_STEREO_COUNT>
0

> <PUBCHEM_BOND_UDEF_STEREO_COUNT>
0

> <PUBCHEM_ISOTOPIC_ATOM_COUNT>
0

> <PUBCHEM_COMPONENT_COUNT>
1

> <PUBCHEM_CACTVS_TAUTO_COUNT>
3

> <PUBCHEM_COORDINATE_TYPE>
1
5
255

> <PUBCHEM_BONDANNOTATIONS>
10  11  8
10  16  8
12  13  8
14  19  8
16  19  8
2  12  8
2  17  8
6  13  8
6  17  8
8  11  8
8  14  8

$$$$

