10312
  -OEChem-07051213093D

 18 18  0     0  0  0  0  0  0999 V2000
    2.1809    1.7560    0.0777 O   0  0  0  0  0  0  0  0  0  0  0  0
    0.0259   -0.2583   -0.0086 C   0  0  0  0  0  0  0  0  0  0  0  0
   -0.6649   -0.1950    1.2015 C   0  0  0  0  0  0  0  0  0  0  0  0
   -0.6549   -0.0679   -1.2110 C   0  0  0  0  0  0  0  0  0  0  0  0
    1.4563   -0.5224   -0.0165 C   0  0  0  0  0  0  0  0  0  0  0  0
   -2.0365    0.0587    1.2093 C   0  0  0  0  0  0  0  0  0  0  0  0
   -2.0265    0.1860   -1.2034 C   0  0  0  0  0  0  0  0  0  0  0  0
   -2.7172    0.2492    0.0068 C   0  0  0  0  0  0  0  0  0  0  0  0
    2.4801    0.5689    0.0242 C   0  0  0  0  0  0  0  0  0  0  0  0
    1.9568   -1.7751   -0.0801 C   0  0  0  0  0  0  0  0  0  0  0  0
   -0.1488   -0.3402    2.1475 H   0  0  0  0  0  0  0  0  0  0  0  0
   -0.1308   -0.1132   -2.1627 H   0  0  0  0  0  0  0  0  0  0  0  0
   -2.5745    0.1082    2.1514 H   0  0  0  0  0  0  0  0  0  0  0  0
   -2.5566    0.3345   -2.1395 H   0  0  0  0  0  0  0  0  0  0  0  0
   -3.7852    0.4470    0.0128 H   0  0  0  0  0  0  0  0  0  0  0  0
    3.5345    0.2449    0.0049 H   0  0  0  0  0  0  0  0  0  0  0  0
    3.0236   -1.9744   -0.0928 H   0  0  0  0  0  0  0  0  0  0  0  0
    1.2994   -2.6387   -0.1208 H   0  0  0  0  0  0  0  0  0  0  0  0
  1  9  2  0  0  0  0
  2  3  2  0  0  0  0
  2  4  1  0  0  0  0
  2  5  1  0  0  0  0
  3  6  1  0  0  0  0
  3 11  1  0  0  0  0
  4  7  2  0  0  0  0
  4 12  1  0  0  0  0
  5  9  1  0  0  0  0
  5 10  2  0  0  0  0
  6  8  2  0  0  0  0
  6 13  1  0  0  0  0
  7  8  1  0  0  0  0
  7 14  1  0  0  0  0
  8 15  1  0  0  0  0
  9 16  1  0  0  0  0
 10 17  1  0  0  0  0
 10 18  1  0  0  0  0
M  END
> <PUBCHEM_COMPOUND_CID>
10312

> <PUBCHEM_CONFORMER_RMSD>
0.4

> <PUBCHEM_CONFORMER_DIVERSEORDER>
1
5
2
4
6
3

> <PUBCHEM_MMFF94_PARTIAL_CHARGES>
18
1 -0.57
10 -0.3
11 0.15
12 0.15
13 0.15
14 0.15
15 0.15
16 0.06
17 0.15
18 0.15
2 0.03
3 -0.15
4 -0.15
5 -0.01
6 -0.15
7 -0.15
8 -0.15
9 0.5

> <PUBCHEM_EFFECTIVE_ROTOR_COUNT>
2

> <PUBCHEM_PHARMACOPHORE_FEATURES>
3
1 1 acceptor
1 10 hydrophobe
6 2 3 4 6 7 8 rings

> <PUBCHEM_HEAVY_ATOM_COUNT>
10

> <PUBCHEM_ATOM_DEF_STEREO_COUNT>
0

> <PUBCHEM_ATOM_UDEF_STEREO_COUNT>
0

> <PUBCHEM_BOND_DEF_STEREO_COUNT>
0

> <PUBCHEM_BOND_UDEF_STEREO_COUNT>
0

> <PUBCHEM_ISOTOPIC_ATOM_COUNT>
0

> <PUBCHEM_COMPONENT_COUNT>
1

> <PUBCHEM_CACTVS_TAUTO_COUNT>
1

> <PUBCHEM_CONFORMER_ID>
0000284800000001

> <PUBCHEM_MMFF94_ENERGY>
26.8697

> <PUBCHEM_FEATURE_SELFOVERLAP>
15.223

> <PUBCHEM_SHAPE_FINGERPRINT>
10857977 72 16702295728945092265
12326174 3 18340209699646115442
12932741 1 17918272090553082143
12932764 1 17917708036930313363
15310529 11 18259988184426654857
15775835 57 17749103374776777600
16945 1 18409165532299743310
20645464 45 17632863022588689312
20645476 183 17530966877938540845
20653085 51 18266464393882530589
21040471 1 15768942418586095759
23211744 41 17774730774595609530
23552423 10 16878776235627356951
2748010 2 15552776272550296479
29004967 10 18342736355459060162
369184 2 18413670218791164611
5084963 1 17604433027791547947

> <PUBCHEM_SHAPE_MULTIPOLES>
199.93
3.9
1.23
1.21
0.07
0.03
-0.01
0.47
0.1
1.2
0.02
-0.7
-0.02
0.42

> <PUBCHEM_SHAPE_SELFOVERLAP>
414.617

> <PUBCHEM_SHAPE_VOLUME>
114.2

> <PUBCHEM_COORDINATE_TYPE>
2
5
10

$$$$

