11953795
  -OEChem-07051212453D

 40 39  0     1  0  0  0  0  0999 V2000
   -1.0710    0.8094   -1.8778 S   0  0  0  0  0  0  0  0  0  0  0  0
    2.0340    0.2422    0.6128 S   0  0  0  0  0  0  0  0  0  0  0  0
   -7.7625    0.0842    0.8951 O   0  0  0  0  0  0  0  0  0  0  0  0
    3.9201    1.7592   -0.4389 O   0  0  0  0  0  0  0  0  0  0  0  0
    8.3221   -0.8410   -0.2280 O   0  0  0  0  0  0  0  0  0  0  0  0
    6.7200   -2.3083    0.4398 O   0  0  0  0  0  0  0  0  0  0  0  0
   -8.3549   -1.6732   -0.4675 N   0  0  0  0  0  0  0  0  0  0  0  0
   -2.6681    0.8111    0.4013 C   0  0  0  0  0  0  0  0  0  0  0  0
   -1.2015    0.6729   -0.0551 C   0  0  2  0  0  0  0  0  0  0  0  0
   -3.6179   -0.2130   -0.2350 C   0  0  0  0  0  0  0  0  0  0  0  0
   -0.3297    1.7396    0.6422 C   0  0  0  0  0  0  0  0  0  0  0  0
   -5.0562   -0.0097    0.2544 C   0  0  0  0  0  0  0  0  0  0  0  0
    1.1518    1.7887    0.2527 C   0  0  0  0  0  0  0  0  0  0  0  0
   -6.0327   -0.9995   -0.3788 C   0  0  0  0  0  0  0  0  0  0  0  0
   -7.4569   -0.7922    0.0901 C   0  0  0  0  0  0  0  0  0  0  0  0
    3.6509    0.6654    0.0411 C   0  0  0  0  0  0  0  0  0  0  0  0
    4.6491   -0.4651    0.2143 C   0  0  0  0  0  0  0  0  0  0  0  0
    6.0627   -0.0735   -0.2007 C   0  0  0  0  0  0  0  0  0  0  0  0
    7.0405   -1.1973    0.0378 C   0  0  0  0  0  0  0  0  0  0  0  0
   -2.7094    0.6989    1.4926 H   0  0  0  0  0  0  0  0  0  0  0  0
   -3.0309    1.8241    0.1815 H   0  0  0  0  0  0  0  0  0  0  0  0
   -0.8470   -0.3268    0.2180 H   0  0  0  0  0  0  0  0  0  0  0  0
   -3.2833   -1.2277    0.0109 H   0  0  0  0  0  0  0  0  0  0  0  0
   -3.6240   -0.1251   -1.3257 H   0  0  0  0  0  0  0  0  0  0  0  0
   -0.4033    1.5964    1.7290 H   0  0  0  0  0  0  0  0  0  0  0  0
   -0.7560    2.7337    0.4485 H   0  0  0  0  0  0  0  0  0  0  0  0
   -5.3769    1.0148    0.0265 H   0  0  0  0  0  0  0  0  0  0  0  0
   -5.0877   -0.1119    1.3465 H   0  0  0  0  0  0  0  0  0  0  0  0
    1.6307    2.5903    0.8266 H   0  0  0  0  0  0  0  0  0  0  0  0
    1.2724    2.0407   -0.8050 H   0  0  0  0  0  0  0  0  0  0  0  0
   -5.7366   -2.0261   -0.1328 H   0  0  0  0  0  0  0  0  0  0  0  0
   -6.0148   -0.8970   -1.4703 H   0  0  0  0  0  0  0  0  0  0  0  0
   -1.5115   -0.4250   -2.1612 H   0  0  0  0  0  0  0  0  0  0  0  0
    4.3127   -1.3194   -0.3858 H   0  0  0  0  0  0  0  0  0  0  0  0
    4.6504   -0.7691    1.2686 H   0  0  0  0  0  0  0  0  0  0  0  0
    6.0856    0.1847   -1.2652 H   0  0  0  0  0  0  0  0  0  0  0  0
    6.3921    0.7970    0.3778 H   0  0  0  0  0  0  0  0  0  0  0  0
   -9.3406   -1.6347   -0.2306 H   0  0  0  0  0  0  0  0  0  0  0  0
   -8.0715   -2.3878   -1.1302 H   0  0  0  0  0  0  0  0  0  0  0  0
    8.9485   -1.5776   -0.0631 H   0  0  0  0  0  0  0  0  0  0  0  0
  1  9  1  0  0  0  0
  1 33  1  0  0  0  0
  2 13  1  0  0  0  0
  2 16  1  0  0  0  0
  3 15  2  0  0  0  0
  4 16  2  0  0  0  0
  5 19  1  0  0  0  0
  5 40  1  0  0  0  0
  6 19  2  0  0  0  0
  7 15  1  0  0  0  0
  7 38  1  0  0  0  0
  7 39  1  0  0  0  0
  8  9  1  0  0  0  0
  8 10  1  0  0  0  0
  8 20  1  0  0  0  0
  8 21  1  0  0  0  0
  9 11  1  0  0  0  0
  9 22  1  0  0  0  0
 10 12  1  0  0  0  0
 10 23  1  0  0  0  0
 10 24  1  0  0  0  0
 11 13  1  0  0  0  0
 11 25  1  0  0  0  0
 11 26  1  0  0  0  0
 12 14  1  0  0  0  0
 12 27  1  0  0  0  0
 12 28  1  0  0  0  0
 13 29  1  0  0  0  0
 13 30  1  0  0  0  0
 14 15  1  0  0  0  0
 14 31  1  0  0  0  0
 14 32  1  0  0  0  0
 16 17  1  0  0  0  0
 17 18  1  0  0  0  0
 17 34  1  0  0  0  0
 17 35  1  0  0  0  0
 18 19  1  0  0  0  0
 18 36  1  0  0  0  0
 18 37  1  0  0  0  0
M  END
> <PUBCHEM_COMPOUND_CID>
11953795

> <PUBCHEM_CONFORMER_RMSD>
1.2

> <PUBCHEM_CONFORMER_DIVERSEORDER>
1
105
38
230
175
6
162
3
57
224
24
53
78
62
239
11
263
14
255
139
29
252
179
66
126
191
117
178
264
149
15
259
84
88
99
46
10
223
170
107
54
144
112
100
262
118
79
26
32
236
258
122
157
8
115
238
245
7
92
228
215
93
211
128
63
219
156
176
67
20
234
30
199
124
171
44
138
68
155
18
253
28
109
256
265
174
69
210
204
85
4
81
188
135
208
130
193
222
206
241
209
96
183
260
165
27
114
47
25
33
151
5
161
158
214
50
202
17
254
95
103
23
71
203
87
246
195
148
231
12
250
102
172
153
86
72
251
232
59
98
52
163
45
201
51
160
143
131
75
181
94
194
145
101
218
237
257
221
73
137
80
247
167
142
2
200
97
240
187
61
40
58
164
227
132
43
121
152
225
111
48
56
116
108
113
9
16
173
60
212
41
104
74
169
185
217
34
136
147
189
36
39
235
83
244
133
243
106
261
213
91
159
19
31
76
141
192
70
55
242
134
21
216
207
146
197
42
205
226
13
64
120
198
154
140
168
49
77
127
249
90
123
119
184
229
150
37
186
180
196
35
190
233
65
22
129
89
82
182
166
110
248
177
220
125

> <PUBCHEM_MMFF94_PARTIAL_CHARGES>
19
1 -0.41
13 0.23
14 0.06
15 0.57
16 0.65
17 0.06
18 0.06
19 0.66
2 -0.37
3 -0.57
33 0.18
38 0.37
39 0.37
4 -0.57
40 0.5
5 -0.65
6 -0.57
7 -0.8
9 0.23

> <PUBCHEM_EFFECTIVE_ROTOR_COUNT>
12

> <PUBCHEM_PHARMACOPHORE_FEATURES>
6
1 3 acceptor
1 5 acceptor
1 6 acceptor
1 7 donor
3 5 6 19 anion
4 8 10 12 14 hydrophobe

> <PUBCHEM_HEAVY_ATOM_COUNT>
19

> <PUBCHEM_ATOM_DEF_STEREO_COUNT>
0

> <PUBCHEM_ATOM_UDEF_STEREO_COUNT>
1

> <PUBCHEM_BOND_DEF_STEREO_COUNT>
0

> <PUBCHEM_BOND_UDEF_STEREO_COUNT>
0

> <PUBCHEM_ISOTOPIC_ATOM_COUNT>
0

> <PUBCHEM_COMPONENT_COUNT>
1

> <PUBCHEM_CACTVS_TAUTO_COUNT>
2

> <PUBCHEM_CONFORMER_ID>
00B6668300000001

> <PUBCHEM_MMFF94_ENERGY>
22.7981

> <PUBCHEM_FEATURE_SELFOVERLAP>
30.504

> <PUBCHEM_SHAPE_FINGERPRINT>
10 15 15647057040757811136
10299344 5 18409164415776986579
106641 1 17748831804922676664
10753850 27 18411704300812389944
12592606 108 18336549335427643207
13533116 47 18339360768915787104
13540713 5 15721106863724005404
13668630 136 18343867718522098787
13673619 4 18343867718533207205
13685833 64 18334858320523677160
13885169 127 18410856603133385681
14123256 10 16774079574488912408
14216079 64 18408322202591787022
14251764 18 17603867780083520233
14251764 46 16917349233791124435
14350574 20 18272089414140335276
14428016 86 10087643710847001272
155225 1 10303815380237565151
15690457 1 18187368709945790759
15716309 27 18113338596215804381
1768 124 17968095347975878614
18006028 8 18334012787523904225
1818759 1 18261104184402673606
18643901 69 18202280329285290015
20157964 124 9367355838003330888
20281389 69 7276837874442285754
20621476 38 18409449202237032706
20621476 66 9367341539872261576
20735858 18 16008745801846638261
21130983 4 9655579612737086937
21150785 3 14045740426372772507
21267235 1 18407758149211481240
21315763 28 18409166589563545529
22224240 67 5545196125411141701
23035841 295 18334857208433102515
23559900 14 18196937674112459081
246663 6 18412260640309969498
28498 318 18411984667908986677
3004659 81 18130791148631292392
33532 11 18410576192770403323
465052 167 18260545580998184981
5104073 3 15937270879697962691
5283384 27 7709462697759963667
6438161 24 18410577266511740040

> <PUBCHEM_SHAPE_MULTIPOLES>
370.25
26
1.74
0.97
7.38
0.11
-0.38
18.93
1.02
-1.39
0.06
0.51
-0.22
-0.61

> <PUBCHEM_SHAPE_SELFOVERLAP>
680.5

> <PUBCHEM_SHAPE_VOLUME>
233.7

> <PUBCHEM_COORDINATE_TYPE>
2
5
10

$$$$

