4809
  -OEChem-06261200212D

 83 86  0     1  0  0  0  0  0999 V2000
    3.4557    4.1244    0.0000 O   0  0  0  0  0  0  0  0  0  0  0  0
    7.8380    5.7810    0.0000 O   0  0  0  0  0  0  0  0  0  0  0  0
    9.2392    4.7629    0.0000 O   0  0  0  0  0  0  0  0  0  0  0  0
    5.1101   -2.0545    0.0000 O   0  0  0  0  0  0  0  0  0  0  0  0
    5.2912   -0.3319    0.0000 O   0  0  0  0  0  0  0  0  0  0  0  0
    8.7360   -5.0213    0.0000 O   0  0  0  0  0  0  0  0  0  0  0  0
    4.5772    2.7395    0.0000 N   0  0  0  0  0  0  0  0  0  0  0  0
    6.9759    0.7970    0.0000 N   0  0  0  0  0  0  0  0  0  0  0  0
    9.8574   -0.3091    0.0000 N   0  0  0  0  0  0  0  0  0  0  0  0
    9.3746   -3.3576    0.0000 N   0  0  0  0  0  0  0  0  0  0  0  0
    3.4945    1.5370    0.0000 C   0  0  3  0  0  0  0  0  0  0  0  0
    2.9945    2.4031    0.0000 C   0  0  3  0  0  0  0  0  0  0  0  0
    4.4727    1.7449    0.0000 C   0  0  0  0  0  0  0  0  0  0  0  0
    3.0878    0.6235    0.0000 C   0  0  0  0  0  0  0  0  0  0  0  0
    3.6636    3.1462    0.0000 C   0  0  0  0  0  0  0  0  0  0  0  0
    2.0000    2.5076    0.0000 C   0  0  0  0  0  0  0  0  0  0  0  0
    5.2158    1.0758    0.0000 C   0  0  0  0  0  0  0  0  0  0  0  0
    6.1669    1.3848    0.0000 C   0  0  0  0  0  0  0  0  0  0  0  0
    2.0933    0.5190    0.0000 C   0  0  0  0  0  0  0  0  0  0  0  0
    6.4759    2.3359    0.0000 C   0  0  0  0  0  0  0  0  0  0  0  0
    7.4759    2.3359    0.0000 C   0  0  0  0  0  0  0  0  0  0  0  0
    7.7849    1.3848    0.0000 C   0  0  0  0  0  0  0  0  0  0  0  0
    8.0637    3.1449    0.0000 C   0  0  0  0  0  0  0  0  0  0  0  0
    8.7360    1.0758    0.0000 C   0  0  0  0  0  0  0  0  0  0  0  0
    8.9439    0.0977    0.0000 C   0  0  0  0  0  0  0  0  0  0  0  0
    8.2747   -0.6455    0.0000 C   0  0  0  0  0  0  0  0  0  0  0  0
    5.8881    3.1449    0.0000 C   0  0  0  0  0  0  0  0  0  0  0  0
    8.7747   -1.5115    0.0000 C   0  0  0  0  0  0  0  0  0  0  0  0
    9.7529   -1.3036    0.0000 C   0  0  0  0  0  0  0  0  0  0  0  0
    7.6569    4.0584    0.0000 C   0  0  0  0  0  0  0  0  0  0  0  0
    7.2802   -0.5410    0.0000 C   0  0  0  0  0  0  0  0  0  0  0  0
    8.3680   -2.4250    0.0000 C   0  0  0  0  0  0  0  0  0  0  0  0
    6.6924   -1.3500    0.0000 C   0  0  0  0  0  0  0  0  0  0  0  0
   10.4960   -1.9727    0.0000 C   0  0  0  0  0  0  0  0  0  0  0  0
   10.2881   -2.9509    0.0000 C   0  0  0  0  0  0  0  0  0  0  0  0
    8.2447    4.8675    0.0000 C   0  0  0  0  0  0  0  0  0  0  0  0
   10.9573   -3.6940    0.0000 C   0  0  0  0  0  0  0  0  0  0  0  0
   10.4573   -4.5600    0.0000 C   0  0  0  0  0  0  0  0  0  0  0  0
    5.6979   -1.2454    0.0000 C   0  0  0  0  0  0  0  0  0  0  0  0
    9.4791   -4.3521    0.0000 C   0  0  0  0  0  0  0  0  0  0  0  0
   10.8640   -5.4736    0.0000 C   0  0  0  0  0  0  0  0  0  0  0  0
   11.9518   -3.5895    0.0000 C   0  0  0  0  0  0  0  0  0  0  0  0
   10.2762   -6.2826    0.0000 C   0  0  0  0  0  0  0  0  0  0  0  0
    2.6457    1.4926    0.0000 H   0  0  0  0  0  0  0  0  0  0  0  0
    2.5316    1.6902    0.0000 H   0  0  0  0  0  0  0  0  0  0  0  0
    3.0445    0.0050    0.0000 H   0  0  0  0  0  0  0  0  0  0  0  0
    3.6894    0.4735    0.0000 H   0  0  0  0  0  0  0  0  0  0  0  0
    5.1141    3.0495    0.0000 H   0  0  0  0  0  0  0  0  0  0  0  0
    2.0648    3.1242    0.0000 H   0  0  0  0  0  0  0  0  0  0  0  0
    1.3834    2.5724    0.0000 H   0  0  0  0  0  0  0  0  0  0  0  0
    1.9352    1.8910    0.0000 H   0  0  0  0  0  0  0  0  0  0  0  0
    5.0869    0.4694    0.0000 H   0  0  0  0  0  0  0  0  0  0  0  0
    2.0285    1.1356    0.0000 H   0  0  0  0  0  0  0  0  0  0  0  0
    1.4767    0.4542    0.0000 H   0  0  0  0  0  0  0  0  0  0  0  0
    2.1581   -0.0976    0.0000 H   0  0  0  0  0  0  0  0  0  0  0  0
    6.9759    0.1770    0.0000 H   0  0  0  0  0  0  0  0  0  0  0  0
    8.4944    2.6989    0.0000 H   0  0  0  0  0  0  0  0  0  0  0  0
    8.5777    3.4916    0.0000 H   0  0  0  0  0  0  0  0  0  0  0  0
    9.1967    1.4907    0.0000 H   0  0  0  0  0  0  0  0  0  0  0  0
    6.3897    3.5093    0.0000 H   0  0  0  0  0  0  0  0  0  0  0  0
    5.5237    3.6465    0.0000 H   0  0  0  0  0  0  0  0  0  0  0  0
    5.3865    2.7805    0.0000 H   0  0  0  0  0  0  0  0  0  0  0  0
   10.3944    0.0009    0.0000 H   0  0  0  0  0  0  0  0  0  0  0  0
    7.2262    4.5044    0.0000 H   0  0  0  0  0  0  0  0  0  0  0  0
    7.1429    3.7118    0.0000 H   0  0  0  0  0  0  0  0  0  0  0  0
    7.4511    0.0550    0.0000 H   0  0  0  0  0  0  0  0  0  0  0  0
    6.7230   -0.2692    0.0000 H   0  0  0  0  0  0  0  0  0  0  0  0
    7.8016   -2.1729    0.0000 H   0  0  0  0  0  0  0  0  0  0  0  0
    8.1158   -2.9914    0.0000 H   0  0  0  0  0  0  0  0  0  0  0  0
    8.9344   -2.6772    0.0000 H   0  0  0  0  0  0  0  0  0  0  0  0
    6.5215   -1.9460    0.0000 H   0  0  0  0  0  0  0  0  0  0  0  0
    7.2497   -1.6218    0.0000 H   0  0  0  0  0  0  0  0  0  0  0  0
   11.0857   -1.7811    0.0000 H   0  0  0  0  0  0  0  0  0  0  0  0
   11.2947   -5.9196    0.0000 H   0  0  0  0  0  0  0  0  0  0  0  0
   11.3780   -5.1269    0.0000 H   0  0  0  0  0  0  0  0  0  0  0  0
   12.0166   -4.2061    0.0000 H   0  0  0  0  0  0  0  0  0  0  0  0
   12.5684   -3.5247    0.0000 H   0  0  0  0  0  0  0  0  0  0  0  0
   11.8870   -2.9729    0.0000 H   0  0  0  0  0  0  0  0  0  0  0  0
    8.2024    6.2826    0.0000 H   0  0  0  0  0  0  0  0  0  0  0  0
    9.7746   -5.9182    0.0000 H   0  0  0  0  0  0  0  0  0  0  0  0
    9.9118   -6.7842    0.0000 H   0  0  0  0  0  0  0  0  0  0  0  0
   10.7778   -6.6470    0.0000 H   0  0  0  0  0  0  0  0  0  0  0  0
    4.4935   -1.9896    0.0000 H   0  0  0  0  0  0  0  0  0  0  0  0
  1 15  2  0  0  0  0
  2 36  1  0  0  0  0
  2 79  1  0  0  0  0
  3 36  2  0  0  0  0
  4 39  1  0  0  0  0
  4 83  1  0  0  0  0
  5 39  2  0  0  0  0
  6 40  2  0  0  0  0
  7 13  1  0  0  0  0
  7 15  1  0  0  0  0
  7 48  1  0  0  0  0
  8 18  1  0  0  0  0
  8 22  1  0  0  0  0
  8 56  1  0  0  0  0
  9 25  1  0  0  0  0
  9 29  1  0  0  0  0
  9 63  1  0  0  0  0
 10 35  2  0  0  0  0
 10 40  1  0  0  0  0
 11 12  1  0  0  0  0
 11 13  1  0  0  0  0
 11 14  1  0  0  0  0
 11 44  1  0  0  0  0
 12 15  1  0  0  0  0
 12 16  1  0  0  0  0
 12 45  1  0  0  0  0
 13 17  2  3  0  0  0
 14 19  1  0  0  0  0
 14 46  1  0  0  0  0
 14 47  1  0  0  0  0
 16 49  1  0  0  0  0
 16 50  1  0  0  0  0
 16 51  1  0  0  0  0
 17 18  1  0  0  0  0
 17 52  1  0  0  0  0
 18 20  2  0  0  0  0
 19 53  1  0  0  0  0
 19 54  1  0  0  0  0
 19 55  1  0  0  0  0
 20 21  1  0  0  0  0
 20 27  1  0  0  0  0
 21 22  2  0  0  0  0
 21 23  1  0  0  0  0
 22 24  1  0  0  0  0
 23 30  1  0  0  0  0
 23 57  1  0  0  0  0
 23 58  1  0  0  0  0
 24 25  2  3  0  0  0
 24 59  1  0  0  0  0
 25 26  1  0  0  0  0
 26 28  2  0  0  0  0
 26 31  1  0  0  0  0
 27 60  1  0  0  0  0
 27 61  1  0  0  0  0
 27 62  1  0  0  0  0
 28 29  1  0  0  0  0
 28 32  1  0  0  0  0
 29 34  2  3  0  0  0
 30 36  1  0  0  0  0
 30 64  1  0  0  0  0
 30 65  1  0  0  0  0
 31 33  1  0  0  0  0
 31 66  1  0  0  0  0
 31 67  1  0  0  0  0
 32 68  1  0  0  0  0
 32 69  1  0  0  0  0
 32 70  1  0  0  0  0
 33 39  1  0  0  0  0
 33 71  1  0  0  0  0
 33 72  1  0  0  0  0
 34 35  1  0  0  0  0
 34 73  1  0  0  0  0
 35 37  1  0  0  0  0
 37 38  2  0  0  0  0
 37 42  1  0  0  0  0
 38 40  1  0  0  0  0
 38 41  1  0  0  0  0
 41 43  1  0  0  0  0
 41 74  1  0  0  0  0
 41 75  1  0  0  0  0
 42 76  1  0  0  0  0
 42 77  1  0  0  0  0
 42 78  1  0  0  0  0
 43 80  1  0  0  0  0
 43 81  1  0  0  0  0
 43 82  1  0  0  0  0
M  END
> <PUBCHEM_COMPOUND_CID>
4809

> <PUBCHEM_COMPOUND_CANONICALIZED>
1

> <PUBCHEM_CACTVS_COMPLEXITY>
1400

> <PUBCHEM_CACTVS_HBOND_ACCEPTOR>
7

> <PUBCHEM_CACTVS_HBOND_DONOR>
5

> <PUBCHEM_CACTVS_ROTATABLE_BOND>
11

> <PUBCHEM_CACTVS_SUBSKEYS>
AAADcfB/uAAAAAAAAAAAAAAAAAAAAWLECAAAAAAAAAAAAAABgAAAHgAQCAAADQiBngACiJLJkgCoAyXyXACCgCAhAiAAmSEwRNgIIHLAkZGEQAhklADIyQec2TOegAAAAAAAAAAAAAAAAAAAAAAAAAAAAA==

> <PUBCHEM_IUPAC_OPENEYE_NAME>
3-[2-[[3-(2-carboxyethyl)-5-[(3-ethyl-4-methyl-5-oxo-pyrrolidin-2-ylidene)methyl]-4-methyl-1H-pyrrol-2-yl]methylene]-5-[(4-ethyl-3-methyl-5-oxo-pyrrol-2-yl)methylene]-4-methyl-pyrrol-3-yl]propanoic acid

> <PUBCHEM_IUPAC_CAS_NAME>
3-[2-[[3-(2-carboxyethyl)-5-[(3-ethyl-4-methyl-5-oxo-2-pyrrolidinylidene)methyl]-4-methyl-1H-pyrrol-2-yl]methylidene]-5-[(4-ethyl-3-methyl-5-oxo-2-pyrrolyl)methylidene]-4-methyl-3-pyrrolyl]propanoic acid

> <PUBCHEM_IUPAC_NAME>
3-[2-[[3-(2-carboxyethyl)-5-[(3-ethyl-4-methyl-5-oxopyrrolidin-2-ylidene)methyl]-4-methyl-1H-pyrrol-2-yl]methylidene]-5-[(4-ethyl-3-methyl-5-oxopyrrol-2-yl)methylidene]-4-methylpyrrol-3-yl]propanoic acid

> <PUBCHEM_IUPAC_SYSTEMATIC_NAME>
3-[2-[[5-[(3-ethyl-4-methyl-5-oxidanylidene-pyrrolidin-2-ylidene)methyl]-3-(3-hydroxy-3-oxopropyl)-4-methyl-1H-pyrrol-2-yl]methylidene]-5-[(4-ethyl-3-methyl-5-oxidanylidene-pyrrol-2-yl)methylidene]-4-methyl-pyrrol-3-yl]propanoic acid

> <PUBCHEM_IUPAC_TRADITIONAL_NAME>
3-[2-[[3-(2-carboxyethyl)-5-[(3-ethyl-5-keto-4-methyl-pyrrolidin-2-ylidene)methyl]-4-methyl-1H-pyrrol-2-yl]methylene]-5-[(4-ethyl-5-keto-3-methyl-pyrrol-2-yl)methylene]-4-methyl-3-pyrrolin-3-yl]propionic acid

> <PUBCHEM_IUPAC_INCHI>
InChI=1S/C33H40N4O6/c1-7-20-19(6)32(42)37-27(20)14-25-18(5)23(10-12-31(40)41)29(35-25)15-28-22(9-11-30(38)39)17(4)24(34-28)13-26-16(3)21(8-2)33(43)36-26/h13-15,19-20,34-35H,7-12H2,1-6H3,(H,37,42)(H,38,39)(H,40,41)

> <PUBCHEM_IUPAC_INCHIKEY>
VUXLILWIGPBTLI-UHFFFAOYSA-N

> <PUBCHEM_XLOGP3_AA>
2.8

> <PUBCHEM_EXACT_MASS>
588.294785

> <PUBCHEM_MOLECULAR_FORMULA>
C33H40N4O6

> <PUBCHEM_MOLECULAR_WEIGHT>
588.6939

> <PUBCHEM_OPENEYE_CAN_SMILES>
CCC1C(C(=O)NC1=CC2=C(C(=C(N2)C=C3C(=C(C(=CC4=NC(=O)C(=C4C)CC)N3)C)CCC(=O)O)CCC(=O)O)C)C

> <PUBCHEM_OPENEYE_ISO_SMILES>
CCC1C(C(=O)NC1=CC2=C(C(=C(N2)C=C3C(=C(C(=CC4=NC(=O)C(=C4C)CC)N3)C)CCC(=O)O)CCC(=O)O)C)C

> <PUBCHEM_CACTVS_TPSA>
161

> <PUBCHEM_MONOISOTOPIC_WEIGHT>
588.294785

> <PUBCHEM_TOTAL_CHARGE>
0

> <PUBCHEM_HEAVY_ATOM_COUNT>
43

> <PUBCHEM_ATOM_DEF_STEREO_COUNT>
0

> <PUBCHEM_ATOM_UDEF_STEREO_COUNT>
2

> <PUBCHEM_BOND_DEF_STEREO_COUNT>
0

> <PUBCHEM_BOND_UDEF_STEREO_COUNT>
3

> <PUBCHEM_ISOTOPIC_ATOM_COUNT>
0

> <PUBCHEM_COMPONENT_COUNT>
1

> <PUBCHEM_CACTVS_TAUTO_COUNT>
1001

> <PUBCHEM_COORDINATE_TYPE>
1
5
255

> <PUBCHEM_BONDANNOTATIONS>
11  44  3
12  45  3
13  17  1
18  20  8
20  21  8
21  22  8
24  25  1
25  26  8
26  28  8
28  29  8
29  34  1
8  18  8
8  22  8
9  25  8
9  29  8

$$$$

