582846
  -OEChem-06241222442D

 61 62  0     1  0  0  0  0  0999 V2000
    4.8219   -1.7074    0.0000 O   0  0  0  0  0  0  0  0  0  0  0  0
   10.0676   -1.7074    0.0000 O   0  0  0  0  0  0  0  0  0  0  0  0
   10.7154    1.1307    0.0000 O   0  0  0  0  0  0  0  0  0  0  0  0
    8.9003    3.4068    0.0000 O   0  0  0  0  0  0  0  0  0  0  0  0
    6.1612   -3.7771    0.0000 O   0  0  0  0  0  0  0  0  0  0  0  0
    4.1741    1.1307    0.0000 O   0  0  0  0  0  0  0  0  0  0  0  0
    3.3910   -1.2068    0.0000 O   0  0  0  0  0  0  0  0  0  0  0  0
    4.4828    3.5765    0.0000 O   0  0  0  0  0  0  0  0  0  0  0  0
    7.4447   -2.9705    0.0000 N   0  0  0  0  0  0  0  0  0  0  0  0
    5.9892    3.4068    0.0000 N   0  0  0  0  0  0  0  0  0  0  0  0
    5.5549   -2.3876    0.0000 C   0  0  3  0  0  0  0  0  0  0  0  0
    4.9916   -3.2138    0.0000 C   0  0  0  0  0  0  0  0  0  0  0  0
    3.9944   -3.1391    0.0000 C   0  0  0  0  0  0  0  0  0  0  0  0
    6.4559   -2.8215    0.0000 C   0  0  0  0  0  0  0  0  0  0  0  0
    8.4336   -2.8215    0.0000 C   0  0  0  0  0  0  0  0  0  0  0  0
    9.3345   -2.3876    0.0000 C   0  0  0  0  0  0  0  0  0  0  0  0
    3.5605   -2.2381    0.0000 C   0  0  0  0  0  0  0  0  0  0  0  0
    3.4311   -3.9654    0.0000 C   0  0  0  0  0  0  0  0  0  0  0  0
   10.5676   -0.8414    0.0000 C   0  0  0  0  0  0  0  0  0  0  0  0
   10.7901    0.1335    0.0000 C   0  0  0  0  0  0  0  0  0  0  0  0
    4.3219   -0.8414    0.0000 C   0  0  0  0  0  0  0  0  0  0  0  0
   10.3500    2.0616    0.0000 C   0  0  0  0  0  0  0  0  0  0  0  0
    2.5633   -2.1634    0.0000 C   0  0  0  0  0  0  0  0  0  0  0  0
    2.4339   -3.8906    0.0000 C   0  0  0  0  0  0  0  0  0  0  0  0
    9.7265    2.8434    0.0000 C   0  0  0  0  0  0  0  0  0  0  0  0
    7.9447    3.7015    0.0000 C   0  0  0  0  0  0  0  0  0  0  0  0
    6.9447    3.7015    0.0000 C   0  0  0  0  0  0  0  0  0  0  0  0
    4.0994    0.1335    0.0000 C   0  0  0  0  0  0  0  0  0  0  0  0
    2.0000   -2.9896    0.0000 C   0  0  0  0  0  0  0  0  0  0  0  0
    4.5394    2.0616    0.0000 C   0  0  0  0  0  0  0  0  0  0  0  0
    5.1629    2.8434    0.0000 C   0  0  0  0  0  0  0  0  0  0  0  0
    4.7103   -2.4828    0.0000 H   0  0  0  0  0  0  0  0  0  0  0  0
    4.8386   -3.8147    0.0000 H   0  0  0  0  0  0  0  0  0  0  0  0
    5.5568   -3.4688    0.0000 H   0  0  0  0  0  0  0  0  0  0  0  0
    8.2656   -3.4183    0.0000 H   0  0  0  0  0  0  0  0  0  0  0  0
    8.2508   -2.2290    0.0000 H   0  0  0  0  0  0  0  0  0  0  0  0
    7.4447   -3.5905    0.0000 H   0  0  0  0  0  0  0  0  0  0  0  0
    9.3500   -3.0074    0.0000 H   0  0  0  0  0  0  0  0  0  0  0  0
    8.9853   -1.8753    0.0000 H   0  0  0  0  0  0  0  0  0  0  0  0
    3.9098   -1.7259    0.0000 H   0  0  0  0  0  0  0  0  0  0  0  0
    3.7001   -4.5240    0.0000 H   0  0  0  0  0  0  0  0  0  0  0  0
   10.9295   -1.3448    0.0000 H   0  0  0  0  0  0  0  0  0  0  0  0
    9.9904   -0.6149    0.0000 H   0  0  0  0  0  0  0  0  0  0  0  0
   11.2843   -0.2408    0.0000 H   0  0  0  0  0  0  0  0  0  0  0  0
   10.1718    0.1799    0.0000 H   0  0  0  0  0  0  0  0  0  0  0  0
   10.9693    2.0307    0.0000 H   0  0  0  0  0  0  0  0  0  0  0  0
    9.8131    1.7516    0.0000 H   0  0  0  0  0  0  0  0  0  0  0  0
   10.3274    2.9964    0.0000 H   0  0  0  0  0  0  0  0  0  0  0  0
    9.3048    2.3889    0.0000 H   0  0  0  0  0  0  0  0  0  0  0  0
    2.2943   -1.6048    0.0000 H   0  0  0  0  0  0  0  0  0  0  0  0
    2.0846   -4.4029    0.0000 H   0  0  0  0  0  0  0  0  0  0  0  0
    8.3550    4.1664    0.0000 H   0  0  0  0  0  0  0  0  0  0  0  0
    7.8523    3.0884    0.0000 H   0  0  0  0  0  0  0  0  0  0  0  0
    7.1997    4.2666    0.0000 H   0  0  0  0  0  0  0  0  0  0  0  0
    7.0371    3.0884    0.0000 H   0  0  0  0  0  0  0  0  0  0  0  0
    3.5549    0.4300    0.0000 H   0  0  0  0  0  0  0  0  0  0  0  0
    4.7176    0.1799    0.0000 H   0  0  0  0  0  0  0  0  0  0  0  0
    1.3817   -2.9433    0.0000 H   0  0  0  0  0  0  0  0  0  0  0  0
    5.7202    3.9654    0.0000 H   0  0  0  0  0  0  0  0  0  0  0  0
    4.2566    2.6133    0.0000 H   0  0  0  0  0  0  0  0  0  0  0  0
    5.0764    1.7516    0.0000 H   0  0  0  0  0  0  0  0  0  0  0  0
  1 11  1  0  0  0  0
  1 21  1  0  0  0  0
  2 16  1  0  0  0  0
  2 19  1  0  0  0  0
  3 20  1  0  0  0  0
  3 22  1  0  0  0  0
  4 25  1  0  0  0  0
  4 26  1  0  0  0  0
  5 14  2  0  0  0  0
  6 28  1  0  0  0  0
  6 30  1  0  0  0  0
  7 21  2  0  0  0  0
  8 31  2  0  0  0  0
  9 14  1  0  0  0  0
  9 15  1  0  0  0  0
  9 37  1  0  0  0  0
 10 27  1  0  0  0  0
 10 31  1  0  0  0  0
 10 59  1  0  0  0  0
 11 12  1  0  0  0  0
 11 14  1  0  0  0  0
 11 32  1  0  0  0  0
 12 13  1  0  0  0  0
 12 33  1  0  0  0  0
 12 34  1  0  0  0  0
 13 17  2  0  0  0  0
 13 18  1  0  0  0  0
 15 16  1  0  0  0  0
 15 35  1  0  0  0  0
 15 36  1  0  0  0  0
 16 38  1  0  0  0  0
 16 39  1  0  0  0  0
 17 23  1  0  0  0  0
 17 40  1  0  0  0  0
 18 24  2  0  0  0  0
 18 41  1  0  0  0  0
 19 20  1  0  0  0  0
 19 42  1  0  0  0  0
 19 43  1  0  0  0  0
 20 44  1  0  0  0  0
 20 45  1  0  0  0  0
 21 28  1  0  0  0  0
 22 25  1  0  0  0  0
 22 46  1  0  0  0  0
 22 47  1  0  0  0  0
 23 29  2  0  0  0  0
 23 50  1  0  0  0  0
 24 29  1  0  0  0  0
 24 51  1  0  0  0  0
 25 48  1  0  0  0  0
 25 49  1  0  0  0  0
 26 27  1  0  0  0  0
 26 52  1  0  0  0  0
 26 53  1  0  0  0  0
 27 54  1  0  0  0  0
 27 55  1  0  0  0  0
 28 56  1  0  0  0  0
 28 57  1  0  0  0  0
 29 58  1  0  0  0  0
 30 31  1  0  0  0  0
 30 60  1  0  0  0  0
 30 61  1  0  0  0  0
M  END
> <PUBCHEM_COMPOUND_CID>
582846

> <PUBCHEM_COMPOUND_CANONICALIZED>
1

> <PUBCHEM_CACTVS_COMPLEXITY>
540

> <PUBCHEM_CACTVS_HBOND_ACCEPTOR>
8

> <PUBCHEM_CACTVS_HBOND_DONOR>
2

> <PUBCHEM_CACTVS_ROTATABLE_BOND>
2

> <PUBCHEM_CACTVS_SUBSKEYS>
AAADceB7PAAAAAAAAAAAAAAAAAAAAAAAAAAwAAAAAAAAAAABAAAAHgAQAAAADBThmAYwCILABACIAiHSGAICAAAgAAAIiIFIAIgLIDKAkRSHIAAk1gGaiAeYyKCOAAAAAAAAAAAAAAAAAAAAAAAAAAAAAA==

> <PUBCHEM_IUPAC_OPENEYE_NAME>
12-benzyl-1,4,7,13,16-pentaoxa-10,19-diazacyclohenicosane-11,14,18-trione

> <PUBCHEM_IUPAC_CAS_NAME>
12-(phenylmethyl)-1,4,7,13,16-pentaoxa-10,19-diazacycloheneicosane-11,14,18-trione

> <PUBCHEM_IUPAC_NAME>
12-benzyl-1,4,7,13,16-pentaoxa-10,19-diazacyclohenicosane-11,14,18-trione

> <PUBCHEM_IUPAC_SYSTEMATIC_NAME>
12-(phenylmethyl)-1,4,7,13,16-pentaoxa-10,19-diazacyclohenicosane-11,14,18-trione

> <PUBCHEM_IUPAC_TRADITIONAL_NAME>
12-benzyl-1,4,7,13,16-pentaoxa-10,19-diazacycloheneicosane-11,14,18-trione

> <PUBCHEM_IUPAC_INCHI>
InChI=1S/C21H30N2O8/c24-19-15-30-16-20(25)31-18(14-17-4-2-1-3-5-17)21(26)23-7-9-28-11-13-29-12-10-27-8-6-22-19/h1-5,18H,6-16H2,(H,22,24)(H,23,26)

> <PUBCHEM_IUPAC_INCHIKEY>
DNKRVFHPNYLAAT-UHFFFAOYSA-N

> <PUBCHEM_XLOGP3_AA>
0

> <PUBCHEM_EXACT_MASS>
438.200216

> <PUBCHEM_MOLECULAR_FORMULA>
C21H30N2O8

> <PUBCHEM_MOLECULAR_WEIGHT>
438.4715

> <PUBCHEM_OPENEYE_CAN_SMILES>
C1COCCOCCOCCNC(=O)C(OC(=O)COCC(=O)N1)CC2=CC=CC=C2

> <PUBCHEM_OPENEYE_ISO_SMILES>
C1COCCOCCOCCNC(=O)C(OC(=O)COCC(=O)N1)CC2=CC=CC=C2

> <PUBCHEM_CACTVS_TPSA>
121

> <PUBCHEM_MONOISOTOPIC_WEIGHT>
438.200216

> <PUBCHEM_TOTAL_CHARGE>
0

> <PUBCHEM_HEAVY_ATOM_COUNT>
31

> <PUBCHEM_ATOM_DEF_STEREO_COUNT>
0

> <PUBCHEM_ATOM_UDEF_STEREO_COUNT>
1

> <PUBCHEM_BOND_DEF_STEREO_COUNT>
0

> <PUBCHEM_BOND_UDEF_STEREO_COUNT>
0

> <PUBCHEM_ISOTOPIC_ATOM_COUNT>
0

> <PUBCHEM_COMPONENT_COUNT>
1

> <PUBCHEM_CACTVS_TAUTO_COUNT>
18

> <PUBCHEM_COORDINATE_TYPE>
1
5
255

> <PUBCHEM_BONDANNOTATIONS>
11  32  3
13  17  8
13  18  8
17  23  8
18  24  8
23  29  8
24  29  8

$$$$

