10790775
  -OEChem-07051213153D

 86 90  0     1  0  0  0  0  0999 V2000
    2.3903   -2.9253   -0.5734 O   0  0  0  0  0  0  0  0  0  0  0  0
    4.4904    1.0214   -1.7982 O   0  0  0  0  0  0  0  0  0  0  0  0
    3.8835    2.4770    1.4759 O   0  0  0  0  0  0  0  0  0  0  0  0
    8.2665    0.1616    0.0026 O   0  0  0  0  0  0  0  0  0  0  0  0
   -0.4784   -0.6313    0.2124 C   0  0  1  0  0  0  0  0  0  0  0  0
    0.2262    0.6268   -0.3348 C   0  0  2  0  0  0  0  0  0  0  0  0
   -1.8774   -0.4291   -0.4202 C   0  0  1  0  0  0  0  0  0  0  0  0
    1.6654    0.7722    0.1735 C   0  0  1  0  0  0  0  0  0  0  0  0
    2.5018   -0.4784   -0.2819 C   0  0  1  0  0  0  0  0  0  0  0  0
   -4.3112   -0.9749   -0.5553 C   0  0  2  0  0  0  0  0  0  0  0  0
   -3.0016   -1.3045    0.1151 C   0  0  1  0  0  0  0  0  0  0  0  0
    4.0109   -0.3537    0.2028 C   0  0  2  0  0  0  0  0  0  0  0  0
   -5.3772   -0.2673    0.2064 C   0  0  2  0  0  0  0  0  0  0  0  0
    0.2876   -1.8490   -0.3086 C   0  0  0  0  0  0  0  0  0  0  0  0
   -0.7732    1.7464   -0.0535 C   0  0  0  0  0  0  0  0  0  0  0  0
    1.7795   -1.8155    0.0843 C   0  0  1  0  0  0  0  0  0  0  0  0
   -2.1494    1.0804   -0.2314 C   0  0  0  0  0  0  0  0  0  0  0  0
   -5.5276   -1.7221   -0.1294 C   0  0  0  0  0  0  0  0  0  0  0  0
    4.5893    1.0085   -0.3562 C   0  0  2  0  0  0  0  0  0  0  0  0
    2.2899    2.0911   -0.3115 C   0  0  0  0  0  0  0  0  0  0  0  0
    3.7650    2.2372    0.0799 C   0  0  1  0  0  0  0  0  0  0  0  0
   -0.5668   -0.6923    1.7572 C   0  0  0  0  0  0  0  0  0  0  0  0
   -6.2131    0.7082   -0.5471 C   0  0  1  0  0  0  0  0  0  0  0  0
    4.9025   -1.5149   -0.3395 C   0  0  0  0  0  0  0  0  0  0  0  0
    6.0809    1.1878   -0.0116 C   0  0  0  0  0  0  0  0  0  0  0  0
   -2.6639   -2.7864   -0.0618 C   0  0  0  0  0  0  0  0  0  0  0  0
    4.0736   -0.4448    1.7546 C   0  0  0  0  0  0  0  0  0  0  0  0
   -5.1573    0.0957    1.6344 C   0  0  0  0  0  0  0  0  0  0  0  0
    6.3961   -1.3306   -0.0496 C   0  0  0  0  0  0  0  0  0  0  0  0
    6.9405    0.0189   -0.5011 C   0  0  2  0  0  0  0  0  0  0  0  0
   -7.7389    0.3965   -0.4275 C   0  0  0  0  0  0  0  0  0  0  0  0
   -5.8581    2.1543   -0.1558 C   0  0  0  0  0  0  0  0  0  0  0  0
   -8.2536    0.3812    1.0150 C   0  0  0  0  0  0  0  0  0  0  0  0
   -8.5921    1.3547   -1.2658 C   0  0  0  0  0  0  0  0  0  0  0  0
    0.2882    0.5435   -1.4330 H   0  0  0  0  0  0  0  0  0  0  0  0
   -1.7952   -0.6023   -1.5048 H   0  0  0  0  0  0  0  0  0  0  0  0
    1.6379    0.8191    1.2656 H   0  0  0  0  0  0  0  0  0  0  0  0
    2.5178   -0.4825   -1.3799 H   0  0  0  0  0  0  0  0  0  0  0  0
   -4.2051   -0.8152   -1.6225 H   0  0  0  0  0  0  0  0  0  0  0  0
   -3.0865   -1.1512    1.1930 H   0  0  0  0  0  0  0  0  0  0  0  0
    0.2068   -1.9101   -1.4027 H   0  0  0  0  0  0  0  0  0  0  0  0
   -0.1081   -2.7961    0.0615 H   0  0  0  0  0  0  0  0  0  0  0  0
   -0.6489    2.5881   -0.7426 H   0  0  0  0  0  0  0  0  0  0  0  0
   -0.6645    2.1340    0.9658 H   0  0  0  0  0  0  0  0  0  0  0  0
    1.8660   -2.0029    1.1582 H   0  0  0  0  0  0  0  0  0  0  0  0
   -2.7419    1.3001    0.6546 H   0  0  0  0  0  0  0  0  0  0  0  0
   -2.6723    1.4912   -1.1015 H   0  0  0  0  0  0  0  0  0  0  0  0
   -6.2011   -2.0356   -0.9185 H   0  0  0  0  0  0  0  0  0  0  0  0
   -5.4748   -2.4356    0.6846 H   0  0  0  0  0  0  0  0  0  0  0  0
    2.1660    2.1902   -1.3960 H   0  0  0  0  0  0  0  0  0  0  0  0
    1.7309    2.9251    0.1319 H   0  0  0  0  0  0  0  0  0  0  0  0
    4.1530    3.1302   -0.4273 H   0  0  0  0  0  0  0  0  0  0  0  0
   -1.0180   -1.6291    2.0984 H   0  0  0  0  0  0  0  0  0  0  0  0
    0.4144   -0.6402    2.2366 H   0  0  0  0  0  0  0  0  0  0  0  0
   -1.1631    0.1258    2.1737 H   0  0  0  0  0  0  0  0  0  0  0  0
   -5.9736    0.6264   -1.6174 H   0  0  0  0  0  0  0  0  0  0  0  0
    4.7642   -1.6090   -1.4240 H   0  0  0  0  0  0  0  0  0  0  0  0
    4.6088   -2.4727    0.1023 H   0  0  0  0  0  0  0  0  0  0  0  0
    6.2310    1.3312    1.0649 H   0  0  0  0  0  0  0  0  0  0  0  0
    6.4665    2.1030   -0.4814 H   0  0  0  0  0  0  0  0  0  0  0  0
   -2.2474   -2.9926   -1.0536 H   0  0  0  0  0  0  0  0  0  0  0  0
   -1.9779   -3.1409    0.7094 H   0  0  0  0  0  0  0  0  0  0  0  0
   -3.5481   -3.4242    0.0371 H   0  0  0  0  0  0  0  0  0  0  0  0
    3.8438   -1.4601    2.0972 H   0  0  0  0  0  0  0  0  0  0  0  0
    5.0649   -0.2037    2.1477 H   0  0  0  0  0  0  0  0  0  0  0  0
    3.3685    0.2177    2.2585 H   0  0  0  0  0  0  0  0  0  0  0  0
   -6.0237    0.5379    2.1262 H   0  0  0  0  0  0  0  0  0  0  0  0
   -4.9089   -0.7793    2.2471 H   0  0  0  0  0  0  0  0  0  0  0  0
   -4.3503    0.8182    1.7638 H   0  0  0  0  0  0  0  0  0  0  0  0
    6.5920   -1.4696    1.0210 H   0  0  0  0  0  0  0  0  0  0  0  0
    6.9614   -2.1322   -0.5421 H   0  0  0  0  0  0  0  0  0  0  0  0
    6.9982    0.0448   -1.5957 H   0  0  0  0  0  0  0  0  0  0  0  0
   -7.9178   -0.6048   -0.8388 H   0  0  0  0  0  0  0  0  0  0  0  0
    2.3547   -2.7627   -1.5314 H   0  0  0  0  0  0  0  0  0  0  0  0
    3.5706    0.9586   -2.0895 H   0  0  0  0  0  0  0  0  0  0  0  0
   -6.3204    2.8649   -0.8490 H   0  0  0  0  0  0  0  0  0  0  0  0
   -6.1885    2.4242    0.8510 H   0  0  0  0  0  0  0  0  0  0  0  0
   -4.7792    2.3246   -0.2112 H   0  0  0  0  0  0  0  0  0  0  0  0
    3.3642    3.2718    1.6854 H   0  0  0  0  0  0  0  0  0  0  0  0
   -8.0568    1.3204    1.5393 H   0  0  0  0  0  0  0  0  0  0  0  0
   -9.3410    0.2379    1.0220 H   0  0  0  0  0  0  0  0  0  0  0  0
   -7.8409   -0.4566    1.5835 H   0  0  0  0  0  0  0  0  0  0  0  0
   -9.6320    1.0116   -1.3011 H   0  0  0  0  0  0  0  0  0  0  0  0
   -8.5950    2.3673   -0.8499 H   0  0  0  0  0  0  0  0  0  0  0  0
   -8.2256    1.4046   -2.2964 H   0  0  0  0  0  0  0  0  0  0  0  0
    8.7932   -0.5790   -0.3433 H   0  0  0  0  0  0  0  0  0  0  0  0
  1 16  1  0  0  0  0
  1 74  1  0  0  0  0
  2 19  1  0  0  0  0
  2 75  1  0  0  0  0
  3 21  1  0  0  0  0
  3 79  1  0  0  0  0
  4 30  1  0  0  0  0
  4 86  1  0  0  0  0
  5  6  1  0  0  0  0
  5  7  1  0  0  0  0
  5 14  1  0  0  0  0
  5 22  1  0  0  0  0
  6  8  1  0  0  0  0
  6 15  1  0  0  0  0
  6 35  1  0  0  0  0
  7 11  1  0  0  0  0
  7 17  1  0  0  0  0
  7 36  1  0  0  0  0
  8  9  1  0  0  0  0
  8 20  1  0  0  0  0
  8 37  1  0  0  0  0
  9 12  1  0  0  0  0
  9 16  1  0  0  0  0
  9 38  1  0  0  0  0
 10 11  1  0  0  0  0
 10 13  1  0  0  0  0
 10 18  1  0  0  0  0
 10 39  1  0  0  0  0
 11 26  1  0  0  0  0
 11 40  1  0  0  0  0
 12 19  1  0  0  0  0
 12 24  1  0  0  0  0
 12 27  1  0  0  0  0
 13 18  1  0  0  0  0
 13 23  1  0  0  0  0
 13 28  1  0  0  0  0
 14 16  1  0  0  0  0
 14 41  1  0  0  0  0
 14 42  1  0  0  0  0
 15 17  1  0  0  0  0
 15 43  1  0  0  0  0
 15 44  1  0  0  0  0
 16 45  1  0  0  0  0
 17 46  1  0  0  0  0
 17 47  1  0  0  0  0
 18 48  1  0  0  0  0
 18 49  1  0  0  0  0
 19 21  1  0  0  0  0
 19 25  1  0  0  0  0
 20 21  1  0  0  0  0
 20 50  1  0  0  0  0
 20 51  1  0  0  0  0
 21 52  1  0  0  0  0
 22 53  1  0  0  0  0
 22 54  1  0  0  0  0
 22 55  1  0  0  0  0
 23 31  1  0  0  0  0
 23 32  1  0  0  0  0
 23 56  1  0  0  0  0
 24 29  1  0  0  0  0
 24 57  1  0  0  0  0
 24 58  1  0  0  0  0
 25 30  1  0  0  0  0
 25 59  1  0  0  0  0
 25 60  1  0  0  0  0
 26 61  1  0  0  0  0
 26 62  1  0  0  0  0
 26 63  1  0  0  0  0
 27 64  1  0  0  0  0
 27 65  1  0  0  0  0
 27 66  1  0  0  0  0
 28 67  1  0  0  0  0
 28 68  1  0  0  0  0
 28 69  1  0  0  0  0
 29 30  1  0  0  0  0
 29 70  1  0  0  0  0
 29 71  1  0  0  0  0
 30 72  1  0  0  0  0
 31 33  1  0  0  0  0
 31 34  1  0  0  0  0
 31 73  1  0  0  0  0
 32 76  1  0  0  0  0
 32 77  1  0  0  0  0
 32 78  1  0  0  0  0
 33 80  1  0  0  0  0
 33 81  1  0  0  0  0
 33 82  1  0  0  0  0
 34 83  1  0  0  0  0
 34 84  1  0  0  0  0
 34 85  1  0  0  0  0
M  END
> <PUBCHEM_COMPOUND_CID>
10790775

> <PUBCHEM_CONFORMER_RMSD>
1

> <PUBCHEM_CONFORMER_DIVERSEORDER>
1

> <PUBCHEM_MMFF94_PARTIAL_CHARGES>
21
1 -0.68
10 -0.19
11 0.09
13 -0.19
16 0.28
18 -0.2
19 0.28
2 -0.68
21 0.28
23 0.09
28 0.09
3 -0.68
30 0.28
39 0.1
4 -0.68
48 0.1
49 0.1
74 0.4
75 0.4
79 0.4
86 0.4

> <PUBCHEM_EFFECTIVE_ROTOR_COUNT>
6.8

> <PUBCHEM_PHARMACOPHORE_FEATURES>
15
1 1 acceptor
1 1 donor
1 2 acceptor
1 2 donor
1 26 hydrophobe
1 3 acceptor
1 3 donor
1 32 hydrophobe
1 4 acceptor
1 4 donor
3 31 33 34 hydrophobe
5 5 6 7 15 17 rings
6 12 19 24 25 29 30 rings
6 5 6 8 9 14 16 rings
6 8 9 12 19 20 21 rings

> <PUBCHEM_HEAVY_ATOM_COUNT>
34

> <PUBCHEM_ATOM_DEF_STEREO_COUNT>
14

> <PUBCHEM_ATOM_UDEF_STEREO_COUNT>
0

> <PUBCHEM_BOND_DEF_STEREO_COUNT>
0

> <PUBCHEM_BOND_UDEF_STEREO_COUNT>
0

> <PUBCHEM_ISOTOPIC_ATOM_COUNT>
0

> <PUBCHEM_COMPONENT_COUNT>
1

> <PUBCHEM_CACTVS_TAUTO_COUNT>
1

> <PUBCHEM_CONFORMER_ID>
00A4A77700000001

> <PUBCHEM_MMFF94_ENERGY>
142.4619

> <PUBCHEM_FEATURE_SELFOVERLAP>
76.207

> <PUBCHEM_SHAPE_FINGERPRINT>
10 15 18131912668351851571
10906281 52 18201141196568390242
11135926 11 18341622520332253903
11315181 36 17894910716338949747
11456790 92 18271811246056217888
11719270 70 18334580165288239206
12236239 1 17821725009979684238
12422481 6 18343585122848970679
12788726 201 18412265077074607489
12838862 33 18337405892964685340
13811026 1 18412262813779907147
14117953 113 18334292093674064710
14790565 3 18266737991482739693
14933364 13 18342457041283344637
15131766 46 16340863063834503276
15142383 8 18202285814137848844
15183329 4 18408042914317718089
15276724 80 18338801242673234685
15361156 5 18059286557038414462
15439362 3 17769365034206548908
15461852 350 16226052176290828989
15840311 113 18343581816120097117
15849732 13 17918272056868395541
16087824 20 18411981385921476676
18335252 114 18333736831252894028
18608769 82 18342178885820917101
19611394 137 17916289556379301417
20511986 3 18187657868766712847
21033648 29 18263658273005402416
21150785 3 15213020449343073829
21267235 1 18411132542218466070
21792934 111 18338248140594721168
23522609 53 18194651866199584828
23559900 14 18337958891832537216
249057 3 18335138682813629959
255183 451 17825661429412502582
3004659 81 18343304760073792392
335352 9 18410293601107048606
350125 39 18410575093733204428
3633792 109 18261956353712370769
4017518 198 17240478105136279214
4073 2 18059571330545143123
4093350 32 17240758536393263823
4325135 7 18412262848170982269
4340502 62 15985109591926187674
504579 68 17749112188682249581
5104073 3 18340208475258696411
6009941 240 17489583468515316425
6086070 43 17458349589675041075
6328613 192 18410009940698995505

> <PUBCHEM_SHAPE_MULTIPOLES>
676.23
22.45
2.48
1.14
17.62
0.32
0.35
-5.67
-2.02
-0.54
-0.18
0.24
-0.13
0.56

> <PUBCHEM_SHAPE_SELFOVERLAP>
1424.732

> <PUBCHEM_SHAPE_VOLUME>
380.1

> <PUBCHEM_COORDINATE_TYPE>
2
5
10

$$$$

