65049
  -OEChem-07051213093D

 32 33  0     1  0  0  0  0  0999 V2000
   -1.4803   -0.3168    0.9968 O   0  0  0  0  0  0  0  0  0  0  0  0
   -1.0830    0.1740   -1.9361 O   0  0  0  0  0  0  0  0  0  0  0  0
   -3.5660    1.8341    0.0820 O   0  0  0  0  0  0  0  0  0  0  0  0
   -2.8036   -2.7648    0.8644 O   0  0  0  0  0  0  0  0  0  0  0  0
    1.2815    2.7231    0.6001 O   0  0  0  0  0  0  0  0  0  0  0  0
    4.5109   -0.4657   -0.1423 O   0  0  0  0  0  0  0  0  0  0  0  0
    0.5824    0.5206    0.2637 N   0  0  0  0  0  0  0  0  0  0  0  0
    2.8816    1.1228    0.2281 N   0  0  0  0  0  0  0  0  0  0  0  0
   -1.5276    1.0663   -0.9210 C   0  0  1  0  0  0  0  0  0  0  0  0
   -2.9590    0.7200   -0.5685 C   0  0  1  0  0  0  0  0  0  0  0  0
   -0.8155    0.8027    0.3967 C   0  0  1  0  0  0  0  0  0  0  0  0
   -2.8120   -0.4115    0.4504 C   0  0  1  0  0  0  0  0  0  0  0  0
   -2.9681   -1.7978   -0.1585 C   0  0  0  0  0  0  0  0  0  0  0  0
    0.9796   -0.7904    0.0140 C   0  0  0  0  0  0  0  0  0  0  0  0
    1.5552    1.5414    0.3801 C   0  0  0  0  0  0  0  0  0  0  0  0
    2.2497   -1.1875   -0.1310 C   0  0  0  0  0  0  0  0  0  0  0  0
    3.3259   -0.1671   -0.0202 C   0  0  0  0  0  0  0  0  0  0  0  0
    2.6484   -2.6032   -0.3987 C   0  0  0  0  0  0  0  0  0  0  0  0
   -1.3783    2.0947   -1.2640 H   0  0  0  0  0  0  0  0  0  0  0  0
   -3.5826    0.4463   -1.4245 H   0  0  0  0  0  0  0  0  0  0  0  0
   -0.9470    1.6548    1.0747 H   0  0  0  0  0  0  0  0  0  0  0  0
   -3.5063   -0.3008    1.2916 H   0  0  0  0  0  0  0  0  0  0  0  0
   -2.2084   -1.9926   -0.9210 H   0  0  0  0  0  0  0  0  0  0  0  0
   -3.9618   -1.9198   -0.6006 H   0  0  0  0  0  0  0  0  0  0  0  0
   -1.6096    0.3541   -2.7336 H   0  0  0  0  0  0  0  0  0  0  0  0
   -3.0926    2.0151    0.9109 H   0  0  0  0  0  0  0  0  0  0  0  0
    0.1898   -1.5280   -0.0804 H   0  0  0  0  0  0  0  0  0  0  0  0
    3.5951    1.8420    0.3088 H   0  0  0  0  0  0  0  0  0  0  0  0
   -2.9115   -3.6391    0.4526 H   0  0  0  0  0  0  0  0  0  0  0  0
    1.7806   -3.2685   -0.4602 H   0  0  0  0  0  0  0  0  0  0  0  0
    3.2965   -2.9758    0.4012 H   0  0  0  0  0  0  0  0  0  0  0  0
    3.1901   -2.6750   -1.3475 H   0  0  0  0  0  0  0  0  0  0  0  0
  1 11  1  0  0  0  0
  1 12  1  0  0  0  0
  2  9  1  0  0  0  0
  2 25  1  0  0  0  0
  3 10  1  0  0  0  0
  3 26  1  0  0  0  0
  4 13  1  0  0  0  0
  4 29  1  0  0  0  0
  5 15  2  0  0  0  0
  6 17  2  0  0  0  0
  7 11  1  0  0  0  0
  7 14  1  0  0  0  0
  7 15  1  0  0  0  0
  8 15  1  0  0  0  0
  8 17  1  0  0  0  0
  8 28  1  0  0  0  0
  9 10  1  0  0  0  0
  9 11  1  0  0  0  0
  9 19  1  0  0  0  0
 10 12  1  0  0  0  0
 10 20  1  0  0  0  0
 11 21  1  0  0  0  0
 12 13  1  0  0  0  0
 12 22  1  0  0  0  0
 13 23  1  0  0  0  0
 13 24  1  0  0  0  0
 14 16  2  0  0  0  0
 14 27  1  0  0  0  0
 16 17  1  0  0  0  0
 16 18  1  0  0  0  0
 18 30  1  0  0  0  0
 18 31  1  0  0  0  0
 18 32  1  0  0  0  0
M  END
> <PUBCHEM_COMPOUND_CID>
65049

> <PUBCHEM_CONFORMER_RMSD>
0.6

> <PUBCHEM_CONFORMER_DIVERSEORDER>
1
6
8
2
7
4
5
3

> <PUBCHEM_MMFF94_PARTIAL_CHARGES>
23
1 -0.56
10 0.28
11 0.58
12 0.28
13 0.28
14 -0.04
15 0.69
16 -0.12
17 0.62
18 0.14
2 -0.68
25 0.4
26 0.4
27 0.15
28 0.37
29 0.4
3 -0.68
4 -0.68
5 -0.57
6 -0.57
7 -0.47
8 -0.49
9 0.28

> <PUBCHEM_EFFECTIVE_ROTOR_COUNT>
3

> <PUBCHEM_PHARMACOPHORE_FEATURES>
12
1 1 acceptor
1 2 acceptor
1 2 donor
1 3 acceptor
1 3 donor
1 4 acceptor
1 4 donor
1 5 acceptor
1 6 acceptor
1 8 donor
5 1 9 10 11 12 rings
6 7 8 14 15 16 17 rings

> <PUBCHEM_HEAVY_ATOM_COUNT>
18

> <PUBCHEM_ATOM_DEF_STEREO_COUNT>
4

> <PUBCHEM_ATOM_UDEF_STEREO_COUNT>
0

> <PUBCHEM_BOND_DEF_STEREO_COUNT>
0

> <PUBCHEM_BOND_UDEF_STEREO_COUNT>
0

> <PUBCHEM_ISOTOPIC_ATOM_COUNT>
0

> <PUBCHEM_COMPONENT_COUNT>
1

> <PUBCHEM_CACTVS_TAUTO_COUNT>
3

> <PUBCHEM_CONFORMER_ID>
0000FE1900000001

> <PUBCHEM_MMFF94_ENERGY>
45.9771

> <PUBCHEM_FEATURE_SELFOVERLAP>
60.898

> <PUBCHEM_SHAPE_FINGERPRINT>
10608611 8 18411423886265541129
12500047 106 18342461482142443725
12553582 1 17903061580218814314
12932764 1 17561093534962394745
12969540 114 17630348513370376973
13214271 11 18334018302293216452
13296908 3 18335420196677297598
14115302 16 18200018676705793020
14965852 173 18411700976270273745
15219456 202 18411704248766438497
15375462 6 18193839245501480701
16945 1 18408318899740798457
17834074 16 18411980247760047403
19107657 46 18409729581960205142
200 152 17968104100992016167
20201158 50 18412263973420817122
20645477 70 17894636976034031940
21501502 16 18342736273865308929
221490 88 18339073775201058554
23402539 116 16559034904569930414
23559900 14 18338525123104179257
2748010 2 18266753371808424064
2871803 45 18270126690915770955
3286 77 18340491045488652324
3312278 4 18335980947559886800
34934 24 18263369234184763400
5104073 3 18409731742476286616
69090 78 18341054107606945965
74978 22 18409731789583834505
77492 1 17167868581608360740
81228 2 17917710137717661529
8809292 202 18342736303893260986
9709674 26 18409728460968758503

> <PUBCHEM_SHAPE_MULTIPOLES>
325.25
6.55
2.56
0.96
1.77
0.73
0.29
1.48
0.06
-0.19
-0.39
-0.48
0
0.84

> <PUBCHEM_SHAPE_SELFOVERLAP>
684.196

> <PUBCHEM_SHAPE_VOLUME>
183.5

> <PUBCHEM_COORDINATE_TYPE>
2
5
10

$$$$

