243756
  -OEChem-07051213062D

 50 50  0     1  0  0  0  0  0999 V2000
   13.5639    1.7192    0.0000 O   0  0  0  0  0  0  0  0  0  0  0  0
   15.3240    0.4405    0.0000 O   0  0  0  0  0  0  0  0  0  0  0  0
    2.5896   -2.0292    0.0000 O   0  0  0  0  0  0  0  0  0  0  0  0
    3.1249   -0.3820    0.0000 O   0  0  0  0  0  0  0  0  0  0  0  0
   12.7549    0.1314    0.0000 C   0  0  3  0  0  0  0  0  0  0  0  0
   13.5639    0.7192    0.0000 C   0  0  3  0  0  0  0  0  0  0  0  0
   13.0639   -0.8196    0.0000 C   0  0  0  0  0  0  0  0  0  0  0  0
   14.3729    0.1314    0.0000 C   0  0  3  0  0  0  0  0  0  0  0  0
   14.0639   -0.8196    0.0000 C   0  0  0  0  0  0  0  0  0  0  0  0
   11.8038    0.4405    0.0000 C   0  0  0  0  0  0  0  0  0  0  0  0
   11.0607   -0.2287    0.0000 C   0  0  0  0  0  0  0  0  0  0  0  0
   10.1096    0.0804    0.0000 C   0  0  0  0  0  0  0  0  0  0  0  0
    9.3665   -0.5888    0.0000 C   0  0  0  0  0  0  0  0  0  0  0  0
    8.4154   -0.2798    0.0000 C   0  0  0  0  0  0  0  0  0  0  0  0
    7.6723   -0.9489    0.0000 C   0  0  0  0  0  0  0  0  0  0  0  0
    6.7212   -0.6399    0.0000 C   0  0  0  0  0  0  0  0  0  0  0  0
    5.9781   -1.3090    0.0000 C   0  0  0  0  0  0  0  0  0  0  0  0
    5.0270   -1.0000    0.0000 C   0  0  0  0  0  0  0  0  0  0  0  0
    4.2839   -1.6691    0.0000 C   0  0  0  0  0  0  0  0  0  0  0  0
    3.3328   -1.3601    0.0000 C   0  0  0  0  0  0  0  0  0  0  0  0
   12.1538   -0.4696    0.0000 H   0  0  0  0  0  0  0  0  0  0  0  0
   14.3212    1.1051    0.0000 H   0  0  0  0  0  0  0  0  0  0  0  0
   12.4574   -0.9485    0.0000 H   0  0  0  0  0  0  0  0  0  0  0  0
   13.1287   -1.4362    0.0000 H   0  0  0  0  0  0  0  0  0  0  0  0
   14.9739   -0.4696    0.0000 H   0  0  0  0  0  0  0  0  0  0  0  0
   13.9991   -1.4362    0.0000 H   0  0  0  0  0  0  0  0  0  0  0  0
   14.6703   -0.9485    0.0000 H   0  0  0  0  0  0  0  0  0  0  0  0
   12.0949    0.9879    0.0000 H   0  0  0  0  0  0  0  0  0  0  0  0
   11.3152    0.8222    0.0000 H   0  0  0  0  0  0  0  0  0  0  0  0
   10.7696   -0.7761    0.0000 H   0  0  0  0  0  0  0  0  0  0  0  0
   11.5492   -0.6104    0.0000 H   0  0  0  0  0  0  0  0  0  0  0  0
   10.4007    0.6278    0.0000 H   0  0  0  0  0  0  0  0  0  0  0  0
    9.6210    0.4621    0.0000 H   0  0  0  0  0  0  0  0  0  0  0  0
   14.1008    2.0292    0.0000 H   0  0  0  0  0  0  0  0  0  0  0  0
    9.0754   -1.1362    0.0000 H   0  0  0  0  0  0  0  0  0  0  0  0
    9.8550   -0.9705    0.0000 H   0  0  0  0  0  0  0  0  0  0  0  0
   15.7847    0.0256    0.0000 H   0  0  0  0  0  0  0  0  0  0  0  0
    8.7065    0.2677    0.0000 H   0  0  0  0  0  0  0  0  0  0  0  0
    7.9268    0.1019    0.0000 H   0  0  0  0  0  0  0  0  0  0  0  0
    7.3812   -1.4963    0.0000 H   0  0  0  0  0  0  0  0  0  0  0  0
    8.1608   -1.3306    0.0000 H   0  0  0  0  0  0  0  0  0  0  0  0
    7.0123   -0.0924    0.0000 H   0  0  0  0  0  0  0  0  0  0  0  0
    6.2326   -0.2582    0.0000 H   0  0  0  0  0  0  0  0  0  0  0  0
    5.6870   -1.8564    0.0000 H   0  0  0  0  0  0  0  0  0  0  0  0
    6.4666   -1.6907    0.0000 H   0  0  0  0  0  0  0  0  0  0  0  0
    5.3181   -0.4526    0.0000 H   0  0  0  0  0  0  0  0  0  0  0  0
    4.5384   -0.6183    0.0000 H   0  0  0  0  0  0  0  0  0  0  0  0
    3.9928   -2.2165    0.0000 H   0  0  0  0  0  0  0  0  0  0  0  0
    4.7724   -2.0508    0.0000 H   0  0  0  0  0  0  0  0  0  0  0  0
    2.0000   -1.8376    0.0000 H   0  0  0  0  0  0  0  0  0  0  0  0
  1  6  1  0  0  0  0
  1 34  1  0  0  0  0
  2  8  1  0  0  0  0
  2 37  1  0  0  0  0
  3 20  1  0  0  0  0
  3 50  1  0  0  0  0
  4 20  2  0  0  0  0
  5  6  1  0  0  0  0
  5  7  1  0  0  0  0
  5 10  1  0  0  0  0
  5 21  1  0  0  0  0
  6  8  1  0  0  0  0
  6 22  1  0  0  0  0
  7  9  1  0  0  0  0
  7 23  1  0  0  0  0
  7 24  1  0  0  0  0
  8  9  1  0  0  0  0
  8 25  1  0  0  0  0
  9 26  1  0  0  0  0
  9 27  1  0  0  0  0
 10 11  1  0  0  0  0
 10 28  1  0  0  0  0
 10 29  1  0  0  0  0
 11 12  1  0  0  0  0
 11 30  1  0  0  0  0
 11 31  1  0  0  0  0
 12 13  1  0  0  0  0
 12 32  1  0  0  0  0
 12 33  1  0  0  0  0
 13 14  1  0  0  0  0
 13 35  1  0  0  0  0
 13 36  1  0  0  0  0
 14 15  1  0  0  0  0
 14 38  1  0  0  0  0
 14 39  1  0  0  0  0
 15 16  1  0  0  0  0
 15 40  1  0  0  0  0
 15 41  1  0  0  0  0
 16 17  1  0  0  0  0
 16 42  1  0  0  0  0
 16 43  1  0  0  0  0
 17 18  1  0  0  0  0
 17 44  1  0  0  0  0
 17 45  1  0  0  0  0
 18 19  1  0  0  0  0
 18 46  1  0  0  0  0
 18 47  1  0  0  0  0
 19 20  1  0  0  0  0
 19 48  1  0  0  0  0
 19 49  1  0  0  0  0
M  END
> <PUBCHEM_COMPOUND_CID>
243756

> <PUBCHEM_COMPOUND_CANONICALIZED>
1

> <PUBCHEM_CACTVS_COMPLEXITY>
267

> <PUBCHEM_CACTVS_HBOND_ACCEPTOR>
4

> <PUBCHEM_CACTVS_HBOND_DONOR>
3

> <PUBCHEM_CACTVS_ROTATABLE_BOND>
11

> <PUBCHEM_CACTVS_SUBSKEYS>
AAADceB4OAAAAAAAAAAAAAAAAAAAAYAAAAAAAAAAAAAAAAAAAAAAGgAACAAADRSggAIACAAAAgAIAACQCAAAAAAAAAAAAAEAAAABEBIAAAAAQAAEAAABAAGI6OCOAAAAAAAAAAAAAAAAAAAAAIAABCAAAA==

> <PUBCHEM_IUPAC_OPENEYE_NAME>
11-(2,3-dihydroxycyclopentyl)undecanoic acid

> <PUBCHEM_IUPAC_CAS_NAME>
11-(2,3-dihydroxycyclopentyl)undecanoic acid

> <PUBCHEM_IUPAC_NAME>
11-(2,3-dihydroxycyclopentyl)undecanoic acid

> <PUBCHEM_IUPAC_SYSTEMATIC_NAME>
11-[2,3-bis(oxidanyl)cyclopentyl]undecanoic acid

> <PUBCHEM_IUPAC_TRADITIONAL_NAME>
11-(2,3-dihydroxycyclopentyl)undecanoic acid

> <PUBCHEM_IUPAC_INCHI>
InChI=1S/C16H30O4/c17-14-12-11-13(16(14)20)9-7-5-3-1-2-4-6-8-10-15(18)19/h13-14,16-17,20H,1-12H2,(H,18,19)

> <PUBCHEM_IUPAC_INCHIKEY>
NHWAOBNJSBDJAL-UHFFFAOYSA-N

> <PUBCHEM_XLOGP3_AA>
3.7

> <PUBCHEM_EXACT_MASS>
286.214409

> <PUBCHEM_MOLECULAR_FORMULA>
C16H30O4

> <PUBCHEM_MOLECULAR_WEIGHT>
286.407

> <PUBCHEM_OPENEYE_CAN_SMILES>
C1CC(C(C1CCCCCCCCCCC(=O)O)O)O

> <PUBCHEM_OPENEYE_ISO_SMILES>
C1CC(C(C1CCCCCCCCCCC(=O)O)O)O

> <PUBCHEM_CACTVS_TPSA>
77.8

> <PUBCHEM_MONOISOTOPIC_WEIGHT>
286.214409

> <PUBCHEM_TOTAL_CHARGE>
0

> <PUBCHEM_HEAVY_ATOM_COUNT>
20

> <PUBCHEM_ATOM_DEF_STEREO_COUNT>
0

> <PUBCHEM_ATOM_UDEF_STEREO_COUNT>
3

> <PUBCHEM_BOND_DEF_STEREO_COUNT>
0

> <PUBCHEM_BOND_UDEF_STEREO_COUNT>
0

> <PUBCHEM_ISOTOPIC_ATOM_COUNT>
0

> <PUBCHEM_COMPONENT_COUNT>
1

> <PUBCHEM_CACTVS_TAUTO_COUNT>
1

> <PUBCHEM_COORDINATE_TYPE>
1
5
255

> <PUBCHEM_BONDANNOTATIONS>
5  21  3
6  22  3
8  25  3

$$$$

