442477
  -OEChem-07051212582D

 42 46  0     1  0  0  0  0  0999 V2000
    3.6928    2.3862    0.0000 O   0  0  0  0  0  0  0  0  0  0  0  0
    5.1786   -1.7725    0.0000 O   0  0  0  0  0  0  0  0  0  0  0  0
    2.0000    0.6855    0.0000 N   0  0  3  0  0  0  0  0  0  0  0  0
    2.8660    0.1855    0.0000 C   0  0  1  0  0  0  0  0  0  0  0  0
    2.5000    1.1855    0.0000 C   0  0  2  0  0  0  0  0  0  0  0  0
    3.7320    0.6855    0.0000 C   0  0  2  0  0  0  0  0  0  0  0  0
    2.8660    2.1855    0.0000 C   0  0  3  0  0  0  0  0  0  0  0  0
    3.7320    1.6855    0.0000 C   0  0  0  0  0  0  0  0  0  0  0  0
    4.2667   -0.2084    0.0000 C   0  0  2  0  0  0  0  0  0  0  0  0
    2.0000    1.6855    0.0000 C   0  0  0  0  0  0  0  0  0  0  0  0
    2.3314   -0.7084    0.0000 C   0  0  0  0  0  0  0  0  0  0  0  0
    5.5841    0.6579    0.0000 C   0  0  0  0  0  0  0  0  0  0  0  0
    3.4740    1.4104    0.0000 C   0  0  0  0  0  0  0  0  0  0  0  0
    4.2588    0.7912    0.0000 C   0  0  0  0  0  0  0  0  0  0  0  0
    2.8006   -1.4478    0.0000 C   0  0  1  0  0  0  0  0  0  0  0  0
    3.7975   -1.2812    0.0000 C   0  0  0  0  0  0  0  0  0  0  0  0
    2.8779   -0.8906    0.0000 C   0  0  0  0  0  0  0  0  0  0  0  0
    4.6820   -0.9046    0.0000 C   0  0  2  0  0  0  0  0  0  0  0  0
    2.4549   -2.3862    0.0000 C   0  0  0  0  0  0  0  0  0  0  0  0
    4.4682    0.2605    0.0000 H   0  0  0  0  0  0  0  0  0  0  0  0
    2.8660    3.0355    0.0000 H   0  0  0  0  0  0  0  0  0  0  0  0
    4.3426    1.5779    0.0000 H   0  0  0  0  0  0  0  0  0  0  0  0
    3.9441    2.2681    0.0000 H   0  0  0  0  0  0  0  0  0  0  0  0
    5.0994   -0.3791    0.0000 H   0  0  0  0  0  0  0  0  0  0  0  0
    1.7880    2.2681    0.0000 H   0  0  0  0  0  0  0  0  0  0  0  0
    1.3894    1.5779    0.0000 H   0  0  0  0  0  0  0  0  0  0  0  0
    1.8550   -0.3116    0.0000 H   0  0  0  0  0  0  0  0  0  0  0  0
    1.8656   -1.1176    0.0000 H   0  0  0  0  0  0  0  0  0  0  0  0
    6.1538    0.4133    0.0000 H   0  0  0  0  0  0  0  0  0  0  0  0
    5.7599    1.2524    0.0000 H   0  0  0  0  0  0  0  0  0  0  0  0
    4.8642    0.6575    0.0000 H   0  0  0  0  0  0  0  0  0  0  0  0
    4.5244    1.3514    0.0000 H   0  0  0  0  0  0  0  0  0  0  0  0
    2.1840   -1.5136    0.0000 H   0  0  0  0  0  0  0  0  0  0  0  0
    3.7808   -1.9009    0.0000 H   0  0  0  0  0  0  0  0  0  0  0  0
    4.4026   -1.4162    0.0000 H   0  0  0  0  0  0  0  0  0  0  0  0
    2.2926   -1.0952    0.0000 H   0  0  0  0  0  0  0  0  0  0  0  0
    2.9793   -1.5023    0.0000 H   0  0  0  0  0  0  0  0  0  0  0  0
    4.3689   -1.4397    0.0000 H   0  0  0  0  0  0  0  0  0  0  0  0
    1.8731   -2.1719    0.0000 H   0  0  0  0  0  0  0  0  0  0  0  0
    2.2406   -2.9680    0.0000 H   0  0  0  0  0  0  0  0  0  0  0  0
    3.0367   -2.6005    0.0000 H   0  0  0  0  0  0  0  0  0  0  0  0
    5.7986   -1.7749    0.0000 H   0  0  0  0  0  0  0  0  0  0  0  0
  1 13  2  0  0  0  0
 18  2  1  1  0  0  0
  2 42  1  0  0  0  0
  3  4  1  0  0  0  0
  3 10  1  0  0  0  0
  3 17  1  0  0  0  0
  4  5  1  0  0  0  0
  4  6  1  0  0  0  0
  4 11  1  6  0  0  0
  5  7  1  0  0  0  0
  5 12  1  6  0  0  0
  5 13  1  0  0  0  0
  6  8  1  0  0  0  0
  6  9  1  0  0  0  0
  6 20  1  1  0  0  0
  7  8  1  0  0  0  0
  7 10  1  0  0  0  0
  7 21  1  0  0  0  0
  8 22  1  0  0  0  0
  8 23  1  0  0  0  0
  9 14  1  0  0  0  0
  9 16  1  0  0  0  0
  9 24  1  1  0  0  0
 10 25  1  0  0  0  0
 10 26  1  0  0  0  0
 11 15  1  0  0  0  0
 11 27  1  0  0  0  0
 11 28  1  0  0  0  0
 12 18  1  0  0  0  0
 12 29  1  0  0  0  0
 12 30  1  0  0  0  0
 13 14  1  0  0  0  0
 14 31  1  0  0  0  0
 14 32  1  0  0  0  0
 15 16  1  0  0  0  0
 15 19  1  1  0  0  0
 15 33  1  0  0  0  0
 16 34  1  0  0  0  0
 16 35  1  0  0  0  0
 17 18  1  0  0  0  0
 17 36  1  0  0  0  0
 17 37  1  0  0  0  0
 18 38  1  0  0  0  0
 19 39  1  0  0  0  0
 19 40  1  0  0  0  0
 19 41  1  0  0  0  0
M  END
> <PUBCHEM_COMPOUND_CID>
442477

> <PUBCHEM_COMPOUND_CANONICALIZED>
1

> <PUBCHEM_CACTVS_COMPLEXITY>
477

> <PUBCHEM_CACTVS_HBOND_ACCEPTOR>
3

> <PUBCHEM_CACTVS_HBOND_DONOR>
1

> <PUBCHEM_CACTVS_ROTATABLE_BOND>
0

> <PUBCHEM_CACTVS_SUBSKEYS>
AAADceB6MAAAAAAAAAAAAAAAAAAAAeIAAAA8eIEAB4gYAACwAAAAHgAACAAAD5zhgAYCAAMAAgAIAIAQAAAAAAAAAAAAAAEIAAACEBoAgAAEQAAEAACQAAG+2fKfgAAAAAAAAACAAASAACQAASAACQAAAA==

> <PUBCHEM_IUPAC_INCHI>
InChI=1S/C16H23NO2/c1-9-2-10-3-14(19)15-6-12(18)8-17-7-11(15)4-13(10)16(15,17)5-9/h9-13,18H,2-8H2,1H3/t9-,10+,11?,12-,13-,15+,16-/m1/s1

> <PUBCHEM_IUPAC_INCHIKEY>
BWBRKWAEVBWZTL-NMJBVOQTSA-N

> <PUBCHEM_XLOGP3_AA>
1.1

> <PUBCHEM_EXACT_MASS>
261.172879

> <PUBCHEM_MOLECULAR_FORMULA>
C16H23NO2

> <PUBCHEM_MOLECULAR_WEIGHT>
261.35932

> <PUBCHEM_OPENEYE_CAN_SMILES>
CC1CC2CC(=O)C34CC(CN5C3(C1)C2CC4C5)O

> <PUBCHEM_OPENEYE_ISO_SMILES>
C[C@@H]1C[C@H]2CC(=O)[C@@]34C[C@H](CN5[C@]3(C1)[C@@H]2CC4C5)O

> <PUBCHEM_CACTVS_TPSA>
40.5

> <PUBCHEM_MONOISOTOPIC_WEIGHT>
261.172879

> <PUBCHEM_TOTAL_CHARGE>
0

> <PUBCHEM_HEAVY_ATOM_COUNT>
19

> <PUBCHEM_ATOM_DEF_STEREO_COUNT>
6

> <PUBCHEM_ATOM_UDEF_STEREO_COUNT>
1

> <PUBCHEM_BOND_DEF_STEREO_COUNT>
0

> <PUBCHEM_BOND_UDEF_STEREO_COUNT>
0

> <PUBCHEM_ISOTOPIC_ATOM_COUNT>
0

> <PUBCHEM_COMPONENT_COUNT>
1

> <PUBCHEM_CACTVS_TAUTO_COUNT>
1

> <PUBCHEM_COORDINATE_TYPE>
1
5
255

> <PUBCHEM_BONDANNOTATIONS>
15  19  5
18  2  5
4  11  6
5  12  6
6  20  5
7  21  3
9  24  5

$$$$

