442387
  -OEChem-07051212583D

 47 49  0     1  0  0  0  0  0999 V2000
   -3.5055   -0.0059    0.9205 O   0  0  0  0  0  0  0  0  0  0  0  0
   -1.9319   -0.0126   -1.8568 O   0  0  0  0  0  0  0  0  0  0  0  0
    2.7460   -0.3498   -0.3635 O   0  0  0  0  0  0  0  0  0  0  0  0
    4.8248    0.6455   -0.2077 O   0  0  0  0  0  0  0  0  0  0  0  0
   -1.5186    0.0206   -0.4498 C   0  0  2  0  0  0  0  0  0  0  0  0
   -1.7144   -1.3746    0.1781 C   0  0  1  0  0  0  0  0  0  0  0  0
   -2.5769    0.8936    0.2803 C   0  0  1  0  0  0  0  0  0  0  0  0
   -0.0536    0.4928   -0.4773 C   0  0  0  0  0  0  0  0  0  0  0  0
    0.7431    0.2598    0.8116 C   0  0  1  0  0  0  0  0  0  0  0  0
   -0.9045   -1.5243    1.4886 C   0  0  0  0  0  0  0  0  0  0  0  0
   -3.2091   -1.3496    0.5090 C   0  0  0  0  0  0  0  0  0  0  0  0
    0.5702   -1.1730    1.3189 C   0  0  0  0  0  0  0  0  0  0  0  0
   -1.3943   -2.5398   -0.7696 C   0  0  0  0  0  0  0  0  0  0  0  0
    2.2233    0.5751    0.5902 C   0  0  0  0  0  0  0  0  0  0  0  0
   -3.2724    1.5549   -0.8576 C   0  0  0  0  0  0  0  0  0  0  0  0
   -2.1134    1.9094    1.3121 C   0  0  0  0  0  0  0  0  0  0  0  0
   -2.8558    0.9966   -1.9844 C   0  0  0  0  0  0  0  0  0  0  0  0
    3.0101    0.4305    1.8914 C   0  0  0  0  0  0  0  0  0  0  0  0
    2.3913    1.9780    0.0122 C   0  0  0  0  0  0  0  0  0  0  0  0
    4.0673   -0.1970   -0.6699 C   0  0  0  0  0  0  0  0  0  0  0  0
    4.4745   -1.2302   -1.6761 C   0  0  0  0  0  0  0  0  0  0  0  0
   -0.0424    1.5518   -0.7616 H   0  0  0  0  0  0  0  0  0  0  0  0
    0.4451   -0.0248   -1.3090 H   0  0  0  0  0  0  0  0  0  0  0  0
    0.3644    0.9383    1.5833 H   0  0  0  0  0  0  0  0  0  0  0  0
   -0.9881   -2.5522    1.8645 H   0  0  0  0  0  0  0  0  0  0  0  0
   -1.3251   -0.8888    2.2777 H   0  0  0  0  0  0  0  0  0  0  0  0
   -3.8330   -1.5753   -0.3636 H   0  0  0  0  0  0  0  0  0  0  0  0
   -3.4870   -2.0402    1.3116 H   0  0  0  0  0  0  0  0  0  0  0  0
    1.0538   -1.2989    2.2942 H   0  0  0  0  0  0  0  0  0  0  0  0
    1.0409   -1.8947    0.6419 H   0  0  0  0  0  0  0  0  0  0  0  0
   -1.5412   -3.5034   -0.2690 H   0  0  0  0  0  0  0  0  0  0  0  0
   -2.0429   -2.5372   -1.6525 H   0  0  0  0  0  0  0  0  0  0  0  0
   -0.3594   -2.4986   -1.1238 H   0  0  0  0  0  0  0  0  0  0  0  0
   -4.0277    2.3221   -0.7818 H   0  0  0  0  0  0  0  0  0  0  0  0
   -1.3767    2.6113    0.9094 H   0  0  0  0  0  0  0  0  0  0  0  0
   -2.9634    2.4978    1.6801 H   0  0  0  0  0  0  0  0  0  0  0  0
   -1.6975    1.4191    2.1970 H   0  0  0  0  0  0  0  0  0  0  0  0
   -3.1818    1.1946   -2.9894 H   0  0  0  0  0  0  0  0  0  0  0  0
    3.9634    0.9676    1.8936 H   0  0  0  0  0  0  0  0  0  0  0  0
    2.4473    0.8440    2.7368 H   0  0  0  0  0  0  0  0  0  0  0  0
    3.2438   -0.6169    2.1140 H   0  0  0  0  0  0  0  0  0  0  0  0
    2.1945    2.0089   -1.0658 H   0  0  0  0  0  0  0  0  0  0  0  0
    3.3927    2.3963    0.1534 H   0  0  0  0  0  0  0  0  0  0  0  0
    1.7175    2.6877    0.5076 H   0  0  0  0  0  0  0  0  0  0  0  0
    3.8896   -1.1066   -2.5910 H   0  0  0  0  0  0  0  0  0  0  0  0
    4.3309   -2.2300   -1.2589 H   0  0  0  0  0  0  0  0  0  0  0  0
    5.5332   -1.1024   -1.9191 H   0  0  0  0  0  0  0  0  0  0  0  0
  1  7  1  0  0  0  0
  1 11  1  0  0  0  0
  2  5  1  0  0  0  0
  2 17  1  0  0  0  0
  3 14  1  0  0  0  0
  3 20  1  0  0  0  0
  4 20  2  0  0  0  0
  5  6  1  0  0  0  0
  5  7  1  0  0  0  0
  5  8  1  0  0  0  0
  6 10  1  0  0  0  0
  6 11  1  0  0  0  0
  6 13  1  0  0  0  0
  7 15  1  0  0  0  0
  7 16  1  0  0  0  0
  8  9  1  0  0  0  0
  8 22  1  0  0  0  0
  8 23  1  0  0  0  0
  9 12  1  0  0  0  0
  9 14  1  0  0  0  0
  9 24  1  0  0  0  0
 10 12  1  0  0  0  0
 10 25  1  0  0  0  0
 10 26  1  0  0  0  0
 11 27  1  0  0  0  0
 11 28  1  0  0  0  0
 12 29  1  0  0  0  0
 12 30  1  0  0  0  0
 13 31  1  0  0  0  0
 13 32  1  0  0  0  0
 13 33  1  0  0  0  0
 14 18  1  0  0  0  0
 14 19  1  0  0  0  0
 15 17  2  0  0  0  0
 15 34  1  0  0  0  0
 16 35  1  0  0  0  0
 16 36  1  0  0  0  0
 16 37  1  0  0  0  0
 17 38  1  0  0  0  0
 18 39  1  0  0  0  0
 18 40  1  0  0  0  0
 18 41  1  0  0  0  0
 19 42  1  0  0  0  0
 19 43  1  0  0  0  0
 19 44  1  0  0  0  0
 20 21  1  0  0  0  0
 21 45  1  0  0  0  0
 21 46  1  0  0  0  0
 21 47  1  0  0  0  0
M  END
> <PUBCHEM_COMPOUND_CID>
442387

> <PUBCHEM_CONFORMER_RMSD>
0.6

> <PUBCHEM_CONFORMER_DIVERSEORDER>
1
17
9
13
11
3
14
8
16
6
12
2
7
15
5
10
4

> <PUBCHEM_MMFF94_PARTIAL_CHARGES>
14
1 -0.56
11 0.28
14 0.28
15 -0.29
17 -0.07
2 -0.36
20 0.66
21 0.06
3 -0.43
34 0.15
38 0.15
4 -0.57
5 0.28
7 0.42

> <PUBCHEM_EFFECTIVE_ROTOR_COUNT>
4.4

> <PUBCHEM_PHARMACOPHORE_FEATURES>
7
1 1 acceptor
1 2 acceptor
1 4 acceptor
3 14 18 19 hydrophobe
5 1 5 6 7 11 rings
5 2 5 7 15 17 rings
6 5 6 8 9 10 12 rings

> <PUBCHEM_HEAVY_ATOM_COUNT>
21

> <PUBCHEM_ATOM_DEF_STEREO_COUNT>
4

> <PUBCHEM_ATOM_UDEF_STEREO_COUNT>
0

> <PUBCHEM_BOND_DEF_STEREO_COUNT>
0

> <PUBCHEM_BOND_UDEF_STEREO_COUNT>
0

> <PUBCHEM_ISOTOPIC_ATOM_COUNT>
0

> <PUBCHEM_COMPONENT_COUNT>
1

> <PUBCHEM_CACTVS_TAUTO_COUNT>
1

> <PUBCHEM_CONFORMER_ID>
0006C01300000001

> <PUBCHEM_MMFF94_ENERGY>
83.6971

> <PUBCHEM_FEATURE_SELFOVERLAP>
36.361

> <PUBCHEM_SHAPE_FINGERPRINT>
10062212 137 14851887014429708493
10498660 4 17703796933002241956
10863032 1 17560535000857586233
10948715 1 16843903060200554829
11578080 2 15358561768229499874
12173636 292 18259703406593758945
12186901 62 18201996646763954311
12633257 1 12607405503142600132
13024252 1 13758081796700059865
13224815 77 16128382562331796720
13296908 3 18186802439908471754
13693222 15 10231755578559676940
14251751 93 18060415824321027318
14386348 128 17989211472707236748
15163728 17 17627518464597848901
15309172 13 16415478237893167122
15534591 1 18041838553600318545
15775835 57 17703795846259308672
16752209 62 18130522837655698699
16945 1 18337686277114687513
17834072 14 6050152307944624730
18186145 218 18412829088148661968
19862831 5 18337681904869823396
19868273 293 18059586796737732092
200 152 14273745048570433116
20510252 161 18270401573069709737
20645477 70 18040705996779029790
20775530 9 13843971113254941629
21069387 34 16877949338616865876
21475661 188 15046986685735107853
21864079 5 16773790381857021508
22646028 28 14273460266806326340
22854114 59 11023818453910497278
23419403 2 16752742224491841831
23557571 272 18044394733044959858
23559900 14 18411699907677842442
296302 2 5833986157339285458
312423 11 16343712044701850642
5161694 15 18260546744939317628
6049 1 18262237712033998104
633830 44 18408889563508451656
74978 22 18410582764323294448
81228 2 17770782303855104795

> <PUBCHEM_SHAPE_MULTIPOLES>
408.69
7.59
2.03
1.75
7.55
0.39
0.19
-0.78
2.15
-0.99
-0.01
0.01
0.03
0.9

> <PUBCHEM_SHAPE_SELFOVERLAP>
874.265

> <PUBCHEM_SHAPE_VOLUME>
226.8

> <PUBCHEM_COORDINATE_TYPE>
2
5
10

$$$$

