5748
  -OEChem-06261200512D

 60 60  0     1  0  0  0  0  0999 V2000
    3.5068    0.0000    0.0000 Br  0  5  0  0  0  0  0  0  0  0  0  0
    0.4766    6.2690    0.0000 O   0  0  0  0  0  0  0  0  0  0  0  0
    2.9766    5.4030    0.0000 O   0  0  0  0  0  0  0  0  0  0  0  0
    2.9766    7.1350    0.0000 O   0  0  0  0  0  0  0  0  0  0  0  0
    5.4766    4.5369    0.0000 N   0  3  0  0  0  0  0  0  0  0  0  0
    1.4766    5.2690    0.0000 C   0  0  0  0  0  0  0  0  0  0  0  0
    0.6106    4.7690    0.0000 C   0  0  0  0  0  0  0  0  0  0  0  0
    2.3426    4.7690    0.0000 C   0  0  0  0  0  0  0  0  0  0  0  0
    1.4766    6.2690    0.0000 C   0  0  3  0  0  0  0  0  0  0  0  0
    2.3426    3.7690    0.0000 C   0  0  0  0  0  0  0  0  0  0  0  0
    0.6106    3.7690    0.0000 C   0  0  0  0  0  0  0  0  0  0  0  0
    1.4766    3.2690    0.0000 C   0  0  0  0  0  0  0  0  0  0  0  0
    1.4766    7.2690    0.0000 C   0  0  0  0  0  0  0  0  0  0  0  0
    4.4766    4.5369    0.0000 C   0  0  0  0  0  0  0  0  0  0  0  0
    2.4766    6.2690    0.0000 C   0  0  0  0  0  0  0  0  0  0  0  0
    6.4766    4.5369    0.0000 C   0  0  0  0  0  0  0  0  0  0  0  0
    5.4766    3.5369    0.0000 C   0  0  0  0  0  0  0  0  0  0  0  0
    3.9766    5.4030    0.0000 C   0  0  0  0  0  0  0  0  0  0  0  0
    5.4766    5.5369    0.0000 C   0  0  0  0  0  0  0  0  0  0  0  0
    2.3426    7.7690    0.0000 C   0  0  0  0  0  0  0  0  0  0  0  0
    0.6106    7.7690    0.0000 C   0  0  0  0  0  0  0  0  0  0  0  0
    6.9766    3.6709    0.0000 C   0  0  0  0  0  0  0  0  0  0  0  0
    4.6106    3.0369    0.0000 C   0  0  0  0  0  0  0  0  0  0  0  0
    2.3426    8.7690    0.0000 C   0  0  0  0  0  0  0  0  0  0  0  0
    0.6106    8.7690    0.0000 C   0  0  0  0  0  0  0  0  0  0  0  0
    1.4766    9.2690    0.0000 C   0  0  0  0  0  0  0  0  0  0  0  0
    2.0135    5.5790    0.0000 H   0  0  0  0  0  0  0  0  0  0  0  0
    0.3985    5.3516    0.0000 H   0  0  0  0  0  0  0  0  0  0  0  0
    0.0000    4.6613    0.0000 H   0  0  0  0  0  0  0  0  0  0  0  0
    2.9532    4.6613    0.0000 H   0  0  0  0  0  0  0  0  0  0  0  0
    2.5547    5.3516    0.0000 H   0  0  0  0  0  0  0  0  0  0  0  0
    2.5547    3.1864    0.0000 H   0  0  0  0  0  0  0  0  0  0  0  0
    2.9532    3.8766    0.0000 H   0  0  0  0  0  0  0  0  0  0  0  0
    0.0000    3.8766    0.0000 H   0  0  0  0  0  0  0  0  0  0  0  0
    0.3985    3.1864    0.0000 H   0  0  0  0  0  0  0  0  0  0  0  0
    1.0781    2.7940    0.0000 H   0  0  0  0  0  0  0  0  0  0  0  0
    1.8751    2.7940    0.0000 H   0  0  0  0  0  0  0  0  0  0  0  0
    3.8940    4.3249    0.0000 H   0  0  0  0  0  0  0  0  0  0  0  0
    4.5843    3.9264    0.0000 H   0  0  0  0  0  0  0  0  0  0  0  0
    7.0592    4.7490    0.0000 H   0  0  0  0  0  0  0  0  0  0  0  0
    6.3689    5.1475    0.0000 H   0  0  0  0  0  0  0  0  0  0  0  0
    5.6887    2.9543    0.0000 H   0  0  0  0  0  0  0  0  0  0  0  0
    6.0872    3.6446    0.0000 H   0  0  0  0  0  0  0  0  0  0  0  0
    4.5592    5.6150    0.0000 H   0  0  0  0  0  0  0  0  0  0  0  0
    3.8689    6.0135    0.0000 H   0  0  0  0  0  0  0  0  0  0  0  0
    6.0966    5.5369    0.0000 H   0  0  0  0  0  0  0  0  0  0  0  0
    5.4766    6.1569    0.0000 H   0  0  0  0  0  0  0  0  0  0  0  0
    4.8566    5.5369    0.0000 H   0  0  0  0  0  0  0  0  0  0  0  0
    0.1666    6.8059    0.0000 H   0  0  0  0  0  0  0  0  0  0  0  0
    2.8796    7.4590    0.0000 H   0  0  0  0  0  0  0  0  0  0  0  0
    0.0736    7.4590    0.0000 H   0  0  0  0  0  0  0  0  0  0  0  0
    4.3006    3.5739    0.0000 H   0  0  0  0  0  0  0  0  0  0  0  0
    4.0736    2.7269    0.0000 H   0  0  0  0  0  0  0  0  0  0  0  0
    4.9206    2.5000    0.0000 H   0  0  0  0  0  0  0  0  0  0  0  0
    6.4397    3.3609    0.0000 H   0  0  0  0  0  0  0  0  0  0  0  0
    7.2866    3.1340    0.0000 H   0  0  0  0  0  0  0  0  0  0  0  0
    7.5135    3.9809    0.0000 H   0  0  0  0  0  0  0  0  0  0  0  0
    2.8796    9.0790    0.0000 H   0  0  0  0  0  0  0  0  0  0  0  0
    0.0736    9.0790    0.0000 H   0  0  0  0  0  0  0  0  0  0  0  0
    1.4766    9.8890    0.0000 H   0  0  0  0  0  0  0  0  0  0  0  0
  2  9  1  0  0  0  0
  2 49  1  0  0  0  0
  3 15  1  0  0  0  0
  3 18  1  0  0  0  0
  4 15  2  0  0  0  0
  5 14  1  0  0  0  0
  5 16  1  0  0  0  0
  5 17  1  0  0  0  0
  5 19  1  0  0  0  0
  6  7  1  0  0  0  0
  6  8  1  0  0  0  0
  6  9  1  0  0  0  0
  6 27  1  0  0  0  0
  7 11  1  0  0  0  0
  7 28  1  0  0  0  0
  7 29  1  0  0  0  0
  8 10  1  0  0  0  0
  8 30  1  0  0  0  0
  8 31  1  0  0  0  0
  9 13  1  0  0  0  0
  9 15  1  0  0  0  0
 10 12  1  0  0  0  0
 10 32  1  0  0  0  0
 10 33  1  0  0  0  0
 11 12  1  0  0  0  0
 11 34  1  0  0  0  0
 11 35  1  0  0  0  0
 12 36  1  0  0  0  0
 12 37  1  0  0  0  0
 13 20  2  0  0  0  0
 13 21  1  0  0  0  0
 14 18  1  0  0  0  0
 14 38  1  0  0  0  0
 14 39  1  0  0  0  0
 16 22  1  0  0  0  0
 16 40  1  0  0  0  0
 16 41  1  0  0  0  0
 17 23  1  0  0  0  0
 17 42  1  0  0  0  0
 17 43  1  0  0  0  0
 18 44  1  0  0  0  0
 18 45  1  0  0  0  0
 19 46  1  0  0  0  0
 19 47  1  0  0  0  0
 19 48  1  0  0  0  0
 20 24  1  0  0  0  0
 20 50  1  0  0  0  0
 21 25  2  0  0  0  0
 21 51  1  0  0  0  0
 22 55  1  0  0  0  0
 22 56  1  0  0  0  0
 22 57  1  0  0  0  0
 23 52  1  0  0  0  0
 23 53  1  0  0  0  0
 23 54  1  0  0  0  0
 24 26  2  0  0  0  0
 24 58  1  0  0  0  0
 25 26  1  0  0  0  0
 25 59  1  0  0  0  0
 26 60  1  0  0  0  0
M  CHG  2   1  -1   5   1
M  END
> <PUBCHEM_COMPOUND_CID>
5748

> <PUBCHEM_COMPOUND_CANONICALIZED>
1

> <PUBCHEM_CACTVS_COMPLEXITY>
409

> <PUBCHEM_CACTVS_HBOND_ACCEPTOR>
4

> <PUBCHEM_CACTVS_HBOND_DONOR>
1

> <PUBCHEM_CACTVS_ROTATABLE_BOND>
9

> <PUBCHEM_CACTVS_SUBSKEYS>
AAADcfB6MAAAEAAAAAAAAAAAAAAAAAAAAAAwYAAAAAAAAAABAAAAHgAACAAADUThmAYyCIMABgCIAiDSCAICAAAgAAAIiAFICIgLJjKAFRCDcAAkwAGbmAeIyOCOgAAAAAAAAAAAAAAAAAAAAAAAAAAAAA==

> <PUBCHEM_IUPAC_OPENEYE_NAME>
2-(2-cyclohexyl-2-hydroxy-2-phenyl-acetyl)oxyethyl-diethyl-methyl-ammonium bromide

> <PUBCHEM_IUPAC_CAS_NAME>
2-(2-cyclohexyl-2-hydroxy-1-oxo-2-phenylethoxy)ethyl-diethyl-methylammonium bromide

> <PUBCHEM_IUPAC_NAME>
2-(2-cyclohexyl-2-hydroxy-2-phenylacetyl)oxyethyl-diethyl-methylazanium bromide

> <PUBCHEM_IUPAC_SYSTEMATIC_NAME>
2-(2-cyclohexyl-2-oxidanyl-2-phenyl-ethanoyl)oxyethyl-diethyl-methyl-azanium bromide

> <PUBCHEM_IUPAC_TRADITIONAL_NAME>
2-(2-cyclohexyl-2-hydroxy-2-phenyl-acetyl)oxyethyl-diethyl-methyl-ammonium bromide

> <PUBCHEM_IUPAC_INCHI>
InChI=1S/C21H34NO3.BrH/c1-4-22(3,5-2)16-17-25-20(23)21(24,18-12-8-6-9-13-18)19-14-10-7-11-15-19;/h6,8-9,12-13,19,24H,4-5,7,10-11,14-17H2,1-3H3;1H/q+1;/p-1

> <PUBCHEM_IUPAC_INCHIKEY>
UKLQXHUGTKWPSR-UHFFFAOYSA-M

> <PUBCHEM_EXACT_MASS>
427.172206

> <PUBCHEM_MOLECULAR_FORMULA>
C21H34BrNO3

> <PUBCHEM_MOLECULAR_WEIGHT>
428.40356

> <PUBCHEM_OPENEYE_CAN_SMILES>
CC[N+](C)(CC)CCOC(=O)C(C1CCCCC1)(C2=CC=CC=C2)O.[Br-]

> <PUBCHEM_OPENEYE_ISO_SMILES>
CC[N+](C)(CC)CCOC(=O)C(C1CCCCC1)(C2=CC=CC=C2)O.[Br-]

> <PUBCHEM_CACTVS_TPSA>
46.5

> <PUBCHEM_MONOISOTOPIC_WEIGHT>
427.172206

> <PUBCHEM_TOTAL_CHARGE>
0

> <PUBCHEM_HEAVY_ATOM_COUNT>
26

> <PUBCHEM_ATOM_DEF_STEREO_COUNT>
0

> <PUBCHEM_ATOM_UDEF_STEREO_COUNT>
1

> <PUBCHEM_BOND_DEF_STEREO_COUNT>
0

> <PUBCHEM_BOND_UDEF_STEREO_COUNT>
0

> <PUBCHEM_ISOTOPIC_ATOM_COUNT>
0

> <PUBCHEM_COMPONENT_COUNT>
2

> <PUBCHEM_CACTVS_TAUTO_COUNT>
1

> <PUBCHEM_COORDINATE_TYPE>
1
5
255

> <PUBCHEM_BONDANNOTATIONS>
13  20  8
13  21  8
20  24  8
21  25  8
24  26  8
25  26  8
9  15  3

$$$$

