8960
  -OEChem-06261203162D

 30 32  0     0  0  0  0  0  0999 V2000
    8.1962    1.0304    0.0000 S   0  0  0  0  0  0  0  0  0  0  0  0
    6.4144    2.0408    0.0000 O   0  0  0  0  0  0  0  0  0  0  0  0
    6.4144   -2.0284    0.0000 O   0  0  0  0  0  0  0  0  0  0  0  0
    4.6660    2.0062    0.0000 O   0  0  0  0  0  0  0  0  0  0  0  0
    4.6660   -1.9938    0.0000 O   0  0  0  0  0  0  0  0  0  0  0  0
    9.0602    1.5337    0.0000 O   0  0  0  0  0  0  0  0  0  0  0  0
    8.6995    0.1663    0.0000 O   0  0  0  0  0  0  0  0  0  0  0  0
    7.6928    1.8944    0.0000 O   0  0  0  0  0  0  0  0  0  0  0  0
    5.5321    0.5062    0.0000 C   0  0  0  0  0  0  0  0  0  0  0  0
    5.5321   -0.4938    0.0000 C   0  0  0  0  0  0  0  0  0  0  0  0
    3.8000    0.5062    0.0000 C   0  0  0  0  0  0  0  0  0  0  0  0
    3.8000   -0.4938    0.0000 C   0  0  0  0  0  0  0  0  0  0  0  0
    6.4260    1.0409    0.0000 C   0  0  0  0  0  0  0  0  0  0  0  0
    4.6660    1.0062    0.0000 C   0  0  0  0  0  0  0  0  0  0  0  0
    4.6660   -0.9938    0.0000 C   0  0  0  0  0  0  0  0  0  0  0  0
    7.3321    0.5270    0.0000 C   0  0  0  0  0  0  0  0  0  0  0  0
    6.4260   -1.0284    0.0000 C   0  0  0  0  0  0  0  0  0  0  0  0
    7.3321   -0.5146    0.0000 C   0  0  0  0  0  0  0  0  0  0  0  0
    2.9061    1.0409    0.0000 C   0  0  0  0  0  0  0  0  0  0  0  0
    2.9061   -1.0284    0.0000 C   0  0  0  0  0  0  0  0  0  0  0  0
    2.0000    0.5270    0.0000 C   0  0  0  0  0  0  0  0  0  0  0  0
    2.0000   -0.5146    0.0000 C   0  0  0  0  0  0  0  0  0  0  0  0
    7.8678   -0.8267    0.0000 H   0  0  0  0  0  0  0  0  0  0  0  0
    2.9132    1.6608    0.0000 H   0  0  0  0  0  0  0  0  0  0  0  0
    2.9132   -1.6484    0.0000 H   0  0  0  0  0  0  0  0  0  0  0  0
    1.4643    0.8391    0.0000 H   0  0  0  0  0  0  0  0  0  0  0  0
    1.4643   -0.8267    0.0000 H   0  0  0  0  0  0  0  0  0  0  0  0
    5.8740    2.3446    0.0000 H   0  0  0  0  0  0  0  0  0  0  0  0
    6.9478   -2.3446    0.0000 H   0  0  0  0  0  0  0  0  0  0  0  0
    9.5984    1.2258    0.0000 H   0  0  0  0  0  0  0  0  0  0  0  0
  1  6  1  0  0  0  0
  1  7  2  0  0  0  0
  1  8  2  0  0  0  0
  1 16  1  0  0  0  0
  2 13  1  0  0  0  0
  2 28  1  0  0  0  0
  3 17  1  0  0  0  0
  3 29  1  0  0  0  0
  4 14  2  0  0  0  0
  5 15  2  0  0  0  0
  6 30  1  0  0  0  0
  9 10  2  0  0  0  0
  9 13  1  0  0  0  0
  9 14  1  0  0  0  0
 10 15  1  0  0  0  0
 10 17  1  0  0  0  0
 11 12  1  0  0  0  0
 11 14  1  0  0  0  0
 11 19  2  0  0  0  0
 12 15  1  0  0  0  0
 12 20  2  0  0  0  0
 13 16  2  0  0  0  0
 16 18  1  0  0  0  0
 17 18  2  0  0  0  0
 18 23  1  0  0  0  0
 19 21  1  0  0  0  0
 19 24  1  0  0  0  0
 20 22  1  0  0  0  0
 20 25  1  0  0  0  0
 21 22  2  0  0  0  0
 21 26  1  0  0  0  0
 22 27  1  0  0  0  0
M  END
> <PUBCHEM_COMPOUND_CID>
8960

> <PUBCHEM_COMPOUND_CANONICALIZED>
1

> <PUBCHEM_CACTVS_COMPLEXITY>
593

> <PUBCHEM_CACTVS_HBOND_ACCEPTOR>
7

> <PUBCHEM_CACTVS_HBOND_DONOR>
3

> <PUBCHEM_CACTVS_ROTATABLE_BOND>
1

> <PUBCHEM_CACTVS_SUBSKEYS>
AAADccBwOABAAAAAAAAAAAAAAAAAAAAAAAAwYMAAAAAAAADBQAAAGgQACAAADASA2AAwB4AAAoKIAqBSAHBCAEAkIAAIiBsGCMgIJjaCFRKAcUAk4BEImYfLyPCOkQABhAAYIACiAAcIADBAAAAAAAAAAA==

> <PUBCHEM_IUPAC_OPENEYE_NAME>
1,4-dihydroxy-9,10-dioxo-anthracene-2-sulfonic acid

> <PUBCHEM_IUPAC_CAS_NAME>
1,4-dihydroxy-9,10-dioxo-2-anthracenesulfonic acid

> <PUBCHEM_IUPAC_NAME>
1,4-dihydroxy-9,10-dioxoanthracene-2-sulfonic acid

> <PUBCHEM_IUPAC_SYSTEMATIC_NAME>
1,4-bis(oxidanyl)-9,10-bis(oxidanylidene)anthracene-2-sulfonic acid

> <PUBCHEM_IUPAC_TRADITIONAL_NAME>
1,4-dihydroxy-9,10-diketo-anthracene-2-sulfonic acid

> <PUBCHEM_IUPAC_INCHI>
InChI=1S/C14H8O7S/c15-8-5-9(22(19,20)21)14(18)11-10(8)12(16)6-3-1-2-4-7(6)13(11)17/h1-5,15,18H,(H,19,20,21)

> <PUBCHEM_IUPAC_INCHIKEY>
CCQSBGJULPBARL-UHFFFAOYSA-N

> <PUBCHEM_XLOGP3_AA>
2

> <PUBCHEM_EXACT_MASS>
319.999074

> <PUBCHEM_MOLECULAR_FORMULA>
C14H8O7S

> <PUBCHEM_MOLECULAR_WEIGHT>
320.27412

> <PUBCHEM_OPENEYE_CAN_SMILES>
C1=CC=C2C(=C1)C(=O)C3=C(C2=O)C(=C(C=C3O)S(=O)(=O)O)O

> <PUBCHEM_OPENEYE_ISO_SMILES>
C1=CC=C2C(=C1)C(=O)C3=C(C2=O)C(=C(C=C3O)S(=O)(=O)O)O

> <PUBCHEM_CACTVS_TPSA>
137

> <PUBCHEM_MONOISOTOPIC_WEIGHT>
319.999074

> <PUBCHEM_TOTAL_CHARGE>
0

> <PUBCHEM_HEAVY_ATOM_COUNT>
22

> <PUBCHEM_ATOM_DEF_STEREO_COUNT>
0

> <PUBCHEM_ATOM_UDEF_STEREO_COUNT>
0

> <PUBCHEM_BOND_DEF_STEREO_COUNT>
0

> <PUBCHEM_BOND_UDEF_STEREO_COUNT>
0

> <PUBCHEM_ISOTOPIC_ATOM_COUNT>
0

> <PUBCHEM_COMPONENT_COUNT>
1

> <PUBCHEM_CACTVS_TAUTO_COUNT>
12

> <PUBCHEM_COORDINATE_TYPE>
1
5
255

> <PUBCHEM_BONDANNOTATIONS>
10  17  8
11  12  8
11  19  8
12  20  8
13  16  8
16  18  8
17  18  8
19  21  8
20  22  8
21  22  8
9  10  8
9  13  8

$$$$

