442261
  -OEChem-07051212572D

 40 43  0     1  0  0  0  0  0999 V2000
    5.5099   -1.0209    0.0000 O   0  0  0  0  0  0  0  0  0  0  0  0
    9.0821    0.8185    0.0000 O   0  0  0  0  0  0  0  0  0  0  0  0
    9.0821   -0.7910    0.0000 O   0  0  0  0  0  0  0  0  0  0  0  0
    7.2699    2.0137    0.0000 O   0  0  0  0  0  0  0  0  0  0  0  0
    5.5215    2.0483    0.0000 O   0  0  0  0  0  0  0  0  0  0  0  0
    2.8680    0.4862    0.0000 O   0  0  0  0  0  0  0  0  0  0  0  0
    4.6038   -0.5071    0.0000 C   0  0  1  0  0  0  0  0  0  0  0  0
    4.6038    0.5346    0.0000 C   0  0  0  0  0  0  0  0  0  0  0  0
    6.4038    0.5137    0.0000 C   0  0  0  0  0  0  0  0  0  0  0  0
    6.4038   -0.4863    0.0000 C   0  0  0  0  0  0  0  0  0  0  0  0
    5.5099    1.0484    0.0000 C   0  0  0  0  0  0  0  0  0  0  0  0
    3.7398   -1.0104    0.0000 C   0  0  0  0  0  0  0  0  0  0  0  0
    7.2699    1.0137    0.0000 C   0  0  0  0  0  0  0  0  0  0  0  0
    8.1359    0.5137    0.0000 C   0  0  0  0  0  0  0  0  0  0  0  0
    7.2699   -0.9863    0.0000 C   0  0  0  0  0  0  0  0  0  0  0  0
    8.1359   -0.4863    0.0000 C   0  0  0  0  0  0  0  0  0  0  0  0
    2.8718   -0.5138    0.0000 C   0  0  0  0  0  0  0  0  0  0  0  0
    3.7436   -2.0104    0.0000 C   0  0  0  0  0  0  0  0  0  0  0  0
    9.6657    0.0137    0.0000 C   0  0  0  0  0  0  0  0  0  0  0  0
    2.0077   -1.0171    0.0000 C   0  0  0  0  0  0  0  0  0  0  0  0
    2.8795   -2.5137    0.0000 C   0  0  0  0  0  0  0  0  0  0  0  0
    2.0116   -2.0171    0.0000 C   0  0  0  0  0  0  0  0  0  0  0  0
    8.1359    2.5137    0.0000 C   0  0  0  0  0  0  0  0  0  0  0  0
    2.0000    0.9829    0.0000 C   0  0  0  0  0  0  0  0  0  0  0  0
    3.8669   -0.0835    0.0000 H   0  0  0  0  0  0  0  0  0  0  0  0
    4.3948    1.1182    0.0000 H   0  0  0  0  0  0  0  0  0  0  0  0
    3.9930    0.4285    0.0000 H   0  0  0  0  0  0  0  0  0  0  0  0
    7.2699   -1.6063    0.0000 H   0  0  0  0  0  0  0  0  0  0  0  0
    4.2817   -2.3183    0.0000 H   0  0  0  0  0  0  0  0  0  0  0  0
   10.1266   -0.4010    0.0000 H   0  0  0  0  0  0  0  0  0  0  0  0
   10.1266    0.4285    0.0000 H   0  0  0  0  0  0  0  0  0  0  0  0
    1.4696   -0.7092    0.0000 H   0  0  0  0  0  0  0  0  0  0  0  0
    2.8819   -3.1337    0.0000 H   0  0  0  0  0  0  0  0  0  0  0  0
    1.4758   -2.3292    0.0000 H   0  0  0  0  0  0  0  0  0  0  0  0
    8.4459    1.9768    0.0000 H   0  0  0  0  0  0  0  0  0  0  0  0
    8.6728    2.8237    0.0000 H   0  0  0  0  0  0  0  0  0  0  0  0
    7.8259    3.0507    0.0000 H   0  0  0  0  0  0  0  0  0  0  0  0
    2.3079    1.5210    0.0000 H   0  0  0  0  0  0  0  0  0  0  0  0
    1.4619    1.2908    0.0000 H   0  0  0  0  0  0  0  0  0  0  0  0
    1.6921    0.4448    0.0000 H   0  0  0  0  0  0  0  0  0  0  0  0
  1  7  1  0  0  0  0
  1 10  1  0  0  0  0
  2 14  1  0  0  0  0
  2 19  1  0  0  0  0
  3 16  1  0  0  0  0
  3 19  1  0  0  0  0
  4 13  1  0  0  0  0
  4 23  1  0  0  0  0
  5 11  2  0  0  0  0
  6 17  1  0  0  0  0
  6 24  1  0  0  0  0
  7  8  1  0  0  0  0
  7 12  1  0  0  0  0
  7 25  1  1  0  0  0
  8 11  1  0  0  0  0
  8 26  1  0  0  0  0
  8 27  1  0  0  0  0
  9 10  1  0  0  0  0
  9 11  1  0  0  0  0
  9 13  2  0  0  0  0
 10 15  2  0  0  0  0
 12 17  1  0  0  0  0
 12 18  2  0  0  0  0
 13 14  1  0  0  0  0
 14 16  2  0  0  0  0
 15 16  1  0  0  0  0
 15 28  1  0  0  0  0
 17 20  2  0  0  0  0
 18 21  1  0  0  0  0
 18 29  1  0  0  0  0
 19 30  1  0  0  0  0
 19 31  1  0  0  0  0
 20 22  1  0  0  0  0
 20 32  1  0  0  0  0
 21 22  2  0  0  0  0
 21 33  1  0  0  0  0
 22 34  1  0  0  0  0
 23 35  1  0  0  0  0
 23 36  1  0  0  0  0
 23 37  1  0  0  0  0
 24 38  1  0  0  0  0
 24 39  1  0  0  0  0
 24 40  1  0  0  0  0
M  END
> <PUBCHEM_COMPOUND_CID>
442261

> <PUBCHEM_COMPOUND_CANONICALIZED>
1

> <PUBCHEM_CACTVS_COMPLEXITY>
468

> <PUBCHEM_CACTVS_HBOND_ACCEPTOR>
6

> <PUBCHEM_CACTVS_HBOND_DONOR>
0

> <PUBCHEM_CACTVS_ROTATABLE_BOND>
3

> <PUBCHEM_CACTVS_SUBSKEYS>
AAADceB4OAAAAAAAAAAAAAAAAAAAASAAAAA0YIAAAAAAAEiRQAAAGgAAAAAADBSgmAMyDoAABACIAqBSAAACCAAkIAAIiAEGiMgdJzaENRqiOWKl4BUOqQfK7PzOIQABCAAIQABCAAIQABCAAAAAAAAAAA==

> <PUBCHEM_IUPAC_OPENEYE_NAME>
(6S)-9-methoxy-6-(2-methoxyphenyl)-6,7-dihydro-[1,3]dioxolo[4,5-g]chromen-8-one

> <PUBCHEM_IUPAC_CAS_NAME>
(6S)-9-methoxy-6-(2-methoxyphenyl)-6,7-dihydro-[1,3]dioxolo[4,5-g][1]benzopyran-8-one

> <PUBCHEM_IUPAC_NAME>
(6S)-9-methoxy-6-(2-methoxyphenyl)-6,7-dihydro-[1,3]dioxolo[4,5-g]chromen-8-one

> <PUBCHEM_IUPAC_SYSTEMATIC_NAME>
(6S)-9-methoxy-6-(2-methoxyphenyl)-6,7-dihydro-[1,3]dioxolo[4,5-g]chromen-8-one

> <PUBCHEM_IUPAC_TRADITIONAL_NAME>
(6S)-9-methoxy-6-(2-methoxyphenyl)-6,7-dihydro-[1,3]dioxolo[4,5-g]chromen-8-one

> <PUBCHEM_IUPAC_INCHI>
InChI=1S/C18H16O6/c1-20-12-6-4-3-5-10(12)13-7-11(19)16-14(24-13)8-15-17(18(16)21-2)23-9-22-15/h3-6,8,13H,7,9H2,1-2H3/t13-/m0/s1

> <PUBCHEM_IUPAC_INCHIKEY>
IHPVFYLOGNNZLA-ZDUSSCGKSA-N

> <PUBCHEM_XLOGP3_AA>
2.7

> <PUBCHEM_EXACT_MASS>
328.094688

> <PUBCHEM_MOLECULAR_FORMULA>
C18H16O6

> <PUBCHEM_MOLECULAR_WEIGHT>
328.31604

> <PUBCHEM_OPENEYE_CAN_SMILES>
COC1=CC=CC=C1C2CC(=O)C3=C(C4=C(C=C3O2)OCO4)OC

> <PUBCHEM_OPENEYE_ISO_SMILES>
COC1=CC=CC=C1[C@@H]2CC(=O)C3=C(C4=C(C=C3O2)OCO4)OC

> <PUBCHEM_CACTVS_TPSA>
63.2

> <PUBCHEM_MONOISOTOPIC_WEIGHT>
328.094688

> <PUBCHEM_TOTAL_CHARGE>
0

> <PUBCHEM_HEAVY_ATOM_COUNT>
24

> <PUBCHEM_ATOM_DEF_STEREO_COUNT>
1

> <PUBCHEM_ATOM_UDEF_STEREO_COUNT>
0

> <PUBCHEM_BOND_DEF_STEREO_COUNT>
0

> <PUBCHEM_BOND_UDEF_STEREO_COUNT>
0

> <PUBCHEM_ISOTOPIC_ATOM_COUNT>
0

> <PUBCHEM_COMPONENT_COUNT>
1

> <PUBCHEM_CACTVS_TAUTO_COUNT>
2

> <PUBCHEM_COORDINATE_TYPE>
1
5
255

> <PUBCHEM_BONDANNOTATIONS>
10  15  8
12  17  8
12  18  8
13  14  8
14  16  8
15  16  8
17  20  8
18  21  8
20  22  8
21  22  8
7  25  5
9  10  8
9  13  8

$$$$

