443290
  -OEChem-07051213012D

 25 25  0     1  0  0  0  0  0999 V2000
    6.8671    1.3450    0.0000 O   0  0  0  0  0  0  0  0  0  0  0  0
    8.5991    0.3450    0.0000 O   0  0  0  0  0  0  0  0  0  0  0  0
    2.5369   -0.1550    0.0000 O   0  0  0  0  0  0  0  0  0  0  0  0
    3.4030    1.3450    0.0000 O   0  0  0  0  0  0  0  0  0  0  0  0
    6.8671    0.3450    0.0000 C   0  0  2  0  0  0  0  0  0  0  0  0
    6.0010   -0.1550    0.0000 C   0  0  0  0  0  0  0  0  0  0  0  0
    7.7331   -0.1550    0.0000 C   0  0  2  0  0  0  0  0  0  0  0  0
    5.1350    0.3450    0.0000 C   0  0  0  0  0  0  0  0  0  0  0  0
    6.0010   -1.1550    0.0000 C   0  0  0  0  0  0  0  0  0  0  0  0
    7.7331   -1.1550    0.0000 C   0  0  0  0  0  0  0  0  0  0  0  0
    4.2690   -0.1550    0.0000 C   0  0  0  0  0  0  0  0  0  0  0  0
    6.8671   -1.6550    0.0000 C   0  0  0  0  0  0  0  0  0  0  0  0
    3.4030    0.3450    0.0000 C   0  0  0  0  0  0  0  0  0  0  0  0
    6.3301    0.6550    0.0000 H   0  0  0  0  0  0  0  0  0  0  0  0
    7.7331    0.4650    0.0000 H   0  0  0  0  0  0  0  0  0  0  0  0
    5.5335    0.8199    0.0000 H   0  0  0  0  0  0  0  0  0  0  0  0
    4.7365    0.8199    0.0000 H   0  0  0  0  0  0  0  0  0  0  0  0
    5.4641   -1.4650    0.0000 H   0  0  0  0  0  0  0  0  0  0  0  0
    8.2700   -1.4650    0.0000 H   0  0  0  0  0  0  0  0  0  0  0  0
    3.8705   -0.6299    0.0000 H   0  0  0  0  0  0  0  0  0  0  0  0
    4.6675   -0.6299    0.0000 H   0  0  0  0  0  0  0  0  0  0  0  0
    6.8671   -2.2750    0.0000 H   0  0  0  0  0  0  0  0  0  0  0  0
    7.4040    1.6550    0.0000 H   0  0  0  0  0  0  0  0  0  0  0  0
    9.1360    0.0350    0.0000 H   0  0  0  0  0  0  0  0  0  0  0  0
    2.0000    0.1550    0.0000 H   0  0  0  0  0  0  0  0  0  0  0  0
  5  1  1  1  0  0  0
  1 23  1  0  0  0  0
  7  2  1  1  0  0  0
  2 24  1  0  0  0  0
  3 13  1  0  0  0  0
  3 25  1  0  0  0  0
  4 13  2  0  0  0  0
  5  6  1  0  0  0  0
  5  7  1  0  0  0  0
  5 14  1  0  0  0  0
  6  8  1  0  0  0  0
  6  9  2  0  0  0  0
  7 10  1  0  0  0  0
  7 15  1  0  0  0  0
  8 11  1  0  0  0  0
  8 16  1  0  0  0  0
  8 17  1  0  0  0  0
  9 12  1  0  0  0  0
  9 18  1  0  0  0  0
 10 12  2  0  0  0  0
 10 19  1  0  0  0  0
 11 13  1  0  0  0  0
 11 20  1  0  0  0  0
 11 21  1  0  0  0  0
 12 22  1  0  0  0  0
M  END
> <PUBCHEM_COMPOUND_CID>
443290

> <PUBCHEM_COMPOUND_CANONICALIZED>
1

> <PUBCHEM_CACTVS_COMPLEXITY>
254

> <PUBCHEM_CACTVS_HBOND_ACCEPTOR>
4

> <PUBCHEM_CACTVS_HBOND_DONOR>
3

> <PUBCHEM_CACTVS_ROTATABLE_BOND>
3

> <PUBCHEM_CACTVS_SUBSKEYS>
AAADccBwOAAAAAAAAAAAAAAAAAAAAAAAAAAgAAAAAAAAAAAAAAAAGgAACAAADBSggAIACAAAAgCIAiDSCAAAAAAgAAAICAEAAAgJFBIAAQAAUAAEwAAJkAOI7CTAAAAAAAAAAAAAAAAAAAAAAAAAAAAAAA==

> <PUBCHEM_IUPAC_OPENEYE_NAME>
3-[(5S,6R)-5,6-dihydroxycyclohexa-1,3-dien-1-yl]propanoic acid

> <PUBCHEM_IUPAC_CAS_NAME>
3-[(5S,6R)-5,6-dihydroxy-1-cyclohexa-1,3-dienyl]propanoic acid

> <PUBCHEM_IUPAC_NAME>
3-[(5S,6R)-5,6-dihydroxycyclohexa-1,3-dien-1-yl]propanoic acid

> <PUBCHEM_IUPAC_SYSTEMATIC_NAME>
3-[(5S,6R)-5,6-bis(oxidanyl)cyclohexa-1,3-dien-1-yl]propanoic acid

> <PUBCHEM_IUPAC_TRADITIONAL_NAME>
3-[(5S,6R)-5,6-dihydroxycyclohexa-1,3-dien-1-yl]propionic acid

> <PUBCHEM_IUPAC_INCHI>
InChI=1S/C9H12O4/c10-7-3-1-2-6(9(7)13)4-5-8(11)12/h1-3,7,9-10,13H,4-5H2,(H,11,12)/t7-,9+/m0/s1

> <PUBCHEM_IUPAC_INCHIKEY>
RKDFGWAXBBGKMR-IONNQARKSA-N

> <PUBCHEM_XLOGP3_AA>
-0.7

> <PUBCHEM_EXACT_MASS>
184.073559

> <PUBCHEM_MOLECULAR_FORMULA>
C9H12O4

> <PUBCHEM_MOLECULAR_WEIGHT>
184.18918

> <PUBCHEM_OPENEYE_CAN_SMILES>
C1=CC(C(C(=C1)CCC(=O)O)O)O

> <PUBCHEM_OPENEYE_ISO_SMILES>
C1=C[C@@H]([C@@H](C(=C1)CCC(=O)O)O)O

> <PUBCHEM_CACTVS_TPSA>
77.8

> <PUBCHEM_MONOISOTOPIC_WEIGHT>
184.073559

> <PUBCHEM_TOTAL_CHARGE>
0

> <PUBCHEM_HEAVY_ATOM_COUNT>
13

> <PUBCHEM_ATOM_DEF_STEREO_COUNT>
2

> <PUBCHEM_ATOM_UDEF_STEREO_COUNT>
0

> <PUBCHEM_BOND_DEF_STEREO_COUNT>
0

> <PUBCHEM_BOND_UDEF_STEREO_COUNT>
0

> <PUBCHEM_ISOTOPIC_ATOM_COUNT>
0

> <PUBCHEM_COMPONENT_COUNT>
1

> <PUBCHEM_CACTVS_TAUTO_COUNT>
1

> <PUBCHEM_COORDINATE_TYPE>
1
5
255

> <PUBCHEM_BONDANNOTATIONS>
5  1  5
7  2  5

$$$$

