3105
  -OEChem-07051212523D

 54 54  0     1  0  0  0  0  0999 V2000
   -0.5253   -1.0804    0.4009 O   0  0  0  0  0  0  0  0  0  0  0  0
   -1.9348    1.0163   -0.7584 O   0  0  0  0  0  0  0  0  0  0  0  0
    3.7740    1.4944    1.7664 O   0  0  0  0  0  0  0  0  0  0  0  0
    0.9431   -2.1856   -1.0338 O   0  0  0  0  0  0  0  0  0  0  0  0
   -2.3625    1.8542    1.3761 O   0  0  0  0  0  0  0  0  0  0  0  0
    5.8426    0.6568   -0.0552 N   0  0  0  0  0  0  0  0  0  0  0  0
   -0.7622   -3.4806    0.1506 C   0  0  0  0  0  0  0  0  0  0  0  0
   -4.2234    1.2472   -0.0924 C   0  0  0  0  0  0  0  0  0  0  0  0
    2.1158    1.4234    0.0576 C   0  0  0  0  0  0  0  0  0  0  0  0
    3.5705    1.5744    0.3493 C   0  0  2  0  0  0  0  0  0  0  0  0
   -0.6593   -3.6775    1.6717 C   0  0  0  0  0  0  0  0  0  0  0  0
   -0.1428   -4.6959   -0.5520 C   0  0  0  0  0  0  0  0  0  0  0  0
   -2.2401   -3.3331   -0.2342 C   0  0  0  0  0  0  0  0  0  0  0  0
    0.0005   -2.2125   -0.2513 C   0  0  0  0  0  0  0  0  0  0  0  0
   -4.5242    2.0916   -1.3413 C   0  0  0  0  0  0  0  0  0  0  0  0
   -5.1186    1.7245    1.0588 C   0  0  0  0  0  0  0  0  0  0  0  0
   -4.4982   -0.2284   -0.4102 C   0  0  0  0  0  0  0  0  0  0  0  0
   -2.7507    1.4213    0.2974 C   0  0  0  0  0  0  0  0  0  0  0  0
    0.1017    0.0895    0.0943 C   0  0  0  0  0  0  0  0  0  0  0  0
   -0.5720    1.1447   -0.4807 C   0  0  0  0  0  0  0  0  0  0  0  0
    1.4625    0.2305    0.3667 C   0  0  0  0  0  0  0  0  0  0  0  0
    4.4210    0.4976   -0.3533 C   0  0  0  0  0  0  0  0  0  0  0  0
    1.4085    2.4755   -0.5241 C   0  0  0  0  0  0  0  0  0  0  0  0
    0.0477    2.3344   -0.7969 C   0  0  0  0  0  0  0  0  0  0  0  0
    6.6261   -0.3823   -0.7060 C   0  0  0  0  0  0  0  0  0  0  0  0
    3.9254    2.5645    0.0372 H   0  0  0  0  0  0  0  0  0  0  0  0
    0.3885   -3.7251    1.9905 H   0  0  0  0  0  0  0  0  0  0  0  0
   -1.1510   -4.6049    1.9861 H   0  0  0  0  0  0  0  0  0  0  0  0
   -1.1263   -2.8521    2.2210 H   0  0  0  0  0  0  0  0  0  0  0  0
    0.9146   -4.8133   -0.2882 H   0  0  0  0  0  0  0  0  0  0  0  0
   -0.6615   -5.6211   -0.2771 H   0  0  0  0  0  0  0  0  0  0  0  0
   -0.1994   -4.5934   -1.6419 H   0  0  0  0  0  0  0  0  0  0  0  0
   -2.7946   -4.2582   -0.0412 H   0  0  0  0  0  0  0  0  0  0  0  0
   -2.7221   -2.5343    0.3367 H   0  0  0  0  0  0  0  0  0  0  0  0
   -2.3474   -3.0891   -1.2971 H   0  0  0  0  0  0  0  0  0  0  0  0
   -4.2671    3.1440   -1.1740 H   0  0  0  0  0  0  0  0  0  0  0  0
   -5.5857    2.0415   -1.6082 H   0  0  0  0  0  0  0  0  0  0  0  0
   -3.9489    1.7522   -2.2100 H   0  0  0  0  0  0  0  0  0  0  0  0
   -4.9307    1.1475    1.9717 H   0  0  0  0  0  0  0  0  0  0  0  0
   -6.1797    1.6153    0.8084 H   0  0  0  0  0  0  0  0  0  0  0  0
   -4.9364    2.7794    1.2947 H   0  0  0  0  0  0  0  0  0  0  0  0
   -3.8738   -0.5974   -1.2312 H   0  0  0  0  0  0  0  0  0  0  0  0
   -4.2968   -0.8539    0.4660 H   0  0  0  0  0  0  0  0  0  0  0  0
   -5.5453   -0.3825   -0.6942 H   0  0  0  0  0  0  0  0  0  0  0  0
    2.0018   -0.5799    0.8510 H   0  0  0  0  0  0  0  0  0  0  0  0
    4.1133   -0.5012   -0.0206 H   0  0  0  0  0  0  0  0  0  0  0  0
    4.2550    0.5566   -1.4364 H   0  0  0  0  0  0  0  0  0  0  0  0
    1.9029    3.4113   -0.7709 H   0  0  0  0  0  0  0  0  0  0  0  0
   -0.5025    3.1530   -1.2503 H   0  0  0  0  0  0  0  0  0  0  0  0
    5.9859    0.6097    0.9532 H   0  0  0  0  0  0  0  0  0  0  0  0
    3.1195    2.0701    2.1979 H   0  0  0  0  0  0  0  0  0  0  0  0
    6.3436   -1.3802   -0.3552 H   0  0  0  0  0  0  0  0  0  0  0  0
    6.5155   -0.3404   -1.7945 H   0  0  0  0  0  0  0  0  0  0  0  0
    7.6864   -0.2349   -0.4785 H   0  0  0  0  0  0  0  0  0  0  0  0
  1 14  1  0  0  0  0
  1 19  1  0  0  0  0
  2 18  1  0  0  0  0
  2 20  1  0  0  0  0
  3 10  1  0  0  0  0
  3 51  1  0  0  0  0
  4 14  2  0  0  0  0
  5 18  2  0  0  0  0
  6 22  1  0  0  0  0
  6 25  1  0  0  0  0
  6 50  1  0  0  0  0
  7 11  1  0  0  0  0
  7 12  1  0  0  0  0
  7 13  1  0  0  0  0
  7 14  1  0  0  0  0
  8 15  1  0  0  0  0
  8 16  1  0  0  0  0
  8 17  1  0  0  0  0
  8 18  1  0  0  0  0
  9 10  1  0  0  0  0
  9 21  2  0  0  0  0
  9 23  1  0  0  0  0
 10 22  1  0  0  0  0
 10 26  1  0  0  0  0
 11 27  1  0  0  0  0
 11 28  1  0  0  0  0
 11 29  1  0  0  0  0
 12 30  1  0  0  0  0
 12 31  1  0  0  0  0
 12 32  1  0  0  0  0
 13 33  1  0  0  0  0
 13 34  1  0  0  0  0
 13 35  1  0  0  0  0
 15 36  1  0  0  0  0
 15 37  1  0  0  0  0
 15 38  1  0  0  0  0
 16 39  1  0  0  0  0
 16 40  1  0  0  0  0
 16 41  1  0  0  0  0
 17 42  1  0  0  0  0
 17 43  1  0  0  0  0
 17 44  1  0  0  0  0
 19 20  2  0  0  0  0
 19 21  1  0  0  0  0
 20 24  1  0  0  0  0
 21 45  1  0  0  0  0
 22 46  1  0  0  0  0
 22 47  1  0  0  0  0
 23 24  2  0  0  0  0
 23 48  1  0  0  0  0
 24 49  1  0  0  0  0
 25 52  1  0  0  0  0
 25 53  1  0  0  0  0
 25 54  1  0  0  0  0
M  END
> <PUBCHEM_COMPOUND_CID>
3105

> <PUBCHEM_CONFORMER_RMSD>
1

> <PUBCHEM_CONFORMER_DIVERSEORDER>
1
29
39
19
64
54
31
49
51
55
20
63
14
59
65
47
40
37
30
42
52
57
48
26
66
22
28
33
21
11
7
58
60
27
62
41
44
5
24
35
50
25
34
67
18
23
53
46
32
13
15
43
56
3
10
12
45
2
38
61
8
36
17
9
6
4
16

> <PUBCHEM_MMFF94_PARTIAL_CHARGES>
24
1 -0.23
10 0.42
14 0.66
18 0.66
19 0.08
2 -0.23
20 0.08
21 -0.15
22 0.27
23 -0.15
24 -0.15
25 0.27
3 -0.68
4 -0.57
45 0.15
48 0.15
49 0.15
5 -0.57
50 0.36
51 0.4
6 -0.9
7 0.06
8 0.06
9 -0.14

> <PUBCHEM_EFFECTIVE_ROTOR_COUNT>
9

> <PUBCHEM_PHARMACOPHORE_FEATURES>
9
1 3 acceptor
1 3 donor
1 4 acceptor
1 5 acceptor
1 6 cation
1 6 donor
4 7 11 12 13 hydrophobe
4 8 15 16 17 hydrophobe
6 9 19 20 21 23 24 rings

> <PUBCHEM_HEAVY_ATOM_COUNT>
25

> <PUBCHEM_ATOM_DEF_STEREO_COUNT>
0

> <PUBCHEM_ATOM_UDEF_STEREO_COUNT>
1

> <PUBCHEM_BOND_DEF_STEREO_COUNT>
0

> <PUBCHEM_BOND_UDEF_STEREO_COUNT>
0

> <PUBCHEM_ISOTOPIC_ATOM_COUNT>
0

> <PUBCHEM_COMPONENT_COUNT>
1

> <PUBCHEM_CACTVS_TAUTO_COUNT>
1

> <PUBCHEM_CONFORMER_ID>
00000C2100000001

> <PUBCHEM_MMFF94_ENERGY>
75.2764

> <PUBCHEM_FEATURE_SELFOVERLAP>
45.671

> <PUBCHEM_SHAPE_FINGERPRINT>
1100329 8 18338796702249600945
11036077 3 18410007771054617964
116883 192 17978228262295216286
12035758 1 18339343224084594434
12422481 6 18051103953456988035
12549972 3 17749962033913844232
12643181 29 18410006655618869486
12788726 201 17837495146089917322
13052359 8 18340211769672366675
13140716 1 18340208599944642267
13692114 37 18188779340609993103
138480 1 17762058048909634847
14251740 79 18266753389426163183
14363568 33 17831846225294249207
14790565 3 18267301113599369308
14866123 147 18339924822802436698
14931854 50 18120122540737913671
15042514 8 18268989799838847600
15664445 248 17249477839573997399
15927050 60 18409730689956909246
17138139 8 17754493112916216823
18681886 176 18342463603777913641
18915476 22 18053680332528473949
19141452 34 18411699855727148540
19591789 44 18267305515829649158
20028762 73 18261675857761824983
20197701 30 18336276686133673201
20739085 24 18198897209179358368
20775438 99 15376034794924010223
21033648 29 18337690670951816304
21307412 95 18116131412249712462
21478907 32 17906733605225925095
21781051 124 17985799653771894818
21796203 349 17255931977414420179
22033318 11 17043404724987594131
22182313 1 18266155327724907839
22224240 67 18409165519963870689
22956985 138 17700135700974003595
23558518 356 17911238321744921240
23559900 14 18187367580760145944
25147074 1 17699859423582947148
266924 87 18051417558551581924
283562 15 18191302882814988456
3091708 16 9120913500813459291
340366 18 18201147777049424500
352729 6 18193266404285907989
404807 14 14785694361780875812
4058900 60 18198900507882877961
4073 2 18263648373522594328
532947 4 18264199391160172406
5385378 56 18265888254290408177
6138700 20 18265048210321668790
6669772 16 18335700610998073062
7164475 11 17835802997758053828
79837 15 18410571752280160641
81228 2 17910407090574332768

> <PUBCHEM_SHAPE_MULTIPOLES>
480.16
10.32
4.96
1.16
9.67
7.85
-0.31
-7.17
0.56
-2.58
0.04
-0.28
-0.03
0.48

> <PUBCHEM_SHAPE_SELFOVERLAP>
979.966

> <PUBCHEM_SHAPE_VOLUME>
278.5

> <PUBCHEM_COORDINATE_TYPE>
2
5
10

$$$$

