5460142
  -OEChem-07051212453D

 47 48  0     1  0  0  0  0  0999 V2000
    2.8627    2.1646    0.3533 O   0  0  0  0  0  0  0  0  0  0  0  0
   -0.1108   -0.7109   -0.0297 O   0  0  0  0  0  0  0  0  0  0  0  0
    0.2186    1.6115    1.4047 O   0  0  0  0  0  0  0  0  0  0  0  0
    3.6446    0.8800   -1.4710 O   0  0  0  0  0  0  0  0  0  0  0  0
   -2.1271    0.1612   -0.9008 O   0  0  0  0  0  0  0  0  0  0  0  0
    0.2123    4.5045   -0.4337 O   0  0  0  0  0  0  0  0  0  0  0  0
   -2.5021   -2.4528   -2.1471 O   0  0  0  0  0  0  0  0  0  0  0  0
   -1.6788   -2.8535    1.3530 O   0  0  0  0  0  0  0  0  0  0  0  0
    3.7734   -2.1604    1.6820 O   0  0  0  0  0  0  0  0  0  0  0  0
   -3.5677    2.1481   -0.2393 O   0  0  0  0  0  0  0  0  0  0  0  0
   -4.8132    0.9865    1.2871 O   0  0  0  0  0  0  0  0  0  0  0  0
    2.6672   -1.4914   -0.2541 N   0  0  0  0  0  0  0  0  0  0  0  0
    0.9004    0.2114   -0.4290 C   0  0  2  0  0  0  0  0  0  0  0  0
    2.2391   -0.1886    0.2020 C   0  0  2  0  0  0  0  0  0  0  0  0
    0.5069    1.6283    0.0046 C   0  0  2  0  0  0  0  0  0  0  0  0
    1.6540    2.6059   -0.2824 C   0  0  1  0  0  0  0  0  0  0  0  0
    3.3066    0.8769   -0.0846 C   0  0  2  0  0  0  0  0  0  0  0  0
   -1.1147   -0.8485   -1.0328 C   0  0  2  0  0  0  0  0  0  0  0  0
    1.3706    4.0175    0.2193 C   0  0  0  0  0  0  0  0  0  0  0  0
   -1.6914   -2.2684   -0.9873 C   0  0  1  0  0  0  0  0  0  0  0  0
   -2.5354   -2.4958    0.2718 C   0  0  2  0  0  0  0  0  0  0  0  0
    3.4002   -2.3665    0.5301 C   0  0  0  0  0  0  0  0  0  0  0  0
   -3.2995   -1.2635    0.6506 C   0  0  0  0  0  0  0  0  0  0  0  0
   -3.0813   -0.0809    0.0576 C   0  0  0  0  0  0  0  0  0  0  0  0
    3.6910   -3.6620   -0.1790 C   0  0  0  0  0  0  0  0  0  0  0  0
   -3.9254    1.0469    0.4547 C   0  0  0  0  0  0  0  0  0  0  0  0
    1.0338    0.1935   -1.5195 H   0  0  0  0  0  0  0  0  0  0  0  0
    2.0975   -0.2545    1.2891 H   0  0  0  0  0  0  0  0  0  0  0  0
   -0.4051    1.9432   -0.5112 H   0  0  0  0  0  0  0  0  0  0  0  0
    1.8168    2.6538   -1.3672 H   0  0  0  0  0  0  0  0  0  0  0  0
    4.2181    0.6359    0.4745 H   0  0  0  0  0  0  0  0  0  0  0  0
   -0.6861   -0.7114   -2.0335 H   0  0  0  0  0  0  0  0  0  0  0  0
    2.4582   -1.7514   -1.2140 H   0  0  0  0  0  0  0  0  0  0  0  0
    2.2139    4.6770   -0.0143 H   0  0  0  0  0  0  0  0  0  0  0  0
    1.2273    4.0498    1.3042 H   0  0  0  0  0  0  0  0  0  0  0  0
   -0.8769   -3.0019   -1.0262 H   0  0  0  0  0  0  0  0  0  0  0  0
   -0.2545    2.4333    1.6183 H   0  0  0  0  0  0  0  0  0  0  0  0
   -3.2450   -3.3159    0.1124 H   0  0  0  0  0  0  0  0  0  0  0  0
    4.5548    1.2141   -1.5425 H   0  0  0  0  0  0  0  0  0  0  0  0
   -4.0600   -1.3845    1.4171 H   0  0  0  0  0  0  0  0  0  0  0  0
    0.0575    5.4071   -0.1070 H   0  0  0  0  0  0  0  0  0  0  0  0
   -1.9267   -2.3658   -2.9261 H   0  0  0  0  0  0  0  0  0  0  0  0
    4.1672   -3.4633   -1.1433 H   0  0  0  0  0  0  0  0  0  0  0  0
    2.7582   -4.2100   -0.3383 H   0  0  0  0  0  0  0  0  0  0  0  0
    4.3661   -4.2717    0.4277 H   0  0  0  0  0  0  0  0  0  0  0  0
   -1.2412   -3.6892    1.1167 H   0  0  0  0  0  0  0  0  0  0  0  0
   -4.1123    2.9280    0.0002 H   0  0  0  0  0  0  0  0  0  0  0  0
  1 16  1  0  0  0  0
  1 17  1  0  0  0  0
  2 13  1  0  0  0  0
  2 18  1  0  0  0  0
  3 15  1  0  0  0  0
  3 37  1  0  0  0  0
  4 17  1  0  0  0  0
  4 39  1  0  0  0  0
  5 18  1  0  0  0  0
  5 24  1  0  0  0  0
  6 19  1  0  0  0  0
  6 41  1  0  0  0  0
  7 20  1  0  0  0  0
  7 42  1  0  0  0  0
  8 21  1  0  0  0  0
  8 46  1  0  0  0  0
  9 22  2  0  0  0  0
 10 26  1  0  0  0  0
 10 47  1  0  0  0  0
 11 26  2  0  0  0  0
 12 14  1  0  0  0  0
 12 22  1  0  0  0  0
 12 33  1  0  0  0  0
 13 14  1  0  0  0  0
 13 15  1  0  0  0  0
 13 27  1  0  0  0  0
 14 17  1  0  0  0  0
 14 28  1  0  0  0  0
 15 16  1  0  0  0  0
 15 29  1  0  0  0  0
 16 19  1  0  0  0  0
 16 30  1  0  0  0  0
 17 31  1  0  0  0  0
 18 20  1  0  0  0  0
 18 32  1  0  0  0  0
 19 34  1  0  0  0  0
 19 35  1  0  0  0  0
 20 21  1  0  0  0  0
 20 36  1  0  0  0  0
 21 23  1  0  0  0  0
 21 38  1  0  0  0  0
 22 25  1  0  0  0  0
 23 24  2  0  0  0  0
 23 40  1  0  0  0  0
 24 26  1  0  0  0  0
 25 43  1  0  0  0  0
 25 44  1  0  0  0  0
 25 45  1  0  0  0  0
M  END
> <PUBCHEM_COMPOUND_CID>
5460142

> <PUBCHEM_CONFORMER_RMSD>
0.8

> <PUBCHEM_CONFORMER_DIVERSEORDER>
2
68
37
33
54
26
107
96
72
10
45
52
97
31
11
44
93
14
48
25
92
34
81
85
63
58
88
60
16
91
61
82
74
64
80
28
57
51
101
59
38
35
43
106
30
75
98
86
7
70
102
23
17
8
73
103
21
62
104
66
49
1
76
89
13
47
94
65
99
27
19
29
78
79
46
56
3
6
32
77
9
5
41
83
69
95
53
40
55
18
20
39
71
90
50
100
4
12
15
105
84
22
42
87
36
67
24

> <PUBCHEM_MMFF94_PARTIAL_CHARGES>
34
1 -0.56
10 -0.65
11 -0.57
12 -0.73
13 0.28
14 0.3
15 0.28
16 0.28
17 0.56
18 0.56
19 0.28
2 -0.56
20 0.28
21 0.42
22 0.57
23 -0.29
24 0.09
25 0.06
26 0.71
3 -0.68
33 0.37
37 0.4
39 0.4
4 -0.68
40 0.15
41 0.4
42 0.4
46 0.4
47 0.5
5 -0.36
6 -0.68
7 -0.68
8 -0.68
9 -0.57

> <PUBCHEM_EFFECTIVE_ROTOR_COUNT>
8

> <PUBCHEM_PHARMACOPHORE_FEATURES>
20
1 1 acceptor
1 10 acceptor
1 11 acceptor
1 12 donor
1 2 acceptor
1 3 acceptor
1 3 donor
1 4 acceptor
1 4 donor
1 5 acceptor
1 6 acceptor
1 6 donor
1 7 acceptor
1 7 donor
1 8 acceptor
1 8 donor
1 9 acceptor
3 10 11 26 anion
6 1 13 14 15 16 17 rings
6 5 18 20 21 23 24 rings

> <PUBCHEM_HEAVY_ATOM_COUNT>
26

> <PUBCHEM_ATOM_DEF_STEREO_COUNT>
7

> <PUBCHEM_ATOM_UDEF_STEREO_COUNT>
1

> <PUBCHEM_BOND_DEF_STEREO_COUNT>
0

> <PUBCHEM_BOND_UDEF_STEREO_COUNT>
0

> <PUBCHEM_ISOTOPIC_ATOM_COUNT>
0

> <PUBCHEM_COMPONENT_COUNT>
1

> <PUBCHEM_CACTVS_TAUTO_COUNT>
2

> <PUBCHEM_CONFORMER_ID>
005350AE00000002

> <PUBCHEM_MMFF94_ENERGY>
59.9853

> <PUBCHEM_FEATURE_SELFOVERLAP>
101.649

> <PUBCHEM_SHAPE_FINGERPRINT>
10006869 2 17331694946864583251
10366900 7 18055909888147324339
1100329 8 15817346506633511995
11578080 2 17168717297326782481
12422481 6 17540237066747165617
12553582 1 18339087119807177326
12633257 1 18339636858340741995
12788726 201 18052816137895481170
13004483 165 18195537119404466978
13140716 1 18340775926564794058
13533116 47 18341612573615231339
13583140 156 18270390591065219331
14022347 108 18192697067774471294
14178342 30 18119546357256639594
14223421 5 18124595271722708749
14251757 5 18123736815345807598
14466204 15 18267027159395302344
14866123 147 17114666774632251282
15042514 8 17474953607108789714
15442244 35 18409451400991139467
17492 89 18336829693402179159
19078846 21 18408323285218710806
19591789 44 18195808698423313837
20600515 1 17967818309578382946
2255824 54 18050854321240636956
23558518 356 17977100163269925637
23559900 14 18267593407471805715
34934 24 18408601457497478612
352729 6 17689718983910694140
6287921 2 17623276183243668877
7097593 13 18412263904553660335
7832392 63 18336263448860019644
79837 15 17329437142918915600
81228 2 17901100034341984970
8509985 295 18337669819143056337
9981440 41 17690016534838698265

> <PUBCHEM_SHAPE_MULTIPOLES>
465.52
7.62
4.99
1.24
2.02
2.26
0.11
-2.49
-1.3
-2.97
-0.06
0.32
-0.63
-1.05

> <PUBCHEM_SHAPE_SELFOVERLAP>
964.915

> <PUBCHEM_SHAPE_VOLUME>
258.7

> <PUBCHEM_COORDINATE_TYPE>
2
5
10

$$$$

