3970
  -OEChem-06251223473D

 44 47  0     1  0  0  0  0  0999 V2000
    0.3012   -1.7149   -0.1836 O   0  0  0  0  0  0  0  0  0  0  0  0
   -4.6800    0.7524    0.5393 N   0  0  0  0  0  0  0  0  0  0  0  0
   -0.6750    0.3735   -0.2352 N   0  0  0  0  0  0  0  0  0  0  0  0
    1.7819    1.4726   -0.0589 N   0  0  0  0  0  0  0  0  0  0  0  0
    3.1024    1.7030    0.0300 N   0  0  0  0  0  0  0  0  0  0  0  0
   -4.4280    0.5845   -0.9038 C   0  0  2  0  0  0  0  0  0  0  0  0
   -4.1410   -0.4962    1.1092 C   0  0  1  0  0  0  0  0  0  0  0  0
   -4.7988   -0.8743   -1.1923 C   0  0  0  0  0  0  0  0  0  0  0  0
   -4.6085   -1.5924    0.1455 C   0  0  0  0  0  0  0  0  0  0  0  0
   -2.9232    0.8477   -1.1166 C   0  0  0  0  0  0  0  0  0  0  0  0
   -2.6058   -0.3480    1.1093 C   0  0  0  0  0  0  0  0  0  0  0  0
   -2.0338   -0.1065   -0.2992 C   0  0  0  0  0  0  0  0  0  0  0  0
   -6.0942    0.9505    0.8474 C   0  0  0  0  0  0  0  0  0  0  0  0
    0.4154   -0.4897   -0.1810 C   0  0  0  0  0  0  0  0  0  0  0  0
    1.7327    0.1550   -0.0860 C   0  0  0  0  0  0  0  0  0  0  0  0
    2.9662   -0.4851   -0.0187 C   0  0  0  0  0  0  0  0  0  0  0  0
    3.8691    0.5694    0.0581 C   0  0  0  0  0  0  0  0  0  0  0  0
    3.4474   -1.8050   -0.0118 C   0  0  0  0  0  0  0  0  0  0  0  0
    5.2508    0.3844    0.1430 C   0  0  0  0  0  0  0  0  0  0  0  0
    3.5766    3.0667    0.0840 C   0  0  0  0  0  0  0  0  0  0  0  0
    4.8299   -2.0126    0.0727 C   0  0  0  0  0  0  0  0  0  0  0  0
    5.7145   -0.9352    0.1484 C   0  0  0  0  0  0  0  0  0  0  0  0
   -5.0021    1.2852   -1.5205 H   0  0  0  0  0  0  0  0  0  0  0  0
   -4.4808   -0.6773    2.1352 H   0  0  0  0  0  0  0  0  0  0  0  0
   -4.1881   -1.3185   -1.9849 H   0  0  0  0  0  0  0  0  0  0  0  0
   -5.8477   -0.9524   -1.5022 H   0  0  0  0  0  0  0  0  0  0  0  0
   -5.5666   -2.0126    0.4736 H   0  0  0  0  0  0  0  0  0  0  0  0
   -3.8963   -2.4202    0.0670 H   0  0  0  0  0  0  0  0  0  0  0  0
   -2.6734    0.7547   -2.1811 H   0  0  0  0  0  0  0  0  0  0  0  0
   -2.7038    1.8891   -0.8425 H   0  0  0  0  0  0  0  0  0  0  0  0
   -2.3280    0.4856    1.7695 H   0  0  0  0  0  0  0  0  0  0  0  0
   -2.1453   -1.2449    1.5426 H   0  0  0  0  0  0  0  0  0  0  0  0
   -2.0125   -1.0708   -0.8227 H   0  0  0  0  0  0  0  0  0  0  0  0
   -6.2307    1.0571    1.9291 H   0  0  0  0  0  0  0  0  0  0  0  0
   -6.7421    0.1378    0.5034 H   0  0  0  0  0  0  0  0  0  0  0  0
   -6.4497    1.8819    0.3932 H   0  0  0  0  0  0  0  0  0  0  0  0
   -0.5163    1.3752   -0.1711 H   0  0  0  0  0  0  0  0  0  0  0  0
    2.7770   -2.6568   -0.0702 H   0  0  0  0  0  0  0  0  0  0  0  0
    5.9396    1.2198    0.2021 H   0  0  0  0  0  0  0  0  0  0  0  0
    2.7262    3.7528    0.0498 H   0  0  0  0  0  0  0  0  0  0  0  0
    4.1262    3.2036    1.0186 H   0  0  0  0  0  0  0  0  0  0  0  0
    4.2276    3.2391   -0.7767 H   0  0  0  0  0  0  0  0  0  0  0  0
    5.2185   -3.0277    0.0791 H   0  0  0  0  0  0  0  0  0  0  0  0
    6.7832   -1.1243    0.2130 H   0  0  0  0  0  0  0  0  0  0  0  0
  1 14  2  0  0  0  0
  2  6  1  0  0  0  0
  2  7  1  0  0  0  0
  2 13  1  0  0  0  0
  3 12  1  0  0  0  0
  3 14  1  0  0  0  0
  3 37  1  0  0  0  0
  4  5  1  0  0  0  0
  4 15  2  0  0  0  0
  5 17  1  0  0  0  0
  5 20  1  0  0  0  0
  6  8  1  0  0  0  0
  6 10  1  0  0  0  0
  6 23  1  0  0  0  0
  7  9  1  0  0  0  0
  7 11  1  0  0  0  0
  7 24  1  0  0  0  0
  8  9  1  0  0  0  0
  8 25  1  0  0  0  0
  8 26  1  0  0  0  0
  9 27  1  0  0  0  0
  9 28  1  0  0  0  0
 10 12  1  0  0  0  0
 10 29  1  0  0  0  0
 10 30  1  0  0  0  0
 11 12  1  0  0  0  0
 11 31  1  0  0  0  0
 11 32  1  0  0  0  0
 12 33  1  0  0  0  0
 13 34  1  0  0  0  0
 13 35  1  0  0  0  0
 13 36  1  0  0  0  0
 14 15  1  0  0  0  0
 15 16  1  0  0  0  0
 16 17  1  0  0  0  0
 16 18  2  0  0  0  0
 17 19  2  0  0  0  0
 18 21  1  0  0  0  0
 18 38  1  0  0  0  0
 19 22  1  0  0  0  0
 19 39  1  0  0  0  0
 20 40  1  0  0  0  0
 20 41  1  0  0  0  0
 20 42  1  0  0  0  0
 21 22  2  0  0  0  0
 21 43  1  0  0  0  0
 22 44  1  0  0  0  0
M  END
> <PUBCHEM_COMPOUND_CID>
3970

> <PUBCHEM_CONFORMER_RMSD>
0.6

> <PUBCHEM_CONFORMER_DIVERSEORDER>
1
14
18
13
9
12
20
15
7
10
11
19
8
16
17
2
6
5
3
4

> <PUBCHEM_MMFF94_PARTIAL_CHARGES>
22
1 -0.57
12 0.3
13 0.27
14 0.72
15 0.2
17 -0.15
18 -0.15
19 -0.15
2 -0.81
20 0.26
21 -0.15
22 -0.15
3 -0.73
37 0.37
38 0.15
39 0.15
4 -0.71
43 0.15
44 0.15
5 0.31
6 0.27
7 0.27

> <PUBCHEM_EFFECTIVE_ROTOR_COUNT>
4.2

> <PUBCHEM_PHARMACOPHORE_FEATURES>
7
1 1 acceptor
1 2 cation
1 3 donor
1 4 acceptor
5 4 5 15 16 17 rings
6 16 17 18 19 21 22 rings
8 2 6 7 8 9 10 11 12 rings

> <PUBCHEM_HEAVY_ATOM_COUNT>
22

> <PUBCHEM_ATOM_DEF_STEREO_COUNT>
0

> <PUBCHEM_ATOM_UDEF_STEREO_COUNT>
2

> <PUBCHEM_BOND_DEF_STEREO_COUNT>
0

> <PUBCHEM_BOND_UDEF_STEREO_COUNT>
0

> <PUBCHEM_ISOTOPIC_ATOM_COUNT>
0

> <PUBCHEM_COMPONENT_COUNT>
1

> <PUBCHEM_CACTVS_TAUTO_COUNT>
2

> <PUBCHEM_CONFORMER_ID>
00000F8200000001

> <PUBCHEM_MMFF94_ENERGY>
44.198

> <PUBCHEM_FEATURE_SELFOVERLAP>
35.612

> <PUBCHEM_SHAPE_FINGERPRINT>
10 15 18201167547153061888
10595046 47 18261676952745876269
10912923 1 17894629219354541961
11045977 3 18202280290588353643
11315181 36 18113060420206383375
11370993 144 18341889719148116057
11405975 8 18411698781547156571
11545043 162 17489581251626350521
12107183 9 17686049900464785299
12166972 35 18113057129966308888
12236239 1 17676209073790712110
12403259 415 17989211455754344757
12596602 18 17385448695877740194
12616971 3 18186800271008022573
13167372 99 18187640366627503441
13167823 11 18335424543173937639
13631057 29 10950893345093538681
13785724 45 17829038055332936758
13911852 28 18121784091485732838
14341114 176 18342452672958940565
14573314 32 17632860853762307526
15196674 1 18410855430358822309
15250474 111 18041573446438479495
15348495 7 18272644611244972377
15788980 27 18342458149126554591
15880784 105 18410854322510617195
15961568 22 16701738225358993468
17349148 13 17676483947587538894
17844677 252 18410852170331341517
18222031 100 16343707595015609007
18785283 64 18199753553503495596
19489759 90 17060624403932152567
200 152 18260269650855758835
20645477 70 18410576210562104918
21033648 29 17846513525150064469
21033650 10 15431132756962066306
21065198 57 18341892969963670443
21065201 7 17060344019613326121
21267235 1 18337950208147331238
21279426 13 17985552397015935294
21682296 61 18190738824833695558
21709351 56 18408610274827869997
21792961 116 18130786828743719910
220451 1 18409725170875850406
22122407 14 18041263427536212361
221357 26 18342182193009032044
2297311 6 16845566552431303293
23402539 116 17676210182092727989
23557571 272 17203334450354410565
23559900 14 17775286049368697732
2838139 119 18263928907854533333
345986 75 18043822094167616994
34797466 226 15769195229136079190
351380 180 18412826884492588538
4015057 19 18339647729040053401
4073 2 18131063792860051530
4214541 1 18411982472811368245
5104073 3 18340769251937216139
5281201 14 18273497875112603172
542803 24 17458346346552550535
602551 16 16415472710491829514
7495541 125 18273496771643286630
90127 26 17989489610668665605
9971528 1 17988644064620214076

> <PUBCHEM_SHAPE_MULTIPOLES>
426.96
15.03
2.07
0.94
3.63
0.78
0.01
-0.98
-1.26
-2.63
-0.02
1.34
0
-0.06

> <PUBCHEM_SHAPE_SELFOVERLAP>
932.645

> <PUBCHEM_SHAPE_VOLUME>
235.1

> <PUBCHEM_COORDINATE_TYPE>
2
5
10

$$$$

