442617
  -OEChem-07051212583D

 55 58  0     1  0  0  0  0  0999 V2000
   -2.7348    1.7587   -0.6524 O   0  0  0  0  0  0  0  0  0  0  0  0
   -2.9087   -0.3776    0.3663 O   0  0  0  0  0  0  0  0  0  0  0  0
   -6.8308    1.3824   -0.1207 O   0  0  0  0  0  0  0  0  0  0  0  0
   -5.3636    3.2587    1.4521 O   0  0  0  0  0  0  0  0  0  0  0  0
   -5.0345    1.0371   -2.2179 O   0  0  0  0  0  0  0  0  0  0  0  0
    1.8181   -0.1277    0.0594 O   0  0  0  0  0  0  0  0  0  0  0  0
   -2.7926   -3.1389    0.5074 O   0  0  0  0  0  0  0  0  0  0  0  0
   -0.3861   -4.4230    0.4282 O   0  0  0  0  0  0  0  0  0  0  0  0
    2.2064   -4.1789    0.2497 O   0  0  0  0  0  0  0  0  0  0  0  0
    5.0708    3.6167    0.8609 O   0  0  0  0  0  0  0  0  0  0  0  0
    7.3824    2.8372   -0.4697 O   0  0  0  0  0  0  0  0  0  0  0  0
   -5.4401    1.2446    0.1617 C   0  0  2  0  0  0  0  0  0  0  0  0
   -4.8133    2.6331    0.2954 C   0  0  2  0  0  0  0  0  0  0  0  0
   -4.7604    0.4417   -0.9487 C   0  0  2  0  0  0  0  0  0  0  0  0
   -3.2890    2.5129    0.4304 C   0  0  2  0  0  0  0  0  0  0  0  0
   -3.2445    0.4252   -0.7602 C   0  0  1  0  0  0  0  0  0  0  0  0
   -2.6047    3.8770    0.4197 C   0  0  0  0  0  0  0  0  0  0  0  0
   -1.7051   -1.0201    0.3256 C   0  0  0  0  0  0  0  0  0  0  0  0
   -1.6417   -2.4125    0.3969 C   0  0  0  0  0  0  0  0  0  0  0  0
   -0.5338   -0.2708    0.2126 C   0  0  0  0  0  0  0  0  0  0  0  0
    0.7018   -0.9172    0.1716 C   0  0  0  0  0  0  0  0  0  0  0  0
    0.7631   -2.3079    0.2428 C   0  0  0  0  0  0  0  0  0  0  0  0
   -0.4072   -3.0617    0.3557 C   0  0  0  0  0  0  0  0  0  0  0  0
    2.0788   -2.9636    0.1954 C   0  0  0  0  0  0  0  0  0  0  0  0
    3.0606   -0.7421    0.0230 C   0  0  0  0  0  0  0  0  0  0  0  0
    3.2490   -2.0703    0.0766 C   0  0  0  0  0  0  0  0  0  0  0  0
    4.1916    0.1989   -0.1050 C   0  0  0  0  0  0  0  0  0  0  0  0
   -3.4163   -3.5518   -0.7059 C   0  0  0  0  0  0  0  0  0  0  0  0
    4.1034    1.4808    0.4431 C   0  0  0  0  0  0  0  0  0  0  0  0
    5.3548   -0.1890   -0.7745 C   0  0  0  0  0  0  0  0  0  0  0  0
    5.1718    2.3695    0.3226 C   0  0  0  0  0  0  0  0  0  0  0  0
    6.4231    0.6997   -0.8952 C   0  0  0  0  0  0  0  0  0  0  0  0
    6.3317    1.9789   -0.3466 C   0  0  0  0  0  0  0  0  0  0  0  0
   -5.3608    0.7048    1.1134 H   0  0  0  0  0  0  0  0  0  0  0  0
   -5.0888    3.2459   -0.5716 H   0  0  0  0  0  0  0  0  0  0  0  0
   -5.1713   -0.5733   -0.9712 H   0  0  0  0  0  0  0  0  0  0  0  0
   -3.0297    2.0242    1.3785 H   0  0  0  0  0  0  0  0  0  0  0  0
   -2.7958   -0.0011   -1.6680 H   0  0  0  0  0  0  0  0  0  0  0  0
   -1.5163    3.7558    0.4562 H   0  0  0  0  0  0  0  0  0  0  0  0
   -2.8286    4.4189   -0.5058 H   0  0  0  0  0  0  0  0  0  0  0  0
   -2.9092    4.4928    1.2705 H   0  0  0  0  0  0  0  0  0  0  0  0
   -7.2214    1.9151    0.5932 H   0  0  0  0  0  0  0  0  0  0  0  0
   -5.0907    4.1914    1.4432 H   0  0  0  0  0  0  0  0  0  0  0  0
   -4.5476    1.8765   -2.2745 H   0  0  0  0  0  0  0  0  0  0  0  0
   -0.5627    0.8139    0.1761 H   0  0  0  0  0  0  0  0  0  0  0  0
    4.2218   -2.5473    0.0604 H   0  0  0  0  0  0  0  0  0  0  0  0
    0.5234   -4.7553    0.3902 H   0  0  0  0  0  0  0  0  0  0  0  0
   -3.6498   -2.6899   -1.3382 H   0  0  0  0  0  0  0  0  0  0  0  0
   -4.3497   -4.0628   -0.4545 H   0  0  0  0  0  0  0  0  0  0  0  0
   -2.7715   -4.2495   -1.2493 H   0  0  0  0  0  0  0  0  0  0  0  0
    3.2112    1.8029    0.9757 H   0  0  0  0  0  0  0  0  0  0  0  0
    5.4570   -1.1684   -1.2344 H   0  0  0  0  0  0  0  0  0  0  0  0
    7.3192    0.3844   -1.4231 H   0  0  0  0  0  0  0  0  0  0  0  0
    5.8994    4.0947    0.6833 H   0  0  0  0  0  0  0  0  0  0  0  0
    8.0963    2.3956   -0.9610 H   0  0  0  0  0  0  0  0  0  0  0  0
  1 15  1  0  0  0  0
  1 16  1  0  0  0  0
  2 16  1  0  0  0  0
  2 18  1  0  0  0  0
  3 12  1  0  0  0  0
  3 42  1  0  0  0  0
  4 13  1  0  0  0  0
  4 43  1  0  0  0  0
  5 14  1  0  0  0  0
  5 44  1  0  0  0  0
  6 21  1  0  0  0  0
  6 25  1  0  0  0  0
  7 19  1  0  0  0  0
  7 28  1  0  0  0  0
  8 23  1  0  0  0  0
  8 47  1  0  0  0  0
  9 24  2  0  0  0  0
 10 31  1  0  0  0  0
 10 54  1  0  0  0  0
 11 33  1  0  0  0  0
 11 55  1  0  0  0  0
 12 13  1  0  0  0  0
 12 14  1  0  0  0  0
 12 34  1  0  0  0  0
 13 15  1  0  0  0  0
 13 35  1  0  0  0  0
 14 16  1  0  0  0  0
 14 36  1  0  0  0  0
 15 17  1  0  0  0  0
 15 37  1  0  0  0  0
 16 38  1  0  0  0  0
 17 39  1  0  0  0  0
 17 40  1  0  0  0  0
 17 41  1  0  0  0  0
 18 19  2  0  0  0  0
 18 20  1  0  0  0  0
 19 23  1  0  0  0  0
 20 21  2  0  0  0  0
 20 45  1  0  0  0  0
 21 22  1  0  0  0  0
 22 23  2  0  0  0  0
 22 24  1  0  0  0  0
 24 26  1  0  0  0  0
 25 26  2  0  0  0  0
 25 27  1  0  0  0  0
 26 46  1  0  0  0  0
 27 29  2  0  0  0  0
 27 30  1  0  0  0  0
 28 48  1  0  0  0  0
 28 49  1  0  0  0  0
 28 50  1  0  0  0  0
 29 31  1  0  0  0  0
 29 51  1  0  0  0  0
 30 32  2  0  0  0  0
 30 52  1  0  0  0  0
 31 33  2  0  0  0  0
 32 33  1  0  0  0  0
 32 53  1  0  0  0  0
M  END
> <PUBCHEM_COMPOUND_CID>
442617

> <PUBCHEM_CONFORMER_RMSD>
0.8

> <PUBCHEM_CONFORMER_DIVERSEORDER>
1
104
97
93
113
105
77
122
78
87
111
125
53
69
70
62
45
65
94
110
124
102
107
54
98
108
91
72
117
66
101
115
44
119
64
96
109
34
114
83
63
43
76
89
120
24
40
67
80
74
31
112
100
33
25
42
86
57
85
103
71
49
39
56
19
52
81
79
121
106
48
17
10
50
59
21
58
61
38
99
47
28
13
46
90
73
37
23
116
60
82
55
75
51
41
123
26
9
118
95
27
84
35
11
36
18
30
20
16
92
22
12
15
7
2
3
32
88
14
4
68
6
8
5
29

> <PUBCHEM_MMFF94_PARTIAL_CHARGES>
43
1 -0.56
10 -0.53
11 -0.53
12 0.28
13 0.28
14 0.28
15 0.28
16 0.56
18 0.08
19 0.08
2 -0.36
20 -0.15
21 0.08
22 0.09
23 0.08
24 0.47
25 0.05
26 -0.14
27 0.03
28 0.28
29 -0.15
3 -0.68
30 -0.15
31 0.08
32 -0.15
33 0.08
4 -0.68
42 0.4
43 0.4
44 0.4
45 0.15
46 0.15
47 0.45
5 -0.68
51 0.15
52 0.15
53 0.15
54 0.45
55 0.45
6 -0.16
7 -0.36
8 -0.53
9 -0.57

> <PUBCHEM_EFFECTIVE_ROTOR_COUNT>
5.2

> <PUBCHEM_PHARMACOPHORE_FEATURES>
18
1 1 acceptor
1 10 donor
1 11 donor
1 2 acceptor
1 3 acceptor
1 3 donor
1 4 acceptor
1 4 donor
1 5 acceptor
1 5 donor
1 6 acceptor
1 7 acceptor
1 8 donor
1 9 acceptor
6 1 12 13 14 15 16 rings
6 18 19 20 21 22 23 rings
6 27 29 30 31 32 33 rings
6 6 21 22 24 25 26 rings

> <PUBCHEM_HEAVY_ATOM_COUNT>
33

> <PUBCHEM_ATOM_DEF_STEREO_COUNT>
5

> <PUBCHEM_ATOM_UDEF_STEREO_COUNT>
0

> <PUBCHEM_BOND_DEF_STEREO_COUNT>
0

> <PUBCHEM_BOND_UDEF_STEREO_COUNT>
0

> <PUBCHEM_ISOTOPIC_ATOM_COUNT>
0

> <PUBCHEM_COMPONENT_COUNT>
1

> <PUBCHEM_CACTVS_TAUTO_COUNT>
57

> <PUBCHEM_CONFORMER_ID>
0006C0F900000001

> <PUBCHEM_MMFF94_ENERGY>
119.0293

> <PUBCHEM_FEATURE_SELFOVERLAP>
91.43

> <PUBCHEM_SHAPE_FINGERPRINT>
10050765 1 18411417327872300218
10411042 1 17403734450390289746
10454371 7 18335419024351549877
11135609 187 18342468075424119749
12390115 104 18411409592661755282
12422481 6 17060341833780960822
12788726 201 18126858100770629675
13540713 4 18269254855394099522
13540713 5 18269856305297218699
1361 2 18412542137062937760
14251764 75 18337665425132945993
14347329 18 18409453570461522496
14394314 77 18336819905630946497
14790565 3 18265049326759906049
14849402 71 18124032588216106794
15198563 99 17901955140735119855
15289351 153 18336275549149222520
15320467 1 18410574002606711880
15513586 35 16841892890593676260
16087824 20 18194682571897165119
16126227 98 18409722950688955897
16992787 43 18410860976100988397
17980427 23 17417527995753662510
18608769 82 18339075991704980787
21033648 144 18202005468948501535
21033648 29 18264777558747135088
21279426 13 18335974299857997454
23559900 14 18335988679055790986
2747138 104 17913475853377108762
283562 15 18269277855096807587
2838139 119 18408325514238191796
335352 9 18339921640975527398
3918712 181 18410865330528549888
5104073 3 18059859458969573018
5171179 24 17680999487292551633
5951187 136 17971461043109209742
6058803 2 17973740361490886695
6201320 77 4822098038765274381
6371009 1 18123491598086941936
7288768 16 18060416919606565163
7808743 9 18411420605005050552

> <PUBCHEM_SHAPE_MULTIPOLES>
614.56
16.32
5.67
0.96
9.8
2.21
0.27
-18.66
2.88
-1.11
-1.31
-0.78
-0.33
-0.6

> <PUBCHEM_SHAPE_SELFOVERLAP>
1348.182

> <PUBCHEM_SHAPE_VOLUME>
329.2

> <PUBCHEM_COORDINATE_TYPE>
2
5
10

$$$$

