10400039
  -OEChem-07051213093D

 32 32  0     0  0  0  0  0  0999 V2000
    0.2933    1.1445    1.7519 O   0  0  0  0  0  0  0  0  0  0  0  0
    2.5535    0.3234    0.3318 O   0  0  0  0  0  0  0  0  0  0  0  0
   -2.1322    1.6069    0.4226 O   0  0  0  0  0  0  0  0  0  0  0  0
    4.1416    1.2438   -1.0578 O   0  0  0  0  0  0  0  0  0  0  0  0
   -3.1044    1.0466   -1.5875 O   0  0  0  0  0  0  0  0  0  0  0  0
    4.7017   -0.3314    0.5208 N   0  0  0  0  0  0  0  0  0  0  0  0
   -4.3230    1.0818    0.3621 N   0  0  0  0  0  0  0  0  0  0  0  0
    0.1743    0.8337    0.3563 C   0  0  0  0  0  0  0  0  0  0  0  0
   -0.2367   -0.6272    0.1633 C   0  0  0  0  0  0  0  0  0  0  0  0
    1.5461    1.1182   -0.2881 C   0  0  0  0  0  0  0  0  0  0  0  0
   -0.8799    1.7934   -0.2316 C   0  0  0  0  0  0  0  0  0  0  0  0
    0.2018   -1.2928   -0.9586 C   0  0  0  0  0  0  0  0  0  0  0  0
   -1.0296   -1.2208    1.1187 C   0  0  0  0  0  0  0  0  0  0  0  0
   -0.1733   -2.6247   -1.1348 C   0  0  0  0  0  0  0  0  0  0  0  0
   -1.4045   -2.5527    0.9426 C   0  0  0  0  0  0  0  0  0  0  0  0
   -0.9764   -3.2546   -0.1842 C   0  0  0  0  0  0  0  0  0  0  0  0
    3.8229    0.4822   -0.1508 C   0  0  0  0  0  0  0  0  0  0  0  0
   -3.1753    1.2296   -0.3768 C   0  0  0  0  0  0  0  0  0  0  0  0
    1.8051    2.1671   -0.0863 H   0  0  0  0  0  0  0  0  0  0  0  0
    1.5563    0.9960   -1.3765 H   0  0  0  0  0  0  0  0  0  0  0  0
   -0.9388    1.6804   -1.3205 H   0  0  0  0  0  0  0  0  0  0  0  0
   -0.5861    2.8307   -0.0310 H   0  0  0  0  0  0  0  0  0  0  0  0
    0.8003   -0.8442   -1.7406 H   0  0  0  0  0  0  0  0  0  0  0  0
   -1.3805   -0.6908    1.9983 H   0  0  0  0  0  0  0  0  0  0  0  0
    0.9603    0.5484    2.1342 H   0  0  0  0  0  0  0  0  0  0  0  0
    0.1539   -3.1699   -2.0154 H   0  0  0  0  0  0  0  0  0  0  0  0
   -2.0320   -3.0426    1.6813 H   0  0  0  0  0  0  0  0  0  0  0  0
   -1.2703   -4.2910   -0.3224 H   0  0  0  0  0  0  0  0  0  0  0  0
    4.3892   -0.9456    1.2653 H   0  0  0  0  0  0  0  0  0  0  0  0
    5.6902   -0.3437    0.2930 H   0  0  0  0  0  0  0  0  0  0  0  0
   -4.3310    1.2439    1.3635 H   0  0  0  0  0  0  0  0  0  0  0  0
   -5.1977    0.8044   -0.0702 H   0  0  0  0  0  0  0  0  0  0  0  0
  1  8  1  0  0  0  0
  1 25  1  0  0  0  0
  2 10  1  0  0  0  0
  2 17  1  0  0  0  0
  3 11  1  0  0  0  0
  3 18  1  0  0  0  0
  4 17  2  0  0  0  0
  5 18  2  0  0  0  0
  6 17  1  0  0  0  0
  6 29  1  0  0  0  0
  6 30  1  0  0  0  0
  7 18  1  0  0  0  0
  7 31  1  0  0  0  0
  7 32  1  0  0  0  0
  8  9  1  0  0  0  0
  8 10  1  0  0  0  0
  8 11  1  0  0  0  0
  9 12  2  0  0  0  0
  9 13  1  0  0  0  0
 10 19  1  0  0  0  0
 10 20  1  0  0  0  0
 11 21  1  0  0  0  0
 11 22  1  0  0  0  0
 12 14  1  0  0  0  0
 12 23  1  0  0  0  0
 13 15  2  0  0  0  0
 13 24  1  0  0  0  0
 14 16  2  0  0  0  0
 14 26  1  0  0  0  0
 15 16  1  0  0  0  0
 15 27  1  0  0  0  0
 16 28  1  0  0  0  0
M  END
> <PUBCHEM_COMPOUND_CID>
10400039

> <PUBCHEM_CONFORMER_RMSD>
0.8

> <PUBCHEM_CONFORMER_DIVERSEORDER>
2
48
70
9
52
41
68
27
88
78
72
16
20
60
86
75
87
89
55
45
29
82
56
23
65
37
93
69
95
38
18
42
34
96
14
11
46
92
47
76
74
51
97
91
3
28
36
62
15
8
71
39
57
85
53
66
64
54
31
50
59
40
83
13
73
80
94
67
30
4
10
5
63
33
24
81
19
49
43
58
90
61
77
26
79
32
35
84
12
22
25
17
44
21
1
7
6

> <PUBCHEM_MMFF94_PARTIAL_CHARGES>
28
1 -0.68
10 0.28
11 0.28
12 -0.15
13 -0.15
14 -0.15
15 -0.15
16 -0.15
17 0.78
18 0.78
2 -0.43
23 0.15
24 0.15
25 0.4
26 0.15
27 0.15
28 0.15
29 0.37
3 -0.43
30 0.37
31 0.37
32 0.37
4 -0.57
5 -0.57
6 -0.8
7 -0.8
8 0.42
9 -0.14

> <PUBCHEM_EFFECTIVE_ROTOR_COUNT>
7

> <PUBCHEM_PHARMACOPHORE_FEATURES>
7
1 1 acceptor
1 1 donor
1 4 acceptor
1 5 acceptor
1 6 donor
1 7 donor
6 9 12 13 14 15 16 rings

> <PUBCHEM_HEAVY_ATOM_COUNT>
18

> <PUBCHEM_ATOM_DEF_STEREO_COUNT>
0

> <PUBCHEM_ATOM_UDEF_STEREO_COUNT>
0

> <PUBCHEM_BOND_DEF_STEREO_COUNT>
0

> <PUBCHEM_BOND_UDEF_STEREO_COUNT>
0

> <PUBCHEM_ISOTOPIC_ATOM_COUNT>
0

> <PUBCHEM_COMPONENT_COUNT>
1

> <PUBCHEM_CACTVS_TAUTO_COUNT>
3

> <PUBCHEM_CONFORMER_ID>
009EB12700000002

> <PUBCHEM_MMFF94_ENERGY>
49.3196

> <PUBCHEM_FEATURE_SELFOVERLAP>
35.52

> <PUBCHEM_SHAPE_FINGERPRINT>
10922049 32 18341894129657568323
11322862 65 18410854347932339398
11680986 33 18265037197709354814
12035758 1 18261952942859433563
12138202 97 18413106147577083014
12592029 89 18201154480923186962
12714826 92 18191575355549912626
12715332 25 18335421248928343947
13052359 8 18411987927293616911
13380535 76 18409445933629698974
13583140 156 17417515952554704680
13931106 250 17969796172120385598
15163728 17 17558260200829965037
15852999 172 18336255842720605038
16752209 62 18337680698147803346
16945 1 18411980256371009768
187816 3 17967816076148390392
20645476 183 18059866068459510586
20645477 70 18048609406803203765
21524375 3 18340772644887571656
22907989 373 18193823864986386428
23402539 116 18409174328530344565
23419403 2 17391585130444235007
23559900 14 18261395521336419920
23728640 28 18409459080904783770
2748010 2 18119498098693267999
298252 57 18272656769896752905
3250762 1 17755033994420777113
366044 4 18409169938878238225
4175511 318 18202843236262768428
474229 33 18412261740406958331
559249 180 18343309188950121618
6138700 20 17833266807244702270
69090 78 18342741831827374584
81228 2 17909005205102050017
81539 233 18197222653312562517

> <PUBCHEM_SHAPE_MULTIPOLES>
331.12
6.18
3.06
1.21
5.53
2.64
-0.02
-3.56
0.59
-2.17
0.28
-0.25
0.11
0.19

> <PUBCHEM_SHAPE_SELFOVERLAP>
686.024

> <PUBCHEM_SHAPE_VOLUME>
186.8

> <PUBCHEM_COORDINATE_TYPE>
2
5
10

$$$$

