17396352
  -OEChem-06241222562D

 45 47  0     1  0  0  0  0  0999 V2000
   11.5542   -0.5520    0.0000 O   0  0  0  0  0  0  0  0  0  0  0  0
   11.5542    1.5173    0.0000 O   0  0  0  0  0  0  0  0  0  0  0  0
    4.5981   -0.5173    0.0000 O   0  0  0  0  0  0  0  0  0  0  0  0
    6.3301   -1.5173    0.0000 O   0  0  0  0  0  0  0  0  0  0  0  0
    7.1962   -0.0173    0.0000 N   0  0  0  0  0  0  0  0  0  0  0  0
    8.0622   -0.5173    0.0000 C   0  0  3  0  0  0  0  0  0  0  0  0
    8.9282   -0.0173    0.0000 C   0  0  0  0  0  0  0  0  0  0  0  0
    9.7942   -0.5173    0.0000 C   0  0  0  0  0  0  0  0  0  0  0  0
   10.6603   -0.0173    0.0000 C   0  0  0  0  0  0  0  0  0  0  0  0
   10.6603    0.9827    0.0000 C   0  0  0  0  0  0  0  0  0  0  0  0
    8.9282    0.9827    0.0000 C   0  0  0  0  0  0  0  0  0  0  0  0
    8.0622   -1.5173    0.0000 C   0  0  0  0  0  0  0  0  0  0  0  0
    9.7942    1.4827    0.0000 C   0  0  0  0  0  0  0  0  0  0  0  0
   12.4603   -0.0381    0.0000 C   0  0  0  0  0  0  0  0  0  0  0  0
   12.4603    1.0035    0.0000 C   0  0  0  0  0  0  0  0  0  0  0  0
    6.3301   -0.5173    0.0000 C   0  0  0  0  0  0  0  0  0  0  0  0
    5.4641   -0.0173    0.0000 C   0  0  0  0  0  0  0  0  0  0  0  0
    3.7320   -0.0173    0.0000 C   0  0  0  0  0  0  0  0  0  0  0  0
    3.7320    0.9827    0.0000 C   0  0  0  0  0  0  0  0  0  0  0  0
    2.8660   -0.5173    0.0000 C   0  0  0  0  0  0  0  0  0  0  0  0
    2.8660    1.4827    0.0000 C   0  0  0  0  0  0  0  0  0  0  0  0
    4.5981    1.4827    0.0000 C   0  0  0  0  0  0  0  0  0  0  0  0
    2.0000   -0.0173    0.0000 C   0  0  0  0  0  0  0  0  0  0  0  0
    2.0000    0.9827    0.0000 C   0  0  0  0  0  0  0  0  0  0  0  0
    8.0622    0.1027    0.0000 H   0  0  0  0  0  0  0  0  0  0  0  0
    9.7942   -1.1373    0.0000 H   0  0  0  0  0  0  0  0  0  0  0  0
    8.3913    1.2927    0.0000 H   0  0  0  0  0  0  0  0  0  0  0  0
    7.4422   -1.5173    0.0000 H   0  0  0  0  0  0  0  0  0  0  0  0
    8.0622   -2.1373    0.0000 H   0  0  0  0  0  0  0  0  0  0  0  0
    8.6822   -1.5173    0.0000 H   0  0  0  0  0  0  0  0  0  0  0  0
    7.1962    0.6027    0.0000 H   0  0  0  0  0  0  0  0  0  0  0  0
    9.7942    2.1027    0.0000 H   0  0  0  0  0  0  0  0  0  0  0  0
   12.6693   -0.6218    0.0000 H   0  0  0  0  0  0  0  0  0  0  0  0
   13.0711    0.0679    0.0000 H   0  0  0  0  0  0  0  0  0  0  0  0
   13.0711    0.8974    0.0000 H   0  0  0  0  0  0  0  0  0  0  0  0
   12.6693    1.5872    0.0000 H   0  0  0  0  0  0  0  0  0  0  0  0
    5.8626    0.4576    0.0000 H   0  0  0  0  0  0  0  0  0  0  0  0
    5.0656    0.4576    0.0000 H   0  0  0  0  0  0  0  0  0  0  0  0
    2.8660   -1.1373    0.0000 H   0  0  0  0  0  0  0  0  0  0  0  0
    2.8660    2.1027    0.0000 H   0  0  0  0  0  0  0  0  0  0  0  0
    4.9081    0.9457    0.0000 H   0  0  0  0  0  0  0  0  0  0  0  0
    5.1350    1.7927    0.0000 H   0  0  0  0  0  0  0  0  0  0  0  0
    4.2881    2.0196    0.0000 H   0  0  0  0  0  0  0  0  0  0  0  0
    1.4631   -0.3273    0.0000 H   0  0  0  0  0  0  0  0  0  0  0  0
    1.4631    1.2927    0.0000 H   0  0  0  0  0  0  0  0  0  0  0  0
  1  9  1  0  0  0  0
  1 14  1  0  0  0  0
  2 10  1  0  0  0  0
  2 15  1  0  0  0  0
  3 17  1  0  0  0  0
  3 18  1  0  0  0  0
  4 16  2  0  0  0  0
  5  6  1  0  0  0  0
  5 16  1  0  0  0  0
  5 31  1  0  0  0  0
  6  7  1  0  0  0  0
  6 12  1  0  0  0  0
  6 25  1  0  0  0  0
  7  8  2  0  0  0  0
  7 11  1  0  0  0  0
  8  9  1  0  0  0  0
  8 26  1  0  0  0  0
  9 10  2  0  0  0  0
 10 13  1  0  0  0  0
 11 13  2  0  0  0  0
 11 27  1  0  0  0  0
 12 28  1  0  0  0  0
 12 29  1  0  0  0  0
 12 30  1  0  0  0  0
 13 32  1  0  0  0  0
 14 15  1  0  0  0  0
 14 33  1  0  0  0  0
 14 34  1  0  0  0  0
 15 35  1  0  0  0  0
 15 36  1  0  0  0  0
 16 17  1  0  0  0  0
 17 37  1  0  0  0  0
 17 38  1  0  0  0  0
 18 19  1  0  0  0  0
 18 20  2  0  0  0  0
 19 21  2  0  0  0  0
 19 22  1  0  0  0  0
 20 23  1  0  0  0  0
 20 39  1  0  0  0  0
 21 24  1  0  0  0  0
 21 40  1  0  0  0  0
 22 41  1  0  0  0  0
 22 42  1  0  0  0  0
 22 43  1  0  0  0  0
 23 24  2  0  0  0  0
 23 44  1  0  0  0  0
 24 45  1  0  0  0  0
M  END
> <PUBCHEM_COMPOUND_CID>
17396352

> <PUBCHEM_COMPOUND_CANONICALIZED>
1

> <PUBCHEM_CACTVS_COMPLEXITY>
416

> <PUBCHEM_CACTVS_HBOND_ACCEPTOR>
4

> <PUBCHEM_CACTVS_HBOND_DONOR>
1

> <PUBCHEM_CACTVS_ROTATABLE_BOND>
5

> <PUBCHEM_CACTVS_SUBSKEYS>
AAADceB6OAAAAAAAAAAAAAAAAAAAAAAAAAA0YIAAAAAAAACRQAAAHgAQAAAADCzhmAYyBoLABACIAiFSEAKCCAAgIAAIiIBOjIgPJiKEsR+HOCrk1hGaqAew0LMOIAABAAAIQABAAAIAABCAAAAAAAAAAA==

> <PUBCHEM_IUPAC_OPENEYE_NAME>
N-[1-(2,3-dihydro-1,4-benzodioxin-6-yl)ethyl]-2-(2-methylphenoxy)acetamide

> <PUBCHEM_IUPAC_CAS_NAME>
N-[1-(2,3-dihydro-1,4-benzodioxin-6-yl)ethyl]-2-(2-methylphenoxy)acetamide

> <PUBCHEM_IUPAC_NAME>
N-[1-(2,3-dihydro-1,4-benzodioxin-6-yl)ethyl]-2-(2-methylphenoxy)acetamide

> <PUBCHEM_IUPAC_SYSTEMATIC_NAME>
N-[1-(2,3-dihydro-1,4-benzodioxin-6-yl)ethyl]-2-(2-methylphenoxy)ethanamide

> <PUBCHEM_IUPAC_TRADITIONAL_NAME>
N-[1-(2,3-dihydro-1,4-benzodioxin-6-yl)ethyl]-2-(2-methylphenoxy)acetamide

> <PUBCHEM_IUPAC_INCHI>
InChI=1S/C19H21NO4/c1-13-5-3-4-6-16(13)24-12-19(21)20-14(2)15-7-8-17-18(11-15)23-10-9-22-17/h3-8,11,14H,9-10,12H2,1-2H3,(H,20,21)

> <PUBCHEM_IUPAC_INCHIKEY>
MLKUQZYQIJZBCH-UHFFFAOYSA-N

> <PUBCHEM_XLOGP3_AA>
3.2

> <PUBCHEM_EXACT_MASS>
327.147058

> <PUBCHEM_MOLECULAR_FORMULA>
C19H21NO4

> <PUBCHEM_MOLECULAR_WEIGHT>
327.37434

> <PUBCHEM_OPENEYE_CAN_SMILES>
CC1=CC=CC=C1OCC(=O)NC(C)C2=CC3=C(C=C2)OCCO3

> <PUBCHEM_OPENEYE_ISO_SMILES>
CC1=CC=CC=C1OCC(=O)NC(C)C2=CC3=C(C=C2)OCCO3

> <PUBCHEM_CACTVS_TPSA>
56.8

> <PUBCHEM_MONOISOTOPIC_WEIGHT>
327.147058

> <PUBCHEM_TOTAL_CHARGE>
0

> <PUBCHEM_HEAVY_ATOM_COUNT>
24

> <PUBCHEM_ATOM_DEF_STEREO_COUNT>
0

> <PUBCHEM_ATOM_UDEF_STEREO_COUNT>
1

> <PUBCHEM_BOND_DEF_STEREO_COUNT>
0

> <PUBCHEM_BOND_UDEF_STEREO_COUNT>
0

> <PUBCHEM_ISOTOPIC_ATOM_COUNT>
0

> <PUBCHEM_COMPONENT_COUNT>
1

> <PUBCHEM_CACTVS_TAUTO_COUNT>
2

> <PUBCHEM_COORDINATE_TYPE>
1
5
255

> <PUBCHEM_BONDANNOTATIONS>
10  13  8
11  13  8
18  19  8
18  20  8
19  21  8
20  23  8
21  24  8
23  24  8
6  12  3
7  11  8
7  8  8
8  9  8
9  10  8

$$$$

