443335
  -OEChem-07051213023D

 48 50  0     1  0  0  0  0  0999 V2000
    0.2317   -0.7001   -0.9041 O   0  0  0  0  0  0  0  0  0  0  0  0
   -1.3186   -1.8232    0.4371 O   0  0  0  0  0  0  0  0  0  0  0  0
    1.7988    0.7996   -0.0441 O   0  0  0  0  0  0  0  0  0  0  0  0
    2.1188   -2.7917   -0.6362 O   0  0  0  0  0  0  0  0  0  0  0  0
    4.8889   -1.8003   -0.7915 O   0  0  0  0  0  0  0  0  0  0  0  0
    5.2773    0.4081    1.0328 O   0  0  0  0  0  0  0  0  0  0  0  0
   -5.8168   -0.4571    1.1438 O   0  0  0  0  0  0  0  0  0  0  0  0
    2.0518    3.1214    1.4053 O   0  0  0  0  0  0  0  0  0  0  0  0
   -2.0562    0.0259   -1.0288 C   0  0  1  0  0  0  0  0  0  0  0  0
   -3.3824    0.1433   -0.2610 C   0  0  2  0  0  0  0  0  0  0  0  0
   -1.7718    1.4671   -1.4843 C   0  0  2  0  0  0  0  0  0  0  0  0
   -3.3348    1.5237    0.4097 C   0  0  0  0  0  0  0  0  0  0  0  0
   -2.2360    2.3205   -0.2996 C   0  0  0  0  0  0  0  0  0  0  0  0
   -0.9522   -0.5525   -0.1208 C   0  0  2  0  0  0  0  0  0  0  0  0
   -3.5628   -0.9921    0.6917 C   0  0  0  0  0  0  0  0  0  0  0  0
   -2.5357    1.8291   -2.7594 C   0  0  0  0  0  0  0  0  0  0  0  0
    1.4030   -0.5690   -0.0991 C   0  0  2  0  0  0  0  0  0  0  0  0
    2.5049   -1.4207   -0.7293 C   0  0  1  0  0  0  0  0  0  0  0  0
   -2.5909   -1.8753    0.9456 C   0  0  0  0  0  0  0  0  0  0  0  0
    3.8408   -1.2200   -0.0137 C   0  0  2  0  0  0  0  0  0  0  0  0
    4.1537    0.2654    0.1680 C   0  0  1  0  0  0  0  0  0  0  0  0
    2.9552    1.0032    0.7696 C   0  0  1  0  0  0  0  0  0  0  0  0
   -4.8676   -1.2118    1.3164 C   0  0  0  0  0  0  0  0  0  0  0  0
    3.2008    2.5065    0.8518 C   0  0  0  0  0  0  0  0  0  0  0  0
   -2.1740   -0.6399   -1.8945 H   0  0  0  0  0  0  0  0  0  0  0  0
   -4.2045    0.1323   -0.9893 H   0  0  0  0  0  0  0  0  0  0  0  0
   -0.7055    1.6304   -1.6767 H   0  0  0  0  0  0  0  0  0  0  0  0
   -3.1202    1.4645    1.4834 H   0  0  0  0  0  0  0  0  0  0  0  0
   -4.3025    2.0278    0.3049 H   0  0  0  0  0  0  0  0  0  0  0  0
   -2.5849    3.3139   -0.6003 H   0  0  0  0  0  0  0  0  0  0  0  0
   -1.4000    2.4733    0.3941 H   0  0  0  0  0  0  0  0  0  0  0  0
   -0.7637    0.1396    0.7126 H   0  0  0  0  0  0  0  0  0  0  0  0
   -2.2385    1.1734   -3.5846 H   0  0  0  0  0  0  0  0  0  0  0  0
   -3.6197    1.7445   -2.6327 H   0  0  0  0  0  0  0  0  0  0  0  0
   -2.3155    2.8602   -3.0562 H   0  0  0  0  0  0  0  0  0  0  0  0
    1.1999   -0.9405    0.9158 H   0  0  0  0  0  0  0  0  0  0  0  0
    2.6042   -1.1867   -1.7966 H   0  0  0  0  0  0  0  0  0  0  0  0
   -2.7048   -2.7553    1.5643 H   0  0  0  0  0  0  0  0  0  0  0  0
    3.8403   -1.7433    0.9507 H   0  0  0  0  0  0  0  0  0  0  0  0
    4.4207    0.7062   -0.8012 H   0  0  0  0  0  0  0  0  0  0  0  0
    2.7391    0.6390    1.7834 H   0  0  0  0  0  0  0  0  0  0  0  0
   -4.9551   -2.0980    1.9673 H   0  0  0  0  0  0  0  0  0  0  0  0
    3.3582    2.9310   -0.1454 H   0  0  0  0  0  0  0  0  0  0  0  0
    4.0629    2.7389    1.4843 H   0  0  0  0  0  0  0  0  0  0  0  0
    2.8387   -3.3225   -1.0183 H   0  0  0  0  0  0  0  0  0  0  0  0
    5.7004   -1.7790   -0.2569 H   0  0  0  0  0  0  0  0  0  0  0  0
    6.0518    0.0416    0.5743 H   0  0  0  0  0  0  0  0  0  0  0  0
    2.2276    4.0770    1.4432 H   0  0  0  0  0  0  0  0  0  0  0  0
  1 14  1  0  0  0  0
  1 17  1  0  0  0  0
  2 14  1  0  0  0  0
  2 19  1  0  0  0  0
  3 17  1  0  0  0  0
  3 22  1  0  0  0  0
  4 18  1  0  0  0  0
  4 45  1  0  0  0  0
  5 20  1  0  0  0  0
  5 46  1  0  0  0  0
  6 21  1  0  0  0  0
  6 47  1  0  0  0  0
  7 23  2  0  0  0  0
  8 24  1  0  0  0  0
  8 48  1  0  0  0  0
  9 10  1  0  0  0  0
  9 11  1  0  0  0  0
  9 14  1  0  0  0  0
  9 25  1  0  0  0  0
 10 12  1  0  0  0  0
 10 15  1  0  0  0  0
 10 26  1  0  0  0  0
 11 13  1  0  0  0  0
 11 16  1  0  0  0  0
 11 27  1  0  0  0  0
 12 13  1  0  0  0  0
 12 28  1  0  0  0  0
 12 29  1  0  0  0  0
 13 30  1  0  0  0  0
 13 31  1  0  0  0  0
 14 32  1  0  0  0  0
 15 19  2  0  0  0  0
 15 23  1  0  0  0  0
 16 33  1  0  0  0  0
 16 34  1  0  0  0  0
 16 35  1  0  0  0  0
 17 18  1  0  0  0  0
 17 36  1  0  0  0  0
 18 20  1  0  0  0  0
 18 37  1  0  0  0  0
 19 38  1  0  0  0  0
 20 21  1  0  0  0  0
 20 39  1  0  0  0  0
 21 22  1  0  0  0  0
 21 40  1  0  0  0  0
 22 24  1  0  0  0  0
 22 41  1  0  0  0  0
 23 42  1  0  0  0  0
 24 43  1  0  0  0  0
 24 44  1  0  0  0  0
M  END
> <PUBCHEM_COMPOUND_CID>
443335

> <PUBCHEM_CONFORMER_RMSD>
0.8

> <PUBCHEM_CONFORMER_DIVERSEORDER>
1
61
55
54
26
21
28
48
33
30
51
57
9
12
10
43
5
40
42
59
50
34
2
24
53
20
47
62
44
23
49
19
35
25
14
13
64
58
27
46
38
63
60
29
8
7
17
15
39
3
37
56
16
45
32
11
22
36
41
31
18
6
4
52

> <PUBCHEM_MMFF94_PARTIAL_CHARGES>
25
1 -0.56
10 0.14
14 0.56
15 -0.12
17 0.56
18 0.28
19 -0.07
2 -0.36
20 0.28
21 0.28
22 0.28
23 0.5
24 0.28
3 -0.56
38 0.15
4 -0.68
42 0.06
45 0.4
46 0.4
47 0.4
48 0.4
5 -0.68
6 -0.68
7 -0.57
8 -0.68

> <PUBCHEM_EFFECTIVE_ROTOR_COUNT>
6.2

> <PUBCHEM_PHARMACOPHORE_FEATURES>
15
1 1 acceptor
1 2 acceptor
1 3 acceptor
1 4 acceptor
1 4 donor
1 5 acceptor
1 5 donor
1 6 acceptor
1 6 donor
1 7 acceptor
1 8 acceptor
1 8 donor
5 9 10 11 12 13 rings
6 2 9 10 14 15 19 rings
6 3 17 18 20 21 22 rings

> <PUBCHEM_HEAVY_ATOM_COUNT>
24

> <PUBCHEM_ATOM_DEF_STEREO_COUNT>
9

> <PUBCHEM_ATOM_UDEF_STEREO_COUNT>
0

> <PUBCHEM_BOND_DEF_STEREO_COUNT>
0

> <PUBCHEM_BOND_UDEF_STEREO_COUNT>
0

> <PUBCHEM_ISOTOPIC_ATOM_COUNT>
0

> <PUBCHEM_COMPONENT_COUNT>
1

> <PUBCHEM_CACTVS_TAUTO_COUNT>
1

> <PUBCHEM_CONFORMER_ID>
0006C3C700000001

> <PUBCHEM_MMFF94_ENERGY>
62.5593

> <PUBCHEM_FEATURE_SELFOVERLAP>
76.365

> <PUBCHEM_SHAPE_FINGERPRINT>
10165383 225 18119519934739608416
10319926 262 18059024998500633146
10366900 7 18342455924254614278
1100329 8 16752688889572135746
11045977 3 18411133662983585625
11370993 144 18335412491584973209
11595378 159 17418104212444004384
12236239 1 15195285326370581847
12403259 226 18411983589239186118
12403259 415 18411983576570484228
12507560 40 18408882957822045382
12596602 18 15554164783647166500
12616971 3 16732990859735750486
12633257 1 18336264544081727955
12788726 201 15554450712943001725
13140716 1 18124593080946840915
13402501 40 18412543214845741906
13583140 156 18200615668775886246
14223421 5 18341616996734694333
14251757 17 18337955709192998058
14341114 176 18410285908968255810
14866123 147 15815092507860297010
15081414 286 18113056035303652944
15163728 17 14925596062786204097
151778 21 18118685409693386640
17349148 13 15769774645724880259
173720 79 15338016311718490789
1813 80 17346314831077730029
18785283 64 18337953364336604584
19049666 15 18268432510779163494
19930381 70 17972609779399843745
20600515 1 16843605959847945763
20645476 183 14417848138382500495
20681677 76 18337685164628474141
21033648 29 18338251421802029048
21792961 116 18339358682510909598
22122407 14 17313928759157739059
2297311 6 18130210636171735766
23402539 116 18343301449398175967
23557571 272 17988926665199927429
23559900 14 18273492368774320223
350125 39 18340479002447827108
508706 21 18130519637810202589
5104073 3 18339084907898520314
6049 1 18413673508646572684
6287921 2 18197212551534164868
81228 2 17989194946216270787
84936 182 16904714999444100613
9709674 26 18408888434037372566

> <PUBCHEM_SHAPE_MULTIPOLES>
446.95
10.5
2.84
1.53
2.28
0.9
-0.62
-2.02
3.29
0.61
0.13
-0.89
0.79
2.98

> <PUBCHEM_SHAPE_SELFOVERLAP>
936.387

> <PUBCHEM_SHAPE_VOLUME>
248.7

> <PUBCHEM_COORDINATE_TYPE>
2
5
10

$$$$

