13046
  -OEChem-06261207413D

 24 24  0     0  0  0  0  0  0999 V2000
    2.6121    0.6806   -1.6471 Cl  0  0  0  0  0  0  0  0  0  0  0  0
    2.0713   -0.0978    0.1652 S   0  0  0  0  0  0  0  0  0  0  0  0
    2.4938   -1.4829    0.1560 O   0  0  0  0  0  0  0  0  0  0  0  0
    2.5487    0.8545    1.1464 O   0  0  0  0  0  0  0  0  0  0  0  0
    0.3194   -0.0405    0.0842 C   0  0  0  0  0  0  0  0  0  0  0  0
   -0.3390    1.1893    0.0791 C   0  0  0  0  0  0  0  0  0  0  0  0
   -0.4150   -1.2250    0.0254 C   0  0  0  0  0  0  0  0  0  0  0  0
   -2.4660    0.0503   -0.0436 C   0  0  0  0  0  0  0  0  0  0  0  0
   -1.7317    1.2347    0.0153 C   0  0  0  0  0  0  0  0  0  0  0  0
   -1.8078   -1.1796   -0.0385 C   0  0  0  0  0  0  0  0  0  0  0  0
    0.4140    2.4784    0.1415 C   0  0  0  0  0  0  0  0  0  0  0  0
    0.2553   -2.5604    0.0283 C   0  0  0  0  0  0  0  0  0  0  0  0
   -3.9551    0.0986   -0.1121 C   0  0  0  0  0  0  0  0  0  0  0  0
   -2.2513    2.1899    0.0096 H   0  0  0  0  0  0  0  0  0  0  0  0
   -2.3870   -2.0987   -0.0868 H   0  0  0  0  0  0  0  0  0  0  0  0
    1.1125    2.6116   -0.6832 H   0  0  0  0  0  0  0  0  0  0  0  0
   -0.2770    3.3279    0.0638 H   0  0  0  0  0  0  0  0  0  0  0  0
    0.9139    2.6037    1.1055 H   0  0  0  0  0  0  0  0  0  0  0  0
   -0.4984   -3.3579   -0.0239 H   0  0  0  0  0  0  0  0  0  0  0  0
    0.7843   -2.7520    0.9669 H   0  0  0  0  0  0  0  0  0  0  0  0
    0.8697   -2.7130   -0.8644 H   0  0  0  0  0  0  0  0  0  0  0  0
   -4.4018   -0.7775    0.3702 H   0  0  0  0  0  0  0  0  0  0  0  0
   -4.3464    0.9818    0.4042 H   0  0  0  0  0  0  0  0  0  0  0  0
   -4.2821    0.1292   -1.1562 H   0  0  0  0  0  0  0  0  0  0  0  0
  1  2  1  0  0  0  0
  2  3  2  0  0  0  0
  2  4  2  0  0  0  0
  2  5  1  0  0  0  0
  5  6  2  0  0  0  0
  5  7  1  0  0  0  0
  6  9  1  0  0  0  0
  6 11  1  0  0  0  0
  7 10  2  0  0  0  0
  7 12  1  0  0  0  0
  8  9  2  0  0  0  0
  8 10  1  0  0  0  0
  8 13  1  0  0  0  0
  9 14  1  0  0  0  0
 10 15  1  0  0  0  0
 11 16  1  0  0  0  0
 11 17  1  0  0  0  0
 11 18  1  0  0  0  0
 12 19  1  0  0  0  0
 12 20  1  0  0  0  0
 12 21  1  0  0  0  0
 13 22  1  0  0  0  0
 13 23  1  0  0  0  0
 13 24  1  0  0  0  0
M  END
> <PUBCHEM_COMPOUND_CID>
13046

> <PUBCHEM_CONFORMER_RMSD>
0.4

> <PUBCHEM_CONFORMER_DIVERSEORDER>
1
2

> <PUBCHEM_MMFF94_PARTIAL_CHARGES>
15
1 -0.19
10 -0.15
11 0.14
12 0.14
13 0.14
14 0.15
15 0.15
2 1.49
3 -0.65
4 -0.65
5 -0.01
6 -0.14
7 -0.14
8 -0.14
9 -0.15

> <PUBCHEM_EFFECTIVE_ROTOR_COUNT>
1

> <PUBCHEM_PHARMACOPHORE_FEATURES>
1
6 5 6 7 8 9 10 rings

> <PUBCHEM_HEAVY_ATOM_COUNT>
13

> <PUBCHEM_ATOM_DEF_STEREO_COUNT>
0

> <PUBCHEM_ATOM_UDEF_STEREO_COUNT>
0

> <PUBCHEM_BOND_DEF_STEREO_COUNT>
0

> <PUBCHEM_BOND_UDEF_STEREO_COUNT>
0

> <PUBCHEM_ISOTOPIC_ATOM_COUNT>
0

> <PUBCHEM_COMPONENT_COUNT>
1

> <PUBCHEM_CACTVS_TAUTO_COUNT>
1

> <PUBCHEM_CONFORMER_ID>
000032F600000001

> <PUBCHEM_MMFF94_ENERGY>
36.3414

> <PUBCHEM_FEATURE_SELFOVERLAP>
5.074

> <PUBCHEM_SHAPE_FINGERPRINT>
10219947 1 18410014351334788635
10967382 1 18410296899852967091
11471102 20 18410864282687359141
12032990 46 18410570729956916787
12423570 1 11804828118417284747
12524768 44 18187362121143997390
13380536 305 18338510833658243133
14993402 34 18411694366157362861
15219459 52 18273207612537605694
15775835 57 18410009922817337422
16945 1 18410854317962325145
18186145 218 18114177532272762089
193761 8 17762059839562499819
20645476 183 17916855812271039198
21501502 16 17977383059907282435
22802520 49 18115564029325623046
2334 1 18410575101901022395
23402539 116 18260843578729680238
23419403 2 15316973973369547241
23463225 33 18341896354308410795
23552423 10 18126840731959112199
23559900 14 18188487008462107126
2748010 2 18410016562836796551
5084963 1 18059293296016142378
5255222 1 17832988625890157392
528886 8 18410017619588753051
537710 114 18413383241961529781
53812653 166 18262243222276585353
7364860 26 18408322190313195740

> <PUBCHEM_SHAPE_MULTIPOLES>
261.51
4.57
2.28
0.92
1.98
0.34
-0.22
-0.32
-0.56
-0.43
0.15
-0.78
-0.21
-0.13

> <PUBCHEM_SHAPE_SELFOVERLAP>
522.657

> <PUBCHEM_SHAPE_VOLUME>
157.8

> <PUBCHEM_COORDINATE_TYPE>
2
5
10

$$$$

