46174044
  -OEChem-07051213113D

 35 35  0     1  0  0  0  0  0999 V2000
   -2.5308   -1.8637    0.0763 P   0  0  0  0  0  0  0  0  0  0  0  0
   -0.6365    0.6309   -1.0181 O   0  0  0  0  0  0  0  0  0  0  0  0
    0.4220    0.5564    2.3602 O   0  0  0  0  0  0  0  0  0  0  0  0
   -1.2718   -0.9908    0.5863 O   0  0  0  0  0  0  0  0  0  0  0  0
    0.7639    3.0964    1.3144 O   0  0  0  0  0  0  0  0  0  0  0  0
   -2.3686    2.7071   -1.5018 O   0  0  0  0  0  0  0  0  0  0  0  0
    3.7347   -1.6892    0.5850 O   0  0  0  0  0  0  0  0  0  0  0  0
   -3.3492   -0.8428   -0.8740 O   0  0  0  0  0  0  0  0  0  0  0  0
   -3.4540   -1.9601    1.4005 O   0  0  0  0  0  0  0  0  0  0  0  0
   -2.1808   -3.1820   -0.5497 O   0  0  0  0  0  0  0  0  0  0  0  0
    2.1435   -0.5629   -0.6876 N   0  0  0  0  0  0  0  0  0  0  0  0
    1.0896   -0.5235    0.3024 C   0  0  1  0  0  0  0  0  0  0  0  0
    1.2254    0.7216    1.1894 C   0  0  1  0  0  0  0  0  0  0  0  0
    0.7623    1.9743    0.4396 C   0  0  1  0  0  0  0  0  0  0  0  0
   -0.6353    1.7690   -0.1517 C   0  0  1  0  0  0  0  0  0  0  0  0
   -0.2918   -0.5970   -0.3723 C   0  0  2  0  0  0  0  0  0  0  0  0
   -1.0790    2.9710   -0.9804 C   0  0  0  0  0  0  0  0  0  0  0  0
    3.3784   -1.1452   -0.4570 C   0  0  0  0  0  0  0  0  0  0  0  0
    4.2782   -1.0693   -1.6613 C   0  0  0  0  0  0  0  0  0  0  0  0
    1.2007   -1.4124    0.9376 H   0  0  0  0  0  0  0  0  0  0  0  0
    2.2561    0.8596    1.5366 H   0  0  0  0  0  0  0  0  0  0  0  0
    1.4704    2.1819   -0.3727 H   0  0  0  0  0  0  0  0  0  0  0  0
   -1.3822    1.6128    0.6375 H   0  0  0  0  0  0  0  0  0  0  0  0
   -0.2579   -1.3616   -1.1574 H   0  0  0  0  0  0  0  0  0  0  0  0
   -0.4034    3.1321   -1.8272 H   0  0  0  0  0  0  0  0  0  0  0  0
   -1.1249    3.8815   -0.3754 H   0  0  0  0  0  0  0  0  0  0  0  0
    1.9792   -0.0955   -1.5749 H   0  0  0  0  0  0  0  0  0  0  0  0
    0.7529   -0.2255    2.8343 H   0  0  0  0  0  0  0  0  0  0  0  0
    1.6644    3.1899    1.6692 H   0  0  0  0  0  0  0  0  0  0  0  0
   -2.6296    3.4818   -2.0282 H   0  0  0  0  0  0  0  0  0  0  0  0
    4.3495   -0.0361   -2.0128 H   0  0  0  0  0  0  0  0  0  0  0  0
    5.2794   -1.4203   -1.3967 H   0  0  0  0  0  0  0  0  0  0  0  0
    3.8763   -1.6996   -2.4594 H   0  0  0  0  0  0  0  0  0  0  0  0
   -4.2535   -2.5281    1.3812 H   0  0  0  0  0  0  0  0  0  0  0  0
   -4.1374   -1.1719   -1.3564 H   0  0  0  0  0  0  0  0  0  0  0  0
  1  4  1  0  0  0  0
  1  8  1  0  0  0  0
  1  9  1  0  0  0  0
  1 10  2  0  0  0  0
  2 15  1  0  0  0  0
  2 16  1  0  0  0  0
  3 13  1  0  0  0  0
  3 28  1  0  0  0  0
  4 16  1  0  0  0  0
  5 14  1  0  0  0  0
  5 29  1  0  0  0  0
  6 17  1  0  0  0  0
  6 30  1  0  0  0  0
  7 18  2  0  0  0  0
  8 35  1  0  0  0  0
  9 34  1  0  0  0  0
 11 12  1  0  0  0  0
 11 18  1  0  0  0  0
 11 27  1  0  0  0  0
 12 13  1  0  0  0  0
 12 16  1  0  0  0  0
 12 20  1  0  0  0  0
 13 14  1  0  0  0  0
 13 21  1  0  0  0  0
 14 15  1  0  0  0  0
 14 22  1  0  0  0  0
 15 17  1  0  0  0  0
 15 23  1  0  0  0  0
 16 24  1  0  0  0  0
 17 25  1  0  0  0  0
 17 26  1  0  0  0  0
 18 19  1  0  0  0  0
 19 31  1  0  0  0  0
 19 32  1  0  0  0  0
 19 33  1  0  0  0  0
M  END
> <PUBCHEM_COMPOUND_CID>
46174044

> <PUBCHEM_CONFORMER_RMSD>
0.8

> <PUBCHEM_CONFORMER_DIVERSEORDER>
1
20
37
27
29
9
23
36
22
10
5
25
15
31
35
21
19
24
38
28
13
32
16
34
39
6
8
14
30
18
33
4
12
3
26
2
7
11
17

> <PUBCHEM_MMFF94_PARTIAL_CHARGES>
25
1 1.51
10 -0.7
11 -0.73
12 0.3
13 0.28
14 0.28
15 0.28
16 0.56
17 0.28
18 0.57
19 0.06
2 -0.56
27 0.37
28 0.4
29 0.4
3 -0.68
30 0.4
34 0.5
35 0.5
4 -0.55
5 -0.68
6 -0.68
7 -0.57
8 -0.77
9 -0.77

> <PUBCHEM_EFFECTIVE_ROTOR_COUNT>
6.2

> <PUBCHEM_PHARMACOPHORE_FEATURES>
14
1 10 acceptor
1 11 donor
1 2 acceptor
1 3 acceptor
1 3 donor
1 5 acceptor
1 5 donor
1 6 acceptor
1 6 donor
1 7 acceptor
1 8 acceptor
1 9 acceptor
4 1 8 9 10 anion
6 2 12 13 14 15 16 rings

> <PUBCHEM_HEAVY_ATOM_COUNT>
19

> <PUBCHEM_ATOM_DEF_STEREO_COUNT>
2

> <PUBCHEM_ATOM_UDEF_STEREO_COUNT>
3

> <PUBCHEM_BOND_DEF_STEREO_COUNT>
0

> <PUBCHEM_BOND_UDEF_STEREO_COUNT>
0

> <PUBCHEM_ISOTOPIC_ATOM_COUNT>
0

> <PUBCHEM_COMPONENT_COUNT>
1

> <PUBCHEM_CACTVS_TAUTO_COUNT>
2

> <PUBCHEM_CONFORMER_ID>
02C08F5C00000001

> <PUBCHEM_MMFF94_ENERGY>
6.0583

> <PUBCHEM_FEATURE_SELFOVERLAP>
71.093

> <PUBCHEM_SHAPE_FINGERPRINT>
10764073 3 14062852280449768550
12054548 360 18338796719550328462
12138202 78 18264216802714613740
12138202 97 18124308578297430286
12553582 1 18409162191037538686
12714826 92 18337382837844341822
12716301 132 18124902263026330777
14817 1 12917650653039688696
15502708 8 18270394013705657564
16752209 62 18269846474137592254
16945 1 18130787914278260100
17357779 13 18335434451779079663
18534176 82 18117557555612659012
20600515 1 17751895017799277214
20645476 183 17840030976501762204
20711985 344 18201172026012309635
20871999 31 18337959020349331509
21330990 113 17828733438644439651
21452121 99 17771942503624149533
21524375 3 17269750600707380260
22182313 1 18187941572915878800
23419403 2 17677355860218591208
23526113 38 17462028718827077754
23557571 272 18334866056292462162
2748010 2 18197516033975501925
298252 57 17556013928929144196
3060560 45 17257662114203858748
3250762 1 18265071183474325088
352729 6 17833834150274128582
576247 118 18409165485092195318
7364860 26 17828760642756412658
81228 2 18191852616937008594

> <PUBCHEM_SHAPE_MULTIPOLES>
337.06
5.55
3.6
1.57
3.65
1.56
0.39
-4.97
-1.8
-2.73
-0.32
0.17
0.5
1.37

> <PUBCHEM_SHAPE_SELFOVERLAP>
660.708

> <PUBCHEM_SHAPE_VOLUME>
202.6

> <PUBCHEM_COORDINATE_TYPE>
2
5
10

$$$$

