442421
  -OEChem-07051212583D

 43 44  0     1  0  0  0  0  0999 V2000
   -1.0113    2.5749    1.2020 O   0  0  0  0  0  0  0  0  0  0  0  0
    3.6095    2.0430   -0.6325 O   0  0  0  0  0  0  0  0  0  0  0  0
    1.5760    2.7904    0.9152 O   0  0  0  0  0  0  0  0  0  0  0  0
   -5.9798   -1.5265   -0.0278 O   0  0  0  0  0  0  0  0  0  0  0  0
    4.7188   -2.5785   -0.2964 O   0  0  0  0  0  0  0  0  0  0  0  0
   -0.3602    1.3591    0.8398 C   0  0  1  0  0  0  0  0  0  0  0  0
   -0.9129    0.9071   -0.5151 C   0  0  0  0  0  0  0  0  0  0  0  0
   -2.2690    0.2554   -0.3848 C   0  0  0  0  0  0  0  0  0  0  0  0
    1.1584    1.6264    0.7446 C   0  0  0  0  0  0  0  0  0  0  0  0
    2.0928    0.5443    0.4661 C   0  0  0  0  0  0  0  0  0  0  0  0
   -2.3483   -1.1131   -0.1833 C   0  0  0  0  0  0  0  0  0  0  0  0
   -3.4085    1.0389   -0.4688 C   0  0  0  0  0  0  0  0  0  0  0  0
    3.2871    0.7873   -0.2123 C   0  0  0  0  0  0  0  0  0  0  0  0
    1.7810   -0.7480    0.8884 C   0  0  0  0  0  0  0  0  0  0  0  0
   -3.6011   -1.7145   -0.0626 C   0  0  0  0  0  0  0  0  0  0  0  0
   -4.6613    0.4376   -0.3479 C   0  0  0  0  0  0  0  0  0  0  0  0
    4.1697   -0.2621   -0.4682 C   0  0  0  0  0  0  0  0  0  0  0  0
   -4.7576   -0.9391   -0.1450 C   0  0  0  0  0  0  0  0  0  0  0  0
    2.6635   -1.7975    0.6322 C   0  0  0  0  0  0  0  0  0  0  0  0
    3.8579   -1.5546   -0.0461 C   0  0  0  0  0  0  0  0  0  0  0  0
    3.1790    2.4192   -1.9388 C   0  0  0  0  0  0  0  0  0  0  0  0
    4.3375   -3.8745    0.1626 C   0  0  0  0  0  0  0  0  0  0  0  0
   -7.1211   -0.6752   -0.1215 C   0  0  0  0  0  0  0  0  0  0  0  0
   -0.5589    0.6400    1.6404 H   0  0  0  0  0  0  0  0  0  0  0  0
   -0.9904    1.7645   -1.1976 H   0  0  0  0  0  0  0  0  0  0  0  0
   -0.2384    0.2000   -1.0129 H   0  0  0  0  0  0  0  0  0  0  0  0
   -1.4532   -1.7248   -0.1158 H   0  0  0  0  0  0  0  0  0  0  0  0
   -3.3435    2.1117   -0.6267 H   0  0  0  0  0  0  0  0  0  0  0  0
    0.8686   -0.9740    1.4309 H   0  0  0  0  0  0  0  0  0  0  0  0
   -3.6696   -2.7872    0.0959 H   0  0  0  0  0  0  0  0  0  0  0  0
   -5.5182    1.0985   -0.4214 H   0  0  0  0  0  0  0  0  0  0  0  0
    5.1013   -0.0742   -0.9961 H   0  0  0  0  0  0  0  0  0  0  0  0
   -0.7096    2.8103    2.0961 H   0  0  0  0  0  0  0  0  0  0  0  0
    2.3608   -2.7757    0.9903 H   0  0  0  0  0  0  0  0  0  0  0  0
    3.6703    1.7985   -2.6947 H   0  0  0  0  0  0  0  0  0  0  0  0
    3.4619    3.4622   -2.1053 H   0  0  0  0  0  0  0  0  0  0  0  0
    2.0918    2.3327   -2.0327 H   0  0  0  0  0  0  0  0  0  0  0  0
    5.1368   -4.5664   -0.1223 H   0  0  0  0  0  0  0  0  0  0  0  0
    3.4229   -4.2227   -0.3294 H   0  0  0  0  0  0  0  0  0  0  0  0
    4.2599   -3.9078    1.2546 H   0  0  0  0  0  0  0  0  0  0  0  0
   -7.1440    0.0581    0.6919 H   0  0  0  0  0  0  0  0  0  0  0  0
   -8.0070   -1.3082   -0.0063 H   0  0  0  0  0  0  0  0  0  0  0  0
   -7.1912   -0.2035   -1.1076 H   0  0  0  0  0  0  0  0  0  0  0  0
  1  6  1  0  0  0  0
  1 33  1  0  0  0  0
  2 13  1  0  0  0  0
  2 21  1  0  0  0  0
  3  9  2  0  0  0  0
  4 18  1  0  0  0  0
  4 23  1  0  0  0  0
  5 20  1  0  0  0  0
  5 22  1  0  0  0  0
  6  7  1  0  0  0  0
  6  9  1  0  0  0  0
  6 24  1  0  0  0  0
  7  8  1  0  0  0  0
  7 25  1  0  0  0  0
  7 26  1  0  0  0  0
  8 11  2  0  0  0  0
  8 12  1  0  0  0  0
  9 10  1  0  0  0  0
 10 13  2  0  0  0  0
 10 14  1  0  0  0  0
 11 15  1  0  0  0  0
 11 27  1  0  0  0  0
 12 16  2  0  0  0  0
 12 28  1  0  0  0  0
 13 17  1  0  0  0  0
 14 19  2  0  0  0  0
 14 29  1  0  0  0  0
 15 18  2  0  0  0  0
 15 30  1  0  0  0  0
 16 18  1  0  0  0  0
 16 31  1  0  0  0  0
 17 20  2  0  0  0  0
 17 32  1  0  0  0  0
 19 20  1  0  0  0  0
 19 34  1  0  0  0  0
 21 35  1  0  0  0  0
 21 36  1  0  0  0  0
 21 37  1  0  0  0  0
 22 38  1  0  0  0  0
 22 39  1  0  0  0  0
 22 40  1  0  0  0  0
 23 41  1  0  0  0  0
 23 42  1  0  0  0  0
 23 43  1  0  0  0  0
M  END
> <PUBCHEM_COMPOUND_CID>
442421

> <PUBCHEM_CONFORMER_RMSD>
0.8

> <PUBCHEM_CONFORMER_DIVERSEORDER>
4
130
17
172
88
96
73
190
179
222
136
72
144
164
178
1
25
202
103
225
142
219
8
41
76
12
49
149
92
122
67
132
125
13
68
86
135
166
45
78
169
80
28
75
15
204
161
209
212
71
95
43
128
98
153
21
140
62
171
29
18
167
9
33
2
176
81
180
87
84
19
156
160
159
14
157
83
70
39
141
69
173
218
224
54
143
22
116
215
97
162
56
151
154
152
126
214
146
16
77
220
10
52
198
105
210
174
186
117
182
110
175
53
27
113
91
192
131
46
208
58
57
187
6
26
163
31
137
65
34
168
106
44
170
148
5
134
133
40
184
102
7
189
85
191
104
55
94
115
223
59
221
50
206
101
127
194
199
51
120
205
79
30
38
99
11
201
145
217
82
66
61
3
165
185
203
112
213
89
60
216
108
226
23
47
107
111
74
211
20
139
42
90
93
129
200
63
196
109
118
119
207
183
147
37
24
121
35
150
158
193
138
188
123
195
181
100
36
155
48
124
177
114
197
32
64

> <PUBCHEM_MMFF94_PARTIAL_CHARGES>
31
1 -0.68
10 0.09
11 -0.15
12 -0.15
13 0.08
14 -0.15
15 -0.15
16 -0.15
17 -0.15
18 0.08
19 -0.15
2 -0.36
20 0.08
21 0.28
22 0.28
23 0.28
27 0.15
28 0.15
29 0.15
3 -0.57
30 0.15
31 0.15
32 0.15
33 0.4
34 0.15
4 -0.36
5 -0.36
6 0.34
7 0.14
8 -0.14
9 0.42

> <PUBCHEM_EFFECTIVE_ROTOR_COUNT>
7

> <PUBCHEM_PHARMACOPHORE_FEATURES>
8
1 1 acceptor
1 1 donor
1 2 acceptor
1 3 acceptor
1 4 acceptor
1 5 acceptor
6 10 13 14 17 19 20 rings
6 8 11 12 15 16 18 rings

> <PUBCHEM_HEAVY_ATOM_COUNT>
23

> <PUBCHEM_ATOM_DEF_STEREO_COUNT>
0

> <PUBCHEM_ATOM_UDEF_STEREO_COUNT>
1

> <PUBCHEM_BOND_DEF_STEREO_COUNT>
0

> <PUBCHEM_BOND_UDEF_STEREO_COUNT>
0

> <PUBCHEM_ISOTOPIC_ATOM_COUNT>
0

> <PUBCHEM_COMPONENT_COUNT>
1

> <PUBCHEM_CACTVS_TAUTO_COUNT>
4

> <PUBCHEM_CONFORMER_ID>
0006C03500000004

> <PUBCHEM_MMFF94_ENERGY>
89.5158

> <PUBCHEM_FEATURE_SELFOVERLAP>
40.614

> <PUBCHEM_SHAPE_FINGERPRINT>
12107183 9 18117269479545755257
12553582 1 18113912549574634510
12788726 201 17821996627969885249
13009979 54 18043526316875690784
13073987 5 18260548926851789121
13533116 47 18409450254915379451
13955234 65 18189341169054678720
14576447 43 18410569635209611822
14617045 38 18340200783367647471
14863182 85 18336272250102148728
14866123 147 17901384812348987209
15196674 1 18410295830564378883
15352361 1 18335706104028921034
15537594 2 18187645748010190927
15664445 248 18198613333347870908
17349148 13 17022901216893149093
17492 89 18264208200380864782
17844677 252 18272929449355415205
1813 80 17275111609135466277
20281475 54 18408602586736605345
20388580 30 18412260675202334550
20645477 70 18342742909610789346
21033648 29 14490464327277076811
21267235 1 18408318912599443382
21279426 13 18340216288579277549
21344244 246 18343009005406891990
21634736 98 18411979200341908714
21713013 43 18059300970932829199
221357 26 18412266151064415579
221490 88 18341608209685404466
2215653 11 18410866438998429199
22950370 63 18408039602908384969
23379529 103 18261949764806044118
23522609 53 18118374338651011593
23559900 14 18340216266424023745
239999 70 17988646268175586130
25222932 49 17897450484276119350
3004659 81 18342460352386768162
3014965 18 18408891733215632855
314194 84 18335422318718501223
3411729 13 16734403585900843440
3421961 26 18261399927028314864
345986 75 17603301561891784267
34797466 226 17203328854528955709
46194498 28 17846780693669515372
465052 167 18186800262428904039
5104073 3 17895480331227150745
5281201 14 18060703900551832324
7164475 11 18411134783727872428
7970288 3 18192998342466487850
88748 71 18338516442664050547
960060 61 18340769239242204781
9709674 26 18272930501121346603
9841814 1 17023189297107867136

> <PUBCHEM_SHAPE_MULTIPOLES>
443.98
13.23
3.37
1.04
17.37
1.09
-0.13
8.56
-2.42
-5.05
0.06
-0.68
-0.71
-0.76

> <PUBCHEM_SHAPE_SELFOVERLAP>
939.784

> <PUBCHEM_SHAPE_VOLUME>
249.2

> <PUBCHEM_COORDINATE_TYPE>
2
5
10

$$$$

