96177
  -OEChem-07051213083D

 21 21  0     0  0  0  0  0  0999 V2000
    2.5058   -1.6909   -0.0008 O   0  5  0  0  0  0  0  0  0  0  0  0
    2.8444    0.4782   -0.0001 O   0  0  0  0  0  0  0  0  0  0  0  0
    2.0770   -0.5130    0.0000 N   0  3  0  0  0  0  0  0  0  0  0  0
   -1.7911    2.4870   -0.0003 N   0  0  0  0  0  0  0  0  0  0  0  0
   -2.4307   -2.3205    0.0005 N   0  0  0  0  0  0  0  0  0  0  0  0
    0.1445    0.9978    0.0004 C   0  0  0  0  0  0  0  0  0  0  0  0
    0.6713   -0.2937    0.0007 C   0  0  0  0  0  0  0  0  0  0  0  0
   -1.2375    1.1873   -0.0002 C   0  0  0  0  0  0  0  0  0  0  0  0
   -1.5657   -1.2063   -0.0004 C   0  0  0  0  0  0  0  0  0  0  0  0
   -0.1838   -1.3957    0.0004 C   0  0  0  0  0  0  0  0  0  0  0  0
   -2.0926    0.0852   -0.0006 C   0  0  0  0  0  0  0  0  0  0  0  0
    1.0584    2.1845    0.0004 C   0  0  0  0  0  0  0  0  0  0  0  0
    0.1998   -2.4138    0.0007 H   0  0  0  0  0  0  0  0  0  0  0  0
   -3.1707    0.2314   -0.0008 H   0  0  0  0  0  0  0  0  0  0  0  0
    1.6512    2.2290    0.9211 H   0  0  0  0  0  0  0  0  0  0  0  0
    1.6833    2.2032   -0.8999 H   0  0  0  0  0  0  0  0  0  0  0  0
    0.5553    3.1514   -0.0358 H   0  0  0  0  0  0  0  0  0  0  0  0
   -2.7999    2.5776   -0.0141 H   0  0  0  0  0  0  0  0  0  0  0  0
   -1.2532    3.3175    0.1858 H   0  0  0  0  0  0  0  0  0  0  0  0
   -2.0501   -3.2573   -0.0015 H   0  0  0  0  0  0  0  0  0  0  0  0
   -3.4327   -2.1834   -0.0022 H   0  0  0  0  0  0  0  0  0  0  0  0
  1  3  1  0  0  0  0
  2  3  2  0  0  0  0
  3  7  1  0  0  0  0
  4  8  1  0  0  0  0
  4 18  1  0  0  0  0
  4 19  1  0  0  0  0
  5  9  1  0  0  0  0
  5 20  1  0  0  0  0
  5 21  1  0  0  0  0
  6  7  1  0  0  0  0
  6  8  2  0  0  0  0
  6 12  1  0  0  0  0
  7 10  2  0  0  0  0
  8 11  1  0  0  0  0
  9 10  1  0  0  0  0
  9 11  2  0  0  0  0
 10 13  1  0  0  0  0
 11 14  1  0  0  0  0
 12 15  1  0  0  0  0
 12 16  1  0  0  0  0
 12 17  1  0  0  0  0
M  CHG  2   1  -1   3   1
M  END
> <PUBCHEM_COMPOUND_CID>
96177

> <PUBCHEM_CONFORMER_RMSD>
0.4

> <PUBCHEM_CONFORMER_DIVERSEORDER>
1

> <PUBCHEM_MMFF94_PARTIAL_CHARGES>
18
1 -0.52
10 -0.15
11 -0.15
12 0.14
13 0.15
14 0.15
18 0.4
19 0.4
2 -0.52
20 0.4
21 0.4
3 0.91
4 -0.9
5 -0.9
6 -0.14
7 0.13
8 0.1
9 0.1

> <PUBCHEM_EFFECTIVE_ROTOR_COUNT>
1

> <PUBCHEM_PHARMACOPHORE_FEATURES>
8
1 1 acceptor
1 1 anion
1 2 acceptor
1 4 cation
1 4 donor
1 5 cation
1 5 donor
6 6 7 8 9 10 11 rings

> <PUBCHEM_HEAVY_ATOM_COUNT>
12

> <PUBCHEM_ATOM_DEF_STEREO_COUNT>
0

> <PUBCHEM_ATOM_UDEF_STEREO_COUNT>
0

> <PUBCHEM_BOND_DEF_STEREO_COUNT>
0

> <PUBCHEM_BOND_UDEF_STEREO_COUNT>
0

> <PUBCHEM_ISOTOPIC_ATOM_COUNT>
0

> <PUBCHEM_COMPONENT_COUNT>
1

> <PUBCHEM_CACTVS_TAUTO_COUNT>
1

> <PUBCHEM_CONFORMER_ID>
000177B100000001

> <PUBCHEM_MMFF94_ENERGY>
67.4615

> <PUBCHEM_FEATURE_SELFOVERLAP>
40.676

> <PUBCHEM_SHAPE_FINGERPRINT>
11206711 2 18340204102828618180
161256 15 18192710038242992772
16945 1 18410856551102693445
193761 8 18410573946639527557
19973954 147 18410573976751492084
20871998 184 18259702298255118711
21040471 1 18194401331886777153
21501502 16 18339077081930243952
2334 1 18050568443716667425
23552423 10 18198903617275163252
23559900 14 18046062933705290950
241688 4 18339643322108007305
2748010 2 17978504570462965597
66348 1 18410577292318519084

> <PUBCHEM_SHAPE_MULTIPOLES>
220.27
3.42
2.61
0.58
0.93
0.71
0
-1.21
0
-0.65
0
-0.03
0.02
0

> <PUBCHEM_SHAPE_SELFOVERLAP>
465.149

> <PUBCHEM_SHAPE_VOLUME>
125.1

> <PUBCHEM_COORDINATE_TYPE>
2
5
10

$$$$

