5462433
  -OEChem-07051212573D

 43 47  0     1  0  0  0  0  0999 V2000
    3.1918    2.7927   -0.6535 O   0  0  0  0  0  0  0  0  0  0  0  0
   -3.6529    2.1346   -0.7631 O   0  0  0  0  0  0  0  0  0  0  0  0
   -4.6228    0.6265    0.8448 O   0  0  0  0  0  0  0  0  0  0  0  0
    4.1831    1.2132    1.4182 O   0  0  0  0  0  0  0  0  0  0  0  0
    0.9094   -3.1061   -0.5432 N   0  0  2  0  0  0  0  0  0  0  0  0
    0.8047   -0.1632   -0.6438 C   0  0  1  0  0  0  0  0  0  0  0  0
    0.9021   -2.2938    0.6924 C   0  0  1  0  0  0  0  0  0  0  0  0
    1.5477   -0.9554    0.4234 C   0  0  0  0  0  0  0  0  0  0  0  0
    0.8097   -1.0415   -1.9254 C   0  0  0  0  0  0  0  0  0  0  0  0
   -0.6601    0.0480   -0.1978 C   0  0  0  0  0  0  0  0  0  0  0  0
   -0.4728   -2.0090    1.3366 C   0  0  0  0  0  0  0  0  0  0  0  0
    0.2620   -2.4613   -1.6899 C   0  0  0  0  0  0  0  0  0  0  0  0
   -1.2565   -0.8617    0.7288 C   0  0  0  0  0  0  0  0  0  0  0  0
    1.5230    1.1410   -0.9485 C   0  0  0  0  0  0  0  0  0  0  0  0
    2.6318   -0.5253    1.0828 C   0  0  0  0  0  0  0  0  0  0  0  0
   -1.4539    1.0755   -0.7459 C   0  0  0  0  0  0  0  0  0  0  0  0
    0.4094   -4.4630   -0.3468 C   0  0  0  0  0  0  0  0  0  0  0  0
   -2.5961   -0.7004    1.1273 C   0  0  0  0  0  0  0  0  0  0  0  0
    2.6078    1.5931   -0.3068 C   0  0  0  0  0  0  0  0  0  0  0  0
    3.2167    0.7988    0.7863 C   0  0  0  0  0  0  0  0  0  0  0  0
   -2.7667    1.1940   -0.3343 C   0  0  0  0  0  0  0  0  0  0  0  0
   -3.3209    0.3339    0.5791 C   0  0  0  0  0  0  0  0  0  0  0  0
   -4.8265    1.7709   -0.0083 C   0  0  0  0  0  0  0  0  0  0  0  0
    2.6301    3.8587    0.0877 C   0  0  0  0  0  0  0  0  0  0  0  0
    1.5019   -2.8422    1.4318 H   0  0  0  0  0  0  0  0  0  0  0  0
    1.8365   -1.1290   -2.3111 H   0  0  0  0  0  0  0  0  0  0  0  0
    0.2226   -0.5685   -2.7243 H   0  0  0  0  0  0  0  0  0  0  0  0
   -0.3051   -1.7503    2.3921 H   0  0  0  0  0  0  0  0  0  0  0  0
   -1.0913   -2.9134    1.3405 H   0  0  0  0  0  0  0  0  0  0  0  0
   -0.8275   -2.4321   -1.5678 H   0  0  0  0  0  0  0  0  0  0  0  0
    0.4549   -3.0485   -2.5965 H   0  0  0  0  0  0  0  0  0  0  0  0
    1.1389    1.7429   -1.7703 H   0  0  0  0  0  0  0  0  0  0  0  0
    3.1119   -1.1229    1.8495 H   0  0  0  0  0  0  0  0  0  0  0  0
   -1.0678    1.7672   -1.4861 H   0  0  0  0  0  0  0  0  0  0  0  0
   -0.6699   -4.4946   -0.1663 H   0  0  0  0  0  0  0  0  0  0  0  0
    0.9171   -4.9489    0.4935 H   0  0  0  0  0  0  0  0  0  0  0  0
    0.6186   -5.0748   -1.2316 H   0  0  0  0  0  0  0  0  0  0  0  0
   -3.0516   -1.3771    1.8434 H   0  0  0  0  0  0  0  0  0  0  0  0
   -5.6390    1.5465   -0.7090 H   0  0  0  0  0  0  0  0  0  0  0  0
   -5.1229    2.6239    0.6130 H   0  0  0  0  0  0  0  0  0  0  0  0
    3.1380    4.7824   -0.2052 H   0  0  0  0  0  0  0  0  0  0  0  0
    2.7784    3.7192    1.1642 H   0  0  0  0  0  0  0  0  0  0  0  0
    1.5631    3.9769   -0.1318 H   0  0  0  0  0  0  0  0  0  0  0  0
  1 19  1  0  0  0  0
  1 24  1  0  0  0  0
  2 21  1  0  0  0  0
  2 23  1  0  0  0  0
  3 22  1  0  0  0  0
  3 23  1  0  0  0  0
  4 20  2  0  0  0  0
  5  7  1  0  0  0  0
  5 12  1  0  0  0  0
  5 17  1  0  0  0  0
  6  8  1  0  0  0  0
  6  9  1  0  0  0  0
  6 10  1  0  0  0  0
  6 14  1  0  0  0  0
  7  8  1  0  0  0  0
  7 11  1  0  0  0  0
  7 25  1  0  0  0  0
  8 15  2  0  0  0  0
  9 12  1  0  0  0  0
  9 26  1  0  0  0  0
  9 27  1  0  0  0  0
 10 13  1  0  0  0  0
 10 16  2  0  0  0  0
 11 13  1  0  0  0  0
 11 28  1  0  0  0  0
 11 29  1  0  0  0  0
 12 30  1  0  0  0  0
 12 31  1  0  0  0  0
 13 18  2  0  0  0  0
 14 19  2  0  0  0  0
 14 32  1  0  0  0  0
 15 20  1  0  0  0  0
 15 33  1  0  0  0  0
 16 21  1  0  0  0  0
 16 34  1  0  0  0  0
 17 35  1  0  0  0  0
 17 36  1  0  0  0  0
 17 37  1  0  0  0  0
 18 22  1  0  0  0  0
 18 38  1  0  0  0  0
 19 20  1  0  0  0  0
 21 22  2  0  0  0  0
 23 39  1  0  0  0  0
 23 40  1  0  0  0  0
 24 41  1  0  0  0  0
 24 42  1  0  0  0  0
 24 43  1  0  0  0  0
M  END
> <PUBCHEM_COMPOUND_CID>
5462433

> <PUBCHEM_CONFORMER_RMSD>
0.6

> <PUBCHEM_CONFORMER_DIVERSEORDER>
1
2

> <PUBCHEM_MMFF94_PARTIAL_CHARGES>
27
1 -0.36
10 -0.14
11 0.14
12 0.27
13 -0.14
14 -0.29
15 -0.14
16 -0.15
17 0.27
18 -0.15
19 0.09
2 -0.36
20 0.54
21 0.08
22 0.08
23 0.56
24 0.28
3 -0.36
32 0.15
33 0.15
34 0.15
38 0.15
4 -0.57
5 -0.81
6 0.42
7 0.41
8 -0.28

> <PUBCHEM_EFFECTIVE_ROTOR_COUNT>
2.4

> <PUBCHEM_PHARMACOPHORE_FEATURES>
10
1 1 acceptor
1 2 acceptor
1 3 acceptor
1 4 acceptor
1 5 cation
5 2 3 21 22 23 rings
6 10 13 16 18 21 22 rings
6 5 6 7 8 9 12 rings
6 6 7 8 10 11 13 rings
6 6 8 14 15 19 20 rings

> <PUBCHEM_HEAVY_ATOM_COUNT>
24

> <PUBCHEM_ATOM_DEF_STEREO_COUNT>
2

> <PUBCHEM_ATOM_UDEF_STEREO_COUNT>
0

> <PUBCHEM_BOND_DEF_STEREO_COUNT>
0

> <PUBCHEM_BOND_UDEF_STEREO_COUNT>
0

> <PUBCHEM_ISOTOPIC_ATOM_COUNT>
0

> <PUBCHEM_COMPONENT_COUNT>
1

> <PUBCHEM_CACTVS_TAUTO_COUNT>
1

> <PUBCHEM_CONFORMER_ID>
005359A100000001

> <PUBCHEM_MMFF94_ENERGY>
72.0529

> <PUBCHEM_FEATURE_SELFOVERLAP>
52.451

> <PUBCHEM_SHAPE_FINGERPRINT>
10670039 82 16611944168620138908
10764073 3 17270063931419322570
10871710 139 17116340780964019428
10948715 1 18338514136329630402
11640471 11 17604165803590042197
12035758 1 18339366387371229858
12633257 1 17917723404355116208
12788726 201 17758688745412360014
13004483 165 17472710122019837498
13134695 92 17906733957481763583
13140716 1 18272933799671969769
13681431 1 17682660063230300454
14223421 5 18124598836493102805
14955137 171 18339644572286667362
15906896 17 18046071454060361774
16945 1 17917998256555501154
17974551 9 17632301125219027480
17980427 23 18122938487946099203
1813 80 16229691761225973950
20600515 1 16837425978692556926
21033648 29 18115609079396184808
21524375 3 18336829684484170552
21731228 192 18411985719585104554
21756936 100 18124031231222810116
21860390 5 18121508104880452373
22112679 90 16824155435801815526
22149856 69 18197468854772508681
23419403 2 16310817100598585834
23558518 356 18191038819661848934
23559900 14 18268704094720342087
2748010 2 18055040251980736907
3729539 64 17975940402564018166
474 4 18408604777280741497
484985 159 14394824643748123112
495365 180 18335422430218378153
5104073 3 18058157505707518505
7364860 26 18267018547421052783
7808743 9 17907573628136786736
81228 2 17612882499878848086
84936 31 18042976569209112719
9709674 26 18270958076757423323

> <PUBCHEM_SHAPE_MULTIPOLES>
465.45
6.63
4.2
1.4
5.72
1.83
-0.22
-6.97
1.81
-2.62
-0.78
-0.37
0.53
0.51

> <PUBCHEM_SHAPE_SELFOVERLAP>
1046.224

> <PUBCHEM_SHAPE_VOLUME>
244.1

> <PUBCHEM_COORDINATE_TYPE>
2
5
10

$$$$

