440113
  -OEChem-07051212483D

 18 18  0     0  0  0  0  0  0999 V2000
   -3.3858   -0.0293    0.5269 O   0  0  0  0  0  0  0  0  0  0  0  0
    2.6740   -0.0906    1.3906 O   0  0  0  0  0  0  0  0  0  0  0  0
    0.6189    0.0298   -0.5633 C   0  0  0  0  0  0  0  0  0  0  0  0
    2.0577    0.0504   -0.9544 C   0  0  0  0  0  0  0  0  0  0  0  0
   -0.0487   -1.1872   -0.4257 C   0  0  0  0  0  0  0  0  0  0  0  0
   -0.0592    1.2270   -0.3341 C   0  0  0  0  0  0  0  0  0  0  0  0
   -1.3944   -1.2069   -0.0590 C   0  0  0  0  0  0  0  0  0  0  0  0
   -1.4049    1.2072    0.0325 C   0  0  0  0  0  0  0  0  0  0  0  0
   -2.0725   -0.0097    0.1699 C   0  0  0  0  0  0  0  0  0  0  0  0
    3.0148    0.0094    0.2166 C   0  0  0  0  0  0  0  0  0  0  0  0
    2.2912   -0.8005   -1.6052 H   0  0  0  0  0  0  0  0  0  0  0  0
    2.2813    0.9545   -1.5332 H   0  0  0  0  0  0  0  0  0  0  0  0
    0.4690   -2.1269   -0.5995 H   0  0  0  0  0  0  0  0  0  0  0  0
    0.4501    2.1816   -0.4359 H   0  0  0  0  0  0  0  0  0  0  0  0
   -1.9030   -2.1616    0.0451 H   0  0  0  0  0  0  0  0  0  0  0  0
   -1.9277    2.1430    0.2101 H   0  0  0  0  0  0  0  0  0  0  0  0
    4.0836    0.0658   -0.0534 H   0  0  0  0  0  0  0  0  0  0  0  0
   -3.6856   -0.9534    0.5746 H   0  0  0  0  0  0  0  0  0  0  0  0
  1  9  1  0  0  0  0
  1 18  1  0  0  0  0
  2 10  2  0  0  0  0
  3  4  1  0  0  0  0
  3  5  2  0  0  0  0
  3  6  1  0  0  0  0
  4 10  1  0  0  0  0
  4 11  1  0  0  0  0
  4 12  1  0  0  0  0
  5  7  1  0  0  0  0
  5 13  1  0  0  0  0
  6  8  2  0  0  0  0
  6 14  1  0  0  0  0
  7  9  2  0  0  0  0
  7 15  1  0  0  0  0
  8  9  1  0  0  0  0
  8 16  1  0  0  0  0
 10 17  1  0  0  0  0
M  END
> <PUBCHEM_COMPOUND_CID>
440113

> <PUBCHEM_CONFORMER_RMSD>
0.4

> <PUBCHEM_CONFORMER_DIVERSEORDER>
1
4
6
2
5
3

> <PUBCHEM_MMFF94_PARTIAL_CHARGES>
16
1 -0.53
10 0.45
13 0.15
14 0.15
15 0.15
16 0.15
17 0.06
18 0.45
2 -0.57
3 -0.14
4 0.2
5 -0.15
6 -0.15
7 -0.15
8 -0.15
9 0.08

> <PUBCHEM_EFFECTIVE_ROTOR_COUNT>
2

> <PUBCHEM_PHARMACOPHORE_FEATURES>
3
1 1 donor
1 2 acceptor
6 3 5 6 7 8 9 rings

> <PUBCHEM_HEAVY_ATOM_COUNT>
10

> <PUBCHEM_ATOM_DEF_STEREO_COUNT>
0

> <PUBCHEM_ATOM_UDEF_STEREO_COUNT>
0

> <PUBCHEM_BOND_DEF_STEREO_COUNT>
0

> <PUBCHEM_BOND_UDEF_STEREO_COUNT>
0

> <PUBCHEM_ISOTOPIC_ATOM_COUNT>
0

> <PUBCHEM_COMPONENT_COUNT>
1

> <PUBCHEM_CACTVS_TAUTO_COUNT>
6

> <PUBCHEM_CONFORMER_ID>
0006B73100000001

> <PUBCHEM_MMFF94_ENERGY>
19.3969

> <PUBCHEM_FEATURE_SELFOVERLAP>
15.223

> <PUBCHEM_SHAPE_FINGERPRINT>
10857977 72 18335419054084024081
11769659 78 16199867272072467699
12932764 1 17704071763732889932
15310529 11 16702017552265868989
16945 1 18410006637383621045
20645464 45 17749112192602754606
20653085 51 14129062465502945952
20653091 64 17841430328228163854
21040471 1 18265321975098613205
23552423 10 17698434438668160125
2748010 2 18050555537477080429
369184 2 18410302405942914300
5084963 1 18188756366344064988

> <PUBCHEM_SHAPE_MULTIPOLES>
194.06
4.33
1.22
0.93
0.55
0.01
0.12
-0.04
1.23
-0.45
-0.11
0.58
-0.01
-0.03

> <PUBCHEM_SHAPE_SELFOVERLAP>
400.775

> <PUBCHEM_SHAPE_VOLUME>
111

> <PUBCHEM_COORDINATE_TYPE>
2
5
10

$$$$

