440974
  -OEChem-07051212513D

 22 22  0     1  0  0  0  0  0999 V2000
   -1.5903   -0.1227   -1.6965 O   0  0  0  0  0  0  0  0  0  0  0  0
   -1.0061   -2.3328   -0.3418 O   0  0  0  0  0  0  0  0  0  0  0  0
   -2.3760    0.7311    1.6589 O   0  0  0  0  0  0  0  0  0  0  0  0
   -3.6885    0.3068   -0.1559 O   0  0  0  0  0  0  0  0  0  0  0  0
    3.5151    1.0686   -0.6580 O   0  0  0  0  0  0  0  0  0  0  0  0
    3.6837   -0.7733    0.7083 O   0  0  0  0  0  0  0  0  0  0  0  0
   -1.2825    0.0964   -0.3251 C   0  0  1  0  0  0  0  0  0  0  0  0
   -0.5845   -1.1349    0.3079 C   0  0  2  0  0  0  0  0  0  0  0  0
   -0.4681    1.3605   -0.2536 C   0  0  0  0  0  0  0  0  0  0  0  0
    0.9211   -1.0721    0.2571 C   0  0  0  0  0  0  0  0  0  0  0  0
    1.5697    0.0908    0.0895 C   0  0  0  0  0  0  0  0  0  0  0  0
    0.8582    1.3382   -0.0535 C   0  0  0  0  0  0  0  0  0  0  0  0
   -2.5863    0.3792    0.3669 C   0  0  0  0  0  0  0  0  0  0  0  0
    3.0345    0.0639    0.0957 C   0  0  0  0  0  0  0  0  0  0  0  0
   -0.8613   -1.2413    1.3642 H   0  0  0  0  0  0  0  0  0  0  0  0
   -0.9616    2.3189   -0.3964 H   0  0  0  0  0  0  0  0  0  0  0  0
    1.4641   -2.0031    0.3992 H   0  0  0  0  0  0  0  0  0  0  0  0
    1.4052    2.2741   -0.0088 H   0  0  0  0  0  0  0  0  0  0  0  0
   -2.0428   -0.9807   -1.7669 H   0  0  0  0  0  0  0  0  0  0  0  0
   -0.6131   -3.0856    0.1325 H   0  0  0  0  0  0  0  0  0  0  0  0
   -3.2160    0.9211    2.1284 H   0  0  0  0  0  0  0  0  0  0  0  0
    4.4957    1.0800   -0.6781 H   0  0  0  0  0  0  0  0  0  0  0  0
  1  7  1  0  0  0  0
  1 19  1  0  0  0  0
  2  8  1  0  0  0  0
  2 20  1  0  0  0  0
  3 13  1  0  0  0  0
  3 21  1  0  0  0  0
  4 13  2  0  0  0  0
  5 14  1  0  0  0  0
  5 22  1  0  0  0  0
  6 14  2  0  0  0  0
  7  8  1  0  0  0  0
  7  9  1  0  0  0  0
  7 13  1  0  0  0  0
  8 10  1  0  0  0  0
  8 15  1  0  0  0  0
  9 12  2  0  0  0  0
  9 16  1  0  0  0  0
 10 11  2  0  0  0  0
 10 17  1  0  0  0  0
 11 12  1  0  0  0  0
 11 14  1  0  0  0  0
 12 18  1  0  0  0  0
M  END
> <PUBCHEM_COMPOUND_CID>
440974

> <PUBCHEM_CONFORMER_RMSD>
0.6

> <PUBCHEM_CONFORMER_DIVERSEORDER>
1
4
3
2
5

> <PUBCHEM_MMFF94_PARTIAL_CHARGES>
21
1 -0.68
10 -0.29
11 0.01
12 -0.15
13 0.66
14 0.71
16 0.15
17 0.15
18 0.15
19 0.4
2 -0.68
20 0.4
21 0.5
22 0.5
3 -0.65
4 -0.57
5 -0.65
6 -0.57
7 0.48
8 0.42
9 -0.29

> <PUBCHEM_EFFECTIVE_ROTOR_COUNT>
2.4

> <PUBCHEM_PHARMACOPHORE_FEATURES>
11
1 1 acceptor
1 1 donor
1 2 acceptor
1 2 donor
1 3 acceptor
1 4 acceptor
1 5 acceptor
1 6 acceptor
3 3 4 13 anion
3 5 6 14 anion
6 7 8 9 10 11 12 rings

> <PUBCHEM_HEAVY_ATOM_COUNT>
14

> <PUBCHEM_ATOM_DEF_STEREO_COUNT>
2

> <PUBCHEM_ATOM_UDEF_STEREO_COUNT>
0

> <PUBCHEM_BOND_DEF_STEREO_COUNT>
0

> <PUBCHEM_BOND_UDEF_STEREO_COUNT>
0

> <PUBCHEM_ISOTOPIC_ATOM_COUNT>
0

> <PUBCHEM_COMPONENT_COUNT>
1

> <PUBCHEM_CACTVS_TAUTO_COUNT>
1

> <PUBCHEM_CONFORMER_ID>
0006BA8E00000001

> <PUBCHEM_MMFF94_ENERGY>
27.9102

> <PUBCHEM_FEATURE_SELFOVERLAP>
55.952

> <PUBCHEM_SHAPE_FINGERPRINT>
10219947 1 18272083920054133456
11132069 177 18411143519764523544
12423570 1 11311513436175950933
12491281 212 16878489237264466785
12932764 1 17775010068230022148
13024252 1 15626229017662374983
13581323 91 17095523972244075077
14144814 61 18409165511014895520
14713566 1 18187090520560922291
14993402 34 18409166606215725221
15309172 13 18412819209518074939
15310529 11 16702312260200439492
15775835 57 18272932695923123966
16945 1 18335695061546332872
17844478 74 17346594188050131004
18175812 5 17203321217449316525
19026448 4 16057160609789014072
193761 8 17835238939528977121
20645476 183 17631431411584817870
20653085 51 16009021787306395195
207724 885 18413388722149856360
21501502 16 18196373611281959700
23235685 24 18410298016322833440
23402539 116 18114477724331697156
23402655 69 18123771974417753765
23419403 2 16097490528818370071
23463225 33 18343023336942579450
23552423 10 17984140349255300228
23559900 14 18334297540483489896
2748010 2 18051136895401986124
369184 2 16630531738787129400
528886 8 18410016528492889082
74978 22 18335984147400329360

> <PUBCHEM_SHAPE_MULTIPOLES>
252.9
5.21
1.54
1
2.1
0.52
0.01
-0.65
-0.48
0.02
0.1
-0.54
-0.07
-0.48

> <PUBCHEM_SHAPE_SELFOVERLAP>
534.807

> <PUBCHEM_SHAPE_VOLUME>
139.6

> <PUBCHEM_COORDINATE_TYPE>
2
5
10

$$$$

