439787
  -OEChem-07051212473D

 22 22  0     1  0  0  0  0  0999 V2000
    0.5235    1.1290   -0.2523 O   0  0  0  0  0  0  0  0  0  0  0  0
    0.9585   -2.4109    0.6027 O   0  0  0  0  0  0  0  0  0  0  0  0
   -1.5965   -1.1611   -1.3738 O   0  0  0  0  0  0  0  0  0  0  0  0
   -2.8269    0.1584    0.7141 O   0  0  0  0  0  0  0  0  0  0  0  0
    3.2289    1.2508    0.1597 O   0  0  0  0  0  0  0  0  0  0  0  0
   -1.4331    2.2743   -0.2490 O   0  0  0  0  0  0  0  0  0  0  0  0
    0.5102   -1.3249   -0.2067 C   0  0  1  0  0  0  0  0  0  0  0  0
   -1.0142   -1.2172   -0.0669 C   0  0  1  0  0  0  0  0  0  0  0  0
    1.2184   -0.0373    0.2386 C   0  0  1  0  0  0  0  0  0  0  0  0
   -1.4152    0.0444    0.6923 C   0  0  1  0  0  0  0  0  0  0  0  0
    2.6507    0.0363   -0.2821 C   0  0  0  0  0  0  0  0  0  0  0  0
   -0.8042    1.2581    0.0233 C   0  0  0  0  0  0  0  0  0  0  0  0
    0.7781   -1.5582   -1.2445 H   0  0  0  0  0  0  0  0  0  0  0  0
   -1.4479   -2.0979    0.4194 H   0  0  0  0  0  0  0  0  0  0  0  0
    1.2591    0.0370    1.3338 H   0  0  0  0  0  0  0  0  0  0  0  0
   -1.0719    0.0042    1.7321 H   0  0  0  0  0  0  0  0  0  0  0  0
    2.6677    0.0391   -1.3770 H   0  0  0  0  0  0  0  0  0  0  0  0
    3.2513   -0.8003    0.0879 H   0  0  0  0  0  0  0  0  0  0  0  0
    0.5473   -3.2221    0.2583 H   0  0  0  0  0  0  0  0  0  0  0  0
   -1.1745   -0.4376   -1.8673 H   0  0  0  0  0  0  0  0  0  0  0  0
   -3.0506    0.9221    1.2732 H   0  0  0  0  0  0  0  0  0  0  0  0
    4.1381    1.2775   -0.1840 H   0  0  0  0  0  0  0  0  0  0  0  0
  1  9  1  0  0  0  0
  1 12  1  0  0  0  0
  2  7  1  0  0  0  0
  2 19  1  0  0  0  0
  3  8  1  0  0  0  0
  3 20  1  0  0  0  0
  4 10  1  0  0  0  0
  4 21  1  0  0  0  0
  5 11  1  0  0  0  0
  5 22  1  0  0  0  0
  6 12  2  0  0  0  0
  7  8  1  0  0  0  0
  7  9  1  0  0  0  0
  7 13  1  0  0  0  0
  8 10  1  0  0  0  0
  8 14  1  0  0  0  0
  9 11  1  0  0  0  0
  9 15  1  0  0  0  0
 10 12  1  0  0  0  0
 10 16  1  0  0  0  0
 11 17  1  0  0  0  0
 11 18  1  0  0  0  0
M  END
> <PUBCHEM_COMPOUND_CID>
439787

> <PUBCHEM_CONFORMER_RMSD>
0.6

> <PUBCHEM_CONFORMER_DIVERSEORDER>
2
11
6
1
4
10
18
21
16
20
5
12
8
19
3
17
13
14
9
15
7

> <PUBCHEM_MMFF94_PARTIAL_CHARGES>
16
1 -0.43
10 0.34
11 0.28
12 0.66
19 0.4
2 -0.68
20 0.4
21 0.4
22 0.4
3 -0.68
4 -0.68
5 -0.68
6 -0.57
7 0.28
8 0.28
9 0.28

> <PUBCHEM_EFFECTIVE_ROTOR_COUNT>
2

> <PUBCHEM_PHARMACOPHORE_FEATURES>
10
1 2 acceptor
1 2 donor
1 3 acceptor
1 3 donor
1 4 acceptor
1 4 donor
1 5 acceptor
1 5 donor
1 6 acceptor
6 1 7 8 9 10 12 rings

> <PUBCHEM_HEAVY_ATOM_COUNT>
12

> <PUBCHEM_ATOM_DEF_STEREO_COUNT>
1

> <PUBCHEM_ATOM_UDEF_STEREO_COUNT>
3

> <PUBCHEM_BOND_DEF_STEREO_COUNT>
0

> <PUBCHEM_BOND_UDEF_STEREO_COUNT>
0

> <PUBCHEM_ISOTOPIC_ATOM_COUNT>
0

> <PUBCHEM_COMPONENT_COUNT>
1

> <PUBCHEM_CACTVS_TAUTO_COUNT>
1

> <PUBCHEM_CONFORMER_ID>
0006B5EB00000002

> <PUBCHEM_MMFF94_ENERGY>
25.3493

> <PUBCHEM_FEATURE_SELFOVERLAP>
50.76

> <PUBCHEM_SHAPE_FINGERPRINT>
12423570 1 14730613420422930567
13024252 1 17917151602352329836
13380536 55 18267599063811638460
15775835 57 18333444335659042664
161256 15 18193257792591577934
16945 1 18412822507952581851
18185500 45 18335988553968242303
193761 8 18124032592009303315
20511035 2 17908698775953938309
21040471 1 18265617778218176272
21501502 16 18051971716948885073
23552423 10 18056469780126034082
2748010 2 18123745623838109853
369184 2 18413109433474912720
5084963 1 18259701190343115906
528886 8 18339362959279899859
54338 74 18051427175072118680

> <PUBCHEM_SHAPE_MULTIPOLES>
211.74
3.46
2.09
0.83
1.65
0.12
0.12
-1.04
-0.24
-0.09
0.04
-0.3
0.21
-0.19

> <PUBCHEM_SHAPE_SELFOVERLAP>
427.917

> <PUBCHEM_SHAPE_VOLUME>
122.3

> <PUBCHEM_COORDINATE_TYPE>
2
5
10

$$$$

