21669911
  -OEChem-07051213023D

 93 94  0     1  0  0  0  0  0999 V2000
    2.4095    0.1557    1.3610 O   0  0  0  0  0  0  0  0  0  0  0  0
    3.2410   -0.1990   -0.8015 O   0  0  0  0  0  0  0  0  0  0  0  0
    3.9508    2.8042    1.0379 O   0  0  0  0  0  0  0  0  0  0  0  0
    3.9660    2.7938   -2.0298 O   0  0  0  0  0  0  0  0  0  0  0  0
    0.2088    2.2816    0.7677 O   0  0  0  0  0  0  0  0  0  0  0  0
   -4.1398    1.6761    0.5880 O   0  0  0  0  0  0  0  0  0  0  0  0
   -1.7774   -4.4897   -1.3022 O   0  0  0  0  0  0  0  0  0  0  0  0
   -2.5656    3.0920   -0.3325 O   0  0  0  0  0  0  0  0  0  0  0  0
    6.2184    0.3754   -0.3968 N   0  0  0  0  0  0  0  0  0  0  0  0
    1.1942   -0.5304    1.0481 C   0  0  1  0  0  0  0  0  0  0  0  0
    1.4270   -2.0561    1.2481 C   0  0  2  0  0  0  0  0  0  0  0  0
   -0.0081    0.0939    1.8214 C   0  0  2  0  0  0  0  0  0  0  0  0
    5.3158    1.5237   -0.5150 C   0  0  2  0  0  0  0  0  0  0  0  0
    2.9668    0.7725    0.2020 C   0  0  2  0  0  0  0  0  0  0  0  0
    4.2673    1.4745    0.6152 C   0  0  2  0  0  0  0  0  0  0  0  0
    4.6299    1.5298   -1.8923 C   0  0  1  0  0  0  0  0  0  0  0  0
    0.2512   -2.9460    0.7782 C   0  0  0  0  0  0  0  0  0  0  0  0
    3.5837    0.4053   -2.0576 C   0  0  1  0  0  0  0  0  0  0  0  0
    1.7829   -2.4215    2.6944 C   0  0  0  0  0  0  0  0  0  0  0  0
   -0.6925    1.1915    0.9552 C   0  0  1  0  0  0  0  0  0  0  0  0
   -0.0865   -2.8503   -0.7218 C   0  0  1  0  0  0  0  0  0  0  0  0
    0.3819    0.6500    3.2007 C   0  0  0  0  0  0  0  0  0  0  0  0
   -2.0001    1.7068    1.5719 C   0  0  0  0  0  0  0  0  0  0  0  0
    4.0901   -0.7122   -2.9637 C   0  0  0  0  0  0  0  0  0  0  0  0
    2.2252   -3.8657    2.8003 C   0  0  0  0  0  0  0  0  0  0  0  0
    0.9012   -3.6376   -1.5814 C   0  0  0  0  0  0  0  0  0  0  0  0
    7.2144    0.4019   -1.4652 C   0  0  0  0  0  0  0  0  0  0  0  0
    6.8671    0.3736    0.9120 C   0  0  0  0  0  0  0  0  0  0  0  0
   -1.5165   -3.3433   -0.9477 C   0  0  0  0  0  0  0  0  0  0  0  0
   -2.9106    2.2598    0.4960 C   0  0  0  0  0  0  0  0  0  0  0  0
   -2.5890   -2.3404   -0.6800 C   0  0  0  0  0  0  0  0  0  0  0  0
   -5.0981    1.9449   -0.4672 C   0  0  1  0  0  0  0  0  0  0  0  0
   -5.9285    0.6528   -0.6781 C   0  0  2  0  0  0  0  0  0  0  0  0
   -5.9467    3.1359   -0.0307 C   0  0  0  0  0  0  0  0  0  0  0  0
   -3.8894   -2.6595   -0.7382 C   0  0  0  0  0  0  0  0  0  0  0  0
   -4.9913   -0.4951   -1.0019 C   0  0  0  0  0  0  0  0  0  0  0  0
   -4.9487   -1.7095   -0.4172 C   0  0  0  0  0  0  0  0  0  0  0  0
   -6.9585    0.7961   -1.7983 C   0  0  0  0  0  0  0  0  0  0  0  0
   -5.1038    4.3864    0.1332 C   0  0  0  0  0  0  0  0  0  0  0  0
   -5.9418   -2.2222    0.5878 C   0  0  0  0  0  0  0  0  0  0  0  0
    0.9735   -0.4025   -0.0166 H   0  0  0  0  0  0  0  0  0  0  0  0
    2.3051   -2.3162    0.6414 H   0  0  0  0  0  0  0  0  0  0  0  0
   -0.7648   -0.6817    1.9784 H   0  0  0  0  0  0  0  0  0  0  0  0
    5.8859    2.4596   -0.4151 H   0  0  0  0  0  0  0  0  0  0  0  0
    2.2413    1.4960   -0.1796 H   0  0  0  0  0  0  0  0  0  0  0  0
    4.6247    1.0185    1.5365 H   0  0  0  0  0  0  0  0  0  0  0  0
    5.3319    1.5389   -2.7287 H   0  0  0  0  0  0  0  0  0  0  0  0
    0.4583   -4.0025    0.9781 H   0  0  0  0  0  0  0  0  0  0  0  0
   -0.6357   -2.7199    1.3814 H   0  0  0  0  0  0  0  0  0  0  0  0
    2.6598    0.7988   -2.5005 H   0  0  0  0  0  0  0  0  0  0  0  0
    2.5990   -1.7826    3.0507 H   0  0  0  0  0  0  0  0  0  0  0  0
    0.9281   -2.2685    3.3614 H   0  0  0  0  0  0  0  0  0  0  0  0
   -0.9021    0.7775   -0.0384 H   0  0  0  0  0  0  0  0  0  0  0  0
   -0.0626   -1.8148   -1.0742 H   0  0  0  0  0  0  0  0  0  0  0  0
   -0.4978    1.0170    3.7391 H   0  0  0  0  0  0  0  0  0  0  0  0
    0.8369   -0.1167    3.8311 H   0  0  0  0  0  0  0  0  0  0  0  0
    1.0956    1.4767    3.1286 H   0  0  0  0  0  0  0  0  0  0  0  0
   -1.8362    2.5045    2.3041 H   0  0  0  0  0  0  0  0  0  0  0  0
   -2.5246    0.8845    2.0729 H   0  0  0  0  0  0  0  0  0  0  0  0
    4.9227   -1.2555   -2.5068 H   0  0  0  0  0  0  0  0  0  0  0  0
    3.2971   -1.4519   -3.1228 H   0  0  0  0  0  0  0  0  0  0  0  0
    4.4017   -0.3289   -3.9398 H   0  0  0  0  0  0  0  0  0  0  0  0
    2.7090   -4.0288    3.7700 H   0  0  0  0  0  0  0  0  0  0  0  0
    2.9498   -4.1310    2.0239 H   0  0  0  0  0  0  0  0  0  0  0  0
    1.3851   -4.5644    2.7574 H   0  0  0  0  0  0  0  0  0  0  0  0
    3.6523    3.3073    0.2624 H   0  0  0  0  0  0  0  0  0  0  0  0
    3.0920    2.7481   -1.6115 H   0  0  0  0  0  0  0  0  0  0  0  0
    0.6080   -3.6039   -2.6365 H   0  0  0  0  0  0  0  0  0  0  0  0
    0.9412   -4.6918   -1.2859 H   0  0  0  0  0  0  0  0  0  0  0  0
    1.9108   -3.2231   -1.5017 H   0  0  0  0  0  0  0  0  0  0  0  0
    7.9715   -0.3748   -1.2995 H   0  0  0  0  0  0  0  0  0  0  0  0
    7.7398    1.3625   -1.5227 H   0  0  0  0  0  0  0  0  0  0  0  0
    6.7995    0.1618   -2.4468 H   0  0  0  0  0  0  0  0  0  0  0  0
    7.7411   -0.2907    0.9083 H   0  0  0  0  0  0  0  0  0  0  0  0
    7.2232    1.3652    1.2147 H   0  0  0  0  0  0  0  0  0  0  0  0
    6.2308   -0.0478    1.6951 H   0  0  0  0  0  0  0  0  0  0  0  0
    0.2617    2.7860    1.5964 H   0  0  0  0  0  0  0  0  0  0  0  0
   -2.2651   -1.3419   -0.4039 H   0  0  0  0  0  0  0  0  0  0  0  0
   -4.5697    2.1839   -1.4006 H   0  0  0  0  0  0  0  0  0  0  0  0
   -6.4564    0.4437    0.2588 H   0  0  0  0  0  0  0  0  0  0  0  0
   -6.7246    3.3455   -0.7714 H   0  0  0  0  0  0  0  0  0  0  0  0
   -6.4440    2.9215    0.9227 H   0  0  0  0  0  0  0  0  0  0  0  0
   -4.2070   -3.6713   -0.9750 H   0  0  0  0  0  0  0  0  0  0  0  0
   -4.2433   -0.2613   -1.7609 H   0  0  0  0  0  0  0  0  0  0  0  0
   -7.7395    1.5147   -1.5323 H   0  0  0  0  0  0  0  0  0  0  0  0
   -6.4922    1.1303   -2.7319 H   0  0  0  0  0  0  0  0  0  0  0  0
   -7.4582   -0.1592   -1.9964 H   0  0  0  0  0  0  0  0  0  0  0  0
   -5.7635    5.2429    0.3143 H   0  0  0  0  0  0  0  0  0  0  0  0
   -4.4362    4.3295    0.9968 H   0  0  0  0  0  0  0  0  0  0  0  0
   -4.5312    4.6126   -0.7710 H   0  0  0  0  0  0  0  0  0  0  0  0
   -5.4836   -2.2767    1.5812 H   0  0  0  0  0  0  0  0  0  0  0  0
   -6.2879   -3.2255    0.3139 H   0  0  0  0  0  0  0  0  0  0  0  0
   -6.8370   -1.5996    0.6621 H   0  0  0  0  0  0  0  0  0  0  0  0
  1 10  1  0  0  0  0
  1 14  1  0  0  0  0
  2 14  1  0  0  0  0
  2 18  1  0  0  0  0
  3 15  1  0  0  0  0
  3 66  1  0  0  0  0
  4 16  1  0  0  0  0
  4 67  1  0  0  0  0
  5 20  1  0  0  0  0
  5 77  1  0  0  0  0
  6 30  1  0  0  0  0
  6 32  1  0  0  0  0
  7 29  2  0  0  0  0
  8 30  2  0  0  0  0
  9 13  1  0  0  0  0
  9 27  1  0  0  0  0
  9 28  1  0  0  0  0
 10 11  1  0  0  0  0
 10 12  1  0  0  0  0
 10 41  1  0  0  0  0
 11 17  1  0  0  0  0
 11 19  1  0  0  0  0
 11 42  1  0  0  0  0
 12 20  1  0  0  0  0
 12 22  1  0  0  0  0
 12 43  1  0  0  0  0
 13 15  1  0  0  0  0
 13 16  1  0  0  0  0
 13 44  1  0  0  0  0
 14 15  1  0  0  0  0
 14 45  1  0  0  0  0
 15 46  1  0  0  0  0
 16 18  1  0  0  0  0
 16 47  1  0  0  0  0
 17 21  1  0  0  0  0
 17 48  1  0  0  0  0
 17 49  1  0  0  0  0
 18 24  1  0  0  0  0
 18 50  1  0  0  0  0
 19 25  1  0  0  0  0
 19 51  1  0  0  0  0
 19 52  1  0  0  0  0
 20 23  1  0  0  0  0
 20 53  1  0  0  0  0
 21 26  1  0  0  0  0
 21 29  1  0  0  0  0
 21 54  1  0  0  0  0
 22 55  1  0  0  0  0
 22 56  1  0  0  0  0
 22 57  1  0  0  0  0
 23 30  1  0  0  0  0
 23 58  1  0  0  0  0
 23 59  1  0  0  0  0
 24 60  1  0  0  0  0
 24 61  1  0  0  0  0
 24 62  1  0  0  0  0
 25 63  1  0  0  0  0
 25 64  1  0  0  0  0
 25 65  1  0  0  0  0
 26 68  1  0  0  0  0
 26 69  1  0  0  0  0
 26 70  1  0  0  0  0
 27 71  1  0  0  0  0
 27 72  1  0  0  0  0
 27 73  1  0  0  0  0
 28 74  1  0  0  0  0
 28 75  1  0  0  0  0
 28 76  1  0  0  0  0
 29 31  1  0  0  0  0
 31 35  2  0  0  0  0
 31 78  1  0  0  0  0
 32 33  1  0  0  0  0
 32 34  1  0  0  0  0
 32 79  1  0  0  0  0
 33 36  1  0  0  0  0
 33 38  1  0  0  0  0
 33 80  1  0  0  0  0
 34 39  1  0  0  0  0
 34 81  1  0  0  0  0
 34 82  1  0  0  0  0
 35 37  1  0  0  0  0
 35 83  1  0  0  0  0
 36 37  2  0  0  0  0
 36 84  1  0  0  0  0
 37 40  1  0  0  0  0
 38 85  1  0  0  0  0
 38 86  1  0  0  0  0
 38 87  1  0  0  0  0
 39 88  1  0  0  0  0
 39 89  1  0  0  0  0
 39 90  1  0  0  0  0
 40 91  1  0  0  0  0
 40 92  1  0  0  0  0
 40 93  1  0  0  0  0
M  END
> <PUBCHEM_COMPOUND_CID>
21669911

> <PUBCHEM_CONFORMER_RMSD>
1

> <PUBCHEM_CONFORMER_DIVERSEORDER>
5
2
3
1
6
4

> <PUBCHEM_MMFF94_PARTIAL_CHARGES>
35
1 -0.56
10 0.28
13 0.27
14 0.56
15 0.28
16 0.28
18 0.28
2 -0.56
20 0.28
21 0.06
23 0.06
27 0.27
28 0.27
29 0.49
3 -0.68
30 0.66
31 -0.14
32 0.28
33 0.14
35 -0.15
36 -0.29
37 -0.14
4 -0.68
40 0.14
5 -0.68
6 -0.43
66 0.4
67 0.4
7 -0.57
77 0.4
78 0.15
8 -0.57
83 0.15
84 0.15
9 -0.81

> <PUBCHEM_EFFECTIVE_ROTOR_COUNT>
8.2

> <PUBCHEM_PHARMACOPHORE_FEATURES>
14
1 1 acceptor
1 2 acceptor
1 25 hydrophobe
1 3 acceptor
1 3 donor
1 39 hydrophobe
1 4 acceptor
1 4 donor
1 5 acceptor
1 5 donor
1 7 acceptor
1 8 acceptor
1 9 cation
6 2 13 14 15 16 18 rings

> <PUBCHEM_HEAVY_ATOM_COUNT>
40

> <PUBCHEM_ATOM_DEF_STEREO_COUNT>
12

> <PUBCHEM_ATOM_UDEF_STEREO_COUNT>
0

> <PUBCHEM_BOND_DEF_STEREO_COUNT>
2

> <PUBCHEM_BOND_UDEF_STEREO_COUNT>
0

> <PUBCHEM_ISOTOPIC_ATOM_COUNT>
0

> <PUBCHEM_COMPONENT_COUNT>
1

> <PUBCHEM_CACTVS_TAUTO_COUNT>
2

> <PUBCHEM_CONFORMER_ID>
014AA81700000005

> <PUBCHEM_MMFF94_ENERGY>
123.2848

> <PUBCHEM_FEATURE_SELFOVERLAP>
71.086

> <PUBCHEM_SHAPE_FINGERPRINT>
10190206 1 18187074053387303768
10670039 82 18408608033087394239
11421498 54 18129952156909097779
12728209 76 18271516511924808725
13150687 139 18338506551955534166
13726171 33 18335411405317288153
14251757 5 18263642862367351447
14930077 153 18125711288947168948
15297060 5 18187079585600385273
15328829 1 18129959931015889410
15790856 291 18193555571481279894
17852330 162 18263918840556524308
19311894 1 17975980864929121511
19319366 153 18202012027110868227
19958102 18 18187074053350309190
20764821 26 18116157856173682663
21033650 10 18055063260542652070
21458453 9 12607121747168886414
22393880 68 18335141994502979833
23536364 44 17676480640557439675
23559900 14 17827927552988741015
25223398 141 18335985285651104504
2838139 119 17275383209418445300
4058900 60 17988928868265534371
4066623 53 17757286885229573455
42767 28 18041826445575574660

> <PUBCHEM_SHAPE_MULTIPOLES>
771.25
16.43
5.33
2.56
1.04
2.3
0.62
-11.11
-7.6
4.94
0.06
-2.9
1.06
-2.1

> <PUBCHEM_SHAPE_SELFOVERLAP>
1543.872

> <PUBCHEM_SHAPE_VOLUME>
451.1

> <PUBCHEM_COORDINATE_TYPE>
2
5
10

$$$$

