90638
  -OEChem-07051212483D

 23 23  0     1  0  0  0  0  0999 V2000
    1.3256   -1.6499    1.0822 O   0  0  0  0  0  0  0  0  0  0  0  0
    1.4766   -1.4572   -1.1787 O   0  0  0  0  0  0  0  0  0  0  0  0
    2.4883    1.1558   -0.2294 N   0  0  0  0  0  0  0  0  0  0  0  0
   -2.0766   -0.0098   -1.0749 N   0  0  0  0  0  0  0  0  0  0  0  0
   -3.1094   -0.0974    0.8892 N   0  0  0  0  0  0  0  0  0  0  0  0
    1.2311    0.5428    0.2034 C   0  0  1  0  0  0  0  0  0  0  0  0
    0.0620    1.1640   -0.5732 C   0  0  0  0  0  0  0  0  0  0  0  0
   -1.2761    0.5847   -0.1732 C   0  0  0  0  0  0  0  0  0  0  0  0
    1.3501   -0.9421   -0.0767 C   0  0  0  0  0  0  0  0  0  0  0  0
   -1.8984    0.5347    1.0208 C   0  0  0  0  0  0  0  0  0  0  0  0
    3.6130    0.5866    0.4952 C   0  0  0  0  0  0  0  0  0  0  0  0
   -3.1861   -0.4121   -0.3848 C   0  0  0  0  0  0  0  0  0  0  0  0
    1.0821    0.7091    1.2783 H   0  0  0  0  0  0  0  0  0  0  0  0
    0.2084    1.0283   -1.6536 H   0  0  0  0  0  0  0  0  0  0  0  0
    0.0285    2.2469   -0.3943 H   0  0  0  0  0  0  0  0  0  0  0  0
    2.4482    2.1596   -0.0535 H   0  0  0  0  0  0  0  0  0  0  0  0
   -1.9057   -0.1403   -2.0638 H   0  0  0  0  0  0  0  0  0  0  0  0
   -1.5640    0.9097    1.9770 H   0  0  0  0  0  0  0  0  0  0  0  0
    4.5141    1.1613    0.2552 H   0  0  0  0  0  0  0  0  0  0  0  0
    3.8248   -0.4473    0.2060 H   0  0  0  0  0  0  0  0  0  0  0  0
    3.4741    0.6418    1.5803 H   0  0  0  0  0  0  0  0  0  0  0  0
   -4.0066   -0.9256   -0.8656 H   0  0  0  0  0  0  0  0  0  0  0  0
    1.4138   -2.6139    0.9236 H   0  0  0  0  0  0  0  0  0  0  0  0
  1  9  1  0  0  0  0
  1 23  1  0  0  0  0
  2  9  2  0  0  0  0
  3  6  1  0  0  0  0
  3 11  1  0  0  0  0
  3 16  1  0  0  0  0
  4  8  1  0  0  0  0
  4 12  1  0  0  0  0
  4 17  1  0  0  0  0
  5 10  1  0  0  0  0
  5 12  2  0  0  0  0
  6  7  1  0  0  0  0
  6  9  1  0  0  0  0
  6 13  1  0  0  0  0
  7  8  1  0  0  0  0
  7 14  1  0  0  0  0
  7 15  1  0  0  0  0
  8 10  2  0  0  0  0
 10 18  1  0  0  0  0
 11 19  1  0  0  0  0
 11 20  1  0  0  0  0
 11 21  1  0  0  0  0
 12 22  1  0  0  0  0
M  END
> <PUBCHEM_COMPOUND_CID>
90638

> <PUBCHEM_CONFORMER_RMSD>
0.6

> <PUBCHEM_CONFORMER_DIVERSEORDER>
2
21
31
33
27
10
7
40
18
6
15
19
26
37
30
36
8
32
3
17
9
25
34
22
39
28
20
38
13
5
14
1
4
29
11
24
35
23
16
12

> <PUBCHEM_MMFF94_PARTIAL_CHARGES>
17
1 -0.65
10 0.08
11 0.27
12 0.04
16 0.36
17 0.27
18 0.15
2 -0.57
22 0.15
23 0.5
3 -0.9
4 0.03
5 -0.57
6 0.33
7 0.18
8 -0.33
9 0.66

> <PUBCHEM_EFFECTIVE_ROTOR_COUNT>
4

> <PUBCHEM_PHARMACOPHORE_FEATURES>
8
1 1 acceptor
1 2 acceptor
1 3 cation
1 3 donor
1 4 donor
3 1 2 9 anion
3 4 5 12 cation
5 4 5 8 10 12 rings

> <PUBCHEM_HEAVY_ATOM_COUNT>
12

> <PUBCHEM_ATOM_DEF_STEREO_COUNT>
1

> <PUBCHEM_ATOM_UDEF_STEREO_COUNT>
0

> <PUBCHEM_BOND_DEF_STEREO_COUNT>
0

> <PUBCHEM_BOND_UDEF_STEREO_COUNT>
0

> <PUBCHEM_ISOTOPIC_ATOM_COUNT>
0

> <PUBCHEM_COMPONENT_COUNT>
1

> <PUBCHEM_CACTVS_TAUTO_COUNT>
2

> <PUBCHEM_CONFORMER_ID>
0001620E00000002

> <PUBCHEM_MMFF94_ENERGY>
12.2678

> <PUBCHEM_FEATURE_SELFOVERLAP>
40.652

> <PUBCHEM_SHAPE_FINGERPRINT>
10219947 1 18202284667371213148
12932764 1 18199740509143920357
15207287 21 17417537921122104067
15757776 16 18340500975453125167
15775835 57 16950275217786925211
16945 1 18335697213425253044
18511873 20 10087650315889446060
201361 129 17458613553890523296
20201158 50 17775289356741377129
20279233 1 17775566442525248787
20645477 70 18339370768079369143
207724 885 8214149576816430076
21061003 4 18202559557978631101
23402539 116 15984559827300909671
23557571 272 16343710932495166501
29004967 10 18130784559977464641
3248919 1 16343695569286372013
369184 2 18410856594553519833
81228 2 17416969624067015245

> <PUBCHEM_SHAPE_MULTIPOLES>
220.27
5.24
1.34
1.06
0.14
0.37
0.04
-0.33
0.64
-0.8
-0.04
0.24
0.17
-0.08

> <PUBCHEM_SHAPE_SELFOVERLAP>
448.435

> <PUBCHEM_SHAPE_VOLUME>
130.3

> <PUBCHEM_COORDINATE_TYPE>
2
5
10

$$$$

