6307
  -OEChem-06261201143D

 30 31  0     1  0  0  0  0  0999 V2000
    2.7841   -2.5336    0.0216 Cl  0  0  0  0  0  0  0  0  0  0  0  0
    3.3595    0.6208   -0.3827 S   0  0  0  0  0  0  0  0  0  0  0  0
   -1.4819    2.6229    0.4573 O   0  0  0  0  0  0  0  0  0  0  0  0
    4.0995   -0.4646   -1.0194 O   0  0  0  0  0  0  0  0  0  0  0  0
    3.1469    1.8811   -1.0858 O   0  0  0  0  0  0  0  0  0  0  0  0
   -2.1396   -1.3896    0.6887 N   0  0  0  0  0  0  0  0  0  0  0  0
   -2.9567    0.8666    0.6173 N   0  0  0  0  0  0  0  0  0  0  0  0
    4.1277    0.9642    1.1166 N   0  0  0  0  0  0  0  0  0  0  0  0
   -3.2742   -0.5358    0.3980 C   0  0  1  0  0  0  0  0  0  0  0  0
   -0.8566   -0.9257    0.4362 C   0  0  0  0  0  0  0  0  0  0  0  0
   -3.7495   -0.7698   -1.0323 C   0  0  0  0  0  0  0  0  0  0  0  0
   -0.5950    0.4436    0.2767 C   0  0  0  0  0  0  0  0  0  0  0  0
   -1.7014    1.4160    0.4419 C   0  0  0  0  0  0  0  0  0  0  0  0
    0.7024    0.9041    0.0238 C   0  0  0  0  0  0  0  0  0  0  0  0
    1.7539   -0.0060   -0.0646 C   0  0  0  0  0  0  0  0  0  0  0  0
    0.2181   -1.8221    0.3634 C   0  0  0  0  0  0  0  0  0  0  0  0
    1.5135   -1.3668    0.1092 C   0  0  0  0  0  0  0  0  0  0  0  0
   -4.9505    0.0948   -1.3661 C   0  0  0  0  0  0  0  0  0  0  0  0
   -4.0821   -0.7826    1.0962 H   0  0  0  0  0  0  0  0  0  0  0  0
   -2.2890   -2.3886    0.7712 H   0  0  0  0  0  0  0  0  0  0  0  0
   -4.0161   -1.8257   -1.1641 H   0  0  0  0  0  0  0  0  0  0  0  0
   -2.9491   -0.5567   -1.7520 H   0  0  0  0  0  0  0  0  0  0  0  0
   -3.7276    1.5041    0.7925 H   0  0  0  0  0  0  0  0  0  0  0  0
    0.8821    1.9704   -0.0813 H   0  0  0  0  0  0  0  0  0  0  0  0
    0.0338   -2.8867    0.4986 H   0  0  0  0  0  0  0  0  0  0  0  0
   -5.7627   -0.0595   -0.6484 H   0  0  0  0  0  0  0  0  0  0  0  0
   -4.6965    1.1592   -1.3800 H   0  0  0  0  0  0  0  0  0  0  0  0
   -5.3300   -0.1622   -2.3607 H   0  0  0  0  0  0  0  0  0  0  0  0
    4.2671    1.9525    1.3600 H   0  0  0  0  0  0  0  0  0  0  0  0
    4.9014    0.3513    1.4017 H   0  0  0  0  0  0  0  0  0  0  0  0
  1 17  1  0  0  0  0
  2  4  2  0  0  0  0
  2  5  2  0  0  0  0
  2  8  1  0  0  0  0
  2 15  1  0  0  0  0
  3 13  2  0  0  0  0
  6  9  1  0  0  0  0
  6 10  1  0  0  0  0
  6 20  1  0  0  0  0
  7  9  1  0  0  0  0
  7 13  1  0  0  0  0
  7 23  1  0  0  0  0
  8 29  1  0  0  0  0
  8 30  1  0  0  0  0
  9 11  1  0  0  0  0
  9 19  1  0  0  0  0
 10 12  1  0  0  0  0
 10 16  2  0  0  0  0
 11 18  1  0  0  0  0
 11 21  1  0  0  0  0
 11 22  1  0  0  0  0
 12 13  1  0  0  0  0
 12 14  2  0  0  0  0
 14 15  1  0  0  0  0
 14 24  1  0  0  0  0
 15 17  2  0  0  0  0
 16 17  1  0  0  0  0
 16 25  1  0  0  0  0
 18 26  1  0  0  0  0
 18 27  1  0  0  0  0
 18 28  1  0  0  0  0
M  END
> <PUBCHEM_COMPOUND_CID>
6307

> <PUBCHEM_CONFORMER_RMSD>
0.6

> <PUBCHEM_CONFORMER_DIVERSEORDER>
1
2
4
6
5
3

> <PUBCHEM_MMFF94_PARTIAL_CHARGES>
22
1 -0.18
10 0.1
12 0.09
13 0.54
14 -0.15
15 -0.01
16 -0.15
17 0.18
2 1.45
20 0.4
23 0.37
24 0.15
25 0.15
29 0.42
3 -0.57
30 0.42
4 -0.65
5 -0.65
6 -0.87
7 -0.73
8 -0.98
9 0.67

> <PUBCHEM_EFFECTIVE_ROTOR_COUNT>
2.6

> <PUBCHEM_PHARMACOPHORE_FEATURES>
10
1 18 hydrophobe
1 3 acceptor
1 4 acceptor
1 5 acceptor
1 6 cation
1 6 donor
1 7 donor
1 8 donor
6 10 12 14 15 16 17 rings
6 6 7 9 10 12 13 rings

> <PUBCHEM_HEAVY_ATOM_COUNT>
18

> <PUBCHEM_ATOM_DEF_STEREO_COUNT>
0

> <PUBCHEM_ATOM_UDEF_STEREO_COUNT>
1

> <PUBCHEM_BOND_DEF_STEREO_COUNT>
0

> <PUBCHEM_BOND_UDEF_STEREO_COUNT>
0

> <PUBCHEM_ISOTOPIC_ATOM_COUNT>
0

> <PUBCHEM_COMPONENT_COUNT>
1

> <PUBCHEM_CACTVS_TAUTO_COUNT>
3

> <PUBCHEM_CONFORMER_ID>
000018A300000001

> <PUBCHEM_MMFF94_ENERGY>
40.2692

> <PUBCHEM_FEATURE_SELFOVERLAP>
50.818

> <PUBCHEM_SHAPE_FINGERPRINT>
10498660 4 18269265781906042124
10756046 5 18266742578681839765
10967382 1 18411692158591580434
11132069 177 18411419475434043208
11471102 20 18341894099856853310
11543360 7 16298663902086480802
12403260 363 18410016554795696136
13140716 1 18049999991730792480
13380535 76 18341892965874775922
13675066 3 11743846871558384055
14250199 8 18341327902654948575
14576447 43 18115322059685201319
15442244 35 18123745619880882634
15536298 74 18335416915570352738
16945 1 18339071605925913634
17349148 13 18270418151654144970
17959699 21 18130795607039545357
18186145 218 18271799155248655086
192875 21 18270693068073278914
200 152 18333736818705413829
20645477 70 18340207487553627495
21501502 16 18264765639379035842
231179 274 17489593350422791366
2334 1 18339635754285895826
23402539 116 18336555927595346012
23402655 69 18337962276688545381
23493267 7 17489592216878349769
23557571 272 17458635556944885162
23558518 356 18270671103663125507
23559900 14 18411980256872163042
25147074 1 18265329701771159002
2748010 2 18268700770246953778
2871803 45 18408606971797584981
34934 24 18335711502829042915
352729 6 18197484152465204482
4028521 119 18342459244475019071
4072396 5 18199488643640178098
5104073 3 18338792429078532027
69090 78 17894631422646599150
7364860 26 18263359343192053050
9709674 26 18337099172371240510

> <PUBCHEM_SHAPE_MULTIPOLES>
343.6
8.06
2.25
1.02
1.93
0.06
-0.2
-0.45
-2.59
-1.08
0.21
0.27
-0.11
-0.31

> <PUBCHEM_SHAPE_SELFOVERLAP>
710.372

> <PUBCHEM_SHAPE_VOLUME>
198.6

> <PUBCHEM_COORDINATE_TYPE>
2
5
10

$$$$

