14301
  -OEChem-06241222433D

 25 25  0     0  0  0  0  0  0999 V2000
    2.6799    0.6704   -0.7970 O   0  0  0  0  0  0  0  0  0  0  0  0
    0.8537   -0.4217    0.1474 N   0  0  0  0  0  0  0  0  0  0  0  0
   -0.1436   -0.0082   -0.8145 C   0  0  0  0  0  0  0  0  0  0  0  0
   -1.2155   -1.0882   -0.9953 C   0  0  0  0  0  0  0  0  0  0  0  0
   -0.7684    1.3337   -0.4181 C   0  0  0  0  0  0  0  0  0  0  0  0
   -2.1390   -1.2046    0.2173 C   0  0  0  0  0  0  0  0  0  0  0  0
   -1.6926    1.2134    0.7937 C   0  0  0  0  0  0  0  0  0  0  0  0
   -2.7572    0.1407    0.5855 C   0  0  0  0  0  0  0  0  0  0  0  0
    2.1836   -0.0438    0.0703 C   0  0  0  0  0  0  0  0  0  0  0  0
    2.9991   -0.5917    1.2106 C   0  0  0  0  0  0  0  0  0  0  0  0
    0.3703    0.1270   -1.7745 H   0  0  0  0  0  0  0  0  0  0  0  0
   -0.7474   -2.0607   -1.1900 H   0  0  0  0  0  0  0  0  0  0  0  0
   -1.8215   -0.8448   -1.8774 H   0  0  0  0  0  0  0  0  0  0  0  0
   -1.3493    1.7194   -1.2658 H   0  0  0  0  0  0  0  0  0  0  0  0
    0.0117    2.0747   -0.2067 H   0  0  0  0  0  0  0  0  0  0  0  0
   -1.5854   -1.6016    1.0761 H   0  0  0  0  0  0  0  0  0  0  0  0
   -2.9361   -1.9247   -0.0004 H   0  0  0  0  0  0  0  0  0  0  0  0
   -2.1764    2.1785    0.9825 H   0  0  0  0  0  0  0  0  0  0  0  0
   -1.1024    0.9751    1.6870 H   0  0  0  0  0  0  0  0  0  0  0  0
   -3.4413    0.4571   -0.2116 H   0  0  0  0  0  0  0  0  0  0  0  0
   -3.3570    0.0343    1.4963 H   0  0  0  0  0  0  0  0  0  0  0  0
    0.5500   -0.9626    0.9518 H   0  0  0  0  0  0  0  0  0  0  0  0
    4.0639   -0.4740    0.9913 H   0  0  0  0  0  0  0  0  0  0  0  0
    2.7569   -0.0456    2.1263 H   0  0  0  0  0  0  0  0  0  0  0  0
    2.7877   -1.6554    1.3535 H   0  0  0  0  0  0  0  0  0  0  0  0
  1  9  2  0  0  0  0
  2  3  1  0  0  0  0
  2  9  1  0  0  0  0
  2 22  1  0  0  0  0
  3  4  1  0  0  0  0
  3  5  1  0  0  0  0
  3 11  1  0  0  0  0
  4  6  1  0  0  0  0
  4 12  1  0  0  0  0
  4 13  1  0  0  0  0
  5  7  1  0  0  0  0
  5 14  1  0  0  0  0
  5 15  1  0  0  0  0
  6  8  1  0  0  0  0
  6 16  1  0  0  0  0
  6 17  1  0  0  0  0
  7  8  1  0  0  0  0
  7 18  1  0  0  0  0
  7 19  1  0  0  0  0
  8 20  1  0  0  0  0
  8 21  1  0  0  0  0
  9 10  1  0  0  0  0
 10 23  1  0  0  0  0
 10 24  1  0  0  0  0
 10 25  1  0  0  0  0
M  END
> <PUBCHEM_COMPOUND_CID>
14301

> <PUBCHEM_CONFORMER_RMSD>
0.6

> <PUBCHEM_CONFORMER_DIVERSEORDER>
1
4
5
2
3

> <PUBCHEM_MMFF94_PARTIAL_CHARGES>
6
1 -0.57
10 0.06
2 -0.73
22 0.37
3 0.3
9 0.57

> <PUBCHEM_EFFECTIVE_ROTOR_COUNT>
3.2

> <PUBCHEM_PHARMACOPHORE_FEATURES>
3
1 1 acceptor
1 2 donor
6 3 4 5 6 7 8 rings

> <PUBCHEM_HEAVY_ATOM_COUNT>
10

> <PUBCHEM_ATOM_DEF_STEREO_COUNT>
0

> <PUBCHEM_ATOM_UDEF_STEREO_COUNT>
0

> <PUBCHEM_BOND_DEF_STEREO_COUNT>
0

> <PUBCHEM_BOND_UDEF_STEREO_COUNT>
0

> <PUBCHEM_ISOTOPIC_ATOM_COUNT>
0

> <PUBCHEM_COMPONENT_COUNT>
1

> <PUBCHEM_CACTVS_TAUTO_COUNT>
2

> <PUBCHEM_CONFORMER_ID>
000037DD00000001

> <PUBCHEM_MMFF94_ENERGY>
5.3003

> <PUBCHEM_FEATURE_SELFOVERLAP>
15.223

> <PUBCHEM_SHAPE_FINGERPRINT>
10857977 72 18114179705315028961
12696612 119 17823996549479166104
12897270 3 11959727174762255090
12932764 1 17989485229880872340
13024252 1 15984825982013087757
16945 1 18113897156680857751
20645464 45 16805329898421620290
20653085 51 4823222675619226435
20871998 184 17822847577029036767
21028194 46 17386283327986816977
23552423 10 17981885246469521509
29004967 10 15913321368998296357
3248919 1 18408045121524713446
369184 2 17632298981813769029
5084963 1 18188762989083401918
54338 74 18263653883168776967

> <PUBCHEM_SHAPE_MULTIPOLES>
194.94
4.45
1.31
1.1
2.63
0.08
0.04
-0.25
1.34
-0.75
-0.05
0.28
-0.03
-0.46

> <PUBCHEM_SHAPE_SELFOVERLAP>
376.338

> <PUBCHEM_SHAPE_VOLUME>
117.6

> <PUBCHEM_COORDINATE_TYPE>
2
5
10

$$$$

