441765
  -OEChem-07051212562D

 81 85  0     1  0  0  0  0  0999 V2000
    6.3301   -1.8147    0.0000 O   0  0  0  0  0  0  0  0  0  0  0  0
   10.6765   -1.3693    0.0000 O   0  0  0  0  0  0  0  0  0  0  0  0
    5.4641   -0.3147    0.0000 O   0  0  0  0  0  0  0  0  0  0  0  0
    8.9446   -1.3493    0.0000 O   0  0  0  0  0  0  0  0  0  0  0  0
    3.7320   -3.3147    0.0000 O   0  0  0  0  0  0  0  0  0  0  0  0
    5.4641   -4.3147    0.0000 O   0  0  0  0  0  0  0  0  0  0  0  0
   10.6418   -4.3691    0.0000 O   0  0  0  0  0  0  0  0  0  0  0  0
   12.3853   -3.3892    0.0000 O   0  0  0  0  0  0  0  0  0  0  0  0
    3.7320   -1.3147    0.0000 O   0  0  0  0  0  0  0  0  0  0  0  0
    8.9214   -3.3492    0.0000 O   0  0  0  0  0  0  0  0  0  0  0  0
    7.1962   -4.3147    0.0000 O   0  0  0  0  0  0  0  0  0  0  0  0
   13.2686   -1.8993    0.0000 O   0  0  0  0  0  0  0  0  0  0  0  0
    7.1962    1.6853    0.0000 O   0  3  0  0  0  0  0  0  0  0  0  0
   10.7263    1.7094    0.0000 O   0  0  0  0  0  0  0  0  0  0  0  0
    2.8660    1.1853    0.0000 O   0  0  0  0  0  0  0  0  0  0  0  0
    4.5981    4.1853    0.0000 O   0  0  0  0  0  0  0  0  0  0  0  0
    2.8660    3.1853    0.0000 O   0  0  0  0  0  0  0  0  0  0  0  0
    4.5981   -2.8147    0.0000 C   0  0  1  0  0  0  0  0  0  0  0  0
    5.4641   -3.3147    0.0000 C   0  0  1  0  0  0  0  0  0  0  0  0
   10.6534   -3.3692    0.0000 C   0  0  1  0  0  0  0  0  0  0  0  0
   11.5251   -2.8792    0.0000 C   0  0  1  0  0  0  0  0  0  0  0  0
    4.5981   -1.8147    0.0000 C   0  0  2  0  0  0  0  0  0  0  0  0
    6.3301   -2.8147    0.0000 C   0  0  1  0  0  0  0  0  0  0  0  0
    9.7932   -2.8592    0.0000 C   0  0  2  0  0  0  0  0  0  0  0  0
   11.5367   -1.8793    0.0000 C   0  0  1  0  0  0  0  0  0  0  0  0
    5.4641   -1.3147    0.0000 C   0  0  1  0  0  0  0  0  0  0  0  0
    9.8047   -1.8593    0.0000 C   0  0  1  0  0  0  0  0  0  0  0  0
    7.1962   -3.3147    0.0000 C   0  0  0  0  0  0  0  0  0  0  0  0
   12.4084   -1.3894    0.0000 C   0  0  0  0  0  0  0  0  0  0  0  0
    6.3301    0.1853    0.0000 C   0  0  0  0  0  0  0  0  0  0  0  0
    8.9561   -0.3494    0.0000 C   0  0  0  0  0  0  0  0  0  0  0  0
    8.0622    0.1853    0.0000 C   0  0  0  0  0  0  0  0  0  0  0  0
    7.1962   -0.3147    0.0000 C   0  0  0  0  0  0  0  0  0  0  0  0
    6.3301    1.1853    0.0000 C   0  0  0  0  0  0  0  0  0  0  0  0
    8.0622    1.1853    0.0000 C   0  0  0  0  0  0  0  0  0  0  0  0
    9.8622    0.1645    0.0000 C   0  0  0  0  0  0  0  0  0  0  0  0
    8.9561    1.7200    0.0000 C   0  0  0  0  0  0  0  0  0  0  0  0
    9.8622    1.2061    0.0000 C   0  0  0  0  0  0  0  0  0  0  0  0
    5.4641    1.6853    0.0000 C   0  0  0  0  0  0  0  0  0  0  0  0
    5.4641    2.6853    0.0000 C   0  0  0  0  0  0  0  0  0  0  0  0
    4.5981    1.1853    0.0000 C   0  0  0  0  0  0  0  0  0  0  0  0
    3.7320    1.6853    0.0000 C   0  0  0  0  0  0  0  0  0  0  0  0
    4.5981    3.1853    0.0000 C   0  0  0  0  0  0  0  0  0  0  0  0
    3.7320    2.6853    0.0000 C   0  0  0  0  0  0  0  0  0  0  0  0
    2.0000    1.6853    0.0000 C   0  0  0  0  0  0  0  0  0  0  0  0
    5.4641    4.6853    0.0000 C   0  0  0  0  0  0  0  0  0  0  0  0
    4.5981   -3.4347    0.0000 H   0  0  0  0  0  0  0  0  0  0  0  0
    6.0010   -3.6247    0.0000 H   0  0  0  0  0  0  0  0  0  0  0  0
   11.1867   -3.6854    0.0000 H   0  0  0  0  0  0  0  0  0  0  0  0
   12.0656   -2.5755    0.0000 H   0  0  0  0  0  0  0  0  0  0  0  0
    4.5981   -1.1947    0.0000 H   0  0  0  0  0  0  0  0  0  0  0  0
    6.8671   -2.5047    0.0000 H   0  0  0  0  0  0  0  0  0  0  0  0
    9.2599   -2.5430    0.0000 H   0  0  0  0  0  0  0  0  0  0  0  0
   11.5438   -1.2593    0.0000 H   0  0  0  0  0  0  0  0  0  0  0  0
    4.9272   -1.0047    0.0000 H   0  0  0  0  0  0  0  0  0  0  0  0
    9.8119   -1.2393    0.0000 H   0  0  0  0  0  0  0  0  0  0  0  0
    7.8067   -3.4224    0.0000 H   0  0  0  0  0  0  0  0  0  0  0  0
    7.4082   -2.7321    0.0000 H   0  0  0  0  0  0  0  0  0  0  0  0
   12.8124   -0.9190    0.0000 H   0  0  0  0  0  0  0  0  0  0  0  0
   12.0154   -0.9098    0.0000 H   0  0  0  0  0  0  0  0  0  0  0  0
    3.7320   -3.9347    0.0000 H   0  0  0  0  0  0  0  0  0  0  0  0
    4.9272   -4.6247    0.0000 H   0  0  0  0  0  0  0  0  0  0  0  0
   11.1751   -4.6853    0.0000 H   0  0  0  0  0  0  0  0  0  0  0  0
   12.3781   -4.0092    0.0000 H   0  0  0  0  0  0  0  0  0  0  0  0
    3.1951   -1.6247    0.0000 H   0  0  0  0  0  0  0  0  0  0  0  0
    8.9143   -3.9691    0.0000 H   0  0  0  0  0  0  0  0  0  0  0  0
    7.1962   -0.9347    0.0000 H   0  0  0  0  0  0  0  0  0  0  0  0
    7.7331   -4.6247    0.0000 H   0  0  0  0  0  0  0  0  0  0  0  0
   13.8091   -1.5956    0.0000 H   0  0  0  0  0  0  0  0  0  0  0  0
   10.3979   -0.1476    0.0000 H   0  0  0  0  0  0  0  0  0  0  0  0
    8.9490    2.3399    0.0000 H   0  0  0  0  0  0  0  0  0  0  0  0
    6.0010    2.9953    0.0000 H   0  0  0  0  0  0  0  0  0  0  0  0
    4.5981    0.5653    0.0000 H   0  0  0  0  0  0  0  0  0  0  0  0
   10.7239    2.3294    0.0000 H   0  0  0  0  0  0  0  0  0  0  0  0
    2.8660    3.8053    0.0000 H   0  0  0  0  0  0  0  0  0  0  0  0
    2.3100    2.2222    0.0000 H   0  0  0  0  0  0  0  0  0  0  0  0
    1.4631    1.9953    0.0000 H   0  0  0  0  0  0  0  0  0  0  0  0
    1.6900    1.1484    0.0000 H   0  0  0  0  0  0  0  0  0  0  0  0
    5.7741    4.1484    0.0000 H   0  0  0  0  0  0  0  0  0  0  0  0
    6.0010    4.9953    0.0000 H   0  0  0  0  0  0  0  0  0  0  0  0
    5.1541    5.2222    0.0000 H   0  0  0  0  0  0  0  0  0  0  0  0
  1 23  1  0  0  0  0
  1 26  1  0  0  0  0
  2 25  1  0  0  0  0
  2 27  1  0  0  0  0
 26  3  1  6  0  0  0
  3 30  1  0  0  0  0
 27  4  1  6  0  0  0
  4 31  1  0  0  0  0
 18  5  1  6  0  0  0
  5 61  1  0  0  0  0
 19  6  1  1  0  0  0
  6 62  1  0  0  0  0
 20  7  1  6  0  0  0
  7 63  1  0  0  0  0
 21  8  1  1  0  0  0
  8 64  1  0  0  0  0
 22  9  1  1  0  0  0
  9 65  1  0  0  0  0
 24 10  1  1  0  0  0
 10 66  1  0  0  0  0
 11 28  1  0  0  0  0
 11 68  1  0  0  0  0
 12 29  1  0  0  0  0
 12 69  1  0  0  0  0
 13 34  1  0  0  0  0
 13 35  2  0  0  0  0
 14 38  1  0  0  0  0
 14 74  1  0  0  0  0
 15 42  1  0  0  0  0
 15 45  1  0  0  0  0
 16 43  1  0  0  0  0
 16 46  1  0  0  0  0
 17 44  1  0  0  0  0
 17 75  1  0  0  0  0
 18 19  1  0  0  0  0
 18 22  1  0  0  0  0
 18 47  1  0  0  0  0
 19 23  1  0  0  0  0
 19 48  1  0  0  0  0
 20 21  1  0  0  0  0
 20 24  1  0  0  0  0
 20 49  1  0  0  0  0
 21 25  1  0  0  0  0
 21 50  1  0  0  0  0
 22 26  1  0  0  0  0
 22 51  1  0  0  0  0
 23 28  1  6  0  0  0
 23 52  1  0  0  0  0
 24 27  1  0  0  0  0
 24 53  1  0  0  0  0
 25 29  1  6  0  0  0
 25 54  1  0  0  0  0
 26 55  1  0  0  0  0
 27 56  1  0  0  0  0
 28 57  1  0  0  0  0
 28 58  1  0  0  0  0
 29 59  1  0  0  0  0
 29 60  1  0  0  0  0
 30 33  1  0  0  0  0
 30 34  2  0  0  0  0
 31 32  1  0  0  0  0
 31 36  2  0  0  0  0
 32 33  2  0  0  0  0
 32 35  1  0  0  0  0
 33 67  1  0  0  0  0
 34 39  1  0  0  0  0
 35 37  1  0  0  0  0
 36 38  1  0  0  0  0
 36 70  1  0  0  0  0
 37 38  2  0  0  0  0
 37 71  1  0  0  0  0
 39 40  2  0  0  0  0
 39 41  1  0  0  0  0
 40 43  1  0  0  0  0
 40 72  1  0  0  0  0
 41 42  2  0  0  0  0
 41 73  1  0  0  0  0
 42 44  1  0  0  0  0
 43 44  2  0  0  0  0
 45 76  1  0  0  0  0
 45 77  1  0  0  0  0
 45 78  1  0  0  0  0
 46 79  1  0  0  0  0
 46 80  1  0  0  0  0
 46 81  1  0  0  0  0
M  CHG  1  13   1
M  END
> <PUBCHEM_COMPOUND_CID>
441765

> <PUBCHEM_COMPOUND_CANONICALIZED>
1

> <PUBCHEM_CACTVS_COMPLEXITY>
949

> <PUBCHEM_CACTVS_HBOND_ACCEPTOR>
16

> <PUBCHEM_CACTVS_HBOND_DONOR>
10

> <PUBCHEM_CACTVS_ROTATABLE_BOND>
9

> <PUBCHEM_CACTVS_SUBSKEYS>
AAADcfB4PgAAAAAAAAAAAAAAAAAAAAAAAAA0aJECAAAAAACR9AAAGgAACAAADBSwmAMyDsAABkCIAqBSAAICCAAkIAAAiAFGiMgdNzaGNR6ieWOl4BUPuYfK7PzOIAABCAAIQABAAAIQABCAAAAAAAAAAA==

> <PUBCHEM_IUPAC_OPENEYE_NAME>
(2S,3R,4S,5S,6R)-2-[7-hydroxy-2-(4-hydroxy-3,5-dimethoxy-phenyl)-3-[(2S,3R,4S,5S,6R)-3,4,5-trihydroxy-6-(hydroxymethyl)tetrahydropyran-2-yl]oxy-chromenylium-5-yl]oxy-6-(hydroxymethyl)tetrahydropyran-3,4,5-triol

> <PUBCHEM_IUPAC_CAS_NAME>
(2S,3R,4S,5S,6R)-2-[[7-hydroxy-2-(4-hydroxy-3,5-dimethoxyphenyl)-3-[[(2S,3R,4S,5S,6R)-3,4,5-trihydroxy-6-(hydroxymethyl)-2-oxanyl]oxy]-1-benzopyrylium-5-yl]oxy]-6-(hydroxymethyl)oxane-3,4,5-triol

> <PUBCHEM_IUPAC_NAME>
(2S,3R,4S,5S,6R)-2-[7-hydroxy-2-(4-hydroxy-3,5-dimethoxyphenyl)-3-[(2S,3R,4S,5S,6R)-3,4,5-trihydroxy-6-(hydroxymethyl)oxan-2-yl]oxychromenylium-5-yl]oxy-6-(hydroxymethyl)oxane-3,4,5-triol

> <PUBCHEM_IUPAC_SYSTEMATIC_NAME>
(2S,3R,4S,5S,6R)-2-[2-(3,5-dimethoxy-4-oxidanyl-phenyl)-3-[(2S,3R,4S,5S,6R)-6-(hydroxymethyl)-3,4,5-tris(oxidanyl)oxan-2-yl]oxy-7-oxidanyl-chromenylium-5-yl]oxy-6-(hydroxymethyl)oxane-3,4,5-triol

> <PUBCHEM_IUPAC_TRADITIONAL_NAME>
(2S,3R,4S,5S,6R)-2-[[7-hydroxy-2-(4-hydroxy-3,5-dimethoxy-phenyl)-3-[(2S,3R,4S,5S,6R)-3,4,5-trihydroxy-6-methylol-tetrahydropyran-2-yl]oxy-1-benzopyrylium-5-yl]oxy]-6-methylol-tetrahydropyran-3,4,5-triol

> <PUBCHEM_IUPAC_INCHI>
InChI=1S/C29H34O17/c1-40-15-3-10(4-16(41-2)20(15)33)27-17(44-29-26(39)24(37)22(35)19(9-31)46-29)7-12-13(42-27)5-11(32)6-14(12)43-28-25(38)23(36)21(34)18(8-30)45-28/h3-7,18-19,21-26,28-31,34-39H,8-9H2,1-2H3,(H-,32,33)/p+1/t18-,19-,21-,22-,23+,24+,25-,26-,28-,29-/m1/s1

> <PUBCHEM_IUPAC_INCHIKEY>
CILLXFBAACIQNS-BTXJZROQSA-O

> <PUBCHEM_EXACT_MASS>
655.187425

> <PUBCHEM_MOLECULAR_FORMULA>
C29H35O17+

> <PUBCHEM_MOLECULAR_WEIGHT>
655.578

> <PUBCHEM_OPENEYE_CAN_SMILES>
COC1=CC(=CC(=C1O)OC)C2=C(C=C3C(=CC(=CC3=[O+]2)O)OC4C(C(C(C(O4)CO)O)O)O)OC5C(C(C(C(O5)CO)O)O)O

> <PUBCHEM_OPENEYE_ISO_SMILES>
COC1=CC(=CC(=C1O)OC)C2=C(C=C3C(=CC(=CC3=[O+]2)O)O[C@H]4[C@@H]([C@H]([C@@H]([C@H](O4)CO)O)O)O)O[C@H]5[C@@H]([C@H]([C@@H]([C@H](O5)CO)O)O)O

> <PUBCHEM_CACTVS_TPSA>
259

> <PUBCHEM_MONOISOTOPIC_WEIGHT>
655.187425

> <PUBCHEM_TOTAL_CHARGE>
1

> <PUBCHEM_HEAVY_ATOM_COUNT>
46

> <PUBCHEM_ATOM_DEF_STEREO_COUNT>
10

> <PUBCHEM_ATOM_UDEF_STEREO_COUNT>
0

> <PUBCHEM_BOND_DEF_STEREO_COUNT>
0

> <PUBCHEM_BOND_UDEF_STEREO_COUNT>
0

> <PUBCHEM_ISOTOPIC_ATOM_COUNT>
0

> <PUBCHEM_COMPONENT_COUNT>
1

> <PUBCHEM_CACTVS_TAUTO_COUNT>
21

> <PUBCHEM_COORDINATE_TYPE>
1
5
255

> <PUBCHEM_BONDANNOTATIONS>
24  10  5
13  34  8
13  35  8
23  28  6
25  29  6
26  3  6
30  33  8
30  34  8
31  32  8
31  36  8
32  33  8
32  35  8
35  37  8
36  38  8
37  38  8
39  40  8
39  41  8
27  4  6
40  43  8
41  42  8
42  44  8
43  44  8
18  5  6
19  6  5
20  7  6
21  8  5
22  9  5

$$$$

