151426
  -OEChem-07051212512D

 20 20  0     0  0  0  0  0  0999 V2000
    3.7320    1.5950    0.0000 P   0  0  0  0  0  0  0  0  0  0  0  0
    3.7320    0.5950    0.0000 O   0  0  0  0  0  0  0  0  0  0  0  0
    3.7320    2.5950    0.0000 O   0  0  0  0  0  0  0  0  0  0  0  0
    4.7320    1.5950    0.0000 O   0  0  0  0  0  0  0  0  0  0  0  0
    2.0000    0.5950    0.0000 O   0  0  0  0  0  0  0  0  0  0  0  0
    2.7320    1.5950    0.0000 O   0  0  0  0  0  0  0  0  0  0  0  0
    2.8660   -0.9050    0.0000 C   0  0  0  0  0  0  0  0  0  0  0  0
    2.0000   -1.4050    0.0000 C   0  0  0  0  0  0  0  0  0  0  0  0
    3.7320   -1.4050    0.0000 C   0  0  0  0  0  0  0  0  0  0  0  0
    2.8660    0.0950    0.0000 C   0  0  0  0  0  0  0  0  0  0  0  0
    2.0000   -2.4050    0.0000 C   0  0  0  0  0  0  0  0  0  0  0  0
    3.7320   -2.4050    0.0000 C   0  0  0  0  0  0  0  0  0  0  0  0
    2.8660   -2.9050    0.0000 C   0  0  0  0  0  0  0  0  0  0  0  0
    1.4631   -1.0950    0.0000 H   0  0  0  0  0  0  0  0  0  0  0  0
    4.2690   -1.0950    0.0000 H   0  0  0  0  0  0  0  0  0  0  0  0
    1.4631   -2.7150    0.0000 H   0  0  0  0  0  0  0  0  0  0  0  0
    4.2690   -2.7150    0.0000 H   0  0  0  0  0  0  0  0  0  0  0  0
    2.8660   -3.5250    0.0000 H   0  0  0  0  0  0  0  0  0  0  0  0
    4.2690    2.9050    0.0000 H   0  0  0  0  0  0  0  0  0  0  0  0
    5.0420    1.0581    0.0000 H   0  0  0  0  0  0  0  0  0  0  0  0
  1  2  1  0  0  0  0
  1  3  1  0  0  0  0
  1  4  1  0  0  0  0
  1  6  2  0  0  0  0
  2 10  1  0  0  0  0
  3 19  1  0  0  0  0
  4 20  1  0  0  0  0
  5 10  2  0  0  0  0
  7  8  2  0  0  0  0
  7  9  1  0  0  0  0
  7 10  1  0  0  0  0
  8 11  1  0  0  0  0
  8 14  1  0  0  0  0
  9 12  2  0  0  0  0
  9 15  1  0  0  0  0
 11 13  2  0  0  0  0
 11 16  1  0  0  0  0
 12 13  1  0  0  0  0
 12 17  1  0  0  0  0
 13 18  1  0  0  0  0
M  END
> <PUBCHEM_COMPOUND_CID>
151426

> <PUBCHEM_COMPOUND_CANONICALIZED>
1

> <PUBCHEM_CACTVS_COMPLEXITY>
227

> <PUBCHEM_CACTVS_HBOND_ACCEPTOR>
5

> <PUBCHEM_CACTVS_HBOND_DONOR>
2

> <PUBCHEM_CACTVS_ROTATABLE_BOND>
3

> <PUBCHEM_CACTVS_SUBSKEYS>
AAADcYBgOAIAAAAAAAAAAAAAAAAAAAAAAAAwAAAAAAAAAAABAAAAGgAACCAADACAmAAwCIAAARCIQiDSCIACAAAkAAAIiAEACMgIJjKAFRCAMQAkwAEIiYeIyCCOAAAAAAAAAAAAAAAAAAAAAAAAAAAAAA==

> <PUBCHEM_IUPAC_OPENEYE_NAME>
phosphono benzoate

> <PUBCHEM_IUPAC_CAS_NAME>
benzoic acid phosphono ester

> <PUBCHEM_IUPAC_NAME>
phosphono benzoate

> <PUBCHEM_IUPAC_SYSTEMATIC_NAME>
phosphono benzoate

> <PUBCHEM_IUPAC_TRADITIONAL_NAME>
benzoic acid phosphono ester

> <PUBCHEM_IUPAC_INCHI>
InChI=1S/C7H7O5P/c8-7(12-13(9,10)11)6-4-2-1-3-5-6/h1-5H,(H2,9,10,11)

> <PUBCHEM_IUPAC_INCHIKEY>
SYLLWWIXOMLOPY-UHFFFAOYSA-N

> <PUBCHEM_XLOGP3_AA>
0.1

> <PUBCHEM_EXACT_MASS>
202.00311

> <PUBCHEM_MOLECULAR_FORMULA>
C7H7O5P

> <PUBCHEM_MOLECULAR_WEIGHT>
202.101242

> <PUBCHEM_OPENEYE_CAN_SMILES>
C1=CC=C(C=C1)C(=O)OP(=O)(O)O

> <PUBCHEM_OPENEYE_ISO_SMILES>
C1=CC=C(C=C1)C(=O)OP(=O)(O)O

> <PUBCHEM_CACTVS_TPSA>
83.8

> <PUBCHEM_MONOISOTOPIC_WEIGHT>
202.00311

> <PUBCHEM_TOTAL_CHARGE>
0

> <PUBCHEM_HEAVY_ATOM_COUNT>
13

> <PUBCHEM_ATOM_DEF_STEREO_COUNT>
0

> <PUBCHEM_ATOM_UDEF_STEREO_COUNT>
0

> <PUBCHEM_BOND_DEF_STEREO_COUNT>
0

> <PUBCHEM_BOND_UDEF_STEREO_COUNT>
0

> <PUBCHEM_ISOTOPIC_ATOM_COUNT>
0

> <PUBCHEM_COMPONENT_COUNT>
1

> <PUBCHEM_CACTVS_TAUTO_COUNT>
1

> <PUBCHEM_COORDINATE_TYPE>
1
5
255

> <PUBCHEM_BONDANNOTATIONS>
11  13  8
12  13  8
7  8  8
7  9  8
8  11  8
9  12  8

$$$$

