265756
  -OEChem-07051213003D

 77 81  0     1  0  0  0  0  0999 V2000
    6.0471    1.1311    0.8088 N   0  0  0  0  0  0  0  0  0  0  0  0
   -5.9589    0.3220    0.8046 N   0  0  0  0  0  0  0  0  0  0  0  0
    0.5894    0.0418   -1.0936 C   0  0  1  0  0  0  0  0  0  0  0  0
    2.0389    0.2796   -0.6038 C   0  0  2  0  0  0  0  0  0  0  0  0
    1.7696   -0.0331   -2.0512 C   0  0  0  0  0  0  0  0  0  0  0  0
   -0.1171   -1.2781   -0.6726 C   0  0  2  0  0  0  0  0  0  0  0  0
    2.7154   -0.7973    0.2619 C   0  0  1  0  0  0  0  0  0  0  0  0
   -1.3504   -0.9429    0.2293 C   0  0  1  0  0  0  0  0  0  0  0  0
   -0.3623    1.1807   -1.5383 C   0  0  0  0  0  0  0  0  0  0  0  0
   -2.3522   -0.0228   -0.5505 C   0  0  2  0  0  0  0  0  0  0  0  0
    2.4320    1.6901   -0.2128 C   0  0  0  0  0  0  0  0  0  0  0  0
    0.7599   -2.3717   -0.0228 C   0  0  0  0  0  0  0  0  0  0  0  0
    2.2647   -2.2118   -0.1392 C   0  0  0  0  0  0  0  0  0  0  0  0
    4.2855   -0.6255    0.3050 C   0  0  0  0  0  0  0  0  0  0  0  0
   -1.6748    1.3326   -0.7594 C   0  0  0  0  0  0  0  0  0  0  0  0
   -3.5769   -0.0199    0.4012 C   0  0  2  0  0  0  0  0  0  0  0  0
   -2.2685   -2.1220    0.6004 C   0  0  0  0  0  0  0  0  0  0  0  0
    3.9421    1.8780   -0.1745 C   0  0  0  0  0  0  0  0  0  0  0  0
    4.6093    0.8461    0.7381 C   0  0  2  0  0  0  0  0  0  0  0  0
   -3.6371   -1.4795    0.9134 C   0  0  0  0  0  0  0  0  0  0  0  0
   -0.8431   -0.3117    1.5756 C   0  0  0  0  0  0  0  0  0  0  0  0
   -2.7952   -0.5767   -1.9401 C   0  0  0  0  0  0  0  0  0  0  0  0
    4.8869   -1.5846    1.3652 C   0  0  0  0  0  0  0  0  0  0  0  0
    4.9343   -0.9792   -1.0540 C   0  0  0  0  0  0  0  0  0  0  0  0
   -4.9076    0.4530   -0.1743 C   0  0  2  0  0  0  0  0  0  0  0  0
   -4.8177    1.8937   -0.6596 C   0  0  0  0  0  0  0  0  0  0  0  0
    6.2783    2.4581    1.3536 C   0  0  0  0  0  0  0  0  0  0  0  0
   -7.2480    0.7745    0.2632 C   0  0  0  0  0  0  0  0  0  0  0  0
   -5.6439    1.0753    2.0263 C   0  0  0  0  0  0  0  0  0  0  0  0
    2.0138   -0.9918   -2.4876 H   0  0  0  0  0  0  0  0  0  0  0  0
    1.9197    0.7689   -2.7695 H   0  0  0  0  0  0  0  0  0  0  0  0
   -0.4685   -1.7340   -1.6053 H   0  0  0  0  0  0  0  0  0  0  0  0
    2.3502   -0.6290    1.2865 H   0  0  0  0  0  0  0  0  0  0  0  0
   -0.6067    1.0075   -2.5949 H   0  0  0  0  0  0  0  0  0  0  0  0
    0.1380    2.1522   -1.5263 H   0  0  0  0  0  0  0  0  0  0  0  0
    2.0032    1.9165    0.7712 H   0  0  0  0  0  0  0  0  0  0  0  0
    2.0383    2.4350   -0.9097 H   0  0  0  0  0  0  0  0  0  0  0  0
    0.4796   -3.3402   -0.4600 H   0  0  0  0  0  0  0  0  0  0  0  0
    0.5325   -2.4952    1.0394 H   0  0  0  0  0  0  0  0  0  0  0  0
    2.7219   -2.9612    0.5154 H   0  0  0  0  0  0  0  0  0  0  0  0
    2.5783   -2.4763   -1.1528 H   0  0  0  0  0  0  0  0  0  0  0  0
   -1.4775    1.8292    0.1970 H   0  0  0  0  0  0  0  0  0  0  0  0
   -2.2947    2.0308   -1.3237 H   0  0  0  0  0  0  0  0  0  0  0  0
   -3.3082    0.6385    1.2333 H   0  0  0  0  0  0  0  0  0  0  0  0
   -1.9030   -2.7023    1.4545 H   0  0  0  0  0  0  0  0  0  0  0  0
   -2.3690   -2.8217   -0.2376 H   0  0  0  0  0  0  0  0  0  0  0  0
    4.3482    1.8198   -1.1918 H   0  0  0  0  0  0  0  0  0  0  0  0
    4.1059    2.9041    0.1702 H   0  0  0  0  0  0  0  0  0  0  0  0
    4.1947    0.9713    1.7496 H   0  0  0  0  0  0  0  0  0  0  0  0
   -4.4294   -2.0631    0.4307 H   0  0  0  0  0  0  0  0  0  0  0  0
   -3.8283   -1.4992    1.9921 H   0  0  0  0  0  0  0  0  0  0  0  0
   -0.1783    0.5413    1.4151 H   0  0  0  0  0  0  0  0  0  0  0  0
   -1.6510    0.0296    2.2275 H   0  0  0  0  0  0  0  0  0  0  0  0
   -0.2839   -1.0331    2.1787 H   0  0  0  0  0  0  0  0  0  0  0  0
   -3.4401    0.1285   -2.4724 H   0  0  0  0  0  0  0  0  0  0  0  0
   -1.9589   -0.7628   -2.6177 H   0  0  0  0  0  0  0  0  0  0  0  0
   -3.3447   -1.5198   -1.8578 H   0  0  0  0  0  0  0  0  0  0  0  0
    5.9639   -1.4262    1.4899 H   0  0  0  0  0  0  0  0  0  0  0  0
    4.7632   -2.6353    1.0853 H   0  0  0  0  0  0  0  0  0  0  0  0
    4.4143   -1.4376    2.3426 H   0  0  0  0  0  0  0  0  0  0  0  0
    4.7421   -2.0204   -1.3329 H   0  0  0  0  0  0  0  0  0  0  0  0
    6.0239   -0.8726   -1.0207 H   0  0  0  0  0  0  0  0  0  0  0  0
    4.5677   -0.3475   -1.8672 H   0  0  0  0  0  0  0  0  0  0  0  0
   -5.1813   -0.1821   -1.0253 H   0  0  0  0  0  0  0  0  0  0  0  0
    6.4700    1.0699   -0.1161 H   0  0  0  0  0  0  0  0  0  0  0  0
   -5.7759    2.3643   -0.8916 H   0  0  0  0  0  0  0  0  0  0  0  0
   -4.2891    2.5499    0.0401 H   0  0  0  0  0  0  0  0  0  0  0  0
   -4.2955    1.9412   -1.6181 H   0  0  0  0  0  0  0  0  0  0  0  0
    5.6835    2.6557    2.2517 H   0  0  0  0  0  0  0  0  0  0  0  0
    6.1175    3.2527    0.6190 H   0  0  0  0  0  0  0  0  0  0  0  0
    7.3297    2.5293    1.6528 H   0  0  0  0  0  0  0  0  0  0  0  0
   -7.4294    0.3745   -0.7410 H   0  0  0  0  0  0  0  0  0  0  0  0
   -7.3751    1.8621    0.2499 H   0  0  0  0  0  0  0  0  0  0  0  0
   -8.0516    0.3774    0.8953 H   0  0  0  0  0  0  0  0  0  0  0  0
   -6.5028    1.0240    2.7086 H   0  0  0  0  0  0  0  0  0  0  0  0
   -5.4432    2.1385    1.8621 H   0  0  0  0  0  0  0  0  0  0  0  0
   -4.8248    0.6337    2.6005 H   0  0  0  0  0  0  0  0  0  0  0  0
  1 19  1  0  0  0  0
  1 27  1  0  0  0  0
  1 65  1  0  0  0  0
  2 25  1  0  0  0  0
  2 28  1  0  0  0  0
  2 29  1  0  0  0  0
  3  4  1  0  0  0  0
  3  5  1  0  0  0  0
  3  6  1  0  0  0  0
  3  9  1  0  0  0  0
  4  5  1  0  0  0  0
  4  7  1  0  0  0  0
  4 11  1  0  0  0  0
  5 30  1  0  0  0  0
  5 31  1  0  0  0  0
  6  8  1  0  0  0  0
  6 12  1  0  0  0  0
  6 32  1  0  0  0  0
  7 13  1  0  0  0  0
  7 14  1  0  0  0  0
  7 33  1  0  0  0  0
  8 10  1  0  0  0  0
  8 17  1  0  0  0  0
  8 21  1  0  0  0  0
  9 15  1  0  0  0  0
  9 34  1  0  0  0  0
  9 35  1  0  0  0  0
 10 15  1  0  0  0  0
 10 16  1  0  0  0  0
 10 22  1  0  0  0  0
 11 18  1  0  0  0  0
 11 36  1  0  0  0  0
 11 37  1  0  0  0  0
 12 13  1  0  0  0  0
 12 38  1  0  0  0  0
 12 39  1  0  0  0  0
 13 40  1  0  0  0  0
 13 41  1  0  0  0  0
 14 19  1  0  0  0  0
 14 23  1  0  0  0  0
 14 24  1  0  0  0  0
 15 42  1  0  0  0  0
 15 43  1  0  0  0  0
 16 20  1  0  0  0  0
 16 25  1  0  0  0  0
 16 44  1  0  0  0  0
 17 20  1  0  0  0  0
 17 45  1  0  0  0  0
 17 46  1  0  0  0  0
 18 19  1  0  0  0  0
 18 47  1  0  0  0  0
 18 48  1  0  0  0  0
 19 49  1  0  0  0  0
 20 50  1  0  0  0  0
 20 51  1  0  0  0  0
 21 52  1  0  0  0  0
 21 53  1  0  0  0  0
 21 54  1  0  0  0  0
 22 55  1  0  0  0  0
 22 56  1  0  0  0  0
 22 57  1  0  0  0  0
 23 58  1  0  0  0  0
 23 59  1  0  0  0  0
 23 60  1  0  0  0  0
 24 61  1  0  0  0  0
 24 62  1  0  0  0  0
 24 63  1  0  0  0  0
 25 26  1  0  0  0  0
 25 64  1  0  0  0  0
 26 66  1  0  0  0  0
 26 67  1  0  0  0  0
 26 68  1  0  0  0  0
 27 69  1  0  0  0  0
 27 70  1  0  0  0  0
 27 71  1  0  0  0  0
 28 72  1  0  0  0  0
 28 73  1  0  0  0  0
 28 74  1  0  0  0  0
 29 75  1  0  0  0  0
 29 76  1  0  0  0  0
 29 77  1  0  0  0  0
M  END
> <PUBCHEM_COMPOUND_CID>
265756

> <PUBCHEM_CONFORMER_RMSD>
0.8

> <PUBCHEM_CONFORMER_DIVERSEORDER>
1
2

> <PUBCHEM_MMFF94_PARTIAL_CHARGES>
17
1 -0.9
11 0.09
19 0.27
2 -0.81
25 0.27
27 0.27
28 0.27
29 0.27
3 -0.19
30 0.1
31 0.1
4 -0.19
5 -0.2
6 0.09
65 0.36
7 0.09
9 0.09

> <PUBCHEM_EFFECTIVE_ROTOR_COUNT>
5.4

> <PUBCHEM_PHARMACOPHORE_FEATURES>
8
1 1 cation
1 1 donor
1 2 cation
3 14 23 24 hydrophobe
5 8 10 16 17 20 rings
6 3 6 8 9 10 15 rings
6 4 7 11 14 18 19 rings
7 3 4 5 6 7 12 13 rings

> <PUBCHEM_HEAVY_ATOM_COUNT>
29

> <PUBCHEM_ATOM_DEF_STEREO_COUNT>
9

> <PUBCHEM_ATOM_UDEF_STEREO_COUNT>
0

> <PUBCHEM_BOND_DEF_STEREO_COUNT>
0

> <PUBCHEM_BOND_UDEF_STEREO_COUNT>
0

> <PUBCHEM_ISOTOPIC_ATOM_COUNT>
0

> <PUBCHEM_COMPONENT_COUNT>
1

> <PUBCHEM_CACTVS_TAUTO_COUNT>
1

> <PUBCHEM_CONFORMER_ID>
00040E1C00000001

> <PUBCHEM_MMFF94_ENERGY>
131.761

> <PUBCHEM_FEATURE_SELFOVERLAP>
40.694

> <PUBCHEM_SHAPE_FINGERPRINT>
10 15 17918275329196085896
10319926 262 17489860540855117131
10498660 4 14345791673319818603
10670039 82 4823229307280924914
11646440 116 18272358794426077449
11961588 58 14634874140823281439
12035758 1 17918275337585281193
12236239 1 17675927598882735831
12403259 415 18342179998628656708
12422481 6 17988924500404353063
12596602 18 18040994051434426803
12633257 1 18341056280443978362
12788726 201 17603859044167747801
12969540 114 5472850403856112777
13140716 1 18201717319091855191
13224815 77 17846217718326104550
13533116 47 18200313341891495258
13540713 4 17843695605554337614
13583140 156 18114747010154493354
13782708 43 12895069596319661945
14251764 30 12823304493838924832
14341114 176 18343302587226502928
14341114 328 17967818249195749936
14347332 77 10159711170065988539
14790565 3 17625808376203732788
15142383 8 14979964687559581519
15238133 3 18270104820789195933
15475509 35 16772968037791654114
15840311 113 18116138056559123265
17349148 13 17775281664370684119
17980427 23 18340491053967713909
1813 80 15626223533126496614
19784866 240 11815901171192761557
2026 5 10663284231972675272
20511986 3 18337120016279765343
20567600 247 12103845639845917361
20775438 99 10373580376673075609
21033648 29 18262530186843914864
21130935 74 18413670223123926267
21637258 2 13470690325933866921
21792934 111 17845663654480787197
21859007 373 17345488157379438277
22122407 14 17749664087062891920
22182313 1 17774445026554078119
23522609 53 11670929562639327767
23559900 14 18337652184107566566
2838139 119 17167581596252231721
3004659 81 15913318113761408222
3472631 163 17603304817282100780
34797466 226 17894627067259539295
350125 39 18130782399439869852
3680242 22 18342455971614994168
392239 28 18341613702658529609
4058900 60 14851868306063798573
4093350 32 17530678827883793126
4340502 62 18409440402197306731
463206 1 10807639074242234953
465052 167 11959721686057912137
5104073 3 18342455915585578651
5718773 13 10231497211214621904

> <PUBCHEM_SHAPE_MULTIPOLES>
586.84
14.84
2.28
1.6
5.25
0.13
-0.1
-7.05
6.38
-1.79
0.37
0.23
-0.19
0.7

> <PUBCHEM_SHAPE_SELFOVERLAP>
1239.761

> <PUBCHEM_SHAPE_VOLUME>
328.2

> <PUBCHEM_COORDINATE_TYPE>
2
5
10

$$$$

