5321771
  -OEChem-07051213072D

 76 78  0     1  0  0  0  0  0999 V2000
    6.9350   -0.3221    0.0000 O   0  0  0  0  0  0  0  0  0  0  0  0
    8.2575    1.8231    0.0000 O   0  0  0  0  0  0  0  0  0  0  0  0
    3.6730    2.9399    0.0000 O   0  0  0  0  0  0  0  0  0  0  0  0
    4.7688   -2.6596    0.0000 O   0  0  0  0  0  0  0  0  0  0  0  0
    8.1598    0.9026    0.0000 O   0  0  0  0  0  0  0  0  0  0  0  0
    8.6515    3.5097    0.0000 O   0  0  0  0  0  0  0  0  0  0  0  0
    2.4483    1.7151    0.0000 O   0  0  0  0  0  0  0  0  0  0  0  0
    3.0524   -2.8923    0.0000 O   0  0  0  0  0  0  0  0  0  0  0  0
    4.3801    0.3850    0.0000 C   0  0  2  0  0  0  0  0  0  0  0  0
    5.3040    0.0023    0.0000 C   0  0  2  0  0  0  0  0  0  0  0  0
    6.6106    1.3089    0.0000 C   0  0  2  0  0  0  0  0  0  0  0  0
    6.2279    2.2327    0.0000 C   0  0  0  0  0  0  0  0  0  0  0  0
    6.2279    0.3850    0.0000 C   0  0  1  0  0  0  0  0  0  0  0  0
    3.9975    1.3089    0.0000 C   0  0  0  0  0  0  0  0  0  0  0  0
    5.3040    2.6154    0.0000 C   0  0  0  0  0  0  0  0  0  0  0  0
    7.2837    2.0506    0.0000 C   0  0  2  0  0  0  0  0  0  0  0  0
    3.5441   -0.2363    0.0000 C   0  0  0  0  0  0  0  0  0  0  0  0
    4.3801    2.2327    0.0000 C   0  0  1  0  0  0  0  0  0  0  0  0
    5.4559   -1.0282    0.0000 C   0  0  0  0  0  0  0  0  0  0  0  0
    3.6721   -1.2700    0.0000 C   0  0  0  0  0  0  0  0  0  0  0  0
    7.0089    3.0137    0.0000 C   0  0  0  0  0  0  0  0  0  0  0  0
    3.4563    0.7677    0.0000 C   0  0  0  0  0  0  0  0  0  0  0  0
    4.6344   -1.6686    0.0000 C   0  0  2  0  0  0  0  0  0  0  0  0
    6.0457    3.2886    0.0000 C   0  0  0  0  0  0  0  0  0  0  0  0
    6.5255    3.3436    0.0000 C   0  0  0  0  0  0  0  0  0  0  0  0
    7.3387    2.5304    0.0000 C   0  0  0  0  0  0  0  0  0  0  0  0
    5.8182    4.2623    0.0000 C   0  0  0  0  0  0  0  0  0  0  0  0
    6.3841   -1.4002    0.0000 C   0  0  0  0  0  0  0  0  0  0  0  0
    7.9009   -0.0633    0.0000 C   0  0  0  0  0  0  0  0  0  0  0  0
    8.9414    2.5526    0.0000 C   0  0  0  0  0  0  0  0  0  0  0  0
    2.7071    2.6810    0.0000 C   0  0  0  0  0  0  0  0  0  0  0  0
    3.9778   -3.2714    0.0000 C   0  0  0  0  0  0  0  0  0  0  0  0
    8.6080   -0.7704    0.0000 C   0  0  0  0  0  0  0  0  0  0  0  0
    9.9152    2.3251    0.0000 C   0  0  0  0  0  0  0  0  0  0  0  0
    2.0000    3.3882    0.0000 C   0  0  0  0  0  0  0  0  0  0  0  0
    4.1121   -4.2623    0.0000 C   0  0  0  0  0  0  0  0  0  0  0  0
    6.0893   -0.3230    0.0000 H   0  0  0  0  0  0  0  0  0  0  0  0
    6.9359    0.5236    0.0000 H   0  0  0  0  0  0  0  0  0  0  0  0
    6.8360    0.5059    0.0000 H   0  0  0  0  0  0  0  0  0  0  0  0
    3.5056    1.6863    0.0000 H   0  0  0  0  0  0  0  0  0  0  0  0
    3.5056    0.9314    0.0000 H   0  0  0  0  0  0  0  0  0  0  0  0
    7.7114    2.4995    0.0000 H   0  0  0  0  0  0  0  0  0  0  0  0
    3.2649    0.3173    0.0000 H   0  0  0  0  0  0  0  0  0  0  0  0
    2.9509   -0.4166    0.0000 H   0  0  0  0  0  0  0  0  0  0  0  0
    4.5011    2.8408    0.0000 H   0  0  0  0  0  0  0  0  0  0  0  0
    3.0528   -1.2398    0.0000 H   0  0  0  0  0  0  0  0  0  0  0  0
    3.5363   -1.8750    0.0000 H   0  0  0  0  0  0  0  0  0  0  0  0
    7.6262    3.0711    0.0000 H   0  0  0  0  0  0  0  0  0  0  0  0
    7.0662    3.6311    0.0000 H   0  0  0  0  0  0  0  0  0  0  0  0
    3.6935    1.3405    0.0000 H   0  0  0  0  0  0  0  0  0  0  0  0
    2.8834    1.0049    0.0000 H   0  0  0  0  0  0  0  0  0  0  0  0
    3.2190    0.1949    0.0000 H   0  0  0  0  0  0  0  0  0  0  0  0
    4.1433   -2.0470    0.0000 H   0  0  0  0  0  0  0  0  0  0  0  0
    7.1244    3.1831    0.0000 H   0  0  0  0  0  0  0  0  0  0  0  0
    6.6860    3.9424    0.0000 H   0  0  0  0  0  0  0  0  0  0  0  0
    5.9267    3.5040    0.0000 H   0  0  0  0  0  0  0  0  0  0  0  0
    7.4992    1.9315    0.0000 H   0  0  0  0  0  0  0  0  0  0  0  0
    7.9376    2.6909    0.0000 H   0  0  0  0  0  0  0  0  0  0  0  0
    7.1782    3.1293    0.0000 H   0  0  0  0  0  0  0  0  0  0  0  0
    6.4220    4.4034    0.0000 H   0  0  0  0  0  0  0  0  0  0  0  0
    5.6772    4.8661    0.0000 H   0  0  0  0  0  0  0  0  0  0  0  0
    5.2145    4.1213    0.0000 H   0  0  0  0  0  0  0  0  0  0  0  0
    6.4722   -2.0139    0.0000 H   0  0  0  0  0  0  0  0  0  0  0  0
    6.8716   -1.0171    0.0000 H   0  0  0  0  0  0  0  0  0  0  0  0
    8.1696   -1.2088    0.0000 H   0  0  0  0  0  0  0  0  0  0  0  0
    9.0464   -1.2088    0.0000 H   0  0  0  0  0  0  0  0  0  0  0  0
    9.0464   -0.3320    0.0000 H   0  0  0  0  0  0  0  0  0  0  0  0
    9.7741    1.7214    0.0000 H   0  0  0  0  0  0  0  0  0  0  0  0
   10.5189    2.1841    0.0000 H   0  0  0  0  0  0  0  0  0  0  0  0
   10.0562    2.9289    0.0000 H   0  0  0  0  0  0  0  0  0  0  0  0
    2.4384    3.8266    0.0000 H   0  0  0  0  0  0  0  0  0  0  0  0
    1.5616    3.8266    0.0000 H   0  0  0  0  0  0  0  0  0  0  0  0
    1.5616    2.9497    0.0000 H   0  0  0  0  0  0  0  0  0  0  0  0
    3.4977   -4.3456    0.0000 H   0  0  0  0  0  0  0  0  0  0  0  0
    4.1954   -4.8767    0.0000 H   0  0  0  0  0  0  0  0  0  0  0  0
    4.7265   -4.1790    0.0000 H   0  0  0  0  0  0  0  0  0  0  0  0
 13  1  1  1  0  0  0
  1 29  1  0  0  0  0
 16  2  1  6  0  0  0
  2 30  1  0  0  0  0
 18  3  1  6  0  0  0
  3 31  1  0  0  0  0
 23  4  1  1  0  0  0
  4 32  1  0  0  0  0
  5 29  2  0  0  0  0
  6 30  2  0  0  0  0
  7 31  2  0  0  0  0
  8 32  2  0  0  0  0
  9 10  1  0  0  0  0
  9 14  1  0  0  0  0
  9 17  1  0  0  0  0
  9 22  1  6  0  0  0
 10 13  1  0  0  0  0
 10 19  1  0  0  0  0
 10 37  1  1  0  0  0
 11 12  1  0  0  0  0
 11 13  1  0  0  0  0
 11 16  1  0  0  0  0
 11 38  1  6  0  0  0
 12 15  1  0  0  0  0
 12 25  1  0  0  0  0
 12 26  1  0  0  0  0
 13 39  1  0  0  0  0
 14 18  1  0  0  0  0
 14 40  1  0  0  0  0
 14 41  1  0  0  0  0
 15 18  1  0  0  0  0
 15 24  2  0  0  0  0
 16 21  1  0  0  0  0
 16 42  1  0  0  0  0
 17 20  1  0  0  0  0
 17 43  1  0  0  0  0
 17 44  1  0  0  0  0
 18 45  1  0  0  0  0
 19 23  1  0  0  0  0
 19 28  2  0  0  0  0
 20 23  1  0  0  0  0
 20 46  1  0  0  0  0
 20 47  1  0  0  0  0
 21 24  1  0  0  0  0
 21 48  1  0  0  0  0
 21 49  1  0  0  0  0
 22 50  1  0  0  0  0
 22 51  1  0  0  0  0
 22 52  1  0  0  0  0
 23 53  1  0  0  0  0
 24 27  1  0  0  0  0
 25 54  1  0  0  0  0
 25 55  1  0  0  0  0
 25 56  1  0  0  0  0
 26 57  1  0  0  0  0
 26 58  1  0  0  0  0
 26 59  1  0  0  0  0
 27 60  1  0  0  0  0
 27 61  1  0  0  0  0
 27 62  1  0  0  0  0
 28 63  1  0  0  0  0
 28 64  1  0  0  0  0
 29 33  1  0  0  0  0
 30 34  1  0  0  0  0
 31 35  1  0  0  0  0
 32 36  1  0  0  0  0
 33 65  1  0  0  0  0
 33 66  1  0  0  0  0
 33 67  1  0  0  0  0
 34 68  1  0  0  0  0
 34 69  1  0  0  0  0
 34 70  1  0  0  0  0
 35 71  1  0  0  0  0
 35 72  1  0  0  0  0
 35 73  1  0  0  0  0
 36 74  1  0  0  0  0
 36 75  1  0  0  0  0
 36 76  1  0  0  0  0
M  END
> <PUBCHEM_COMPOUND_CID>
5321771

> <PUBCHEM_COMPOUND_CANONICALIZED>
1

> <PUBCHEM_CACTVS_COMPLEXITY>
992

> <PUBCHEM_CACTVS_HBOND_ACCEPTOR>
8

> <PUBCHEM_CACTVS_HBOND_DONOR>
0

> <PUBCHEM_CACTVS_ROTATABLE_BOND>
8

> <PUBCHEM_CACTVS_SUBSKEYS>
AAADcfB4PAAAAAAAAAAAAAAAAAAAAAAAAAAwQAAAAAAYAACAAAAAGgAAAAAADxSggAICCAAABACIAgDSCAAAAAAgAAAACAAAAAgABAIAIQACEAAFwAAIIAPA4PwPgAAAAAAAAABAAAIAACAAAAAAAAAAAA==

> <PUBCHEM_IUPAC_INCHI>
InChI=1S/C28H40O8/c1-14-12-21(34-17(4)30)25-26(36-19(6)32)24-15(2)20(33-16(3)29)10-11-28(24,9)13-22(35-18(5)31)23(14)27(25,7)8/h20-22,24-26H,2,10-13H2,1,3-9H3/t20-,21-,22-,24-,25-,26-,28-/m0/s1

> <PUBCHEM_IUPAC_INCHIKEY>
KFFHSFCOKCGBBW-VCPDXWRASA-N

> <PUBCHEM_XLOGP3_AA>
3.1

> <PUBCHEM_EXACT_MASS>
504.272318

> <PUBCHEM_MOLECULAR_FORMULA>
C28H40O8

> <PUBCHEM_MOLECULAR_WEIGHT>
504.6124

> <PUBCHEM_OPENEYE_CAN_SMILES>
CC1=C2C(CC3(CCC(C(=C)C3C(C(C2(C)C)C(C1)OC(=O)C)OC(=O)C)OC(=O)C)C)OC(=O)C

> <PUBCHEM_OPENEYE_ISO_SMILES>
CC1=C2[C@H](C[C@@]3(CC[C@@H](C(=C)[C@H]3[C@@H]([C@@H](C2(C)C)[C@H](C1)OC(=O)C)OC(=O)C)OC(=O)C)C)OC(=O)C

> <PUBCHEM_CACTVS_TPSA>
105

> <PUBCHEM_MONOISOTOPIC_WEIGHT>
504.272318

> <PUBCHEM_TOTAL_CHARGE>
0

> <PUBCHEM_HEAVY_ATOM_COUNT>
36

> <PUBCHEM_ATOM_DEF_STEREO_COUNT>
7

> <PUBCHEM_ATOM_UDEF_STEREO_COUNT>
0

> <PUBCHEM_BOND_DEF_STEREO_COUNT>
0

> <PUBCHEM_BOND_UDEF_STEREO_COUNT>
0

> <PUBCHEM_ISOTOPIC_ATOM_COUNT>
0

> <PUBCHEM_COMPONENT_COUNT>
1

> <PUBCHEM_CACTVS_TAUTO_COUNT>
1

> <PUBCHEM_COORDINATE_TYPE>
1
5
255

> <PUBCHEM_BONDANNOTATIONS>
13  1  5
10  37  5
11  38  6
16  2  6
18  3  6
23  4  5
9  22  6

$$$$

