47528
  -OEChem-07051213033D

 24 24  0     0  0  0  0  0  0999 V2000
    2.8870   -0.2995    0.5015 O   0  0  0  0  0  0  0  0  0  0  0  0
   -0.6607    2.0834   -0.7765 O   0  0  0  0  0  0  0  0  0  0  0  0
    4.3528   -0.0870   -1.1440 O   0  5  0  0  0  0  0  0  0  0  0  0
    4.2412   -2.0355   -0.0656 O   0  0  0  0  0  0  0  0  0  0  0  0
    0.2627    0.7895    0.9117 N   0  0  0  0  0  0  0  0  0  0  0  0
   -4.2741   -0.0128   -0.4904 N   0  0  0  0  0  0  0  0  0  0  0  0
    3.9159   -0.8691   -0.2988 N   0  3  0  0  0  0  0  0  0  0  0  0
    1.4769    1.5580    1.0667 C   0  0  0  0  0  0  0  0  0  0  0  0
    2.5807    1.0459    0.1594 C   0  0  0  0  0  0  0  0  0  0  0  0
   -0.7421    1.1047   -0.0117 C   0  0  0  0  0  0  0  0  0  0  0  0
   -1.9152    0.2484   -0.0299 C   0  0  0  0  0  0  0  0  0  0  0  0
   -1.8392   -1.0802    0.3732 C   0  0  0  0  0  0  0  0  0  0  0  0
   -3.1450    0.7296   -0.4492 C   0  0  0  0  0  0  0  0  0  0  0  0
   -2.9793   -1.8758    0.3449 C   0  0  0  0  0  0  0  0  0  0  0  0
   -4.1616   -1.2996   -0.0912 C   0  0  0  0  0  0  0  0  0  0  0  0
    1.7728    1.4631    2.1167 H   0  0  0  0  0  0  0  0  0  0  0  0
    1.2674    2.6114    0.8546 H   0  0  0  0  0  0  0  0  0  0  0  0
    3.4640    1.6810    0.3003 H   0  0  0  0  0  0  0  0  0  0  0  0
    2.2449    1.1040   -0.8839 H   0  0  0  0  0  0  0  0  0  0  0  0
    0.1383    0.0120    1.5513 H   0  0  0  0  0  0  0  0  0  0  0  0
   -0.9072   -1.5399    0.6881 H   0  0  0  0  0  0  0  0  0  0  0  0
   -3.2755    1.7577   -0.7731 H   0  0  0  0  0  0  0  0  0  0  0  0
   -2.9427   -2.9159    0.6480 H   0  0  0  0  0  0  0  0  0  0  0  0
   -5.0785   -1.8779   -0.1337 H   0  0  0  0  0  0  0  0  0  0  0  0
  1  7  1  0  0  0  0
  1  9  1  0  0  0  0
  2 10  2  0  0  0  0
  3  7  1  0  0  0  0
  4  7  2  0  0  0  0
  5  8  1  0  0  0  0
  5 10  1  0  0  0  0
  5 20  1  0  0  0  0
  6 13  1  0  0  0  0
  6 15  2  0  0  0  0
  8  9  1  0  0  0  0
  8 16  1  0  0  0  0
  8 17  1  0  0  0  0
  9 18  1  0  0  0  0
  9 19  1  0  0  0  0
 10 11  1  0  0  0  0
 11 12  1  0  0  0  0
 11 13  2  0  0  0  0
 12 14  2  0  0  0  0
 12 21  1  0  0  0  0
 13 22  1  0  0  0  0
 14 15  1  0  0  0  0
 14 23  1  0  0  0  0
 15 24  1  0  0  0  0
M  CHG  2   3  -1   7   1
M  END
> <PUBCHEM_COMPOUND_CID>
47528

> <PUBCHEM_CONFORMER_RMSD>
0.8

> <PUBCHEM_CONFORMER_DIVERSEORDER>
2
14
32
31
8
4
23
25
37
27
33
24
11
29
41
18
26
17
1
42
19
21
39
3
28
12
40
15
22
5
9
38
34
10
13
6
16
30
36
20
7
35

> <PUBCHEM_MMFF94_PARTIAL_CHARGES>
20
1 -0.27
10 0.54
11 0.09
12 -0.15
13 0.16
14 -0.15
15 0.16
2 -0.57
20 0.37
21 0.15
22 0.15
23 0.15
24 0.15
3 -0.52
4 -0.52
5 -0.73
6 -0.62
7 1.03
8 0.3
9 0.28

> <PUBCHEM_EFFECTIVE_ROTOR_COUNT>
6

> <PUBCHEM_PHARMACOPHORE_FEATURES>
6
1 2 acceptor
1 3 acceptor
1 4 acceptor
1 5 donor
1 6 acceptor
6 6 11 12 13 14 15 rings

> <PUBCHEM_HEAVY_ATOM_COUNT>
15

> <PUBCHEM_ATOM_DEF_STEREO_COUNT>
0

> <PUBCHEM_ATOM_UDEF_STEREO_COUNT>
0

> <PUBCHEM_BOND_DEF_STEREO_COUNT>
0

> <PUBCHEM_BOND_UDEF_STEREO_COUNT>
0

> <PUBCHEM_ISOTOPIC_ATOM_COUNT>
0

> <PUBCHEM_COMPONENT_COUNT>
1

> <PUBCHEM_CACTVS_TAUTO_COUNT>
2

> <PUBCHEM_CONFORMER_ID>
0000B9A800000002

> <PUBCHEM_MMFF94_ENERGY>
34.7623

> <PUBCHEM_FEATURE_SELFOVERLAP>
30.516

> <PUBCHEM_SHAPE_FINGERPRINT>
10465860 71 17775005652608321413
11458722 379 18343302595378938675
11543360 7 17846771880539028804
12006461 19 18335702698066659649
12032990 46 18411702041611950385
12186901 62 17845944025724658669
13296908 3 18339084782991105161
14251710 61 18337951199356270891
14252887 29 18265900163601561616
17804303 29 18335419050153099193
17834074 16 18409169883075260018
18186145 218 16128658505116401581
18915474 69 18201996616862622622
20281407 28 18410011022482095616
20281475 54 18409443704657769008
20374829 77 18413113861375321834
20645477 70 17968099681323040596
20671657 53 18333728018185899872
20871999 31 18060138734548162813
2215653 11 18334864922157326335
22485316 2 18334016051461399400
22926399 37 13614521870053409397
23403322 49 18408885161092990318
23557571 272 18129958818450969576
23559900 14 18410018697678720528
3004659 81 18272932773865979706
4416823 128 18408040710667016944
4921388 177 16630232632969968187
7364860 26 17837212580513890037
94968 8 18408039594260428066
9709674 26 18196657289482188227

> <PUBCHEM_SHAPE_MULTIPOLES>
270.27
8.96
2
0.88
4.5
0.29
-0.02
4.89
1.82
0.45
-0.04
0.34
-0.18
0.74

> <PUBCHEM_SHAPE_SELFOVERLAP>
551.359

> <PUBCHEM_SHAPE_VOLUME>
155.2

> <PUBCHEM_COORDINATE_TYPE>
2
5
10

$$$$

