440182
  -OEChem-07051212492D

 30 30  0     1  0  0  0  0  0999 V2000
    3.4030    1.7035    0.0000 P   0  0  0  0  0  0  0  0  0  0  0  0
    4.2690    1.2035    0.0000 O   0  0  0  0  0  0  0  0  0  0  0  0
    2.5369    0.2035    0.0000 O   0  0  0  0  0  0  0  0  0  0  0  0
    2.5369   -1.7965    0.0000 O   0  0  0  0  0  0  0  0  0  0  0  0
    3.9030    2.5695    0.0000 O   0  0  0  0  0  0  0  0  0  0  0  0
    2.5369    2.2035    0.0000 O   0  0  0  0  0  0  0  0  0  0  0  0
    2.9030    0.8375    0.0000 O   0  0  0  0  0  0  0  0  0  0  0  0
    6.0010    0.2035    0.0000 N   0  0  0  0  0  0  0  0  0  0  0  0
    4.2690   -2.7965    0.0000 N   0  0  0  0  0  0  0  0  0  0  0  0
    4.2690    0.2035    0.0000 C   0  0  2  0  0  0  0  0  0  0  0  0
    5.1350   -0.2965    0.0000 C   0  0  2  0  0  0  0  0  0  0  0  0
    4.2690   -1.7965    0.0000 C   0  0  1  0  0  0  0  0  0  0  0  0
    3.4030   -0.2965    0.0000 C   0  0  1  0  0  0  0  0  0  0  0  0
    3.4030   -1.2965    0.0000 C   0  0  1  0  0  0  0  0  0  0  0  0
    5.1350   -1.2965    0.0000 C   0  0  0  0  0  0  0  0  0  0  0  0
    4.8059    0.5135    0.0000 H   0  0  0  0  0  0  0  0  0  0  0  0
    5.1350    0.3235    0.0000 H   0  0  0  0  0  0  0  0  0  0  0  0
    4.8059   -2.1065    0.0000 H   0  0  0  0  0  0  0  0  0  0  0  0
    3.4030    0.3235    0.0000 H   0  0  0  0  0  0  0  0  0  0  0  0
    3.4030   -1.9165    0.0000 H   0  0  0  0  0  0  0  0  0  0  0  0
    5.3471   -1.8791    0.0000 H   0  0  0  0  0  0  0  0  0  0  0  0
    5.7456   -1.1888    0.0000 H   0  0  0  0  0  0  0  0  0  0  0  0
    6.5380   -0.1065    0.0000 H   0  0  0  0  0  0  0  0  0  0  0  0
    6.0010    0.8235    0.0000 H   0  0  0  0  0  0  0  0  0  0  0  0
    4.8059   -3.1065    0.0000 H   0  0  0  0  0  0  0  0  0  0  0  0
    3.7320   -3.1065    0.0000 H   0  0  0  0  0  0  0  0  0  0  0  0
    2.0000   -0.1065    0.0000 H   0  0  0  0  0  0  0  0  0  0  0  0
    2.0000   -1.4865    0.0000 H   0  0  0  0  0  0  0  0  0  0  0  0
    3.5930    3.1065    0.0000 H   0  0  0  0  0  0  0  0  0  0  0  0
    2.5369    2.8235    0.0000 H   0  0  0  0  0  0  0  0  0  0  0  0
  1  2  1  0  0  0  0
  1  5  1  0  0  0  0
  1  6  1  0  0  0  0
  1  7  2  0  0  0  0
 10  2  1  6  0  0  0
 13  3  1  1  0  0  0
  3 27  1  0  0  0  0
 14  4  1  6  0  0  0
  4 28  1  0  0  0  0
  5 29  1  0  0  0  0
  6 30  1  0  0  0  0
 11  8  1  1  0  0  0
  8 23  1  0  0  0  0
  8 24  1  0  0  0  0
 12  9  1  1  0  0  0
  9 25  1  0  0  0  0
  9 26  1  0  0  0  0
 10 11  1  0  0  0  0
 10 13  1  0  0  0  0
 10 16  1  0  0  0  0
 11 15  1  0  0  0  0
 11 17  1  0  0  0  0
 12 14  1  0  0  0  0
 12 15  1  0  0  0  0
 12 18  1  0  0  0  0
 13 14  1  0  0  0  0
 13 19  1  0  0  0  0
 14 20  1  0  0  0  0
 15 21  1  0  0  0  0
 15 22  1  0  0  0  0
M  END
> <PUBCHEM_COMPOUND_CID>
440182

> <PUBCHEM_COMPOUND_CANONICALIZED>
1

> <PUBCHEM_CACTVS_COMPLEXITY>
270

> <PUBCHEM_CACTVS_HBOND_ACCEPTOR>
8

> <PUBCHEM_CACTVS_HBOND_DONOR>
6

> <PUBCHEM_CACTVS_ROTATABLE_BOND>
2

> <PUBCHEM_CACTVS_SUBSKEYS>
AAADccBjOAIAAAAAAAAAAAAAAAAAAAAAAAAwAAAAAAAAAAAAAAAAHgAQCCAACDzhgAYAAABAAxAAQAAAAIAAAAAAAAAAAIAAAAADEAIAwAAAQAAHEAABAAGwcAUAAAAAAAAAAAAAgAAUCACgAAAAAAAAAA==

> <PUBCHEM_IUPAC_OPENEYE_NAME>
[(1R,2R,3S,4R,6S)-4,6-diamino-2,3-dihydroxy-cyclohexyl] dihydrogen phosphate

> <PUBCHEM_IUPAC_CAS_NAME>
[(1R,2R,3S,4R,6S)-4,6-diamino-2,3-dihydroxycyclohexyl] dihydrogen phosphate

> <PUBCHEM_IUPAC_NAME>
[(1R,2R,3S,4R,6S)-4,6-diamino-2,3-dihydroxycyclohexyl] dihydrogen phosphate

> <PUBCHEM_IUPAC_SYSTEMATIC_NAME>
[(1R,2R,3S,4R,6S)-4,6-bis(azanyl)-2,3-bis(oxidanyl)cyclohexyl] dihydrogen phosphate

> <PUBCHEM_IUPAC_TRADITIONAL_NAME>
[(1R,2R,3S,4R,6S)-4,6-diamino-2,3-dihydroxy-cyclohexyl] dihydrogen phosphate

> <PUBCHEM_IUPAC_INCHI>
InChI=1S/C6H15N2O6P/c7-2-1-3(8)6(5(10)4(2)9)14-15(11,12)13/h2-6,9-10H,1,7-8H2,(H2,11,12,13)/t2-,3+,4+,5-,6-/m1/s1

> <PUBCHEM_IUPAC_INCHIKEY>
UBXDUQZBZKTGSW-FPRJBGLDSA-N

> <PUBCHEM_XLOGP3_AA>
-6.6

> <PUBCHEM_EXACT_MASS>
242.066773

> <PUBCHEM_MOLECULAR_FORMULA>
C6H15N2O6P

> <PUBCHEM_MOLECULAR_WEIGHT>
242.166862

> <PUBCHEM_OPENEYE_CAN_SMILES>
C1C(C(C(C(C1N)OP(=O)(O)O)O)O)N

> <PUBCHEM_OPENEYE_ISO_SMILES>
C1[C@H]([C@@H]([C@H]([C@@H]([C@H]1N)OP(=O)(O)O)O)O)N

> <PUBCHEM_CACTVS_TPSA>
159

> <PUBCHEM_MONOISOTOPIC_WEIGHT>
242.066773

> <PUBCHEM_TOTAL_CHARGE>
0

> <PUBCHEM_HEAVY_ATOM_COUNT>
15

> <PUBCHEM_ATOM_DEF_STEREO_COUNT>
5

> <PUBCHEM_ATOM_UDEF_STEREO_COUNT>
0

> <PUBCHEM_BOND_DEF_STEREO_COUNT>
0

> <PUBCHEM_BOND_UDEF_STEREO_COUNT>
0

> <PUBCHEM_ISOTOPIC_ATOM_COUNT>
0

> <PUBCHEM_COMPONENT_COUNT>
1

> <PUBCHEM_CACTVS_TAUTO_COUNT>
1

> <PUBCHEM_COORDINATE_TYPE>
1
5
255

> <PUBCHEM_BONDANNOTATIONS>
10  2  6
13  3  5
14  4  6
11  8  5
12  9  5

$$$$

