11471
  -OEChem-06261205433D

 30 31  0     0  0  0  0  0  0999 V2000
   -6.4027    1.2323   -0.1915 O   0  0  0  0  0  0  0  0  0  0  0  0
    6.4020    1.2322    0.1923 O   0  0  0  0  0  0  0  0  0  0  0  0
   -6.5963   -1.0324   -0.2173 O   0  0  0  0  0  0  0  0  0  0  0  0
    6.5954   -1.0324    0.2183 O   0  0  0  0  0  0  0  0  0  0  0  0
   -0.2851   -0.0248    0.5576 N   0  0  0  0  0  0  0  0  0  0  0  0
    0.2845   -0.0248   -0.5589 N   0  0  0  0  0  0  0  0  0  0  0  0
   -1.6731   -0.0247    0.3865 C   0  0  0  0  0  0  0  0  0  0  0  0
    1.6793   -0.0247   -0.3865 C   0  0  0  0  0  0  0  0  0  0  0  0
   -4.4421   -0.0253    0.0469 C   0  0  0  0  0  0  0  0  0  0  0  0
    4.4414   -0.0253   -0.0467 C   0  0  0  0  0  0  0  0  0  0  0  0
   -2.3652   -1.2328    0.3012 C   0  0  0  0  0  0  0  0  0  0  0  0
    2.3647   -1.2328   -0.3018 C   0  0  0  0  0  0  0  0  0  0  0  0
   -2.3657    1.1832    0.3022 C   0  0  0  0  0  0  0  0  0  0  0  0
    2.3651    1.1833   -0.3027 C   0  0  0  0  0  0  0  0  0  0  0  0
   -3.7497   -1.2330    0.1313 C   0  0  0  0  0  0  0  0  0  0  0  0
    3.7491   -1.2330   -0.1313 C   0  0  0  0  0  0  0  0  0  0  0  0
   -3.7502    1.1829    0.1323 C   0  0  0  0  0  0  0  0  0  0  0  0
    3.7496    1.1830   -0.1325 C   0  0  0  0  0  0  0  0  0  0  0  0
   -5.8856   -0.0255   -0.1299 C   0  0  0  0  0  0  0  0  0  0  0  0
    5.8849   -0.0255    0.1306 C   0  0  0  0  0  0  0  0  0  0  0  0
   -1.8345   -2.1790    0.3669 H   0  0  0  0  0  0  0  0  0  0  0  0
    1.8329   -2.1782   -0.3678 H   0  0  0  0  0  0  0  0  0  0  0  0
   -1.8349    2.1295    0.3686 H   0  0  0  0  0  0  0  0  0  0  0  0
    1.8333    2.1287   -0.3695 H   0  0  0  0  0  0  0  0  0  0  0  0
   -4.2703   -2.1850    0.0672 H   0  0  0  0  0  0  0  0  0  0  0  0
    4.2696   -2.1850   -0.0671 H   0  0  0  0  0  0  0  0  0  0  0  0
   -4.2496    2.1458    0.0717 H   0  0  0  0  0  0  0  0  0  0  0  0
    4.2489    2.1458   -0.0717 H   0  0  0  0  0  0  0  0  0  0  0  0
   -7.3765    1.2211   -0.3102 H   0  0  0  0  0  0  0  0  0  0  0  0
    7.3756    1.2210    0.3114 H   0  0  0  0  0  0  0  0  0  0  0  0
  1 19  1  0  0  0  0
  1 29  1  0  0  0  0
  2 20  1  0  0  0  0
  2 30  1  0  0  0  0
  3 19  2  0  0  0  0
  4 20  2  0  0  0  0
  5  6  2  0  0  0  0
  5  7  1  0  0  0  0
  6  8  1  0  0  0  0
  7 11  2  0  0  0  0
  7 13  1  0  0  0  0
  8 12  2  0  0  0  0
  8 14  1  0  0  0  0
  9 15  2  0  0  0  0
  9 17  1  0  0  0  0
  9 19  1  0  0  0  0
 10 16  2  0  0  0  0
 10 18  1  0  0  0  0
 10 20  1  0  0  0  0
 11 15  1  0  0  0  0
 11 21  1  0  0  0  0
 12 16  1  0  0  0  0
 12 22  1  0  0  0  0
 13 17  2  0  0  0  0
 13 23  1  0  0  0  0
 14 18  2  0  0  0  0
 14 24  1  0  0  0  0
 15 25  1  0  0  0  0
 16 26  1  0  0  0  0
 17 27  1  0  0  0  0
 18 28  1  0  0  0  0
M  END
> <PUBCHEM_COMPOUND_CID>
11471

> <PUBCHEM_CONFORMER_RMSD>
0.6

> <PUBCHEM_CONFORMER_DIVERSEORDER>
1
4
2
3

> <PUBCHEM_MMFF94_PARTIAL_CHARGES>
30
1 -0.65
10 0.09
11 -0.15
12 -0.15
13 -0.15
14 -0.15
15 -0.15
16 -0.15
17 -0.15
18 -0.15
19 0.63
2 -0.65
20 0.63
21 0.15
22 0.15
23 0.15
24 0.15
25 0.15
26 0.15
27 0.15
28 0.15
29 0.5
3 -0.57
30 0.5
4 -0.57
5 -0.18
6 -0.18
7 0.18
8 0.18
9 0.09

> <PUBCHEM_EFFECTIVE_ROTOR_COUNT>
4

> <PUBCHEM_PHARMACOPHORE_FEATURES>
8
1 1 acceptor
1 2 acceptor
1 3 acceptor
1 4 acceptor
3 1 3 19 anion
3 2 4 20 anion
6 7 9 11 13 15 17 rings
6 8 10 12 14 16 18 rings

> <PUBCHEM_HEAVY_ATOM_COUNT>
20

> <PUBCHEM_ATOM_DEF_STEREO_COUNT>
0

> <PUBCHEM_ATOM_UDEF_STEREO_COUNT>
0

> <PUBCHEM_BOND_DEF_STEREO_COUNT>
0

> <PUBCHEM_BOND_UDEF_STEREO_COUNT>
0

> <PUBCHEM_ISOTOPIC_ATOM_COUNT>
0

> <PUBCHEM_COMPONENT_COUNT>
1

> <PUBCHEM_CACTVS_TAUTO_COUNT>
1

> <PUBCHEM_CONFORMER_ID>
00002CCF00000001

> <PUBCHEM_MMFF94_ENERGY>
60.2326

> <PUBCHEM_FEATURE_SELFOVERLAP>
40.71

> <PUBCHEM_SHAPE_FINGERPRINT>
10 15 18335148549408726048
10366900 7 15213017154523467687
10595046 47 18407759244327830537
10968037 39 18334857208469934863
11315181 36 18186235122063176369
11719270 70 18260551147540038406
12091667 2 18341892992219170235
12107183 9 17689997164499094650
12166972 35 18411698768525916408
12236239 1 18410856563934795843
12516196 113 17894631452405441152
12730499 353 7637401839562974772
13073987 5 18339921627499047723
13533116 47 18334579091799544906
1420 363 6050445920240275668
14251764 18 18344145882532678860
14251764 46 18410857663446527570
17834076 25 18408604759831489519
19489759 90 18411136944132735057
200 152 18040435499311050089
20281389 69 18202566185092004924
20645477 70 18262233434252307334
21267235 1 18410847767841786627
21315763 28 18410576184174752167
22224240 67 18411142416417046338
23402539 116 18409452479644992637
23536379 177 18412826897572682315
23559900 14 18337114458159652465
26918003 58 18412260623114263219
29717793 49 18260823813448381292
300161 21 18411703187904137563
3004659 81 18344146986170663880
34797466 226 17313377903827376068
351380 180 18411136930852233105
3545911 37 18410573989446424932
4073 2 17988637446534585938
4214541 1 18411698798679682601
42788 4 18410573985151470625
4325135 7 18259705592974718879
4340502 62 14779546803634426652
5104073 3 18339073796285349744
7495541 125 17676490497449348593

> <PUBCHEM_SHAPE_MULTIPOLES>
378.15
17.67
1.43
0.66
0.02
0.02
0
0.26
0
0
0
0
0
0.01

> <PUBCHEM_SHAPE_SELFOVERLAP>
821.477

> <PUBCHEM_SHAPE_VOLUME>
205.6

> <PUBCHEM_COORDINATE_TYPE>
2
5
10

$$$$

