19069
  -OEChem-07051212453D

 33 36  0     1  0  0  0  0  0999 V2000
    4.5234    0.2721   -0.6467 P   0  0  2  0  0  0  0  0  0  0  0  0
    0.8663   -0.0109    1.6423 O   0  0  0  0  0  0  0  0  0  0  0  0
    3.2199   -0.6476   -0.9693 O   0  0  0  0  0  0  0  0  0  0  0  0
    4.4303    0.6304    0.9359 O   0  0  0  0  0  0  0  0  0  0  0  0
    1.2605   -2.5233   -0.3141 O   0  0  0  0  0  0  0  0  0  0  0  0
    4.2148    1.6798   -1.3847 O   0  0  0  0  0  0  0  0  0  0  0  0
    5.8289   -0.3460   -1.0587 O   0  0  0  0  0  0  0  0  0  0  0  0
   -5.2609    1.6659   -0.6750 O   0  0  0  0  0  0  0  0  0  0  0  0
   -1.1667    0.0673    0.4035 N   0  0  0  0  0  0  0  0  0  0  0  0
   -2.3829    1.8955   -0.0630 N   0  0  0  0  0  0  0  0  0  0  0  0
   -2.9546   -1.5702    0.1842 N   0  0  0  0  0  0  0  0  0  0  0  0
   -5.0969   -0.6312   -0.3912 N   0  0  0  0  0  0  0  0  0  0  0  0
    2.0158   -0.2376   -0.3617 C   0  0  2  0  0  0  0  0  0  0  0  0
    2.1916   -0.1722    1.1410 C   0  0  1  0  0  0  0  0  0  0  0  0
    0.8343   -1.1735   -0.4749 C   0  0  2  0  0  0  0  0  0  0  0  0
   -0.0052   -0.7537    0.7469 C   0  0  1  0  0  0  0  0  0  0  0  0
    3.1587    0.9339    1.5115 C   0  0  0  0  0  0  0  0  0  0  0  0
   -2.4348   -0.3390    0.1662 C   0  0  0  0  0  0  0  0  0  0  0  0
   -1.1835    1.4357    0.2519 C   0  0  0  0  0  0  0  0  0  0  0  0
   -3.1687    0.7788   -0.1169 C   0  0  0  0  0  0  0  0  0  0  0  0
   -4.5868    0.6755   -0.4193 C   0  0  0  0  0  0  0  0  0  0  0  0
   -4.3036   -1.6296   -0.1079 C   0  0  0  0  0  0  0  0  0  0  0  0
    1.7216    0.7402   -0.7636 H   0  0  0  0  0  0  0  0  0  0  0  0
    2.5969   -1.1210    1.5209 H   0  0  0  0  0  0  0  0  0  0  0  0
    0.3173   -1.0971   -1.4362 H   0  0  0  0  0  0  0  0  0  0  0  0
   -0.3782   -1.6175    1.3092 H   0  0  0  0  0  0  0  0  0  0  0  0
    2.8183    1.9144    1.1620 H   0  0  0  0  0  0  0  0  0  0  0  0
    3.2721    0.9996    2.5981 H   0  0  0  0  0  0  0  0  0  0  0  0
    0.4644   -3.0816   -0.3276 H   0  0  0  0  0  0  0  0  0  0  0  0
   -0.2983    2.0442    0.3784 H   0  0  0  0  0  0  0  0  0  0  0  0
   -2.4219   -2.4091    0.3891 H   0  0  0  0  0  0  0  0  0  0  0  0
    3.3976    2.1752   -1.1653 H   0  0  0  0  0  0  0  0  0  0  0  0
   -4.6960   -2.6585   -0.0841 H   0  0  0  0  0  0  0  0  0  0  0  0
  1  3  1  0  0  0  0
  1  4  1  0  0  0  0
  1  6  1  0  0  0  0
  1  7  2  0  0  0  0
  2 14  1  0  0  0  0
  2 16  1  0  0  0  0
  3 13  1  0  0  0  0
  4 17  1  0  0  0  0
  5 15  1  0  0  0  0
  5 29  1  0  0  0  0
  6 32  1  0  0  0  0
  8 21  2  0  0  0  0
  9 16  1  0  0  0  0
  9 18  1  0  0  0  0
  9 19  1  0  0  0  0
 10 19  2  0  0  0  0
 10 20  1  0  0  0  0
 11 18  1  0  0  0  0
 11 22  1  0  0  0  0
 11 31  1  0  0  0  0
 12 21  1  0  0  0  0
 12 22  2  0  0  0  0
 13 14  1  0  0  0  0
 13 15  1  0  0  0  0
 13 23  1  0  0  0  0
 14 17  1  0  0  0  0
 14 24  1  0  0  0  0
 15 16  1  0  0  0  0
 15 25  1  0  0  0  0
 16 26  1  0  0  0  0
 17 27  1  0  0  0  0
 17 28  1  0  0  0  0
 18 20  2  0  0  0  0
 19 30  1  0  0  0  0
 20 21  1  0  0  0  0
 22 33  1  0  0  0  0
M  END
> <PUBCHEM_COMPOUND_CID>
19069

> <PUBCHEM_CONFORMER_RMSD>
0.6

> <PUBCHEM_CONFORMER_DIVERSEORDER>
1
8
4
5
3
2
7
6

> <PUBCHEM_MMFF94_PARTIAL_CHARGES>
27
1 1.51
10 -0.57
11 -0.53
12 -0.66
13 0.28
14 0.28
15 0.28
16 0.54
17 0.28
18 -0.07
19 0.04
2 -0.56
20 0.14
21 0.87
22 0.44
29 0.4
3 -0.55
30 0.15
31 0.4
32 0.5
33 0.06
4 -0.55
5 -0.68
6 -0.77
7 -0.7
8 -0.57
9 0.05

> <PUBCHEM_EFFECTIVE_ROTOR_COUNT>
2.2

> <PUBCHEM_PHARMACOPHORE_FEATURES>
13
1 11 donor
1 12 donor
1 2 acceptor
1 5 acceptor
1 5 donor
1 6 acceptor
1 7 acceptor
1 8 acceptor
3 9 10 19 cation
5 2 13 14 15 16 rings
5 9 10 18 19 20 rings
6 1 3 4 13 14 17 rings
6 11 12 18 20 21 22 rings

> <PUBCHEM_HEAVY_ATOM_COUNT>
22

> <PUBCHEM_ATOM_DEF_STEREO_COUNT>
4

> <PUBCHEM_ATOM_UDEF_STEREO_COUNT>
0

> <PUBCHEM_BOND_DEF_STEREO_COUNT>
0

> <PUBCHEM_BOND_UDEF_STEREO_COUNT>
0

> <PUBCHEM_ISOTOPIC_ATOM_COUNT>
0

> <PUBCHEM_COMPONENT_COUNT>
1

> <PUBCHEM_CACTVS_TAUTO_COUNT>
3

> <PUBCHEM_CONFORMER_ID>
00004A7D00000001

> <PUBCHEM_MMFF94_ENERGY>
41.7835

> <PUBCHEM_FEATURE_SELFOVERLAP>
66.221

> <PUBCHEM_SHAPE_FINGERPRINT>
10366900 7 18113907073960837003
10498660 4 18411140246656935745
11089746 13 17203609259990302628
12236239 1 17489872643487439962
12390115 104 18115866490093420929
12403259 415 18187647968676983992
12507557 5 11743836976191221503
12633257 1 11023814107192642573
128620 24 18186522094202295677
13533116 47 16343714256726169672
13631057 29 16199011796487149203
13760787 5 15574714672918073809
14350574 20 17458057154031298878
14420673 8 8285385805657126716
14528608 73 17989205910914538236
14739800 52 17986684671245680168
15183329 4 18272359924345062478
15209289 33 6266895758004653717
15375358 24 18335994120667740731
16988056 13 14887389476440649061
17844677 252 17022900138323900641
18186145 218 17748541533283290090
18681886 176 18340769243758906348
19784866 140 16732978764880751122
200 152 16298383573934727082
204376 136 15626504986279970848
20645477 56 18341897433205090517
20645477 70 17095527326434204911
20871999 31 18412267220927867311
21267235 1 18339076000489950971
21637258 2 14201399430083920828
21857420 4 16308841870930045950
221357 26 17531248391375232816
23402539 116 18272373065895188902
23557571 272 18408597055039884295
23559900 14 18336833103294352130
2838139 119 17987226734683236828
2871803 45 17967817166842834040
296302 2 16056882429189259251
3060560 45 17821454564637095956
3323516 105 17749389247963198242
3472631 163 17988646332885075477
34797466 226 18261382300398395988
351380 180 18201717345404724836
3545911 37 18410572916174053935
465052 167 4678524832728764957
474 4 16988554672174215044
4990 188 17385439921306689084
5104073 3 18338237171575243403
5281201 14 17385441016539641968
542803 24 17632860832266138113
7495541 125 17894629232381875122

> <PUBCHEM_SHAPE_MULTIPOLES>
395.59
11.62
1.77
1.16
0.02
0.24
-0.2
-1.87
3.57
-1.05
0.24
1.4
-0.2
0.44

> <PUBCHEM_SHAPE_SELFOVERLAP>
860.715

> <PUBCHEM_SHAPE_VOLUME>
217.1

> <PUBCHEM_COORDINATE_TYPE>
2
5
10

$$$$

