441075
  -OEChem-07051212512D

 45 48  0     1  0  0  0  0  0999 V2000
    6.2800   -0.1609    0.0000 O   0  0  0  0  0  0  0  0  0  0  0  0
    8.9441    1.3150    0.0000 O   0  0  0  0  0  0  0  0  0  0  0  0
    4.0731   -2.1667    0.0000 N   0  0  3  0  0  0  0  0  0  0  0  0
    5.4140    3.3391    0.0000 N   0  0  0  0  0  0  0  0  0  0  0  0
    3.5731   -1.3007    0.0000 C   0  0  3  0  0  0  0  0  0  0  0  0
    4.5480   -0.1609    0.0000 C   0  0  1  0  0  0  0  0  0  0  0  0
    3.5820    0.0979    0.0000 C   0  0  0  0  0  0  0  0  0  0  0  0
    6.2638   -1.7184    0.0000 C   0  0  2  0  0  0  0  0  0  0  0  0
    2.0000   -2.5078    0.0000 C   0  0  0  0  0  0  0  0  0  0  0  0
    6.0050   -2.6843    0.0000 C   0  0  0  0  0  0  0  0  0  0  0  0
    2.5000   -3.3738    0.0000 C   0  0  0  0  0  0  0  0  0  0  0  0
    5.4140    0.3391    0.0000 C   0  0  1  0  0  0  0  0  0  0  0  0
    7.1298   -1.2184    0.0000 C   0  0  0  0  0  0  0  0  0  0  0  0
    5.4140    1.3391    0.0000 C   0  0  0  0  0  0  0  0  0  0  0  0
    6.2800    1.8391    0.0000 C   0  0  0  0  0  0  0  0  0  0  0  0
    7.9958   -1.7184    0.0000 C   0  0  0  0  0  0  0  0  0  0  0  0
    4.5480    1.8391    0.0000 C   0  0  0  0  0  0  0  0  0  0  0  0
    6.2800    2.8391    0.0000 C   0  0  0  0  0  0  0  0  0  0  0  0
    7.1740    1.3045    0.0000 C   0  0  0  0  0  0  0  0  0  0  0  0
    4.5480    2.8391    0.0000 C   0  0  0  0  0  0  0  0  0  0  0  0
    7.1740    3.3738    0.0000 C   0  0  0  0  0  0  0  0  0  0  0  0
    8.0800    1.8183    0.0000 C   0  0  0  0  0  0  0  0  0  0  0  0
    8.0800    2.8599    0.0000 C   0  0  0  0  0  0  0  0  0  0  0  0
    3.7836   -2.1242    0.0000 H   0  0  0  0  0  0  0  0  0  0  0  0
    5.2298   -0.6684    0.0000 H   0  0  0  0  0  0  0  0  0  0  0  0
    3.6910    0.7083    0.0000 H   0  0  0  0  0  0  0  0  0  0  0  0
    2.9646    0.1546    0.0000 H   0  0  0  0  0  0  0  0  0  0  0  0
    6.1499   -1.1090    0.0000 H   0  0  0  0  0  0  0  0  0  0  0  0
    1.6444   -1.9999    0.0000 H   0  0  0  0  0  0  0  0  0  0  0  0
    1.4771   -2.8409    0.0000 H   0  0  0  0  0  0  0  0  0  0  0  0
    5.8445   -3.2832    0.0000 H   0  0  0  0  0  0  0  0  0  0  0  0
    6.6039   -2.8448    0.0000 H   0  0  0  0  0  0  0  0  0  0  0  0
    1.9771   -3.7069    0.0000 H   0  0  0  0  0  0  0  0  0  0  0  0
    2.8556   -3.8817    0.0000 H   0  0  0  0  0  0  0  0  0  0  0  0
    5.4140   -0.2809    0.0000 H   0  0  0  0  0  0  0  0  0  0  0  0
    7.1298   -0.5984    0.0000 H   0  0  0  0  0  0  0  0  0  0  0  0
    6.8170    0.1491    0.0000 H   0  0  0  0  0  0  0  0  0  0  0  0
    7.9958   -2.3384    0.0000 H   0  0  0  0  0  0  0  0  0  0  0  0
    8.5328   -1.4084    0.0000 H   0  0  0  0  0  0  0  0  0  0  0  0
    4.0110    1.5291    0.0000 H   0  0  0  0  0  0  0  0  0  0  0  0
    7.1668    0.6845    0.0000 H   0  0  0  0  0  0  0  0  0  0  0  0
    4.0110    3.1491    0.0000 H   0  0  0  0  0  0  0  0  0  0  0  0
    7.1668    3.9938    0.0000 H   0  0  0  0  0  0  0  0  0  0  0  0
    8.6158    3.1720    0.0000 H   0  0  0  0  0  0  0  0  0  0  0  0
    9.4822    1.6229    0.0000 H   0  0  0  0  0  0  0  0  0  0  0  0
 12  1  1  1  0  0  0
  1 37  1  0  0  0  0
  2 22  1  0  0  0  0
  2 45  1  0  0  0  0
  3  6  1  0  0  0  0
  3 10  1  0  0  0  0
  3 11  1  0  0  0  0
  4 18  2  0  0  0  0
  4 20  1  0  0  0  0
  5  7  1  0  0  0  0
  5  8  1  0  0  0  0
  5  9  1  0  0  0  0
  5 24  1  0  0  0  0
  6  7  1  0  0  0  0
  6 12  1  0  0  0  0
  6 25  1  6  0  0  0
  7 26  1  0  0  0  0
  7 27  1  0  0  0  0
  8 10  1  0  0  0  0
  8 13  1  1  0  0  0
  8 28  1  0  0  0  0
  9 11  1  0  0  0  0
  9 29  1  0  0  0  0
  9 30  1  0  0  0  0
 10 31  1  0  0  0  0
 10 32  1  0  0  0  0
 11 33  1  0  0  0  0
 11 34  1  0  0  0  0
 12 14  1  0  0  0  0
 12 35  1  0  0  0  0
 13 16  2  0  0  0  0
 13 36  1  0  0  0  0
 14 15  2  0  0  0  0
 14 17  1  0  0  0  0
 15 18  1  0  0  0  0
 15 19  1  0  0  0  0
 16 38  1  0  0  0  0
 16 39  1  0  0  0  0
 17 20  2  0  0  0  0
 17 40  1  0  0  0  0
 18 21  1  0  0  0  0
 19 22  2  0  0  0  0
 19 41  1  0  0  0  0
 20 42  1  0  0  0  0
 21 23  2  0  0  0  0
 21 43  1  0  0  0  0
 22 23  1  0  0  0  0
 23 44  1  0  0  0  0
M  END
> <PUBCHEM_COMPOUND_CID>
441075

> <PUBCHEM_COMPOUND_CANONICALIZED>
1

> <PUBCHEM_CACTVS_COMPLEXITY>
443

> <PUBCHEM_CACTVS_HBOND_ACCEPTOR>
4

> <PUBCHEM_CACTVS_HBOND_DONOR>
2

> <PUBCHEM_CACTVS_ROTATABLE_BOND>
3

> <PUBCHEM_CACTVS_SUBSKEYS>
AAADceB7MAAAAAAAAAAAAAAAAAAAAAAAAAA8WLFiAAAAAACx8AAAHgAACAAADTzhngY8xvMIEgCgAzRnRACCgCAxIiAI2CA+bJgKNuLCkZOEcAhkwBHY2Aew4PQOgEABAAACAAAAgAIAAAQAAAAAAAAAAA==

> <PUBCHEM_IUPAC_OPENEYE_NAME>
4-[(R)-hydroxy-[(2S,5R)-5-vinylquinuclidin-2-yl]methyl]quinolin-6-ol

> <PUBCHEM_IUPAC_CAS_NAME>
4-[(R)-[(2S,5R)-5-ethenyl-1-azabicyclo[2.2.2]octan-2-yl]-hydroxymethyl]-6-quinolinol

> <PUBCHEM_IUPAC_NAME>
4-[(R)-[(2S,5R)-5-ethenyl-1-azabicyclo[2.2.2]octan-2-yl]-hydroxymethyl]quinolin-6-ol

> <PUBCHEM_IUPAC_SYSTEMATIC_NAME>
4-[(R)-[(2S,5R)-5-ethenyl-1-azabicyclo[2.2.2]octan-2-yl]-oxidanyl-methyl]quinolin-6-ol

> <PUBCHEM_IUPAC_TRADITIONAL_NAME>
4-[(R)-hydroxy-[(2S,5R)-5-vinylquinuclidin-2-yl]methyl]quinolin-6-ol

> <PUBCHEM_IUPAC_INCHI>
InChI=1S/C19H22N2O2/c1-2-12-11-21-8-6-13(12)9-18(21)19(23)15-5-7-20-17-4-3-14(22)10-16(15)17/h2-5,7,10,12-13,18-19,22-23H,1,6,8-9,11H2/t12-,13?,18-,19+/m0/s1

> <PUBCHEM_IUPAC_INCHIKEY>
VJFMSYZSFUWQPZ-BPBOJLQBSA-N

> <PUBCHEM_XLOGP3>
2.6

> <PUBCHEM_EXACT_MASS>
310.168128

> <PUBCHEM_MOLECULAR_FORMULA>
C19H22N2O2

> <PUBCHEM_MOLECULAR_WEIGHT>
310.39018

> <PUBCHEM_OPENEYE_CAN_SMILES>
C=CC1CN2CCC1CC2C(C3=C4C=C(C=CC4=NC=C3)O)O

> <PUBCHEM_OPENEYE_ISO_SMILES>
C=C[C@H]1CN2CCC1C[C@H]2[C@@H](C3=C4C=C(C=CC4=NC=C3)O)O

> <PUBCHEM_CACTVS_TPSA>
56.6

> <PUBCHEM_MONOISOTOPIC_WEIGHT>
310.168128

> <PUBCHEM_TOTAL_CHARGE>
0

> <PUBCHEM_HEAVY_ATOM_COUNT>
23

> <PUBCHEM_ATOM_DEF_STEREO_COUNT>
3

> <PUBCHEM_ATOM_UDEF_STEREO_COUNT>
1

> <PUBCHEM_BOND_DEF_STEREO_COUNT>
0

> <PUBCHEM_BOND_UDEF_STEREO_COUNT>
0

> <PUBCHEM_ISOTOPIC_ATOM_COUNT>
0

> <PUBCHEM_COMPONENT_COUNT>
1

> <PUBCHEM_CACTVS_TAUTO_COUNT>
3

> <PUBCHEM_COORDINATE_TYPE>
1
5
255

> <PUBCHEM_BONDANNOTATIONS>
12  1  5
14  15  8
14  17  8
15  18  8
15  19  8
17  20  8
18  21  8
19  22  8
21  23  8
22  23  8
4  18  8
4  20  8
5  24  3
6  25  6
8  13  5

$$$$

