46173875
  -OEChem-07051213102D

 54 54  0     1  0  0  0  0  0999 V2000
    6.0010   -1.8450    0.0000 S   0  0  0  0  0  0  0  0  0  0  0  0
    2.5369    4.1550    0.0000 S   0  0  0  0  0  0  0  0  0  0  0  0
    7.7331    1.1550    0.0000 S   0  0  0  0  0  0  0  0  0  0  0  0
    4.2690   -1.8450    0.0000 O   0  0  0  0  0  0  0  0  0  0  0  0
    4.2690   -4.8450    0.0000 O   0  0  0  0  0  0  0  0  0  0  0  0
    2.5369   -3.8450    0.0000 O   0  0  0  0  0  0  0  0  0  0  0  0
    6.0010   -3.8450    0.0000 O   0  0  0  0  0  0  0  0  0  0  0  0
    2.5369   -0.8450    0.0000 O   0  0  0  0  0  0  0  0  0  0  0  0
    6.8671    0.6550    0.0000 O   0  0  0  0  0  0  0  0  0  0  0  0
    8.5991    1.6550    0.0000 O   0  0  0  0  0  0  0  0  0  0  0  0
    7.2331    2.0210    0.0000 O   0  0  0  0  0  0  0  0  0  0  0  0
    8.2331    0.2890    0.0000 O   0  0  0  0  0  0  0  0  0  0  0  0
    6.8671   -0.3450    0.0000 N   0  0  0  0  0  0  0  0  0  0  0  0
    4.2690   -3.8450    0.0000 C   0  0  1  0  0  0  0  0  0  0  0  0
    3.4030   -3.3450    0.0000 C   0  0  1  0  0  0  0  0  0  0  0  0
    5.1350   -3.3450    0.0000 C   0  0  2  0  0  0  0  0  0  0  0  0
    3.4030   -2.3450    0.0000 C   0  0  1  0  0  0  0  0  0  0  0  0
    5.1350   -2.3450    0.0000 C   0  0  2  0  0  0  0  0  0  0  0  0
    2.5369   -1.8450    0.0000 C   0  0  0  0  0  0  0  0  0  0  0  0
    6.0010   -0.8450    0.0000 C   0  0  0  0  0  0  0  0  0  0  0  0
    5.1350   -0.3450    0.0000 C   0  0  0  0  0  0  0  0  0  0  0  0
    5.1350    0.6550    0.0000 C   0  0  0  0  0  0  0  0  0  0  0  0
    4.2690    1.1550    0.0000 C   0  0  0  0  0  0  0  0  0  0  0  0
    4.2690    2.1550    0.0000 C   0  0  0  0  0  0  0  0  0  0  0  0
    3.4030    2.6550    0.0000 C   0  0  0  0  0  0  0  0  0  0  0  0
    3.4030    3.6550    0.0000 C   0  0  0  0  0  0  0  0  0  0  0  0
    2.5369    5.1550    0.0000 C   0  0  0  0  0  0  0  0  0  0  0  0
    4.8059   -4.1550    0.0000 H   0  0  0  0  0  0  0  0  0  0  0  0
    3.4030   -3.9650    0.0000 H   0  0  0  0  0  0  0  0  0  0  0  0
    5.1350   -3.9650    0.0000 H   0  0  0  0  0  0  0  0  0  0  0  0
    3.4030   -1.7250    0.0000 H   0  0  0  0  0  0  0  0  0  0  0  0
    5.1350   -1.7250    0.0000 H   0  0  0  0  0  0  0  0  0  0  0  0
    1.9264   -1.7373    0.0000 H   0  0  0  0  0  0  0  0  0  0  0  0
    2.3249   -2.4276    0.0000 H   0  0  0  0  0  0  0  0  0  0  0  0
    3.7320   -5.1550    0.0000 H   0  0  0  0  0  0  0  0  0  0  0  0
    2.0000   -3.5350    0.0000 H   0  0  0  0  0  0  0  0  0  0  0  0
    6.5380   -3.5350    0.0000 H   0  0  0  0  0  0  0  0  0  0  0  0
    4.5244   -0.2373    0.0000 H   0  0  0  0  0  0  0  0  0  0  0  0
    4.9230   -0.9276    0.0000 H   0  0  0  0  0  0  0  0  0  0  0  0
    5.7456    0.5473    0.0000 H   0  0  0  0  0  0  0  0  0  0  0  0
    5.3471    1.2376    0.0000 H   0  0  0  0  0  0  0  0  0  0  0  0
    3.6584    1.2627    0.0000 H   0  0  0  0  0  0  0  0  0  0  0  0
    4.0569    0.5724    0.0000 H   0  0  0  0  0  0  0  0  0  0  0  0
    4.8796    2.0473    0.0000 H   0  0  0  0  0  0  0  0  0  0  0  0
    4.4810    2.7376    0.0000 H   0  0  0  0  0  0  0  0  0  0  0  0
    2.0000   -0.5350    0.0000 H   0  0  0  0  0  0  0  0  0  0  0  0
    2.7924    2.7627    0.0000 H   0  0  0  0  0  0  0  0  0  0  0  0
    3.1909    2.0724    0.0000 H   0  0  0  0  0  0  0  0  0  0  0  0
    4.0135    3.5473    0.0000 H   0  0  0  0  0  0  0  0  0  0  0  0
    3.6150    4.2376    0.0000 H   0  0  0  0  0  0  0  0  0  0  0  0
    3.1569    5.1550    0.0000 H   0  0  0  0  0  0  0  0  0  0  0  0
    2.5369    5.7750    0.0000 H   0  0  0  0  0  0  0  0  0  0  0  0
    1.9169    5.1550    0.0000 H   0  0  0  0  0  0  0  0  0  0  0  0
    8.5991    2.2750    0.0000 H   0  0  0  0  0  0  0  0  0  0  0  0
 18  1  1  1  0  0  0
  1 20  1  0  0  0  0
  2 26  1  0  0  0  0
  2 27  1  0  0  0  0
  3  9  1  0  0  0  0
  3 10  1  0  0  0  0
  3 11  2  0  0  0  0
  3 12  2  0  0  0  0
  4 17  1  0  0  0  0
  4 18  1  0  0  0  0
 14  5  1  1  0  0  0
  5 35  1  0  0  0  0
 15  6  1  6  0  0  0
  6 36  1  0  0  0  0
 16  7  1  6  0  0  0
  7 37  1  0  0  0  0
  8 19  1  0  0  0  0
  8 46  1  0  0  0  0
  9 13  1  0  0  0  0
 10 54  1  0  0  0  0
 13 20  2  3  0  0  0
 14 15  1  0  0  0  0
 14 16  1  0  0  0  0
 14 28  1  0  0  0  0
 15 17  1  0  0  0  0
 15 29  1  0  0  0  0
 16 18  1  0  0  0  0
 16 30  1  0  0  0  0
 17 19  1  1  0  0  0
 17 31  1  0  0  0  0
 18 32  1  0  0  0  0
 19 33  1  0  0  0  0
 19 34  1  0  0  0  0
 20 21  1  0  0  0  0
 21 22  1  0  0  0  0
 21 38  1  0  0  0  0
 21 39  1  0  0  0  0
 22 23  1  0  0  0  0
 22 40  1  0  0  0  0
 22 41  1  0  0  0  0
 23 24  1  0  0  0  0
 23 42  1  0  0  0  0
 23 43  1  0  0  0  0
 24 25  1  0  0  0  0
 24 44  1  0  0  0  0
 24 45  1  0  0  0  0
 25 26  1  0  0  0  0
 25 47  1  0  0  0  0
 25 48  1  0  0  0  0
 26 49  1  0  0  0  0
 26 50  1  0  0  0  0
 27 51  1  0  0  0  0
 27 52  1  0  0  0  0
 27 53  1  0  0  0  0
M  END
> <PUBCHEM_COMPOUND_CID>
46173875

> <PUBCHEM_COMPOUND_CANONICALIZED>
1

> <PUBCHEM_CACTVS_COMPLEXITY>
555

> <PUBCHEM_CACTVS_HBOND_ACCEPTOR>
12

> <PUBCHEM_CACTVS_HBOND_DONOR>
5

> <PUBCHEM_CACTVS_ROTATABLE_BOND>
12

> <PUBCHEM_CACTVS_SUBSKEYS>
AAADceByPABgAAAAAAAAAAAAAAAAAAAAAAAkAAAAAAAAAAAAAAAAHgQECAAACBSlwAKCAAAQBoggAAAgADAAAAAAABAAAAAwAAABEAIgAAACQAAFAAAjAAHA4AQAAAAAAAAAAAAAAAAAAAAAAAAAAAAAAA==

> <PUBCHEM_IUPAC_OPENEYE_NAME>
[(2S,3R,4S,5S,6R)-3,4,5-trihydroxy-6-(hydroxymethyl)tetrahydropyran-2-yl] 7-methylsulfanyl-N-sulfooxy-heptanimidothioate

> <PUBCHEM_IUPAC_CAS_NAME>
7-(methylthio)-N-sulfooxyheptanimidothioic acid [(2S,3R,4S,5S,6R)-3,4,5-trihydroxy-6-(hydroxymethyl)-2-oxanyl] ester

> <PUBCHEM_IUPAC_NAME>
[(2S,3R,4S,5S,6R)-3,4,5-trihydroxy-6-(hydroxymethyl)oxan-2-yl] 7-methylsulfanyl-N-sulfooxyheptanimidothioate

> <PUBCHEM_IUPAC_SYSTEMATIC_NAME>
[(2S,3R,4S,5S,6R)-6-(hydroxymethyl)-3,4,5-tris(oxidanyl)oxan-2-yl] 7-methylsulfanyl-N-sulfooxy-heptanimidothioate

> <PUBCHEM_IUPAC_TRADITIONAL_NAME>
7-(methylthio)-N-sulfoxy-thioenanthimidic acid [(2S,3R,4S,5S,6R)-3,4,5-trihydroxy-6-methylol-tetrahydropyran-2-yl] ester

> <PUBCHEM_IUPAC_INCHI>
InChI=1S/C14H27NO9S3/c1-25-7-5-3-2-4-6-10(15-24-27(20,21)22)26-14-13(19)12(18)11(17)9(8-16)23-14/h9,11-14,16-19H,2-8H2,1H3,(H,20,21,22)/t9-,11-,12+,13-,14+/m1/s1

> <PUBCHEM_IUPAC_INCHIKEY>
ZAKICGFSIJSCSF-LPUQOGTASA-N

> <PUBCHEM_XLOGP3_AA>
0.4

> <PUBCHEM_EXACT_MASS>
449.084794

> <PUBCHEM_MOLECULAR_FORMULA>
C14H27NO9S3

> <PUBCHEM_MOLECULAR_WEIGHT>
449.56048

> <PUBCHEM_OPENEYE_CAN_SMILES>
CSCCCCCCC(=NOS(=O)(=O)O)SC1C(C(C(C(O1)CO)O)O)O

> <PUBCHEM_OPENEYE_ISO_SMILES>
CSCCCCCCC(=NOS(=O)(=O)O)S[C@H]1[C@@H]([C@H]([C@@H]([C@H](O1)CO)O)O)O

> <PUBCHEM_CACTVS_TPSA>
225

> <PUBCHEM_MONOISOTOPIC_WEIGHT>
449.084794

> <PUBCHEM_TOTAL_CHARGE>
0

> <PUBCHEM_HEAVY_ATOM_COUNT>
27

> <PUBCHEM_ATOM_DEF_STEREO_COUNT>
5

> <PUBCHEM_ATOM_UDEF_STEREO_COUNT>
0

> <PUBCHEM_BOND_DEF_STEREO_COUNT>
0

> <PUBCHEM_BOND_UDEF_STEREO_COUNT>
1

> <PUBCHEM_ISOTOPIC_ATOM_COUNT>
0

> <PUBCHEM_COMPONENT_COUNT>
1

> <PUBCHEM_CACTVS_TAUTO_COUNT>
2

> <PUBCHEM_COORDINATE_TYPE>
1
5
255

> <PUBCHEM_BONDANNOTATIONS>
18  1  5
13  20  1
17  19  5
14  5  5
15  6  6
16  7  6

$$$$

