10548
  -OEChem-07051212523D

 38 37  0     0  0  0  0  0  0999 V2000
    0.0155    0.8867    0.9921 S   0  0  0  0  0  0  0  0  0  0  0  0
   -1.5955    0.5578   -0.3105 P   0  0  0  0  0  0  0  0  0  0  0  0
   -2.9784    0.9187    0.4652 O   0  0  0  0  0  0  0  0  0  0  0  0
   -1.7661   -1.0266   -0.6326 O   0  0  0  0  0  0  0  0  0  0  0  0
   -1.4235    1.3649   -1.5714 O   0  0  0  0  0  0  0  0  0  0  0  0
    3.9660    0.0784    0.0436 N   0  3  0  0  0  0  0  0  0  0  0  0
    2.7641    0.5247    0.8634 C   0  0  0  0  0  0  0  0  0  0  0  0
    4.0108    0.8629   -1.2598 C   0  0  0  0  0  0  0  0  0  0  0  0
    5.2416    0.3336    0.8335 C   0  0  0  0  0  0  0  0  0  0  0  0
    3.8479   -1.4077   -0.2628 C   0  0  0  0  0  0  0  0  0  0  0  0
    1.4842    0.3547    0.0614 C   0  0  0  0  0  0  0  0  0  0  0  0
   -4.2101    0.7223   -0.2081 C   0  0  0  0  0  0  0  0  0  0  0  0
   -1.9402   -1.9515    0.4268 C   0  0  0  0  0  0  0  0  0  0  0  0
   -5.3439    1.1255    0.7104 C   0  0  0  0  0  0  0  0  0  0  0  0
   -2.0725   -3.3443   -0.1513 C   0  0  0  0  0  0  0  0  0  0  0  0
    2.7509   -0.0755    1.7814 H   0  0  0  0  0  0  0  0  0  0  0  0
    2.9265    1.5756    1.1330 H   0  0  0  0  0  0  0  0  0  0  0  0
    3.9105    1.9286   -1.0336 H   0  0  0  0  0  0  0  0  0  0  0  0
    4.9792    0.6730   -1.7342 H   0  0  0  0  0  0  0  0  0  0  0  0
    3.2219    0.5195   -1.9336 H   0  0  0  0  0  0  0  0  0  0  0  0
    5.1869   -0.2306    1.7692 H   0  0  0  0  0  0  0  0  0  0  0  0
    6.0957   -0.0003    0.2368 H   0  0  0  0  0  0  0  0  0  0  0  0
    5.3145    1.4064    1.0356 H   0  0  0  0  0  0  0  0  0  0  0  0
    3.6718   -1.9464    0.6728 H   0  0  0  0  0  0  0  0  0  0  0  0
    3.0401   -1.5817   -0.9772 H   0  0  0  0  0  0  0  0  0  0  0  0
    4.7913   -1.7361   -0.7110 H   0  0  0  0  0  0  0  0  0  0  0  0
    1.4811    0.9582   -0.8485 H   0  0  0  0  0  0  0  0  0  0  0  0
    1.3023   -0.6862   -0.2138 H   0  0  0  0  0  0  0  0  0  0  0  0
   -4.2247    1.3349   -1.1149 H   0  0  0  0  0  0  0  0  0  0  0  0
   -4.3155   -0.3284   -0.4934 H   0  0  0  0  0  0  0  0  0  0  0  0
   -1.0745   -1.9131    1.0939 H   0  0  0  0  0  0  0  0  0  0  0  0
   -2.8361   -1.6956    0.9998 H   0  0  0  0  0  0  0  0  0  0  0  0
   -6.3115    0.9910    0.2191 H   0  0  0  0  0  0  0  0  0  0  0  0
   -5.3271    0.5279    1.6279 H   0  0  0  0  0  0  0  0  0  0  0  0
   -5.2426    2.1735    1.0111 H   0  0  0  0  0  0  0  0  0  0  0  0
   -2.2053   -4.0857    0.6414 H   0  0  0  0  0  0  0  0  0  0  0  0
   -2.9278   -3.3985   -0.8329 H   0  0  0  0  0  0  0  0  0  0  0  0
   -1.1834   -3.6058   -0.7345 H   0  0  0  0  0  0  0  0  0  0  0  0
  1  2  1  0  0  0  0
  1 11  1  0  0  0  0
  2  3  1  0  0  0  0
  2  4  1  0  0  0  0
  2  5  2  0  0  0  0
  3 12  1  0  0  0  0
  4 13  1  0  0  0  0
  6  7  1  0  0  0  0
  6  8  1  0  0  0  0
  6  9  1  0  0  0  0
  6 10  1  0  0  0  0
  7 11  1  0  0  0  0
  7 16  1  0  0  0  0
  7 17  1  0  0  0  0
  8 18  1  0  0  0  0
  8 19  1  0  0  0  0
  8 20  1  0  0  0  0
  9 21  1  0  0  0  0
  9 22  1  0  0  0  0
  9 23  1  0  0  0  0
 10 24  1  0  0  0  0
 10 25  1  0  0  0  0
 10 26  1  0  0  0  0
 11 27  1  0  0  0  0
 11 28  1  0  0  0  0
 12 14  1  0  0  0  0
 12 29  1  0  0  0  0
 12 30  1  0  0  0  0
 13 15  1  0  0  0  0
 13 31  1  0  0  0  0
 13 32  1  0  0  0  0
 14 33  1  0  0  0  0
 14 34  1  0  0  0  0
 14 35  1  0  0  0  0
 15 36  1  0  0  0  0
 15 37  1  0  0  0  0
 15 38  1  0  0  0  0
M  CHG  1   6   1
M  END
> <PUBCHEM_COMPOUND_CID>
10548

> <PUBCHEM_CONFORMER_RMSD>
0.8

> <PUBCHEM_CONFORMER_DIVERSEORDER>
1
53
48
27
25
8
38
12
17
21
52
6
3
13
9
44
28
14
41
42
56
29
4
32
40
50
47
2
20
23
43
7
10
55
31
39
16
22
37
24
19
5
30
18
33
15
57
34
49
54
35
26
11
45
36
51
46

> <PUBCHEM_MMFF94_PARTIAL_CHARGES>
13
1 -0.48
10 0.5
11 0.23
12 0.28
13 0.28
2 1.49
3 -0.55
4 -0.55
5 -0.7
6 -1.01
7 0.5
8 0.5
9 0.5

> <PUBCHEM_EFFECTIVE_ROTOR_COUNT>
8

> <PUBCHEM_PHARMACOPHORE_FEATURES>
2
1 5 acceptor
1 6 cation

> <PUBCHEM_HEAVY_ATOM_COUNT>
15

> <PUBCHEM_ATOM_DEF_STEREO_COUNT>
0

> <PUBCHEM_ATOM_UDEF_STEREO_COUNT>
0

> <PUBCHEM_BOND_DEF_STEREO_COUNT>
0

> <PUBCHEM_BOND_UDEF_STEREO_COUNT>
0

> <PUBCHEM_ISOTOPIC_ATOM_COUNT>
0

> <PUBCHEM_COMPONENT_COUNT>
1

> <PUBCHEM_CACTVS_TAUTO_COUNT>
1

> <PUBCHEM_CONFORMER_ID>
0000293400000001

> <PUBCHEM_MMFF94_ENERGY>
22.7865

> <PUBCHEM_FEATURE_SELFOVERLAP>
10.148

> <PUBCHEM_SHAPE_FINGERPRINT>
10756046 70 17774708759279033533
12500047 106 18408045095554449530
12616971 3 17489874808826151252
12932764 1 17917447414188701368
13081056 2 11312054353326861034
13533116 47 17822853216273616798
14115302 16 18408879629243743304
15242433 33 18410290320152915192
15375358 24 17748545939808874692
17802600 8 10592040258920490398
17834072 14 8358251549483748595
18186145 218 15195289690547744264
19141452 34 18412263925970390039
192875 21 7276825809636655867
200 152 7204771480148464425
20279233 1 17240480299916553556
20645477 56 18342184370715686908
20645477 70 16226040150440604580
20871999 31 18340205172360032834
21618674 57 17676490574611060505
22224240 67 18408600384399278809
23402539 116 18186809097287641741
23503953 91 18341616992914584656
23559900 14 18260552208565181120
366044 4 18408886261274258443

> <PUBCHEM_SHAPE_MULTIPOLES>
293.8
10.94
2.29
1.12
3.44
2.9
0.2
-2.75
-1.04
-2.41
0.1
0.39
-0.38
-0.1

> <PUBCHEM_SHAPE_SELFOVERLAP>
506.572

> <PUBCHEM_SHAPE_VOLUME>
199.5

> <PUBCHEM_COORDINATE_TYPE>
2
5
10

$$$$

