442814
  -OEChem-07051212592D

 41 46  0     1  0  0  0  0  0999 V2000
    2.9180    1.3320    0.0000 O   0  0  0  0  0  0  0  0  0  0  0  0
    2.0000   -1.2164    0.0000 O   0  0  0  0  0  0  0  0  0  0  0  0
    5.5161   -0.1680    0.0000 O   0  0  0  0  0  0  0  0  0  0  0  0
    5.5740   -3.5326    0.0000 O   0  0  0  0  0  0  0  0  0  0  0  0
    4.0684   -4.4174    0.0000 O   0  0  0  0  0  0  0  0  0  0  0  0
    4.8839    4.4135    0.0000 O   0  0  0  0  0  0  0  0  0  0  0  0
    2.8963    3.3635    0.0000 O   0  0  0  0  0  0  0  0  0  0  0  0
    3.7841   -0.1680    0.0000 C   0  0  2  0  0  0  0  0  0  0  0  0
    2.9180    0.3320    0.0000 C   0  0  1  0  0  0  0  0  0  0  0  0
    3.8001   -1.2095    0.0000 C   0  0  0  0  0  0  0  0  0  0  0  0
    2.0080   -0.1748    0.0000 C   0  0  0  0  0  0  0  0  0  0  0  0
    4.6501    0.3320    0.0000 C   0  0  0  0  0  0  0  0  0  0  0  0
    4.6501    1.3320    0.0000 C   0  0  0  0  0  0  0  0  0  0  0  0
    2.9021   -1.7372    0.0000 C   0  0  0  0  0  0  0  0  0  0  0  0
    3.7841    1.8320    0.0000 C   0  0  0  0  0  0  0  0  0  0  0  0
    4.7520   -1.7301    0.0000 C   0  0  0  0  0  0  0  0  0  0  0  0
    2.8937   -2.8222    0.0000 C   0  0  0  0  0  0  0  0  0  0  0  0
    3.7680    2.8735    0.0000 C   0  0  0  0  0  0  0  0  0  0  0  0
    5.5601    1.8388    0.0000 C   0  0  0  0  0  0  0  0  0  0  0  0
    4.7688   -2.8150    0.0000 C   0  0  0  0  0  0  0  0  0  0  0  0
    3.8334   -3.3647    0.0000 C   0  0  0  0  0  0  0  0  0  0  0  0
    5.5681    2.8804    0.0000 C   0  0  0  0  0  0  0  0  0  0  0  0
    4.6660    3.4013    0.0000 C   0  0  0  0  0  0  0  0  0  0  0  0
    6.3358    3.5753    0.0000 C   0  0  0  0  0  0  0  0  0  0  0  0
    5.1420   -4.5209    0.0000 C   0  0  0  0  0  0  0  0  0  0  0  0
    5.9138    4.5209    0.0000 C   0  0  0  0  0  0  0  0  0  0  0  0
    2.8847    4.3634    0.0000 C   0  0  0  0  0  0  0  0  0  0  0  0
    4.5234   -0.5873    0.0000 H   0  0  0  0  0  0  0  0  0  0  0  0
    2.1852    0.7627    0.0000 H   0  0  0  0  0  0  0  0  0  0  0  0
    1.8035    0.4104    0.0000 H   0  0  0  0  0  0  0  0  0  0  0  0
    1.3964   -0.2762    0.0000 H   0  0  0  0  0  0  0  0  0  0  0  0
    5.2829   -1.4098    0.0000 H   0  0  0  0  0  0  0  0  0  0  0  0
    2.3556   -3.1301    0.0000 H   0  0  0  0  0  0  0  0  0  0  0  0
    6.0934    1.5227    0.0000 H   0  0  0  0  0  0  0  0  0  0  0  0
    6.9425    3.4474    0.0000 H   0  0  0  0  0  0  0  0  0  0  0  0
    5.0180   -5.1284    0.0000 H   0  0  0  0  0  0  0  0  0  0  0  0
    5.7331   -4.7081    0.0000 H   0  0  0  0  0  0  0  0  0  0  0  0
    6.2238    5.0578    0.0000 H   0  0  0  0  0  0  0  0  0  0  0  0
    3.5046    4.3706    0.0000 H   0  0  0  0  0  0  0  0  0  0  0  0
    2.8775    4.9834    0.0000 H   0  0  0  0  0  0  0  0  0  0  0  0
    2.2647    4.3562    0.0000 H   0  0  0  0  0  0  0  0  0  0  0  0
  1  9  1  0  0  0  0
  1 15  1  0  0  0  0
  2 11  1  0  0  0  0
  2 14  1  0  0  0  0
  3 12  2  0  0  0  0
  4 20  1  0  0  0  0
  4 25  1  0  0  0  0
  5 21  1  0  0  0  0
  5 25  1  0  0  0  0
  6 23  1  0  0  0  0
  6 26  1  0  0  0  0
  7 18  1  0  0  0  0
  7 27  1  0  0  0  0
  8  9  1  0  0  0  0
  8 10  1  0  0  0  0
  8 12  1  0  0  0  0
  8 28  1  6  0  0  0
  9 11  1  0  0  0  0
  9 29  1  6  0  0  0
 10 14  1  0  0  0  0
 10 16  2  0  0  0  0
 11 30  1  0  0  0  0
 11 31  1  0  0  0  0
 12 13  1  0  0  0  0
 13 15  2  0  0  0  0
 13 19  1  0  0  0  0
 14 17  2  0  0  0  0
 15 18  1  0  0  0  0
 16 20  1  0  0  0  0
 16 32  1  0  0  0  0
 17 21  1  0  0  0  0
 17 33  1  0  0  0  0
 18 23  2  0  0  0  0
 19 22  2  0  0  0  0
 19 34  1  0  0  0  0
 20 21  2  0  0  0  0
 22 23  1  0  0  0  0
 22 24  1  0  0  0  0
 24 26  2  0  0  0  0
 24 35  1  0  0  0  0
 25 36  1  0  0  0  0
 25 37  1  0  0  0  0
 26 38  1  0  0  0  0
 27 39  1  0  0  0  0
 27 40  1  0  0  0  0
 27 41  1  0  0  0  0
M  END
> <PUBCHEM_COMPOUND_CID>
442814

> <PUBCHEM_COMPOUND_CANONICALIZED>
1

> <PUBCHEM_CACTVS_COMPLEXITY>
611

> <PUBCHEM_CACTVS_HBOND_ACCEPTOR>
7

> <PUBCHEM_CACTVS_HBOND_DONOR>
0

> <PUBCHEM_CACTVS_ROTATABLE_BOND>
1

> <PUBCHEM_CACTVS_SUBSKEYS>
AAADccB4OAAAAAAAAAAAAAAAAAAAASJAAAA0aIEAAAAAAEiR9AAAGgAAAAAADRSgmAMyDsAABECIAqhSgAICCAAkIAAIiAFGiMgdJzaENR6iOWKl4BUOqYfK7vzuoQADCAAIQABCAAYQABCAAAAAAAAAAA==

> <PUBCHEM_IUPAC_INCHI>
InChI=1S/C20H14O7/c1-22-20-18-9(2-3-23-18)4-11-17(21)16-10-5-13-14(26-8-25-13)6-12(10)24-7-15(16)27-19(11)20/h2-6,15-16H,7-8H2,1H3/t15-,16+/m1/s1

> <PUBCHEM_IUPAC_INCHIKEY>
RZZBXVGBWLOHHV-CVEARBPZSA-N

> <PUBCHEM_XLOGP3_AA>
3.1

> <PUBCHEM_EXACT_MASS>
366.073953

> <PUBCHEM_MOLECULAR_FORMULA>
C20H14O7

> <PUBCHEM_MOLECULAR_WEIGHT>
366.32096

> <PUBCHEM_OPENEYE_CAN_SMILES>
COC1=C2C(=CC3=C1OC4COC5=CC6=C(C=C5C4C3=O)OCO6)C=CO2

> <PUBCHEM_OPENEYE_ISO_SMILES>
COC1=C2C(=CC3=C1O[C@@H]4COC5=CC6=C(C=C5[C@@H]4C3=O)OCO6)C=CO2

> <PUBCHEM_CACTVS_TPSA>
76.4

> <PUBCHEM_MONOISOTOPIC_WEIGHT>
366.073953

> <PUBCHEM_TOTAL_CHARGE>
0

> <PUBCHEM_HEAVY_ATOM_COUNT>
27

> <PUBCHEM_ATOM_DEF_STEREO_COUNT>
2

> <PUBCHEM_ATOM_UDEF_STEREO_COUNT>
0

> <PUBCHEM_BOND_DEF_STEREO_COUNT>
0

> <PUBCHEM_BOND_UDEF_STEREO_COUNT>
0

> <PUBCHEM_ISOTOPIC_ATOM_COUNT>
0

> <PUBCHEM_COMPONENT_COUNT>
1

> <PUBCHEM_CACTVS_TAUTO_COUNT>
2

> <PUBCHEM_COORDINATE_TYPE>
1
5
255

> <PUBCHEM_BONDANNOTATIONS>
10  14  8
10  16  8
13  15  8
13  19  8
14  17  8
15  18  8
16  20  8
17  21  8
18  23  8
19  22  8
20  21  8
22  23  8
22  24  8
24  26  8
6  23  8
6  26  8
8  28  6
9  29  6

$$$$

