656545
  -OEChem-07051212553D

 45 45  0     1  0  0  0  0  0999 V2000
   -0.6515   -1.5387    1.9224 S   0  0  0  0  0  0  0  0  0  0  0  0
    2.9177    2.9177    1.8987 S   0  0  0  0  0  0  0  0  0  0  0  0
    2.8557   -1.3312   -1.8647 S   0  0  0  0  0  0  0  0  0  0  0  0
   -1.2567    0.4617    0.2566 O   0  0  0  0  0  0  0  0  0  0  0  0
   -5.3165   -0.1760    0.2501 O   0  0  0  0  0  0  0  0  0  0  0  0
   -4.0956    1.5398   -1.7860 O   0  0  0  0  0  0  0  0  0  0  0  0
   -3.5356   -2.3188    0.9970 O   0  0  0  0  0  0  0  0  0  0  0  0
    0.0477    2.2548   -1.3635 O   0  0  0  0  0  0  0  0  0  0  0  0
    2.5757   -1.2531   -0.2585 O   0  0  0  0  0  0  0  0  0  0  0  0
    4.4834   -1.2916   -1.9470 O   0  0  0  0  0  0  0  0  0  0  0  0
    2.3550   -0.1150   -2.4773 O   0  0  0  0  0  0  0  0  0  0  0  0
    2.4232   -2.6319   -2.3405 O   0  0  0  0  0  0  0  0  0  0  0  0
    1.2194   -1.4175    0.0325 N   0  0  0  0  0  0  0  0  0  0  0  0
   -3.9786   -0.3056   -0.2344 C   0  0  1  0  0  0  0  0  0  0  0  0
   -3.4375    1.0741   -0.6109 C   0  0  1  0  0  0  0  0  0  0  0  0
   -3.1377   -0.9541    0.8698 C   0  0  2  0  0  0  0  0  0  0  0  0
   -1.9315    1.0085   -0.8772 C   0  0  1  0  0  0  0  0  0  0  0  0
   -1.6449   -0.8838    0.5325 C   0  0  2  0  0  0  0  0  0  0  0  0
   -1.3434    2.3918   -1.1374 C   0  0  0  0  0  0  0  0  0  0  0  0
    0.9953   -1.3557    1.3072 C   0  0  0  0  0  0  0  0  0  0  0  0
    2.0416   -1.1210    2.3846 C   0  0  0  0  0  0  0  0  0  0  0  0
    2.2517    0.3652    2.6922 C   0  0  0  0  0  0  0  0  0  0  0  0
    2.6942    1.1665    1.4697 C   0  0  0  0  0  0  0  0  0  0  0  0
    3.4691    3.5139    0.2842 C   0  0  0  0  0  0  0  0  0  0  0  0
   -4.0355   -0.9553   -1.1156 H   0  0  0  0  0  0  0  0  0  0  0  0
   -3.6559    1.7876    0.1929 H   0  0  0  0  0  0  0  0  0  0  0  0
   -3.3481   -0.4557    1.8246 H   0  0  0  0  0  0  0  0  0  0  0  0
   -1.7119    0.3777   -1.7495 H   0  0  0  0  0  0  0  0  0  0  0  0
   -1.4275   -1.5135   -0.3392 H   0  0  0  0  0  0  0  0  0  0  0  0
   -1.7971    2.8632   -2.0143 H   0  0  0  0  0  0  0  0  0  0  0  0
   -1.4764    3.0422   -0.2665 H   0  0  0  0  0  0  0  0  0  0  0  0
   -5.3031    0.4165    1.0211 H   0  0  0  0  0  0  0  0  0  0  0  0
   -3.9025    0.9156   -2.5062 H   0  0  0  0  0  0  0  0  0  0  0  0
   -3.3393   -2.7691    0.1577 H   0  0  0  0  0  0  0  0  0  0  0  0
    1.7420   -1.6370    3.3049 H   0  0  0  0  0  0  0  0  0  0  0  0
    2.9906   -1.5770    2.0813 H   0  0  0  0  0  0  0  0  0  0  0  0
    0.4011    3.1460   -1.5255 H   0  0  0  0  0  0  0  0  0  0  0  0
    3.0025    0.4490    3.4880 H   0  0  0  0  0  0  0  0  0  0  0  0
    1.3163    0.7822    3.0867 H   0  0  0  0  0  0  0  0  0  0  0  0
    3.6416    0.7761    1.0855 H   0  0  0  0  0  0  0  0  0  0  0  0
    1.9386    1.1255    0.6813 H   0  0  0  0  0  0  0  0  0  0  0  0
    2.7008    3.3357   -0.4722 H   0  0  0  0  0  0  0  0  0  0  0  0
    3.6561    4.5894    0.3419 H   0  0  0  0  0  0  0  0  0  0  0  0
    4.3966    3.0157   -0.0097 H   0  0  0  0  0  0  0  0  0  0  0  0
    4.8608   -1.3269   -2.8572 H   0  0  0  0  0  0  0  0  0  0  0  0
  1 18  1  0  0  0  0
  1 20  1  0  0  0  0
  2 23  1  0  0  0  0
  2 24  1  0  0  0  0
  3  9  1  0  0  0  0
  3 10  1  0  0  0  0
  3 11  2  0  0  0  0
  3 12  2  0  0  0  0
  4 17  1  0  0  0  0
  4 18  1  0  0  0  0
  5 14  1  0  0  0  0
  5 32  1  0  0  0  0
  6 15  1  0  0  0  0
  6 33  1  0  0  0  0
  7 16  1  0  0  0  0
  7 34  1  0  0  0  0
  8 19  1  0  0  0  0
  8 37  1  0  0  0  0
  9 13  1  0  0  0  0
 10 45  1  0  0  0  0
 13 20  2  0  0  0  0
 14 15  1  0  0  0  0
 14 16  1  0  0  0  0
 14 25  1  0  0  0  0
 15 17  1  0  0  0  0
 15 26  1  0  0  0  0
 16 18  1  0  0  0  0
 16 27  1  0  0  0  0
 17 19  1  0  0  0  0
 17 28  1  0  0  0  0
 18 29  1  0  0  0  0
 19 30  1  0  0  0  0
 19 31  1  0  0  0  0
 20 21  1  0  0  0  0
 21 22  1  0  0  0  0
 21 35  1  0  0  0  0
 21 36  1  0  0  0  0
 22 23  1  0  0  0  0
 22 38  1  0  0  0  0
 22 39  1  0  0  0  0
 23 40  1  0  0  0  0
 23 41  1  0  0  0  0
 24 42  1  0  0  0  0
 24 43  1  0  0  0  0
 24 44  1  0  0  0  0
M  END
> <PUBCHEM_COMPOUND_CID>
656545

> <PUBCHEM_CONFORMER_RMSD>
1

> <PUBCHEM_CONFORMER_DIVERSEORDER>
1
25
17
35
40
31
39
43
8
18
41
34
19
27
5
42
44
38
10
32
11
37
29
36
7
12
22
16
24
30
28
20
26
6
23
9
2
15
14
33
21
4
13
3

> <PUBCHEM_MMFF94_PARTIAL_CHARGES>
28
1 -0.37
10 -0.68
11 -0.65
12 -0.65
13 -0.51
14 0.28
15 0.28
16 0.28
17 0.28
18 0.51
19 0.28
2 -0.46
20 0.53
21 0.06
23 0.23
24 0.23
3 1.67
32 0.4
33 0.4
34 0.4
37 0.4
4 -0.56
45 0.5
5 -0.68
6 -0.68
7 -0.68
8 -0.68
9 -0.12

> <PUBCHEM_EFFECTIVE_ROTOR_COUNT>
10.2

> <PUBCHEM_PHARMACOPHORE_FEATURES>
17
1 10 acceptor
1 11 acceptor
1 12 acceptor
1 13 acceptor
1 24 hydrophobe
1 4 acceptor
1 5 acceptor
1 5 donor
1 6 acceptor
1 6 donor
1 7 acceptor
1 7 donor
1 8 acceptor
1 8 donor
4 2 21 22 23 hydrophobe
4 3 10 11 12 anion
6 4 14 15 16 17 18 rings

> <PUBCHEM_HEAVY_ATOM_COUNT>
24

> <PUBCHEM_ATOM_DEF_STEREO_COUNT>
5

> <PUBCHEM_ATOM_UDEF_STEREO_COUNT>
0

> <PUBCHEM_BOND_DEF_STEREO_COUNT>
0

> <PUBCHEM_BOND_UDEF_STEREO_COUNT>
1

> <PUBCHEM_ISOTOPIC_ATOM_COUNT>
0

> <PUBCHEM_COMPONENT_COUNT>
1

> <PUBCHEM_CACTVS_TAUTO_COUNT>
1

> <PUBCHEM_CONFORMER_ID>
000A04A100000001

> <PUBCHEM_MMFF94_ENERGY>
46.8382

> <PUBCHEM_FEATURE_SELFOVERLAP>
86.341

> <PUBCHEM_SHAPE_FINGERPRINT>
10498660 4 17988354996278162231
12553582 1 18060697274245540779
12633257 1 17628112080227393032
13009979 54 17129311032668661098
1813 80 16226593225937028166
23114952 82 18187079538176539906
23419403 2 17905005263468078386
23526113 38 18189895512167724054
23557571 272 18342746212646375147
23559900 14 18201164367869499078
35225 105 12240989027175662372
3797600 57 15553011382890739424
4409770 3 13814696019365476107
6823239 73 18413107264337404976
7615 1 16559038198725950635
84936 31 17676214554369454756

> <PUBCHEM_SHAPE_MULTIPOLES>
447.65
8.25
3.32
2.8
6.02
1.92
0.36
1.46
1.12
-3.08
0.54
-2.99
-0.98
3.49

> <PUBCHEM_SHAPE_SELFOVERLAP>
845.141

> <PUBCHEM_SHAPE_VOLUME>
278.3

> <PUBCHEM_COORDINATE_TYPE>
2
5
10

$$$$

