248591
  -OEChem-07051213063D

 53 57  0     1  0  0  0  0  0999 V2000
   -4.2848   -0.4047    0.5453 O   0  0  0  0  0  0  0  0  0  0  0  0
   -6.4315   -1.0621    0.0747 O   0  0  0  0  0  0  0  0  0  0  0  0
    6.1680   -0.6531   -1.5950 O   0  0  0  0  0  0  0  0  0  0  0  0
   -1.8103   -0.1437    0.4855 C   0  0  1  0  0  0  0  0  0  0  0  0
   -0.9473    0.9460   -0.1843 C   0  0  2  0  0  0  0  0  0  0  0  0
    0.4777    1.0190    0.3827 C   0  0  1  0  0  0  0  0  0  0  0  0
   -3.1793    0.1215   -0.2058 C   0  0  2  0  0  0  0  0  0  0  0  0
    1.1852   -0.3636    0.1802 C   0  0  2  0  0  0  0  0  0  0  0  0
   -1.1321   -1.4988    0.2258 C   0  0  0  0  0  0  0  0  0  0  0  0
   -1.8183    2.1960   -0.0993 C   0  0  0  0  0  0  0  0  0  0  0  0
   -3.2594    1.6759   -0.2415 C   0  0  0  0  0  0  0  0  0  0  0  0
    0.3191   -1.5262    0.7400 C   0  0  0  0  0  0  0  0  0  0  0  0
    2.6728   -0.3526    0.6973 C   0  0  1  0  0  0  0  0  0  0  0  0
    1.2846    2.1489   -0.2763 C   0  0  0  0  0  0  0  0  0  0  0  0
   -3.3919   -0.4841   -1.5893 C   0  0  0  0  0  0  0  0  0  0  0  0
   -1.9729    0.0419    2.0225 C   0  0  0  0  0  0  0  0  0  0  0  0
    2.7215    2.1882    0.2339 C   0  0  0  0  0  0  0  0  0  0  0  0
    3.3818    0.8443    0.0544 C   0  0  0  0  0  0  0  0  0  0  0  0
   -4.9006   -0.5028   -1.7166 C   0  0  0  0  0  0  0  0  0  0  0  0
    2.7624   -0.2279    2.2350 C   0  0  0  0  0  0  0  0  0  0  0  0
    3.3668   -1.6598    0.3405 C   0  0  0  0  0  0  0  0  0  0  0  0
   -5.3234   -0.7048   -0.2930 C   0  0  0  0  0  0  0  0  0  0  0  0
    4.4995    0.7401   -0.6822 C   0  0  0  0  0  0  0  0  0  0  0  0
    4.4782   -1.7693   -0.3939 C   0  0  0  0  0  0  0  0  0  0  0  0
    5.1343   -0.5681   -0.9405 C   0  0  0  0  0  0  0  0  0  0  0  0
   -0.8491    0.7069   -1.2554 H   0  0  0  0  0  0  0  0  0  0  0  0
    0.4221    1.2454    1.4531 H   0  0  0  0  0  0  0  0  0  0  0  0
    1.2329   -0.5304   -0.9090 H   0  0  0  0  0  0  0  0  0  0  0  0
   -1.0921   -1.7140   -0.8480 H   0  0  0  0  0  0  0  0  0  0  0  0
   -1.7050   -2.3112    0.6884 H   0  0  0  0  0  0  0  0  0  0  0  0
   -1.5774    2.9139   -0.8902 H   0  0  0  0  0  0  0  0  0  0  0  0
   -1.6930    2.7093    0.8608 H   0  0  0  0  0  0  0  0  0  0  0  0
   -3.8836    2.0662    0.5712 H   0  0  0  0  0  0  0  0  0  0  0  0
   -3.6979    2.0438   -1.1758 H   0  0  0  0  0  0  0  0  0  0  0  0
    0.3204   -1.5142    1.8341 H   0  0  0  0  0  0  0  0  0  0  0  0
    0.7481   -2.4898    0.4442 H   0  0  0  0  0  0  0  0  0  0  0  0
    0.8139    3.1178   -0.0728 H   0  0  0  0  0  0  0  0  0  0  0  0
    1.2855    2.0200   -1.3667 H   0  0  0  0  0  0  0  0  0  0  0  0
   -3.0511   -1.5241   -1.6288 H   0  0  0  0  0  0  0  0  0  0  0  0
   -2.9040    0.0626   -2.4014 H   0  0  0  0  0  0  0  0  0  0  0  0
   -2.5581   -0.7820    2.4477 H   0  0  0  0  0  0  0  0  0  0  0  0
   -1.0193    0.0587    2.5558 H   0  0  0  0  0  0  0  0  0  0  0  0
   -2.4914    0.9705    2.2812 H   0  0  0  0  0  0  0  0  0  0  0  0
    2.7391    2.4718    1.2925 H   0  0  0  0  0  0  0  0  0  0  0  0
    3.2647    2.9762   -0.3020 H   0  0  0  0  0  0  0  0  0  0  0  0
   -5.2380   -1.3284   -2.3474 H   0  0  0  0  0  0  0  0  0  0  0  0
   -5.2979    0.4481   -2.0814 H   0  0  0  0  0  0  0  0  0  0  0  0
    2.3637   -1.1148    2.7410 H   0  0  0  0  0  0  0  0  0  0  0  0
    3.8044   -0.1181    2.5623 H   0  0  0  0  0  0  0  0  0  0  0  0
    2.2142    0.6362    2.6218 H   0  0  0  0  0  0  0  0  0  0  0  0
    2.9478   -2.5802    0.7406 H   0  0  0  0  0  0  0  0  0  0  0  0
    4.9696    1.6076   -1.1331 H   0  0  0  0  0  0  0  0  0  0  0  0
    4.9293   -2.7342   -0.5939 H   0  0  0  0  0  0  0  0  0  0  0  0
  1  7  1  0  0  0  0
  1 22  1  0  0  0  0
  2 22  2  0  0  0  0
  3 25  2  0  0  0  0
  4  5  1  0  0  0  0
  4  7  1  0  0  0  0
  4  9  1  0  0  0  0
  4 16  1  0  0  0  0
  5  6  1  0  0  0  0
  5 10  1  0  0  0  0
  5 26  1  0  0  0  0
  6  8  1  0  0  0  0
  6 14  1  0  0  0  0
  6 27  1  0  0  0  0
  7 11  1  0  0  0  0
  7 15  1  0  0  0  0
  8 12  1  0  0  0  0
  8 13  1  0  0  0  0
  8 28  1  0  0  0  0
  9 12  1  0  0  0  0
  9 29  1  0  0  0  0
  9 30  1  0  0  0  0
 10 11  1  0  0  0  0
 10 31  1  0  0  0  0
 10 32  1  0  0  0  0
 11 33  1  0  0  0  0
 11 34  1  0  0  0  0
 12 35  1  0  0  0  0
 12 36  1  0  0  0  0
 13 18  1  0  0  0  0
 13 20  1  0  0  0  0
 13 21  1  0  0  0  0
 14 17  1  0  0  0  0
 14 37  1  0  0  0  0
 14 38  1  0  0  0  0
 15 19  1  0  0  0  0
 15 39  1  0  0  0  0
 15 40  1  0  0  0  0
 16 41  1  0  0  0  0
 16 42  1  0  0  0  0
 16 43  1  0  0  0  0
 17 18  1  0  0  0  0
 17 44  1  0  0  0  0
 17 45  1  0  0  0  0
 18 23  2  0  0  0  0
 19 22  1  0  0  0  0
 19 46  1  0  0  0  0
 19 47  1  0  0  0  0
 20 48  1  0  0  0  0
 20 49  1  0  0  0  0
 20 50  1  0  0  0  0
 21 24  2  0  0  0  0
 21 51  1  0  0  0  0
 23 25  1  0  0  0  0
 23 52  1  0  0  0  0
 24 25  1  0  0  0  0
 24 53  1  0  0  0  0
M  END
> <PUBCHEM_COMPOUND_CID>
248591

> <PUBCHEM_CONFORMER_RMSD>
0.6

> <PUBCHEM_CONFORMER_DIVERSEORDER>
1

> <PUBCHEM_MMFF94_PARTIAL_CHARGES>
16
1 -0.43
13 0.28
17 0.14
18 -0.28
19 0.06
2 -0.57
21 -0.29
22 0.66
23 -0.14
24 -0.14
25 0.54
3 -0.57
51 0.15
52 0.15
53 0.15
7 0.28

> <PUBCHEM_EFFECTIVE_ROTOR_COUNT>
1.8

> <PUBCHEM_PHARMACOPHORE_FEATURES>
7
1 2 acceptor
1 3 acceptor
5 1 7 15 19 22 rings
5 4 5 7 10 11 rings
6 13 18 21 23 24 25 rings
6 4 5 6 8 9 12 rings
6 6 8 13 14 17 18 rings

> <PUBCHEM_HEAVY_ATOM_COUNT>
25

> <PUBCHEM_ATOM_DEF_STEREO_COUNT>
6

> <PUBCHEM_ATOM_UDEF_STEREO_COUNT>
0

> <PUBCHEM_BOND_DEF_STEREO_COUNT>
0

> <PUBCHEM_BOND_UDEF_STEREO_COUNT>
0

> <PUBCHEM_ISOTOPIC_ATOM_COUNT>
0

> <PUBCHEM_COMPONENT_COUNT>
1

> <PUBCHEM_CACTVS_TAUTO_COUNT>
6

> <PUBCHEM_CONFORMER_ID>
0003CB0F00000001

> <PUBCHEM_MMFF94_ENERGY>
80.475

> <PUBCHEM_FEATURE_SELFOVERLAP>
35.64

> <PUBCHEM_SHAPE_FINGERPRINT>
10366900 7 17918272060514724144
10498660 4 16773794801293920644
10670039 82 18060135487996122548
11089746 13 13110960903303669598
11796584 16 16226044487587271510
11961588 58 16845285013067012618
12011746 2 18130785655056702438
12166972 35 17967811630609222096
12236239 1 17894345554208306561
12403259 415 18040444307914668497
12553582 1 18410583876461140329
12788726 201 18271531982634574129
13224815 77 18202286917680712793
13533116 47 17967532324707027256
13583140 156 15769768044317902681
14347332 77 18261677076846266743
14739800 52 13470415426826569332
14931854 50 18272644693171416166
15142383 8 14562523015893524043
15163728 17 15625117501959638549
15188451 53 14852185987741733653
15196674 1 18340770428626599993
15788980 27 4678812835443549738
16752209 62 18341620359910443080
17349148 13 17894909624620755815
1813 80 18041549330476167068
18222031 100 18334304166373036672
19784866 240 17821441365685676197
19862831 5 18273494572440754272
200 152 18187365428490380897
20645477 70 18342740680781446404
20775438 99 17611499361432709631
20871999 31 18343297111074472868
21033648 29 17703801296926469309
21150785 3 17703784795493254590
21267235 1 18409722955041711343
21637258 2 16371017282501881861
221357 26 18411419518241427772
22393880 68 18271816764556605117
23503953 91 8430308043856872852
23522609 53 17971441122793350321
23559900 14 18338801096153937208
23569914 152 17400389104915840263
2871803 45 18272655644762987992
296302 2 14549017693163214896
312423 11 18408878542743767401
3472631 163 13542456549517307614
34797466 226 16271917225216207591
350125 39 18411416254588788473
4280585 95 17324919752125671286
46194498 28 17988923332284317908
463206 1 17749963162794612167
465052 167 18187078429890439271
474 4 16630229330762239196
5104073 3 18337398226638395673
960060 61 18272651255670207348
9709674 26 18340770355648871528

> <PUBCHEM_SHAPE_MULTIPOLES>
496.88
12.29
2
1.43
2.69
0.75
-0.27
-4.24
4.96
-0.75
0.04
-0.16
-0.27
0.04

> <PUBCHEM_SHAPE_SELFOVERLAP>
1089.958

> <PUBCHEM_SHAPE_VOLUME>
267.9

> <PUBCHEM_COORDINATE_TYPE>
2
5
10

$$$$

