656520
  -OEChem-07051212553D

 35 35  0     1  0  0  0  0  0999 V2000
    0.4475    0.7368   -0.0501 O   0  0  0  0  0  0  0  0  0  0  0  0
   -1.2218   -0.8840   -0.2248 O   0  0  0  0  0  0  0  0  0  0  0  0
    3.3876   -2.0204   -0.8378 O   0  0  0  0  0  0  0  0  0  0  0  0
    4.0821    0.5232    0.3468 O   0  0  0  0  0  0  0  0  0  0  0  0
    0.7355   -2.9027    0.0943 O   0  0  0  0  0  0  0  0  0  0  0  0
    0.9297    3.3125    0.7801 O   0  0  0  0  0  0  0  0  0  0  0  0
   -3.9772   -1.3485    1.6965 N   0  0  0  0  0  0  0  0  0  0  0  0
    2.5058   -1.2659   -0.0051 C   0  0  1  0  0  0  0  0  0  0  0  0
    2.8093    0.2175   -0.2168 C   0  0  1  0  0  0  0  0  0  0  0  0
    1.0575   -1.5919   -0.3700 C   0  0  2  0  0  0  0  0  0  0  0  0
    1.7402    1.0904    0.4448 C   0  0  1  0  0  0  0  0  0  0  0  0
    0.0856   -0.6035    0.2743 C   0  0  1  0  0  0  0  0  0  0  0  0
    1.9571    2.5709    0.1482 C   0  0  0  0  0  0  0  0  0  0  0  0
   -2.1848    0.0016    0.3249 C   0  0  1  0  0  0  0  0  0  0  0  0
   -2.8368    0.7814   -0.7934 C   0  0  0  0  0  0  0  0  0  0  0  0
   -3.1880   -0.7522    1.0895 C   0  0  0  0  0  0  0  0  0  0  0  0
   -3.6108    0.0177   -1.8344 C   0  0  0  0  0  0  0  0  0  0  0  0
   -2.7186    2.1173   -0.8672 C   0  0  0  0  0  0  0  0  0  0  0  0
    2.7264   -1.5582    1.0292 H   0  0  0  0  0  0  0  0  0  0  0  0
    2.8624    0.4311   -1.2920 H   0  0  0  0  0  0  0  0  0  0  0  0
    0.9282   -1.5950   -1.4596 H   0  0  0  0  0  0  0  0  0  0  0  0
    1.7456    0.9583    1.5353 H   0  0  0  0  0  0  0  0  0  0  0  0
    0.0722   -0.7396    1.3648 H   0  0  0  0  0  0  0  0  0  0  0  0
    1.9042    2.7762   -0.9261 H   0  0  0  0  0  0  0  0  0  0  0  0
    2.9202    2.9236    0.5278 H   0  0  0  0  0  0  0  0  0  0  0  0
    3.2513   -2.9612   -0.6354 H   0  0  0  0  0  0  0  0  0  0  0  0
    4.7348   -0.0620   -0.0743 H   0  0  0  0  0  0  0  0  0  0  0  0
    1.2966   -3.5328   -0.3881 H   0  0  0  0  0  0  0  0  0  0  0  0
   -1.7245    0.7016    1.0370 H   0  0  0  0  0  0  0  0  0  0  0  0
    0.0797    2.9827    0.4428 H   0  0  0  0  0  0  0  0  0  0  0  0
   -3.9798    0.6718   -2.6319 H   0  0  0  0  0  0  0  0  0  0  0  0
   -4.4795   -0.4780   -1.3901 H   0  0  0  0  0  0  0  0  0  0  0  0
   -2.9766   -0.7419   -2.3028 H   0  0  0  0  0  0  0  0  0  0  0  0
   -2.1630    2.6793   -0.1246 H   0  0  0  0  0  0  0  0  0  0  0  0
   -3.1794    2.6819   -1.6709 H   0  0  0  0  0  0  0  0  0  0  0  0
  1 11  1  0  0  0  0
  1 12  1  0  0  0  0
  2 12  1  0  0  0  0
  2 14  1  0  0  0  0
  3  8  1  0  0  0  0
  3 26  1  0  0  0  0
  4  9  1  0  0  0  0
  4 27  1  0  0  0  0
  5 10  1  0  0  0  0
  5 28  1  0  0  0  0
  6 13  1  0  0  0  0
  6 30  1  0  0  0  0
  7 16  3  0  0  0  0
  8  9  1  0  0  0  0
  8 10  1  0  0  0  0
  8 19  1  0  0  0  0
  9 11  1  0  0  0  0
  9 20  1  0  0  0  0
 10 12  1  0  0  0  0
 10 21  1  0  0  0  0
 11 13  1  0  0  0  0
 11 22  1  0  0  0  0
 12 23  1  0  0  0  0
 13 24  1  0  0  0  0
 13 25  1  0  0  0  0
 14 15  1  0  0  0  0
 14 16  1  0  0  0  0
 14 29  1  0  0  0  0
 15 17  1  0  0  0  0
 15 18  2  0  0  0  0
 17 31  1  0  0  0  0
 17 32  1  0  0  0  0
 17 33  1  0  0  0  0
 18 34  1  0  0  0  0
 18 35  1  0  0  0  0
M  END
> <PUBCHEM_COMPOUND_CID>
656520

> <PUBCHEM_CONFORMER_RMSD>
0.8

> <PUBCHEM_CONFORMER_DIVERSEORDER>
1
28
46
16
13
18
6
11
45
17
39
43
36
14
7
26
10
38
12
23
29
19
34
47
33
21
40
2
27
8
22
9
35
4
44
3
37
32
15
31
42
20
41
30
5
25
24

> <PUBCHEM_MMFF94_PARTIAL_CHARGES>
24
1 -0.56
10 0.28
11 0.28
12 0.56
13 0.28
14 0.62
15 -0.28
16 0.36
17 0.14
18 -0.3
2 -0.56
26 0.4
27 0.4
28 0.4
3 -0.68
30 0.4
34 0.15
35 0.15
4 -0.68
5 -0.68
6 -0.68
7 -0.56
8 0.28
9 0.28

> <PUBCHEM_EFFECTIVE_ROTOR_COUNT>
5.2

> <PUBCHEM_PHARMACOPHORE_FEATURES>
12
1 1 acceptor
1 2 acceptor
1 3 acceptor
1 3 donor
1 4 acceptor
1 4 donor
1 5 acceptor
1 5 donor
1 6 acceptor
1 6 donor
1 7 acceptor
6 1 8 9 10 11 12 rings

> <PUBCHEM_HEAVY_ATOM_COUNT>
18

> <PUBCHEM_ATOM_DEF_STEREO_COUNT>
6

> <PUBCHEM_ATOM_UDEF_STEREO_COUNT>
0

> <PUBCHEM_BOND_DEF_STEREO_COUNT>
0

> <PUBCHEM_BOND_UDEF_STEREO_COUNT>
0

> <PUBCHEM_ISOTOPIC_ATOM_COUNT>
0

> <PUBCHEM_COMPONENT_COUNT>
1

> <PUBCHEM_CACTVS_TAUTO_COUNT>
1

> <PUBCHEM_CONFORMER_ID>
000A048800000001

> <PUBCHEM_MMFF94_ENERGY>
38.1507

> <PUBCHEM_FEATURE_SELFOVERLAP>
60.953

> <PUBCHEM_SHAPE_FINGERPRINT>
10366900 7 18059282176499184067
104564 63 17829042465941933428
10608611 8 18342741831769228893
116883 192 17395862428144259878
12403259 226 18342173349797878971
12654215 9 18341057431600455334
13140716 1 17976819783800026096
13294875 104 17127362685305881745
13296908 3 18342171206472054634
13583140 156 17273164322091656000
14250199 8 18335994077449328429
14251745 187 18270412688160644044
15219456 202 18342173388520987451
15653759 3 17917987283003327883
16945 1 18335704905685137422
17844478 74 18272641325647718531
18186145 218 18114457877556957902
18219364 16 18411983524909576769
19049666 15 18200594816767498235
200 152 18113626672979261839
20233049 118 18343306968198802460
20645477 70 18188216518930448231
20681677 76 18342181050885152767
21041028 32 18189318225402498353
21524375 3 17975419010180914640
21639500 275 18262244308950796701
22802520 49 18342740736647760773
2334 1 18337107960063732008
23402539 116 18188787149007814550
23526113 38 18341344390886393105
23557571 272 17775286015720966359
238 59 18193020169494593573
25 1 18270124641920393687
2748010 2 18271814458385922933
31174 14 18266727013936695369
6049 1 18272927215777021261
6438718 38 17174060120642458961
77492 1 17167860855125654067
7832392 63 18118414079376408589
81228 2 17399518312833070618

> <PUBCHEM_SHAPE_MULTIPOLES>
330.23
6.8
2.9
1.18
1.71
1.16
0.05
-0.66
0.29
-1.49
-0.3
1.48
-0.15
1.59

> <PUBCHEM_SHAPE_SELFOVERLAP>
661.212

> <PUBCHEM_SHAPE_VOLUME>
190.8

> <PUBCHEM_COORDINATE_TYPE>
2
5
10

$$$$

