442497
  -OEChem-07051212582D

 26 27  0     1  0  0  0  0  0999 V2000
    6.3306    0.2500    0.0000 O   0  0  0  0  0  0  0  0  0  0  0  0
    4.5981   -1.7500    0.0000 O   0  0  0  0  0  0  0  0  0  0  0  0
    5.4641    0.7500    0.0000 C   0  0  2  0  0  0  0  0  0  0  0  0
    5.4641   -0.2500    0.0000 C   0  0  1  0  0  0  0  0  0  0  0  0
    4.5981    1.2500    0.0000 C   0  0  0  0  0  0  0  0  0  0  0  0
    3.7320    0.7500    0.0000 C   0  0  0  0  0  0  0  0  0  0  0  0
    4.5981   -0.7500    0.0000 C   0  0  0  0  0  0  0  0  0  0  0  0
    5.4641    1.7500    0.0000 C   0  0  0  0  0  0  0  0  0  0  0  0
    3.7320   -0.2500    0.0000 C   0  0  0  0  0  0  0  0  0  0  0  0
    2.8660   -0.7500    0.0000 C   0  0  0  0  0  0  0  0  0  0  0  0
    2.0000   -0.2500    0.0000 C   0  0  0  0  0  0  0  0  0  0  0  0
    2.8660   -1.7500    0.0000 C   0  0  0  0  0  0  0  0  0  0  0  0
    5.8890   -0.9862    0.0000 H   0  0  0  0  0  0  0  0  0  0  0  0
    4.9966    1.7250    0.0000 H   0  0  0  0  0  0  0  0  0  0  0  0
    4.1996    1.7250    0.0000 H   0  0  0  0  0  0  0  0  0  0  0  0
    3.5200    1.3326    0.0000 H   0  0  0  0  0  0  0  0  0  0  0  0
    3.1215    0.6423    0.0000 H   0  0  0  0  0  0  0  0  0  0  0  0
    6.0841    1.7500    0.0000 H   0  0  0  0  0  0  0  0  0  0  0  0
    5.4641    2.3700    0.0000 H   0  0  0  0  0  0  0  0  0  0  0  0
    4.8441    1.7500    0.0000 H   0  0  0  0  0  0  0  0  0  0  0  0
    2.3100    0.2869    0.0000 H   0  0  0  0  0  0  0  0  0  0  0  0
    1.4631    0.0600    0.0000 H   0  0  0  0  0  0  0  0  0  0  0  0
    1.6900   -0.7869    0.0000 H   0  0  0  0  0  0  0  0  0  0  0  0
    2.2460   -1.7500    0.0000 H   0  0  0  0  0  0  0  0  0  0  0  0
    2.8660   -2.3700    0.0000 H   0  0  0  0  0  0  0  0  0  0  0  0
    3.4860   -1.7500    0.0000 H   0  0  0  0  0  0  0  0  0  0  0  0
  1  3  1  0  0  0  0
  1  4  1  0  0  0  0
  2  7  2  0  0  0  0
  3  4  1  0  0  0  0
  3  5  1  0  0  0  0
  3  8  1  1  0  0  0
  4  7  1  0  0  0  0
  4 13  1  1  0  0  0
  5  6  1  0  0  0  0
  5 14  1  0  0  0  0
  5 15  1  0  0  0  0
  6  9  1  0  0  0  0
  6 16  1  0  0  0  0
  6 17  1  0  0  0  0
  7  9  1  0  0  0  0
  8 18  1  0  0  0  0
  8 19  1  0  0  0  0
  8 20  1  0  0  0  0
  9 10  2  0  0  0  0
 10 11  1  0  0  0  0
 10 12  1  0  0  0  0
 11 21  1  0  0  0  0
 11 22  1  0  0  0  0
 11 23  1  0  0  0  0
 12 24  1  0  0  0  0
 12 25  1  0  0  0  0
 12 26  1  0  0  0  0
M  END
> <PUBCHEM_COMPOUND_CID>
442497

> <PUBCHEM_COMPOUND_CANONICALIZED>
1

> <PUBCHEM_CACTVS_COMPLEXITY>
274

> <PUBCHEM_CACTVS_HBOND_ACCEPTOR>
2

> <PUBCHEM_CACTVS_HBOND_DONOR>
0

> <PUBCHEM_CACTVS_ROTATABLE_BOND>
0

> <PUBCHEM_CACTVS_SUBSKEYS>
AAADccBwMAAAAAAAAAAAAAAAEgAAAAAAAAAwAAAABIAAAAAAAAAAGgAAAAAADFSggAICAAAABACIAoBQAAIAAAAgAAAACAFAAEgAABYAAAQCAAAE4AAIAQOIzCBOAAAAAAAAAAAAAAAAABAAAAAAAAAAAA==

> <PUBCHEM_IUPAC_OPENEYE_NAME>
(1S,6S)-3-isopropylidene-6-methyl-7-oxabicyclo[4.1.0]heptan-2-one

> <PUBCHEM_IUPAC_CAS_NAME>
(1S,6S)-6-methyl-3-propan-2-ylidene-7-oxabicyclo[4.1.0]heptan-2-one

> <PUBCHEM_IUPAC_NAME>
(1S,6S)-6-methyl-3-propan-2-ylidene-7-oxabicyclo[4.1.0]heptan-2-one

> <PUBCHEM_IUPAC_SYSTEMATIC_NAME>
(1S,6S)-6-methyl-3-propan-2-ylidene-7-oxabicyclo[4.1.0]heptan-2-one

> <PUBCHEM_IUPAC_TRADITIONAL_NAME>
(1S,6S)-3-isopropylidene-6-methyl-7-oxabicyclo[4.1.0]heptan-2-one

> <PUBCHEM_IUPAC_INCHI>
InChI=1S/C10H14O2/c1-6(2)7-4-5-10(3)9(12-10)8(7)11/h9H,4-5H2,1-3H3/t9-,10+/m1/s1

> <PUBCHEM_IUPAC_INCHIKEY>
AKASWINDKIEEBO-ZJUUUORDSA-N

> <PUBCHEM_XLOGP3_AA>
1.8

> <PUBCHEM_EXACT_MASS>
166.09938

> <PUBCHEM_MOLECULAR_FORMULA>
C10H14O2

> <PUBCHEM_MOLECULAR_WEIGHT>
166.21696

> <PUBCHEM_OPENEYE_CAN_SMILES>
CC(=C1CCC2(C(C1=O)O2)C)C

> <PUBCHEM_OPENEYE_ISO_SMILES>
CC(=C1CC[C@]2([C@@H](C1=O)O2)C)C

> <PUBCHEM_CACTVS_TPSA>
29.6

> <PUBCHEM_MONOISOTOPIC_WEIGHT>
166.09938

> <PUBCHEM_TOTAL_CHARGE>
0

> <PUBCHEM_HEAVY_ATOM_COUNT>
12

> <PUBCHEM_ATOM_DEF_STEREO_COUNT>
2

> <PUBCHEM_ATOM_UDEF_STEREO_COUNT>
0

> <PUBCHEM_BOND_DEF_STEREO_COUNT>
0

> <PUBCHEM_BOND_UDEF_STEREO_COUNT>
0

> <PUBCHEM_ISOTOPIC_ATOM_COUNT>
0

> <PUBCHEM_COMPONENT_COUNT>
1

> <PUBCHEM_CACTVS_TAUTO_COUNT>
5

> <PUBCHEM_COORDINATE_TYPE>
1
5
255

> <PUBCHEM_BONDANNOTATIONS>
3  8  5
4  13  5

$$$$

