443038
  -OEChem-07051213002D

 40 42  0     0  0  0  0  0  0999 V2000
    5.1350    4.5272    0.0000 Cl  0  0  0  0  0  0  0  0  0  0  0  0
    6.8834   -2.5074    0.0000 O   0  0  0  0  0  0  0  0  0  0  0  0
    5.1350   -2.4728    0.0000 O   0  0  0  0  0  0  0  0  0  0  0  0
    2.5369   -0.9728    0.0000 O   0  0  0  0  0  0  0  0  0  0  0  0
    3.4030   -2.4728    0.0000 O   0  0  0  0  0  0  0  0  0  0  0  0
    5.1350    0.5272    0.0000 N   0  0  0  0  0  0  0  0  0  0  0  0
    4.2690    0.0272    0.0000 N   0  0  0  0  0  0  0  0  0  0  0  0
    6.0010    0.0272    0.0000 C   0  0  0  0  0  0  0  0  0  0  0  0
    6.0010   -0.9728    0.0000 C   0  0  0  0  0  0  0  0  0  0  0  0
    6.8950   -1.5074    0.0000 C   0  0  0  0  0  0  0  0  0  0  0  0
    5.1350   -1.4728    0.0000 C   0  0  0  0  0  0  0  0  0  0  0  0
    6.8950    0.5619    0.0000 C   0  0  0  0  0  0  0  0  0  0  0  0
    5.1350    1.5272    0.0000 C   0  0  0  0  0  0  0  0  0  0  0  0
    7.8010   -0.9936    0.0000 C   0  0  0  0  0  0  0  0  0  0  0  0
    4.2690   -0.9728    0.0000 C   0  0  0  0  0  0  0  0  0  0  0  0
    7.8010    0.0481    0.0000 C   0  0  0  0  0  0  0  0  0  0  0  0
    7.7436   -3.0173    0.0000 C   0  0  0  0  0  0  0  0  0  0  0  0
    7.7320   -4.0173    0.0000 C   0  0  0  0  0  0  0  0  0  0  0  0
    6.0010    2.0272    0.0000 C   0  0  0  0  0  0  0  0  0  0  0  0
    4.2690    2.0272    0.0000 C   0  0  0  0  0  0  0  0  0  0  0  0
    8.5922   -4.5272    0.0000 C   0  0  0  0  0  0  0  0  0  0  0  0
    6.0010    3.0272    0.0000 C   0  0  0  0  0  0  0  0  0  0  0  0
    4.2690    3.0272    0.0000 C   0  0  0  0  0  0  0  0  0  0  0  0
    3.4030   -1.4728    0.0000 C   0  0  0  0  0  0  0  0  0  0  0  0
    5.1350    3.5272    0.0000 C   0  0  0  0  0  0  0  0  0  0  0  0
    6.8878    1.1819    0.0000 H   0  0  0  0  0  0  0  0  0  0  0  0
    8.3368   -1.3056    0.0000 H   0  0  0  0  0  0  0  0  0  0  0  0
    8.3368    0.3601    0.0000 H   0  0  0  0  0  0  0  0  0  0  0  0
    8.3529   -3.1320    0.0000 H   0  0  0  0  0  0  0  0  0  0  0  0
    7.9624   -2.4372    0.0000 H   0  0  0  0  0  0  0  0  0  0  0  0
    7.1227   -3.9026    0.0000 H   0  0  0  0  0  0  0  0  0  0  0  0
    7.5133   -4.5974    0.0000 H   0  0  0  0  0  0  0  0  0  0  0  0
    6.5380    1.7172    0.0000 H   0  0  0  0  0  0  0  0  0  0  0  0
    3.7320    1.7172    0.0000 H   0  0  0  0  0  0  0  0  0  0  0  0
    8.2760   -5.0606    0.0000 H   0  0  0  0  0  0  0  0  0  0  0  0
    9.1255   -4.8434    0.0000 H   0  0  0  0  0  0  0  0  0  0  0  0
    8.9084   -3.9939    0.0000 H   0  0  0  0  0  0  0  0  0  0  0  0
    6.5380    3.3372    0.0000 H   0  0  0  0  0  0  0  0  0  0  0  0
    3.7320    3.3372    0.0000 H   0  0  0  0  0  0  0  0  0  0  0  0
    2.0000   -1.2828    0.0000 H   0  0  0  0  0  0  0  0  0  0  0  0
  1 25  1  0  0  0  0
  2 10  1  0  0  0  0
  2 17  1  0  0  0  0
  3 11  2  0  0  0  0
  4 24  1  0  0  0  0
  4 40  1  0  0  0  0
  5 24  2  0  0  0  0
  6  7  1  0  0  0  0
  6  8  1  0  0  0  0
  6 13  1  0  0  0  0
  7 15  2  0  0  0  0
  8  9  2  0  0  0  0
  8 12  1  0  0  0  0
  9 10  1  0  0  0  0
  9 11  1  0  0  0  0
 10 14  2  0  0  0  0
 11 15  1  0  0  0  0
 12 16  2  0  0  0  0
 12 26  1  0  0  0  0
 13 19  2  0  0  0  0
 13 20  1  0  0  0  0
 14 16  1  0  0  0  0
 14 27  1  0  0  0  0
 15 24  1  0  0  0  0
 16 28  1  0  0  0  0
 17 18  1  0  0  0  0
 17 29  1  0  0  0  0
 17 30  1  0  0  0  0
 18 21  1  0  0  0  0
 18 31  1  0  0  0  0
 18 32  1  0  0  0  0
 19 22  1  0  0  0  0
 19 33  1  0  0  0  0
 20 23  2  0  0  0  0
 20 34  1  0  0  0  0
 21 35  1  0  0  0  0
 21 36  1  0  0  0  0
 21 37  1  0  0  0  0
 22 25  2  0  0  0  0
 22 38  1  0  0  0  0
 23 25  1  0  0  0  0
 23 39  1  0  0  0  0
M  END
> <PUBCHEM_COMPOUND_CID>
443038

> <PUBCHEM_COMPOUND_CANONICALIZED>
1

> <PUBCHEM_CACTVS_COMPLEXITY>
545

> <PUBCHEM_CACTVS_HBOND_ACCEPTOR>
6

> <PUBCHEM_CACTVS_HBOND_DONOR>
1

> <PUBCHEM_CACTVS_ROTATABLE_BOND>
5

> <PUBCHEM_CACTVS_SUBSKEYS>
AAADccB7OAAEAAAAAAAAAAAAAAAAAAAAAAAwYIAAAAAAAACBQAAAHgIICAAADA6hmCIyzoIABgCoA6TySASSDAAlJwAYiAEmbsgMJn7Nt5uGeejm6BnI6UeY/a/eAABAAgAKAAAAAIAEABQAAAAAAAAAAA==

> <PUBCHEM_IUPAC_OPENEYE_NAME>
1-(4-chlorophenyl)-4-oxo-5-propoxy-cinnoline-3-carboxylic acid

> <PUBCHEM_IUPAC_CAS_NAME>
1-(4-chlorophenyl)-4-oxo-5-propoxy-3-cinnolinecarboxylic acid

> <PUBCHEM_IUPAC_NAME>
1-(4-chlorophenyl)-4-oxo-5-propoxycinnoline-3-carboxylic acid

> <PUBCHEM_IUPAC_SYSTEMATIC_NAME>
1-(4-chlorophenyl)-4-oxidanylidene-5-propoxy-cinnoline-3-carboxylic acid

> <PUBCHEM_IUPAC_TRADITIONAL_NAME>
1-(4-chlorophenyl)-4-keto-5-propoxy-cinnoline-3-carboxylic acid

> <PUBCHEM_IUPAC_INCHI>
InChI=1S/C18H15ClN2O4/c1-2-10-25-14-5-3-4-13-15(14)17(22)16(18(23)24)20-21(13)12-8-6-11(19)7-9-12/h3-9H,2,10H2,1H3,(H,23,24)

> <PUBCHEM_IUPAC_INCHIKEY>
VFYQJNIDOUTUCX-UHFFFAOYSA-N

> <PUBCHEM_XLOGP3_AA>
5

> <PUBCHEM_EXACT_MASS>
358.072035

> <PUBCHEM_MOLECULAR_FORMULA>
C18H15ClN2O4

> <PUBCHEM_MOLECULAR_WEIGHT>
358.7757

> <PUBCHEM_OPENEYE_CAN_SMILES>
CCCOC1=CC=CC2=C1C(=O)C(=NN2C3=CC=C(C=C3)Cl)C(=O)O

> <PUBCHEM_OPENEYE_ISO_SMILES>
CCCOC1=CC=CC2=C1C(=O)C(=NN2C3=CC=C(C=C3)Cl)C(=O)O

> <PUBCHEM_CACTVS_TPSA>
79.2

> <PUBCHEM_MONOISOTOPIC_WEIGHT>
358.072035

> <PUBCHEM_TOTAL_CHARGE>
0

> <PUBCHEM_HEAVY_ATOM_COUNT>
25

> <PUBCHEM_ATOM_DEF_STEREO_COUNT>
0

> <PUBCHEM_ATOM_UDEF_STEREO_COUNT>
0

> <PUBCHEM_BOND_DEF_STEREO_COUNT>
0

> <PUBCHEM_BOND_UDEF_STEREO_COUNT>
0

> <PUBCHEM_ISOTOPIC_ATOM_COUNT>
0

> <PUBCHEM_COMPONENT_COUNT>
1

> <PUBCHEM_CACTVS_TAUTO_COUNT>
1

> <PUBCHEM_COORDINATE_TYPE>
1
5
255

> <PUBCHEM_BONDANNOTATIONS>
10  14  8
11  15  8
12  16  8
13  19  8
13  20  8
14  16  8
19  22  8
20  23  8
22  25  8
23  25  8
6  7  8
6  8  8
7  15  8
8  12  8
8  9  8
9  10  8
9  11  8

$$$$

