583036
  -OEChem-06241222443D

 72 75  0     1  0  0  0  0  0999 V2000
    0.0209    0.2382    3.0384 O   0  0  0  0  0  0  0  0  0  0  0  0
    0.0193    2.3789   -1.0102 O   0  0  0  0  0  0  0  0  0  0  0  0
   -1.2987    0.3539   -2.2394 O   0  0  0  0  0  0  0  0  0  0  0  0
   -3.5237    0.3550   -1.6639 O   0  0  0  0  0  0  0  0  0  0  0  0
   -4.4010    2.9790    1.0366 O   0  0  0  0  0  0  0  0  0  0  0  0
   -4.4131    0.7134    1.4698 O   0  0  0  0  0  0  0  0  0  0  0  0
    1.1297   -2.5971    1.1924 N   0  0  1  0  0  0  0  0  0  0  0  0
    0.0118   -0.6316    0.8621 N   0  0  0  0  0  0  0  0  0  0  0  0
   -0.4264    0.4537    0.1739 N   0  0  0  0  0  0  0  0  0  0  0  0
   -1.6737   -3.0451    0.4311 N   0  0  0  0  0  0  0  0  0  0  0  0
    0.7766   -2.0218    2.5190 C   0  0  1  0  0  0  0  0  0  0  0  0
    0.4182   -1.8125    0.1606 C   0  0  2  0  0  0  0  0  0  0  0  0
    2.0526   -2.0174    3.3487 C   0  0  0  0  0  0  0  0  0  0  0  0
    2.5901   -2.4698    1.0765 C   0  0  0  0  0  0  0  0  0  0  0  0
    3.0643   -2.7556    2.4872 C   0  0  0  0  0  0  0  0  0  0  0  0
    0.2304   -0.6419    2.2196 C   0  0  0  0  0  0  0  0  0  0  0  0
   -0.7314   -2.6053   -0.4327 C   0  0  0  0  0  0  0  0  0  0  0  0
   -1.8643    0.5285    0.0847 C   0  0  1  0  0  0  0  0  0  0  0  0
    0.4229    1.3956   -0.3867 C   0  0  0  0  0  0  0  0  0  0  0  0
   -0.7624   -2.8371   -1.7984 C   0  0  0  0  0  0  0  0  0  0  0  0
   -2.3864    1.8273    0.7041 C   0  0  0  0  0  0  0  0  0  0  0  0
    1.9131    1.1406   -0.1838 C   0  0  0  0  0  0  0  0  0  0  0  0
   -2.3365    0.4041   -1.3578 C   0  0  0  0  0  0  0  0  0  0  0  0
   -1.8294   -3.5669   -2.3105 C   0  0  0  0  0  0  0  0  0  0  0  0
   -2.6955   -3.7510   -0.1030 C   0  0  0  0  0  0  0  0  0  0  0  0
    2.7837    2.2197   -0.8292 C   0  0  0  0  0  0  0  0  0  0  0  0
   -2.8186   -4.0362   -1.4533 C   0  0  0  0  0  0  0  0  0  0  0  0
   -3.8390    1.7363    1.1226 C   0  0  0  0  0  0  0  0  0  0  0  0
    4.2517    1.9409   -0.6340 C   0  0  0  0  0  0  0  0  0  0  0  0
   -1.6590    0.2345   -3.6197 C   0  0  0  0  0  0  0  0  0  0  0  0
    4.9137    2.4417    0.4871 C   0  0  0  0  0  0  0  0  0  0  0  0
    4.9486    1.1816   -1.5741 C   0  0  0  0  0  0  0  0  0  0  0  0
   -5.7854    3.0554    1.3914 C   0  0  0  0  0  0  0  0  0  0  0  0
   -0.3983    0.1925   -4.4565 C   0  0  0  0  0  0  0  0  0  0  0  0
    6.2724    2.1835    0.6679 C   0  0  0  0  0  0  0  0  0  0  0  0
    6.3074    0.9234   -1.3930 C   0  0  0  0  0  0  0  0  0  0  0  0
    6.9692    1.4245   -0.2720 C   0  0  0  0  0  0  0  0  0  0  0  0
   -6.2539    4.4874    1.2445 C   0  0  0  0  0  0  0  0  0  0  0  0
   -0.0146   -2.6174    2.9872 H   0  0  0  0  0  0  0  0  0  0  0  0
    1.0970   -1.5468   -0.6555 H   0  0  0  0  0  0  0  0  0  0  0  0
    2.4048   -0.9991    3.5507 H   0  0  0  0  0  0  0  0  0  0  0  0
    1.9186   -2.5263    4.3087 H   0  0  0  0  0  0  0  0  0  0  0  0
    2.9988   -3.1837    0.3553 H   0  0  0  0  0  0  0  0  0  0  0  0
    2.9070   -1.4607    0.7906 H   0  0  0  0  0  0  0  0  0  0  0  0
    4.0874   -2.4112    2.6645 H   0  0  0  0  0  0  0  0  0  0  0  0
    3.0240   -3.8319    2.6960 H   0  0  0  0  0  0  0  0  0  0  0  0
   -2.2937   -0.3317    0.6135 H   0  0  0  0  0  0  0  0  0  0  0  0
    0.0149   -2.4732   -2.4608 H   0  0  0  0  0  0  0  0  0  0  0  0
   -2.2875    2.6539   -0.0099 H   0  0  0  0  0  0  0  0  0  0  0  0
   -1.8189    2.0884    1.6053 H   0  0  0  0  0  0  0  0  0  0  0  0
    2.1753    0.1878   -0.6462 H   0  0  0  0  0  0  0  0  0  0  0  0
    2.1232    1.0828    0.8899 H   0  0  0  0  0  0  0  0  0  0  0  0
   -1.8897   -3.7693   -3.3756 H   0  0  0  0  0  0  0  0  0  0  0  0
   -3.4406   -4.0933    0.6074 H   0  0  0  0  0  0  0  0  0  0  0  0
    2.5378    3.2046   -0.4112 H   0  0  0  0  0  0  0  0  0  0  0  0
    2.5637    2.2945   -1.9023 H   0  0  0  0  0  0  0  0  0  0  0  0
   -3.6595   -4.6067   -1.8305 H   0  0  0  0  0  0  0  0  0  0  0  0
   -2.2669    1.0979   -3.9122 H   0  0  0  0  0  0  0  0  0  0  0  0
   -2.2369   -0.6835   -3.7713 H   0  0  0  0  0  0  0  0  0  0  0  0
    4.3810    3.0325    1.2275 H   0  0  0  0  0  0  0  0  0  0  0  0
    4.4433    0.7840   -2.4502 H   0  0  0  0  0  0  0  0  0  0  0  0
   -5.9151    2.7280    2.4290 H   0  0  0  0  0  0  0  0  0  0  0  0
   -6.3682    2.4054    0.7292 H   0  0  0  0  0  0  0  0  0  0  0  0
   -0.6375    0.1044   -5.5199 H   0  0  0  0  0  0  0  0  0  0  0  0
    0.2334   -0.6525   -4.1653 H   0  0  0  0  0  0  0  0  0  0  0  0
    0.1960    1.0992   -4.3015 H   0  0  0  0  0  0  0  0  0  0  0  0
    6.7877    2.5728    1.5412 H   0  0  0  0  0  0  0  0  0  0  0  0
    6.8500    0.3317   -2.1244 H   0  0  0  0  0  0  0  0  0  0  0  0
    8.0271    1.2230   -0.1309 H   0  0  0  0  0  0  0  0  0  0  0  0
   -5.6678    5.1524    1.8875 H   0  0  0  0  0  0  0  0  0  0  0  0
   -6.1135    4.8351    0.2157 H   0  0  0  0  0  0  0  0  0  0  0  0
   -7.3109    4.5822    1.5084 H   0  0  0  0  0  0  0  0  0  0  0  0
  1 16  2  0  0  0  0
  2 19  2  0  0  0  0
  3 23  1  0  0  0  0
  3 30  1  0  0  0  0
  4 23  2  0  0  0  0
  5 28  1  0  0  0  0
  5 33  1  0  0  0  0
  6 28  2  0  0  0  0
  7 11  1  0  0  0  0
  7 12  1  0  0  0  0
  7 14  1  0  0  0  0
  8  9  1  0  0  0  0
  8 12  1  0  0  0  0
  8 16  1  0  0  0  0
  9 18  1  0  0  0  0
  9 19  1  0  0  0  0
 10 17  1  0  0  0  0
 10 25  2  0  0  0  0
 11 13  1  0  0  0  0
 11 16  1  0  0  0  0
 11 39  1  0  0  0  0
 12 17  1  0  0  0  0
 12 40  1  0  0  0  0
 13 15  1  0  0  0  0
 13 41  1  0  0  0  0
 13 42  1  0  0  0  0
 14 15  1  0  0  0  0
 14 43  1  0  0  0  0
 14 44  1  0  0  0  0
 15 45  1  0  0  0  0
 15 46  1  0  0  0  0
 17 20  2  0  0  0  0
 18 21  1  0  0  0  0
 18 23  1  0  0  0  0
 18 47  1  0  0  0  0
 19 22  1  0  0  0  0
 20 24  1  0  0  0  0
 20 48  1  0  0  0  0
 21 28  1  0  0  0  0
 21 49  1  0  0  0  0
 21 50  1  0  0  0  0
 22 26  1  0  0  0  0
 22 51  1  0  0  0  0
 22 52  1  0  0  0  0
 24 27  2  0  0  0  0
 24 53  1  0  0  0  0
 25 27  1  0  0  0  0
 25 54  1  0  0  0  0
 26 29  1  0  0  0  0
 26 55  1  0  0  0  0
 26 56  1  0  0  0  0
 27 57  1  0  0  0  0
 29 31  2  0  0  0  0
 29 32  1  0  0  0  0
 30 34  1  0  0  0  0
 30 58  1  0  0  0  0
 30 59  1  0  0  0  0
 31 35  1  0  0  0  0
 31 60  1  0  0  0  0
 32 36  2  0  0  0  0
 32 61  1  0  0  0  0
 33 38  1  0  0  0  0
 33 62  1  0  0  0  0
 33 63  1  0  0  0  0
 34 64  1  0  0  0  0
 34 65  1  0  0  0  0
 34 66  1  0  0  0  0
 35 37  2  0  0  0  0
 35 67  1  0  0  0  0
 36 37  1  0  0  0  0
 36 68  1  0  0  0  0
 37 69  1  0  0  0  0
 38 70  1  0  0  0  0
 38 71  1  0  0  0  0
 38 72  1  0  0  0  0
M  END
> <PUBCHEM_COMPOUND_CID>
583036

> <PUBCHEM_CONFORMER_RMSD>
1.2

> <PUBCHEM_CONFORMER_DIVERSEORDER>
1
195
406
306
69
104
391
350
206
431
269
7
5
376
119
363
145
358
368
300
462
39
117
297
218
440
266
52
463
303
436
411
169
424
298
253
217
9
214
154
381
80
309
453
90
231
286
76
215
239
281
164
191
410
321
219
43
35
393
466
461
369
284
238
449
232
42
199
402
386
314
28
37
455
351
408
295
162
290
204
242
459
445
257
443
60
248
457
293
418
244
403
343
180
339
107
136
289
46
36
139
385
296
249
326
280
141
26
456
349
417
354
322
379
59
464
405
278
414
370
209
344
111
114
325
347
200
207
223
452
27
152
288
407
44
460
55
315
246
375
183
203
444
222
292
373
415
413
352
153
398
425
247
255
92
302
116
61
365
340
427
123
327
390
15
435
429
82
187
48
378
211
355
87
135
451
240
49
220
377
282
73
147
328
168
434
329
382
361
108
210
64
173
172
12
251
243
442
201
470
62
155
33
454
237
126
447
285
24
301
265
465
133
330
400
177
430
56
167
387
202
65
392
208
458
396
332
367
235
395
276
422
165
254
383
250
93
270
53
170
364
399
259
260
384
348
134
271
291
305
333
129
19
353
224
125
96
156
323
138
91
388
362
311
374
307
437
423
14
304
21
205
32
130
221
189
67
57
433
228
336
335
258
308
181
120
127
143
178
166
319
190
227
113
283
401
142
70
312
380
277
273
196
268
112
366
439
416
174
18
121
317
11
226
262
467
34
158
310
468
446
185
99
159
161
450
45
83
409
157
275
272
192
71
3
316
252
179
438
77
100
469
421
419
72
186
261
234
81
245
394
441
8
144
103
320
106
198
115
140
89
160
102
84
371
346
122
342
318
10
58
151
150
324
184
216
225
287
29
182
118
31
110
345
47
279
274
51
357
40
41
101
264
17
194
131
230
412
146
128
88
109
6
299
331
23
448
360
356
94
78
193
13
256
188
267
2
213
97
233
4
212
420
229
263
105
22
16
471
197
163
74
389
132
341
313
54
236
428
338
241
75
124
334
397
95
137
38
432
63
66
337
98
294
359
79
68
86
85
372
176
175
20
426
50
148
171
30
149
404
25

> <PUBCHEM_MMFF94_PARTIAL_CHARGES>
43
1 -0.57
10 -0.62
11 0.33
12 0.71
14 0.27
16 0.57
17 0.17
18 0.36
19 0.57
2 -0.57
20 -0.15
21 0.06
22 0.06
23 0.66
24 -0.15
25 0.16
26 0.14
27 -0.15
28 0.66
29 -0.14
3 -0.43
30 0.28
31 -0.15
32 -0.15
33 0.28
35 -0.15
36 -0.15
37 -0.15
4 -0.57
48 0.15
5 -0.43
53 0.15
54 0.15
57 0.15
6 -0.57
60 0.15
61 0.15
67 0.15
68 0.15
69 0.15
7 -0.81
8 -0.36
9 -0.36

> <PUBCHEM_EFFECTIVE_ROTOR_COUNT>
15

> <PUBCHEM_PHARMACOPHORE_FEATURES>
10
1 1 acceptor
1 10 acceptor
1 2 acceptor
1 4 acceptor
1 6 acceptor
1 7 cation
5 7 11 13 14 15 rings
5 7 8 11 12 16 rings
6 10 17 20 24 25 27 rings
6 29 31 32 35 36 37 rings

> <PUBCHEM_HEAVY_ATOM_COUNT>
38

> <PUBCHEM_ATOM_DEF_STEREO_COUNT>
0

> <PUBCHEM_ATOM_UDEF_STEREO_COUNT>
3

> <PUBCHEM_BOND_DEF_STEREO_COUNT>
0

> <PUBCHEM_BOND_UDEF_STEREO_COUNT>
0

> <PUBCHEM_ISOTOPIC_ATOM_COUNT>
0

> <PUBCHEM_COMPONENT_COUNT>
1

> <PUBCHEM_CACTVS_TAUTO_COUNT>
2

> <PUBCHEM_CONFORMER_ID>
0008E57C00000001

> <PUBCHEM_MMFF94_ENERGY>
82.6608

> <PUBCHEM_FEATURE_SELFOVERLAP>
51.151

> <PUBCHEM_SHAPE_FINGERPRINT>
10190108 129 17773026454749144219
11445158 3 17912373313833688199
12058002 1 14933274733355362486
12788726 201 17763169255369302516
12977781 61 17460282565196757660
13583140 156 16842496822982604426
14400156 350 17978793737901014693
15219462 58 17318778652812333922
15361156 5 18198041627121560892
15420108 30 18410854399662032681
15439362 3 18116705408152234180
15664445 248 17545586216517241451
21756936 100 18261110759718132697
21987440 362 18266723857236440573
3027735 51 17772771398158111566
3298306 158 17560536070457670532
3411729 13 18128804421135340681
38695281 34 18336534027794915641
4112364 45 18121775291103024953
469060 322 17059780996477045910
5080951 261 18194427519209957164
508706 21 17774720854244944734
563151 248 18267005190056866819

> <PUBCHEM_SHAPE_MULTIPOLES>
726.88
11.7
5.41
3.54
11.37
1.77
1.63
-15.91
-1.35
-6.58
-1.14
-0.67
1.61
-5.03

> <PUBCHEM_SHAPE_SELFOVERLAP>
1538.188

> <PUBCHEM_SHAPE_VOLUME>
405.7

> <PUBCHEM_COORDINATE_TYPE>
2
5
10

$$$$

