5282338
  -OEChem-07051213043D

 61 62  0     0  0  0  0  0  0999 V2000
   -0.6216    3.7318    0.3902 S   0  0  0  0  0  0  0  0  0  0  0  0
    3.7392    2.9444   -0.4866 O   0  0  0  0  0  0  0  0  0  0  0  0
   -6.6291   -0.5340   -1.8353 O   0  0  0  0  0  0  0  0  0  0  0  0
   -7.5381   -1.3705    0.6547 O   0  0  0  0  0  0  0  0  0  0  0  0
   -3.1734   -0.7776    2.4554 O   0  0  0  0  0  0  0  0  0  0  0  0
   -1.3800   -0.7968   -0.3707 O   0  0  0  0  0  0  0  0  0  0  0  0
    6.4031   -0.7592   -0.1855 N   0  0  0  0  0  0  0  0  0  0  0  0
    3.0692    0.7646   -0.8319 N   0  0  0  0  0  0  0  0  0  0  0  0
    0.4928    1.4878   -0.2462 N   0  0  0  0  0  0  0  0  0  0  0  0
   -1.8820    1.4449    0.1569 N   0  0  0  0  0  0  0  0  0  0  0  0
    6.2809   -1.8920   -1.1023 C   0  0  0  0  0  0  0  0  0  0  0  0
    7.1040   -1.1616    1.0335 C   0  0  0  0  0  0  0  0  0  0  0  0
    5.0832   -0.2192    0.1385 C   0  0  0  0  0  0  0  0  0  0  0  0
    4.3811    0.2553   -1.1252 C   0  0  0  0  0  0  0  0  0  0  0  0
    5.4457   -2.9997   -0.4664 C   0  0  0  0  0  0  0  0  0  0  0  0
    7.6715   -2.3980   -1.4724 C   0  0  0  0  0  0  0  0  0  0  0  0
    7.3273    0.0611    1.9178 C   0  0  0  0  0  0  0  0  0  0  0  0
    6.3081   -2.2341    1.7719 C   0  0  0  0  0  0  0  0  0  0  0  0
    2.8398    2.1054   -0.5265 C   0  0  0  0  0  0  0  0  0  0  0  0
    1.4478    2.4619   -0.2183 C   0  0  0  0  0  0  0  0  0  0  0  0
    1.0683    3.7296    0.0981 C   0  0  0  0  0  0  0  0  0  0  0  0
   -0.6558    2.0477    0.0629 C   0  0  0  0  0  0  0  0  0  0  0  0
   -3.5911   -0.3015    0.1423 C   0  0  0  0  0  0  0  0  0  0  0  0
   -2.1701    0.0876   -0.0599 C   0  0  0  0  0  0  0  0  0  0  0  0
   -4.4422   -0.2347   -0.9420 C   0  0  0  0  0  0  0  0  0  0  0  0
   -4.0179   -0.7134    1.3877 C   0  0  0  0  0  0  0  0  0  0  0  0
   -5.7788   -0.5956   -0.7728 C   0  0  0  0  0  0  0  0  0  0  0  0
   -6.2351   -1.0154    0.4768 C   0  0  0  0  0  0  0  0  0  0  0  0
   -5.3547   -1.0744    1.5569 C   0  0  0  0  0  0  0  0  0  0  0  0
   -6.7473   -1.7058   -2.6398 C   0  0  0  0  0  0  0  0  0  0  0  0
   -8.4448   -0.3385    1.0381 C   0  0  0  0  0  0  0  0  0  0  0  0
    5.8409   -1.5825   -2.0544 H   0  0  0  0  0  0  0  0  0  0  0  0
    8.1117   -1.5318    0.8198 H   0  0  0  0  0  0  0  0  0  0  0  0
    5.1920    0.6796    0.7570 H   0  0  0  0  0  0  0  0  0  0  0  0
    4.3928   -0.8562    0.6932 H   0  0  0  0  0  0  0  0  0  0  0  0
    4.1850   -0.5510   -1.8352 H   0  0  0  0  0  0  0  0  0  0  0  0
    4.9671    1.0284   -1.6356 H   0  0  0  0  0  0  0  0  0  0  0  0
    4.5413   -2.7430    0.0840 H   0  0  0  0  0  0  0  0  0  0  0  0
    6.0069   -3.8335   -0.0400 H   0  0  0  0  0  0  0  0  0  0  0  0
    4.9942   -3.5151   -1.3328 H   0  0  0  0  0  0  0  0  0  0  0  0
    8.1584   -2.9773   -0.6814 H   0  0  0  0  0  0  0  0  0  0  0  0
    7.5960   -3.0710   -2.3354 H   0  0  0  0  0  0  0  0  0  0  0  0
    8.3346   -1.5771   -1.7685 H   0  0  0  0  0  0  0  0  0  0  0  0
    7.7323    0.9043    1.3464 H   0  0  0  0  0  0  0  0  0  0  0  0
    8.0628   -0.1749    2.6966 H   0  0  0  0  0  0  0  0  0  0  0  0
    6.4232    0.3904    2.4405 H   0  0  0  0  0  0  0  0  0  0  0  0
    6.6053   -2.1477    2.8314 H   0  0  0  0  0  0  0  0  0  0  0  0
    5.2274   -2.1470    1.8688 H   0  0  0  0  0  0  0  0  0  0  0  0
    6.6570   -3.2491    1.5764 H   0  0  0  0  0  0  0  0  0  0  0  0
    2.2881    0.1145   -0.8319 H   0  0  0  0  0  0  0  0  0  0  0  0
    1.6559    4.6335    0.1760 H   0  0  0  0  0  0  0  0  0  0  0  0
   -2.6479    2.0617    0.4157 H   0  0  0  0  0  0  0  0  0  0  0  0
   -4.0862    0.0930   -1.9150 H   0  0  0  0  0  0  0  0  0  0  0  0
   -5.7171   -1.4034    2.5279 H   0  0  0  0  0  0  0  0  0  0  0  0
   -3.6673   -1.0887    3.2334 H   0  0  0  0  0  0  0  0  0  0  0  0
   -5.7828   -1.9599   -3.0908 H   0  0  0  0  0  0  0  0  0  0  0  0
   -7.4645   -1.5014   -3.4394 H   0  0  0  0  0  0  0  0  0  0  0  0
   -7.1172   -2.5465   -2.0443 H   0  0  0  0  0  0  0  0  0  0  0  0
   -8.4787    0.4473    0.2768 H   0  0  0  0  0  0  0  0  0  0  0  0
   -9.4421   -0.7764    1.1330 H   0  0  0  0  0  0  0  0  0  0  0  0
   -8.1554    0.0864    2.0045 H   0  0  0  0  0  0  0  0  0  0  0  0
  1 21  1  0  0  0  0
  1 22  1  0  0  0  0
  2 19  2  0  0  0  0
  3 27  1  0  0  0  0
  3 30  1  0  0  0  0
  4 28  1  0  0  0  0
  4 31  1  0  0  0  0
  5 26  1  0  0  0  0
  5 55  1  0  0  0  0
  6 24  2  0  0  0  0
  7 11  1  0  0  0  0
  7 12  1  0  0  0  0
  7 13  1  0  0  0  0
  8 14  1  0  0  0  0
  8 19  1  0  0  0  0
  8 50  1  0  0  0  0
  9 20  1  0  0  0  0
  9 22  2  0  0  0  0
 10 22  1  0  0  0  0
 10 24  1  0  0  0  0
 10 52  1  0  0  0  0
 11 15  1  0  0  0  0
 11 16  1  0  0  0  0
 11 32  1  0  0  0  0
 12 17  1  0  0  0  0
 12 18  1  0  0  0  0
 12 33  1  0  0  0  0
 13 14  1  0  0  0  0
 13 34  1  0  0  0  0
 13 35  1  0  0  0  0
 14 36  1  0  0  0  0
 14 37  1  0  0  0  0
 15 38  1  0  0  0  0
 15 39  1  0  0  0  0
 15 40  1  0  0  0  0
 16 41  1  0  0  0  0
 16 42  1  0  0  0  0
 16 43  1  0  0  0  0
 17 44  1  0  0  0  0
 17 45  1  0  0  0  0
 17 46  1  0  0  0  0
 18 47  1  0  0  0  0
 18 48  1  0  0  0  0
 18 49  1  0  0  0  0
 19 20  1  0  0  0  0
 20 21  2  0  0  0  0
 21 51  1  0  0  0  0
 23 24  1  0  0  0  0
 23 25  2  0  0  0  0
 23 26  1  0  0  0  0
 25 27  1  0  0  0  0
 25 53  1  0  0  0  0
 26 29  2  0  0  0  0
 27 28  2  0  0  0  0
 28 29  1  0  0  0  0
 29 54  1  0  0  0  0
 30 56  1  0  0  0  0
 30 57  1  0  0  0  0
 30 58  1  0  0  0  0
 31 59  1  0  0  0  0
 31 60  1  0  0  0  0
 31 61  1  0  0  0  0
M  END
> <PUBCHEM_COMPOUND_CID>
5282338

> <PUBCHEM_CONFORMER_RMSD>
1.2

> <PUBCHEM_CONFORMER_DIVERSEORDER>
2
71
14
27
69
66
36
49
55
45
33
74
50
51
1
40
13
26
37
8
17
34
35
15
52
60
70
53
32
11
43
28
68
57
58
42
9
4
20
25
54
10
23
63
47
12
21
39
59
38
19
44
65
61
30
7
64
3
67
29
5
73
18
41
72
56
48
62
24
22
31
46
6
16

> <PUBCHEM_MMFF94_PARTIAL_CHARGES>
33
1 -0.08
10 -0.49
11 0.27
12 0.27
13 0.27
14 0.3
19 0.72
2 -0.57
20 0.14
21 -0.11
22 0.44
23 0.09
24 0.54
25 -0.15
26 0.08
27 0.08
28 0.08
29 -0.15
3 -0.36
30 0.28
31 0.28
4 -0.36
5 -0.53
50 0.37
51 0.15
52 0.37
53 0.15
54 0.15
55 0.45
6 -0.57
7 -0.81
8 -0.73
9 -0.57

> <PUBCHEM_EFFECTIVE_ROTOR_COUNT>
12

> <PUBCHEM_PHARMACOPHORE_FEATURES>
12
1 10 donor
1 2 acceptor
1 3 acceptor
1 4 acceptor
1 5 donor
1 6 acceptor
1 7 cation
1 8 donor
3 11 15 16 hydrophobe
3 12 17 18 hydrophobe
5 1 9 20 21 22 rings
6 23 25 26 27 28 29 rings

> <PUBCHEM_HEAVY_ATOM_COUNT>
31

> <PUBCHEM_ATOM_DEF_STEREO_COUNT>
0

> <PUBCHEM_ATOM_UDEF_STEREO_COUNT>
0

> <PUBCHEM_BOND_DEF_STEREO_COUNT>
0

> <PUBCHEM_BOND_UDEF_STEREO_COUNT>
0

> <PUBCHEM_ISOTOPIC_ATOM_COUNT>
0

> <PUBCHEM_COMPONENT_COUNT>
1

> <PUBCHEM_CACTVS_TAUTO_COUNT>
22

> <PUBCHEM_CONFORMER_ID>
00509A2200000002

> <PUBCHEM_MMFF94_ENERGY>
115.3423

> <PUBCHEM_FEATURE_SELFOVERLAP>
60.898

> <PUBCHEM_SHAPE_FINGERPRINT>
10 15 5761654784890372869
10669705 162 18341054120175369879
10753850 27 18343302569909646168
10917259 69 18267585896603458541
10981352 41 18186241745293214758
11273773 46 17989488541411674467
11297750 10 18340217335882631916
11410812 94 16271935965033778836
11456790 92 18337376194321129233
11475781 23 11527653186703745478
117089 54 18122896793169266350
12760667 363 18410570703981397677
13533116 47 18334012753322577256
13553644 42 17774730873718234419
1361 87 17917412217068770274
13782708 43 17987515910467347027
13885169 86 9151163264590394606
14216079 64 18413105065308608515
14444916 359 17203602680432851923
14931854 50 17632291320156986090
15183329 4 16558750139642996222
15510800 12 18343016696907335170
15519825 34 15936704674544525343
15685185 35 10735578194607164390
16126227 98 10087628317119840309
18393751 57 6411301204624562317
19301679 30 18261946440157958740
19841028 212 18341889662886410258
20105231 36 15554440779105730881
21315764 119 16343988022036194726
21585481 104 14764353790173762462
21792934 111 18260831505672174041
23559900 14 17774721940333652493
23569943 247 18411703188806672731
3004659 81 18060412522208471628
32027 91 18339642226970617425
3383291 50 18413670205701366506
34797466 226 16629958807477828133
3504750 166 17894908564354872349
3986486 107 12895070773810782682
439807 62 17989202650828541184
4403749 210 7348885582262700645
444735 82 8069766074050548299
4461854 278 17967527974654815118
474113 269 18187369844012089445
6126387 218 18114470028257055673
6697151 62 18339934722670268777
6712543 237 16298383591061927455

> <PUBCHEM_SHAPE_MULTIPOLES>
592.54
26.02
3.68
1.82
1
3.53
-0.12
-24.36
-1.28
-4.53
0.5
1.06
-1.23
-0.31

> <PUBCHEM_SHAPE_SELFOVERLAP>
1222.464

> <PUBCHEM_SHAPE_VOLUME>
345.3

> <PUBCHEM_COORDINATE_TYPE>
2
5
10

$$$$

