9776838
  -OEChem-07051212513D

 17 16  0     0  0  0  0  0  0999 V2000
   -3.1388    1.8111   -0.4199 Cl  0  0  0  0  0  0  0  0  0  0  0  0
    0.4427   -0.8056    1.0677 O   0  0  0  0  0  0  0  0  0  0  0  0
    4.1291    0.6012   -0.4713 O   0  0  0  0  0  0  0  0  0  0  0  0
    2.8419   -1.2578   -0.2728 O   0  0  0  0  0  0  0  0  0  0  0  0
   -3.5030   -0.9745    0.1069 O   0  0  0  0  0  0  0  0  0  0  0  0
   -1.4253   -1.6258   -0.5531 O   0  0  0  0  0  0  0  0  0  0  0  0
    1.8788    0.9253    0.2010 C   0  0  0  0  0  0  0  0  0  0  0  0
    0.5418    0.2988    0.5409 C   0  0  0  0  0  0  0  0  0  0  0  0
   -0.6574    1.1427    0.2630 C   0  0  0  0  0  0  0  0  0  0  0  0
    2.9668   -0.0441   -0.1891 C   0  0  0  0  0  0  0  0  0  0  0  0
   -1.8717    0.6814   -0.0671 C   0  0  0  0  0  0  0  0  0  0  0  0
   -2.2049   -0.7528   -0.2062 C   0  0  0  0  0  0  0  0  0  0  0  0
    1.7425    1.6122   -0.6420 H   0  0  0  0  0  0  0  0  0  0  0  0
    2.2119    1.4865    1.0805 H   0  0  0  0  0  0  0  0  0  0  0  0
   -0.4739    2.2145    0.2911 H   0  0  0  0  0  0  0  0  0  0  0  0
    4.8380   -0.0227   -0.7372 H   0  0  0  0  0  0  0  0  0  0  0  0
   -3.7448   -1.9215    0.0218 H   0  0  0  0  0  0  0  0  0  0  0  0
  1 11  1  0  0  0  0
  2  8  2  0  0  0  0
  3 10  1  0  0  0  0
  3 16  1  0  0  0  0
  4 10  2  0  0  0  0
  5 12  1  0  0  0  0
  5 17  1  0  0  0  0
  6 12  2  0  0  0  0
  7  8  1  0  0  0  0
  7 10  1  0  0  0  0
  7 13  1  0  0  0  0
  7 14  1  0  0  0  0
  8  9  1  0  0  0  0
  9 11  2  0  0  0  0
  9 15  1  0  0  0  0
 11 12  1  0  0  0  0
M  END
> <PUBCHEM_COMPOUND_CID>
9776838

> <PUBCHEM_CONFORMER_RMSD>
0.6

> <PUBCHEM_CONFORMER_DIVERSEORDER>
1
28
44
54
37
46
56
61
30
55
22
49
58
7
63
50
15
25
39
16
48
57
33
17
13
36
47
38
40
3
53
51
6
20
60
43
29
59
34
41
42
24
62
8
32
5
2
10
45
35
52
14
9
27
19
4
21
11
26
12
18
31
23

> <PUBCHEM_MMFF94_PARTIAL_CHARGES>
15
1 -0.14
10 0.66
11 0.15
12 0.71
15 0.15
16 0.5
17 0.5
2 -0.57
3 -0.65
4 -0.57
5 -0.65
6 -0.57
7 0.12
8 0.49
9 -0.14

> <PUBCHEM_EFFECTIVE_ROTOR_COUNT>
4

> <PUBCHEM_PHARMACOPHORE_FEATURES>
8
1 2 acceptor
1 3 acceptor
1 4 acceptor
1 5 acceptor
1 6 acceptor
1 7 anion
3 3 4 10 anion
3 5 6 12 anion

> <PUBCHEM_HEAVY_ATOM_COUNT>
12

> <PUBCHEM_ATOM_DEF_STEREO_COUNT>
0

> <PUBCHEM_ATOM_UDEF_STEREO_COUNT>
0

> <PUBCHEM_BOND_DEF_STEREO_COUNT>
1

> <PUBCHEM_BOND_UDEF_STEREO_COUNT>
0

> <PUBCHEM_ISOTOPIC_ATOM_COUNT>
0

> <PUBCHEM_COMPONENT_COUNT>
1

> <PUBCHEM_CACTVS_TAUTO_COUNT>
3

> <PUBCHEM_CONFORMER_ID>
00952EC600000001

> <PUBCHEM_MMFF94_ENERGY>
22.9247

> <PUBCHEM_FEATURE_SELFOVERLAP>
40.987

> <PUBCHEM_SHAPE_FINGERPRINT>
12186901 62 18412822512627454989
12716758 59 18334584554918414849
12897270 3 18408043996274884720
12932764 1 17822298950532740072
13380535 21 18269836578822521089
14325111 11 18412825806661726856
15775835 57 18201718508844996212
18186145 218 17775004630611579886
18619055 16 18335987583363402276
20201158 50 17894628175529991174
20279233 1 17749685046692705832
20645477 56 18411704308954412041
20653085 51 18201712976863971369
20871999 31 18409733945725988989
21293036 1 17560800987728644048
23402539 116 18131638893972129148
23402655 69 18341327881512545052
23552423 10 18342460326490214432
23559900 14 18187931720598096152
3248919 1 17386004013637203576
528716 315 18410849945527362396
93112 12 18408887347394965348

> <PUBCHEM_SHAPE_MULTIPOLES>
219.48
6.25
1.62
0.76
2.86
0.05
-0.07
-0.49
1.29
-1.11
0.17
0.05
0.02
0.09

> <PUBCHEM_SHAPE_SELFOVERLAP>
426.773

> <PUBCHEM_SHAPE_VOLUME>
131.2

> <PUBCHEM_COORDINATE_TYPE>
2
5
10

$$$$

