47205490
  -OEChem-06241222582D

 34 34  0     0  0  0  0  0  0999 V2000
    6.7500    0.7672    0.0000 O   0  0  0  0  0  0  0  0  0  0  0  0
    2.2788    1.6943    0.0000 O   0  0  0  0  0  0  0  0  0  0  0  0
    4.3126   -0.2620    0.0000 O   0  0  0  0  0  0  0  0  0  0  0  0
    6.2147   -0.8800    0.0000 N   0  0  0  0  0  0  0  0  0  0  0  0
    4.8479    1.3853    0.0000 N   0  0  0  0  0  0  0  0  0  0  0  0
    3.0878    1.1065    0.0000 N   0  0  0  0  0  0  0  0  0  0  0  0
    7.3737   -2.1672    0.0000 C   0  0  0  0  0  0  0  0  0  0  0  0
    7.1658   -1.1890    0.0000 C   0  0  0  0  0  0  0  0  0  0  0  0
    8.3248   -2.4762    0.0000 C   0  0  0  0  0  0  0  0  0  0  0  0
    8.5327   -3.4544    0.0000 C   0  0  0  0  0  0  0  0  0  0  0  0
    5.4716   -1.5492    0.0000 C   0  0  0  0  0  0  0  0  0  0  0  0
    6.0068    0.0981    0.0000 C   0  0  0  0  0  0  0  0  0  0  0  0
    5.0558    0.4071    0.0000 C   0  0  0  0  0  0  0  0  0  0  0  0
    3.8968    1.6943    0.0000 C   0  0  0  0  0  0  0  0  0  0  0  0
    3.5878    2.6454    0.0000 C   0  0  0  0  0  0  0  0  0  0  0  0
    2.5878    2.6454    0.0000 C   0  0  0  0  0  0  0  0  0  0  0  0
    2.0000    3.4544    0.0000 C   0  0  0  0  0  0  0  0  0  0  0  0
    6.7541   -2.1888    0.0000 H   0  0  0  0  0  0  0  0  0  0  0  0
    7.2874   -2.7812    0.0000 H   0  0  0  0  0  0  0  0  0  0  0  0
    7.7854   -1.1674    0.0000 H   0  0  0  0  0  0  0  0  0  0  0  0
    7.2521   -0.5751    0.0000 H   0  0  0  0  0  0  0  0  0  0  0  0
    8.9444   -2.4546    0.0000 H   0  0  0  0  0  0  0  0  0  0  0  0
    8.4110   -1.8622    0.0000 H   0  0  0  0  0  0  0  0  0  0  0  0
    7.9262   -3.5833    0.0000 H   0  0  0  0  0  0  0  0  0  0  0  0
    8.6616   -4.0608    0.0000 H   0  0  0  0  0  0  0  0  0  0  0  0
    9.1391   -3.3255    0.0000 H   0  0  0  0  0  0  0  0  0  0  0  0
    5.0567   -1.0884    0.0000 H   0  0  0  0  0  0  0  0  0  0  0  0
    5.0108   -1.9640    0.0000 H   0  0  0  0  0  0  0  0  0  0  0  0
    5.8864   -2.0099    0.0000 H   0  0  0  0  0  0  0  0  0  0  0  0
    5.3086    1.8001    0.0000 H   0  0  0  0  0  0  0  0  0  0  0  0
    3.9522    3.1469    0.0000 H   0  0  0  0  0  0  0  0  0  0  0  0
    2.5016    3.8188    0.0000 H   0  0  0  0  0  0  0  0  0  0  0  0
    1.6356    3.9560    0.0000 H   0  0  0  0  0  0  0  0  0  0  0  0
    1.4984    3.0899    0.0000 H   0  0  0  0  0  0  0  0  0  0  0  0
  1 12  2  0  0  0  0
  2  6  1  0  0  0  0
  2 16  1  0  0  0  0
  3 13  2  0  0  0  0
  4  8  1  0  0  0  0
  4 11  1  0  0  0  0
  4 12  1  0  0  0  0
  5 13  1  0  0  0  0
  5 14  1  0  0  0  0
  5 30  1  0  0  0  0
  6 14  2  0  0  0  0
  7  8  1  0  0  0  0
  7  9  1  0  0  0  0
  7 18  1  0  0  0  0
  7 19  1  0  0  0  0
  8 20  1  0  0  0  0
  8 21  1  0  0  0  0
  9 10  1  0  0  0  0
  9 22  1  0  0  0  0
  9 23  1  0  0  0  0
 10 24  1  0  0  0  0
 10 25  1  0  0  0  0
 10 26  1  0  0  0  0
 11 27  1  0  0  0  0
 11 28  1  0  0  0  0
 11 29  1  0  0  0  0
 12 13  1  0  0  0  0
 14 15  1  0  0  0  0
 15 16  2  0  0  0  0
 15 31  1  0  0  0  0
 16 17  1  0  0  0  0
 17 32  1  0  0  0  0
 17 33  1  0  0  0  0
 17 34  1  0  0  0  0
M  END
> <PUBCHEM_COMPOUND_CID>
47205490

> <PUBCHEM_COMPOUND_CANONICALIZED>
1

> <PUBCHEM_CACTVS_COMPLEXITY>
283

> <PUBCHEM_CACTVS_HBOND_ACCEPTOR>
4

> <PUBCHEM_CACTVS_HBOND_DONOR>
1

> <PUBCHEM_CACTVS_ROTATABLE_BOND>
4

> <PUBCHEM_CACTVS_SUBSKEYS>
AAADceBzMAAAAAAAAAAAAAAAAAAAAWAAAAAAAAAAAAAAAAABgAAAHgAUAAAACATBkgQztJPQAACpAKNycgCAAAAlIgAhGCG+bFqAZAhAiaAUAIhCFwrAQEAAAAAAAAAAAAAAAAAAAAAAAAAAAAAAAAAAAA==

> <PUBCHEM_IUPAC_OPENEYE_NAME>
N'-butyl-N'-methyl-N-(5-methylisoxazol-3-yl)oxamide

> <PUBCHEM_IUPAC_CAS_NAME>
N'-butyl-N'-methyl-N-(5-methyl-3-isoxazolyl)oxamide

> <PUBCHEM_IUPAC_NAME>
N'-butyl-N'-methyl-N-(5-methyl-1,2-oxazol-3-yl)oxamide

> <PUBCHEM_IUPAC_SYSTEMATIC_NAME>
N'-butyl-N'-methyl-N-(5-methyl-1,2-oxazol-3-yl)ethanediamide

> <PUBCHEM_IUPAC_TRADITIONAL_NAME>
N'-butyl-N'-methyl-N-(5-methylisoxazol-3-yl)oxamide

> <PUBCHEM_IUPAC_INCHI>
InChI=1S/C11H17N3O3/c1-4-5-6-14(3)11(16)10(15)12-9-7-8(2)17-13-9/h7H,4-6H2,1-3H3,(H,12,13,15)

> <PUBCHEM_IUPAC_INCHIKEY>
GFFIOTKSLZHDSF-UHFFFAOYSA-N

> <PUBCHEM_XLOGP3_AA>
1.4

> <PUBCHEM_EXACT_MASS>
239.126991

> <PUBCHEM_MOLECULAR_FORMULA>
C11H17N3O3

> <PUBCHEM_MOLECULAR_WEIGHT>
239.27098

> <PUBCHEM_OPENEYE_CAN_SMILES>
CCCCN(C)C(=O)C(=O)NC1=NOC(=C1)C

> <PUBCHEM_OPENEYE_ISO_SMILES>
CCCCN(C)C(=O)C(=O)NC1=NOC(=C1)C

> <PUBCHEM_CACTVS_TPSA>
75.4

> <PUBCHEM_MONOISOTOPIC_WEIGHT>
239.126991

> <PUBCHEM_TOTAL_CHARGE>
0

> <PUBCHEM_HEAVY_ATOM_COUNT>
17

> <PUBCHEM_ATOM_DEF_STEREO_COUNT>
0

> <PUBCHEM_ATOM_UDEF_STEREO_COUNT>
0

> <PUBCHEM_BOND_DEF_STEREO_COUNT>
0

> <PUBCHEM_BOND_UDEF_STEREO_COUNT>
0

> <PUBCHEM_ISOTOPIC_ATOM_COUNT>
0

> <PUBCHEM_COMPONENT_COUNT>
1

> <PUBCHEM_CACTVS_TAUTO_COUNT>
8

> <PUBCHEM_COORDINATE_TYPE>
1
5
255

> <PUBCHEM_BONDANNOTATIONS>
14  15  8
15  16  8
2  16  8
2  6  8
6  14  8

$$$$

