11954086
  -OEChem-07051213062D

 63 66  0     1  0  0  0  0  0999 V2000
   10.8814    0.9653    0.0000 O   0  0  0  0  0  0  0  0  0  0  0  0
   11.8970   -0.4378    0.0000 O   0  0  0  0  0  0  0  0  0  0  0  0
    3.7320   -2.9782    0.0000 O   0  0  0  0  0  0  0  0  0  0  0  0
    2.8718   -1.4749    0.0000 O   0  0  0  0  0  0  0  0  0  0  0  0
    9.1251    0.0741    0.0000 C   0  0  1  0  0  0  0  0  0  0  0  0
    9.1251   -0.9259    0.0000 C   0  0  2  0  0  0  0  0  0  0  0  0
   10.0713    0.3789    0.0000 C   0  0  2  0  0  0  0  0  0  0  0  0
    8.2591   -1.4259    0.0000 C   0  0  1  0  0  0  0  0  0  0  0  0
   10.0713   -1.2306    0.0000 C   0  0  0  0  0  0  0  0  0  0  0  0
    8.2591    0.5741    0.0000 C   0  0  0  0  0  0  0  0  0  0  0  0
    7.3931   -0.9259    0.0000 C   0  0  2  0  0  0  0  0  0  0  0  0
   10.6550   -0.4259    0.0000 C   0  0  0  0  0  0  0  0  0  0  0  0
    7.3931    0.0741    0.0000 C   0  0  0  0  0  0  0  0  0  0  0  0
    9.1251    1.0741    0.0000 C   0  0  0  0  0  0  0  0  0  0  0  0
    8.2752   -2.4674    0.0000 C   0  0  0  0  0  0  0  0  0  0  0  0
    9.7640    1.3305    0.0000 C   0  0  0  0  0  0  0  0  0  0  0  0
    6.4831   -1.4327    0.0000 C   0  0  0  0  0  0  0  0  0  0  0  0
    7.3771   -2.9951    0.0000 C   0  0  0  0  0  0  0  0  0  0  0  0
    6.4750   -2.4743    0.0000 C   0  0  0  0  0  0  0  0  0  0  0  0
   10.4344    2.0724    0.0000 C   0  0  0  0  0  0  0  0  0  0  0  0
    5.5562   -0.8686    0.0000 C   0  0  0  0  0  0  0  0  0  0  0  0
   11.7942    0.5569    0.0000 C   0  0  0  0  0  0  0  0  0  0  0  0
    5.5396   -3.0240    0.0000 C   0  0  0  0  0  0  0  0  0  0  0  0
   10.1270    3.0240    0.0000 C   0  0  0  0  0  0  0  0  0  0  0  0
    4.6084   -1.3966    0.0000 C   0  0  0  0  0  0  0  0  0  0  0  0
    4.6000   -2.4815    0.0000 C   0  0  0  0  0  0  0  0  0  0  0  0
   12.6042    1.1433    0.0000 C   0  0  0  0  0  0  0  0  0  0  0  0
    2.8680   -2.4749    0.0000 C   0  0  0  0  0  0  0  0  0  0  0  0
    2.0000   -2.9715    0.0000 C   0  0  0  0  0  0  0  0  0  0  0  0
    9.2151   -1.7711    0.0000 H   0  0  0  0  0  0  0  0  0  0  0  0
    8.9985   -1.8452    0.0000 H   0  0  0  0  0  0  0  0  0  0  0  0
    9.8203   -1.7975    0.0000 H   0  0  0  0  0  0  0  0  0  0  0  0
   10.6087   -1.5398    0.0000 H   0  0  0  0  0  0  0  0  0  0  0  0
    8.6576    1.0491    0.0000 H   0  0  0  0  0  0  0  0  0  0  0  0
    7.8606    1.0491    0.0000 H   0  0  0  0  0  0  0  0  0  0  0  0
    8.1292   -0.5009    0.0000 H   0  0  0  0  0  0  0  0  0  0  0  0
   11.1158   -0.8406    0.0000 H   0  0  0  0  0  0  0  0  0  0  0  0
   11.1158   -0.0111    0.0000 H   0  0  0  0  0  0  0  0  0  0  0  0
    7.1810    0.6567    0.0000 H   0  0  0  0  0  0  0  0  0  0  0  0
    6.7825   -0.0335    0.0000 H   0  0  0  0  0  0  0  0  0  0  0  0
    9.7451    1.0741    0.0000 H   0  0  0  0  0  0  0  0  0  0  0  0
    9.1251    1.6941    0.0000 H   0  0  0  0  0  0  0  0  0  0  0  0
    8.5051    1.0741    0.0000 H   0  0  0  0  0  0  0  0  0  0  0  0
    8.4932   -3.0478    0.0000 H   0  0  0  0  0  0  0  0  0  0  0  0
    8.8843   -2.3519    0.0000 H   0  0  0  0  0  0  0  0  0  0  0  0
    9.3831    1.8197    0.0000 H   0  0  0  0  0  0  0  0  0  0  0  0
    9.2160    1.0403    0.0000 H   0  0  0  0  0  0  0  0  0  0  0  0
    6.9798   -3.4711    0.0000 H   0  0  0  0  0  0  0  0  0  0  0  0
    7.7781   -3.4680    0.0000 H   0  0  0  0  0  0  0  0  0  0  0  0
   10.8153    1.5832    0.0000 H   0  0  0  0  0  0  0  0  0  0  0  0
   10.9823    2.3626    0.0000 H   0  0  0  0  0  0  0  0  0  0  0  0
    5.5682   -0.2487    0.0000 H   0  0  0  0  0  0  0  0  0  0  0  0
    5.5420   -3.6440    0.0000 H   0  0  0  0  0  0  0  0  0  0  0  0
   10.7170    3.2146    0.0000 H   0  0  0  0  0  0  0  0  0  0  0  0
    9.9364    3.6140    0.0000 H   0  0  0  0  0  0  0  0  0  0  0  0
    9.5370    2.8335    0.0000 H   0  0  0  0  0  0  0  0  0  0  0  0
    4.0750   -1.0804    0.0000 H   0  0  0  0  0  0  0  0  0  0  0  0
   12.9678    0.6411    0.0000 H   0  0  0  0  0  0  0  0  0  0  0  0
   13.1065    1.5069    0.0000 H   0  0  0  0  0  0  0  0  0  0  0  0
   12.2407    1.6455    0.0000 H   0  0  0  0  0  0  0  0  0  0  0  0
    1.6921   -2.4334    0.0000 H   0  0  0  0  0  0  0  0  0  0  0  0
    1.4619   -3.2794    0.0000 H   0  0  0  0  0  0  0  0  0  0  0  0
    2.3079   -3.5096    0.0000 H   0  0  0  0  0  0  0  0  0  0  0  0
  7  1  1  1  0  0  0
  1 22  1  0  0  0  0
  2 22  2  0  0  0  0
  3 26  1  0  0  0  0
  3 28  1  0  0  0  0
  4 28  2  0  0  0  0
  5  6  1  0  0  0  0
  5  7  1  0  0  0  0
  5 10  1  0  0  0  0
  5 14  1  1  0  0  0
  6  8  1  0  0  0  0
  6  9  1  0  0  0  0
  6 30  1  6  0  0  0
  7 12  1  0  0  0  0
  7 16  1  0  0  0  0
  8 11  1  0  0  0  0
  8 15  1  0  0  0  0
  8 31  1  1  0  0  0
  9 12  1  0  0  0  0
  9 32  1  0  0  0  0
  9 33  1  0  0  0  0
 10 13  1  0  0  0  0
 10 34  1  0  0  0  0
 10 35  1  0  0  0  0
 11 13  1  0  0  0  0
 11 17  1  0  0  0  0
 11 36  1  6  0  0  0
 12 37  1  0  0  0  0
 12 38  1  0  0  0  0
 13 39  1  0  0  0  0
 13 40  1  0  0  0  0
 14 41  1  0  0  0  0
 14 42  1  0  0  0  0
 14 43  1  0  0  0  0
 15 18  1  0  0  0  0
 15 44  1  0  0  0  0
 15 45  1  0  0  0  0
 16 20  1  0  0  0  0
 16 46  1  0  0  0  0
 16 47  1  0  0  0  0
 17 19  2  0  0  0  0
 17 21  1  0  0  0  0
 18 19  1  0  0  0  0
 18 48  1  0  0  0  0
 18 49  1  0  0  0  0
 19 23  1  0  0  0  0
 20 24  1  0  0  0  0
 20 50  1  0  0  0  0
 20 51  1  0  0  0  0
 21 25  2  0  0  0  0
 21 52  1  0  0  0  0
 22 27  1  0  0  0  0
 23 26  2  0  0  0  0
 23 53  1  0  0  0  0
 24 54  1  0  0  0  0
 24 55  1  0  0  0  0
 24 56  1  0  0  0  0
 25 26  1  0  0  0  0
 25 57  1  0  0  0  0
 27 58  1  0  0  0  0
 27 59  1  0  0  0  0
 27 60  1  0  0  0  0
 28 29  1  0  0  0  0
 29 61  1  0  0  0  0
 29 62  1  0  0  0  0
 29 63  1  0  0  0  0
M  END
> <PUBCHEM_COMPOUND_CID>
11954086

> <PUBCHEM_COMPOUND_CANONICALIZED>
1

> <PUBCHEM_CACTVS_COMPLEXITY>
645

> <PUBCHEM_CACTVS_HBOND_ACCEPTOR>
4

> <PUBCHEM_CACTVS_HBOND_DONOR>
0

> <PUBCHEM_CACTVS_ROTATABLE_BOND>
6

> <PUBCHEM_CACTVS_SUBSKEYS>
AAADcfB4OAAAAAAAAAAAAAAAAAAAAYAAAAAwYMAAAAAAAGDBAAAAGgAAAAAAD0SAmAAyDoAABACIAiDSCAACCAAgIAAIiAAGCIgMJiKEMRqCOiCkwBEIqAeAwPAPoAABAAAQAADAAAYAACAAAYAADAAAAA==

> <PUBCHEM_IUPAC_OPENEYE_NAME>
[(8R,9S,13S,14S,17S)-17-acetoxy-13-methyl-17-propyl-7,8,9,11,12,14,15,16-octahydro-6H-cyclopenta[a]phenanthren-3-yl] acetate

> <PUBCHEM_IUPAC_CAS_NAME>
acetic acid [(8R,9S,13S,14S,17S)-17-acetyloxy-13-methyl-17-propyl-7,8,9,11,12,14,15,16-octahydro-6H-cyclopenta[a]phenanthren-3-yl] ester

> <PUBCHEM_IUPAC_NAME>
[(8R,9S,13S,14S,17S)-17-acetyloxy-13-methyl-17-propyl-7,8,9,11,12,14,15,16-octahydro-6H-cyclopenta[a]phenanthren-3-yl] acetate

> <PUBCHEM_IUPAC_SYSTEMATIC_NAME>
[(8R,9S,13S,14S,17S)-17-acetyloxy-13-methyl-17-propyl-7,8,9,11,12,14,15,16-octahydro-6H-cyclopenta[a]phenanthren-3-yl] ethanoate

> <PUBCHEM_IUPAC_TRADITIONAL_NAME>
acetic acid [(8R,9S,13S,14S,17S)-17-acetoxy-13-methyl-17-propyl-7,8,9,11,12,14,15,16-octahydro-6H-cyclopenta[a]phenanthren-3-yl] ester

> <PUBCHEM_IUPAC_INCHI>
InChI=1S/C25H34O4/c1-5-12-25(29-17(3)27)14-11-23-22-8-6-18-15-19(28-16(2)26)7-9-20(18)21(22)10-13-24(23,25)4/h7,9,15,21-23H,5-6,8,10-14H2,1-4H3/t21-,22-,23+,24+,25+/m1/s1

> <PUBCHEM_IUPAC_INCHIKEY>
LQDKHUPZQHCHDD-VAFBSOEGSA-N

> <PUBCHEM_XLOGP3_AA>
5.7

> <PUBCHEM_EXACT_MASS>
398.24571

> <PUBCHEM_MOLECULAR_FORMULA>
C25H34O4

> <PUBCHEM_MOLECULAR_WEIGHT>
398.53506

> <PUBCHEM_OPENEYE_CAN_SMILES>
CCCC1(CCC2C1(CCC3C2CCC4=C3C=CC(=C4)OC(=O)C)C)OC(=O)C

> <PUBCHEM_OPENEYE_ISO_SMILES>
CCC[C@@]1(CC[C@@H]2[C@@]1(CC[C@H]3[C@H]2CCC4=C3C=CC(=C4)OC(=O)C)C)OC(=O)C

> <PUBCHEM_CACTVS_TPSA>
52.6

> <PUBCHEM_MONOISOTOPIC_WEIGHT>
398.24571

> <PUBCHEM_TOTAL_CHARGE>
0

> <PUBCHEM_HEAVY_ATOM_COUNT>
29

> <PUBCHEM_ATOM_DEF_STEREO_COUNT>
5

> <PUBCHEM_ATOM_UDEF_STEREO_COUNT>
0

> <PUBCHEM_BOND_DEF_STEREO_COUNT>
0

> <PUBCHEM_BOND_UDEF_STEREO_COUNT>
0

> <PUBCHEM_ISOTOPIC_ATOM_COUNT>
0

> <PUBCHEM_COMPONENT_COUNT>
1

> <PUBCHEM_CACTVS_TAUTO_COUNT>
1

> <PUBCHEM_COORDINATE_TYPE>
1
5
255

> <PUBCHEM_BONDANNOTATIONS>
7  1  5
11  36  6
17  19  8
17  21  8
19  23  8
21  25  8
23  26  8
25  26  8
5  14  5
6  30  6
8  31  5

$$$$

