10760
  -OEChem-06261204552D

 34 34  0     0  0  0  0  0  0999 V2000
    3.8660   -1.0000    0.0000 O   0  0  0  0  0  0  0  0  0  0  0  0
    6.4641   -0.5000    0.0000 O   0  0  0  0  0  0  0  0  0  0  0  0
    3.8660    2.0000    0.0000 O   0  0  0  0  0  0  0  0  0  0  0  0
    5.5981   -2.0000    0.0000 O   0  0  0  0  0  0  0  0  0  0  0  0
    3.0000   -0.5000    0.0000 C   0  0  0  0  0  0  0  0  0  0  0  0
    3.0000    0.5000    0.0000 C   0  0  0  0  0  0  0  0  0  0  0  0
    2.0000   -0.5000    0.0000 C   0  0  0  0  0  0  0  0  0  0  0  0
    2.5000   -1.3660    0.0000 C   0  0  0  0  0  0  0  0  0  0  0  0
    3.8660    1.0000    0.0000 C   0  0  0  0  0  0  0  0  0  0  0  0
    4.7320   -0.5000    0.0000 C   0  0  0  0  0  0  0  0  0  0  0  0
    4.7320    0.5000    0.0000 C   0  0  0  0  0  0  0  0  0  0  0  0
    8.1962   -0.5000    0.0000 C   0  0  0  0  0  0  0  0  0  0  0  0
    7.3301   -1.0000    0.0000 C   0  0  0  0  0  0  0  0  0  0  0  0
    5.5981   -1.0000    0.0000 C   0  0  0  0  0  0  0  0  0  0  0  0
    9.0622   -1.0000    0.0000 C   0  0  0  0  0  0  0  0  0  0  0  0
    9.9282   -0.5000    0.0000 C   0  0  0  0  0  0  0  0  0  0  0  0
    2.7880    1.0826    0.0000 H   0  0  0  0  0  0  0  0  0  0  0  0
    2.3894    0.3923    0.0000 H   0  0  0  0  0  0  0  0  0  0  0  0
    1.9631   -1.0560    0.0000 H   0  0  0  0  0  0  0  0  0  0  0  0
    2.1900   -1.9030    0.0000 H   0  0  0  0  0  0  0  0  0  0  0  0
    3.0369   -1.6760    0.0000 H   0  0  0  0  0  0  0  0  0  0  0  0
    2.0000    0.1200    0.0000 H   0  0  0  0  0  0  0  0  0  0  0  0
    1.3800   -0.5000    0.0000 H   0  0  0  0  0  0  0  0  0  0  0  0
    2.0000   -1.1200    0.0000 H   0  0  0  0  0  0  0  0  0  0  0  0
    5.2690    0.8100    0.0000 H   0  0  0  0  0  0  0  0  0  0  0  0
    8.5947   -0.0251    0.0000 H   0  0  0  0  0  0  0  0  0  0  0  0
    7.7976   -0.0251    0.0000 H   0  0  0  0  0  0  0  0  0  0  0  0
    6.9316   -1.4750    0.0000 H   0  0  0  0  0  0  0  0  0  0  0  0
    7.7287   -1.4750    0.0000 H   0  0  0  0  0  0  0  0  0  0  0  0
    8.6636   -1.4750    0.0000 H   0  0  0  0  0  0  0  0  0  0  0  0
    9.4607   -1.4750    0.0000 H   0  0  0  0  0  0  0  0  0  0  0  0
   10.2382   -1.0369    0.0000 H   0  0  0  0  0  0  0  0  0  0  0  0
   10.4651   -0.1900    0.0000 H   0  0  0  0  0  0  0  0  0  0  0  0
    9.6182    0.0369    0.0000 H   0  0  0  0  0  0  0  0  0  0  0  0
  1  5  1  0  0  0  0
  1 10  1  0  0  0  0
  2 13  1  0  0  0  0
  2 14  1  0  0  0  0
  3  9  2  0  0  0  0
  4 14  2  0  0  0  0
  5  6  1  0  0  0  0
  5  7  1  0  0  0  0
  5  8  1  0  0  0  0
  6  9  1  0  0  0  0
  6 17  1  0  0  0  0
  6 18  1  0  0  0  0
  7 22  1  0  0  0  0
  7 23  1  0  0  0  0
  7 24  1  0  0  0  0
  8 19  1  0  0  0  0
  8 20  1  0  0  0  0
  8 21  1  0  0  0  0
  9 11  1  0  0  0  0
 10 11  2  0  0  0  0
 10 14  1  0  0  0  0
 11 25  1  0  0  0  0
 12 13  1  0  0  0  0
 12 15  1  0  0  0  0
 12 26  1  0  0  0  0
 12 27  1  0  0  0  0
 13 28  1  0  0  0  0
 13 29  1  0  0  0  0
 15 16  1  0  0  0  0
 15 30  1  0  0  0  0
 15 31  1  0  0  0  0
 16 32  1  0  0  0  0
 16 33  1  0  0  0  0
 16 34  1  0  0  0  0
M  END
> <PUBCHEM_COMPOUND_CID>
10760

> <PUBCHEM_COMPOUND_CANONICALIZED>
1

> <PUBCHEM_CACTVS_COMPLEXITY>
315

> <PUBCHEM_CACTVS_HBOND_ACCEPTOR>
4

> <PUBCHEM_CACTVS_HBOND_DONOR>
0

> <PUBCHEM_CACTVS_ROTATABLE_BOND>
5

> <PUBCHEM_CACTVS_SUBSKEYS>
AAADceBwOAAAAAAAAAAAAAAAAAAAAAAAAAAgAAAAAAAAAAAAAAAAGgAAAAAADESggAICCAAABACIAKDSCAIACAAgIAAACAFAAEgBBBYAIAQCEAAEoAAKIYIAAAAMAAAAAAAAAAAAAAAAAAAAAAAAAAAAAA==

> <PUBCHEM_IUPAC_OPENEYE_NAME>
butyl 2,2-dimethyl-4-oxo-3H-pyran-6-carboxylate

> <PUBCHEM_IUPAC_CAS_NAME>
2,2-dimethyl-4-oxo-3H-pyran-6-carboxylic acid butyl ester

> <PUBCHEM_IUPAC_NAME>
butyl 2,2-dimethyl-4-oxo-3H-pyran-6-carboxylate

> <PUBCHEM_IUPAC_SYSTEMATIC_NAME>
butyl 2,2-dimethyl-4-oxidanylidene-3H-pyran-6-carboxylate

> <PUBCHEM_IUPAC_TRADITIONAL_NAME>
4-keto-2,2-dimethyl-3H-pyran-6-carboxylic acid butyl ester

> <PUBCHEM_IUPAC_INCHI>
InChI=1S/C12H18O4/c1-4-5-6-15-11(14)10-7-9(13)8-12(2,3)16-10/h7H,4-6,8H2,1-3H3

> <PUBCHEM_IUPAC_INCHIKEY>
OKIJSNGRQAOIGZ-UHFFFAOYSA-N

> <PUBCHEM_XLOGP3_AA>
1.9

> <PUBCHEM_EXACT_MASS>
226.120509

> <PUBCHEM_MOLECULAR_FORMULA>
C12H18O4

> <PUBCHEM_MOLECULAR_WEIGHT>
226.26892

> <PUBCHEM_OPENEYE_CAN_SMILES>
CCCCOC(=O)C1=CC(=O)CC(O1)(C)C

> <PUBCHEM_OPENEYE_ISO_SMILES>
CCCCOC(=O)C1=CC(=O)CC(O1)(C)C

> <PUBCHEM_CACTVS_TPSA>
52.6

> <PUBCHEM_MONOISOTOPIC_WEIGHT>
226.120509

> <PUBCHEM_TOTAL_CHARGE>
0

> <PUBCHEM_HEAVY_ATOM_COUNT>
16

> <PUBCHEM_ATOM_DEF_STEREO_COUNT>
0

> <PUBCHEM_ATOM_UDEF_STEREO_COUNT>
0

> <PUBCHEM_BOND_DEF_STEREO_COUNT>
0

> <PUBCHEM_BOND_UDEF_STEREO_COUNT>
0

> <PUBCHEM_ISOTOPIC_ATOM_COUNT>
0

> <PUBCHEM_COMPONENT_COUNT>
1

> <PUBCHEM_CACTVS_TAUTO_COUNT>
2

> <PUBCHEM_COORDINATE_TYPE>
1
5
255

$$$$

