46174023
  -OEChem-07051213113D

 46 47  0     1  0  0  0  0  0999 V2000
   -0.0769   -0.2777   -0.3863 O   0  0  0  0  0  0  0  0  0  0  0  0
   -1.6396    0.5151    1.2038 O   0  0  0  0  0  0  0  0  0  0  0  0
    1.7193   -1.8101    1.3002 O   0  0  0  0  0  0  0  0  0  0  0  0
    4.4213   -1.7673    0.3474 O   0  0  0  0  0  0  0  0  0  0  0  0
    5.3878    0.8551   -0.1916 O   0  0  0  0  0  0  0  0  0  0  0  0
   -3.9011   -2.2697   -0.8497 O   0  0  0  0  0  0  0  0  0  0  0  0
   -4.3688    0.5355   -1.2714 O   0  0  0  0  0  0  0  0  0  0  0  0
   -2.1704    3.1923    1.2619 O   0  0  0  0  0  0  0  0  0  0  0  0
    0.8678    2.3863   -1.0018 N   0  0  0  0  0  0  0  0  0  0  0  0
   -1.1528   -2.9115   -0.1449 N   0  0  0  0  0  0  0  0  0  0  0  0
    1.2029    0.1886    0.0489 C   0  0  2  0  0  0  0  0  0  0  0  0
    1.7234    1.1969   -0.9849 C   0  0  2  0  0  0  0  0  0  0  0  0
    2.1403   -1.0167    0.1867 C   0  0  1  0  0  0  0  0  0  0  0  0
    3.5920   -0.6050    0.4391 C   0  0  2  0  0  0  0  0  0  0  0  0
    3.1600    1.6180   -0.6773 C   0  0  0  0  0  0  0  0  0  0  0  0
    4.0903    0.4109   -0.5867 C   0  0  1  0  0  0  0  0  0  0  0  0
   -0.9071   -0.6159    0.7227 C   0  0  1  0  0  0  0  0  0  0  0  0
   -1.8792   -1.7430    0.3532 C   0  0  1  0  0  0  0  0  0  0  0  0
   -2.9012   -1.2627   -0.6830 C   0  0  2  0  0  0  0  0  0  0  0  0
   -3.5774    0.0256   -0.2008 C   0  0  1  0  0  0  0  0  0  0  0  0
   -2.5397    1.0665    0.2364 C   0  0  1  0  0  0  0  0  0  0  0  0
   -3.1906    2.2888    0.8781 C   0  0  0  0  0  0  0  0  0  0  0  0
    1.1047    0.6981    1.0194 H   0  0  0  0  0  0  0  0  0  0  0  0
    1.6822    0.7461   -1.9849 H   0  0  0  0  0  0  0  0  0  0  0  0
    2.0631   -1.6653   -0.6939 H   0  0  0  0  0  0  0  0  0  0  0  0
    3.7225   -0.2198    1.4574 H   0  0  0  0  0  0  0  0  0  0  0  0
    3.2045    2.1821    0.2650 H   0  0  0  0  0  0  0  0  0  0  0  0
    3.5332    2.3057   -1.4477 H   0  0  0  0  0  0  0  0  0  0  0  0
    4.1977   -0.0630   -1.5700 H   0  0  0  0  0  0  0  0  0  0  0  0
   -0.3289   -0.9583    1.5827 H   0  0  0  0  0  0  0  0  0  0  0  0
   -2.4242   -2.0464    1.2573 H   0  0  0  0  0  0  0  0  0  0  0  0
   -2.4355   -1.1078   -1.6640 H   0  0  0  0  0  0  0  0  0  0  0  0
   -4.2586   -0.2054    0.6271 H   0  0  0  0  0  0  0  0  0  0  0  0
   -1.9628    1.4139   -0.6276 H   0  0  0  0  0  0  0  0  0  0  0  0
   -0.0655    2.1267   -1.3151 H   0  0  0  0  0  0  0  0  0  0  0  0
    1.2213    3.0526   -1.6875 H   0  0  0  0  0  0  0  0  0  0  0  0
   -3.8673    2.7930    0.1817 H   0  0  0  0  0  0  0  0  0  0  0  0
   -3.7436    2.0070    1.7804 H   0  0  0  0  0  0  0  0  0  0  0  0
   -0.5166   -3.2520    0.5747 H   0  0  0  0  0  0  0  0  0  0  0  0
   -1.8097   -3.6675   -0.3331 H   0  0  0  0  0  0  0  0  0  0  0  0
    1.8420   -1.2840    2.1090 H   0  0  0  0  0  0  0  0  0  0  0  0
    4.3245   -2.1366   -0.5470 H   0  0  0  0  0  0  0  0  0  0  0  0
    5.6943    1.4933   -0.8583 H   0  0  0  0  0  0  0  0  0  0  0  0
   -4.3228   -2.4230    0.0130 H   0  0  0  0  0  0  0  0  0  0  0  0
   -3.7706    0.7747   -1.9998 H   0  0  0  0  0  0  0  0  0  0  0  0
   -2.6057    3.9602    1.6698 H   0  0  0  0  0  0  0  0  0  0  0  0
  1 11  1  0  0  0  0
  1 17  1  0  0  0  0
  2 17  1  0  0  0  0
  2 21  1  0  0  0  0
  3 13  1  0  0  0  0
  3 41  1  0  0  0  0
  4 14  1  0  0  0  0
  4 42  1  0  0  0  0
  5 16  1  0  0  0  0
  5 43  1  0  0  0  0
  6 19  1  0  0  0  0
  6 44  1  0  0  0  0
  7 20  1  0  0  0  0
  7 45  1  0  0  0  0
  8 22  1  0  0  0  0
  8 46  1  0  0  0  0
  9 12  1  0  0  0  0
  9 35  1  0  0  0  0
  9 36  1  0  0  0  0
 10 18  1  0  0  0  0
 10 39  1  0  0  0  0
 10 40  1  0  0  0  0
 11 12  1  0  0  0  0
 11 13  1  0  0  0  0
 11 23  1  0  0  0  0
 12 15  1  0  0  0  0
 12 24  1  0  0  0  0
 13 14  1  0  0  0  0
 13 25  1  0  0  0  0
 14 16  1  0  0  0  0
 14 26  1  0  0  0  0
 15 16  1  0  0  0  0
 15 27  1  0  0  0  0
 15 28  1  0  0  0  0
 16 29  1  0  0  0  0
 17 18  1  0  0  0  0
 17 30  1  0  0  0  0
 18 19  1  0  0  0  0
 18 31  1  0  0  0  0
 19 20  1  0  0  0  0
 19 32  1  0  0  0  0
 20 21  1  0  0  0  0
 20 33  1  0  0  0  0
 21 22  1  0  0  0  0
 21 34  1  0  0  0  0
 22 37  1  0  0  0  0
 22 38  1  0  0  0  0
M  END
> <PUBCHEM_COMPOUND_CID>
46174023

> <PUBCHEM_CONFORMER_RMSD>
0.8

> <PUBCHEM_CONFORMER_DIVERSEORDER>
1
19
20
14
5
15
17
10
3
7
18
16
13
9
12
6
4
2
11
8

> <PUBCHEM_MMFF94_PARTIAL_CHARGES>
31
1 -0.56
10 -0.99
11 0.28
12 0.27
13 0.28
14 0.28
16 0.28
17 0.56
18 0.27
19 0.28
2 -0.56
20 0.28
21 0.28
22 0.28
3 -0.68
35 0.36
36 0.36
39 0.36
4 -0.68
40 0.36
41 0.4
42 0.4
43 0.4
44 0.4
45 0.4
46 0.4
5 -0.68
6 -0.68
7 -0.68
8 -0.68
9 -0.99

> <PUBCHEM_EFFECTIVE_ROTOR_COUNT>
5.4

> <PUBCHEM_PHARMACOPHORE_FEATURES>
20
1 1 acceptor
1 10 cation
1 10 donor
1 2 acceptor
1 3 acceptor
1 3 donor
1 4 acceptor
1 4 donor
1 5 acceptor
1 5 donor
1 6 acceptor
1 6 donor
1 7 acceptor
1 7 donor
1 8 acceptor
1 8 donor
1 9 cation
1 9 donor
6 11 12 13 14 15 16 rings
6 2 17 18 19 20 21 rings

> <PUBCHEM_HEAVY_ATOM_COUNT>
22

> <PUBCHEM_ATOM_DEF_STEREO_COUNT>
10

> <PUBCHEM_ATOM_UDEF_STEREO_COUNT>
0

> <PUBCHEM_BOND_DEF_STEREO_COUNT>
0

> <PUBCHEM_BOND_UDEF_STEREO_COUNT>
0

> <PUBCHEM_ISOTOPIC_ATOM_COUNT>
0

> <PUBCHEM_COMPONENT_COUNT>
1

> <PUBCHEM_CACTVS_TAUTO_COUNT>
1

> <PUBCHEM_CONFORMER_ID>
02C08F4700000001

> <PUBCHEM_MMFF94_ENERGY>
50.8388

> <PUBCHEM_FEATURE_SELFOVERLAP>
101.553

> <PUBCHEM_SHAPE_FINGERPRINT>
10366900 7 17675928685519822634
12107183 9 17905606962621627938
12173636 292 18334581264952275991
12236239 1 18412265055894955027
12788726 201 18259983795223584993
13583140 156 17561075960541522507
15196674 1 18343586230887521502
15420108 30 17399805285473766137
15442244 35 18340484560293666084
16752209 62 18187655712450550195
17492 89 18410289190276777958
192875 21 18335711554495218781
19862831 5 18341050726787364558
200 152 18338802212850546607
20775438 99 16530082285426547527
21267235 1 18341885252023873774
23184049 59 18128806620026285304
23402539 116 18334016069036862309
23402655 69 18343304781501065380
23557571 272 17313096484147241641
23559900 14 18188498982060730128
23598291 2 18341895220722030634
2748010 2 14737314110306624213
2838139 119 16986902231200061101
34934 24 18202287996181526230
474 4 17917706873236658696
5104073 3 18343021090616519274
6992083 37 18270954747498405325
7471813 234 18117568331232229461
74978 22 18271240525989953646
7832392 63 18340759425357990784
90525 40 18335415742611965862
9709674 26 18408877417509990686

> <PUBCHEM_SHAPE_MULTIPOLES>
395.83
8.84
2.87
1.09
4.98
0.39
0.05
0.32
-1.25
-1.75
0.36
-0.46
0.26
-1.74

> <PUBCHEM_SHAPE_SELFOVERLAP>
808.523

> <PUBCHEM_SHAPE_VOLUME>
225.5

> <PUBCHEM_COORDINATE_TYPE>
2
5
10

$$$$

