17395933
  -OEChem-06241222532D

 32 35  0     0  0  0  0  0  0999 V2000
    3.3080   -0.4381    0.0000 S   0  0  0  0  0  0  0  0  0  0  0  0
   10.0186   -1.7745    0.0000 O   0  0  0  0  0  0  0  0  0  0  0  0
    8.4350   -0.9698    0.0000 N   0  0  0  0  0  0  0  0  0  0  0  0
    8.4350   -2.5792    0.0000 N   0  0  0  0  0  0  0  0  0  0  0  0
    4.7861    0.2200    0.0000 N   0  0  0  0  0  0  0  0  0  0  0  0
    7.4888   -1.2745    0.0000 C   0  0  0  0  0  0  0  0  0  0  0  0
    7.4888   -2.2745    0.0000 C   0  0  0  0  0  0  0  0  0  0  0  0
    5.7567   -1.2745    0.0000 C   0  0  0  0  0  0  0  0  0  0  0  0
    6.6227   -0.7745    0.0000 C   0  0  0  0  0  0  0  0  0  0  0  0
    6.6227   -2.7745    0.0000 C   0  0  0  0  0  0  0  0  0  0  0  0
    4.8907   -0.7745    0.0000 C   0  0  0  0  0  0  0  0  0  0  0  0
    5.7567   -2.2745    0.0000 C   0  0  0  0  0  0  0  0  0  0  0  0
    9.0186   -1.7745    0.0000 C   0  0  0  0  0  0  0  0  0  0  0  0
    3.8080    0.4279    0.0000 C   0  0  0  0  0  0  0  0  0  0  0  0
    3.9771   -1.1812    0.0000 C   0  0  0  0  0  0  0  0  0  0  0  0
    3.4013    1.3415    0.0000 C   0  0  0  0  0  0  0  0  0  0  0  0
    3.9890    2.1505    0.0000 C   0  0  0  0  0  0  0  0  0  0  0  0
    2.4067    1.4460    0.0000 C   0  0  0  0  0  0  0  0  0  0  0  0
    3.5823    3.0640    0.0000 C   0  0  0  0  0  0  0  0  0  0  0  0
    2.0000    2.3596    0.0000 C   0  0  0  0  0  0  0  0  0  0  0  0
    2.5878    3.1686    0.0000 C   0  0  0  0  0  0  0  0  0  0  0  0
    6.6227   -0.1545    0.0000 H   0  0  0  0  0  0  0  0  0  0  0  0
    6.6227   -3.3945    0.0000 H   0  0  0  0  0  0  0  0  0  0  0  0
    5.2198   -2.5845    0.0000 H   0  0  0  0  0  0  0  0  0  0  0  0
    8.6276   -0.3805    0.0000 H   0  0  0  0  0  0  0  0  0  0  0  0
    8.6276   -3.1686    0.0000 H   0  0  0  0  0  0  0  0  0  0  0  0
    3.8482   -1.7877    0.0000 H   0  0  0  0  0  0  0  0  0  0  0  0
    4.6056    2.0857    0.0000 H   0  0  0  0  0  0  0  0  0  0  0  0
    2.0423    0.9444    0.0000 H   0  0  0  0  0  0  0  0  0  0  0  0
    3.9467    3.5656    0.0000 H   0  0  0  0  0  0  0  0  0  0  0  0
    1.3834    2.4244    0.0000 H   0  0  0  0  0  0  0  0  0  0  0  0
    2.3356    3.7350    0.0000 H   0  0  0  0  0  0  0  0  0  0  0  0
  1 14  1  0  0  0  0
  1 15  1  0  0  0  0
  2 13  2  0  0  0  0
  3  6  1  0  0  0  0
  3 13  1  0  0  0  0
  3 25  1  0  0  0  0
  4  7  1  0  0  0  0
  4 13  1  0  0  0  0
  4 26  1  0  0  0  0
  5 11  1  0  0  0  0
  5 14  2  0  0  0  0
  6  7  2  0  0  0  0
  6  9  1  0  0  0  0
  7 10  1  0  0  0  0
  8  9  2  0  0  0  0
  8 11  1  0  0  0  0
  8 12  1  0  0  0  0
  9 22  1  0  0  0  0
 10 12  2  0  0  0  0
 10 23  1  0  0  0  0
 11 15  2  0  0  0  0
 12 24  1  0  0  0  0
 14 16  1  0  0  0  0
 15 27  1  0  0  0  0
 16 17  2  0  0  0  0
 16 18  1  0  0  0  0
 17 19  1  0  0  0  0
 17 28  1  0  0  0  0
 18 20  2  0  0  0  0
 18 29  1  0  0  0  0
 19 21  2  0  0  0  0
 19 30  1  0  0  0  0
 20 21  1  0  0  0  0
 20 31  1  0  0  0  0
 21 32  1  0  0  0  0
M  END
> <PUBCHEM_COMPOUND_CID>
17395933

> <PUBCHEM_COMPOUND_CANONICALIZED>
1

> <PUBCHEM_CACTVS_COMPLEXITY>
399

> <PUBCHEM_CACTVS_HBOND_ACCEPTOR>
3

> <PUBCHEM_CACTVS_HBOND_DONOR>
2

> <PUBCHEM_CACTVS_ROTATABLE_BOND>
2

> <PUBCHEM_CACTVS_SUBSKEYS>
AAADccB7IABAAAAAAAAAAAAAAAAAAWLAAAAwYAAAAAAAAFgB0AAAHgQQAAAADAiFXgCxwZLIEAisAyRiVACC8KBhCjgIiDQwdJiIYKLgkZGUIAholALoyCcQgIAOCAAAQAAAACAQAACAAAAAQAAAAAAAAA==

> <PUBCHEM_IUPAC_OPENEYE_NAME>
5-(2-phenylthiazol-4-yl)-1,3-dihydrobenzimidazol-2-one

> <PUBCHEM_IUPAC_CAS_NAME>
5-(2-phenyl-4-thiazolyl)-1,3-dihydrobenzimidazol-2-one

> <PUBCHEM_IUPAC_NAME>
5-(2-phenyl-1,3-thiazol-4-yl)-1,3-dihydrobenzimidazol-2-one

> <PUBCHEM_IUPAC_SYSTEMATIC_NAME>
5-(2-phenyl-1,3-thiazol-4-yl)-1,3-dihydrobenzimidazol-2-one

> <PUBCHEM_IUPAC_TRADITIONAL_NAME>
5-(2-phenylthiazol-4-yl)-1,3-dihydrobenzimidazol-2-one

> <PUBCHEM_IUPAC_INCHI>
InChI=1S/C16H11N3OS/c20-16-18-12-7-6-11(8-13(12)19-16)14-9-21-15(17-14)10-4-2-1-3-5-10/h1-9H,(H2,18,19,20)

> <PUBCHEM_IUPAC_INCHIKEY>
NPUXSWOULHBZQC-UHFFFAOYSA-N

> <PUBCHEM_XLOGP3_AA>
2.9

> <PUBCHEM_EXACT_MASS>
293.062283

> <PUBCHEM_MOLECULAR_FORMULA>
C16H11N3OS

> <PUBCHEM_MOLECULAR_WEIGHT>
293.34304

> <PUBCHEM_OPENEYE_CAN_SMILES>
C1=CC=C(C=C1)C2=NC(=CS2)C3=CC4=C(C=C3)NC(=O)N4

> <PUBCHEM_OPENEYE_ISO_SMILES>
C1=CC=C(C=C1)C2=NC(=CS2)C3=CC4=C(C=C3)NC(=O)N4

> <PUBCHEM_CACTVS_TPSA>
82.3

> <PUBCHEM_MONOISOTOPIC_WEIGHT>
293.062283

> <PUBCHEM_TOTAL_CHARGE>
0

> <PUBCHEM_HEAVY_ATOM_COUNT>
21

> <PUBCHEM_ATOM_DEF_STEREO_COUNT>
0

> <PUBCHEM_ATOM_UDEF_STEREO_COUNT>
0

> <PUBCHEM_BOND_DEF_STEREO_COUNT>
0

> <PUBCHEM_BOND_UDEF_STEREO_COUNT>
0

> <PUBCHEM_ISOTOPIC_ATOM_COUNT>
0

> <PUBCHEM_COMPONENT_COUNT>
1

> <PUBCHEM_CACTVS_TAUTO_COUNT>
3

> <PUBCHEM_COORDINATE_TYPE>
1
5
255

> <PUBCHEM_BONDANNOTATIONS>
1  14  8
1  15  8
10  12  8
11  15  8
16  17  8
16  18  8
17  19  8
18  20  8
19  21  8
20  21  8
3  13  8
3  6  8
4  13  8
4  7  8
5  11  8
5  14  8
6  7  8
6  9  8
7  10  8
8  12  8
8  9  8

$$$$

