439630
  -OEChem-07051212463D

 23 23  0     1  0  0  0  0  0999 V2000
   -0.0630   -1.3254    0.1812 O   0  0  0  0  0  0  0  0  0  0  0  0
    1.6870    2.3904   -0.3502 O   0  0  0  0  0  0  0  0  0  0  0  0
   -1.1010    2.1844    0.4305 O   0  0  0  0  0  0  0  0  0  0  0  0
    2.0239   -0.1960   -1.3457 O   0  0  0  0  0  0  0  0  0  0  0  0
    2.0331   -2.3546    0.4139 O   0  0  0  0  0  0  0  0  0  0  0  0
   -3.1225    0.3967    0.1156 O   0  0  0  0  0  0  0  0  0  0  0  0
   -2.3947   -1.5448   -0.8316 O   0  0  0  0  0  0  0  0  0  0  0  0
    1.1324    1.2805    0.3504 C   0  0  1  0  0  0  0  0  0  0  0  0
   -0.3270    1.0971   -0.0738 C   0  0  1  0  0  0  0  0  0  0  0  0
    1.9476    0.0192    0.0670 C   0  0  1  0  0  0  0  0  0  0  0  0
   -0.8878   -0.2055    0.4947 C   0  0  1  0  0  0  0  0  0  0  0  0
    1.2619   -1.1917    0.6997 C   0  0  1  0  0  0  0  0  0  0  0  0
   -2.1900   -0.5501   -0.1518 C   0  0  0  0  0  0  0  0  0  0  0  0
    1.1786    1.5227    1.4195 H   0  0  0  0  0  0  0  0  0  0  0  0
   -0.4079    1.1240   -1.1672 H   0  0  0  0  0  0  0  0  0  0  0  0
    2.9758    0.1358    0.4281 H   0  0  0  0  0  0  0  0  0  0  0  0
   -1.0463   -0.1647    1.5795 H   0  0  0  0  0  0  0  0  0  0  0  0
    1.2123   -1.0944    1.7902 H   0  0  0  0  0  0  0  0  0  0  0  0
    2.6143    2.4786   -0.0709 H   0  0  0  0  0  0  0  0  0  0  0  0
   -1.0376    2.1758    1.4008 H   0  0  0  0  0  0  0  0  0  0  0  0
    2.8125   -0.7365   -1.5211 H   0  0  0  0  0  0  0  0  0  0  0  0
    2.3045   -2.3225   -0.5176 H   0  0  0  0  0  0  0  0  0  0  0  0
   -3.9855    0.1895   -0.3022 H   0  0  0  0  0  0  0  0  0  0  0  0
  1 11  1  0  0  0  0
  1 12  1  0  0  0  0
  2  8  1  0  0  0  0
  2 19  1  0  0  0  0
  3  9  1  0  0  0  0
  3 20  1  0  0  0  0
  4 10  1  0  0  0  0
  4 21  1  0  0  0  0
  5 12  1  0  0  0  0
  5 22  1  0  0  0  0
  6 13  1  0  0  0  0
  6 23  1  0  0  0  0
  7 13  2  0  0  0  0
  8  9  1  0  0  0  0
  8 10  1  0  0  0  0
  8 14  1  0  0  0  0
  9 11  1  0  0  0  0
  9 15  1  0  0  0  0
 10 12  1  0  0  0  0
 10 16  1  0  0  0  0
 11 13  1  0  0  0  0
 11 17  1  0  0  0  0
 12 18  1  0  0  0  0
M  END
> <PUBCHEM_COMPOUND_CID>
439630

> <PUBCHEM_CONFORMER_RMSD>
0.6

> <PUBCHEM_CONFORMER_DIVERSEORDER>
1
6
4
5
2
7
3

> <PUBCHEM_MMFF94_PARTIAL_CHARGES>
18
1 -0.56
10 0.28
11 0.34
12 0.56
13 0.66
19 0.4
2 -0.68
20 0.4
21 0.4
22 0.4
23 0.5
3 -0.68
4 -0.68
5 -0.68
6 -0.65
7 -0.57
8 0.28
9 0.28

> <PUBCHEM_EFFECTIVE_ROTOR_COUNT>
2.2

> <PUBCHEM_PHARMACOPHORE_FEATURES>
13
1 1 acceptor
1 2 acceptor
1 2 donor
1 3 acceptor
1 3 donor
1 4 acceptor
1 4 donor
1 5 acceptor
1 5 donor
1 6 acceptor
1 7 acceptor
3 6 7 13 anion
6 1 8 9 10 11 12 rings

> <PUBCHEM_HEAVY_ATOM_COUNT>
13

> <PUBCHEM_ATOM_DEF_STEREO_COUNT>
4

> <PUBCHEM_ATOM_UDEF_STEREO_COUNT>
1

> <PUBCHEM_BOND_DEF_STEREO_COUNT>
0

> <PUBCHEM_BOND_UDEF_STEREO_COUNT>
0

> <PUBCHEM_ISOTOPIC_ATOM_COUNT>
0

> <PUBCHEM_COMPONENT_COUNT>
1

> <PUBCHEM_CACTVS_TAUTO_COUNT>
1

> <PUBCHEM_CONFORMER_ID>
0006B54E00000001

> <PUBCHEM_MMFF94_ENERGY>
27.5341

> <PUBCHEM_FEATURE_SELFOVERLAP>
66.11

> <PUBCHEM_SHAPE_FINGERPRINT>
12138202 97 17478887191334579964
12423570 1 8069749520692226942
12897270 3 18339643343435104967
14128692 85 18267305507197704954
16945 1 18412543210482085841
18185500 45 18268993274562465666
193761 8 18339084916087897920
20871998 184 17758406553139076854
21040471 1 17836086667463117648
23419403 2 16757832099692092664
23552423 10 18411419466870417245
241688 4 18053388987305089920
2748010 2 17908695142633080506
4369600 1 18194401095822039360
53812654 25 18122067769115118786

> <PUBCHEM_SHAPE_MULTIPOLES>
226.45
3.49
2.3
0.84
1.84
0.36
0.14
-0.62
0.47
-0.86
-0.14
-0.19
-0.11
-0.49

> <PUBCHEM_SHAPE_SELFOVERLAP>
462.867

> <PUBCHEM_SHAPE_VOLUME>
127.6

> <PUBCHEM_COORDINATE_TYPE>
2
5
10

$$$$

