441479
  -OEChem-07051212553D

 24 24  0     1  0  0  0  0  0999 V2000
   -0.7490    1.6694   -0.6466 O   0  0  0  0  0  0  0  0  0  0  0  0
    0.5124   -0.8244   -1.4101 O   0  0  0  0  0  0  0  0  0  0  0  0
   -0.5116   -2.2115    0.8188 O   0  0  0  0  0  0  0  0  0  0  0  0
   -2.2463   -0.8169   -0.8632 O   0  0  0  0  0  0  0  0  0  0  0  0
    0.9288    1.8929    1.0064 O   0  0  0  0  0  0  0  0  0  0  0  0
    3.0058   -0.2267   -0.4478 O   0  0  0  0  0  0  0  0  0  0  0  0
    0.6437   -0.2691   -0.0959 C   0  0  2  0  0  0  0  0  0  0  0  0
   -0.4927   -0.7873    0.8074 C   0  0  1  0  0  0  0  0  0  0  0  0
   -1.8600   -0.2433    0.3852 C   0  0  1  0  0  0  0  0  0  0  0  0
    0.5585    1.2662   -0.2180 C   0  0  1  0  0  0  0  0  0  0  0  0
   -1.8005    1.2731    0.2381 C   0  0  0  0  0  0  0  0  0  0  0  0
    2.0108   -0.7224    0.4257 C   0  0  0  0  0  0  0  0  0  0  0  0
   -0.3016   -0.4661    1.8391 H   0  0  0  0  0  0  0  0  0  0  0  0
   -2.6214   -0.5358    1.1163 H   0  0  0  0  0  0  0  0  0  0  0  0
    1.2480    1.6127   -0.9966 H   0  0  0  0  0  0  0  0  0  0  0  0
   -2.7337    1.6498   -0.1934 H   0  0  0  0  0  0  0  0  0  0  0  0
   -1.6607    1.7610    1.2092 H   0  0  0  0  0  0  0  0  0  0  0  0
    2.0972   -1.8141    0.4351 H   0  0  0  0  0  0  0  0  0  0  0  0
    2.2129   -0.3526    1.4354 H   0  0  0  0  0  0  0  0  0  0  0  0
   -0.3163   -0.4929   -1.7954 H   0  0  0  0  0  0  0  0  0  0  0  0
   -0.6794   -2.5084   -0.0920 H   0  0  0  0  0  0  0  0  0  0  0  0
   -3.1221   -0.4613   -1.0910 H   0  0  0  0  0  0  0  0  0  0  0  0
    1.2828    2.7704    0.7837 H   0  0  0  0  0  0  0  0  0  0  0  0
    2.8225   -0.5799   -1.3352 H   0  0  0  0  0  0  0  0  0  0  0  0
  1 10  1  0  0  0  0
  1 11  1  0  0  0  0
  2  7  1  0  0  0  0
  2 20  1  0  0  0  0
  3  8  1  0  0  0  0
  3 21  1  0  0  0  0
  4  9  1  0  0  0  0
  4 22  1  0  0  0  0
  5 10  1  0  0  0  0
  5 23  1  0  0  0  0
  6 12  1  0  0  0  0
  6 24  1  0  0  0  0
  7  8  1  0  0  0  0
  7 10  1  0  0  0  0
  7 12  1  0  0  0  0
  8  9  1  0  0  0  0
  8 13  1  0  0  0  0
  9 11  1  0  0  0  0
  9 14  1  0  0  0  0
 10 15  1  0  0  0  0
 11 16  1  0  0  0  0
 11 17  1  0  0  0  0
 12 18  1  0  0  0  0
 12 19  1  0  0  0  0
M  END
> <PUBCHEM_COMPOUND_CID>
441479

> <PUBCHEM_CONFORMER_RMSD>
0.6

> <PUBCHEM_CONFORMER_DIVERSEORDER>
1
2

> <PUBCHEM_MMFF94_PARTIAL_CHARGES>
17
1 -0.56
10 0.56
11 0.28
12 0.28
2 -0.68
20 0.4
21 0.4
22 0.4
23 0.4
24 0.4
3 -0.68
4 -0.68
5 -0.68
6 -0.68
7 0.28
8 0.28
9 0.28

> <PUBCHEM_EFFECTIVE_ROTOR_COUNT>
2.2

> <PUBCHEM_PHARMACOPHORE_FEATURES>
12
1 1 acceptor
1 2 acceptor
1 2 donor
1 3 acceptor
1 3 donor
1 4 acceptor
1 4 donor
1 5 acceptor
1 5 donor
1 6 acceptor
1 6 donor
6 1 7 8 9 10 11 rings

> <PUBCHEM_HEAVY_ATOM_COUNT>
12

> <PUBCHEM_ATOM_DEF_STEREO_COUNT>
4

> <PUBCHEM_ATOM_UDEF_STEREO_COUNT>
0

> <PUBCHEM_BOND_DEF_STEREO_COUNT>
0

> <PUBCHEM_BOND_UDEF_STEREO_COUNT>
0

> <PUBCHEM_ISOTOPIC_ATOM_COUNT>
0

> <PUBCHEM_COMPONENT_COUNT>
1

> <PUBCHEM_CACTVS_TAUTO_COUNT>
1

> <PUBCHEM_CONFORMER_ID>
0006BC8700000001

> <PUBCHEM_MMFF94_ENERGY>
33.7873

> <PUBCHEM_FEATURE_SELFOVERLAP>
60.968

> <PUBCHEM_SHAPE_FINGERPRINT>
12423570 1 17464014238846856472
13024252 1 17917140710473574646
16945 1 18408611339721348154
18185500 45 18053388974515061779
21040471 1 17837770397574639049
23552423 10 17843396285178317888
241688 4 18412548699745975153
2748010 2 17980758229739196058
29004967 10 17531246226764027556
369184 2 18271241745902999530
5084963 1 18334020470966870897

> <PUBCHEM_SHAPE_MULTIPOLES>
211.74
2.82
1.88
1.02
0.96
0.14
-0.12
-0.18
-0.27
-0.32
0.35
0
-0.1
0.07

> <PUBCHEM_SHAPE_SELFOVERLAP>
427.279

> <PUBCHEM_SHAPE_VOLUME>
121.2

> <PUBCHEM_COORDINATE_TYPE>
2
5
10

$$$$

