88513
  -OEChem-07051213012D

 62 62  0     1  0  0  0  0  0999 V2000
    5.4641    0.6550    0.0000 O   0  0  0  0  0  0  0  0  0  0  0  0
    6.3301    1.1550    0.0000 O   0  0  0  0  0  0  0  0  0  0  0  0
    5.4641   -0.3450    0.0000 O   0  0  0  0  0  0  0  0  0  0  0  0
    4.5981   -1.8450    0.0000 O   0  0  0  0  0  0  0  0  0  0  0  0
    2.8660   -4.8450    0.0000 O   0  0  0  0  0  0  0  0  0  0  0  0
    5.4641    2.6550    0.0000 N   0  0  0  0  0  0  0  0  0  0  0  0
    3.7320    0.6550    0.0000 N   0  0  0  0  0  0  0  0  0  0  0  0
    8.0622    2.1550    0.0000 N   0  0  0  0  0  0  0  0  0  0  0  0
    4.5981    2.1550    0.0000 C   0  0  1  0  0  0  0  0  0  0  0  0
    3.7320    2.6550    0.0000 C   0  0  0  0  0  0  0  0  0  0  0  0
    3.7320    3.6550    0.0000 C   0  0  0  0  0  0  0  0  0  0  0  0
    7.1962    2.6550    0.0000 C   0  0  1  0  0  0  0  0  0  0  0  0
    7.1962    3.6550    0.0000 C   0  0  0  0  0  0  0  0  0  0  0  0
    8.0622    4.1550    0.0000 C   0  0  0  0  0  0  0  0  0  0  0  0
    4.5981    1.1550    0.0000 C   0  0  0  0  0  0  0  0  0  0  0  0
    6.3301    2.1550    0.0000 C   0  0  0  0  0  0  0  0  0  0  0  0
    2.8660    4.1550    0.0000 C   0  0  0  0  0  0  0  0  0  0  0  0
    4.5981    4.1550    0.0000 C   0  0  0  0  0  0  0  0  0  0  0  0
    3.7320   -0.3450    0.0000 C   0  0  1  0  0  0  0  0  0  0  0  0
    8.0622    5.1550    0.0000 C   0  0  0  0  0  0  0  0  0  0  0  0
    8.9282    3.6550    0.0000 C   0  0  0  0  0  0  0  0  0  0  0  0
    2.8660   -0.8450    0.0000 C   0  0  0  0  0  0  0  0  0  0  0  0
    2.8660   -1.8450    0.0000 C   0  0  0  0  0  0  0  0  0  0  0  0
    4.5981   -0.8450    0.0000 C   0  0  0  0  0  0  0  0  0  0  0  0
    2.0000   -2.3450    0.0000 C   0  0  0  0  0  0  0  0  0  0  0  0
    3.7320   -2.3450    0.0000 C   0  0  0  0  0  0  0  0  0  0  0  0
    2.0000   -3.3450    0.0000 C   0  0  0  0  0  0  0  0  0  0  0  0
    3.7320   -3.3450    0.0000 C   0  0  0  0  0  0  0  0  0  0  0  0
    2.8660   -3.8450    0.0000 C   0  0  0  0  0  0  0  0  0  0  0  0
    4.5981    2.7750    0.0000 H   0  0  0  0  0  0  0  0  0  0  0  0
    3.1215    2.7627    0.0000 H   0  0  0  0  0  0  0  0  0  0  0  0
    3.5200    2.0724    0.0000 H   0  0  0  0  0  0  0  0  0  0  0  0
    4.2690    3.3450    0.0000 H   0  0  0  0  0  0  0  0  0  0  0  0
    7.7331    2.9650    0.0000 H   0  0  0  0  0  0  0  0  0  0  0  0
    6.9841    4.2376    0.0000 H   0  0  0  0  0  0  0  0  0  0  0  0
    6.5856    3.5473    0.0000 H   0  0  0  0  0  0  0  0  0  0  0  0
    7.5252    4.4650    0.0000 H   0  0  0  0  0  0  0  0  0  0  0  0
    5.4641    3.2750    0.0000 H   0  0  0  0  0  0  0  0  0  0  0  0
    4.9081    3.6181    0.0000 H   0  0  0  0  0  0  0  0  0  0  0  0
    5.1350    4.4650    0.0000 H   0  0  0  0  0  0  0  0  0  0  0  0
    4.2881    4.6919    0.0000 H   0  0  0  0  0  0  0  0  0  0  0  0
    3.1760    4.6919    0.0000 H   0  0  0  0  0  0  0  0  0  0  0  0
    2.3291    4.4650    0.0000 H   0  0  0  0  0  0  0  0  0  0  0  0
    2.5560    3.6181    0.0000 H   0  0  0  0  0  0  0  0  0  0  0  0
    4.2690   -0.0350    0.0000 H   0  0  0  0  0  0  0  0  0  0  0  0
    3.1951    0.9650    0.0000 H   0  0  0  0  0  0  0  0  0  0  0  0
    8.6182    3.1181    0.0000 H   0  0  0  0  0  0  0  0  0  0  0  0
    9.4651    3.3450    0.0000 H   0  0  0  0  0  0  0  0  0  0  0  0
    9.2382    4.1919    0.0000 H   0  0  0  0  0  0  0  0  0  0  0  0
    8.6822    5.1550    0.0000 H   0  0  0  0  0  0  0  0  0  0  0  0
    8.0622    5.7750    0.0000 H   0  0  0  0  0  0  0  0  0  0  0  0
    7.4422    5.1550    0.0000 H   0  0  0  0  0  0  0  0  0  0  0  0
    2.6540   -0.2624    0.0000 H   0  0  0  0  0  0  0  0  0  0  0  0
    2.2554   -0.9527    0.0000 H   0  0  0  0  0  0  0  0  0  0  0  0
    8.5991    2.4650    0.0000 H   0  0  0  0  0  0  0  0  0  0  0  0
    8.0622    1.5350    0.0000 H   0  0  0  0  0  0  0  0  0  0  0  0
    1.4631   -2.0350    0.0000 H   0  0  0  0  0  0  0  0  0  0  0  0
    4.2690   -2.0350    0.0000 H   0  0  0  0  0  0  0  0  0  0  0  0
    1.4631   -3.6550    0.0000 H   0  0  0  0  0  0  0  0  0  0  0  0
    4.2690   -3.6550    0.0000 H   0  0  0  0  0  0  0  0  0  0  0  0
    6.0010   -0.6550    0.0000 H   0  0  0  0  0  0  0  0  0  0  0  0
    2.3291   -5.1550    0.0000 H   0  0  0  0  0  0  0  0  0  0  0  0
  1 15  2  0  0  0  0
  2 16  2  0  0  0  0
  3 24  1  0  0  0  0
  3 61  1  0  0  0  0
  4 24  2  0  0  0  0
  5 29  1  0  0  0  0
  5 62  1  0  0  0  0
  9  6  1  6  0  0  0
  6 16  1  0  0  0  0
  6 38  1  0  0  0  0
  7 15  1  0  0  0  0
 19  7  1  6  0  0  0
  7 46  1  0  0  0  0
 12  8  1  6  0  0  0
  8 55  1  0  0  0  0
  8 56  1  0  0  0  0
  9 10  1  0  0  0  0
  9 15  1  0  0  0  0
  9 30  1  0  0  0  0
 10 11  1  0  0  0  0
 10 31  1  0  0  0  0
 10 32  1  0  0  0  0
 11 17  1  0  0  0  0
 11 18  1  0  0  0  0
 11 33  1  0  0  0  0
 12 13  1  0  0  0  0
 12 16  1  0  0  0  0
 12 34  1  0  0  0  0
 13 14  1  0  0  0  0
 13 35  1  0  0  0  0
 13 36  1  0  0  0  0
 14 20  1  0  0  0  0
 14 21  1  0  0  0  0
 14 37  1  0  0  0  0
 17 42  1  0  0  0  0
 17 43  1  0  0  0  0
 17 44  1  0  0  0  0
 18 39  1  0  0  0  0
 18 40  1  0  0  0  0
 18 41  1  0  0  0  0
 19 22  1  0  0  0  0
 19 24  1  0  0  0  0
 19 45  1  0  0  0  0
 20 50  1  0  0  0  0
 20 51  1  0  0  0  0
 20 52  1  0  0  0  0
 21 47  1  0  0  0  0
 21 48  1  0  0  0  0
 21 49  1  0  0  0  0
 22 23  1  0  0  0  0
 22 53  1  0  0  0  0
 22 54  1  0  0  0  0
 23 25  2  0  0  0  0
 23 26  1  0  0  0  0
 25 27  1  0  0  0  0
 25 57  1  0  0  0  0
 26 28  2  0  0  0  0
 26 58  1  0  0  0  0
 27 29  2  0  0  0  0
 27 59  1  0  0  0  0
 28 29  1  0  0  0  0
 28 60  1  0  0  0  0
M  END
> <PUBCHEM_COMPOUND_CID>
88513

> <PUBCHEM_COMPOUND_CANONICALIZED>
1

> <PUBCHEM_CACTVS_COMPLEXITY>
544

> <PUBCHEM_CACTVS_HBOND_ACCEPTOR>
6

> <PUBCHEM_CACTVS_HBOND_DONOR>
5

> <PUBCHEM_CACTVS_ROTATABLE_BOND>
11

> <PUBCHEM_CACTVS_SUBSKEYS>
AAADcfB7OAAAAAAAAAAAAAAAAAAAAAAAAAAwAAAAAAAAAAABAAAAHgAQCAAADSzBmAQyDoLAAgCIAiHSGAACAAAgIAAIiIGOCIgKZjKCkTOUcAAk1hGYmAeYyKCOIAAAAAAAAABAAAAAAAAAAAAAAAAAAA==

> <PUBCHEM_IUPAC_OPENEYE_NAME>
(2S)-2-[[(2S)-2-[[(2S)-2-amino-4-methyl-pentanoyl]amino]-4-methyl-pentanoyl]amino]-3-(4-hydroxyphenyl)propanoic acid

> <PUBCHEM_IUPAC_CAS_NAME>
(2S)-2-[[(2S)-2-[[(2S)-2-amino-4-methyl-1-oxopentyl]amino]-4-methyl-1-oxopentyl]amino]-3-(4-hydroxyphenyl)propanoic acid

> <PUBCHEM_IUPAC_NAME>
(2S)-2-[[(2S)-2-[[(2S)-2-amino-4-methylpentanoyl]amino]-4-methylpentanoyl]amino]-3-(4-hydroxyphenyl)propanoic acid

> <PUBCHEM_IUPAC_SYSTEMATIC_NAME>
(2S)-2-[[(2S)-2-[[(2S)-2-azanyl-4-methyl-pentanoyl]amino]-4-methyl-pentanoyl]amino]-3-(4-hydroxyphenyl)propanoic acid

> <PUBCHEM_IUPAC_TRADITIONAL_NAME>
(2S)-2-[[(2S)-2-[[(2S)-2-amino-4-methyl-pentanoyl]amino]-4-methyl-pentanoyl]amino]-3-(4-hydroxyphenyl)propionic acid

> <PUBCHEM_IUPAC_INCHI>
InChI=1S/C21H33N3O5/c1-12(2)9-16(22)19(26)23-17(10-13(3)4)20(27)24-18(21(28)29)11-14-5-7-15(25)8-6-14/h5-8,12-13,16-18,25H,9-11,22H2,1-4H3,(H,23,26)(H,24,27)(H,28,29)/t16-,17-,18-/m0/s1

> <PUBCHEM_IUPAC_INCHIKEY>
UCNNZELZXFXXJQ-BZSNNMDCSA-N

> <PUBCHEM_XLOGP3>
-1.3

> <PUBCHEM_EXACT_MASS>
407.242021

> <PUBCHEM_MOLECULAR_FORMULA>
C21H33N3O5

> <PUBCHEM_MOLECULAR_WEIGHT>
407.50382

> <PUBCHEM_OPENEYE_CAN_SMILES>
CC(C)CC(C(=O)NC(CC(C)C)C(=O)NC(CC1=CC=C(C=C1)O)C(=O)O)N

> <PUBCHEM_OPENEYE_ISO_SMILES>
CC(C)C[C@@H](C(=O)N[C@@H](CC(C)C)C(=O)N[C@@H](CC1=CC=C(C=C1)O)C(=O)O)N

> <PUBCHEM_CACTVS_TPSA>
142

> <PUBCHEM_MONOISOTOPIC_WEIGHT>
407.242021

> <PUBCHEM_TOTAL_CHARGE>
0

> <PUBCHEM_HEAVY_ATOM_COUNT>
29

> <PUBCHEM_ATOM_DEF_STEREO_COUNT>
3

> <PUBCHEM_ATOM_UDEF_STEREO_COUNT>
0

> <PUBCHEM_BOND_DEF_STEREO_COUNT>
0

> <PUBCHEM_BOND_UDEF_STEREO_COUNT>
0

> <PUBCHEM_ISOTOPIC_ATOM_COUNT>
0

> <PUBCHEM_COMPONENT_COUNT>
1

> <PUBCHEM_CACTVS_TAUTO_COUNT>
8

> <PUBCHEM_COORDINATE_TYPE>
1
5
255

> <PUBCHEM_BONDANNOTATIONS>
23  25  8
23  26  8
25  27  8
26  28  8
27  29  8
28  29  8
9  6  6
19  7  6
12  8  6

$$$$

