71120
  -OEChem-07051213033D

 37 36  0     1  0  0  0  0  0999 V2000
   -0.6943   -0.8837   -1.9243 O   0  0  0  0  0  0  0  0  0  0  0  0
    2.9982   -3.1164    0.6940 O   0  0  0  0  0  0  0  0  0  0  0  0
    1.4864   -2.1878    2.1091 O   0  0  0  0  0  0  0  0  0  0  0  0
   -1.7642    3.8026    0.9311 O   0  0  0  0  0  0  0  0  0  0  0  0
    4.6931    2.3295    0.4879 O   0  0  0  0  0  0  0  0  0  0  0  0
   -3.4089    2.2532    1.1761 O   0  0  0  0  0  0  0  0  0  0  0  0
    4.6478    1.3546   -1.5603 O   0  0  0  0  0  0  0  0  0  0  0  0
   -3.4989   -1.9095    0.7223 O   0  0  0  0  0  0  0  0  0  0  0  0
    0.3421   -0.7489    0.1479 N   0  0  0  0  0  0  0  0  0  0  0  0
   -3.0550   -0.1407   -0.7255 N   0  0  0  0  0  0  0  0  0  0  0  0
    1.5463   -1.4594   -0.2141 C   0  0  1  0  0  0  0  0  0  0  0  0
    2.6338   -0.5349   -0.7745 C   0  0  0  0  0  0  0  0  0  0  0  0
   -1.8180    0.2979   -0.1320 C   0  0  1  0  0  0  0  0  0  0  0  0
   -0.6902   -0.5182   -0.7507 C   0  0  0  0  0  0  0  0  0  0  0  0
   -1.5834    1.7919   -0.3388 C   0  0  0  0  0  0  0  0  0  0  0  0
    3.1597    0.5380    0.1876 C   0  0  0  0  0  0  0  0  0  0  0  0
    1.9872   -2.2596    0.9943 C   0  0  0  0  0  0  0  0  0  0  0  0
   -2.3556    2.6116    0.6655 C   0  0  0  0  0  0  0  0  0  0  0  0
    4.2216    1.4315   -0.4164 C   0  0  0  0  0  0  0  0  0  0  0  0
   -3.7930   -1.2121   -0.2451 C   0  0  0  0  0  0  0  0  0  0  0  0
   -5.0546   -1.4396   -1.0339 C   0  0  0  0  0  0  0  0  0  0  0  0
    1.2732   -2.1876   -0.9886 H   0  0  0  0  0  0  0  0  0  0  0  0
    2.2472   -0.0368   -1.6736 H   0  0  0  0  0  0  0  0  0  0  0  0
    3.4830   -1.1445   -1.1102 H   0  0  0  0  0  0  0  0  0  0  0  0
   -1.8631    0.0652    0.9401 H   0  0  0  0  0  0  0  0  0  0  0  0
    0.2737   -0.3721    1.0892 H   0  0  0  0  0  0  0  0  0  0  0  0
   -0.5186    2.0175   -0.2005 H   0  0  0  0  0  0  0  0  0  0  0  0
   -1.8684    2.1170   -1.3456 H   0  0  0  0  0  0  0  0  0  0  0  0
    3.5956    0.0565    1.0699 H   0  0  0  0  0  0  0  0  0  0  0  0
    2.3332    1.1811    0.5098 H   0  0  0  0  0  0  0  0  0  0  0  0
   -3.3687    0.3244   -1.5730 H   0  0  0  0  0  0  0  0  0  0  0  0
   -4.8207   -1.5297   -2.0985 H   0  0  0  0  0  0  0  0  0  0  0  0
   -5.5372   -2.3624   -0.7006 H   0  0  0  0  0  0  0  0  0  0  0  0
   -5.7391   -0.6008   -0.8802 H   0  0  0  0  0  0  0  0  0  0  0  0
    3.2720   -3.6457    1.4732 H   0  0  0  0  0  0  0  0  0  0  0  0
   -2.2782    4.3303    1.5788 H   0  0  0  0  0  0  0  0  0  0  0  0
    5.3944    2.8990    0.1056 H   0  0  0  0  0  0  0  0  0  0  0  0
  1 14  2  0  0  0  0
  2 17  1  0  0  0  0
  2 35  1  0  0  0  0
  3 17  2  0  0  0  0
  4 18  1  0  0  0  0
  4 36  1  0  0  0  0
  5 19  1  0  0  0  0
  5 37  1  0  0  0  0
  6 18  2  0  0  0  0
  7 19  2  0  0  0  0
  8 20  2  0  0  0  0
  9 11  1  0  0  0  0
  9 14  1  0  0  0  0
  9 26  1  0  0  0  0
 10 13  1  0  0  0  0
 10 20  1  0  0  0  0
 10 31  1  0  0  0  0
 11 12  1  0  0  0  0
 11 17  1  0  0  0  0
 11 22  1  0  0  0  0
 12 16  1  0  0  0  0
 12 23  1  0  0  0  0
 12 24  1  0  0  0  0
 13 14  1  0  0  0  0
 13 15  1  0  0  0  0
 13 25  1  0  0  0  0
 15 18  1  0  0  0  0
 15 27  1  0  0  0  0
 15 28  1  0  0  0  0
 16 19  1  0  0  0  0
 16 29  1  0  0  0  0
 16 30  1  0  0  0  0
 20 21  1  0  0  0  0
 21 32  1  0  0  0  0
 21 33  1  0  0  0  0
 21 34  1  0  0  0  0
M  END
> <PUBCHEM_COMPOUND_CID>
71120

> <PUBCHEM_CONFORMER_RMSD>
1

> <PUBCHEM_CONFORMER_DIVERSEORDER>
1
29
9
12
36
11
22
10
25
17
35
31
14
23
34
21
33
26
18
6
16
32
30
37
5
2
15
20
4
24
7
27
3
8
13
28
19

> <PUBCHEM_MMFF94_PARTIAL_CHARGES>
25
1 -0.57
10 -0.73
11 0.36
13 0.36
14 0.57
15 0.06
16 0.06
17 0.66
18 0.66
19 0.66
2 -0.65
20 0.57
21 0.06
26 0.37
3 -0.57
31 0.37
35 0.5
36 0.5
37 0.5
4 -0.65
5 -0.65
6 -0.57
7 -0.57
8 -0.57
9 -0.73

> <PUBCHEM_EFFECTIVE_ROTOR_COUNT>
11

> <PUBCHEM_PHARMACOPHORE_FEATURES>
13
1 1 acceptor
1 10 donor
1 2 acceptor
1 3 acceptor
1 4 acceptor
1 5 acceptor
1 6 acceptor
1 7 acceptor
1 8 acceptor
1 9 donor
3 2 3 17 anion
3 4 6 18 anion
3 5 7 19 anion

> <PUBCHEM_HEAVY_ATOM_COUNT>
21

> <PUBCHEM_ATOM_DEF_STEREO_COUNT>
2

> <PUBCHEM_ATOM_UDEF_STEREO_COUNT>
0

> <PUBCHEM_BOND_DEF_STEREO_COUNT>
0

> <PUBCHEM_BOND_UDEF_STEREO_COUNT>
0

> <PUBCHEM_ISOTOPIC_ATOM_COUNT>
0

> <PUBCHEM_COMPONENT_COUNT>
1

> <PUBCHEM_CACTVS_TAUTO_COUNT>
4

> <PUBCHEM_CONFORMER_ID>
000115D000000001

> <PUBCHEM_MMFF94_ENERGY>
31.581

> <PUBCHEM_FEATURE_SELFOVERLAP>
66.143

> <PUBCHEM_SHAPE_FINGERPRINT>
10090160 65 17987525822566161567
10366900 7 18337673005713319707
10498660 4 18335139812438190148
10670039 82 18338784638478063300
11578080 2 17631184145911824741
12633257 1 18050568748564432411
12788726 201 18334861645266071299
13583140 156 17413298419355914073
14787075 74 18053663577428288303
18222031 100 17604728664072233647
21501502 16 18338237188375056739
21524375 3 18271528611612422822
23559900 14 18194980744603312111
23598288 3 18187937234861448397
23598291 2 18196935684888193726
312423 11 18337675324890398222
34934 24 18338805498711946983
392239 28 18196647397971779402
474 4 18131062719545404292
532947 4 17757281379472396369
53777708 50 18337954618034180946
5486654 2 18198902509205710759
7097593 13 17766282359192376307
7615 1 18268718388086685951

> <PUBCHEM_SHAPE_MULTIPOLES>
375.25
9.28
3.69
1.37
1.5
1.83
0.05
1.34
-1.5
-0.13
1.8
0.24
-0.35
-2.09

> <PUBCHEM_SHAPE_SELFOVERLAP>
739.922

> <PUBCHEM_SHAPE_VOLUME>
221.3

> <PUBCHEM_COORDINATE_TYPE>
2
5
10

$$$$

