17396184
  -OEChem-06241222553D

 45 46  0     1  0  0  0  0  0999 V2000
    1.6791   -0.8180   -0.9565 O   0  0  0  0  0  0  0  0  0  0  0  0
   -0.2207   -1.8492    0.6312 O   0  0  0  0  0  0  0  0  0  0  0  0
    5.5369    0.9217    0.8309 O   0  0  0  0  0  0  0  0  0  0  0  0
   -5.9580    1.4378    0.8073 O   0  0  0  0  0  0  0  0  0  0  0  0
    1.5315    1.4249   -0.5050 O   0  0  0  0  0  0  0  0  0  0  0  0
   -2.3941    0.3652   -1.2326 N   0  0  0  0  0  0  0  0  0  0  0  0
   -1.9393   -0.4747   -0.2498 C   0  0  0  0  0  0  0  0  0  0  0  0
   -2.9355   -0.5990    0.6933 C   0  0  0  0  0  0  0  0  0  0  0  0
   -4.0277    0.1937    0.2621 C   0  0  0  0  0  0  0  0  0  0  0  0
   -3.6658    0.7782   -0.9315 C   0  0  0  0  0  0  0  0  0  0  0  0
    0.3401   -0.8048   -1.4387 C   0  0  2  0  0  0  0  0  0  0  0  0
   -0.6035   -1.0976   -0.2696 C   0  0  0  0  0  0  0  0  0  0  0  0
   -2.8771   -1.4093    1.9283 C   0  0  0  0  0  0  0  0  0  0  0  0
   -4.3978    1.6941   -1.8280 C   0  0  0  0  0  0  0  0  0  0  0  0
   -5.2935    0.3831    0.9126 C   0  0  0  0  0  0  0  0  0  0  0  0
    0.2346   -1.8779   -2.5105 C   0  0  0  0  0  0  0  0  0  0  0  0
    3.5564    0.2937   -0.0258 C   0  0  0  0  0  0  0  0  0  0  0  0
    2.1750    0.3804   -0.5070 C   0  0  0  0  0  0  0  0  0  0  0  0
   -5.8980   -0.7189    1.7822 C   0  0  0  0  0  0  0  0  0  0  0  0
    4.2942    1.3407    0.4758 C   0  0  0  0  0  0  0  0  0  0  0  0
    4.4001   -0.8415    0.0242 C   0  0  0  0  0  0  0  0  0  0  0  0
    5.5934   -0.4073    0.5530 C   0  0  0  0  0  0  0  0  0  0  0  0
    4.0084    2.7674    0.6929 C   0  0  0  0  0  0  0  0  0  0  0  0
    6.8613   -1.0831    0.8614 C   0  0  0  0  0  0  0  0  0  0  0  0
   -1.8879    0.6366   -2.0636 H   0  0  0  0  0  0  0  0  0  0  0  0
    0.1198    0.1634   -1.8969 H   0  0  0  0  0  0  0  0  0  0  0  0
   -3.3963   -0.9169    2.7547 H   0  0  0  0  0  0  0  0  0  0  0  0
   -1.8561   -1.5542    2.2889 H   0  0  0  0  0  0  0  0  0  0  0  0
   -3.3209   -2.3962    1.7659 H   0  0  0  0  0  0  0  0  0  0  0  0
   -5.4024    1.3122   -2.0366 H   0  0  0  0  0  0  0  0  0  0  0  0
   -3.8867    1.8183   -2.7885 H   0  0  0  0  0  0  0  0  0  0  0  0
   -4.4936    2.6833   -1.3691 H   0  0  0  0  0  0  0  0  0  0  0  0
    0.4800   -2.8652   -2.1030 H   0  0  0  0  0  0  0  0  0  0  0  0
   -0.7759   -1.9250   -2.9282 H   0  0  0  0  0  0  0  0  0  0  0  0
    0.9436   -1.6832   -3.3222 H   0  0  0  0  0  0  0  0  0  0  0  0
   -5.5797   -0.5946    2.8189 H   0  0  0  0  0  0  0  0  0  0  0  0
   -5.6268   -1.7070    1.4035 H   0  0  0  0  0  0  0  0  0  0  0  0
   -6.9894   -0.6420    1.7393 H   0  0  0  0  0  0  0  0  0  0  0  0
    4.1725   -1.8521   -0.2848 H   0  0  0  0  0  0  0  0  0  0  0  0
    3.1662    2.8914    1.3805 H   0  0  0  0  0  0  0  0  0  0  0  0
    4.8704    3.2880    1.1225 H   0  0  0  0  0  0  0  0  0  0  0  0
    3.7583    3.2585   -0.2526 H   0  0  0  0  0  0  0  0  0  0  0  0
    6.8154   -2.1460    0.6047 H   0  0  0  0  0  0  0  0  0  0  0  0
    7.0908   -1.0017    1.9283 H   0  0  0  0  0  0  0  0  0  0  0  0
    7.6839   -0.6334    0.2968 H   0  0  0  0  0  0  0  0  0  0  0  0
  1 11  1  0  0  0  0
  1 18  1  0  0  0  0
  2 12  2  0  0  0  0
  3 20  1  0  0  0  0
  3 22  1  0  0  0  0
  4 15  2  0  0  0  0
  5 18  2  0  0  0  0
  6  7  1  0  0  0  0
  6 10  1  0  0  0  0
  6 25  1  0  0  0  0
  7  8  2  0  0  0  0
  7 12  1  0  0  0  0
  8  9  1  0  0  0  0
  8 13  1  0  0  0  0
  9 10  2  0  0  0  0
  9 15  1  0  0  0  0
 10 14  1  0  0  0  0
 11 12  1  0  0  0  0
 11 16  1  0  0  0  0
 11 26  1  0  0  0  0
 13 27  1  0  0  0  0
 13 28  1  0  0  0  0
 13 29  1  0  0  0  0
 14 30  1  0  0  0  0
 14 31  1  0  0  0  0
 14 32  1  0  0  0  0
 15 19  1  0  0  0  0
 16 33  1  0  0  0  0
 16 34  1  0  0  0  0
 16 35  1  0  0  0  0
 17 18  1  0  0  0  0
 17 20  2  0  0  0  0
 17 21  1  0  0  0  0
 19 36  1  0  0  0  0
 19 37  1  0  0  0  0
 19 38  1  0  0  0  0
 20 23  1  0  0  0  0
 21 22  2  0  0  0  0
 21 39  1  0  0  0  0
 22 24  1  0  0  0  0
 23 40  1  0  0  0  0
 23 41  1  0  0  0  0
 23 42  1  0  0  0  0
 24 43  1  0  0  0  0
 24 44  1  0  0  0  0
 24 45  1  0  0  0  0
M  END
> <PUBCHEM_COMPOUND_CID>
17396184

> <PUBCHEM_CONFORMER_RMSD>
1.2

> <PUBCHEM_CONFORMER_DIVERSEORDER>
1
31
105
101
19
57
11
84
47
23
76
62
92
70
44
27
53
7
28
22
72
94
55
35
48
82
106
77
54
45
107
103
9
42
91
2
85
64
79
17
12
10
18
15
87
95
60
83
89
98
49
36
58
63
50
32
71
21
40
30
3
4
5
108
14
41
38
24
80
88
51
34
66
100
46
13
37
102
52
90
56
43
61
93
74
26
29
104
25
86
39
8
20
69
73
16
33
96
59
109
97
68
75
99
81
67
78
65
6

> <PUBCHEM_MMFF94_PARTIAL_CHARGES>
25
1 -0.43
10 -0.33
11 0.34
12 0.59
13 0.18
14 0.18
15 0.6
17 -0.09
18 0.81
19 0.06
2 -0.57
20 -0.04
21 -0.15
22 -0.04
23 0.18
24 0.18
25 0.27
3 -0.28
39 0.15
4 -0.57
5 -0.57
6 0.03
7 -0.24
8 -0.18
9 -0.09

> <PUBCHEM_EFFECTIVE_ROTOR_COUNT>
6

> <PUBCHEM_PHARMACOPHORE_FEATURES>
8
1 2 acceptor
1 3 acceptor
1 4 acceptor
1 5 acceptor
1 6 cation
1 6 donor
5 3 17 20 21 22 rings
5 6 7 8 9 10 rings

> <PUBCHEM_HEAVY_ATOM_COUNT>
24

> <PUBCHEM_ATOM_DEF_STEREO_COUNT>
0

> <PUBCHEM_ATOM_UDEF_STEREO_COUNT>
1

> <PUBCHEM_BOND_DEF_STEREO_COUNT>
0

> <PUBCHEM_BOND_UDEF_STEREO_COUNT>
0

> <PUBCHEM_ISOTOPIC_ATOM_COUNT>
0

> <PUBCHEM_COMPONENT_COUNT>
1

> <PUBCHEM_CACTVS_TAUTO_COUNT>
52

> <PUBCHEM_CONFORMER_ID>
010971D800000001

> <PUBCHEM_MMFF94_ENERGY>
33.4072

> <PUBCHEM_FEATURE_SELFOVERLAP>
40.594

> <PUBCHEM_SHAPE_FINGERPRINT>
10319926 262 17989483022214830705
10928967 22 14189309114383910648
11089746 13 16877954815280312856
11545043 162 17847065488555880688
12236239 1 16008746943954491743
12516196 113 13183018505936696558
12553582 1 13973691585641808618
12596602 18 16415758613406261892
12616971 3 17895197683919734716
12633257 1 17917422099688264997
12892183 10 17632867437851927878
13103583 49 14404901440252189029
13583140 156 18341900679498863326
13675066 3 18201441350737458662
14251764 18 18412262814191084346
14251764 30 15985109634743965698
14341114 176 17775563122267940556
14420673 8 17560805484981949002
15188451 53 16773512175608924547
15348495 7 18272087150164874720
15537594 2 13038906608111835840
17492 89 12534253925548342176
1813 80 14117798046239176366
18222031 100 14333129632947616582
19784866 240 13686291366776267779
200 152 11383840385267712126
20511986 3 15574998437180996209
20871999 31 6266903454828796767
21033648 29 18270978876609135784
21637258 2 14261356825358879896
22950370 63 13614244797613336230
23402539 116 16225771808893349980
23522609 53 14834982070904065750
23559900 14 17844518010504303582
23569917 315 17385726881020916246
2767999 5 16805324405063373616
2838139 119 17894356587383606833
3004659 81 9511195027417802576
351380 3 14117520939306885560
3737641 26 14835579066857312360
4259306 186 10951777369231184184
4325135 7 18186241711028519391
465052 167 14045734924456486602
474 4 17530956990802674623
5104073 3 18189909625730874490
5924683 9 18200030617142741339
7970288 3 13110968612633225617

> <PUBCHEM_SHAPE_MULTIPOLES>
459.58
15.73
1.95
1.77
6.52
0.73
-0.59
3.01
7.69
0.9
-0.03
-1.82
-0.56
1.56

> <PUBCHEM_SHAPE_SELFOVERLAP>
975.071

> <PUBCHEM_SHAPE_VOLUME>
260.8

> <PUBCHEM_COORDINATE_TYPE>
2
5
10

$$$$

