13021
  -OEChem-06261207392D

 18 18  0     0  0  0  0  0  0999 V2000
    4.2690   -1.1900    0.0000 N   0  0  0  0  0  0  0  0  0  0  0  0
    3.4030    0.3100    0.0000 N   0  0  0  0  0  0  0  0  0  0  0  0
    2.5369   -1.1900    0.0000 N   0  0  0  0  0  0  0  0  0  0  0  0
    5.1350   -0.6900    0.0000 C   0  0  0  0  0  0  0  0  0  0  0  0
    4.2690    0.8100    0.0000 C   0  0  0  0  0  0  0  0  0  0  0  0
    5.1350    0.3100    0.0000 C   0  0  0  0  0  0  0  0  0  0  0  0
    6.0010   -1.1900    0.0000 C   0  0  0  0  0  0  0  0  0  0  0  0
    4.2690    1.8100    0.0000 C   0  0  0  0  0  0  0  0  0  0  0  0
    3.4030   -0.6900    0.0000 C   0  0  0  0  0  0  0  0  0  0  0  0
    5.6720    0.6200    0.0000 H   0  0  0  0  0  0  0  0  0  0  0  0
    5.6910   -1.7269    0.0000 H   0  0  0  0  0  0  0  0  0  0  0  0
    6.5380   -1.5000    0.0000 H   0  0  0  0  0  0  0  0  0  0  0  0
    6.3110   -0.6531    0.0000 H   0  0  0  0  0  0  0  0  0  0  0  0
    4.8890    1.8100    0.0000 H   0  0  0  0  0  0  0  0  0  0  0  0
    4.2690    2.4300    0.0000 H   0  0  0  0  0  0  0  0  0  0  0  0
    3.6490    1.8100    0.0000 H   0  0  0  0  0  0  0  0  0  0  0  0
    2.0000   -0.8800    0.0000 H   0  0  0  0  0  0  0  0  0  0  0  0
    2.5369   -1.8100    0.0000 H   0  0  0  0  0  0  0  0  0  0  0  0
  1  4  2  0  0  0  0
  1  9  1  0  0  0  0
  2  5  1  0  0  0  0
  2  9  2  0  0  0  0
  3  9  1  0  0  0  0
  3 17  1  0  0  0  0
  3 18  1  0  0  0  0
  4  6  1  0  0  0  0
  4  7  1  0  0  0  0
  5  6  2  0  0  0  0
  5  8  1  0  0  0  0
  6 10  1  0  0  0  0
  7 11  1  0  0  0  0
  7 12  1  0  0  0  0
  7 13  1  0  0  0  0
  8 14  1  0  0  0  0
  8 15  1  0  0  0  0
  8 16  1  0  0  0  0
M  END
> <PUBCHEM_COMPOUND_CID>
13021

> <PUBCHEM_COMPOUND_CANONICALIZED>
1

> <PUBCHEM_CACTVS_COMPLEXITY>
84.3

> <PUBCHEM_CACTVS_HBOND_ACCEPTOR>
3

> <PUBCHEM_CACTVS_HBOND_DONOR>
1

> <PUBCHEM_CACTVS_ROTATABLE_BOND>
0

> <PUBCHEM_CACTVS_SUBSKEYS>
AAADccBjAAAAAAAAAAAAAAAAAAAAAAAAAAAsAAAAAAAAAAABgAAAHAAQAAAACAiBFgAzkJZIEACgASRiZACAgCkhAqABGCAwZBiAKAJAydAEBAhoAAJISCIAAAAAAAAAAAAAAAAAAAAAAAAAAAAAAAAAAA==

> <PUBCHEM_IUPAC_OPENEYE_NAME>
4,6-dimethylpyrimidin-2-amine

> <PUBCHEM_IUPAC_CAS_NAME>
4,6-dimethyl-2-pyrimidinamine

> <PUBCHEM_IUPAC_NAME>
4,6-dimethylpyrimidin-2-amine

> <PUBCHEM_IUPAC_SYSTEMATIC_NAME>
4,6-dimethylpyrimidin-2-amine

> <PUBCHEM_IUPAC_TRADITIONAL_NAME>
(4,6-dimethylpyrimidin-2-yl)amine

> <PUBCHEM_IUPAC_INCHI>
InChI=1S/C6H9N3/c1-4-3-5(2)9-6(7)8-4/h3H,1-2H3,(H2,7,8,9)

> <PUBCHEM_IUPAC_INCHIKEY>
IDQNBVFPZMCDDN-UHFFFAOYSA-N

> <PUBCHEM_XLOGP3>
0.7

> <PUBCHEM_EXACT_MASS>
123.079647

> <PUBCHEM_MOLECULAR_FORMULA>
C6H9N3

> <PUBCHEM_MOLECULAR_WEIGHT>
123.15576

> <PUBCHEM_OPENEYE_CAN_SMILES>
CC1=CC(=NC(=N1)N)C

> <PUBCHEM_OPENEYE_ISO_SMILES>
CC1=CC(=NC(=N1)N)C

> <PUBCHEM_CACTVS_TPSA>
51.8

> <PUBCHEM_MONOISOTOPIC_WEIGHT>
123.079647

> <PUBCHEM_TOTAL_CHARGE>
0

> <PUBCHEM_HEAVY_ATOM_COUNT>
9

> <PUBCHEM_ATOM_DEF_STEREO_COUNT>
0

> <PUBCHEM_ATOM_UDEF_STEREO_COUNT>
0

> <PUBCHEM_BOND_DEF_STEREO_COUNT>
0

> <PUBCHEM_BOND_UDEF_STEREO_COUNT>
0

> <PUBCHEM_ISOTOPIC_ATOM_COUNT>
0

> <PUBCHEM_COMPONENT_COUNT>
1

> <PUBCHEM_CACTVS_TAUTO_COUNT>
5

> <PUBCHEM_COORDINATE_TYPE>
1
5
255

> <PUBCHEM_BONDANNOTATIONS>
1  4  8
1  9  8
2  5  8
2  9  8
4  6  8
5  6  8

$$$$

