11977
  -OEChem-06261206213D

 20 19  0     0  0  0  0  0  0999 V2000
    1.4038   -0.2503   -0.0212 O   0  0  0  0  0  0  0  0  0  0  0  0
    0.4943    1.8210    0.3296 O   0  0  0  0  0  0  0  0  0  0  0  0
   -2.0430   -2.0049    0.0785 O   0  0  0  0  0  0  0  0  0  0  0  0
   -0.8785   -0.0470    0.2201 N   0  0  0  0  0  0  0  0  0  0  0  0
   -0.9057   -1.5236    0.0331 N   0  0  0  0  0  0  0  0  0  0  0  0
   -2.1289    0.6671    0.4286 C   0  0  0  0  0  0  0  0  0  0  0  0
   -2.7363    1.1170   -0.8840 C   0  0  0  0  0  0  0  0  0  0  0  0
    2.7045    0.3476   -0.0683 C   0  0  0  0  0  0  0  0  0  0  0  0
    0.3534    0.6075    0.1880 C   0  0  0  0  0  0  0  0  0  0  0  0
    3.7365   -0.7345   -0.3045 C   0  0  0  0  0  0  0  0  0  0  0  0
   -2.8318    0.0515    0.9999 H   0  0  0  0  0  0  0  0  0  0  0  0
   -1.9216    1.5534    1.0397 H   0  0  0  0  0  0  0  0  0  0  0  0
   -2.0491    1.7671   -1.4356 H   0  0  0  0  0  0  0  0  0  0  0  0
   -2.9718    0.2617   -1.5256 H   0  0  0  0  0  0  0  0  0  0  0  0
   -3.6616    1.6733   -0.7051 H   0  0  0  0  0  0  0  0  0  0  0  0
    2.7408    1.0780   -0.8841 H   0  0  0  0  0  0  0  0  0  0  0  0
    2.9084    0.8523    0.8826 H   0  0  0  0  0  0  0  0  0  0  0  0
    4.7442   -0.3116   -0.3461 H   0  0  0  0  0  0  0  0  0  0  0  0
    3.6996   -1.4829    0.4939 H   0  0  0  0  0  0  0  0  0  0  0  0
    3.5347   -1.2610   -1.2432 H   0  0  0  0  0  0  0  0  0  0  0  0
  1  8  1  0  0  0  0
  1  9  1  0  0  0  0
  2  9  2  0  0  0  0
  3  5  2  0  0  0  0
  4  5  1  0  0  0  0
  4  6  1  0  0  0  0
  4  9  1  0  0  0  0
  6  7  1  0  0  0  0
  6 11  1  0  0  0  0
  6 12  1  0  0  0  0
  7 13  1  0  0  0  0
  7 14  1  0  0  0  0
  7 15  1  0  0  0  0
  8 10  1  0  0  0  0
  8 16  1  0  0  0  0
  8 17  1  0  0  0  0
 10 18  1  0  0  0  0
 10 19  1  0  0  0  0
 10 20  1  0  0  0  0
M  END
> <PUBCHEM_COMPOUND_CID>
11977

> <PUBCHEM_CONFORMER_RMSD>
0.6

> <PUBCHEM_CONFORMER_DIVERSEORDER>
1
10
49
24
33
7
26
19
51
31
37
56
12
50
25
58
48
17
36
15
41
28
6
23
21
4
16
22
35
34
27
39
40
20
30
57
3
13
43
14
53
11
29
9
52
2
18
38
47
54
5
45
42
32
55
8
46
44

> <PUBCHEM_MMFF94_PARTIAL_CHARGES>
8
1 -0.43
2 -0.57
3 -0.16
4 -0.18
5 -0.02
6 0.3
8 0.28
9 0.78

> <PUBCHEM_EFFECTIVE_ROTOR_COUNT>
5

> <PUBCHEM_PHARMACOPHORE_FEATURES>
1
1 2 acceptor

> <PUBCHEM_HEAVY_ATOM_COUNT>
10

> <PUBCHEM_ATOM_DEF_STEREO_COUNT>
0

> <PUBCHEM_ATOM_UDEF_STEREO_COUNT>
0

> <PUBCHEM_BOND_DEF_STEREO_COUNT>
0

> <PUBCHEM_BOND_UDEF_STEREO_COUNT>
0

> <PUBCHEM_ISOTOPIC_ATOM_COUNT>
0

> <PUBCHEM_COMPONENT_COUNT>
1

> <PUBCHEM_CACTVS_TAUTO_COUNT>
1

> <PUBCHEM_CONFORMER_ID>
00002EC900000001

> <PUBCHEM_MMFF94_ENERGY>
9.6897

> <PUBCHEM_FEATURE_SELFOVERLAP>
5.074

> <PUBCHEM_SHAPE_FINGERPRINT>
12716758 59 18411705391327764720
12932741 1 18114188497187079912
12932764 1 17918277554152396288
15310529 11 16917068909849967832
20201158 50 18187081814725536454
21040471 1 18340496654810944865
21293036 1 18411142471534235373
23552423 10 18200029526056841952
2748010 2 18264211313873055472
3248919 1 17749381585963101072

> <PUBCHEM_SHAPE_MULTIPOLES>
178.23
5.1
1.68
0.71
3.63
0.6
0.08
0.26
1.01
-0.98
-0.06
-0.23
-0.12
0.32

> <PUBCHEM_SHAPE_SELFOVERLAP>
326.309

> <PUBCHEM_SHAPE_VOLUME>
113

> <PUBCHEM_COORDINATE_TYPE>
2
5
10

$$$$

