17396465
  -OEChem-06241222563D

 53 55  0     0  0  0  0  0  0999 V2000
   -1.5016    1.6698   -0.6620 O   0  0  0  0  0  0  0  0  0  0  0  0
   -0.9505   -2.4289   -0.8158 O   0  0  0  0  0  0  0  0  0  0  0  0
   -5.2473    0.9781    1.0279 O   0  0  0  0  0  0  0  0  0  0  0  0
    1.0764    2.2453   -1.3722 O   0  0  0  0  0  0  0  0  0  0  0  0
   -3.1529   -2.6103   -0.2053 O   0  0  0  0  0  0  0  0  0  0  0  0
   -5.2159   -0.9769   -0.1692 O   0  0  0  0  0  0  0  0  0  0  0  0
    0.1787    0.0842   -1.1274 N   0  0  0  0  0  0  0  0  0  0  0  0
    3.6279    0.7079   -0.8824 C   0  0  0  0  0  0  0  0  0  0  0  0
    3.9292    0.0051    0.2956 C   0  0  0  0  0  0  0  0  0  0  0  0
    2.4775    0.3263   -1.7623 C   0  0  0  0  0  0  0  0  0  0  0  0
    5.0304    0.4161    1.0839 C   0  0  0  0  0  0  0  0  0  0  0  0
   -2.2056   -0.4557   -0.4682 C   0  0  0  0  0  0  0  0  0  0  0  0
   -1.1407    0.3637   -0.7626 C   0  0  0  0  0  0  0  0  0  0  0  0
   -3.2904    0.4020   -0.1673 C   0  0  0  0  0  0  0  0  0  0  0  0
    1.1701    1.0227   -1.4006 C   0  0  0  0  0  0  0  0  0  0  0  0
   -2.8112    1.6846   -0.2995 C   0  0  0  0  0  0  0  0  0  0  0  0
    4.4009    1.8002   -1.2775 C   0  0  0  0  0  0  0  0  0  0  0  0
    3.1620   -1.0963    0.7086 C   0  0  0  0  0  0  0  0  0  0  0  0
    5.7979    1.5174    0.6709 C   0  0  0  0  0  0  0  0  0  0  0  0
    5.4840    2.2040   -0.5024 C   0  0  0  0  0  0  0  0  0  0  0  0
    5.3321   -0.2865    2.2619 C   0  0  0  0  0  0  0  0  0  0  0  0
    3.4760   -1.7826    1.8819 C   0  0  0  0  0  0  0  0  0  0  0  0
   -3.4162    3.0143   -0.1285 C   0  0  0  0  0  0  0  0  0  0  0  0
   -2.1758   -1.8903   -0.4763 C   0  0  0  0  0  0  0  0  0  0  0  0
    4.5589   -1.3785    2.6572 C   0  0  0  0  0  0  0  0  0  0  0  0
   -4.6319    0.0562    0.2038 C   0  0  0  0  0  0  0  0  0  0  0  0
   -0.8503   -3.8572   -0.8432 C   0  0  0  0  0  0  0  0  0  0  0  0
   -6.5901    0.6947    1.4370 C   0  0  0  0  0  0  0  0  0  0  0  0
    0.5597   -4.2453   -1.2339 C   0  0  0  0  0  0  0  0  0  0  0  0
   -7.0811    1.8157    2.3281 C   0  0  0  0  0  0  0  0  0  0  0  0
    2.3695   -0.7607   -1.8382 H   0  0  0  0  0  0  0  0  0  0  0  0
    2.6962    0.6250   -2.7981 H   0  0  0  0  0  0  0  0  0  0  0  0
    4.1703    2.3494   -2.1868 H   0  0  0  0  0  0  0  0  0  0  0  0
    0.4025   -0.9050   -1.1928 H   0  0  0  0  0  0  0  0  0  0  0  0
    2.3025   -1.4539    0.1517 H   0  0  0  0  0  0  0  0  0  0  0  0
    6.6488    1.8508    1.2613 H   0  0  0  0  0  0  0  0  0  0  0  0
    6.0852    3.0546   -0.8100 H   0  0  0  0  0  0  0  0  0  0  0  0
    6.1739    0.0118    2.8833 H   0  0  0  0  0  0  0  0  0  0  0  0
   -3.5635    3.2363    0.9329 H   0  0  0  0  0  0  0  0  0  0  0  0
   -2.7783    3.7981   -0.5496 H   0  0  0  0  0  0  0  0  0  0  0  0
   -4.3855    3.0710   -0.6335 H   0  0  0  0  0  0  0  0  0  0  0  0
    2.8736   -2.6318    2.1913 H   0  0  0  0  0  0  0  0  0  0  0  0
    4.8024   -1.9130    3.5707 H   0  0  0  0  0  0  0  0  0  0  0  0
   -1.5614   -4.2567   -1.5744 H   0  0  0  0  0  0  0  0  0  0  0  0
   -1.0844   -4.2572    0.1493 H   0  0  0  0  0  0  0  0  0  0  0  0
   -6.6102   -0.2528    1.9866 H   0  0  0  0  0  0  0  0  0  0  0  0
   -7.2305    0.6163    0.5517 H   0  0  0  0  0  0  0  0  0  0  0  0
    0.8178   -3.8264   -2.2122 H   0  0  0  0  0  0  0  0  0  0  0  0
    1.2822   -3.8432   -0.5162 H   0  0  0  0  0  0  0  0  0  0  0  0
    0.6697   -5.3324   -1.2738 H   0  0  0  0  0  0  0  0  0  0  0  0
   -8.1070    1.6318    2.6590 H   0  0  0  0  0  0  0  0  0  0  0  0
   -7.0465    2.7728    1.7970 H   0  0  0  0  0  0  0  0  0  0  0  0
   -6.4380    1.9177    3.2084 H   0  0  0  0  0  0  0  0  0  0  0  0
  1 13  1  0  0  0  0
  1 16  1  0  0  0  0
  2 24  1  0  0  0  0
  2 27  1  0  0  0  0
  3 26  1  0  0  0  0
  3 28  1  0  0  0  0
  4 15  2  0  0  0  0
  5 24  2  0  0  0  0
  6 26  2  0  0  0  0
  7 13  1  0  0  0  0
  7 15  1  0  0  0  0
  7 34  1  0  0  0  0
  8  9  1  0  0  0  0
  8 10  1  0  0  0  0
  8 17  2  0  0  0  0
  9 11  1  0  0  0  0
  9 18  2  0  0  0  0
 10 15  1  0  0  0  0
 10 31  1  0  0  0  0
 10 32  1  0  0  0  0
 11 19  1  0  0  0  0
 11 21  2  0  0  0  0
 12 13  2  0  0  0  0
 12 14  1  0  0  0  0
 12 24  1  0  0  0  0
 14 16  2  0  0  0  0
 14 26  1  0  0  0  0
 16 23  1  0  0  0  0
 17 20  1  0  0  0  0
 17 33  1  0  0  0  0
 18 22  1  0  0  0  0
 18 35  1  0  0  0  0
 19 20  2  0  0  0  0
 19 36  1  0  0  0  0
 20 37  1  0  0  0  0
 21 25  1  0  0  0  0
 21 38  1  0  0  0  0
 22 25  2  0  0  0  0
 22 42  1  0  0  0  0
 23 39  1  0  0  0  0
 23 40  1  0  0  0  0
 23 41  1  0  0  0  0
 25 43  1  0  0  0  0
 27 29  1  0  0  0  0
 27 44  1  0  0  0  0
 27 45  1  0  0  0  0
 28 30  1  0  0  0  0
 28 46  1  0  0  0  0
 28 47  1  0  0  0  0
 29 48  1  0  0  0  0
 29 49  1  0  0  0  0
 29 50  1  0  0  0  0
 30 51  1  0  0  0  0
 30 52  1  0  0  0  0
 30 53  1  0  0  0  0
M  END
> <PUBCHEM_COMPOUND_CID>
17396465

> <PUBCHEM_CONFORMER_RMSD>
1

> <PUBCHEM_CONFORMER_DIVERSEORDER>
3
22
20
39
30
2
43
25
9
32
36
40
13
11
4
28
34
37
42
23
33
16
31
5
26
8
41
18
24
44
10
35
12
38
17
27
6
7
29
15
19
1
21
14

> <PUBCHEM_MMFF94_PARTIAL_CHARGES>
34
1 -0.28
10 0.2
12 -0.09
13 0.2
14 -0.09
15 0.57
16 -0.04
17 -0.15
18 -0.15
19 -0.15
2 -0.43
20 -0.15
21 -0.15
22 -0.15
23 0.18
24 0.81
25 -0.15
26 0.81
27 0.28
28 0.28
3 -0.43
33 0.15
34 0.37
35 0.15
36 0.15
37 0.15
38 0.15
4 -0.57
42 0.15
43 0.15
5 -0.57
6 -0.57
7 -0.49
8 -0.14

> <PUBCHEM_EFFECTIVE_ROTOR_COUNT>
10

> <PUBCHEM_PHARMACOPHORE_FEATURES>
8
1 1 acceptor
1 4 acceptor
1 5 acceptor
1 6 acceptor
1 7 donor
5 1 12 13 14 16 rings
6 8 9 11 17 19 20 rings
6 9 11 18 21 22 25 rings

> <PUBCHEM_HEAVY_ATOM_COUNT>
30

> <PUBCHEM_ATOM_DEF_STEREO_COUNT>
0

> <PUBCHEM_ATOM_UDEF_STEREO_COUNT>
0

> <PUBCHEM_BOND_DEF_STEREO_COUNT>
0

> <PUBCHEM_BOND_UDEF_STEREO_COUNT>
0

> <PUBCHEM_ISOTOPIC_ATOM_COUNT>
0

> <PUBCHEM_COMPONENT_COUNT>
1

> <PUBCHEM_CACTVS_TAUTO_COUNT>
4

> <PUBCHEM_CONFORMER_ID>
010972F100000003

> <PUBCHEM_MMFF94_ENERGY>
63.4325

> <PUBCHEM_FEATURE_SELFOVERLAP>
40.637

> <PUBCHEM_SHAPE_FINGERPRINT>
10939801 23 18341604863500179581
12107183 9 17840319040096033288
12422481 6 18200598123913622927
12633257 1 18260557692637239040
12788726 201 18192442874308757790
12839892 36 18410858780613064343
12925494 130 17759802941924009881
13533116 47 17632291280879859480
13726171 33 18044363938604727336
14341114 328 18341619179343108108
14739800 52 17169266156072721715
14840074 17 18202283576412356662
15064986 96 18049736405462363074
15537594 2 17989488498751904742
16728300 4 17845665870694338313
16992610 120 17344893142124085596
16994733 274 16298670594484707897
1813 80 16272209730117067892
19319366 153 18131080320163310162
19377110 9 18272369767371179984
1979834 28 18339073912376306743
20511986 3 17986977188234440908
20554085 129 17822012038633926099
20775438 99 10589750981148646009
21033648 29 16877666747054451792
21421861 104 18202567276651514404
21424621 283 17168969228025427345
21623969 137 16630526219791298568
23559900 14 18114165463388144598
3680242 22 18272369780187029232
5104073 3 18270399373756381793
7064713 232 18337689576156226258
9961470 85 17543348710482383273

> <PUBCHEM_SHAPE_MULTIPOLES>
577.19
15.64
3.71
2.04
9.42
3.76
1.22
-8.79
11.12
0.97
-1.39
-1.45
0.14
-3.16

> <PUBCHEM_SHAPE_SELFOVERLAP>
1241.935

> <PUBCHEM_SHAPE_VOLUME>
317.2

> <PUBCHEM_COORDINATE_TYPE>
2
5
10

$$$$

