12063
  -OEChem-06261206283D

 15 15  0     0  0  0  0  0  0999 V2000
    2.1380    2.8953   -0.0015 Br  0  0  0  0  0  0  0  0  0  0  0  0
    2.3275   -2.7919    0.0003 Br  0  0  0  0  0  0  0  0  0  0  0  0
   -2.8185    1.1416    0.0015 O   0  0  0  0  0  0  0  0  0  0  0  0
   -2.9384   -1.1282   -0.0016 O   0  0  0  0  0  0  0  0  0  0  0  0
   -0.8029   -0.0497    0.0004 C   0  0  0  0  0  0  0  0  0  0  0  0
   -0.0655   -1.2336    0.0000 C   0  0  0  0  0  0  0  0  0  0  0  0
   -0.1461    1.1809    0.0007 C   0  0  0  0  0  0  0  0  0  0  0  0
    1.2481    1.2275    0.0007 C   0  0  0  0  0  0  0  0  0  0  0  0
    1.3286   -1.1872   -0.0001 C   0  0  0  0  0  0  0  0  0  0  0  0
    1.9855    0.0434    0.0003 C   0  0  0  0  0  0  0  0  0  0  0  0
   -2.2565   -0.0981   -0.0005 C   0  0  0  0  0  0  0  0  0  0  0  0
   -0.5739   -2.1952   -0.0003 H   0  0  0  0  0  0  0  0  0  0  0  0
   -0.6961    2.1185    0.0004 H   0  0  0  0  0  0  0  0  0  0  0  0
    3.0728    0.0797    0.0000 H   0  0  0  0  0  0  0  0  0  0  0  0
   -3.7985    1.0981    0.0014 H   0  0  0  0  0  0  0  0  0  0  0  0
  1  8  1  0  0  0  0
  2  9  1  0  0  0  0
  3 11  1  0  0  0  0
  3 15  1  0  0  0  0
  4 11  2  0  0  0  0
  5  6  2  0  0  0  0
  5  7  1  0  0  0  0
  5 11  1  0  0  0  0
  6  9  1  0  0  0  0
  6 12  1  0  0  0  0
  7  8  2  0  0  0  0
  7 13  1  0  0  0  0
  8 10  1  0  0  0  0
  9 10  2  0  0  0  0
 10 14  1  0  0  0  0
M  END
> <PUBCHEM_COMPOUND_CID>
12063

> <PUBCHEM_CONFORMER_RMSD>
0.4

> <PUBCHEM_CONFORMER_DIVERSEORDER>
1
2

> <PUBCHEM_MMFF94_PARTIAL_CHARGES>
15
1 -0.11
10 -0.15
11 0.63
12 0.15
13 0.15
14 0.15
15 0.5
2 -0.11
3 -0.65
4 -0.57
5 0.09
6 -0.15
7 -0.15
8 0.11
9 0.11

> <PUBCHEM_EFFECTIVE_ROTOR_COUNT>
1

> <PUBCHEM_PHARMACOPHORE_FEATURES>
6
1 1 hydrophobe
1 2 hydrophobe
1 3 acceptor
1 4 acceptor
3 3 4 11 anion
6 5 6 7 8 9 10 rings

> <PUBCHEM_HEAVY_ATOM_COUNT>
11

> <PUBCHEM_ATOM_DEF_STEREO_COUNT>
0

> <PUBCHEM_ATOM_UDEF_STEREO_COUNT>
0

> <PUBCHEM_BOND_DEF_STEREO_COUNT>
0

> <PUBCHEM_BOND_UDEF_STEREO_COUNT>
0

> <PUBCHEM_ISOTOPIC_ATOM_COUNT>
0

> <PUBCHEM_COMPONENT_COUNT>
1

> <PUBCHEM_CACTVS_TAUTO_COUNT>
1

> <PUBCHEM_CONFORMER_ID>
00002F1F00000001

> <PUBCHEM_MMFF94_ENERGY>
26.3975

> <PUBCHEM_FEATURE_SELFOVERLAP>
30.503

> <PUBCHEM_SHAPE_FINGERPRINT>
1 1 18338516318420910740
12423570 1 9222670995318575622
13380535 76 18050570638503075432
14325111 11 18266459797993256065
14648413 74 18412544335990520161
16945 1 18410855443048577862
17990270 104 18411703209394921843
19021347 4 17906735800201548592
19973954 147 18410855473387785473
20645477 70 18340215111553029743
20711985 344 17475239479688867362
20871998 184 16749012603841345140
20871998 22 18119527884597407694
21040471 1 17978228262300516736
21524375 3 18051416167234787576
23552423 10 18410291397925949431
241688 4 17978508964246099744
2748010 2 18121510308404169310
3071541 12 18410005538004206148
7364860 26 18408885131323274016
81228 2 17544469121335514586

> <PUBCHEM_SHAPE_MULTIPOLES>
226.52
3.99
3.22
0.63
2.85
0.43
0
-0.46
0
-3.45
0
-0.1
0
0

> <PUBCHEM_SHAPE_SELFOVERLAP>
446.794

> <PUBCHEM_SHAPE_VOLUME>
141

> <PUBCHEM_COORDINATE_TYPE>
2
5
10

$$$$

