13065
  -OEChem-06261207433D

 31 32  0     0  0  0  0  0  0999 V2000
   -0.0078    1.1575   -0.0010 C   0  0  0  0  0  0  0  0  0  0  0  0
   -1.2495    0.3324   -0.0477 C   0  0  0  0  0  0  0  0  0  0  0  0
    1.2886    0.2823    0.0488 C   0  0  0  0  0  0  0  0  0  0  0  0
    0.1197    2.1264    1.2343 C   0  0  0  0  0  0  0  0  0  0  0  0
   -0.0086    2.1292   -1.2331 C   0  0  0  0  0  0  0  0  0  0  0  0
   -1.4565   -0.5573   -1.1019 C   0  0  0  0  0  0  0  0  0  0  0  0
    1.4284   -0.5667    1.1016 C   0  0  0  0  0  0  0  0  0  0  0  0
   -2.2039    0.4508    0.9625 C   0  0  0  0  0  0  0  0  0  0  0  0
    2.1831    0.4336   -0.9639 C   0  0  0  0  0  0  0  0  0  0  0  0
   -2.6181   -1.3286   -1.1458 C   0  0  0  0  0  0  0  0  0  0  0  0
    2.5841   -1.3465    1.1464 C   0  0  0  0  0  0  0  0  0  0  0  0
   -3.3653   -0.3205    0.9188 C   0  0  0  0  0  0  0  0  0  0  0  0
    3.3388   -0.3462   -0.9193 C   0  0  0  0  0  0  0  0  0  0  0  0
   -3.5723   -1.2101   -0.1355 C   0  0  0  0  0  0  0  0  0  0  0  0
    3.5393   -1.2362    0.1359 C   0  0  0  0  0  0  0  0  0  0  0  0
   -0.6898    2.8667    1.2441 H   0  0  0  0  0  0  0  0  0  0  0  0
    0.0958    1.5969    2.1937 H   0  0  0  0  0  0  0  0  0  0  0  0
    1.0648    2.6838    1.2016 H   0  0  0  0  0  0  0  0  0  0  0  0
   -0.9163    2.7476   -1.2242 H   0  0  0  0  0  0  0  0  0  0  0  0
    0.8405    2.8235   -1.2177 H   0  0  0  0  0  0  0  0  0  0  0  0
   -0.0093    1.6019   -2.1944 H   0  0  0  0  0  0  0  0  0  0  0  0
   -0.7264   -0.6701   -1.8987 H   0  0  0  0  0  0  0  0  0  0  0  0
    0.6912   -0.6665    1.8902 H   0  0  0  0  0  0  0  0  0  0  0  0
   -2.0933    1.1269    1.8030 H   0  0  0  0  0  0  0  0  0  0  0  0
    2.0829    1.1012   -1.8080 H   0  0  0  0  0  0  0  0  0  0  0  0
   -2.7790   -2.0221   -1.9660 H   0  0  0  0  0  0  0  0  0  0  0  0
    2.7396   -2.0407    1.9671 H   0  0  0  0  0  0  0  0  0  0  0  0
   -4.1091   -0.2288    1.7050 H   0  0  0  0  0  0  0  0  0  0  0  0
    4.0828   -0.2620   -1.7062 H   0  0  0  0  0  0  0  0  0  0  0  0
   -4.4766   -1.8108   -0.1695 H   0  0  0  0  0  0  0  0  0  0  0  0
    4.4388   -1.8438    0.1703 H   0  0  0  0  0  0  0  0  0  0  0  0
  1  2  1  0  0  0  0
  1  3  1  0  0  0  0
  1  4  1  0  0  0  0
  1  5  1  0  0  0  0
  2  6  2  0  0  0  0
  2  8  1  0  0  0  0
  3  7  2  0  0  0  0
  3  9  1  0  0  0  0
  4 16  1  0  0  0  0
  4 17  1  0  0  0  0
  4 18  1  0  0  0  0
  5 19  1  0  0  0  0
  5 20  1  0  0  0  0
  5 21  1  0  0  0  0
  6 10  1  0  0  0  0
  6 22  1  0  0  0  0
  7 11  1  0  0  0  0
  7 23  1  0  0  0  0
  8 12  2  0  0  0  0
  8 24  1  0  0  0  0
  9 13  2  0  0  0  0
  9 25  1  0  0  0  0
 10 14  2  0  0  0  0
 10 26  1  0  0  0  0
 11 15  2  0  0  0  0
 11 27  1  0  0  0  0
 12 14  1  0  0  0  0
 12 28  1  0  0  0  0
 13 15  1  0  0  0  0
 13 29  1  0  0  0  0
 14 30  1  0  0  0  0
 15 31  1  0  0  0  0
M  END
> <PUBCHEM_COMPOUND_CID>
13065

> <PUBCHEM_CONFORMER_RMSD>
0.6

> <PUBCHEM_CONFORMER_DIVERSEORDER>
1
2
3

> <PUBCHEM_MMFF94_PARTIAL_CHARGES>
23
1 0.29
10 -0.15
11 -0.15
12 -0.15
13 -0.15
14 -0.15
15 -0.15
2 -0.14
22 0.15
23 0.15
24 0.15
25 0.15
26 0.15
27 0.15
28 0.15
29 0.15
3 -0.14
30 0.15
31 0.15
6 -0.15
7 -0.15
8 -0.15
9 -0.15

> <PUBCHEM_EFFECTIVE_ROTOR_COUNT>
2

> <PUBCHEM_PHARMACOPHORE_FEATURES>
3
3 1 4 5 hydrophobe
6 2 6 8 10 12 14 rings
6 3 7 9 11 13 15 rings

> <PUBCHEM_HEAVY_ATOM_COUNT>
15

> <PUBCHEM_ATOM_DEF_STEREO_COUNT>
0

> <PUBCHEM_ATOM_UDEF_STEREO_COUNT>
0

> <PUBCHEM_BOND_DEF_STEREO_COUNT>
0

> <PUBCHEM_BOND_UDEF_STEREO_COUNT>
0

> <PUBCHEM_ISOTOPIC_ATOM_COUNT>
0

> <PUBCHEM_COMPONENT_COUNT>
1

> <PUBCHEM_CACTVS_TAUTO_COUNT>
1

> <PUBCHEM_CONFORMER_ID>
0000330900000001

> <PUBCHEM_MMFF94_ENERGY>
59.9091

> <PUBCHEM_FEATURE_SELFOVERLAP>
15.223

> <PUBCHEM_SHAPE_FINGERPRINT>
10618630 7 18336828683968118478
11471102 22 13912314711716797038
11578080 2 18338535087112515792
11769659 78 18410573989446431427
12251169 10 15936415519781199090
12346177 29 17530974592105986159
12423570 1 15408330976987009836
124424 183 15285632239684743099
12553582 1 18410856563945696135
12892183 10 15719108076006521058
13296908 3 18410865360033183773
13299463 15 16056875862052355802
13581323 91 16660641834796749167
13705890 14 16917068854352989962
15375462 189 18410569578610048706
15653759 3 16153423956475685130
15906896 17 17769944802486308093
16752209 62 18263934404726142325
16945 1 17916862422183366476
17804303 29 16950551190731266159
1813 80 18339906199744392742
18186145 218 14836121082770802108
18522851 12 18410565193353948391
18981168 100 9294163672123645469
19422 9 18410562994335486887
200 152 17632294609848408562
20361792 2 18341057354032555255
20645477 70 18192441770886992135
20671657 53 17560804376700654646
21296965 67 18409451388232948553
21713013 43 17060616681444278659
21731516 1 18410863156730791663
22112679 90 18189035586400096273
2255824 54 18196368113418021765
22802520 49 15913340129499919343
232386 152 18040711429279272933
23402539 116 18272650186413358302
23419403 2 15873432148263288295
23559900 14 16951108682187559820
3323516 105 17274532127425472475
449060 23 18335695074600156990
465052 167 18338785712182781371
5262128 65 15267052683698717230
7364860 26 17606403146449233985
74978 22 18187932703649910135
77492 1 18338503196989963557
81228 2 17896885567159377105
83771 10 18411698789873307810

> <PUBCHEM_SHAPE_MULTIPOLES>
308.69
5.84
1.84
1.4
0.21
0.81
0
-3.57
0
-0.05
0
0
0.12
-0.69

> <PUBCHEM_SHAPE_SELFOVERLAP>
664.049

> <PUBCHEM_SHAPE_VOLUME>
163.8

> <PUBCHEM_COORDINATE_TYPE>
2
5
10

$$$$

