5281364
  -OEChem-07051212563D

 76 79  0     1  0  0  0  0  0999 V2000
   -1.2907    0.5713    0.6800 O   0  0  0  0  0  0  0  0  0  0  0  0
    0.2176    2.2599    2.0482 O   0  0  0  0  0  0  0  0  0  0  0  0
   -2.2868    0.6505   -1.4699 O   0  0  0  0  0  0  0  0  0  0  0  0
    6.2969    1.3378   -2.3474 O   0  0  0  0  0  0  0  0  0  0  0  0
   -2.7460    2.8469    1.4406 O   0  0  0  0  0  0  0  0  0  0  0  0
   -5.4511    2.0611    0.7767 O   0  0  0  0  0  0  0  0  0  0  0  0
   -5.5679   -0.5861   -0.3327 O   0  0  0  0  0  0  0  0  0  0  0  0
   -4.0058   -0.1319   -3.5014 O   0  0  0  0  0  0  0  0  0  0  0  0
    3.2148    0.1256    1.0401 C   0  0  1  0  0  0  0  0  0  0  0  0
    1.2053   -1.4384   -1.0362 C   0  0  2  0  0  0  0  0  0  0  0  0
    2.3698    1.3838    1.3948 C   0  0  2  0  0  0  0  0  0  0  0  0
    3.4037   -0.1686   -0.4352 C   0  0  0  0  0  0  0  0  0  0  0  0
    0.4403   -1.0019    0.1978 C   0  0  0  0  0  0  0  0  0  0  0  0
    4.8223    0.1790   -0.8700 C   0  0  2  0  0  0  0  0  0  0  0  0
    0.1190    0.4506    0.4405 C   0  0  2  0  0  0  0  0  0  0  0  0
    0.8729    1.0521    1.6375 C   0  0  2  0  0  0  0  0  0  0  0  0
    4.6700    0.2310    1.5325 C   0  0  0  0  0  0  0  0  0  0  0  0
    1.4175   -2.9496   -0.7724 C   0  0  0  0  0  0  0  0  0  0  0  0
    2.5680   -0.8188   -1.2660 C   0  0  0  0  0  0  0  0  0  0  0  0
    5.4653    0.7969    0.3703 C   0  0  0  0  0  0  0  0  0  0  0  0
   -0.0075   -2.0651    0.8953 C   0  0  0  0  0  0  0  0  0  0  0  0
    0.3683   -3.3621    0.2504 C   0  0  0  0  0  0  0  0  0  0  0  0
    0.3260   -1.2312   -2.2843 C   0  0  0  0  0  0  0  0  0  0  0  0
    2.5315    2.5701    0.4280 C   0  0  0  0  0  0  0  0  0  0  0  0
   -0.8408   -2.1072    2.1308 C   0  0  0  0  0  0  0  0  0  0  0  0
    4.9271    1.1037   -2.0786 C   0  0  0  0  0  0  0  0  0  0  0  0
   -1.9091    1.3928   -0.3086 C   0  0  1  0  0  0  0  0  0  0  0  0
   -2.1623   -2.8275    1.8637 C   0  0  0  0  0  0  0  0  0  0  0  0
   -0.0869   -2.7764    3.2809 C   0  0  0  0  0  0  0  0  0  0  0  0
   -3.1051    2.1726    0.2398 C   0  0  1  0  0  0  0  0  0  0  0  0
   -4.2985    1.2585    0.5103 C   0  0  2  0  0  0  0  0  0  0  0  0
   -3.3220   -0.3068   -1.2189 C   0  0  1  0  0  0  0  0  0  0  0  0
   -4.5942    0.3845   -0.7102 C   0  0  1  0  0  0  0  0  0  0  0  0
   -3.5614   -1.0572   -2.5264 C   0  0  0  0  0  0  0  0  0  0  0  0
    2.7868   -0.7430    1.5557 H   0  0  0  0  0  0  0  0  0  0  0  0
    2.7343    1.7562    2.3636 H   0  0  0  0  0  0  0  0  0  0  0  0
    0.3940    1.0118   -0.4583 H   0  0  0  0  0  0  0  0  0  0  0  0
    5.3579   -0.7569   -1.0840 H   0  0  0  0  0  0  0  0  0  0  0  0
    0.7973    0.3742    2.4963 H   0  0  0  0  0  0  0  0  0  0  0  0
    4.7813    0.8360    2.4377 H   0  0  0  0  0  0  0  0  0  0  0  0
    5.0471   -0.7730    1.7705 H   0  0  0  0  0  0  0  0  0  0  0  0
    1.3443   -3.5559   -1.6831 H   0  0  0  0  0  0  0  0  0  0  0  0
    2.4124   -3.1464   -0.3475 H   0  0  0  0  0  0  0  0  0  0  0  0
    2.9575   -1.0181   -2.2662 H   0  0  0  0  0  0  0  0  0  0  0  0
    6.5254    0.5316    0.4505 H   0  0  0  0  0  0  0  0  0  0  0  0
    5.4130    1.8897    0.3655 H   0  0  0  0  0  0  0  0  0  0  0  0
   -0.4973   -3.8127   -0.2469 H   0  0  0  0  0  0  0  0  0  0  0  0
    0.7909   -4.0890    0.9490 H   0  0  0  0  0  0  0  0  0  0  0  0
    0.1403   -0.1705   -2.4840 H   0  0  0  0  0  0  0  0  0  0  0  0
    0.8009   -1.6514   -3.1792 H   0  0  0  0  0  0  0  0  0  0  0  0
   -0.6365   -1.7357   -2.1686 H   0  0  0  0  0  0  0  0  0  0  0  0
    2.2242    2.3227   -0.5917 H   0  0  0  0  0  0  0  0  0  0  0  0
    1.9339    3.4300    0.7484 H   0  0  0  0  0  0  0  0  0  0  0  0
    3.5648    2.9204    0.3982 H   0  0  0  0  0  0  0  0  0  0  0  0
   -1.0845   -1.0933    2.4629 H   0  0  0  0  0  0  0  0  0  0  0  0
    4.4886    0.6440   -2.9694 H   0  0  0  0  0  0  0  0  0  0  0  0
    4.4271    2.0642   -1.9175 H   0  0  0  0  0  0  0  0  0  0  0  0
   -1.2007    2.1648   -0.6367 H   0  0  0  0  0  0  0  0  0  0  0  0
    0.6581    2.5735    2.8564 H   0  0  0  0  0  0  0  0  0  0  0  0
   -2.0149   -3.8939    1.6590 H   0  0  0  0  0  0  0  0  0  0  0  0
   -2.7048   -2.3969    1.0224 H   0  0  0  0  0  0  0  0  0  0  0  0
   -2.8136   -2.7563    2.7423 H   0  0  0  0  0  0  0  0  0  0  0  0
   -0.6607   -2.6911    4.2106 H   0  0  0  0  0  0  0  0  0  0  0  0
    0.0840   -3.8433    3.1028 H   0  0  0  0  0  0  0  0  0  0  0  0
    0.8849   -2.2981    3.4472 H   0  0  0  0  0  0  0  0  0  0  0  0
   -3.3988    2.9371   -0.4911 H   0  0  0  0  0  0  0  0  0  0  0  0
   -4.1336    0.6470    1.4051 H   0  0  0  0  0  0  0  0  0  0  0  0
   -2.9643   -1.0339   -0.4891 H   0  0  0  0  0  0  0  0  0  0  0  0
   -5.0404    1.0140   -1.4900 H   0  0  0  0  0  0  0  0  0  0  0  0
    6.6457    1.9198   -1.6516 H   0  0  0  0  0  0  0  0  0  0  0  0
   -2.6466   -1.5167   -2.9054 H   0  0  0  0  0  0  0  0  0  0  0  0
   -4.3147   -1.8421   -2.4164 H   0  0  0  0  0  0  0  0  0  0  0  0
   -3.5350    3.3188    1.7576 H   0  0  0  0  0  0  0  0  0  0  0  0
   -5.6100    2.6300    0.0043 H   0  0  0  0  0  0  0  0  0  0  0  0
   -5.8921   -1.0125   -1.1435 H   0  0  0  0  0  0  0  0  0  0  0  0
   -3.3201    0.5517   -3.5924 H   0  0  0  0  0  0  0  0  0  0  0  0
  1 15  1  0  0  0  0
  1 27  1  0  0  0  0
  2 16  1  0  0  0  0
  2 59  1  0  0  0  0
  3 27  1  0  0  0  0
  3 32  1  0  0  0  0
  4 26  1  0  0  0  0
  4 70  1  0  0  0  0
  5 30  1  0  0  0  0
  5 73  1  0  0  0  0
  6 31  1  0  0  0  0
  6 74  1  0  0  0  0
  7 33  1  0  0  0  0
  7 75  1  0  0  0  0
  8 34  1  0  0  0  0
  8 76  1  0  0  0  0
  9 11  1  0  0  0  0
  9 12  1  0  0  0  0
  9 17  1  0  0  0  0
  9 35  1  0  0  0  0
 10 13  1  0  0  0  0
 10 18  1  0  0  0  0
 10 19  1  0  0  0  0
 10 23  1  0  0  0  0
 11 16  1  0  0  0  0
 11 24  1  0  0  0  0
 11 36  1  0  0  0  0
 12 14  1  0  0  0  0
 12 19  2  0  0  0  0
 13 15  1  0  0  0  0
 13 21  2  0  0  0  0
 14 20  1  0  0  0  0
 14 26  1  0  0  0  0
 14 38  1  0  0  0  0
 15 16  1  0  0  0  0
 15 37  1  0  0  0  0
 16 39  1  0  0  0  0
 17 20  1  0  0  0  0
 17 40  1  0  0  0  0
 17 41  1  0  0  0  0
 18 22  1  0  0  0  0
 18 42  1  0  0  0  0
 18 43  1  0  0  0  0
 19 44  1  0  0  0  0
 20 45  1  0  0  0  0
 20 46  1  0  0  0  0
 21 22  1  0  0  0  0
 21 25  1  0  0  0  0
 22 47  1  0  0  0  0
 22 48  1  0  0  0  0
 23 49  1  0  0  0  0
 23 50  1  0  0  0  0
 23 51  1  0  0  0  0
 24 52  1  0  0  0  0
 24 53  1  0  0  0  0
 24 54  1  0  0  0  0
 25 28  1  0  0  0  0
 25 29  1  0  0  0  0
 25 55  1  0  0  0  0
 26 56  1  0  0  0  0
 26 57  1  0  0  0  0
 27 30  1  0  0  0  0
 27 58  1  0  0  0  0
 28 60  1  0  0  0  0
 28 61  1  0  0  0  0
 28 62  1  0  0  0  0
 29 63  1  0  0  0  0
 29 64  1  0  0  0  0
 29 65  1  0  0  0  0
 30 31  1  0  0  0  0
 30 66  1  0  0  0  0
 31 33  1  0  0  0  0
 31 67  1  0  0  0  0
 32 33  1  0  0  0  0
 32 34  1  0  0  0  0
 32 68  1  0  0  0  0
 33 69  1  0  0  0  0
 34 71  1  0  0  0  0
 34 72  1  0  0  0  0
M  END
> <PUBCHEM_COMPOUND_CID>
5281364

> <PUBCHEM_CONFORMER_RMSD>
1

> <PUBCHEM_CONFORMER_DIVERSEORDER>
1
16
13
7
3
4
24
9
6
11
10
23
8
5
17
15
25
14
19
2
22
20
18
12
21

> <PUBCHEM_MMFF94_PARTIAL_CHARGES>
33
1 -0.56
10 0.28
12 -0.28
13 -0.28
14 0.14
15 0.42
16 0.28
19 -0.29
2 -0.68
21 -0.28
22 0.14
25 0.14
26 0.28
27 0.56
3 -0.56
30 0.28
31 0.28
32 0.28
33 0.28
34 0.28
4 -0.68
44 0.15
5 -0.68
59 0.4
6 -0.68
7 -0.68
70 0.4
73 0.4
74 0.4
75 0.4
76 0.4
8 -0.68
9 0.14

> <PUBCHEM_EFFECTIVE_ROTOR_COUNT>
7.8

> <PUBCHEM_PHARMACOPHORE_FEATURES>
18
1 1 acceptor
1 2 acceptor
1 2 donor
1 3 acceptor
1 4 acceptor
1 4 donor
1 5 acceptor
1 5 donor
1 6 acceptor
1 6 donor
1 7 acceptor
1 7 donor
1 8 acceptor
1 8 donor
3 25 28 29 hydrophobe
5 10 13 18 21 22 rings
5 9 12 14 17 20 rings
6 3 27 30 31 32 33 rings

> <PUBCHEM_HEAVY_ATOM_COUNT>
34

> <PUBCHEM_ATOM_DEF_STEREO_COUNT>
11

> <PUBCHEM_ATOM_UDEF_STEREO_COUNT>
0

> <PUBCHEM_BOND_DEF_STEREO_COUNT>
1

> <PUBCHEM_BOND_UDEF_STEREO_COUNT>
0

> <PUBCHEM_ISOTOPIC_ATOM_COUNT>
0

> <PUBCHEM_COMPONENT_COUNT>
1

> <PUBCHEM_CACTVS_TAUTO_COUNT>
1

> <PUBCHEM_CONFORMER_ID>
0050965400000001

> <PUBCHEM_MMFF94_ENERGY>
103.8223

> <PUBCHEM_FEATURE_SELFOVERLAP>
91.405

> <PUBCHEM_SHAPE_FINGERPRINT>
11578080 2 18127944534576156958
11961588 58 18270674269597698724
121448 382 18130793356339642315
12467345 10 15285626694871551227
12597179 24 18343295985540425346
12788726 201 17700964445316011490
133893 2 17627816410467852915
13583140 156 15984811610926239780
13726171 33 18054763149740020480
13911987 19 17632301168274110613
14251757 17 17022911129308331772
144659 39 17274238583385003288
17909252 39 17242165971480257398
19319366 153 18266174131597963099
20567600 347 18339366360968215178
20691752 17 18341910605068122612
20764821 26 18266448803024340203
21033648 144 17987803999393338500
21033650 10 18116132524314445048
22182313 1 18046054974787655944
22393880 68 17458067088095632036
22907989 373 18196358230919858740
23559900 14 17027402848850726007
238 59 18040708169552270874
3052486 1 17774999030074907891
35225 105 17701562630948890267
392239 28 18411978023652862251
4340502 62 18200300152315370017
4409770 3 18268131077411610458
469060 322 16988550270539969355

> <PUBCHEM_SHAPE_MULTIPOLES>
652.75
10.67
3.3
2.8
2.07
2.11
0.84
-7.05
4.25
-1.09
-1.87
-0.61
0.5
-0.55

> <PUBCHEM_SHAPE_SELFOVERLAP>
1369.968

> <PUBCHEM_SHAPE_VOLUME>
368.2

> <PUBCHEM_COORDINATE_TYPE>
2
5
10

$$$$

