22266652
  -OEChem-07051213103D

 20 19  0     0  0  0  0  0  0999 V2000
   -3.9585   -0.1333    0.5551 S   0  0  0  0  0  0  0  0  0  0  0  0
    1.2174    1.5328    0.3450 O   0  0  0  0  0  0  0  0  0  0  0  0
    3.5760    0.7430   -0.0846 O   0  0  0  0  0  0  0  0  0  0  0  0
    2.8384   -1.4131   -0.3520 O   0  0  0  0  0  0  0  0  0  0  0  0
   -1.2164    0.0263    0.3449 C   0  0  0  0  0  0  0  0  0  0  0  0
    0.1322   -0.6331    0.0515 C   0  0  0  0  0  0  0  0  0  0  0  0
   -2.3779   -0.9570    0.2051 C   0  0  0  0  0  0  0  0  0  0  0  0
    1.2912    0.3355    0.1125 C   0  0  0  0  0  0  0  0  0  0  0  0
   -4.1597    0.7274   -1.0214 C   0  0  0  0  0  0  0  0  0  0  0  0
    2.6573   -0.2284   -0.1561 C   0  0  0  0  0  0  0  0  0  0  0  0
   -1.3439    0.8720   -0.3413 H   0  0  0  0  0  0  0  0  0  0  0  0
   -1.1950    0.4452    1.3595 H   0  0  0  0  0  0  0  0  0  0  0  0
    0.1148   -1.0719   -0.9527 H   0  0  0  0  0  0  0  0  0  0  0  0
    0.3144   -1.4312    0.7799 H   0  0  0  0  0  0  0  0  0  0  0  0
   -2.2594   -1.7711    0.9281 H   0  0  0  0  0  0  0  0  0  0  0  0
   -2.4044   -1.4077   -0.7923 H   0  0  0  0  0  0  0  0  0  0  0  0
   -5.1373    1.2173   -1.0348 H   0  0  0  0  0  0  0  0  0  0  0  0
   -4.1203    0.0214   -1.8550 H   0  0  0  0  0  0  0  0  0  0  0  0
   -3.3946    1.4963   -1.1504 H   0  0  0  0  0  0  0  0  0  0  0  0
    4.4856    0.4063   -0.2315 H   0  0  0  0  0  0  0  0  0  0  0  0
  1  7  1  0  0  0  0
  1  9  1  0  0  0  0
  2  8  2  0  0  0  0
  3 10  1  0  0  0  0
  3 20  1  0  0  0  0
  4 10  2  0  0  0  0
  5  6  1  0  0  0  0
  5  7  1  0  0  0  0
  5 11  1  0  0  0  0
  5 12  1  0  0  0  0
  6  8  1  0  0  0  0
  6 13  1  0  0  0  0
  6 14  1  0  0  0  0
  7 15  1  0  0  0  0
  7 16  1  0  0  0  0
  8 10  1  0  0  0  0
  9 17  1  0  0  0  0
  9 18  1  0  0  0  0
  9 19  1  0  0  0  0
M  END
> <PUBCHEM_COMPOUND_CID>
22266652

> <PUBCHEM_CONFORMER_RMSD>
0.6

> <PUBCHEM_CONFORMER_DIVERSEORDER>
3
57
59
50
53
73
65
8
60
41
56
19
43
51
67
62
48
5
54
2
28
1
70
30
46
72
20
14
66
37
27
52
17
74
9
31
22
10
15
33
4
25
44
49
18
34
58
71
36
68
16
40
61
29
55
47
24
7
26
21
42
23
13
11
69
32
6
45
38
12
35
39
64
63

> <PUBCHEM_MMFF94_PARTIAL_CHARGES>
10
1 -0.46
10 0.72
2 -0.57
20 0.5
3 -0.65
4 -0.57
6 0.06
7 0.23
8 0.51
9 0.23

> <PUBCHEM_EFFECTIVE_ROTOR_COUNT>
5

> <PUBCHEM_PHARMACOPHORE_FEATURES>
6
1 2 acceptor
1 3 acceptor
1 4 acceptor
1 9 hydrophobe
3 3 4 10 anion
4 1 5 6 7 hydrophobe

> <PUBCHEM_HEAVY_ATOM_COUNT>
10

> <PUBCHEM_ATOM_DEF_STEREO_COUNT>
0

> <PUBCHEM_ATOM_UDEF_STEREO_COUNT>
0

> <PUBCHEM_BOND_DEF_STEREO_COUNT>
0

> <PUBCHEM_BOND_UDEF_STEREO_COUNT>
0

> <PUBCHEM_ISOTOPIC_ATOM_COUNT>
0

> <PUBCHEM_COMPONENT_COUNT>
1

> <PUBCHEM_CACTVS_TAUTO_COUNT>
2

> <PUBCHEM_CONFORMER_ID>
0153C31C00000003

> <PUBCHEM_MMFF94_ENERGY>
12.3739

> <PUBCHEM_FEATURE_SELFOVERLAP>
30.518

> <PUBCHEM_SHAPE_FINGERPRINT>
10219947 1 18040430005699887830
11062470 55 17821725026837676763
11987891 27 16371012931399369351
12932764 1 17917720076066412059
14144814 61 18259978292953585027
14325111 11 18410290285645639739
177051 138 6194839285042775941
18186145 218 18409441492807588315
190213 19 14836124351483559475
20645477 70 18334291010952168958
20651381 32 18408886247851318643
20828058 21 16774074077342366603
23402655 69 18333734641220577605
3248919 1 16805591552266736671
93112 12 18335703806453130023

> <PUBCHEM_SHAPE_MULTIPOLES>
192.04
7.76
1.19
0.79
3.2
0.05
0.06
0.68
1.03
-0.34
0.04
0.57
0.07
0.64

> <PUBCHEM_SHAPE_SELFOVERLAP>
346.532

> <PUBCHEM_SHAPE_VOLUME>
123.8

> <PUBCHEM_COORDINATE_TYPE>
2
5
10

$$$$

