5281498
  -OEChem-07051212573D

 39 40  0     1  0  0  0  0  0999 V2000
    1.4886    1.8337    0.3282 O   0  0  0  0  0  0  0  0  0  0  0  0
    2.0526   -2.8648   -0.0191 O   0  0  0  0  0  0  0  0  0  0  0  0
    3.7526    2.2213    0.2711 O   0  0  0  0  0  0  0  0  0  0  0  0
   -2.6351    3.1244   -0.9975 O   0  0  0  0  0  0  0  0  0  0  0  0
    1.4539   -0.5392    0.3531 C   0  0  1  0  0  0  0  0  0  0  0  0
    0.6415    0.7215   -0.0123 C   0  0  1  0  0  0  0  0  0  0  0  0
    1.0296   -1.8900   -0.2950 C   0  0  2  0  0  0  0  0  0  0  0  0
   -0.2674   -2.5721    0.2194 C   0  0  0  0  0  0  0  0  0  0  0  0
    2.8105    0.0081   -0.0181 C   0  0  0  0  0  0  0  0  0  0  0  0
   -0.6389    0.8835    0.7473 C   0  0  0  0  0  0  0  0  0  0  0  0
   -1.5882   -1.9492   -0.1664 C   0  0  0  0  0  0  0  0  0  0  0  0
   -1.8346    1.2478    0.2368 C   0  0  0  0  0  0  0  0  0  0  0  0
    2.7951    1.4729    0.1993 C   0  0  0  0  0  0  0  0  0  0  0  0
   -3.0958    0.8837    1.0050 C   0  0  0  0  0  0  0  0  0  0  0  0
   -3.5670   -0.5473    0.6407 C   0  0  0  0  0  0  0  0  0  0  0  0
   -2.4253   -1.5218    0.8034 C   0  0  0  0  0  0  0  0  0  0  0  0
    3.9098   -0.5552   -0.5282 C   0  0  0  0  0  0  0  0  0  0  0  0
   -2.0530    1.8413   -1.1252 C   0  0  0  0  0  0  0  0  0  0  0  0
   -1.8288   -1.7987   -1.6424 C   0  0  0  0  0  0  0  0  0  0  0  0
    1.4754   -0.6769    1.4443 H   0  0  0  0  0  0  0  0  0  0  0  0
    0.4740    0.7503   -1.0953 H   0  0  0  0  0  0  0  0  0  0  0  0
    0.9951   -1.7728   -1.3844 H   0  0  0  0  0  0  0  0  0  0  0  0
   -0.1839   -2.6715    1.3107 H   0  0  0  0  0  0  0  0  0  0  0  0
   -0.2872   -3.6103   -0.1425 H   0  0  0  0  0  0  0  0  0  0  0  0
   -0.6117    0.5040    1.7685 H   0  0  0  0  0  0  0  0  0  0  0  0
   -2.9084    0.9407    2.0857 H   0  0  0  0  0  0  0  0  0  0  0  0
   -3.8975    1.6028    0.8012 H   0  0  0  0  0  0  0  0  0  0  0  0
   -3.9759   -0.5559   -0.3737 H   0  0  0  0  0  0  0  0  0  0  0  0
   -4.3872   -0.8429    1.3049 H   0  0  0  0  0  0  0  0  0  0  0  0
   -2.1565   -1.7153    1.8416 H   0  0  0  0  0  0  0  0  0  0  0  0
    1.8795   -3.6403   -0.5799 H   0  0  0  0  0  0  0  0  0  0  0  0
    3.9742   -1.6137   -0.7434 H   0  0  0  0  0  0  0  0  0  0  0  0
    4.7946    0.0310   -0.7568 H   0  0  0  0  0  0  0  0  0  0  0  0
   -2.7298    1.2148   -1.7142 H   0  0  0  0  0  0  0  0  0  0  0  0
   -1.1339    1.9573   -1.7035 H   0  0  0  0  0  0  0  0  0  0  0  0
   -2.8606   -1.5330   -1.8831 H   0  0  0  0  0  0  0  0  0  0  0  0
   -1.6253   -2.7469   -2.1519 H   0  0  0  0  0  0  0  0  0  0  0  0
   -1.1744   -1.0336   -2.0696 H   0  0  0  0  0  0  0  0  0  0  0  0
   -2.0128    3.6854   -0.5034 H   0  0  0  0  0  0  0  0  0  0  0  0
  1  6  1  0  0  0  0
  1 13  1  0  0  0  0
  2  7  1  0  0  0  0
  2 31  1  0  0  0  0
  3 13  2  0  0  0  0
  4 18  1  0  0  0  0
  4 39  1  0  0  0  0
  5  6  1  0  0  0  0
  5  7  1  0  0  0  0
  5  9  1  0  0  0  0
  5 20  1  0  0  0  0
  6 10  1  0  0  0  0
  6 21  1  0  0  0  0
  7  8  1  0  0  0  0
  7 22  1  0  0  0  0
  8 11  1  0  0  0  0
  8 23  1  0  0  0  0
  8 24  1  0  0  0  0
  9 13  1  0  0  0  0
  9 17  2  0  0  0  0
 10 12  2  0  0  0  0
 10 25  1  0  0  0  0
 11 16  2  0  0  0  0
 11 19  1  0  0  0  0
 12 14  1  0  0  0  0
 12 18  1  0  0  0  0
 14 15  1  0  0  0  0
 14 26  1  0  0  0  0
 14 27  1  0  0  0  0
 15 16  1  0  0  0  0
 15 28  1  0  0  0  0
 15 29  1  0  0  0  0
 16 30  1  0  0  0  0
 17 32  1  0  0  0  0
 17 33  1  0  0  0  0
 18 34  1  0  0  0  0
 18 35  1  0  0  0  0
 19 36  1  0  0  0  0
 19 37  1  0  0  0  0
 19 38  1  0  0  0  0
M  END
> <PUBCHEM_COMPOUND_CID>
5281498

> <PUBCHEM_CONFORMER_RMSD>
0.6

> <PUBCHEM_CONFORMER_DIVERSEORDER>
1
8
7
6
5
2
3
4

> <PUBCHEM_MMFF94_PARTIAL_CHARGES>
25
1 -0.43
10 -0.29
11 -0.28
12 -0.28
13 0.71
14 0.14
15 0.14
16 -0.29
17 -0.3
18 0.42
19 0.14
2 -0.68
25 0.15
3 -0.57
30 0.15
31 0.4
32 0.15
33 0.15
39 0.4
4 -0.68
5 0.14
6 0.42
7 0.28
8 0.14
9 -0.12

> <PUBCHEM_EFFECTIVE_ROTOR_COUNT>
2

> <PUBCHEM_PHARMACOPHORE_FEATURES>
6
1 2 acceptor
1 2 donor
1 3 acceptor
1 4 acceptor
1 4 donor
5 1 5 6 9 13 rings

> <PUBCHEM_HEAVY_ATOM_COUNT>
19

> <PUBCHEM_ATOM_DEF_STEREO_COUNT>
3

> <PUBCHEM_ATOM_UDEF_STEREO_COUNT>
0

> <PUBCHEM_BOND_DEF_STEREO_COUNT>
2

> <PUBCHEM_BOND_UDEF_STEREO_COUNT>
0

> <PUBCHEM_ISOTOPIC_ATOM_COUNT>
0

> <PUBCHEM_COMPONENT_COUNT>
1

> <PUBCHEM_CACTVS_TAUTO_COUNT>
1

> <PUBCHEM_CONFORMER_ID>
005096DA00000001

> <PUBCHEM_MMFF94_ENERGY>
50.2814

> <PUBCHEM_FEATURE_SELFOVERLAP>
30.446

> <PUBCHEM_SHAPE_FINGERPRINT>
10608611 8 18412543249142352048
10967382 1 18409162182293895874
11132069 177 18262800648981068376
12403814 3 18342738468920781505
12730499 353 17552923236710457261
13140716 1 18265049137343385018
13221675 6 18410006624346154002
14223421 5 18413384349952504227
14251745 187 18117565028549889898
14251751 93 18341614845283009720
14614273 12 18411985719653721649
15196674 1 18335976463645899219
15775835 57 18188481368088495819
16945 1 18411708655397687314
18186145 218 18333725840932925192
19591789 44 18409720764424163794
21160774 45 18194971746746456239
21501502 16 18262519182931908602
2334 1 18120654634706756330
23402539 116 17829617162457044062
23419403 2 16035264127716204568
23557571 272 17632563977560218649
23559900 14 18187357767202388582
238 59 17907889505795608229
2748010 2 18193271025406980755
350125 39 18411409639827001528
353137 74 18195820578197197178
5939293 188 17618790601140631169
69090 78 18407759222810731257
81228 2 17977112257713202018
9862522 239 18339380620486127256

> <PUBCHEM_SHAPE_MULTIPOLES>
367.53
5.99
3.3
1.05
2.71
0.11
0.28
-1.75
-0.28
-0.47
0.62
-0.79
-0.03
0.53

> <PUBCHEM_SHAPE_SELFOVERLAP>
758.809

> <PUBCHEM_SHAPE_VOLUME>
209.8

> <PUBCHEM_COORDINATE_TYPE>
2
5
10

$$$$

