442479
  -OEChem-07051212582D

 83 88  0     1  0  0  0  0  0999 V2000
    4.0008   -5.5131    0.0000 O   0  0  0  0  0  0  0  0  0  0  0  0
    8.6358    3.0311    0.0000 N   0  0  3  0  0  0  0  0  0  0  0  0
    5.3130    0.6616    0.0000 N   0  0  0  0  0  0  0  0  0  0  0  0
    3.0140   -4.0896    0.0000 N   0  0  0  0  0  0  0  0  0  0  0  0
    7.5836    2.9918    0.0000 C   0  0  2  0  0  0  0  0  0  0  0  0
    6.5836    2.9918    0.0000 C   0  0  1  0  0  0  0  0  0  0  0  0
    8.1183    3.8857    0.0000 C   0  0  2  0  0  0  0  0  0  0  0  0
    7.9846    1.2350    0.0000 C   0  0  1  0  0  0  0  0  0  0  0  0
    8.2071    2.2100    0.0000 C   0  0  0  0  0  0  0  0  0  0  0  0
    7.0836    0.8011    0.0000 C   0  0  3  0  0  0  0  0  0  0  0  0
    6.0489    3.8857    0.0000 C   0  0  0  0  0  0  0  0  0  0  0  0
    7.6044    4.7918    0.0000 C   0  0  0  0  0  0  0  0  0  0  0  0
    5.9601    2.2100    0.0000 C   0  0  0  0  0  0  0  0  0  0  0  0
    8.5855    2.0332    0.0000 C   0  0  0  0  0  0  0  0  0  0  0  0
    6.5628    4.7918    0.0000 C   0  0  2  0  0  0  0  0  0  0  0  0
    6.1826    1.2350    0.0000 C   0  0  0  0  0  0  0  0  0  0  0  0
    7.1774   -0.2363    0.0000 C   0  0  0  0  0  0  0  0  0  0  0  0
    4.6254   -1.9353    0.0000 C   0  0  1  0  0  0  0  0  0  0  0  0
    3.7970   -2.4954    0.0000 C   0  0  1  0  0  0  0  0  0  0  0  0
    5.3829   -0.3777    0.0000 C   0  0  1  0  0  0  0  0  0  0  0  0
    6.3214   -0.8296    0.0000 C   0  0  0  0  0  0  0  0  0  0  0  0
    4.5545   -0.9378    0.0000 C   0  0  0  0  0  0  0  0  0  0  0  0
    3.8678   -3.4929    0.0000 C   0  0  1  0  0  0  0  0  0  0  0  0
    5.5246   -2.3727    0.0000 C   0  0  0  0  0  0  0  0  0  0  0  0
    5.5955   -3.3702    0.0000 C   0  0  1  0  0  0  0  0  0  0  0  0
    4.7671   -3.9303    0.0000 C   0  0  0  0  0  0  0  0  0  0  0  0
    2.8674   -2.0255    0.0000 C   0  0  0  0  0  0  0  0  0  0  0  0
    6.0594    5.6559    0.0000 C   0  0  0  0  0  0  0  0  0  0  0  0
    9.6054    3.2756    0.0000 C   0  0  0  0  0  0  0  0  0  0  0  0
    2.0000   -2.6023    0.0000 C   0  0  0  0  0  0  0  0  0  0  0  0
    2.0738   -3.6413    0.0000 C   0  0  0  0  0  0  0  0  0  0  0  0
    6.4948   -3.8075    0.0000 C   0  0  0  0  0  0  0  0  0  0  0  0
    3.0965   -5.0862    0.0000 C   0  0  0  0  0  0  0  0  0  0  0  0
    2.2746   -5.6559    0.0000 C   0  0  0  0  0  0  0  0  0  0  0  0
    8.3197    3.4168    0.0000 H   0  0  0  0  0  0  0  0  0  0  0  0
    5.7336    2.9918    0.0000 H   0  0  0  0  0  0  0  0  0  0  0  0
    8.8516    4.3156    0.0000 H   0  0  0  0  0  0  0  0  0  0  0  0
    8.6491    0.7051    0.0000 H   0  0  0  0  0  0  0  0  0  0  0  0
    8.7657    1.9409    0.0000 H   0  0  0  0  0  0  0  0  0  0  0  0
    8.5936    2.6947    0.0000 H   0  0  0  0  0  0  0  0  0  0  0  0
    7.8230    0.3818    0.0000 H   0  0  0  0  0  0  0  0  0  0  0  0
    5.5699    4.2794    0.0000 H   0  0  0  0  0  0  0  0  0  0  0  0
    5.5792    3.4811    0.0000 H   0  0  0  0  0  0  0  0  0  0  0  0
    8.1881    5.0008    0.0000 H   0  0  0  0  0  0  0  0  0  0  0  0
    7.4983    5.4027    0.0000 H   0  0  0  0  0  0  0  0  0  0  0  0
    5.5735    2.6947    0.0000 H   0  0  0  0  0  0  0  0  0  0  0  0
    5.4015    1.9409    0.0000 H   0  0  0  0  0  0  0  0  0  0  0  0
    8.9357    1.5216    0.0000 H   0  0  0  0  0  0  0  0  0  0  0  0
    8.0026    2.2446    0.0000 H   0  0  0  0  0  0  0  0  0  0  0  0
    6.8718    5.3293    0.0000 H   0  0  0  0  0  0  0  0  0  0  0  0
    7.4382   -0.7987    0.0000 H   0  0  0  0  0  0  0  0  0  0  0  0
    7.7762   -0.0756    0.0000 H   0  0  0  0  0  0  0  0  0  0  0  0
    5.1390   -1.5880    0.0000 H   0  0  0  0  0  0  0  0  0  0  0  0
    3.7432   -1.6471    0.0000 H   0  0  0  0  0  0  0  0  0  0  0  0
    4.8258   -0.1055    0.0000 H   0  0  0  0  0  0  0  0  0  0  0  0
    5.9607   -1.3340    0.0000 H   0  0  0  0  0  0  0  0  0  0  0  0
    6.7565   -1.2712    0.0000 H   0  0  0  0  0  0  0  0  0  0  0  0
    4.3017   -0.3717    0.0000 H   0  0  0  0  0  0  0  0  0  0  0  0
    3.9531   -1.0885    0.0000 H   0  0  0  0  0  0  0  0  0  0  0  0
    3.9346   -4.3403    0.0000 H   0  0  0  0  0  0  0  0  0  0  0  0
    6.1413   -2.4368    0.0000 H   0  0  0  0  0  0  0  0  0  0  0  0
    5.6949   -1.7765    0.0000 H   0  0  0  0  0  0  0  0  0  0  0  0
    5.6395   -3.9886    0.0000 H   0  0  0  0  0  0  0  0  0  0  0  0
    4.4033   -4.4323    0.0000 H   0  0  0  0  0  0  0  0  0  0  0  0
    5.1983   -4.3758    0.0000 H   0  0  0  0  0  0  0  0  0  0  0  0
    3.2376   -1.5282    0.0000 H   0  0  0  0  0  0  0  0  0  0  0  0
    2.4408   -1.5756    0.0000 H   0  0  0  0  0  0  0  0  0  0  0  0
    6.5952    5.9680    0.0000 H   0  0  0  0  0  0  0  0  0  0  0  0
    5.7474    6.1916    0.0000 H   0  0  0  0  0  0  0  0  0  0  0  0
    5.5237    5.3438    0.0000 H   0  0  0  0  0  0  0  0  0  0  0  0
    9.7571    2.6745    0.0000 H   0  0  0  0  0  0  0  0  0  0  0  0
   10.2066    3.4273    0.0000 H   0  0  0  0  0  0  0  0  0  0  0  0
    9.4538    3.8768    0.0000 H   0  0  0  0  0  0  0  0  0  0  0  0
    1.7501   -2.0349    0.0000 H   0  0  0  0  0  0  0  0  0  0  0  0
    1.3982   -2.7514    0.0000 H   0  0  0  0  0  0  0  0  0  0  0  0
    1.4570   -3.5788    0.0000 H   0  0  0  0  0  0  0  0  0  0  0  0
    1.9067   -4.2383    0.0000 H   0  0  0  0  0  0  0  0  0  0  0  0
    6.2237   -4.3651    0.0000 H   0  0  0  0  0  0  0  0  0  0  0  0
    7.0524   -4.0787    0.0000 H   0  0  0  0  0  0  0  0  0  0  0  0
    6.7660   -3.2499    0.0000 H   0  0  0  0  0  0  0  0  0  0  0  0
    1.9214   -5.1463    0.0000 H   0  0  0  0  0  0  0  0  0  0  0  0
    1.7650   -6.0091    0.0000 H   0  0  0  0  0  0  0  0  0  0  0  0
    2.6278   -6.1654    0.0000 H   0  0  0  0  0  0  0  0  0  0  0  0
  1 33  2  0  0  0  0
  2  7  1  0  0  0  0
  2 14  1  0  0  0  0
  2 29  1  0  0  0  0
  3 16  2  0  0  0  0
  3 20  1  0  0  0  0
  4 23  1  0  0  0  0
  4 31  1  0  0  0  0
  4 33  1  0  0  0  0
  5  6  1  0  0  0  0
  5  7  1  0  0  0  0
  5  9  1  0  0  0  0
  5 35  1  1  0  0  0
  6 11  1  0  0  0  0
  6 13  1  0  0  0  0
  6 36  1  1  0  0  0
  7 12  1  0  0  0  0
  7 37  1  1  0  0  0
  8  9  1  0  0  0  0
  8 10  1  0  0  0  0
  8 14  1  0  0  0  0
  8 38  1  1  0  0  0
  9 39  1  0  0  0  0
  9 40  1  0  0  0  0
 10 16  1  0  0  0  0
 10 17  1  0  0  0  0
 10 41  1  0  0  0  0
 11 15  1  0  0  0  0
 11 42  1  0  0  0  0
 11 43  1  0  0  0  0
 12 15  1  0  0  0  0
 12 44  1  0  0  0  0
 12 45  1  0  0  0  0
 13 16  1  0  0  0  0
 13 46  1  0  0  0  0
 13 47  1  0  0  0  0
 14 48  1  0  0  0  0
 14 49  1  0  0  0  0
 15 28  1  1  0  0  0
 15 50  1  0  0  0  0
 17 21  1  0  0  0  0
 17 51  1  0  0  0  0
 17 52  1  0  0  0  0
 18 19  1  0  0  0  0
 18 22  1  1  0  0  0
 18 24  1  0  0  0  0
 18 53  1  0  0  0  0
 19 23  1  0  0  0  0
 19 27  1  0  0  0  0
 19 54  1  6  0  0  0
 20 21  1  0  0  0  0
 20 22  1  1  0  0  0
 20 55  1  0  0  0  0
 21 56  1  0  0  0  0
 21 57  1  0  0  0  0
 22 58  1  0  0  0  0
 22 59  1  0  0  0  0
 23 26  1  0  0  0  0
 23 60  1  6  0  0  0
 24 25  1  0  0  0  0
 24 61  1  0  0  0  0
 24 62  1  0  0  0  0
 25 26  1  0  0  0  0
 25 32  1  6  0  0  0
 25 63  1  0  0  0  0
 26 64  1  0  0  0  0
 26 65  1  0  0  0  0
 27 30  1  0  0  0  0
 27 66  1  0  0  0  0
 27 67  1  0  0  0  0
 28 68  1  0  0  0  0
 28 69  1  0  0  0  0
 28 70  1  0  0  0  0
 29 71  1  0  0  0  0
 29 72  1  0  0  0  0
 29 73  1  0  0  0  0
 30 31  1  0  0  0  0
 30 74  1  0  0  0  0
 30 75  1  0  0  0  0
 31 76  1  0  0  0  0
 31 77  1  0  0  0  0
 32 78  1  0  0  0  0
 32 79  1  0  0  0  0
 32 80  1  0  0  0  0
 33 34  1  0  0  0  0
 34 81  1  0  0  0  0
 34 82  1  0  0  0  0
 34 83  1  0  0  0  0
M  END
> <PUBCHEM_COMPOUND_CID>
442479

> <PUBCHEM_COMPOUND_CANONICALIZED>
1

> <PUBCHEM_CACTVS_COMPLEXITY>
809

> <PUBCHEM_CACTVS_HBOND_ACCEPTOR>
3

> <PUBCHEM_CACTVS_HBOND_DONOR>
0

> <PUBCHEM_CACTVS_ROTATABLE_BOND>
2

> <PUBCHEM_CACTVS_SUBSKEYS>
AAADcfB7IAAAAAAAAAAAAAAAAAAAAAAAAAA8eIECBgAAAFiwAAAAHgAAAAAADSjBgAQCAAMAAAAoAQEwFAAAAAAAAAAAAAA4AAAAAAIAgAAEAAAABgCAAAEQgMAOgAAAAAAAAACAAASAACQAAAAAAAAAAA==

> <PUBCHEM_IUPAC_INCHI>
InChI=1S/C30H49N3O/c1-18-11-22-16-28-25(23-15-27(22)29(12-18)32(4)17-23)8-7-24(31-28)14-21-10-19(2)13-30-26(21)6-5-9-33(30)20(3)34/h18-19,21-27,29-30H,5-17H2,1-4H3/t18-,19+,21-,22+,23-,24+,25?,26+,27-,29+,30-/m1/s1

> <PUBCHEM_IUPAC_INCHIKEY>
ZGALAVFQYJOLRQ-NTFZZEKZSA-N

> <PUBCHEM_XLOGP3_AA>
5

> <PUBCHEM_EXACT_MASS>
467.387563

> <PUBCHEM_MOLECULAR_FORMULA>
C30H49N3O

> <PUBCHEM_MOLECULAR_WEIGHT>
467.72956

> <PUBCHEM_OPENEYE_CAN_SMILES>
CC1CC2CC3=NC(CCC3C4CC2C(C1)N(C4)C)CC5CC(CC6C5CCCN6C(=O)C)C

> <PUBCHEM_OPENEYE_ISO_SMILES>
C[C@@H]1C[C@H]2CC3=N[C@@H](CCC3[C@@H]4C[C@H]2[C@H](C1)N(C4)C)C[C@H]5C[C@@H](C[C@@H]6[C@H]5CCCN6C(=O)C)C

> <PUBCHEM_CACTVS_TPSA>
35.9

> <PUBCHEM_MONOISOTOPIC_WEIGHT>
467.387563

> <PUBCHEM_TOTAL_CHARGE>
0

> <PUBCHEM_HEAVY_ATOM_COUNT>
34

> <PUBCHEM_ATOM_DEF_STEREO_COUNT>
10

> <PUBCHEM_ATOM_UDEF_STEREO_COUNT>
1

> <PUBCHEM_BOND_DEF_STEREO_COUNT>
0

> <PUBCHEM_BOND_UDEF_STEREO_COUNT>
0

> <PUBCHEM_ISOTOPIC_ATOM_COUNT>
0

> <PUBCHEM_COMPONENT_COUNT>
1

> <PUBCHEM_CACTVS_TAUTO_COUNT>
1

> <PUBCHEM_COORDINATE_TYPE>
1
5
255

> <PUBCHEM_BONDANNOTATIONS>
10  41  3
15  28  5
18  22  5
19  54  6
20  22  5
23  60  6
25  32  6
5  35  5
6  36  5
7  37  5
8  38  5

$$$$

