15560400
  -OEChem-07051213092D

 55 58  0     1  0  0  0  0  0999 V2000
    3.1377   -1.1807    0.0000 O   0  0  0  0  0  0  0  0  0  0  0  0
    3.3730   -2.8912    0.0000 O   0  0  0  0  0  0  0  0  0  0  0  0
    2.8991   -0.1353    0.0000 O   0  0  0  0  0  0  0  0  0  0  0  0
    2.3689    1.5078    0.0000 O   0  0  0  0  0  0  0  0  0  0  0  0
    3.6460    3.1092    0.0000 O   0  0  0  0  0  0  0  0  0  0  0  0
    7.6714   -1.1817    0.0000 N   0  0  3  0  0  0  0  0  0  0  0  0
    6.8031   -0.7183    0.0000 C   0  0  3  0  0  0  0  0  0  0  0  0
    5.9021   -1.1522    0.0000 C   0  0  0  0  0  0  0  0  0  0  0  0
    7.0256    0.2566    0.0000 C   0  0  0  0  0  0  0  0  0  0  0  0
    5.9959   -2.1896    0.0000 C   0  0  0  0  0  0  0  0  0  0  0  0
    7.6967   -2.1656    0.0000 C   0  0  0  0  0  0  0  0  0  0  0  0
    6.8533   -2.6729    0.0000 C   0  0  0  0  0  0  0  0  0  0  0  0
    5.0011   -0.7183    0.0000 C   0  0  0  0  0  0  0  0  0  0  0  0
    6.4021    1.0384    0.0000 C   0  0  0  0  0  0  0  0  0  0  0  0
    4.7786    0.2566    0.0000 C   0  0  0  0  0  0  0  0  0  0  0  0
    5.4021    1.0384    0.0000 C   0  0  0  0  0  0  0  0  0  0  0  0
    5.1399   -2.7830    0.0000 C   0  0  0  0  0  0  0  0  0  0  0  0
    8.5222   -0.6563    0.0000 C   0  0  0  0  0  0  0  0  0  0  0  0
    4.1316   -1.2918    0.0000 C   0  0  0  0  0  0  0  0  0  0  0  0
    4.2014   -2.3311    0.0000 C   0  0  0  0  0  0  0  0  0  0  0  0
    3.7463    0.3959    0.0000 C   0  0  0  0  0  0  0  0  0  0  0  0
    5.0365    2.0138    0.0000 C   0  0  0  0  0  0  0  0  0  0  0  0
    3.3583    1.3626    0.0000 C   0  0  0  0  0  0  0  0  0  0  0  0
    4.0078    2.1770    0.0000 C   0  0  0  0  0  0  0  0  0  0  0  0
    3.4439   -3.8887    0.0000 C   0  0  0  0  0  0  0  0  0  0  0  0
    2.0154    0.3328    0.0000 C   0  0  0  0  0  0  0  0  0  0  0  0
    2.0000    2.4373    0.0000 C   0  0  0  0  0  0  0  0  0  0  0  0
    4.2725    3.8887    0.0000 C   0  0  0  0  0  0  0  0  0  0  0  0
    7.3671   -0.4610    0.0000 H   0  0  0  0  0  0  0  0  0  0  0  0
    7.5842   -0.0124    0.0000 H   0  0  0  0  0  0  0  0  0  0  0  0
    7.4122    0.7413    0.0000 H   0  0  0  0  0  0  0  0  0  0  0  0
    7.9206   -2.7437    0.0000 H   0  0  0  0  0  0  0  0  0  0  0  0
    8.3046   -2.0438    0.0000 H   0  0  0  0  0  0  0  0  0  0  0  0
    6.4609   -3.1530    0.0000 H   0  0  0  0  0  0  0  0  0  0  0  0
    7.2591   -3.1417    0.0000 H   0  0  0  0  0  0  0  0  0  0  0  0
    6.9607    1.3074    0.0000 H   0  0  0  0  0  0  0  0  0  0  0  0
    6.2641    1.6429    0.0000 H   0  0  0  0  0  0  0  0  0  0  0  0
    5.1886   -3.4011    0.0000 H   0  0  0  0  0  0  0  0  0  0  0  0
    8.8480   -1.1839    0.0000 H   0  0  0  0  0  0  0  0  0  0  0  0
    9.0498   -0.3306    0.0000 H   0  0  0  0  0  0  0  0  0  0  0  0
    8.1965   -0.1288    0.0000 H   0  0  0  0  0  0  0  0  0  0  0  0
    5.4287    2.4940    0.0000 H   0  0  0  0  0  0  0  0  0  0  0  0
    2.7700   -1.6799    0.0000 H   0  0  0  0  0  0  0  0  0  0  0  0
    2.8254   -3.9326    0.0000 H   0  0  0  0  0  0  0  0  0  0  0  0
    3.4878   -4.5071    0.0000 H   0  0  0  0  0  0  0  0  0  0  0  0
    4.0623   -3.8447    0.0000 H   0  0  0  0  0  0  0  0  0  0  0  0
    2.3057    0.8807    0.0000 H   0  0  0  0  0  0  0  0  0  0  0  0
    1.4676    0.6230    0.0000 H   0  0  0  0  0  0  0  0  0  0  0  0
    1.7252   -0.2151    0.0000 H   0  0  0  0  0  0  0  0  0  0  0  0
    2.5763    2.6660    0.0000 H   0  0  0  0  0  0  0  0  0  0  0  0
    1.7713    3.0136    0.0000 H   0  0  0  0  0  0  0  0  0  0  0  0
    1.4237    2.2085    0.0000 H   0  0  0  0  0  0  0  0  0  0  0  0
    4.7558    3.5002    0.0000 H   0  0  0  0  0  0  0  0  0  0  0  0
    4.6610    4.3719    0.0000 H   0  0  0  0  0  0  0  0  0  0  0  0
    3.7893    4.2771    0.0000 H   0  0  0  0  0  0  0  0  0  0  0  0
  1 19  1  0  0  0  0
  1 43  1  0  0  0  0
  2 20  1  0  0  0  0
  2 25  1  0  0  0  0
  3 21  1  0  0  0  0
  3 26  1  0  0  0  0
  4 23  1  0  0  0  0
  4 27  1  0  0  0  0
  5 24  1  0  0  0  0
  5 28  1  0  0  0  0
  6  7  1  0  0  0  0
  6 11  1  0  0  0  0
  6 18  1  0  0  0  0
  7  8  1  0  0  0  0
  7  9  1  0  0  0  0
  7 29  1  0  0  0  0
  8 10  1  0  0  0  0
  8 13  2  0  0  0  0
  9 14  1  0  0  0  0
  9 30  1  0  0  0  0
  9 31  1  0  0  0  0
 10 12  1  0  0  0  0
 10 17  2  0  0  0  0
 11 12  1  0  0  0  0
 11 32  1  0  0  0  0
 11 33  1  0  0  0  0
 12 34  1  0  0  0  0
 12 35  1  0  0  0  0
 13 15  1  0  0  0  0
 13 19  1  0  0  0  0
 14 16  1  0  0  0  0
 14 36  1  0  0  0  0
 14 37  1  0  0  0  0
 15 16  1  0  0  0  0
 15 21  2  0  0  0  0
 16 22  2  0  0  0  0
 17 20  1  0  0  0  0
 17 38  1  0  0  0  0
 18 39  1  0  0  0  0
 18 40  1  0  0  0  0
 18 41  1  0  0  0  0
 19 20  2  0  0  0  0
 21 23  1  0  0  0  0
 22 24  1  0  0  0  0
 22 42  1  0  0  0  0
 23 24  2  0  0  0  0
 25 44  1  0  0  0  0
 25 45  1  0  0  0  0
 25 46  1  0  0  0  0
 26 47  1  0  0  0  0
 26 48  1  0  0  0  0
 26 49  1  0  0  0  0
 27 50  1  0  0  0  0
 27 51  1  0  0  0  0
 27 52  1  0  0  0  0
 28 53  1  0  0  0  0
 28 54  1  0  0  0  0
 28 55  1  0  0  0  0
M  END
> <PUBCHEM_COMPOUND_CID>
15560400

> <PUBCHEM_COMPOUND_CANONICALIZED>
1

> <PUBCHEM_CACTVS_COMPLEXITY>
533

> <PUBCHEM_CACTVS_HBOND_ACCEPTOR>
6

> <PUBCHEM_CACTVS_HBOND_DONOR>
1

> <PUBCHEM_CACTVS_ROTATABLE_BOND>
4

> <PUBCHEM_CACTVS_SUBSKEYS>
AAADceB6OAAAAAAAAAAAAAAAAAAAAAAAAAA8YIAABgAAAACxQAAAHgAACAAADCzBmAYyBoMABgCAAiBCAACCCAAgIAAAiAAOjIgNJyKGsRuEcCtlwBWLuAfw8P8OoAADCAAYQABAAAYQADCAAAAAAAAAAA==

> <PUBCHEM_IUPAC_INCHI>
InChI=1S/C22H27NO5/c1-23-9-8-13-10-15(25-2)20(24)19-17(13)14(23)7-6-12-11-16(26-3)21(27-4)22(28-5)18(12)19/h10-11,14,24H,6-9H2,1-5H3

> <PUBCHEM_IUPAC_INCHIKEY>
SXGHNTVPXYHQSN-UHFFFAOYSA-N

> <PUBCHEM_XLOGP3_AA>
3.4

> <PUBCHEM_EXACT_MASS>
385.188923

> <PUBCHEM_MOLECULAR_FORMULA>
C22H27NO5

> <PUBCHEM_MOLECULAR_WEIGHT>
385.45348

> <PUBCHEM_OPENEYE_CAN_SMILES>
CN1CCC2=CC(=C(C3=C2C1CCC4=CC(=C(C(=C43)OC)OC)OC)O)OC

> <PUBCHEM_OPENEYE_ISO_SMILES>
CN1CCC2=CC(=C(C3=C2C1CCC4=CC(=C(C(=C43)OC)OC)OC)O)OC

> <PUBCHEM_CACTVS_TPSA>
60.4

> <PUBCHEM_MONOISOTOPIC_WEIGHT>
385.188923

> <PUBCHEM_TOTAL_CHARGE>
0

> <PUBCHEM_HEAVY_ATOM_COUNT>
28

> <PUBCHEM_ATOM_DEF_STEREO_COUNT>
0

> <PUBCHEM_ATOM_UDEF_STEREO_COUNT>
1

> <PUBCHEM_BOND_DEF_STEREO_COUNT>
0

> <PUBCHEM_BOND_UDEF_STEREO_COUNT>
0

> <PUBCHEM_ISOTOPIC_ATOM_COUNT>
0

> <PUBCHEM_COMPONENT_COUNT>
1

> <PUBCHEM_CACTVS_TAUTO_COUNT>
2

> <PUBCHEM_COORDINATE_TYPE>
1
5
255

> <PUBCHEM_BONDANNOTATIONS>
10  17  8
13  19  8
15  16  8
15  21  8
16  22  8
17  20  8
19  20  8
21  23  8
22  24  8
23  24  8
7  9  3
8  10  8
8  13  8

$$$$

