441016
  -OEChem-07051212512D

 49 52  0     1  0  0  0  0  0999 V2000
    5.0474    1.8900    0.0000 P   0  0  3  0  0  0  0  0  0  0  0  0
    4.4026   -1.5631    0.0000 O   0  0  0  0  0  0  0  0  0  0  0  0
    6.7485   -2.6550    0.0000 O   0  0  0  0  0  0  0  0  0  0  0  0
    6.7523   -0.4794    0.0000 O   0  0  0  0  0  0  0  0  0  0  0  0
    5.3548    0.9385    0.0000 O   0  0  0  0  0  0  0  0  0  0  0  0
    4.7400    2.8416    0.0000 O   0  0  0  0  0  0  0  0  0  0  0  0
    5.9990    2.1974    0.0000 O   0  0  0  0  0  0  0  0  0  0  0  0
    4.0958    1.5827    0.0000 O   0  0  0  0  0  0  0  0  0  0  0  0
    6.3882    3.3740    0.0000 O   0  0  0  0  0  0  0  0  0  0  0  0
    4.6783   -3.3237    0.0000 N   0  0  0  0  0  0  0  0  0  0  0  0
    4.6783   -4.9331    0.0000 N   0  0  0  0  0  0  0  0  0  0  0  0
    2.8660   -3.1284    0.0000 N   0  0  0  0  0  0  0  0  0  0  0  0
    2.0000   -4.6284    0.0000 N   0  0  0  0  0  0  0  0  0  0  0  0
    2.8660   -6.1284    0.0000 N   0  0  0  0  0  0  0  0  0  0  0  0
    5.9405   -2.0658    0.0000 C   0  0  2  0  0  0  0  0  0  0  0  0
    5.9422   -1.0658    0.0000 C   0  0  1  0  0  0  0  0  0  0  0  0
    4.9889   -2.3731    0.0000 C   0  0  1  0  0  0  0  0  0  0  0  0
    4.9917   -0.7551    0.0000 C   0  0  1  0  0  0  0  0  0  0  0  0
    4.6844    0.1965    0.0000 C   0  0  0  0  0  0  0  0  0  0  0  0
    3.7320   -3.6284    0.0000 C   0  0  0  0  0  0  0  0  0  0  0  0
    5.2619   -4.1284    0.0000 C   0  0  0  0  0  0  0  0  0  0  0  0
    3.7320   -4.6284    0.0000 C   0  0  0  0  0  0  0  0  0  0  0  0
    2.8660   -5.1284    0.0000 C   0  0  0  0  0  0  0  0  0  0  0  0
    2.0000   -3.6284    0.0000 C   0  0  0  0  0  0  0  0  0  0  0  0
    5.4104    3.5836    0.0000 C   0  0  0  0  0  0  0  0  0  0  0  0
    5.1031    4.5352    0.0000 C   0  0  0  0  0  0  0  0  0  0  0  0
    5.7735    5.2772    0.0000 C   0  0  0  0  0  0  0  0  0  0  0  0
    4.1253    4.7448    0.0000 C   0  0  0  0  0  0  0  0  0  0  0  0
    5.4661    6.2288    0.0000 C   0  0  0  0  0  0  0  0  0  0  0  0
    3.8179    5.6964    0.0000 C   0  0  0  0  0  0  0  0  0  0  0  0
    4.4883    6.4384    0.0000 C   0  0  0  0  0  0  0  0  0  0  0  0
    6.4934   -1.7853    0.0000 H   0  0  0  0  0  0  0  0  0  0  0  0
    6.4942   -1.3482    0.0000 H   0  0  0  0  0  0  0  0  0  0  0  0
    5.4266   -2.8123    0.0000 H   0  0  0  0  0  0  0  0  0  0  0  0
    4.3795   -0.6571    0.0000 H   0  0  0  0  0  0  0  0  0  0  0  0
    4.3035    0.6857    0.0000 H   0  0  0  0  0  0  0  0  0  0  0  0
    4.1364   -0.0936    0.0000 H   0  0  0  0  0  0  0  0  0  0  0  0
    7.3154   -2.4038    0.0000 H   0  0  0  0  0  0  0  0  0  0  0  0
    7.3182   -0.7325    0.0000 H   0  0  0  0  0  0  0  0  0  0  0  0
    5.8819   -4.1284    0.0000 H   0  0  0  0  0  0  0  0  0  0  0  0
    1.4631   -3.3184    0.0000 H   0  0  0  0  0  0  0  0  0  0  0  0
    2.3291   -6.4384    0.0000 H   0  0  0  0  0  0  0  0  0  0  0  0
    3.4030   -6.4384    0.0000 H   0  0  0  0  0  0  0  0  0  0  0  0
    6.4590    1.7818    0.0000 H   0  0  0  0  0  0  0  0  0  0  0  0
    6.3797    5.1472    0.0000 H   0  0  0  0  0  0  0  0  0  0  0  0
    3.7096    4.2848    0.0000 H   0  0  0  0  0  0  0  0  0  0  0  0
    5.8818    6.6888    0.0000 H   0  0  0  0  0  0  0  0  0  0  0  0
    3.2117    5.8264    0.0000 H   0  0  0  0  0  0  0  0  0  0  0  0
    4.2978    7.0284    0.0000 H   0  0  0  0  0  0  0  0  0  0  0  0
  1  5  1  0  0  0  0
  1  6  1  0  0  0  0
  1  7  1  0  0  0  0
  1  8  2  0  0  0  0
  2 17  1  0  0  0  0
  2 18  1  0  0  0  0
 15  3  1  1  0  0  0
  3 38  1  0  0  0  0
 16  4  1  1  0  0  0
  4 39  1  0  0  0  0
  5 19  1  0  0  0  0
  6 25  1  0  0  0  0
  7 44  1  0  0  0  0
  9 25  2  0  0  0  0
 17 10  1  6  0  0  0
 10 20  1  0  0  0  0
 10 21  1  0  0  0  0
 11 21  2  0  0  0  0
 11 22  1  0  0  0  0
 12 20  1  0  0  0  0
 12 24  2  0  0  0  0
 13 23  2  0  0  0  0
 13 24  1  0  0  0  0
 14 23  1  0  0  0  0
 14 42  1  0  0  0  0
 14 43  1  0  0  0  0
 15 16  1  0  0  0  0
 15 17  1  0  0  0  0
 15 32  1  0  0  0  0
 16 18  1  0  0  0  0
 16 33  1  0  0  0  0
 17 34  1  0  0  0  0
 18 19  1  6  0  0  0
 18 35  1  0  0  0  0
 19 36  1  0  0  0  0
 19 37  1  0  0  0  0
 20 22  2  0  0  0  0
 21 40  1  0  0  0  0
 22 23  1  0  0  0  0
 24 41  1  0  0  0  0
 25 26  1  0  0  0  0
 26 27  2  0  0  0  0
 26 28  1  0  0  0  0
 27 29  1  0  0  0  0
 27 45  1  0  0  0  0
 28 30  2  0  0  0  0
 28 46  1  0  0  0  0
 29 31  2  0  0  0  0
 29 47  1  0  0  0  0
 30 31  1  0  0  0  0
 30 48  1  0  0  0  0
 31 49  1  0  0  0  0
M  END
> <PUBCHEM_COMPOUND_CID>
441016

> <PUBCHEM_COMPOUND_CANONICALIZED>
1

> <PUBCHEM_CACTVS_COMPLEXITY>
697

> <PUBCHEM_CACTVS_HBOND_ACCEPTOR>
12

> <PUBCHEM_CACTVS_HBOND_DONOR>
4

> <PUBCHEM_CACTVS_ROTATABLE_BOND>
7

> <PUBCHEM_CACTVS_SUBSKEYS>
AAADceB7vAIAAAAAAAAAAAAAAAAAAWJAAAA8QAAAAAAAAFgB/AAAHgAQCCAADBzhnwY1+L9MFxCoQybzbICCgC01EKAJ2CEoXNiLfjLA3VCedQgvwAPbiaf4+CKOAAAAAAAAAAAAAAAAAAAAAAAAAAAAAA==

> <PUBCHEM_IUPAC_OPENEYE_NAME>
[[(2R,3S,4R,5R)-5-(6-aminopurin-9-yl)-3,4-dihydroxy-tetrahydrofuran-2-yl]methoxy-hydroxy-phosphoryl] benzoate

> <PUBCHEM_IUPAC_CAS_NAME>
benzoic acid [[(2R,3S,4R,5R)-5-(6-aminopurin-9-yl)-3,4-dihydroxy-2-oxolanyl]methoxy-hydroxyphosphoryl] ester

> <PUBCHEM_IUPAC_NAME>
[[(2R,3S,4R,5R)-5-(6-aminopurin-9-yl)-3,4-dihydroxyoxolan-2-yl]methoxy-hydroxyphosphoryl] benzoate

> <PUBCHEM_IUPAC_SYSTEMATIC_NAME>
[[(2R,3S,4R,5R)-5-(6-aminopurin-9-yl)-3,4-bis(oxidanyl)oxolan-2-yl]methoxy-oxidanyl-phosphoryl] benzoate

> <PUBCHEM_IUPAC_TRADITIONAL_NAME>
benzoic acid [[(2R,3S,4R,5R)-5-adenin-9-yl-3,4-dihydroxy-tetrahydrofuran-2-yl]methoxy-hydroxy-phosphoryl] ester

> <PUBCHEM_IUPAC_INCHI>
InChI=1S/C17H18N5O8P/c18-14-11-15(20-7-19-14)22(8-21-11)16-13(24)12(23)10(29-16)6-28-31(26,27)30-17(25)9-4-2-1-3-5-9/h1-5,7-8,10,12-13,16,23-24H,6H2,(H,26,27)(H2,18,19,20)/t10-,12-,13-,16-/m1/s1

> <PUBCHEM_IUPAC_INCHIKEY>
PTJTVELTWZMHPG-XNIJJKJLSA-N

> <PUBCHEM_XLOGP3>
-1.3

> <PUBCHEM_EXACT_MASS>
451.089299

> <PUBCHEM_MOLECULAR_FORMULA>
C17H18N5O8P

> <PUBCHEM_MOLECULAR_WEIGHT>
451.327282

> <PUBCHEM_OPENEYE_CAN_SMILES>
C1=CC=C(C=C1)C(=O)OP(=O)(O)OCC2C(C(C(O2)N3C=NC4=C3N=CN=C4N)O)O

> <PUBCHEM_OPENEYE_ISO_SMILES>
C1=CC=C(C=C1)C(=O)OP(=O)(O)OC[C@@H]2[C@H]([C@H]([C@@H](O2)N3C=NC4=C3N=CN=C4N)O)O

> <PUBCHEM_CACTVS_TPSA>
192

> <PUBCHEM_MONOISOTOPIC_WEIGHT>
451.089299

> <PUBCHEM_TOTAL_CHARGE>
0

> <PUBCHEM_HEAVY_ATOM_COUNT>
31

> <PUBCHEM_ATOM_DEF_STEREO_COUNT>
4

> <PUBCHEM_ATOM_UDEF_STEREO_COUNT>
0

> <PUBCHEM_BOND_DEF_STEREO_COUNT>
0

> <PUBCHEM_BOND_UDEF_STEREO_COUNT>
0

> <PUBCHEM_ISOTOPIC_ATOM_COUNT>
0

> <PUBCHEM_COMPONENT_COUNT>
1

> <PUBCHEM_CACTVS_TAUTO_COUNT>
3

> <PUBCHEM_COORDINATE_TYPE>
1
5
255

> <PUBCHEM_BONDANNOTATIONS>
17  10  6
10  20  8
10  21  8
11  21  8
11  22  8
12  20  8
12  24  8
13  23  8
13  24  8
18  19  6
20  22  8
22  23  8
26  27  8
26  28  8
27  29  8
28  30  8
29  31  8
15  3  5
30  31  8
16  4  5

$$$$

