294491
  -OEChem-07051212573D

 51 57  0     1  0  0  0  0  0999 V2000
    1.2990    1.7801    0.9353 O   0  0  0  0  0  0  0  0  0  0  0  0
    1.1638   -1.4175    1.8496 O   0  0  0  0  0  0  0  0  0  0  0  0
    2.7098    0.1732   -1.9222 O   0  0  0  0  0  0  0  0  0  0  0  0
    3.6385   -0.3731    1.5895 O   0  0  0  0  0  0  0  0  0  0  0  0
   -3.6205    2.1885    1.0125 O   0  0  0  0  0  0  0  0  0  0  0  0
   -4.9495   -1.5516   -0.8041 O   0  0  0  0  0  0  0  0  0  0  0  0
   -5.9294    0.5291   -0.7177 O   0  0  0  0  0  0  0  0  0  0  0  0
    0.6878    0.6027    0.3792 C   0  0  2  0  0  0  0  0  0  0  0  0
    1.4814   -0.7194    0.6286 C   0  0  2  0  0  0  0  0  0  0  0  0
    1.3575    1.6784   -0.4923 C   0  0  2  0  0  0  0  0  0  0  0  0
   -0.8562    0.5407    0.5154 C   0  0  2  0  0  0  0  0  0  0  0  0
    3.4835    0.1426   -0.7224 C   0  0  1  0  0  0  0  0  0  0  0  0
    2.7011    1.3668   -1.1094 C   0  0  1  0  0  0  0  0  0  0  0  0
    0.7132   -2.0383    0.6470 C   0  0  2  0  0  0  0  0  0  0  0  0
    2.9846   -0.7515    0.3719 C   0  0  1  0  0  0  0  0  0  0  0  0
   -1.3255   -0.8043   -0.1779 C   0  0  1  0  0  0  0  0  0  0  0  0
   -0.7805   -2.0613    0.5265 C   0  0  0  0  0  0  0  0  0  0  0  0
   -1.5818    1.7247   -0.2162 C   0  0  0  0  0  0  0  0  0  0  0  0
    4.9468    0.1160   -1.0025 C   0  0  0  0  0  0  0  0  0  0  0  0
   -1.2291    0.5962    2.0206 C   0  0  0  0  0  0  0  0  0  0  0  0
   -2.8166   -0.8436   -0.3685 C   0  0  0  0  0  0  0  0  0  0  0  0
   -3.1220    1.6435   -0.2048 C   0  0  1  0  0  0  0  0  0  0  0  0
   -3.5843    0.2440   -0.3656 C   0  0  0  0  0  0  0  0  0  0  0  0
    5.7427    0.8001    0.1157 C   0  0  0  0  0  0  0  0  0  0  0  0
    5.4526   -1.3184   -1.2000 C   0  0  0  0  0  0  0  0  0  0  0  0
   -3.6145   -2.0525   -0.6478 C   0  0  0  0  0  0  0  0  0  0  0  0
   -4.9524   -0.1951   -0.6405 C   0  0  0  0  0  0  0  0  0  0  0  0
    0.7595    2.3893   -1.0450 H   0  0  0  0  0  0  0  0  0  0  0  0
    3.2568    2.2191   -1.4861 H   0  0  0  0  0  0  0  0  0  0  0  0
    1.1939   -2.9566    0.3422 H   0  0  0  0  0  0  0  0  0  0  0  0
    3.2692   -1.7880    0.1669 H   0  0  0  0  0  0  0  0  0  0  0  0
   -0.8954   -0.8110   -1.1923 H   0  0  0  0  0  0  0  0  0  0  0  0
   -1.2387   -2.1909    1.5147 H   0  0  0  0  0  0  0  0  0  0  0  0
   -1.0531   -2.9516   -0.0542 H   0  0  0  0  0  0  0  0  0  0  0  0
   -1.2726    1.7194   -1.2704 H   0  0  0  0  0  0  0  0  0  0  0  0
   -1.2584    2.6822    0.2113 H   0  0  0  0  0  0  0  0  0  0  0  0
    5.1488    0.6668   -1.9314 H   0  0  0  0  0  0  0  0  0  0  0  0
   -0.6457   -0.0947    2.6321 H   0  0  0  0  0  0  0  0  0  0  0  0
   -1.0407    1.5972    2.4263 H   0  0  0  0  0  0  0  0  0  0  0  0
   -2.2805    0.3556    2.2016 H   0  0  0  0  0  0  0  0  0  0  0  0
   -3.5177    2.2601   -1.0200 H   0  0  0  0  0  0  0  0  0  0  0  0
    3.3492    0.5283    1.8136 H   0  0  0  0  0  0  0  0  0  0  0  0
    5.8593    0.1722    1.0035 H   0  0  0  0  0  0  0  0  0  0  0  0
    6.7563    1.0222   -0.2379 H   0  0  0  0  0  0  0  0  0  0  0  0
    5.2825    1.7476    0.4151 H   0  0  0  0  0  0  0  0  0  0  0  0
    5.4448   -1.8968   -0.2704 H   0  0  0  0  0  0  0  0  0  0  0  0
    6.4867   -1.3059   -1.5620 H   0  0  0  0  0  0  0  0  0  0  0  0
    4.8459   -1.8516   -1.9398 H   0  0  0  0  0  0  0  0  0  0  0  0
   -3.3102   -2.5478   -1.5742 H   0  0  0  0  0  0  0  0  0  0  0  0
   -3.6037   -2.7652    0.1814 H   0  0  0  0  0  0  0  0  0  0  0  0
   -3.3258    3.1137    1.0638 H   0  0  0  0  0  0  0  0  0  0  0  0
  1  8  1  0  0  0  0
  1 10  1  0  0  0  0
  2  9  1  0  0  0  0
  2 14  1  0  0  0  0
  3 12  1  0  0  0  0
  3 13  1  0  0  0  0
  4 15  1  0  0  0  0
  4 42  1  0  0  0  0
  5 22  1  0  0  0  0
  5 51  1  0  0  0  0
  6 26  1  0  0  0  0
  6 27  1  0  0  0  0
  7 27  2  0  0  0  0
  8  9  1  0  0  0  0
  8 10  1  0  0  0  0
  8 11  1  0  0  0  0
  9 14  1  0  0  0  0
  9 15  1  0  0  0  0
 10 13  1  0  0  0  0
 10 28  1  0  0  0  0
 11 16  1  0  0  0  0
 11 18  1  0  0  0  0
 11 20  1  0  0  0  0
 12 13  1  0  0  0  0
 12 15  1  0  0  0  0
 12 19  1  0  0  0  0
 13 29  1  0  0  0  0
 14 17  1  0  0  0  0
 14 30  1  0  0  0  0
 15 31  1  0  0  0  0
 16 17  1  0  0  0  0
 16 21  1  0  0  0  0
 16 32  1  0  0  0  0
 17 33  1  0  0  0  0
 17 34  1  0  0  0  0
 18 22  1  0  0  0  0
 18 35  1  0  0  0  0
 18 36  1  0  0  0  0
 19 24  1  0  0  0  0
 19 25  1  0  0  0  0
 19 37  1  0  0  0  0
 20 38  1  0  0  0  0
 20 39  1  0  0  0  0
 20 40  1  0  0  0  0
 21 23  2  0  0  0  0
 21 26  1  0  0  0  0
 22 23  1  0  0  0  0
 22 41  1  0  0  0  0
 23 27  1  0  0  0  0
 24 43  1  0  0  0  0
 24 44  1  0  0  0  0
 24 45  1  0  0  0  0
 25 46  1  0  0  0  0
 25 47  1  0  0  0  0
 25 48  1  0  0  0  0
 26 49  1  0  0  0  0
 26 50  1  0  0  0  0
M  END
> <PUBCHEM_COMPOUND_CID>
294491

> <PUBCHEM_CONFORMER_RMSD>
0.6

> <PUBCHEM_CONFORMER_DIVERSEORDER>
1

> <PUBCHEM_MMFF94_PARTIAL_CHARGES>
28
1 -0.3
10 0.05
11 0.09
12 -0.04
13 0.05
14 -0.05
15 0.47
16 0.14
17 0.09
19 0.09
2 -0.3
21 -0.28
22 0.42
23 -0.12
26 0.42
27 0.71
28 0.1
29 0.1
3 -0.3
30 0.1
4 -0.68
42 0.4
5 -0.68
51 0.4
6 -0.43
7 -0.57
8 0.05
9 0.05

> <PUBCHEM_EFFECTIVE_ROTOR_COUNT>
2.8

> <PUBCHEM_PHARMACOPHORE_FEATURES>
13
1 1 acceptor
1 2 acceptor
1 3 acceptor
1 4 acceptor
1 4 donor
1 5 acceptor
1 5 donor
1 7 acceptor
3 19 24 25 hydrophobe
5 6 21 23 26 27 rings
6 11 16 18 21 22 23 rings
7 2 8 9 11 14 16 17 rings
8 1 3 8 9 10 12 13 15 rings

> <PUBCHEM_HEAVY_ATOM_COUNT>
27

> <PUBCHEM_ATOM_DEF_STEREO_COUNT>
10

> <PUBCHEM_ATOM_UDEF_STEREO_COUNT>
0

> <PUBCHEM_BOND_DEF_STEREO_COUNT>
0

> <PUBCHEM_BOND_UDEF_STEREO_COUNT>
0

> <PUBCHEM_ISOTOPIC_ATOM_COUNT>
0

> <PUBCHEM_COMPONENT_COUNT>
1

> <PUBCHEM_CACTVS_TAUTO_COUNT>
1

> <PUBCHEM_CONFORMER_ID>
00047E5B00000001

> <PUBCHEM_MMFF94_ENERGY>
63.5409

> <PUBCHEM_FEATURE_SELFOVERLAP>
66.064

> <PUBCHEM_SHAPE_FINGERPRINT>
12035759 4 18412825785334388531
12236239 1 18272937123934302846
12788726 201 18337112375554136241
12954195 1 18187075209007799725
13224815 77 18131346410450738049
13544653 18 14634857682883071724
13583140 156 14836399211973517633
15142383 8 14707195648328732587
15183329 4 18272645792867906934
16752209 62 18187652422769014219
16945 1 18411696552190241082
17349148 13 18342458157895824434
17492 54 18060700584858016014
1813 80 4750885861647164752
18681886 176 18337395950653504192
19862831 5 18410852140118448494
200 152 17530961375811166581
20511986 3 18200330848346400804
20775438 99 16529229051439538871
21033648 144 16701736034450236084
21033648 29 14045469907720595039
21033650 10 18196629986602077404
21267235 1 18337389349732232863
22182313 1 17910385096141710402
22393880 68 18413114969556077165
23402539 116 18411703157907795836
23557571 272 17749106703354975592
23559900 14 18187373073469228113
25147074 1 18198064874734593811
2838139 119 15913334563306726382
3004659 81 18413110541318116476
34797466 226 17603303722513917680
350125 39 18412831304663178749
4340502 62 15410897370454751232
474 4 17275100626307796159
5283173 99 18187362164415969536
7495541 125 16732987501012932232
9709674 26 18191307065647988487

> <PUBCHEM_SHAPE_MULTIPOLES>
514.56
11.17
2.12
1.41
1.03
0.15
-0.33
0.39
4.36
-1.04
-0.16
0.65
0.05
-0.66

> <PUBCHEM_SHAPE_SELFOVERLAP>
1148.463

> <PUBCHEM_SHAPE_VOLUME>
272.3

> <PUBCHEM_COORDINATE_TYPE>
2
5
10

$$$$

