440638
  -OEChem-07051212502D

 34 33  0     1  0  0  0  0  0999 V2000
    2.5369    1.4050    0.0000 O   0  0  0  0  0  0  0  0  0  0  0  0
    3.4030    2.9050    0.0000 O   0  0  0  0  0  0  0  0  0  0  0  0
    6.0010    0.4050    0.0000 O   0  0  0  0  0  0  0  0  0  0  0  0
    5.1350    1.9050    0.0000 N   0  0  0  0  0  0  0  0  0  0  0  0
    2.5369   -2.5950    0.0000 N   0  0  0  0  0  0  0  0  0  0  0  0
    8.5991    1.9050    0.0000 N   0  0  0  0  0  0  0  0  0  0  0  0
    4.2690    0.4050    0.0000 C   0  0  0  0  0  0  0  0  0  0  0  0
    3.4030   -0.0950    0.0000 C   0  0  0  0  0  0  0  0  0  0  0  0
    4.2690    1.4050    0.0000 C   0  0  1  0  0  0  0  0  0  0  0  0
    3.4030   -1.0950    0.0000 C   0  0  0  0  0  0  0  0  0  0  0  0
    2.5369   -1.5950    0.0000 C   0  0  0  0  0  0  0  0  0  0  0  0
    3.4030    1.9050    0.0000 C   0  0  0  0  0  0  0  0  0  0  0  0
    6.0010    1.4050    0.0000 C   0  0  0  0  0  0  0  0  0  0  0  0
    6.8671    1.9050    0.0000 C   0  0  0  0  0  0  0  0  0  0  0  0
    7.7331    1.4050    0.0000 C   0  0  0  0  0  0  0  0  0  0  0  0
    4.4810   -0.1776    0.0000 H   0  0  0  0  0  0  0  0  0  0  0  0
    4.8796    0.5127    0.0000 H   0  0  0  0  0  0  0  0  0  0  0  0
    3.1909    0.4876    0.0000 H   0  0  0  0  0  0  0  0  0  0  0  0
    2.7924   -0.2027    0.0000 H   0  0  0  0  0  0  0  0  0  0  0  0
    4.2690    2.0250    0.0000 H   0  0  0  0  0  0  0  0  0  0  0  0
    3.6150   -1.6776    0.0000 H   0  0  0  0  0  0  0  0  0  0  0  0
    4.0135   -0.9873    0.0000 H   0  0  0  0  0  0  0  0  0  0  0  0
    5.1350    2.5250    0.0000 H   0  0  0  0  0  0  0  0  0  0  0  0
    2.3249   -1.0124    0.0000 H   0  0  0  0  0  0  0  0  0  0  0  0
    1.9264   -1.7027    0.0000 H   0  0  0  0  0  0  0  0  0  0  0  0
    7.2656    2.3800    0.0000 H   0  0  0  0  0  0  0  0  0  0  0  0
    6.4685    2.3800    0.0000 H   0  0  0  0  0  0  0  0  0  0  0  0
    7.3346    0.9301    0.0000 H   0  0  0  0  0  0  0  0  0  0  0  0
    8.1316    0.9301    0.0000 H   0  0  0  0  0  0  0  0  0  0  0  0
    2.0000   -2.9050    0.0000 H   0  0  0  0  0  0  0  0  0  0  0  0
    3.0739   -2.9050    0.0000 H   0  0  0  0  0  0  0  0  0  0  0  0
    2.0000    1.7150    0.0000 H   0  0  0  0  0  0  0  0  0  0  0  0
    9.1360    1.5950    0.0000 H   0  0  0  0  0  0  0  0  0  0  0  0
    8.5991    2.5250    0.0000 H   0  0  0  0  0  0  0  0  0  0  0  0
  1 12  1  0  0  0  0
  1 32  1  0  0  0  0
  2 12  2  0  0  0  0
  3 13  2  0  0  0  0
  9  4  1  1  0  0  0
  4 13  1  0  0  0  0
  4 23  1  0  0  0  0
  5 11  1  0  0  0  0
  5 30  1  0  0  0  0
  5 31  1  0  0  0  0
  6 15  1  0  0  0  0
  6 33  1  0  0  0  0
  6 34  1  0  0  0  0
  7  8  1  0  0  0  0
  7  9  1  0  0  0  0
  7 16  1  0  0  0  0
  7 17  1  0  0  0  0
  8 10  1  0  0  0  0
  8 18  1  0  0  0  0
  8 19  1  0  0  0  0
  9 12  1  0  0  0  0
  9 20  1  0  0  0  0
 10 11  1  0  0  0  0
 10 21  1  0  0  0  0
 10 22  1  0  0  0  0
 11 24  1  0  0  0  0
 11 25  1  0  0  0  0
 13 14  1  0  0  0  0
 14 15  1  0  0  0  0
 14 26  1  0  0  0  0
 14 27  1  0  0  0  0
 15 28  1  0  0  0  0
 15 29  1  0  0  0  0
M  END
> <PUBCHEM_COMPOUND_CID>
440638

> <PUBCHEM_COMPOUND_CANONICALIZED>
1

> <PUBCHEM_CACTVS_COMPLEXITY>
209

> <PUBCHEM_CACTVS_HBOND_ACCEPTOR>
5

> <PUBCHEM_CACTVS_HBOND_DONOR>
4

> <PUBCHEM_CACTVS_ROTATABLE_BOND>
8

> <PUBCHEM_CACTVS_SUBSKEYS>
AAADceBzMAAAAAAAAAAAAAAAAAAAAAAAAAAAAAAAAAAAAAAAAAAAHgAQCAAACCjBgAQACALAAgAIAAGQGAAAAAAAAAAAAIGIAAACABoAwCAEQAAEFgCQAAGYSAAAAAAAAAAAAAAAAAAAAAAAAAAAAAAAAA==

> <PUBCHEM_IUPAC_OPENEYE_NAME>
(2S)-6-amino-2-(3-aminopropanoylamino)hexanoic acid

> <PUBCHEM_IUPAC_CAS_NAME>
(2S)-6-amino-2-[(3-amino-1-oxopropyl)amino]hexanoic acid

> <PUBCHEM_IUPAC_NAME>
(2S)-6-amino-2-(3-aminopropanoylamino)hexanoic acid

> <PUBCHEM_IUPAC_SYSTEMATIC_NAME>
(2S)-6-azanyl-2-(3-azanylpropanoylamino)hexanoic acid

> <PUBCHEM_IUPAC_TRADITIONAL_NAME>
(2S)-6-amino-2-(3-aminopropanoylamino)hexanoic acid

> <PUBCHEM_IUPAC_INCHI>
InChI=1S/C9H19N3O3/c10-5-2-1-3-7(9(14)15)12-8(13)4-6-11/h7H,1-6,10-11H2,(H,12,13)(H,14,15)/t7-/m0/s1

> <PUBCHEM_IUPAC_INCHIKEY>
PLDCWKCPEXNWJH-ZETCQYMHSA-N

> <PUBCHEM_XLOGP3>
-5.5

> <PUBCHEM_EXACT_MASS>
217.142641

> <PUBCHEM_MOLECULAR_FORMULA>
C9H19N3O3

> <PUBCHEM_MOLECULAR_WEIGHT>
217.26546

> <PUBCHEM_OPENEYE_CAN_SMILES>
C(CCN)CC(C(=O)O)NC(=O)CCN

> <PUBCHEM_OPENEYE_ISO_SMILES>
C(CCN)C[C@@H](C(=O)O)NC(=O)CCN

> <PUBCHEM_CACTVS_TPSA>
118

> <PUBCHEM_MONOISOTOPIC_WEIGHT>
217.142641

> <PUBCHEM_TOTAL_CHARGE>
0

> <PUBCHEM_HEAVY_ATOM_COUNT>
15

> <PUBCHEM_ATOM_DEF_STEREO_COUNT>
1

> <PUBCHEM_ATOM_UDEF_STEREO_COUNT>
0

> <PUBCHEM_BOND_DEF_STEREO_COUNT>
0

> <PUBCHEM_BOND_UDEF_STEREO_COUNT>
0

> <PUBCHEM_ISOTOPIC_ATOM_COUNT>
0

> <PUBCHEM_COMPONENT_COUNT>
1

> <PUBCHEM_CACTVS_TAUTO_COUNT>
2

> <PUBCHEM_COORDINATE_TYPE>
1
5
255

> <PUBCHEM_BONDANNOTATIONS>
9  4  5

$$$$

