395943
  -OEChem-07051213043D

 51 51  0     0  0  0  0  0  0999 V2000
   -3.3571   -0.3577   -0.5219 O   0  0  0  0  0  0  0  0  0  0  0  0
    6.6003   -0.0199    1.1387 O   0  0  0  0  0  0  0  0  0  0  0  0
    5.9717   -0.4316   -1.0036 O   0  0  0  0  0  0  0  0  0  0  0  0
   -0.4873   -2.0490   -0.1027 C   0  0  0  0  0  0  0  0  0  0  0  0
    0.8947   -1.7288   -0.6798 C   0  0  0  0  0  0  0  0  0  0  0  0
   -1.5130   -2.4500   -1.1654 C   0  0  0  0  0  0  0  0  0  0  0  0
    1.9134   -1.3029    0.3804 C   0  0  0  0  0  0  0  0  0  0  0  0
   -2.8772   -2.7458   -0.5337 C   0  0  0  0  0  0  0  0  0  0  0  0
   -2.5917    2.3729   -0.9085 C   0  0  0  0  0  0  0  0  0  0  0  0
   -1.4370    2.3719    0.0951 C   0  0  0  0  0  0  0  0  0  0  0  0
   -3.9362    1.9605   -0.2671 C   0  0  0  0  0  0  0  0  0  0  0  0
    3.2713   -0.9834   -0.2548 C   0  0  0  0  0  0  0  0  0  0  0  0
   -3.4406   -1.5305    0.1591 C   0  0  0  0  0  0  0  0  0  0  0  0
   -0.1160    2.7513   -0.5759 C   0  0  0  0  0  0  0  0  0  0  0  0
   -3.9152    0.5935    0.2722 C   0  0  0  0  0  0  0  0  0  0  0  0
   -4.0457   -1.3386    1.3793 C   0  0  0  0  0  0  0  0  0  0  0  0
    1.0430    2.7181    0.4199 C   0  0  0  0  0  0  0  0  0  0  0  0
   -4.3538    0.0407    1.4529 C   0  0  0  0  0  0  0  0  0  0  0  0
    4.3234   -0.5914    0.7832 C   0  0  0  0  0  0  0  0  0  0  0  0
    2.3635    3.0622   -0.2503 C   0  0  0  0  0  0  0  0  0  0  0  0
    5.6894   -0.3414    0.1830 C   0  0  0  0  0  0  0  0  0  0  0  0
   -0.3884   -2.8606    0.6290 H   0  0  0  0  0  0  0  0  0  0  0  0
   -0.8318   -1.1676    0.4497 H   0  0  0  0  0  0  0  0  0  0  0  0
    1.2723   -2.6094   -1.2142 H   0  0  0  0  0  0  0  0  0  0  0  0
    0.7928   -0.9268   -1.4217 H   0  0  0  0  0  0  0  0  0  0  0  0
   -1.1628   -3.3472   -1.6897 H   0  0  0  0  0  0  0  0  0  0  0  0
   -1.5998   -1.6560   -1.9170 H   0  0  0  0  0  0  0  0  0  0  0  0
    1.5417   -0.4332    0.9294 H   0  0  0  0  0  0  0  0  0  0  0  0
    2.0342   -2.1126    1.1103 H   0  0  0  0  0  0  0  0  0  0  0  0
   -3.5802   -3.0614   -1.3131 H   0  0  0  0  0  0  0  0  0  0  0  0
   -2.7903   -3.5706    0.1831 H   0  0  0  0  0  0  0  0  0  0  0  0
   -2.3562    1.7040   -1.7458 H   0  0  0  0  0  0  0  0  0  0  0  0
   -2.7041    3.3791   -1.3309 H   0  0  0  0  0  0  0  0  0  0  0  0
   -1.3278    1.3817    0.5514 H   0  0  0  0  0  0  0  0  0  0  0  0
   -1.6554    3.0777    0.9057 H   0  0  0  0  0  0  0  0  0  0  0  0
   -4.7247    2.0341   -1.0254 H   0  0  0  0  0  0  0  0  0  0  0  0
   -4.1905    2.6744    0.5254 H   0  0  0  0  0  0  0  0  0  0  0  0
    3.6246   -1.8571   -0.8168 H   0  0  0  0  0  0  0  0  0  0  0  0
    3.1566   -0.1713   -0.9832 H   0  0  0  0  0  0  0  0  0  0  0  0
    0.0896    2.0544   -1.3978 H   0  0  0  0  0  0  0  0  0  0  0  0
   -0.1985    3.7534   -1.0138 H   0  0  0  0  0  0  0  0  0  0  0  0
    1.1159    1.7293    0.8803 H   0  0  0  0  0  0  0  0  0  0  0  0
    0.8551    3.4341    1.2287 H   0  0  0  0  0  0  0  0  0  0  0  0
   -4.2408   -2.0965    2.1244 H   0  0  0  0  0  0  0  0  0  0  0  0
   -4.8353    0.5641    2.2665 H   0  0  0  0  0  0  0  0  0  0  0  0
    4.4254   -1.3951    1.5212 H   0  0  0  0  0  0  0  0  0  0  0  0
    4.0068    0.3227    1.2978 H   0  0  0  0  0  0  0  0  0  0  0  0
    2.5929    2.3540   -1.0526 H   0  0  0  0  0  0  0  0  0  0  0  0
    2.3350    4.0692   -0.6788 H   0  0  0  0  0  0  0  0  0  0  0  0
    3.1792    3.0256    0.4783 H   0  0  0  0  0  0  0  0  0  0  0  0
    7.4912    0.1330    0.7576 H   0  0  0  0  0  0  0  0  0  0  0  0
  1 13  1  0  0  0  0
  1 15  1  0  0  0  0
  2 21  1  0  0  0  0
  2 51  1  0  0  0  0
  3 21  2  0  0  0  0
  4  5  1  0  0  0  0
  4  6  1  0  0  0  0
  4 22  1  0  0  0  0
  4 23  1  0  0  0  0
  5  7  1  0  0  0  0
  5 24  1  0  0  0  0
  5 25  1  0  0  0  0
  6  8  1  0  0  0  0
  6 26  1  0  0  0  0
  6 27  1  0  0  0  0
  7 12  1  0  0  0  0
  7 28  1  0  0  0  0
  7 29  1  0  0  0  0
  8 13  1  0  0  0  0
  8 30  1  0  0  0  0
  8 31  1  0  0  0  0
  9 10  1  0  0  0  0
  9 11  1  0  0  0  0
  9 32  1  0  0  0  0
  9 33  1  0  0  0  0
 10 14  1  0  0  0  0
 10 34  1  0  0  0  0
 10 35  1  0  0  0  0
 11 15  1  0  0  0  0
 11 36  1  0  0  0  0
 11 37  1  0  0  0  0
 12 19  1  0  0  0  0
 12 38  1  0  0  0  0
 12 39  1  0  0  0  0
 13 16  2  0  0  0  0
 14 17  1  0  0  0  0
 14 40  1  0  0  0  0
 14 41  1  0  0  0  0
 15 18  2  0  0  0  0
 16 18  1  0  0  0  0
 16 44  1  0  0  0  0
 17 20  1  0  0  0  0
 17 42  1  0  0  0  0
 17 43  1  0  0  0  0
 18 45  1  0  0  0  0
 19 21  1  0  0  0  0
 19 46  1  0  0  0  0
 19 47  1  0  0  0  0
 20 48  1  0  0  0  0
 20 49  1  0  0  0  0
 20 50  1  0  0  0  0
M  END
> <PUBCHEM_COMPOUND_CID>
395943

> <PUBCHEM_CONFORMER_RMSD>
1.4

> <PUBCHEM_CONFORMER_DIVERSEORDER>
1
10
40
59
19
73
44
18
28
72
79
63
50
3
33
8
9
81
58
2
20
23
74
11
39
21
35
24
60
61
32
4
80
76
38
65
34
54
6
71
62
7
15
64
42
55
41
27
16
56
53
29
37
68
51
26
52
69
14
47
31
30
45
25
75
46
66
70
22
13
57
43
36
78
49
77
17
5
67
12
48

> <PUBCHEM_MMFF94_PARTIAL_CHARGES>
14
1 -0.28
11 0.18
13 -0.04
15 -0.04
16 -0.15
18 -0.15
19 0.06
2 -0.65
21 0.66
3 -0.57
44 0.15
45 0.15
51 0.5
8 0.18

> <PUBCHEM_EFFECTIVE_ROTOR_COUNT>
13

> <PUBCHEM_PHARMACOPHORE_FEATURES>
7
1 1 acceptor
1 2 acceptor
1 20 hydrophobe
1 3 acceptor
3 2 3 21 anion
5 1 13 15 16 18 rings
5 9 10 11 14 17 hydrophobe

> <PUBCHEM_HEAVY_ATOM_COUNT>
21

> <PUBCHEM_ATOM_DEF_STEREO_COUNT>
0

> <PUBCHEM_ATOM_UDEF_STEREO_COUNT>
0

> <PUBCHEM_BOND_DEF_STEREO_COUNT>
0

> <PUBCHEM_BOND_UDEF_STEREO_COUNT>
0

> <PUBCHEM_ISOTOPIC_ATOM_COUNT>
0

> <PUBCHEM_COMPONENT_COUNT>
1

> <PUBCHEM_CACTVS_TAUTO_COUNT>
1

> <PUBCHEM_CONFORMER_ID>
00060AA700000001

> <PUBCHEM_MMFF94_ENERGY>
0.9048

> <PUBCHEM_FEATURE_SELFOVERLAP>
35.579

> <PUBCHEM_SHAPE_FINGERPRINT>
10730089 173 18411695517947063462
10864689 126 18192433202501264692
11014199 57 17976265629608109830
11135609 187 17979368774188150685
11595378 159 18059023881692955090
12104220 1 17603863442952561704
12422481 6 18120120341493085728
12596602 18 17132111338561003698
12633257 1 18261946380249754821
12838862 33 18266760119645346213
13402501 40 18337392746391824989
13615921 28 16877946014280693361
13941206 138 16978126693401351308
14466204 15 18411142433275409042
16110190 28 18409442557717092496
18336668 15 18202001010756935844
20721686 56 18197499528036453306
338550 245 18270961242043241292

> <PUBCHEM_SHAPE_MULTIPOLES>
414.56
12.26
3.98
1.12
19
2.17
0.16
-2.23
3.1
-1.89
-0.97
-0.38
-0.24
0.25

> <PUBCHEM_SHAPE_SELFOVERLAP>
805.003

> <PUBCHEM_SHAPE_VOLUME>
251.1

> <PUBCHEM_COORDINATE_TYPE>
2
5
10

$$$$

