5281860
  -OEChem-07051213002D

 37 40  0     0  0  0  0  0  0999 V2000
    2.8660    0.3912    0.0000 O   0  0  0  0  0  0  0  0  0  0  0  0
    6.3981   -0.6296    0.0000 O   0  0  0  0  0  0  0  0  0  0  0  0
    2.8611    2.3765    0.0000 O   0  0  0  0  0  0  0  0  0  0  0  0
    6.3038   -2.6619    0.0000 O   0  0  0  0  0  0  0  0  0  0  0  0
    4.5632    3.3902    0.0000 O   0  0  0  0  0  0  0  0  0  0  0  0
    4.5632   -3.6077    0.0000 O   0  0  0  0  0  0  0  0  0  0  0  0
    7.2622    0.9154    0.0000 O   0  0  0  0  0  0  0  0  0  0  0  0
    2.0000   -1.1088    0.0000 O   0  0  0  0  0  0  0  0  0  0  0  0
    4.5981    0.3912    0.0000 C   0  0  0  0  0  0  0  0  0  0  0  0
    4.5981   -0.6088    0.0000 C   0  0  0  0  0  0  0  0  0  0  0  0
    5.4920    0.9259    0.0000 C   0  0  0  0  0  0  0  0  0  0  0  0
    3.7320    0.8912    0.0000 C   0  0  0  0  0  0  0  0  0  0  0  0
    3.7320   -1.1088    0.0000 C   0  0  0  0  0  0  0  0  0  0  0  0
    5.4920   -1.1435    0.0000 C   0  0  0  0  0  0  0  0  0  0  0  0
    3.7308    1.8829    0.0000 C   0  0  0  0  0  0  0  0  0  0  0  0
    5.4542   -2.1344    0.0000 C   0  0  0  0  0  0  0  0  0  0  0  0
    5.4542    1.9168    0.0000 C   0  0  0  0  0  0  0  0  0  0  0  0
    3.7308   -2.1005    0.0000 C   0  0  0  0  0  0  0  0  0  0  0  0
    6.3981    0.4120    0.0000 C   0  0  0  0  0  0  0  0  0  0  0  0
    4.5828    2.3904    0.0000 C   0  0  0  0  0  0  0  0  0  0  0  0
    2.8660   -0.6088    0.0000 C   0  0  0  0  0  0  0  0  0  0  0  0
    4.5828   -2.6079    0.0000 C   0  0  0  0  0  0  0  0  0  0  0  0
    2.8537    3.3765    0.0000 C   0  0  0  0  0  0  0  0  0  0  0  0
    6.2718   -3.6614    0.0000 C   0  0  0  0  0  0  0  0  0  0  0  0
    5.4192    3.9071    0.0000 C   0  0  0  0  0  0  0  0  0  0  0  0
    5.9810    2.2439    0.0000 H   0  0  0  0  0  0  0  0  0  0  0  0
    3.1916   -2.4065    0.0000 H   0  0  0  0  0  0  0  0  0  0  0  0
    4.0202   -3.9071    0.0000 H   0  0  0  0  0  0  0  0  0  0  0  0
    3.4737    3.3810    0.0000 H   0  0  0  0  0  0  0  0  0  0  0  0
    2.8491    3.9964    0.0000 H   0  0  0  0  0  0  0  0  0  0  0  0
    2.2337    3.3719    0.0000 H   0  0  0  0  0  0  0  0  0  0  0  0
    5.6522   -3.6415    0.0000 H   0  0  0  0  0  0  0  0  0  0  0  0
    6.2520   -4.2810    0.0000 H   0  0  0  0  0  0  0  0  0  0  0  0
    6.8915   -3.6812    0.0000 H   0  0  0  0  0  0  0  0  0  0  0  0
    5.7397    3.3764    0.0000 H   0  0  0  0  0  0  0  0  0  0  0  0
    5.9499    4.2276    0.0000 H   0  0  0  0  0  0  0  0  0  0  0  0
    5.0987    4.4378    0.0000 H   0  0  0  0  0  0  0  0  0  0  0  0
  1 12  1  0  0  0  0
  1 21  1  0  0  0  0
  2 14  1  0  0  0  0
  2 19  1  0  0  0  0
  3 15  1  0  0  0  0
  3 23  1  0  0  0  0
  4 16  1  0  0  0  0
  4 24  1  0  0  0  0
  5 20  1  0  0  0  0
  5 25  1  0  0  0  0
  6 22  1  0  0  0  0
  6 28  1  0  0  0  0
  7 19  2  0  0  0  0
  8 21  2  0  0  0  0
  9 10  1  0  0  0  0
  9 11  1  0  0  0  0
  9 12  2  0  0  0  0
 10 13  1  0  0  0  0
 10 14  2  0  0  0  0
 11 17  2  0  0  0  0
 11 19  1  0  0  0  0
 12 15  1  0  0  0  0
 13 18  2  0  0  0  0
 13 21  1  0  0  0  0
 14 16  1  0  0  0  0
 15 20  2  0  0  0  0
 16 22  2  0  0  0  0
 17 20  1  0  0  0  0
 17 26  1  0  0  0  0
 18 22  1  0  0  0  0
 18 27  1  0  0  0  0
 23 29  1  0  0  0  0
 23 30  1  0  0  0  0
 23 31  1  0  0  0  0
 24 32  1  0  0  0  0
 24 33  1  0  0  0  0
 24 34  1  0  0  0  0
 25 35  1  0  0  0  0
 25 36  1  0  0  0  0
 25 37  1  0  0  0  0
M  END
> <PUBCHEM_COMPOUND_CID>
5281860

> <PUBCHEM_COMPOUND_CANONICALIZED>
1

> <PUBCHEM_CACTVS_COMPLEXITY>
565

> <PUBCHEM_CACTVS_HBOND_ACCEPTOR>
8

> <PUBCHEM_CACTVS_HBOND_DONOR>
1

> <PUBCHEM_CACTVS_ROTATABLE_BOND>
3

> <PUBCHEM_CACTVS_SUBSKEYS>
AAADccB4PAAAAAAAAAAAAAAAAAAAAAAAAAA0aIEAAAAAAACRQAAAGgAACAAADASAmAIyDoAABgCIAiDSCAACCAAkIAAAiAEGiMgNJzKGNBqCeyOlwBULuYfK7PzOoAABCAAYQABAAAIQADCAAAAAAAAAAA==

> <PUBCHEM_IUPAC_INCHI>
InChI=1S/C17H12O8/c1-21-9-5-7-11-10-6(16(19)25-15(11)13(9)23-3)4-8(18)12(22-2)14(10)24-17(7)20/h4-5,18H,1-3H3

> <PUBCHEM_IUPAC_INCHIKEY>
LXEQIOGTMDLLEC-UHFFFAOYSA-N

> <PUBCHEM_XLOGP3_AA>
2.1

> <PUBCHEM_EXACT_MASS>
344.053217

> <PUBCHEM_MOLECULAR_FORMULA>
C17H12O8

> <PUBCHEM_MOLECULAR_WEIGHT>
344.27238

> <PUBCHEM_OPENEYE_CAN_SMILES>
COC1=C(C2=C3C(=C1)C(=O)OC4=C3C(=CC(=C4OC)O)C(=O)O2)OC

> <PUBCHEM_OPENEYE_ISO_SMILES>
COC1=C(C2=C3C(=C1)C(=O)OC4=C3C(=CC(=C4OC)O)C(=O)O2)OC

> <PUBCHEM_CACTVS_TPSA>
101

> <PUBCHEM_MONOISOTOPIC_WEIGHT>
344.053217

> <PUBCHEM_TOTAL_CHARGE>
0

> <PUBCHEM_HEAVY_ATOM_COUNT>
25

> <PUBCHEM_ATOM_DEF_STEREO_COUNT>
0

> <PUBCHEM_ATOM_UDEF_STEREO_COUNT>
0

> <PUBCHEM_BOND_DEF_STEREO_COUNT>
0

> <PUBCHEM_BOND_UDEF_STEREO_COUNT>
0

> <PUBCHEM_ISOTOPIC_ATOM_COUNT>
0

> <PUBCHEM_COMPONENT_COUNT>
1

> <PUBCHEM_CACTVS_TAUTO_COUNT>
5

> <PUBCHEM_COORDINATE_TYPE>
1
5
255

> <PUBCHEM_BONDANNOTATIONS>
1  12  8
1  21  8
10  13  8
10  14  8
11  17  8
11  19  8
12  15  8
13  18  8
13  21  8
14  16  8
15  20  8
16  22  8
17  20  8
18  22  8
2  14  8
2  19  8
9  10  8
9  11  8
9  12  8

$$$$

