13787
  -OEChem-06241222403D

 46 48  0     0  0  0  0  0  0999 V2000
   -5.7697   -0.1042   -0.8425 O   0  0  0  0  0  0  0  0  0  0  0  0
   -1.1828   -0.0209    1.6149 O   0  0  0  0  0  0  0  0  0  0  0  0
   -3.4582    0.9931    0.4043 N   0  0  0  0  0  0  0  0  0  0  0  0
    1.4450    0.3347    0.6147 C   0  0  0  0  0  0  0  0  0  0  0  0
   -2.2255    1.7779    0.3864 C   0  0  0  0  0  0  0  0  0  0  0  0
    0.2836    1.2606    0.1821 C   0  0  0  0  0  0  0  0  0  0  0  0
   -3.3653   -0.1456   -0.5201 C   0  0  0  0  0  0  0  0  0  0  0  0
   -4.6148    1.8303    0.0570 C   0  0  0  0  0  0  0  0  0  0  0  0
   -1.0618    0.8989    0.8070 C   0  0  0  0  0  0  0  0  0  0  0  0
   -4.6668   -0.9419   -0.4938 C   0  0  0  0  0  0  0  0  0  0  0  0
   -5.8867    0.9872    0.0709 C   0  0  0  0  0  0  0  0  0  0  0  0
    1.2413   -1.1279    0.2333 C   0  0  0  0  0  0  0  0  0  0  0  0
    2.8058    0.8408    0.1469 C   0  0  0  0  0  0  0  0  0  0  0  0
    1.7967   -2.1053    1.0311 C   0  0  0  0  0  0  0  0  0  0  0  0
    3.9185    0.5509    0.9068 C   0  0  0  0  0  0  0  0  0  0  0  0
    0.5085   -1.4239   -0.8959 C   0  0  0  0  0  0  0  0  0  0  0  0
    2.8772    1.5706   -1.0201 C   0  0  0  0  0  0  0  0  0  0  0  0
    1.6105   -3.4431    0.6827 C   0  0  0  0  0  0  0  0  0  0  0  0
    5.1630    1.0135    0.4792 C   0  0  0  0  0  0  0  0  0  0  0  0
    0.3221   -2.7616   -1.2443 C   0  0  0  0  0  0  0  0  0  0  0  0
    4.1218    2.0329   -1.4478 C   0  0  0  0  0  0  0  0  0  0  0  0
    0.8731   -3.7712   -0.4549 C   0  0  0  0  0  0  0  0  0  0  0  0
    5.2646    1.7543   -0.6981 C   0  0  0  0  0  0  0  0  0  0  0  0
    1.4478    0.3820    1.7154 H   0  0  0  0  0  0  0  0  0  0  0  0
   -2.2756    2.6088    1.0990 H   0  0  0  0  0  0  0  0  0  0  0  0
   -2.0328    2.1873   -0.6123 H   0  0  0  0  0  0  0  0  0  0  0  0
    0.5035    2.2862    0.5082 H   0  0  0  0  0  0  0  0  0  0  0  0
    0.1334    1.2931   -0.9011 H   0  0  0  0  0  0  0  0  0  0  0  0
   -2.5599   -0.8375   -0.2591 H   0  0  0  0  0  0  0  0  0  0  0  0
   -3.1815    0.2116   -1.5422 H   0  0  0  0  0  0  0  0  0  0  0  0
   -4.4804    2.2710   -0.9395 H   0  0  0  0  0  0  0  0  0  0  0  0
   -4.7221    2.6482    0.7786 H   0  0  0  0  0  0  0  0  0  0  0  0
   -4.6222   -1.7534   -1.2272 H   0  0  0  0  0  0  0  0  0  0  0  0
   -4.8457   -1.3932    0.4898 H   0  0  0  0  0  0  0  0  0  0  0  0
   -6.1067    0.6029    1.0744 H   0  0  0  0  0  0  0  0  0  0  0  0
   -6.7403    1.5953   -0.2451 H   0  0  0  0  0  0  0  0  0  0  0  0
    2.3605   -1.8665    1.9269 H   0  0  0  0  0  0  0  0  0  0  0  0
    3.8540   -0.0121    1.8321 H   0  0  0  0  0  0  0  0  0  0  0  0
    0.0832   -0.6742   -1.5515 H   0  0  0  0  0  0  0  0  0  0  0  0
    2.0207    1.7915   -1.6451 H   0  0  0  0  0  0  0  0  0  0  0  0
    2.0368   -4.2293    1.2989 H   0  0  0  0  0  0  0  0  0  0  0  0
    6.0526    0.7992    1.0644 H   0  0  0  0  0  0  0  0  0  0  0  0
   -0.2479   -3.0175   -2.1327 H   0  0  0  0  0  0  0  0  0  0  0  0
    4.2025    2.6057   -2.3672 H   0  0  0  0  0  0  0  0  0  0  0  0
    0.7283   -4.8128   -0.7265 H   0  0  0  0  0  0  0  0  0  0  0  0
    6.2337    2.1140   -1.0314 H   0  0  0  0  0  0  0  0  0  0  0  0
  1 10  1  0  0  0  0
  1 11  1  0  0  0  0
  2  9  2  0  0  0  0
  3  5  1  0  0  0  0
  3  7  1  0  0  0  0
  3  8  1  0  0  0  0
  4  6  1  0  0  0  0
  4 12  1  0  0  0  0
  4 13  1  0  0  0  0
  4 24  1  0  0  0  0
  5  9  1  0  0  0  0
  5 25  1  0  0  0  0
  5 26  1  0  0  0  0
  6  9  1  0  0  0  0
  6 27  1  0  0  0  0
  6 28  1  0  0  0  0
  7 10  1  0  0  0  0
  7 29  1  0  0  0  0
  7 30  1  0  0  0  0
  8 11  1  0  0  0  0
  8 31  1  0  0  0  0
  8 32  1  0  0  0  0
 10 33  1  0  0  0  0
 10 34  1  0  0  0  0
 11 35  1  0  0  0  0
 11 36  1  0  0  0  0
 12 14  2  0  0  0  0
 12 16  1  0  0  0  0
 13 15  2  0  0  0  0
 13 17  1  0  0  0  0
 14 18  1  0  0  0  0
 14 37  1  0  0  0  0
 15 19  1  0  0  0  0
 15 38  1  0  0  0  0
 16 20  2  0  0  0  0
 16 39  1  0  0  0  0
 17 21  2  0  0  0  0
 17 40  1  0  0  0  0
 18 22  2  0  0  0  0
 18 41  1  0  0  0  0
 19 23  2  0  0  0  0
 19 42  1  0  0  0  0
 20 22  1  0  0  0  0
 20 43  1  0  0  0  0
 21 23  1  0  0  0  0
 21 44  1  0  0  0  0
 22 45  1  0  0  0  0
 23 46  1  0  0  0  0
M  END
> <PUBCHEM_COMPOUND_CID>
13787

> <PUBCHEM_CONFORMER_RMSD>
0.8

> <PUBCHEM_CONFORMER_DIVERSEORDER>
1
47
32
82
30
55
42
97
8
87
74
7
28
49
57
86
79
83
89
88
22
15
17
23
70
53
81
37
25
63
96
58
84
48
46
94
80
34
2
44
73
12
6
40
72
61
38
13
29
43
59
62
9
71
91
52
85
93
11
41
95
18
20
56
90
69
39
36
21
77
100
76
5
65
33
26
35
67
4
45
51
99
78
68
66
19
14
50
60
64
98
10
31
3
92
75
27
54
24
16

> <PUBCHEM_MMFF94_PARTIAL_CHARGES>
33
1 -0.56
10 0.28
11 0.28
12 -0.14
13 -0.14
14 -0.15
15 -0.15
16 -0.15
17 -0.15
18 -0.15
19 -0.15
2 -0.57
20 -0.15
21 -0.15
22 -0.15
23 -0.15
3 -0.81
37 0.15
38 0.15
39 0.15
4 0.29
40 0.15
41 0.15
42 0.15
43 0.15
44 0.15
45 0.15
46 0.15
5 0.33
6 0.06
7 0.27
8 0.27
9 0.45

> <PUBCHEM_EFFECTIVE_ROTOR_COUNT>
7.2

> <PUBCHEM_PHARMACOPHORE_FEATURES>
6
1 1 acceptor
1 2 acceptor
1 3 cation
6 1 3 7 8 10 11 rings
6 12 14 16 18 20 22 rings
6 13 15 17 19 21 23 rings

> <PUBCHEM_HEAVY_ATOM_COUNT>
23

> <PUBCHEM_ATOM_DEF_STEREO_COUNT>
0

> <PUBCHEM_ATOM_UDEF_STEREO_COUNT>
0

> <PUBCHEM_BOND_DEF_STEREO_COUNT>
0

> <PUBCHEM_BOND_UDEF_STEREO_COUNT>
0

> <PUBCHEM_ISOTOPIC_ATOM_COUNT>
0

> <PUBCHEM_COMPONENT_COUNT>
1

> <PUBCHEM_CACTVS_TAUTO_COUNT>
3

> <PUBCHEM_CONFORMER_ID>
000035DB00000001

> <PUBCHEM_MMFF94_ENERGY>
63.0787

> <PUBCHEM_FEATURE_SELFOVERLAP>
30.446

> <PUBCHEM_SHAPE_FINGERPRINT>
10090160 65 18343024397435420257
10554248 39 17899706945190039429
10616163 171 18335424530848113871
10759866 29 18335986445361002087
10906281 52 18130208424633070617
11069576 57 18117016561601263839
12592029 89 18413108381250090874
12788726 201 17692805996165763934
13052359 8 18265894649206587306
13083527 12 18125170573981221594
13149001 5 17678736731276049560
13257819 101 17203620267284516541
13257819 37 18267565941361514278
133893 2 18049418625316366978
13631057 29 18189337879863810967
13836976 161 18413109463639962564
13968360 50 18412550920133427142
14251757 17 16443328863288099852
14617045 38 18259983752632445527
14790565 3 18338516331032200980
15131766 46 14762353586082636844
15537594 2 18040156198115526567
15849732 13 18202284698174352044
16752209 62 18192716631550815098
17138139 8 17897184437212442703
173720 79 18339654351947890274
17980427 23 16987990575406614031
18681886 176 18339928112989985160
20197701 30 18408886205186482430
20567600 347 18335415781514331486
20645477 70 18267305507419004291
21033648 144 17559958718777805885
21054139 6 18262245425942844423
21344244 181 17458889479901844302
21344244 246 18115857672383020886
21521721 280 18189048699114658121
21524375 3 18412260615088753080
22393880 68 18189046667368000781
22950370 63 8574440819940370028
22956985 138 18053391178039942242
23366157 5 18125997402166649410
23419403 2 17414729957820374958
23558518 356 17979348991072406553
23559900 14 17680712824238135111
23569917 315 18409444778706424918
3004659 81 18191872430027216419
3060560 45 18342730819816168484
3759504 43 18199466571908946498
4280585 95 17540806626650513254
474 4 18272649051940560024
474229 33 18410012100376299578
6669772 16 18261103089703069246
7495541 125 7420938790247189585
81539 233 18341328972185980354
8272917 22 18271525402723070680
8863177 126 7131848635116550133
9971528 1 11671781567880144936

> <PUBCHEM_SHAPE_MULTIPOLES>
456.61
11.52
3.53
1.19
10.63
4.2
-0.06
-8.51
-1.81
-2.21
-0.51
-0.6
0.09
-1.32

> <PUBCHEM_SHAPE_SELFOVERLAP>
969.696

> <PUBCHEM_SHAPE_VOLUME>
252.6

> <PUBCHEM_COORDINATE_TYPE>
2
5
10

$$$$

