17395958
  -OEChem-06241222533D

 43 45  0     0  0  0  0  0  0999 V2000
   -4.6152    1.9183    1.2434 S   0  0  0  0  0  0  0  0  0  0  0  0
   -1.7301   -2.6020    1.5959 O   0  0  0  0  0  0  0  0  0  0  0  0
    1.0301    2.7741    0.1257 O   0  0  0  0  0  0  0  0  0  0  0  0
   -0.1884   -2.2945   -0.1514 N   0  0  0  0  0  0  0  0  0  0  0  0
    2.5144   -0.8549   -0.7090 N   0  0  0  0  0  0  0  0  0  0  0  0
    0.6519    0.6272   -0.5823 N   0  0  0  0  0  0  0  0  0  0  0  0
    0.2690   -1.6288   -1.3263 C   0  0  0  0  0  0  0  0  0  0  0  0
   -2.2025   -0.8531    0.0254 C   0  0  0  0  0  0  0  0  0  0  0  0
    0.6553   -3.3937    0.3487 C   0  0  0  0  0  0  0  0  0  0  0  0
   -1.3684   -2.0004    0.5811 C   0  0  0  0  0  0  0  0  0  0  0  0
    1.1837   -0.5330   -0.8376 C   0  0  0  0  0  0  0  0  0  0  0  0
   -3.4601   -0.5841    0.8568 C   0  0  0  0  0  0  0  0  0  0  0  0
    3.4092    0.1207   -0.2652 C   0  0  0  0  0  0  0  0  0  0  0  0
    2.9211    1.3996    0.0357 C   0  0  0  0  0  0  0  0  0  0  0  0
    0.2522   -4.7223   -0.2569 C   0  0  0  0  0  0  0  0  0  0  0  0
   -4.2743    0.5453    0.2787 C   0  0  0  0  0  0  0  0  0  0  0  0
    1.4629    1.6559   -0.1355 C   0  0  0  0  0  0  0  0  0  0  0  0
    4.7724   -0.1454   -0.1123 C   0  0  0  0  0  0  0  0  0  0  0  0
    3.7832    2.4043    0.4833 C   0  0  0  0  0  0  0  0  0  0  0  0
   -4.8205    0.6505   -0.9816 C   0  0  0  0  0  0  0  0  0  0  0  0
    5.6357    0.8563    0.3346 C   0  0  0  0  0  0  0  0  0  0  0  0
    5.1422    2.1272    0.6313 C   0  0  0  0  0  0  0  0  0  0  0  0
   -5.5280    1.8747   -1.1575 C   0  0  0  0  0  0  0  0  0  0  0  0
   -5.4958    2.6582   -0.0250 C   0  0  0  0  0  0  0  0  0  0  0  0
    0.8039   -2.3237   -1.9816 H   0  0  0  0  0  0  0  0  0  0  0  0
   -0.5521   -1.1907   -1.8976 H   0  0  0  0  0  0  0  0  0  0  0  0
   -1.6058    0.0589    0.0043 H   0  0  0  0  0  0  0  0  0  0  0  0
   -2.4942   -1.1084   -0.9993 H   0  0  0  0  0  0  0  0  0  0  0  0
    1.7084   -3.1916    0.1419 H   0  0  0  0  0  0  0  0  0  0  0  0
    0.5529   -3.4543    1.4381 H   0  0  0  0  0  0  0  0  0  0  0  0
   -4.0871   -1.4847    0.8852 H   0  0  0  0  0  0  0  0  0  0  0  0
   -3.1761   -0.3729    1.8955 H   0  0  0  0  0  0  0  0  0  0  0  0
    2.8806   -1.7651   -0.9595 H   0  0  0  0  0  0  0  0  0  0  0  0
    0.8784   -5.5278    0.1391 H   0  0  0  0  0  0  0  0  0  0  0  0
    0.3613   -4.7102   -1.3462 H   0  0  0  0  0  0  0  0  0  0  0  0
   -0.7924   -4.9598   -0.0303 H   0  0  0  0  0  0  0  0  0  0  0  0
    5.1713   -1.1308   -0.3392 H   0  0  0  0  0  0  0  0  0  0  0  0
    3.4188    3.3997    0.7198 H   0  0  0  0  0  0  0  0  0  0  0  0
   -4.7239   -0.1115   -1.7444 H   0  0  0  0  0  0  0  0  0  0  0  0
    6.6949    0.6456    0.4519 H   0  0  0  0  0  0  0  0  0  0  0  0
    5.8186    2.9029    0.9788 H   0  0  0  0  0  0  0  0  0  0  0  0
   -6.0355    2.1654   -2.0680 H   0  0  0  0  0  0  0  0  0  0  0  0
   -5.9474    3.6298    0.1181 H   0  0  0  0  0  0  0  0  0  0  0  0
  1 16  1  0  0  0  0
  1 24  1  0  0  0  0
  2 10  2  0  0  0  0
  3 17  2  0  0  0  0
  4  7  1  0  0  0  0
  4  9  1  0  0  0  0
  4 10  1  0  0  0  0
  5 11  1  0  0  0  0
  5 13  1  0  0  0  0
  5 33  1  0  0  0  0
  6 11  2  0  0  0  0
  6 17  1  0  0  0  0
  7 11  1  0  0  0  0
  7 25  1  0  0  0  0
  7 26  1  0  0  0  0
  8 10  1  0  0  0  0
  8 12  1  0  0  0  0
  8 27  1  0  0  0  0
  8 28  1  0  0  0  0
  9 15  1  0  0  0  0
  9 29  1  0  0  0  0
  9 30  1  0  0  0  0
 12 16  1  0  0  0  0
 12 31  1  0  0  0  0
 12 32  1  0  0  0  0
 13 14  1  0  0  0  0
 13 18  2  0  0  0  0
 14 17  1  0  0  0  0
 14 19  2  0  0  0  0
 15 34  1  0  0  0  0
 15 35  1  0  0  0  0
 15 36  1  0  0  0  0
 16 20  2  0  0  0  0
 18 21  1  0  0  0  0
 18 37  1  0  0  0  0
 19 22  1  0  0  0  0
 19 38  1  0  0  0  0
 20 23  1  0  0  0  0
 20 39  1  0  0  0  0
 21 22  2  0  0  0  0
 21 40  1  0  0  0  0
 22 41  1  0  0  0  0
 23 24  2  0  0  0  0
 23 42  1  0  0  0  0
 24 43  1  0  0  0  0
M  END
> <PUBCHEM_COMPOUND_CID>
17395958

> <PUBCHEM_CONFORMER_RMSD>
1

> <PUBCHEM_CONFORMER_DIVERSEORDER>
1
15
118
84
113
136
171
316
51
287
71
78
33
217
253
105
249
153
94
88
184
237
191
48
317
142
138
120
89
189
176
276
277
143
202
59
232
182
263
35
227
123
150
281
178
58
117
245
251
183
216
280
213
14
177
87
261
72
13
90
44
114
165
197
218
214
167
146
260
98
241
101
192
252
83
194
262
93
299
42
97
247
291
308
193
292
77
285
315
269
312
314
151
57
103
306
62
9
222
215
296
7
121
180
46
233
80
258
190
107
320
122
60
199
3
154
201
82
41
246
135
95
319
311
156
290
185
236
234
244
75
61
265
303
63
134
8
141
196
168
309
24
198
301
17
169
124
26
275
224
240
298
68
282
254
205
133
160
293
130
200
69
170
259
81
267
27
65
225
264
162
207
255
256
212
226
147
289
272
79
11
104
243
140
23
284
175
279
164
318
271
300
30
86
128
106
238
206
132
155
47
29
223
161
210
313
297
228
49
229
5
273
195
288
235
203
230
211
257
126
220
50
112
2
239
188
152
209
242
310
73
34
52
119
307
19
25
186
22
74
302
111
139
266
12
174
66
96
286
28
127
102
173
204
110
304
270
108
221
45
54
305
208
67
163
137
10
250
268
21
43
92
181
125
283
179
53
20
187
37
278
231
158
4
64
145
248
18
166
40
116
36
38
31
159
56
172
16
6
144
55
219
148
157
131
99
274
100
39
76
109
32
85
70
294
115
149
91
129
295

> <PUBCHEM_MMFF94_PARTIAL_CHARGES>
31
1 -0.08
10 0.57
11 0.44
12 0.18
13 0.1
14 0.09
16 -0.14
17 0.69
18 -0.15
19 -0.15
2 -0.57
20 -0.15
21 -0.15
22 -0.15
23 -0.15
24 -0.11
3 -0.57
33 0.4
37 0.15
38 0.15
39 0.15
4 -0.66
40 0.15
41 0.15
42 0.15
43 0.15
5 -0.55
6 -0.66
7 0.36
8 0.06
9 0.3

> <PUBCHEM_EFFECTIVE_ROTOR_COUNT>
7

> <PUBCHEM_PHARMACOPHORE_FEATURES>
7
1 2 acceptor
1 3 acceptor
1 5 donor
1 6 donor
5 1 16 20 23 24 rings
6 13 14 18 19 21 22 rings
6 5 6 11 13 14 17 rings

> <PUBCHEM_HEAVY_ATOM_COUNT>
24

> <PUBCHEM_ATOM_DEF_STEREO_COUNT>
0

> <PUBCHEM_ATOM_UDEF_STEREO_COUNT>
0

> <PUBCHEM_BOND_DEF_STEREO_COUNT>
0

> <PUBCHEM_BOND_UDEF_STEREO_COUNT>
0

> <PUBCHEM_ISOTOPIC_ATOM_COUNT>
0

> <PUBCHEM_COMPONENT_COUNT>
1

> <PUBCHEM_CACTVS_TAUTO_COUNT>
3

> <PUBCHEM_CONFORMER_ID>
010970F600000001

> <PUBCHEM_MMFF94_ENERGY>
56.9757

> <PUBCHEM_FEATURE_SELFOVERLAP>
35.581

> <PUBCHEM_SHAPE_FINGERPRINT>
10411042 1 17401486447290556463
11370993 70 18410009927466005601
11763715 3 17045967634582248302
12107183 9 18341624707071507218
12422481 6 17489313030818598878
12596602 18 14692275241011502853
12769317 202 18337116773431679425
13103583 49 13973962134385398221
13402501 40 18412546522424818629
13590594 115 17400633222093182827
14251732 17 18411699885068862780
14251764 30 9223228555178230753
14251764 38 18337669694573375453
14466204 15 18411983567732909089
14790565 3 18411697660629887692
14848178 96 18408603686416979593
14932701 244 18264496096850576863
15238133 3 18201431459544113100
15420108 30 18338528503059260023
20511986 3 17605006969052141697
20567600 254 18131078147463329941
21033648 29 18262526887850452928
21279426 13 18335129913107668118
22950370 63 9799693718312340165
23559900 14 18260257565181979758
2838139 119 18259989288080587557
474 4 18408604794744972915
5104073 3 18129371769878435363
5385378 56 18339636871309767265
56616090 46 18413668006798695670
5895379 119 17174897961835716737
6328613 192 18340761543130984460
6371380 46 18410008854331057326
79837 15 18270955731331305347
9981440 41 18411979135801634699

> <PUBCHEM_SHAPE_MULTIPOLES>
471.08
12.56
4.46
1.09
4.74
4.72
0.04
-13.34
0.4
-0.02
0.58
0.93
0.12
1.06

> <PUBCHEM_SHAPE_SELFOVERLAP>
991.16

> <PUBCHEM_SHAPE_VOLUME>
266.2

> <PUBCHEM_COORDINATE_TYPE>
2
5
10

$$$$

