5281344
  -OEChem-07051212563D

 25 26  0     0  0  0  0  0  0999 V2000
   -0.3241   -2.0277   -0.1178 O   0  0  0  0  0  0  0  0  0  0  0  0
    0.9419    2.6508   -0.0252 O   0  0  0  0  0  0  0  0  0  0  0  0
   -1.5610    1.8596   -0.2083 O   0  0  0  0  0  0  0  0  0  0  0  0
    4.2392   -0.7569    0.2158 O   0  0  0  0  0  0  0  0  0  0  0  0
    0.2469    0.3323   -0.0762 C   0  0  0  0  0  0  0  0  0  0  0  0
   -2.1425   -0.4293   -0.2510 C   0  0  0  0  0  0  0  0  0  0  0  0
    0.6013   -1.0169   -0.0504 C   0  0  0  0  0  0  0  0  0  0  0  0
   -1.1781    0.6975   -0.1800 C   0  0  0  0  0  0  0  0  0  0  0  0
   -3.5994   -0.1186   -0.3580 C   0  0  0  0  0  0  0  0  0  0  0  0
    1.2323    1.3202   -0.0040 C   0  0  0  0  0  0  0  0  0  0  0  0
   -1.6471   -1.6727   -0.2149 C   0  0  0  0  0  0  0  0  0  0  0  0
    1.9432   -1.3854    0.0481 C   0  0  0  0  0  0  0  0  0  0  0  0
    2.5738    0.9488    0.0946 C   0  0  0  0  0  0  0  0  0  0  0  0
    2.9287   -0.4008    0.1207 C   0  0  0  0  0  0  0  0  0  0  0  0
   -4.2550   -0.0009    1.0066 C   0  0  0  0  0  0  0  0  0  0  0  0
   -3.7607    0.8019   -0.9310 H   0  0  0  0  0  0  0  0  0  0  0  0
   -4.1060   -0.9107   -0.9241 H   0  0  0  0  0  0  0  0  0  0  0  0
   -2.2639   -2.5610   -0.2591 H   0  0  0  0  0  0  0  0  0  0  0  0
    2.2151   -2.4378    0.0679 H   0  0  0  0  0  0  0  0  0  0  0  0
    3.3534    1.7050    0.1517 H   0  0  0  0  0  0  0  0  0  0  0  0
   -5.3221    0.2173    0.8950 H   0  0  0  0  0  0  0  0  0  0  0  0
   -3.8067    0.8066    1.5953 H   0  0  0  0  0  0  0  0  0  0  0  0
   -4.1606   -0.9313    1.5769 H   0  0  0  0  0  0  0  0  0  0  0  0
    1.7660    3.1636    0.0354 H   0  0  0  0  0  0  0  0  0  0  0  0
    4.3028   -1.7276    0.2203 H   0  0  0  0  0  0  0  0  0  0  0  0
  1  7  1  0  0  0  0
  1 11  1  0  0  0  0
  2 10  1  0  0  0  0
  2 24  1  0  0  0  0
  3  8  2  0  0  0  0
  4 14  1  0  0  0  0
  4 25  1  0  0  0  0
  5  7  1  0  0  0  0
  5  8  1  0  0  0  0
  5 10  2  0  0  0  0
  6  8  1  0  0  0  0
  6  9  1  0  0  0  0
  6 11  2  0  0  0  0
  7 12  2  0  0  0  0
  9 15  1  0  0  0  0
  9 16  1  0  0  0  0
  9 17  1  0  0  0  0
 10 13  1  0  0  0  0
 11 18  1  0  0  0  0
 12 14  1  0  0  0  0
 12 19  1  0  0  0  0
 13 14  2  0  0  0  0
 13 20  1  0  0  0  0
 15 21  1  0  0  0  0
 15 22  1  0  0  0  0
 15 23  1  0  0  0  0
M  END
> <PUBCHEM_COMPOUND_CID>
5281344

> <PUBCHEM_CONFORMER_RMSD>
0.4

> <PUBCHEM_CONFORMER_DIVERSEORDER>
2
1
4
3

> <PUBCHEM_MMFF94_PARTIAL_CHARGES>
19
1 -0.16
10 0.08
11 -0.07
12 -0.15
13 -0.15
14 0.08
18 0.15
19 0.15
2 -0.53
20 0.15
24 0.45
25 0.45
3 -0.57
4 -0.53
5 0.09
6 -0.12
7 0.08
8 0.47
9 0.14

> <PUBCHEM_EFFECTIVE_ROTOR_COUNT>
1

> <PUBCHEM_PHARMACOPHORE_FEATURES>
7
1 1 acceptor
1 15 hydrophobe
1 2 donor
1 3 acceptor
1 4 donor
6 1 5 6 7 8 11 rings
6 5 7 10 12 13 14 rings

> <PUBCHEM_HEAVY_ATOM_COUNT>
15

> <PUBCHEM_ATOM_DEF_STEREO_COUNT>
0

> <PUBCHEM_ATOM_UDEF_STEREO_COUNT>
0

> <PUBCHEM_BOND_DEF_STEREO_COUNT>
0

> <PUBCHEM_BOND_UDEF_STEREO_COUNT>
0

> <PUBCHEM_ISOTOPIC_ATOM_COUNT>
0

> <PUBCHEM_COMPONENT_COUNT>
1

> <PUBCHEM_CACTVS_TAUTO_COUNT>
12

> <PUBCHEM_CONFORMER_ID>
0050964000000002

> <PUBCHEM_MMFF94_ENERGY>
34.6335

> <PUBCHEM_FEATURE_SELFOVERLAP>
35.548

> <PUBCHEM_SHAPE_FINGERPRINT>
10130415 120 18413394224140093194
10967382 1 18410857650587902094
11132069 177 18335712627952037098
11471102 20 18411424990282704149
11471102 22 18270945887418431603
12032990 46 18339076094372608990
12251169 10 18408317779160386171
13140716 1 18266741277127556979
13221675 6 18411702084139844431
13380535 21 18125713491906253333
13897977 150 18266182725442160117
14144814 61 18409449189235826531
15196674 1 18410576141309559727
15209294 21 17749665307044164897
15309172 13 18408319999616507475
15375462 189 18202289125541972538
15536298 74 18261395490538094272
15775835 57 18338229358459778564
16945 1 18411426093783460958
17844478 74 17989768899738761093
18186145 218 18333730200166156853
18511873 20 18260829271945788147
18522853 295 18411129238618592670
193761 8 17906455428678173974
200 152 18041856072892952333
20510252 161 18188212121052657552
20511035 2 18120933902075675102
21029758 27 18273206512962843364
21267235 1 18410567401014461918
21501502 16 18193277386205995575
2334 1 17906736903681238927
23402539 116 18261123996722546975
23463225 33 18412547638894119726
23493267 7 17346328136865463077
23552423 10 18054232033503142894
23559900 14 18262512573674098732
2748010 2 18121504823430349599
3071541 12 18194118508660061940
5104073 3 18337675208889228771
528886 8 18409455756088081675
53655031 270 18408602591052294795
53812653 166 18335144163455669746
7364860 26 18263365781105410560
8809292 202 18201435844088725619

> <PUBCHEM_SHAPE_MULTIPOLES>
285.22
6.07
2.05
0.69
1.58
0.58
-0.07
-0.69
-1.12
-0.49
0.11
0.36
-0.01
-0.1

> <PUBCHEM_SHAPE_SELFOVERLAP>
621.297

> <PUBCHEM_SHAPE_VOLUME>
155.1

> <PUBCHEM_COORDINATE_TYPE>
2
5
10

$$$$

