39223
  -OEChem-07051213132D

 35 35  0     0  0  0  0  0  0999 V2000
    7.0772   -1.9200    0.0000 Cl  0  0  0  0  0  0  0  0  0  0  0  0
    5.5496    0.6559    0.0000 S   0  0  0  0  0  0  0  0  0  0  0  0
    4.6361    1.0627    0.0000 P   0  0  0  0  0  0  0  0  0  0  0  0
    4.2294    0.1491    0.0000 O   0  0  0  0  0  0  0  0  0  0  0  0
    5.0428    1.9762    0.0000 O   0  0  0  0  0  0  0  0  0  0  0  0
    3.7226    1.4694    0.0000 O   0  0  0  0  0  0  0  0  0  0  0  0
    5.3172   -2.1988    0.0000 N   0  0  0  0  0  0  0  0  0  0  0  0
    4.5081   -1.6110    0.0000 N   0  0  0  0  0  0  0  0  0  0  0  0
    5.8172   -0.6599    0.0000 N   0  0  0  0  0  0  0  0  0  0  0  0
    5.3172   -3.1988    0.0000 C   0  0  0  0  0  0  0  0  0  0  0  0
    4.4511   -3.6988    0.0000 C   0  0  0  0  0  0  0  0  0  0  0  0
    6.1832   -3.6988    0.0000 C   0  0  0  0  0  0  0  0  0  0  0  0
    6.1262   -1.6110    0.0000 C   0  0  0  0  0  0  0  0  0  0  0  0
    4.8172   -0.6599    0.0000 C   0  0  0  0  0  0  0  0  0  0  0  0
    4.4551    2.7852    0.0000 C   0  0  0  0  0  0  0  0  0  0  0  0
    2.9136    0.8816    0.0000 C   0  0  0  0  0  0  0  0  0  0  0  0
    4.8618    3.6988    0.0000 C   0  0  0  0  0  0  0  0  0  0  0  0
    2.0000    1.2883    0.0000 C   0  0  0  0  0  0  0  0  0  0  0  0
    4.7802   -2.8888    0.0000 H   0  0  0  0  0  0  0  0  0  0  0  0
    5.8732   -4.2357    0.0000 H   0  0  0  0  0  0  0  0  0  0  0  0
    6.7201   -4.0088    0.0000 H   0  0  0  0  0  0  0  0  0  0  0  0
    6.4932   -3.1618    0.0000 H   0  0  0  0  0  0  0  0  0  0  0  0
    4.1411   -3.1618    0.0000 H   0  0  0  0  0  0  0  0  0  0  0  0
    3.9142   -4.0088    0.0000 H   0  0  0  0  0  0  0  0  0  0  0  0
    4.7611   -4.2357    0.0000 H   0  0  0  0  0  0  0  0  0  0  0  0
    3.9411    3.1319    0.0000 H   0  0  0  0  0  0  0  0  0  0  0  0
    4.0244    2.3392    0.0000 H   0  0  0  0  0  0  0  0  0  0  0  0
    2.5668    0.3676    0.0000 H   0  0  0  0  0  0  0  0  0  0  0  0
    3.3595    0.4509    0.0000 H   0  0  0  0  0  0  0  0  0  0  0  0
    5.4282    3.4466    0.0000 H   0  0  0  0  0  0  0  0  0  0  0  0
    5.1140    4.2652    0.0000 H   0  0  0  0  0  0  0  0  0  0  0  0
    4.2954    3.9509    0.0000 H   0  0  0  0  0  0  0  0  0  0  0  0
    2.2522    1.8547    0.0000 H   0  0  0  0  0  0  0  0  0  0  0  0
    1.4336    1.5405    0.0000 H   0  0  0  0  0  0  0  0  0  0  0  0
    1.7478    0.7219    0.0000 H   0  0  0  0  0  0  0  0  0  0  0  0
  1 13  1  0  0  0  0
  2  3  2  0  0  0  0
  3  4  1  0  0  0  0
  3  5  1  0  0  0  0
  3  6  1  0  0  0  0
  4 14  1  0  0  0  0
  5 15  1  0  0  0  0
  6 16  1  0  0  0  0
  7  8  1  0  0  0  0
  7 10  1  0  0  0  0
  7 13  1  0  0  0  0
  8 14  2  0  0  0  0
  9 13  2  0  0  0  0
  9 14  1  0  0  0  0
 10 11  1  0  0  0  0
 10 12  1  0  0  0  0
 10 19  1  0  0  0  0
 11 23  1  0  0  0  0
 11 24  1  0  0  0  0
 11 25  1  0  0  0  0
 12 20  1  0  0  0  0
 12 21  1  0  0  0  0
 12 22  1  0  0  0  0
 15 17  1  0  0  0  0
 15 26  1  0  0  0  0
 15 27  1  0  0  0  0
 16 18  1  0  0  0  0
 16 28  1  0  0  0  0
 16 29  1  0  0  0  0
 17 30  1  0  0  0  0
 17 31  1  0  0  0  0
 17 32  1  0  0  0  0
 18 33  1  0  0  0  0
 18 34  1  0  0  0  0
 18 35  1  0  0  0  0
M  END
> <PUBCHEM_COMPOUND_CID>
39223

> <PUBCHEM_COMPOUND_CANONICALIZED>
1

> <PUBCHEM_CACTVS_COMPLEXITY>
301

> <PUBCHEM_CACTVS_HBOND_ACCEPTOR>
6

> <PUBCHEM_CACTVS_HBOND_DONOR>
0

> <PUBCHEM_CACTVS_ROTATABLE_BOND>
7

> <PUBCHEM_CACTVS_SUBSKEYS>
AAADceBzMAJEAAAAAAAAAAAAAAAAAWAAAAAAAAAAAAAAAAABgAAAHgIIACAACCjhgAYDEAYIERAiAAAAJAAQAAsAgIAVQAAIAACACAAACAAAAAAIAAIAAAAAAAAAAAAAAAAAAAAAAAAAAAAAAAAAAAAAAA==

> <PUBCHEM_IUPAC_OPENEYE_NAME>
(5-chloro-1-isopropyl-1,2,4-triazol-3-yl)oxy-diethoxy-thioxo-$l^{5}-phosphane

> <PUBCHEM_IUPAC_CAS_NAME>
(5-chloro-1-propan-2-yl-1,2,4-triazol-3-yl)oxy-diethoxy-sulfanylidenephosphorane

> <PUBCHEM_IUPAC_NAME>
(5-chloro-1-propan-2-yl-1,2,4-triazol-3-yl)oxy-diethoxy-sulfanylidene-$l^{5}-phosphane

> <PUBCHEM_IUPAC_SYSTEMATIC_NAME>
(5-chloranyl-1-propan-2-yl-1,2,4-triazol-3-yl)oxy-diethoxy-sulfanylidene-$l^{5}-phosphane

> <PUBCHEM_IUPAC_TRADITIONAL_NAME>
(5-chloro-1-isopropyl-1,2,4-triazol-3-yl)oxy-diethoxy-thioxo-phosphorane

> <PUBCHEM_IUPAC_INCHI>
InChI=1S/C9H17ClN3O3PS/c1-5-14-17(18,15-6-2)16-9-11-8(10)13(12-9)7(3)4/h7H,5-6H2,1-4H3

> <PUBCHEM_IUPAC_INCHIKEY>
XRHGWAGWAHHFLF-UHFFFAOYSA-N

> <PUBCHEM_XLOGP3_AA>
3.9

> <PUBCHEM_EXACT_MASS>
313.041677

> <PUBCHEM_MOLECULAR_FORMULA>
C9H17ClN3O3PS

> <PUBCHEM_MOLECULAR_WEIGHT>
313.741342

> <PUBCHEM_OPENEYE_CAN_SMILES>
CCOP(=S)(OCC)OC1=NN(C(=N1)Cl)C(C)C

> <PUBCHEM_OPENEYE_ISO_SMILES>
CCOP(=S)(OCC)OC1=NN(C(=N1)Cl)C(C)C

> <PUBCHEM_CACTVS_TPSA>
90.5

> <PUBCHEM_MONOISOTOPIC_WEIGHT>
313.041677

> <PUBCHEM_TOTAL_CHARGE>
0

> <PUBCHEM_HEAVY_ATOM_COUNT>
18

> <PUBCHEM_ATOM_DEF_STEREO_COUNT>
0

> <PUBCHEM_ATOM_UDEF_STEREO_COUNT>
0

> <PUBCHEM_BOND_DEF_STEREO_COUNT>
0

> <PUBCHEM_BOND_UDEF_STEREO_COUNT>
0

> <PUBCHEM_ISOTOPIC_ATOM_COUNT>
0

> <PUBCHEM_COMPONENT_COUNT>
1

> <PUBCHEM_CACTVS_TAUTO_COUNT>
1

> <PUBCHEM_COORDINATE_TYPE>
1
5
255

> <PUBCHEM_BONDANNOTATIONS>
7  13  8
7  8  8
8  14  8
9  13  8
9  14  8

$$$$

