9543288
  -OEChem-07051213112D

 28 32  0     1  0  0  0  0  0999 V2000
    2.9178    3.1279    0.0000 O   0  0  0  0  0  0  0  0  0  0  0  0
    2.0769   -2.5081    0.0000 O   0  0  0  0  0  0  0  0  0  0  0  0
    2.9180    2.1274    0.0000 C   0  0  3  0  0  0  0  0  0  0  0  0
    3.7841    2.6274    0.0000 C   0  0  3  0  0  0  0  0  0  0  0  0
    2.9180    1.1274    0.0000 C   0  0  0  0  0  0  0  0  0  0  0  0
    3.7841    0.6274    0.0000 C   0  0  0  0  0  0  0  0  0  0  0  0
    4.6501    2.1274    0.0000 C   0  0  0  0  0  0  0  0  0  0  0  0
    4.6501    1.1274    0.0000 C   0  0  0  0  0  0  0  0  0  0  0  0
    3.8001   -0.4141    0.0000 C   0  0  0  0  0  0  0  0  0  0  0  0
    2.0080    0.6206    0.0000 C   0  0  0  0  0  0  0  0  0  0  0  0
    2.9021   -0.9418    0.0000 C   0  0  0  0  0  0  0  0  0  0  0  0
    4.6772   -0.8768    0.0000 C   0  0  0  0  0  0  0  0  0  0  0  0
    5.5095    0.6327    0.0000 C   0  0  0  0  0  0  0  0  0  0  0  0
    2.0000   -0.4210    0.0000 C   0  0  0  0  0  0  0  0  0  0  0  0
    5.5230   -0.3590    0.0000 C   0  0  0  0  0  0  0  0  0  0  0  0
    2.9282   -1.9833    0.0000 C   0  0  0  0  0  0  0  0  0  0  0  0
    4.7274   -1.9174    0.0000 C   0  0  0  0  0  0  0  0  0  0  0  0
    3.8470   -2.4744    0.0000 C   0  0  0  0  0  0  0  0  0  0  0  0
    2.2980    2.1274    0.0000 H   0  0  0  0  0  0  0  0  0  0  0  0
    4.0941    3.1643    0.0000 H   0  0  0  0  0  0  0  0  0  0  0  0
    5.1870    2.4374    0.0000 H   0  0  0  0  0  0  0  0  0  0  0  0
    1.4747    0.9368    0.0000 H   0  0  0  0  0  0  0  0  0  0  0  0
    6.0442    0.9466    0.0000 H   0  0  0  0  0  0  0  0  0  0  0  0
    1.4619   -0.7289    0.0000 H   0  0  0  0  0  0  0  0  0  0  0  0
    6.0659   -0.6583    0.0000 H   0  0  0  0  0  0  0  0  0  0  0  0
    5.2775   -2.2034    0.0000 H   0  0  0  0  0  0  0  0  0  0  0  0
    3.8696   -3.0940    0.0000 H   0  0  0  0  0  0  0  0  0  0  0  0
    2.0948   -3.1279    0.0000 H   0  0  0  0  0  0  0  0  0  0  0  0
  1  3  1  0  0  0  0
  1  4  1  0  0  0  0
  2 16  1  0  0  0  0
  2 28  1  0  0  0  0
  3  4  1  0  0  0  0
  3  5  1  0  0  0  0
  3 19  1  0  0  0  0
  4  7  1  0  0  0  0
  4 20  1  0  0  0  0
  5  6  2  0  0  0  0
  5 10  1  0  0  0  0
  6  8  1  0  0  0  0
  6  9  1  0  0  0  0
  7  8  2  0  0  0  0
  7 21  1  0  0  0  0
  8 13  1  0  0  0  0
  9 11  1  0  0  0  0
  9 12  2  0  0  0  0
 10 14  2  0  0  0  0
 10 22  1  0  0  0  0
 11 14  1  0  0  0  0
 11 16  2  0  0  0  0
 12 15  1  0  0  0  0
 12 17  1  0  0  0  0
 13 15  2  0  0  0  0
 13 23  1  0  0  0  0
 14 24  1  0  0  0  0
 15 25  1  0  0  0  0
 16 18  1  0  0  0  0
 17 18  2  0  0  0  0
 17 26  1  0  0  0  0
 18 27  1  0  0  0  0
M  END
> <PUBCHEM_COMPOUND_CID>
9543288

> <PUBCHEM_COMPOUND_CANONICALIZED>
1

> <PUBCHEM_CACTVS_COMPLEXITY>
452

> <PUBCHEM_CACTVS_HBOND_ACCEPTOR>
2

> <PUBCHEM_CACTVS_HBOND_DONOR>
1

> <PUBCHEM_CACTVS_ROTATABLE_BOND>
0

> <PUBCHEM_CACTVS_SUBSKEYS>
AAADccB4MAAAAAAAAAAAAAAAEgAAAAAAAAAwYIEABAAAAADBUAAAGgAACAAADBSgmAIwBsAABgCAAiBCAAACAAAgIAAIiAAGCIgIJiKCMRqCcAAkwBEIuAeAwPAO4AADAAAYAADAAAYAADAAAAAAAAAAAA==

> <PUBCHEM_IUPAC_INCHI>
InChI=1S/C16H10O2/c17-12-6-3-8-1-2-9-7-13-16(18-13)11-5-4-10(12)14(8)15(9)11/h1-7,13,16-17H

> <PUBCHEM_IUPAC_INCHIKEY>
MCPCTMSTXTVYSJ-UHFFFAOYSA-N

> <PUBCHEM_XLOGP3_AA>
2.7

> <PUBCHEM_EXACT_MASS>
234.06808

> <PUBCHEM_MOLECULAR_FORMULA>
C16H10O2

> <PUBCHEM_MOLECULAR_WEIGHT>
234.2494

> <PUBCHEM_OPENEYE_CAN_SMILES>
C1=CC2=CC3C(O3)C4=C2C5=C1C=CC(=C5C=C4)O

> <PUBCHEM_OPENEYE_ISO_SMILES>
C1=CC2=CC3C(O3)C4=C2C5=C1C=CC(=C5C=C4)O

> <PUBCHEM_CACTVS_TPSA>
32.8

> <PUBCHEM_MONOISOTOPIC_WEIGHT>
234.06808

> <PUBCHEM_TOTAL_CHARGE>
0

> <PUBCHEM_HEAVY_ATOM_COUNT>
18

> <PUBCHEM_ATOM_DEF_STEREO_COUNT>
0

> <PUBCHEM_ATOM_UDEF_STEREO_COUNT>
2

> <PUBCHEM_BOND_DEF_STEREO_COUNT>
0

> <PUBCHEM_BOND_UDEF_STEREO_COUNT>
0

> <PUBCHEM_ISOTOPIC_ATOM_COUNT>
0

> <PUBCHEM_COMPONENT_COUNT>
1

> <PUBCHEM_CACTVS_TAUTO_COUNT>
3

> <PUBCHEM_COORDINATE_TYPE>
1
5
255

> <PUBCHEM_BONDANNOTATIONS>
3  1  3
10  14  8
11  14  8
11  16  8
12  15  8
12  17  8
13  15  8
16  18  8
17  18  8
4  7  3
5  10  8
5  6  8
6  8  8
6  9  8
8  13  8
9  11  8
9  12  8

$$$$

