441047
  -OEChem-07051212513D

 57 59  0     0  0  0  0  0  0999 V2000
   -4.4713   -2.3483    1.5999 Cl  0  0  0  0  0  0  0  0  0  0  0  0
   -3.5355    2.6613   -0.2959 Cl  0  0  0  0  0  0  0  0  0  0  0  0
   -2.7987    0.0184    0.8829 O   0  0  0  0  0  0  0  0  0  0  0  0
    4.5925   -2.9270   -0.2374 O   0  0  0  0  0  0  0  0  0  0  0  0
   -9.0555   -0.4292    0.1410 O   0  0  0  0  0  0  0  0  0  0  0  0
    7.8155   -0.3092    0.9455 O   0  0  0  0  0  0  0  0  0  0  0  0
    9.4564    1.3003    0.2762 O   0  0  0  0  0  0  0  0  0  0  0  0
   10.3875    3.9151   -0.0788 O   0  0  0  0  0  0  0  0  0  0  0  0
    5.9336   -2.7670    0.0899 N   0  0  0  0  0  0  0  0  0  0  0  0
   -8.8582    1.6941   -0.6836 N   0  0  0  0  0  0  0  0  0  0  0  0
    0.3558   -1.1875   -0.7636 C   0  0  0  0  0  0  0  0  0  0  0  0
    1.8133   -1.2154   -0.2998 C   0  0  0  0  0  0  0  0  0  0  0  0
   -0.5569   -0.5959    0.3083 C   0  0  0  0  0  0  0  0  0  0  0  0
    2.7229   -1.8392   -1.3621 C   0  0  0  0  0  0  0  0  0  0  0  0
   -2.0030   -0.5249   -0.1613 C   0  0  0  0  0  0  0  0  0  0  0  0
    4.1659   -1.8368   -0.9248 C   0  0  0  0  0  0  0  0  0  0  0  0
    5.1980   -0.9471   -1.0648 C   0  0  0  0  0  0  0  0  0  0  0  0
    6.2730   -1.5774   -0.4148 C   0  0  0  0  0  0  0  0  0  0  0  0
   -4.1364    0.1714    0.6256 C   0  0  0  0  0  0  0  0  0  0  0  0
   -6.8588    0.4815    0.1014 C   0  0  0  0  0  0  0  0  0  0  0  0
    7.6474   -1.0772   -0.2515 C   0  0  0  0  0  0  0  0  0  0  0  0
   -5.0248   -0.8642    0.9152 C   0  0  0  0  0  0  0  0  0  0  0  0
   -4.6092    1.3620    0.0738 C   0  0  0  0  0  0  0  0  0  0  0  0
   -8.2934    0.6447   -0.1757 C   0  0  0  0  0  0  0  0  0  0  0  0
   -6.3860   -0.7092    0.6531 C   0  0  0  0  0  0  0  0  0  0  0  0
   -5.9704    1.5171   -0.1883 C   0  0  0  0  0  0  0  0  0  0  0  0
  -10.3327   -0.1312   -0.4006 C   0  0  0  0  0  0  0  0  0  0  0  0
  -10.2851    1.3540   -0.6729 C   0  0  0  0  0  0  0  0  0  0  0  0
    9.1497    0.1662    1.0870 C   0  0  0  0  0  0  0  0  0  0  0  0
    8.6397    2.4212    0.5880 C   0  0  0  0  0  0  0  0  0  0  0  0
    9.0250    3.5796   -0.3118 C   0  0  0  0  0  0  0  0  0  0  0  0
    0.0260   -2.2055   -1.0043 H   0  0  0  0  0  0  0  0  0  0  0  0
    0.2764   -0.5956   -1.6835 H   0  0  0  0  0  0  0  0  0  0  0  0
    2.1476   -0.1942   -0.0768 H   0  0  0  0  0  0  0  0  0  0  0  0
    1.8939   -1.7850    0.6347 H   0  0  0  0  0  0  0  0  0  0  0  0
   -0.5009   -1.1939    1.2265 H   0  0  0  0  0  0  0  0  0  0  0  0
   -0.2171    0.4103    0.5840 H   0  0  0  0  0  0  0  0  0  0  0  0
    2.4103   -2.8697   -1.5689 H   0  0  0  0  0  0  0  0  0  0  0  0
    2.6384   -1.2817   -2.3027 H   0  0  0  0  0  0  0  0  0  0  0  0
   -2.3599   -1.5284   -0.4209 H   0  0  0  0  0  0  0  0  0  0  0  0
   -2.0739    0.1053   -1.0556 H   0  0  0  0  0  0  0  0  0  0  0  0
    5.1740    0.0118   -1.5611 H   0  0  0  0  0  0  0  0  0  0  0  0
    7.9120   -0.4508   -1.1127 H   0  0  0  0  0  0  0  0  0  0  0  0
    8.3483   -1.9217   -0.2340 H   0  0  0  0  0  0  0  0  0  0  0  0
   -7.0623   -1.5281    0.8862 H   0  0  0  0  0  0  0  0  0  0  0  0
   -6.3317    2.4482   -0.6187 H   0  0  0  0  0  0  0  0  0  0  0  0
  -11.1197   -0.3961    0.3114 H   0  0  0  0  0  0  0  0  0  0  0  0
  -10.4720   -0.7137   -1.3174 H   0  0  0  0  0  0  0  0  0  0  0  0
  -10.7650    1.6039   -1.6239 H   0  0  0  0  0  0  0  0  0  0  0  0
  -10.7866    1.9185    0.1210 H   0  0  0  0  0  0  0  0  0  0  0  0
    9.8691   -0.6283    0.8583 H   0  0  0  0  0  0  0  0  0  0  0  0
    9.2997    0.4354    2.1386 H   0  0  0  0  0  0  0  0  0  0  0  0
    8.8006    2.6961    1.6366 H   0  0  0  0  0  0  0  0  0  0  0  0
    7.5835    2.1760    0.4343 H   0  0  0  0  0  0  0  0  0  0  0  0
    8.9244    3.3001   -1.3653 H   0  0  0  0  0  0  0  0  0  0  0  0
    8.4041    4.4560   -0.1045 H   0  0  0  0  0  0  0  0  0  0  0  0
   10.6029    4.6577   -0.6686 H   0  0  0  0  0  0  0  0  0  0  0  0
  1 22  1  0  0  0  0
  2 23  1  0  0  0  0
  3 15  1  0  0  0  0
  3 19  1  0  0  0  0
  4  9  1  0  0  0  0
  4 16  1  0  0  0  0
  5 24  1  0  0  0  0
  5 27  1  0  0  0  0
  6 21  1  0  0  0  0
  6 29  1  0  0  0  0
  7 29  1  0  0  0  0
  7 30  1  0  0  0  0
  8 31  1  0  0  0  0
  8 57  1  0  0  0  0
  9 18  2  0  0  0  0
 10 24  2  0  0  0  0
 10 28  1  0  0  0  0
 11 12  1  0  0  0  0
 11 13  1  0  0  0  0
 11 32  1  0  0  0  0
 11 33  1  0  0  0  0
 12 14  1  0  0  0  0
 12 34  1  0  0  0  0
 12 35  1  0  0  0  0
 13 15  1  0  0  0  0
 13 36  1  0  0  0  0
 13 37  1  0  0  0  0
 14 16  1  0  0  0  0
 14 38  1  0  0  0  0
 14 39  1  0  0  0  0
 15 40  1  0  0  0  0
 15 41  1  0  0  0  0
 16 17  2  0  0  0  0
 17 18  1  0  0  0  0
 17 42  1  0  0  0  0
 18 21  1  0  0  0  0
 19 22  2  0  0  0  0
 19 23  1  0  0  0  0
 20 24  1  0  0  0  0
 20 25  2  0  0  0  0
 20 26  1  0  0  0  0
 21 43  1  0  0  0  0
 21 44  1  0  0  0  0
 22 25  1  0  0  0  0
 23 26  2  0  0  0  0
 25 45  1  0  0  0  0
 26 46  1  0  0  0  0
 27 28  1  0  0  0  0
 27 47  1  0  0  0  0
 27 48  1  0  0  0  0
 28 49  1  0  0  0  0
 28 50  1  0  0  0  0
 29 51  1  0  0  0  0
 29 52  1  0  0  0  0
 30 31  1  0  0  0  0
 30 53  1  0  0  0  0
 30 54  1  0  0  0  0
 31 55  1  0  0  0  0
 31 56  1  0  0  0  0
M  END
> <PUBCHEM_COMPOUND_CID>
441047

> <PUBCHEM_CONFORMER_RMSD>
1.2

> <PUBCHEM_CONFORMER_DIVERSEORDER>
1
49
46
17
35
42
31
13
11
43
40
16
5
20
39
12
32
9
34
48
47
21
15
29
25
38
4
8
19
27
2
41
23
30
33
7
10
6
26
45
28
3
37
36
24
14
50
22
18
44

> <PUBCHEM_MMFF94_PARTIAL_CHARGES>
32
1 -0.18
10 -0.7
14 0.18
15 0.28
16 -0.04
17 -0.15
18 0.11
19 0.08
2 -0.18
20 0.09
21 0.46
22 0.18
23 0.18
24 0.51
25 -0.15
26 -0.15
27 0.28
28 0.25
29 0.56
3 -0.36
30 0.28
31 0.28
4 -0.02
42 0.15
45 0.15
46 0.15
5 -0.43
57 0.4
6 -0.56
7 -0.56
8 -0.68
9 -0.41

> <PUBCHEM_EFFECTIVE_ROTOR_COUNT>
14.6

> <PUBCHEM_PHARMACOPHORE_FEATURES>
10
1 3 acceptor
1 6 acceptor
1 7 acceptor
1 8 acceptor
1 8 donor
1 9 acceptor
4 11 12 13 14 hydrophobe
5 4 9 16 17 18 rings
5 5 10 24 27 28 rings
6 19 20 22 23 25 26 rings

> <PUBCHEM_HEAVY_ATOM_COUNT>
31

> <PUBCHEM_ATOM_DEF_STEREO_COUNT>
0

> <PUBCHEM_ATOM_UDEF_STEREO_COUNT>
0

> <PUBCHEM_BOND_DEF_STEREO_COUNT>
0

> <PUBCHEM_BOND_UDEF_STEREO_COUNT>
0

> <PUBCHEM_ISOTOPIC_ATOM_COUNT>
0

> <PUBCHEM_COMPONENT_COUNT>
1

> <PUBCHEM_CACTVS_TAUTO_COUNT>
1

> <PUBCHEM_CONFORMER_ID>
0006BAD700000001

> <PUBCHEM_MMFF94_ENERGY>
60.9138

> <PUBCHEM_FEATURE_SELFOVERLAP>
50.78

> <PUBCHEM_SHAPE_FINGERPRINT>
10 15 18334859437505759606
10168742 298 6411016491021133528
10209105 3 9799701389155624846
10391435 84 18202278100271408651
10533779 1 18114751409662890928
10674148 151 18338795724394659305
11315181 36 18041276652135797667
12089408 11 16732980977016158051
12758862 11 18411694405118348963
12838862 33 17561368400823525095
14142895 15 18259988167215299814
14201967 126 18268145354896577436
14216079 64 11240001162073653074
14344974 52 18410013222196479887
14359421 15 7204230517024838268
14617042 71 18334855000962662008
15065858 18 18272651273109013223
15219723 13 9511462243725927693
15604295 49 18341054098922897797
15807756 48 8574441911136376868
15840311 113 18409444796560456070
16728433 110 18410291428623846637
17686467 74 18343016701650805641
20105231 36 8430311342787726533
21362267 2 18338248106367572660
21792934 111 17917992785267969172
23559900 14 18342735201125675001
437795 160 17560794403902872331
4403749 210 18336543815910053126
44575985 358 18200867371962955212
4874694 18 18273213127181662347
54583773 228 18113902615579341423
6201320 215 14476694056910798463
67123 10 18187648033244171335
9937071 3 9799691489899664308

> <PUBCHEM_SHAPE_MULTIPOLES>
596.53
43.72
3.41
1.06
24.62
2.43
0.09
28.79
0.89
10.38
-0.2
0.17
-0.4
2.75

> <PUBCHEM_SHAPE_SELFOVERLAP>
1217.052

> <PUBCHEM_SHAPE_VOLUME>
347.1

> <PUBCHEM_COORDINATE_TYPE>
2
5
10

$$$$

