11782294
  -OEChem-07051212492D

 42 44  0     1  0  0  0  0  0999 V2000
    5.3128   -0.5000    0.0000 O   0  0  0  0  0  0  0  0  0  0  0  0
    3.5807    0.5000    0.0000 O   0  0  0  0  0  0  0  0  0  0  0  0
    3.6377   -1.5878    0.0000 O   0  0  0  0  0  0  0  0  0  0  0  0
    3.6377    1.5878    0.0000 O   0  0  0  0  0  0  0  0  0  0  0  0
    6.2068   -1.2788    0.0000 O   0  0  0  0  0  0  0  0  0  0  0  0
    6.2068    1.2788    0.0000 O   0  0  0  0  0  0  0  0  0  0  0  0
    5.5345   -3.3479    0.0000 O   0  0  0  0  0  0  0  0  0  0  0  0
    5.5345    3.3479    0.0000 O   0  0  0  0  0  0  0  0  0  0  0  0
    2.3644   -3.2433    0.0000 O   0  0  0  0  0  0  0  0  0  0  0  0
    2.3644    3.2433    0.0000 O   0  0  0  0  0  0  0  0  0  0  0  0
    4.4467   -1.0000    0.0000 C   0  0  2  0  0  0  0  0  0  0  0  0
    4.4467    1.0000    0.0000 C   0  0  1  0  0  0  0  0  0  0  0  0
    5.2558   -1.5878    0.0000 C   0  0  2  0  0  0  0  0  0  0  0  0
    5.2558    1.5878    0.0000 C   0  0  2  0  0  0  0  0  0  0  0  0
    3.5807   -0.5000    0.0000 C   0  0  0  0  0  0  0  0  0  0  0  0
    5.3128    0.5000    0.0000 C   0  0  0  0  0  0  0  0  0  0  0  0
    4.9467   -2.5388    0.0000 C   0  0  1  0  0  0  0  0  0  0  0  0
    4.9467    2.5388    0.0000 C   0  0  1  0  0  0  0  0  0  0  0  0
    3.9467   -2.5388    0.0000 C   0  0  1  0  0  0  0  0  0  0  0  0
    3.9467    2.5388    0.0000 C   0  0  1  0  0  0  0  0  0  0  0  0
    3.3590   -3.3479    0.0000 C   0  0  0  0  0  0  0  0  0  0  0  0
    3.3590    3.3479    0.0000 C   0  0  0  0  0  0  0  0  0  0  0  0
    5.3527   -0.9754    0.0000 H   0  0  0  0  0  0  0  0  0  0  0  0
    5.3527    0.9754    0.0000 H   0  0  0  0  0  0  0  0  0  0  0  0
    2.9701   -0.3923    0.0000 H   0  0  0  0  0  0  0  0  0  0  0  0
    3.3687   -1.0826    0.0000 H   0  0  0  0  0  0  0  0  0  0  0  0
    5.9233    0.3923    0.0000 H   0  0  0  0  0  0  0  0  0  0  0  0
    5.5248    1.0826    0.0000 H   0  0  0  0  0  0  0  0  0  0  0  0
    4.6653   -3.0913    0.0000 H   0  0  0  0  0  0  0  0  0  0  0  0
    4.6653    3.0913    0.0000 H   0  0  0  0  0  0  0  0  0  0  0  0
    3.3344   -2.4418    0.0000 H   0  0  0  0  0  0  0  0  0  0  0  0
    3.3344    2.4418    0.0000 H   0  0  0  0  0  0  0  0  0  0  0  0
    3.1880   -3.9438    0.0000 H   0  0  0  0  0  0  0  0  0  0  0  0
    3.9162   -3.6196    0.0000 H   0  0  0  0  0  0  0  0  0  0  0  0
    3.9162    3.6196    0.0000 H   0  0  0  0  0  0  0  0  0  0  0  0
    3.1880    3.9438    0.0000 H   0  0  0  0  0  0  0  0  0  0  0  0
    6.6676   -1.6936    0.0000 H   0  0  0  0  0  0  0  0  0  0  0  0
    6.6676    1.6936    0.0000 H   0  0  0  0  0  0  0  0  0  0  0  0
    5.2823   -3.9143    0.0000 H   0  0  0  0  0  0  0  0  0  0  0  0
    5.2823    3.9143    0.0000 H   0  0  0  0  0  0  0  0  0  0  0  0
    2.0000   -3.7449    0.0000 H   0  0  0  0  0  0  0  0  0  0  0  0
    2.0000    3.7449    0.0000 H   0  0  0  0  0  0  0  0  0  0  0  0
 11  1  1  1  0  0  0
  1 16  1  0  0  0  0
 12  2  1  1  0  0  0
  2 15  1  0  0  0  0
  3 11  1  0  0  0  0
  3 19  1  0  0  0  0
  4 12  1  0  0  0  0
  4 20  1  0  0  0  0
 13  5  1  1  0  0  0
  5 37  1  0  0  0  0
 14  6  1  6  0  0  0
  6 38  1  0  0  0  0
 17  7  1  6  0  0  0
  7 39  1  0  0  0  0
 18  8  1  1  0  0  0
  8 40  1  0  0  0  0
  9 21  1  0  0  0  0
  9 41  1  0  0  0  0
 10 22  1  0  0  0  0
 10 42  1  0  0  0  0
 11 13  1  0  0  0  0
 11 15  1  0  0  0  0
 12 14  1  0  0  0  0
 12 16  1  0  0  0  0
 13 17  1  0  0  0  0
 13 23  1  0  0  0  0
 14 18  1  0  0  0  0
 14 24  1  0  0  0  0
 15 25  1  0  0  0  0
 15 26  1  0  0  0  0
 16 27  1  0  0  0  0
 16 28  1  0  0  0  0
 17 19  1  0  0  0  0
 17 29  1  0  0  0  0
 18 20  1  0  0  0  0
 18 30  1  0  0  0  0
 19 21  1  1  0  0  0
 19 31  1  0  0  0  0
 20 22  1  6  0  0  0
 20 32  1  0  0  0  0
 21 33  1  0  0  0  0
 21 34  1  0  0  0  0
 22 35  1  0  0  0  0
 22 36  1  0  0  0  0
M  END
> <PUBCHEM_COMPOUND_CID>
11782294

> <PUBCHEM_COMPOUND_CANONICALIZED>
1

> <PUBCHEM_CACTVS_COMPLEXITY>
383

> <PUBCHEM_CACTVS_HBOND_ACCEPTOR>
10

> <PUBCHEM_CACTVS_HBOND_DONOR>
6

> <PUBCHEM_CACTVS_ROTATABLE_BOND>
2

> <PUBCHEM_CACTVS_SUBSKEYS>
AAADceBwPAAAAAAAAAAAAAAAAAAAASJAAAAkAAAAAAAAAAAAAAAAGgAACAAACBSggAIACAAABgAAAAAAAAAAAAAAAAAAAAAAAAAREAIAAAAiQAAFAAAHAAHAYAwAAAAAAAAAAAAAAAAAAAAAAAAAAAAAAA==

> <PUBCHEM_IUPAC_OPENEYE_NAME>
(1S,2S,3R,5R,8S,9S,10S,11R)-3,11-bis(hydroxymethyl)-4,7,12,14-tetraoxadispiro[4.2.4^{8}.2^{5}]tetradecane-1,2,9,10-tetrol

> <PUBCHEM_IUPAC_CAS_NAME>
(1S,2S,3R,5R,8S,9S,10S,11R)-3,11-bis(hydroxymethyl)-4,7,12,14-tetraoxadispiro[4.2.4^{8}.2^{5}]tetradecane-1,2,9,10-tetrol

> <PUBCHEM_IUPAC_NAME>
(1S,2S,3R,5R,8S,9S,10S,11R)-3,11-bis(hydroxymethyl)-4,7,12,14-tetraoxadispiro[4.2.4^{8}.2^{5}]tetradecane-1,2,9,10-tetrol

> <PUBCHEM_IUPAC_SYSTEMATIC_NAME>
(1S,2S,3R,5R,8S,9S,10S,11R)-3,11-bis(hydroxymethyl)-4,7,12,14-tetraoxadispiro[4.2.4^{8}.2^{5}]tetradecane-1,2,9,10-tetrol

> <PUBCHEM_IUPAC_TRADITIONAL_NAME>
(1S,2S,3R,5R,8S,9S,10S,11R)-3,11-dimethylol-4,7,12,14-tetraoxadispiro[4.2.4^{8}.2^{5}]tetradecane-1,2,9,10-tetrol

> <PUBCHEM_IUPAC_INCHI>
InChI=1S/C12H20O10/c13-1-5-7(15)9(17)11(21-5)3-20-12(4-19-11)10(18)8(16)6(2-14)22-12/h5-10,13-18H,1-4H2/t5-,6-,7-,8-,9+,10+,11-,12+/m1/s1

> <PUBCHEM_IUPAC_INCHIKEY>
DKOQIDXJOZQKIG-IYDDCBTQSA-N

> <PUBCHEM_XLOGP3_AA>
-3.7

> <PUBCHEM_EXACT_MASS>
324.105647

> <PUBCHEM_MOLECULAR_FORMULA>
C12H20O10

> <PUBCHEM_MOLECULAR_WEIGHT>
324.2812

> <PUBCHEM_OPENEYE_CAN_SMILES>
C1C2(C(C(C(O2)CO)O)O)OCC3(O1)C(C(C(O3)CO)O)O

> <PUBCHEM_OPENEYE_ISO_SMILES>
C1[C@@]2([C@H]([C@@H]([C@H](O2)CO)O)O)OC[C@@]3(O1)[C@H]([C@@H]([C@H](O3)CO)O)O

> <PUBCHEM_CACTVS_TPSA>
158

> <PUBCHEM_MONOISOTOPIC_WEIGHT>
324.105647

> <PUBCHEM_TOTAL_CHARGE>
0

> <PUBCHEM_HEAVY_ATOM_COUNT>
22

> <PUBCHEM_ATOM_DEF_STEREO_COUNT>
8

> <PUBCHEM_ATOM_UDEF_STEREO_COUNT>
0

> <PUBCHEM_BOND_DEF_STEREO_COUNT>
0

> <PUBCHEM_BOND_UDEF_STEREO_COUNT>
0

> <PUBCHEM_ISOTOPIC_ATOM_COUNT>
0

> <PUBCHEM_COMPONENT_COUNT>
1

> <PUBCHEM_CACTVS_TAUTO_COUNT>
1

> <PUBCHEM_COORDINATE_TYPE>
1
5
255

> <PUBCHEM_BONDANNOTATIONS>
11  1  5
19  21  5
12  2  5
20  22  6
13  5  5
14  6  6
17  7  6
18  8  5

$$$$

