441777
  -OEChem-07051212563D

 38 40  0     0  0  0  0  0  0999 V2000
    0.5076   -0.5125    0.3101 O   0  3  0  0  0  0  0  0  0  0  0  0
   -0.8318    2.9129   -0.0890 O   0  0  0  0  0  0  0  0  0  0  0  0
    4.9925   -2.1915    0.1406 O   0  0  0  0  0  0  0  0  0  0  0  0
    4.2451    2.4403   -0.6455 O   0  0  0  0  0  0  0  0  0  0  0  0
   -4.6709   -0.6490   -1.6620 O   0  0  0  0  0  0  0  0  0  0  0  0
   -5.8156   -0.4989    0.8666 O   0  0  0  0  0  0  0  0  0  0  0  0
    2.3618    1.0113   -0.1724 C   0  0  0  0  0  0  0  0  0  0  0  0
    1.8811   -0.2688    0.1218 C   0  0  0  0  0  0  0  0  0  0  0  0
   -0.3198    0.4884    0.1928 C   0  0  0  0  0  0  0  0  0  0  0  0
   -1.7679    0.2275    0.3666 C   0  0  0  0  0  0  0  0  0  0  0  0
    0.0991    1.8998   -0.0802 C   0  0  0  0  0  0  0  0  0  0  0  0
    1.4093    2.1126   -0.2578 C   0  0  0  0  0  0  0  0  0  0  0  0
    3.7329    1.2091   -0.3603 C   0  0  0  0  0  0  0  0  0  0  0  0
    2.7640   -1.3441    0.2270 C   0  0  0  0  0  0  0  0  0  0  0  0
    4.1304   -1.1433    0.0385 C   0  0  0  0  0  0  0  0  0  0  0  0
   -2.5476   -0.0914   -0.7394 C   0  0  0  0  0  0  0  0  0  0  0  0
    4.6141    0.1315   -0.2554 C   0  0  0  0  0  0  0  0  0  0  0  0
   -2.3334    0.3043    1.6343 C   0  0  0  0  0  0  0  0  0  0  0  0
   -3.9109   -0.3370   -0.5755 C   0  0  0  0  0  0  0  0  0  0  0  0
   -3.6966    0.0588    1.7984 C   0  0  0  0  0  0  0  0  0  0  0  0
   -4.4853   -0.2618    0.6935 C   0  0  0  0  0  0  0  0  0  0  0  0
    4.4302   -3.4675    0.4428 C   0  0  0  0  0  0  0  0  0  0  0  0
   -4.7884   -2.0307   -1.9956 C   0  0  0  0  0  0  0  0  0  0  0  0
    1.7529    3.1261   -0.4254 H   0  0  0  0  0  0  0  0  0  0  0  0
    2.3203   -2.3068    0.4557 H   0  0  0  0  0  0  0  0  0  0  0  0
   -2.1013   -0.1499   -1.7290 H   0  0  0  0  0  0  0  0  0  0  0  0
    5.6805    0.2855   -0.4017 H   0  0  0  0  0  0  0  0  0  0  0  0
   -1.7261    0.5530    2.5005 H   0  0  0  0  0  0  0  0  0  0  0  0
   -4.1312    0.1207    2.7925 H   0  0  0  0  0  0  0  0  0  0  0  0
   -1.7152    2.5528    0.0823 H   0  0  0  0  0  0  0  0  0  0  0  0
    3.5763    2.9939   -1.0773 H   0  0  0  0  0  0  0  0  0  0  0  0
    3.7551   -3.8076   -0.3498 H   0  0  0  0  0  0  0  0  0  0  0  0
    3.9505   -3.4731    1.4274 H   0  0  0  0  0  0  0  0  0  0  0  0
    5.2577   -4.1832    0.4865 H   0  0  0  0  0  0  0  0  0  0  0  0
   -6.0344   -0.4028    1.8094 H   0  0  0  0  0  0  0  0  0  0  0  0
   -5.2467   -2.5885   -1.1728 H   0  0  0  0  0  0  0  0  0  0  0  0
   -3.8067   -2.4520   -2.2346 H   0  0  0  0  0  0  0  0  0  0  0  0
   -5.4299   -2.1171   -2.8768 H   0  0  0  0  0  0  0  0  0  0  0  0
  1  8  1  0  0  0  0
  1  9  2  0  0  0  0
  2 11  1  0  0  0  0
  2 30  1  0  0  0  0
  3 15  1  0  0  0  0
  3 22  1  0  0  0  0
  4 13  1  0  0  0  0
  4 31  1  0  0  0  0
  5 19  1  0  0  0  0
  5 23  1  0  0  0  0
  6 21  1  0  0  0  0
  6 35  1  0  0  0  0
  7  8  1  0  0  0  0
  7 12  1  0  0  0  0
  7 13  2  0  0  0  0
  8 14  2  0  0  0  0
  9 10  1  0  0  0  0
  9 11  1  0  0  0  0
 10 16  2  0  0  0  0
 10 18  1  0  0  0  0
 11 12  2  0  0  0  0
 12 24  1  0  0  0  0
 13 17  1  0  0  0  0
 14 15  1  0  0  0  0
 14 25  1  0  0  0  0
 15 17  2  0  0  0  0
 16 19  1  0  0  0  0
 16 26  1  0  0  0  0
 17 27  1  0  0  0  0
 18 20  2  0  0  0  0
 18 28  1  0  0  0  0
 19 21  2  0  0  0  0
 20 21  1  0  0  0  0
 20 29  1  0  0  0  0
 22 32  1  0  0  0  0
 22 33  1  0  0  0  0
 22 34  1  0  0  0  0
 23 36  1  0  0  0  0
 23 37  1  0  0  0  0
 23 38  1  0  0  0  0
M  CHG  1   1   1
M  END
> <PUBCHEM_COMPOUND_CID>
441777

> <PUBCHEM_CONFORMER_RMSD>
0.6

> <PUBCHEM_CONFORMER_DIVERSEORDER>
3
5
1
4
2

> <PUBCHEM_MMFF94_PARTIAL_CHARGES>
32
1 -0.87
10 0.09
11 0.09
12 -0.18
13 0.08
14 -0.15
15 0.08
16 -0.15
17 -0.15
18 -0.15
19 0.08
2 -0.53
20 -0.15
21 0.08
22 0.28
23 0.28
24 0.15
25 0.15
26 0.15
27 0.15
28 0.15
29 0.15
3 -0.36
30 0.45
31 0.45
35 0.45
4 -0.53
5 -0.36
6 -0.53
7 0.03
8 0.92
9 0.85

> <PUBCHEM_EFFECTIVE_ROTOR_COUNT>
3

> <PUBCHEM_PHARMACOPHORE_FEATURES>
8
1 2 donor
1 3 acceptor
1 4 donor
1 5 acceptor
1 6 donor
6 1 7 8 9 11 12 rings
6 10 16 18 19 20 21 rings
6 7 8 13 14 15 17 rings

> <PUBCHEM_HEAVY_ATOM_COUNT>
23

> <PUBCHEM_ATOM_DEF_STEREO_COUNT>
0

> <PUBCHEM_ATOM_UDEF_STEREO_COUNT>
0

> <PUBCHEM_BOND_DEF_STEREO_COUNT>
0

> <PUBCHEM_BOND_UDEF_STEREO_COUNT>
0

> <PUBCHEM_ISOTOPIC_ATOM_COUNT>
0

> <PUBCHEM_COMPONENT_COUNT>
1

> <PUBCHEM_CACTVS_TAUTO_COUNT>
61

> <PUBCHEM_CONFORMER_ID>
0006BDB100000003

> <PUBCHEM_MMFF94_ENERGY>
92.9303

> <PUBCHEM_FEATURE_SELFOVERLAP>
40.624

> <PUBCHEM_SHAPE_FINGERPRINT>
10498660 4 15195019244951942207
10622 236 18042428866638084567
10912923 1 17967247576943774155
11089746 13 12103553174802107566
12107183 9 17975963586027348305
12236239 1 18040989623328399801
12596602 18 17240767246565542114
12616971 3 18334290985450942059
12633257 1 16732697259886645249
12839892 36 17313106379699190095
13134695 92 18411696552317335117
13140716 1 18050281467298931224
13533116 47 18408600357495253890
13540713 5 18197478831449422796
13544653 18 18343297089278006556
13760787 5 18411135822893076125
13782708 43 17202750519987005947
13911987 19 17984691217645846124
13955234 65 18410855422259765040
14386348 63 17632571617980016825
14576447 43 18189342268491927015
15188451 53 16805901627652322047
15196674 1 18341608256582099328
15250474 111 18186810149180453687
15342816 4 18186796955230207308
15537594 2 18335695027250028326
15788980 27 18410576197381440061
17349148 13 18113615673030180327
17357779 13 18060706082648621085
17492 89 18268147750653910594
17857418 61 18187651314045271446
1813 80 18336811091634277436
18186145 218 17060335240642306793
18222031 100 18336555996673804562
18681886 176 16371281109516644552
200 152 18410855468976747849
20028762 73 18260556653619949646
20281475 54 18260270749934726992
20645477 70 18202562873925109122
21033648 29 17632024057058194133
21065201 7 15841549652236398825
21267235 1 18339912801599814466
21728266 224 17385449804322063895
221490 88 18271802488765677928
22224240 67 18262248703857862528
22393880 68 17274825761439222571
23175994 123 17846208952240110093
23402539 116 18411417353762319107
23557571 272 14996822391241583505
23559900 14 16845575335660619938
23569914 152 17263603239802517167
25147074 1 18265877216182415088
2871803 45 17988640830841831032
312423 11 18269260417676531536
314194 84 18408885113821904970
345986 75 18114742754385190112
34797466 226 16271633512498024407
46194498 28 16916214452234818453
5104073 3 18265899245253949128
5281201 14 17489583463408030820
573450 72 17530679922678486171
602551 16 15792015528160503893
7064713 232 17240483649506131143
7164475 11 18340487867551061172
7970288 3 18340206418059726970
9709674 26 18272646887598848264

> <PUBCHEM_SHAPE_MULTIPOLES>
438.11
12.29
2.7
1.29
3.64
0.56
-0.05
6.97
-1.07
-3.86
-0.39
2.36
0.4
-1.98

> <PUBCHEM_SHAPE_SELFOVERLAP>
963.247

> <PUBCHEM_SHAPE_VOLUME>
235.6

> <PUBCHEM_COORDINATE_TYPE>
2
5
10

$$$$

