11831
  -OEChem-07051213003D

 25 27  0     0  0  0  0  0  0999 V2000
    4.6192    0.8795    0.0004 O   0  5  0  0  0  0  0  0  0  0  0  0
    4.3068   -1.2934    0.0004 O   0  0  0  0  0  0  0  0  0  0  0  0
    3.8618   -0.1205    0.0002 N   0  3  0  0  0  0  0  0  0  0  0  0
   -0.8872   -1.7995   -0.0002 C   0  0  0  0  0  0  0  0  0  0  0  0
    0.2362   -0.7838   -0.0006 C   0  0  0  0  0  0  0  0  0  0  0  0
   -0.2847    0.5297   -0.0007 C   0  0  0  0  0  0  0  0  0  0  0  0
   -2.1105   -0.9069   -0.0004 C   0  0  0  0  0  0  0  0  0  0  0  0
   -1.7299    0.4539   -0.0007 C   0  0  0  0  0  0  0  0  0  0  0  0
    1.5995   -1.0210   -0.0003 C   0  0  0  0  0  0  0  0  0  0  0  0
    0.5648    1.6234   -0.0004 C   0  0  0  0  0  0  0  0  0  0  0  0
   -3.4416   -1.2853    0.0004 C   0  0  0  0  0  0  0  0  0  0  0  0
   -2.6892    1.4528   -0.0002 C   0  0  0  0  0  0  0  0  0  0  0  0
    2.4556    0.0817    0.0002 C   0  0  0  0  0  0  0  0  0  0  0  0
    1.9436    1.3907    0.0004 C   0  0  0  0  0  0  0  0  0  0  0  0
   -4.4084   -0.2783    0.0009 C   0  0  0  0  0  0  0  0  0  0  0  0
   -4.0360    1.0771    0.0005 C   0  0  0  0  0  0  0  0  0  0  0  0
   -0.8549   -2.4125    0.9052 H   0  0  0  0  0  0  0  0  0  0  0  0
   -0.8551   -2.4131   -0.9052 H   0  0  0  0  0  0  0  0  0  0  0  0
    1.9605   -2.0445   -0.0002 H   0  0  0  0  0  0  0  0  0  0  0  0
    0.1840    2.6393   -0.0003 H   0  0  0  0  0  0  0  0  0  0  0  0
   -3.7304   -2.3304    0.0008 H   0  0  0  0  0  0  0  0  0  0  0  0
   -2.4173    2.5030   -0.0002 H   0  0  0  0  0  0  0  0  0  0  0  0
    2.5994    2.2586    0.0008 H   0  0  0  0  0  0  0  0  0  0  0  0
   -5.4623   -0.5435    0.0015 H   0  0  0  0  0  0  0  0  0  0  0  0
   -4.8073    1.8430    0.0010 H   0  0  0  0  0  0  0  0  0  0  0  0
  1  3  1  0  0  0  0
  2  3  2  0  0  0  0
  3 13  1  0  0  0  0
  4  5  1  0  0  0  0
  4  7  1  0  0  0  0
  4 17  1  0  0  0  0
  4 18  1  0  0  0  0
  5  6  2  0  0  0  0
  5  9  1  0  0  0  0
  6  8  1  0  0  0  0
  6 10  1  0  0  0  0
  7  8  1  0  0  0  0
  7 11  2  0  0  0  0
  8 12  2  0  0  0  0
  9 13  2  0  0  0  0
  9 19  1  0  0  0  0
 10 14  2  0  0  0  0
 10 20  1  0  0  0  0
 11 15  1  0  0  0  0
 11 21  1  0  0  0  0
 12 16  1  0  0  0  0
 12 22  1  0  0  0  0
 13 14  1  0  0  0  0
 14 23  1  0  0  0  0
 15 16  2  0  0  0  0
 15 24  1  0  0  0  0
 16 25  1  0  0  0  0
M  CHG  2   1  -1   3   1
M  END
> <PUBCHEM_COMPOUND_CID>
11831

> <PUBCHEM_CONFORMER_RMSD>
0.6

> <PUBCHEM_CONFORMER_DIVERSEORDER>
1

> <PUBCHEM_MMFF94_PARTIAL_CHARGES>
21
1 -0.52
10 -0.15
11 -0.15
12 -0.15
13 0.13
14 -0.15
15 -0.15
16 -0.15
19 0.15
2 -0.52
20 0.15
21 0.15
22 0.15
23 0.15
24 0.15
25 0.15
3 0.91
4 0.29
5 -0.14
7 -0.14
9 -0.15

> <PUBCHEM_EFFECTIVE_ROTOR_COUNT>
1.2

> <PUBCHEM_PHARMACOPHORE_FEATURES>
6
1 1 acceptor
1 1 anion
1 2 acceptor
5 4 5 6 7 8 rings
6 5 6 9 10 13 14 rings
6 7 8 11 12 15 16 rings

> <PUBCHEM_HEAVY_ATOM_COUNT>
16

> <PUBCHEM_ATOM_DEF_STEREO_COUNT>
0

> <PUBCHEM_ATOM_UDEF_STEREO_COUNT>
0

> <PUBCHEM_BOND_DEF_STEREO_COUNT>
0

> <PUBCHEM_BOND_UDEF_STEREO_COUNT>
0

> <PUBCHEM_ISOTOPIC_ATOM_COUNT>
0

> <PUBCHEM_COMPONENT_COUNT>
1

> <PUBCHEM_CACTVS_TAUTO_COUNT>
1

> <PUBCHEM_CONFORMER_ID>
00002E3700000001

> <PUBCHEM_MMFF94_ENERGY>
56.6673

> <PUBCHEM_FEATURE_SELFOVERLAP>
30.692

> <PUBCHEM_SHAPE_FINGERPRINT>
10062212 137 18408893940143332367
10608611 8 18409733928493605865
10967382 1 18410575131949969159
11132069 177 18410578391793243121
11401426 45 18408609149287975077
11471102 20 18410578383266540636
12032990 46 18410570686637751274
13221675 6 18412827975456635571
13288520 33 18408882966770689198
13380535 76 18410009944593237591
13675066 3 18334577914809135474
13690532 89 18411138051801650674
13862211 1 18410862078683795138
14115302 16 18060409197302573158
14144814 61 18411702092882493643
14325111 11 18410856542818837377
14943859 89 18412545418237752747
15196674 1 18410855468739208388
15219456 202 18114737239262254583
15442244 35 18410855473176808400
15536298 74 18334859381364885408
16945 1 18338517413690350983
17802600 8 18410296891458328205
17804303 29 18409164394196836829
18186145 218 17846786195348482527
18522853 276 18407759226947598793
200 152 17967538956658388277
20510252 161 18260546757576676633
20645477 70 18114459058947628662
21029758 11 18334017176911947929
21267235 1 18411128126538697331
21501502 16 18266456508095494453
221490 88 18197491831618556587
23402539 116 18260274048997196309
23402655 69 18263091049591182957
23463225 33 18413108372348932740
23559900 14 18334015004243584280
2748010 2 18411139100322407629
335352 9 18338799038626888093
4214541 1 18410575101874836961
474 4 16915653675746365348
5104073 3 18410575084684191896
53812653 166 18408606971760713673
54173680 148 18124593085658766923
69090 78 18260270724402560087
7364860 26 18191868920728264360
77779 3 18411417302059213472
8809292 202 18272084955510673099
9709674 26 18409161091304137582
9981440 41 17189816753608024672

> <PUBCHEM_SHAPE_MULTIPOLES>
312.55
8.16
1.75
0.6
3.06
0.01
0
-0.05
0
-0.25
0
-0.08
0
0

> <PUBCHEM_SHAPE_SELFOVERLAP>
703.334

> <PUBCHEM_SHAPE_VOLUME>
167.3

> <PUBCHEM_COORDINATE_TYPE>
2
5
10

$$$$

