31233
  -OEChem-07051213053D

 26 26  0     0  0  0  0  0  0999 V2000
    0.8035   -0.6963   -0.6372 O   0  0  0  0  0  0  0  0  0  0  0  0
   -4.4410    0.5373    0.5259 O   0  0  0  0  0  0  0  0  0  0  0  0
    3.1002   -0.3547   -0.0525 C   0  0  0  0  0  0  0  0  0  0  0  0
    4.1863    0.6734    0.2515 C   0  0  0  0  0  0  0  0  0  0  0  0
    1.7715    0.3116   -0.3799 C   0  0  0  0  0  0  0  0  0  0  0  0
    5.5002    0.0032    0.6201 C   0  0  0  0  0  0  0  0  0  0  0  0
   -0.5008   -0.3898   -0.3477 C   0  0  0  0  0  0  0  0  0  0  0  0
   -0.9335    0.9281   -0.4385 C   0  0  0  0  0  0  0  0  0  0  0  0
   -1.3766   -1.3996    0.0337 C   0  0  0  0  0  0  0  0  0  0  0  0
   -2.2606    1.2406   -0.1436 C   0  0  0  0  0  0  0  0  0  0  0  0
   -2.7037   -1.0870    0.3284 C   0  0  0  0  0  0  0  0  0  0  0  0
   -3.1456    0.2331    0.2398 C   0  0  0  0  0  0  0  0  0  0  0  0
    3.4048   -0.9931   -0.8912 H   0  0  0  0  0  0  0  0  0  0  0  0
    2.9659   -1.0285    0.8033 H   0  0  0  0  0  0  0  0  0  0  0  0
    3.8696    1.3177    1.0799 H   0  0  0  0  0  0  0  0  0  0  0  0
    4.3422    1.3190   -0.6205 H   0  0  0  0  0  0  0  0  0  0  0  0
    1.4893    0.9345    0.4790 H   0  0  0  0  0  0  0  0  0  0  0  0
    1.8777    0.9436   -1.2692 H   0  0  0  0  0  0  0  0  0  0  0  0
    5.3851   -0.6232    1.5105 H   0  0  0  0  0  0  0  0  0  0  0  0
    5.8626   -0.6264   -0.1989 H   0  0  0  0  0  0  0  0  0  0  0  0
    6.2641    0.7578    0.8322 H   0  0  0  0  0  0  0  0  0  0  0  0
   -0.2849    1.7369   -0.7606 H   0  0  0  0  0  0  0  0  0  0  0  0
   -1.0361   -2.4287    0.1040 H   0  0  0  0  0  0  0  0  0  0  0  0
   -2.6011    2.2696   -0.2207 H   0  0  0  0  0  0  0  0  0  0  0  0
   -3.3833   -1.8812    0.6256 H   0  0  0  0  0  0  0  0  0  0  0  0
   -4.9094   -0.2789    0.7720 H   0  0  0  0  0  0  0  0  0  0  0  0
  1  5  1  0  0  0  0
  1  7  1  0  0  0  0
  2 12  1  0  0  0  0
  2 26  1  0  0  0  0
  3  4  1  0  0  0  0
  3  5  1  0  0  0  0
  3 13  1  0  0  0  0
  3 14  1  0  0  0  0
  4  6  1  0  0  0  0
  4 15  1  0  0  0  0
  4 16  1  0  0  0  0
  5 17  1  0  0  0  0
  5 18  1  0  0  0  0
  6 19  1  0  0  0  0
  6 20  1  0  0  0  0
  6 21  1  0  0  0  0
  7  8  2  0  0  0  0
  7  9  1  0  0  0  0
  8 10  1  0  0  0  0
  8 22  1  0  0  0  0
  9 11  2  0  0  0  0
  9 23  1  0  0  0  0
 10 12  2  0  0  0  0
 10 24  1  0  0  0  0
 11 12  1  0  0  0  0
 11 25  1  0  0  0  0
M  END
> <PUBCHEM_COMPOUND_CID>
31233

> <PUBCHEM_CONFORMER_RMSD>
0.6

> <PUBCHEM_CONFORMER_DIVERSEORDER>
1
12
15
13
19
5
11
4
14
9
22
3
21
16
2
20
8
6
17
10
18
7

> <PUBCHEM_MMFF94_PARTIAL_CHARGES>
14
1 -0.36
10 -0.15
11 -0.15
12 0.08
2 -0.53
22 0.15
23 0.15
24 0.15
25 0.15
26 0.45
5 0.28
7 0.08
8 -0.15
9 -0.15

> <PUBCHEM_EFFECTIVE_ROTOR_COUNT>
4

> <PUBCHEM_PHARMACOPHORE_FEATURES>
4
1 1 acceptor
1 2 donor
1 6 hydrophobe
6 7 8 9 10 11 12 rings

> <PUBCHEM_HEAVY_ATOM_COUNT>
12

> <PUBCHEM_ATOM_DEF_STEREO_COUNT>
0

> <PUBCHEM_ATOM_UDEF_STEREO_COUNT>
0

> <PUBCHEM_BOND_DEF_STEREO_COUNT>
0

> <PUBCHEM_BOND_UDEF_STEREO_COUNT>
0

> <PUBCHEM_ISOTOPIC_ATOM_COUNT>
0

> <PUBCHEM_COMPONENT_COUNT>
1

> <PUBCHEM_CACTVS_TAUTO_COUNT>
2

> <PUBCHEM_CONFORMER_ID>
00007A0100000001

> <PUBCHEM_MMFF94_ENERGY>
27.2245

> <PUBCHEM_FEATURE_SELFOVERLAP>
20.297

> <PUBCHEM_SHAPE_FINGERPRINT>
11132069 177 18410567392561294301
11401426 45 18411984667893071597
114248 4 9151172056657136906
12119455 92 17603870013445142662
12251169 10 18343863312138828316
13214271 11 18187366510774549975
13897977 58 18341889650318200988
15219456 202 18187357779116859638
17846911 113 18334574655008182857
187816 3 6988317227305250061
19050596 39 18273214162705558340
20279233 1 18040990744024746278
20645464 45 18187078451460065103
20645477 56 18261110772829348772
20645477 70 16660916794693149014
20828058 44 18343022177454351362
20871999 31 8142093035114295483
22485316 2 12319736956052589248
22926399 37 15719392828132572954
23402539 116 18409738352536306701
23403322 49 11455901269076638792
42 15 18202284714947909410
449060 50 18410012139621862028

> <PUBCHEM_SHAPE_MULTIPOLES>
235.22
9.38
1.21
0.74
10.65
0.09
0
-1.09
-2.75
-0.81
0.02
0.09
0
0.06

> <PUBCHEM_SHAPE_SELFOVERLAP>
471.885

> <PUBCHEM_SHAPE_VOLUME>
139.8

> <PUBCHEM_COORDINATE_TYPE>
2
5
10

$$$$

