3082376
  -OEChem-07051212462D

 23 22  0     1  0  0  0  0  0999 V2000
    3.4030   -0.2500    0.0000 S   0  0  0  0  0  0  0  0  0  0  0  0
    2.5369   -0.7500    0.0000 O   0  0  0  0  0  0  0  0  0  0  0  0
    2.9030    0.6160    0.0000 O   0  0  0  0  0  0  0  0  0  0  0  0
    3.9030   -1.1160    0.0000 O   0  0  0  0  0  0  0  0  0  0  0  0
    8.5991   -0.2500    0.0000 O   0  0  0  0  0  0  0  0  0  0  0  0
    7.7331    1.2500    0.0000 O   0  0  0  0  0  0  0  0  0  0  0  0
    6.0010    0.2500    0.0000 N   0  0  0  0  0  0  0  0  0  0  0  0
    5.1350   -0.2500    0.0000 C   0  0  0  0  0  0  0  0  0  0  0  0
    4.2690    0.2500    0.0000 C   0  0  0  0  0  0  0  0  0  0  0  0
    6.8671   -0.2500    0.0000 C   0  0  2  0  0  0  0  0  0  0  0  0
    6.8671   -1.2500    0.0000 C   0  0  0  0  0  0  0  0  0  0  0  0
    7.7331    0.2500    0.0000 C   0  0  0  0  0  0  0  0  0  0  0  0
    4.7365   -0.7249    0.0000 H   0  0  0  0  0  0  0  0  0  0  0  0
    5.5335   -0.7249    0.0000 H   0  0  0  0  0  0  0  0  0  0  0  0
    4.6675    0.7249    0.0000 H   0  0  0  0  0  0  0  0  0  0  0  0
    3.8705    0.7249    0.0000 H   0  0  0  0  0  0  0  0  0  0  0  0
    6.3301   -0.5600    0.0000 H   0  0  0  0  0  0  0  0  0  0  0  0
    6.0010    0.8700    0.0000 H   0  0  0  0  0  0  0  0  0  0  0  0
    6.2471   -1.2500    0.0000 H   0  0  0  0  0  0  0  0  0  0  0  0
    6.8671   -1.8700    0.0000 H   0  0  0  0  0  0  0  0  0  0  0  0
    7.4871   -1.2500    0.0000 H   0  0  0  0  0  0  0  0  0  0  0  0
    2.0000   -0.4400    0.0000 H   0  0  0  0  0  0  0  0  0  0  0  0
    9.1360    0.0600    0.0000 H   0  0  0  0  0  0  0  0  0  0  0  0
  1  2  1  0  0  0  0
  1  3  2  0  0  0  0
  1  4  2  0  0  0  0
  1  9  1  0  0  0  0
  2 22  1  0  0  0  0
  5 12  1  0  0  0  0
  5 23  1  0  0  0  0
  6 12  2  0  0  0  0
  7  8  1  0  0  0  0
 10  7  1  1  0  0  0
  7 18  1  0  0  0  0
  8  9  1  0  0  0  0
  8 13  1  0  0  0  0
  8 14  1  0  0  0  0
  9 15  1  0  0  0  0
  9 16  1  0  0  0  0
 10 11  1  0  0  0  0
 10 12  1  0  0  0  0
 10 17  1  0  0  0  0
 11 19  1  0  0  0  0
 11 20  1  0  0  0  0
 11 21  1  0  0  0  0
M  END
> <PUBCHEM_COMPOUND_CID>
3082376

> <PUBCHEM_COMPOUND_CANONICALIZED>
1

> <PUBCHEM_CACTVS_COMPLEXITY>
241

> <PUBCHEM_CACTVS_HBOND_ACCEPTOR>
6

> <PUBCHEM_CACTVS_HBOND_DONOR>
3

> <PUBCHEM_CACTVS_ROTATABLE_BOND>
5

> <PUBCHEM_CACTVS_SUBSKEYS>
AAADccBiOABAAAAAAAAAAAAAAAAAAAAAAAAAAAAAAAAAAAAAAAAAHgQQCAAACCjFwASCCALAAoIIAACQCHBAAAAAAAAAAIGIAAACAAAAACAAQAAAEACQAAAAAAAAAAAAAAAAAAAAAAAAAAAAAAAAAAAAAA==

> <PUBCHEM_IUPAC_OPENEYE_NAME>
(2R)-2-(2-sulfoethylamino)propanoic acid

> <PUBCHEM_IUPAC_CAS_NAME>
(2R)-2-(2-sulfoethylamino)propanoic acid

> <PUBCHEM_IUPAC_NAME>
(2R)-2-(2-sulfoethylamino)propanoic acid

> <PUBCHEM_IUPAC_SYSTEMATIC_NAME>
(2R)-2-(2-sulfoethylamino)propanoic acid

> <PUBCHEM_IUPAC_TRADITIONAL_NAME>
(2R)-2-(2-sulfoethylamino)propionic acid

> <PUBCHEM_IUPAC_INCHI>
InChI=1S/C5H11NO5S/c1-4(5(7)8)6-2-3-12(9,10)11/h4,6H,2-3H2,1H3,(H,7,8)(H,9,10,11)/t4-/m1/s1

> <PUBCHEM_IUPAC_INCHIKEY>
VHYQDLYSULDZSO-SCSAIBSYSA-N

> <PUBCHEM_XLOGP3_AA>
-3.6

> <PUBCHEM_EXACT_MASS>
197.035793

> <PUBCHEM_MOLECULAR_FORMULA>
C5H11NO5S

> <PUBCHEM_MOLECULAR_WEIGHT>
197.20954

> <PUBCHEM_OPENEYE_CAN_SMILES>
CC(C(=O)O)NCCS(=O)(=O)O

> <PUBCHEM_OPENEYE_ISO_SMILES>
C[C@H](C(=O)O)NCCS(=O)(=O)O

> <PUBCHEM_CACTVS_TPSA>
112

> <PUBCHEM_MONOISOTOPIC_WEIGHT>
197.035793

> <PUBCHEM_TOTAL_CHARGE>
0

> <PUBCHEM_HEAVY_ATOM_COUNT>
12

> <PUBCHEM_ATOM_DEF_STEREO_COUNT>
1

> <PUBCHEM_ATOM_UDEF_STEREO_COUNT>
0

> <PUBCHEM_BOND_DEF_STEREO_COUNT>
0

> <PUBCHEM_BOND_UDEF_STEREO_COUNT>
0

> <PUBCHEM_ISOTOPIC_ATOM_COUNT>
0

> <PUBCHEM_COMPONENT_COUNT>
1

> <PUBCHEM_CACTVS_TAUTO_COUNT>
1

> <PUBCHEM_COORDINATE_TYPE>
1
5
255

> <PUBCHEM_BONDANNOTATIONS>
10  7  5

$$$$

