442003
  -OEChem-07051212563D

 65 68  0     1  0  0  0  0  0999 V2000
    1.9031    1.2568   -0.2643 O   0  0  0  0  0  0  0  0  0  0  0  0
    4.1794   -0.1590   -0.8227 O   0  0  0  0  0  0  0  0  0  0  0  0
   -2.9810   -0.7029   -1.5322 O   0  0  0  0  0  0  0  0  0  0  0  0
   -1.5667    1.4787   -2.4452 O   0  0  0  0  0  0  0  0  0  0  0  0
   -5.1503    0.6199    1.6188 O   0  0  0  0  0  0  0  0  0  0  0  0
    2.6792    1.9252    1.8032 O   0  0  0  0  0  0  0  0  0  0  0  0
    0.8830   -0.9139   -0.7836 C   0  0  1  0  0  0  0  0  0  0  0  0
    0.1885   -2.1722   -0.1527 C   0  0  1  0  0  0  0  0  0  0  0  0
    1.4232    0.0413    0.3030 C   0  0  1  0  0  0  0  0  0  0  0  0
    2.5810   -0.7766    0.8855 C   0  0  2  0  0  0  0  0  0  0  0  0
    2.2270   -1.4058   -1.4532 C   0  0  0  0  0  0  0  0  0  0  0  0
    3.3318   -1.2356   -0.3853 C   0  0  1  0  0  0  0  0  0  0  0  0
   -2.2814    0.1330   -0.5877 C   0  0  1  0  0  0  0  0  0  0  0  0
   -0.0109   -0.2372   -1.8473 C   0  0  0  0  0  0  0  0  0  0  0  0
   -1.9281   -0.7806    0.6159 C   0  0  2  0  0  0  0  0  0  0  0  0
   -1.0687    0.7442   -1.3170 C   0  0  1  0  0  0  0  0  0  0  0  0
    1.0383   -2.8332    0.9659 C   0  0  0  0  0  0  0  0  0  0  0  0
    1.9736   -1.8980    1.7337 C   0  0  0  0  0  0  0  0  0  0  0  0
   -3.3100    1.1965    0.0191 C   0  0  0  0  0  0  0  0  0  0  0  0
   -1.2861   -2.1074    0.2538 C   0  0  0  0  0  0  0  0  0  0  0  0
   -3.2856   -0.8745    1.3357 C   0  0  0  0  0  0  0  0  0  0  0  0
   -3.7554    0.5689    1.3787 C   0  0  2  0  0  0  0  0  0  0  0  0
    4.2419   -2.4490   -0.2363 C   0  0  0  0  0  0  0  0  0  0  0  0
   -2.6688    2.5616    0.3541 C   0  0  0  0  0  0  0  0  0  0  0  0
   -4.5062    1.4665   -0.9163 C   0  0  0  0  0  0  0  0  0  0  0  0
   -1.9714   -3.2702    0.2585 C   0  0  0  0  0  0  0  0  0  0  0  0
    2.5165    2.1169    0.6059 C   0  0  0  0  0  0  0  0  0  0  0  0
    2.9643    3.3469   -0.1481 C   0  0  0  0  0  0  0  0  0  0  0  0
    3.6398    4.3597    0.7599 C   0  0  0  0  0  0  0  0  0  0  0  0
    0.1805   -2.9098   -0.9738 H   0  0  0  0  0  0  0  0  0  0  0  0
    0.6804    0.2929    1.0625 H   0  0  0  0  0  0  0  0  0  0  0  0
    3.2703   -0.2111    1.5152 H   0  0  0  0  0  0  0  0  0  0  0  0
    2.1429   -2.4469   -1.7855 H   0  0  0  0  0  0  0  0  0  0  0  0
    2.4629   -0.8167   -2.3480 H   0  0  0  0  0  0  0  0  0  0  0  0
   -0.4820   -0.9938   -2.4885 H   0  0  0  0  0  0  0  0  0  0  0  0
    0.6301    0.3316   -2.5357 H   0  0  0  0  0  0  0  0  0  0  0  0
   -1.2618   -0.2534    1.3061 H   0  0  0  0  0  0  0  0  0  0  0  0
   -0.5781    1.4748   -0.6709 H   0  0  0  0  0  0  0  0  0  0  0  0
    1.6419   -3.6200    0.4981 H   0  0  0  0  0  0  0  0  0  0  0  0
    0.4140   -3.3693    1.6919 H   0  0  0  0  0  0  0  0  0  0  0  0
    1.4097   -1.4439    2.5592 H   0  0  0  0  0  0  0  0  0  0  0  0
    2.7680   -2.4896    2.2041 H   0  0  0  0  0  0  0  0  0  0  0  0
   -4.0185   -1.4866    0.7971 H   0  0  0  0  0  0  0  0  0  0  0  0
   -3.1929   -1.2937    2.3439 H   0  0  0  0  0  0  0  0  0  0  0  0
   -3.2651    1.0708    2.2219 H   0  0  0  0  0  0  0  0  0  0  0  0
    3.7054   -3.3684    0.0022 H   0  0  0  0  0  0  0  0  0  0  0  0
    4.8026   -2.6222   -1.1624 H   0  0  0  0  0  0  0  0  0  0  0  0
    4.9875   -2.2728    0.5474 H   0  0  0  0  0  0  0  0  0  0  0  0
   -2.3680    3.1038   -0.5479 H   0  0  0  0  0  0  0  0  0  0  0  0
   -3.3786    3.2034    0.8898 H   0  0  0  0  0  0  0  0  0  0  0  0
   -1.7876    2.4471    0.9952 H   0  0  0  0  0  0  0  0  0  0  0  0
   -5.1927    2.2015   -0.4801 H   0  0  0  0  0  0  0  0  0  0  0  0
   -4.1719    1.8704   -1.8777 H   0  0  0  0  0  0  0  0  0  0  0  0
   -5.0854    0.5593   -1.1176 H   0  0  0  0  0  0  0  0  0  0  0  0
    3.6233    0.5729   -1.1351 H   0  0  0  0  0  0  0  0  0  0  0  0
   -3.0818   -0.1999   -2.3581 H   0  0  0  0  0  0  0  0  0  0  0  0
   -3.0183   -3.3458    0.5215 H   0  0  0  0  0  0  0  0  0  0  0  0
   -1.4886   -4.2058   -0.0095 H   0  0  0  0  0  0  0  0  0  0  0  0
   -0.8224    1.9756   -2.8253 H   0  0  0  0  0  0  0  0  0  0  0  0
   -5.5969    0.0247    0.9940 H   0  0  0  0  0  0  0  0  0  0  0  0
    3.6643    3.0387   -0.9316 H   0  0  0  0  0  0  0  0  0  0  0  0
    2.0854    3.8064   -0.6127 H   0  0  0  0  0  0  0  0  0  0  0  0
    4.5275    3.9300    1.2360 H   0  0  0  0  0  0  0  0  0  0  0  0
    3.9504    5.2385    0.1865 H   0  0  0  0  0  0  0  0  0  0  0  0
    2.9613    4.6904    1.5534 H   0  0  0  0  0  0  0  0  0  0  0  0
  1  9  1  0  0  0  0
  1 27  1  0  0  0  0
  2 12  1  0  0  0  0
  2 55  1  0  0  0  0
  3 13  1  0  0  0  0
  3 56  1  0  0  0  0
  4 16  1  0  0  0  0
  4 59  1  0  0  0  0
  5 22  1  0  0  0  0
  5 60  1  0  0  0  0
  6 27  2  0  0  0  0
  7  8  1  0  0  0  0
  7  9  1  0  0  0  0
  7 11  1  0  0  0  0
  7 14  1  0  0  0  0
  8 17  1  0  0  0  0
  8 20  1  0  0  0  0
  8 30  1  0  0  0  0
  9 10  1  0  0  0  0
  9 31  1  0  0  0  0
 10 12  1  0  0  0  0
 10 18  1  0  0  0  0
 10 32  1  0  0  0  0
 11 12  1  0  0  0  0
 11 33  1  0  0  0  0
 11 34  1  0  0  0  0
 12 23  1  0  0  0  0
 13 15  1  0  0  0  0
 13 16  1  0  0  0  0
 13 19  1  0  0  0  0
 14 16  1  0  0  0  0
 14 35  1  0  0  0  0
 14 36  1  0  0  0  0
 15 20  1  0  0  0  0
 15 21  1  0  0  0  0
 15 37  1  0  0  0  0
 16 38  1  0  0  0  0
 17 18  1  0  0  0  0
 17 39  1  0  0  0  0
 17 40  1  0  0  0  0
 18 41  1  0  0  0  0
 18 42  1  0  0  0  0
 19 22  1  0  0  0  0
 19 24  1  0  0  0  0
 19 25  1  0  0  0  0
 20 26  2  0  0  0  0
 21 22  1  0  0  0  0
 21 43  1  0  0  0  0
 21 44  1  0  0  0  0
 22 45  1  0  0  0  0
 23 46  1  0  0  0  0
 23 47  1  0  0  0  0
 23 48  1  0  0  0  0
 24 49  1  0  0  0  0
 24 50  1  0  0  0  0
 24 51  1  0  0  0  0
 25 52  1  0  0  0  0
 25 53  1  0  0  0  0
 25 54  1  0  0  0  0
 26 57  1  0  0  0  0
 26 58  1  0  0  0  0
 27 28  1  0  0  0  0
 28 29  1  0  0  0  0
 28 61  1  0  0  0  0
 28 62  1  0  0  0  0
 29 63  1  0  0  0  0
 29 64  1  0  0  0  0
 29 65  1  0  0  0  0
M  END
> <PUBCHEM_COMPOUND_CID>
442003

> <PUBCHEM_CONFORMER_RMSD>
0.8

> <PUBCHEM_CONFORMER_DIVERSEORDER>
1
2
5
4
3

> <PUBCHEM_MMFF94_PARTIAL_CHARGES>
23
1 -0.43
12 0.28
13 0.28
15 0.14
16 0.28
2 -0.68
20 -0.28
22 0.28
26 -0.3
27 0.66
28 0.06
3 -0.68
4 -0.68
5 -0.68
55 0.4
56 0.4
57 0.15
58 0.15
59 0.4
6 -0.57
60 0.4
8 0.14
9 0.28

> <PUBCHEM_EFFECTIVE_ROTOR_COUNT>
5

> <PUBCHEM_PHARMACOPHORE_FEATURES>
14
1 2 acceptor
1 2 donor
1 29 hydrophobe
1 3 acceptor
1 3 donor
1 4 acceptor
1 4 donor
1 5 acceptor
1 5 donor
1 6 acceptor
3 19 24 25 hydrophobe
5 13 15 19 21 22 rings
7 7 8 13 14 15 16 20 rings
8 7 8 9 10 11 12 17 18 rings

> <PUBCHEM_HEAVY_ATOM_COUNT>
29

> <PUBCHEM_ATOM_DEF_STEREO_COUNT>
9

> <PUBCHEM_ATOM_UDEF_STEREO_COUNT>
0

> <PUBCHEM_BOND_DEF_STEREO_COUNT>
0

> <PUBCHEM_BOND_UDEF_STEREO_COUNT>
0

> <PUBCHEM_ISOTOPIC_ATOM_COUNT>
0

> <PUBCHEM_COMPONENT_COUNT>
1

> <PUBCHEM_CACTVS_TAUTO_COUNT>
1

> <PUBCHEM_CONFORMER_ID>
0006BE9300000001

> <PUBCHEM_MMFF94_ENERGY>
132.8799

> <PUBCHEM_FEATURE_SELFOVERLAP>
71.076

> <PUBCHEM_SHAPE_FINGERPRINT>
10165383 225 18270099297276168911
10366900 7 18058168504421878405
10863032 1 18262792948073363210
11578080 2 18121472705606894496
11640471 11 17023204711386503365
12011746 2 18128816533042978327
12107698 1 18115305704175236417
12633257 1 18410295825910806819
12788726 201 17761205914766673866
128993 33 18409735027836194768
13140716 1 18341890740770603707
13224815 77 17418094325503427679
133893 2 18120125881620757364
13583140 156 18270963582826128437
14142880 1 17905897967703655801
14178342 30 17983851186054995103
14223421 5 18267022752135987290
14466204 15 18049163568282755568
14713325 29 17617938033432736000
14787075 74 17618517479886302639
14955137 171 18197779014892283650
15238133 3 18122053475638277732
16945 1 18342184396285231950
1813 80 17677885928509049342
18981168 100 18042979683260518130
20691752 17 17702666536275299890
21033648 29 18272940457251365941
21033650 10 14057262221668611995
23227448 37 18334574607948120043
23419403 2 17036069972985034830
23559900 14 18408606984624464422
238 59 17909868570690219375
25222932 49 13396905343685012857
3380486 145 17475790953458759379
350125 39 18339634530188931602
3524813 1 18342449383050700795
392239 28 18263625382192958937
469060 322 17626673691574489409
474 4 18334585624270325825
495365 180 18269571583825495613
6086070 43 18195822979505811413
6287921 2 18127962023524328076
81228 2 17914333472520535491
9981440 41 17903090945046776672

> <PUBCHEM_SHAPE_MULTIPOLES>
561.59
8.04
4.1
1.7
2.86
2.54
0.28
3.25
-1.45
-3.92
-1.07
0.56
0.13
0.98

> <PUBCHEM_SHAPE_SELFOVERLAP>
1198.997

> <PUBCHEM_SHAPE_VOLUME>
309.8

> <PUBCHEM_COORDINATE_TYPE>
2
5
10

$$$$

