5616
  -OEChem-06261200463D

 61 65  0     0  0  0  0  0  0999 V2000
   -3.6103    3.2837   -0.5376 O   0  0  0  0  0  0  0  0  0  0  0  0
    0.5305    0.8058    1.1385 N   0  3  0  0  0  0  0  0  0  0  0  0
   -1.5589    1.5530    0.2636 N   0  0  0  0  0  0  0  0  0  0  0  0
   -1.0262   -0.7771    0.4524 N   0  0  0  0  0  0  0  0  0  0  0  0
    2.9265    1.3841    0.7940 C   0  0  0  0  0  0  0  0  0  0  0  0
    1.7591   -0.2203   -0.7675 C   0  0  0  0  0  0  0  0  0  0  0  0
    1.5881    1.0294    0.1177 C   0  0  0  0  0  0  0  0  0  0  0  0
    3.4784   -1.0821    0.8740 C   0  0  0  0  0  0  0  0  0  0  0  0
    4.2081    0.3061   -1.0978 C   0  0  0  0  0  0  0  0  0  0  0  0
    3.3183    0.2038    1.7077 C   0  0  0  0  0  0  0  0  0  0  0  0
    4.0432    1.5802   -0.2511 C   0  0  0  0  0  0  0  0  0  0  0  0
    2.1544   -1.3957    0.1509 C   0  0  0  0  0  0  0  0  0  0  0  0
    2.8809   -0.0176   -1.8059 C   0  0  0  0  0  0  0  0  0  0  0  0
    4.5832   -0.8658   -0.1741 C   0  0  0  0  0  0  0  0  0  0  0  0
   -0.7923    0.4846    0.5776 C   0  0  0  0  0  0  0  0  0  0  0  0
   -2.3319   -1.1453   -0.1124 C   0  0  0  0  0  0  0  0  0  0  0  0
   -2.3451    2.2686    1.2654 C   0  0  0  0  0  0  0  0  0  0  0  0
   -1.5073    2.1894   -1.0503 C   0  0  0  0  0  0  0  0  0  0  0  0
   -3.1100   -1.9616    0.9203 C   0  0  0  0  0  0  0  0  0  0  0  0
   -2.1178   -1.9173   -1.4150 C   0  0  0  0  0  0  0  0  0  0  0  0
   -3.7260    2.5736    0.6981 C   0  0  0  0  0  0  0  0  0  0  0  0
   -2.9249    2.4982   -1.5163 C   0  0  0  0  0  0  0  0  0  0  0  0
   -2.5229   -3.3564    1.1354 C   0  0  0  0  0  0  0  0  0  0  0  0
   -1.5360   -3.3120   -1.1863 C   0  0  0  0  0  0  0  0  0  0  0  0
   -2.3612   -4.1093   -0.1813 C   0  0  0  0  0  0  0  0  0  0  0  0
    2.8213    2.2950    1.3947 H   0  0  0  0  0  0  0  0  0  0  0  0
    0.8406   -0.4596   -1.3118 H   0  0  0  0  0  0  0  0  0  0  0  0
    1.2665    1.8802   -0.4943 H   0  0  0  0  0  0  0  0  0  0  0  0
    3.7515   -1.9174    1.5282 H   0  0  0  0  0  0  0  0  0  0  0  0
    4.9974    0.4569   -1.8427 H   0  0  0  0  0  0  0  0  0  0  0  0
    4.2723    0.4335    2.2007 H   0  0  0  0  0  0  0  0  0  0  0  0
    2.6033    0.0524    2.5222 H   0  0  0  0  0  0  0  0  0  0  0  0
    3.7943    2.4284   -0.9006 H   0  0  0  0  0  0  0  0  0  0  0  0
    4.9882    1.8261    0.2484 H   0  0  0  0  0  0  0  0  0  0  0  0
    2.2830   -2.2995   -0.4597 H   0  0  0  0  0  0  0  0  0  0  0  0
    1.3815   -1.6503    0.8807 H   0  0  0  0  0  0  0  0  0  0  0  0
    2.6114    0.8021   -2.4832 H   0  0  0  0  0  0  0  0  0  0  0  0
    2.9924   -0.9183   -2.4219 H   0  0  0  0  0  0  0  0  0  0  0  0
    5.5384   -0.6597    0.3242 H   0  0  0  0  0  0  0  0  0  0  0  0
    4.7238   -1.7791   -0.7653 H   0  0  0  0  0  0  0  0  0  0  0  0
    0.7547    0.0585    1.8056 H   0  0  0  0  0  0  0  0  0  0  0  0
    0.4191    1.6579    1.7056 H   0  0  0  0  0  0  0  0  0  0  0  0
   -2.9478   -0.2750   -0.3533 H   0  0  0  0  0  0  0  0  0  0  0  0
   -2.4433    1.6787    2.1836 H   0  0  0  0  0  0  0  0  0  0  0  0
   -1.8260    3.2010    1.5163 H   0  0  0  0  0  0  0  0  0  0  0  0
   -0.9293    3.1171   -0.9674 H   0  0  0  0  0  0  0  0  0  0  0  0
   -1.0103    1.5444   -1.7834 H   0  0  0  0  0  0  0  0  0  0  0  0
   -4.1479   -2.0683    0.5799 H   0  0  0  0  0  0  0  0  0  0  0  0
   -3.1440   -1.4292    1.8785 H   0  0  0  0  0  0  0  0  0  0  0  0
   -1.4608   -1.3539   -2.0881 H   0  0  0  0  0  0  0  0  0  0  0  0
   -3.0824   -2.0213   -1.9283 H   0  0  0  0  0  0  0  0  0  0  0  0
   -1.5481   -3.2740    1.6313 H   0  0  0  0  0  0  0  0  0  0  0  0
   -3.1728   -3.9276    1.8080 H   0  0  0  0  0  0  0  0  0  0  0  0
   -1.4949   -3.8522   -2.1390 H   0  0  0  0  0  0  0  0  0  0  0  0
   -0.5035   -3.2268   -0.8263 H   0  0  0  0  0  0  0  0  0  0  0  0
   -4.2864    3.2035    1.3960 H   0  0  0  0  0  0  0  0  0  0  0  0
   -4.3068    1.6577    0.5367 H   0  0  0  0  0  0  0  0  0  0  0  0
   -3.4972    1.5846   -1.7137 H   0  0  0  0  0  0  0  0  0  0  0  0
   -2.8937    3.0751   -2.4460 H   0  0  0  0  0  0  0  0  0  0  0  0
   -3.3506   -4.3191   -0.6059 H   0  0  0  0  0  0  0  0  0  0  0  0
   -1.8816   -5.0770    0.0041 H   0  0  0  0  0  0  0  0  0  0  0  0
  1 21  1  0  0  0  0
  1 22  1  0  0  0  0
  2  7  1  0  0  0  0
  2 15  1  0  0  0  0
  2 41  1  0  0  0  0
  2 42  1  0  0  0  0
  3 15  1  0  0  0  0
  3 17  1  0  0  0  0
  3 18  1  0  0  0  0
  4 15  2  0  0  0  0
  4 16  1  0  0  0  0
  5  7  1  0  0  0  0
  5 10  1  0  0  0  0
  5 11  1  0  0  0  0
  5 26  1  0  0  0  0
  6  7  1  0  0  0  0
  6 12  1  0  0  0  0
  6 13  1  0  0  0  0
  6 27  1  0  0  0  0
  7 28  1  0  0  0  0
  8 10  1  0  0  0  0
  8 12  1  0  0  0  0
  8 14  1  0  0  0  0
  8 29  1  0  0  0  0
  9 11  1  0  0  0  0
  9 13  1  0  0  0  0
  9 14  1  0  0  0  0
  9 30  1  0  0  0  0
 10 31  1  0  0  0  0
 10 32  1  0  0  0  0
 11 33  1  0  0  0  0
 11 34  1  0  0  0  0
 12 35  1  0  0  0  0
 12 36  1  0  0  0  0
 13 37  1  0  0  0  0
 13 38  1  0  0  0  0
 14 39  1  0  0  0  0
 14 40  1  0  0  0  0
 16 19  1  0  0  0  0
 16 20  1  0  0  0  0
 16 43  1  0  0  0  0
 17 21  1  0  0  0  0
 17 44  1  0  0  0  0
 17 45  1  0  0  0  0
 18 22  1  0  0  0  0
 18 46  1  0  0  0  0
 18 47  1  0  0  0  0
 19 23  1  0  0  0  0
 19 48  1  0  0  0  0
 19 49  1  0  0  0  0
 20 24  1  0  0  0  0
 20 50  1  0  0  0  0
 20 51  1  0  0  0  0
 21 56  1  0  0  0  0
 21 57  1  0  0  0  0
 22 58  1  0  0  0  0
 22 59  1  0  0  0  0
 23 25  1  0  0  0  0
 23 52  1  0  0  0  0
 23 53  1  0  0  0  0
 24 25  1  0  0  0  0
 24 54  1  0  0  0  0
 24 55  1  0  0  0  0
 25 60  1  0  0  0  0
 25 61  1  0  0  0  0
M  CHG  1   2   1
M  END
> <PUBCHEM_COMPOUND_CID>
5616

> <PUBCHEM_CONFORMER_RMSD>
0.8

> <PUBCHEM_CONFORMER_DIVERSEORDER>
1
8
12
5
14
11
6
13
3
7
9
2
10
4

> <PUBCHEM_MMFF94_PARTIAL_CHARGES>
13
1 -0.56
15 0.9
16 0.25
17 0.37
18 0.37
2 -0.8
21 0.28
22 0.28
3 -0.79
4 -0.7
41 0.45
42 0.45
7 0.5

> <PUBCHEM_EFFECTIVE_ROTOR_COUNT>
7.6

> <PUBCHEM_PHARMACOPHORE_FEATURES>
9
1 1 acceptor
1 2 donor
4 2 3 4 15 cation
6 1 3 17 18 21 22 rings
6 16 19 20 23 24 25 rings
6 5 6 7 8 10 12 rings
6 5 6 7 9 11 13 rings
6 5 8 9 10 11 14 rings
6 6 8 9 12 13 14 rings

> <PUBCHEM_HEAVY_ATOM_COUNT>
25

> <PUBCHEM_ATOM_DEF_STEREO_COUNT>
0

> <PUBCHEM_ATOM_UDEF_STEREO_COUNT>
0

> <PUBCHEM_BOND_DEF_STEREO_COUNT>
0

> <PUBCHEM_BOND_UDEF_STEREO_COUNT>
0

> <PUBCHEM_ISOTOPIC_ATOM_COUNT>
0

> <PUBCHEM_COMPONENT_COUNT>
1

> <PUBCHEM_CACTVS_TAUTO_COUNT>
2

> <PUBCHEM_CONFORMER_ID>
000015F000000001

> <PUBCHEM_MMFF94_ENERGY>
58.5661

> <PUBCHEM_FEATURE_SELFOVERLAP>
58.191

> <PUBCHEM_SHAPE_FINGERPRINT>
11488393 25 17833259102204768035
11578080 2 17750522779932358025
12160290 23 18337968830507952169
12173636 292 18189895499246295129
12422481 6 18123438762164184241
12500047 106 18337956800188550244
12553582 1 18122344575447158563
12643181 29 18120367912309652318
12714826 92 18262231131927725298
12788726 201 18342181016525518795
13004483 165 18266184924587144179
13149001 5 18187944883866555665
13224815 77 18190743020863489818
133893 2 17256247571610822977
13583140 156 17774708870284136032
13681431 1 17548136628369494917
14178342 30 18340781376999053608
14223421 5 18189059685777709144
14251757 5 18340206289478778463
15420108 30 14649765209514591584
15927050 60 15812555930782336486
16752209 62 18337402599009969779
17138139 8 17756188671330644421
17357779 13 18117010883606356239
17980427 23 17561084662478275228
1813 80 17979068280694572787
21033648 29 18125454243723877472
21285901 2 18187645761343641903
21344244 246 17759257575587667807
22182313 1 17604149225723382136
22393880 68 18410847768754423060
22907989 373 18411416177010183501
23557571 272 18264216819905025916
23558518 356 18200875076405672824
23559900 14 18189053256744501202
23598288 3 18343584048980916315
3027735 51 18261118495524055751
314173 41 17690840060416353883
3298306 158 17978510059541972237
340366 18 18128245891045606142
633830 44 16845272957473712148
7399639 24 17827930516215826560
7615 1 17775012271506229040
81228 2 18340497655775727785
9981440 41 16304635294050759817

> <PUBCHEM_SHAPE_MULTIPOLES>
493.68
8.2
4.39
1.53
5.77
1.58
0.18
-0.84
0.05
-7.54
0.37
0.09
-0.07
0.27

> <PUBCHEM_SHAPE_SELFOVERLAP>
1045.993

> <PUBCHEM_SHAPE_VOLUME>
269.3

> <PUBCHEM_COORDINATE_TYPE>
2
5
10

$$$$

