62767
  -OEChem-07051213142D

 26 28  0     0  0  0  0  0  0999 V2000
    2.5836   -2.0894    0.0000 O   0  0  0  0  0  0  0  0  0  0  0  0
    4.3798    0.7569    0.0000 O   0  0  0  0  0  0  0  0  0  0  0  0
    5.2740    2.2846    0.0000 O   0  0  0  0  0  0  0  0  0  0  0  0
    3.5298   -0.7846    0.0000 C   0  0  0  0  0  0  0  0  0  0  0  0
    4.3958   -0.2846    0.0000 C   0  0  0  0  0  0  0  0  0  0  0  0
    5.2619   -0.7846    0.0000 C   0  0  0  0  0  0  0  0  0  0  0  0
    3.5298   -1.7846    0.0000 C   0  0  0  0  0  0  0  0  0  0  0  0
    2.5836   -0.4799    0.0000 C   0  0  0  0  0  0  0  0  0  0  0  0
    6.1719   -0.2778    0.0000 C   0  0  0  0  0  0  0  0  0  0  0  0
    5.2619   -1.7846    0.0000 C   0  0  0  0  0  0  0  0  0  0  0  0
    4.3958   -2.2846    0.0000 C   0  0  0  0  0  0  0  0  0  0  0  0
    2.0000   -1.2846    0.0000 C   0  0  0  0  0  0  0  0  0  0  0  0
    6.1799    0.7638    0.0000 C   0  0  0  0  0  0  0  0  0  0  0  0
    2.2729    0.4706    0.0000 C   0  0  0  0  0  0  0  0  0  0  0  0
    7.0321   -0.7878    0.0000 C   0  0  0  0  0  0  0  0  0  0  0  0
    5.2778    1.2846    0.0000 C   0  0  0  0  0  0  0  0  0  0  0  0
    5.7988   -2.0946    0.0000 H   0  0  0  0  0  0  0  0  0  0  0  0
    4.3958   -2.9046    0.0000 H   0  0  0  0  0  0  0  0  0  0  0  0
    1.3800   -1.2846    0.0000 H   0  0  0  0  0  0  0  0  0  0  0  0
    6.7180    1.0718    0.0000 H   0  0  0  0  0  0  0  0  0  0  0  0
    2.8623    0.6632    0.0000 H   0  0  0  0  0  0  0  0  0  0  0  0
    2.0803    1.0600    0.0000 H   0  0  0  0  0  0  0  0  0  0  0  0
    1.6836    0.2780    0.0000 H   0  0  0  0  0  0  0  0  0  0  0  0
    6.7159   -1.3211    0.0000 H   0  0  0  0  0  0  0  0  0  0  0  0
    7.5654   -1.1040    0.0000 H   0  0  0  0  0  0  0  0  0  0  0  0
    7.3482   -0.2544    0.0000 H   0  0  0  0  0  0  0  0  0  0  0  0
  1  7  1  0  0  0  0
  1 12  1  0  0  0  0
  2  5  1  0  0  0  0
  2 16  1  0  0  0  0
  3 16  2  0  0  0  0
  4  5  1  0  0  0  0
  4  7  2  0  0  0  0
  4  8  1  0  0  0  0
  5  6  2  0  0  0  0
  6  9  1  0  0  0  0
  6 10  1  0  0  0  0
  7 11  1  0  0  0  0
  8 12  2  0  0  0  0
  8 14  1  0  0  0  0
  9 13  2  0  0  0  0
  9 15  1  0  0  0  0
 10 11  2  0  0  0  0
 10 17  1  0  0  0  0
 11 18  1  0  0  0  0
 12 19  1  0  0  0  0
 13 16  1  0  0  0  0
 13 20  1  0  0  0  0
 14 21  1  0  0  0  0
 14 22  1  0  0  0  0
 14 23  1  0  0  0  0
 15 24  1  0  0  0  0
 15 25  1  0  0  0  0
 15 26  1  0  0  0  0
M  END
> <PUBCHEM_COMPOUND_CID>
62767

> <PUBCHEM_COMPOUND_CANONICALIZED>
1

> <PUBCHEM_CACTVS_COMPLEXITY>
347

> <PUBCHEM_CACTVS_HBOND_ACCEPTOR>
3

> <PUBCHEM_CACTVS_HBOND_DONOR>
0

> <PUBCHEM_CACTVS_ROTATABLE_BOND>
0

> <PUBCHEM_CACTVS_SUBSKEYS>
AAADccBwMAAAAAAAAAAAAAAAAAAAASAAAAAwQAAAAAAAAEiB8AAAGgAAAAAADASgmAIyDsAABECIAqjSiAACCAAkIAAIiAEGCMgMJzaENRqCO2Cl4BUIqYfK7PzOoAACCAAIAABAAAQQABAAAAAAAAAAAA==

> <PUBCHEM_IUPAC_OPENEYE_NAME>
4,9-dimethylfuro[2,3-h]chromen-2-one

> <PUBCHEM_IUPAC_CAS_NAME>
4,9-dimethyl-2-furo[2,3-h][1]benzopyranone

> <PUBCHEM_IUPAC_NAME>
4,9-dimethylfuro[2,3-h]chromen-2-one

> <PUBCHEM_IUPAC_SYSTEMATIC_NAME>
4,9-dimethylfuro[2,3-h]chromen-2-one

> <PUBCHEM_IUPAC_TRADITIONAL_NAME>
4,9-dimethylfuro[2,3-h]chromen-2-one

> <PUBCHEM_IUPAC_INCHI>
InChI=1S/C13H10O3/c1-7-5-11(14)16-13-9(7)3-4-10-12(13)8(2)6-15-10/h3-6H,1-2H3

> <PUBCHEM_IUPAC_INCHIKEY>
ZUOUYRRXKPHFSV-UHFFFAOYSA-N

> <PUBCHEM_XLOGP3>
2.7

> <PUBCHEM_EXACT_MASS>
214.062994

> <PUBCHEM_MOLECULAR_FORMULA>
C13H10O3

> <PUBCHEM_MOLECULAR_WEIGHT>
214.2167

> <PUBCHEM_OPENEYE_CAN_SMILES>
CC1=CC(=O)OC2=C1C=CC3=C2C(=CO3)C

> <PUBCHEM_OPENEYE_ISO_SMILES>
CC1=CC(=O)OC2=C1C=CC3=C2C(=CO3)C

> <PUBCHEM_CACTVS_TPSA>
39.4

> <PUBCHEM_MONOISOTOPIC_WEIGHT>
214.062994

> <PUBCHEM_TOTAL_CHARGE>
0

> <PUBCHEM_HEAVY_ATOM_COUNT>
16

> <PUBCHEM_ATOM_DEF_STEREO_COUNT>
0

> <PUBCHEM_ATOM_UDEF_STEREO_COUNT>
0

> <PUBCHEM_BOND_DEF_STEREO_COUNT>
0

> <PUBCHEM_BOND_UDEF_STEREO_COUNT>
0

> <PUBCHEM_ISOTOPIC_ATOM_COUNT>
0

> <PUBCHEM_COMPONENT_COUNT>
1

> <PUBCHEM_CACTVS_TAUTO_COUNT>
1

> <PUBCHEM_COORDINATE_TYPE>
1
5
255

> <PUBCHEM_BONDANNOTATIONS>
1  12  8
1  7  8
10  11  8
13  16  8
2  16  8
2  5  8
4  5  8
4  7  8
4  8  8
5  6  8
6  10  8
6  9  8
7  11  8
8  12  8
9  13  8

$$$$

