176947
  -OEChem-07051212493D

 22 22  0     0  0  0  0  0  0999 V2000
   -3.8521   -2.2774   -0.1246 Cl  0  0  0  0  0  0  0  0  0  0  0  0
   -4.9334    0.7041    0.5198 Cl  0  0  0  0  0  0  0  0  0  0  0  0
    1.7489    1.8865   -0.2884 O   0  0  0  0  0  0  0  0  0  0  0  0
    5.1372   -1.0036    0.0404 O   0  0  0  0  0  0  0  0  0  0  0  0
    3.5536   -0.3309    1.5262 O   0  0  0  0  0  0  0  0  0  0  0  0
    0.8076   -0.2592   -0.5156 N   0  0  0  0  0  0  0  0  0  0  0  0
   -0.5499   -0.0478   -0.2729 C   0  0  0  0  0  0  0  0  0  0  0  0
   -1.4405   -1.1208   -0.3075 C   0  0  0  0  0  0  0  0  0  0  0  0
   -1.0164    1.2373    0.0040 C   0  0  0  0  0  0  0  0  0  0  0  0
    1.8454    0.6851   -0.5185 C   0  0  0  0  0  0  0  0  0  0  0  0
    3.1831    0.0424   -0.8294 C   0  0  0  0  0  0  0  0  0  0  0  0
   -2.7978   -0.9086   -0.0651 C   0  0  0  0  0  0  0  0  0  0  0  0
   -2.3735    1.4495    0.2463 C   0  0  0  0  0  0  0  0  0  0  0  0
   -3.2642    0.3766    0.2118 C   0  0  0  0  0  0  0  0  0  0  0  0
    3.9522   -0.4333    0.3735 C   0  0  0  0  0  0  0  0  0  0  0  0
    1.0645   -1.2249   -0.7086 H   0  0  0  0  0  0  0  0  0  0  0  0
   -1.0734   -2.1220   -0.5242 H   0  0  0  0  0  0  0  0  0  0  0  0
   -0.3903    2.1173    0.0459 H   0  0  0  0  0  0  0  0  0  0  0  0
    3.0363   -0.8071   -1.5059 H   0  0  0  0  0  0  0  0  0  0  0  0
    3.7915    0.7885   -1.3532 H   0  0  0  0  0  0  0  0  0  0  0  0
   -2.7211    2.4574    0.4600 H   0  0  0  0  0  0  0  0  0  0  0  0
    5.6281   -1.3155    0.8303 H   0  0  0  0  0  0  0  0  0  0  0  0
  1 12  1  0  0  0  0
  2 14  1  0  0  0  0
  3 10  2  0  0  0  0
  4 15  1  0  0  0  0
  4 22  1  0  0  0  0
  5 15  2  0  0  0  0
  6  7  1  0  0  0  0
  6 10  1  0  0  0  0
  6 16  1  0  0  0  0
  7  8  2  0  0  0  0
  7  9  1  0  0  0  0
  8 12  1  0  0  0  0
  8 17  1  0  0  0  0
  9 13  2  0  0  0  0
  9 18  1  0  0  0  0
 10 11  1  0  0  0  0
 11 15  1  0  0  0  0
 11 19  1  0  0  0  0
 11 20  1  0  0  0  0
 12 14  2  0  0  0  0
 13 14  1  0  0  0  0
 13 21  1  0  0  0  0
M  END
> <PUBCHEM_COMPOUND_CID>
176947

> <PUBCHEM_CONFORMER_RMSD>
0.6

> <PUBCHEM_CONFORMER_DIVERSEORDER>
3
18
1
16
14
21
8
15
17
12
5
13
22
7
9
2
20
19
6
11
10
4

> <PUBCHEM_MMFF94_PARTIAL_CHARGES>
20
1 -0.18
10 0.57
11 0.12
12 0.18
13 -0.15
14 0.18
15 0.66
16 0.37
17 0.15
18 0.15
2 -0.18
21 0.15
22 0.5
3 -0.57
4 -0.65
5 -0.57
6 -0.55
7 0.12
8 -0.15
9 -0.15

> <PUBCHEM_EFFECTIVE_ROTOR_COUNT>
4

> <PUBCHEM_PHARMACOPHORE_FEATURES>
7
1 11 anion
1 3 acceptor
1 4 acceptor
1 5 acceptor
1 6 donor
3 4 5 15 anion
6 7 8 9 12 13 14 rings

> <PUBCHEM_HEAVY_ATOM_COUNT>
15

> <PUBCHEM_ATOM_DEF_STEREO_COUNT>
0

> <PUBCHEM_ATOM_UDEF_STEREO_COUNT>
0

> <PUBCHEM_BOND_DEF_STEREO_COUNT>
0

> <PUBCHEM_BOND_UDEF_STEREO_COUNT>
0

> <PUBCHEM_ISOTOPIC_ATOM_COUNT>
0

> <PUBCHEM_COMPONENT_COUNT>
1

> <PUBCHEM_CACTVS_TAUTO_COUNT>
2

> <PUBCHEM_CONFORMER_ID>
0002B33300000003

> <PUBCHEM_MMFF94_ENERGY>
33.333

> <PUBCHEM_FEATURE_SELFOVERLAP>
35.844

> <PUBCHEM_SHAPE_FINGERPRINT>
10062212 137 18411139100312046503
11132069 177 18187077365197225485
12236239 1 18060696208307414324
12251169 10 18410853286990891061
13167823 11 18273211967560720627
13675066 3 17822009800322994430
13760787 5 17704067369891701343
13862211 1 18336546024313780591
14144814 61 18412543210766974364
15042514 8 18410005504087722315
15196674 1 18337669724268654005
15375462 189 17917999412186131362
17804303 29 18335416855039760540
17834072 33 18271801299038521348
17862501 102 18413110554292734355
1813 80 17346024706079291438
18186145 218 17418098667809997621
18522853 276 18334011713534127792
19050596 39 18410570673947989271
19422 9 18270957938737954735
200 152 16845857901168626972
20279233 1 16588020216857789357
20281475 54 18272934929643877542
20645477 70 14620801543708904112
21339142 126 18273216430506605589
21501502 16 18265327318365282237
21501925 9 18335988562536837580
2255824 54 17845648154128374020
22646028 1 18273215278890763647
23366157 5 17983857779073141173
23402539 116 18260272975445503773
23532345 12 18408884018742232060
23557571 272 17822005470938249617
23559900 14 18114453544050968758
312423 11 18199176309244213783
42 15 18410292523370937198
5104073 3 18335696088275567561
573450 72 18412830187486099427
76465 3 18263930938671996239

> <PUBCHEM_SHAPE_MULTIPOLES>
289.84
9.75
1.74
0.85
4.89
0.3
-0.15
2.39
-1.84
-1.57
0.06
0.57
0.03
-0.58

> <PUBCHEM_SHAPE_SELFOVERLAP>
583.196

> <PUBCHEM_SHAPE_VOLUME>
170.6

> <PUBCHEM_COORDINATE_TYPE>
2
5
10

$$$$

