8459
  -OEChem-06261202513D

 30 29  0     0  0  0  0  0  0999 V2000
    0.1790    0.0901   -0.5648 N   0  0  0  0  0  0  0  0  0  0  0  0
   -3.4619    0.1804    0.2542 N   0  0  0  0  0  0  0  0  0  0  0  0
    0.4212   -1.3194   -0.2597 C   0  0  0  0  0  0  0  0  0  0  0  0
    1.3167    0.9071   -0.1439 C   0  0  0  0  0  0  0  0  0  0  0  0
   -1.0483    0.5500    0.0842 C   0  0  0  0  0  0  0  0  0  0  0  0
    0.5647   -1.5177    1.2466 C   0  0  0  0  0  0  0  0  0  0  0  0
    1.6712   -1.7909   -0.9960 C   0  0  0  0  0  0  0  0  0  0  0  0
    1.5031    0.8157    1.3679 C   0  0  0  0  0  0  0  0  0  0  0  0
    1.0946    2.3511   -0.5824 C   0  0  0  0  0  0  0  0  0  0  0  0
   -2.2403   -0.2664   -0.4062 C   0  0  0  0  0  0  0  0  0  0  0  0
   -0.3793   -1.9522   -0.6526 H   0  0  0  0  0  0  0  0  0  0  0  0
    2.2409    0.6076   -0.6481 H   0  0  0  0  0  0  0  0  0  0  0  0
   -1.2633    1.5802   -0.2242 H   0  0  0  0  0  0  0  0  0  0  0  0
   -1.0682    0.5665    1.1745 H   0  0  0  0  0  0  0  0  0  0  0  0
    0.2287   -2.5580    1.4052 H   0  0  0  0  0  0  0  0  0  0  0  0
    1.5872   -1.6056    1.6193 H   0  0  0  0  0  0  0  0  0  0  0  0
   -0.1141   -1.0023    1.9251 H   0  0  0  0  0  0  0  0  0  0  0  0
    1.6526   -1.4984   -2.0522 H   0  0  0  0  0  0  0  0  0  0  0  0
    1.7162   -2.8868   -0.9718 H   0  0  0  0  0  0  0  0  0  0  0  0
    2.6078   -1.4419   -0.5496 H   0  0  0  0  0  0  0  0  0  0  0  0
    2.0113    1.7506    1.6613 H   0  0  0  0  0  0  0  0  0  0  0  0
    0.6409    0.8509    2.0314 H   0  0  0  0  0  0  0  0  0  0  0  0
    2.2687    0.1002    1.6712 H   0  0  0  0  0  0  0  0  0  0  0  0
    0.7785    2.4110   -1.6302 H   0  0  0  0  0  0  0  0  0  0  0  0
    2.0350    2.9103   -0.5037 H   0  0  0  0  0  0  0  0  0  0  0  0
    0.3677    2.8866    0.0373 H   0  0  0  0  0  0  0  0  0  0  0  0
   -2.1623   -1.3264   -0.1582 H   0  0  0  0  0  0  0  0  0  0  0  0
   -2.3562   -0.1756   -1.4923 H   0  0  0  0  0  0  0  0  0  0  0  0
   -4.2573   -0.3355   -0.1201 H   0  0  0  0  0  0  0  0  0  0  0  0
   -3.6311    1.1616    0.0365 H   0  0  0  0  0  0  0  0  0  0  0  0
  1  3  1  0  0  0  0
  1  4  1  0  0  0  0
  1  5  1  0  0  0  0
  2 10  1  0  0  0  0
  2 29  1  0  0  0  0
  2 30  1  0  0  0  0
  3  6  1  0  0  0  0
  3  7  1  0  0  0  0
  3 11  1  0  0  0  0
  4  8  1  0  0  0  0
  4  9  1  0  0  0  0
  4 12  1  0  0  0  0
  5 10  1  0  0  0  0
  5 13  1  0  0  0  0
  5 14  1  0  0  0  0
  6 15  1  0  0  0  0
  6 16  1  0  0  0  0
  6 17  1  0  0  0  0
  7 18  1  0  0  0  0
  7 19  1  0  0  0  0
  7 20  1  0  0  0  0
  8 21  1  0  0  0  0
  8 22  1  0  0  0  0
  8 23  1  0  0  0  0
  9 24  1  0  0  0  0
  9 25  1  0  0  0  0
  9 26  1  0  0  0  0
 10 27  1  0  0  0  0
 10 28  1  0  0  0  0
M  END
> <PUBCHEM_COMPOUND_CID>
8459

> <PUBCHEM_CONFORMER_RMSD>
0.6

> <PUBCHEM_CONFORMER_DIVERSEORDER>
1

> <PUBCHEM_MMFF94_PARTIAL_CHARGES>
8
1 -0.81
10 0.27
2 -0.99
29 0.36
3 0.27
30 0.36
4 0.27
5 0.27

> <PUBCHEM_EFFECTIVE_ROTOR_COUNT>
4

> <PUBCHEM_PHARMACOPHORE_FEATURES>
5
1 1 cation
1 2 cation
1 2 donor
3 3 6 7 hydrophobe
3 4 8 9 hydrophobe

> <PUBCHEM_HEAVY_ATOM_COUNT>
10

> <PUBCHEM_ATOM_DEF_STEREO_COUNT>
0

> <PUBCHEM_ATOM_UDEF_STEREO_COUNT>
0

> <PUBCHEM_BOND_DEF_STEREO_COUNT>
0

> <PUBCHEM_BOND_UDEF_STEREO_COUNT>
0

> <PUBCHEM_ISOTOPIC_ATOM_COUNT>
0

> <PUBCHEM_COMPONENT_COUNT>
1

> <PUBCHEM_CACTVS_TAUTO_COUNT>
1

> <PUBCHEM_CONFORMER_ID>
0000210B00000001

> <PUBCHEM_MMFF94_ENERGY>
40.2307

> <PUBCHEM_FEATURE_SELFOVERLAP>
25.373

> <PUBCHEM_SHAPE_FINGERPRINT>
12423570 1 16119301583954674390
12932764 1 17988923418594898815
14128692 85 17823126981425218318
161256 15 18264774439867356044
16945 1 18335685144530000700
19837323 101 17545026118206060644
20653091 64 18338228387971197697
20711978 78 18041860517646091949
20711985 344 17473548426346622919
21040471 1 17974293122874319148
21524375 3 18052825736593545069
23235685 24 18339082566608840172
23552449 11 18269848647628005163
241688 4 18122617524955497504
2748010 2 18122920972942755029
5084963 1 18195545704463823153

> <PUBCHEM_SHAPE_MULTIPOLES>
195.83
3.08
2.14
1.16
3.88
0.25
-0.3
0.28
-0.05
-1.47
0.37
-0.54
-0.21
0.16

> <PUBCHEM_SHAPE_SELFOVERLAP>
361.638

> <PUBCHEM_SHAPE_VOLUME>
125.5

> <PUBCHEM_COORDINATE_TYPE>
2
5
10

$$$$

