13934
  -OEChem-06241222413D

 43 44  0     0  0  0  0  0  0999 V2000
    0.5216    0.7553    1.5010 O   0  0  0  0  0  0  0  0  0  0  0  0
    0.3819    1.0294   -0.9005 O   0  0  0  0  0  0  0  0  0  0  0  0
   -1.9952    2.6938   -0.6479 O   0  0  0  0  0  0  0  0  0  0  0  0
   -3.1638   -1.2532   -0.1257 N   0  3  0  0  0  0  0  0  0  0  0  0
   -1.6324    0.5717    0.3952 C   0  0  0  0  0  0  0  0  0  0  0  0
   -2.3654   -0.6568    0.9585 C   0  0  0  0  0  0  0  0  0  0  0  0
   -0.8118    1.2616    1.5050 C   0  0  0  0  0  0  0  0  0  0  0  0
   -0.6985    0.1113   -0.7435 C   0  0  0  0  0  0  0  0  0  0  0  0
   -2.6771    1.5651   -0.1393 C   0  0  0  0  0  0  0  0  0  0  0  0
   -3.9299   -2.4945    0.3652 C   0  0  0  0  0  0  0  0  0  0  0  0
   -4.1970   -0.2516   -0.6715 C   0  0  0  0  0  0  0  0  0  0  0  0
   -2.2699   -1.6896   -1.3001 C   0  0  0  0  0  0  0  0  0  0  0  0
    1.1898    1.1181    0.2837 C   0  0  0  0  0  0  0  0  0  0  0  0
    2.4467    0.2976    0.0945 C   0  0  0  0  0  0  0  0  0  0  0  0
    3.5369    0.8346   -0.5934 C   0  0  0  0  0  0  0  0  0  0  0  0
    2.5208   -0.9992    0.6075 C   0  0  0  0  0  0  0  0  0  0  0  0
    4.6959    0.0783   -0.7677 C   0  0  0  0  0  0  0  0  0  0  0  0
    3.6800   -1.7553    0.4332 C   0  0  0  0  0  0  0  0  0  0  0  0
    4.7675   -1.2165   -0.2543 C   0  0  0  0  0  0  0  0  0  0  0  0
   -3.0447   -0.3837    1.7760 H   0  0  0  0  0  0  0  0  0  0  0  0
   -1.6627   -1.4119    1.3331 H   0  0  0  0  0  0  0  0  0  0  0  0
   -0.7575    2.3512    1.4131 H   0  0  0  0  0  0  0  0  0  0  0  0
   -1.2414    1.0607    2.4928 H   0  0  0  0  0  0  0  0  0  0  0  0
   -0.1963   -0.8376   -0.5593 H   0  0  0  0  0  0  0  0  0  0  0  0
   -1.1254    0.2270   -1.7317 H   0  0  0  0  0  0  0  0  0  0  0  0
   -3.3829    1.9211    0.6179 H   0  0  0  0  0  0  0  0  0  0  0  0
   -3.1126    1.3750   -1.0949 H   0  0  0  0  0  0  0  0  0  0  0  0
   -3.1953   -3.2213    0.7249 H   0  0  0  0  0  0  0  0  0  0  0  0
   -4.5886   -2.1826    1.1813 H   0  0  0  0  0  0  0  0  0  0  0  0
   -4.5123   -2.9159   -0.4600 H   0  0  0  0  0  0  0  0  0  0  0  0
   -5.0934   -0.8628   -0.8690 H   0  0  0  0  0  0  0  0  0  0  0  0
   -4.5971    0.4075    0.1020 H   0  0  0  0  0  0  0  0  0  0  0  0
   -4.0012    0.0539   -1.7043 H   0  0  0  0  0  0  0  0  0  0  0  0
   -1.3728   -2.2054   -0.9550 H   0  0  0  0  0  0  0  0  0  0  0  0
   -2.8216   -2.5213   -1.7681 H   0  0  0  0  0  0  0  0  0  0  0  0
   -2.2705   -1.0029   -2.1434 H   0  0  0  0  0  0  0  0  0  0  0  0
    1.4830    2.1703    0.3880 H   0  0  0  0  0  0  0  0  0  0  0  0
   -1.9952    3.3818    0.0390 H   0  0  0  0  0  0  0  0  0  0  0  0
    3.4928    1.8417   -0.9997 H   0  0  0  0  0  0  0  0  0  0  0  0
    1.6847   -1.4449    1.1393 H   0  0  0  0  0  0  0  0  0  0  0  0
    5.5425    0.4974   -1.3037 H   0  0  0  0  0  0  0  0  0  0  0  0
    3.7352   -2.7645    0.8310 H   0  0  0  0  0  0  0  0  0  0  0  0
    5.6696   -1.8056   -0.3907 H   0  0  0  0  0  0  0  0  0  0  0  0
  1  7  1  0  0  0  0
  1 13  1  0  0  0  0
  2  8  1  0  0  0  0
  2 13  1  0  0  0  0
  3  9  1  0  0  0  0
  3 38  1  0  0  0  0
  4  6  1  0  0  0  0
  4 10  1  0  0  0  0
  4 11  1  0  0  0  0
  4 12  1  0  0  0  0
  5  6  1  0  0  0  0
  5  7  1  0  0  0  0
  5  8  1  0  0  0  0
  5  9  1  0  0  0  0
  6 20  1  0  0  0  0
  6 21  1  0  0  0  0
  7 22  1  0  0  0  0
  7 23  1  0  0  0  0
  8 24  1  0  0  0  0
  8 25  1  0  0  0  0
  9 26  1  0  0  0  0
  9 27  1  0  0  0  0
 10 28  1  0  0  0  0
 10 29  1  0  0  0  0
 10 30  1  0  0  0  0
 11 31  1  0  0  0  0
 11 32  1  0  0  0  0
 11 33  1  0  0  0  0
 12 34  1  0  0  0  0
 12 35  1  0  0  0  0
 12 36  1  0  0  0  0
 13 14  1  0  0  0  0
 13 37  1  0  0  0  0
 14 15  2  0  0  0  0
 14 16  1  0  0  0  0
 15 17  1  0  0  0  0
 15 39  1  0  0  0  0
 16 18  2  0  0  0  0
 16 40  1  0  0  0  0
 17 19  2  0  0  0  0
 17 41  1  0  0  0  0
 18 19  1  0  0  0  0
 18 42  1  0  0  0  0
 19 43  1  0  0  0  0
M  CHG  1   4   1
M  END
> <PUBCHEM_COMPOUND_CID>
13934

> <PUBCHEM_CONFORMER_RMSD>
0.8

> <PUBCHEM_CONFORMER_DIVERSEORDER>
1
2
3

> <PUBCHEM_MMFF94_PARTIAL_CHARGES>
24
1 -0.56
10 0.5
11 0.5
12 0.5
13 0.7
14 -0.14
15 -0.15
16 -0.15
17 -0.15
18 -0.15
19 -0.15
2 -0.56
3 -0.68
38 0.4
39 0.15
4 -1.01
40 0.15
41 0.15
42 0.15
43 0.15
6 0.5
7 0.28
8 0.28
9 0.28

> <PUBCHEM_EFFECTIVE_ROTOR_COUNT>
5.2

> <PUBCHEM_PHARMACOPHORE_FEATURES>
7
1 1 acceptor
1 2 acceptor
1 3 acceptor
1 3 donor
1 4 cation
6 1 2 5 7 8 13 rings
6 14 15 16 17 18 19 rings

> <PUBCHEM_HEAVY_ATOM_COUNT>
19

> <PUBCHEM_ATOM_DEF_STEREO_COUNT>
0

> <PUBCHEM_ATOM_UDEF_STEREO_COUNT>
0

> <PUBCHEM_BOND_DEF_STEREO_COUNT>
0

> <PUBCHEM_BOND_UDEF_STEREO_COUNT>
0

> <PUBCHEM_ISOTOPIC_ATOM_COUNT>
0

> <PUBCHEM_COMPONENT_COUNT>
1

> <PUBCHEM_CACTVS_TAUTO_COUNT>
1

> <PUBCHEM_CONFORMER_ID>
0000366E00000001

> <PUBCHEM_MMFF94_ENERGY>
146.9631

> <PUBCHEM_FEATURE_SELFOVERLAP>
35.551

> <PUBCHEM_SHAPE_FINGERPRINT>
10498660 4 12679466365212881135
10616163 171 18410572928801058174
11046707 91 18260264144364865434
11543360 7 18272929406242179148
11552529 35 15069480215258976758
11578080 2 18261409835703418608
11769659 78 18409450280162787970
12251169 10 7348888879863257464
12553582 1 18188216394365944158
12596599 1 18118671352497288306
12633257 1 16805876282818394023
12670546 177 16558465262741334062
12707595 3 17603591824403412376
12714826 92 18259987076066746537
12892183 10 6050451422088165614
13103583 49 17825362134632019043
13167823 11 18411416224386497142
13296908 3 17822300084636371016
13760787 19 18339918316058208700
14251751 93 18341617082676218782
14251764 30 17772738383003477435
14576447 43 18341891871064258094
14787075 74 17825674348668132672
15209294 21 6843926061494259198
15239191 94 18187083927606859254
15375462 189 18114742616592898890
16752209 62 18261689154521390159
17804303 29 18187646886229083047
18186145 218 15697991955753920904
18915474 69 18412260623615526990
193927 3 18261663822915295086
19422 9 18411976988259418078
19862831 5 17418100905419477973
200 152 18342174475411282106
20281475 54 18336261254373999835
20291156 8 18334858268783830302
20671657 53 18342171120546270269
20871999 31 18341895216152594288
22094290 60 18413670218575107637
221490 88 18339357457769568066
22646028 28 18333450958641206598
22854114 59 5328742972021383262
23402539 116 16916787422710983388
23402655 69 18059007414899033796
23559900 14 18410020909549928832
27216 239 10663811979803158853
2871803 45 18343023272333661522
3082319 5 18273495688974047632
4214541 1 18340205297077686292
46194498 28 17057533518001905799
465052 167 18042398041694295031
4921388 177 16917058932883805691
5104073 3 18333733550562414834
559249 180 18195815295619687514
633830 44 16558175133811489272
76465 3 17750245720577529471
83771 10 18334010558166501506
9709674 26 18271516576861137770

> <PUBCHEM_SHAPE_MULTIPOLES>
368.42
8.98
2.22
1.17
5.5
0.18
-0.15
4.4
1.51
-1.68
0.05
-0.27
-0.1
-0.21

> <PUBCHEM_SHAPE_SELFOVERLAP>
765.089

> <PUBCHEM_SHAPE_VOLUME>
208.4

> <PUBCHEM_COORDINATE_TYPE>
2
5
10

$$$$

