276457
  -OEChem-07051213093D

 25 27  0     0  0  0  0  0  0999 V2000
    4.8662   -0.3512   -0.0373 O   0  0  0  0  0  0  0  0  0  0  0  0
   -0.3144    1.1783    0.0182 N   0  0  0  0  0  0  0  0  0  0  0  0
    1.3018   -0.7736    0.0043 C   0  0  0  0  0  0  0  0  0  0  0  0
   -1.9046   -0.7748    0.0067 C   0  0  0  0  0  0  0  0  0  0  0  0
    0.8662    0.6543    0.0158 C   0  0  0  0  0  0  0  0  0  0  0  0
   -1.5778    0.5858    0.0055 C   0  0  0  0  0  0  0  0  0  0  0  0
    0.3769   -1.8800    0.0188 C   0  0  0  0  0  0  0  0  0  0  0  0
   -0.9571   -1.8884    0.0218 C   0  0  0  0  0  0  0  0  0  0  0  0
    2.6158   -1.0601   -0.0114 C   0  0  0  0  0  0  0  0  0  0  0  0
    1.9627    1.6720    0.0241 C   0  0  0  0  0  0  0  0  0  0  0  0
   -3.2701   -1.1479   -0.0062 C   0  0  0  0  0  0  0  0  0  0  0  0
   -2.6351    1.5241   -0.0087 C   0  0  0  0  0  0  0  0  0  0  0  0
    3.6809   -0.0403   -0.0165 C   0  0  0  0  0  0  0  0  0  0  0  0
    3.2577    1.3628    0.0079 C   0  0  0  0  0  0  0  0  0  0  0  0
   -4.2942   -0.2031   -0.0210 C   0  0  0  0  0  0  0  0  0  0  0  0
   -3.9748    1.1420   -0.0220 C   0  0  0  0  0  0  0  0  0  0  0  0
    0.8393   -2.8690    0.0289 H   0  0  0  0  0  0  0  0  0  0  0  0
   -1.4137   -2.8788    0.0347 H   0  0  0  0  0  0  0  0  0  0  0  0
    2.9724   -2.0876   -0.0191 H   0  0  0  0  0  0  0  0  0  0  0  0
    1.6657    2.7171    0.0408 H   0  0  0  0  0  0  0  0  0  0  0  0
   -3.5569   -2.1991   -0.0056 H   0  0  0  0  0  0  0  0  0  0  0  0
   -2.4068    2.5898   -0.0095 H   0  0  0  0  0  0  0  0  0  0  0  0
    4.0216    2.1313    0.0118 H   0  0  0  0  0  0  0  0  0  0  0  0
   -5.3318   -0.5219   -0.0311 H   0  0  0  0  0  0  0  0  0  0  0  0
   -4.7578    1.8937   -0.0329 H   0  0  0  0  0  0  0  0  0  0  0  0
  1 13  2  0  0  0  0
  2  5  2  0  0  0  0
  2  6  1  0  0  0  0
  3  5  1  0  0  0  0
  3  7  1  0  0  0  0
  3  9  2  0  0  0  0
  4  6  1  0  0  0  0
  4  8  1  0  0  0  0
  4 11  2  0  0  0  0
  5 10  1  0  0  0  0
  6 12  2  0  0  0  0
  7  8  2  0  0  0  0
  7 17  1  0  0  0  0
  8 18  1  0  0  0  0
  9 13  1  0  0  0  0
  9 19  1  0  0  0  0
 10 14  2  0  0  0  0
 10 20  1  0  0  0  0
 11 15  1  0  0  0  0
 11 21  1  0  0  0  0
 12 16  1  0  0  0  0
 12 22  1  0  0  0  0
 13 14  1  0  0  0  0
 14 23  1  0  0  0  0
 15 16  2  0  0  0  0
 15 24  1  0  0  0  0
 16 25  1  0  0  0  0
M  END
> <PUBCHEM_COMPOUND_CID>
276457

> <PUBCHEM_CONFORMER_RMSD>
0.4

> <PUBCHEM_CONFORMER_DIVERSEORDER>
1

> <PUBCHEM_MMFF94_PARTIAL_CHARGES>
25
1 -0.57
10 -0.14
11 -0.15
12 -0.15
13 0.54
14 -0.14
15 -0.15
16 -0.15
17 0.15
18 0.15
19 0.15
2 -0.63
20 0.15
21 0.15
22 0.15
23 0.15
24 0.15
25 0.15
3 0.01
4 0.03
5 0.42
6 0.18
7 -0.15
8 -0.18
9 -0.14

> <PUBCHEM_EFFECTIVE_ROTOR_COUNT>
0

> <PUBCHEM_PHARMACOPHORE_FEATURES>
5
1 1 acceptor
1 2 acceptor
6 3 5 9 10 13 14 rings
6 4 6 11 12 15 16 rings
7 2 3 4 5 6 7 8 rings

> <PUBCHEM_HEAVY_ATOM_COUNT>
16

> <PUBCHEM_ATOM_DEF_STEREO_COUNT>
0

> <PUBCHEM_ATOM_UDEF_STEREO_COUNT>
0

> <PUBCHEM_BOND_DEF_STEREO_COUNT>
0

> <PUBCHEM_BOND_UDEF_STEREO_COUNT>
0

> <PUBCHEM_ISOTOPIC_ATOM_COUNT>
0

> <PUBCHEM_COMPONENT_COUNT>
1

> <PUBCHEM_CACTVS_TAUTO_COUNT>
1

> <PUBCHEM_CONFORMER_ID>
000437E900000001

> <PUBCHEM_MMFF94_ENERGY>
59.2788

> <PUBCHEM_FEATURE_SELFOVERLAP>
25.386

> <PUBCHEM_SHAPE_FINGERPRINT>
10062212 137 18408896134803081323
10411042 1 15960896894489750466
10608611 8 18410014303710671449
10967382 1 18410575110432889194
11132069 177 18408047298883091946
11471102 20 18410015446171653974
13221675 6 18410856563966619759
13380535 76 18410291415048101599
14144814 61 18411419513962141777
14325111 11 18410575071857551657
15196674 1 18410575050324465540
15309172 13 18409158914082376403
15442244 35 18194120939405453010
15536298 74 18334576828324795240
15775835 57 18342736338247451467
16945 1 18122624955132725431
17802600 8 18410578374618694101
17804303 29 18410007715278169252
18186145 218 18408601495703934381
18522853 276 18335140890685399832
200 152 17967256394865099565
20510252 161 18260827090150063369
21249577 43 18410292505916696455
21267235 1 18410846655540494819
21501502 16 18266460910510773878
21524375 3 18411418414503560231
221490 88 18268703927074134354
2334 1 18410575046230023265
23402539 116 18261119568632220836
23402655 69 18335143128437324597
23463225 33 18413672421829851540
23559900 14 18261112985323088074
25 1 18340208586864223479
2748010 2 18411133619632817119
3004659 81 18271517702860033254
335352 9 18338799025757855926
4214541 1 18410574002474095909
474 4 17130701661685996508
4990 188 18040990761156960894
5104073 3 18410575050340336248
53812653 166 18408606976182203544
54173680 148 18124593081189719811
69090 78 18333454213999609311
7364860 26 18264488575402875046
8809292 202 18271522000892986874
9709674 26 18408879612011269702
9981440 41 17262437302300438696

> <PUBCHEM_SHAPE_MULTIPOLES>
318.42
7.92
1.96
0.61
1.04
0.16
0
-1.1
0.1
-0.17
-0.01
-0.03
0
0.02

> <PUBCHEM_SHAPE_SELFOVERLAP>
706.853

> <PUBCHEM_SHAPE_VOLUME>
165.1

> <PUBCHEM_COORDINATE_TYPE>
2
5
10

$$$$

