62158
  -OEChem-07051213143D

 31 31  0     0  0  0  0  0  0999 V2000
    0.6453   -1.5878    0.6659 O   0  0  0  0  0  0  0  0  0  0  0  0
    4.3363    1.6406    0.9988 O   0  0  0  0  0  0  0  0  0  0  0  0
    2.8477   -2.5815   -0.7501 O   0  0  0  0  0  0  0  0  0  0  0  0
   -4.5046    1.1848   -0.2825 O   0  5  0  0  0  0  0  0  0  0  0  0
   -4.2540   -0.9091    0.3277 O   0  0  0  0  0  0  0  0  0  0  0  0
    1.8051    0.8851   -0.0125 N   0  0  0  0  0  0  0  0  0  0  0  0
   -3.7752    0.2093    0.0197 N   0  3  0  0  0  0  0  0  0  0  0  0
    0.4050    0.7044   -0.0013 C   0  0  0  0  0  0  0  0  0  0  0  0
   -0.1494   -0.5297    0.3383 C   0  0  0  0  0  0  0  0  0  0  0  0
    2.4238    2.1280   -0.3525 C   0  0  0  0  0  0  0  0  0  0  0  0
   -0.4258    1.7744   -0.3338 C   0  0  0  0  0  0  0  0  0  0  0  0
   -1.5344   -0.6939    0.3453 C   0  0  0  0  0  0  0  0  0  0  0  0
   -2.3653    0.3760    0.0126 C   0  0  0  0  0  0  0  0  0  0  0  0
   -1.8109    1.6102   -0.3270 C   0  0  0  0  0  0  0  0  0  0  0  0
    3.9384    2.0009   -0.3175 C   0  0  0  0  0  0  0  0  0  0  0  0
    0.5374   -2.7543   -0.1470 C   0  0  0  0  0  0  0  0  0  0  0  0
    1.8806   -3.4575   -0.1840 C   0  0  0  0  0  0  0  0  0  0  0  0
    2.3772    0.0866    0.2403 H   0  0  0  0  0  0  0  0  0  0  0  0
    2.1224    2.9003    0.3656 H   0  0  0  0  0  0  0  0  0  0  0  0
    2.1315    2.4475   -1.3595 H   0  0  0  0  0  0  0  0  0  0  0  0
   -0.0396    2.7529   -0.6028 H   0  0  0  0  0  0  0  0  0  0  0  0
   -1.9467   -1.6611    0.6225 H   0  0  0  0  0  0  0  0  0  0  0  0
   -2.4276    2.4656   -0.5911 H   0  0  0  0  0  0  0  0  0  0  0  0
   -0.2206   -3.4190    0.2808 H   0  0  0  0  0  0  0  0  0  0  0  0
    0.2411   -2.4819   -1.1682 H   0  0  0  0  0  0  0  0  0  0  0  0
    4.4096    2.9534   -0.5784 H   0  0  0  0  0  0  0  0  0  0  0  0
    4.2863    1.2272   -1.0098 H   0  0  0  0  0  0  0  0  0  0  0  0
    1.8375   -4.3733   -0.7805 H   0  0  0  0  0  0  0  0  0  0  0  0
    2.2174   -3.7056    0.8270 H   0  0  0  0  0  0  0  0  0  0  0  0
    5.3061    1.5692    0.9937 H   0  0  0  0  0  0  0  0  0  0  0  0
    2.5555   -2.3650   -1.6520 H   0  0  0  0  0  0  0  0  0  0  0  0
  1  9  1  0  0  0  0
  1 16  1  0  0  0  0
  2 15  1  0  0  0  0
  2 30  1  0  0  0  0
  3 17  1  0  0  0  0
  3 31  1  0  0  0  0
  4  7  1  0  0  0  0
  5  7  2  0  0  0  0
  6  8  1  0  0  0  0
  6 10  1  0  0  0  0
  6 18  1  0  0  0  0
  7 13  1  0  0  0  0
  8  9  2  0  0  0  0
  8 11  1  0  0  0  0
  9 12  1  0  0  0  0
 10 15  1  0  0  0  0
 10 19  1  0  0  0  0
 10 20  1  0  0  0  0
 11 14  2  0  0  0  0
 11 21  1  0  0  0  0
 12 13  2  0  0  0  0
 12 22  1  0  0  0  0
 13 14  1  0  0  0  0
 14 23  1  0  0  0  0
 15 26  1  0  0  0  0
 15 27  1  0  0  0  0
 16 17  1  0  0  0  0
 16 24  1  0  0  0  0
 16 25  1  0  0  0  0
 17 28  1  0  0  0  0
 17 29  1  0  0  0  0
M  CHG  2   4  -1   7   1
M  END
> <PUBCHEM_COMPOUND_CID>
62158

> <PUBCHEM_CONFORMER_RMSD>
0.8

> <PUBCHEM_CONFORMER_DIVERSEORDER>
1
38
26
24
22
36
28
23
29
11
18
16
20
37
30
19
5
31
25
27
35
7
33
14
34
32
8
10
17
12
13
6
4
21
15
9
2
3

> <PUBCHEM_MMFF94_PARTIAL_CHARGES>
23
1 -0.36
10 0.37
11 -0.15
12 -0.15
13 0.13
14 -0.15
15 0.28
16 0.28
17 0.28
18 0.4
2 -0.68
21 0.15
22 0.15
23 0.15
3 -0.68
30 0.4
31 0.4
4 -0.52
5 -0.52
6 -0.87
7 0.91
8 0.1
9 0.08

> <PUBCHEM_EFFECTIVE_ROTOR_COUNT>
7

> <PUBCHEM_PHARMACOPHORE_FEATURES>
11
1 1 acceptor
1 2 acceptor
1 2 donor
1 3 acceptor
1 3 donor
1 4 acceptor
1 4 anion
1 5 acceptor
1 6 cation
1 6 donor
6 8 9 11 12 13 14 rings

> <PUBCHEM_HEAVY_ATOM_COUNT>
17

> <PUBCHEM_ATOM_DEF_STEREO_COUNT>
0

> <PUBCHEM_ATOM_UDEF_STEREO_COUNT>
0

> <PUBCHEM_BOND_DEF_STEREO_COUNT>
0

> <PUBCHEM_BOND_UDEF_STEREO_COUNT>
0

> <PUBCHEM_ISOTOPIC_ATOM_COUNT>
0

> <PUBCHEM_COMPONENT_COUNT>
1

> <PUBCHEM_CACTVS_TAUTO_COUNT>
1

> <PUBCHEM_CONFORMER_ID>
0000F2CE00000001

> <PUBCHEM_MMFF94_ENERGY>
58.1567

> <PUBCHEM_FEATURE_SELFOVERLAP>
55.907

> <PUBCHEM_SHAPE_FINGERPRINT>
11578080 2 16413247475098609150
11680986 33 18342444959250509091
12500047 106 18120375346517778496
12592029 89 18411416189900087042
12839892 36 18339376157830770042
13380535 76 18271244919662252889
15006816 218 18410855473551094932
15042514 8 18054507998084565026
15502722 9 18410290332774254935
15536298 74 18337107964036926413
15669948 3 17910673160221141068
16945 1 17766568224005010145
193761 8 18124315162393078669
19591789 44 18122623855726774619
20028762 73 17756138986838656231
20645476 183 16843306892811869324
20645477 70 18341339976345841047
20871998 184 17981314595744954082
212916 134 18116731629228380296
21524375 3 18200036127184368160
221490 88 18341321297195837299
22182313 1 18196629852978289867
22213442 358 18050285065927474671
23366157 5 18059006327834249970
23402539 116 18263934245396011036
23419403 2 17843138136190364574
23559900 14 18194407907661308850
23728640 28 18051417271368203290
266924 87 18339644550237279460
2748010 2 18197757960577177490
3071541 12 18339075024725233737
3071541 250 18194112151802073615
352729 6 18125429809300645145
366044 4 18340770317010158952
42630746 31 18408323297771381279
43471831 8 18412263921823063896
474229 33 18196935474650963603
6138700 20 18339355383954901142
69090 78 18268434529609107728
7364860 26 18337391655290517364
81228 2 17259922718763732744
81539 233 18342178855819020718
84936 31 17677910091747344134

> <PUBCHEM_SHAPE_MULTIPOLES>
310.54
7.01
3.62
0.73
2.27
3.35
0.03
-3.47
0.26
-3.94
-0.53
-0.3
-0.01
0.67

> <PUBCHEM_SHAPE_SELFOVERLAP>
632.01

> <PUBCHEM_SHAPE_VOLUME>
180.5

> <PUBCHEM_COORDINATE_TYPE>
2
5
10

$$$$

