440889
  -OEChem-07051212513D

 18 17  0     1  0  0  0  0  0999 V2000
   -0.3216   -1.4184    0.9245 O   0  0  0  0  0  0  0  0  0  0  0  0
    2.3739    1.2294    0.7279 O   0  0  0  0  0  0  0  0  0  0  0  0
   -2.1909    1.4729   -0.0560 O   0  0  0  0  0  0  0  0  0  0  0  0
    2.5727   -0.8774   -0.1071 O   0  0  0  0  0  0  0  0  0  0  0  0
   -2.7559   -0.7300   -0.0089 O   0  0  0  0  0  0  0  0  0  0  0  0
    0.5127    0.3853   -0.4664 C   0  0  2  0  0  0  0  0  0  0  0  0
   -0.4999   -0.0457    0.6064 C   0  0  1  0  0  0  0  0  0  0  0  0
    0.3156   -0.3185   -1.8107 C   0  0  0  0  0  0  0  0  0  0  0  0
    1.9212    0.1457    0.0463 C   0  0  0  0  0  0  0  0  0  0  0  0
   -1.9278    0.1567    0.1440 C   0  0  0  0  0  0  0  0  0  0  0  0
    0.4072    1.4611   -0.6603 H   0  0  0  0  0  0  0  0  0  0  0  0
   -0.3546    0.5157    1.5358 H   0  0  0  0  0  0  0  0  0  0  0  0
    0.4258   -1.4046   -1.7289 H   0  0  0  0  0  0  0  0  0  0  0  0
   -0.6689   -0.1037   -2.2375 H   0  0  0  0  0  0  0  0  0  0  0  0
    1.0678    0.0236   -2.5310 H   0  0  0  0  0  0  0  0  0  0  0  0
   -0.5093   -1.9476    0.1317 H   0  0  0  0  0  0  0  0  0  0  0  0
    3.2812    1.0907    1.0742 H   0  0  0  0  0  0  0  0  0  0  0  0
   -3.1166    1.6212   -0.3448 H   0  0  0  0  0  0  0  0  0  0  0  0
  1  7  1  0  0  0  0
  1 16  1  0  0  0  0
  2  9  1  0  0  0  0
  2 17  1  0  0  0  0
  3 10  1  0  0  0  0
  3 18  1  0  0  0  0
  4  9  2  0  0  0  0
  5 10  2  0  0  0  0
  6  7  1  0  0  0  0
  6  8  1  0  0  0  0
  6  9  1  0  0  0  0
  6 11  1  0  0  0  0
  7 10  1  0  0  0  0
  7 12  1  0  0  0  0
  8 13  1  0  0  0  0
  8 14  1  0  0  0  0
  8 15  1  0  0  0  0
M  END
> <PUBCHEM_COMPOUND_CID>
440889

> <PUBCHEM_CONFORMER_RMSD>
0.6

> <PUBCHEM_CONFORMER_DIVERSEORDER>
1
5
6
4
11
7
9
2
8
10
12
3

> <PUBCHEM_MMFF94_PARTIAL_CHARGES>
12
1 -0.68
10 0.66
16 0.4
17 0.5
18 0.5
2 -0.65
3 -0.65
4 -0.57
5 -0.57
6 0.06
7 0.34
9 0.66

> <PUBCHEM_EFFECTIVE_ROTOR_COUNT>
3

> <PUBCHEM_PHARMACOPHORE_FEATURES>
9
1 1 acceptor
1 1 donor
1 2 acceptor
1 3 acceptor
1 4 acceptor
1 5 acceptor
1 8 hydrophobe
3 2 4 9 anion
3 3 5 10 anion

> <PUBCHEM_HEAVY_ATOM_COUNT>
10

> <PUBCHEM_ATOM_DEF_STEREO_COUNT>
2

> <PUBCHEM_ATOM_UDEF_STEREO_COUNT>
0

> <PUBCHEM_BOND_DEF_STEREO_COUNT>
0

> <PUBCHEM_BOND_UDEF_STEREO_COUNT>
0

> <PUBCHEM_ISOTOPIC_ATOM_COUNT>
0

> <PUBCHEM_COMPONENT_COUNT>
1

> <PUBCHEM_CACTVS_TAUTO_COUNT>
1

> <PUBCHEM_CONFORMER_ID>
0006BA3900000001

> <PUBCHEM_MMFF94_ENERGY>
9.1173

> <PUBCHEM_FEATURE_SELFOVERLAP>
45.791

> <PUBCHEM_SHAPE_FINGERPRINT>
12897270 3 17022899068771418361
12932764 1 18333723619949179127
14993402 34 16773791480872958438
15310529 11 18113624451753130384
19973954 147 18334292080340873344
21040471 1 18059847376688069738
23211744 41 18260828198188042409
23235687 12 17749098998378773269
29004967 10 16733255820246410843
369184 2 18334575733023719377
5084963 1 18335416872135266209

> <PUBCHEM_SHAPE_MULTIPOLES>
176.45
3.56
1.19
1.13
0.2
0.19
0.35
0.41
-0.36
-0.04
-0.05
-0.07
-0.33
0.31

> <PUBCHEM_SHAPE_SELFOVERLAP>
341.717

> <PUBCHEM_SHAPE_VOLUME>
106.5

> <PUBCHEM_COORDINATE_TYPE>
2
5
10

$$$$

