441675
  -OEChem-07051212553D

 84 87  0     1  0  0  0  0  0999 V2000
    7.6126    0.9610    0.6697 O   0  0  0  0  0  0  0  0  0  0  0  0
   -3.3612    2.1054   -0.0293 O   0  0  0  0  0  0  0  0  0  0  0  0
    1.1767   -0.8872   -0.3182 C   0  0  1  0  0  0  0  0  0  0  0  0
   -0.2435   -0.9755    0.4190 C   0  0  1  0  0  0  0  0  0  0  0  0
    1.8641    0.4799    0.1164 C   0  0  1  0  0  0  0  0  0  0  0  0
    3.3861    0.6648   -0.3184 C   0  0  2  0  0  0  0  0  0  0  0  0
   -1.0952    0.2571    0.0188 C   0  0  1  0  0  0  0  0  0  0  0  0
    4.1716   -0.6043    0.1951 C   0  0  1  0  0  0  0  0  0  0  0  0
    2.0972   -2.0674    0.0873 C   0  0  0  0  0  0  0  0  0  0  0  0
    0.9473    1.7070   -0.1523 C   0  0  0  0  0  0  0  0  0  0  0  0
   -2.5023   -0.0552    0.5438 C   0  0  2  0  0  0  0  0  0  0  0  0
   -1.2152   -2.0976   -0.0144 C   0  0  0  0  0  0  0  0  0  0  0  0
   -0.4580    1.5660    0.4564 C   0  0  0  0  0  0  0  0  0  0  0  0
    3.5591   -1.9118   -0.3512 C   0  0  0  0  0  0  0  0  0  0  0  0
    5.7415   -0.5247    0.1113 C   0  0  0  0  0  0  0  0  0  0  0  0
   -2.6208   -1.5851    0.3673 C   0  0  0  0  0  0  0  0  0  0  0  0
    3.9730    1.9117    0.4138 C   0  0  0  0  0  0  0  0  0  0  0  0
    0.9921   -0.9736   -1.8610 C   0  0  0  0  0  0  0  0  0  0  0  0
   -0.0901   -1.1081    1.9709 C   0  0  0  0  0  0  0  0  0  0  0  0
    3.5249    0.9127   -1.8388 C   0  0  0  0  0  0  0  0  0  0  0  0
    6.2054    0.7787    0.8246 C   0  0  2  0  0  0  0  0  0  0  0  0
   -3.6017    0.7032   -0.1889 C   0  0  1  0  0  0  0  0  0  0  0  0
    5.4931    2.0338    0.3329 C   0  0  0  0  0  0  0  0  0  0  0  0
    6.2964   -0.6098   -1.3249 C   0  0  0  0  0  0  0  0  0  0  0  0
    6.3728   -1.7162    0.8844 C   0  0  0  0  0  0  0  0  0  0  0  0
   -4.9826    0.3543    0.4134 C   0  0  0  0  0  0  0  0  0  0  0  0
   -3.5342    0.4012   -1.6897 C   0  0  0  0  0  0  0  0  0  0  0  0
   -6.1615    1.1226   -0.1969 C   0  0  0  0  0  0  0  0  0  0  0  0
   -7.4493    0.7787    0.4997 C   0  0  0  0  0  0  0  0  0  0  0  0
   -8.3479   -0.1604    0.1481 C   0  0  0  0  0  0  0  0  0  0  0  0
   -9.6208   -0.4562    0.8897 C   0  0  0  0  0  0  0  0  0  0  0  0
   -8.1297   -1.0049   -1.0786 C   0  0  0  0  0  0  0  0  0  0  0  0
    1.9342    0.4387    1.2109 H   0  0  0  0  0  0  0  0  0  0  0  0
   -1.1269    0.2845   -1.0695 H   0  0  0  0  0  0  0  0  0  0  0  0
    3.9723   -0.6395    1.2800 H   0  0  0  0  0  0  0  0  0  0  0  0
    1.6996   -3.0095   -0.3105 H   0  0  0  0  0  0  0  0  0  0  0  0
    2.1184   -2.1833    1.1752 H   0  0  0  0  0  0  0  0  0  0  0  0
    0.8427    1.8832   -1.2275 H   0  0  0  0  0  0  0  0  0  0  0  0
    1.3911    2.6151    0.2676 H   0  0  0  0  0  0  0  0  0  0  0  0
   -2.5531    0.2049    1.6093 H   0  0  0  0  0  0  0  0  0  0  0  0
   -0.9943   -3.0613    0.4563 H   0  0  0  0  0  0  0  0  0  0  0  0
   -1.2141   -2.2593   -1.0948 H   0  0  0  0  0  0  0  0  0  0  0  0
   -0.3980    1.6282    1.5486 H   0  0  0  0  0  0  0  0  0  0  0  0
   -1.0440    2.4284    0.1285 H   0  0  0  0  0  0  0  0  0  0  0  0
    4.0934   -2.7814    0.0432 H   0  0  0  0  0  0  0  0  0  0  0  0
    3.6501   -1.9773   -1.4381 H   0  0  0  0  0  0  0  0  0  0  0  0
   -3.3584   -1.9326   -0.3591 H   0  0  0  0  0  0  0  0  0  0  0  0
   -2.9211   -2.0273    1.3259 H   0  0  0  0  0  0  0  0  0  0  0  0
    3.6922    1.8799    1.4749 H   0  0  0  0  0  0  0  0  0  0  0  0
    3.5406    2.8332    0.0062 H   0  0  0  0  0  0  0  0  0  0  0  0
    1.9363   -1.0520   -2.3968 H   0  0  0  0  0  0  0  0  0  0  0  0
    0.4493   -1.8750   -2.1566 H   0  0  0  0  0  0  0  0  0  0  0  0
    0.4713   -0.1129   -2.2854 H   0  0  0  0  0  0  0  0  0  0  0  0
   -1.0469   -1.0656    2.4998 H   0  0  0  0  0  0  0  0  0  0  0  0
    0.3424   -2.0760    2.2438 H   0  0  0  0  0  0  0  0  0  0  0  0
    0.5289   -0.3278    2.4162 H   0  0  0  0  0  0  0  0  0  0  0  0
    4.3568    1.5779   -2.0837 H   0  0  0  0  0  0  0  0  0  0  0  0
    3.6993   -0.0032   -2.4053 H   0  0  0  0  0  0  0  0  0  0  0  0
    2.6437    1.4007   -2.2617 H   0  0  0  0  0  0  0  0  0  0  0  0
    6.0118    0.6921    1.9025 H   0  0  0  0  0  0  0  0  0  0  0  0
    5.8206    2.2836   -0.6820 H   0  0  0  0  0  0  0  0  0  0  0  0
    5.8169    2.8883    0.9416 H   0  0  0  0  0  0  0  0  0  0  0  0
    5.8853   -1.4685   -1.8650 H   0  0  0  0  0  0  0  0  0  0  0  0
    7.3862   -0.7336   -1.3206 H   0  0  0  0  0  0  0  0  0  0  0  0
    6.0959    0.2872   -1.9114 H   0  0  0  0  0  0  0  0  0  0  0  0
    5.9858   -1.7746    1.9077 H   0  0  0  0  0  0  0  0  0  0  0  0
    7.4631   -1.6338    0.9479 H   0  0  0  0  0  0  0  0  0  0  0  0
    6.1731   -2.6734    0.3925 H   0  0  0  0  0  0  0  0  0  0  0  0
   -5.1781   -0.7207    0.3201 H   0  0  0  0  0  0  0  0  0  0  0  0
   -4.9575    0.5780    1.4891 H   0  0  0  0  0  0  0  0  0  0  0  0
   -4.3461    0.9120   -2.2198 H   0  0  0  0  0  0  0  0  0  0  0  0
   -2.6440    0.8159   -2.1713 H   0  0  0  0  0  0  0  0  0  0  0  0
   -3.6196   -0.6566   -1.9447 H   0  0  0  0  0  0  0  0  0  0  0  0
    8.0628    0.3537    1.2798 H   0  0  0  0  0  0  0  0  0  0  0  0
   -3.9329    2.5896   -0.6482 H   0  0  0  0  0  0  0  0  0  0  0  0
   -6.2478    0.9495   -1.2722 H   0  0  0  0  0  0  0  0  0  0  0  0
   -6.0088    2.2024   -0.0833 H   0  0  0  0  0  0  0  0  0  0  0  0
   -7.6496    1.3581    1.3999 H   0  0  0  0  0  0  0  0  0  0  0  0
   -9.6232   -1.4906    1.2477 H   0  0  0  0  0  0  0  0  0  0  0  0
   -9.7426    0.1990    1.7585 H   0  0  0  0  0  0  0  0  0  0  0  0
  -10.4862   -0.3088    0.2356 H   0  0  0  0  0  0  0  0  0  0  0  0
   -7.1160   -0.9639   -1.4829 H   0  0  0  0  0  0  0  0  0  0  0  0
   -8.8257   -0.7044   -1.8686 H   0  0  0  0  0  0  0  0  0  0  0  0
   -8.3191   -2.0583   -0.8426 H   0  0  0  0  0  0  0  0  0  0  0  0
  1 21  1  0  0  0  0
  1 74  1  0  0  0  0
  2 22  1  0  0  0  0
  2 75  1  0  0  0  0
  3  4  1  0  0  0  0
  3  5  1  0  0  0  0
  3  9  1  0  0  0  0
  3 18  1  0  0  0  0
  4  7  1  0  0  0  0
  4 12  1  0  0  0  0
  4 19  1  0  0  0  0
  5  6  1  0  0  0  0
  5 10  1  0  0  0  0
  5 33  1  0  0  0  0
  6  8  1  0  0  0  0
  6 17  1  0  0  0  0
  6 20  1  0  0  0  0
  7 11  1  0  0  0  0
  7 13  1  0  0  0  0
  7 34  1  0  0  0  0
  8 14  1  0  0  0  0
  8 15  1  0  0  0  0
  8 35  1  0  0  0  0
  9 14  1  0  0  0  0
  9 36  1  0  0  0  0
  9 37  1  0  0  0  0
 10 13  1  0  0  0  0
 10 38  1  0  0  0  0
 10 39  1  0  0  0  0
 11 16  1  0  0  0  0
 11 22  1  0  0  0  0
 11 40  1  0  0  0  0
 12 16  1  0  0  0  0
 12 41  1  0  0  0  0
 12 42  1  0  0  0  0
 13 43  1  0  0  0  0
 13 44  1  0  0  0  0
 14 45  1  0  0  0  0
 14 46  1  0  0  0  0
 15 21  1  0  0  0  0
 15 24  1  0  0  0  0
 15 25  1  0  0  0  0
 16 47  1  0  0  0  0
 16 48  1  0  0  0  0
 17 23  1  0  0  0  0
 17 49  1  0  0  0  0
 17 50  1  0  0  0  0
 18 51  1  0  0  0  0
 18 52  1  0  0  0  0
 18 53  1  0  0  0  0
 19 54  1  0  0  0  0
 19 55  1  0  0  0  0
 19 56  1  0  0  0  0
 20 57  1  0  0  0  0
 20 58  1  0  0  0  0
 20 59  1  0  0  0  0
 21 23  1  0  0  0  0
 21 60  1  0  0  0  0
 22 26  1  0  0  0  0
 22 27  1  0  0  0  0
 23 61  1  0  0  0  0
 23 62  1  0  0  0  0
 24 63  1  0  0  0  0
 24 64  1  0  0  0  0
 24 65  1  0  0  0  0
 25 66  1  0  0  0  0
 25 67  1  0  0  0  0
 25 68  1  0  0  0  0
 26 28  1  0  0  0  0
 26 69  1  0  0  0  0
 26 70  1  0  0  0  0
 27 71  1  0  0  0  0
 27 72  1  0  0  0  0
 27 73  1  0  0  0  0
 28 29  1  0  0  0  0
 28 76  1  0  0  0  0
 28 77  1  0  0  0  0
 29 30  2  0  0  0  0
 29 78  1  0  0  0  0
 30 31  1  0  0  0  0
 30 32  1  0  0  0  0
 31 79  1  0  0  0  0
 31 80  1  0  0  0  0
 31 81  1  0  0  0  0
 32 82  1  0  0  0  0
 32 83  1  0  0  0  0
 32 84  1  0  0  0  0
M  END
> <PUBCHEM_COMPOUND_CID>
441675

> <PUBCHEM_CONFORMER_RMSD>
0.8

> <PUBCHEM_CONFORMER_DIVERSEORDER>
1
12
9
7
4
10
11
8
6
3
14
2
13
5
15

> <PUBCHEM_MMFF94_PARTIAL_CHARGES>
12
1 -0.68
2 -0.68
21 0.28
22 0.28
28 0.14
29 -0.29
30 -0.28
31 0.14
32 0.14
74 0.4
75 0.4
78 0.15

> <PUBCHEM_EFFECTIVE_ROTOR_COUNT>
6.2

> <PUBCHEM_PHARMACOPHORE_FEATURES>
10
1 1 acceptor
1 1 donor
1 2 acceptor
1 2 donor
3 15 24 25 hydrophobe
3 30 31 32 hydrophobe
5 4 7 11 12 16 rings
6 3 4 5 7 10 13 rings
6 3 5 6 8 9 14 rings
6 6 8 15 17 21 23 rings

> <PUBCHEM_HEAVY_ATOM_COUNT>
32

> <PUBCHEM_ATOM_DEF_STEREO_COUNT>
9

> <PUBCHEM_ATOM_UDEF_STEREO_COUNT>
0

> <PUBCHEM_BOND_DEF_STEREO_COUNT>
0

> <PUBCHEM_BOND_UDEF_STEREO_COUNT>
0

> <PUBCHEM_ISOTOPIC_ATOM_COUNT>
0

> <PUBCHEM_COMPONENT_COUNT>
1

> <PUBCHEM_CACTVS_TAUTO_COUNT>
1

> <PUBCHEM_CONFORMER_ID>
0006BD4B00000001

> <PUBCHEM_MMFF94_ENERGY>
148.0319

> <PUBCHEM_FEATURE_SELFOVERLAP>
50.824

> <PUBCHEM_SHAPE_FINGERPRINT>
10 15 17988924439995606361
10162869 55 18343306929681149671
10299344 5 17821729430007278231
11135926 11 18343308068312102855
11456790 92 18335703879056391208
11578080 2 17024895670397392346
12236239 1 17458065979798702228
12633257 1 16845293800944601094
13533116 47 18129946801475120442
13692114 37 17418371368406654171
13811026 1 18409446994380970283
14170010 4 18343018899972343852
14251764 18 18412545414211726247
14394314 77 18261667199145342401
14849402 71 18187643575427256601
15183329 4 18408316700706830985
15301273 46 11959731568840807485
15840311 113 18410008823865249508
15849732 13 16630524033732014047
18335252 98 18408319974463895219
18608769 82 18410857630030943987
19611394 137 17916852514769949449
20157964 124 18261110785888453870
21033648 29 18263938648649684088
21150785 3 17676205763141066787
21267235 1 18336261335730451951
21781051 124 17917134023499730139
22149856 69 17386276705838362995
22224240 67 17847062181895091899
23559900 14 18410295775262859544
23569917 315 18338791316598644715
23569943 247 17464236593821460134
25019877 29 18261109682419593495
2838139 119 18409457989466047884
335352 9 18411415112227253558
34797466 226 17313099756970239444
4073 2 18201997677340237154
4093350 32 17313100877887787868
4098825 35 18259707796377454375
4149490 64 17894628175451591414
4325135 7 18409730660582370663
4340502 62 17917993888505033570
5104073 3 18412260615167959538

> <PUBCHEM_SHAPE_MULTIPOLES>
646.81
22.9
2.07
1.28
36.78
0.04
-0.34
-1.18
2.22
-1.69
0.16
-0.3
0.18
0.13

> <PUBCHEM_SHAPE_SELFOVERLAP>
1340.02

> <PUBCHEM_SHAPE_VOLUME>
371.3

> <PUBCHEM_COORDINATE_TYPE>
2
5
10

$$$$

