11954143
  -OEChem-07051213072D

 82 87  0     1  0  0  0  0  0999 V2000
    9.8067    1.9635    0.0000 O   0  0  0  0  0  0  0  0  0  0  0  0
    2.5357   -2.5732    0.0000 O   0  0  0  0  0  0  0  0  0  0  0  0
    8.3092   -0.3814    0.0000 C   0  0  1  0  0  0  0  0  0  0  0  0
    7.3738   -0.9311    0.0000 C   0  0  1  0  0  0  0  0  0  0  0  0
    8.3172    0.6602    0.0000 C   0  0  3  0  0  0  0  0  0  0  0  0
    9.2273    1.1670    0.0000 C   0  0  2  0  0  0  0  0  0  0  0  0
    6.4342   -0.3886    0.0000 C   0  0  1  0  0  0  0  0  0  0  0  0
   10.0933    0.6670    0.0000 C   0  0  1  0  0  0  0  0  0  0  0  0
    5.4468   -0.9385    0.0000 C   0  0  2  0  0  0  0  0  0  0  0  0
    9.2113   -0.9022    0.0000 C   0  0  0  0  0  0  0  0  0  0  0  0
    9.2273    2.1670    0.0000 C   0  0  3  0  0  0  0  0  0  0  0  0
    5.4381   -2.0687    0.0000 C   0  0  1  0  0  0  0  0  0  0  0  0
    7.3904    1.2243    0.0000 C   0  0  0  0  0  0  0  0  0  0  0  0
    6.4425    0.6963    0.0000 C   0  0  0  0  0  0  0  0  0  0  0  0
   10.1093   -0.3745    0.0000 C   0  0  0  0  0  0  0  0  0  0  0  0
    7.3912   -2.0612    0.0000 C   0  0  0  0  0  0  0  0  0  0  0  0
    6.4169   -2.6338    0.0000 C   0  0  0  0  0  0  0  0  0  0  0  0
   10.9593    1.1670    0.0000 C   0  0  0  0  0  0  0  0  0  0  0  0
   10.0933    2.6670    0.0000 C   0  0  0  0  0  0  0  0  0  0  0  0
   10.2067    1.2706    0.0000 C   0  0  0  0  0  0  0  0  0  0  0  0
    8.6441   -1.3237    0.0000 C   0  0  0  0  0  0  0  0  0  0  0  0
    4.4232   -2.6651    0.0000 C   0  0  0  0  0  0  0  0  0  0  0  0
    8.0166   -1.6972    0.0000 C   0  0  0  0  0  0  0  0  0  0  0  0
    4.4412   -0.3265    0.0000 C   0  0  0  0  0  0  0  0  0  0  0  0
   10.9593    2.1670    0.0000 C   0  0  0  0  0  0  0  0  0  0  0  0
    5.4545    0.0614    0.0000 C   0  0  0  0  0  0  0  0  0  0  0  0
    3.4037   -2.0765    0.0000 C   0  0  2  0  0  0  0  0  0  0  0  0
    3.4128   -0.8993    0.0000 C   0  0  0  0  0  0  0  0  0  0  0  0
   10.5933    3.5331    0.0000 C   0  0  0  0  0  0  0  0  0  0  0  0
    9.5933    3.5331    0.0000 C   0  0  0  0  0  0  0  0  0  0  0  0
    3.9265   -3.5331    0.0000 C   0  0  0  0  0  0  0  0  0  0  0  0
    4.9265   -3.5292    0.0000 C   0  0  0  0  0  0  0  0  0  0  0  0
    8.3336    1.5100    0.0000 H   0  0  0  0  0  0  0  0  0  0  0  0
    8.4911    1.5920    0.0000 H   0  0  0  0  0  0  0  0  0  0  0  0
    7.1719    0.0335    0.0000 H   0  0  0  0  0  0  0  0  0  0  0  0
    8.8140   -1.3782    0.0000 H   0  0  0  0  0  0  0  0  0  0  0  0
    9.6123   -1.3751    0.0000 H   0  0  0  0  0  0  0  0  0  0  0  0
    8.4911    2.5920    0.0000 H   0  0  0  0  0  0  0  0  0  0  0  0
    5.4414   -2.9187    0.0000 H   0  0  0  0  0  0  0  0  0  0  0  0
    7.7986    1.6909    0.0000 H   0  0  0  0  0  0  0  0  0  0  0  0
    7.0005    1.7063    0.0000 H   0  0  0  0  0  0  0  0  0  0  0  0
    6.2380    1.2816    0.0000 H   0  0  0  0  0  0  0  0  0  0  0  0
    5.8309    0.5950    0.0000 H   0  0  0  0  0  0  0  0  0  0  0  0
   10.3274   -0.9549    0.0000 H   0  0  0  0  0  0  0  0  0  0  0  0
   10.7185   -0.2590    0.0000 H   0  0  0  0  0  0  0  0  0  0  0  0
    7.6092   -2.6416    0.0000 H   0  0  0  0  0  0  0  0  0  0  0  0
    8.0004   -1.9456    0.0000 H   0  0  0  0  0  0  0  0  0  0  0  0
    6.0196   -3.1097    0.0000 H   0  0  0  0  0  0  0  0  0  0  0  0
    6.8178   -3.1066    0.0000 H   0  0  0  0  0  0  0  0  0  0  0  0
   11.1714    0.5844    0.0000 H   0  0  0  0  0  0  0  0  0  0  0  0
   11.5699    1.2747    0.0000 H   0  0  0  0  0  0  0  0  0  0  0  0
   10.7586    0.9883    0.0000 H   0  0  0  0  0  0  0  0  0  0  0  0
   10.6338    1.7200    0.0000 H   0  0  0  0  0  0  0  0  0  0  0  0
    8.0599   -1.5313    0.0000 H   0  0  0  0  0  0  0  0  0  0  0  0
    8.8517   -1.9079    0.0000 H   0  0  0  0  0  0  0  0  0  0  0  0
    9.2283   -1.1160    0.0000 H   0  0  0  0  0  0  0  0  0  0  0  0
    7.5416   -2.0957    0.0000 H   0  0  0  0  0  0  0  0  0  0  0  0
    8.4151   -2.1721    0.0000 H   0  0  0  0  0  0  0  0  0  0  0  0
    8.4915   -1.2986    0.0000 H   0  0  0  0  0  0  0  0  0  0  0  0
    4.8494    0.1401    0.0000 H   0  0  0  0  0  0  0  0  0  0  0  0
    4.0513    0.1555    0.0000 H   0  0  0  0  0  0  0  0  0  0  0  0
   11.5699    2.0594    0.0000 H   0  0  0  0  0  0  0  0  0  0  0  0
   11.1714    2.7497    0.0000 H   0  0  0  0  0  0  0  0  0  0  0  0
    6.0745    0.0566    0.0000 H   0  0  0  0  0  0  0  0  0  0  0  0
    5.4593    0.6814    0.0000 H   0  0  0  0  0  0  0  0  0  0  0  0
    4.8346    0.0662    0.0000 H   0  0  0  0  0  0  0  0  0  0  0  0
    3.4025   -2.6965    0.0000 H   0  0  0  0  0  0  0  0  0  0  0  0
    3.2082   -0.3141    0.0000 H   0  0  0  0  0  0  0  0  0  0  0  0
    2.8011   -1.0007    0.0000 H   0  0  0  0  0  0  0  0  0  0  0  0
   11.1302    3.2231    0.0000 H   0  0  0  0  0  0  0  0  0  0  0  0
   10.9033    4.0700    0.0000 H   0  0  0  0  0  0  0  0  0  0  0  0
   10.0563    3.8431    0.0000 H   0  0  0  0  0  0  0  0  0  0  0  0
   10.1302    3.8431    0.0000 H   0  0  0  0  0  0  0  0  0  0  0  0
    9.2833    4.0700    0.0000 H   0  0  0  0  0  0  0  0  0  0  0  0
    9.0563    3.2231    0.0000 H   0  0  0  0  0  0  0  0  0  0  0  0
    3.3884   -3.2252    0.0000 H   0  0  0  0  0  0  0  0  0  0  0  0
    3.6186   -4.0712    0.0000 H   0  0  0  0  0  0  0  0  0  0  0  0
    4.4646   -3.8410    0.0000 H   0  0  0  0  0  0  0  0  0  0  0  0
    4.3908   -3.8413    0.0000 H   0  0  0  0  0  0  0  0  0  0  0  0
    5.2386   -4.0650    0.0000 H   0  0  0  0  0  0  0  0  0  0  0  0
    5.4622   -3.2172    0.0000 H   0  0  0  0  0  0  0  0  0  0  0  0
    2.0000   -2.2611    0.0000 H   0  0  0  0  0  0  0  0  0  0  0  0
  1 11  1  0  0  0  0
  1 20  1  0  0  0  0
 27  2  1  1  0  0  0
  2 82  1  0  0  0  0
  3  4  1  0  0  0  0
  3  5  1  0  0  0  0
  3 10  1  0  0  0  0
  3 21  1  6  0  0  0
  4  7  1  0  0  0  0
  4 16  1  0  0  0  0
  4 23  1  1  0  0  0
  5  6  1  0  0  0  0
  5 13  1  0  0  0  0
  5 33  1  0  0  0  0
  6  8  1  0  0  0  0
  6 11  1  0  0  0  0
  6 34  1  6  0  0  0
  7  9  1  0  0  0  0
  7 14  1  0  0  0  0
  7 35  1  6  0  0  0
  8 15  1  1  0  0  0
  8 18  1  0  0  0  0
  8 20  1  0  0  0  0
  9 12  1  0  0  0  0
  9 24  1  0  0  0  0
  9 26  1  1  0  0  0
 10 15  1  0  0  0  0
 10 36  1  0  0  0  0
 10 37  1  0  0  0  0
 11 19  1  0  0  0  0
 11 38  1  0  0  0  0
 12 17  1  0  0  0  0
 12 22  1  0  0  0  0
 12 39  1  6  0  0  0
 13 14  1  0  0  0  0
 13 40  1  0  0  0  0
 13 41  1  0  0  0  0
 14 42  1  0  0  0  0
 14 43  1  0  0  0  0
 15 44  1  0  0  0  0
 15 45  1  0  0  0  0
 16 17  1  0  0  0  0
 16 46  1  0  0  0  0
 16 47  1  0  0  0  0
 17 48  1  0  0  0  0
 17 49  1  0  0  0  0
 18 25  1  0  0  0  0
 18 50  1  0  0  0  0
 18 51  1  0  0  0  0
 19 25  1  0  0  0  0
 19 29  1  0  0  0  0
 19 30  1  0  0  0  0
 20 52  1  0  0  0  0
 20 53  1  0  0  0  0
 21 54  1  0  0  0  0
 21 55  1  0  0  0  0
 21 56  1  0  0  0  0
 22 27  1  0  0  0  0
 22 31  1  0  0  0  0
 22 32  1  0  0  0  0
 23 57  1  0  0  0  0
 23 58  1  0  0  0  0
 23 59  1  0  0  0  0
 24 28  1  0  0  0  0
 24 60  1  0  0  0  0
 24 61  1  0  0  0  0
 25 62  1  0  0  0  0
 25 63  1  0  0  0  0
 26 64  1  0  0  0  0
 26 65  1  0  0  0  0
 26 66  1  0  0  0  0
 27 28  1  0  0  0  0
 27 67  1  0  0  0  0
 28 68  1  0  0  0  0
 28 69  1  0  0  0  0
 29 70  1  0  0  0  0
 29 71  1  0  0  0  0
 29 72  1  0  0  0  0
 30 73  1  0  0  0  0
 30 74  1  0  0  0  0
 30 75  1  0  0  0  0
 31 76  1  0  0  0  0
 31 77  1  0  0  0  0
 31 78  1  0  0  0  0
 32 79  1  0  0  0  0
 32 80  1  0  0  0  0
 32 81  1  0  0  0  0
M  END
> <PUBCHEM_COMPOUND_CID>
11954143

> <PUBCHEM_COMPOUND_CANONICALIZED>
1

> <PUBCHEM_CACTVS_COMPLEXITY>
801

> <PUBCHEM_CACTVS_HBOND_ACCEPTOR>
2

> <PUBCHEM_CACTVS_HBOND_DONOR>
1

> <PUBCHEM_CACTVS_ROTATABLE_BOND>
0

> <PUBCHEM_CACTVS_SUBSKEYS>
AAADcfB4MAAAAAAAAAAAAAAAAAAAASAAAAAwYMGDBIAAAEjAAAAAGgAACAAADxSggAICAAAABgAAAAAAAAAAAAAAAAAAAAAAAAAAEAIAAAACQAAEAAAAAAGAwPAPgAAAAAAAAADAAAYAADAAAAAAAAAAAA==

> <PUBCHEM_IUPAC_INCHI>
InChI=1S/C30H50O2/c1-25(2)14-16-30-17-15-28(6)19(23(30)24(25)32-18-30)8-9-21-27(5)12-11-22(31)26(3,4)20(27)10-13-29(21,28)7/h19-24,31H,8-18H2,1-7H3/t19?,20-,21+,22-,23-,24?,27-,28+,29+,30+/m0/s1

> <PUBCHEM_IUPAC_INCHIKEY>
BZNIIOGSANMIET-MZWAYPSQSA-N

> <PUBCHEM_XLOGP3_AA>
8.1

> <PUBCHEM_EXACT_MASS>
442.381081

> <PUBCHEM_MOLECULAR_FORMULA>
C30H50O2

> <PUBCHEM_MOLECULAR_WEIGHT>
442.7168

> <PUBCHEM_OPENEYE_CAN_SMILES>
CC1(CCC23CCC4(C(C2C1OC3)CCC5C4(CCC6C5(CCC(C6(C)C)O)C)C)C)C

> <PUBCHEM_OPENEYE_ISO_SMILES>
C[C@]12CC[C@@H](C([C@@H]1CC[C@@]3([C@@H]2CCC4[C@]3(CC[C@]56[C@@H]4C(C(CC5)(C)C)OC6)C)C)(C)C)O

> <PUBCHEM_CACTVS_TPSA>
29.5

> <PUBCHEM_MONOISOTOPIC_WEIGHT>
442.381081

> <PUBCHEM_TOTAL_CHARGE>
0

> <PUBCHEM_HEAVY_ATOM_COUNT>
32

> <PUBCHEM_ATOM_DEF_STEREO_COUNT>
8

> <PUBCHEM_ATOM_UDEF_STEREO_COUNT>
2

> <PUBCHEM_BOND_DEF_STEREO_COUNT>
0

> <PUBCHEM_BOND_UDEF_STEREO_COUNT>
0

> <PUBCHEM_ISOTOPIC_ATOM_COUNT>
0

> <PUBCHEM_COMPONENT_COUNT>
1

> <PUBCHEM_CACTVS_TAUTO_COUNT>
1

> <PUBCHEM_COORDINATE_TYPE>
1
5
255

> <PUBCHEM_BONDANNOTATIONS>
11  38  3
12  39  6
27  2  5
3  21  6
4  23  5
5  33  3
6  34  6
7  35  6
8  15  5
9  26  5

$$$$

