4856
  -OEChem-06261200223D

 36 38  0     1  0  0  0  0  0999 V2000
   -2.4632    1.5938   -0.6284 S   0  0  0  0  0  0  0  0  0  0  0  0
   -2.0732    1.5023   -2.0227 O   0  0  0  0  0  0  0  0  0  0  0  0
   -3.3881    2.6171   -0.1799 O   0  0  0  0  0  0  0  0  0  0  0  0
   -0.0849   -1.8591   -0.2440 O   0  0  0  0  0  0  0  0  0  0  0  0
    1.5512    2.0081    0.3320 O   0  0  0  0  0  0  0  0  0  0  0  0
   -1.0571    1.6227    0.3735 N   0  0  2  0  0  0  0  0  0  0  0  0
    2.0289   -0.3156    0.0189 N   0  0  0  0  0  0  0  0  0  0  0  0
    4.1037    0.8479    0.1511 N   0  0  0  0  0  0  0  0  0  0  0  0
   -3.1380    0.0280   -0.2064 C   0  0  0  0  0  0  0  0  0  0  0  0
   -2.2685   -1.0386    0.0247 C   0  0  0  0  0  0  0  0  0  0  0  0
   -0.2252    0.4766    0.1499 C   0  0  0  0  0  0  0  0  0  0  0  0
   -0.7972   -0.8800   -0.0501 C   0  0  0  0  0  0  0  0  0  0  0  0
   -4.5202   -0.1281   -0.1192 C   0  0  0  0  0  0  0  0  0  0  0  0
   -1.2778    1.9670    1.8103 C   0  0  0  0  0  0  0  0  0  0  0  0
   -2.8035   -2.2949    0.3273 C   0  0  0  0  0  0  0  0  0  0  0  0
    1.0921    0.7051    0.1769 C   0  0  0  0  0  0  0  0  0  0  0  0
   -5.0427   -1.3815    0.1930 C   0  0  0  0  0  0  0  0  0  0  0  0
   -4.1878   -2.4624    0.4130 C   0  0  0  0  0  0  0  0  0  0  0  0
    3.3974   -0.3202   -0.0189 C   0  0  0  0  0  0  0  0  0  0  0  0
    4.0694   -1.5388   -0.2331 C   0  0  0  0  0  0  0  0  0  0  0  0
    5.4592   -1.5597   -0.2729 C   0  0  0  0  0  0  0  0  0  0  0  0
    5.4536    0.7883    0.1061 C   0  0  0  0  0  0  0  0  0  0  0  0
    6.1720   -0.3783   -0.1009 C   0  0  0  0  0  0  0  0  0  0  0  0
   -5.1984    0.6997   -0.3011 H   0  0  0  0  0  0  0  0  0  0  0  0
   -1.7154    2.9668    1.8860 H   0  0  0  0  0  0  0  0  0  0  0  0
   -0.3311    1.9855    2.3594 H   0  0  0  0  0  0  0  0  0  0  0  0
   -1.9404    1.2402    2.2895 H   0  0  0  0  0  0  0  0  0  0  0  0
   -2.1608   -3.1519    0.5110 H   0  0  0  0  0  0  0  0  0  0  0  0
   -6.1180   -1.5194    0.2607 H   0  0  0  0  0  0  0  0  0  0  0  0
   -4.6004   -3.4381    0.6536 H   0  0  0  0  0  0  0  0  0  0  0  0
    1.6186   -1.2378   -0.0833 H   0  0  0  0  0  0  0  0  0  0  0  0
    0.7879    2.6100    0.3263 H   0  0  0  0  0  0  0  0  0  0  0  0
    3.5167   -2.4647   -0.3680 H   0  0  0  0  0  0  0  0  0  0  0  0
    5.9860   -2.4947   -0.4375 H   0  0  0  0  0  0  0  0  0  0  0  0
    5.9621    1.7365    0.2458 H   0  0  0  0  0  0  0  0  0  0  0  0
    7.2556   -0.3708   -0.1280 H   0  0  0  0  0  0  0  0  0  0  0  0
  1  2  2  0  0  0  0
  1  3  2  0  0  0  0
  1  6  1  0  0  0  0
  1  9  1  0  0  0  0
  4 12  2  0  0  0  0
  5 16  1  0  0  0  0
  5 32  1  0  0  0  0
  6 11  1  0  0  0  0
  6 14  1  0  0  0  0
  7 16  1  0  0  0  0
  7 19  1  0  0  0  0
  7 31  1  0  0  0  0
  8 19  1  0  0  0  0
  8 22  2  0  0  0  0
  9 10  1  0  0  0  0
  9 13  2  0  0  0  0
 10 12  1  0  0  0  0
 10 15  2  0  0  0  0
 11 12  1  0  0  0  0
 11 16  2  0  0  0  0
 13 17  1  0  0  0  0
 13 24  1  0  0  0  0
 14 25  1  0  0  0  0
 14 26  1  0  0  0  0
 14 27  1  0  0  0  0
 15 18  1  0  0  0  0
 15 28  1  0  0  0  0
 17 18  2  0  0  0  0
 17 29  1  0  0  0  0
 18 30  1  0  0  0  0
 19 20  2  0  0  0  0
 20 21  1  0  0  0  0
 20 33  1  0  0  0  0
 21 23  2  0  0  0  0
 21 34  1  0  0  0  0
 22 23  1  0  0  0  0
 22 35  1  0  0  0  0
 23 36  1  0  0  0  0
M  END
> <PUBCHEM_COMPOUND_CID>
4856

> <PUBCHEM_CONFORMER_RMSD>
0.6

> <PUBCHEM_CONFORMER_DIVERSEORDER>
1
9
10
20
15
13
4
16
8
18
17
14
5
19
7
12
6
3
2
11

> <PUBCHEM_MMFF94_PARTIAL_CHARGES>
33
1 1.45
10 0.09
11 0.21
12 0.47
13 -0.15
14 0.36
15 -0.15
16 0.18
17 -0.15
18 -0.15
19 0.41
2 -0.65
20 -0.15
21 -0.15
22 0.16
23 -0.15
24 0.15
28 0.15
29 0.15
3 -0.65
30 0.15
31 0.4
32 0.45
33 0.15
34 0.15
35 0.15
36 0.15
4 -0.57
5 -0.53
6 -0.68
7 -0.6
8 -0.62
9 -0.01

> <PUBCHEM_EFFECTIVE_ROTOR_COUNT>
2.2

> <PUBCHEM_PHARMACOPHORE_FEATURES>
10
1 2 acceptor
1 3 acceptor
1 4 acceptor
1 5 donor
1 7 cation
1 7 donor
1 8 acceptor
6 1 6 9 10 11 12 rings
6 8 19 20 21 22 23 rings
6 9 10 13 15 17 18 rings

> <PUBCHEM_HEAVY_ATOM_COUNT>
23

> <PUBCHEM_ATOM_DEF_STEREO_COUNT>
0

> <PUBCHEM_ATOM_UDEF_STEREO_COUNT>
0

> <PUBCHEM_BOND_DEF_STEREO_COUNT>
0

> <PUBCHEM_BOND_UDEF_STEREO_COUNT>
1

> <PUBCHEM_ISOTOPIC_ATOM_COUNT>
0

> <PUBCHEM_COMPONENT_COUNT>
1

> <PUBCHEM_CACTVS_TAUTO_COUNT>
8

> <PUBCHEM_CONFORMER_ID>
000012F800000001

> <PUBCHEM_MMFF94_ENERGY>
76.5628

> <PUBCHEM_FEATURE_SELFOVERLAP>
50.812

> <PUBCHEM_SHAPE_FINGERPRINT>
10411042 1 18124031235697157643
11315181 36 18412823590980757192
11578080 2 16771845478889832591
12011746 2 18411992351805868087
12107183 9 17695073588494861322
12166972 35 18201996621637891420
12236239 1 17775568641511704398
12293681 160 17608384758882873249
12760667 363 18334294249710671367
13288520 33 18409446981622740255
13402501 40 18408884014395056342
14251740 79 18342737425127677835
14341114 176 18410288099670738350
15196674 1 18409729590803139366
15352361 1 18409728435209081930
16945 1 18412259528773185485
17804303 29 18410572855949663663
17844677 252 18411130334352295596
1813 80 17417820474030117485
19489759 90 17918276458803847458
19958102 18 18200880681000955742
200 152 18186240623525762186
21033648 29 17677067801273118322
21033650 10 17273404192236784398
21236236 1 18408603686574949249
21267235 1 18409440380685488534
21279426 13 18265894833557761502
221490 88 18339358557323621192
22182313 1 18193580915887666232
2297311 6 18410285900241456926
23175994 123 17821446846211821089
23402539 116 18259989262363349535
23557571 272 18335696161332111604
23559900 14 18338243673591375848
3004659 81 18272087198069111766
329604 57 18410007715805579440
335352 9 18410856560562943013
350125 39 18411133610842799125
3545911 37 18408886231404562078
4214541 1 18411982490033454948
497634 4 18413102879376347196
5104073 3 18334017228968059674
5283173 99 18341054115896667876
531348 171 17415850343025924298
559249 180 18270405026503302098
9709674 26 18341609257678543106

> <PUBCHEM_SHAPE_MULTIPOLES>
438.76
12.43
2.6
0.94
15.58
0.14
-0.04
-4.76
-0.46
-2.34
0.23
-0.58
0.53
0.79

> <PUBCHEM_SHAPE_SELFOVERLAP>
944.123

> <PUBCHEM_SHAPE_VOLUME>
240.9

> <PUBCHEM_COORDINATE_TYPE>
2
5
10

$$$$

