4076
  -OEChem-07051212513D

 32 32  0     0  0  0  0  0  0999 V2000
    1.4357   -2.4227    0.4793 O   0  0  0  0  0  0  0  0  0  0  0  0
    1.3618    2.3418   -0.0008 O   0  0  0  0  0  0  0  0  0  0  0  0
    2.7858   -0.0302    0.1244 O   0  0  0  0  0  0  0  0  0  0  0  0
   -4.9841   -0.2016   -0.6406 N   0  0  0  0  0  0  0  0  0  0  0  0
   -1.3531   -0.0603    0.4669 C   0  0  0  0  0  0  0  0  0  0  0  0
   -2.8393   -0.0710    0.5903 C   0  0  0  0  0  0  0  0  0  0  0  0
   -0.6769    1.1465    0.2880 C   0  0  0  0  0  0  0  0  0  0  0  0
   -0.6394   -1.2571    0.5299 C   0  0  0  0  0  0  0  0  0  0  0  0
   -3.5312   -0.2185   -0.7722 C   0  0  0  0  0  0  0  0  0  0  0  0
    0.7507   -1.2470    0.4139 C   0  0  0  0  0  0  0  0  0  0  0  0
    0.7131    1.1564    0.1718 C   0  0  0  0  0  0  0  0  0  0  0  0
    1.4268   -0.0403    0.2348 C   0  0  0  0  0  0  0  0  0  0  0  0
    1.6595   -3.1117   -0.7492 C   0  0  0  0  0  0  0  0  0  0  0  0
    0.5579    3.5187   -0.0544 C   0  0  0  0  0  0  0  0  0  0  0  0
    3.3329    0.4969   -1.0821 C   0  0  0  0  0  0  0  0  0  0  0  0
   -3.1478   -0.8876    1.2569 H   0  0  0  0  0  0  0  0  0  0  0  0
   -3.1748    0.8509    1.0842 H   0  0  0  0  0  0  0  0  0  0  0  0
   -1.2848    2.0440    0.2440 H   0  0  0  0  0  0  0  0  0  0  0  0
   -1.1615   -2.2009    0.6683 H   0  0  0  0  0  0  0  0  0  0  0  0
   -3.2299   -1.1563   -1.2530 H   0  0  0  0  0  0  0  0  0  0  0  0
   -3.2292    0.5936   -1.4435 H   0  0  0  0  0  0  0  0  0  0  0  0
   -5.2751    0.6666   -0.1922 H   0  0  0  0  0  0  0  0  0  0  0  0
   -5.2776   -0.9503   -0.0140 H   0  0  0  0  0  0  0  0  0  0  0  0
    2.2458   -2.4950   -1.4373 H   0  0  0  0  0  0  0  0  0  0  0  0
    0.7071   -3.3891   -1.2119 H   0  0  0  0  0  0  0  0  0  0  0  0
    2.2217   -4.0242   -0.5325 H   0  0  0  0  0  0  0  0  0  0  0  0
    0.0292    3.6904    0.8894 H   0  0  0  0  0  0  0  0  0  0  0  0
   -0.1180    3.5073   -0.9164 H   0  0  0  0  0  0  0  0  0  0  0  0
    1.2372    4.3659   -0.1958 H   0  0  0  0  0  0  0  0  0  0  0  0
    3.6027    1.5475   -0.9437 H   0  0  0  0  0  0  0  0  0  0  0  0
    2.6477    0.3872   -1.9301 H   0  0  0  0  0  0  0  0  0  0  0  0
    4.2469   -0.0600   -1.3086 H   0  0  0  0  0  0  0  0  0  0  0  0
  1 10  1  0  0  0  0
  1 13  1  0  0  0  0
  2 11  1  0  0  0  0
  2 14  1  0  0  0  0
  3 12  1  0  0  0  0
  3 15  1  0  0  0  0
  4  9  1  0  0  0  0
  4 22  1  0  0  0  0
  4 23  1  0  0  0  0
  5  6  1  0  0  0  0
  5  7  2  0  0  0  0
  5  8  1  0  0  0  0
  6  9  1  0  0  0  0
  6 16  1  0  0  0  0
  6 17  1  0  0  0  0
  7 11  1  0  0  0  0
  7 18  1  0  0  0  0
  8 10  2  0  0  0  0
  8 19  1  0  0  0  0
  9 20  1  0  0  0  0
  9 21  1  0  0  0  0
 10 12  1  0  0  0  0
 11 12  2  0  0  0  0
 13 24  1  0  0  0  0
 13 25  1  0  0  0  0
 13 26  1  0  0  0  0
 14 27  1  0  0  0  0
 14 28  1  0  0  0  0
 14 29  1  0  0  0  0
 15 30  1  0  0  0  0
 15 31  1  0  0  0  0
 15 32  1  0  0  0  0
M  END
> <PUBCHEM_COMPOUND_CID>
4076

> <PUBCHEM_CONFORMER_RMSD>
0.6

> <PUBCHEM_CONFORMER_DIVERSEORDER>
3
18
6
24
10
5
20
12
14
17
4
21
23
13
22
16
7
19
9
11
15
8
1
2

> <PUBCHEM_MMFF94_PARTIAL_CHARGES>
19
1 -0.36
10 0.08
11 0.08
12 0.08
13 0.28
14 0.28
15 0.28
18 0.15
19 0.15
2 -0.36
22 0.36
23 0.36
3 -0.36
4 -0.99
5 -0.14
6 0.14
7 -0.15
8 -0.15
9 0.27

> <PUBCHEM_EFFECTIVE_ROTOR_COUNT>
5

> <PUBCHEM_PHARMACOPHORE_FEATURES>
6
1 1 acceptor
1 2 acceptor
1 3 acceptor
1 4 cation
1 4 donor
6 5 7 8 10 11 12 rings

> <PUBCHEM_HEAVY_ATOM_COUNT>
15

> <PUBCHEM_ATOM_DEF_STEREO_COUNT>
0

> <PUBCHEM_ATOM_UDEF_STEREO_COUNT>
0

> <PUBCHEM_BOND_DEF_STEREO_COUNT>
0

> <PUBCHEM_BOND_UDEF_STEREO_COUNT>
0

> <PUBCHEM_ISOTOPIC_ATOM_COUNT>
0

> <PUBCHEM_COMPONENT_COUNT>
1

> <PUBCHEM_CACTVS_TAUTO_COUNT>
1

> <PUBCHEM_CONFORMER_ID>
00000FEC00000003

> <PUBCHEM_MMFF94_ENERGY>
61.8805

> <PUBCHEM_FEATURE_SELFOVERLAP>
30.455

> <PUBCHEM_SHAPE_FINGERPRINT>
1 1 18340209566211595583
10967382 1 18411416198226186360
11471102 20 18412547591712789457
116883 192 17831868219383422181
12423570 1 16974191511051496680
12654215 9 18272376355898270213
12730499 353 18272650100714524523
13083527 12 18055372459369728234
13140716 1 18194959639075465201
13380536 305 18339362937768321793
14251717 144 18410858763227304167
14576447 43 18188221914052956503
14911166 2 18411976927718549324
14993402 34 18335978692580691580
15279308 100 18127407852220321908
15477762 27 18408611366055803647
15490181 7 17693087462246097680
16945 1 18410566271453491355
18186145 218 18337388219686205601
193761 8 17907853264819151552
20233049 118 18131072606312297076
20511035 2 17771056090898059160
20588541 1 18272081695261015779
20606313 2 18341337755425781675
20645477 70 18339089276223553903
21501502 16 18121493819687122912
21524375 3 17767698160996793657
21639500 275 18340781334028372253
22289505 5 18271258226120062069
2255824 54 18337112250620210997
2334 1 17834390125184362977
23402539 116 18334010618823603364
23402655 69 18339933692542275605
23419403 2 17339331974305480616
23526113 38 18202564012233932619
23559900 14 18192692490188549716
23598291 2 17970339532991492851
25 1 18272089370620703229
2748010 2 18123469642113897864
3060560 45 18337397041052964855
4072396 5 18199488652282736904
7364860 26 18408610240468183249
81228 2 17548700028904138163

> <PUBCHEM_SHAPE_MULTIPOLES>
286.1
5.46
3.2
0.88
6.63
0.83
0.12
-0.82
2.09
-2.58
0.26
0.05
-0.16
-0.06

> <PUBCHEM_SHAPE_SELFOVERLAP>
581.074

> <PUBCHEM_SHAPE_VOLUME>
168.6

> <PUBCHEM_COORDINATE_TYPE>
2
5
10

$$$$

