17190
  -OEChem-07051213133D

 32 34  0     0  0  0  0  0  0999 V2000
   -0.0001   -2.6715   -0.0004 O   0  0  0  0  0  0  0  0  0  0  0  0
   -0.0002    2.6714    0.0002 O   0  0  0  0  0  0  0  0  0  0  0  0
   -2.5734   -2.8077    0.0002 N   0  0  0  0  0  0  0  0  0  0  0  0
    2.5732   -2.8077   -0.0008 N   0  0  0  0  0  0  0  0  0  0  0  0
   -2.5734    2.8079   -0.0014 N   0  0  0  0  0  0  0  0  0  0  0  0
    2.5730    2.8080    0.0003 N   0  0  0  0  0  0  0  0  0  0  0  0
   -1.2730   -0.6982    0.0000 C   0  0  0  0  0  0  0  0  0  0  0  0
    1.2731   -0.6982   -0.0004 C   0  0  0  0  0  0  0  0  0  0  0  0
   -1.2730    0.6981   -0.0003 C   0  0  0  0  0  0  0  0  0  0  0  0
    1.2732    0.6982   -0.0001 C   0  0  0  0  0  0  0  0  0  0  0  0
    0.0001   -1.4475   -0.0006 C   0  0  0  0  0  0  0  0  0  0  0  0
    0.0001    1.4474   -0.0007 C   0  0  0  0  0  0  0  0  0  0  0  0
   -2.4865   -1.3965    0.0005 C   0  0  0  0  0  0  0  0  0  0  0  0
    2.4866   -1.3964   -0.0001 C   0  0  0  0  0  0  0  0  0  0  0  0
   -2.4865    1.3964   -0.0001 C   0  0  0  0  0  0  0  0  0  0  0  0
    2.4866    1.3965    0.0006 C   0  0  0  0  0  0  0  0  0  0  0  0
   -3.6935   -0.6967    0.0011 C   0  0  0  0  0  0  0  0  0  0  0  0
    3.6937   -0.6967    0.0004 C   0  0  0  0  0  0  0  0  0  0  0  0
   -3.6935    0.6967    0.0007 C   0  0  0  0  0  0  0  0  0  0  0  0
    3.6936    0.6968    0.0009 C   0  0  0  0  0  0  0  0  0  0  0  0
   -4.6449   -1.2234    0.0014 H   0  0  0  0  0  0  0  0  0  0  0  0
    4.6450   -1.2234    0.0004 H   0  0  0  0  0  0  0  0  0  0  0  0
   -4.6448    1.2235    0.0008 H   0  0  0  0  0  0  0  0  0  0  0  0
    4.6448    1.2237    0.0012 H   0  0  0  0  0  0  0  0  0  0  0  0
   -1.7402   -3.3783    0.0005 H   0  0  0  0  0  0  0  0  0  0  0  0
   -3.4799   -3.2570    0.0012 H   0  0  0  0  0  0  0  0  0  0  0  0
    3.4796   -3.2572    0.0001 H   0  0  0  0  0  0  0  0  0  0  0  0
    1.7398   -3.3781   -0.0005 H   0  0  0  0  0  0  0  0  0  0  0  0
   -1.7401    3.3783   -0.0009 H   0  0  0  0  0  0  0  0  0  0  0  0
   -3.4799    3.2570   -0.0002 H   0  0  0  0  0  0  0  0  0  0  0  0
    3.4793    3.2575    0.0019 H   0  0  0  0  0  0  0  0  0  0  0  0
    1.7395    3.3781    0.0015 H   0  0  0  0  0  0  0  0  0  0  0  0
  1 11  2  0  0  0  0
  2 12  2  0  0  0  0
  3 13  1  0  0  0  0
  3 25  1  0  0  0  0
  3 26  1  0  0  0  0
  4 14  1  0  0  0  0
  4 27  1  0  0  0  0
  4 28  1  0  0  0  0
  5 15  1  0  0  0  0
  5 29  1  0  0  0  0
  5 30  1  0  0  0  0
  6 16  1  0  0  0  0
  6 31  1  0  0  0  0
  6 32  1  0  0  0  0
  7  9  1  0  0  0  0
  7 11  1  0  0  0  0
  7 13  2  0  0  0  0
  8 10  1  0  0  0  0
  8 11  1  0  0  0  0
  8 14  2  0  0  0  0
  9 12  1  0  0  0  0
  9 15  2  0  0  0  0
 10 12  1  0  0  0  0
 10 16  2  0  0  0  0
 13 17  1  0  0  0  0
 14 18  1  0  0  0  0
 15 19  1  0  0  0  0
 16 20  1  0  0  0  0
 17 19  2  0  0  0  0
 17 21  1  0  0  0  0
 18 20  2  0  0  0  0
 18 22  1  0  0  0  0
 19 23  1  0  0  0  0
 20 24  1  0  0  0  0
M  END
> <PUBCHEM_COMPOUND_CID>
17190

> <PUBCHEM_CONFORMER_RMSD>
0.6

> <PUBCHEM_CONFORMER_DIVERSEORDER>
1

> <PUBCHEM_MMFF94_PARTIAL_CHARGES>
32
1 -0.57
10 0.09
11 0.4
12 0.4
13 0.1
14 0.1
15 0.1
16 0.1
17 -0.15
18 -0.15
19 -0.15
2 -0.57
20 -0.15
21 0.15
22 0.15
23 0.15
24 0.15
25 0.4
26 0.4
27 0.4
28 0.4
29 0.4
3 -0.9
30 0.4
31 0.4
32 0.4
4 -0.9
5 -0.9
6 -0.9
7 0.09
8 0.09
9 0.09

> <PUBCHEM_EFFECTIVE_ROTOR_COUNT>
0

> <PUBCHEM_PHARMACOPHORE_FEATURES>
13
1 1 acceptor
1 2 acceptor
1 3 cation
1 3 donor
1 4 cation
1 4 donor
1 5 cation
1 5 donor
1 6 cation
1 6 donor
6 7 8 9 10 11 12 rings
6 7 9 13 15 17 19 rings
6 8 10 14 16 18 20 rings

> <PUBCHEM_HEAVY_ATOM_COUNT>
20

> <PUBCHEM_ATOM_DEF_STEREO_COUNT>
0

> <PUBCHEM_ATOM_UDEF_STEREO_COUNT>
0

> <PUBCHEM_BOND_DEF_STEREO_COUNT>
0

> <PUBCHEM_BOND_UDEF_STEREO_COUNT>
0

> <PUBCHEM_ISOTOPIC_ATOM_COUNT>
0

> <PUBCHEM_COMPONENT_COUNT>
1

> <PUBCHEM_CACTVS_TAUTO_COUNT>
48

> <PUBCHEM_CONFORMER_ID>
0000432600000001

> <PUBCHEM_MMFF94_ENERGY>
115.0947

> <PUBCHEM_FEATURE_SELFOVERLAP>
66.008

> <PUBCHEM_SHAPE_FINGERPRINT>
10411042 1 15744443397655647849
10608611 8 18410857659151612225
10616163 171 18409727322543650407
10863032 1 18409167714074499433
10967382 1 18338799021457567974
1100329 8 16392961695692127497
11132069 177 18410299090106920624
11578080 2 17169287948330664755
13140716 1 18410855507372802473
14178342 30 18338531789009246680
14223421 5 18410855421473456135
14790565 3 17404000545484238869
15196674 1 18410855464423129088
15442244 35 18266461090815199114
15536298 74 18334295370665064834
16945 1 18410855460128161798
17492 89 18411138039065520291
18186145 218 18188201095792227192
19591789 44 18410571786128533382
20510252 161 18190457151808006185
20905425 154 18335415734021589534
21267235 1 18410846664035548835
21501502 16 18410855460133436548
221490 88 18340197497538409026
2334 1 18410573955086680071
23366157 5 18131350808987696910
23402539 116 18335148557191584246
23463225 33 18411981385820638964
23559900 14 18335707156801959984
238 59 16906695181215000685
2748010 2 18410575084663079031
335352 9 17978228597017543093
34934 24 18410582785539681002
350125 39 18411414012077653329
5104073 3 18410573950791713752
7097593 13 17914069830400980242
7364860 26 18408323285339945600
7832392 63 18337673130367480786
8809292 202 18343299232498433323
9709674 26 18408881845388930390

> <PUBCHEM_SHAPE_MULTIPOLES>
379.93
6.32
3.3
0.59
0
0
0
0
0
0
0
0
0
0

> <PUBCHEM_SHAPE_SELFOVERLAP>
864.368

> <PUBCHEM_SHAPE_VOLUME>
195

> <PUBCHEM_COORDINATE_TYPE>
2
5
10

$$$$

