5281034
  -OEChem-07051212533D

 56 59  0     1  0  0  0  0  0999 V2000
   -5.4048   -1.3210    0.3325 O   0  0  0  0  0  0  0  0  0  0  0  0
    5.4354    0.7676   -0.7622 O   0  0  0  0  0  0  0  0  0  0  0  0
    5.9979   -1.6464    0.2291 O   0  0  0  0  0  0  0  0  0  0  0  0
   -2.4191    0.7167   -0.2289 C   0  0  2  0  0  0  0  0  0  0  0  0
   -3.0316   -0.6313    0.2086 C   0  0  1  0  0  0  0  0  0  0  0  0
   -0.9912    0.9275    0.2931 C   0  0  1  0  0  0  0  0  0  0  0  0
   -0.0825   -0.2273   -0.2359 C   0  0  1  0  0  0  0  0  0  0  0  0
    1.4146   -0.0586    0.2253 C   0  0  2  0  0  0  0  0  0  0  0  0
   -4.4780   -0.4870   -0.3592 C   0  0  2  0  0  0  0  0  0  0  0  0
   -2.1612   -1.7530   -0.3812 C   0  0  0  0  0  0  0  0  0  0  0  0
   -0.6893   -1.6260    0.0537 C   0  0  0  0  0  0  0  0  0  0  0  0
    1.9025    1.3520   -0.2388 C   0  0  1  0  0  0  0  0  0  0  0  0
   -3.4897    1.7348    0.1507 C   0  0  0  0  0  0  0  0  0  0  0  0
   -0.4403    2.2961   -0.1303 C   0  0  0  0  0  0  0  0  0  0  0  0
   -4.8236    0.9985   -0.0735 C   0  0  0  0  0  0  0  0  0  0  0  0
    1.0142    2.4863    0.2872 C   0  0  0  0  0  0  0  0  0  0  0  0
   -3.0981   -0.8092    1.7538 C   0  0  0  0  0  0  0  0  0  0  0  0
    2.3171   -1.1093   -0.4840 C   0  0  0  0  0  0  0  0  0  0  0  0
    1.5493   -0.2425    1.7587 C   0  0  0  0  0  0  0  0  0  0  0  0
    3.3731    1.6248    0.0987 C   0  0  0  0  0  0  0  0  0  0  0  0
   -4.6401   -0.7963   -1.8527 C   0  0  0  0  0  0  0  0  0  0  0  0
    3.7868   -0.8755   -0.2793 C   0  0  0  0  0  0  0  0  0  0  0  0
    4.2933    0.5224   -0.3786 C   0  0  0  0  0  0  0  0  0  0  0  0
    4.6653   -1.8435    0.0133 C   0  0  0  0  0  0  0  0  0  0  0  0
   -2.3500    0.7364   -1.3273 H   0  0  0  0  0  0  0  0  0  0  0  0
   -1.0080    0.9114    1.3877 H   0  0  0  0  0  0  0  0  0  0  0  0
   -0.0785   -0.1362   -1.3341 H   0  0  0  0  0  0  0  0  0  0  0  0
   -2.1834   -1.7245   -1.4771 H   0  0  0  0  0  0  0  0  0  0  0  0
   -2.5494   -2.7354   -0.0874 H   0  0  0  0  0  0  0  0  0  0  0  0
   -0.6060   -1.8712    1.1163 H   0  0  0  0  0  0  0  0  0  0  0  0
   -0.1218   -2.3949   -0.4822 H   0  0  0  0  0  0  0  0  0  0  0  0
    1.8276    1.3743   -1.3375 H   0  0  0  0  0  0  0  0  0  0  0  0
   -3.4291    2.6391   -0.4636 H   0  0  0  0  0  0  0  0  0  0  0  0
   -3.3969    2.0419    1.1985 H   0  0  0  0  0  0  0  0  0  0  0  0
   -1.0411    3.0987    0.3129 H   0  0  0  0  0  0  0  0  0  0  0  0
   -0.5186    2.4084   -1.2193 H   0  0  0  0  0  0  0  0  0  0  0  0
   -5.4664    1.1190    0.8063 H   0  0  0  0  0  0  0  0  0  0  0  0
   -5.3644    1.4517   -0.9128 H   0  0  0  0  0  0  0  0  0  0  0  0
    1.3692    3.4474   -0.1050 H   0  0  0  0  0  0  0  0  0  0  0  0
    1.0808    2.5550    1.3793 H   0  0  0  0  0  0  0  0  0  0  0  0
   -2.1182   -0.7432    2.2334 H   0  0  0  0  0  0  0  0  0  0  0  0
   -3.7299   -0.0572    2.2372 H   0  0  0  0  0  0  0  0  0  0  0  0
   -3.5047   -1.7942    2.0118 H   0  0  0  0  0  0  0  0  0  0  0  0
    2.1220   -1.0907   -1.5646 H   0  0  0  0  0  0  0  0  0  0  0  0
    2.0588   -2.1180   -0.1393 H   0  0  0  0  0  0  0  0  0  0  0  0
    2.5743   -0.0836    2.1075 H   0  0  0  0  0  0  0  0  0  0  0  0
    0.9148    0.4474    2.3207 H   0  0  0  0  0  0  0  0  0  0  0  0
    1.2787   -1.2589    2.0627 H   0  0  0  0  0  0  0  0  0  0  0  0
    3.5279    1.7605    1.1744 H   0  0  0  0  0  0  0  0  0  0  0  0
    3.6846    2.5534   -0.3955 H   0  0  0  0  0  0  0  0  0  0  0  0
   -5.6751   -0.6174   -2.1686 H   0  0  0  0  0  0  0  0  0  0  0  0
   -3.9862   -0.1925   -2.4876 H   0  0  0  0  0  0  0  0  0  0  0  0
   -4.4475   -1.8557   -2.0548 H   0  0  0  0  0  0  0  0  0  0  0  0
   -5.5483   -0.9716    1.2272 H   0  0  0  0  0  0  0  0  0  0  0  0
    4.4073   -2.8880    0.1134 H   0  0  0  0  0  0  0  0  0  0  0  0
    6.2095   -0.7012    0.1775 H   0  0  0  0  0  0  0  0  0  0  0  0
  1  9  1  0  0  0  0
  1 54  1  0  0  0  0
  2 23  2  0  0  0  0
  3 24  1  0  0  0  0
  3 56  1  0  0  0  0
  4  5  1  0  0  0  0
  4  6  1  0  0  0  0
  4 13  1  0  0  0  0
  4 25  1  0  0  0  0
  5  9  1  0  0  0  0
  5 10  1  0  0  0  0
  5 17  1  0  0  0  0
  6  7  1  0  0  0  0
  6 14  1  0  0  0  0
  6 26  1  0  0  0  0
  7  8  1  0  0  0  0
  7 11  1  0  0  0  0
  7 27  1  0  0  0  0
  8 12  1  0  0  0  0
  8 18  1  0  0  0  0
  8 19  1  0  0  0  0
  9 15  1  0  0  0  0
  9 21  1  0  0  0  0
 10 11  1  0  0  0  0
 10 28  1  0  0  0  0
 10 29  1  0  0  0  0
 11 30  1  0  0  0  0
 11 31  1  0  0  0  0
 12 16  1  0  0  0  0
 12 20  1  0  0  0  0
 12 32  1  0  0  0  0
 13 15  1  0  0  0  0
 13 33  1  0  0  0  0
 13 34  1  0  0  0  0
 14 16  1  0  0  0  0
 14 35  1  0  0  0  0
 14 36  1  0  0  0  0
 15 37  1  0  0  0  0
 15 38  1  0  0  0  0
 16 39  1  0  0  0  0
 16 40  1  0  0  0  0
 17 41  1  0  0  0  0
 17 42  1  0  0  0  0
 17 43  1  0  0  0  0
 18 22  1  0  0  0  0
 18 44  1  0  0  0  0
 18 45  1  0  0  0  0
 19 46  1  0  0  0  0
 19 47  1  0  0  0  0
 19 48  1  0  0  0  0
 20 23  1  0  0  0  0
 20 49  1  0  0  0  0
 20 50  1  0  0  0  0
 21 51  1  0  0  0  0
 21 52  1  0  0  0  0
 21 53  1  0  0  0  0
 22 23  1  0  0  0  0
 22 24  2  0  0  0  0
 24 55  1  0  0  0  0
M  END
> <PUBCHEM_COMPOUND_CID>
5281034

> <PUBCHEM_CONFORMER_RMSD>
0.6

> <PUBCHEM_CONFORMER_DIVERSEORDER>
1

> <PUBCHEM_MMFF94_PARTIAL_CHARGES>
12
1 -0.68
18 0.14
2 -0.57
20 0.06
22 -0.12
23 0.49
24 -0.07
3 -0.53
54 0.4
55 0.15
56 0.45
9 0.28

> <PUBCHEM_EFFECTIVE_ROTOR_COUNT>
1.8

> <PUBCHEM_PHARMACOPHORE_FEATURES>
8
1 1 acceptor
1 1 donor
1 2 acceptor
1 3 donor
5 4 5 9 13 15 rings
6 4 5 6 7 10 11 rings
6 6 7 8 12 14 16 rings
6 8 12 18 20 22 23 rings

> <PUBCHEM_HEAVY_ATOM_COUNT>
24

> <PUBCHEM_ATOM_DEF_STEREO_COUNT>
7

> <PUBCHEM_ATOM_UDEF_STEREO_COUNT>
0

> <PUBCHEM_BOND_DEF_STEREO_COUNT>
1

> <PUBCHEM_BOND_UDEF_STEREO_COUNT>
0

> <PUBCHEM_ISOTOPIC_ATOM_COUNT>
0

> <PUBCHEM_COMPONENT_COUNT>
1

> <PUBCHEM_CACTVS_TAUTO_COUNT>
5

> <PUBCHEM_CONFORMER_ID>
0050950A00000001

> <PUBCHEM_MMFF94_ENERGY>
91.8485

> <PUBCHEM_FEATURE_SELFOVERLAP>
40.682

> <PUBCHEM_SHAPE_FINGERPRINT>
10366900 7 17489873713419606529
10622 236 17824287932592651015
11578080 2 16807866321370446850
12011746 2 18342462530341323901
12107183 9 17690279734613396378
12166972 35 17968097474000059521
12236239 1 18060699502758307510
12403259 226 18336551512976101145
12788726 201 18193562400515931137
13224815 77 18186234026603681997
13288520 33 18336826480412232999
13544653 18 18411693292431466828
13862211 1 18408045121382490014
14790565 3 18339072804137899688
15099037 51 18410575106327994975
15183329 4 18412543245195401534
15188451 53 16081667586396541813
15196674 1 18410572898546045188
15536298 74 18334859385438417056
15788980 27 18410291423563838870
16752209 62 18340216270755946929
16945 1 18194115209987807713
17349148 13 17894348865163913607
17492 89 18193000305398183791
17857418 61 18408326609713399398
18186145 218 17560804324897166553
19591789 44 18411139159903219522
19862831 5 17918276458571654538
200 152 18187364324604573497
20645477 70 18341897350730066038
20775438 99 16961020534931407991
21033648 29 17988658358730330477
21236236 1 18337390543226790813
21267235 1 18410284817978257006
21279426 13 18341051929415085485
21682296 61 18262511628027068942
221357 26 18411705374538409061
221490 88 18197210352188577593
22393880 68 18131082545077220277
23402539 116 18334581281979060638
23522609 53 18118372151658265041
23559900 14 18335427820033543912
2871803 45 18201722868532103212
3004659 81 18272649082801955118
3286 77 16950573159515313643
335352 9 18410012182635092101
34934 24 18337113367643842020
350125 39 18408600371208720217
4214541 1 18410011065484593893
474 4 17489018246207931204
4921388 177 16343409623259217393
5104073 3 18408882949290185856
5283173 99 18129669719458773229
559249 180 18340209712034917714
633830 44 17561082467163806808
7495541 125 17676494929950653936
9709674 26 18268711615308252219

> <PUBCHEM_SHAPE_MULTIPOLES>
476.3
11.66
2.26
1.09
3.62
0.66
0.19
-3.65
-1.82
0.65
-0.02
-0.75
-0.26
-0.25

> <PUBCHEM_SHAPE_SELFOVERLAP>
1017.857

> <PUBCHEM_SHAPE_VOLUME>
262.4

> <PUBCHEM_COORDINATE_TYPE>
2
5
10

$$$$

