443788
  -OEChem-07051213033D

 37 40  0     0  0  0  0  0  0999 V2000
    1.3349    2.5124    0.0015 O   0  0  0  0  0  0  0  0  0  0  0  0
   -1.1515    2.4663    0.0083 O   0  0  0  0  0  0  0  0  0  0  0  0
   -1.2394   -2.8749    0.0127 O   0  0  0  0  0  0  0  0  0  0  0  0
   -3.6989    2.6012   -0.0048 O   0  0  0  0  0  0  0  0  0  0  0  0
    6.1078   -1.7169   -0.0072 O   0  0  0  0  0  0  0  0  0  0  0  0
   -6.0869   -1.4887   -0.0070 O   0  0  0  0  0  0  0  0  0  0  0  0
    0.0974    0.4688    0.0035 C   0  0  0  0  0  0  0  0  0  0  0  0
    0.0714   -0.9246    0.0041 C   0  0  0  0  0  0  0  0  0  0  0  0
    2.5352    0.4334    0.0006 C   0  0  0  0  0  0  0  0  0  0  0  0
    2.5090   -0.9802   -0.0001 C   0  0  0  0  0  0  0  0  0  0  0  0
    1.3239    1.1450    0.0024 C   0  0  0  0  0  0  0  0  0  0  0  0
   -2.4487    0.5176    0.0000 C   0  0  0  0  0  0  0  0  0  0  0  0
    1.2719   -1.6461    0.0022 C   0  0  0  0  0  0  0  0  0  0  0  0
   -2.4748   -0.8782    0.0009 C   0  0  0  0  0  0  0  0  0  0  0  0
   -1.1617    1.2421    0.0036 C   0  0  0  0  0  0  0  0  0  0  0  0
   -1.2159   -1.6504    0.0060 C   0  0  0  0  0  0  0  0  0  0  0  0
    3.7734    1.0970   -0.0011 C   0  0  0  0  0  0  0  0  0  0  0  0
    3.7216   -1.6892   -0.0032 C   0  0  0  0  0  0  0  0  0  0  0  0
   -3.6488    1.2387   -0.0028 C   0  0  0  0  0  0  0  0  0  0  0  0
    4.9682    0.3771   -0.0038 C   0  0  0  0  0  0  0  0  0  0  0  0
   -3.7011   -1.5537   -0.0015 C   0  0  0  0  0  0  0  0  0  0  0  0
    4.9423   -1.0140   -0.0050 C   0  0  0  0  0  0  0  0  0  0  0  0
    3.9345    2.5869    0.0013 C   0  0  0  0  0  0  0  0  0  0  0  0
   -4.8949   -0.8314   -0.0049 C   0  0  0  0  0  0  0  0  0  0  0  0
   -4.8688    0.5618   -0.0055 C   0  0  0  0  0  0  0  0  0  0  0  0
    1.2549   -2.7346    0.0019 H   0  0  0  0  0  0  0  0  0  0  0  0
    3.7189   -2.7778   -0.0038 H   0  0  0  0  0  0  0  0  0  0  0  0
   -3.7345   -2.6405   -0.0007 H   0  0  0  0  0  0  0  0  0  0  0  0
    5.9270    0.8906   -0.0048 H   0  0  0  0  0  0  0  0  0  0  0  0
    3.5032    3.0284    0.9056 H   0  0  0  0  0  0  0  0  0  0  0  0
    4.9902    2.8848    0.0016 H   0  0  0  0  0  0  0  0  0  0  0  0
    3.5026    3.0314   -0.9013 H   0  0  0  0  0  0  0  0  0  0  0  0
   -5.8019    1.1201   -0.0082 H   0  0  0  0  0  0  0  0  0  0  0  0
    0.5147    2.8601    0.3839 H   0  0  0  0  0  0  0  0  0  0  0  0
   -2.8071    2.9791   -0.0125 H   0  0  0  0  0  0  0  0  0  0  0  0
    6.8538   -1.0929   -0.0080 H   0  0  0  0  0  0  0  0  0  0  0  0
   -5.9197   -2.4469   -0.0061 H   0  0  0  0  0  0  0  0  0  0  0  0
  1 11  1  0  0  0  0
  1 34  1  0  0  0  0
  2 15  2  0  0  0  0
  3 16  2  0  0  0  0
  4 19  1  0  0  0  0
  4 35  1  0  0  0  0
  5 22  1  0  0  0  0
  5 36  1  0  0  0  0
  6 24  1  0  0  0  0
  6 37  1  0  0  0  0
  7  8  2  0  0  0  0
  7 11  1  0  0  0  0
  7 15  1  0  0  0  0
  8 13  1  0  0  0  0
  8 16  1  0  0  0  0
  9 10  1  0  0  0  0
  9 11  2  0  0  0  0
  9 17  1  0  0  0  0
 10 13  2  0  0  0  0
 10 18  1  0  0  0  0
 12 14  2  0  0  0  0
 12 15  1  0  0  0  0
 12 19  1  0  0  0  0
 13 26  1  0  0  0  0
 14 16  1  0  0  0  0
 14 21  1  0  0  0  0
 17 20  2  0  0  0  0
 17 23  1  0  0  0  0
 18 22  2  0  0  0  0
 18 27  1  0  0  0  0
 19 25  2  0  0  0  0
 20 22  1  0  0  0  0
 20 29  1  0  0  0  0
 21 24  2  0  0  0  0
 21 28  1  0  0  0  0
 23 30  1  0  0  0  0
 23 31  1  0  0  0  0
 23 32  1  0  0  0  0
 24 25  1  0  0  0  0
 25 33  1  0  0  0  0
M  END
> <PUBCHEM_COMPOUND_CID>
443788

> <PUBCHEM_CONFORMER_RMSD>
0.6

> <PUBCHEM_CONFORMER_DIVERSEORDER>
1

> <PUBCHEM_MMFF94_PARTIAL_CHARGES>
32
1 -0.53
11 0.08
12 0.09
13 -0.15
14 0.09
15 0.4
16 0.4
17 -0.14
18 -0.15
19 0.08
2 -0.57
20 -0.15
21 -0.15
22 0.08
23 0.14
24 0.08
25 -0.15
26 0.15
27 0.15
28 0.15
29 0.15
3 -0.57
33 0.15
34 0.45
35 0.45
36 0.45
37 0.45
4 -0.53
5 -0.53
6 -0.53
7 0.09
8 0.09

> <PUBCHEM_EFFECTIVE_ROTOR_COUNT>
0

> <PUBCHEM_PHARMACOPHORE_FEATURES>
10
1 1 donor
1 2 acceptor
1 3 acceptor
1 4 donor
1 5 donor
1 6 donor
6 12 14 19 21 24 25 rings
6 7 8 12 14 15 16 rings
6 7 8 9 10 11 13 rings
6 9 10 17 18 20 22 rings

> <PUBCHEM_HEAVY_ATOM_COUNT>
25

> <PUBCHEM_ATOM_DEF_STEREO_COUNT>
0

> <PUBCHEM_ATOM_UDEF_STEREO_COUNT>
0

> <PUBCHEM_BOND_DEF_STEREO_COUNT>
0

> <PUBCHEM_BOND_UDEF_STEREO_COUNT>
0

> <PUBCHEM_ISOTOPIC_ATOM_COUNT>
0

> <PUBCHEM_COMPONENT_COUNT>
1

> <PUBCHEM_CACTVS_TAUTO_COUNT>
600

> <PUBCHEM_CONFORMER_ID>
0006C58C00000001

> <PUBCHEM_MMFF94_ENERGY>
89.2504

> <PUBCHEM_FEATURE_SELFOVERLAP>
50.811

> <PUBCHEM_SHAPE_FINGERPRINT>
10 15 18339371764997007384
10967382 1 18338516343884733184
11578080 2 16807589253035573586
12107183 9 17763747989100443563
12166972 35 18060697282202343124
12236239 1 18410854364911514307
12403259 226 18410862065825520372
12788726 201 17676472956597794432
13140716 1 18410848841594173450
13402501 40 18410012147605154503
13862211 1 18410576188480613263
14341114 176 18342171129515830875
14790565 3 18410851079409576753
15196674 1 18410573989472961089
15536298 74 18408041797014174376
17349148 13 18186518804225620508
17492 89 18267866082045241762
17844677 252 18409724071285003800
1813 80 17203332195549535388
18681886 176 18335144194095596762
19591789 44 18411420630590237657
200 152 18113901563101045227
20028762 73 18260270741345754390
21033648 29 17489041395743858405
21236236 1 18408885170284019281
21267235 1 18410848867385387722
21279426 13 18338236080273429740
21792934 111 18336274491827476073
21859007 373 17843992409570716012
221357 26 18409169896218585709
221490 88 18341044129738560538
23402539 116 18335145318627961535
23522609 53 18122029152980732153
23559900 14 18335424548033199440
3004659 81 18272088310249064790
335352 9 18410574028280563540
34934 24 18265055730382031910
350125 39 18410572902893857389
3680242 22 18270120257181031450
4073 2 18131625668997678875
4214541 1 18410855498941441317
474 4 17560515084999587988
5104073 3 18410292514506768392
6138700 20 18339922739991120290
7495541 125 17603872169429048024
9709674 26 18339638936772519330
9981440 41 17261874352220397360

> <PUBCHEM_SHAPE_MULTIPOLES>
479.27
11.96
2.81
0.59
0.03
0.73
0
-2.34
0.04
-0.26
0
-0.02
-0.01
0.01

> <PUBCHEM_SHAPE_SELFOVERLAP>
1104.767

> <PUBCHEM_SHAPE_VOLUME>
245.7

> <PUBCHEM_COORDINATE_TYPE>
2
5
10

$$$$

