4824
  -OEChem-06261200213D

 63 67  0     1  0  0  0  0  0999 V2000
   -5.1284    2.6806    1.3903 Cl  0  0  0  0  0  0  0  0  0  0  0  0
   -3.0280    4.1595   -2.9644 F   0  0  0  0  0  0  0  0  0  0  0  0
   -5.7515   -4.5320   -1.3315 F   0  0  0  0  0  0  0  0  0  0  0  0
    2.9993   -2.3774   -0.6037 O   0  0  0  0  0  0  0  0  0  0  0  0
    0.6849    0.2702    2.2451 N   0  0  0  0  0  0  0  0  0  0  0  0
    4.2416   -0.4643    0.0681 N   0  0  0  0  0  0  0  0  0  0  0  0
    5.1957   -1.9397   -1.3633 N   0  0  0  0  0  0  0  0  0  0  0  0
    3.3063    0.1908    0.9483 C   0  0  0  0  0  0  0  0  0  0  0  0
    2.9588   -0.6983    2.1425 C   0  0  0  0  0  0  0  0  0  0  0  0
    2.0354    0.5848    0.1961 C   0  0  0  0  0  0  0  0  0  0  0  0
    1.8891   -0.0508    3.0236 C   0  0  0  0  0  0  0  0  0  0  0  0
    0.9954    1.1890    1.1413 C   0  0  0  0  0  0  0  0  0  0  0  0
   -0.3469    0.8410    3.1108 C   0  0  0  0  0  0  0  0  0  0  0  0
   -1.6102    1.1407    2.3043 C   0  0  0  0  0  0  0  0  0  0  0  0
    5.5275   -0.0010   -0.2400 C   0  0  0  0  0  0  0  0  0  0  0  0
   -2.1606   -0.1333    1.6470 C   0  0  0  0  0  0  0  0  0  0  0  0
    4.0057   -1.6826   -0.6246 C   0  0  0  0  0  0  0  0  0  0  0  0
   -3.5012    0.1072    0.9058 C   0  0  1  0  0  0  0  0  0  0  0  0
    6.1080   -0.9126   -1.1199 C   0  0  0  0  0  0  0  0  0  0  0  0
    6.2034    1.1252    0.1812 C   0  0  0  0  0  0  0  0  0  0  0  0
   -3.3937    1.2249   -0.1273 C   0  0  0  0  0  0  0  0  0  0  0  0
   -4.1114   -1.1504    0.3000 C   0  0  0  0  0  0  0  0  0  0  0  0
    7.3808   -0.7487   -1.6199 C   0  0  0  0  0  0  0  0  0  0  0  0
    7.4984    1.3136   -0.3131 C   0  0  0  0  0  0  0  0  0  0  0  0
    8.0806    0.3870   -1.2037 C   0  0  0  0  0  0  0  0  0  0  0  0
   -4.0971    2.3996    0.0350 C   0  0  0  0  0  0  0  0  0  0  0  0
   -2.5707    1.0036   -1.2134 C   0  0  0  0  0  0  0  0  0  0  0  0
   -5.4831   -1.2363    0.1864 C   0  0  0  0  0  0  0  0  0  0  0  0
   -3.2724   -2.1628   -0.1159 C   0  0  0  0  0  0  0  0  0  0  0  0
   -3.9733    3.3985   -0.9306 C   0  0  0  0  0  0  0  0  0  0  0  0
   -2.4468    2.0026   -2.1789 C   0  0  0  0  0  0  0  0  0  0  0  0
   -6.0414   -2.3877   -0.3689 C   0  0  0  0  0  0  0  0  0  0  0  0
   -3.8307   -3.3141   -0.6712 C   0  0  0  0  0  0  0  0  0  0  0  0
   -3.1482    3.2000   -2.0376 C   0  0  0  0  0  0  0  0  0  0  0  0
   -5.2152   -3.4265   -0.7977 C   0  0  0  0  0  0  0  0  0  0  0  0
    3.7603    1.1089    1.3382 H   0  0  0  0  0  0  0  0  0  0  0  0
    3.8590   -0.8897    2.7396 H   0  0  0  0  0  0  0  0  0  0  0  0
    2.5944   -1.6790    1.8131 H   0  0  0  0  0  0  0  0  0  0  0  0
    1.5888   -0.2808   -0.3083 H   0  0  0  0  0  0  0  0  0  0  0  0
    2.2787    1.3080   -0.5924 H   0  0  0  0  0  0  0  0  0  0  0  0
    2.2998    0.8499    3.4989 H   0  0  0  0  0  0  0  0  0  0  0  0
    1.6361   -0.7549    3.8257 H   0  0  0  0  0  0  0  0  0  0  0  0
    0.1276    1.3915    0.5086 H   0  0  0  0  0  0  0  0  0  0  0  0
    1.3581    2.1528    1.5222 H   0  0  0  0  0  0  0  0  0  0  0  0
   -0.5967    0.1315    3.9097 H   0  0  0  0  0  0  0  0  0  0  0  0
    0.0010    1.7631    3.5939 H   0  0  0  0  0  0  0  0  0  0  0  0
   -2.3650    1.5118    3.0107 H   0  0  0  0  0  0  0  0  0  0  0  0
   -1.4634    1.9597    1.5954 H   0  0  0  0  0  0  0  0  0  0  0  0
   -2.3031   -0.9087    2.4116 H   0  0  0  0  0  0  0  0  0  0  0  0
   -1.4030   -0.5094    0.9526 H   0  0  0  0  0  0  0  0  0  0  0  0
   -4.1890    0.3801    1.7134 H   0  0  0  0  0  0  0  0  0  0  0  0
    5.3650   -2.7332   -1.9690 H   0  0  0  0  0  0  0  0  0  0  0  0
    5.7741    1.8478    0.8638 H   0  0  0  0  0  0  0  0  0  0  0  0
    7.8263   -1.4612   -2.3038 H   0  0  0  0  0  0  0  0  0  0  0  0
    8.0678    2.1878   -0.0076 H   0  0  0  0  0  0  0  0  0  0  0  0
    9.0889    0.5616   -1.5702 H   0  0  0  0  0  0  0  0  0  0  0  0
   -2.0048    0.0872   -1.3421 H   0  0  0  0  0  0  0  0  0  0  0  0
   -6.1346   -0.4332    0.5165 H   0  0  0  0  0  0  0  0  0  0  0  0
   -2.1924   -2.1164   -0.0519 H   0  0  0  0  0  0  0  0  0  0  0  0
   -4.5127    4.3374   -0.8355 H   0  0  0  0  0  0  0  0  0  0  0  0
   -1.8019    1.8498   -3.0393 H   0  0  0  0  0  0  0  0  0  0  0  0
   -7.1194   -2.4755   -0.4679 H   0  0  0  0  0  0  0  0  0  0  0  0
   -3.1882   -4.1221   -1.0084 H   0  0  0  0  0  0  0  0  0  0  0  0
  1 26  1  0  0  0  0
  2 34  1  0  0  0  0
  3 35  1  0  0  0  0
  4 17  2  0  0  0  0
  5 11  1  0  0  0  0
  5 12  1  0  0  0  0
  5 13  1  0  0  0  0
  6  8  1  0  0  0  0
  6 15  1  0  0  0  0
  6 17  1  0  0  0  0
  7 17  1  0  0  0  0
  7 19  1  0  0  0  0
  7 52  1  0  0  0  0
  8  9  1  0  0  0  0
  8 10  1  0  0  0  0
  8 36  1  0  0  0  0
  9 11  1  0  0  0  0
  9 37  1  0  0  0  0
  9 38  1  0  0  0  0
 10 12  1  0  0  0  0
 10 39  1  0  0  0  0
 10 40  1  0  0  0  0
 11 41  1  0  0  0  0
 11 42  1  0  0  0  0
 12 43  1  0  0  0  0
 12 44  1  0  0  0  0
 13 14  1  0  0  0  0
 13 45  1  0  0  0  0
 13 46  1  0  0  0  0
 14 16  1  0  0  0  0
 14 47  1  0  0  0  0
 14 48  1  0  0  0  0
 15 19  1  0  0  0  0
 15 20  2  0  0  0  0
 16 18  1  0  0  0  0
 16 49  1  0  0  0  0
 16 50  1  0  0  0  0
 18 21  1  0  0  0  0
 18 22  1  0  0  0  0
 18 51  1  0  0  0  0
 19 23  2  0  0  0  0
 20 24  1  0  0  0  0
 20 53  1  0  0  0  0
 21 26  2  0  0  0  0
 21 27  1  0  0  0  0
 22 28  2  0  0  0  0
 22 29  1  0  0  0  0
 23 25  1  0  0  0  0
 23 54  1  0  0  0  0
 24 25  2  0  0  0  0
 24 55  1  0  0  0  0
 25 56  1  0  0  0  0
 26 30  1  0  0  0  0
 27 31  2  0  0  0  0
 27 57  1  0  0  0  0
 28 32  1  0  0  0  0
 28 58  1  0  0  0  0
 29 33  2  0  0  0  0
 29 59  1  0  0  0  0
 30 34  2  0  0  0  0
 30 60  1  0  0  0  0
 31 34  1  0  0  0  0
 31 61  1  0  0  0  0
 32 35  2  0  0  0  0
 32 62  1  0  0  0  0
 33 35  1  0  0  0  0
 33 63  1  0  0  0  0
M  END
> <PUBCHEM_COMPOUND_CID>
4824

> <PUBCHEM_CONFORMER_RMSD>
1

> <PUBCHEM_CONFORMER_DIVERSEORDER>
1
208
142
112
79
12
163
231
100
151
194
92
234
246
240
209
223
149
216
130
162
107
249
220
244
172
33
120
5
26
178
71
175
16
95
235
167
183
222
77
47
219
115
168
215
241
101
237
93
121
174
106
49
181
35
248
97
99
75
197
125
114
127
157
207
59
200
27
56
245
135
193
247
78
55
108
198
187
226
185
36
210
128
9
204
170
123
117
88
147
225
186
21
2
126
41
148
113
236
229
242
159
239
169
30
184
104
118
202
144
70
192
201
232
228
42
243
19
212
119
74
81
177
6
173
179
17
44
96
18
140
214
136
8
224
221
62
37
76
176
84
68
153
34
191
156
217
124
46
109
203
171
20
52
199
31
189
66
122
110
180
158
80
196
206
188
145
190
87
211
73
89
103
150
134
57
102
205
85
10
15
98
86
143
32
39
60
116
182
105
218
230
7
48
45
94
24
54
133
166
137
238
90
83
233
141
129
91
154
43
139
227
111
63
146
3
58
160
213
29
50
53
11
22
69
67
82
65
40
138
64
28
155
25
72
14
152
51
195
4
38
61
131
23
161
164
165
13
132

> <PUBCHEM_MMFF94_PARTIAL_CHARGES>
43
1 -0.18
11 0.27
12 0.27
13 0.27
15 0.12
17 0.69
18 0.29
19 0.12
2 -0.19
20 -0.15
21 -0.14
22 -0.14
23 -0.15
24 -0.15
25 -0.15
26 0.18
27 -0.15
28 -0.15
29 -0.15
3 -0.19
30 -0.15
31 -0.15
32 -0.15
33 -0.15
34 0.19
35 0.19
4 -0.57
5 -0.81
52 0.37
53 0.15
54 0.15
55 0.15
56 0.15
57 0.15
58 0.15
59 0.15
6 -0.48
60 0.15
61 0.15
62 0.15
63 0.15
7 -0.55
8 0.3

> <PUBCHEM_EFFECTIVE_ROTOR_COUNT>
8.2

> <PUBCHEM_PHARMACOPHORE_FEATURES>
8
1 4 acceptor
1 5 cation
1 7 donor
5 6 7 15 17 19 rings
6 15 19 20 23 24 25 rings
6 21 26 27 30 31 34 rings
6 22 28 29 32 33 35 rings
6 5 8 9 10 11 12 rings

> <PUBCHEM_HEAVY_ATOM_COUNT>
35

> <PUBCHEM_ATOM_DEF_STEREO_COUNT>
0

> <PUBCHEM_ATOM_UDEF_STEREO_COUNT>
1

> <PUBCHEM_BOND_DEF_STEREO_COUNT>
0

> <PUBCHEM_BOND_UDEF_STEREO_COUNT>
0

> <PUBCHEM_ISOTOPIC_ATOM_COUNT>
0

> <PUBCHEM_COMPONENT_COUNT>
1

> <PUBCHEM_CACTVS_TAUTO_COUNT>
2

> <PUBCHEM_CONFORMER_ID>
000012D800000001

> <PUBCHEM_MMFF94_ENERGY>
95.6251

> <PUBCHEM_FEATURE_SELFOVERLAP>
40.695

> <PUBCHEM_SHAPE_FINGERPRINT>
10165383 225 18262793107989668361
10764073 3 17313654981237279515
11135926 11 17969773254581088690
11377469 6 16443335460542320888
11477941 20 18131354076988870013
11497681 19 18117279151173633151
11607047 141 17836639731621019051
117089 54 17901665960877612735
12013929 27 18261663810478955702
12342043 65 17677618553662415491
13008946 62 17482575361778892173
131258 43 18053940650596030041
13540713 5 17058673943129265473
13636023 20 18413110572237546976
13673619 4 18115025187118722715
13690498 29 18408887308919373915
13757389 114 18341901844421886341
14040222 220 17385726876519862716
14556957 393 16987742180594915207
14910302 57 18261684696767297899
15264996 154 16531741396337369319
15274700 21 18187367584670004631
15448158 6 17315643893907526519
15475509 84 9254893296184099173
19246450 95 12247411038697693128
21033650 10 18343581867089875921
21223535 225 17418091048601877244
21599406 157 18335135427967002062
21716022 299 17695337085228762855
22122407 14 11527943439829081918
22393880 68 18410579500285150696
23516275 100 17700977631146134068
249057 25 17202786872336907104
25269216 80 18342173345845731851
2838139 119 17561080324487167280
3388396 114 16773529810069363236
3610482 184 17417241164699363092
4098825 35 18335132103045467832
4394409 98 17258228887069277899
439807 62 18040428871876481786
44249763 50 18271538567020113044
46194498 28 18264497195744928432
484985 159 17676759951266714075
497634 4 18260542325323362409
508706 21 18335151907624998727
6058803 2 17057554666357282113
613672 6 17241630444655404714
6608658 132 17704079499064182269
6691757 9 15985100791833961088
999808 66 16950554463438524666

> <PUBCHEM_SHAPE_MULTIPOLES>
686.79
19.96
4.23
2.62
32.75
1.17
-1.09
5.91
9.44
-10.84
3.22
-0.35
-1.72
0.84

> <PUBCHEM_SHAPE_SELFOVERLAP>
1487.826

> <PUBCHEM_SHAPE_VOLUME>
377.5

> <PUBCHEM_COORDINATE_TYPE>
2
5
10

$$$$

