3598
  -OEChem-07051212542D

 27 28  0     0  0  0  0  0  0999 V2000
    6.2386    0.1416    0.0000 Cl  0  0  0  0  0  0  0  0  0  0  0  0
    6.1198   -1.8794    0.0000 Cl  0  0  0  0  0  0  0  0  0  0  0  0
    2.5369   -3.2057    0.0000 Cl  0  0  0  0  0  0  0  0  0  0  0  0
    3.6674    3.2057    0.0000 Cl  0  0  0  0  0  0  0  0  0  0  0  0
    6.9226    2.0209    0.0000 Cl  0  0  0  0  0  0  0  0  0  0  0  0
    6.0010   -3.2057    0.0000 Cl  0  0  0  0  0  0  0  0  0  0  0  0
    2.5369   -1.2057    0.0000 O   0  0  0  0  0  0  0  0  0  0  0  0
    2.9834    1.3264    0.0000 O   0  0  0  0  0  0  0  0  0  0  0  0
    4.2690   -0.2057    0.0000 C   0  0  0  0  0  0  0  0  0  0  0  0
    4.2690   -1.2057    0.0000 C   0  0  0  0  0  0  0  0  0  0  0  0
    4.6110    0.7340    0.0000 C   0  0  0  0  0  0  0  0  0  0  0  0
    3.4030   -1.7057    0.0000 C   0  0  0  0  0  0  0  0  0  0  0  0
    3.9682    1.5000    0.0000 C   0  0  0  0  0  0  0  0  0  0  0  0
    5.1350   -1.7057    0.0000 C   0  0  0  0  0  0  0  0  0  0  0  0
    5.5958    0.9076    0.0000 C   0  0  0  0  0  0  0  0  0  0  0  0
    4.3102    2.4397    0.0000 C   0  0  0  0  0  0  0  0  0  0  0  0
    3.4030   -2.7057    0.0000 C   0  0  0  0  0  0  0  0  0  0  0  0
    5.1350   -2.7057    0.0000 C   0  0  0  0  0  0  0  0  0  0  0  0
    5.9378    1.8473    0.0000 C   0  0  0  0  0  0  0  0  0  0  0  0
    5.2950    2.6133    0.0000 C   0  0  0  0  0  0  0  0  0  0  0  0
    4.2690   -3.2057    0.0000 C   0  0  0  0  0  0  0  0  0  0  0  0
    3.8180    0.2197    0.0000 H   0  0  0  0  0  0  0  0  0  0  0  0
    4.8796   -0.3134    0.0000 H   0  0  0  0  0  0  0  0  0  0  0  0
    4.2690   -3.8257    0.0000 H   0  0  0  0  0  0  0  0  0  0  0  0
    5.5071    3.1960    0.0000 H   0  0  0  0  0  0  0  0  0  0  0  0
    2.0000   -1.5157    0.0000 H   0  0  0  0  0  0  0  0  0  0  0  0
    2.5849    1.8013    0.0000 H   0  0  0  0  0  0  0  0  0  0  0  0
  1 15  1  0  0  0  0
  2 14  1  0  0  0  0
  3 17  1  0  0  0  0
  4 16  1  0  0  0  0
  5 19  1  0  0  0  0
  6 18  1  0  0  0  0
  7 12  1  0  0  0  0
  7 26  1  0  0  0  0
  8 13  1  0  0  0  0
  8 27  1  0  0  0  0
  9 10  1  0  0  0  0
  9 11  1  0  0  0  0
  9 22  1  0  0  0  0
  9 23  1  0  0  0  0
 10 12  2  0  0  0  0
 10 14  1  0  0  0  0
 11 13  2  0  0  0  0
 11 15  1  0  0  0  0
 12 17  1  0  0  0  0
 13 16  1  0  0  0  0
 14 18  2  0  0  0  0
 15 19  2  0  0  0  0
 16 20  2  0  0  0  0
 17 21  2  0  0  0  0
 18 21  1  0  0  0  0
 19 20  1  0  0  0  0
 20 25  1  0  0  0  0
 21 24  1  0  0  0  0
M  END
> <PUBCHEM_COMPOUND_CID>
3598

> <PUBCHEM_COMPOUND_CANONICALIZED>
1

> <PUBCHEM_CACTVS_COMPLEXITY>
328

> <PUBCHEM_CACTVS_HBOND_ACCEPTOR>
2

> <PUBCHEM_CACTVS_HBOND_DONOR>
2

> <PUBCHEM_CACTVS_ROTATABLE_BOND>
2

> <PUBCHEM_CACTVS_SUBSKEYS>
AAADcYBwMAAHAAAAAAAAAAAAAAAAAAAAAAAwYAAAAAAAAAABQAAAGgIACAAADAaAmCAwBoAAAgCAAiBCAAACAAAgJUAAikAEC4gIJiKDEhKAcAAkwBEImAeA4OQOACAQIQCJCAQAQCBCARIQCAAAAAAAAA==

> <PUBCHEM_IUPAC_OPENEYE_NAME>
3,4,6-trichloro-2-[(2,3,5-trichloro-6-hydroxy-phenyl)methyl]phenol

> <PUBCHEM_IUPAC_CAS_NAME>
3,4,6-trichloro-2-[(2,3,5-trichloro-6-hydroxyphenyl)methyl]phenol

> <PUBCHEM_IUPAC_NAME>
3,4,6-trichloro-2-[(2,3,5-trichloro-6-hydroxyphenyl)methyl]phenol

> <PUBCHEM_IUPAC_SYSTEMATIC_NAME>
3,4,6-tris(chloranyl)-2-[[2,3,5-tris(chloranyl)-6-oxidanyl-phenyl]methyl]phenol

> <PUBCHEM_IUPAC_TRADITIONAL_NAME>
3,4,6-trichloro-2-(2,3,5-trichloro-6-hydroxy-benzyl)phenol

> <PUBCHEM_IUPAC_INCHI>
InChI=1S/C13H6Cl6O2/c14-6-2-8(16)12(20)4(10(6)18)1-5-11(19)7(15)3-9(17)13(5)21/h2-3,20-21H,1H2

> <PUBCHEM_IUPAC_INCHIKEY>
ACGUYXCXAPNIKK-UHFFFAOYSA-N

> <PUBCHEM_XLOGP3>
7.5

> <PUBCHEM_EXACT_MASS>
405.846945

> <PUBCHEM_MOLECULAR_FORMULA>
C13H6Cl6O2

> <PUBCHEM_MOLECULAR_WEIGHT>
406.90354

> <PUBCHEM_OPENEYE_CAN_SMILES>
C1=C(C(=C(C(=C1Cl)Cl)CC2=C(C(=CC(=C2Cl)Cl)Cl)O)O)Cl

> <PUBCHEM_OPENEYE_ISO_SMILES>
C1=C(C(=C(C(=C1Cl)Cl)CC2=C(C(=CC(=C2Cl)Cl)Cl)O)O)Cl

> <PUBCHEM_CACTVS_TPSA>
40.5

> <PUBCHEM_MONOISOTOPIC_WEIGHT>
403.849896

> <PUBCHEM_TOTAL_CHARGE>
0

> <PUBCHEM_HEAVY_ATOM_COUNT>
21

> <PUBCHEM_ATOM_DEF_STEREO_COUNT>
0

> <PUBCHEM_ATOM_UDEF_STEREO_COUNT>
0

> <PUBCHEM_BOND_DEF_STEREO_COUNT>
0

> <PUBCHEM_BOND_UDEF_STEREO_COUNT>
0

> <PUBCHEM_ISOTOPIC_ATOM_COUNT>
0

> <PUBCHEM_COMPONENT_COUNT>
1

> <PUBCHEM_CACTVS_TAUTO_COUNT>
5

> <PUBCHEM_COORDINATE_TYPE>
1
3

> <PUBCHEM_BONDANNOTATIONS>
10  12  8
10  14  8
11  13  8
11  15  8
12  17  8
13  16  8
14  18  8
15  19  8
16  20  8
17  21  8
18  21  8
19  20  8

$$$$

