115078
  -OEChem-07051213133D

 36 36  0     1  0  0  0  0  0999 V2000
   -1.7723    2.7494   -1.8197 Cl  0  0  0  0  0  0  0  0  0  0  0  0
   -3.3792    3.0880    0.5856 Cl  0  0  0  0  0  0  0  0  0  0  0  0
   -0.5484    3.7120    0.6394 Cl  0  0  0  0  0  0  0  0  0  0  0  0
   -2.4274    0.2490   -0.1547 O   0  0  0  0  0  0  0  0  0  0  0  0
    0.8178    0.2514    1.9921 O   0  0  0  0  0  0  0  0  0  0  0  0
    2.6681   -1.6345    1.8422 O   0  0  0  0  0  0  0  0  0  0  0  0
   -0.1292    0.7147   -0.0755 N   0  0  0  0  0  0  0  0  0  0  0  0
   -3.3033   -1.9636   -0.4284 C   0  0  0  0  0  0  0  0  0  0  0  0
   -1.4454    1.1353    0.3998 C   0  0  1  0  0  0  0  0  0  0  0  0
   -2.2146   -1.1101    0.2064 C   0  0  0  0  0  0  0  0  0  0  0  0
   -3.1452   -3.4381   -0.0681 C   0  0  0  0  0  0  0  0  0  0  0  0
   -1.7724    2.5811   -0.0336 C   0  0  0  0  0  0  0  0  0  0  0  0
   -4.2589   -4.2809   -0.6685 C   0  0  0  0  0  0  0  0  0  0  0  0
    0.8915    0.3077    0.7677 C   0  0  0  0  0  0  0  0  0  0  0  0
    2.1641   -0.0644    0.1007 C   0  0  0  0  0  0  0  0  0  0  0  0
    2.9871   -1.0156    0.6706 C   0  0  0  0  0  0  0  0  0  0  0  0
    2.4856    0.5657   -1.0860 C   0  0  0  0  0  0  0  0  0  0  0  0
    4.1794   -1.3505    0.0285 C   0  0  0  0  0  0  0  0  0  0  0  0
    3.6779    0.2307   -1.7278 C   0  0  0  0  0  0  0  0  0  0  0  0
    4.5247   -0.7273   -1.1707 C   0  0  0  0  0  0  0  0  0  0  0  0
   -4.2851   -1.5967   -0.1037 H   0  0  0  0  0  0  0  0  0  0  0  0
   -3.2803   -1.8336   -1.5177 H   0  0  0  0  0  0  0  0  0  0  0  0
   -1.4844    1.0570    1.4938 H   0  0  0  0  0  0  0  0  0  0  0  0
   -2.2457   -1.2064    1.2978 H   0  0  0  0  0  0  0  0  0  0  0  0
   -1.2433   -1.4638   -0.1548 H   0  0  0  0  0  0  0  0  0  0  0  0
   -2.1782   -3.8080   -0.4284 H   0  0  0  0  0  0  0  0  0  0  0  0
   -3.1531   -3.5586    1.0215 H   0  0  0  0  0  0  0  0  0  0  0  0
   -0.0197    0.6578   -1.0823 H   0  0  0  0  0  0  0  0  0  0  0  0
   -5.2378   -3.9578   -0.3002 H   0  0  0  0  0  0  0  0  0  0  0  0
   -4.2609   -4.2074   -1.7607 H   0  0  0  0  0  0  0  0  0  0  0  0
   -4.1251   -5.3333   -0.3991 H   0  0  0  0  0  0  0  0  0  0  0  0
    1.8716    1.3408   -1.5335 H   0  0  0  0  0  0  0  0  0  0  0  0
    4.8492   -2.0944    0.4514 H   0  0  0  0  0  0  0  0  0  0  0  0
    3.9513    0.7215   -2.6574 H   0  0  0  0  0  0  0  0  0  0  0  0
    5.4540   -0.9865   -1.6696 H   0  0  0  0  0  0  0  0  0  0  0  0
    3.3729   -2.2646    2.0709 H   0  0  0  0  0  0  0  0  0  0  0  0
  1 12  1  0  0  0  0
  2 12  1  0  0  0  0
  3 12  1  0  0  0  0
  4  9  1  0  0  0  0
  4 10  1  0  0  0  0
  5 14  2  0  0  0  0
  6 16  1  0  0  0  0
  6 36  1  0  0  0  0
  7  9  1  0  0  0  0
  7 14  1  0  0  0  0
  7 28  1  0  0  0  0
  8 10  1  0  0  0  0
  8 11  1  0  0  0  0
  8 21  1  0  0  0  0
  8 22  1  0  0  0  0
  9 12  1  0  0  0  0
  9 23  1  0  0  0  0
 10 24  1  0  0  0  0
 10 25  1  0  0  0  0
 11 13  1  0  0  0  0
 11 26  1  0  0  0  0
 11 27  1  0  0  0  0
 13 29  1  0  0  0  0
 13 30  1  0  0  0  0
 13 31  1  0  0  0  0
 14 15  1  0  0  0  0
 15 16  1  0  0  0  0
 15 17  2  0  0  0  0
 16 18  2  0  0  0  0
 17 19  1  0  0  0  0
 17 32  1  0  0  0  0
 18 20  1  0  0  0  0
 18 33  1  0  0  0  0
 19 20  2  0  0  0  0
 19 34  1  0  0  0  0
 20 35  1  0  0  0  0
M  END
> <PUBCHEM_COMPOUND_CID>
115078

> <PUBCHEM_CONFORMER_RMSD>
0.8

> <PUBCHEM_CONFORMER_DIVERSEORDER>
2
52
33
18
16
21
35
53
32
14
50
37
38
20
26
1
46
41
28
25
8
42
34
39
30
15
12
27
24
9
47
51
17
19
36
29
49
5
22
6
45
11
40
48
43
31
7
23
10
44
13
4
3

> <PUBCHEM_MMFF94_PARTIAL_CHARGES>
23
1 -0.29
10 0.28
12 0.87
14 0.54
15 0.09
16 0.08
17 -0.15
18 -0.15
19 -0.15
2 -0.29
20 -0.15
28 0.37
3 -0.29
32 0.15
33 0.15
34 0.15
35 0.15
36 0.45
4 -0.56
5 -0.57
6 -0.53
7 -0.73
9 0.58

> <PUBCHEM_EFFECTIVE_ROTOR_COUNT>
8

> <PUBCHEM_PHARMACOPHORE_FEATURES>
6
1 13 hydrophobe
1 4 acceptor
1 5 acceptor
1 6 donor
1 7 donor
6 15 16 17 18 19 20 rings

> <PUBCHEM_HEAVY_ATOM_COUNT>
20

> <PUBCHEM_ATOM_DEF_STEREO_COUNT>
0

> <PUBCHEM_ATOM_UDEF_STEREO_COUNT>
1

> <PUBCHEM_BOND_DEF_STEREO_COUNT>
0

> <PUBCHEM_BOND_UDEF_STEREO_COUNT>
0

> <PUBCHEM_ISOTOPIC_ATOM_COUNT>
0

> <PUBCHEM_COMPONENT_COUNT>
1

> <PUBCHEM_CACTVS_TAUTO_COUNT>
7

> <PUBCHEM_CONFORMER_ID>
0001C18600000002

> <PUBCHEM_MMFF94_ENERGY>
39.1837

> <PUBCHEM_FEATURE_SELFOVERLAP>
30.446

> <PUBCHEM_SHAPE_FINGERPRINT>
12173636 292 17976822313135589941
12553582 1 18339922602509930139
12714826 92 18113333119831873630
12788726 201 18342454867956319595
13955234 65 17181928849301570787
14251757 5 18413674604443462647
14863182 85 17185596815490817877
15842332 3 18060142097708093770
16752209 62 18337118959364441083
18785283 64 16898474210109858409
20388580 30 18050844412767195391
20645477 70 17546176199517790655
22849339 104 18263064673627306391
22849341 161 18193818368377819787
22907989 373 18411705408597422189
23557571 272 18187939386476994480
23598288 3 18271512195856891147
23598291 2 17844530122380220978
314173 41 17979072687342003223
4921388 177 18261668289417253196
603831 33 18130785655325987530
633830 44 17130684232914099478
7364860 26 17472419851186779713
7615 1 17917437570281563656
81228 2 18339942441158782921
84936 182 11094239987246814759

> <PUBCHEM_SHAPE_MULTIPOLES>
394.61
8.28
4.94
1.49
4.17
0.98
0.05
6.94
2.15
-9.45
0.43
1.01
-0.35
-1.07

> <PUBCHEM_SHAPE_SELFOVERLAP>
770.326

> <PUBCHEM_SHAPE_VOLUME>
237

> <PUBCHEM_COORDINATE_TYPE>
2
5
10

$$$$

