656512
  -OEChem-07051212533D

 41 42  0     1  0  0  0  0  0999 V2000
    0.5251   -0.1247   -0.3289 O   0  0  0  0  0  0  0  0  0  0  0  0
   -3.6096   -0.2571   -0.2102 O   0  0  0  0  0  0  0  0  0  0  0  0
    2.0313   -0.8111    1.3644 O   0  0  0  0  0  0  0  0  0  0  0  0
   -1.5702    1.4898   -1.1842 O   0  0  0  0  0  0  0  0  0  0  0  0
   -0.8525   -2.6671   -0.2668 O   0  0  0  0  0  0  0  0  0  0  0  0
    1.9639    2.2505   -0.6801 O   0  0  0  0  0  0  0  0  0  0  0  0
   -3.6025   -2.4708   -0.9508 O   0  0  0  0  0  0  0  0  0  0  0  0
    4.6302    1.2706   -1.1168 O   0  0  0  0  0  0  0  0  0  0  0  0
    4.8613   -0.3966    1.0940 O   0  0  0  0  0  0  0  0  0  0  0  0
   -5.1874    1.6913    0.9098 O   0  0  0  0  0  0  0  0  0  0  0  0
   -0.7756   -0.3083    0.2232 C   0  0  1  0  0  0  0  0  0  0  0  0
   -1.5647    0.9998    0.1582 C   0  0  2  0  0  0  0  0  0  0  0  0
   -1.4932   -1.4211   -0.5402 C   0  0  2  0  0  0  0  0  0  0  0  0
   -3.0098    0.7562    0.6067 C   0  0  1  0  0  0  0  0  0  0  0  0
    1.4579    0.2965    0.6651 C   0  0  1  0  0  0  0  0  0  0  0  0
    2.5494    1.2117    0.0972 C   0  0  1  0  0  0  0  0  0  0  0  0
   -2.9564   -1.5213   -0.1033 C   0  0  1  0  0  0  0  0  0  0  0  0
    3.5375    0.4253   -0.7644 C   0  0  2  0  0  0  0  0  0  0  0  0
    4.0493   -0.8027   -0.0097 C   0  0  2  0  0  0  0  0  0  0  0  0
    2.8886   -1.6180    0.5492 C   0  0  0  0  0  0  0  0  0  0  0  0
   -3.8727    2.0069    0.4875 C   0  0  0  0  0  0  0  0  0  0  0  0
   -0.6880   -0.6319    1.2709 H   0  0  0  0  0  0  0  0  0  0  0  0
   -1.0928    1.7725    0.7731 H   0  0  0  0  0  0  0  0  0  0  0  0
   -1.4159   -1.2633   -1.6219 H   0  0  0  0  0  0  0  0  0  0  0  0
   -3.0365    0.4075    1.6475 H   0  0  0  0  0  0  0  0  0  0  0  0
    0.9304    0.8978    1.4164 H   0  0  0  0  0  0  0  0  0  0  0  0
    3.0958    1.6906    0.9188 H   0  0  0  0  0  0  0  0  0  0  0  0
   -3.0358   -1.8941    0.9257 H   0  0  0  0  0  0  0  0  0  0  0  0
    3.0577    0.1113   -1.6994 H   0  0  0  0  0  0  0  0  0  0  0  0
    4.6786   -1.4203   -0.6593 H   0  0  0  0  0  0  0  0  0  0  0  0
    2.2997   -2.0749   -0.2540 H   0  0  0  0  0  0  0  0  0  0  0  0
    3.2654   -2.4220    1.1901 H   0  0  0  0  0  0  0  0  0  0  0  0
   -3.9392    2.3634   -0.5454 H   0  0  0  0  0  0  0  0  0  0  0  0
   -3.4883    2.8157    1.1157 H   0  0  0  0  0  0  0  0  0  0  0  0
   -2.1210    0.8977   -1.7235 H   0  0  0  0  0  0  0  0  0  0  0  0
   -0.9048   -2.8306    0.6903 H   0  0  0  0  0  0  0  0  0  0  0  0
    1.4339    1.8335   -1.3809 H   0  0  0  0  0  0  0  0  0  0  0  0
   -4.3644   -2.8205   -0.4584 H   0  0  0  0  0  0  0  0  0  0  0  0
    4.2620    2.0474   -1.5716 H   0  0  0  0  0  0  0  0  0  0  0  0
    5.5779    0.1561    0.7379 H   0  0  0  0  0  0  0  0  0  0  0  0
   -5.5121    0.9686    0.3458 H   0  0  0  0  0  0  0  0  0  0  0  0
  1 11  1  0  0  0  0
  1 15  1  0  0  0  0
  2 14  1  0  0  0  0
  2 17  1  0  0  0  0
  3 15  1  0  0  0  0
  3 20  1  0  0  0  0
  4 12  1  0  0  0  0
  4 35  1  0  0  0  0
  5 13  1  0  0  0  0
  5 36  1  0  0  0  0
  6 16  1  0  0  0  0
  6 37  1  0  0  0  0
  7 17  1  0  0  0  0
  7 38  1  0  0  0  0
  8 18  1  0  0  0  0
  8 39  1  0  0  0  0
  9 19  1  0  0  0  0
  9 40  1  0  0  0  0
 10 21  1  0  0  0  0
 10 41  1  0  0  0  0
 11 12  1  0  0  0  0
 11 13  1  0  0  0  0
 11 22  1  0  0  0  0
 12 14  1  0  0  0  0
 12 23  1  0  0  0  0
 13 17  1  0  0  0  0
 13 24  1  0  0  0  0
 14 21  1  0  0  0  0
 14 25  1  0  0  0  0
 15 16  1  0  0  0  0
 15 26  1  0  0  0  0
 16 18  1  0  0  0  0
 16 27  1  0  0  0  0
 17 28  1  0  0  0  0
 18 19  1  0  0  0  0
 18 29  1  0  0  0  0
 19 20  1  0  0  0  0
 19 30  1  0  0  0  0
 20 31  1  0  0  0  0
 20 32  1  0  0  0  0
 21 33  1  0  0  0  0
 21 34  1  0  0  0  0
M  END
> <PUBCHEM_COMPOUND_CID>
656512

> <PUBCHEM_CONFORMER_RMSD>
0.8

> <PUBCHEM_CONFORMER_DIVERSEORDER>
1
32
26
28
20
22
6
35
34
21
10
8
23
15
29
36
17
27
37
33
31
4
18
25
11
12
38
19
5
16
14
40
2
24
30
13
7
3
39
9

> <PUBCHEM_MMFF94_PARTIAL_CHARGES>
28
1 -0.56
10 -0.68
11 0.28
12 0.28
13 0.28
14 0.28
15 0.56
16 0.28
17 0.56
18 0.28
19 0.28
2 -0.56
20 0.28
21 0.28
3 -0.56
35 0.4
36 0.4
37 0.4
38 0.4
39 0.4
4 -0.68
40 0.4
41 0.4
5 -0.68
6 -0.68
7 -0.68
8 -0.68
9 -0.68

> <PUBCHEM_EFFECTIVE_ROTOR_COUNT>
5.4

> <PUBCHEM_PHARMACOPHORE_FEATURES>
19
1 1 acceptor
1 10 acceptor
1 10 donor
1 2 acceptor
1 3 acceptor
1 4 acceptor
1 4 donor
1 5 acceptor
1 5 donor
1 6 acceptor
1 6 donor
1 7 acceptor
1 7 donor
1 8 acceptor
1 8 donor
1 9 acceptor
1 9 donor
6 2 11 12 13 14 17 rings
6 3 15 16 18 19 20 rings

> <PUBCHEM_HEAVY_ATOM_COUNT>
21

> <PUBCHEM_ATOM_DEF_STEREO_COUNT>
8

> <PUBCHEM_ATOM_UDEF_STEREO_COUNT>
1

> <PUBCHEM_BOND_DEF_STEREO_COUNT>
0

> <PUBCHEM_BOND_UDEF_STEREO_COUNT>
0

> <PUBCHEM_ISOTOPIC_ATOM_COUNT>
0

> <PUBCHEM_COMPONENT_COUNT>
1

> <PUBCHEM_CACTVS_TAUTO_COUNT>
1

> <PUBCHEM_CONFORMER_ID>
000A048000000001

> <PUBCHEM_MMFF94_ENERGY>
59.3024

> <PUBCHEM_FEATURE_SELFOVERLAP>
96.537

> <PUBCHEM_SHAPE_FINGERPRINT>
10616163 171 18335980861465946774
12173636 292 18334582347394843445
12236239 1 18272932721539946937
12251169 10 18340767139029713585
12403814 3 18059857307132733405
12592029 89 18267858570189145843
12616971 3 17988645215971707154
12633257 1 18411984693156570548
13221675 6 18272936020349214850
13583140 156 16443357463296053039
13760787 19 18410005542082570792
14115302 16 18187362151203649896
14178342 30 18266195962763468890
15196674 1 18410291402421435198
15375462 189 17988930019574524200
15442244 35 18411421721796773968
15775835 57 18343014510394441464
16752209 62 18187939343532595863
19050596 39 18273215309213841770
19422 9 18413389813177115986
20261772 1 18342452677291000089
20281475 54 18411987961579365810
20871999 31 18334292028869363334
21267235 1 18411694361746643154
21501502 16 18411702066996788142
23402539 116 18114189660854308596
23402655 69 18413103957565846036
23503953 91 18409735083660298328
23557571 272 17967807215393020556
23558518 356 18198339550683083635
23559900 14 17896026793333963350
23598291 2 18343024384677157878
312423 11 18271521996645388239
4214541 1 18335421265886641072
474 4 17559951018354721812
5104073 3 18341334414009817528
573450 72 18409456881511951178
633830 44 17703783734752091002
74978 22 18335141960079573928
7832392 63 18410854335221672900
9709674 26 18336823109201217390
9981440 41 17405710277317383960

> <PUBCHEM_SHAPE_MULTIPOLES>
373.48
9.51
2.41
1.01
1.22
0.62
-0.02
-2.04
-0.73
-1.84
0.41
0.37
-0.08
-1.6

> <PUBCHEM_SHAPE_SELFOVERLAP>
765.707

> <PUBCHEM_SHAPE_VOLUME>
210

> <PUBCHEM_COORDINATE_TYPE>
2
5
10

$$$$

