10009317
  -OEChem-07051213103D

 81 84  0     1  0  0  0  0  0999 V2000
   -0.0815    1.8064   -0.5237 O   0  0  0  0  0  0  0  0  0  0  0  0
    2.3839   -1.1108    0.9861 O   0  0  0  0  0  0  0  0  0  0  0  0
   -1.2425    3.1219    1.0740 O   0  0  0  0  0  0  0  0  0  0  0  0
   -1.2232   -0.5858    0.6294 O   0  0  0  0  0  0  0  0  0  0  0  0
    4.1950    0.3580    1.0662 O   0  0  0  0  0  0  0  0  0  0  0  0
    2.4045    2.5413    0.8764 O   0  0  0  0  0  0  0  0  0  0  0  0
   -1.1101    5.2779   -0.8219 O   0  0  0  0  0  0  0  0  0  0  0  0
   -3.0923    4.2284   -2.4693 O   0  0  0  0  0  0  0  0  0  0  0  0
   -4.5185    2.6660   -0.5534 O   0  0  0  0  0  0  0  0  0  0  0  0
    1.0080   -3.0937   -0.3796 O   0  0  0  0  0  0  0  0  0  0  0  0
    7.2019   -0.4590    2.9755 O   0  0  0  0  0  0  0  0  0  0  0  0
   -1.6473   -1.3033   -1.5254 O   0  0  0  0  0  0  0  0  0  0  0  0
    8.5398    0.2882   -2.5470 O   0  0  0  0  0  0  0  0  0  0  0  0
    8.2608   -2.4586   -2.8694 O   0  0  0  0  0  0  0  0  0  0  0  0
   -8.7790   -3.4808   -1.4403 O   0  0  0  0  0  0  0  0  0  0  0  0
   -9.7586   -2.1534    0.7957 O   0  0  0  0  0  0  0  0  0  0  0  0
    0.5473    1.0452    0.5086 C   0  0  1  0  0  0  0  0  0  0  0  0
    0.1580   -0.4210    0.3189 C   0  0  1  0  0  0  0  0  0  0  0  0
    2.0625    1.2305    0.4267 C   0  0  2  0  0  0  0  0  0  0  0  0
    0.9924   -1.3265    1.2279 C   0  0  1  0  0  0  0  0  0  0  0  0
   -0.3975    3.1221   -0.0818 C   0  0  2  0  0  0  0  0  0  0  0  0
   -1.0438    3.9079   -1.2212 C   0  0  1  0  0  0  0  0  0  0  0  0
    2.7950    0.2165    1.3054 C   0  0  1  0  0  0  0  0  0  0  0  0
   -2.4492    3.3828   -1.5185 C   0  0  1  0  0  0  0  0  0  0  0  0
   -3.2928    3.3249   -0.2444 C   0  0  2  0  0  0  0  0  0  0  0  0
   -2.5396    2.5593    0.8524 C   0  0  2  0  0  0  0  0  0  0  0  0
    0.7047   -2.8026    0.9725 C   0  0  0  0  0  0  0  0  0  0  0  0
   -3.2773    2.6003    2.1879 C   0  0  0  0  0  0  0  0  0  0  0  0
    4.9580   -0.1907    2.1294 C   0  0  0  0  0  0  0  0  0  0  0  0
   -2.0086   -1.0342   -0.3908 C   0  0  0  0  0  0  0  0  0  0  0  0
    6.4464    0.0462    1.8766 C   0  0  2  0  0  0  0  0  0  0  0  0
    6.9317   -0.6194    0.6078 C   0  0  0  0  0  0  0  0  0  0  0  0
   -3.3953   -1.1399    0.1171 C   0  0  0  0  0  0  0  0  0  0  0  0
    7.5194    0.1450   -0.4002 C   0  0  0  0  0  0  0  0  0  0  0  0
    6.7918   -1.9978    0.4460 C   0  0  0  0  0  0  0  0  0  0  0  0
   -4.3686   -1.5620   -0.7025 C   0  0  0  0  0  0  0  0  0  0  0  0
    7.9673   -0.4690   -1.5700 C   0  0  0  0  0  0  0  0  0  0  0  0
    7.2394   -2.6117   -0.7239 C   0  0  0  0  0  0  0  0  0  0  0  0
   -5.7811   -1.7185   -0.3130 C   0  0  0  0  0  0  0  0  0  0  0  0
    7.8273   -1.8473   -1.7318 C   0  0  0  0  0  0  0  0  0  0  0  0
   -6.6259   -2.5342   -1.0658 C   0  0  0  0  0  0  0  0  0  0  0  0
   -6.2735   -1.0510    0.8084 C   0  0  0  0  0  0  0  0  0  0  0  0
   -7.9630   -2.6828   -0.6969 C   0  0  0  0  0  0  0  0  0  0  0  0
   -7.6105   -1.1994    1.1772 C   0  0  0  0  0  0  0  0  0  0  0  0
   -8.4552   -2.0153    0.4245 C   0  0  0  0  0  0  0  0  0  0  0  0
    0.1892    1.3614    1.4968 H   0  0  0  0  0  0  0  0  0  0  0  0
    0.3765   -0.6664   -0.7290 H   0  0  0  0  0  0  0  0  0  0  0  0
    2.3989    1.1542   -0.6141 H   0  0  0  0  0  0  0  0  0  0  0  0
    0.7709   -1.1218    2.2837 H   0  0  0  0  0  0  0  0  0  0  0  0
    0.5132    3.6522    0.2047 H   0  0  0  0  0  0  0  0  0  0  0  0
   -0.4372    3.8594   -2.1329 H   0  0  0  0  0  0  0  0  0  0  0  0
    2.5851    0.4253    2.3638 H   0  0  0  0  0  0  0  0  0  0  0  0
   -2.3917    2.3839   -1.9688 H   0  0  0  0  0  0  0  0  0  0  0  0
   -3.5405    4.3407    0.0851 H   0  0  0  0  0  0  0  0  0  0  0  0
   -2.4389    1.5142    0.5678 H   0  0  0  0  0  0  0  0  0  0  0  0
    1.3474   -3.4283    1.6005 H   0  0  0  0  0  0  0  0  0  0  0  0
   -0.3412   -3.0546    1.1707 H   0  0  0  0  0  0  0  0  0  0  0  0
   -4.2712    2.1495    2.1117 H   0  0  0  0  0  0  0  0  0  0  0  0
   -3.3842    3.6308    2.5441 H   0  0  0  0  0  0  0  0  0  0  0  0
   -2.7087    2.0598    2.9527 H   0  0  0  0  0  0  0  0  0  0  0  0
    2.1258    2.6241    1.8044 H   0  0  0  0  0  0  0  0  0  0  0  0
   -0.1983    5.5944   -0.7035 H   0  0  0  0  0  0  0  0  0  0  0  0
   -2.5328    4.2529   -3.2642 H   0  0  0  0  0  0  0  0  0  0  0  0
   -4.3124    1.7531   -0.8174 H   0  0  0  0  0  0  0  0  0  0  0  0
    4.6828    0.2967    3.0739 H   0  0  0  0  0  0  0  0  0  0  0  0
    4.7345   -1.2577    2.2493 H   0  0  0  0  0  0  0  0  0  0  0  0
    0.8226   -4.0380   -0.5183 H   0  0  0  0  0  0  0  0  0  0  0  0
    6.6322    1.1254    1.8146 H   0  0  0  0  0  0  0  0  0  0  0  0
   -3.5601   -0.8847    1.1574 H   0  0  0  0  0  0  0  0  0  0  0  0
    6.8980    0.0007    3.7767 H   0  0  0  0  0  0  0  0  0  0  0  0
    7.6289    1.2195   -0.2757 H   0  0  0  0  0  0  0  0  0  0  0  0
    6.3462   -2.6123    1.2233 H   0  0  0  0  0  0  0  0  0  0  0  0
   -4.1394   -1.8289   -1.7316 H   0  0  0  0  0  0  0  0  0  0  0  0
    7.1261   -3.6867   -0.8361 H   0  0  0  0  0  0  0  0  0  0  0  0
   -6.2455   -3.0574   -1.9406 H   0  0  0  0  0  0  0  0  0  0  0  0
   -5.6584   -0.3894    1.4114 H   0  0  0  0  0  0  0  0  0  0  0  0
    8.5522    1.2180   -2.2617 H   0  0  0  0  0  0  0  0  0  0  0  0
    8.0814   -3.4124   -2.8045 H   0  0  0  0  0  0  0  0  0  0  0  0
   -7.9826   -0.6703    2.0505 H   0  0  0  0  0  0  0  0  0  0  0  0
   -8.2680   -3.8595   -2.1761 H   0  0  0  0  0  0  0  0  0  0  0  0
   -9.9192   -1.6199    1.5931 H   0  0  0  0  0  0  0  0  0  0  0  0
  1 17  1  0  0  0  0
  1 21  1  0  0  0  0
  2 20  1  0  0  0  0
  2 23  1  0  0  0  0
  3 21  1  0  0  0  0
  3 26  1  0  0  0  0
  4 18  1  0  0  0  0
  4 30  1  0  0  0  0
  5 23  1  0  0  0  0
  5 29  1  0  0  0  0
  6 19  1  0  0  0  0
  6 61  1  0  0  0  0
  7 22  1  0  0  0  0
  7 62  1  0  0  0  0
  8 24  1  0  0  0  0
  8 63  1  0  0  0  0
  9 25  1  0  0  0  0
  9 64  1  0  0  0  0
 10 27  1  0  0  0  0
 10 67  1  0  0  0  0
 11 31  1  0  0  0  0
 11 70  1  0  0  0  0
 12 30  2  0  0  0  0
 13 37  1  0  0  0  0
 13 77  1  0  0  0  0
 14 40  1  0  0  0  0
 14 78  1  0  0  0  0
 15 43  1  0  0  0  0
 15 80  1  0  0  0  0
 16 45  1  0  0  0  0
 16 81  1  0  0  0  0
 17 18  1  0  0  0  0
 17 19  1  0  0  0  0
 17 46  1  0  0  0  0
 18 20  1  0  0  0  0
 18 47  1  0  0  0  0
 19 23  1  0  0  0  0
 19 48  1  0  0  0  0
 20 27  1  0  0  0  0
 20 49  1  0  0  0  0
 21 22  1  0  0  0  0
 21 50  1  0  0  0  0
 22 24  1  0  0  0  0
 22 51  1  0  0  0  0
 23 52  1  0  0  0  0
 24 25  1  0  0  0  0
 24 53  1  0  0  0  0
 25 26  1  0  0  0  0
 25 54  1  0  0  0  0
 26 28  1  0  0  0  0
 26 55  1  0  0  0  0
 27 56  1  0  0  0  0
 27 57  1  0  0  0  0
 28 58  1  0  0  0  0
 28 59  1  0  0  0  0
 28 60  1  0  0  0  0
 29 31  1  0  0  0  0
 29 65  1  0  0  0  0
 29 66  1  0  0  0  0
 30 33  1  0  0  0  0
 31 32  1  0  0  0  0
 31 68  1  0  0  0  0
 32 34  2  0  0  0  0
 32 35  1  0  0  0  0
 33 36  2  0  0  0  0
 33 69  1  0  0  0  0
 34 37  1  0  0  0  0
 34 71  1  0  0  0  0
 35 38  2  0  0  0  0
 35 72  1  0  0  0  0
 36 39  1  0  0  0  0
 36 73  1  0  0  0  0
 37 40  2  0  0  0  0
 38 40  1  0  0  0  0
 38 74  1  0  0  0  0
 39 41  2  0  0  0  0
 39 42  1  0  0  0  0
 41 43  1  0  0  0  0
 41 75  1  0  0  0  0
 42 44  2  0  0  0  0
 42 76  1  0  0  0  0
 43 45  2  0  0  0  0
 44 45  1  0  0  0  0
 44 79  1  0  0  0  0
M  END
> <PUBCHEM_COMPOUND_CID>
10009317

> <PUBCHEM_CONFORMER_RMSD>
1.2

> <PUBCHEM_CONFORMER_DIVERSEORDER>
1
59
75
67
56
71
55
78
36
76
29
69
58
66
79
38
14
77
61
60
42
73
65
35
64
45
37
15
57
70
53
51
74
62
39
68
17
72
28
50
18
8
26
10
33
19
41
32
34
22
48
52
31
20
54
9
23
47
30
25
40
24
44
27
46
63
13
49
16
12
43
21
7
11
3
6
2
5
4

> <PUBCHEM_MMFF94_PARTIAL_CHARGES>
62
1 -0.56
10 -0.68
11 -0.68
12 -0.57
13 -0.53
14 -0.53
15 -0.53
16 -0.53
17 0.28
18 0.28
19 0.28
2 -0.56
20 0.28
21 0.56
22 0.28
23 0.56
24 0.28
25 0.28
26 0.28
27 0.28
29 0.28
3 -0.56
30 0.71
31 0.42
32 -0.14
33 -0.14
34 -0.15
35 -0.15
36 -0.18
37 0.08
38 -0.15
39 0.03
4 -0.43
40 0.08
41 -0.15
42 -0.15
43 0.08
44 -0.15
45 0.08
5 -0.56
6 -0.68
61 0.4
62 0.4
63 0.4
64 0.4
67 0.4
69 0.15
7 -0.68
70 0.4
71 0.15
72 0.15
73 0.15
74 0.15
75 0.15
76 0.15
77 0.45
78 0.45
79 0.15
8 -0.68
80 0.45
81 0.45
9 -0.68

> <PUBCHEM_EFFECTIVE_ROTOR_COUNT>
13.4

> <PUBCHEM_PHARMACOPHORE_FEATURES>
25
1 1 acceptor
1 10 acceptor
1 10 donor
1 11 acceptor
1 11 donor
1 12 acceptor
1 13 donor
1 14 donor
1 15 donor
1 16 donor
1 2 acceptor
1 3 acceptor
1 5 acceptor
1 6 acceptor
1 6 donor
1 7 acceptor
1 7 donor
1 8 acceptor
1 8 donor
1 9 acceptor
1 9 donor
6 2 17 18 19 20 23 rings
6 3 21 22 24 25 26 rings
6 32 34 35 37 38 40 rings
6 39 41 42 43 44 45 rings

> <PUBCHEM_HEAVY_ATOM_COUNT>
45

> <PUBCHEM_ATOM_DEF_STEREO_COUNT>
10

> <PUBCHEM_ATOM_UDEF_STEREO_COUNT>
1

> <PUBCHEM_BOND_DEF_STEREO_COUNT>
1

> <PUBCHEM_BOND_UDEF_STEREO_COUNT>
0

> <PUBCHEM_ISOTOPIC_ATOM_COUNT>
0

> <PUBCHEM_COMPONENT_COUNT>
1

> <PUBCHEM_CACTVS_TAUTO_COUNT>
51

> <PUBCHEM_CONFORMER_ID>
0098BAE500000001

> <PUBCHEM_MMFF94_ENERGY>
129.1262

> <PUBCHEM_FEATURE_SELFOVERLAP>
126.978

> <PUBCHEM_SHAPE_FINGERPRINT>
10190108 129 18409448081356206835
13617811 41 18272089379912498254
13782708 43 17676777539231357594
14040222 275 18342452591333573498
14068700 675 18334576790229876561
14117953 113 18338807728100699255
14295346 376 18264759029825923898
14400156 266 18410574007512927069
15198563 99 18272661168597762397
15400415 2 17331980815235096549
16991971 28 18340486664859932971
19315958 150 17168711822024695194
21792965 169 17846490479384312194
21927370 108 18342734114424985841
23576562 1 18202559588407926036
25269216 80 18412542129142104334
3552219 110 17703789236716110029
44880168 125 17749118759312897423
6057620 51 18131350817166889946

> <PUBCHEM_SHAPE_MULTIPOLES>
832.17
27.69
5.37
2.12
8.61
6.11
-0.22
-31.26
-6.6
-8.24
-2.47
3.79
0.25
1.32

> <PUBCHEM_SHAPE_SELFOVERLAP>
1767.568

> <PUBCHEM_SHAPE_VOLUME>
457.3

> <PUBCHEM_COORDINATE_TYPE>
2
5
10

$$$$

