17395904
  -OEChem-06241222532D

 47 49  0     1  0  0  0  0  0999 V2000
    2.0000   -3.1012    0.0000 Cl  0  0  0  0  0  0  0  0  0  0  0  0
    4.5981    1.3988    0.0000 O   0  0  0  0  0  0  0  0  0  0  0  0
    8.0622   -1.6012    0.0000 O   0  0  0  0  0  0  0  0  0  0  0  0
    3.7320   -0.1012    0.0000 O   0  0  0  0  0  0  0  0  0  0  0  0
    7.1962    1.8988    0.0000 N   0  0  0  0  0  0  0  0  0  0  0  0
    7.1962   -0.1012    0.0000 N   0  0  0  0  0  0  0  0  0  0  0  0
    6.3301   -1.6012    0.0000 N   0  0  0  0  0  0  0  0  0  0  0  0
    8.1097    1.4921    0.0000 C   0  0  0  0  0  0  0  0  0  0  0  0
    7.3007    2.8933    0.0000 C   0  0  0  0  0  0  0  0  0  0  0  0
    8.2788    3.1012    0.0000 C   0  0  0  0  0  0  0  0  0  0  0  0
    8.7788    2.2352    0.0000 C   0  0  0  0  0  0  0  0  0  0  0  0
    6.3301    1.3988    0.0000 C   0  0  0  0  0  0  0  0  0  0  0  0
    6.3301    0.3988    0.0000 C   0  0  0  0  0  0  0  0  0  0  0  0
    5.4641   -1.1012    0.0000 C   0  0  3  0  0  0  0  0  0  0  0  0
    5.4641   -0.1012    0.0000 C   0  0  0  0  0  0  0  0  0  0  0  0
    4.5981   -1.6012    0.0000 C   0  0  0  0  0  0  0  0  0  0  0  0
    7.1962   -1.1012    0.0000 C   0  0  0  0  0  0  0  0  0  0  0  0
    4.5981    0.3988    0.0000 C   0  0  0  0  0  0  0  0  0  0  0  0
    3.7320   -1.1012    0.0000 C   0  0  0  0  0  0  0  0  0  0  0  0
    4.5981   -2.6012    0.0000 C   0  0  0  0  0  0  0  0  0  0  0  0
    2.8660   -1.6012    0.0000 C   0  0  0  0  0  0  0  0  0  0  0  0
    3.7320   -3.1012    0.0000 C   0  0  0  0  0  0  0  0  0  0  0  0
    2.8660   -2.6012    0.0000 C   0  0  0  0  0  0  0  0  0  0  0  0
    3.7320    1.8988    0.0000 C   0  0  0  0  0  0  0  0  0  0  0  0
    3.7320    2.8988    0.0000 C   0  0  0  0  0  0  0  0  0  0  0  0
    7.2359    3.5099    0.0000 H   0  0  0  0  0  0  0  0  0  0  0  0
    6.6807    2.8933    0.0000 H   0  0  0  0  0  0  0  0  0  0  0  0
    7.7997    0.9551    0.0000 H   0  0  0  0  0  0  0  0  0  0  0  0
    8.6113    1.1276    0.0000 H   0  0  0  0  0  0  0  0  0  0  0  0
    8.8452    3.3534    0.0000 H   0  0  0  0  0  0  0  0  0  0  0  0
    9.1937    1.7744    0.0000 H   0  0  0  0  0  0  0  0  0  0  0  0
    9.2804    2.5996    0.0000 H   0  0  0  0  0  0  0  0  0  0  0  0
    8.0872    3.6909    0.0000 H   0  0  0  0  0  0  0  0  0  0  0  0
    6.1181    1.9814    0.0000 H   0  0  0  0  0  0  0  0  0  0  0  0
    5.7196    1.2911    0.0000 H   0  0  0  0  0  0  0  0  0  0  0  0
    5.4641   -1.7212    0.0000 H   0  0  0  0  0  0  0  0  0  0  0  0
    7.7331    0.2088    0.0000 H   0  0  0  0  0  0  0  0  0  0  0  0
    6.3301   -2.2212    0.0000 H   0  0  0  0  0  0  0  0  0  0  0  0
    3.7320   -0.4812    0.0000 H   0  0  0  0  0  0  0  0  0  0  0  0
    5.1350   -2.9112    0.0000 H   0  0  0  0  0  0  0  0  0  0  0  0
    2.3291   -1.2912    0.0000 H   0  0  0  0  0  0  0  0  0  0  0  0
    3.7320   -3.7212    0.0000 H   0  0  0  0  0  0  0  0  0  0  0  0
    3.1215    2.0064    0.0000 H   0  0  0  0  0  0  0  0  0  0  0  0
    3.5200    1.3162    0.0000 H   0  0  0  0  0  0  0  0  0  0  0  0
    4.3520    2.8988    0.0000 H   0  0  0  0  0  0  0  0  0  0  0  0
    3.7320    3.5188    0.0000 H   0  0  0  0  0  0  0  0  0  0  0  0
    3.1120    2.8988    0.0000 H   0  0  0  0  0  0  0  0  0  0  0  0
  1 23  1  0  0  0  0
  2 18  1  0  0  0  0
  2 24  1  0  0  0  0
  3 17  2  0  0  0  0
  4 18  2  0  0  0  0
  5  8  1  0  0  0  0
  5  9  1  0  0  0  0
  5 12  1  0  0  0  0
  6 13  1  0  0  0  0
  6 17  1  0  0  0  0
  6 37  1  0  0  0  0
  7 14  1  0  0  0  0
  7 17  1  0  0  0  0
  7 38  1  0  0  0  0
  8 11  1  0  0  0  0
  8 28  1  0  0  0  0
  8 29  1  0  0  0  0
  9 10  1  0  0  0  0
  9 26  1  0  0  0  0
  9 27  1  0  0  0  0
 10 11  1  0  0  0  0
 10 30  1  0  0  0  0
 10 33  1  0  0  0  0
 11 31  1  0  0  0  0
 11 32  1  0  0  0  0
 12 13  1  0  0  0  0
 12 34  1  0  0  0  0
 12 35  1  0  0  0  0
 13 15  2  0  0  0  0
 14 15  1  0  0  0  0
 14 16  1  0  0  0  0
 14 36  1  0  0  0  0
 15 18  1  0  0  0  0
 16 19  2  0  0  0  0
 16 20  1  0  0  0  0
 19 21  1  0  0  0  0
 19 39  1  0  0  0  0
 20 22  2  0  0  0  0
 20 40  1  0  0  0  0
 21 23  2  0  0  0  0
 21 41  1  0  0  0  0
 22 23  1  0  0  0  0
 22 42  1  0  0  0  0
 24 25  1  0  0  0  0
 24 43  1  0  0  0  0
 24 44  1  0  0  0  0
 25 45  1  0  0  0  0
 25 46  1  0  0  0  0
 25 47  1  0  0  0  0
M  END
> <PUBCHEM_COMPOUND_CID>
17395904

> <PUBCHEM_COMPOUND_CANONICALIZED>
1

> <PUBCHEM_CACTVS_COMPLEXITY>
538

> <PUBCHEM_CACTVS_HBOND_ACCEPTOR>
4

> <PUBCHEM_CACTVS_HBOND_DONOR>
2

> <PUBCHEM_CACTVS_ROTATABLE_BOND>
6

> <PUBCHEM_CACTVS_SUBSKEYS>
AAADceB7MAAEAAAAAAAAAAAAAAAAAWAAAAAwQAAAAAAAAAABAAAAHgIQAAAADCrhmCYzCIPABACIAiTSWACCAAAgBQAIiIEIBsiIZDqBsxGWMAhulgKIqUeYyKCOBAAAAAAAAAAIAAAAAAAAAAAAAAAAAA==

> <PUBCHEM_IUPAC_OPENEYE_NAME>
ethyl 4-(4-chlorophenyl)-2-oxo-6-(pyrrolidin-1-ylmethyl)-3,4-dihydro-1H-pyrimidine-5-carboxylate

> <PUBCHEM_IUPAC_CAS_NAME>
4-(4-chlorophenyl)-2-oxo-6-(1-pyrrolidinylmethyl)-3,4-dihydro-1H-pyrimidine-5-carboxylic acid ethyl ester

> <PUBCHEM_IUPAC_NAME>
ethyl 4-(4-chlorophenyl)-2-oxo-6-(pyrrolidin-1-ylmethyl)-3,4-dihydro-1H-pyrimidine-5-carboxylate

> <PUBCHEM_IUPAC_SYSTEMATIC_NAME>
ethyl 4-(4-chlorophenyl)-2-oxidanylidene-6-(pyrrolidin-1-ylmethyl)-3,4-dihydro-1H-pyrimidine-5-carboxylate

> <PUBCHEM_IUPAC_TRADITIONAL_NAME>
4-(4-chlorophenyl)-2-keto-6-(pyrrolidinomethyl)-3,4-dihydro-1H-pyrimidine-5-carboxylic acid ethyl ester

> <PUBCHEM_IUPAC_INCHI>
InChI=1S/C18H22ClN3O3/c1-2-25-17(23)15-14(11-22-9-3-4-10-22)20-18(24)21-16(15)12-5-7-13(19)8-6-12/h5-8,16H,2-4,9-11H2,1H3,(H2,20,21,24)

> <PUBCHEM_IUPAC_INCHIKEY>
GBRZOHASQUJDOG-UHFFFAOYSA-N

> <PUBCHEM_XLOGP3_AA>
2

> <PUBCHEM_EXACT_MASS>
363.134969

> <PUBCHEM_MOLECULAR_FORMULA>
C18H22ClN3O3

> <PUBCHEM_MOLECULAR_WEIGHT>
363.83858

> <PUBCHEM_OPENEYE_CAN_SMILES>
CCOC(=O)C1=C(NC(=O)NC1C2=CC=C(C=C2)Cl)CN3CCCC3

> <PUBCHEM_OPENEYE_ISO_SMILES>
CCOC(=O)C1=C(NC(=O)NC1C2=CC=C(C=C2)Cl)CN3CCCC3

> <PUBCHEM_CACTVS_TPSA>
70.7

> <PUBCHEM_MONOISOTOPIC_WEIGHT>
363.134969

> <PUBCHEM_TOTAL_CHARGE>
0

> <PUBCHEM_HEAVY_ATOM_COUNT>
25

> <PUBCHEM_ATOM_DEF_STEREO_COUNT>
0

> <PUBCHEM_ATOM_UDEF_STEREO_COUNT>
1

> <PUBCHEM_BOND_DEF_STEREO_COUNT>
0

> <PUBCHEM_BOND_UDEF_STEREO_COUNT>
0

> <PUBCHEM_ISOTOPIC_ATOM_COUNT>
0

> <PUBCHEM_COMPONENT_COUNT>
1

> <PUBCHEM_CACTVS_TAUTO_COUNT>
7

> <PUBCHEM_COORDINATE_TYPE>
1
5
255

> <PUBCHEM_BONDANNOTATIONS>
14  16  3
16  19  8
16  20  8
19  21  8
20  22  8
21  23  8
22  23  8

$$$$

