440169
  -OEChem-07051212493D

 21 20  0     1  0  0  0  0  0999 V2000
   -1.9985   -1.5522    0.4346 O   0  0  0  0  0  0  0  0  0  0  0  0
   -2.8272    0.3247   -0.5296 O   0  0  0  0  0  0  0  0  0  0  0  0
    2.3296    0.0892    1.2779 N   0  0  0  0  0  0  0  0  0  0  0  0
   -0.6342    1.7648   -0.0323 N   0  0  0  0  0  0  0  0  0  0  0  0
    0.5719   -0.3266   -0.4407 C   0  0  0  0  0  0  0  0  0  0  0  0
    1.9906    0.1982   -0.1408 C   0  0  2  0  0  0  0  0  0  0  0  0
   -0.5555    0.3522    0.3521 C   0  0  2  0  0  0  0  0  0  0  0  0
    3.0274   -0.5888   -0.9433 C   0  0  0  0  0  0  0  0  0  0  0  0
   -1.9042   -0.2615    0.0222 C   0  0  0  0  0  0  0  0  0  0  0  0
    0.3743   -0.2332   -1.5181 H   0  0  0  0  0  0  0  0  0  0  0  0
    0.5439   -1.4060   -0.2354 H   0  0  0  0  0  0  0  0  0  0  0  0
    2.0632    1.2519   -0.4328 H   0  0  0  0  0  0  0  0  0  0  0  0
   -0.4096    0.2793    1.4340 H   0  0  0  0  0  0  0  0  0  0  0  0
    3.0151   -1.6541   -0.6861 H   0  0  0  0  0  0  0  0  0  0  0  0
    2.8317   -0.5000   -2.0174 H   0  0  0  0  0  0  0  0  0  0  0  0
    4.0383   -0.2080   -0.7589 H   0  0  0  0  0  0  0  0  0  0  0  0
    2.1789   -0.8671    1.5973 H   0  0  0  0  0  0  0  0  0  0  0  0
    1.7088    0.6765    1.8317 H   0  0  0  0  0  0  0  0  0  0  0  0
   -1.4119    2.2132    0.4503 H   0  0  0  0  0  0  0  0  0  0  0  0
   -0.8218    1.8481   -1.0307 H   0  0  0  0  0  0  0  0  0  0  0  0
   -2.8762   -1.9386    0.2285 H   0  0  0  0  0  0  0  0  0  0  0  0
  1  9  1  0  0  0  0
  1 21  1  0  0  0  0
  2  9  2  0  0  0  0
  3  6  1  0  0  0  0
  3 17  1  0  0  0  0
  3 18  1  0  0  0  0
  4  7  1  0  0  0  0
  4 19  1  0  0  0  0
  4 20  1  0  0  0  0
  5  6  1  0  0  0  0
  5  7  1  0  0  0  0
  5 10  1  0  0  0  0
  5 11  1  0  0  0  0
  6  8  1  0  0  0  0
  6 12  1  0  0  0  0
  7  9  1  0  0  0  0
  7 13  1  0  0  0  0
  8 14  1  0  0  0  0
  8 15  1  0  0  0  0
  8 16  1  0  0  0  0
M  END
> <PUBCHEM_COMPOUND_CID>
440169

> <PUBCHEM_CONFORMER_RMSD>
0.6

> <PUBCHEM_CONFORMER_DIVERSEORDER>
1
9
5
6
10
4
11
8
2
3
7

> <PUBCHEM_MMFF94_PARTIAL_CHARGES>
12
1 -0.65
17 0.36
18 0.36
19 0.36
2 -0.57
20 0.36
21 0.5
3 -0.99
4 -0.99
6 0.27
7 0.33
9 0.66

> <PUBCHEM_EFFECTIVE_ROTOR_COUNT>
3

> <PUBCHEM_PHARMACOPHORE_FEATURES>
7
1 1 acceptor
1 2 acceptor
1 3 cation
1 3 donor
1 4 cation
1 4 donor
3 1 2 9 anion

> <PUBCHEM_HEAVY_ATOM_COUNT>
9

> <PUBCHEM_ATOM_DEF_STEREO_COUNT>
2

> <PUBCHEM_ATOM_UDEF_STEREO_COUNT>
0

> <PUBCHEM_BOND_DEF_STEREO_COUNT>
0

> <PUBCHEM_BOND_UDEF_STEREO_COUNT>
0

> <PUBCHEM_ISOTOPIC_ATOM_COUNT>
0

> <PUBCHEM_COMPONENT_COUNT>
1

> <PUBCHEM_CACTVS_TAUTO_COUNT>
1

> <PUBCHEM_CONFORMER_ID>
0006B76900000001

> <PUBCHEM_MMFF94_ENERGY>
1.8748

> <PUBCHEM_FEATURE_SELFOVERLAP>
35.579

> <PUBCHEM_SHAPE_FINGERPRINT>
10857977 72 18262806163655805218
12716758 59 18341053007589013515
12897270 3 18411411821855004310
12932741 1 18259987067534723782
12932764 1 17489870422978824364
15310529 11 16128655258263310111
20653085 51 15122956234585765949
20711985 344 18263923426441814648
21040471 1 17979637058660067400
23552423 10 17845367748034030469
29004967 10 18186800240521258315
3248919 1 18261111863587576552
5084963 1 18113892797357669596

> <PUBCHEM_SHAPE_MULTIPOLES>
163.52
4.39
1.19
0.92
0.88
0.15
0.15
-0.9
-0.51
-0.5
0.02
0.48
-0.03
0.47

> <PUBCHEM_SHAPE_SELFOVERLAP>
302.225

> <PUBCHEM_SHAPE_VOLUME>
103.5

> <PUBCHEM_COORDINATE_TYPE>
2
5
10

$$$$

