394162
  -OEChem-07051212573D

 44 46  0     1  0  0  0  0  0999 V2000
   -3.5508    2.5430    0.9660 O   0  0  0  0  0  0  0  0  0  0  0  0
    2.9601    1.2995   -1.4422 O   0  0  0  0  0  0  0  0  0  0  0  0
    4.5025   -0.1092    0.3906 O   0  0  0  0  0  0  0  0  0  0  0  0
   -3.1769   -0.8542   -0.8837 N   0  0  2  0  0  0  0  0  0  0  0  0
   -1.1457   -0.7657    0.3110 C   0  0  2  0  0  0  0  0  0  0  0  0
   -1.9244   -0.0711   -0.8500 C   0  0  2  0  0  0  0  0  0  0  0  0
   -1.4779   -2.2551    0.0360 C   0  0  0  0  0  0  0  0  0  0  0  0
   -1.7652   -0.3593    1.6890 C   0  0  0  0  0  0  0  0  0  0  0  0
   -2.7741   -2.2589   -0.7710 C   0  0  0  0  0  0  0  0  0  0  0  0
   -2.1590    1.4316   -0.6381 C   0  0  0  0  0  0  0  0  0  0  0  0
    0.3787   -0.5862    0.3299 C   0  0  0  0  0  0  0  0  0  0  0  0
   -1.8354    1.1476    1.8854 C   0  0  0  0  0  0  0  0  0  0  0  0
   -2.6299    1.7549    0.7591 C   0  0  0  0  0  0  0  0  0  0  0  0
   -3.9915   -0.6304   -2.0719 C   0  0  0  0  0  0  0  0  0  0  0  0
    0.9896    0.2838   -0.5731 C   0  0  0  0  0  0  0  0  0  0  0  0
    1.1528   -1.2936    1.2497 C   0  0  0  0  0  0  0  0  0  0  0  0
    2.3749    0.4465   -0.5562 C   0  0  0  0  0  0  0  0  0  0  0  0
    2.5379   -1.1310    1.2666 C   0  0  0  0  0  0  0  0  0  0  0  0
    3.1490   -0.2609    0.3638 C   0  0  0  0  0  0  0  0  0  0  0  0
    3.1158    2.6561   -1.0298 C   0  0  0  0  0  0  0  0  0  0  0  0
    5.2695   -0.9874   -0.4308 C   0  0  0  0  0  0  0  0  0  0  0  0
   -1.4055   -0.2187   -1.8077 H   0  0  0  0  0  0  0  0  0  0  0  0
   -1.5836   -2.8323    0.9623 H   0  0  0  0  0  0  0  0  0  0  0  0
   -0.6940   -2.7396   -0.5609 H   0  0  0  0  0  0  0  0  0  0  0  0
   -1.2101   -0.8012    2.5246 H   0  0  0  0  0  0  0  0  0  0  0  0
   -2.7847   -0.7607    1.7735 H   0  0  0  0  0  0  0  0  0  0  0  0
   -2.5840   -2.7160   -1.7505 H   0  0  0  0  0  0  0  0  0  0  0  0
   -3.5518   -2.8441   -0.2693 H   0  0  0  0  0  0  0  0  0  0  0  0
   -2.8874    1.8251   -1.3544 H   0  0  0  0  0  0  0  0  0  0  0  0
   -1.2428    2.0082   -0.7956 H   0  0  0  0  0  0  0  0  0  0  0  0
   -0.8412    1.6052    1.9041 H   0  0  0  0  0  0  0  0  0  0  0  0
   -2.3316    1.3761    2.8346 H   0  0  0  0  0  0  0  0  0  0  0  0
   -4.3852    0.3900   -2.0965 H   0  0  0  0  0  0  0  0  0  0  0  0
   -4.8636   -1.2942   -2.0648 H   0  0  0  0  0  0  0  0  0  0  0  0
   -3.4343   -0.8091   -2.9984 H   0  0  0  0  0  0  0  0  0  0  0  0
    0.4384    0.8364   -1.3228 H   0  0  0  0  0  0  0  0  0  0  0  0
    0.7000   -1.9835    1.9561 H   0  0  0  0  0  0  0  0  0  0  0  0
    3.1350   -1.6861    1.9849 H   0  0  0  0  0  0  0  0  0  0  0  0
    2.1399    3.1108   -0.8319 H   0  0  0  0  0  0  0  0  0  0  0  0
    3.6008    3.2070   -1.8403 H   0  0  0  0  0  0  0  0  0  0  0  0
    3.7472    2.7177   -0.1379 H   0  0  0  0  0  0  0  0  0  0  0  0
    5.1169   -2.0278   -0.1267 H   0  0  0  0  0  0  0  0  0  0  0  0
    6.3266   -0.7377   -0.3054 H   0  0  0  0  0  0  0  0  0  0  0  0
    5.0026   -0.8607   -1.4848 H   0  0  0  0  0  0  0  0  0  0  0  0
  1 13  2  0  0  0  0
  2 17  1  0  0  0  0
  2 20  1  0  0  0  0
  3 19  1  0  0  0  0
  3 21  1  0  0  0  0
  4  6  1  0  0  0  0
  4  9  1  0  0  0  0
  4 14  1  0  0  0  0
  5  6  1  0  0  0  0
  5  7  1  0  0  0  0
  5  8  1  0  0  0  0
  5 11  1  0  0  0  0
  6 10  1  0  0  0  0
  6 22  1  0  0  0  0
  7  9  1  0  0  0  0
  7 23  1  0  0  0  0
  7 24  1  0  0  0  0
  8 12  1  0  0  0  0
  8 25  1  0  0  0  0
  8 26  1  0  0  0  0
  9 27  1  0  0  0  0
  9 28  1  0  0  0  0
 10 13  1  0  0  0  0
 10 29  1  0  0  0  0
 10 30  1  0  0  0  0
 11 15  2  0  0  0  0
 11 16  1  0  0  0  0
 12 13  1  0  0  0  0
 12 31  1  0  0  0  0
 12 32  1  0  0  0  0
 14 33  1  0  0  0  0
 14 34  1  0  0  0  0
 14 35  1  0  0  0  0
 15 17  1  0  0  0  0
 15 36  1  0  0  0  0
 16 18  2  0  0  0  0
 16 37  1  0  0  0  0
 17 19  2  0  0  0  0
 18 19  1  0  0  0  0
 18 38  1  0  0  0  0
 20 39  1  0  0  0  0
 20 40  1  0  0  0  0
 20 41  1  0  0  0  0
 21 42  1  0  0  0  0
 21 43  1  0  0  0  0
 21 44  1  0  0  0  0
M  END
> <PUBCHEM_COMPOUND_CID>
394162

> <PUBCHEM_CONFORMER_RMSD>
0.6

> <PUBCHEM_CONFORMER_DIVERSEORDER>
1
56
22
20
53
15
27
11
39
30
38
59
48
49
44
34
28
55
43
35
40
13
10
33
37
57
21
3
58
54
24
36
32
17
12
31
46
50
6
52
45
23
9
29
51
25
7
14
42
16
26
41
4
19
47
18
8
2
5

> <PUBCHEM_MMFF94_PARTIAL_CHARGES>
22
1 -0.57
10 0.06
11 -0.14
12 0.06
13 0.45
14 0.27
15 -0.15
16 -0.15
17 0.08
18 -0.15
19 0.08
2 -0.36
20 0.28
21 0.28
3 -0.36
36 0.15
37 0.15
38 0.15
4 -0.81
5 0.14
6 0.27
9 0.27

> <PUBCHEM_EFFECTIVE_ROTOR_COUNT>
4.2

> <PUBCHEM_PHARMACOPHORE_FEATURES>
7
1 1 acceptor
1 2 acceptor
1 3 acceptor
1 4 cation
5 4 5 6 7 9 rings
6 11 15 16 17 18 19 rings
6 5 6 8 10 12 13 rings

> <PUBCHEM_HEAVY_ATOM_COUNT>
21

> <PUBCHEM_ATOM_DEF_STEREO_COUNT>
2

> <PUBCHEM_ATOM_UDEF_STEREO_COUNT>
0

> <PUBCHEM_BOND_DEF_STEREO_COUNT>
0

> <PUBCHEM_BOND_UDEF_STEREO_COUNT>
0

> <PUBCHEM_ISOTOPIC_ATOM_COUNT>
0

> <PUBCHEM_COMPONENT_COUNT>
1

> <PUBCHEM_CACTVS_TAUTO_COUNT>
3

> <PUBCHEM_CONFORMER_ID>
000603B200000001

> <PUBCHEM_MMFF94_ENERGY>
83.764

> <PUBCHEM_FEATURE_SELFOVERLAP>
35.699

> <PUBCHEM_SHAPE_FINGERPRINT>
11315181 36 18341056250959248090
11640471 11 18338513157203837081
12236239 1 18411421734644785059
12553582 1 17775005747598547360
12788726 201 18187076218657534057
12916754 54 18272083838597655738
13140716 1 18059564781226373088
13224815 77 17774719766895207488
13583140 156 17632289125212114689
14250199 8 18130507435987014070
16752209 62 18187096056752882135
16945 1 18187939352380837319
17349148 13 18261117387168960790
17980427 23 18263097612127014368
1813 80 16661489472589265415
18186145 218 17774995761730908428
18219364 16 16773794830926032003
192875 21 18336274448360812244
19862831 5 18343027657437190134
200 152 18339652148107837159
20449540 30 17986951843405392039
21033648 29 16056887935121282685
21197605 99 17265820985074336869
21524375 3 18267857470830518201
21864079 5 18268127830279158508
23402539 116 18114472205646978935
23419403 2 15792887450093887115
23557571 272 17603307054933454600
23559900 14 18264503810120794322
312423 11 18271230626348675918
633830 44 18059557110614937222
6992083 37 18053396675201824994
74978 22 18343862204184984810
7615 1 18337664231348406184
7832392 63 18341327894381213336
81228 2 17749105574337921595
9981440 41 17550388432790092384

> <PUBCHEM_SHAPE_MULTIPOLES>
409.58
8.05
2.4
1.67
6.9
0.88
0.13
0.27
-2.26
-0.91
-0.09
-1.14
0.19
-1.95

> <PUBCHEM_SHAPE_SELFOVERLAP>
870.91

> <PUBCHEM_SHAPE_VOLUME>
230.3

> <PUBCHEM_COORDINATE_TYPE>
2
5
10

$$$$

