23724731
  -OEChem-07051213082D

 92 97  0     1  0  0  0  0  0999 V2000
   10.3474   -1.2743    0.0000 O   0  0  0  0  0  0  0  0  0  0  0  0
    6.0010   -1.7197    0.0000 O   0  0  0  0  0  0  0  0  0  0  0  0
    8.6155   -1.2543    0.0000 O   0  0  0  0  0  0  0  0  0  0  0  0
    5.1350   -0.2197    0.0000 O   0  0  0  0  0  0  0  0  0  0  0  0
   12.0562   -3.2942    0.0000 O   0  0  0  0  0  0  0  0  0  0  0  0
   10.3127   -4.2741    0.0000 O   0  0  0  0  0  0  0  0  0  0  0  0
    8.5923   -3.2542    0.0000 O   0  0  0  0  0  0  0  0  0  0  0  0
    3.4030   -3.2197    0.0000 O   0  0  0  0  0  0  0  0  0  0  0  0
    5.1350   -4.2197    0.0000 O   0  0  0  0  0  0  0  0  0  0  0  0
    3.4030   -1.2197    0.0000 O   0  0  0  0  0  0  0  0  0  0  0  0
   12.9395   -1.8043    0.0000 O   0  0  0  0  0  0  0  0  0  0  0  0
    6.8671   -4.2197    0.0000 O   0  0  0  0  0  0  0  0  0  0  0  0
    6.8671    1.7803    0.0000 O   0  3  0  0  0  0  0  0  0  0  0  0
   10.3972    1.8044    0.0000 O   0  0  0  0  0  0  0  0  0  0  0  0
   13.8228   -0.3144    0.0000 O   0  0  0  0  0  0  0  0  0  0  0  0
    2.5369    1.2803    0.0000 O   0  0  0  0  0  0  0  0  0  0  0  0
    4.2690    4.2803    0.0000 O   0  0  0  0  0  0  0  0  0  0  0  0
    2.5369    3.2803    0.0000 O   0  0  0  0  0  0  0  0  0  0  0  0
   18.9839   -3.3743    0.0000 O   0  0  0  0  0  0  0  0  0  0  0  0
   11.1960   -2.7842    0.0000 C   0  0  1  0  0  0  0  0  0  0  0  0
   10.3243   -3.2742    0.0000 C   0  0  1  0  0  0  0  0  0  0  0  0
   11.2076   -1.7843    0.0000 C   0  0  1  0  0  0  0  0  0  0  0  0
    9.4641   -2.7642    0.0000 C   0  0  2  0  0  0  0  0  0  0  0  0
    4.2690   -2.7197    0.0000 C   0  0  1  0  0  0  0  0  0  0  0  0
    5.1350   -3.2197    0.0000 C   0  0  1  0  0  0  0  0  0  0  0  0
    4.2690   -1.7197    0.0000 C   0  0  2  0  0  0  0  0  0  0  0  0
    6.0010   -2.7197    0.0000 C   0  0  1  0  0  0  0  0  0  0  0  0
    9.4756   -1.7643    0.0000 C   0  0  1  0  0  0  0  0  0  0  0  0
    5.1350   -1.2197    0.0000 C   0  0  1  0  0  0  0  0  0  0  0  0
   12.0793   -1.2943    0.0000 C   0  0  0  0  0  0  0  0  0  0  0  0
    6.8671   -3.2197    0.0000 C   0  0  0  0  0  0  0  0  0  0  0  0
    8.6270   -0.2544    0.0000 C   0  0  0  0  0  0  0  0  0  0  0  0
    6.0010    0.2803    0.0000 C   0  0  0  0  0  0  0  0  0  0  0  0
    7.7331    0.2803    0.0000 C   0  0  0  0  0  0  0  0  0  0  0  0
    6.8671   -0.2197    0.0000 C   0  0  0  0  0  0  0  0  0  0  0  0
    6.0010    1.2803    0.0000 C   0  0  0  0  0  0  0  0  0  0  0  0
    7.7331    1.2803    0.0000 C   0  0  0  0  0  0  0  0  0  0  0  0
    9.5331    0.2595    0.0000 C   0  0  0  0  0  0  0  0  0  0  0  0
    8.6270    1.8150    0.0000 C   0  0  0  0  0  0  0  0  0  0  0  0
    9.5331    1.3011    0.0000 C   0  0  0  0  0  0  0  0  0  0  0  0
    5.1350    1.7803    0.0000 C   0  0  0  0  0  0  0  0  0  0  0  0
   13.8113   -1.3144    0.0000 C   0  0  0  0  0  0  0  0  0  0  0  0
    5.1350    2.7803    0.0000 C   0  0  0  0  0  0  0  0  0  0  0  0
    4.2690    1.2803    0.0000 C   0  0  0  0  0  0  0  0  0  0  0  0
   14.6715   -1.8244    0.0000 C   0  0  0  0  0  0  0  0  0  0  0  0
    3.4030    1.7803    0.0000 C   0  0  0  0  0  0  0  0  0  0  0  0
    4.2690    3.2803    0.0000 C   0  0  0  0  0  0  0  0  0  0  0  0
    3.4030    2.7803    0.0000 C   0  0  0  0  0  0  0  0  0  0  0  0
   15.5432   -1.3344    0.0000 C   0  0  0  0  0  0  0  0  0  0  0  0
   16.4034   -1.8444    0.0000 C   0  0  0  0  0  0  0  0  0  0  0  0
   16.3918   -2.8443    0.0000 C   0  0  0  0  0  0  0  0  0  0  0  0
   17.2751   -1.3544    0.0000 C   0  0  0  0  0  0  0  0  0  0  0  0
   17.2520   -3.3543    0.0000 C   0  0  0  0  0  0  0  0  0  0  0  0
   18.1353   -1.8644    0.0000 C   0  0  0  0  0  0  0  0  0  0  0  0
   18.1238   -2.8643    0.0000 C   0  0  0  0  0  0  0  0  0  0  0  0
   11.1889   -3.4042    0.0000 H   0  0  0  0  0  0  0  0  0  0  0  0
   10.8576   -3.5904    0.0000 H   0  0  0  0  0  0  0  0  0  0  0  0
   11.2148   -1.1643    0.0000 H   0  0  0  0  0  0  0  0  0  0  0  0
    8.9308   -2.4480    0.0000 H   0  0  0  0  0  0  0  0  0  0  0  0
    4.2690   -3.3397    0.0000 H   0  0  0  0  0  0  0  0  0  0  0  0
    5.6720   -3.5297    0.0000 H   0  0  0  0  0  0  0  0  0  0  0  0
    4.2690   -1.0997    0.0000 H   0  0  0  0  0  0  0  0  0  0  0  0
    6.5380   -2.4097    0.0000 H   0  0  0  0  0  0  0  0  0  0  0  0
    8.9352   -2.0680    0.0000 H   0  0  0  0  0  0  0  0  0  0  0  0
    4.5981   -0.9097    0.0000 H   0  0  0  0  0  0  0  0  0  0  0  0
   12.4833   -0.8240    0.0000 H   0  0  0  0  0  0  0  0  0  0  0  0
   11.6863   -0.8148    0.0000 H   0  0  0  0  0  0  0  0  0  0  0  0
    7.4776   -3.3274    0.0000 H   0  0  0  0  0  0  0  0  0  0  0  0
    7.0791   -2.6371    0.0000 H   0  0  0  0  0  0  0  0  0  0  0  0
   12.0490   -3.9142    0.0000 H   0  0  0  0  0  0  0  0  0  0  0  0
   10.8460   -4.5903    0.0000 H   0  0  0  0  0  0  0  0  0  0  0  0
    8.5852   -3.8741    0.0000 H   0  0  0  0  0  0  0  0  0  0  0  0
    3.4030   -3.8397    0.0000 H   0  0  0  0  0  0  0  0  0  0  0  0
    4.5981   -4.5297    0.0000 H   0  0  0  0  0  0  0  0  0  0  0  0
    2.8660   -1.5297    0.0000 H   0  0  0  0  0  0  0  0  0  0  0  0
    6.8671   -0.8397    0.0000 H   0  0  0  0  0  0  0  0  0  0  0  0
   10.0688   -0.0526    0.0000 H   0  0  0  0  0  0  0  0  0  0  0  0
    7.4040   -4.5297    0.0000 H   0  0  0  0  0  0  0  0  0  0  0  0
    8.6199    2.4349    0.0000 H   0  0  0  0  0  0  0  0  0  0  0  0
    5.6720    3.0903    0.0000 H   0  0  0  0  0  0  0  0  0  0  0  0
    4.2690    0.6603    0.0000 H   0  0  0  0  0  0  0  0  0  0  0  0
   14.6643   -2.4443    0.0000 H   0  0  0  0  0  0  0  0  0  0  0  0
   10.3948    2.4245    0.0000 H   0  0  0  0  0  0  0  0  0  0  0  0
   15.5504   -0.7144    0.0000 H   0  0  0  0  0  0  0  0  0  0  0  0
    2.0000    1.5903    0.0000 H   0  0  0  0  0  0  0  0  0  0  0  0
    4.8059    4.5903    0.0000 H   0  0  0  0  0  0  0  0  0  0  0  0
    2.5369    3.9003    0.0000 H   0  0  0  0  0  0  0  0  0  0  0  0
   15.8513   -3.1481    0.0000 H   0  0  0  0  0  0  0  0  0  0  0  0
   17.2823   -0.7345    0.0000 H   0  0  0  0  0  0  0  0  0  0  0  0
   17.2448   -3.9743    0.0000 H   0  0  0  0  0  0  0  0  0  0  0  0
   18.6758   -1.5606    0.0000 H   0  0  0  0  0  0  0  0  0  0  0  0
   19.5244   -3.0706    0.0000 H   0  0  0  0  0  0  0  0  0  0  0  0
  1 22  1  0  0  0  0
  1 28  1  0  0  0  0
  2 27  1  0  0  0  0
  2 29  1  0  0  0  0
 28  3  1  6  0  0  0
  3 32  1  0  0  0  0
 29  4  1  6  0  0  0
  4 33  1  0  0  0  0
 20  5  1  1  0  0  0
  5 70  1  0  0  0  0
 21  6  1  6  0  0  0
  6 71  1  0  0  0  0
 23  7  1  1  0  0  0
  7 72  1  0  0  0  0
 24  8  1  6  0  0  0
  8 73  1  0  0  0  0
 25  9  1  1  0  0  0
  9 74  1  0  0  0  0
 26 10  1  1  0  0  0
 10 75  1  0  0  0  0
 11 30  1  0  0  0  0
 11 42  1  0  0  0  0
 12 31  1  0  0  0  0
 12 78  1  0  0  0  0
 13 36  1  0  0  0  0
 13 37  2  0  0  0  0
 14 40  1  0  0  0  0
 14 83  1  0  0  0  0
 15 42  2  0  0  0  0
 16 46  1  0  0  0  0
 16 85  1  0  0  0  0
 17 47  1  0  0  0  0
 17 86  1  0  0  0  0
 18 48  1  0  0  0  0
 18 87  1  0  0  0  0
 19 55  1  0  0  0  0
 19 92  1  0  0  0  0
 20 21  1  0  0  0  0
 20 22  1  0  0  0  0
 20 56  1  0  0  0  0
 21 23  1  0  0  0  0
 21 57  1  0  0  0  0
 22 30  1  6  0  0  0
 22 58  1  0  0  0  0
 23 28  1  0  0  0  0
 23 59  1  0  0  0  0
 24 25  1  0  0  0  0
 24 26  1  0  0  0  0
 24 60  1  0  0  0  0
 25 27  1  0  0  0  0
 25 61  1  0  0  0  0
 26 29  1  0  0  0  0
 26 62  1  0  0  0  0
 27 31  1  6  0  0  0
 27 63  1  0  0  0  0
 28 64  1  0  0  0  0
 29 65  1  0  0  0  0
 30 66  1  0  0  0  0
 30 67  1  0  0  0  0
 31 68  1  0  0  0  0
 31 69  1  0  0  0  0
 32 34  1  0  0  0  0
 32 38  2  0  0  0  0
 33 35  1  0  0  0  0
 33 36  2  0  0  0  0
 34 35  2  0  0  0  0
 34 37  1  0  0  0  0
 35 76  1  0  0  0  0
 36 41  1  0  0  0  0
 37 39  1  0  0  0  0
 38 40  1  0  0  0  0
 38 77  1  0  0  0  0
 39 40  2  0  0  0  0
 39 79  1  0  0  0  0
 41 43  2  0  0  0  0
 41 44  1  0  0  0  0
 42 45  1  0  0  0  0
 43 47  1  0  0  0  0
 43 80  1  0  0  0  0
 44 46  2  0  0  0  0
 44 81  1  0  0  0  0
 45 49  2  0  0  0  0
 45 82  1  0  0  0  0
 46 48  1  0  0  0  0
 47 48  2  0  0  0  0
 49 50  1  0  0  0  0
 49 84  1  0  0  0  0
 50 51  2  0  0  0  0
 50 52  1  0  0  0  0
 51 53  1  0  0  0  0
 51 88  1  0  0  0  0
 52 54  2  0  0  0  0
 52 89  1  0  0  0  0
 53 55  2  0  0  0  0
 53 90  1  0  0  0  0
 54 55  1  0  0  0  0
 54 91  1  0  0  0  0
M  CHG  1  13   1
M  END
> <PUBCHEM_COMPOUND_CID>
23724731

> <PUBCHEM_COMPOUND_CANONICALIZED>
1

> <PUBCHEM_CACTVS_COMPLEXITY>
1260

> <PUBCHEM_CACTVS_HBOND_ACCEPTOR>
18

> <PUBCHEM_CACTVS_HBOND_DONOR>
12

> <PUBCHEM_CACTVS_ROTATABLE_BOND>
11

> <PUBCHEM_CACTVS_SUBSKEYS>
AAADcfB8PgAAAAAAAAAAAAAAAAAAAAAAAAA0aNECAAAAAACR9AAAGgAACAAADBSwmAMwDsAABkCIAqDSCAICCAAkIAAIiAFGiMgdNzaGNR6ieWOl4BUPuYfK7PzOIAABCAAIQABAAAIQABCAAAAAAAAAAA==

> <PUBCHEM_IUPAC_OPENEYE_NAME>
[(2R,3S,4S,5R,6S)-3,4,5-trihydroxy-6-[7-hydroxy-3-[(2S,3R,4S,5S,6R)-3,4,5-trihydroxy-6-(hydroxymethyl)tetrahydropyran-2-yl]oxy-2-(3,4,5-trihydroxyphenyl)chromenylium-5-yl]oxy-tetrahydropyran-2-yl]methyl (E)-3-(4-hydroxyphenyl)prop-2-enoate

> <PUBCHEM_IUPAC_CAS_NAME>
(E)-3-(4-hydroxyphenyl)-2-propenoic acid [(2R,3S,4S,5R,6S)-3,4,5-trihydroxy-6-[[7-hydroxy-3-[[(2S,3R,4S,5S,6R)-3,4,5-trihydroxy-6-(hydroxymethyl)-2-oxanyl]oxy]-2-(3,4,5-trihydroxyphenyl)-1-benzopyrylium-5-yl]oxy]-2-oxanyl]methyl ester

> <PUBCHEM_IUPAC_NAME>
[(2R,3S,4S,5R,6S)-3,4,5-trihydroxy-6-[7-hydroxy-3-[(2S,3R,4S,5S,6R)-3,4,5-trihydroxy-6-(hydroxymethyl)oxan-2-yl]oxy-2-(3,4,5-trihydroxyphenyl)chromenylium-5-yl]oxyoxan-2-yl]methyl (E)-3-(4-hydroxyphenyl)prop-2-enoate

> <PUBCHEM_IUPAC_SYSTEMATIC_NAME>
[(2R,3S,4S,5R,6S)-6-[3-[(2S,3R,4S,5S,6R)-6-(hydroxymethyl)-3,4,5-tris(oxidanyl)oxan-2-yl]oxy-7-oxidanyl-2-[3,4,5-tris(oxidanyl)phenyl]chromenylium-5-yl]oxy-3,4,5-tris(oxidanyl)oxan-2-yl]methyl (E)-3-(4-hydroxyphenyl)prop-2-enoate

> <PUBCHEM_IUPAC_TRADITIONAL_NAME>
(E)-3-(4-hydroxyphenyl)acrylic acid [(2R,3S,4S,5R,6S)-3,4,5-trihydroxy-6-[[7-hydroxy-3-[(2S,3R,4S,5S,6R)-3,4,5-trihydroxy-6-methylol-tetrahydropyran-2-yl]oxy-2-(3,4,5-trihydroxyphenyl)-1-benzopyrylium-5-yl]oxy]tetrahydropyran-2-yl]methyl ester

> <PUBCHEM_IUPAC_INCHI>
InChI=1S/C36H36O19/c37-12-24-28(44)30(46)32(48)36(54-24)53-23-11-18-21(51-34(23)15-7-19(40)27(43)20(41)8-15)9-17(39)10-22(18)52-35-33(49)31(47)29(45)25(55-35)13-50-26(42)6-3-14-1-4-16(38)5-2-14/h1-11,24-25,28-33,35-37,44-49H,12-13H2,(H4-,38,39,40,41,42,43)/p+1/t24-,25-,28-,29-,30+,31+,32-,33-,35-,36-/m1/s1

> <PUBCHEM_IUPAC_INCHIKEY>
QBLJGCXJENARAY-QHVGLBQHSA-O

> <PUBCHEM_EXACT_MASS>
773.192904

> <PUBCHEM_MOLECULAR_FORMULA>
C36H37O19+

> <PUBCHEM_MOLECULAR_WEIGHT>
773.66758

> <PUBCHEM_OPENEYE_CAN_SMILES>
C1=CC(=CC=C1C=CC(=O)OCC2C(C(C(C(O2)OC3=CC(=CC4=[O+]C(=C(C=C34)OC5C(C(C(C(O5)CO)O)O)O)C6=CC(=C(C(=C6)O)O)O)O)O)O)O)O

> <PUBCHEM_OPENEYE_ISO_SMILES>
C1=CC(=CC=C1/C=C/C(=O)OC[C@@H]2[C@H]([C@@H]([C@H]([C@@H](O2)OC3=CC(=CC4=[O+]C(=C(C=C34)O[C@H]5[C@@H]([C@H]([C@@H]([C@H](O5)CO)O)O)O)C6=CC(=C(C(=C6)O)O)O)O)O)O)O)O

> <PUBCHEM_CACTVS_TPSA>
307

> <PUBCHEM_MONOISOTOPIC_WEIGHT>
773.192904

> <PUBCHEM_TOTAL_CHARGE>
1

> <PUBCHEM_HEAVY_ATOM_COUNT>
55

> <PUBCHEM_ATOM_DEF_STEREO_COUNT>
10

> <PUBCHEM_ATOM_UDEF_STEREO_COUNT>
0

> <PUBCHEM_BOND_DEF_STEREO_COUNT>
1

> <PUBCHEM_BOND_UDEF_STEREO_COUNT>
0

> <PUBCHEM_ISOTOPIC_ATOM_COUNT>
0

> <PUBCHEM_COMPONENT_COUNT>
1

> <PUBCHEM_CACTVS_TAUTO_COUNT>
400

> <PUBCHEM_COORDINATE_TYPE>
1
5
255

> <PUBCHEM_BONDANNOTATIONS>
26  10  5
13  36  8
13  37  8
22  30  6
27  31  6
28  3  6
32  34  8
32  38  8
33  35  8
33  36  8
34  35  8
34  37  8
37  39  8
38  40  8
39  40  8
29  4  6
41  43  8
41  44  8
43  47  8
44  46  8
46  48  8
47  48  8
20  5  5
50  51  8
50  52  8
51  53  8
52  54  8
53  55  8
54  55  8
21  6  6
23  7  5
24  8  6
25  9  5

$$$$

