443179
  -OEChem-07051213013D

 29 29  0     1  0  0  0  0  0999 V2000
   -2.3001    1.8920   -0.0144 O   0  0  0  0  0  0  0  0  0  0  0  0
   -2.0434   -0.5259   -0.2441 C   0  0  1  0  0  0  0  0  0  0  0  0
    0.9043   -0.0448   -0.4517 C   0  0  2  0  0  0  0  0  0  0  0  0
   -1.4598    0.8680   -0.5362 C   0  0  2  0  0  0  0  0  0  0  0  0
   -0.0526    1.0503    0.0358 C   0  0  0  0  0  0  0  0  0  0  0  0
   -1.0729   -1.6147   -0.7233 C   0  0  0  0  0  0  0  0  0  0  0  0
    0.3393   -1.4425   -0.1614 C   0  0  0  0  0  0  0  0  0  0  0  0
   -2.4222   -0.7212    1.2294 C   0  0  0  0  0  0  0  0  0  0  0  0
    2.2616    0.1200    0.1640 C   0  0  0  0  0  0  0  0  0  0  0  0
    3.3930    0.3738   -0.7875 C   0  0  0  0  0  0  0  0  0  0  0  0
    2.4529    0.0450    1.4894 C   0  0  0  0  0  0  0  0  0  0  0  0
   -2.9777   -0.6266   -0.8129 H   0  0  0  0  0  0  0  0  0  0  0  0
    0.9916    0.0553   -1.5428 H   0  0  0  0  0  0  0  0  0  0  0  0
   -1.4136    1.0137   -1.6229 H   0  0  0  0  0  0  0  0  0  0  0  0
   -0.1122    1.0834    1.1311 H   0  0  0  0  0  0  0  0  0  0  0  0
    0.3259    2.0392   -0.2568 H   0  0  0  0  0  0  0  0  0  0  0  0
   -1.0211   -1.5850   -1.8195 H   0  0  0  0  0  0  0  0  0  0  0  0
   -1.4548   -2.6080   -0.4586 H   0  0  0  0  0  0  0  0  0  0  0  0
    0.3162   -1.6485    0.9153 H   0  0  0  0  0  0  0  0  0  0  0  0
    0.9918   -2.2053   -0.6054 H   0  0  0  0  0  0  0  0  0  0  0  0
   -2.8329   -1.7240    1.3897 H   0  0  0  0  0  0  0  0  0  0  0  0
   -1.5655   -0.6011    1.8987 H   0  0  0  0  0  0  0  0  0  0  0  0
   -3.1895   -0.0025    1.5353 H   0  0  0  0  0  0  0  0  0  0  0  0
   -3.1840    1.7698   -0.4011 H   0  0  0  0  0  0  0  0  0  0  0  0
    3.4903   -0.4578   -1.4931 H   0  0  0  0  0  0  0  0  0  0  0  0
    3.2143    1.2936   -1.3540 H   0  0  0  0  0  0  0  0  0  0  0  0
    4.3512    0.4836   -0.2687 H   0  0  0  0  0  0  0  0  0  0  0  0
    3.4418    0.1667    1.9195 H   0  0  0  0  0  0  0  0  0  0  0  0
    1.6388   -0.1378    2.1821 H   0  0  0  0  0  0  0  0  0  0  0  0
  1  4  1  0  0  0  0
  1 24  1  0  0  0  0
  2  4  1  0  0  0  0
  2  6  1  0  0  0  0
  2  8  1  0  0  0  0
  2 12  1  0  0  0  0
  3  5  1  0  0  0  0
  3  7  1  0  0  0  0
  3  9  1  0  0  0  0
  3 13  1  0  0  0  0
  4  5  1  0  0  0  0
  4 14  1  0  0  0  0
  5 15  1  0  0  0  0
  5 16  1  0  0  0  0
  6  7  1  0  0  0  0
  6 17  1  0  0  0  0
  6 18  1  0  0  0  0
  7 19  1  0  0  0  0
  7 20  1  0  0  0  0
  8 21  1  0  0  0  0
  8 22  1  0  0  0  0
  8 23  1  0  0  0  0
  9 10  1  0  0  0  0
  9 11  2  0  0  0  0
 10 25  1  0  0  0  0
 10 26  1  0  0  0  0
 10 27  1  0  0  0  0
 11 28  1  0  0  0  0
 11 29  1  0  0  0  0
M  END
> <PUBCHEM_COMPOUND_CID>
443179

> <PUBCHEM_CONFORMER_RMSD>
0.6

> <PUBCHEM_CONFORMER_DIVERSEORDER>
1
3
5
6
4
2

> <PUBCHEM_MMFF94_PARTIAL_CHARGES>
9
1 -0.68
10 0.14
11 -0.3
24 0.4
28 0.15
29 0.15
3 0.14
4 0.28
9 -0.28

> <PUBCHEM_EFFECTIVE_ROTOR_COUNT>
2.2

> <PUBCHEM_PHARMACOPHORE_FEATURES>
3
1 1 acceptor
1 1 donor
6 2 3 4 5 6 7 rings

> <PUBCHEM_HEAVY_ATOM_COUNT>
11

> <PUBCHEM_ATOM_DEF_STEREO_COUNT>
3

> <PUBCHEM_ATOM_UDEF_STEREO_COUNT>
0

> <PUBCHEM_BOND_DEF_STEREO_COUNT>
0

> <PUBCHEM_BOND_UDEF_STEREO_COUNT>
0

> <PUBCHEM_ISOTOPIC_ATOM_COUNT>
0

> <PUBCHEM_COMPONENT_COUNT>
1

> <PUBCHEM_CACTVS_TAUTO_COUNT>
1

> <PUBCHEM_CONFORMER_ID>
0006C32B00000001

> <PUBCHEM_MMFF94_ENERGY>
19.1049

> <PUBCHEM_FEATURE_SELFOVERLAP>
15.223

> <PUBCHEM_SHAPE_FINGERPRINT>
10857977 72 18411980222063934395
12423570 1 5183246715573112267
12716758 59 18187369843605978358
12932741 1 17458351818720739236
12932764 1 18113339695780257638
13024252 1 17918280818158710279
13380536 127 18202283593618579752
13764800 53 18336259141197752001
14325111 11 18411135861800969996
15310529 11 17060065817338307014
15775835 57 18261108582121877162
16945 1 18336552624697066367
17844478 74 18339345388589862291
20511035 2 18121788497404175815
20645464 45 17677064459841399938
20871998 184 18336540530369919279
21040471 1 18335710497658651966
23235685 24 18337955700392319837
23552423 10 18200600314373473478
2748010 2 18264765648190614175
29004967 10 14549022095747228054
3248919 1 17918005978985560698
369184 2 17749400238526052178
5084963 1 17895194350871859302
8030462 33 18130799927470481678
81228 2 17609228852767979726

> <PUBCHEM_SHAPE_MULTIPOLES>
220.51
4.41
1.54
1.12
2.27
0.12
0.38
0.52
0.42
-1.05
-0.21
0.27
-0.13
0.04

> <PUBCHEM_SHAPE_SELFOVERLAP>
431.189

> <PUBCHEM_SHAPE_VOLUME>
132.9

> <PUBCHEM_COORDINATE_TYPE>
2
5
10

$$$$

