9481
  -OEChem-06261203442D

 15 15  0     0  0  0  0  0  0999 V2000
    2.0000   -1.5000    0.0000 Cl  0  0  0  0  0  0  0  0  0  0  0  0
    3.7320   -2.5000    0.0000 Cl  0  0  0  0  0  0  0  0  0  0  0  0
    3.7320    2.5000    0.0000 F   0  0  0  0  0  0  0  0  0  0  0  0
    4.7320    1.5000    0.0000 F   0  0  0  0  0  0  0  0  0  0  0  0
    2.7320    1.5000    0.0000 F   0  0  0  0  0  0  0  0  0  0  0  0
    3.7320    0.5000    0.0000 C   0  0  0  0  0  0  0  0  0  0  0  0
    2.8660    0.0000    0.0000 C   0  0  0  0  0  0  0  0  0  0  0  0
    4.5981    0.0000    0.0000 C   0  0  0  0  0  0  0  0  0  0  0  0
    3.7320    1.5000    0.0000 C   0  0  0  0  0  0  0  0  0  0  0  0
    2.8660   -1.0000    0.0000 C   0  0  0  0  0  0  0  0  0  0  0  0
    4.5981   -1.0000    0.0000 C   0  0  0  0  0  0  0  0  0  0  0  0
    3.7320   -1.5000    0.0000 C   0  0  0  0  0  0  0  0  0  0  0  0
    2.3291    0.3100    0.0000 H   0  0  0  0  0  0  0  0  0  0  0  0
    5.1350    0.3100    0.0000 H   0  0  0  0  0  0  0  0  0  0  0  0
    5.1350   -1.3100    0.0000 H   0  0  0  0  0  0  0  0  0  0  0  0
  1 10  1  0  0  0  0
  2 12  1  0  0  0  0
  3  9  1  0  0  0  0
  4  9  1  0  0  0  0
  5  9  1  0  0  0  0
  6  7  2  0  0  0  0
  6  8  1  0  0  0  0
  6  9  1  0  0  0  0
  7 10  1  0  0  0  0
  7 13  1  0  0  0  0
  8 11  2  0  0  0  0
  8 14  1  0  0  0  0
 10 12  2  0  0  0  0
 11 12  1  0  0  0  0
 11 15  1  0  0  0  0
M  END
> <PUBCHEM_COMPOUND_CID>
9481

> <PUBCHEM_COMPOUND_CANONICALIZED>
1

> <PUBCHEM_CACTVS_COMPLEXITY>
157

> <PUBCHEM_CACTVS_HBOND_ACCEPTOR>
3

> <PUBCHEM_CACTVS_HBOND_DONOR>
0

> <PUBCHEM_CACTVS_ROTATABLE_BOND>
0

> <PUBCHEM_CACTVS_SUBSKEYS>
AAADcQBgAYAGAAAAAAAAAAAAAAAAAAAAAAAwAAAAAAAAAAABAAAAGQIAAAAADAKAGDAwAIAAAACAAiBCAAACAAAgBQAIikAAAogIICKBExCAIAAggAAIiAcAgAAOBAAAIAAAAAQIAABAAAAACAAAAAAAAA==

> <PUBCHEM_IUPAC_OPENEYE_NAME>
1,2-dichloro-4-(trifluoromethyl)benzene

> <PUBCHEM_IUPAC_CAS_NAME>
1,2-dichloro-4-(trifluoromethyl)benzene

> <PUBCHEM_IUPAC_NAME>
1,2-dichloro-4-(trifluoromethyl)benzene

> <PUBCHEM_IUPAC_SYSTEMATIC_NAME>
1,2-bis(chloranyl)-4-(trifluoromethyl)benzene

> <PUBCHEM_IUPAC_TRADITIONAL_NAME>
1,2-dichloro-4-(trifluoromethyl)benzene

> <PUBCHEM_IUPAC_INCHI>
InChI=1S/C7H3Cl2F3/c8-5-2-1-4(3-6(5)9)7(10,11)12/h1-3H

> <PUBCHEM_IUPAC_INCHIKEY>
XILPLWOGHPSJBK-UHFFFAOYSA-N

> <PUBCHEM_XLOGP3>
4.4

> <PUBCHEM_EXACT_MASS>
213.95639

> <PUBCHEM_MOLECULAR_FORMULA>
C7H3Cl2F3

> <PUBCHEM_MOLECULAR_WEIGHT>
214.99993

> <PUBCHEM_OPENEYE_CAN_SMILES>
C1=CC(=C(C=C1C(F)(F)F)Cl)Cl

> <PUBCHEM_OPENEYE_ISO_SMILES>
C1=CC(=C(C=C1C(F)(F)F)Cl)Cl

> <PUBCHEM_CACTVS_TPSA>
0

> <PUBCHEM_MONOISOTOPIC_WEIGHT>
213.95639

> <PUBCHEM_TOTAL_CHARGE>
0

> <PUBCHEM_HEAVY_ATOM_COUNT>
12

> <PUBCHEM_ATOM_DEF_STEREO_COUNT>
0

> <PUBCHEM_ATOM_UDEF_STEREO_COUNT>
0

> <PUBCHEM_BOND_DEF_STEREO_COUNT>
0

> <PUBCHEM_BOND_UDEF_STEREO_COUNT>
0

> <PUBCHEM_ISOTOPIC_ATOM_COUNT>
0

> <PUBCHEM_COMPONENT_COUNT>
1

> <PUBCHEM_CACTVS_TAUTO_COUNT>
1

> <PUBCHEM_COORDINATE_TYPE>
1
5
255

> <PUBCHEM_BONDANNOTATIONS>
10  12  8
11  12  8
6  7  8
6  8  8
7  10  8
8  11  8

$$$$

