5281407
  -OEChem-07051212572D

 33 36  0     0  0  0  0  0  0999 V2000
    4.5124    1.5903    0.0000 N   0  0  0  0  0  0  0  0  0  0  0  0
    8.3618   -1.0542    0.0000 N   0  0  0  0  0  0  0  0  0  0  0  0
    5.3181    1.0081    0.0000 C   0  0  0  0  0  0  0  0  0  0  0  0
    5.0091    0.0571    0.0000 C   0  0  0  0  0  0  0  0  0  0  0  0
    6.2962    1.2160    0.0000 C   0  0  0  0  0  0  0  0  0  0  0  0
    4.0150    0.0596    0.0000 C   0  0  0  0  0  0  0  0  0  0  0  0
    6.9654    0.4729    0.0000 C   0  0  0  0  0  0  0  0  0  0  0  0
    6.6564   -0.4782    0.0000 C   0  0  0  0  0  0  0  0  0  0  0  0
    3.7086    1.0053    0.0000 C   0  0  0  0  0  0  0  0  0  0  0  0
    5.6782   -0.6861    0.0000 C   0  0  0  0  0  0  0  0  0  0  0  0
    7.3413   -1.2629    0.0000 C   0  0  0  0  0  0  0  0  0  0  0  0
    6.6053    2.1671    0.0000 C   0  0  0  0  0  0  0  0  0  0  0  0
    3.3334   -0.7199    0.0000 C   0  0  0  0  0  0  0  0  0  0  0  0
    7.9808    0.7051    0.0000 C   0  0  0  0  0  0  0  0  0  0  0  0
    2.6994    1.2371    0.0000 C   0  0  0  0  0  0  0  0  0  0  0  0
    2.3191   -0.5115    0.0000 C   0  0  0  0  0  0  0  0  0  0  0  0
    2.0000    0.4735    0.0000 C   0  0  0  0  0  0  0  0  0  0  0  0
    8.6837   -0.0636    0.0000 C   0  0  0  0  0  0  0  0  0  0  0  0
    7.0213   -2.2103    0.0000 C   0  0  0  0  0  0  0  0  0  0  0  0
    5.4866   -1.2757    0.0000 H   0  0  0  0  0  0  0  0  0  0  0  0
    4.5113    2.2103    0.0000 H   0  0  0  0  0  0  0  0  0  0  0  0
    7.1949    1.9755    0.0000 H   0  0  0  0  0  0  0  0  0  0  0  0
    6.7968    2.7567    0.0000 H   0  0  0  0  0  0  0  0  0  0  0  0
    6.0156    2.3587    0.0000 H   0  0  0  0  0  0  0  0  0  0  0  0
    3.5313   -1.3074    0.0000 H   0  0  0  0  0  0  0  0  0  0  0  0
    8.1655    1.2970    0.0000 H   0  0  0  0  0  0  0  0  0  0  0  0
    2.5152    1.8291    0.0000 H   0  0  0  0  0  0  0  0  0  0  0  0
    1.9056   -0.9735    0.0000 H   0  0  0  0  0  0  0  0  0  0  0  0
    1.3942    0.6053    0.0000 H   0  0  0  0  0  0  0  0  0  0  0  0
    9.2897    0.0677    0.0000 H   0  0  0  0  0  0  0  0  0  0  0  0
    6.4339   -2.0119    0.0000 H   0  0  0  0  0  0  0  0  0  0  0  0
    6.8229   -2.7977    0.0000 H   0  0  0  0  0  0  0  0  0  0  0  0
    7.6087   -2.4087    0.0000 H   0  0  0  0  0  0  0  0  0  0  0  0
  1  3  1  0  0  0  0
  1  9  1  0  0  0  0
  1 21  1  0  0  0  0
  2 11  2  0  0  0  0
  2 18  1  0  0  0  0
  3  4  2  0  0  0  0
  3  5  1  0  0  0  0
  4  6  1  0  0  0  0
  4 10  1  0  0  0  0
  5  7  2  0  0  0  0
  5 12  1  0  0  0  0
  6  9  1  0  0  0  0
  6 13  2  0  0  0  0
  7  8  1  0  0  0  0
  7 14  1  0  0  0  0
  8 10  2  0  0  0  0
  8 11  1  0  0  0  0
  9 15  2  0  0  0  0
 10 20  1  0  0  0  0
 11 19  1  0  0  0  0
 12 22  1  0  0  0  0
 12 23  1  0  0  0  0
 12 24  1  0  0  0  0
 13 16  1  0  0  0  0
 13 25  1  0  0  0  0
 14 18  2  0  0  0  0
 14 26  1  0  0  0  0
 15 17  1  0  0  0  0
 15 27  1  0  0  0  0
 16 17  2  0  0  0  0
 16 28  1  0  0  0  0
 17 29  1  0  0  0  0
 18 30  1  0  0  0  0
 19 31  1  0  0  0  0
 19 32  1  0  0  0  0
 19 33  1  0  0  0  0
M  END
> <PUBCHEM_COMPOUND_CID>
5281407

> <PUBCHEM_COMPOUND_CANONICALIZED>
1

> <PUBCHEM_CACTVS_COMPLEXITY>
342

> <PUBCHEM_CACTVS_HBOND_ACCEPTOR>
1

> <PUBCHEM_CACTVS_HBOND_DONOR>
1

> <PUBCHEM_CACTVS_ROTATABLE_BOND>
0

> <PUBCHEM_CACTVS_SUBSKEYS>
AAADccB7AAAAAAAAAAAAAAAAAAAAAWAAAAA8YIAAAAAAAFix/gAAHAAQAAAADAjBHgQ+wPLJkACgAzRnRACCgCAxAiAI2SA4ZJgIIOLAkZGEIAhgkADIyAcQgMAOyAACQAASAACQAASAACQAAAAAAAAAAA==

> <PUBCHEM_IUPAC_OPENEYE_NAME>
1,5-dimethyl-6H-pyrido[4,3-b]carbazole

> <PUBCHEM_IUPAC_CAS_NAME>
1,5-dimethyl-6H-pyrido[4,3-b]carbazole

> <PUBCHEM_IUPAC_NAME>
1,5-dimethyl-6H-pyrido[4,3-b]carbazole

> <PUBCHEM_IUPAC_SYSTEMATIC_NAME>
1,5-dimethyl-6H-pyrido[4,3-b]carbazole

> <PUBCHEM_IUPAC_TRADITIONAL_NAME>
1,5-dimethyl-6H-pyrido[4,3-b]carbazole

> <PUBCHEM_IUPAC_INCHI>
InChI=1S/C17H14N2/c1-10-12-7-8-18-11(2)14(12)9-15-13-5-3-4-6-16(13)19-17(10)15/h3-9,19H,1-2H3

> <PUBCHEM_IUPAC_INCHIKEY>
ZIXGXMMUKPLXBB-UHFFFAOYSA-N

> <PUBCHEM_XLOGP3_AA>
4.3

> <PUBCHEM_EXACT_MASS>
246.115698

> <PUBCHEM_MOLECULAR_FORMULA>
C17H14N2

> <PUBCHEM_MOLECULAR_WEIGHT>
246.30646

> <PUBCHEM_OPENEYE_CAN_SMILES>
CC1=C2C(=CC3=C1C=CN=C3C)C4=CC=CC=C4N2

> <PUBCHEM_OPENEYE_ISO_SMILES>
CC1=C2C(=CC3=C1C=CN=C3C)C4=CC=CC=C4N2

> <PUBCHEM_CACTVS_TPSA>
28.7

> <PUBCHEM_MONOISOTOPIC_WEIGHT>
246.115698

> <PUBCHEM_TOTAL_CHARGE>
0

> <PUBCHEM_HEAVY_ATOM_COUNT>
19

> <PUBCHEM_ATOM_DEF_STEREO_COUNT>
0

> <PUBCHEM_ATOM_UDEF_STEREO_COUNT>
0

> <PUBCHEM_BOND_DEF_STEREO_COUNT>
0

> <PUBCHEM_BOND_UDEF_STEREO_COUNT>
0

> <PUBCHEM_ISOTOPIC_ATOM_COUNT>
0

> <PUBCHEM_COMPONENT_COUNT>
1

> <PUBCHEM_CACTVS_TAUTO_COUNT>
3

> <PUBCHEM_COORDINATE_TYPE>
1
5
255

> <PUBCHEM_BONDANNOTATIONS>
1  3  8
1  9  8
13  16  8
14  18  8
15  17  8
16  17  8
2  11  8
2  18  8
3  4  8
3  5  8
4  10  8
4  6  8
5  7  8
6  13  8
6  9  8
7  14  8
7  8  8
8  10  8
8  11  8
9  15  8

$$$$

