443328
  -OEChem-07051213022D

 57 59  0     1  0  0  0  0  0999 V2000
    8.6233    0.6689    0.0000 O   0  0  0  0  0  0  0  0  0  0  0  0
    6.8671    3.5600    0.0000 O   0  0  0  0  0  0  0  0  0  0  0  0
    5.1350    1.5600    0.0000 O   0  0  0  0  0  0  0  0  0  0  0  0
    6.0010    0.0600    0.0000 O   0  0  0  0  0  0  0  0  0  0  0  0
    8.1240    3.8152    0.0000 O   0  0  0  0  0  0  0  0  0  0  0  0
    5.1350   -1.4400    0.0000 O   0  0  0  0  0  0  0  0  0  0  0  0
    4.2690    1.0600    0.0000 O   0  0  0  0  0  0  0  0  0  0  0  0
    2.5369    0.0600    0.0000 O   0  0  0  0  0  0  0  0  0  0  0  0
    2.5369   -1.9400    0.0000 O   0  0  0  0  0  0  0  0  0  0  0  0
    9.6390    2.0719    0.0000 O   0  0  0  0  0  0  0  0  0  0  0  0
    5.1350   -3.4400    0.0000 O   0  0  0  0  0  0  0  0  0  0  0  0
    6.8671    1.5600    0.0000 C   0  0  1  0  0  0  0  0  0  0  0  0
    6.8671    2.5600    0.0000 C   0  0  1  0  0  0  0  0  0  0  0  0
    7.8133    1.2553    0.0000 C   0  0  2  0  0  0  0  0  0  0  0  0
    7.8133    2.8647    0.0000 C   0  0  1  0  0  0  0  0  0  0  0  0
    8.3969    2.0600    0.0000 C   0  0  0  0  0  0  0  0  0  0  0  0
    6.0010    1.0600    0.0000 C   0  0  1  0  0  0  0  0  0  0  0  0
    6.0010    3.0600    0.0000 C   0  0  0  0  0  0  0  0  0  0  0  0
    7.5059    0.3037    0.0000 C   0  0  0  0  0  0  0  0  0  0  0  0
    5.1350    2.5600    0.0000 C   0  0  0  0  0  0  0  0  0  0  0  0
    5.1350   -0.4400    0.0000 C   0  0  2  0  0  0  0  0  0  0  0  0
    6.0010    4.0600    0.0000 C   0  0  0  0  0  0  0  0  0  0  0  0
    4.2690    0.0600    0.0000 C   0  0  1  0  0  0  0  0  0  0  0  0
    3.4030   -0.4400    0.0000 C   0  0  2  0  0  0  0  0  0  0  0  0
    3.4030   -1.4400    0.0000 C   0  0  1  0  0  0  0  0  0  0  0  0
    4.2690   -1.9400    0.0000 C   0  0  1  0  0  0  0  0  0  0  0  0
    9.5362    1.0772    0.0000 C   0  0  0  0  0  0  0  0  0  0  0  0
    4.2690   -2.9400    0.0000 C   0  0  0  0  0  0  0  0  0  0  0  0
   10.3462    0.4908    0.0000 C   0  0  0  0  0  0  0  0  0  0  0  0
    6.9570    0.7148    0.0000 H   0  0  0  0  0  0  0  0  0  0  0  0
    7.3758    3.3041    0.0000 H   0  0  0  0  0  0  0  0  0  0  0  0
    8.8578    1.6453    0.0000 H   0  0  0  0  0  0  0  0  0  0  0  0
    8.8578    2.4747    0.0000 H   0  0  0  0  0  0  0  0  0  0  0  0
    6.5380    0.7500    0.0000 H   0  0  0  0  0  0  0  0  0  0  0  0
    6.9159    0.4942    0.0000 H   0  0  0  0  0  0  0  0  0  0  0  0
    7.3153   -0.2863    0.0000 H   0  0  0  0  0  0  0  0  0  0  0  0
    8.0959    0.1131    0.0000 H   0  0  0  0  0  0  0  0  0  0  0  0
    7.4040    3.8700    0.0000 H   0  0  0  0  0  0  0  0  0  0  0  0
    4.5981    2.8700    0.0000 H   0  0  0  0  0  0  0  0  0  0  0  0
    8.7306    3.9431    0.0000 H   0  0  0  0  0  0  0  0  0  0  0  0
    5.1350    0.1800    0.0000 H   0  0  0  0  0  0  0  0  0  0  0  0
    6.6210    4.0600    0.0000 H   0  0  0  0  0  0  0  0  0  0  0  0
    6.0010    4.6800    0.0000 H   0  0  0  0  0  0  0  0  0  0  0  0
    5.3810    4.0600    0.0000 H   0  0  0  0  0  0  0  0  0  0  0  0
    4.8059    0.3700    0.0000 H   0  0  0  0  0  0  0  0  0  0  0  0
    3.4030    0.1800    0.0000 H   0  0  0  0  0  0  0  0  0  0  0  0
    3.4030   -2.0600    0.0000 H   0  0  0  0  0  0  0  0  0  0  0  0
    4.8059   -2.2500    0.0000 H   0  0  0  0  0  0  0  0  0  0  0  0
    3.6584   -2.8323    0.0000 H   0  0  0  0  0  0  0  0  0  0  0  0
    4.0569   -3.5226    0.0000 H   0  0  0  0  0  0  0  0  0  0  0  0
    9.9826   -0.0114    0.0000 H   0  0  0  0  0  0  0  0  0  0  0  0
   10.8484    0.1273    0.0000 H   0  0  0  0  0  0  0  0  0  0  0  0
   10.7097    0.9930    0.0000 H   0  0  0  0  0  0  0  0  0  0  0  0
    3.7320    1.3700    0.0000 H   0  0  0  0  0  0  0  0  0  0  0  0
    2.0000   -0.2500    0.0000 H   0  0  0  0  0  0  0  0  0  0  0  0
    2.5369   -2.5600    0.0000 H   0  0  0  0  0  0  0  0  0  0  0  0
    5.1350   -4.0600    0.0000 H   0  0  0  0  0  0  0  0  0  0  0  0
 14  1  1  6  0  0  0
  1 27  1  0  0  0  0
 13  2  1  6  0  0  0
  2 38  1  0  0  0  0
  3 17  1  0  0  0  0
  3 20  1  0  0  0  0
 17  4  1  6  0  0  0
 21  4  1  6  0  0  0
 15  5  1  6  0  0  0
  5 40  1  0  0  0  0
  6 21  1  0  0  0  0
  6 26  1  0  0  0  0
 23  7  1  1  0  0  0
  7 54  1  0  0  0  0
 24  8  1  6  0  0  0
  8 55  1  0  0  0  0
 25  9  1  1  0  0  0
  9 56  1  0  0  0  0
 10 27  2  0  0  0  0
 11 28  1  0  0  0  0
 11 57  1  0  0  0  0
 12 13  1  0  0  0  0
 12 14  1  0  0  0  0
 12 17  1  0  0  0  0
 12 30  1  6  0  0  0
 13 15  1  0  0  0  0
 13 18  1  0  0  0  0
 14 16  1  0  0  0  0
 14 19  1  0  0  0  0
 15 16  1  0  0  0  0
 15 31  1  0  0  0  0
 16 32  1  0  0  0  0
 16 33  1  0  0  0  0
 17 34  1  0  0  0  0
 18 20  2  0  0  0  0
 18 22  1  0  0  0  0
 19 35  1  0  0  0  0
 19 36  1  0  0  0  0
 19 37  1  0  0  0  0
 20 39  1  0  0  0  0
 21 23  1  0  0  0  0
 21 41  1  0  0  0  0
 22 42  1  0  0  0  0
 22 43  1  0  0  0  0
 22 44  1  0  0  0  0
 23 24  1  0  0  0  0
 23 45  1  0  0  0  0
 24 25  1  0  0  0  0
 24 46  1  0  0  0  0
 25 26  1  0  0  0  0
 25 47  1  0  0  0  0
 26 28  1  6  0  0  0
 26 48  1  0  0  0  0
 27 29  1  0  0  0  0
 28 49  1  0  0  0  0
 28 50  1  0  0  0  0
 29 51  1  0  0  0  0
 29 52  1  0  0  0  0
 29 53  1  0  0  0  0
M  END
> <PUBCHEM_COMPOUND_CID>
443328

> <PUBCHEM_COMPOUND_CANONICALIZED>
1

> <PUBCHEM_CACTVS_COMPLEXITY>
668

> <PUBCHEM_CACTVS_HBOND_ACCEPTOR>
11

> <PUBCHEM_CACTVS_HBOND_DONOR>
6

> <PUBCHEM_CACTVS_ROTATABLE_BOND>
5

> <PUBCHEM_CACTVS_SUBSKEYS>
AAADceB4PAAAAAAAAAAAAAAAAAAAAYAAAAAkQAAAAAAAAEAAAAAAGgAACAAADVSwgAMCCAAABgCIAgDSCAAACAAgIAAAAAAAAAgRFAIAAQAiQAAFwAAHEAHA4OwOgAAAAAAAAAAAAAAAAAAAAYQADCAAAA==

> <PUBCHEM_IUPAC_OPENEYE_NAME>
[(1S,4aR,5R,7S,7aS)-4a,5-dihydroxy-4,7-dimethyl-1-[(2S,3R,4S,5S,6R)-3,4,5-trihydroxy-6-(hydroxymethyl)tetrahydropyran-2-yl]oxy-1,5,6,7a-tetrahydrocyclopenta[c]pyran-7-yl] acetate

> <PUBCHEM_IUPAC_CAS_NAME>
acetic acid [(1S,4aR,5R,7S,7aS)-4a,5-dihydroxy-4,7-dimethyl-1-[[(2S,3R,4S,5S,6R)-3,4,5-trihydroxy-6-(hydroxymethyl)-2-oxanyl]oxy]-1,5,6,7a-tetrahydrocyclopenta[c]pyran-7-yl] ester

> <PUBCHEM_IUPAC_NAME>
[(1S,4aR,5R,7S,7aS)-4a,5-dihydroxy-4,7-dimethyl-1-[(2S,3R,4S,5S,6R)-3,4,5-trihydroxy-6-(hydroxymethyl)oxan-2-yl]oxy-1,5,6,7a-tetrahydrocyclopenta[c]pyran-7-yl] acetate

> <PUBCHEM_IUPAC_SYSTEMATIC_NAME>
[(1S,4aR,5R,7S,7aS)-1-[(2S,3R,4S,5S,6R)-6-(hydroxymethyl)-3,4,5-tris(oxidanyl)oxan-2-yl]oxy-4,7-dimethyl-4a,5-bis(oxidanyl)-1,5,6,7a-tetrahydrocyclopenta[c]pyran-7-yl] ethanoate

> <PUBCHEM_IUPAC_TRADITIONAL_NAME>
acetic acid [(1S,4aR,5R,7S,7aS)-4a,5-dihydroxy-4,7-dimethyl-1-[(2S,3R,4S,5S,6R)-3,4,5-trihydroxy-6-methylol-tetrahydropyran-2-yl]oxy-1,5,6,7a-tetrahydrocyclopenta[c]pyran-7-yl] ester

> <PUBCHEM_IUPAC_INCHI>
InChI=1S/C18H28O11/c1-7-6-26-16(28-15-13(24)12(23)11(22)9(5-19)27-15)14-17(3,29-8(2)20)4-10(21)18(7,14)25/h6,9-16,19,21-25H,4-5H2,1-3H3/t9-,10-,11-,12+,13-,14-,15+,16+,17+,18-/m1/s1

> <PUBCHEM_IUPAC_INCHIKEY>
KPUSIQDGYABESP-CJHMEAONSA-N

> <PUBCHEM_XLOGP3_AA>
-2.8

> <PUBCHEM_EXACT_MASS>
420.163162

> <PUBCHEM_MOLECULAR_FORMULA>
C18H28O11

> <PUBCHEM_MOLECULAR_WEIGHT>
420.40832

> <PUBCHEM_OPENEYE_CAN_SMILES>
CC1=COC(C2C1(C(CC2(C)OC(=O)C)O)O)OC3C(C(C(C(O3)CO)O)O)O

> <PUBCHEM_OPENEYE_ISO_SMILES>
CC1=CO[C@H]([C@H]2[C@@]1([C@@H](C[C@]2(C)OC(=O)C)O)O)O[C@H]3[C@@H]([C@H]([C@@H]([C@H](O3)CO)O)O)O

> <PUBCHEM_CACTVS_TPSA>
175

> <PUBCHEM_MONOISOTOPIC_WEIGHT>
420.163162

> <PUBCHEM_TOTAL_CHARGE>
0

> <PUBCHEM_HEAVY_ATOM_COUNT>
29

> <PUBCHEM_ATOM_DEF_STEREO_COUNT>
10

> <PUBCHEM_ATOM_UDEF_STEREO_COUNT>
0

> <PUBCHEM_BOND_DEF_STEREO_COUNT>
0

> <PUBCHEM_BOND_UDEF_STEREO_COUNT>
0

> <PUBCHEM_ISOTOPIC_ATOM_COUNT>
0

> <PUBCHEM_COMPONENT_COUNT>
1

> <PUBCHEM_CACTVS_TAUTO_COUNT>
1

> <PUBCHEM_COORDINATE_TYPE>
1
5
255

> <PUBCHEM_BONDANNOTATIONS>
14  1  6
12  30  6
13  2  6
26  28  6
17  4  6
21  4  6
15  5  6
23  7  5
24  8  6
25  9  5

$$$$

