12729
  -OEChem-06261207183D

 39 38  0     0  0  0  0  0  0999 V2000
   -5.2432   -0.5044   -0.0119 O   0  0  0  0  0  0  0  0  0  0  0  0
   -4.2165    1.5604   -0.0562 O   0  0  0  0  0  0  0  0  0  0  0  0
    0.8968    0.3974   -0.0178 C   0  0  0  0  0  0  0  0  0  0  0  0
    2.1717   -0.4488    0.0190 C   0  0  0  0  0  0  0  0  0  0  0  0
   -0.3550   -0.4823   -0.0408 C   0  0  0  0  0  0  0  0  0  0  0  0
    3.4203    0.4340    0.0742 C   0  0  0  0  0  0  0  0  0  0  0  0
   -1.6297    0.3671   -0.0441 C   0  0  0  0  0  0  0  0  0  0  0  0
    4.7268   -0.3626    0.1438 C   0  0  0  0  0  0  0  0  0  0  0  0
   -2.8990   -0.4845   -0.0334 C   0  0  0  0  0  0  0  0  0  0  0  0
    5.9737    0.5218    0.2242 C   0  0  0  0  0  0  0  0  0  0  0  0
   -4.1686    0.3381   -0.0452 C   0  0  0  0  0  0  0  0  0  0  0  0
    7.2217   -0.3083    0.3030 C   0  0  0  0  0  0  0  0  0  0  0  0
   -6.5249    0.1321    0.0117 C   0  0  0  0  0  0  0  0  0  0  0  0
    8.2286   -0.2295   -0.5738 C   0  0  0  0  0  0  0  0  0  0  0  0
   -7.6026   -0.9305    0.0473 C   0  0  0  0  0  0  0  0  0  0  0  0
    0.9090    1.0439   -0.9036 H   0  0  0  0  0  0  0  0  0  0  0  0
    0.8671    1.0531    0.8610 H   0  0  0  0  0  0  0  0  0  0  0  0
    2.1516   -1.1073    0.8957 H   0  0  0  0  0  0  0  0  0  0  0  0
    2.2152   -1.0917   -0.8683 H   0  0  0  0  0  0  0  0  0  0  0  0
   -0.3392   -1.1250   -0.9292 H   0  0  0  0  0  0  0  0  0  0  0  0
   -0.3580   -1.1409    0.8362 H   0  0  0  0  0  0  0  0  0  0  0  0
    3.4436    1.0841   -0.8092 H   0  0  0  0  0  0  0  0  0  0  0  0
    3.3585    1.0921    0.9498 H   0  0  0  0  0  0  0  0  0  0  0  0
   -1.6313    1.0302    0.8303 H   0  0  0  0  0  0  0  0  0  0  0  0
   -1.6338    1.0177   -0.9278 H   0  0  0  0  0  0  0  0  0  0  0  0
    4.7952   -1.0116   -0.7389 H   0  0  0  0  0  0  0  0  0  0  0  0
    4.6921   -1.0257    1.0181 H   0  0  0  0  0  0  0  0  0  0  0  0
   -2.9098   -1.1341   -0.9160 H   0  0  0  0  0  0  0  0  0  0  0  0
   -2.9095   -1.1103    0.8663 H   0  0  0  0  0  0  0  0  0  0  0  0
    5.9188    1.1543    1.1182 H   0  0  0  0  0  0  0  0  0  0  0  0
    6.0044    1.1934   -0.6421 H   0  0  0  0  0  0  0  0  0  0  0  0
    7.3105   -1.0006    1.1363 H   0  0  0  0  0  0  0  0  0  0  0  0
   -6.6428    0.7490   -0.8862 H   0  0  0  0  0  0  0  0  0  0  0  0
   -6.6012    0.7666    0.9018 H   0  0  0  0  0  0  0  0  0  0  0  0
    9.1089   -0.8520   -0.4565 H   0  0  0  0  0  0  0  0  0  0  0  0
    8.1943    0.4503   -1.4178 H   0  0  0  0  0  0  0  0  0  0  0  0
   -7.5279   -1.5845   -0.8278 H   0  0  0  0  0  0  0  0  0  0  0  0
   -7.4870   -1.5672    0.9306 H   0  0  0  0  0  0  0  0  0  0  0  0
   -8.5978   -0.4777    0.0660 H   0  0  0  0  0  0  0  0  0  0  0  0
  1 11  1  0  0  0  0
  1 13  1  0  0  0  0
  2 11  2  0  0  0  0
  3  4  1  0  0  0  0
  3  5  1  0  0  0  0
  3 16  1  0  0  0  0
  3 17  1  0  0  0  0
  4  6  1  0  0  0  0
  4 18  1  0  0  0  0
  4 19  1  0  0  0  0
  5  7  1  0  0  0  0
  5 20  1  0  0  0  0
  5 21  1  0  0  0  0
  6  8  1  0  0  0  0
  6 22  1  0  0  0  0
  6 23  1  0  0  0  0
  7  9  1  0  0  0  0
  7 24  1  0  0  0  0
  7 25  1  0  0  0  0
  8 10  1  0  0  0  0
  8 26  1  0  0  0  0
  8 27  1  0  0  0  0
  9 11  1  0  0  0  0
  9 28  1  0  0  0  0
  9 29  1  0  0  0  0
 10 12  1  0  0  0  0
 10 30  1  0  0  0  0
 10 31  1  0  0  0  0
 12 14  2  0  0  0  0
 12 32  1  0  0  0  0
 13 15  1  0  0  0  0
 13 33  1  0  0  0  0
 13 34  1  0  0  0  0
 14 35  1  0  0  0  0
 14 36  1  0  0  0  0
 15 37  1  0  0  0  0
 15 38  1  0  0  0  0
 15 39  1  0  0  0  0
M  END
> <PUBCHEM_COMPOUND_CID>
12729

> <PUBCHEM_CONFORMER_RMSD>
1

> <PUBCHEM_CONFORMER_DIVERSEORDER>
1
61
116
15
136
117
90
100
73
107
83
125
110
29
47
40
41
99
33
124
31
45
69
56
70
32
77
91
92
126
11
111
66
138
23
34
119
121
57
132
103
49
62
130
82
72
133
54
25
27
109
79
48
67
89
53
129
35
51
30
113
26
7
104
39
44
96
36
98
123
58
5
19
102
118
37
114
122
86
10
135
17
134
8
64
112
95
106
80
60
24
76
18
93
97
74
50
75
13
46
127
6
81
108
87
88
42
137
12
52
59
68
131
21
4
128
22
55
65
84
120
94
20
63
14
38
115
2
16
78
71
28
139
85
3
9
101
105
43

> <PUBCHEM_MMFF94_PARTIAL_CHARGES>
11
1 -0.43
10 0.14
11 0.66
12 -0.29
13 0.28
14 -0.3
2 -0.57
32 0.15
35 0.15
36 0.15
9 0.06

> <PUBCHEM_EFFECTIVE_ROTOR_COUNT>
11

> <PUBCHEM_PHARMACOPHORE_FEATURES>
2
1 14 hydrophobe
1 2 acceptor

> <PUBCHEM_HEAVY_ATOM_COUNT>
15

> <PUBCHEM_ATOM_DEF_STEREO_COUNT>
0

> <PUBCHEM_ATOM_UDEF_STEREO_COUNT>
0

> <PUBCHEM_BOND_DEF_STEREO_COUNT>
0

> <PUBCHEM_BOND_UDEF_STEREO_COUNT>
0

> <PUBCHEM_ISOTOPIC_ATOM_COUNT>
0

> <PUBCHEM_COMPONENT_COUNT>
1

> <PUBCHEM_CACTVS_TAUTO_COUNT>
1

> <PUBCHEM_CONFORMER_ID>
000031B900000001

> <PUBCHEM_MMFF94_ENERGY>
2.7558

> <PUBCHEM_FEATURE_SELFOVERLAP>
10.148

> <PUBCHEM_SHAPE_FINGERPRINT>
10968037 39 18272934921354499675
11315181 36 13183017432769755597
12091667 2 17749109994064756733
13533116 47 17274552022536765128
14123256 10 18273215296339651603
14251764 18 18202284714436284642
14251764 46 18411136935104898447
17834076 25 18342176670028787482
18006028 8 14117801314413577846
20281389 69 18410859854497338944
20621476 8 6771872870119680136
21095086 128 17894351076898296766
21150785 3 17346880044046392818
21267235 1 18409727348687961561
21315763 28 18411700993656007632
220451 1 14634874166756661452
22224240 67 15338837552098387576
23035841 295 5689592792510430741
23402539 116 18113625573219688340
23521765 1 18335421265881340258
246663 6 18260545614988567014
33532 11 18342741849382193106
33684 2 18407760339787116547
3545911 37 18113338608905559950
42788 4 18410013239101886616
4325135 7 18413108359501149271
67123 10 18411981343878508652
8209 1 18410856559639796078

> <PUBCHEM_SHAPE_MULTIPOLES>
296.95
25.27
0.92
0.64
9.07
0.13
-0.01
-3.26
-0.69
-0.79
0
0.31
-0.01
0.11

> <PUBCHEM_SHAPE_SELFOVERLAP>
542.59

> <PUBCHEM_SHAPE_VOLUME>
188.7

> <PUBCHEM_COORDINATE_TYPE>
2
5
10

$$$$

