162349
  -OEChem-07051212503D

 48 49  0     1  0  0  0  0  0999 V2000
    0.3193   -1.7079   -0.6271 O   0  0  0  0  0  0  0  0  0  0  0  0
   -3.5325    2.1517    0.8219 O   0  0  0  0  0  0  0  0  0  0  0  0
    2.7602   -2.4409   -1.8130 O   0  0  0  0  0  0  0  0  0  0  0  0
    2.9563    0.2269    0.7465 N   0  0  0  0  0  0  0  0  0  0  0  0
   -3.7377    1.0878   -0.1065 C   0  0  1  0  0  0  0  0  0  0  0  0
   -3.4684    1.5903   -1.5275 C   0  0  0  0  0  0  0  0  0  0  0  0
   -1.9720    1.7808   -1.7570 C   0  0  0  0  0  0  0  0  0  0  0  0
   -1.2379    0.4491   -1.6157 C   0  0  0  0  0  0  0  0  0  0  0  0
   -1.6421   -0.3303   -0.3891 C   0  0  0  0  0  0  0  0  0  0  0  0
   -2.8382   -0.0541    0.3000 C   0  0  0  0  0  0  0  0  0  0  0  0
    3.1786    1.6623    0.6389 C   0  0  0  0  0  0  0  0  0  0  0  0
   -0.8317   -1.3944    0.0359 C   0  0  0  0  0  0  0  0  0  0  0  0
    2.9306   -0.3963   -0.5698 C   0  0  0  0  0  0  0  0  0  0  0  0
    2.7087   -1.9083   -0.4863 C   0  0  1  0  0  0  0  0  0  0  0  0
   -3.1833   -0.8334    1.4161 C   0  0  0  0  0  0  0  0  0  0  0  0
    1.3695   -2.2884    0.1417 C   0  0  0  0  0  0  0  0  0  0  0  0
   -1.1893   -2.1628    1.1430 C   0  0  0  0  0  0  0  0  0  0  0  0
    3.2066    2.2595    2.0499 C   0  0  0  0  0  0  0  0  0  0  0  0
    4.5230    1.8971   -0.0581 C   0  0  0  0  0  0  0  0  0  0  0  0
    2.0445    2.2930   -0.1776 C   0  0  0  0  0  0  0  0  0  0  0  0
   -2.3639   -1.8815    1.8338 C   0  0  0  0  0  0  0  0  0  0  0  0
   -4.7885    0.7845   -0.0360 H   0  0  0  0  0  0  0  0  0  0  0  0
   -3.9813    2.5452   -1.6901 H   0  0  0  0  0  0  0  0  0  0  0  0
   -3.8588    0.8718   -2.2590 H   0  0  0  0  0  0  0  0  0  0  0  0
   -1.5707    2.5081   -1.0407 H   0  0  0  0  0  0  0  0  0  0  0  0
   -1.7951    2.1914   -2.7576 H   0  0  0  0  0  0  0  0  0  0  0  0
   -0.1620    0.6513   -1.6042 H   0  0  0  0  0  0  0  0  0  0  0  0
   -1.4476   -0.1722   -2.4956 H   0  0  0  0  0  0  0  0  0  0  0  0
    2.1585    0.0122   -1.2281 H   0  0  0  0  0  0  0  0  0  0  0  0
    3.8815   -0.2734   -1.0989 H   0  0  0  0  0  0  0  0  0  0  0  0
    3.5244   -2.3712    0.0819 H   0  0  0  0  0  0  0  0  0  0  0  0
    2.0748    0.0557    1.2283 H   0  0  0  0  0  0  0  0  0  0  0  0
   -4.0981   -0.6258    1.9663 H   0  0  0  0  0  0  0  0  0  0  0  0
    1.3612   -1.9604    1.1879 H   0  0  0  0  0  0  0  0  0  0  0  0
    1.2497   -3.3780    0.1078 H   0  0  0  0  0  0  0  0  0  0  0  0
    2.2566    2.0962    2.5726 H   0  0  0  0  0  0  0  0  0  0  0  0
    3.3835    3.3407    2.0189 H   0  0  0  0  0  0  0  0  0  0  0  0
    4.0027    1.8124    2.6569 H   0  0  0  0  0  0  0  0  0  0  0  0
    4.4979    1.7076   -1.1365 H   0  0  0  0  0  0  0  0  0  0  0  0
    5.3229    1.2917    0.3850 H   0  0  0  0  0  0  0  0  0  0  0  0
    4.8253    2.9464    0.0509 H   0  0  0  0  0  0  0  0  0  0  0  0
    2.0985    2.0758   -1.2492 H   0  0  0  0  0  0  0  0  0  0  0  0
    2.0845    3.3864   -0.0944 H   0  0  0  0  0  0  0  0  0  0  0  0
    1.0595    1.9858    0.1929 H   0  0  0  0  0  0  0  0  0  0  0  0
   -0.6058   -3.0134    1.4821 H   0  0  0  0  0  0  0  0  0  0  0  0
   -2.6481   -2.4828    2.6926 H   0  0  0  0  0  0  0  0  0  0  0  0
   -2.5861    2.2063    1.0379 H   0  0  0  0  0  0  0  0  0  0  0  0
    2.6562   -3.4054   -1.7457 H   0  0  0  0  0  0  0  0  0  0  0  0
  1 12  1  0  0  0  0
  1 16  1  0  0  0  0
  2  5  1  0  0  0  0
  2 47  1  0  0  0  0
  3 14  1  0  0  0  0
  3 48  1  0  0  0  0
  4 11  1  0  0  0  0
  4 13  1  0  0  0  0
  4 32  1  0  0  0  0
  5  6  1  0  0  0  0
  5 10  1  0  0  0  0
  5 22  1  0  0  0  0
  6  7  1  0  0  0  0
  6 23  1  0  0  0  0
  6 24  1  0  0  0  0
  7  8  1  0  0  0  0
  7 25  1  0  0  0  0
  7 26  1  0  0  0  0
  8  9  1  0  0  0  0
  8 27  1  0  0  0  0
  8 28  1  0  0  0  0
  9 10  2  0  0  0  0
  9 12  1  0  0  0  0
 10 15  1  0  0  0  0
 11 18  1  0  0  0  0
 11 19  1  0  0  0  0
 11 20  1  0  0  0  0
 12 17  2  0  0  0  0
 13 14  1  0  0  0  0
 13 29  1  0  0  0  0
 13 30  1  0  0  0  0
 14 16  1  0  0  0  0
 14 31  1  0  0  0  0
 15 21  2  0  0  0  0
 15 33  1  0  0  0  0
 16 34  1  0  0  0  0
 16 35  1  0  0  0  0
 17 21  1  0  0  0  0
 17 45  1  0  0  0  0
 18 36  1  0  0  0  0
 18 37  1  0  0  0  0
 18 38  1  0  0  0  0
 19 39  1  0  0  0  0
 19 40  1  0  0  0  0
 19 41  1  0  0  0  0
 20 42  1  0  0  0  0
 20 43  1  0  0  0  0
 20 44  1  0  0  0  0
 21 46  1  0  0  0  0
M  END
> <PUBCHEM_COMPOUND_CID>
162349

> <PUBCHEM_CONFORMER_RMSD>
0.8

> <PUBCHEM_CONFORMER_DIVERSEORDER>
1
24
90
77
45
80
71
122
56
60
39
36
47
94
97
16
74
30
79
5
84
99
57
46
43
119
34
115
124
112
17
96
12
33
81
121
23
113
114
108
116
123
76
48
31
8
44
37
95
29
68
42
7
25
63
6
53
107
87
35
111
32
4
41
28
26
103
78
10
105
73
50
102
52
55
70
19
3
109
75
104
67
13
82
83
22
51
18
92
93
14
98
89
120
27
40
88
2
64
49
65
106
61
20
110
100
91
86
72
85
54
15
58
62
21
118
59
66
117
38
9
69
101
11

> <PUBCHEM_MMFF94_PARTIAL_CHARGES>
22
1 -0.36
10 -0.14
11 0.27
12 0.08
13 0.27
14 0.28
15 -0.15
16 0.28
17 -0.15
2 -0.68
21 -0.15
3 -0.68
32 0.36
33 0.15
4 -0.9
45 0.15
46 0.15
47 0.4
48 0.4
5 0.42
8 0.14
9 -0.14

> <PUBCHEM_EFFECTIVE_ROTOR_COUNT>
6.8

> <PUBCHEM_PHARMACOPHORE_FEATURES>
10
1 1 acceptor
1 2 acceptor
1 2 donor
1 3 acceptor
1 3 donor
1 4 cation
1 4 donor
4 11 18 19 20 hydrophobe
6 5 6 7 8 9 10 rings
6 9 10 12 15 17 21 rings

> <PUBCHEM_HEAVY_ATOM_COUNT>
21

> <PUBCHEM_ATOM_DEF_STEREO_COUNT>
0

> <PUBCHEM_ATOM_UDEF_STEREO_COUNT>
2

> <PUBCHEM_BOND_DEF_STEREO_COUNT>
0

> <PUBCHEM_BOND_UDEF_STEREO_COUNT>
0

> <PUBCHEM_ISOTOPIC_ATOM_COUNT>
0

> <PUBCHEM_COMPONENT_COUNT>
1

> <PUBCHEM_CACTVS_TAUTO_COUNT>
1

> <PUBCHEM_CONFORMER_ID>
00027A2D00000001

> <PUBCHEM_MMFF94_ENERGY>
51.6383

> <PUBCHEM_FEATURE_SELFOVERLAP>
50.768

> <PUBCHEM_SHAPE_FINGERPRINT>
10165383 225 17973420141070425306
1100329 8 16324291697269527694
11221954 11 18412272735090680428
11595378 159 16630804404738404237
11640471 11 16515688818791923812
12633257 1 17988097667755289368
12670545 47 18201995577422475807
12824470 246 13684860841971452097
13134695 92 17970628713203044302
13402501 40 18341617039948299924
13726171 33 17987497248687610932
14178342 30 17632571621911526603
15295992 7 18340766069319190819
15475509 84 15822684623165797217
173720 79 15410625826207222415
18186145 218 18267303325375313671
18219364 16 18262799566828664256
18981168 100 18334299742651810626
19049666 15 18271245040063950238
19930381 70 18115598032618758673
20681677 76 18411417319323946447
21475661 188 18049723224408288841
23175994 123 18046615983036311062
23557571 272 18129654184788734915
23559900 14 17845644979567754871
238 59 18041581168667669068
27216 239 18268717103796467249
3187 122 17772470088811171571
3524813 1 18343016735245490670
474 4 18336556022269366009
49207404 50 18341044133991316657
495365 180 18335433403538079143
6049 1 18341033181914824330
7097593 13 17131012943624529952
7808743 9 17774987004044770150
81228 2 17774713178516057099
84936 182 17051068784656472813
90316 7 16917358012873154485
9862522 239 18193011317915149176

> <PUBCHEM_SHAPE_MULTIPOLES>
409.58
7.84
3.29
1.78
3.18
0.38
-0.12
-4.43
-1.34
0.9
0.01
-0.16
-0.13
2.78

> <PUBCHEM_SHAPE_SELFOVERLAP>
841.961

> <PUBCHEM_SHAPE_VOLUME>
237.1

> <PUBCHEM_COORDINATE_TYPE>
2
5
10

$$$$

