5281244
  -OEChem-07051212552D

 99101  0     1  0  0  0  0  0999 V2000
    5.4646   -5.0692    0.0000 O   0  0  0  0  0  0  0  0  0  0  0  0
    2.0000   -6.0692    0.0000 O   0  0  0  0  0  0  0  0  0  0  0  0
   20.0981    6.6892    0.0000 O   0  0  0  0  0  0  0  0  0  0  0  0
    4.5981   -4.5692    0.0000 C   0  0  2  0  0  0  0  0  0  0  0  0
    4.5981   -5.5692    0.0000 C   0  0  1  0  0  0  0  0  0  0  0  0
    3.7320   -4.0692    0.0000 C   0  0  0  0  0  0  0  0  0  0  0  0
    3.7320   -6.0692    0.0000 C   0  0  0  0  0  0  0  0  0  0  0  0
    2.8660   -4.5692    0.0000 C   0  0  0  0  0  0  0  0  0  0  0  0
    2.8660   -5.5692    0.0000 C   0  0  2  0  0  0  0  0  0  0  0  0
    4.5981   -6.5692    0.0000 C   0  0  0  0  0  0  0  0  0  0  0  0
    5.0981   -3.7031    0.0000 C   0  0  0  0  0  0  0  0  0  0  0  0
    2.8660   -3.5692    0.0000 C   0  0  0  0  0  0  0  0  0  0  0  0
    3.7320   -3.0692    0.0000 C   0  0  0  0  0  0  0  0  0  0  0  0
    6.0981   -3.7031    0.0000 C   0  0  0  0  0  0  0  0  0  0  0  0
    6.5981   -2.8371    0.0000 C   0  0  0  0  0  0  0  0  0  0  0  0
    6.0981   -1.9711    0.0000 C   0  0  0  0  0  0  0  0  0  0  0  0
    7.5981   -2.8371    0.0000 C   0  0  0  0  0  0  0  0  0  0  0  0
    8.0981   -1.9711    0.0000 C   0  0  0  0  0  0  0  0  0  0  0  0
   19.5981    4.0911    0.0000 C   0  0  0  0  0  0  0  0  0  0  0  0
   18.5981    4.0911    0.0000 C   0  0  2  0  0  0  0  0  0  0  0  0
   20.0981    4.9571    0.0000 C   0  0  0  0  0  0  0  0  0  0  0  0
   19.5981    5.8231    0.0000 C   0  0  2  0  0  0  0  0  0  0  0  0
   18.0981    4.9571    0.0000 C   0  0  0  0  0  0  0  0  0  0  0  0
    9.0981   -1.9711    0.0000 C   0  0  0  0  0  0  0  0  0  0  0  0
   20.4641    3.5911    0.0000 C   0  0  0  0  0  0  0  0  0  0  0  0
   19.5981    3.0911    0.0000 C   0  0  0  0  0  0  0  0  0  0  0  0
   18.5981    5.8231    0.0000 C   0  0  0  0  0  0  0  0  0  0  0  0
   18.0981    3.2251    0.0000 C   0  0  0  0  0  0  0  0  0  0  0  0
   17.0981    4.9571    0.0000 C   0  0  0  0  0  0  0  0  0  0  0  0
    9.5981   -1.1051    0.0000 C   0  0  0  0  0  0  0  0  0  0  0  0
   17.0981    3.2251    0.0000 C   0  0  0  0  0  0  0  0  0  0  0  0
    9.0981   -0.2390    0.0000 C   0  0  0  0  0  0  0  0  0  0  0  0
   10.5981   -1.1051    0.0000 C   0  0  0  0  0  0  0  0  0  0  0  0
   16.5981    2.3590    0.0000 C   0  0  0  0  0  0  0  0  0  0  0  0
   17.0981    1.4930    0.0000 C   0  0  0  0  0  0  0  0  0  0  0  0
   15.5981    2.3590    0.0000 C   0  0  0  0  0  0  0  0  0  0  0  0
   11.0981   -0.2390    0.0000 C   0  0  0  0  0  0  0  0  0  0  0  0
   15.0981    1.4930    0.0000 C   0  0  0  0  0  0  0  0  0  0  0  0
   12.0981   -0.2390    0.0000 C   0  0  0  0  0  0  0  0  0  0  0  0
   14.0981    1.4930    0.0000 C   0  0  0  0  0  0  0  0  0  0  0  0
   12.5981    0.6270    0.0000 C   0  0  0  0  0  0  0  0  0  0  0  0
   13.5981    0.6270    0.0000 C   0  0  0  0  0  0  0  0  0  0  0  0
   14.0981   -0.2390    0.0000 C   0  0  0  0  0  0  0  0  0  0  0  0
    3.3335   -6.5441    0.0000 H   0  0  0  0  0  0  0  0  0  0  0  0
    4.1306   -6.5441    0.0000 H   0  0  0  0  0  0  0  0  0  0  0  0
    2.6540   -3.9866    0.0000 H   0  0  0  0  0  0  0  0  0  0  0  0
    2.2554   -4.6768    0.0000 H   0  0  0  0  0  0  0  0  0  0  0  0
    2.8660   -6.1892    0.0000 H   0  0  0  0  0  0  0  0  0  0  0  0
    3.9781   -6.5692    0.0000 H   0  0  0  0  0  0  0  0  0  0  0  0
    4.5981   -7.1892    0.0000 H   0  0  0  0  0  0  0  0  0  0  0  0
    5.2181   -6.5692    0.0000 H   0  0  0  0  0  0  0  0  0  0  0  0
    4.7881   -3.1662    0.0000 H   0  0  0  0  0  0  0  0  0  0  0  0
    3.1760   -3.0322    0.0000 H   0  0  0  0  0  0  0  0  0  0  0  0
    2.3291   -3.2592    0.0000 H   0  0  0  0  0  0  0  0  0  0  0  0
    2.5560   -4.1061    0.0000 H   0  0  0  0  0  0  0  0  0  0  0  0
    4.3520   -3.0692    0.0000 H   0  0  0  0  0  0  0  0  0  0  0  0
    3.7320   -2.4492    0.0000 H   0  0  0  0  0  0  0  0  0  0  0  0
    3.1120   -3.0692    0.0000 H   0  0  0  0  0  0  0  0  0  0  0  0
    2.0000   -6.6892    0.0000 H   0  0  0  0  0  0  0  0  0  0  0  0
    6.4081   -4.2401    0.0000 H   0  0  0  0  0  0  0  0  0  0  0  0
    6.6350   -1.6611    0.0000 H   0  0  0  0  0  0  0  0  0  0  0  0
    5.7881   -1.4342    0.0000 H   0  0  0  0  0  0  0  0  0  0  0  0
    5.5611   -2.2811    0.0000 H   0  0  0  0  0  0  0  0  0  0  0  0
    7.9081   -3.3740    0.0000 H   0  0  0  0  0  0  0  0  0  0  0  0
    7.7881   -1.4342    0.0000 H   0  0  0  0  0  0  0  0  0  0  0  0
   18.9081    3.5542    0.0000 H   0  0  0  0  0  0  0  0  0  0  0  0
   20.5730    4.5586    0.0000 H   0  0  0  0  0  0  0  0  0  0  0  0
   20.5730    5.3556    0.0000 H   0  0  0  0  0  0  0  0  0  0  0  0
   20.2181    5.8231    0.0000 H   0  0  0  0  0  0  0  0  0  0  0  0
   20.1541    3.0542    0.0000 H   0  0  0  0  0  0  0  0  0  0  0  0
   21.0010    3.2811    0.0000 H   0  0  0  0  0  0  0  0  0  0  0  0
   20.7741    4.1280    0.0000 H   0  0  0  0  0  0  0  0  0  0  0  0
   18.9781    3.0911    0.0000 H   0  0  0  0  0  0  0  0  0  0  0  0
   19.5981    2.4711    0.0000 H   0  0  0  0  0  0  0  0  0  0  0  0
   20.2181    3.0911    0.0000 H   0  0  0  0  0  0  0  0  0  0  0  0
    9.4081   -2.5080    0.0000 H   0  0  0  0  0  0  0  0  0  0  0  0
   18.2881    6.3601    0.0000 H   0  0  0  0  0  0  0  0  0  0  0  0
   18.4081    2.6881    0.0000 H   0  0  0  0  0  0  0  0  0  0  0  0
   17.0981    5.5771    0.0000 H   0  0  0  0  0  0  0  0  0  0  0  0
   16.4781    4.9571    0.0000 H   0  0  0  0  0  0  0  0  0  0  0  0
   17.0981    4.3371    0.0000 H   0  0  0  0  0  0  0  0  0  0  0  0
   20.7181    6.6892    0.0000 H   0  0  0  0  0  0  0  0  0  0  0  0
   16.7881    3.7620    0.0000 H   0  0  0  0  0  0  0  0  0  0  0  0
    9.6350    0.0710    0.0000 H   0  0  0  0  0  0  0  0  0  0  0  0
    8.7881    0.2979    0.0000 H   0  0  0  0  0  0  0  0  0  0  0  0
    8.5611   -0.5490    0.0000 H   0  0  0  0  0  0  0  0  0  0  0  0
   10.9081   -1.6420    0.0000 H   0  0  0  0  0  0  0  0  0  0  0  0
   16.5611    1.1830    0.0000 H   0  0  0  0  0  0  0  0  0  0  0  0
   17.4081    0.9561    0.0000 H   0  0  0  0  0  0  0  0  0  0  0  0
   17.6350    1.8030    0.0000 H   0  0  0  0  0  0  0  0  0  0  0  0
   15.2881    2.8960    0.0000 H   0  0  0  0  0  0  0  0  0  0  0  0
   10.7881    0.2979    0.0000 H   0  0  0  0  0  0  0  0  0  0  0  0
   15.4081    0.9561    0.0000 H   0  0  0  0  0  0  0  0  0  0  0  0
   12.4081   -0.7760    0.0000 H   0  0  0  0  0  0  0  0  0  0  0  0
   13.7881    2.0300    0.0000 H   0  0  0  0  0  0  0  0  0  0  0  0
   12.2881    1.1639    0.0000 H   0  0  0  0  0  0  0  0  0  0  0  0
   13.5611   -0.5490    0.0000 H   0  0  0  0  0  0  0  0  0  0  0  0
   14.4081   -0.7760    0.0000 H   0  0  0  0  0  0  0  0  0  0  0  0
   14.6350    0.0710    0.0000 H   0  0  0  0  0  0  0  0  0  0  0  0
  1  4  1  0  0  0  0
  1  5  1  0  0  0  0
  9  2  1  1  0  0  0
  2 59  1  0  0  0  0
 22  3  1  6  0  0  0
  3 82  1  0  0  0  0
  4  5  1  0  0  0  0
  4  6  1  0  0  0  0
  4 11  1  1  0  0  0
  5  7  1  0  0  0  0
  5 10  1  1  0  0  0
  6  8  1  0  0  0  0
  6 12  1  0  0  0  0
  6 13  1  0  0  0  0
  7  9  1  0  0  0  0
  7 44  1  0  0  0  0
  7 45  1  0  0  0  0
  8  9  1  0  0  0  0
  8 46  1  0  0  0  0
  8 47  1  0  0  0  0
  9 48  1  0  0  0  0
 10 49  1  0  0  0  0
 10 50  1  0  0  0  0
 10 51  1  0  0  0  0
 11 14  2  0  0  0  0
 11 52  1  0  0  0  0
 12 53  1  0  0  0  0
 12 54  1  0  0  0  0
 12 55  1  0  0  0  0
 13 56  1  0  0  0  0
 13 57  1  0  0  0  0
 13 58  1  0  0  0  0
 14 15  1  0  0  0  0
 14 60  1  0  0  0  0
 15 16  1  0  0  0  0
 15 17  2  0  0  0  0
 16 61  1  0  0  0  0
 16 62  1  0  0  0  0
 16 63  1  0  0  0  0
 17 18  1  0  0  0  0
 17 64  1  0  0  0  0
 18 24  2  0  0  0  0
 18 65  1  0  0  0  0
 19 20  1  0  0  0  0
 19 21  1  0  0  0  0
 19 25  1  0  0  0  0
 19 26  1  0  0  0  0
 20 23  1  0  0  0  0
 20 28  1  1  0  0  0
 20 66  1  0  0  0  0
 21 22  1  0  0  0  0
 21 67  1  0  0  0  0
 21 68  1  0  0  0  0
 22 27  1  0  0  0  0
 22 69  1  0  0  0  0
 23 27  2  0  0  0  0
 23 29  1  0  0  0  0
 24 30  1  0  0  0  0
 24 76  1  0  0  0  0
 25 70  1  0  0  0  0
 25 71  1  0  0  0  0
 25 72  1  0  0  0  0
 26 73  1  0  0  0  0
 26 74  1  0  0  0  0
 26 75  1  0  0  0  0
 27 77  1  0  0  0  0
 28 31  2  0  0  0  0
 28 78  1  0  0  0  0
 29 79  1  0  0  0  0
 29 80  1  0  0  0  0
 29 81  1  0  0  0  0
 30 32  1  0  0  0  0
 30 33  2  0  0  0  0
 31 34  1  0  0  0  0
 31 83  1  0  0  0  0
 32 84  1  0  0  0  0
 32 85  1  0  0  0  0
 32 86  1  0  0  0  0
 33 37  1  0  0  0  0
 33 87  1  0  0  0  0
 34 35  1  0  0  0  0
 34 36  2  0  0  0  0
 35 88  1  0  0  0  0
 35 89  1  0  0  0  0
 35 90  1  0  0  0  0
 36 38  1  0  0  0  0
 36 91  1  0  0  0  0
 37 39  2  0  0  0  0
 37 92  1  0  0  0  0
 38 40  2  0  0  0  0
 38 93  1  0  0  0  0
 39 41  1  0  0  0  0
 39 94  1  0  0  0  0
 40 42  1  0  0  0  0
 40 95  1  0  0  0  0
 41 42  2  0  0  0  0
 41 96  1  0  0  0  0
 42 43  1  0  0  0  0
 43 97  1  0  0  0  0
 43 98  1  0  0  0  0
 43 99  1  0  0  0  0
M  END
> <PUBCHEM_COMPOUND_CID>
5281244

> <PUBCHEM_COMPOUND_CANONICALIZED>
1

> <PUBCHEM_CACTVS_COMPLEXITY>
1320

> <PUBCHEM_CACTVS_HBOND_ACCEPTOR>
3

> <PUBCHEM_CACTVS_HBOND_DONOR>
2

> <PUBCHEM_CACTVS_ROTATABLE_BOND>
10

> <PUBCHEM_CACTVS_SUBSKEYS>
AAADcfB8MAAAAAAAAAAAAAAAEgAAAAAAAAAwQAAABIAAAAAAAAAAGgAACAAAD1SggAICAAAABgCAAiBCAAAAAAAgAAAICAAAAAgIFAIAIQACUAAFwAAIsAPA4PQPgAAAAAAAAABCAAYQADAAAAAAAAAAAA==

> <PUBCHEM_IUPAC_OPENEYE_NAME>
(1R,3S,6S)-6-[(1E,3E,5E,7E,9E,11E,13E,15E,17E)-18-[(1R,4R)-4-hydroxy-2,6,6-trimethyl-cyclohex-2-en-1-yl]-3,7,12,16-tetramethyl-octadeca-1,3,5,7,9,11,13,15,17-nonaenyl]-1,5,5-trimethyl-7-oxabicyclo[4.1.0]heptan-3-ol

> <PUBCHEM_IUPAC_CAS_NAME>
(1R,3S,6S)-6-[(1E,3E,5E,7E,9E,11E,13E,15E,17E)-18-[(1R,4R)-4-hydroxy-2,6,6-trimethyl-1-cyclohex-2-enyl]-3,7,12,16-tetramethyloctadeca-1,3,5,7,9,11,13,15,17-nonaenyl]-1,5,5-trimethyl-7-oxabicyclo[4.1.0]heptan-3-ol

> <PUBCHEM_IUPAC_NAME>
(1R,3S,6S)-6-[(1E,3E,5E,7E,9E,11E,13E,15E,17E)-18-[(1R,4R)-4-hydroxy-2,6,6-trimethylcyclohex-2-en-1-yl]-3,7,12,16-tetramethyloctadeca-1,3,5,7,9,11,13,15,17-nonaenyl]-1,5,5-trimethyl-7-oxabicyclo[4.1.0]heptan-3-ol

> <PUBCHEM_IUPAC_SYSTEMATIC_NAME>
(1R,3S,6S)-1,5,5-trimethyl-6-[(1E,3E,5E,7E,9E,11E,13E,15E,17E)-3,7,12,16-tetramethyl-18-[(1R,4R)-2,6,6-trimethyl-4-oxidanyl-cyclohex-2-en-1-yl]octadeca-1,3,5,7,9,11,13,15,17-nonaenyl]-7-oxabicyclo[4.1.0]heptan-3-ol

> <PUBCHEM_IUPAC_TRADITIONAL_NAME>
(1R,3S,6S)-6-[(1E,3E,5E,7E,9E,11E,13E,15E,17E)-18-[(1R,4R)-4-hydroxy-2,6,6-trimethyl-cyclohex-2-en-1-yl]-3,7,12,16-tetramethyl-octadeca-1,3,5,7,9,11,13,15,17-nonaenyl]-1,5,5-trimethyl-7-oxabicyclo[4.1.0]heptan-3-ol

> <PUBCHEM_IUPAC_INCHI>
InChI=1S/C40H56O3/c1-29(17-13-19-31(3)21-22-36-33(5)25-34(41)26-37(36,6)7)15-11-12-16-30(2)18-14-20-32(4)23-24-40-38(8,9)27-35(42)28-39(40,10)43-40/h11-25,34-36,41-42H,26-28H2,1-10H3/b12-11+,17-13+,18-14+,22-21+,24-23+,29-15+,30-16+,31-19+,32-20+/t34-,35-,36-,39+,40-/m0/s1

> <PUBCHEM_IUPAC_INCHIKEY>
DYUUPIKEWLHQGQ-FJOIUHRLSA-N

> <PUBCHEM_XLOGP3_AA>
10.4

> <PUBCHEM_EXACT_MASS>
584.422946

> <PUBCHEM_MOLECULAR_FORMULA>
C40H56O3

> <PUBCHEM_MOLECULAR_WEIGHT>
584.87084

> <PUBCHEM_OPENEYE_CAN_SMILES>
CC1=CC(CC(C1C=CC(=CC=CC(=CC=CC=C(C)C=CC=C(C)C=CC23C(CC(CC2(O3)C)O)(C)C)C)C)(C)C)O

> <PUBCHEM_OPENEYE_ISO_SMILES>
CC1=C[C@@H](CC([C@H]1/C=C/C(=C/C=C/C(=C/C=C/C=C(\C)/C=C/C=C(\C)/C=C/[C@]23[C@](O2)(C[C@H](CC3(C)C)O)C)/C)/C)(C)C)O

> <PUBCHEM_CACTVS_TPSA>
53

> <PUBCHEM_MONOISOTOPIC_WEIGHT>
584.422946

> <PUBCHEM_TOTAL_CHARGE>
0

> <PUBCHEM_HEAVY_ATOM_COUNT>
43

> <PUBCHEM_ATOM_DEF_STEREO_COUNT>
5

> <PUBCHEM_ATOM_UDEF_STEREO_COUNT>
0

> <PUBCHEM_BOND_DEF_STEREO_COUNT>
9

> <PUBCHEM_BOND_UDEF_STEREO_COUNT>
0

> <PUBCHEM_ISOTOPIC_ATOM_COUNT>
0

> <PUBCHEM_COMPONENT_COUNT>
1

> <PUBCHEM_CACTVS_TAUTO_COUNT>
1

> <PUBCHEM_COORDINATE_TYPE>
1
5
255

> <PUBCHEM_BONDANNOTATIONS>
9  2  5
20  28  5
22  3  6
4  11  5
5  10  5

$$$$

