344200
  -OEChem-07051212582D

 39 41  0     1  0  0  0  0  0999 V2000
    6.8616   -1.6134    0.0000 O   0  0  0  0  0  0  0  0  0  0  0  0
    2.4141   -0.1525    0.0000 O   0  0  0  0  0  0  0  0  0  0  0  0
    6.7277   -0.1134    0.0000 O   0  0  0  0  0  0  0  0  0  0  0  0
    4.8158    2.3628    0.0000 O   0  0  0  0  0  0  0  0  0  0  0  0
    4.9956   -2.1134    0.0000 C   0  0  0  0  0  0  0  0  0  0  0  0
    5.4956   -2.9794    0.0000 C   0  0  0  0  0  0  0  0  0  0  0  0
    4.4956   -2.9794    0.0000 C   0  0  0  0  0  0  0  0  0  0  0  0
    5.8616   -1.6134    0.0000 C   0  0  2  0  0  0  0  0  0  0  0  0
    4.1296   -1.6134    0.0000 C   0  0  0  0  0  0  0  0  0  0  0  0
    4.1296   -0.6134    0.0000 C   0  0  0  0  0  0  0  0  0  0  0  0
    5.8616   -0.6134    0.0000 C   0  0  0  0  0  0  0  0  0  0  0  0
    4.9956   -0.1134    0.0000 C   0  0  0  0  0  0  0  0  0  0  0  0
    3.3926    0.0537    0.0000 C   0  0  2  0  0  0  0  0  0  0  0  0
    3.7977    0.9615    0.0000 C   0  0  1  0  0  0  0  0  0  0  0  0
    6.3616   -2.4794    0.0000 C   0  0  0  0  0  0  0  0  0  0  0  0
    4.7864    0.8585    0.0000 C   0  0  0  0  0  0  0  0  0  0  0  0
    3.2636   -2.1134    0.0000 C   0  0  0  0  0  0  0  0  0  0  0  0
    3.9022    1.9560    0.0000 C   0  0  0  0  0  0  0  0  0  0  0  0
    2.8841    1.3682    0.0000 C   0  0  0  0  0  0  0  0  0  0  0  0
    5.6033   -3.5900    0.0000 H   0  0  0  0  0  0  0  0  0  0  0  0
    6.0782   -2.7673    0.0000 H   0  0  0  0  0  0  0  0  0  0  0  0
    3.9130   -2.7673    0.0000 H   0  0  0  0  0  0  0  0  0  0  0  0
    4.3880   -3.5900    0.0000 H   0  0  0  0  0  0  0  0  0  0  0  0
    3.2308   -0.5448    0.0000 H   0  0  0  0  0  0  0  0  0  0  0  0
    5.8247   -2.7894    0.0000 H   0  0  0  0  0  0  0  0  0  0  0  0
    6.6716   -3.0163    0.0000 H   0  0  0  0  0  0  0  0  0  0  0  0
    6.8986   -2.1694    0.0000 H   0  0  0  0  0  0  0  0  0  0  0  0
    5.2005    1.3199    0.0000 H   0  0  0  0  0  0  0  0  0  0  0  0
    2.9536   -1.5764    0.0000 H   0  0  0  0  0  0  0  0  0  0  0  0
    2.7266   -2.4234    0.0000 H   0  0  0  0  0  0  0  0  0  0  0  0
    3.5736   -2.6503    0.0000 H   0  0  0  0  0  0  0  0  0  0  0  0
    7.1716   -2.1503    0.0000 H   0  0  0  0  0  0  0  0  0  0  0  0
    3.7522    2.5576    0.0000 H   0  0  0  0  0  0  0  0  0  0  0  0
    3.2837    1.9128    0.0000 H   0  0  0  0  0  0  0  0  0  0  0  0
    3.1363    1.9346    0.0000 H   0  0  0  0  0  0  0  0  0  0  0  0
    2.3177    1.6204    0.0000 H   0  0  0  0  0  0  0  0  0  0  0  0
    2.6320    0.8019    0.0000 H   0  0  0  0  0  0  0  0  0  0  0  0
    2.0000    0.3090    0.0000 H   0  0  0  0  0  0  0  0  0  0  0  0
    4.8806    2.9794    0.0000 H   0  0  0  0  0  0  0  0  0  0  0  0
  8  1  1  6  0  0  0
  1 32  1  0  0  0  0
 13  2  1  1  0  0  0
  2 38  1  0  0  0  0
  3 11  2  0  0  0  0
  4 18  1  0  0  0  0
  4 39  1  0  0  0  0
  5  6  1  0  0  0  0
  5  7  1  0  0  0  0
  5  8  1  0  0  0  0
  5  9  1  0  0  0  0
  6  7  1  0  0  0  0
  6 20  1  0  0  0  0
  6 21  1  0  0  0  0
  7 22  1  0  0  0  0
  7 23  1  0  0  0  0
  8 11  1  0  0  0  0
  8 15  1  0  0  0  0
  9 10  2  0  0  0  0
  9 17  1  0  0  0  0
 10 12  1  0  0  0  0
 10 13  1  0  0  0  0
 11 12  1  0  0  0  0
 12 16  2  0  0  0  0
 13 14  1  0  0  0  0
 13 24  1  0  0  0  0
 14 16  1  0  0  0  0
 14 18  1  0  0  0  0
 14 19  1  1  0  0  0
 15 25  1  0  0  0  0
 15 26  1  0  0  0  0
 15 27  1  0  0  0  0
 16 28  1  0  0  0  0
 17 29  1  0  0  0  0
 17 30  1  0  0  0  0
 17 31  1  0  0  0  0
 18 33  1  0  0  0  0
 18 34  1  0  0  0  0
 19 35  1  0  0  0  0
 19 36  1  0  0  0  0
 19 37  1  0  0  0  0
M  END
> <PUBCHEM_COMPOUND_CID>
344200

> <PUBCHEM_COMPOUND_CANONICALIZED>
1

> <PUBCHEM_CACTVS_COMPLEXITY>
540

> <PUBCHEM_CACTVS_HBOND_ACCEPTOR>
4

> <PUBCHEM_CACTVS_HBOND_DONOR>
3

> <PUBCHEM_CACTVS_ROTATABLE_BOND>
1

> <PUBCHEM_CACTVS_SUBSKEYS>
AAADceBwOAAAAAAAAAAAAAAAGAAAAQAAAAAgAAAAAAAAAEAAAAAAGgAACAAADlSggAICAAAAAgCIAqBSAAIAAAAgAAAACAFAAEgIFBIAAAAAUAAFwAAIkYOK6PQPgAAAAAAAAAAAAAAAAAAAAAAAAAAAAA==

> <PUBCHEM_IUPAC_OPENEYE_NAME>
(1R,2S,5R)-1,5-dihydroxy-2-(hydroxymethyl)-2,5,7-trimethyl-spiro[1H-indene-6,1'-cyclopropane]-4-one

> <PUBCHEM_IUPAC_CAS_NAME>
(1R,2S,5R)-1,5-dihydroxy-2-(hydroxymethyl)-2,5,7-trimethyl-4-spiro[1H-indene-6,1'-cyclopropane]one

> <PUBCHEM_IUPAC_NAME>
(1R,2S,5R)-1,5-dihydroxy-2-(hydroxymethyl)-2,5,7-trimethylspiro[1H-indene-6,1'-cyclopropane]-4-one

> <PUBCHEM_IUPAC_SYSTEMATIC_NAME>
(1R,2S,5R)-2-(hydroxymethyl)-2,5,7-trimethyl-1,5-bis(oxidanyl)spiro[1H-indene-6,1'-cyclopropane]-4-one

> <PUBCHEM_IUPAC_TRADITIONAL_NAME>
(1R,2S,5R)-1,5-dihydroxy-2,5,7-trimethyl-2-methylol-spiro[1H-indene-6,1'-cyclopropane]-4-one

> <PUBCHEM_IUPAC_INCHI>
InChI=1S/C15H20O4/c1-8-10-9(6-13(2,7-16)12(10)18)11(17)14(3,19)15(8)4-5-15/h6,12,16,18-19H,4-5,7H2,1-3H3/t12-,13+,14+/m1/s1

> <PUBCHEM_IUPAC_INCHIKEY>
DDLLIYKVDWPHJI-RDBSUJKOSA-N

> <PUBCHEM_XLOGP3_AA>
0.1

> <PUBCHEM_EXACT_MASS>
264.136159

> <PUBCHEM_MOLECULAR_FORMULA>
C15H20O4

> <PUBCHEM_MOLECULAR_WEIGHT>
264.3169

> <PUBCHEM_OPENEYE_CAN_SMILES>
CC1=C2C(C(C=C2C(=O)C(C13CC3)(C)O)(C)CO)O

> <PUBCHEM_OPENEYE_ISO_SMILES>
CC1=C2[C@H]([C@](C=C2C(=O)[C@](C13CC3)(C)O)(C)CO)O

> <PUBCHEM_CACTVS_TPSA>
77.8

> <PUBCHEM_MONOISOTOPIC_WEIGHT>
264.136159

> <PUBCHEM_TOTAL_CHARGE>
0

> <PUBCHEM_HEAVY_ATOM_COUNT>
19

> <PUBCHEM_ATOM_DEF_STEREO_COUNT>
3

> <PUBCHEM_ATOM_UDEF_STEREO_COUNT>
0

> <PUBCHEM_BOND_DEF_STEREO_COUNT>
0

> <PUBCHEM_BOND_UDEF_STEREO_COUNT>
0

> <PUBCHEM_ISOTOPIC_ATOM_COUNT>
0

> <PUBCHEM_COMPONENT_COUNT>
1

> <PUBCHEM_CACTVS_TAUTO_COUNT>
1

> <PUBCHEM_COORDINATE_TYPE>
1
5
255

> <PUBCHEM_BONDANNOTATIONS>
8  1  6
14  19  5
13  2  5

$$$$

