443342
  -OEChem-07051213023D

 50 52  0     1  0  0  0  0  0999 V2000
   -0.5821    0.9436    0.7448 O   0  0  0  0  0  0  0  0  0  0  0  0
    0.6699   -0.9655    1.2510 O   0  0  0  0  0  0  0  0  0  0  0  0
    2.8433    2.2841   -2.7866 O   0  0  0  0  0  0  0  0  0  0  0  0
   -1.9220   -0.3575   -0.6538 O   0  0  0  0  0  0  0  0  0  0  0  0
   -2.8160    1.4040    2.4199 O   0  0  0  0  0  0  0  0  0  0  0  0
   -5.3561    1.2380    0.9364 O   0  0  0  0  0  0  0  0  0  0  0  0
   -5.4815   -1.2172   -0.5843 O   0  0  0  0  0  0  0  0  0  0  0  0
    5.3011   -1.1653    0.8525 O   0  0  0  0  0  0  0  0  0  0  0  0
    4.1941   -3.1524    0.6161 O   0  0  0  0  0  0  0  0  0  0  0  0
   -1.8689   -2.4983   -2.3772 O   0  0  0  0  0  0  0  0  0  0  0  0
    1.8021    1.1071    0.5015 C   0  0  1  0  0  0  0  0  0  0  0  0
    3.1097    0.3252    0.2625 C   0  0  2  0  0  0  0  0  0  0  0  0
    1.7759    2.2112   -0.5881 C   0  0  2  0  0  0  0  0  0  0  0  0
    3.0535    1.9980   -1.4158 C   0  0  1  0  0  0  0  0  0  0  0  0
    3.3835    0.5242   -1.2249 C   0  0  0  0  0  0  0  0  0  0  0  0
    0.5737    0.1817    0.3968 C   0  0  2  0  0  0  0  0  0  0  0  0
    3.0078   -1.0960    0.7020 C   0  0  0  0  0  0  0  0  0  0  0  0
    1.7205    3.6138    0.0091 C   0  0  0  0  0  0  0  0  0  0  0  0
   -1.7656    0.1494    0.6695 C   0  0  2  0  0  0  0  0  0  0  0  0
    1.8726   -1.6189    1.1776 C   0  0  0  0  0  0  0  0  0  0  0  0
   -2.9522    1.0358    1.0477 C   0  0  1  0  0  0  0  0  0  0  0  0
   -4.2792    0.3035    0.8480 C   0  0  2  0  0  0  0  0  0  0  0  0
   -4.3426   -0.3622   -0.5267 C   0  0  1  0  0  0  0  0  0  0  0  0
   -3.0789   -1.1845   -0.7907 C   0  0  1  0  0  0  0  0  0  0  0  0
    4.2038   -1.9387    0.7150 C   0  0  0  0  0  0  0  0  0  0  0  0
   -3.0663   -1.7631   -2.2021 C   0  0  0  0  0  0  0  0  0  0  0  0
    1.8200    1.5447    1.5090 H   0  0  0  0  0  0  0  0  0  0  0  0
    3.8955    0.8357    0.8373 H   0  0  0  0  0  0  0  0  0  0  0  0
    0.8975    2.0980   -1.2370 H   0  0  0  0  0  0  0  0  0  0  0  0
    3.8752    2.6255   -1.0496 H   0  0  0  0  0  0  0  0  0  0  0  0
    4.4226    0.3086   -1.4958 H   0  0  0  0  0  0  0  0  0  0  0  0
    2.7475   -0.1099   -1.8558 H   0  0  0  0  0  0  0  0  0  0  0  0
    0.4749   -0.1715   -0.6392 H   0  0  0  0  0  0  0  0  0  0  0  0
    1.7354    4.3715   -0.7811 H   0  0  0  0  0  0  0  0  0  0  0  0
    0.8021    3.7486    0.5899 H   0  0  0  0  0  0  0  0  0  0  0  0
    2.5711    3.7999    0.6736 H   0  0  0  0  0  0  0  0  0  0  0  0
   -1.6894   -0.6792    1.3860 H   0  0  0  0  0  0  0  0  0  0  0  0
    1.7780   -2.6119    1.5964 H   0  0  0  0  0  0  0  0  0  0  0  0
   -2.9455    1.9645    0.4636 H   0  0  0  0  0  0  0  0  0  0  0  0
    3.6602    2.0549   -3.2617 H   0  0  0  0  0  0  0  0  0  0  0  0
   -4.4434   -0.4357    1.6417 H   0  0  0  0  0  0  0  0  0  0  0  0
   -4.4684    0.4151   -1.2916 H   0  0  0  0  0  0  0  0  0  0  0  0
   -2.9986   -2.0192   -0.0811 H   0  0  0  0  0  0  0  0  0  0  0  0
   -3.0805   -0.9647   -2.9514 H   0  0  0  0  0  0  0  0  0  0  0  0
   -3.9105   -2.4367   -2.3735 H   0  0  0  0  0  0  0  0  0  0  0  0
   -1.9593    1.8543    2.5167 H   0  0  0  0  0  0  0  0  0  0  0  0
   -5.2899    1.6754    1.8024 H   0  0  0  0  0  0  0  0  0  0  0  0
   -5.6456   -1.4320   -1.5178 H   0  0  0  0  0  0  0  0  0  0  0  0
    6.1266   -1.6951    0.8650 H   0  0  0  0  0  0  0  0  0  0  0  0
   -1.8783   -2.8510   -3.2832 H   0  0  0  0  0  0  0  0  0  0  0  0
  1 16  1  0  0  0  0
  1 19  1  0  0  0  0
  2 16  1  0  0  0  0
  2 20  1  0  0  0  0
  3 14  1  0  0  0  0
  3 40  1  0  0  0  0
  4 19  1  0  0  0  0
  4 24  1  0  0  0  0
  5 21  1  0  0  0  0
  5 46  1  0  0  0  0
  6 22  1  0  0  0  0
  6 47  1  0  0  0  0
  7 23  1  0  0  0  0
  7 48  1  0  0  0  0
  8 25  1  0  0  0  0
  8 49  1  0  0  0  0
  9 25  2  0  0  0  0
 10 26  1  0  0  0  0
 10 50  1  0  0  0  0
 11 12  1  0  0  0  0
 11 13  1  0  0  0  0
 11 16  1  0  0  0  0
 11 27  1  0  0  0  0
 12 15  1  0  0  0  0
 12 17  1  0  0  0  0
 12 28  1  0  0  0  0
 13 14  1  0  0  0  0
 13 18  1  0  0  0  0
 13 29  1  0  0  0  0
 14 15  1  0  0  0  0
 14 30  1  0  0  0  0
 15 31  1  0  0  0  0
 15 32  1  0  0  0  0
 16 33  1  0  0  0  0
 17 20  2  0  0  0  0
 17 25  1  0  0  0  0
 18 34  1  0  0  0  0
 18 35  1  0  0  0  0
 18 36  1  0  0  0  0
 19 21  1  0  0  0  0
 19 37  1  0  0  0  0
 20 38  1  0  0  0  0
 21 22  1  0  0  0  0
 21 39  1  0  0  0  0
 22 23  1  0  0  0  0
 22 41  1  0  0  0  0
 23 24  1  0  0  0  0
 23 42  1  0  0  0  0
 24 26  1  0  0  0  0
 24 43  1  0  0  0  0
 26 44  1  0  0  0  0
 26 45  1  0  0  0  0
M  END
> <PUBCHEM_COMPOUND_CID>
443342

> <PUBCHEM_CONFORMER_RMSD>
0.8

> <PUBCHEM_CONFORMER_DIVERSEORDER>
1
42
74
69
14
52
18
20
34
4
62
71
50
41
12
37
60
49
59
44
6
22
29
21
24
72
33
8
46
65
30
35
54
39
58
11
61
55
53
76
63
56
32
9
15
28
26
5
45
31
25
2
57
64
47
13
7
38
36
48
70
67
27
66
10
43
23
3
17
19
40
16
73
68
51
75

> <PUBCHEM_MMFF94_PARTIAL_CHARGES>
29
1 -0.56
10 -0.68
12 0.14
14 0.28
16 0.56
17 -0.12
19 0.56
2 -0.36
20 -0.07
21 0.28
22 0.28
23 0.28
24 0.28
25 0.71
26 0.28
3 -0.68
38 0.15
4 -0.56
40 0.4
46 0.4
47 0.4
48 0.4
49 0.5
5 -0.68
50 0.4
6 -0.68
7 -0.68
8 -0.65
9 -0.57

> <PUBCHEM_EFFECTIVE_ROTOR_COUNT>
6.2

> <PUBCHEM_PHARMACOPHORE_FEATURES>
19
1 1 acceptor
1 10 acceptor
1 10 donor
1 2 acceptor
1 3 acceptor
1 3 donor
1 4 acceptor
1 5 acceptor
1 5 donor
1 6 acceptor
1 6 donor
1 7 acceptor
1 7 donor
1 8 acceptor
1 9 acceptor
3 8 9 25 anion
5 11 12 13 14 15 rings
6 2 11 12 16 17 20 rings
6 4 19 21 22 23 24 rings

> <PUBCHEM_HEAVY_ATOM_COUNT>
26

> <PUBCHEM_ATOM_DEF_STEREO_COUNT>
10

> <PUBCHEM_ATOM_UDEF_STEREO_COUNT>
0

> <PUBCHEM_BOND_DEF_STEREO_COUNT>
0

> <PUBCHEM_BOND_UDEF_STEREO_COUNT>
0

> <PUBCHEM_ISOTOPIC_ATOM_COUNT>
0

> <PUBCHEM_COMPONENT_COUNT>
1

> <PUBCHEM_CACTVS_TAUTO_COUNT>
1

> <PUBCHEM_CONFORMER_ID>
0006C3CE00000001

> <PUBCHEM_MMFF94_ENERGY>
75.2007

> <PUBCHEM_FEATURE_SELFOVERLAP>
96.677

> <PUBCHEM_SHAPE_FINGERPRINT>
10366900 7 16343708767710505235
10369192 42 16412069632015609724
11049842 53 17243828423959752316
11578080 2 18118434862417764401
12236239 1 18335139808110918378
12553582 1 18129111193643426818
12616971 3 18411130355895613353
12788726 201 17749661892787770547
13009979 54 18187359977934133762
13134695 92 18342741819185273668
13533116 47 18271523101158780739
13726171 33 17170656797426592753
13782708 43 16630517441009878739
13911987 19 17417227949834560226
15806764 133 16702306771232138485
16752209 62 17748828497534159823
17349148 13 17749115491274781845
17357779 13 17560248032470024004
17818456 19 17970061351911995689
17980427 26 18120381960614758844
1813 80 18269551814006805046
18186145 218 17203614774179574257
20511986 3 18334590043992101280
20600515 1 16805323318648028289
20612939 158 18131350795427691788
20645477 70 17847061064860671000
21033648 29 16486983872983633021
23557571 272 16298374769294176472
23559900 14 18272092681887638355
23598291 2 18410570716903041009
238 59 17774173283756598702
312423 11 18410849954375740427
338550 245 18186801417517040167
46194498 28 17489873717461567942
474 4 18126285233663673369
5081480 168 17060046090637997846
5281201 14 17489875946322494173
602551 16 17240205425777348394
6823239 73 14908177547348480358
7471813 234 18412266168355243120
7495541 125 16702295772032013210
9971528 1 18412832408379824208
9981440 41 17617952326620180736

> <PUBCHEM_SHAPE_MULTIPOLES>
476.37
10.52
3.09
1.96
6.52
0.62
1.01
-3.25
-0.24
-3.36
0.65
0.68
0.03
-3.79

> <PUBCHEM_SHAPE_SELFOVERLAP>
1004.041

> <PUBCHEM_SHAPE_VOLUME>
263.2

> <PUBCHEM_COORDINATE_TYPE>
2
5
10

$$$$

