439850
  -OEChem-07051212473D

 35 36  0     0  0  0  0  0  0999 V2000
   -3.3788    1.9666   -0.1473 O   0  0  0  0  0  0  0  0  0  0  0  0
   -1.1170    1.7915    1.2227 O   0  0  0  0  0  0  0  0  0  0  0  0
    1.3576    2.1099    0.0992 O   0  0  0  0  0  0  0  0  0  0  0  0
   -5.6535   -2.1967   -0.5840 O   0  0  0  0  0  0  0  0  0  0  0  0
    6.6072   -1.3811   -0.4482 O   0  0  0  0  0  0  0  0  0  0  0  0
    0.3229   -0.0234    0.5484 C   0  0  0  0  0  0  0  0  0  0  0  0
   -2.2598   -0.0839    0.3958 C   0  0  0  0  0  0  0  0  0  0  0  0
   -1.0183    0.6610    0.7521 C   0  0  0  0  0  0  0  0  0  0  0  0
    1.5243    0.8815    0.2303 C   0  0  0  0  0  0  0  0  0  0  0  0
   -3.3702    0.6085   -0.0343 C   0  0  0  0  0  0  0  0  0  0  0  0
    2.8431    0.2942    0.0538 C   0  0  0  0  0  0  0  0  0  0  0  0
   -2.2414   -1.4573    0.5098 C   0  0  0  0  0  0  0  0  0  0  0  0
   -4.5203   -0.1076   -0.3668 C   0  0  0  0  0  0  0  0  0  0  0  0
   -3.3913   -2.1732    0.1772 C   0  0  0  0  0  0  0  0  0  0  0  0
   -4.5308   -1.4984   -0.2611 C   0  0  0  0  0  0  0  0  0  0  0  0
    3.0141   -1.0848    0.1732 C   0  0  0  0  0  0  0  0  0  0  0  0
    3.9368    1.1105   -0.2348 C   0  0  0  0  0  0  0  0  0  0  0  0
    4.2791   -1.6479    0.0042 C   0  0  0  0  0  0  0  0  0  0  0  0
    5.2018    0.5474   -0.4040 C   0  0  0  0  0  0  0  0  0  0  0  0
    5.3730   -0.8318   -0.2846 C   0  0  0  0  0  0  0  0  0  0  0  0
   -2.9786    2.5147   -1.4013 C   0  0  0  0  0  0  0  0  0  0  0  0
    0.2298   -0.7130   -0.2985 H   0  0  0  0  0  0  0  0  0  0  0  0
    0.5379   -0.5713    1.4726 H   0  0  0  0  0  0  0  0  0  0  0  0
   -1.3767   -2.0076    0.8658 H   0  0  0  0  0  0  0  0  0  0  0  0
   -5.4058    0.4235   -0.7074 H   0  0  0  0  0  0  0  0  0  0  0  0
   -3.3953   -3.2562    0.2657 H   0  0  0  0  0  0  0  0  0  0  0  0
    2.1936   -1.7594    0.3954 H   0  0  0  0  0  0  0  0  0  0  0  0
    3.8304    2.1876   -0.3324 H   0  0  0  0  0  0  0  0  0  0  0  0
    4.3998   -2.7237    0.0998 H   0  0  0  0  0  0  0  0  0  0  0  0
    6.0503    1.1882   -0.6283 H   0  0  0  0  0  0  0  0  0  0  0  0
   -3.6783    2.2160   -2.1883 H   0  0  0  0  0  0  0  0  0  0  0  0
   -1.9642    2.1958   -1.6614 H   0  0  0  0  0  0  0  0  0  0  0  0
   -2.9910    3.6049   -1.3181 H   0  0  0  0  0  0  0  0  0  0  0  0
   -6.3434   -1.5718   -0.8663 H   0  0  0  0  0  0  0  0  0  0  0  0
    6.5416   -2.3444   -0.3308 H   0  0  0  0  0  0  0  0  0  0  0  0
  1 10  1  0  0  0  0
  1 21  1  0  0  0  0
  2  8  2  0  0  0  0
  3  9  2  0  0  0  0
  4 15  1  0  0  0  0
  4 34  1  0  0  0  0
  5 20  1  0  0  0  0
  5 35  1  0  0  0  0
  6  8  1  0  0  0  0
  6  9  1  0  0  0  0
  6 22  1  0  0  0  0
  6 23  1  0  0  0  0
  7  8  1  0  0  0  0
  7 10  2  0  0  0  0
  7 12  1  0  0  0  0
  9 11  1  0  0  0  0
 10 13  1  0  0  0  0
 11 16  2  0  0  0  0
 11 17  1  0  0  0  0
 12 14  2  0  0  0  0
 12 24  1  0  0  0  0
 13 15  2  0  0  0  0
 13 25  1  0  0  0  0
 14 15  1  0  0  0  0
 14 26  1  0  0  0  0
 16 18  1  0  0  0  0
 16 27  1  0  0  0  0
 17 19  2  0  0  0  0
 17 28  1  0  0  0  0
 18 20  2  0  0  0  0
 18 29  1  0  0  0  0
 19 20  1  0  0  0  0
 19 30  1  0  0  0  0
 21 31  1  0  0  0  0
 21 32  1  0  0  0  0
 21 33  1  0  0  0  0
M  END
> <PUBCHEM_COMPOUND_CID>
439850

> <PUBCHEM_CONFORMER_RMSD>
0.8

> <PUBCHEM_CONFORMER_DIVERSEORDER>
1
85
63
124
133
11
121
115
54
91
23
24
32
39
94
82
9
132
64
61
73
76
45
130
96
86
52
2
30
53
102
6
14
35
90
69
131
20
104
80
25
50
36
105
70
113
38
67
33
101
31
137
109
117
28
42
120
118
135
112
41
95
134
81
34
127
114
44
65
57
7
49
78
138
99
13
18
58
119
87
62
75
84
126
123
10
106
27
47
122
111
79
116
29
136
97
43
56
125
83
60
5
16
128
19
4
68
46
22
108
51
8
37
88
15
93
71
55
74
66
103
110
40
3
92
98
59
72
12
26
48
100
17
107
129
21
89
77

> <PUBCHEM_MMFF94_PARTIAL_CHARGES>
30
1 -0.36
10 0.08
11 0.09
12 -0.15
13 -0.15
14 -0.15
15 0.08
16 -0.15
17 -0.15
18 -0.15
19 -0.15
2 -0.57
20 0.08
21 0.28
24 0.15
25 0.15
26 0.15
27 0.15
28 0.15
29 0.15
3 -0.57
30 0.15
34 0.45
35 0.45
4 -0.53
5 -0.53
6 0.12
7 0.09
8 0.42
9 0.42

> <PUBCHEM_EFFECTIVE_ROTOR_COUNT>
5

> <PUBCHEM_PHARMACOPHORE_FEATURES>
8
1 1 acceptor
1 2 acceptor
1 3 acceptor
1 4 donor
1 5 donor
1 6 anion
6 11 16 17 18 19 20 rings
6 7 10 12 13 14 15 rings

> <PUBCHEM_HEAVY_ATOM_COUNT>
21

> <PUBCHEM_ATOM_DEF_STEREO_COUNT>
0

> <PUBCHEM_ATOM_UDEF_STEREO_COUNT>
0

> <PUBCHEM_BOND_DEF_STEREO_COUNT>
0

> <PUBCHEM_BOND_UDEF_STEREO_COUNT>
0

> <PUBCHEM_ISOTOPIC_ATOM_COUNT>
0

> <PUBCHEM_COMPONENT_COUNT>
1

> <PUBCHEM_CACTVS_TAUTO_COUNT>
51

> <PUBCHEM_CONFORMER_ID>
0006B62A00000001

> <PUBCHEM_MMFF94_ENERGY>
70.1177

> <PUBCHEM_FEATURE_SELFOVERLAP>
40.609

> <PUBCHEM_SHAPE_FINGERPRINT>
10595046 47 18342455933176572524
10835480 77 18335428954237628680
11045515 52 18341893004276890945
11315181 36 18113334228350070320
12107183 9 17694226968635799098
12760667 363 18333729088139314587
12916754 54 18335701603166867649
12954195 1 18337679702374676357
13167823 11 18410575080690144342
13288520 33 18334293171531078491
13668630 136 17822004311819196134
14251740 79 18413107277617679763
14347332 77 18411989057028050391
14508225 48 18342185415015265053
14576447 43 18410855460808916794
14790565 3 17544472415671266209
14910302 57 18340498784919661757
15183329 4 18272093832901956119
15188451 53 14779558825247777799
15196674 1 18409446986139260170
15352361 1 18408039593827937338
15788980 27 18273209816166967424
15961568 22 17702667614840333788
17834072 33 18411696582861471916
17844677 252 18410848859222779548
17857418 61 18410575098086350026
17870717 6 18410568509321590431
1813 80 14779539067849667936
18681886 176 18408043992697348986
200 152 18187644691273935168
20645477 70 18260824913118433326
20871999 31 18343585156918603905
21065201 7 18341903978091697960
21267235 1 18409440371494310291
21637258 2 16805892784536237847
21709351 56 18272088318765140356
221357 26 18412267207546982711
221490 88 18268142059399685314
22393880 68 18342182201967809250
23402539 116 18334858341724291372
23403322 49 18334012778902054755
23522609 53 17973410297190856961
23559900 14 18336836285949618817
25122255 55 17968084374508328742
2871803 45 18343022168732704018
2916195 48 11527649857682260534
3004659 81 18343022186033833922
335352 9 18409450302429090749
351380 3 18113900433514597142
4214541 1 18411699915186602208
465052 167 17968089764180549574
4921388 177 16916776336878419907
5104073 3 18260265252745828248
5283173 99 18270966855312133436
531348 171 17986113126455232274
559249 180 18338518641713614995
7495541 125 17749391430033405720
960060 61 17917704696052197718
9709674 26 18269553836413863339

> <PUBCHEM_SHAPE_MULTIPOLES>
402.82
13.75
2.45
0.86
10.28
0.34
-0.02
-6.46
-3.57
-2.22
-0.39
-0.39
0.28
0.3

> <PUBCHEM_SHAPE_SELFOVERLAP>
868.049

> <PUBCHEM_SHAPE_VOLUME>
221.2

> <PUBCHEM_COORDINATE_TYPE>
2
5
10

$$$$

