188323
  -OEChem-07051213113D

 37 39  0     0  0  0  0  0  0999 V2000
    0.5576    0.5862   -0.0436 O   0  0  0  0  0  0  0  0  0  0  0  0
   -4.9066   -0.2181   -0.1517 O   0  0  0  0  0  0  0  0  0  0  0  0
   -3.8479    2.3361   -0.1536 O   0  0  0  0  0  0  0  0  0  0  0  0
   -3.2589   -2.3932   -0.0940 O   0  0  0  0  0  0  0  0  0  0  0  0
   -0.7965   -3.2563   -0.0312 O   0  0  0  0  0  0  0  0  0  0  0  0
    6.8675    0.9640    0.1045 O   0  0  0  0  0  0  0  0  0  0  0  0
   -1.3216   -0.9527   -0.0690 C   0  0  0  0  0  0  0  0  0  0  0  0
   -0.7911    0.3363   -0.0703 C   0  0  0  0  0  0  0  0  0  0  0  0
   -2.7045   -1.1475   -0.0965 C   0  0  0  0  0  0  0  0  0  0  0  0
    1.4289   -0.4922   -0.0228 C   0  0  0  0  0  0  0  0  0  0  0  0
   -0.4006   -2.0990   -0.0372 C   0  0  0  0  0  0  0  0  0  0  0  0
   -1.6429    1.4407   -0.0986 C   0  0  0  0  0  0  0  0  0  0  0  0
   -3.5541   -0.0410   -0.1254 C   0  0  0  0  0  0  0  0  0  0  0  0
   -3.0247    1.2504   -0.1264 C   0  0  0  0  0  0  0  0  0  0  0  0
    1.0406   -1.7773   -0.0124 C   0  0  0  0  0  0  0  0  0  0  0  0
    2.8551   -0.1107    0.0100 C   0  0  0  0  0  0  0  0  0  0  0  0
    3.5666    0.0511   -1.1812 C   0  0  0  0  0  0  0  0  0  0  0  0
    3.4989    0.0905    1.2334 C   0  0  0  0  0  0  0  0  0  0  0  0
    4.9137    0.4116   -1.1493 C   0  0  0  0  0  0  0  0  0  0  0  0
    4.8460    0.4512    1.2654 C   0  0  0  0  0  0  0  0  0  0  0  0
    5.5534    0.6118    0.0740 C   0  0  0  0  0  0  0  0  0  0  0  0
   -5.6522    0.3380    0.9283 C   0  0  0  0  0  0  0  0  0  0  0  0
   -3.2269    3.6198   -0.1526 C   0  0  0  0  0  0  0  0  0  0  0  0
   -1.1698    2.4170   -0.0976 H   0  0  0  0  0  0  0  0  0  0  0  0
    1.7444   -2.6018    0.0119 H   0  0  0  0  0  0  0  0  0  0  0  0
    3.0818   -0.1004   -2.1428 H   0  0  0  0  0  0  0  0  0  0  0  0
    2.9609   -0.0300    2.1708 H   0  0  0  0  0  0  0  0  0  0  0  0
    5.4594    0.5355   -2.0806 H   0  0  0  0  0  0  0  0  0  0  0  0
    5.3327    0.6044    2.2248 H   0  0  0  0  0  0  0  0  0  0  0  0
   -2.5711   -3.0756   -0.0735 H   0  0  0  0  0  0  0  0  0  0  0  0
   -5.0579    0.4170    1.8455 H   0  0  0  0  0  0  0  0  0  0  0  0
   -6.5000   -0.3240    1.1281 H   0  0  0  0  0  0  0  0  0  0  0  0
   -6.0483    1.3174    0.6454 H   0  0  0  0  0  0  0  0  0  0  0  0
   -2.6601    3.7938    0.7685 H   0  0  0  0  0  0  0  0  0  0  0  0
   -4.0290    4.3651   -0.1765 H   0  0  0  0  0  0  0  0  0  0  0  0
   -2.6215    3.7767   -1.0519 H   0  0  0  0  0  0  0  0  0  0  0  0
    7.1463    1.0607    1.0313 H   0  0  0  0  0  0  0  0  0  0  0  0
  1  8  1  0  0  0  0
  1 10  1  0  0  0  0
  2 13  1  0  0  0  0
  2 22  1  0  0  0  0
  3 14  1  0  0  0  0
  3 23  1  0  0  0  0
  4  9  1  0  0  0  0
  4 30  1  0  0  0  0
  5 11  2  0  0  0  0
  6 21  1  0  0  0  0
  6 37  1  0  0  0  0
  7  8  1  0  0  0  0
  7  9  2  0  0  0  0
  7 11  1  0  0  0  0
  8 12  2  0  0  0  0
  9 13  1  0  0  0  0
 10 15  2  0  0  0  0
 10 16  1  0  0  0  0
 11 15  1  0  0  0  0
 12 14  1  0  0  0  0
 12 24  1  0  0  0  0
 13 14  2  0  0  0  0
 15 25  1  0  0  0  0
 16 17  2  0  0  0  0
 16 18  1  0  0  0  0
 17 19  1  0  0  0  0
 17 26  1  0  0  0  0
 18 20  2  0  0  0  0
 18 27  1  0  0  0  0
 19 21  2  0  0  0  0
 19 28  1  0  0  0  0
 20 21  1  0  0  0  0
 20 29  1  0  0  0  0
 22 31  1  0  0  0  0
 22 32  1  0  0  0  0
 22 33  1  0  0  0  0
 23 34  1  0  0  0  0
 23 35  1  0  0  0  0
 23 36  1  0  0  0  0
M  END
> <PUBCHEM_COMPOUND_CID>
188323

> <PUBCHEM_CONFORMER_RMSD>
0.6

> <PUBCHEM_CONFORMER_DIVERSEORDER>
5
2
3
4
1

> <PUBCHEM_MMFF94_PARTIAL_CHARGES>
31
1 -0.16
10 0.05
11 0.47
12 -0.15
13 0.08
14 0.08
15 -0.14
16 0.03
17 -0.15
18 -0.15
19 -0.15
2 -0.36
20 -0.15
21 0.08
22 0.28
23 0.28
24 0.15
25 0.15
26 0.15
27 0.15
28 0.15
29 0.15
3 -0.36
30 0.45
37 0.45
4 -0.53
5 -0.57
6 -0.53
7 0.09
8 0.08
9 0.08

> <PUBCHEM_EFFECTIVE_ROTOR_COUNT>
3

> <PUBCHEM_PHARMACOPHORE_FEATURES>
9
1 1 acceptor
1 2 acceptor
1 3 acceptor
1 4 donor
1 5 acceptor
1 6 donor
6 1 7 8 10 11 15 rings
6 16 17 18 19 20 21 rings
6 7 8 9 12 13 14 rings

> <PUBCHEM_HEAVY_ATOM_COUNT>
23

> <PUBCHEM_ATOM_DEF_STEREO_COUNT>
0

> <PUBCHEM_ATOM_UDEF_STEREO_COUNT>
0

> <PUBCHEM_BOND_DEF_STEREO_COUNT>
0

> <PUBCHEM_BOND_UDEF_STEREO_COUNT>
0

> <PUBCHEM_ISOTOPIC_ATOM_COUNT>
0

> <PUBCHEM_COMPONENT_COUNT>
1

> <PUBCHEM_CACTVS_TAUTO_COUNT>
21

> <PUBCHEM_CONFORMER_ID>
0002DFA300000005

> <PUBCHEM_MMFF94_ENERGY>
91.0679

> <PUBCHEM_FEATURE_SELFOVERLAP>
45.702

> <PUBCHEM_SHAPE_FINGERPRINT>
10319926 262 18263383434053611042
10411042 1 17834395618775679823
10498660 4 18335421330564897328
10670039 82 18271232937289391372
12107183 9 17839475719183012682
12173636 292 18410298042240551631
12236239 1 17775008947518000850
12390115 104 18188761881409666433
12403259 118 17775001331665883324
12403259 415 18263357139403961604
12403814 3 17489875937822230381
12596602 18 17132114632373690913
12788726 201 17484783940962058906
12838862 33 18339377318168193845
12916748 109 18411695495802216316
12969540 114 17167872975375664180
13140716 1 18268707204624687763
13540713 4 18053371383020016383
14251764 75 17829883592612392161
14508225 48 17901402099576854327
15042514 8 18268707208709444331
15196674 1 18339080513603643831
15483637 11 11637438855074742884
20510252 161 18261673787566242241
20645477 56 18260829284725227522
20645477 70 16660351620099629582
21033648 29 17604441700079391112
21033650 10 18197191807142513148
21279426 13 18189331454402631102
22122407 14 15985097535315068285
22224240 67 18408879634366736731
23366157 5 17842273962937788539
23402539 116 18336552616212822014
23557571 272 18261383477388285572
23559900 14 18260543472686142494
283562 15 18409731790200805113
2916195 48 18259992561273090984
34797466 226 17968648342479879276
350125 39 18411698777374131897
3545911 37 18334010601575032260
469060 322 18339059572018927225
495365 180 17385450938373089782
5104073 3 18197774612544796761
5486654 2 18409730656134448407
7064713 232 18271243923546884284
7808743 9 18411421738929638240
9981440 41 18271522087135412955

> <PUBCHEM_SHAPE_MULTIPOLES>
438.11
12.86
2.67
0.91
10.67
0.23
0.08
5.77
1.24
-3.74
-0.19
0.92
0.1
0.12

> <PUBCHEM_SHAPE_SELFOVERLAP>
968.184

> <PUBCHEM_SHAPE_VOLUME>
235

> <PUBCHEM_COORDINATE_TYPE>
2
5
10

$$$$

