5462436
  -OEChem-07051212572D

 37 40  0     1  0  0  0  0  0999 V2000
    4.4215    2.2061    0.0000 O   0  0  0  0  0  0  0  0  0  0  0  0
    2.2851   -1.3724    0.0000 O   0  0  0  0  0  0  0  0  0  0  0  0
    6.1747    1.2114    0.0000 O   0  0  0  0  0  0  0  0  0  0  0  0
    2.7787   -3.0612    0.0000 O   0  0  0  0  0  0  0  0  0  0  0  0
    4.4147    0.9327    0.0000 C   0  0  1  0  0  0  0  0  0  0  0  0
    3.6056    1.5205    0.0000 C   0  0  1  0  0  0  0  0  0  0  0  0
    3.9147    2.4715    0.0000 C   0  0  1  0  0  0  0  0  0  0  0  0
    2.6620    1.2532    0.0000 C   0  0  1  0  0  0  0  0  0  0  0  0
    4.4521   -0.0474    0.0000 C   0  0  0  0  0  0  0  0  0  0  0  0
    4.6687    1.4453    0.0000 C   0  0  0  0  0  0  0  0  0  0  0  0
    4.9147    2.4715    0.0000 C   0  0  0  0  0  0  0  0  0  0  0  0
    5.2237    1.5205    0.0000 C   0  0  0  0  0  0  0  0  0  0  0  0
    3.7109   -0.6897    0.0000 C   0  0  1  0  0  0  0  0  0  0  0  0
    2.2802    0.3498    0.0000 C   0  0  0  0  0  0  0  0  0  0  0  0
    2.7461   -0.5133    0.0000 C   0  0  1  0  0  0  0  0  0  0  0  0
    2.0000    2.0027    0.0000 C   0  0  0  0  0  0  0  0  0  0  0  0
    3.8379   -1.6564    0.0000 C   0  0  0  0  0  0  0  0  0  0  0  0
    2.9586   -2.0775    0.0000 C   0  0  0  0  0  0  0  0  0  0  0  0
    4.7171   -2.1330    0.0000 C   0  0  0  0  0  0  0  0  0  0  0  0
    2.9180    2.0201    0.0000 H   0  0  0  0  0  0  0  0  0  0  0  0
    3.6520    3.2799    0.0000 H   0  0  0  0  0  0  0  0  0  0  0  0
    2.0501    1.1533    0.0000 H   0  0  0  0  0  0  0  0  0  0  0  0
    4.7432   -0.5948    0.0000 H   0  0  0  0  0  0  0  0  0  0  0  0
    5.0507    0.1140    0.0000 H   0  0  0  0  0  0  0  0  0  0  0  0
    5.1325    1.0338    0.0000 H   0  0  0  0  0  0  0  0  0  0  0  0
    5.1874    1.7849    0.0000 H   0  0  0  0  0  0  0  0  0  0  0  0
    5.5211    2.6004    0.0000 H   0  0  0  0  0  0  0  0  0  0  0  0
    4.8499    3.0881    0.0000 H   0  0  0  0  0  0  0  0  0  0  0  0
    4.5055   -0.9916    0.0000 H   0  0  0  0  0  0  0  0  0  0  0  0
    1.7774    0.7126    0.0000 H   0  0  0  0  0  0  0  0  0  0  0  0
    1.8142   -0.0592    0.0000 H   0  0  0  0  0  0  0  0  0  0  0  0
    1.8961   -0.5144    0.0000 H   0  0  0  0  0  0  0  0  0  0  0  0
    2.4647    2.4131    0.0000 H   0  0  0  0  0  0  0  0  0  0  0  0
    1.5896    2.4674    0.0000 H   0  0  0  0  0  0  0  0  0  0  0  0
    1.5353    1.5923    0.0000 H   0  0  0  0  0  0  0  0  0  0  0  0
    4.7337   -2.7527    0.0000 H   0  0  0  0  0  0  0  0  0  0  0  0
    5.2455   -1.8087    0.0000 H   0  0  0  0  0  0  0  0  0  0  0  0
  1  7  1  0  0  0  0
  1 10  1  0  0  0  0
  2 15  1  0  0  0  0
  2 18  1  0  0  0  0
  3 12  2  0  0  0  0
  4 18  2  0  0  0  0
  5  6  1  0  0  0  0
  5  9  1  6  0  0  0
  5 10  1  0  0  0  0
  5 12  1  0  0  0  0
  6  7  1  0  0  0  0
  6  8  1  0  0  0  0
  6 20  1  1  0  0  0
  7 11  1  0  0  0  0
  7 21  1  6  0  0  0
  8 14  1  0  0  0  0
  8 16  1  1  0  0  0
  8 22  1  0  0  0  0
  9 13  1  0  0  0  0
  9 23  1  0  0  0  0
  9 24  1  0  0  0  0
 10 25  1  0  0  0  0
 10 26  1  0  0  0  0
 11 12  1  0  0  0  0
 11 27  1  0  0  0  0
 11 28  1  0  0  0  0
 13 15  1  0  0  0  0
 13 17  1  0  0  0  0
 13 29  1  1  0  0  0
 14 15  1  0  0  0  0
 14 30  1  0  0  0  0
 14 31  1  0  0  0  0
 15 32  1  1  0  0  0
 16 33  1  0  0  0  0
 16 34  1  0  0  0  0
 16 35  1  0  0  0  0
 17 18  1  0  0  0  0
 17 19  2  0  0  0  0
 19 36  1  0  0  0  0
 19 37  1  0  0  0  0
M  END
> <PUBCHEM_COMPOUND_CID>
5462436

> <PUBCHEM_COMPOUND_CANONICALIZED>
1

> <PUBCHEM_CACTVS_COMPLEXITY>
496

> <PUBCHEM_CACTVS_HBOND_ACCEPTOR>
4

> <PUBCHEM_CACTVS_HBOND_DONOR>
0

> <PUBCHEM_CACTVS_ROTATABLE_BOND>
0

> <PUBCHEM_CACTVS_SUBSKEYS>
AAADceBwOAAAAAAAAAAAAAAAAAAAAaJEAAAkAAAABgAAAADQAAAAGgAAAAAADxSggAICCAAABACIAoDSCAAAAAAgAAAAAAEAAEgABBYAIQACAAAE4AAAIIGK7PzPgAAAAAAAAAAAAAAAAAAAAIAADAAAAA==

> <PUBCHEM_IUPAC_INCHI>
InChI=1S/C15H18O4/c1-7-3-10-9(8(2)14(17)19-10)5-15-6-18-11(13(7)15)4-12(15)16/h7,9-11,13H,2-6H2,1H3/t7-,9-,10-,11-,13-,15+/m1/s1

> <PUBCHEM_IUPAC_INCHIKEY>
UAYKGHBWLFRCCG-CBPBZNKLSA-N

> <PUBCHEM_XLOGP3_AA>
1.2

> <PUBCHEM_EXACT_MASS>
262.120509

> <PUBCHEM_MOLECULAR_FORMULA>
C15H18O4

> <PUBCHEM_MOLECULAR_WEIGHT>
262.30102

> <PUBCHEM_OPENEYE_CAN_SMILES>
CC1CC2C(CC34C1C(CC3=O)OC4)C(=C)C(=O)O2

> <PUBCHEM_OPENEYE_ISO_SMILES>
C[C@@H]1C[C@@H]2[C@H](C[C@@]34[C@H]1[C@@H](CC3=O)OC4)C(=C)C(=O)O2

> <PUBCHEM_CACTVS_TPSA>
52.6

> <PUBCHEM_MONOISOTOPIC_WEIGHT>
262.120509

> <PUBCHEM_TOTAL_CHARGE>
0

> <PUBCHEM_HEAVY_ATOM_COUNT>
19

> <PUBCHEM_ATOM_DEF_STEREO_COUNT>
6

> <PUBCHEM_ATOM_UDEF_STEREO_COUNT>
0

> <PUBCHEM_BOND_DEF_STEREO_COUNT>
0

> <PUBCHEM_BOND_UDEF_STEREO_COUNT>
0

> <PUBCHEM_ISOTOPIC_ATOM_COUNT>
0

> <PUBCHEM_COMPONENT_COUNT>
1

> <PUBCHEM_CACTVS_TAUTO_COUNT>
2

> <PUBCHEM_COORDINATE_TYPE>
1
5
255

> <PUBCHEM_BONDANNOTATIONS>
13  29  5
15  32  5
5  9  6
6  20  5
7  21  6
8  16  5

$$$$

