11711
  -OEChem-06261206012D

 10  9  0     0  0  0  0  0  0999 V2000
    2.8660    0.2500    0.0000 As  0  0  0  0  0  0  0  0  0  0  0  0
    2.0000    0.7500    0.0000 Cl  0  0  0  0  0  0  0  0  0  0  0  0
    2.8660   -0.7500    0.0000 Cl  0  0  0  0  0  0  0  0  0  0  0  0
    3.7320    0.7500    0.0000 C   0  0  0  0  0  0  0  0  0  0  0  0
    4.5981    0.2500    0.0000 C   0  0  0  0  0  0  0  0  0  0  0  0
    4.1306    1.2250    0.0000 H   0  0  0  0  0  0  0  0  0  0  0  0
    3.3335    1.2250    0.0000 H   0  0  0  0  0  0  0  0  0  0  0  0
    4.2881   -0.2869    0.0000 H   0  0  0  0  0  0  0  0  0  0  0  0
    5.1350   -0.0600    0.0000 H   0  0  0  0  0  0  0  0  0  0  0  0
    4.9081    0.7869    0.0000 H   0  0  0  0  0  0  0  0  0  0  0  0
  1  2  1  0  0  0  0
  1  3  1  0  0  0  0
  1  4  1  0  0  0  0
  4  5  1  0  0  0  0
  4  6  1  0  0  0  0
  4  7  1  0  0  0  0
  5  8  1  0  0  0  0
  5  9  1  0  0  0  0
  5 10  1  0  0  0  0
M  END
> <PUBCHEM_COMPOUND_CID>
11711

> <PUBCHEM_COMPOUND_CANONICALIZED>
1

> <PUBCHEM_CACTVS_COMPLEXITY>
21.6

> <PUBCHEM_CACTVS_HBOND_ACCEPTOR>
0

> <PUBCHEM_CACTVS_HBOND_DONOR>
0

> <PUBCHEM_CACTVS_ROTATABLE_BOND>
0

> <PUBCHEM_CACTVS_SUBSKEYS>
AAADcYBAAAAGAAAAQAAAAAAAAAAAAAAAAAAAAAAAAAAAAAAAAAAAGAEAAAAAAACAAAACAAAAAAAAAAAAAAAAAAAAAAAAAAAAAAAAAAAAAAAAAAAAAAAAAAAAAAAAAAAAAAAAAAAAAAAAAAAAAAAAAAAAAA==

> <PUBCHEM_IUPAC_OPENEYE_NAME>
dichloro(ethyl)arsane

> <PUBCHEM_IUPAC_CAS_NAME>
dichloro(ethyl)arsine

> <PUBCHEM_IUPAC_NAME>
dichloro(ethyl)arsane

> <PUBCHEM_IUPAC_SYSTEMATIC_NAME>
bis(chloranyl)-ethyl-arsane

> <PUBCHEM_IUPAC_TRADITIONAL_NAME>
dichloro(ethyl)arsine

> <PUBCHEM_IUPAC_INCHI>
InChI=1S/C2H5AsCl2/c1-2-3(4)5/h2H2,1H3

> <PUBCHEM_IUPAC_INCHIKEY>
LQSFEOMOHFPNEB-UHFFFAOYSA-N

> <PUBCHEM_EXACT_MASS>
173.898427

> <PUBCHEM_MOLECULAR_FORMULA>
C2H5AsCl2

> <PUBCHEM_MOLECULAR_WEIGHT>
174.8887

> <PUBCHEM_OPENEYE_CAN_SMILES>
CC[As](Cl)Cl

> <PUBCHEM_OPENEYE_ISO_SMILES>
CC[As](Cl)Cl

> <PUBCHEM_CACTVS_TPSA>
0

> <PUBCHEM_MONOISOTOPIC_WEIGHT>
173.898427

> <PUBCHEM_TOTAL_CHARGE>
0

> <PUBCHEM_HEAVY_ATOM_COUNT>
5

> <PUBCHEM_ATOM_DEF_STEREO_COUNT>
0

> <PUBCHEM_ATOM_UDEF_STEREO_COUNT>
0

> <PUBCHEM_BOND_DEF_STEREO_COUNT>
0

> <PUBCHEM_BOND_UDEF_STEREO_COUNT>
0

> <PUBCHEM_ISOTOPIC_ATOM_COUNT>
0

> <PUBCHEM_COMPONENT_COUNT>
1

> <PUBCHEM_CACTVS_TAUTO_COUNT>
1

> <PUBCHEM_COORDINATE_TYPE>
1
5
255

$$$$

