6440935
  -OEChem-07051213103D

 43 42  0     0  0  0  0  0  0999 V2000
    3.4970   -1.7701   -0.2024 O   0  0  0  0  0  0  0  0  0  0  0  0
    3.4173    0.5316   -0.4986 N   0  0  0  0  0  0  0  0  0  0  0  0
    5.6302    1.5924   -0.1864 C   0  0  0  0  0  0  0  0  0  0  0  0
    4.7485    0.6743   -1.0404 C   0  0  0  0  0  0  0  0  0  0  0  0
    5.0594    3.0101   -0.1078 C   0  0  0  0  0  0  0  0  0  0  0  0
    5.7826    1.0127    1.2204 C   0  0  0  0  0  0  0  0  0  0  0  0
    2.9050   -0.6986   -0.1230 C   0  0  0  0  0  0  0  0  0  0  0  0
   -0.5403   -1.6395    1.3652 C   0  0  0  0  0  0  0  0  0  0  0  0
   -1.5189   -2.5013    0.5597 C   0  0  0  0  0  0  0  0  0  0  0  0
    1.5188   -0.5841    0.4065 C   0  0  0  0  0  0  0  0  0  0  0  0
    0.8594   -1.6769    0.8152 C   0  0  0  0  0  0  0  0  0  0  0  0
   -1.6710   -2.0412   -0.8637 C   0  0  0  0  0  0  0  0  0  0  0  0
   -2.5887   -1.1463   -1.2609 C   0  0  0  0  0  0  0  0  0  0  0  0
   -3.5306   -0.5304   -0.3515 C   0  0  0  0  0  0  0  0  0  0  0  0
   -4.4817    0.3704   -0.6467 C   0  0  0  0  0  0  0  0  0  0  0  0
   -5.4239    0.9867    0.2626 C   0  0  0  0  0  0  0  0  0  0  0  0
   -6.3413    1.8814   -0.1352 C   0  0  0  0  0  0  0  0  0  0  0  0
   -7.3218    2.5288    0.7871 C   0  0  0  0  0  0  0  0  0  0  0  0
    6.6215    1.6447   -0.6533 H   0  0  0  0  0  0  0  0  0  0  0  0
    5.2224   -0.3074   -1.1489 H   0  0  0  0  0  0  0  0  0  0  0  0
    4.6360    1.0937   -2.0464 H   0  0  0  0  0  0  0  0  0  0  0  0
    5.7538    3.6711    0.4222 H   0  0  0  0  0  0  0  0  0  0  0  0
    4.9066    3.4238   -1.1101 H   0  0  0  0  0  0  0  0  0  0  0  0
    4.1037    3.0421    0.4252 H   0  0  0  0  0  0  0  0  0  0  0  0
    4.8336    0.9980    1.7668 H   0  0  0  0  0  0  0  0  0  0  0  0
    6.1704   -0.0108    1.1811 H   0  0  0  0  0  0  0  0  0  0  0  0
    6.4894    1.6120    1.8047 H   0  0  0  0  0  0  0  0  0  0  0  0
    2.8341    1.3614   -0.4423 H   0  0  0  0  0  0  0  0  0  0  0  0
   -0.5073   -2.0176    2.3943 H   0  0  0  0  0  0  0  0  0  0  0  0
   -0.9102   -0.6085    1.4255 H   0  0  0  0  0  0  0  0  0  0  0  0
   -2.4774   -2.5745    1.0835 H   0  0  0  0  0  0  0  0  0  0  0  0
   -1.1488   -3.5355    0.5309 H   0  0  0  0  0  0  0  0  0  0  0  0
    1.0562    0.3962    0.4508 H   0  0  0  0  0  0  0  0  0  0  0  0
    1.3321   -2.6550    0.7733 H   0  0  0  0  0  0  0  0  0  0  0  0
   -0.9886   -2.4545   -1.6020 H   0  0  0  0  0  0  0  0  0  0  0  0
   -2.6353   -0.8604   -2.3077 H   0  0  0  0  0  0  0  0  0  0  0  0
   -3.4644   -0.8049    0.6978 H   0  0  0  0  0  0  0  0  0  0  0  0
   -4.5725    0.6802   -1.6879 H   0  0  0  0  0  0  0  0  0  0  0  0
   -5.3658    0.6964    1.3081 H   0  0  0  0  0  0  0  0  0  0  0  0
   -6.4013    2.1738   -1.1809 H   0  0  0  0  0  0  0  0  0  0  0  0
   -7.1904    3.6149    0.7675 H   0  0  0  0  0  0  0  0  0  0  0  0
   -7.2053    2.1896    1.8213 H   0  0  0  0  0  0  0  0  0  0  0  0
   -8.3424    2.2998    0.4658 H   0  0  0  0  0  0  0  0  0  0  0  0
  1  7  2  0  0  0  0
  2  4  1  0  0  0  0
  2  7  1  0  0  0  0
  2 28  1  0  0  0  0
  3  4  1  0  0  0  0
  3  5  1  0  0  0  0
  3  6  1  0  0  0  0
  3 19  1  0  0  0  0
  4 20  1  0  0  0  0
  4 21  1  0  0  0  0
  5 22  1  0  0  0  0
  5 23  1  0  0  0  0
  5 24  1  0  0  0  0
  6 25  1  0  0  0  0
  6 26  1  0  0  0  0
  6 27  1  0  0  0  0
  7 10  1  0  0  0  0
  8  9  1  0  0  0  0
  8 11  1  0  0  0  0
  8 29  1  0  0  0  0
  8 30  1  0  0  0  0
  9 12  1  0  0  0  0
  9 31  1  0  0  0  0
  9 32  1  0  0  0  0
 10 11  2  0  0  0  0
 10 33  1  0  0  0  0
 11 34  1  0  0  0  0
 12 13  2  0  0  0  0
 12 35  1  0  0  0  0
 13 14  1  0  0  0  0
 13 36  1  0  0  0  0
 14 15  2  0  0  0  0
 14 37  1  0  0  0  0
 15 16  1  0  0  0  0
 15 38  1  0  0  0  0
 16 17  2  0  0  0  0
 16 39  1  0  0  0  0
 17 18  1  0  0  0  0
 17 40  1  0  0  0  0
 18 41  1  0  0  0  0
 18 42  1  0  0  0  0
 18 43  1  0  0  0  0
M  END
> <PUBCHEM_COMPOUND_CID>
6440935

> <PUBCHEM_CONFORMER_RMSD>
0.8

> <PUBCHEM_CONFORMER_DIVERSEORDER>
1
337
28
218
249
299
203
87
81
52
242
321
103
326
157
100
12
202
434
11
63
119
125
160
452
40
356
75
444
280
8
302
155
80
126
331
142
19
92
225
113
129
216
99
6
116
2
156
30
33
199
73
152
248
456
246
409
250
137
131
32
59
194
62
211
55
369
327
96
64
173
190
385
342
450
440
294
140
451
95
368
77
67
422
253
179
301
84
271
407
74
124
112
185
230
435
182
46
285
136
275
348
417
198
145
153
411
93
221
400
3
297
291
48
318
16
66
76
171
378
165
457
45
186
278
158
85
35
163
148
56
38
381
139
176
151
118
260
254
391
26
187
108
181
135
345
455
10
220
107
349
210
60
89
258
162
183
130
251
212
341
231
209
54
292
43
15
170
88
61
115
424
27
310
102
235
98
138
111
429
252
458
25
224
234
109
44
289
454
286
94
448
284
403
17
354
78
172
189
150
14
42
240
328
303
377
316
31
281
47
296
132
174
315
188
338
268
379
20
436
239
29
228
169
101
384
5
241
453
360
146
68
305
255
167
375
159
333
83
386
91
117
426
432
204
256
232
244
414
311
205
166
312
49
222
300
133
175
214
363
308
387
90
293
264
23
143
353
200
147
208
427
217
58
192
423
343
295
265
320
193
114
161
37
134
404
53
438
213
290
324
36
72
178
388
313
22
110
184
233
82
277
340
362
238
266
71
144
420
370
65
415
288
168
274
408
412
376
390
7
358
207
439
371
79
366
51
330
106
105
270
122
336
149
351
346
104
128
201
121
298
215
364
50
405
306
416
245
191
120
18
236
283
21
317
347
304
393
177
261
425
219
164
13
86
196
355
41
229
180
430
279
418
39
325
449
195
259
276
361
431
406
127
223
154
272
401
243
383
226
24
350
329
323
447
69
392
359
273
319
97
382
437
206
397
197
227
428
9
367
70
389
396
344
413
57
269
267
332
263
398
257
443
335
314
4
374
380
287
445
446
309
419
34
433
262
441
141
442
373
399
410
334
282
357
322
372
365
402
237
339
352
395
421
123
247
307
394

> <PUBCHEM_MMFF94_PARTIAL_CHARGES>
24
1 -0.57
10 -0.14
11 -0.29
12 -0.29
13 -0.15
14 -0.15
15 -0.15
16 -0.15
17 -0.29
18 0.14
2 -0.73
28 0.37
33 0.15
34 0.15
35 0.15
36 0.15
37 0.15
38 0.15
39 0.15
4 0.3
40 0.15
7 0.62
8 0.14
9 0.14

> <PUBCHEM_EFFECTIVE_ROTOR_COUNT>
9

> <PUBCHEM_PHARMACOPHORE_FEATURES>
5
1 1 acceptor
1 18 hydrophobe
1 2 donor
3 3 5 6 hydrophobe
4 8 9 11 12 hydrophobe

> <PUBCHEM_HEAVY_ATOM_COUNT>
18

> <PUBCHEM_ATOM_DEF_STEREO_COUNT>
0

> <PUBCHEM_ATOM_UDEF_STEREO_COUNT>
0

> <PUBCHEM_BOND_DEF_STEREO_COUNT>
4

> <PUBCHEM_BOND_UDEF_STEREO_COUNT>
0

> <PUBCHEM_ISOTOPIC_ATOM_COUNT>
0

> <PUBCHEM_COMPONENT_COUNT>
1

> <PUBCHEM_CACTVS_TAUTO_COUNT>
2

> <PUBCHEM_CONFORMER_ID>
006247E700000001

> <PUBCHEM_MMFF94_ENERGY>
16.509

> <PUBCHEM_FEATURE_SELFOVERLAP>
25.371

> <PUBCHEM_SHAPE_FINGERPRINT>
11069576 57 15069165918337245956
11823591 26 18341341062988592431
12895836 83 18040721351012663223
12895837 130 18191586350408052756
13885169 86 18411693284300864433
13955234 65 17701543037566913123
14123256 34 8790883008262284189
1420 369 8790885185599433855
14251764 75 18411981355924770403
15188451 53 10879993549657381131
1768 23 17417233348080567724
17959699 21 18337391539690371440
18222031 100 6988320538709503210
20526848 3 18408884062188010985
20621476 66 18410292510174759984
21401589 2 17847064354969253995
21585480 29 12677740071833382256
22224240 67 17632855352768927747
23389318 12 7132430242729054216
270888 7 18410294718194262021
2748736 6 18411990143496884653
2838139 119 18410017610830000436
2916195 48 18342739572416016603
3472631 163 18335138691778124261
3680242 22 17775575221507395924
5104073 3 17846504707566492258
5718773 13 9295285028461731453
6712543 237 15195286448027284865
76465 3 9007053570025831399
77188 2 9367052364463281543
7808743 9 18410580578527754131
7970288 3 9007051362328368621

> <PUBCHEM_SHAPE_MULTIPOLES>
359.58
18.35
3.18
1.15
9.6
0.85
-0.08
21.36
-1.07
0.92
-0.43
-0.1
-0.24
-1.07

> <PUBCHEM_SHAPE_SELFOVERLAP>
682.221

> <PUBCHEM_SHAPE_VOLUME>
220.7

> <PUBCHEM_COORDINATE_TYPE>
2
5
10

$$$$

