443015
  -OEChem-07051213003D

 75 79  0     1  0  0  0  0  0999 V2000
    1.7692   -0.5506    0.4847 O   0  0  0  0  0  0  0  0  0  0  0  0
    1.5155   -3.7788   -0.2408 O   0  0  0  0  0  0  0  0  0  0  0  0
    3.9622   -0.6251   -0.3086 O   0  0  0  0  0  0  0  0  0  0  0  0
    2.4124    1.7635    1.9811 O   0  0  0  0  0  0  0  0  0  0  0  0
    5.2697    1.8534    2.6938 O   0  0  0  0  0  0  0  0  0  0  0  0
    6.9110    1.4449    0.3495 O   0  0  0  0  0  0  0  0  0  0  0  0
    1.3748   -3.1008   -2.4251 O   0  0  0  0  0  0  0  0  0  0  0  0
    5.4949   -1.3842   -2.4605 O   0  0  0  0  0  0  0  0  0  0  0  0
   -5.1553   -0.6738   -1.2881 O   0  0  0  0  0  0  0  0  0  0  0  0
   -1.7224    2.9045   -2.8665 O   0  0  0  0  0  0  0  0  0  0  0  0
   -1.7667    2.6232    1.9146 O   0  0  0  0  0  0  0  0  0  0  0  0
   -6.0905   -0.1713    0.8754 O   0  0  0  0  0  0  0  0  0  0  0  0
   -2.6112    3.8515   -0.4196 O   0  0  0  0  0  0  0  0  0  0  0  0
    0.1659   -1.8994   -0.6933 C   0  0  1  0  0  0  0  0  0  0  0  0
   -0.1701   -2.4421    0.6917 C   0  0  2  0  0  0  0  0  0  0  0  0
    0.9146   -0.5747   -0.6480 C   0  0  1  0  0  0  0  0  0  0  0  0
    1.0469   -3.2847    1.0186 C   0  0  0  0  0  0  0  0  0  0  0  0
    2.9457    0.2165    0.2307 C   0  0  2  0  0  0  0  0  0  0  0  0
   -1.4377   -3.3005    0.6582 C   0  0  0  0  0  0  0  0  0  0  0  0
    3.4032    0.8287    1.5545 C   0  0  1  0  0  0  0  0  0  0  0  0
    4.7448    1.5457    1.4014 C   0  0  2  0  0  0  0  0  0  0  0  0
    5.7624    0.6663    0.6747 C   0  0  1  0  0  0  0  0  0  0  0  0
    1.0648   -2.9740   -1.2501 C   0  0  0  0  0  0  0  0  0  0  0  0
    5.1624    0.0891   -0.6095 C   0  0  1  0  0  0  0  0  0  0  0  0
   -0.0253    0.6058   -0.5872 C   0  0  0  0  0  0  0  0  0  0  0  0
   -2.6869   -2.4629    0.7537 C   0  0  0  0  0  0  0  0  0  0  0  0
    6.1183   -0.8846   -1.2915 C   0  0  0  0  0  0  0  0  0  0  0  0
   -0.4707    1.0799    0.6467 C   0  0  0  0  0  0  0  0  0  0  0  0
   -0.4484    1.2218   -1.7649 C   0  0  0  0  0  0  0  0  0  0  0  0
   -3.2924   -1.9853   -0.4110 C   0  0  0  0  0  0  0  0  0  0  0  0
   -3.2326   -2.1696    2.0159 C   0  0  0  0  0  0  0  0  0  0  0  0
   -1.3168    2.3121   -1.7087 C   0  0  0  0  0  0  0  0  0  0  0  0
   -1.3390    2.1700    0.7030 C   0  0  0  0  0  0  0  0  0  0  0  0
   -1.7619    2.7861   -0.4748 C   0  0  0  0  0  0  0  0  0  0  0  0
   -4.4341   -1.2228   -0.2729 C   0  0  0  0  0  0  0  0  0  0  0  0
   -4.3899   -1.3952    2.1279 C   0  0  0  0  0  0  0  0  0  0  0  0
   -4.9680   -0.9358    0.9625 C   0  0  0  0  0  0  0  0  0  0  0  0
   -6.2036   -0.0097   -0.5532 C   0  0  0  0  0  0  0  0  0  0  0  0
   -1.2206    2.3580   -4.0845 C   0  0  0  0  0  0  0  0  0  0  0  0
   -1.2868    1.9372    3.0691 C   0  0  0  0  0  0  0  0  0  0  0  0
   -4.0079    3.5676   -0.4488 C   0  0  0  0  0  0  0  0  0  0  0  0
   -0.7025   -1.8356   -1.3535 H   0  0  0  0  0  0  0  0  0  0  0  0
   -0.2989   -1.6737    1.4597 H   0  0  0  0  0  0  0  0  0  0  0  0
    1.5200   -0.4931   -1.5630 H   0  0  0  0  0  0  0  0  0  0  0  0
    0.8156   -4.1350    1.6678 H   0  0  0  0  0  0  0  0  0  0  0  0
    1.8566   -2.7236    1.4942 H   0  0  0  0  0  0  0  0  0  0  0  0
    2.7256    1.0263   -0.4798 H   0  0  0  0  0  0  0  0  0  0  0  0
   -1.4406   -4.0033    1.5022 H   0  0  0  0  0  0  0  0  0  0  0  0
   -1.4786   -3.9315   -0.2395 H   0  0  0  0  0  0  0  0  0  0  0  0
    3.4656    0.0578    2.3316 H   0  0  0  0  0  0  0  0  0  0  0  0
    4.6194    2.5055    0.8866 H   0  0  0  0  0  0  0  0  0  0  0  0
    6.0923   -0.1416    1.3392 H   0  0  0  0  0  0  0  0  0  0  0  0
    4.9231    0.8865   -1.3264 H   0  0  0  0  0  0  0  0  0  0  0  0
    6.3367   -1.7373   -0.6400 H   0  0  0  0  0  0  0  0  0  0  0  0
    7.0555   -0.3959   -1.5744 H   0  0  0  0  0  0  0  0  0  0  0  0
   -0.1235    0.5715    1.5373 H   0  0  0  0  0  0  0  0  0  0  0  0
   -0.0720    0.8074   -2.6940 H   0  0  0  0  0  0  0  0  0  0  0  0
    2.3373    2.4552    1.3018 H   0  0  0  0  0  0  0  0  0  0  0  0
    5.3755    1.0200    3.1836 H   0  0  0  0  0  0  0  0  0  0  0  0
    6.6312    2.1568   -0.2510 H   0  0  0  0  0  0  0  0  0  0  0  0
   -2.9011   -2.2131   -1.3959 H   0  0  0  0  0  0  0  0  0  0  0  0
   -2.7558   -2.5407    2.9199 H   0  0  0  0  0  0  0  0  0  0  0  0
   -4.8127   -1.1654    3.0992 H   0  0  0  0  0  0  0  0  0  0  0  0
    6.1182   -2.0045   -2.8756 H   0  0  0  0  0  0  0  0  0  0  0  0
   -6.1738    1.0603   -0.7889 H   0  0  0  0  0  0  0  0  0  0  0  0
   -7.1694   -0.4144   -0.8768 H   0  0  0  0  0  0  0  0  0  0  0  0
   -1.6446    2.9508   -4.9018 H   0  0  0  0  0  0  0  0  0  0  0  0
   -1.5577    1.3265   -4.2333 H   0  0  0  0  0  0  0  0  0  0  0  0
   -0.1318    2.4563   -4.1533 H   0  0  0  0  0  0  0  0  0  0  0  0
   -1.7308    2.4280    3.9416 H   0  0  0  0  0  0  0  0  0  0  0  0
   -0.2009    2.0302    3.1733 H   0  0  0  0  0  0  0  0  0  0  0  0
   -1.6227    0.8947    3.0891 H   0  0  0  0  0  0  0  0  0  0  0  0
   -4.2795    3.0671   -1.3837 H   0  0  0  0  0  0  0  0  0  0  0  0
   -4.2933    2.9451    0.4054 H   0  0  0  0  0  0  0  0  0  0  0  0
   -4.5517    4.5142   -0.3885 H   0  0  0  0  0  0  0  0  0  0  0  0
  1 16  1  0  0  0  0
  1 18  1  0  0  0  0
  2 17  1  0  0  0  0
  2 23  1  0  0  0  0
  3 18  1  0  0  0  0
  3 24  1  0  0  0  0
  4 20  1  0  0  0  0
  4 58  1  0  0  0  0
  5 21  1  0  0  0  0
  5 59  1  0  0  0  0
  6 22  1  0  0  0  0
  6 60  1  0  0  0  0
  7 23  2  0  0  0  0
  8 27  1  0  0  0  0
  8 64  1  0  0  0  0
  9 35  1  0  0  0  0
  9 38  1  0  0  0  0
 10 32  1  0  0  0  0
 10 39  1  0  0  0  0
 11 33  1  0  0  0  0
 11 40  1  0  0  0  0
 12 37  1  0  0  0  0
 12 38  1  0  0  0  0
 13 34  1  0  0  0  0
 13 41  1  0  0  0  0
 14 15  1  0  0  0  0
 14 16  1  0  0  0  0
 14 23  1  0  0  0  0
 14 42  1  0  0  0  0
 15 17  1  0  0  0  0
 15 19  1  0  0  0  0
 15 43  1  0  0  0  0
 16 25  1  0  0  0  0
 16 44  1  0  0  0  0
 17 45  1  0  0  0  0
 17 46  1  0  0  0  0
 18 20  1  0  0  0  0
 18 47  1  0  0  0  0
 19 26  1  0  0  0  0
 19 48  1  0  0  0  0
 19 49  1  0  0  0  0
 20 21  1  0  0  0  0
 20 50  1  0  0  0  0
 21 22  1  0  0  0  0
 21 51  1  0  0  0  0
 22 24  1  0  0  0  0
 22 52  1  0  0  0  0
 24 27  1  0  0  0  0
 24 53  1  0  0  0  0
 25 28  2  0  0  0  0
 25 29  1  0  0  0  0
 26 30  2  0  0  0  0
 26 31  1  0  0  0  0
 27 54  1  0  0  0  0
 27 55  1  0  0  0  0
 28 33  1  0  0  0  0
 28 56  1  0  0  0  0
 29 32  2  0  0  0  0
 29 57  1  0  0  0  0
 30 35  1  0  0  0  0
 30 61  1  0  0  0  0
 31 36  2  0  0  0  0
 31 62  1  0  0  0  0
 32 34  1  0  0  0  0
 33 34  2  0  0  0  0
 35 37  2  0  0  0  0
 36 37  1  0  0  0  0
 36 63  1  0  0  0  0
 38 65  1  0  0  0  0
 38 66  1  0  0  0  0
 39 67  1  0  0  0  0
 39 68  1  0  0  0  0
 39 69  1  0  0  0  0
 40 70  1  0  0  0  0
 40 71  1  0  0  0  0
 40 72  1  0  0  0  0
 41 73  1  0  0  0  0
 41 74  1  0  0  0  0
 41 75  1  0  0  0  0
M  END
> <PUBCHEM_COMPOUND_CID>
443015

> <PUBCHEM_CONFORMER_RMSD>
1.2

> <PUBCHEM_CONFORMER_DIVERSEORDER>
1
29
22
33
34
26
15
12
25
8
20
13
21
28
23
4
16
24
11
32
5
6
14
18
3
17
10
19
31
27
7
9
2
30

> <PUBCHEM_MMFF94_PARTIAL_CHARGES>
49
1 -0.56
10 -0.36
11 -0.36
12 -0.36
13 -0.36
14 0.06
16 0.42
17 0.28
18 0.56
19 0.14
2 -0.43
20 0.28
21 0.28
22 0.28
23 0.66
24 0.28
25 -0.14
26 -0.14
27 0.28
28 -0.15
29 -0.15
3 -0.56
30 -0.15
31 -0.15
32 0.08
33 0.08
34 0.08
35 0.08
36 -0.15
37 0.08
38 0.56
39 0.28
4 -0.68
40 0.28
41 0.28
5 -0.68
56 0.15
57 0.15
58 0.4
59 0.4
6 -0.68
60 0.4
61 0.15
62 0.15
63 0.15
64 0.4
7 -0.57
8 -0.68
9 -0.36

> <PUBCHEM_EFFECTIVE_ROTOR_COUNT>
12.6

> <PUBCHEM_PHARMACOPHORE_FEATURES>
21
1 1 acceptor
1 10 acceptor
1 11 acceptor
1 12 acceptor
1 13 acceptor
1 3 acceptor
1 4 acceptor
1 4 donor
1 5 acceptor
1 5 donor
1 6 acceptor
1 6 donor
1 7 acceptor
1 8 acceptor
1 8 donor
1 9 acceptor
5 2 14 15 17 23 rings
5 9 12 35 37 38 rings
6 25 28 29 32 33 34 rings
6 26 30 31 35 36 37 rings
6 3 18 20 21 22 24 rings

> <PUBCHEM_HEAVY_ATOM_COUNT>
41

> <PUBCHEM_ATOM_DEF_STEREO_COUNT>
8

> <PUBCHEM_ATOM_UDEF_STEREO_COUNT>
0

> <PUBCHEM_BOND_DEF_STEREO_COUNT>
0

> <PUBCHEM_BOND_UDEF_STEREO_COUNT>
0

> <PUBCHEM_ISOTOPIC_ATOM_COUNT>
0

> <PUBCHEM_COMPONENT_COUNT>
1

> <PUBCHEM_CACTVS_TAUTO_COUNT>
2

> <PUBCHEM_CONFORMER_ID>
0006C28700000001

> <PUBCHEM_MMFF94_ENERGY>
140.4964

> <PUBCHEM_FEATURE_SELFOVERLAP>
106.789

> <PUBCHEM_SHAPE_FINGERPRINT>
10006869 2 18339093677694743691
10190108 129 18268127890440109075
10930396 42 17909301021038243136
11513181 2 17899687960463354734
11578080 2 18194959875626252769
12058002 1 15625652954899973618
12422481 6 18269839722443306060
12788726 201 17132124545247919232
140371 6 18200579346537988455
14955137 171 18054489336589216947
15131766 46 15938396733072777480
15361156 5 18191584152075438814
20600515 1 18193828245863252323
21033648 29 18117560626061206234
25223398 141 18201165433649025572
469060 322 17988913488208634309
5171179 24 18191024714509356462
7226269 152 18272371919149587459

> <PUBCHEM_SHAPE_MULTIPOLES>
767.46
12.73
4.71
2.8
10.36
0.07
-0.82
0.75
1.85
-3.21
-1.01
0.49
1.78
3.26

> <PUBCHEM_SHAPE_SELFOVERLAP>
1658.995

> <PUBCHEM_SHAPE_VOLUME>
420.2

> <PUBCHEM_COORDINATE_TYPE>
2
5
10

$$$$

