15284
  -OEChem-07051213052D

 73 74  0     1  0  0  0  0  0999 V2000
    5.4641    4.0000    0.0000 O   0  0  0  0  0  0  0  0  0  0  0  0
    5.4641   -4.0000    0.0000 O   0  0  0  0  0  0  0  0  0  0  0  0
    5.4641    6.0000    0.0000 O   0  0  0  0  0  0  0  0  0  0  0  0
    5.4641   -6.0000    0.0000 O   0  0  0  0  0  0  0  0  0  0  0  0
    7.1962    7.0000    0.0000 O   0  0  0  0  0  0  0  0  0  0  0  0
    3.7320   -7.0000    0.0000 O   0  0  0  0  0  0  0  0  0  0  0  0
    8.9282    7.0000    0.0000 O   0  0  0  0  0  0  0  0  0  0  0  0
    2.0000   -7.0000    0.0000 O   0  0  0  0  0  0  0  0  0  0  0  0
    5.4641    0.0000    0.0000 C   0  0  0  0  0  0  0  0  0  0  0  0
    5.4641   -1.0000    0.0000 C   0  0  0  0  0  0  0  0  0  0  0  0
    5.4641    1.0000    0.0000 C   0  0  0  0  0  0  0  0  0  0  0  0
    6.4641    0.0000    0.0000 C   0  0  0  0  0  0  0  0  0  0  0  0
    4.4641    0.0000    0.0000 C   0  0  0  0  0  0  0  0  0  0  0  0
    6.3301    1.5000    0.0000 C   0  0  0  0  0  0  0  0  0  0  0  0
    4.5981   -1.5000    0.0000 C   0  0  0  0  0  0  0  0  0  0  0  0
    4.5981    1.5000    0.0000 C   0  0  0  0  0  0  0  0  0  0  0  0
    6.3301   -1.5000    0.0000 C   0  0  0  0  0  0  0  0  0  0  0  0
    6.3301    2.5000    0.0000 C   0  0  0  0  0  0  0  0  0  0  0  0
    4.5981   -2.5000    0.0000 C   0  0  0  0  0  0  0  0  0  0  0  0
    4.5981    2.5000    0.0000 C   0  0  0  0  0  0  0  0  0  0  0  0
    6.3301   -2.5000    0.0000 C   0  0  0  0  0  0  0  0  0  0  0  0
    5.4641    3.0000    0.0000 C   0  0  0  0  0  0  0  0  0  0  0  0
    5.4641   -3.0000    0.0000 C   0  0  0  0  0  0  0  0  0  0  0  0
    6.3301    4.5000    0.0000 C   0  0  0  0  0  0  0  0  0  0  0  0
    4.5981   -4.5000    0.0000 C   0  0  0  0  0  0  0  0  0  0  0  0
    4.5981   -5.5000    0.0000 C   0  0  3  0  0  0  0  0  0  0  0  0
    6.3301    5.5000    0.0000 C   0  0  3  0  0  0  0  0  0  0  0  0
    7.1962    6.0000    0.0000 C   0  0  0  0  0  0  0  0  0  0  0  0
    3.7320   -6.0000    0.0000 C   0  0  0  0  0  0  0  0  0  0  0  0
    8.0622    7.5000    0.0000 C   0  0  0  0  0  0  0  0  0  0  0  0
    2.8660   -7.5000    0.0000 C   0  0  0  0  0  0  0  0  0  0  0  0
    8.0622    8.5000    0.0000 C   0  0  0  0  0  0  0  0  0  0  0  0
    2.8660   -8.5000    0.0000 C   0  0  0  0  0  0  0  0  0  0  0  0
    2.0000   -9.0000    0.0000 C   0  0  0  0  0  0  0  0  0  0  0  0
    8.9282    9.0000    0.0000 C   0  0  0  0  0  0  0  0  0  0  0  0
    7.1962    9.0000    0.0000 C   0  0  0  0  0  0  0  0  0  0  0  0
    3.7320   -9.0000    0.0000 C   0  0  0  0  0  0  0  0  0  0  0  0
    4.4641    0.6200    0.0000 H   0  0  0  0  0  0  0  0  0  0  0  0
    3.8441    0.0000    0.0000 H   0  0  0  0  0  0  0  0  0  0  0  0
    4.4641   -0.6200    0.0000 H   0  0  0  0  0  0  0  0  0  0  0  0
    6.4641   -0.6200    0.0000 H   0  0  0  0  0  0  0  0  0  0  0  0
    7.0841    0.0000    0.0000 H   0  0  0  0  0  0  0  0  0  0  0  0
    6.4641    0.6200    0.0000 H   0  0  0  0  0  0  0  0  0  0  0  0
    6.8671    1.1900    0.0000 H   0  0  0  0  0  0  0  0  0  0  0  0
    4.0611   -1.1900    0.0000 H   0  0  0  0  0  0  0  0  0  0  0  0
    4.0611    1.1900    0.0000 H   0  0  0  0  0  0  0  0  0  0  0  0
    6.8671   -1.1900    0.0000 H   0  0  0  0  0  0  0  0  0  0  0  0
    6.8671    2.8100    0.0000 H   0  0  0  0  0  0  0  0  0  0  0  0
    4.0611   -2.8100    0.0000 H   0  0  0  0  0  0  0  0  0  0  0  0
    4.0611    2.8100    0.0000 H   0  0  0  0  0  0  0  0  0  0  0  0
    6.8671   -2.8100    0.0000 H   0  0  0  0  0  0  0  0  0  0  0  0
    6.5422    3.9174    0.0000 H   0  0  0  0  0  0  0  0  0  0  0  0
    6.9407    4.6077    0.0000 H   0  0  0  0  0  0  0  0  0  0  0  0
    4.3860   -3.9174    0.0000 H   0  0  0  0  0  0  0  0  0  0  0  0
    3.9875   -4.6077    0.0000 H   0  0  0  0  0  0  0  0  0  0  0  0
    5.5940    5.0750    0.0000 H   0  0  0  0  0  0  0  0  0  0  0  0
    4.5981   -6.3500    0.0000 H   0  0  0  0  0  0  0  0  0  0  0  0
    7.4082    5.4174    0.0000 H   0  0  0  0  0  0  0  0  0  0  0  0
    7.8067    6.1077    0.0000 H   0  0  0  0  0  0  0  0  0  0  0  0
    3.5200   -5.4174    0.0000 H   0  0  0  0  0  0  0  0  0  0  0  0
    3.1215   -6.1077    0.0000 H   0  0  0  0  0  0  0  0  0  0  0  0
    5.4641    6.6200    0.0000 H   0  0  0  0  0  0  0  0  0  0  0  0
    5.4641   -6.6200    0.0000 H   0  0  0  0  0  0  0  0  0  0  0  0
    9.2382    8.4631    0.0000 H   0  0  0  0  0  0  0  0  0  0  0  0
    9.4651    9.3100    0.0000 H   0  0  0  0  0  0  0  0  0  0  0  0
    8.6182    9.5369    0.0000 H   0  0  0  0  0  0  0  0  0  0  0  0
    1.6900   -8.4631    0.0000 H   0  0  0  0  0  0  0  0  0  0  0  0
    1.4631   -9.3100    0.0000 H   0  0  0  0  0  0  0  0  0  0  0  0
    2.3100   -9.5369    0.0000 H   0  0  0  0  0  0  0  0  0  0  0  0
    3.7320   -9.6200    0.0000 H   0  0  0  0  0  0  0  0  0  0  0  0
    4.2690   -8.6900    0.0000 H   0  0  0  0  0  0  0  0  0  0  0  0
    7.1962    9.6200    0.0000 H   0  0  0  0  0  0  0  0  0  0  0  0
    6.6592    8.6900    0.0000 H   0  0  0  0  0  0  0  0  0  0  0  0
  1 22  1  0  0  0  0
  1 24  1  0  0  0  0
  2 23  1  0  0  0  0
  2 25  1  0  0  0  0
  3 27  1  0  0  0  0
  3 62  1  0  0  0  0
  4 26  1  0  0  0  0
  4 63  1  0  0  0  0
  5 28  1  0  0  0  0
  5 30  1  0  0  0  0
  6 29  1  0  0  0  0
  6 31  1  0  0  0  0
  7 30  2  0  0  0  0
  8 31  2  0  0  0  0
  9 10  1  0  0  0  0
  9 11  1  0  0  0  0
  9 12  1  0  0  0  0
  9 13  1  0  0  0  0
 10 15  2  0  0  0  0
 10 17  1  0  0  0  0
 11 14  2  0  0  0  0
 11 16  1  0  0  0  0
 12 41  1  0  0  0  0
 12 42  1  0  0  0  0
 12 43  1  0  0  0  0
 13 38  1  0  0  0  0
 13 39  1  0  0  0  0
 13 40  1  0  0  0  0
 14 18  1  0  0  0  0
 14 44  1  0  0  0  0
 15 19  1  0  0  0  0
 15 45  1  0  0  0  0
 16 20  2  0  0  0  0
 16 46  1  0  0  0  0
 17 21  2  0  0  0  0
 17 47  1  0  0  0  0
 18 22  2  0  0  0  0
 18 48  1  0  0  0  0
 19 23  2  0  0  0  0
 19 49  1  0  0  0  0
 20 22  1  0  0  0  0
 20 50  1  0  0  0  0
 21 23  1  0  0  0  0
 21 51  1  0  0  0  0
 24 27  1  0  0  0  0
 24 52  1  0  0  0  0
 24 53  1  0  0  0  0
 25 26  1  0  0  0  0
 25 54  1  0  0  0  0
 25 55  1  0  0  0  0
 26 29  1  0  0  0  0
 26 57  1  0  0  0  0
 27 28  1  0  0  0  0
 27 56  1  0  0  0  0
 28 58  1  0  0  0  0
 28 59  1  0  0  0  0
 29 60  1  0  0  0  0
 29 61  1  0  0  0  0
 30 32  1  0  0  0  0
 31 33  1  0  0  0  0
 32 35  1  0  0  0  0
 32 36  2  0  0  0  0
 33 34  1  0  0  0  0
 33 37  2  0  0  0  0
 34 67  1  0  0  0  0
 34 68  1  0  0  0  0
 34 69  1  0  0  0  0
 35 64  1  0  0  0  0
 35 65  1  0  0  0  0
 35 66  1  0  0  0  0
 36 72  1  0  0  0  0
 36 73  1  0  0  0  0
 37 70  1  0  0  0  0
 37 71  1  0  0  0  0
M  END
> <PUBCHEM_COMPOUND_CID>
15284

> <PUBCHEM_COMPOUND_CANONICALIZED>
1

> <PUBCHEM_CACTVS_COMPLEXITY>
698

> <PUBCHEM_CACTVS_HBOND_ACCEPTOR>
8

> <PUBCHEM_CACTVS_HBOND_DONOR>
2

> <PUBCHEM_CACTVS_ROTATABLE_BOND>
16

> <PUBCHEM_CACTVS_SUBSKEYS>
AAADcfB4PAAAAAAAAAAAAAAAAAAAAAAAAAAwYAAAAAAAAAABQAAAGgAACAAADhSgmAIyDoAABgCIAiDSCAACCAAgIAAIiAEGCMgNNiKEMRqCOCClwBELqIeAwPAPoAAAAAAAAABAAAAAAAAAAAAAAAAAAA==

> <PUBCHEM_IUPAC_OPENEYE_NAME>
[2-hydroxy-3-[4-[1-[4-[2-hydroxy-3-(2-methylprop-2-enoyloxy)propoxy]phenyl]-1-methyl-ethyl]phenoxy]propyl] 2-methylprop-2-enoate

> <PUBCHEM_IUPAC_CAS_NAME>
2-methyl-2-propenoic acid [2-hydroxy-3-[4-[2-[4-[2-hydroxy-3-(2-methyl-1-oxoprop-2-enoxy)propoxy]phenyl]propan-2-yl]phenoxy]propyl] ester

> <PUBCHEM_IUPAC_NAME>
[2-hydroxy-3-[4-[2-[4-[2-hydroxy-3-(2-methylprop-2-enoyloxy)propoxy]phenyl]propan-2-yl]phenoxy]propyl] 2-methylprop-2-enoate

> <PUBCHEM_IUPAC_SYSTEMATIC_NAME>
[3-[4-[2-[4-[3-(2-methylprop-2-enoyloxy)-2-oxidanyl-propoxy]phenyl]propan-2-yl]phenoxy]-2-oxidanyl-propyl] 2-methylprop-2-enoate

> <PUBCHEM_IUPAC_TRADITIONAL_NAME>
2-methylacrylic acid [2-hydroxy-3-[4-[1-[4-(2-hydroxy-3-methacryloyloxy-propoxy)phenyl]-1-methyl-ethyl]phenoxy]propyl] ester

> <PUBCHEM_IUPAC_INCHI>
InChI=1S/C29H36O8/c1-19(2)27(32)36-17-23(30)15-34-25-11-7-21(8-12-25)29(5,6)22-9-13-26(14-10-22)35-16-24(31)18-37-28(33)20(3)4/h7-14,23-24,30-31H,1,3,15-18H2,2,4-6H3

> <PUBCHEM_IUPAC_INCHIKEY>
AMFGWXWBFGVCKG-UHFFFAOYSA-N

> <PUBCHEM_XLOGP3_AA>
5.1

> <PUBCHEM_EXACT_MASS>
512.241018

> <PUBCHEM_MOLECULAR_FORMULA>
C29H36O8

> <PUBCHEM_MOLECULAR_WEIGHT>
512.59134

> <PUBCHEM_OPENEYE_CAN_SMILES>
CC(=C)C(=O)OCC(COC1=CC=C(C=C1)C(C)(C)C2=CC=C(C=C2)OCC(COC(=O)C(=C)C)O)O

> <PUBCHEM_OPENEYE_ISO_SMILES>
CC(=C)C(=O)OCC(COC1=CC=C(C=C1)C(C)(C)C2=CC=C(C=C2)OCC(COC(=O)C(=C)C)O)O

> <PUBCHEM_CACTVS_TPSA>
112

> <PUBCHEM_MONOISOTOPIC_WEIGHT>
512.241018

> <PUBCHEM_TOTAL_CHARGE>
0

> <PUBCHEM_HEAVY_ATOM_COUNT>
37

> <PUBCHEM_ATOM_DEF_STEREO_COUNT>
0

> <PUBCHEM_ATOM_UDEF_STEREO_COUNT>
2

> <PUBCHEM_BOND_DEF_STEREO_COUNT>
0

> <PUBCHEM_BOND_UDEF_STEREO_COUNT>
0

> <PUBCHEM_ISOTOPIC_ATOM_COUNT>
0

> <PUBCHEM_COMPONENT_COUNT>
1

> <PUBCHEM_CACTVS_TAUTO_COUNT>
1

> <PUBCHEM_COORDINATE_TYPE>
1
5
255

> <PUBCHEM_BONDANNOTATIONS>
10  15  8
10  17  8
11  14  8
11  16  8
14  18  8
15  19  8
16  20  8
17  21  8
18  22  8
19  23  8
20  22  8
21  23  8
26  57  3
27  56  3

$$$$

