586070
  -OEChem-06241222453D

 40 43  0     1  0  0  0  0  0999 V2000
    0.4344   -2.3926   -0.8455 O   0  0  0  0  0  0  0  0  0  0  0  0
    1.3529    0.4886    1.0179 O   0  0  0  0  0  0  0  0  0  0  0  0
    2.4290   -2.3611    0.3825 O   0  0  0  0  0  0  0  0  0  0  0  0
   -0.8548    0.4802    0.1498 N   0  0  0  0  0  0  0  0  0  0  0  0
    3.4478    2.3384    0.6148 N   0  0  0  0  0  0  0  0  0  0  0  0
   -2.0447    2.2531   -0.4937 N   0  0  0  0  0  0  0  0  0  0  0  0
   -2.6552   -1.0845    0.6093 N   0  0  0  0  0  0  0  0  0  0  0  0
    3.9425    3.3634    0.1078 N   0  3  0  0  0  0  0  0  0  0  0  0
   -4.8367   -0.0759    0.1851 N   0  0  0  0  0  0  0  0  0  0  0  0
   -5.0828    2.1759   -0.5867 N   0  0  0  0  0  0  0  0  0  0  0  0
    4.3955    4.3038   -0.3522 N   0  5  0  0  0  0  0  0  0  0  0  0
    0.9048   -1.0540   -0.7375 C   0  0  2  0  0  0  0  0  0  0  0  0
    2.3603   -1.1530   -0.3820 C   0  0  1  0  0  0  0  0  0  0  0  0
    0.3131   -0.3391    0.4707 C   0  0  1  0  0  0  0  0  0  0  0  0
    2.6254    0.0610    0.4895 C   0  0  1  0  0  0  0  0  0  0  0  0
    1.4155   -3.2045   -0.1832 C   0  0  0  0  0  0  0  0  0  0  0  0
    3.2202    1.2203   -0.2961 C   0  0  0  0  0  0  0  0  0  0  0  0
    2.0472   -4.1394   -1.2118 C   0  0  0  0  0  0  0  0  0  0  0  0
    0.7509   -3.9995    0.9324 C   0  0  0  0  0  0  0  0  0  0  0  0
   -2.1661    0.1045    0.2265 C   0  0  0  0  0  0  0  0  0  0  0  0
   -0.8338    1.7788   -0.2868 C   0  0  0  0  0  0  0  0  0  0  0  0
   -2.8871    1.2171   -0.1769 C   0  0  0  0  0  0  0  0  0  0  0  0
   -4.2731    1.0977   -0.1899 C   0  0  0  0  0  0  0  0  0  0  0  0
   -4.0051   -1.0792    0.5560 C   0  0  0  0  0  0  0  0  0  0  0  0
    0.7351   -0.5092   -1.6721 H   0  0  0  0  0  0  0  0  0  0  0  0
    3.0337   -1.2529   -1.2391 H   0  0  0  0  0  0  0  0  0  0  0  0
   -0.0016   -1.0316    1.2590 H   0  0  0  0  0  0  0  0  0  0  0  0
    3.2663   -0.1894    1.3427 H   0  0  0  0  0  0  0  0  0  0  0  0
    2.5329    1.5350   -1.0912 H   0  0  0  0  0  0  0  0  0  0  0  0
    4.1662    0.9141   -0.7586 H   0  0  0  0  0  0  0  0  0  0  0  0
    2.8358   -4.7504   -0.7605 H   0  0  0  0  0  0  0  0  0  0  0  0
    1.2963   -4.7962   -1.6636 H   0  0  0  0  0  0  0  0  0  0  0  0
    2.5060   -3.5697   -2.0278 H   0  0  0  0  0  0  0  0  0  0  0  0
    0.3087   -3.3288    1.6768 H   0  0  0  0  0  0  0  0  0  0  0  0
   -0.0573   -4.6289    0.5454 H   0  0  0  0  0  0  0  0  0  0  0  0
    1.4767   -4.6280    1.4591 H   0  0  0  0  0  0  0  0  0  0  0  0
    0.0847    2.3283   -0.4413 H   0  0  0  0  0  0  0  0  0  0  0  0
   -4.4903   -2.0040    0.8496 H   0  0  0  0  0  0  0  0  0  0  0  0
   -4.6647    3.0528   -0.8668 H   0  0  0  0  0  0  0  0  0  0  0  0
   -6.0876    2.0645   -0.5875 H   0  0  0  0  0  0  0  0  0  0  0  0
  1 12  1  0  0  0  0
  1 16  1  0  0  0  0
  2 14  1  0  0  0  0
  2 15  1  0  0  0  0
  3 13  1  0  0  0  0
  3 16  1  0  0  0  0
  4 14  1  0  0  0  0
  4 20  1  0  0  0  0
  4 21  1  0  0  0  0
  5  8  2  0  0  0  0
  5 17  1  0  0  0  0
  6 21  2  0  0  0  0
  6 22  1  0  0  0  0
  7 20  2  0  0  0  0
  7 24  1  0  0  0  0
  8 11  2  0  0  0  0
  9 23  1  0  0  0  0
  9 24  2  0  0  0  0
 10 23  1  0  0  0  0
 10 39  1  0  0  0  0
 10 40  1  0  0  0  0
 12 13  1  0  0  0  0
 12 14  1  0  0  0  0
 12 25  1  0  0  0  0
 13 15  1  0  0  0  0
 13 26  1  0  0  0  0
 14 27  1  0  0  0  0
 15 17  1  0  0  0  0
 15 28  1  0  0  0  0
 16 18  1  0  0  0  0
 16 19  1  0  0  0  0
 17 29  1  0  0  0  0
 17 30  1  0  0  0  0
 18 31  1  0  0  0  0
 18 32  1  0  0  0  0
 18 33  1  0  0  0  0
 19 34  1  0  0  0  0
 19 35  1  0  0  0  0
 19 36  1  0  0  0  0
 20 22  1  0  0  0  0
 21 37  1  0  0  0  0
 22 23  2  0  0  0  0
 24 38  1  0  0  0  0
M  CHG  2   8   1  11  -1
M  END
> <PUBCHEM_COMPOUND_CID>
586070

> <PUBCHEM_CONFORMER_RMSD>
0.8

> <PUBCHEM_CONFORMER_DIVERSEORDER>
14
171
107
23
187
128
93
106
96
152
73
49
25
56
118
184
35
84
44
52
8
94
51
182
30
140
13
175
104
79
105
125
4
27
117
183
31
113
178
137
42
9
142
54
45
112
186
39
181
26
147
5
74
71
179
87
176
95
102
1
90
162
148
110
121
133
7
83
172
177
2
17
98
29
18
127
141
130
180
150
75
154
123
188
69
145
10
3
34
168
156
160
157
62
165
170
92
61
36
6
138
11
109
132
185
16
149
129
78
173
20
41
85
143
24
146
67
21
100
43
174
135
103
68
38
48
111
97
57
119
116
12
189
115
164
122
158
50
126
89
151
91
82
81
99
80
76
53
65
55
131
33
169
101
88
70
120
139
108
166
163
159
161
72
40
60
134
28
64
46
136
77
47
114
58
63
19
167
155
124
153
37
66
86
59
144
22
32
15

> <PUBCHEM_MMFF94_PARTIAL_CHARGES>
26
1 -0.56
10 -0.9
11 -0.37
12 0.28
13 0.28
14 0.54
15 0.28
16 0.56
17 0.25
2 -0.56
20 0.11
21 0.04
22 0.23
23 0.41
24 0.47
3 -0.56
37 0.15
38 0.15
39 0.4
4 0.05
40 0.4
5 -0.56
6 -0.57
7 -0.57
8 0.69
9 -0.62

> <PUBCHEM_EFFECTIVE_ROTOR_COUNT>
4.2

> <PUBCHEM_PHARMACOPHORE_FEATURES>
13
1 1 acceptor
1 10 cation
1 10 donor
1 2 acceptor
1 3 acceptor
3 16 18 19 hydrophobe
3 4 6 21 cation
3 4 7 20 cation
3 7 9 24 cation
5 1 3 12 13 16 rings
5 2 12 13 14 15 rings
5 4 6 20 21 22 rings
6 7 9 20 22 23 24 rings

> <PUBCHEM_HEAVY_ATOM_COUNT>
24

> <PUBCHEM_ATOM_DEF_STEREO_COUNT>
0

> <PUBCHEM_ATOM_UDEF_STEREO_COUNT>
4

> <PUBCHEM_BOND_DEF_STEREO_COUNT>
0

> <PUBCHEM_BOND_UDEF_STEREO_COUNT>
0

> <PUBCHEM_ISOTOPIC_ATOM_COUNT>
0

> <PUBCHEM_COMPONENT_COUNT>
1

> <PUBCHEM_CACTVS_TAUTO_COUNT>
3

> <PUBCHEM_CONFORMER_ID>
0008F1560000000E

> <PUBCHEM_MMFF94_ENERGY>
55.9313

> <PUBCHEM_FEATURE_SELFOVERLAP>
67.149

> <PUBCHEM_SHAPE_FINGERPRINT>
10074138 170 17690306823457312360
10090160 65 18339370664641236797
10871710 139 17975137535030566311
10906281 52 18129368312276845665
11578080 2 16556798600771480766
12293681 4 16898506104378619708
12403259 226 17767407146902616701
12553582 1 17472973386097816795
12788726 201 16754647115470842066
13140716 1 18412266112304273490
13533116 47 18188214320809155433
138480 1 18194119848710476580
13955234 65 18338794632196157737
1454969 45 18050004390331463855
14787075 74 17971191435111254543
14790565 3 18266172821063771161
17539 30 17324085832742488830
19591789 44 18120655729902480136
20645477 70 18190747620984356695
221490 88 18266451199437353807
2255824 54 18334859480175526454
23227448 37 17760926239038518516
23419403 2 15879325870217528378
23559900 14 18267870660395249171
239999 70 18187359982134506150
314173 41 17977099385839218499
350125 39 18411699881459821124
394222 165 18270972258507008594
458136 41 18261664900714228938
5104073 3 18272086132616653361
621550 34 18343586248252169693
6442390 28 18265330612615448852
6669772 16 18187075123699038406
7364860 26 18265615557888973750
7808743 9 17907017275458763080
9709674 26 18267020738287228139
9981440 41 18341052900104198448
9999458 23 18411418432147400110

> <PUBCHEM_SHAPE_MULTIPOLES>
436.45
8.42
5.17
0.89
8.37
0.22
-0.03
-6.23
-0.34
-8.03
-0.55
-0.22
0.44
1.03

> <PUBCHEM_SHAPE_SELFOVERLAP>
954.854

> <PUBCHEM_SHAPE_VOLUME>
233.9

> <PUBCHEM_COORDINATE_TYPE>
2
5
10

$$$$

