854315
  -OEChem-06241222473D

 35 37  0     0  0  0  0  0  0999 V2000
   -6.4983    0.4431   -0.1655 S   0  0  0  0  0  0  0  0  0  0  0  0
   -2.3331   -0.4019   -1.5004 O   0  0  0  0  0  0  0  0  0  0  0  0
   -4.0627   -0.1420    0.5332 N   0  0  0  0  0  0  0  0  0  0  0  0
   -4.5092    2.2082    0.0359 N   0  0  0  0  0  0  0  0  0  0  0  0
   -2.6527   -0.0640    0.8620 C   0  0  0  0  0  0  0  0  0  0  0  0
   -0.3357   -0.1628   -0.2834 C   0  0  0  0  0  0  0  0  0  0  0  0
    2.4053   -0.0495   -0.0751 C   0  0  0  0  0  0  0  0  0  0  0  0
   -1.8229   -0.2247   -0.3963 C   0  0  0  0  0  0  0  0  0  0  0  0
    3.8469    0.0095    0.0344 C   0  0  0  0  0  0  0  0  0  0  0  0
    0.2232    0.0377    0.9579 C   0  0  0  0  0  0  0  0  0  0  0  0
    0.4185   -0.3090   -1.4250 C   0  0  0  0  0  0  0  0  0  0  0  0
    1.6130    0.0952    1.0635 C   0  0  0  0  0  0  0  0  0  0  0  0
    1.8082   -0.2516   -1.3194 C   0  0  0  0  0  0  0  0  0  0  0  0
   -4.7820   -1.3250    0.5221 C   0  0  0  0  0  0  0  0  0  0  0  0
   -4.8173    0.9644    0.1648 C   0  0  0  0  0  0  0  0  0  0  0  0
    4.5064    1.2324   -0.0892 C   0  0  0  0  0  0  0  0  0  0  0  0
    4.5771   -1.1566    0.2636 C   0  0  0  0  0  0  0  0  0  0  0  0
   -6.0737   -1.2161    0.1849 C   0  0  0  0  0  0  0  0  0  0  0  0
    5.8960    1.2893    0.0166 C   0  0  0  0  0  0  0  0  0  0  0  0
    5.9668   -1.0998    0.3694 C   0  0  0  0  0  0  0  0  0  0  0  0
    6.6262    0.1231    0.2459 C   0  0  0  0  0  0  0  0  0  0  0  0
   -2.4371    0.9068    1.3214 H   0  0  0  0  0  0  0  0  0  0  0  0
   -2.3950   -0.8588    1.5713 H   0  0  0  0  0  0  0  0  0  0  0  0
   -0.3522    0.1544    1.8688 H   0  0  0  0  0  0  0  0  0  0  0  0
   -0.0260   -0.4671   -2.4025 H   0  0  0  0  0  0  0  0  0  0  0  0
    2.0629    0.2531    2.0410 H   0  0  0  0  0  0  0  0  0  0  0  0
    2.4114   -0.3665   -2.2169 H   0  0  0  0  0  0  0  0  0  0  0  0
   -4.2683   -2.2395    0.7820 H   0  0  0  0  0  0  0  0  0  0  0  0
    3.9524    2.1509   -0.2680 H   0  0  0  0  0  0  0  0  0  0  0  0
    4.0789   -2.1182    0.3624 H   0  0  0  0  0  0  0  0  0  0  0  0
   -6.7814   -2.0300    0.1257 H   0  0  0  0  0  0  0  0  0  0  0  0
    6.4096    2.2414   -0.0796 H   0  0  0  0  0  0  0  0  0  0  0  0
    6.5355   -2.0076    0.5479 H   0  0  0  0  0  0  0  0  0  0  0  0
    7.7082    0.1674    0.3282 H   0  0  0  0  0  0  0  0  0  0  0  0
   -5.3435    2.7287   -0.2561 H   0  0  0  0  0  0  0  0  0  0  0  0
  1 15  1  0  0  0  0
  1 18  1  0  0  0  0
  2  8  2  0  0  0  0
  3  5  1  0  0  0  0
  3 14  1  0  0  0  0
  3 15  1  0  0  0  0
  4 15  2  0  0  0  0
  4 35  1  0  0  0  0
  5  8  1  0  0  0  0
  5 22  1  0  0  0  0
  5 23  1  0  0  0  0
  6  8  1  0  0  0  0
  6 10  2  0  0  0  0
  6 11  1  0  0  0  0
  7  9  1  0  0  0  0
  7 12  2  0  0  0  0
  7 13  1  0  0  0  0
  9 16  2  0  0  0  0
  9 17  1  0  0  0  0
 10 12  1  0  0  0  0
 10 24  1  0  0  0  0
 11 13  2  0  0  0  0
 11 25  1  0  0  0  0
 12 26  1  0  0  0  0
 13 27  1  0  0  0  0
 14 18  2  0  0  0  0
 14 28  1  0  0  0  0
 16 19  1  0  0  0  0
 16 29  1  0  0  0  0
 17 20  2  0  0  0  0
 17 30  1  0  0  0  0
 18 31  1  0  0  0  0
 19 21  2  0  0  0  0
 19 32  1  0  0  0  0
 20 21  1  0  0  0  0
 20 33  1  0  0  0  0
 21 34  1  0  0  0  0
M  END
> <PUBCHEM_COMPOUND_CID>
854315

> <PUBCHEM_CONFORMER_RMSD>
0.6

> <PUBCHEM_CONFORMER_DIVERSEORDER>
1
58
5
74
42
23
71
78
89
75
52
51
59
47
73
9
56
7
43
46
24
49
67
31
90
57
77
39
95
2
29
25
10
26
94
99
33
98
19
91
20
45
27
97
65
69
21
38
13
96
53
66
40
84
88
36
92
54
41
60
28
34
87
50
11
79
32
12
70
37
93
48
100
55
85
14
22
68
3
86
35
8
44
83
63
4
82
80
61
81
64
76
72
62
16
15
30
18
6
17

> <PUBCHEM_MMFF94_PARTIAL_CHARGES>
31
1 -0.24
10 -0.15
11 -0.15
12 -0.15
13 -0.15
14 -0.05
15 0.64
16 -0.15
17 -0.15
18 -0.05
19 -0.15
2 -0.57
20 -0.15
21 -0.15
24 0.15
25 0.15
26 0.15
27 0.15
28 0.15
29 0.15
3 -0.52
30 0.15
31 0.15
32 0.15
33 0.15
34 0.15
35 0.4
4 -0.85
5 0.43
6 0.09
8 0.42

> <PUBCHEM_EFFECTIVE_ROTOR_COUNT>
4

> <PUBCHEM_PHARMACOPHORE_FEATURES>
6
1 2 acceptor
1 4 donor
3 3 4 15 cation
5 1 3 14 15 18 rings
6 6 7 10 11 12 13 rings
6 9 16 17 19 20 21 rings

> <PUBCHEM_HEAVY_ATOM_COUNT>
21

> <PUBCHEM_ATOM_DEF_STEREO_COUNT>
0

> <PUBCHEM_ATOM_UDEF_STEREO_COUNT>
0

> <PUBCHEM_BOND_DEF_STEREO_COUNT>
0

> <PUBCHEM_BOND_UDEF_STEREO_COUNT>
0

> <PUBCHEM_ISOTOPIC_ATOM_COUNT>
0

> <PUBCHEM_COMPONENT_COUNT>
1

> <PUBCHEM_CACTVS_TAUTO_COUNT>
2

> <PUBCHEM_CONFORMER_ID>
000D092B00000001

> <PUBCHEM_MMFF94_ENERGY>
64.099

> <PUBCHEM_FEATURE_SELFOVERLAP>
30.446

> <PUBCHEM_SHAPE_FINGERPRINT>
10 15 17895200978502198146
10354089 29 18334294245826855380
11089746 13 17703789210677442977
11315181 36 17988640779692580817
11719270 70 17603585265825269670
12091667 2 18187085048904345527
12107183 9 17550394372096230249
12166972 35 18343298141450633100
12236239 1 18343864415692170234
12516196 113 17131834252629198389
12596602 18 18413671305280753920
12916748 109 15647046071564343850
13167372 99 18409447029179071728
13533116 47 18131355254442749538
1420 363 14908180858752245744
14251732 16 18340768148030309090
14251764 18 17676211242786217422
14251764 46 18334294267227897346
14849402 71 17844798209796846580
14933364 13 18411980264929406136
15183329 4 18342457070994688264
15716309 27 18411983550648030791
17844677 252 18412257337480372264
18222031 100 15482953843843818278
19141452 34 17561079168492280490
19489759 90 18343300375555579585
200 152 16128379264144917239
20281389 69 18040719160357874160
21150785 3 5472851571596489908
21315763 28 18412263934845167858
21641784 216 17096066057310449872
22224240 67 17489591126373329394
23035841 295 16057163908191950994
23402539 116 18412266133757640621
23536379 177 18412545426901508034
23559900 14 18271248201819380313
23569914 2 17691742961479968388
23569943 247 16915393323271026818
2767999 5 16587745347635725200
29717793 49 11671789282295309018
300161 21 17821734923048962062
314173 85 16200431377113550750
3545911 37 16153425038918038343
4072396 5 16877665699451586510
4073 2 17846211108350623178
4340502 62 18408884036392073974
5104073 3 16444170079994270859
5385378 56 15719656736688119503
542803 24 18409731763718916088
7495541 125 18187082806440897857

> <PUBCHEM_SHAPE_MULTIPOLES>
420.19
18.12
1.3
1.06
1.34
0.31
0.24
0.66
-2.11
0.54
-0.1
0.07
-0.09
-0.01

> <PUBCHEM_SHAPE_SELFOVERLAP>
904.518

> <PUBCHEM_SHAPE_VOLUME>
234.5

> <PUBCHEM_COORDINATE_TYPE>
2
5
10

$$$$

