37497
  -OEChem-07051212533D

 48 48  0     1  0  0  0  0  0999 V2000
    0.0749    0.4590   -2.0126 O   0  0  0  0  0  0  0  0  0  0  0  0
   -2.0746   -0.4818    0.3443 N   0  0  1  0  0  0  0  0  0  0  0  0
    0.6435    0.2567    0.2554 N   0  0  0  0  0  0  0  0  0  0  0  0
   -1.6455    0.7349   -0.3467 C   0  0  1  0  0  0  0  0  0  0  0  0
   -3.4177   -0.3089    0.8952 C   0  0  0  0  0  0  0  0  0  0  0  0
   -1.7240    1.9244    0.6187 C   0  0  0  0  0  0  0  0  0  0  0  0
   -2.0379   -1.6252   -0.5661 C   0  0  0  0  0  0  0  0  0  0  0  0
   -0.2175    0.4594   -0.8199 C   0  0  0  0  0  0  0  0  0  0  0  0
   -4.4238   -0.0676   -0.2273 C   0  0  0  0  0  0  0  0  0  0  0  0
   -1.2208    3.2151   -0.0161 C   0  0  0  0  0  0  0  0  0  0  0  0
   -2.4205   -2.9095    0.1403 C   0  0  0  0  0  0  0  0  0  0  0  0
    2.0303   -0.0220    0.2095 C   0  0  0  0  0  0  0  0  0  0  0  0
   -5.8274    0.1371    0.3216 C   0  0  0  0  0  0  0  0  0  0  0  0
    2.4590   -1.3398    0.1555 C   0  0  0  0  0  0  0  0  0  0  0  0
    2.9368    1.0275    0.2200 C   0  0  0  0  0  0  0  0  0  0  0  0
    3.8259   -1.6146    0.1110 C   0  0  0  0  0  0  0  0  0  0  0  0
    4.3036    0.7529    0.1753 C   0  0  0  0  0  0  0  0  0  0  0  0
    1.4957   -2.4823    0.1435 C   0  0  0  0  0  0  0  0  0  0  0  0
    2.4918    2.4531    0.2776 C   0  0  0  0  0  0  0  0  0  0  0  0
    4.7482   -0.5683    0.1208 C   0  0  0  0  0  0  0  0  0  0  0  0
   -2.2232    0.9491   -1.2537 H   0  0  0  0  0  0  0  0  0  0  0  0
   -3.7143   -1.1944    1.4702 H   0  0  0  0  0  0  0  0  0  0  0  0
   -3.4669    0.4743    1.6578 H   0  0  0  0  0  0  0  0  0  0  0  0
   -1.1613    1.7435    1.5424 H   0  0  0  0  0  0  0  0  0  0  0  0
   -2.7561    2.1472    0.9062 H   0  0  0  0  0  0  0  0  0  0  0  0
   -2.6294   -1.4946   -1.4789 H   0  0  0  0  0  0  0  0  0  0  0  0
   -1.0200   -1.7957   -0.9246 H   0  0  0  0  0  0  0  0  0  0  0  0
   -4.1959    0.8266   -0.8136 H   0  0  0  0  0  0  0  0  0  0  0  0
   -4.4914   -0.9119   -0.9190 H   0  0  0  0  0  0  0  0  0  0  0  0
   -1.8228    3.4746   -0.8934 H   0  0  0  0  0  0  0  0  0  0  0  0
   -1.2971    4.0408    0.6988 H   0  0  0  0  0  0  0  0  0  0  0  0
   -0.1802    3.1430   -0.3324 H   0  0  0  0  0  0  0  0  0  0  0  0
   -1.8966   -3.0207    1.0960 H   0  0  0  0  0  0  0  0  0  0  0  0
   -3.4976   -2.9898    0.3149 H   0  0  0  0  0  0  0  0  0  0  0  0
   -2.1417   -3.7679   -0.4817 H   0  0  0  0  0  0  0  0  0  0  0  0
    0.2077    0.0263    1.1459 H   0  0  0  0  0  0  0  0  0  0  0  0
   -6.1614   -0.7415    0.8830 H   0  0  0  0  0  0  0  0  0  0  0  0
   -5.8654    1.0055    0.9873 H   0  0  0  0  0  0  0  0  0  0  0  0
   -6.5358    0.3060   -0.4959 H   0  0  0  0  0  0  0  0  0  0  0  0
    4.1887   -2.6381    0.0660 H   0  0  0  0  0  0  0  0  0  0  0  0
    5.0358    1.5561    0.1804 H   0  0  0  0  0  0  0  0  0  0  0  0
    1.0772   -2.6090   -0.8589 H   0  0  0  0  0  0  0  0  0  0  0  0
    1.9898   -3.4214    0.4177 H   0  0  0  0  0  0  0  0  0  0  0  0
    0.6912   -2.3361    0.8705 H   0  0  0  0  0  0  0  0  0  0  0  0
    1.7505    2.6008    1.0695 H   0  0  0  0  0  0  0  0  0  0  0  0
    3.3266    3.1269    0.5008 H   0  0  0  0  0  0  0  0  0  0  0  0
    2.0727    2.7543   -0.6872 H   0  0  0  0  0  0  0  0  0  0  0  0
    5.8125   -0.7821    0.0851 H   0  0  0  0  0  0  0  0  0  0  0  0
  1  8  2  0  0  0  0
  2  4  1  0  0  0  0
  2  5  1  0  0  0  0
  2  7  1  0  0  0  0
  3  8  1  0  0  0  0
  3 12  1  0  0  0  0
  3 36  1  0  0  0  0
  4  6  1  0  0  0  0
  4  8  1  0  0  0  0
  4 21  1  0  0  0  0
  5  9  1  0  0  0  0
  5 22  1  0  0  0  0
  5 23  1  0  0  0  0
  6 10  1  0  0  0  0
  6 24  1  0  0  0  0
  6 25  1  0  0  0  0
  7 11  1  0  0  0  0
  7 26  1  0  0  0  0
  7 27  1  0  0  0  0
  9 13  1  0  0  0  0
  9 28  1  0  0  0  0
  9 29  1  0  0  0  0
 10 30  1  0  0  0  0
 10 31  1  0  0  0  0
 10 32  1  0  0  0  0
 11 33  1  0  0  0  0
 11 34  1  0  0  0  0
 11 35  1  0  0  0  0
 12 14  2  0  0  0  0
 12 15  1  0  0  0  0
 13 37  1  0  0  0  0
 13 38  1  0  0  0  0
 13 39  1  0  0  0  0
 14 16  1  0  0  0  0
 14 18  1  0  0  0  0
 15 17  2  0  0  0  0
 15 19  1  0  0  0  0
 16 20  2  0  0  0  0
 16 40  1  0  0  0  0
 17 20  1  0  0  0  0
 17 41  1  0  0  0  0
 18 42  1  0  0  0  0
 18 43  1  0  0  0  0
 18 44  1  0  0  0  0
 19 45  1  0  0  0  0
 19 46  1  0  0  0  0
 19 47  1  0  0  0  0
 20 48  1  0  0  0  0
M  END
> <PUBCHEM_COMPOUND_CID>
37497

> <PUBCHEM_CONFORMER_RMSD>
0.8

> <PUBCHEM_CONFORMER_DIVERSEORDER>
7
25
1
22
14
29
13
30
15
31
12
24
23
18
16
6
17
26
32
11
34
3
21
5
20
33
27
2
9
28
19
10
4
8

> <PUBCHEM_MMFF94_PARTIAL_CHARGES>
19
1 -0.57
12 0.12
14 -0.14
15 -0.14
16 -0.15
17 -0.15
18 0.14
19 0.14
2 -0.81
20 -0.15
3 -0.55
36 0.37
4 0.33
40 0.15
41 0.15
48 0.15
5 0.27
7 0.27
8 0.57

> <PUBCHEM_EFFECTIVE_ROTOR_COUNT>
8

> <PUBCHEM_PHARMACOPHORE_FEATURES>
6
1 1 acceptor
1 10 hydrophobe
1 13 hydrophobe
1 2 cation
1 3 donor
6 12 14 15 16 17 20 rings

> <PUBCHEM_HEAVY_ATOM_COUNT>
20

> <PUBCHEM_ATOM_DEF_STEREO_COUNT>
0

> <PUBCHEM_ATOM_UDEF_STEREO_COUNT>
1

> <PUBCHEM_BOND_DEF_STEREO_COUNT>
0

> <PUBCHEM_BOND_UDEF_STEREO_COUNT>
0

> <PUBCHEM_ISOTOPIC_ATOM_COUNT>
0

> <PUBCHEM_COMPONENT_COUNT>
1

> <PUBCHEM_CACTVS_TAUTO_COUNT>
2

> <PUBCHEM_CONFORMER_ID>
0000927900000007

> <PUBCHEM_MMFF94_ENERGY>
70.9557

> <PUBCHEM_FEATURE_SELFOVERLAP>
30.446

> <PUBCHEM_SHAPE_FINGERPRINT>
10366900 7 18342728641871772720
10616163 171 18336263444660244662
10967382 1 18410294692202795224
12011746 2 18409445920628746303
12236239 1 17603307037737734984
12251169 10 18407759244090395246
12553582 1 18410304609108273354
12596599 1 17750775697761031354
12633257 1 18334856138411460618
13004483 165 18271254910072830825
13140716 1 18339646624816856818
13533116 47 18334015029322785283
13675066 3 18060133207463108627
14223421 5 18408324380430148500
14341114 176 18409443691925717872
14790565 3 17547286705565869364
16945 1 18410015463483482814
1813 80 17346877849186229844
19050596 39 18409733919998272538
19141452 34 18413108334095582455
200 152 18334863831003680053
20510252 161 18262519333161026593
20600515 1 18261377937255156053
21033648 29 18270417052459430825
21267235 1 18337103566544465634
221490 88 18339637842157310674
23402539 116 18187089464389273293
23559900 14 18337395946073901936
26918003 58 18131069320619695513
2871803 45 18342458179170259218
3286 77 18271527589267593086
335352 9 18410293622677090358
34934 24 18337957796610419939
350125 39 18411700959528442804
5104073 3 18338239249933226258
5283173 99 18129391565156628533
5374978 207 18410578391809230040
8272917 22 18261107495500478046
9709674 26 18335698385793439607

> <PUBCHEM_SHAPE_MULTIPOLES>
395.76
9.39
2.94
0.9
3.27
0.34
0.29
-1.27
-1.42
0.09
-0.2
0.23
0.09
-0.03

> <PUBCHEM_SHAPE_SELFOVERLAP>
794.844

> <PUBCHEM_SHAPE_VOLUME>
235.6

> <PUBCHEM_COORDINATE_TYPE>
2
5
10

$$$$

