439260
  -OEChem-07051212443D

 23 23  0     1  0  0  0  0  0999 V2000
    2.3618    0.0602   -1.5274 O   0  0  0  0  0  0  0  0  0  0  0  0
   -2.1939    2.0747   -0.0553 O   0  0  0  0  0  0  0  0  0  0  0  0
   -3.6370   -0.2830    0.2306 O   0  0  0  0  0  0  0  0  0  0  0  0
    4.1403    0.3312    0.7225 N   0  0  0  0  0  0  0  0  0  0  0  0
    1.9844   -0.4416   -0.2384 C   0  0  2  0  0  0  0  0  0  0  0  0
    0.4990   -0.3964   -0.1147 C   0  0  0  0  0  0  0  0  0  0  0  0
    2.6864    0.3826    0.8592 C   0  0  0  0  0  0  0  0  0  0  0  0
   -0.1660    0.8295   -0.1423 C   0  0  0  0  0  0  0  0  0  0  0  0
   -0.2253   -1.5798    0.0291 C   0  0  0  0  0  0  0  0  0  0  0  0
   -1.5555    0.8718   -0.0261 C   0  0  0  0  0  0  0  0  0  0  0  0
   -1.6146   -1.5375    0.1452 C   0  0  0  0  0  0  0  0  0  0  0  0
   -2.2797   -0.3117    0.1176 C   0  0  0  0  0  0  0  0  0  0  0  0
    2.3369   -1.4796   -0.1896 H   0  0  0  0  0  0  0  0  0  0  0  0
    2.3999    0.0152    1.8513 H   0  0  0  0  0  0  0  0  0  0  0  0
    2.4004    1.4381    0.7993 H   0  0  0  0  0  0  0  0  0  0  0  0
    0.3828    1.7595   -0.2667 H   0  0  0  0  0  0  0  0  0  0  0  0
    0.2779   -2.5427    0.0525 H   0  0  0  0  0  0  0  0  0  0  0  0
   -2.1666   -2.4670    0.2565 H   0  0  0  0  0  0  0  0  0  0  0  0
    3.3332    0.0426   -1.5712 H   0  0  0  0  0  0  0  0  0  0  0  0
    4.4561   -0.6347    0.8003 H   0  0  0  0  0  0  0  0  0  0  0  0
    4.5701    0.8359    1.4966 H   0  0  0  0  0  0  0  0  0  0  0  0
   -3.1495    1.9163    0.0374 H   0  0  0  0  0  0  0  0  0  0  0  0
   -3.9665   -1.1935    0.3216 H   0  0  0  0  0  0  0  0  0  0  0  0
  1  5  1  0  0  0  0
  1 19  1  0  0  0  0
  2 10  1  0  0  0  0
  2 22  1  0  0  0  0
  3 12  1  0  0  0  0
  3 23  1  0  0  0  0
  4  7  1  0  0  0  0
  4 20  1  0  0  0  0
  4 21  1  0  0  0  0
  5  6  1  0  0  0  0
  5  7  1  0  0  0  0
  5 13  1  0  0  0  0
  6  8  2  0  0  0  0
  6  9  1  0  0  0  0
  7 14  1  0  0  0  0
  7 15  1  0  0  0  0
  8 10  1  0  0  0  0
  8 16  1  0  0  0  0
  9 11  2  0  0  0  0
  9 17  1  0  0  0  0
 10 12  2  0  0  0  0
 11 12  1  0  0  0  0
 11 18  1  0  0  0  0
M  END
> <PUBCHEM_COMPOUND_CID>
439260

> <PUBCHEM_CONFORMER_RMSD>
0.6

> <PUBCHEM_CONFORMER_DIVERSEORDER>
1
7
3
6
5
4
8
2

> <PUBCHEM_MMFF94_PARTIAL_CHARGES>
20
1 -0.68
10 0.08
11 -0.15
12 0.08
16 0.15
17 0.15
18 0.15
19 0.4
2 -0.53
20 0.36
21 0.36
22 0.45
23 0.45
3 -0.53
4 -0.99
5 0.42
6 -0.14
7 0.27
8 -0.15
9 -0.15

> <PUBCHEM_EFFECTIVE_ROTOR_COUNT>
2

> <PUBCHEM_PHARMACOPHORE_FEATURES>
7
1 1 acceptor
1 1 donor
1 2 donor
1 3 donor
1 4 cation
1 4 donor
6 6 8 9 10 11 12 rings

> <PUBCHEM_HEAVY_ATOM_COUNT>
12

> <PUBCHEM_ATOM_DEF_STEREO_COUNT>
1

> <PUBCHEM_ATOM_UDEF_STEREO_COUNT>
0

> <PUBCHEM_BOND_DEF_STEREO_COUNT>
0

> <PUBCHEM_BOND_UDEF_STEREO_COUNT>
0

> <PUBCHEM_ISOTOPIC_ATOM_COUNT>
0

> <PUBCHEM_COMPONENT_COUNT>
1

> <PUBCHEM_CACTVS_TAUTO_COUNT>
10

> <PUBCHEM_CONFORMER_ID>
0006B3DC00000001

> <PUBCHEM_MMFF94_ENERGY>
23.9768

> <PUBCHEM_FEATURE_SELFOVERLAP>
35.527

> <PUBCHEM_SHAPE_FINGERPRINT>
10857977 72 18409732820159538771
11031198 65 16515681113836904984
11132069 177 18334571326640585131
12716758 59 18336538421324679438
12932764 1 18040711489335215454
13024252 1 12607412113002049967
13538477 17 17845928516307764466
13581323 91 18343025480046792738
13839132 238 18261111936707606572
14325111 11 18337956795766943480
14614273 12 18200038463999979221
15219456 202 18040434434201475718
15310529 11 14851596704689601003
15775835 57 18341053003320368328
16945 1 18412536596506918903
17846911 113 18408889529280114537
20201158 50 17967250879931990650
20510252 161 18334013925510831449
20645464 45 18040998431820968554
20871998 184 18188770535473342719
21028194 46 18336542823650262086
21040471 1 18340200920315919191
23402539 116 18335999587865774591
23402655 69 18194418886637019597
23559900 14 18189608518880789886
2748010 2 18124305262730455199
305870 269 18199194068876291826
3248919 1 17704064110032745762
369184 2 18333736818399659970
5084963 1 18262785367397816631
53812653 166 18334298711981121737
6333449 129 18261398827537766183
7364860 26 18118687853403125162
77492 1 17489303071105846334

> <PUBCHEM_SHAPE_MULTIPOLES>
224.37
5.32
1.51
0.86
2.72
0.14
-0.17
0.76
0.95
-1.08
0.02
0.66
0.02
0.22

> <PUBCHEM_SHAPE_SELFOVERLAP>
463.888

> <PUBCHEM_SHAPE_VOLUME>
129

> <PUBCHEM_COORDINATE_TYPE>
2
5
10

$$$$

