7781
  -OEChem-06261202193D

 39 38  0     1  0  0  0  0  0999 V2000
    2.8273    0.6227    0.1317 O   0  0  0  0  0  0  0  0  0  0  0  0
    1.6372   -1.3205    0.4939 O   0  0  0  0  0  0  0  0  0  0  0  0
   -0.4000    2.5294   -0.5135 C   0  0  2  0  0  0  0  0  0  0  0  0
   -1.5071    1.8322    0.3015 C   0  0  0  0  0  0  0  0  0  0  0  0
    0.8616    1.6751   -0.7384 C   0  0  0  0  0  0  0  0  0  0  0  0
   -1.9140    0.4664   -0.2614 C   0  0  0  0  0  0  0  0  0  0  0  0
   -0.0502    3.8730    0.1354 C   0  0  0  0  0  0  0  0  0  0  0  0
   -3.0030   -0.1828    0.5998 C   0  0  0  0  0  0  0  0  0  0  0  0
    1.6933    1.3955    0.5082 C   0  0  0  0  0  0  0  0  0  0  0  0
   -3.4563   -1.5162    0.0542 C   0  0  0  0  0  0  0  0  0  0  0  0
   -2.4180   -2.5942   -0.0684 C   0  0  0  0  0  0  0  0  0  0  0  0
   -4.7245   -1.7194   -0.3351 C   0  0  0  0  0  0  0  0  0  0  0  0
    2.6618   -0.7364    0.1691 C   0  0  0  0  0  0  0  0  0  0  0  0
    3.9480   -1.4050   -0.2563 C   0  0  0  0  0  0  0  0  0  0  0  0
    3.8438   -2.9198   -0.2207 C   0  0  0  0  0  0  0  0  0  0  0  0
   -0.8149    2.7455   -1.5076 H   0  0  0  0  0  0  0  0  0  0  0  0
   -1.1766    1.7078    1.3404 H   0  0  0  0  0  0  0  0  0  0  0  0
   -2.3897    2.4841    0.3330 H   0  0  0  0  0  0  0  0  0  0  0  0
    0.6133    0.7390   -1.2502 H   0  0  0  0  0  0  0  0  0  0  0  0
    1.5072    2.2007   -1.4566 H   0  0  0  0  0  0  0  0  0  0  0  0
   -1.0440   -0.1963   -0.2815 H   0  0  0  0  0  0  0  0  0  0  0  0
   -2.2664    0.5822   -1.2935 H   0  0  0  0  0  0  0  0  0  0  0  0
   -0.9228    4.5355    0.1333 H   0  0  0  0  0  0  0  0  0  0  0  0
    0.7495    4.3782   -0.4162 H   0  0  0  0  0  0  0  0  0  0  0  0
    0.2687    3.7547    1.1759 H   0  0  0  0  0  0  0  0  0  0  0  0
   -2.6279   -0.3316    1.6202 H   0  0  0  0  0  0  0  0  0  0  0  0
   -3.8538    0.5056    0.6822 H   0  0  0  0  0  0  0  0  0  0  0  0
    1.1097    0.8997    1.2917 H   0  0  0  0  0  0  0  0  0  0  0  0
    2.0791    2.3260    0.9352 H   0  0  0  0  0  0  0  0  0  0  0  0
   -1.6834   -2.3450   -0.8401 H   0  0  0  0  0  0  0  0  0  0  0  0
   -2.8615   -3.5594   -0.3364 H   0  0  0  0  0  0  0  0  0  0  0  0
   -1.8951   -2.7285    0.8841 H   0  0  0  0  0  0  0  0  0  0  0  0
   -5.0449   -2.6737   -0.7400 H   0  0  0  0  0  0  0  0  0  0  0  0
   -5.4717   -0.9365   -0.2594 H   0  0  0  0  0  0  0  0  0  0  0  0
    4.7467   -1.0811    0.4192 H   0  0  0  0  0  0  0  0  0  0  0  0
    4.1858   -1.0811   -1.2750 H   0  0  0  0  0  0  0  0  0  0  0  0
    3.6094   -3.2741    0.7886 H   0  0  0  0  0  0  0  0  0  0  0  0
    4.7892   -3.3744   -0.5322 H   0  0  0  0  0  0  0  0  0  0  0  0
    3.0550   -3.2755   -0.8919 H   0  0  0  0  0  0  0  0  0  0  0  0
  1  9  1  0  0  0  0
  1 13  1  0  0  0  0
  2 13  2  0  0  0  0
  3  4  1  0  0  0  0
  3  5  1  0  0  0  0
  3  7  1  0  0  0  0
  3 16  1  0  0  0  0
  4  6  1  0  0  0  0
  4 17  1  0  0  0  0
  4 18  1  0  0  0  0
  5  9  1  0  0  0  0
  5 19  1  0  0  0  0
  5 20  1  0  0  0  0
  6  8  1  0  0  0  0
  6 21  1  0  0  0  0
  6 22  1  0  0  0  0
  7 23  1  0  0  0  0
  7 24  1  0  0  0  0
  7 25  1  0  0  0  0
  8 10  1  0  0  0  0
  8 26  1  0  0  0  0
  8 27  1  0  0  0  0
  9 28  1  0  0  0  0
  9 29  1  0  0  0  0
 10 11  1  0  0  0  0
 10 12  2  0  0  0  0
 11 30  1  0  0  0  0
 11 31  1  0  0  0  0
 11 32  1  0  0  0  0
 12 33  1  0  0  0  0
 12 34  1  0  0  0  0
 13 14  1  0  0  0  0
 14 15  1  0  0  0  0
 14 35  1  0  0  0  0
 14 36  1  0  0  0  0
 15 37  1  0  0  0  0
 15 38  1  0  0  0  0
 15 39  1  0  0  0  0
M  END
> <PUBCHEM_COMPOUND_CID>
7781

> <PUBCHEM_CONFORMER_RMSD>
0.8

> <PUBCHEM_CONFORMER_DIVERSEORDER>
2
355
47
369
203
375
415
239
382
62
344
222
13
323
228
212
154
252
386
165
387
231
350
5
407
380
126
396
347
226
378
50
175
320
397
223
156
371
35
230
359
185
200
148
393
214
280
381
197
63
282
285
335
174
255
399
274
49
377
164
257
324
307
304
173
58
289
240
139
88
3
97
29
184
66
130
80
92
294
145
336
143
190
327
266
72
405
158
151
383
325
269
34
11
339
308
19
268
331
162
192
73
287
259
389
198
410
20
144
42
395
163
204
31
180
374
391
99
338
136
140
322
249
85
166
348
237
306
398
46
354
297
196
343
363
276
108
288
171
416
342
75
301
384
199
17
235
358
224
373
90
319
61
290
159
55
98
333
406
119
116
120
83
215
250
271
390
170
86
40
177
125
302
241
244
128
27
202
52
404
234
360
330
89
357
340
211
318
191
414
361
364
349
160
352
321
313
412
210
260
113
95
225
178
362
367
26
317
233
219
48
281
314
365
251
109
183
299
283
168
25
334
328
114
12
101
376
254
401
68
135
8
217
385
277
157
149
132
193
106
296
194
245
176
134
77
248
54
30
4
286
57
368
341
403
123
14
112
84
402
408
105
81
74
167
122
188
104
267
76
102
315
38
201
152
292
82
279
115
37
129
91
263
45
53
187
394
78
388
60
316
146
221
312
181
44
147
291
218
298
409
253
65
261
96
206
208
39
351
10
100
379
311
265
79
258
161
305
309
337
273
70
118
216
59
370
69
169
256
247
205
270
16
33
41
345
93
121
272
138
326
21
413
400
353
310
1
172
64
24
87
142
242
94
117
131
103
23
9
243
36
182
278
107
127
67
411
189
18
372
141
179
262
111
284
51
329
213
356
56
6
246
7
227
15
264
392
22
295
293
137
207
195
110
236
124
150
229
43
155
300
366
232
332
32
209
71
133
238
220
28
153
346
186
303
275

> <PUBCHEM_MMFF94_PARTIAL_CHARGES>
11
1 -0.43
10 -0.28
11 0.14
12 -0.3
13 0.66
14 0.06
2 -0.57
33 0.15
34 0.15
8 0.14
9 0.28

> <PUBCHEM_EFFECTIVE_ROTOR_COUNT>
9

> <PUBCHEM_PHARMACOPHORE_FEATURES>
5
1 15 hydrophobe
1 2 acceptor
1 7 hydrophobe
3 3 4 5 hydrophobe
3 6 8 10 hydrophobe

> <PUBCHEM_HEAVY_ATOM_COUNT>
15

> <PUBCHEM_ATOM_DEF_STEREO_COUNT>
0

> <PUBCHEM_ATOM_UDEF_STEREO_COUNT>
1

> <PUBCHEM_BOND_DEF_STEREO_COUNT>
0

> <PUBCHEM_BOND_UDEF_STEREO_COUNT>
0

> <PUBCHEM_ISOTOPIC_ATOM_COUNT>
0

> <PUBCHEM_COMPONENT_COUNT>
1

> <PUBCHEM_CACTVS_TAUTO_COUNT>
1

> <PUBCHEM_CONFORMER_ID>
00001E6500000002

> <PUBCHEM_MMFF94_ENERGY>
12.5946

> <PUBCHEM_FEATURE_SELFOVERLAP>
25.609

> <PUBCHEM_SHAPE_FINGERPRINT>
12553582 1 18411972542614890843
12757275 245 18050846912474844254
13533116 47 18120090586128248747
138480 1 14880034885631176301
14251705 54 18339923688872593331
14251717 144 18196938760316658787
14251731 5 18410571807619226611
14863182 85 18124873461176363484
14866123 147 18048315849666381073
14916288 52 18410574010995497790
15352361 1 18410857659199357871
15422964 175 18338246972136866948
17859628 97 16899052561520356986
20291156 8 18411135835683071363
20645477 70 17910966746994570161
20671657 53 18409727335876743799
20871998 22 18410857629160980033
21354914 83 18338799038975066830
21634736 98 18272359910964242694
21665056 4 17618506922719603772
2255824 54 17837205970437811477
23530152 11 17187843117255981221
238078 22 18118392072401391948
257057 1 18411420609295281909
4416823 128 18410011048088219470
5207 123 18410018728217797359
7364860 26 18050005493747915673

> <PUBCHEM_SHAPE_MULTIPOLES>
296.95
7.8
4.37
0.75
0.78
2.09
0.02
-9.17
0.28
-0.6
0.26
0.04
0.11
0

> <PUBCHEM_SHAPE_SELFOVERLAP>
551.963

> <PUBCHEM_SHAPE_VOLUME>
186.6

> <PUBCHEM_COORDINATE_TYPE>
2
5
10

$$$$

