4966
  -OEChem-06261200262D

 24 24  0     0  0  0  0  0  0999 V2000
    4.5981    4.0600    0.0000 Br  0  0  0  0  0  0  0  0  0  0  0  0
    3.7320   -1.4400    0.0000 O   0  0  0  0  0  0  0  0  0  0  0  0
    2.8660    3.0600    0.0000 O   0  0  0  0  0  0  0  0  0  0  0  0
    2.0000   -3.4400    0.0000 O   0  0  0  0  0  0  0  0  0  0  0  0
    3.7320   -3.4400    0.0000 O   0  0  0  0  0  0  0  0  0  0  0  0
    3.7320    1.5600    0.0000 C   0  0  0  0  0  0  0  0  0  0  0  0
    3.7320   -0.4400    0.0000 C   0  0  0  0  0  0  0  0  0  0  0  0
    2.8660    1.0600    0.0000 C   0  0  0  0  0  0  0  0  0  0  0  0
    4.5981    1.0600    0.0000 C   0  0  0  0  0  0  0  0  0  0  0  0
    2.8660    0.0600    0.0000 C   0  0  0  0  0  0  0  0  0  0  0  0
    4.5981    0.0600    0.0000 C   0  0  0  0  0  0  0  0  0  0  0  0
    3.7320    2.5600    0.0000 C   0  0  0  0  0  0  0  0  0  0  0  0
    2.8660   -1.9400    0.0000 C   0  0  0  0  0  0  0  0  0  0  0  0
    4.5981    3.0600    0.0000 C   0  0  0  0  0  0  0  0  0  0  0  0
    2.8660   -2.9400    0.0000 C   0  0  0  0  0  0  0  0  0  0  0  0
    2.3291    1.3700    0.0000 H   0  0  0  0  0  0  0  0  0  0  0  0
    5.1350    1.3700    0.0000 H   0  0  0  0  0  0  0  0  0  0  0  0
    2.3291   -0.2500    0.0000 H   0  0  0  0  0  0  0  0  0  0  0  0
    5.1350   -0.2500    0.0000 H   0  0  0  0  0  0  0  0  0  0  0  0
    2.6540   -1.3574    0.0000 H   0  0  0  0  0  0  0  0  0  0  0  0
    2.2554   -2.0477    0.0000 H   0  0  0  0  0  0  0  0  0  0  0  0
    4.8101    2.4774    0.0000 H   0  0  0  0  0  0  0  0  0  0  0  0
    5.2087    3.1677    0.0000 H   0  0  0  0  0  0  0  0  0  0  0  0
    2.0000   -4.0600    0.0000 H   0  0  0  0  0  0  0  0  0  0  0  0
  1 14  1  0  0  0  0
  2  7  1  0  0  0  0
  2 13  1  0  0  0  0
  3 12  2  0  0  0  0
  4 15  1  0  0  0  0
  4 24  1  0  0  0  0
  5 15  2  0  0  0  0
  6  8  2  0  0  0  0
  6  9  1  0  0  0  0
  6 12  1  0  0  0  0
  7 10  2  0  0  0  0
  7 11  1  0  0  0  0
  8 10  1  0  0  0  0
  8 16  1  0  0  0  0
  9 11  2  0  0  0  0
  9 17  1  0  0  0  0
 10 18  1  0  0  0  0
 11 19  1  0  0  0  0
 12 14  1  0  0  0  0
 13 15  1  0  0  0  0
 13 20  1  0  0  0  0
 13 21  1  0  0  0  0
 14 22  1  0  0  0  0
 14 23  1  0  0  0  0
M  END
> <PUBCHEM_COMPOUND_CID>
4966

> <PUBCHEM_COMPOUND_CANONICALIZED>
1

> <PUBCHEM_CACTVS_COMPLEXITY>
234

> <PUBCHEM_CACTVS_HBOND_ACCEPTOR>
4

> <PUBCHEM_CACTVS_HBOND_DONOR>
1

> <PUBCHEM_CACTVS_ROTATABLE_BOND>
5

> <PUBCHEM_CACTVS_SUBSKEYS>
AAADccBwOAAAEAAAAAAAAAAAAAAAAAAAAAAwAAAAAAAAAAABAAAAGgBACAABTASgmAIwDoAABgCIAqDSCAICCAAkIAAIiAFGCOgtJjKENR6COSCkwBELqZeIzIDOIAAAAAAAAABAAAAAAAAAAAAAAAAAAA==

> <PUBCHEM_IUPAC_OPENEYE_NAME>
2-[4-(2-bromoacetyl)phenoxy]acetic acid

> <PUBCHEM_IUPAC_CAS_NAME>
2-[4-(2-bromo-1-oxoethyl)phenoxy]acetic acid

> <PUBCHEM_IUPAC_NAME>
2-[4-(2-bromoacetyl)phenoxy]acetic acid

> <PUBCHEM_IUPAC_SYSTEMATIC_NAME>
2-[4-(2-bromanylethanoyl)phenoxy]ethanoic acid

> <PUBCHEM_IUPAC_TRADITIONAL_NAME>
2-[4-(2-bromoacetyl)phenoxy]acetic acid

> <PUBCHEM_IUPAC_INCHI>
InChI=1S/C10H9BrO4/c11-5-9(12)7-1-3-8(4-2-7)15-6-10(13)14/h1-4H,5-6H2,(H,13,14)

> <PUBCHEM_IUPAC_INCHIKEY>
RLSUZPAAQRBGTM-UHFFFAOYSA-N

> <PUBCHEM_XLOGP3>
1.7

> <PUBCHEM_EXACT_MASS>
271.968421

> <PUBCHEM_MOLECULAR_FORMULA>
C10H9BrO4

> <PUBCHEM_MOLECULAR_WEIGHT>
273.08006

> <PUBCHEM_OPENEYE_CAN_SMILES>
C1=CC(=CC=C1C(=O)CBr)OCC(=O)O

> <PUBCHEM_OPENEYE_ISO_SMILES>
C1=CC(=CC=C1C(=O)CBr)OCC(=O)O

> <PUBCHEM_CACTVS_TPSA>
63.6

> <PUBCHEM_MONOISOTOPIC_WEIGHT>
271.968421

> <PUBCHEM_TOTAL_CHARGE>
0

> <PUBCHEM_HEAVY_ATOM_COUNT>
15

> <PUBCHEM_ATOM_DEF_STEREO_COUNT>
0

> <PUBCHEM_ATOM_UDEF_STEREO_COUNT>
0

> <PUBCHEM_BOND_DEF_STEREO_COUNT>
0

> <PUBCHEM_BOND_UDEF_STEREO_COUNT>
0

> <PUBCHEM_ISOTOPIC_ATOM_COUNT>
0

> <PUBCHEM_COMPONENT_COUNT>
1

> <PUBCHEM_CACTVS_TAUTO_COUNT>
2

> <PUBCHEM_COORDINATE_TYPE>
1
5
255

> <PUBCHEM_BONDANNOTATIONS>
6  8  8
6  9  8
7  10  8
7  11  8
8  10  8
9  11  8

$$$$

