11953838
  -OEChem-07051212493D

 85 87  0     1  0  0  0  0  0999 V2000
   -6.2561    1.9477    1.5606 P   0  0  0  0  0  0  0  0  0  0  0  0
    1.3597   -0.7684   -0.5455 O   0  0  0  0  0  0  0  0  0  0  0  0
    0.5901   -2.1159    1.2190 O   0  0  0  0  0  0  0  0  0  0  0  0
   -2.1149   -1.3970    0.0265 O   0  0  0  0  0  0  0  0  0  0  0  0
   -2.9079   -0.3820   -1.9594 O   0  0  0  0  0  0  0  0  0  0  0  0
    3.2987   -2.5125    0.6276 O   0  0  0  0  0  0  0  0  0  0  0  0
    4.4152    2.9115   -0.1067 O   0  0  0  0  0  0  0  0  0  0  0  0
    5.9819   -1.5886    0.3590 O   0  0  0  0  0  0  0  0  0  0  0  0
   -5.9892    0.7003    0.5724 O   0  0  0  0  0  0  0  0  0  0  0  0
    0.5315   -5.0130   -1.6035 O   0  0  0  0  0  0  0  0  0  0  0  0
   -4.1271    2.6755   -0.3085 O   0  0  0  0  0  0  0  0  0  0  0  0
   -1.2438    1.4149   -3.1900 O   0  0  0  0  0  0  0  0  0  0  0  0
   -7.6679    1.5574    2.2460 O   0  0  0  0  0  0  0  0  0  0  0  0
   -5.1893    1.7293    2.7562 O   0  0  0  0  0  0  0  0  0  0  0  0
   -6.2205    3.2986    0.9078 O   0  0  0  0  0  0  0  0  0  0  0  0
    1.6717    2.0100    0.2180 N   0  0  0  0  0  0  0  0  0  0  0  0
   -4.8043   -1.9978    0.8028 N   0  0  0  0  0  0  0  0  0  0  0  0
    6.3522    1.1854    1.1515 N   0  0  0  0  0  0  0  0  0  0  0  0
    2.1295    3.4338   -1.6618 N   0  0  0  0  0  0  0  0  0  0  0  0
    0.4248    3.9031   -0.2235 N   0  0  0  0  0  0  0  0  0  0  0  0
    8.6356    1.3664    1.4463 N   0  0  0  0  0  0  0  0  0  0  0  0
    7.9213    0.3034   -0.4391 N   0  0  0  0  0  0  0  0  0  0  0  0
   -0.8642   -1.6763   -0.5980 C   0  0  2  0  0  0  0  0  0  0  0  0
   -0.6063   -3.1756   -0.5671 C   0  0  2  0  0  0  0  0  0  0  0  0
    0.2423   -1.1005    0.2691 C   0  0  2  0  0  0  0  0  0  0  0  0
    2.4522   -0.2905    0.2447 C   0  0  2  0  0  0  0  0  0  0  0  0
    0.0542   -3.3822    0.8001 C   0  0  2  0  0  0  0  0  0  0  0  0
    2.7904    1.1385   -0.1827 C   0  0  2  0  0  0  0  0  0  0  0  0
    3.6370   -1.2414    0.0640 C   0  0  1  0  0  0  0  0  0  0  0  0
    4.0623    1.6611    0.4905 C   0  0  1  0  0  0  0  0  0  0  0  0
    4.9076   -0.7242    0.7387 C   0  0  2  0  0  0  0  0  0  0  0  0
    5.2431    0.7047    0.3086 C   0  0  2  0  0  0  0  0  0  0  0  0
   -3.1769   -1.3315   -0.9235 C   0  0  2  0  0  0  0  0  0  0  0  0
   -4.5437   -1.0508   -0.2814 C   0  0  2  0  0  0  0  0  0  0  0  0
   -4.6378    0.3963    0.2207 C   0  0  1  0  0  0  0  0  0  0  0  0
    0.3263   -3.6136   -1.6982 C   0  0  0  0  0  0  0  0  0  0  0  0
   -4.2147    1.3730   -0.8822 C   0  0  2  0  0  0  0  0  0  0  0  0
   -2.8679    0.9706   -1.4948 C   0  0  2  0  0  0  0  0  0  0  0  0
   -0.9253   -3.8507    1.8697 C   0  0  0  0  0  0  0  0  0  0  0  0
   -2.4986    1.8420   -2.6922 C   0  0  0  0  0  0  0  0  0  0  0  0
   -5.1686   -3.3013    0.2709 C   0  0  0  0  0  0  0  0  0  0  0  0
    1.4508    3.0404   -0.5299 C   0  0  0  0  0  0  0  0  0  0  0  0
    7.5465    0.9500    0.7175 C   0  0  0  0  0  0  0  0  0  0  0  0
   -0.8102   -1.2646   -1.6113 H   0  0  0  0  0  0  0  0  0  0  0  0
   -1.5250   -3.7706   -0.6351 H   0  0  0  0  0  0  0  0  0  0  0  0
   -0.0953   -0.2101    0.8126 H   0  0  0  0  0  0  0  0  0  0  0  0
    2.1825   -0.2720    1.3112 H   0  0  0  0  0  0  0  0  0  0  0  0
    0.8823   -4.0978    0.7611 H   0  0  0  0  0  0  0  0  0  0  0  0
    2.9071    1.1195   -1.2732 H   0  0  0  0  0  0  0  0  0  0  0  0
    3.8103   -1.4270   -1.0030 H   0  0  0  0  0  0  0  0  0  0  0  0
    3.8819    1.8512    1.5559 H   0  0  0  0  0  0  0  0  0  0  0  0
    4.8185   -0.7950    1.8295 H   0  0  0  0  0  0  0  0  0  0  0  0
    5.5131    0.7279   -0.7543 H   0  0  0  0  0  0  0  0  0  0  0  0
   -3.2251   -2.3003   -1.4331 H   0  0  0  0  0  0  0  0  0  0  0  0
   -5.3229   -1.1518   -1.0514 H   0  0  0  0  0  0  0  0  0  0  0  0
   -3.9912    0.5200    1.0977 H   0  0  0  0  0  0  0  0  0  0  0  0
   -0.1256   -3.3964   -2.6716 H   0  0  0  0  0  0  0  0  0  0  0  0
    1.3014   -3.1206   -1.6474 H   0  0  0  0  0  0  0  0  0  0  0  0
   -4.9924    1.4080   -1.6551 H   0  0  0  0  0  0  0  0  0  0  0  0
   -2.0632    1.0659   -0.7538 H   0  0  0  0  0  0  0  0  0  0  0  0
   -1.7309   -3.1258    2.0244 H   0  0  0  0  0  0  0  0  0  0  0  0
   -1.3663   -4.8167    1.6064 H   0  0  0  0  0  0  0  0  0  0  0  0
   -0.4125   -3.9531    2.8323 H   0  0  0  0  0  0  0  0  0  0  0  0
   -5.5790   -1.6517    1.3695 H   0  0  0  0  0  0  0  0  0  0  0  0
    3.1158   -2.3817    1.5737 H   0  0  0  0  0  0  0  0  0  0  0  0
    4.6949    2.7438   -1.0225 H   0  0  0  0  0  0  0  0  0  0  0  0
   -2.4252    2.8968   -2.4106 H   0  0  0  0  0  0  0  0  0  0  0  0
   -3.2332    1.7314   -3.4968 H   0  0  0  0  0  0  0  0  0  0  0  0
    6.0015   -1.6399   -0.6116 H   0  0  0  0  0  0  0  0  0  0  0  0
    1.1172   -5.2670   -2.3369 H   0  0  0  0  0  0  0  0  0  0  0  0
   -3.4201    2.6625    0.3591 H   0  0  0  0  0  0  0  0  0  0  0  0
   -4.3388   -3.7831   -0.2537 H   0  0  0  0  0  0  0  0  0  0  0  0
   -6.0365   -3.2464   -0.3946 H   0  0  0  0  0  0  0  0  0  0  0  0
   -5.4368   -3.9616    1.1024 H   0  0  0  0  0  0  0  0  0  0  0  0
   -1.0278    1.9826   -3.9494 H   0  0  0  0  0  0  0  0  0  0  0  0
    2.9182    2.9299   -2.0465 H   0  0  0  0  0  0  0  0  0  0  0  0
    1.8513    4.2716   -2.1621 H   0  0  0  0  0  0  0  0  0  0  0  0
   -0.1693    3.7444    0.5831 H   0  0  0  0  0  0  0  0  0  0  0  0
    0.2274    4.7173   -0.7949 H   0  0  0  0  0  0  0  0  0  0  0  0
    8.5200    1.8586    2.3254 H   0  0  0  0  0  0  0  0  0  0  0  0
    9.5835    1.1941    1.1295 H   0  0  0  0  0  0  0  0  0  0  0  0
    7.2644   -0.0815   -1.1057 H   0  0  0  0  0  0  0  0  0  0  0  0
    8.9033    0.1838   -0.6649 H   0  0  0  0  0  0  0  0  0  0  0  0
   -8.1061    2.2090    2.8338 H   0  0  0  0  0  0  0  0  0  0  0  0
   -5.1203    2.4083    3.4605 H   0  0  0  0  0  0  0  0  0  0  0  0
  1  9  1  0  0  0  0
  1 13  1  0  0  0  0
  1 14  1  0  0  0  0
  1 15  2  0  0  0  0
  2 25  1  0  0  0  0
  2 26  1  0  0  0  0
  3 25  1  0  0  0  0
  3 27  1  0  0  0  0
  4 23  1  0  0  0  0
  4 33  1  0  0  0  0
  5 33  1  0  0  0  0
  5 38  1  0  0  0  0
  6 29  1  0  0  0  0
  6 65  1  0  0  0  0
  7 30  1  0  0  0  0
  7 66  1  0  0  0  0
  8 31  1  0  0  0  0
  8 69  1  0  0  0  0
  9 35  1  0  0  0  0
 10 36  1  0  0  0  0
 10 70  1  0  0  0  0
 11 37  1  0  0  0  0
 11 71  1  0  0  0  0
 12 40  1  0  0  0  0
 12 75  1  0  0  0  0
 13 84  1  0  0  0  0
 14 85  1  0  0  0  0
 16 28  1  0  0  0  0
 16 42  2  0  0  0  0
 17 34  1  0  0  0  0
 17 41  1  0  0  0  0
 17 64  1  0  0  0  0
 18 32  1  0  0  0  0
 18 43  2  0  0  0  0
 19 42  1  0  0  0  0
 19 76  1  0  0  0  0
 19 77  1  0  0  0  0
 20 42  1  0  0  0  0
 20 78  1  0  0  0  0
 20 79  1  0  0  0  0
 21 43  1  0  0  0  0
 21 80  1  0  0  0  0
 21 81  1  0  0  0  0
 22 43  1  0  0  0  0
 22 82  1  0  0  0  0
 22 83  1  0  0  0  0
 23 24  1  0  0  0  0
 23 25  1  0  0  0  0
 23 44  1  0  0  0  0
 24 27  1  0  0  0  0
 24 36  1  0  0  0  0
 24 45  1  0  0  0  0
 25 46  1  0  0  0  0
 26 28  1  0  0  0  0
 26 29  1  0  0  0  0
 26 47  1  0  0  0  0
 27 39  1  0  0  0  0
 27 48  1  0  0  0  0
 28 30  1  0  0  0  0
 28 49  1  0  0  0  0
 29 31  1  0  0  0  0
 29 50  1  0  0  0  0
 30 32  1  0  0  0  0
 30 51  1  0  0  0  0
 31 32  1  0  0  0  0
 31 52  1  0  0  0  0
 32 53  1  0  0  0  0
 33 34  1  0  0  0  0
 33 54  1  0  0  0  0
 34 35  1  0  0  0  0
 34 55  1  0  0  0  0
 35 37  1  0  0  0  0
 35 56  1  0  0  0  0
 36 57  1  0  0  0  0
 36 58  1  0  0  0  0
 37 38  1  0  0  0  0
 37 59  1  0  0  0  0
 38 40  1  0  0  0  0
 38 60  1  0  0  0  0
 39 61  1  0  0  0  0
 39 62  1  0  0  0  0
 39 63  1  0  0  0  0
 40 67  1  0  0  0  0
 40 68  1  0  0  0  0
 41 72  1  0  0  0  0
 41 73  1  0  0  0  0
 41 74  1  0  0  0  0
M  END
> <PUBCHEM_COMPOUND_CID>
11953838

> <PUBCHEM_CONFORMER_RMSD>
1.4

> <PUBCHEM_CONFORMER_DIVERSEORDER>
1
6
34
31
3
5
23
29
24
30
18
2
15
19
11
27
33
32
17
22
13
10
20
8
16
28
25
26
7
21
14
4
9
12

> <PUBCHEM_MMFF94_PARTIAL_CHARGES>
58
1 1.51
10 -0.68
11 -0.68
12 -0.68
13 -0.77
14 -0.77
15 -0.7
16 -0.7
17 -0.9
18 -0.7
19 -0.85
2 -0.56
20 -0.85
21 -0.85
22 -0.85
23 0.28
25 0.56
26 0.28
27 0.28
28 0.25
29 0.28
3 -0.56
30 0.28
31 0.28
32 0.25
33 0.56
34 0.27
35 0.28
36 0.28
37 0.28
38 0.28
4 -0.56
40 0.28
41 0.27
42 0.55
43 0.55
5 -0.56
6 -0.68
64 0.36
65 0.4
66 0.4
69 0.4
7 -0.68
70 0.4
71 0.4
75 0.4
76 0.4
77 0.4
78 0.4
79 0.4
8 -0.68
80 0.4
81 0.4
82 0.4
83 0.4
84 0.5
85 0.5
9 -0.55

> <PUBCHEM_EFFECTIVE_ROTOR_COUNT>
14.4

> <PUBCHEM_PHARMACOPHORE_FEATURES>
31
1 10 acceptor
1 10 donor
1 11 acceptor
1 11 donor
1 12 acceptor
1 12 donor
1 13 acceptor
1 14 acceptor
1 15 acceptor
1 17 cation
1 17 donor
1 19 donor
1 2 acceptor
1 20 donor
1 21 donor
1 22 donor
1 3 acceptor
1 4 acceptor
1 5 acceptor
1 6 acceptor
1 6 donor
1 7 acceptor
1 7 donor
1 8 acceptor
1 8 donor
4 1 13 14 15 anion
4 16 19 20 42 cation
4 18 21 22 43 cation
5 3 23 24 25 27 rings
6 26 28 29 30 31 32 rings
6 5 33 34 35 37 38 rings

> <PUBCHEM_HEAVY_ATOM_COUNT>
43

> <PUBCHEM_ATOM_DEF_STEREO_COUNT>
15

> <PUBCHEM_ATOM_UDEF_STEREO_COUNT>
0

> <PUBCHEM_BOND_DEF_STEREO_COUNT>
0

> <PUBCHEM_BOND_UDEF_STEREO_COUNT>
0

> <PUBCHEM_ISOTOPIC_ATOM_COUNT>
0

> <PUBCHEM_COMPONENT_COUNT>
1

> <PUBCHEM_CACTVS_TAUTO_COUNT>
4

> <PUBCHEM_CONFORMER_ID>
00B666AE00000001

> <PUBCHEM_MMFF94_ENERGY>
102.7476

> <PUBCHEM_FEATURE_SELFOVERLAP>
157.582

> <PUBCHEM_SHAPE_FINGERPRINT>
10305334 12 18334292068268004005
10369192 42 18259985963728681311
10439779 11 18047759204462141872
10906281 52 18410006620852793094
12422481 6 18130782378503415269
12677640 9 18192436268749179055
13782708 43 13973136448524056538
14020679 6 17917996032126510730
14394314 77 18408604764433224496
14765038 42 18335985345680588528
14856354 85 17060060303159929490
15297060 5 18040999557070791232
15444296 121 18271524183348146898
16112460 7 18334572499098501496
19309040 13 17677612137328914647
21033648 144 18200047234349630287
21033648 29 18041013812357481530
21223535 225 17821451265886565120
21756936 100 18187089421012514239
25019877 29 17969496005451908487
392239 28 18201719535906396527
4093350 32 17385722534877060044
5081480 168 17463398766160782191

> <PUBCHEM_SHAPE_MULTIPOLES>
771.73
18.12
5.31
1.97
14.88
2.78
0.53
-11.81
-10.41
-2.51
0.55
-2.65
-0.59
-0.93

> <PUBCHEM_SHAPE_SELFOVERLAP>
1579.097

> <PUBCHEM_SHAPE_VOLUME>
446.8

> <PUBCHEM_COORDINATE_TYPE>
2
5
10

$$$$

