5463
  -OEChem-06261200413D

 36 37  0     1  0  0  0  0  0999 V2000
    3.7518    1.4323    0.5982 P   0  0  0  0  0  0  0  0  0  0  0  0
    0.1504   -1.6011   -0.7510 O   0  0  0  0  0  0  0  0  0  0  0  0
    3.0519   -0.0229    0.6405 O   0  0  0  0  0  0  0  0  0  0  0  0
    1.4844   -4.0416   -0.2524 O   0  0  0  0  0  0  0  0  0  0  0  0
   -1.9152    1.6394   -2.2609 O   0  0  0  0  0  0  0  0  0  0  0  0
    4.6465    1.3913   -0.7483 O   0  0  0  0  0  0  0  0  0  0  0  0
    4.8519    1.3312    1.7790 O   0  0  0  0  0  0  0  0  0  0  0  0
    2.8098    2.5955    0.7074 O   0  0  0  0  0  0  0  0  0  0  0  0
   -5.1999    0.8303    0.8544 O   0  0  0  0  0  0  0  0  0  0  0  0
   -1.4687    0.0846   -0.5772 N   0  0  0  0  0  0  0  0  0  0  0  0
   -3.5444    1.2268   -0.7002 N   0  0  0  0  0  0  0  0  0  0  0  0
    2.1029   -0.3372   -0.3565 C   0  0  2  0  0  0  0  0  0  0  0  0
    0.9262    0.6095   -0.3493 C   0  0  0  0  0  0  0  0  0  0  0  0
    1.4180   -1.6645   -0.0768 C   0  0  2  0  0  0  0  0  0  0  0  0
   -0.1443   -0.2229   -1.0320 C   0  0  1  0  0  0  0  0  0  0  0  0
    2.2042   -2.8644   -0.5729 C   0  0  0  0  0  0  0  0  0  0  0  0
   -1.9501   -0.5655    0.5528 C   0  0  0  0  0  0  0  0  0  0  0  0
   -2.2753    1.0256   -1.2542 C   0  0  0  0  0  0  0  0  0  0  0  0
   -3.1651   -0.3707    1.0802 C   0  0  0  0  0  0  0  0  0  0  0  0
   -4.0727    0.6060    0.4216 C   0  0  0  0  0  0  0  0  0  0  0  0
   -3.6621   -1.0819    2.2976 C   0  0  0  0  0  0  0  0  0  0  0  0
    2.5842   -0.3404   -1.3422 H   0  0  0  0  0  0  0  0  0  0  0  0
    0.6489    0.8770    0.6782 H   0  0  0  0  0  0  0  0  0  0  0  0
    1.1109    1.5428   -0.8897 H   0  0  0  0  0  0  0  0  0  0  0  0
    1.2114   -1.7830    0.9948 H   0  0  0  0  0  0  0  0  0  0  0  0
   -0.0864   -0.0946   -2.1195 H   0  0  0  0  0  0  0  0  0  0  0  0
    3.1964   -2.9187   -0.1147 H   0  0  0  0  0  0  0  0  0  0  0  0
    2.3176   -2.8388   -1.6613 H   0  0  0  0  0  0  0  0  0  0  0  0
   -1.2771   -1.2610    1.0423 H   0  0  0  0  0  0  0  0  0  0  0  0
   -4.1422    1.8999   -1.1716 H   0  0  0  0  0  0  0  0  0  0  0  0
    1.4132   -4.0901    0.7162 H   0  0  0  0  0  0  0  0  0  0  0  0
   -3.9071   -0.3635    3.0867 H   0  0  0  0  0  0  0  0  0  0  0  0
   -2.9166   -1.7760    2.6997 H   0  0  0  0  0  0  0  0  0  0  0  0
   -4.5614   -1.6603    2.0620 H   0  0  0  0  0  0  0  0  0  0  0  0
    5.1252    2.2015   -1.0248 H   0  0  0  0  0  0  0  0  0  0  0  0
    5.3604    2.1335    2.0238 H   0  0  0  0  0  0  0  0  0  0  0  0
  1  3  1  0  0  0  0
  1  6  1  0  0  0  0
  1  7  1  0  0  0  0
  1  8  2  0  0  0  0
  2 14  1  0  0  0  0
  2 15  1  0  0  0  0
  3 12  1  0  0  0  0
  4 16  1  0  0  0  0
  4 31  1  0  0  0  0
  5 18  2  0  0  0  0
  6 35  1  0  0  0  0
  7 36  1  0  0  0  0
  9 20  2  0  0  0  0
 10 15  1  0  0  0  0
 10 17  1  0  0  0  0
 10 18  1  0  0  0  0
 11 18  1  0  0  0  0
 11 20  1  0  0  0  0
 11 30  1  0  0  0  0
 12 13  1  0  0  0  0
 12 14  1  0  0  0  0
 12 22  1  0  0  0  0
 13 15  1  0  0  0  0
 13 23  1  0  0  0  0
 13 24  1  0  0  0  0
 14 16  1  0  0  0  0
 14 25  1  0  0  0  0
 15 26  1  0  0  0  0
 16 27  1  0  0  0  0
 16 28  1  0  0  0  0
 17 19  2  0  0  0  0
 17 29  1  0  0  0  0
 19 20  1  0  0  0  0
 19 21  1  0  0  0  0
 21 32  1  0  0  0  0
 21 33  1  0  0  0  0
 21 34  1  0  0  0  0
M  END
> <PUBCHEM_COMPOUND_CID>
5463

> <PUBCHEM_CONFORMER_RMSD>
0.8

> <PUBCHEM_CONFORMER_DIVERSEORDER>
1
36
72
8
16
10
46
66
57
63
47
37
71
2
23
17
24
68
38
55
15
25
33
20
30
52
54
6
11
4
64
50
29
45
58
13
43
7
69
60
28
44
9
31
42
74
59
18
27
65
40
56
53
14
39
48
70
73
34
19
12
35
62
3
5
21
61
26
22
67
49
41
51
32

> <PUBCHEM_MMFF94_PARTIAL_CHARGES>
25
1 1.51
10 -0.47
11 -0.49
12 0.28
14 0.28
15 0.58
16 0.28
17 -0.04
18 0.69
19 -0.12
2 -0.56
20 0.62
21 0.14
29 0.15
3 -0.55
30 0.37
31 0.4
35 0.5
36 0.5
4 -0.68
5 -0.57
6 -0.77
7 -0.77
8 -0.7
9 -0.57

> <PUBCHEM_EFFECTIVE_ROTOR_COUNT>
5

> <PUBCHEM_PHARMACOPHORE_FEATURES>
12
1 11 donor
1 2 acceptor
1 4 acceptor
1 4 donor
1 5 acceptor
1 6 acceptor
1 7 acceptor
1 8 acceptor
1 9 acceptor
4 1 6 7 8 anion
5 2 12 13 14 15 rings
6 10 11 17 18 19 20 rings

> <PUBCHEM_HEAVY_ATOM_COUNT>
21

> <PUBCHEM_ATOM_DEF_STEREO_COUNT>
0

> <PUBCHEM_ATOM_UDEF_STEREO_COUNT>
3

> <PUBCHEM_BOND_DEF_STEREO_COUNT>
0

> <PUBCHEM_BOND_UDEF_STEREO_COUNT>
0

> <PUBCHEM_ISOTOPIC_ATOM_COUNT>
0

> <PUBCHEM_COMPONENT_COUNT>
1

> <PUBCHEM_CACTVS_TAUTO_COUNT>
3

> <PUBCHEM_CONFORMER_ID>
0000155700000001

> <PUBCHEM_MMFF94_ENERGY>
14.8683

> <PUBCHEM_FEATURE_SELFOVERLAP>
60.932

> <PUBCHEM_SHAPE_FINGERPRINT>
10319926 262 17631747078927774704
10366900 7 18342740689302815729
10498660 4 14346064391348719763
11582403 64 16909248092268358303
11640471 11 17095528404576425945
12390115 104 18044369427530291448
12633257 1 17775286032331747345
12788726 201 17395031846258012118
12892183 10 18264470919530306097
13533116 47 18265323088275936179
13544653 18 12391525173978475292
13583140 156 16915688941595906956
14289901 80 18260831531478374659
14341114 328 17060337388374173200
14787075 74 17533777105326994235
15099037 37 17703790288845797707
15219456 202 18270962461401853527
15342168 16 18259983743272663525
1813 80 12607131784934673162
18186145 218 18041279872965545996
18219364 16 18336555914789987480
18785283 64 18341049701044782142
18915476 22 18338524156488494591
19049666 15 17984426505624881917
19784866 170 18272362066478630165
19784866 34 17968105187708504032
204376 136 18335423417976460162
20600515 1 17203601602079607421
20693207 138 17984971850623934511
20871999 31 6050452526174296673
21120745 212 16970820391621695236
21524375 3 17969793986029153822
21650355 55 17275103891110915789
21731228 192 18338526222837275146
21756936 100 16878215373064932082
22079108 93 17823133437035266739
22943178 12 18058167404810127959
23557571 272 17774996951073054445
23559900 14 17773866682979081191
2748010 2 18129944618940527183
31174 14 18265328593785959415
3729539 64 18119781808081595630
458136 41 18410006646248063710
474 4 18041283175283862824
49207404 50 18343018891355873008
5104073 3 18340476885582806443
6049 1 18057601181912175239
621550 34 18342174492390749877
633830 44 17749391425770411436
6442390 28 18265325123689962334
7808743 9 17979634529647484436
81228 2 17488729225058064437
90316 7 16773800320364215997

> <PUBCHEM_SHAPE_MULTIPOLES>
379.1
9.1
2.83
1.61
0.68
2.71
0.24
-4.78
4.16
-3.07
-0.37
0.93
-0.39
2.02

> <PUBCHEM_SHAPE_SELFOVERLAP>
776.248

> <PUBCHEM_SHAPE_VOLUME>
220.6

> <PUBCHEM_COORDINATE_TYPE>
2
5
10

$$$$

