36636
  -OEChem-07051213053D

 33 37  0     0  0  0  0  0  0999 V2000
   -1.9914   -2.8840   -0.0002 O   0  0  0  0  0  0  0  0  0  0  0  0
    0.3903   -0.0822   -0.0001 C   0  0  0  0  0  0  0  0  0  0  0  0
    1.8016    0.1041   -0.0001 C   0  0  0  0  0  0  0  0  0  0  0  0
   -0.4943    1.0292   -0.0001 C   0  0  0  0  0  0  0  0  0  0  0  0
   -0.1228   -1.3973   -0.0001 C   0  0  0  0  0  0  0  0  0  0  0  0
   -1.9148    0.8039   -0.0001 C   0  0  0  0  0  0  0  0  0  0  0  0
    2.3461    1.4063   -0.0001 C   0  0  0  0  0  0  0  0  0  0  0  0
    2.6741   -1.0115    0.0001 C   0  0  0  0  0  0  0  0  0  0  0  0
   -2.4023   -0.5266   -0.0002 C   0  0  0  0  0  0  0  0  0  0  0  0
   -1.5056   -1.6000   -0.0002 C   0  0  0  0  0  0  0  0  0  0  0  0
    0.0964    2.3136   -0.0001 C   0  0  0  0  0  0  0  0  0  0  0  0
    0.7544   -2.4904    0.0003 C   0  0  0  0  0  0  0  0  0  0  0  0
    1.4812    2.5001   -0.0001 C   0  0  0  0  0  0  0  0  0  0  0  0
    2.1349   -2.3009    0.0002 C   0  0  0  0  0  0  0  0  0  0  0  0
    3.7382    1.5810    0.0000 C   0  0  0  0  0  0  0  0  0  0  0  0
    4.0620   -0.8092    0.0001 C   0  0  0  0  0  0  0  0  0  0  0  0
   -2.8866    1.8369    0.0001 C   0  0  0  0  0  0  0  0  0  0  0  0
   -3.7850   -0.7817   -0.0001 C   0  0  0  0  0  0  0  0  0  0  0  0
    4.5898    0.4795    0.0000 C   0  0  0  0  0  0  0  0  0  0  0  0
   -4.2583    1.5701    0.0003 C   0  0  0  0  0  0  0  0  0  0  0  0
   -4.7078    0.2593    0.0002 C   0  0  0  0  0  0  0  0  0  0  0  0
   -0.5134    3.2134    0.0000 H   0  0  0  0  0  0  0  0  0  0  0  0
    0.4050   -3.5195    0.0184 H   0  0  0  0  0  0  0  0  0  0  0  0
    1.8706    3.5162   -0.0001 H   0  0  0  0  0  0  0  0  0  0  0  0
    2.7838   -3.1743    0.0043 H   0  0  0  0  0  0  0  0  0  0  0  0
    4.1717    2.5789   -0.0001 H   0  0  0  0  0  0  0  0  0  0  0  0
    4.7459   -1.6554    0.0002 H   0  0  0  0  0  0  0  0  0  0  0  0
   -2.5944    2.8839    0.0002 H   0  0  0  0  0  0  0  0  0  0  0  0
   -4.1756   -1.7974   -0.0002 H   0  0  0  0  0  0  0  0  0  0  0  0
    5.6661    0.6253    0.0001 H   0  0  0  0  0  0  0  0  0  0  0  0
   -4.9700    2.3905    0.0005 H   0  0  0  0  0  0  0  0  0  0  0  0
   -5.7723    0.0458    0.0003 H   0  0  0  0  0  0  0  0  0  0  0  0
   -1.4726   -3.4203   -0.6222 H   0  0  0  0  0  0  0  0  0  0  0  0
  1 10  1  0  0  0  0
  1 33  1  0  0  0  0
  2  3  1  0  0  0  0
  2  4  2  0  0  0  0
  2  5  1  0  0  0  0
  3  7  2  0  0  0  0
  3  8  1  0  0  0  0
  4  6  1  0  0  0  0
  4 11  1  0  0  0  0
  5 10  2  0  0  0  0
  5 12  1  0  0  0  0
  6  9  1  0  0  0  0
  6 17  2  0  0  0  0
  7 13  1  0  0  0  0
  7 15  1  0  0  0  0
  8 14  1  0  0  0  0
  8 16  2  0  0  0  0
  9 10  1  0  0  0  0
  9 18  2  0  0  0  0
 11 13  2  0  0  0  0
 11 22  1  0  0  0  0
 12 14  2  0  0  0  0
 12 23  1  0  0  0  0
 13 24  1  0  0  0  0
 14 25  1  0  0  0  0
 15 19  2  0  0  0  0
 15 26  1  0  0  0  0
 16 19  1  0  0  0  0
 16 27  1  0  0  0  0
 17 20  1  0  0  0  0
 17 28  1  0  0  0  0
 18 21  1  0  0  0  0
 18 29  1  0  0  0  0
 19 30  1  0  0  0  0
 20 21  2  0  0  0  0
 20 31  1  0  0  0  0
 21 32  1  0  0  0  0
M  END
> <PUBCHEM_COMPOUND_CID>
36636

> <PUBCHEM_CONFORMER_RMSD>
0.6

> <PUBCHEM_CONFORMER_DIVERSEORDER>
1

> <PUBCHEM_MMFF94_PARTIAL_CHARGES>
25
1 -0.53
10 0.08
11 -0.15
12 -0.15
13 -0.15
14 -0.15
15 -0.15
16 -0.15
17 -0.15
18 -0.15
19 -0.15
20 -0.15
21 -0.15
22 0.15
23 0.15
24 0.15
25 0.15
26 0.15
27 0.15
28 0.15
29 0.15
30 0.15
31 0.15
32 0.15
33 0.45

> <PUBCHEM_EFFECTIVE_ROTOR_COUNT>
0

> <PUBCHEM_PHARMACOPHORE_FEATURES>
6
1 1 donor
6 2 3 4 7 11 13 rings
6 2 3 5 8 12 14 rings
6 2 4 5 6 9 10 rings
6 3 7 8 15 16 19 rings
6 6 9 17 18 20 21 rings

> <PUBCHEM_HEAVY_ATOM_COUNT>
21

> <PUBCHEM_ATOM_DEF_STEREO_COUNT>
0

> <PUBCHEM_ATOM_UDEF_STEREO_COUNT>
0

> <PUBCHEM_BOND_DEF_STEREO_COUNT>
0

> <PUBCHEM_BOND_UDEF_STEREO_COUNT>
0

> <PUBCHEM_ISOTOPIC_ATOM_COUNT>
0

> <PUBCHEM_COMPONENT_COUNT>
1

> <PUBCHEM_CACTVS_TAUTO_COUNT>
3

> <PUBCHEM_CONFORMER_ID>
00008F1C00000001

> <PUBCHEM_MMFF94_ENERGY>
82.6372

> <PUBCHEM_FEATURE_SELFOVERLAP>
30.598

> <PUBCHEM_SHAPE_FINGERPRINT>
10411042 1 16825307226362576391
10616163 171 18338233752317057743
10863032 1 18409167701226514338
10967382 1 18410574028211906886
1100329 8 18410575050678049560
11112241 14 16518243985247322016
11132069 177 18411142420110587888
11471102 20 18410578400388472028
11578080 2 13755778293421849868
12011746 2 18410855490229908484
12236239 1 17749391494700689713
12403814 3 17703794734105502389
12838862 33 18338537294872872808
13132413 78 18408603673257667293
13140716 1 18338801091668760744
138480 1 17834394901241418978
13862211 1 18410861000963359058
14178342 30 18193856846298338210
14790565 3 18411128160650996612
15196674 1 18410575093258294756
15442244 35 18410576201380956186
15536298 74 18334575771662600692
1601671 61 18410855481925004992
16945 1 18410856525322288199
19591789 44 18339079405491499470
200 152 18113341907851938925
20739085 24 17907550847439942185
20905425 154 18192430998834369172
21267235 1 18410283735651812102
21279426 13 18265613380256061692
21421861 104 17843124963551742570
221490 88 18340761542376006131
23227448 37 18408605829552945535
2334 1 18122343484556457604
23402539 116 18333740125540120494
23463225 33 18412545431133268972
23558518 356 17912646795823357586
23559900 14 18334294280318378148
238 59 17623895513522558933
2748010 2 18338232665974908630
335352 9 18338799021863821758
34934 24 18410298012307603434
350125 39 18267016159751337731
3680242 22 18270120252722436410
474 4 18273494559112675793
495365 180 17386017130746822808
5104073 3 18411418422977054955
6138700 20 18338794645735628750
69090 78 18409732859014717343
7364860 26 18336547204448156814
7832392 63 18409452461995845614
9709674 26 18409162203748075063
9981440 41 17333090819720723424

> <PUBCHEM_SHAPE_MULTIPOLES>
426.3
7.98
2.95
0.61
1.75
0.58
0
-1.62
0
-0.25
0
-0.01
-0.01
0

> <PUBCHEM_SHAPE_SELFOVERLAP>
1006.558

> <PUBCHEM_SHAPE_VOLUME>
215.6

> <PUBCHEM_COORDINATE_TYPE>
2
5
10

$$$$

