853926
  -OEChem-06241222463D

 39 41  0     0  0  0  0  0  0999 V2000
    2.3103   -2.9244   -0.0815 S   0  0  0  0  0  0  0  0  0  0  0  0
   -7.3449    1.2100    0.0724 O   0  0  0  0  0  0  0  0  0  0  0  0
   -0.8573    0.9556    0.0477 O   0  0  0  0  0  0  0  0  0  0  0  0
    3.7892   -0.9182   -0.0290 N   0  0  0  0  0  0  0  0  0  0  0  0
   -2.2356   -0.9448   -0.0236 N   0  0  0  0  0  0  0  0  0  0  0  0
    1.3782   -0.4727   -0.0127 N   0  0  0  0  0  0  0  0  0  0  0  0
    4.6281   -2.0127   -0.0328 N   0  0  0  0  0  0  0  0  0  0  0  0
    3.9809   -3.0934   -0.0603 N   0  0  0  0  0  0  0  0  0  0  0  0
    4.4094    0.3675   -0.0136 C   0  0  0  0  0  0  0  0  0  0  0  0
   -3.5395   -0.3948    0.0004 C   0  0  0  0  0  0  0  0  0  0  0  0
    0.1346   -1.2337   -0.0392 C   0  0  0  0  0  0  0  0  0  0  0  0
    2.4440   -1.1882   -0.0382 C   0  0  0  0  0  0  0  0  0  0  0  0
   -4.6331   -1.2438   -0.0309 C   0  0  0  0  0  0  0  0  0  0  0  0
   -3.6937    0.9804    0.0547 C   0  0  0  0  0  0  0  0  0  0  0  0
   -1.0242   -0.2588    0.0012 C   0  0  0  0  0  0  0  0  0  0  0  0
    3.7728    1.4559   -0.6103 C   0  0  0  0  0  0  0  0  0  0  0  0
    5.6512    0.5358    0.5988 C   0  0  0  0  0  0  0  0  0  0  0  0
   -6.0911    0.6813    0.0475 C   0  0  0  0  0  0  0  0  0  0  0  0
   -5.9182   -0.7018   -0.0071 C   0  0  0  0  0  0  0  0  0  0  0  0
   -4.9787    1.5224    0.0786 C   0  0  0  0  0  0  0  0  0  0  0  0
    4.3782    2.7126   -0.5947 C   0  0  0  0  0  0  0  0  0  0  0  0
    6.2566    1.7924    0.6146 C   0  0  0  0  0  0  0  0  0  0  0  0
    5.6200    2.8808    0.0178 C   0  0  0  0  0  0  0  0  0  0  0  0
   -8.4372    0.2926    0.0400 C   0  0  0  0  0  0  0  0  0  0  0  0
    0.0185   -1.8709    0.8474 H   0  0  0  0  0  0  0  0  0  0  0  0
    0.0170   -1.8031   -0.9706 H   0  0  0  0  0  0  0  0  0  0  0  0
   -2.1975   -1.9613   -0.0634 H   0  0  0  0  0  0  0  0  0  0  0  0
   -4.5085   -2.3223   -0.0735 H   0  0  0  0  0  0  0  0  0  0  0  0
   -2.8855    1.6960    0.0815 H   0  0  0  0  0  0  0  0  0  0  0  0
    2.8183    1.3547   -1.1173 H   0  0  0  0  0  0  0  0  0  0  0  0
    6.1649   -0.2915    1.0813 H   0  0  0  0  0  0  0  0  0  0  0  0
   -6.7374   -1.4122   -0.0333 H   0  0  0  0  0  0  0  0  0  0  0  0
   -5.1086    2.6005    0.1215 H   0  0  0  0  0  0  0  0  0  0  0  0
    3.8855    3.5590   -1.0642 H   0  0  0  0  0  0  0  0  0  0  0  0
    7.2225    1.9243    1.0934 H   0  0  0  0  0  0  0  0  0  0  0  0
    6.0917    3.8589    0.0294 H   0  0  0  0  0  0  0  0  0  0  0  0
   -8.4532   -0.2813   -0.8928 H   0  0  0  0  0  0  0  0  0  0  0  0
   -9.3577    0.8850    0.0664 H   0  0  0  0  0  0  0  0  0  0  0  0
   -8.4470   -0.3529    0.9249 H   0  0  0  0  0  0  0  0  0  0  0  0
  1  8  1  0  0  0  0
  1 12  1  0  0  0  0
  2 18  1  0  0  0  0
  2 24  1  0  0  0  0
  3 15  2  0  0  0  0
  4  7  1  0  0  0  0
  4  9  1  0  0  0  0
  4 12  1  0  0  0  0
  5 10  1  0  0  0  0
  5 15  1  0  0  0  0
  5 27  1  0  0  0  0
  6 11  1  0  0  0  0
  6 12  2  0  0  0  0
  7  8  2  0  0  0  0
  9 16  2  0  0  0  0
  9 17  1  0  0  0  0
 10 13  2  0  0  0  0
 10 14  1  0  0  0  0
 11 15  1  0  0  0  0
 11 25  1  0  0  0  0
 11 26  1  0  0  0  0
 13 19  1  0  0  0  0
 13 28  1  0  0  0  0
 14 20  2  0  0  0  0
 14 29  1  0  0  0  0
 16 21  1  0  0  0  0
 16 30  1  0  0  0  0
 17 22  2  0  0  0  0
 17 31  1  0  0  0  0
 18 19  2  0  0  0  0
 18 20  1  0  0  0  0
 19 32  1  0  0  0  0
 20 33  1  0  0  0  0
 21 23  2  0  0  0  0
 21 34  1  0  0  0  0
 22 23  1  0  0  0  0
 22 35  1  0  0  0  0
 23 36  1  0  0  0  0
 24 37  1  0  0  0  0
 24 38  1  0  0  0  0
 24 39  1  0  0  0  0
M  END
> <PUBCHEM_COMPOUND_CID>
853926

> <PUBCHEM_CONFORMER_RMSD>
0.8

> <PUBCHEM_CONFORMER_DIVERSEORDER>
1
12
14
15
10
6
4
13
3
8
9
7
2
5
11

> <PUBCHEM_MMFF94_PARTIAL_CHARGES>
34
1 -0.07
10 0.12
11 0.31
12 0.64
13 -0.15
14 -0.15
15 0.57
16 -0.15
17 -0.15
18 0.08
19 -0.15
2 -0.36
20 -0.15
21 -0.15
22 -0.15
23 -0.15
24 0.28
27 0.37
28 0.15
29 0.15
3 -0.57
30 0.15
31 0.15
32 0.15
33 0.15
34 0.15
35 0.15
36 0.15
4 -0.11
5 -0.55
6 -0.7
7 -0.04
8 -0.07
9 0.1

> <PUBCHEM_EFFECTIVE_ROTOR_COUNT>
6

> <PUBCHEM_PHARMACOPHORE_FEATURES>
7
1 2 acceptor
1 3 acceptor
1 5 donor
3 4 6 12 cation
5 1 4 7 8 12 rings
6 10 13 14 18 19 20 rings
6 9 16 17 21 22 23 rings

> <PUBCHEM_HEAVY_ATOM_COUNT>
24

> <PUBCHEM_ATOM_DEF_STEREO_COUNT>
0

> <PUBCHEM_ATOM_UDEF_STEREO_COUNT>
0

> <PUBCHEM_BOND_DEF_STEREO_COUNT>
0

> <PUBCHEM_BOND_UDEF_STEREO_COUNT>
0

> <PUBCHEM_ISOTOPIC_ATOM_COUNT>
0

> <PUBCHEM_COMPONENT_COUNT>
1

> <PUBCHEM_CACTVS_TAUTO_COUNT>
2

> <PUBCHEM_CONFORMER_ID>
000D07A600000001

> <PUBCHEM_MMFF94_ENERGY>
91.1785

> <PUBCHEM_FEATURE_SELFOVERLAP>
35.52

> <PUBCHEM_SHAPE_FINGERPRINT>
10 15 17988923349453636841
10411042 1 17978510068839788750
10595046 47 18335422361667888383
10835480 77 18413109459613903591
12107183 9 17687459478761415961
125118 31 18272367607598885013
12788726 201 17240474844875545681
13073987 5 18410289238053330249
13167372 99 18410576197434538384
13533116 47 18333733545692459880
14251732 16 18412261710421600931
14251764 18 18113617885850512563
14429380 56 18340780290430525549
14461889 52 18201153252673752075
14528608 73 18408601444322478582
14933364 13 18410572894662294123
15183329 4 18333446530451232393
15419008 145 18200608007161372832
15475509 35 16414932958374452530
155225 6 17985257470545415948
15840311 113 18412259571601461669
16120349 18 18411422800414125925
17810953 82 18412544276520464948
17844677 252 18337948021180458165
18335252 98 18339920425636542955
19427546 62 18411980235302965634
20157964 124 18410291423801319658
20281389 69 18272088336034874797
20715895 44 18411981326345432608
21150785 3 17386008347813028405
21315763 28 18338517542724148619
21315764 268 18271247239224382149
21641784 216 16443054032520217049
21859007 373 17273713129081639237
23081809 10 17821733862255427975
23522609 53 17749932441626702129
23559900 14 18338799026233245890
239999 70 18261389009675843678
245318 6 17557689279855339156
255183 451 17898563439911778198
3004659 81 18262236732950655706
335352 9 18410570683603560574
3411729 13 18413108342996519546
34797466 226 17968088746573565127
397830 11 17988348279397743419
4073 2 18201716211217244123
4325135 7 18408323284997268781
4340502 62 17418377982386906698
444735 82 18272085011445923237
44555599 121 18115580586762555905
445580 126 18335427850757490392
445580 167 18335710417019572773
5104073 3 18272364295846362171
513532 50 18261661633061697494
6328613 192 18334574664278859657

> <PUBCHEM_SHAPE_MULTIPOLES>
461.11
21.49
3
0.66
27.2
0.77
0
-10.65
1.38
-5.99
-0.2
-0.33
-0.1
-0.1

> <PUBCHEM_SHAPE_SELFOVERLAP>
977.837

> <PUBCHEM_SHAPE_VOLUME>
259.3

> <PUBCHEM_COORDINATE_TYPE>
2
5
10

$$$$

