13835
  -OEChem-06241222403D

 16 15  0     0  0  0  0  0  0999 V2000
   -0.1905    0.3518    0.1658 O   0  0  0  0  0  0  0  0  0  0  0  0
    1.2307   -1.4497   -0.1073 O   0  0  0  0  0  0  0  0  0  0  0  0
   -1.3197   -0.5275    0.1946 C   0  0  0  0  0  0  0  0  0  0  0  0
   -2.5578    0.2874    0.3709 C   0  0  0  0  0  0  0  0  0  0  0  0
    1.0177   -0.2532    0.0091 C   0  0  0  0  0  0  0  0  0  0  0  0
    2.0503    0.8035    0.0054 C   0  0  0  0  0  0  0  0  0  0  0  0
   -3.5695    0.3082   -0.5038 C   0  0  0  0  0  0  0  0  0  0  0  0
    3.3388    0.4794   -0.1346 C   0  0  0  0  0  0  0  0  0  0  0  0
   -1.3522   -1.1075   -0.7354 H   0  0  0  0  0  0  0  0  0  0  0  0
   -1.2213   -1.2164    1.0413 H   0  0  0  0  0  0  0  0  0  0  0  0
   -2.6334    0.8937    1.2698 H   0  0  0  0  0  0  0  0  0  0  0  0
    1.7483    1.8389    0.1171 H   0  0  0  0  0  0  0  0  0  0  0  0
   -4.4446    0.9209   -0.3168 H   0  0  0  0  0  0  0  0  0  0  0  0
   -3.5446   -0.2794   -1.4148 H   0  0  0  0  0  0  0  0  0  0  0  0
    4.0966    1.2560   -0.1373 H   0  0  0  0  0  0  0  0  0  0  0  0
    3.6731   -0.5459   -0.2485 H   0  0  0  0  0  0  0  0  0  0  0  0
  1  3  1  0  0  0  0
  1  5  1  0  0  0  0
  2  5  2  0  0  0  0
  3  4  1  0  0  0  0
  3  9  1  0  0  0  0
  3 10  1  0  0  0  0
  4  7  2  0  0  0  0
  4 11  1  0  0  0  0
  5  6  1  0  0  0  0
  6  8  2  0  0  0  0
  6 12  1  0  0  0  0
  7 13  1  0  0  0  0
  7 14  1  0  0  0  0
  8 15  1  0  0  0  0
  8 16  1  0  0  0  0
M  END
> <PUBCHEM_COMPOUND_CID>
13835

> <PUBCHEM_CONFORMER_RMSD>
0.6

> <PUBCHEM_CONFORMER_DIVERSEORDER>
1
15
16
9
22
10
19
14
4
20
7
8
11
12
18
2
21
17
13
3
6
5

> <PUBCHEM_MMFF94_PARTIAL_CHARGES>
14
1 -0.43
11 0.15
12 0.15
13 0.15
14 0.15
15 0.15
16 0.15
2 -0.57
3 0.42
4 -0.29
5 0.71
6 -0.14
7 -0.3
8 -0.3

> <PUBCHEM_EFFECTIVE_ROTOR_COUNT>
4

> <PUBCHEM_PHARMACOPHORE_FEATURES>
3
1 2 acceptor
1 7 hydrophobe
1 8 hydrophobe

> <PUBCHEM_HEAVY_ATOM_COUNT>
8

> <PUBCHEM_ATOM_DEF_STEREO_COUNT>
0

> <PUBCHEM_ATOM_UDEF_STEREO_COUNT>
0

> <PUBCHEM_BOND_DEF_STEREO_COUNT>
0

> <PUBCHEM_BOND_UDEF_STEREO_COUNT>
0

> <PUBCHEM_ISOTOPIC_ATOM_COUNT>
0

> <PUBCHEM_COMPONENT_COUNT>
1

> <PUBCHEM_CACTVS_TAUTO_COUNT>
1

> <PUBCHEM_CONFORMER_ID>
0000360B00000001

> <PUBCHEM_MMFF94_ENERGY>
9.4452

> <PUBCHEM_FEATURE_SELFOVERLAP>
15.223

> <PUBCHEM_SHAPE_FINGERPRINT>
11062470 55 17418376887127826765
12897270 3 18261110759796844697
12932764 1 16950573202844658097
14325111 11 18339078194590251368
14390081 3 18408040706287868025
21293036 1 17095525067376352365
5460574 1 9871751286685991889

> <PUBCHEM_SHAPE_MULTIPOLES>
152.9
5.78
0.99
0.66
1.55
0.24
-0.01
-1.44
-0.66
-0.36
-0.03
0.17
-0.03
0.07

> <PUBCHEM_SHAPE_SELFOVERLAP>
283.634

> <PUBCHEM_SHAPE_VOLUME>
95.7

> <PUBCHEM_COORDINATE_TYPE>
2
5
10

$$$$

