2724361
  -OEChem-07051213093D

 36 40  0     1  0  0  0  0  0999 V2000
    3.6424    1.2443   -0.3194 O   0  0  0  0  0  0  0  0  0  0  0  0
    4.9974   -0.5222    0.5484 O   0  0  0  0  0  0  0  0  0  0  0  0
   -0.0330   -1.6734   -0.3429 O   0  0  0  0  0  0  0  0  0  0  0  0
   -0.6843    3.1286    0.2305 O   0  0  0  0  0  0  0  0  0  0  0  0
   -4.6230   -0.1689    0.4225 O   0  0  0  0  0  0  0  0  0  0  0  0
   -1.7579   -3.1404   -0.5001 O   0  0  0  0  0  0  0  0  0  0  0  0
   -4.2703   -2.1780   -0.5252 O   0  0  0  0  0  0  0  0  0  0  0  0
    2.8957   -1.0844   -0.5386 C   0  0  1  0  0  0  0  0  0  0  0  0
    1.7876   -0.1335   -0.2990 C   0  0  0  0  0  0  0  0  0  0  0  0
    4.1009   -0.1169   -0.5134 C   0  0  1  0  0  0  0  0  0  0  0  0
    2.2827    1.1520   -0.1970 C   0  0  0  0  0  0  0  0  0  0  0  0
    0.4231   -0.3583   -0.1954 C   0  0  0  0  0  0  0  0  0  0  0  0
   -0.4628    0.6949    0.0288 C   0  0  0  0  0  0  0  0  0  0  0  0
    3.2236   -1.9912    0.5813 C   0  0  0  0  0  0  0  0  0  0  0  0
   -1.8992    0.3851    0.1397 C   0  0  0  0  0  0  0  0  0  0  0  0
    0.0730    1.9980    0.1171 C   0  0  0  0  0  0  0  0  0  0  0  0
    1.4496    2.2330    0.0078 C   0  0  0  0  0  0  0  0  0  0  0  0
   -2.8633    1.4874    0.4775 C   0  0  0  0  0  0  0  0  0  0  0  0
   -2.3358   -0.8750   -0.0506 C   0  0  0  0  0  0  0  0  0  0  0  0
    4.3854   -1.6215    1.1058 C   0  0  0  0  0  0  0  0  0  0  0  0
   -4.0624    0.9013    1.1902 C   0  0  0  0  0  0  0  0  0  0  0  0
   -1.3826   -1.9862   -0.3214 C   0  0  0  0  0  0  0  0  0  0  0  0
   -3.8073   -1.1390   -0.0649 C   0  0  0  0  0  0  0  0  0  0  0  0
   -1.0799    3.7641   -0.9818 C   0  0  0  0  0  0  0  0  0  0  0  0
    2.8070   -1.5985   -1.5002 H   0  0  0  0  0  0  0  0  0  0  0  0
    4.6605   -0.1535   -1.4565 H   0  0  0  0  0  0  0  0  0  0  0  0
    2.6288   -2.8297    0.9095 H   0  0  0  0  0  0  0  0  0  0  0  0
    1.8542    3.2385    0.0694 H   0  0  0  0  0  0  0  0  0  0  0  0
   -2.4583    2.2138    1.1844 H   0  0  0  0  0  0  0  0  0  0  0  0
   -3.1816    1.9925   -0.4404 H   0  0  0  0  0  0  0  0  0  0  0  0
    4.9178   -2.0687    1.9262 H   0  0  0  0  0  0  0  0  0  0  0  0
   -3.8075    0.5201    2.1867 H   0  0  0  0  0  0  0  0  0  0  0  0
   -4.8380    1.6638    1.3166 H   0  0  0  0  0  0  0  0  0  0  0  0
   -1.9154    4.4345   -0.7624 H   0  0  0  0  0  0  0  0  0  0  0  0
   -0.2500    4.3595   -1.3749 H   0  0  0  0  0  0  0  0  0  0  0  0
   -1.3997    3.0373   -1.7358 H   0  0  0  0  0  0  0  0  0  0  0  0
  1 10  1  0  0  0  0
  1 11  1  0  0  0  0
  2 10  1  0  0  0  0
  2 20  1  0  0  0  0
  3 12  1  0  0  0  0
  3 22  1  0  0  0  0
  4 16  1  0  0  0  0
  4 24  1  0  0  0  0
  5 21  1  0  0  0  0
  5 23  1  0  0  0  0
  6 22  2  0  0  0  0
  7 23  2  0  0  0  0
  8  9  1  0  0  0  0
  8 10  1  0  0  0  0
  8 14  1  0  0  0  0
  8 25  1  0  0  0  0
  9 11  1  0  0  0  0
  9 12  2  0  0  0  0
 10 26  1  0  0  0  0
 11 17  2  0  0  0  0
 12 13  1  0  0  0  0
 13 15  1  0  0  0  0
 13 16  2  0  0  0  0
 14 20  2  0  0  0  0
 14 27  1  0  0  0  0
 15 18  1  0  0  0  0
 15 19  2  0  0  0  0
 16 17  1  0  0  0  0
 17 28  1  0  0  0  0
 18 21  1  0  0  0  0
 18 29  1  0  0  0  0
 18 30  1  0  0  0  0
 19 22  1  0  0  0  0
 19 23  1  0  0  0  0
 20 31  1  0  0  0  0
 21 32  1  0  0  0  0
 21 33  1  0  0  0  0
 24 34  1  0  0  0  0
 24 35  1  0  0  0  0
 24 36  1  0  0  0  0
M  END
> <PUBCHEM_COMPOUND_CID>
2724361

> <PUBCHEM_CONFORMER_RMSD>
0.6

> <PUBCHEM_CONFORMER_DIVERSEORDER>
1
2

> <PUBCHEM_MMFF94_PARTIAL_CHARGES>
27
1 -0.36
10 0.56
11 0.08
12 0.08
13 0.03
14 -0.29
15 -0.17
16 0.08
17 -0.15
18 0.14
19 0.03
2 -0.36
20 -0.07
21 0.28
22 0.71
23 0.71
24 0.28
27 0.15
28 0.15
3 -0.23
31 0.15
4 -0.36
5 -0.43
6 -0.57
7 -0.57
8 0.28
9 -0.14

> <PUBCHEM_EFFECTIVE_ROTOR_COUNT>
2

> <PUBCHEM_PHARMACOPHORE_FEATURES>
11
1 1 acceptor
1 19 anion
1 2 acceptor
1 4 acceptor
1 6 acceptor
1 7 acceptor
5 1 8 9 10 11 rings
5 2 8 10 14 20 rings
6 3 12 13 15 19 22 rings
6 5 15 18 19 21 23 rings
6 9 11 12 13 16 17 rings

> <PUBCHEM_HEAVY_ATOM_COUNT>
24

> <PUBCHEM_ATOM_DEF_STEREO_COUNT>
2

> <PUBCHEM_ATOM_UDEF_STEREO_COUNT>
0

> <PUBCHEM_BOND_DEF_STEREO_COUNT>
0

> <PUBCHEM_BOND_UDEF_STEREO_COUNT>
0

> <PUBCHEM_ISOTOPIC_ATOM_COUNT>
0

> <PUBCHEM_COMPONENT_COUNT>
1

> <PUBCHEM_CACTVS_TAUTO_COUNT>
1

> <PUBCHEM_CONFORMER_ID>
0029920900000001

> <PUBCHEM_MMFF94_ENERGY>
95.6602

> <PUBCHEM_FEATURE_SELFOVERLAP>
56.524

> <PUBCHEM_SHAPE_FINGERPRINT>
10062212 137 18261112954852369007
10319926 262 18119553144107087530
10616163 171 18263075522546130902
10688039 33 18059851792352748381
10967382 1 18337669689861306461
11132069 177 18187924044536794979
11578080 2 17845397512511372580
12403814 3 18342173414354218201
12422481 6 17834933627943171729
12553582 1 18410293614345436558
12633257 1 18187355571361374649
12788726 201 18341889736312161306
13004483 165 18342466958041214096
13140716 1 18409165480765397802
13692114 37 17907602546299348909
138480 1 15384157642646454749
14178342 30 17758409478053893344
14790565 3 18192135200084613425
15042514 8 18410570708234309859
15196674 1 18408601435537267493
15375462 189 18201720682330569850
15442244 35 18336544919673397823
16728300 4 17341265022921223755
16752209 62 18197231444899724496
16945 1 18337954596944278036
17349148 13 18040998397725214799
17492 89 18269557315744243506
1813 80 17561084704910593572
19591789 44 18193269921579013863
20028762 73 18040997285677566375
20261772 1 18337099163596098795
20510252 161 18116432742221980360
20715895 44 17981893248252492253
21029758 27 18341602694873393749
21267235 1 18410282602081275790
21421861 104 18201444705291540162
22182313 1 17831292070721148389
2334 1 18265049145880500213
23366157 5 18055354634854626692
23402539 116 18261117378578915903
23419403 2 14857864951585924310
23559900 14 18188209793328127824
3091708 16 9208707300730946704
3178227 256 18339626894796993339
335352 9 18409164416220053055
34934 24 18337391522431380876
350125 39 18335978706272831985
352729 6 17834116725005060252
4409770 3 18127140890202173709
5104073 3 18335134250813660539
7064713 232 18041272287604889393
7164475 11 18270680982473092980
7471813 234 17609236570850383439
9709674 26 18261663796834463046

> <PUBCHEM_SHAPE_MULTIPOLES>
452.82
8.56
3.43
0.86
2.16
1.6
0.09
-3.74
1.73
-1.59
-0.66
0.01
0.02
-0.92

> <PUBCHEM_SHAPE_SELFOVERLAP>
1035.791

> <PUBCHEM_SHAPE_VOLUME>
232.6

> <PUBCHEM_COORDINATE_TYPE>
2
5
10

$$$$

