441746
  -OEChem-07051212552D

 74 79  0     1  0  0  0  0  0999 V2000
    4.3739   -1.7307    0.0000 O   0  0  0  0  0  0  0  0  0  0  0  0
    3.9326   -0.8926    0.0000 O   0  0  0  0  0  0  0  0  0  0  0  0
    5.4502   -2.0614    0.0000 O   0  0  0  0  0  0  0  0  0  0  0  0
    7.2728    1.7004    0.0000 O   0  0  0  0  0  0  0  0  0  0  0  0
    3.5560    1.2745    0.0000 O   0  0  0  0  0  0  0  0  0  0  0  0
    3.1552    2.1583    0.0000 O   0  0  0  0  0  0  0  0  0  0  0  0
    8.1389   -2.5348    0.0000 O   0  0  0  0  0  0  0  0  0  0  0  0
    8.4682   -0.1287    0.0000 N   0  0  3  0  0  0  0  0  0  0  0  0
    6.5215    0.2666    0.0000 C   0  0  2  0  0  0  0  0  0  0  0  0
    6.5215   -0.6010    0.0000 C   0  0  2  0  0  0  0  0  0  0  0  0
    7.5235    0.1605    0.0000 C   0  0  3  0  0  0  0  0  0  0  0  0
    5.8432    0.8075    0.0000 C   0  0  1  0  0  0  0  0  0  0  0  0
    4.9974   -0.9489    0.0000 C   0  0  2  0  0  0  0  0  0  0  0  0
    4.9974    0.6144    0.0000 C   0  0  1  0  0  0  0  0  0  0  0  0
    4.6210   -0.1672    0.0000 C   0  0  1  0  0  0  0  0  0  0  0  0
    5.8432   -1.1419    0.0000 C   0  0  1  0  0  0  0  0  0  0  0  0
    7.2728   -1.0348    0.0000 C   0  0  2  0  0  0  0  0  0  0  0  0
    7.2728    0.7004    0.0000 C   0  0  2  0  0  0  0  0  0  0  0  0
    5.9210    1.6716    0.0000 C   0  0  0  0  0  0  0  0  0  0  0  0
    5.1232    2.0126    0.0000 C   0  0  1  0  0  0  0  0  0  0  0  0
    4.5524    1.3592    0.0000 C   0  0  2  0  0  0  0  0  0  0  0  0
    3.9760    0.1027    0.0000 C   0  0  0  0  0  0  0  0  0  0  0  0
    8.4682   -0.8806    0.0000 C   0  0  0  0  0  0  0  0  0  0  0  0
    8.0242   -0.6010    0.0000 C   0  0  0  0  0  0  0  0  0  0  0  0
    3.9760    1.5872    0.0000 C   0  0  2  0  0  0  0  0  0  0  0  0
    8.0242    0.2666    0.0000 C   0  0  0  0  0  0  0  0  0  0  0  0
    7.2728   -2.0348    0.0000 C   0  0  0  0  0  0  0  0  0  0  0  0
    9.2721    0.4660    0.0000 C   0  0  0  0  0  0  0  0  0  0  0  0
    6.0500   -2.8616    0.0000 C   0  0  0  0  0  0  0  0  0  0  0  0
   10.1891    0.0671    0.0000 C   0  0  0  0  0  0  0  0  0  0  0  0
    8.1389    2.2004    0.0000 C   0  0  0  0  0  0  0  0  0  0  0  0
    3.1311    0.3693    0.0000 C   0  0  0  0  0  0  0  0  0  0  0  0
    3.2393    3.1548    0.0000 C   0  0  0  0  0  0  0  0  0  0  0  0
    6.5850   -1.4486    0.0000 H   0  0  0  0  0  0  0  0  0  0  0  0
    7.6474    0.7680    0.0000 H   0  0  0  0  0  0  0  0  0  0  0  0
    6.6248    1.1416    0.0000 H   0  0  0  0  0  0  0  0  0  0  0  0
    4.1482    0.5763    0.0000 H   0  0  0  0  0  0  0  0  0  0  0  0
    6.0436   -1.7286    0.0000 H   0  0  0  0  0  0  0  0  0  0  0  0
    6.7359    1.0104    0.0000 H   0  0  0  0  0  0  0  0  0  0  0  0
    6.1037    2.2640    0.0000 H   0  0  0  0  0  0  0  0  0  0  0  0
    6.5293    1.5518    0.0000 H   0  0  0  0  0  0  0  0  0  0  0  0
    5.1440    2.8623    0.0000 H   0  0  0  0  0  0  0  0  0  0  0  0
    4.2723    1.9123    0.0000 H   0  0  0  0  0  0  0  0  0  0  0  0
    3.8141   -0.4958    0.0000 H   0  0  0  0  0  0  0  0  0  0  0  0
    3.3614    0.1844    0.0000 H   0  0  0  0  0  0  0  0  0  0  0  0
    9.0876   -0.8540    0.0000 H   0  0  0  0  0  0  0  0  0  0  0  0
    8.5211   -1.4983    0.0000 H   0  0  0  0  0  0  0  0  0  0  0  0
    8.6348   -0.4933    0.0000 H   0  0  0  0  0  0  0  0  0  0  0  0
    8.2362   -1.1836    0.0000 H   0  0  0  0  0  0  0  0  0  0  0  0
    4.0542    2.2023    0.0000 H   0  0  0  0  0  0  0  0  0  0  0  0
    8.2362    0.8492    0.0000 H   0  0  0  0  0  0  0  0  0  0  0  0
    8.6348    0.1589    0.0000 H   0  0  0  0  0  0  0  0  0  0  0  0
    7.0608   -2.6174    0.0000 H   0  0  0  0  0  0  0  0  0  0  0  0
    6.6623   -1.9271    0.0000 H   0  0  0  0  0  0  0  0  0  0  0  0
    4.6004   -2.3078    0.0000 H   0  0  0  0  0  0  0  0  0  0  0  0
    3.3297   -0.7479    0.0000 H   0  0  0  0  0  0  0  0  0  0  0  0
    8.8225    0.8929    0.0000 H   0  0  0  0  0  0  0  0  0  0  0  0
    9.6144    0.9830    0.0000 H   0  0  0  0  0  0  0  0  0  0  0  0
    6.5461   -2.4897    0.0000 H   0  0  0  0  0  0  0  0  0  0  0  0
    6.4219   -3.3577    0.0000 H   0  0  0  0  0  0  0  0  0  0  0  0
    5.5539   -3.2335    0.0000 H   0  0  0  0  0  0  0  0  0  0  0  0
   10.4364    0.6356    0.0000 H   0  0  0  0  0  0  0  0  0  0  0  0
   10.7577   -0.1802    0.0000 H   0  0  0  0  0  0  0  0  0  0  0  0
    9.9418   -0.5014    0.0000 H   0  0  0  0  0  0  0  0  0  0  0  0
    8.1389   -3.1548    0.0000 H   0  0  0  0  0  0  0  0  0  0  0  0
    7.8289    2.7373    0.0000 H   0  0  0  0  0  0  0  0  0  0  0  0
    8.6758    2.5104    0.0000 H   0  0  0  0  0  0  0  0  0  0  0  0
    8.4489    1.6634    0.0000 H   0  0  0  0  0  0  0  0  0  0  0  0
    3.6924    0.1059    0.0000 H   0  0  0  0  0  0  0  0  0  0  0  0
    2.8677   -0.1920    0.0000 H   0  0  0  0  0  0  0  0  0  0  0  0
    2.5699    0.6327    0.0000 H   0  0  0  0  0  0  0  0  0  0  0  0
    2.6215    3.2070    0.0000 H   0  0  0  0  0  0  0  0  0  0  0  0
    3.2915    3.7726    0.0000 H   0  0  0  0  0  0  0  0  0  0  0  0
    3.8571    3.1026    0.0000 H   0  0  0  0  0  0  0  0  0  0  0  0
 13  1  1  1  0  0  0
  1 55  1  0  0  0  0
 15  2  1  6  0  0  0
  2 56  1  0  0  0  0
 16  3  1  6  0  0  0
  3 29  1  0  0  0  0
 18  4  1  1  0  0  0
  4 31  1  0  0  0  0
 21  5  1  1  0  0  0
  5 32  1  0  0  0  0
 25  6  1  6  0  0  0
  6 33  1  0  0  0  0
  7 27  1  0  0  0  0
  7 65  1  0  0  0  0
  8 11  1  0  0  0  0
  8 23  1  0  0  0  0
  8 28  1  0  0  0  0
  9 10  1  0  0  0  0
  9 11  1  0  0  0  0
  9 12  1  0  0  0  0
  9 18  1  6  0  0  0
 10 16  1  0  0  0  0
 10 17  1  0  0  0  0
 10 34  1  6  0  0  0
 11 13  1  0  0  0  0
 11 35  1  0  0  0  0
 12 14  1  0  0  0  0
 12 19  1  0  0  0  0
 12 36  1  6  0  0  0
 13 15  1  0  0  0  0
 13 16  1  0  0  0  0
 14 15  1  0  0  0  0
 14 21  1  0  0  0  0
 14 37  1  6  0  0  0
 15 22  1  0  0  0  0
 16 38  1  0  0  0  0
 17 23  1  0  0  0  0
 17 24  1  0  0  0  0
 17 27  1  6  0  0  0
 18 26  1  0  0  0  0
 18 39  1  0  0  0  0
 19 20  1  0  0  0  0
 19 40  1  0  0  0  0
 19 41  1  0  0  0  0
 20 21  1  0  0  0  0
 20 25  1  0  0  0  0
 20 42  1  6  0  0  0
 21 43  1  0  0  0  0
 22 25  1  0  0  0  0
 22 44  1  0  0  0  0
 22 45  1  0  0  0  0
 23 46  1  0  0  0  0
 23 47  1  0  0  0  0
 24 26  1  0  0  0  0
 24 48  1  0  0  0  0
 24 49  1  0  0  0  0
 25 50  1  0  0  0  0
 26 51  1  0  0  0  0
 26 52  1  0  0  0  0
 27 53  1  0  0  0  0
 27 54  1  0  0  0  0
 28 30  1  0  0  0  0
 28 57  1  0  0  0  0
 28 58  1  0  0  0  0
 29 59  1  0  0  0  0
 29 60  1  0  0  0  0
 29 61  1  0  0  0  0
 30 62  1  0  0  0  0
 30 63  1  0  0  0  0
 30 64  1  0  0  0  0
 31 66  1  0  0  0  0
 31 67  1  0  0  0  0
 31 68  1  0  0  0  0
 32 69  1  0  0  0  0
 32 70  1  0  0  0  0
 32 71  1  0  0  0  0
 33 72  1  0  0  0  0
 33 73  1  0  0  0  0
 33 74  1  0  0  0  0
M  END
> <PUBCHEM_COMPOUND_CID>
441746

> <PUBCHEM_COMPOUND_CANONICALIZED>
1

> <PUBCHEM_CACTVS_COMPLEXITY>
814

> <PUBCHEM_CACTVS_HBOND_ACCEPTOR>
8

> <PUBCHEM_CACTVS_HBOND_DONOR>
3

> <PUBCHEM_CACTVS_ROTATABLE_BOND>
6

> <PUBCHEM_CACTVS_SUBSKEYS>
AAADcfB6OAAAAAAAAAAAAAAAAAAAAYMAAAA8YMEAB4gWAGAAAAAAHgAACAAAD3zhgAYCAAMABgAAAAAAAAAAAAAAAAAAAAAIAAADEAIAgAAEQAAHAACTAAHw8P8PgAAAAAAAAADQAAaUADSgAaEADSgAAA==

> <PUBCHEM_IUPAC_INCHI>
InChI=1S/C25H41NO7/c1-6-26-11-22(12-27)8-7-16(31-3)24-14-9-13-15(30-2)10-23(28,17(14)18(13)32-4)25(29,21(24)26)20(33-5)19(22)24/h13-21,27-29H,6-12H2,1-5H3/t13-,14-,15+,16+,17-,18+,19-,20+,21?,22+,23-,24+,25-/m1/s1

> <PUBCHEM_IUPAC_INCHIKEY>
YOTUXHIWBVZAJQ-YAEAOFIFSA-N

> <PUBCHEM_XLOGP3_AA>
-0.6

> <PUBCHEM_EXACT_MASS>
467.288303

> <PUBCHEM_MOLECULAR_FORMULA>
C25H41NO7

> <PUBCHEM_MOLECULAR_WEIGHT>
467.59554

> <PUBCHEM_OPENEYE_CAN_SMILES>
CCN1CC2(CCC(C34C2C(C(C31)(C5(CC(C6CC4C5C6OC)OC)O)O)OC)OC)CO

> <PUBCHEM_OPENEYE_ISO_SMILES>
CCN1C[C@@]2(CC[C@@H]([C@@]34[C@@H]2[C@@H]([C@@](C31)([C@]5(C[C@@H]([C@H]6C[C@@H]4[C@@H]5[C@H]6OC)OC)O)O)OC)OC)CO

> <PUBCHEM_CACTVS_TPSA>
101

> <PUBCHEM_MONOISOTOPIC_WEIGHT>
467.288303

> <PUBCHEM_TOTAL_CHARGE>
0

> <PUBCHEM_HEAVY_ATOM_COUNT>
33

> <PUBCHEM_ATOM_DEF_STEREO_COUNT>
12

> <PUBCHEM_ATOM_UDEF_STEREO_COUNT>
1

> <PUBCHEM_BOND_DEF_STEREO_COUNT>
0

> <PUBCHEM_BOND_UDEF_STEREO_COUNT>
0

> <PUBCHEM_ISOTOPIC_ATOM_COUNT>
0

> <PUBCHEM_COMPONENT_COUNT>
1

> <PUBCHEM_CACTVS_TAUTO_COUNT>
1

> <PUBCHEM_COORDINATE_TYPE>
1
5
255

> <PUBCHEM_BONDANNOTATIONS>
13  1  5
10  34  6
12  36  6
14  37  6
17  27  6
15  2  6
20  42  6
16  3  6
18  4  5
21  5  5
25  6  6
11  8  3
9  18  6

$$$$

