439582
  -OEChem-07051212463D

 69 71  0     1  0  0  0  0  0999 V2000
   -1.2820   -0.3887   -0.5410 O   0  0  0  0  0  0  0  0  0  0  0  0
    1.3562   -0.9263    0.4069 O   0  0  0  0  0  0  0  0  0  0  0  0
    0.0977   -3.4731   -1.8796 O   0  0  0  0  0  0  0  0  0  0  0  0
   -3.4527    0.4156   -1.0313 O   0  0  0  0  0  0  0  0  0  0  0  0
    3.6404   -0.5266   -0.0786 O   0  0  0  0  0  0  0  0  0  0  0  0
    1.7452   -0.0449    3.0072 O   0  0  0  0  0  0  0  0  0  0  0  0
   -1.3526    3.9473   -0.5803 O   0  0  0  0  0  0  0  0  0  0  0  0
    3.0782    3.0989   -0.4104 O   0  0  0  0  0  0  0  0  0  0  0  0
   -3.1809    3.1050    1.4724 O   0  0  0  0  0  0  0  0  0  0  0  0
    4.3793   -0.2685   -2.6915 O   0  0  0  0  0  0  0  0  0  0  0  0
   -5.5109   -0.3712    0.5802 O   0  0  0  0  0  0  0  0  0  0  0  0
   -2.2580   -3.9221   -0.0891 N   0  0  0  0  0  0  0  0  0  0  0  0
    0.5622   -4.4938    0.9213 N   0  0  0  0  0  0  0  0  0  0  0  0
   -0.1385    1.7493   -2.0490 N   0  0  0  0  0  0  0  0  0  0  0  0
    2.6800    2.6996    2.4349 N   0  0  0  0  0  0  0  0  0  0  0  0
   -1.2925   -1.7807   -0.8654 C   0  0  1  0  0  0  0  0  0  0  0  0
    1.0789   -2.2641   -0.0130 C   0  0  2  0  0  0  0  0  0  0  0  0
    0.1396   -2.2064   -1.2303 C   0  0  1  0  0  0  0  0  0  0  0  0
   -1.8919   -2.5653    0.3175 C   0  0  2  0  0  0  0  0  0  0  0  0
    0.5043   -3.0539    1.1784 C   0  0  1  0  0  0  0  0  0  0  0  0
   -0.9255   -2.5902    1.5157 C   0  0  0  0  0  0  0  0  0  0  0  0
   -2.0860    0.3590   -1.4510 C   0  0  1  0  0  0  0  0  0  0  0  0
    2.6767   -0.8140    0.9349 C   0  0  1  0  0  0  0  0  0  0  0  0
   -1.5380    1.7810   -1.6222 C   0  0  1  0  0  0  0  0  0  0  0  0
    2.7255    0.2617    2.0221 C   0  0  1  0  0  0  0  0  0  0  0  0
    2.4873    1.6541    1.4230 C   0  0  2  0  0  0  0  0  0  0  0  0
   -1.6865    2.5818   -0.3239 C   0  0  2  0  0  0  0  0  0  0  0  0
    3.4525    1.8922    0.2499 C   0  0  1  0  0  0  0  0  0  0  0  0
   -3.1343    2.5159    0.1750 C   0  0  1  0  0  0  0  0  0  0  0  0
    3.4104    0.7204   -0.7440 C   0  0  1  0  0  0  0  0  0  0  0  0
   -3.6367    1.0681    0.2298 C   0  0  1  0  0  0  0  0  0  0  0  0
    4.4775    0.8491   -1.8280 C   0  0  0  0  0  0  0  0  0  0  0  0
   -5.1249    0.9907    0.5595 C   0  0  0  0  0  0  0  0  0  0  0  0
   -1.9394   -1.9728   -1.7331 H   0  0  0  0  0  0  0  0  0  0  0  0
    2.0112   -2.7402   -0.3511 H   0  0  0  0  0  0  0  0  0  0  0  0
    0.5517   -1.4842   -1.9466 H   0  0  0  0  0  0  0  0  0  0  0  0
   -2.8091   -2.0620    0.6476 H   0  0  0  0  0  0  0  0  0  0  0  0
    1.1132   -2.8673    2.0707 H   0  0  0  0  0  0  0  0  0  0  0  0
   -1.3411   -3.2095    2.3221 H   0  0  0  0  0  0  0  0  0  0  0  0
   -0.8680   -1.5743    1.9307 H   0  0  0  0  0  0  0  0  0  0  0  0
   -2.0744   -0.1011   -2.4480 H   0  0  0  0  0  0  0  0  0  0  0  0
    2.9766   -1.7595    1.4038 H   0  0  0  0  0  0  0  0  0  0  0  0
   -2.1166    2.2878   -2.4063 H   0  0  0  0  0  0  0  0  0  0  0  0
    3.7128    0.2440    2.5024 H   0  0  0  0  0  0  0  0  0  0  0  0
    1.4479    1.7381    1.0807 H   0  0  0  0  0  0  0  0  0  0  0  0
   -0.9976    2.2228    0.4502 H   0  0  0  0  0  0  0  0  0  0  0  0
    4.4746    2.0138    0.6310 H   0  0  0  0  0  0  0  0  0  0  0  0
   -3.7758    3.1180   -0.4799 H   0  0  0  0  0  0  0  0  0  0  0  0
    2.4360    0.6699   -1.2450 H   0  0  0  0  0  0  0  0  0  0  0  0
   -3.0968    0.5004    0.9990 H   0  0  0  0  0  0  0  0  0  0  0  0
   -2.6930   -4.4094    0.6931 H   0  0  0  0  0  0  0  0  0  0  0  0
   -2.9575   -3.8827   -0.8291 H   0  0  0  0  0  0  0  0  0  0  0  0
    1.5313   -4.7805    0.7899 H   0  0  0  0  0  0  0  0  0  0  0  0
    0.2185   -5.0017    1.7351 H   0  0  0  0  0  0  0  0  0  0  0  0
   -0.4488   -3.3780   -2.6782 H   0  0  0  0  0  0  0  0  0  0  0  0
    4.3427    1.7629   -2.4146 H   0  0  0  0  0  0  0  0  0  0  0  0
    5.4808    0.8449   -1.3893 H   0  0  0  0  0  0  0  0  0  0  0  0
   -0.0622    1.2632   -2.9413 H   0  0  0  0  0  0  0  0  0  0  0  0
    0.1926    2.7001   -2.2069 H   0  0  0  0  0  0  0  0  0  0  0  0
   -5.3415    1.4354    1.5354 H   0  0  0  0  0  0  0  0  0  0  0  0
   -5.7208    1.4948   -0.2086 H   0  0  0  0  0  0  0  0  0  0  0  0
    2.0150    2.5632    3.1950 H   0  0  0  0  0  0  0  0  0  0  0  0
    2.4722    3.6102    2.0271 H   0  0  0  0  0  0  0  0  0  0  0  0
    1.9584   -0.9206    3.3722 H   0  0  0  0  0  0  0  0  0  0  0  0
   -1.9525    4.2813   -1.2689 H   0  0  0  0  0  0  0  0  0  0  0  0
    2.1793    2.9814   -0.7624 H   0  0  0  0  0  0  0  0  0  0  0  0
   -2.6413    2.5593    2.0696 H   0  0  0  0  0  0  0  0  0  0  0  0
    5.0678   -0.1679   -3.3707 H   0  0  0  0  0  0  0  0  0  0  0  0
   -6.4602   -0.3974    0.7888 H   0  0  0  0  0  0  0  0  0  0  0  0
  1 16  1  0  0  0  0
  1 22  1  0  0  0  0
  2 17  1  0  0  0  0
  2 23  1  0  0  0  0
  3 18  1  0  0  0  0
  3 55  1  0  0  0  0
  4 22  1  0  0  0  0
  4 31  1  0  0  0  0
  5 23  1  0  0  0  0
  5 30  1  0  0  0  0
  6 25  1  0  0  0  0
  6 64  1  0  0  0  0
  7 27  1  0  0  0  0
  7 65  1  0  0  0  0
  8 28  1  0  0  0  0
  8 66  1  0  0  0  0
  9 29  1  0  0  0  0
  9 67  1  0  0  0  0
 10 32  1  0  0  0  0
 10 68  1  0  0  0  0
 11 33  1  0  0  0  0
 11 69  1  0  0  0  0
 12 19  1  0  0  0  0
 12 51  1  0  0  0  0
 12 52  1  0  0  0  0
 13 20  1  0  0  0  0
 13 53  1  0  0  0  0
 13 54  1  0  0  0  0
 14 24  1  0  0  0  0
 14 58  1  0  0  0  0
 14 59  1  0  0  0  0
 15 26  1  0  0  0  0
 15 62  1  0  0  0  0
 15 63  1  0  0  0  0
 16 18  1  0  0  0  0
 16 19  1  0  0  0  0
 16 34  1  0  0  0  0
 17 18  1  0  0  0  0
 17 20  1  0  0  0  0
 17 35  1  0  0  0  0
 18 36  1  0  0  0  0
 19 21  1  0  0  0  0
 19 37  1  0  0  0  0
 20 21  1  0  0  0  0
 20 38  1  0  0  0  0
 21 39  1  0  0  0  0
 21 40  1  0  0  0  0
 22 24  1  0  0  0  0
 22 41  1  0  0  0  0
 23 25  1  0  0  0  0
 23 42  1  0  0  0  0
 24 27  1  0  0  0  0
 24 43  1  0  0  0  0
 25 26  1  0  0  0  0
 25 44  1  0  0  0  0
 26 28  1  0  0  0  0
 26 45  1  0  0  0  0
 27 29  1  0  0  0  0
 27 46  1  0  0  0  0
 28 30  1  0  0  0  0
 28 47  1  0  0  0  0
 29 31  1  0  0  0  0
 29 48  1  0  0  0  0
 30 32  1  0  0  0  0
 30 49  1  0  0  0  0
 31 33  1  0  0  0  0
 31 50  1  0  0  0  0
 32 56  1  0  0  0  0
 32 57  1  0  0  0  0
 33 60  1  0  0  0  0
 33 61  1  0  0  0  0
M  END
> <PUBCHEM_COMPOUND_CID>
439582

> <PUBCHEM_CONFORMER_RMSD>
1

> <PUBCHEM_CONFORMER_DIVERSEORDER>
1
88
32
65
7
117
92
55
72
96
67
86
35
123
122
36
82
104
9
27
49
83
81
108
62
66
87
70
77
93
45
107
58
29
28
105
118
3
109
74
85
61
39
101
5
112
56
63
13
21
16
6
38
91
12
75
40
115
26
30
106
64
60
84
103
68
113
54
19
116
90
59
94
43
20
98
47
78
17
110
33
50
18
69
95
79
114
42
14
8
120
97
31
73
44
52
121
119
2
48
89
57
4
53
71
46
22
124
11
24
15
41
37
23
111
76
25
51
102
99
10
100
34
80

> <PUBCHEM_MMFF94_PARTIAL_CHARGES>
47
1 -0.56
10 -0.68
11 -0.68
12 -0.99
13 -0.99
14 -0.99
15 -0.99
16 0.28
17 0.28
18 0.28
19 0.27
2 -0.56
20 0.27
22 0.56
23 0.56
24 0.27
25 0.28
26 0.27
27 0.28
28 0.28
29 0.28
3 -0.68
30 0.28
31 0.28
32 0.28
33 0.28
4 -0.56
5 -0.56
51 0.36
52 0.36
53 0.36
54 0.36
55 0.4
58 0.36
59 0.36
6 -0.68
62 0.36
63 0.36
64 0.4
65 0.4
66 0.4
67 0.4
68 0.4
69 0.4
7 -0.68
8 -0.68
9 -0.68

> <PUBCHEM_EFFECTIVE_ROTOR_COUNT>
9.6

> <PUBCHEM_PHARMACOPHORE_FEATURES>
29
1 1 acceptor
1 10 acceptor
1 10 donor
1 11 acceptor
1 11 donor
1 12 cation
1 12 donor
1 13 cation
1 13 donor
1 14 cation
1 14 donor
1 15 cation
1 15 donor
1 2 acceptor
1 3 acceptor
1 3 donor
1 4 acceptor
1 5 acceptor
1 6 acceptor
1 6 donor
1 7 acceptor
1 7 donor
1 8 acceptor
1 8 donor
1 9 acceptor
1 9 donor
6 16 17 18 19 20 21 rings
6 4 22 24 27 29 31 rings
6 5 23 25 26 28 30 rings

> <PUBCHEM_HEAVY_ATOM_COUNT>
33

> <PUBCHEM_ATOM_DEF_STEREO_COUNT>
15

> <PUBCHEM_ATOM_UDEF_STEREO_COUNT>
0

> <PUBCHEM_BOND_DEF_STEREO_COUNT>
0

> <PUBCHEM_BOND_UDEF_STEREO_COUNT>
0

> <PUBCHEM_ISOTOPIC_ATOM_COUNT>
0

> <PUBCHEM_COMPONENT_COUNT>
1

> <PUBCHEM_CACTVS_TAUTO_COUNT>
1

> <PUBCHEM_CONFORMER_ID>
0006B51E00000001

> <PUBCHEM_MMFF94_ENERGY>
74.7998

> <PUBCHEM_FEATURE_SELFOVERLAP>
147.269

> <PUBCHEM_SHAPE_FINGERPRINT>
10006869 2 18339378378819900787
10165383 225 18340194284781389956
1100329 8 18125710206963062911
11578080 2 17896606072985113632
12156800 1 16964847006471754777
12160290 23 18124334725810778910
12788726 201 17907868301177849375
128993 33 18336838566677362456
13122387 1 18339095825167829065
13140716 1 18339659844573031235
13583140 156 15841008765672570639
14713325 29 18127104456395326918
14787075 74 18336270063963782005
14840074 17 17917699193999073501
150020 26 17834413584279909745
151778 21 18196086874648993288
17921350 177 16409865463399935556
20465049 17 18042674173356857092
23419403 2 17399176214272456495
23557571 272 18050007684497461924
23559900 14 17766569323690834677
238 59 17906486515851987853
25222932 49 16342835678511661729
2637199 183 18338789109063543052
35225 105 18193864602882927452
392239 28 18411695513520234147
469060 322 15696882410755481286
5776283 40 18264747923573338196
6287921 2 18263641943370606135

> <PUBCHEM_SHAPE_MULTIPOLES>
594.64
7.97
5.14
2.23
2.23
2.61
0.23
-5.17
-0.21
1.59
0.57
-2.09
-0.35
0.09

> <PUBCHEM_SHAPE_SELFOVERLAP>
1223.396

> <PUBCHEM_SHAPE_VOLUME>
335.1

> <PUBCHEM_COORDINATE_TYPE>
2
5
10

$$$$

