440252
  -OEChem-07051212492D

 86 88  0     1  0  0  0  0  0999 V2000
    5.2169    5.7678    0.0000 P   0  0  0  0  0  0  0  0  0  0  0  0
    5.8520   -0.6686    0.0000 O   0  0  0  0  0  0  0  0  0  0  0  0
    7.6316   -0.5753    0.0000 O   0  0  0  0  0  0  0  0  0  0  0  0
    6.0794    1.4951    0.0000 O   0  0  0  0  0  0  0  0  0  0  0  0
    7.5928    2.0120    0.0000 O   0  0  0  0  0  0  0  0  0  0  0  0
    7.2384    2.7823    0.0000 O   0  0  0  0  0  0  0  0  0  0  0  0
    7.5841   -1.6686    0.0000 O   0  0  0  0  0  0  0  0  0  0  0  0
    4.1200   -3.6686    0.0000 O   0  0  0  0  0  0  0  0  0  0  0  0
    7.5841   -3.6686    0.0000 O   0  0  0  0  0  0  0  0  0  0  0  0
    5.0090    4.7896    0.0000 O   0  0  0  0  0  0  0  0  0  0  0  0
    9.5328    1.0339    0.0000 O   0  0  0  0  0  0  0  0  0  0  0  0
    6.9111    5.4077    0.0000 O   0  0  0  0  0  0  0  0  0  0  0  0
    9.1405    3.4003    0.0000 O   0  0  0  0  0  0  0  0  0  0  0  0
    6.1950    5.5599    0.0000 O   0  0  0  0  0  0  0  0  0  0  0  0
    5.4248    6.7460    0.0000 O   0  0  0  0  0  0  0  0  0  0  0  0
    4.2387    5.9757    0.0000 O   0  0  0  0  0  0  0  0  0  0  0  0
    4.1200   -1.6686    0.0000 N   0  0  0  0  0  0  0  0  0  0  0  0
    4.5932    2.8334    0.0000 N   0  0  0  0  0  0  0  0  0  0  0  0
    5.8520   -4.6686    0.0000 N   0  0  0  0  0  0  0  0  0  0  0  0
    2.6200   -0.8024    0.0000 N   0  0  0  0  0  0  0  0  0  0  0  0
    2.6200   -2.5346    0.0000 N   0  0  0  0  0  0  0  0  0  0  0  0
    5.8520   -6.4006    0.0000 N   0  0  0  0  0  0  0  0  0  0  0  0
    7.3520   -5.5346    0.0000 N   0  0  0  0  0  0  0  0  0  0  0  0
    6.8226    0.8260    0.0000 C   0  0  2  0  0  0  0  0  0  0  0  0
    7.8008    1.0339    0.0000 C   0  0  1  0  0  0  0  0  0  0  0  0
    6.7181   -0.1686    0.0000 C   0  0  2  0  0  0  0  0  0  0  0  0
    5.8520   -1.6686    0.0000 C   0  0  2  0  0  0  0  0  0  0  0  0
    8.3008    0.1679    0.0000 C   0  0  2  0  0  0  0  0  0  0  0  0
    4.9860   -2.1686    0.0000 C   0  0  2  0  0  0  0  0  0  0  0  0
    6.7181   -2.1686    0.0000 C   0  0  1  0  0  0  0  0  0  0  0  0
    4.9860   -3.1686    0.0000 C   0  0  1  0  0  0  0  0  0  0  0  0
    6.7181   -3.1686    0.0000 C   0  0  2  0  0  0  0  0  0  0  0  0
    5.8520   -3.6686    0.0000 C   0  0  2  0  0  0  0  0  0  0  0  0
    6.2874    2.4732    0.0000 C   0  0  2  0  0  0  0  0  0  0  0  0
    5.5442    3.1424    0.0000 C   0  0  2  0  0  0  0  0  0  0  0  0
    8.6668    1.5339    0.0000 C   0  0  0  0  0  0  0  0  0  0  0  0
    5.7521    4.1205    0.0000 C   0  0  1  0  0  0  0  0  0  0  0  0
    6.7032    4.4295    0.0000 C   0  0  2  0  0  0  0  0  0  0  0  0
    9.2953    0.0633    0.0000 C   0  0  0  0  0  0  0  0  0  0  0  0
    7.4463    3.7604    0.0000 C   0  0  2  0  0  0  0  0  0  0  0  0
    8.3974    4.0694    0.0000 C   0  0  0  0  0  0  0  0  0  0  0  0
    3.8500    3.5025    0.0000 C   0  0  0  0  0  0  0  0  0  0  0  0
    3.1200   -1.6685    0.0000 C   0  0  0  0  0  0  0  0  0  0  0  0
    6.3520   -5.5346    0.0000 C   0  0  0  0  0  0  0  0  0  0  0  0
    6.9831    1.4248    0.0000 H   0  0  0  0  0  0  0  0  0  0  0  0
    6.7505   -0.7877    0.0000 H   0  0  0  0  0  0  0  0  0  0  0  0
    6.3890   -1.3586    0.0000 H   0  0  0  0  0  0  0  0  0  0  0  0
    8.5229   -0.4110    0.0000 H   0  0  0  0  0  0  0  0  0  0  0  0
    4.9860   -1.5486    0.0000 H   0  0  0  0  0  0  0  0  0  0  0  0
    6.7181   -1.5486    0.0000 H   0  0  0  0  0  0  0  0  0  0  0  0
    4.9860   -3.7886    0.0000 H   0  0  0  0  0  0  0  0  0  0  0  0
    6.7181   -3.7886    0.0000 H   0  0  0  0  0  0  0  0  0  0  0  0
    6.3890   -3.9786    0.0000 H   0  0  0  0  0  0  0  0  0  0  0  0
    5.6977    2.2817    0.0000 H   0  0  0  0  0  0  0  0  0  0  0  0
    5.4153    2.5359    0.0000 H   0  0  0  0  0  0  0  0  0  0  0  0
    9.0653    2.0088    0.0000 H   0  0  0  0  0  0  0  0  0  0  0  0
    8.2682    2.0088    0.0000 H   0  0  0  0  0  0  0  0  0  0  0  0
    5.8810    4.7270    0.0000 H   0  0  0  0  0  0  0  0  0  0  0  0
    7.2928    4.6211    0.0000 H   0  0  0  0  0  0  0  0  0  0  0  0
    9.2305   -0.5533    0.0000 H   0  0  0  0  0  0  0  0  0  0  0  0
    9.9119   -0.0015    0.0000 H   0  0  0  0  0  0  0  0  0  0  0  0
    9.3601    0.6799    0.0000 H   0  0  0  0  0  0  0  0  0  0  0  0
    7.9071    3.3456    0.0000 H   0  0  0  0  0  0  0  0  0  0  0  0
    7.0032    2.2036    0.0000 H   0  0  0  0  0  0  0  0  0  0  0  0
    4.4643    2.2269    0.0000 H   0  0  0  0  0  0  0  0  0  0  0  0
    8.1210   -1.9786    0.0000 H   0  0  0  0  0  0  0  0  0  0  0  0
    4.1200   -4.2886    0.0000 H   0  0  0  0  0  0  0  0  0  0  0  0
    8.8860    4.4511    0.0000 H   0  0  0  0  0  0  0  0  0  0  0  0
    8.1063    4.6169    0.0000 H   0  0  0  0  0  0  0  0  0  0  0  0
    8.1210   -3.3586    0.0000 H   0  0  0  0  0  0  0  0  0  0  0  0
   10.0697    1.3439    0.0000 H   0  0  0  0  0  0  0  0  0  0  0  0
    7.5008    5.5993    0.0000 H   0  0  0  0  0  0  0  0  0  0  0  0
    4.2649    3.9632    0.0000 H   0  0  0  0  0  0  0  0  0  0  0  0
    3.3893    3.9174    0.0000 H   0  0  0  0  0  0  0  0  0  0  0  0
    3.4352    3.0417    0.0000 H   0  0  0  0  0  0  0  0  0  0  0  0
    9.7302    3.5919    0.0000 H   0  0  0  0  0  0  0  0  0  0  0  0
    2.0000   -2.5346    0.0000 H   0  0  0  0  0  0  0  0  0  0  0  0
    2.9300   -3.0716    0.0000 H   0  0  0  0  0  0  0  0  0  0  0  0
    2.0000   -0.8024    0.0000 H   0  0  0  0  0  0  0  0  0  0  0  0
    2.9300   -0.2656    0.0000 H   0  0  0  0  0  0  0  0  0  0  0  0
    5.2320   -6.4006    0.0000 H   0  0  0  0  0  0  0  0  0  0  0  0
    6.1620   -6.9375    0.0000 H   0  0  0  0  0  0  0  0  0  0  0  0
    7.6620   -6.0715    0.0000 H   0  0  0  0  0  0  0  0  0  0  0  0
    7.6620   -4.9976    0.0000 H   0  0  0  0  0  0  0  0  0  0  0  0
    6.6099    6.0206    0.0000 H   0  0  0  0  0  0  0  0  0  0  0  0
    6.0145    6.9375    0.0000 H   0  0  0  0  0  0  0  0  0  0  0  0
  1 10  1  0  0  0  0
  1 14  1  0  0  0  0
  1 15  1  0  0  0  0
  1 16  2  0  0  0  0
 26  2  1  1  0  0  0
 27  2  1  1  0  0  0
  3 26  1  0  0  0  0
  3 28  1  0  0  0  0
 24  4  1  6  0  0  0
 34  4  1  1  0  0  0
 25  5  1  6  0  0  0
  5 64  1  0  0  0  0
  6 34  1  0  0  0  0
  6 40  1  0  0  0  0
 30  7  1  6  0  0  0
  7 66  1  0  0  0  0
 31  8  1  1  0  0  0
  8 67  1  0  0  0  0
 32  9  1  1  0  0  0
  9 70  1  0  0  0  0
 37 10  1  6  0  0  0
 11 36  1  0  0  0  0
 11 71  1  0  0  0  0
 38 12  1  1  0  0  0
 12 72  1  0  0  0  0
 13 41  1  0  0  0  0
 13 76  1  0  0  0  0
 14 85  1  0  0  0  0
 15 86  1  0  0  0  0
 29 17  1  6  0  0  0
 17 43  2  0  0  0  0
 35 18  1  1  0  0  0
 18 42  1  0  0  0  0
 18 65  1  0  0  0  0
 33 19  1  6  0  0  0
 19 44  2  0  0  0  0
 20 43  1  0  0  0  0
 20 79  1  0  0  0  0
 20 80  1  0  0  0  0
 21 43  1  0  0  0  0
 21 77  1  0  0  0  0
 21 78  1  0  0  0  0
 22 44  1  0  0  0  0
 22 81  1  0  0  0  0
 22 82  1  0  0  0  0
 23 44  1  0  0  0  0
 23 83  1  0  0  0  0
 23 84  1  0  0  0  0
 24 25  1  0  0  0  0
 24 26  1  0  0  0  0
 24 45  1  0  0  0  0
 25 28  1  0  0  0  0
 25 36  1  0  0  0  0
 26 46  1  0  0  0  0
 27 29  1  0  0  0  0
 27 30  1  0  0  0  0
 27 47  1  0  0  0  0
 28 39  1  6  0  0  0
 28 48  1  0  0  0  0
 29 31  1  0  0  0  0
 29 49  1  0  0  0  0
 30 32  1  0  0  0  0
 30 50  1  0  0  0  0
 31 33  1  0  0  0  0
 31 51  1  0  0  0  0
 32 33  1  0  0  0  0
 32 52  1  0  0  0  0
 33 53  1  0  0  0  0
 34 35  1  0  0  0  0
 34 54  1  0  0  0  0
 35 37  1  0  0  0  0
 35 55  1  0  0  0  0
 36 56  1  0  0  0  0
 36 57  1  0  0  0  0
 37 38  1  0  0  0  0
 37 58  1  0  0  0  0
 38 40  1  0  0  0  0
 38 59  1  0  0  0  0
 39 60  1  0  0  0  0
 39 61  1  0  0  0  0
 39 62  1  0  0  0  0
 40 41  1  6  0  0  0
 40 63  1  0  0  0  0
 41 68  1  0  0  0  0
 41 69  1  0  0  0  0
 42 73  1  0  0  0  0
 42 74  1  0  0  0  0
 42 75  1  0  0  0  0
M  END
> <PUBCHEM_COMPOUND_CID>
440252

> <PUBCHEM_COMPOUND_CANONICALIZED>
1

> <PUBCHEM_CACTVS_COMPLEXITY>
1080

> <PUBCHEM_CACTVS_HBOND_ACCEPTOR>
18

> <PUBCHEM_CACTVS_HBOND_DONOR>
14

> <PUBCHEM_CACTVS_ROTATABLE_BOND>
11

> <PUBCHEM_CACTVS_SUBSKEYS>
AAADcfB7vAIAAAAAAAAAAAAAAAAAASAAAAA0QAAAAAAAAAAAAAAAHgAQCCAADHzxgAcDCALABxAgQAAAJIAAAAEAAAAAAIAIAAATEAIAwAAnQAAHEAAXAAHwcA8KAAAAAAAAAAACgAAUCACgAAAAAAAAAA==

> <PUBCHEM_IUPAC_OPENEYE_NAME>
[(2S,3S,4S,5S,6S)-2-[(2R,3R,4R,5S)-2-[(1R,2S,3R,4R,5S,6R)-2,4-diguanidino-3,5,6-trihydroxy-cyclohexoxy]-4-hydroxy-4-(hydroxymethyl)-5-methyl-tetrahydrofuran-3-yl]oxy-5-hydroxy-6-(hydroxymethyl)-3-(methylamino)tetrahydropyran-4-yl] dihydrogen phosphate

> <PUBCHEM_IUPAC_CAS_NAME>
[(2S,3S,4S,5S,6S)-2-[[(2R,3R,4R,5S)-2-[(1R,2S,3R,4R,5S,6R)-2,4-bis(diaminomethylideneamino)-3,5,6-trihydroxycyclohexyl]oxy-4-hydroxy-4-(hydroxymethyl)-5-methyl-3-oxolanyl]oxy]-5-hydroxy-6-(hydroxymethyl)-3-(methylamino)-4-oxanyl] dihydrogen phosphate

> <PUBCHEM_IUPAC_NAME>
[(2S,3S,4S,5S,6S)-2-[(2R,3R,4R,5S)-2-[(1R,2S,3R,4R,5S,6R)-2,4-bis(diaminomethylideneamino)-3,5,6-trihydroxycyclohexyl]oxy-4-hydroxy-4-(hydroxymethyl)-5-methyloxolan-3-yl]oxy-5-hydroxy-6-(hydroxymethyl)-3-(methylamino)oxan-4-yl] dihydrogen phosphate

> <PUBCHEM_IUPAC_SYSTEMATIC_NAME>
[(2S,3S,4S,5S,6S)-2-[(2R,3R,4R,5S)-2-[(1R,2S,3R,4R,5S,6R)-2,4-bis[bis(azanyl)methylideneamino]-3,5,6-tris(oxidanyl)cyclohexyl]oxy-4-(hydroxymethyl)-5-methyl-4-oxidanyl-oxolan-3-yl]oxy-6-(hydroxymethyl)-3-(methylamino)-5-oxidanyl-oxan-4-yl] dihydrogen phosphate

> <PUBCHEM_IUPAC_TRADITIONAL_NAME>
[(2S,3S,4S,5S,6S)-2-[(2R,3R,4R,5S)-2-[(1R,2S,3R,4R,5S,6R)-2,4-diguanidino-3,5,6-trihydroxy-cyclohexoxy]-4-hydroxy-5-methyl-4-methylol-tetrahydrofuran-3-yl]oxy-5-hydroxy-3-(methylamino)-6-methylol-tetrahydropyran-4-yl] dihydrogen phosphate

> <PUBCHEM_IUPAC_INCHI>
InChI=1S/C21H42N7O15P/c1-5-21(35,4-30)16(42-17-9(26-2)15(43-44(36,37)38)10(31)6(3-29)40-17)18(39-5)41-14-8(28-20(24)25)11(32)7(27-19(22)23)12(33)13(14)34/h5-18,26,29-35H,3-4H2,1-2H3,(H4,22,23,27)(H4,24,25,28)(H2,36,37,38)/t5-,6-,7+,8-,9-,10-,11+,12-,13+,14+,15-,16-,17-,18-,21+/m0/s1

> <PUBCHEM_IUPAC_INCHIKEY>
ISHZQVDNXXXTHD-GOUKQLAUSA-N

> <PUBCHEM_XLOGP3_AA>
-11.6

> <PUBCHEM_EXACT_MASS>
663.24765

> <PUBCHEM_MOLECULAR_FORMULA>
C21H42N7O15P

> <PUBCHEM_MOLECULAR_WEIGHT>
663.569842

> <PUBCHEM_OPENEYE_CAN_SMILES>
CC1C(C(C(O1)OC2C(C(C(C(C2O)O)N=C(N)N)O)N=C(N)N)OC3C(C(C(C(O3)CO)O)OP(=O)(O)O)NC)(CO)O

> <PUBCHEM_OPENEYE_ISO_SMILES>
C[C@H]1[C@@]([C@H]([C@@H](O1)O[C@@H]2[C@H]([C@@H]([C@H]([C@@H]([C@H]2O)O)N=C(N)N)O)N=C(N)N)O[C@H]3[C@H]([C@@H]([C@H]([C@@H](O3)CO)O)OP(=O)(O)O)NC)(CO)O

> <PUBCHEM_CACTVS_TPSA>
386

> <PUBCHEM_MONOISOTOPIC_WEIGHT>
663.24765

> <PUBCHEM_TOTAL_CHARGE>
0

> <PUBCHEM_HEAVY_ATOM_COUNT>
44

> <PUBCHEM_ATOM_DEF_STEREO_COUNT>
15

> <PUBCHEM_ATOM_UDEF_STEREO_COUNT>
0

> <PUBCHEM_BOND_DEF_STEREO_COUNT>
0

> <PUBCHEM_BOND_UDEF_STEREO_COUNT>
0

> <PUBCHEM_ISOTOPIC_ATOM_COUNT>
0

> <PUBCHEM_COMPONENT_COUNT>
1

> <PUBCHEM_CACTVS_TAUTO_COUNT>
4

> <PUBCHEM_COORDINATE_TYPE>
1
5
255

> <PUBCHEM_BONDANNOTATIONS>
37  10  6
38  12  5
29  17  6
35  18  5
33  19  6
26  2  5
27  2  5
28  39  6
24  4  6
34  4  5
40  41  6
25  5  6
30  7  6
31  8  5
32  9  5

$$$$

