643542
  -OEChem-07051213023D

 34 36  0     1  0  0  0  0  0999 V2000
    0.3771   -0.5816    0.3235 O   0  0  0  0  0  0  0  0  0  0  0  0
    4.3624    2.0669   -0.4424 O   0  0  0  0  0  0  0  0  0  0  0  0
    4.6368   -2.6440    0.1716 O   0  0  0  0  0  0  0  0  0  0  0  0
   -4.2142   -0.8102   -2.1027 O   0  0  0  0  0  0  0  0  0  0  0  0
   -5.8852   -0.5408    0.1016 O   0  0  0  0  0  0  0  0  0  0  0  0
   -0.3612    0.6286    0.5607 C   0  0  1  0  0  0  0  0  0  0  0  0
    0.0530    1.7401   -0.4071 C   0  0  0  0  0  0  0  0  0  0  0  0
    1.5216    2.0752   -0.1795 C   0  0  0  0  0  0  0  0  0  0  0  0
    2.3377    0.8181   -0.0842 C   0  0  0  0  0  0  0  0  0  0  0  0
    1.7301   -0.4188    0.1689 C   0  0  0  0  0  0  0  0  0  0  0  0
   -1.8374    0.3151    0.4348 C   0  0  0  0  0  0  0  0  0  0  0  0
    3.7306    0.8784   -0.2216 C   0  0  0  0  0  0  0  0  0  0  0  0
    2.5018   -1.5812    0.2425 C   0  0  0  0  0  0  0  0  0  0  0  0
   -2.3572   -0.1083   -0.7877 C   0  0  0  0  0  0  0  0  0  0  0  0
   -2.6749    0.4509    1.5412 C   0  0  0  0  0  0  0  0  0  0  0  0
    4.5006   -0.2822   -0.1355 C   0  0  0  0  0  0  0  0  0  0  0  0
    3.8859   -1.5115    0.0922 C   0  0  0  0  0  0  0  0  0  0  0  0
   -3.7171   -0.3965   -0.9039 C   0  0  0  0  0  0  0  0  0  0  0  0
   -4.0346    0.1627    1.4250 C   0  0  0  0  0  0  0  0  0  0  0  0
   -4.5557   -0.2610    0.2025 C   0  0  0  0  0  0  0  0  0  0  0  0
   -0.1510    0.9445    1.5924 H   0  0  0  0  0  0  0  0  0  0  0  0
   -0.5609    2.6386   -0.2733 H   0  0  0  0  0  0  0  0  0  0  0  0
   -0.0676    1.4124   -1.4480 H   0  0  0  0  0  0  0  0  0  0  0  0
    1.6339    2.6448    0.7508 H   0  0  0  0  0  0  0  0  0  0  0  0
    1.8546    2.7026   -1.0141 H   0  0  0  0  0  0  0  0  0  0  0  0
    2.0184   -2.5384    0.4237 H   0  0  0  0  0  0  0  0  0  0  0  0
   -1.7131   -0.2292   -1.6548 H   0  0  0  0  0  0  0  0  0  0  0  0
   -2.2837    0.7800    2.5001 H   0  0  0  0  0  0  0  0  0  0  0  0
    5.5807   -0.2277   -0.2474 H   0  0  0  0  0  0  0  0  0  0  0  0
   -4.6767    0.2723    2.2949 H   0  0  0  0  0  0  0  0  0  0  0  0
    3.7695    2.8112   -0.2551 H   0  0  0  0  0  0  0  0  0  0  0  0
    4.0488   -3.4017    0.3334 H   0  0  0  0  0  0  0  0  0  0  0  0
   -5.1696   -0.9640   -2.0010 H   0  0  0  0  0  0  0  0  0  0  0  0
   -6.3067   -0.3911    0.9652 H   0  0  0  0  0  0  0  0  0  0  0  0
  1  6  1  0  0  0  0
  1 10  1  0  0  0  0
  2 12  1  0  0  0  0
  2 31  1  0  0  0  0
  3 17  1  0  0  0  0
  3 32  1  0  0  0  0
  4 18  1  0  0  0  0
  4 33  1  0  0  0  0
  5 20  1  0  0  0  0
  5 34  1  0  0  0  0
  6  7  1  0  0  0  0
  6 11  1  0  0  0  0
  6 21  1  0  0  0  0
  7  8  1  0  0  0  0
  7 22  1  0  0  0  0
  7 23  1  0  0  0  0
  8  9  1  0  0  0  0
  8 24  1  0  0  0  0
  8 25  1  0  0  0  0
  9 10  1  0  0  0  0
  9 12  2  0  0  0  0
 10 13  2  0  0  0  0
 11 14  2  0  0  0  0
 11 15  1  0  0  0  0
 12 16  1  0  0  0  0
 13 17  1  0  0  0  0
 13 26  1  0  0  0  0
 14 18  1  0  0  0  0
 14 27  1  0  0  0  0
 15 19  2  0  0  0  0
 15 28  1  0  0  0  0
 16 17  2  0  0  0  0
 16 29  1  0  0  0  0
 18 20  2  0  0  0  0
 19 20  1  0  0  0  0
 19 30  1  0  0  0  0
M  END
> <PUBCHEM_COMPOUND_CID>
643542

> <PUBCHEM_CONFORMER_RMSD>
0.6

> <PUBCHEM_CONFORMER_DIVERSEORDER>
1
10
3
6
9
8
12
2
7
5
4
11

> <PUBCHEM_MMFF94_PARTIAL_CHARGES>
28
1 -0.36
10 0.08
11 -0.14
12 0.08
13 -0.15
14 -0.15
15 -0.15
16 -0.15
17 0.08
18 0.08
19 -0.15
2 -0.53
20 0.08
26 0.15
27 0.15
28 0.15
29 0.15
3 -0.53
30 0.15
31 0.45
32 0.45
33 0.45
34 0.45
4 -0.53
5 -0.53
6 0.42
8 0.14
9 -0.14

> <PUBCHEM_EFFECTIVE_ROTOR_COUNT>
1.8

> <PUBCHEM_PHARMACOPHORE_FEATURES>
8
1 1 acceptor
1 2 donor
1 3 donor
1 4 donor
1 5 donor
6 1 6 7 8 9 10 rings
6 11 14 15 18 19 20 rings
6 9 10 12 13 16 17 rings

> <PUBCHEM_HEAVY_ATOM_COUNT>
20

> <PUBCHEM_ATOM_DEF_STEREO_COUNT>
1

> <PUBCHEM_ATOM_UDEF_STEREO_COUNT>
0

> <PUBCHEM_BOND_DEF_STEREO_COUNT>
0

> <PUBCHEM_BOND_UDEF_STEREO_COUNT>
0

> <PUBCHEM_ISOTOPIC_ATOM_COUNT>
0

> <PUBCHEM_COMPONENT_COUNT>
1

> <PUBCHEM_CACTVS_TAUTO_COUNT>
90

> <PUBCHEM_CONFORMER_ID>
0009D1D600000001

> <PUBCHEM_MMFF94_ENERGY>
56.394

> <PUBCHEM_FEATURE_SELFOVERLAP>
40.628

> <PUBCHEM_SHAPE_FINGERPRINT>
10498660 4 15338852988036789367
10912923 1 17894906326117443353
11471102 20 18342735196171454544
12107183 9 17684637010922403785
12236239 1 18113614573913938145
12616971 3 18261392273401952187
12670546 56 17894630348672920065
12788726 201 17531514452062205369
13134695 92 18412544297309850108
13167823 11 18186517713398957275
13533116 47 18334294253868209627
13544653 18 18343015627202067436
13760787 5 18410011043793252205
13862211 1 18341612685521673618
14386348 63 17561360665101628297
14576447 43 18188780430892908774
15196674 1 18341047509872930848
15375462 189 18187362125454951528
15788980 27 18410294730915516661
15961568 22 15482097255545069708
17357779 13 17989495129601479741
17834072 33 18040997315060997265
1813 80 18336251448879442716
18186145 218 17132111372467022192
200 152 18408605872544543449
20028762 73 18261114118720779158
20279233 1 17275101717382502785
20281475 54 18187651309755332022
20645477 70 18272933829974039650
21033648 29 17703520917261410101
21065198 48 18187355558439439065
21065201 7 15913608367255470752
21267235 1 18410002273981996486
221357 26 18130796672254803221
22646028 1 18113618988776224065
22646028 28 18186803586432787031
23175994 123 17846774114080564069
23366157 5 17315936359916278561
23402539 116 18339080505092882642
23557571 272 16558752316695751373
23559900 14 16415202321121238618
23596394 208 17632302301781479386
2871803 45 17988641934585083554
29717793 49 18114179774002941837
312423 11 18338503253246648544
314194 84 18334577927715500059
3268164 11 15554456158919555607
3286 77 17603879922261768258
33824 294 18343019974288985992
34797466 226 15647328589954746712
351380 3 18260264170103202742
42630746 31 18410291390016594264
46194498 28 17346034455433319021
465052 167 18335133193914465239
474 4 18045224834486636576
5104073 3 18335414698966217897
5281201 14 17704070711355223756
573450 72 17458061582015896225
602551 16 15791738459783315678
633830 44 18060137673654297969
77492 1 18040428876418953073
9981440 41 17179981635008636793

> <PUBCHEM_SHAPE_MULTIPOLES>
382.24
11.36
1.87
1.14
4.56
0.02
-0.14
3.6
-0.74
-3.11
-0.13
1.73
0.08
-0.91

> <PUBCHEM_SHAPE_SELFOVERLAP>
843.269

> <PUBCHEM_SHAPE_VOLUME>
205.1

> <PUBCHEM_COORDINATE_TYPE>
2
5
10

$$$$

