17395533
  -OEChem-06241222502D

 38 40  0     0  0  0  0  0  0999 V2000
    4.6783    2.0368    0.0000 S   0  0  0  0  0  0  0  0  0  0  0  0
    9.7619    0.3660    0.0000 O   0  0  0  0  0  0  0  0  0  0  0  0
    6.2619   -0.5000    0.0000 O   0  0  0  0  0  0  0  0  0  0  0  0
    8.2619   -0.5000    0.0000 N   0  0  0  0  0  0  0  0  0  0  0  0
    6.2619    1.2320    0.0000 N   0  0  0  0  0  0  0  0  0  0  0  0
    4.6783    0.4273    0.0000 N   0  0  0  0  0  0  0  0  0  0  0  0
    9.7619   -1.3660    0.0000 C   0  0  0  0  0  0  0  0  0  0  0  0
   10.7619   -1.3660    0.0000 C   0  0  0  0  0  0  0  0  0  0  0  0
    7.7619    0.3660    0.0000 C   0  0  0  0  0  0  0  0  0  0  0  0
    3.7320    1.7320    0.0000 C   0  0  0  0  0  0  0  0  0  0  0  0
    3.7320    0.7321    0.0000 C   0  0  0  0  0  0  0  0  0  0  0  0
    9.2619   -0.5000    0.0000 C   0  0  0  0  0  0  0  0  0  0  0  0
    5.2619    1.2320    0.0000 C   0  0  0  0  0  0  0  0  0  0  0  0
    6.7619    0.3660    0.0000 C   0  0  0  0  0  0  0  0  0  0  0  0
   11.2619   -2.2320    0.0000 C   0  0  0  0  0  0  0  0  0  0  0  0
   11.2619   -0.5000    0.0000 C   0  0  0  0  0  0  0  0  0  0  0  0
    2.8660    2.2320    0.0000 C   0  0  0  0  0  0  0  0  0  0  0  0
    2.8660    0.2321    0.0000 C   0  0  0  0  0  0  0  0  0  0  0  0
    2.0000    1.7320    0.0000 C   0  0  0  0  0  0  0  0  0  0  0  0
    2.0000    0.7321    0.0000 C   0  0  0  0  0  0  0  0  0  0  0  0
   12.2619   -2.2320    0.0000 C   0  0  0  0  0  0  0  0  0  0  0  0
   12.2619   -0.5000    0.0000 C   0  0  0  0  0  0  0  0  0  0  0  0
   12.7619   -1.3660    0.0000 C   0  0  0  0  0  0  0  0  0  0  0  0
    9.1793   -1.5781    0.0000 H   0  0  0  0  0  0  0  0  0  0  0  0
    9.8695   -1.9766    0.0000 H   0  0  0  0  0  0  0  0  0  0  0  0
    8.3445    0.5781    0.0000 H   0  0  0  0  0  0  0  0  0  0  0  0
    7.6542    0.9766    0.0000 H   0  0  0  0  0  0  0  0  0  0  0  0
    7.9519   -1.0369    0.0000 H   0  0  0  0  0  0  0  0  0  0  0  0
    6.5719    1.7690    0.0000 H   0  0  0  0  0  0  0  0  0  0  0  0
   10.9519   -2.7690    0.0000 H   0  0  0  0  0  0  0  0  0  0  0  0
   10.9519    0.0369    0.0000 H   0  0  0  0  0  0  0  0  0  0  0  0
    2.8660    2.8521    0.0000 H   0  0  0  0  0  0  0  0  0  0  0  0
    2.8660   -0.3879    0.0000 H   0  0  0  0  0  0  0  0  0  0  0  0
    1.4631    2.0420    0.0000 H   0  0  0  0  0  0  0  0  0  0  0  0
    1.4631    0.4221    0.0000 H   0  0  0  0  0  0  0  0  0  0  0  0
   12.5719   -2.7690    0.0000 H   0  0  0  0  0  0  0  0  0  0  0  0
   12.5719    0.0369    0.0000 H   0  0  0  0  0  0  0  0  0  0  0  0
   13.3819   -1.3660    0.0000 H   0  0  0  0  0  0  0  0  0  0  0  0
  1 10  1  0  0  0  0
  1 13  1  0  0  0  0
  2 12  2  0  0  0  0
  3 14  2  0  0  0  0
  4  9  1  0  0  0  0
  4 12  1  0  0  0  0
  4 28  1  0  0  0  0
  5 13  1  0  0  0  0
  5 14  1  0  0  0  0
  5 29  1  0  0  0  0
  6 11  1  0  0  0  0
  6 13  2  0  0  0  0
  7  8  1  0  0  0  0
  7 12  1  0  0  0  0
  7 24  1  0  0  0  0
  7 25  1  0  0  0  0
  8 15  2  0  0  0  0
  8 16  1  0  0  0  0
  9 14  1  0  0  0  0
  9 26  1  0  0  0  0
  9 27  1  0  0  0  0
 10 11  1  0  0  0  0
 10 17  2  0  0  0  0
 11 18  2  0  0  0  0
 15 21  1  0  0  0  0
 15 30  1  0  0  0  0
 16 22  2  0  0  0  0
 16 31  1  0  0  0  0
 17 19  1  0  0  0  0
 17 32  1  0  0  0  0
 18 20  1  0  0  0  0
 18 33  1  0  0  0  0
 19 20  2  0  0  0  0
 19 34  1  0  0  0  0
 20 35  1  0  0  0  0
 21 23  2  0  0  0  0
 21 36  1  0  0  0  0
 22 23  1  0  0  0  0
 22 37  1  0  0  0  0
 23 38  1  0  0  0  0
M  END
> <PUBCHEM_COMPOUND_CID>
17395533

> <PUBCHEM_COMPOUND_CANONICALIZED>
1

> <PUBCHEM_CACTVS_COMPLEXITY>
426

> <PUBCHEM_CACTVS_HBOND_ACCEPTOR>
4

> <PUBCHEM_CACTVS_HBOND_DONOR>
2

> <PUBCHEM_CACTVS_ROTATABLE_BOND>
5

> <PUBCHEM_CACTVS_SUBSKEYS>
AAADccB7MABAAAAAAAAAAAAAAAAAAWAAAAAwYAAAAAAAAFgB9AAAHgQQAAAADAjB3gQx0bLIEAisAyVydACD8KlhCjlJmL24ZJiIYLLgnbGUIAholwLIyCcYiICOAAAAAAAAAQAAAAAAAAACAAAAAAAAAA==

> <PUBCHEM_IUPAC_OPENEYE_NAME>
N-[2-(1,3-benzothiazol-2-ylamino)-2-oxo-ethyl]-2-phenyl-acetamide

> <PUBCHEM_IUPAC_CAS_NAME>
N-[2-(1,3-benzothiazol-2-ylamino)-2-oxoethyl]-2-phenylacetamide

> <PUBCHEM_IUPAC_NAME>
N-[2-(1,3-benzothiazol-2-ylamino)-2-oxoethyl]-2-phenylacetamide

> <PUBCHEM_IUPAC_SYSTEMATIC_NAME>
N-[2-(1,3-benzothiazol-2-ylamino)-2-oxidanylidene-ethyl]-2-phenyl-ethanamide

> <PUBCHEM_IUPAC_TRADITIONAL_NAME>
N-[2-(1,3-benzothiazol-2-ylamino)-2-keto-ethyl]-2-phenyl-acetamide

> <PUBCHEM_IUPAC_INCHI>
InChI=1S/C17H15N3O2S/c21-15(10-12-6-2-1-3-7-12)18-11-16(22)20-17-19-13-8-4-5-9-14(13)23-17/h1-9H,10-11H2,(H,18,21)(H,19,20,22)

> <PUBCHEM_IUPAC_INCHIKEY>
KIOKHQJBLPSJBV-UHFFFAOYSA-N

> <PUBCHEM_XLOGP3_AA>
2.8

> <PUBCHEM_EXACT_MASS>
325.088498

> <PUBCHEM_MOLECULAR_FORMULA>
C17H15N3O2S

> <PUBCHEM_MOLECULAR_WEIGHT>
325.3849

> <PUBCHEM_OPENEYE_CAN_SMILES>
C1=CC=C(C=C1)CC(=O)NCC(=O)NC2=NC3=CC=CC=C3S2

> <PUBCHEM_OPENEYE_ISO_SMILES>
C1=CC=C(C=C1)CC(=O)NCC(=O)NC2=NC3=CC=CC=C3S2

> <PUBCHEM_CACTVS_TPSA>
99.3

> <PUBCHEM_MONOISOTOPIC_WEIGHT>
325.088498

> <PUBCHEM_TOTAL_CHARGE>
0

> <PUBCHEM_HEAVY_ATOM_COUNT>
23

> <PUBCHEM_ATOM_DEF_STEREO_COUNT>
0

> <PUBCHEM_ATOM_UDEF_STEREO_COUNT>
0

> <PUBCHEM_BOND_DEF_STEREO_COUNT>
0

> <PUBCHEM_BOND_UDEF_STEREO_COUNT>
0

> <PUBCHEM_ISOTOPIC_ATOM_COUNT>
0

> <PUBCHEM_COMPONENT_COUNT>
1

> <PUBCHEM_CACTVS_TAUTO_COUNT>
10

> <PUBCHEM_COORDINATE_TYPE>
1
5
255

> <PUBCHEM_BONDANNOTATIONS>
1  10  8
1  13  8
10  11  8
10  17  8
11  18  8
15  21  8
16  22  8
17  19  8
18  20  8
19  20  8
21  23  8
22  23  8
6  11  8
6  13  8
8  15  8
8  16  8

$$$$

