222
  -OEChem-07051212432D

  4  3  0     0  0  0  0  0  0999 V2000
    2.5369    0.1550    0.0000 N   0  0  0  0  0  0  0  0  0  0  0  0
    3.0739    0.4650    0.0000 H   0  0  0  0  0  0  0  0  0  0  0  0
    2.0000    0.4650    0.0000 H   0  0  0  0  0  0  0  0  0  0  0  0
    2.5369   -0.4650    0.0000 H   0  0  0  0  0  0  0  0  0  0  0  0
  1  2  1  0  0  0  0
  1  3  1  0  0  0  0
  1  4  1  0  0  0  0
M  END
> <PUBCHEM_COMPOUND_CID>
222

> <PUBCHEM_COMPOUND_CANONICALIZED>
1

> <PUBCHEM_MOLECULAR_WEIGHT>
17.03052

> <PUBCHEM_MONOISOTOPIC_WEIGHT>
17.026549

> <PUBCHEM_EXACT_MASS>
17.026549

> <PUBCHEM_MOLECULAR_FORMULA>
H3N

> <PUBCHEM_IUPAC_INCHI>
InChI=1S/H3N/h1H3

> <PUBCHEM_IUPAC_INCHIKEY>
QGZKDVFQNNGYKY-UHFFFAOYSA-N

> <PUBCHEM_XLOGP3_AA>
-0.7

> <PUBCHEM_OPENEYE_CAN_SMILES>
N

> <PUBCHEM_OPENEYE_ISO_SMILES>
N

> <PUBCHEM_IUPAC_NAME>
azane

> <PUBCHEM_IUPAC_OPENEYE_NAME>
ammonia

> <PUBCHEM_IUPAC_CAS_NAME>
ammonia

> <PUBCHEM_IUPAC_TRADITIONAL_NAME>
ammonia

> <PUBCHEM_IUPAC_SYSTEMATIC_NAME>
azane

> <PUBCHEM_CACTVS_HBOND_DONOR>
1

> <PUBCHEM_CACTVS_HBOND_ACCEPTOR>
1

> <PUBCHEM_CACTVS_ROTATABLE_BOND>
0

> <PUBCHEM_CACTVS_COMPLEXITY>
0

> <PUBCHEM_CACTVS_TPSA>
1

> <PUBCHEM_CACTVS_SUBSKEYS>
AAADcQACAAAAAAAAAAAAAAAAAAAAAAAAAAAAAAAAAAAAAAAAAAAAAAAQAAAAAAAAAAAAAAAAAAAAAAAAAAAAAAAAAAAAAAAAAAAAAAAAAAAAAAAAAAAAAAAAAAAAAAAAAAAAAAAAAAAAAAAAAAAAAAAAAA==

> <PUBCHEM_TOTAL_CHARGE>
0

> <PUBCHEM_HEAVY_ATOM_COUNT>
1

> <PUBCHEM_ATOM_DEF_STEREO_COUNT>
0

> <PUBCHEM_ATOM_UDEF_STEREO_COUNT>
0

> <PUBCHEM_BOND_DEF_STEREO_COUNT>
0

> <PUBCHEM_BOND_UDEF_STEREO_COUNT>
0

> <PUBCHEM_ISOTOPIC_ATOM_COUNT>
0

> <PUBCHEM_COMPONENT_COUNT>
1

> <PUBCHEM_CACTVS_TAUTO_COUNT>
1

> <PUBCHEM_COORDINATE_TYPE>
1
3

$$$$

