21160714
  -OEChem-07051212562D

 50 54  0     1  0  0  0  0  0999 V2000
    8.5117   -0.3495    0.0000 O   0  0  0  0  0  0  0  0  0  0  0  0
    7.6797    2.5328    0.0000 O   0  0  0  0  0  0  0  0  0  0  0  0
    8.9277    1.3318    0.0000 O   0  0  0  0  0  0  0  0  0  0  0  0
    6.5117   -0.4510    0.0000 N   0  0  3  0  0  0  0  0  0  0  0  0
    4.2558   -0.8851    0.0000 N   0  0  0  0  0  0  0  0  0  0  0  0
    7.2636    0.8514    0.0000 C   0  0  3  0  0  0  0  0  0  0  0  0
    6.5117    0.4173    0.0000 C   0  0  2  0  0  0  0  0  0  0  0  0
    6.5117   -2.1875    0.0000 C   0  0  1  0  0  0  0  0  0  0  0  0
    5.7597   -0.8851    0.0000 C   0  0  1  0  0  0  0  0  0  0  0  0
    5.7597   -1.7534    0.0000 C   0  0  0  0  0  0  0  0  0  0  0  0
    5.7597    0.8514    0.0000 C   0  0  0  0  0  0  0  0  0  0  0  0
    7.2636   -0.8851    0.0000 C   0  0  0  0  0  0  0  0  0  0  0  0
    7.2636   -1.7534    0.0000 C   0  0  0  0  0  0  0  0  0  0  0  0
    5.0078   -0.4510    0.0000 C   0  0  0  0  0  0  0  0  0  0  0  0
    5.0078    0.4173    0.0000 C   0  0  0  0  0  0  0  0  0  0  0  0
    8.2344    0.6113    0.0000 C   0  0  0  0  0  0  0  0  0  0  0  0
    7.9570    1.5720    0.0000 C   0  0  0  0  0  0  0  0  0  0  0  0
    3.5039    0.4173    0.0000 C   0  0  0  0  0  0  0  0  0  0  0  0
    8.1297   -2.2534    0.0000 C   0  0  0  0  0  0  0  0  0  0  0  0
    3.5039   -0.4510    0.0000 C   0  0  0  0  0  0  0  0  0  0  0  0
    2.7520    0.8514    0.0000 C   0  0  0  0  0  0  0  0  0  0  0  0
    8.1297   -3.2534    0.0000 C   0  0  0  0  0  0  0  0  0  0  0  0
    2.7520   -0.8851    0.0000 C   0  0  0  0  0  0  0  0  0  0  0  0
    2.0000    0.4173    0.0000 C   0  0  0  0  0  0  0  0  0  0  0  0
    8.3730    3.2534    0.0000 C   0  0  0  0  0  0  0  0  0  0  0  0
    2.0000   -0.4510    0.0000 C   0  0  0  0  0  0  0  0  0  0  0  0
    6.5117    1.2673    0.0000 H   0  0  0  0  0  0  0  0  0  0  0  0
    6.5117   -3.0375    0.0000 H   0  0  0  0  0  0  0  0  0  0  0  0
    5.0902   -1.4087    0.0000 H   0  0  0  0  0  0  0  0  0  0  0  0
    5.1492   -1.6457    0.0000 H   0  0  0  0  0  0  0  0  0  0  0  0
    5.5477   -2.3360    0.0000 H   0  0  0  0  0  0  0  0  0  0  0  0
    6.1583    1.3264    0.0000 H   0  0  0  0  0  0  0  0  0  0  0  0
    5.3612    1.3264    0.0000 H   0  0  0  0  0  0  0  0  0  0  0  0
    7.8742   -0.9928    0.0000 H   0  0  0  0  0  0  0  0  0  0  0  0
    7.4757   -0.3025    0.0000 H   0  0  0  0  0  0  0  0  0  0  0  0
    8.8508    0.6772    0.0000 H   0  0  0  0  0  0  0  0  0  0  0  0
    8.2765    1.2298    0.0000 H   0  0  0  0  0  0  0  0  0  0  0  0
    4.2558   -1.5051    0.0000 H   0  0  0  0  0  0  0  0  0  0  0  0
    8.6666   -1.9434    0.0000 H   0  0  0  0  0  0  0  0  0  0  0  0
    9.1136   -0.4984    0.0000 H   0  0  0  0  0  0  0  0  0  0  0  0
    2.7520    1.4714    0.0000 H   0  0  0  0  0  0  0  0  0  0  0  0
    7.5097   -3.2534    0.0000 H   0  0  0  0  0  0  0  0  0  0  0  0
    8.1297   -3.8734    0.0000 H   0  0  0  0  0  0  0  0  0  0  0  0
    8.7497   -3.2534    0.0000 H   0  0  0  0  0  0  0  0  0  0  0  0
    2.7520   -1.5051    0.0000 H   0  0  0  0  0  0  0  0  0  0  0  0
    1.4631    0.7273    0.0000 H   0  0  0  0  0  0  0  0  0  0  0  0
    8.8198    2.8235    0.0000 H   0  0  0  0  0  0  0  0  0  0  0  0
    8.8029    3.7001    0.0000 H   0  0  0  0  0  0  0  0  0  0  0  0
    7.9263    3.6833    0.0000 H   0  0  0  0  0  0  0  0  0  0  0  0
    1.4631   -0.7610    0.0000 H   0  0  0  0  0  0  0  0  0  0  0  0
  1 16  1  0  0  0  0
  1 40  1  0  0  0  0
  2 17  1  0  0  0  0
  2 25  1  0  0  0  0
  3 17  2  0  0  0  0
  4  7  1  0  0  0  0
  4  9  1  0  0  0  0
  4 12  1  0  0  0  0
  5 14  1  0  0  0  0
  5 20  1  0  0  0  0
  5 38  1  0  0  0  0
  6  7  1  0  0  0  0
  6  8  1  0  0  0  0
  6 16  1  0  0  0  0
  6 17  1  0  0  0  0
  7 11  1  0  0  0  0
  7 27  1  6  0  0  0
  8 10  1  0  0  0  0
  8 13  1  0  0  0  0
  8 28  1  1  0  0  0
  9 10  1  0  0  0  0
  9 14  1  0  0  0  0
  9 29  1  6  0  0  0
 10 30  1  0  0  0  0
 10 31  1  0  0  0  0
 11 15  1  0  0  0  0
 11 32  1  0  0  0  0
 11 33  1  0  0  0  0
 12 13  1  0  0  0  0
 12 34  1  0  0  0  0
 12 35  1  0  0  0  0
 13 19  2  0  0  0  0
 14 15  2  0  0  0  0
 15 18  1  0  0  0  0
 16 36  1  0  0  0  0
 16 37  1  0  0  0  0
 18 20  1  0  0  0  0
 18 21  2  0  0  0  0
 19 22  1  0  0  0  0
 19 39  1  0  0  0  0
 20 23  2  0  0  0  0
 21 24  1  0  0  0  0
 21 41  1  0  0  0  0
 22 42  1  0  0  0  0
 22 43  1  0  0  0  0
 22 44  1  0  0  0  0
 23 26  1  0  0  0  0
 23 45  1  0  0  0  0
 24 26  2  0  0  0  0
 24 46  1  0  0  0  0
 25 47  1  0  0  0  0
 25 48  1  0  0  0  0
 25 49  1  0  0  0  0
 26 50  1  0  0  0  0
M  END
> <PUBCHEM_COMPOUND_CID>
21160714

> <PUBCHEM_COMPOUND_CANONICALIZED>
1

> <PUBCHEM_CACTVS_COMPLEXITY>
635

> <PUBCHEM_CACTVS_HBOND_ACCEPTOR>
4

> <PUBCHEM_CACTVS_HBOND_DONOR>
2

> <PUBCHEM_CACTVS_ROTATABLE_BOND>
3

> <PUBCHEM_CACTVS_SUBSKEYS>
AAADceB7MAAAAAAAAAAAAAAAAAAAAWAAAAA8WLFiAAAYAFgB8AAAHgAQCAAADyjhngYyyPPJlgCoAyTyTACCgCAhAiAImSE4ZJgIcP7AkZGUYAhnsADIyAeY2fOfgAAAAAACAAAAAAAAAAQAAAAAAAAAAA==

> <PUBCHEM_IUPAC_INCHI>
InChI=1S/C21H24N2O3/c1-3-12-10-23-17-9-15(12)21(11-24,20(25)26-2)18(23)8-14-13-6-4-5-7-16(13)22-19(14)17/h3-7,15,17-18,22,24H,8-11H2,1-2H3/b12-3-/t15-,17-,18-,21?/m0/s1

> <PUBCHEM_IUPAC_INCHIKEY>
RCEFXZXHYFOPIE-WBOATDDDSA-N

> <PUBCHEM_XLOGP3_AA>
1.5

> <PUBCHEM_EXACT_MASS>
352.178693

> <PUBCHEM_MOLECULAR_FORMULA>
C21H24N2O3

> <PUBCHEM_MOLECULAR_WEIGHT>
352.42686

> <PUBCHEM_OPENEYE_CAN_SMILES>
CC=C1CN2C3CC1C(C2CC4=C3NC5=CC=CC=C45)(CO)C(=O)OC

> <PUBCHEM_OPENEYE_ISO_SMILES>
C/C=C\1/CN2[C@H]3C[C@@H]1C([C@@H]2CC4=C3NC5=CC=CC=C45)(CO)C(=O)OC

> <PUBCHEM_CACTVS_TPSA>
65.6

> <PUBCHEM_MONOISOTOPIC_WEIGHT>
352.178693

> <PUBCHEM_TOTAL_CHARGE>
0

> <PUBCHEM_HEAVY_ATOM_COUNT>
26

> <PUBCHEM_ATOM_DEF_STEREO_COUNT>
3

> <PUBCHEM_ATOM_UDEF_STEREO_COUNT>
1

> <PUBCHEM_BOND_DEF_STEREO_COUNT>
1

> <PUBCHEM_BOND_UDEF_STEREO_COUNT>
0

> <PUBCHEM_ISOTOPIC_ATOM_COUNT>
0

> <PUBCHEM_COMPONENT_COUNT>
1

> <PUBCHEM_CACTVS_TAUTO_COUNT>
1

> <PUBCHEM_COORDINATE_TYPE>
1
5
255

> <PUBCHEM_BONDANNOTATIONS>
14  15  8
15  18  8
18  20  8
18  21  8
20  23  8
21  24  8
23  26  8
24  26  8
5  14  8
5  20  8
6  16  3
7  27  6
8  28  5
9  29  6

$$$$

