47205596
  -OEChem-06241222592D

 32 33  0     0  0  0  0  0  0999 V2000
    6.7046   -2.7493    0.0000 S   0  0  0  0  0  0  0  0  0  0  0  0
    2.2788    1.8553    0.0000 O   0  0  0  0  0  0  0  0  0  0  0  0
    6.7500    0.9282    0.0000 O   0  0  0  0  0  0  0  0  0  0  0  0
    4.3126   -0.1010    0.0000 O   0  0  0  0  0  0  0  0  0  0  0  0
    6.2147   -0.7190    0.0000 N   0  0  0  0  0  0  0  0  0  0  0  0
    4.8479    1.5463    0.0000 N   0  0  0  0  0  0  0  0  0  0  0  0
    3.0878    1.2675    0.0000 N   0  0  0  0  0  0  0  0  0  0  0  0
    7.3737   -2.0062    0.0000 C   0  0  0  0  0  0  0  0  0  0  0  0
    7.1658   -1.0280    0.0000 C   0  0  0  0  0  0  0  0  0  0  0  0
    8.2872   -2.4129    0.0000 C   0  0  0  0  0  0  0  0  0  0  0  0
    8.1827   -3.4075    0.0000 C   0  0  0  0  0  0  0  0  0  0  0  0
    9.1533   -1.9129    0.0000 C   0  0  0  0  0  0  0  0  0  0  0  0
    7.2046   -3.6154    0.0000 C   0  0  0  0  0  0  0  0  0  0  0  0
    6.0068    0.2591    0.0000 C   0  0  0  0  0  0  0  0  0  0  0  0
    3.8968    1.8553    0.0000 C   0  0  0  0  0  0  0  0  0  0  0  0
    5.0558    0.5681    0.0000 C   0  0  0  0  0  0  0  0  0  0  0  0
    3.5878    2.8064    0.0000 C   0  0  0  0  0  0  0  0  0  0  0  0
    2.5878    2.8064    0.0000 C   0  0  0  0  0  0  0  0  0  0  0  0
    2.0000    3.6154    0.0000 C   0  0  0  0  0  0  0  0  0  0  0  0
    7.7854   -1.0064    0.0000 H   0  0  0  0  0  0  0  0  0  0  0  0
    7.2521   -0.4141    0.0000 H   0  0  0  0  0  0  0  0  0  0  0  0
    8.6435   -3.8223    0.0000 H   0  0  0  0  0  0  0  0  0  0  0  0
    5.7540   -1.1339    0.0000 H   0  0  0  0  0  0  0  0  0  0  0  0
    9.4633   -2.4499    0.0000 H   0  0  0  0  0  0  0  0  0  0  0  0
    9.6902   -1.6029    0.0000 H   0  0  0  0  0  0  0  0  0  0  0  0
    8.8433   -1.3760    0.0000 H   0  0  0  0  0  0  0  0  0  0  0  0
    6.9524   -4.1818    0.0000 H   0  0  0  0  0  0  0  0  0  0  0  0
    5.3086    1.9611    0.0000 H   0  0  0  0  0  0  0  0  0  0  0  0
    3.9522    3.3079    0.0000 H   0  0  0  0  0  0  0  0  0  0  0  0
    2.5016    3.9798    0.0000 H   0  0  0  0  0  0  0  0  0  0  0  0
    1.6356    4.1170    0.0000 H   0  0  0  0  0  0  0  0  0  0  0  0
    1.4984    3.2509    0.0000 H   0  0  0  0  0  0  0  0  0  0  0  0
  1  8  1  0  0  0  0
  1 13  1  0  0  0  0
  2  7  1  0  0  0  0
  2 18  1  0  0  0  0
  3 14  2  0  0  0  0
  4 16  2  0  0  0  0
  5  9  1  0  0  0  0
  5 14  1  0  0  0  0
  5 23  1  0  0  0  0
  6 15  1  0  0  0  0
  6 16  1  0  0  0  0
  6 28  1  0  0  0  0
  7 15  2  0  0  0  0
  8  9  1  0  0  0  0
  8 10  2  0  0  0  0
  9 20  1  0  0  0  0
  9 21  1  0  0  0  0
 10 11  1  0  0  0  0
 10 12  1  0  0  0  0
 11 13  2  0  0  0  0
 11 22  1  0  0  0  0
 12 24  1  0  0  0  0
 12 25  1  0  0  0  0
 12 26  1  0  0  0  0
 13 27  1  0  0  0  0
 14 16  1  0  0  0  0
 15 17  1  0  0  0  0
 17 18  2  0  0  0  0
 17 29  1  0  0  0  0
 18 19  1  0  0  0  0
 19 30  1  0  0  0  0
 19 31  1  0  0  0  0
 19 32  1  0  0  0  0
M  END
> <PUBCHEM_COMPOUND_CID>
47205596

> <PUBCHEM_COMPOUND_CANONICALIZED>
1

> <PUBCHEM_CACTVS_COMPLEXITY>
353

> <PUBCHEM_CACTVS_HBOND_ACCEPTOR>
5

> <PUBCHEM_CACTVS_HBOND_DONOR>
2

> <PUBCHEM_CACTVS_ROTATABLE_BOND>
3

> <PUBCHEM_CACTVS_SUBSKEYS>
AAADccBzMABAAAAAAAAAAAAAAAAAAWJAAAAAAAAAAAAAAAAB4AAAHgQUAAAADATF2gSztZLQAAitAqNycgCDAIAlKhBpmLm+bNqIZCrgmbGUAIhilwroyEYQAAAKAAAAAAAAAAAAAAAAAAAAAAAAAAAAAA==

> <PUBCHEM_IUPAC_OPENEYE_NAME>
N'-(5-methylisoxazol-3-yl)-N-[(3-methyl-2-thienyl)methyl]oxamide

> <PUBCHEM_IUPAC_CAS_NAME>
N'-(5-methyl-3-isoxazolyl)-N-[(3-methyl-2-thiophenyl)methyl]oxamide

> <PUBCHEM_IUPAC_NAME>
N'-(5-methyl-1,2-oxazol-3-yl)-N-[(3-methylthiophen-2-yl)methyl]oxamide

> <PUBCHEM_IUPAC_SYSTEMATIC_NAME>
N'-(5-methyl-1,2-oxazol-3-yl)-N-[(3-methylthiophen-2-yl)methyl]ethanediamide

> <PUBCHEM_IUPAC_TRADITIONAL_NAME>
N'-(5-methylisoxazol-3-yl)-N-[(3-methyl-2-thienyl)methyl]oxamide

> <PUBCHEM_IUPAC_INCHI>
InChI=1S/C12H13N3O3S/c1-7-3-4-19-9(7)6-13-11(16)12(17)14-10-5-8(2)18-15-10/h3-5H,6H2,1-2H3,(H,13,16)(H,14,15,17)

> <PUBCHEM_IUPAC_INCHIKEY>
HKAYUKOFJRBVEQ-UHFFFAOYSA-N

> <PUBCHEM_XLOGP3_AA>
1.6

> <PUBCHEM_EXACT_MASS>
279.067762

> <PUBCHEM_MOLECULAR_FORMULA>
C12H13N3O3S

> <PUBCHEM_MOLECULAR_WEIGHT>
279.31492

> <PUBCHEM_OPENEYE_CAN_SMILES>
CC1=C(SC=C1)CNC(=O)C(=O)NC2=NOC(=C2)C

> <PUBCHEM_OPENEYE_ISO_SMILES>
CC1=C(SC=C1)CNC(=O)C(=O)NC2=NOC(=C2)C

> <PUBCHEM_CACTVS_TPSA>
113

> <PUBCHEM_MONOISOTOPIC_WEIGHT>
279.067762

> <PUBCHEM_TOTAL_CHARGE>
0

> <PUBCHEM_HEAVY_ATOM_COUNT>
19

> <PUBCHEM_ATOM_DEF_STEREO_COUNT>
0

> <PUBCHEM_ATOM_UDEF_STEREO_COUNT>
0

> <PUBCHEM_BOND_DEF_STEREO_COUNT>
0

> <PUBCHEM_BOND_UDEF_STEREO_COUNT>
0

> <PUBCHEM_ISOTOPIC_ATOM_COUNT>
0

> <PUBCHEM_COMPONENT_COUNT>
1

> <PUBCHEM_CACTVS_TAUTO_COUNT>
16

> <PUBCHEM_COORDINATE_TYPE>
1
5
255

> <PUBCHEM_BONDANNOTATIONS>
1  13  8
1  8  8
10  11  8
11  13  8
15  17  8
17  18  8
2  18  8
2  7  8
7  15  8
8  10  8

$$$$

