64961
  -OEChem-07051213153D

 21 23  0     0  0  0  0  0  0999 V2000
    0.0175   -1.6273    0.0001 N   0  0  0  0  0  0  0  0  0  0  0  0
    3.4207   -0.2049   -0.0004 N   0  0  0  0  0  0  0  0  0  0  0  0
   -0.7139    0.4801    0.0001 C   0  0  0  0  0  0  0  0  0  0  0  0
    0.7169    0.4908    0.0003 C   0  0  0  0  0  0  0  0  0  0  0  0
   -1.1205   -0.8549    0.0002 C   0  0  0  0  0  0  0  0  0  0  0  0
    1.1413   -0.8375    0.0000 C   0  0  0  0  0  0  0  0  0  0  0  0
   -1.7027    1.4862   -0.0004 C   0  0  0  0  0  0  0  0  0  0  0  0
   -2.4672   -1.2359    0.0003 C   0  0  0  0  0  0  0  0  0  0  0  0
    1.6895    1.5029    0.0005 C   0  0  0  0  0  0  0  0  0  0  0  0
    2.4864   -1.1835   -0.0005 C   0  0  0  0  0  0  0  0  0  0  0  0
   -3.0535    1.1206   -0.0005 C   0  0  0  0  0  0  0  0  0  0  0  0
   -3.4278   -0.2209    0.0001 C   0  0  0  0  0  0  0  0  0  0  0  0
    3.0134    1.0843    0.0003 C   0  0  0  0  0  0  0  0  0  0  0  0
    0.0250   -2.6379    0.0001 H   0  0  0  0  0  0  0  0  0  0  0  0
   -1.4267    2.5369   -0.0007 H   0  0  0  0  0  0  0  0  0  0  0  0
   -2.7596   -2.2807    0.0005 H   0  0  0  0  0  0  0  0  0  0  0  0
    1.4306    2.5554    0.0008 H   0  0  0  0  0  0  0  0  0  0  0  0
    2.8397   -2.2063   -0.0008 H   0  0  0  0  0  0  0  0  0  0  0  0
   -3.8177    1.8932   -0.0009 H   0  0  0  0  0  0  0  0  0  0  0  0
   -4.4826   -0.4838    0.0002 H   0  0  0  0  0  0  0  0  0  0  0  0
    3.8168    1.8149    0.0004 H   0  0  0  0  0  0  0  0  0  0  0  0
  1  5  1  0  0  0  0
  1  6  1  0  0  0  0
  1 14  1  0  0  0  0
  2 10  2  0  0  0  0
  2 13  1  0  0  0  0
  3  4  1  0  0  0  0
  3  5  1  0  0  0  0
  3  7  2  0  0  0  0
  4  6  2  0  0  0  0
  4  9  1  0  0  0  0
  5  8  2  0  0  0  0
  6 10  1  0  0  0  0
  7 11  1  0  0  0  0
  7 15  1  0  0  0  0
  8 12  1  0  0  0  0
  8 16  1  0  0  0  0
  9 13  2  0  0  0  0
  9 17  1  0  0  0  0
 10 18  1  0  0  0  0
 11 12  2  0  0  0  0
 11 19  1  0  0  0  0
 12 20  1  0  0  0  0
 13 21  1  0  0  0  0
M  END
> <PUBCHEM_COMPOUND_CID>
64961

> <PUBCHEM_CONFORMER_RMSD>
0.4

> <PUBCHEM_CONFORMER_DIVERSEORDER>
1

> <PUBCHEM_MMFF94_PARTIAL_CHARGES>
19
1 0.03
10 0.16
11 -0.15
12 -0.15
13 0.16
14 0.27
15 0.15
16 0.15
17 0.15
18 0.15
19 0.15
2 -0.62
20 0.15
21 0.15
5 -0.15
6 -0.15
7 -0.15
8 -0.15
9 -0.15

> <PUBCHEM_EFFECTIVE_ROTOR_COUNT>
0

> <PUBCHEM_PHARMACOPHORE_FEATURES>
6
1 1 cation
1 1 donor
1 2 acceptor
5 1 3 4 5 6 rings
6 2 4 6 9 10 13 rings
6 3 5 7 8 11 12 rings

> <PUBCHEM_HEAVY_ATOM_COUNT>
13

> <PUBCHEM_ATOM_DEF_STEREO_COUNT>
0

> <PUBCHEM_ATOM_UDEF_STEREO_COUNT>
0

> <PUBCHEM_BOND_DEF_STEREO_COUNT>
0

> <PUBCHEM_BOND_UDEF_STEREO_COUNT>
0

> <PUBCHEM_ISOTOPIC_ATOM_COUNT>
0

> <PUBCHEM_COMPONENT_COUNT>
1

> <PUBCHEM_CACTVS_TAUTO_COUNT>
2

> <PUBCHEM_CONFORMER_ID>
0000FDC100000001

> <PUBCHEM_MMFF94_ENERGY>
28.3536

> <PUBCHEM_FEATURE_SELFOVERLAP>
30.632

> <PUBCHEM_SHAPE_FINGERPRINT>
10608611 8 18410578383235359713
10967382 1 18410855473055326663
11132069 177 18409454682319786512
11471102 20 18410579508748484277
12032990 46 18410567392392703407
12491281 212 18337378431038974433
13380535 76 18410576184196175971
14144814 61 18411138047533096264
14325111 11 18410856559655828193
15219456 202 18409165515077617653
15442244 35 18194120948084973930
15536298 74 18334013895862466468
15775835 57 18410568487630469377
16945 1 18337953522859510507
17844478 74 18201710748224038865
18186145 218 18334852857072185956
193761 8 13654773259879742827
19973954 147 18410853261147299141
200 152 18113631075194022909
20201158 50 18408886260636104191
20871998 184 18187641337311172247
21267235 1 18410565193369590755
21501502 16 18410575080378667631
2334 1 18410856529590862245
23402539 116 18261967283533688349
23402655 69 18263376926972682173
23463225 33 18341614849519909210
23552423 10 18343582910634857687
23559900 14 18261954150536754718
2748010 2 18410855455854326157
369184 2 18408323272207156377
5104073 3 18410575088958053705
528886 8 18410580590826976800
53812653 166 18334581222171512272
6333449 129 18410014329801923309
69090 78 18334018285218998295
7364860 26 18263082274551127134
8809292 202 18272364256954454603

> <PUBCHEM_SHAPE_MULTIPOLES>
257.57
5.44
1.71
0.6
0.05
0.04
0
0.48
0
0
0
-0.02
0.01
0

> <PUBCHEM_SHAPE_SELFOVERLAP>
586.551

> <PUBCHEM_SHAPE_VOLUME>
135.5

> <PUBCHEM_COORDINATE_TYPE>
2
5
10

$$$$

