1048
  -OEChem-07051212443D

  9  9  0     0  0  0  0  0  0999 V2000
    0.3072    1.0613   -0.0001 N   0  0  0  0  0  0  0  0  0  0  0  0
    1.2001    0.0569    0.0000 N   0  0  0  0  0  0  0  0  0  0  0  0
   -0.9915    0.6443    0.0001 C   0  0  0  0  0  0  0  0  0  0  0  0
   -0.9450   -0.7284   -0.0001 C   0  0  0  0  0  0  0  0  0  0  0  0
    0.4293   -1.0340    0.0001 C   0  0  0  0  0  0  0  0  0  0  0  0
   -1.8132    1.3459    0.0001 H   0  0  0  0  0  0  0  0  0  0  0  0
   -1.7844   -1.4079   -0.0001 H   0  0  0  0  0  0  0  0  0  0  0  0
    0.6547    2.0122   -0.0001 H   0  0  0  0  0  0  0  0  0  0  0  0
    0.9010   -2.0062    0.0001 H   0  0  0  0  0  0  0  0  0  0  0  0
  1  2  1  0  0  0  0
  1  3  1  0  0  0  0
  1  8  1  0  0  0  0
  2  5  2  0  0  0  0
  3  4  2  0  0  0  0
  3  6  1  0  0  0  0
  4  5  1  0  0  0  0
  4  7  1  0  0  0  0
  5  9  1  0  0  0  0
M  END
> <PUBCHEM_COMPOUND_CID>
1048

> <PUBCHEM_CONFORMER_RMSD>
0.4

> <PUBCHEM_CONFORMER_DIVERSEORDER>
1

> <PUBCHEM_MMFF94_PARTIAL_CHARGES>
9
1 0.3
2 -0.71
3 -0.3
4 -0.15
5 0.14
6 0.15
7 0.15
8 0.27
9 0.15

> <PUBCHEM_EFFECTIVE_ROTOR_COUNT>
0

> <PUBCHEM_PHARMACOPHORE_FEATURES>
3
1 1 donor
1 2 acceptor
5 1 2 3 4 5 rings

> <PUBCHEM_HEAVY_ATOM_COUNT>
5

> <PUBCHEM_ATOM_DEF_STEREO_COUNT>
0

> <PUBCHEM_ATOM_UDEF_STEREO_COUNT>
0

> <PUBCHEM_BOND_DEF_STEREO_COUNT>
0

> <PUBCHEM_BOND_UDEF_STEREO_COUNT>
0

> <PUBCHEM_ISOTOPIC_ATOM_COUNT>
0

> <PUBCHEM_COMPONENT_COUNT>
1

> <PUBCHEM_CACTVS_TAUTO_COUNT>
1

> <PUBCHEM_CONFORMER_ID>
0000041800000001

> <PUBCHEM_MMFF94_ENERGY>
0.5751

> <PUBCHEM_FEATURE_SELFOVERLAP>
15.223

> <PUBCHEM_SHAPE_FINGERPRINT>
20096714 4 18337951310882833281
21015797 1 9295289443212961795
21040471 1 18194682789805028869
5943 1 5875491466946486339

> <PUBCHEM_SHAPE_MULTIPOLES>
92.94
1.3
1.21
0.58
0.01
0.04
0
-0.01
0
0.01
0
0.02
0.03
0

> <PUBCHEM_SHAPE_SELFOVERLAP>
188.525

> <PUBCHEM_SHAPE_VOLUME>
56.4

> <PUBCHEM_COORDINATE_TYPE>
2
5
10

$$$$

