416247
  -OEChem-07051213092D

 36 37  0     0  0  0  0  0  0999 V2000
    4.2690    3.9050    0.0000 O   0  0  0  0  0  0  0  0  0  0  0  0
    2.5369    2.9050    0.0000 O   0  0  0  0  0  0  0  0  0  0  0  0
   10.3312   -3.5950    0.0000 O   0  0  0  0  0  0  0  0  0  0  0  0
    6.0010   -0.0950    0.0000 N   0  0  0  0  0  0  0  0  0  0  0  0
    6.8671   -0.5950    0.0000 C   0  0  0  0  0  0  0  0  0  0  0  0
    6.8671   -1.5950    0.0000 C   0  0  0  0  0  0  0  0  0  0  0  0
    6.0010    0.9050    0.0000 C   0  0  0  0  0  0  0  0  0  0  0  0
    7.7331   -2.0950    0.0000 C   0  0  0  0  0  0  0  0  0  0  0  0
    5.1350    1.4050    0.0000 C   0  0  0  0  0  0  0  0  0  0  0  0
    7.7331   -3.0950    0.0000 C   0  0  0  0  0  0  0  0  0  0  0  0
    8.5991   -1.5950    0.0000 C   0  0  0  0  0  0  0  0  0  0  0  0
    5.1350    2.4050    0.0000 C   0  0  0  0  0  0  0  0  0  0  0  0
    4.2690    0.9050    0.0000 C   0  0  0  0  0  0  0  0  0  0  0  0
    4.2690    2.9050    0.0000 C   0  0  0  0  0  0  0  0  0  0  0  0
    8.5991   -3.5950    0.0000 C   0  0  0  0  0  0  0  0  0  0  0  0
    9.4651   -2.0950    0.0000 C   0  0  0  0  0  0  0  0  0  0  0  0
    3.4030    1.4050    0.0000 C   0  0  0  0  0  0  0  0  0  0  0  0
    3.4030    2.4050    0.0000 C   0  0  0  0  0  0  0  0  0  0  0  0
    9.4651   -3.0950    0.0000 C   0  0  0  0  0  0  0  0  0  0  0  0
    7.4776   -0.7027    0.0000 H   0  0  0  0  0  0  0  0  0  0  0  0
    7.0791   -0.0124    0.0000 H   0  0  0  0  0  0  0  0  0  0  0  0
    6.2565   -1.4873    0.0000 H   0  0  0  0  0  0  0  0  0  0  0  0
    6.6550   -2.1776    0.0000 H   0  0  0  0  0  0  0  0  0  0  0  0
    6.6116    0.7973    0.0000 H   0  0  0  0  0  0  0  0  0  0  0  0
    6.2131    1.4876    0.0000 H   0  0  0  0  0  0  0  0  0  0  0  0
    5.4641   -0.4050    0.0000 H   0  0  0  0  0  0  0  0  0  0  0  0
    7.1962   -3.4050    0.0000 H   0  0  0  0  0  0  0  0  0  0  0  0
    8.5991   -0.9750    0.0000 H   0  0  0  0  0  0  0  0  0  0  0  0
    5.6720    2.7150    0.0000 H   0  0  0  0  0  0  0  0  0  0  0  0
    4.2690    0.2850    0.0000 H   0  0  0  0  0  0  0  0  0  0  0  0
    2.8660    1.0950    0.0000 H   0  0  0  0  0  0  0  0  0  0  0  0
    8.5991   -4.2150    0.0000 H   0  0  0  0  0  0  0  0  0  0  0  0
   10.0021   -1.7850    0.0000 H   0  0  0  0  0  0  0  0  0  0  0  0
    4.8059    4.2150    0.0000 H   0  0  0  0  0  0  0  0  0  0  0  0
    2.0000    2.5950    0.0000 H   0  0  0  0  0  0  0  0  0  0  0  0
   10.3312   -4.2150    0.0000 H   0  0  0  0  0  0  0  0  0  0  0  0
  1 14  1  0  0  0  0
  1 34  1  0  0  0  0
  2 18  1  0  0  0  0
  2 35  1  0  0  0  0
  3 19  1  0  0  0  0
  3 36  1  0  0  0  0
  4  5  1  0  0  0  0
  4  7  1  0  0  0  0
  4 26  1  0  0  0  0
  5  6  1  0  0  0  0
  5 20  1  0  0  0  0
  5 21  1  0  0  0  0
  6  8  1  0  0  0  0
  6 22  1  0  0  0  0
  6 23  1  0  0  0  0
  7  9  1  0  0  0  0
  7 24  1  0  0  0  0
  7 25  1  0  0  0  0
  8 10  2  0  0  0  0
  8 11  1  0  0  0  0
  9 12  2  0  0  0  0
  9 13  1  0  0  0  0
 10 15  1  0  0  0  0
 10 27  1  0  0  0  0
 11 16  2  0  0  0  0
 11 28  1  0  0  0  0
 12 14  1  0  0  0  0
 12 29  1  0  0  0  0
 13 17  2  0  0  0  0
 13 30  1  0  0  0  0
 14 18  2  0  0  0  0
 15 19  2  0  0  0  0
 15 32  1  0  0  0  0
 16 19  1  0  0  0  0
 16 33  1  0  0  0  0
 17 18  1  0  0  0  0
 17 31  1  0  0  0  0
M  END
> <PUBCHEM_COMPOUND_CID>
416247

> <PUBCHEM_COMPOUND_CANONICALIZED>
1

> <PUBCHEM_CACTVS_COMPLEXITY>
254

> <PUBCHEM_CACTVS_HBOND_ACCEPTOR>
4

> <PUBCHEM_CACTVS_HBOND_DONOR>
4

> <PUBCHEM_CACTVS_ROTATABLE_BOND>
5

> <PUBCHEM_CACTVS_SUBSKEYS>
AAADceByMAAAAAAAAAAAAAAAAAAAAAAAAAAwYAAAAAAAAAABQAAAHgAQCAAADATBmAQwBoLAAgCAAiBCAACCAAAgIAAIiIAOjIgJJiKCkROEcAlk0BGJmAew0JIOIAABAAAAQABAAAIAAACAAAAAAAAAAA==

> <PUBCHEM_IUPAC_OPENEYE_NAME>
4-[[2-(4-hydroxyphenyl)ethylamino]methyl]benzene-1,2-diol

> <PUBCHEM_IUPAC_CAS_NAME>
4-[[2-(4-hydroxyphenyl)ethylamino]methyl]benzene-1,2-diol

> <PUBCHEM_IUPAC_NAME>
4-[[2-(4-hydroxyphenyl)ethylamino]methyl]benzene-1,2-diol

> <PUBCHEM_IUPAC_SYSTEMATIC_NAME>
4-[[2-(4-hydroxyphenyl)ethylamino]methyl]benzene-1,2-diol

> <PUBCHEM_IUPAC_TRADITIONAL_NAME>
4-[[2-(4-hydroxyphenyl)ethylamino]methyl]pyrocatechol

> <PUBCHEM_IUPAC_INCHI>
InChI=1S/C15H17NO3/c17-13-4-1-11(2-5-13)7-8-16-10-12-3-6-14(18)15(19)9-12/h1-6,9,16-19H,7-8,10H2

> <PUBCHEM_IUPAC_INCHIKEY>
YJYUDTAJVLORNV-UHFFFAOYSA-N

> <PUBCHEM_XLOGP3_AA>
2.2

> <PUBCHEM_EXACT_MASS>
259.120843

> <PUBCHEM_MOLECULAR_FORMULA>
C15H17NO3

> <PUBCHEM_MOLECULAR_WEIGHT>
259.30038

> <PUBCHEM_OPENEYE_CAN_SMILES>
C1=CC(=CC=C1CCNCC2=CC(=C(C=C2)O)O)O

> <PUBCHEM_OPENEYE_ISO_SMILES>
C1=CC(=CC=C1CCNCC2=CC(=C(C=C2)O)O)O

> <PUBCHEM_CACTVS_TPSA>
72.7

> <PUBCHEM_MONOISOTOPIC_WEIGHT>
259.120843

> <PUBCHEM_TOTAL_CHARGE>
0

> <PUBCHEM_HEAVY_ATOM_COUNT>
19

> <PUBCHEM_ATOM_DEF_STEREO_COUNT>
0

> <PUBCHEM_ATOM_UDEF_STEREO_COUNT>
0

> <PUBCHEM_BOND_DEF_STEREO_COUNT>
0

> <PUBCHEM_BOND_UDEF_STEREO_COUNT>
0

> <PUBCHEM_ISOTOPIC_ATOM_COUNT>
0

> <PUBCHEM_COMPONENT_COUNT>
1

> <PUBCHEM_CACTVS_TAUTO_COUNT>
20

> <PUBCHEM_COORDINATE_TYPE>
1
5
255

> <PUBCHEM_BONDANNOTATIONS>
10  15  8
11  16  8
12  14  8
13  17  8
14  18  8
15  19  8
16  19  8
17  18  8
8  10  8
8  11  8
9  12  8
9  13  8

$$$$

