5462243
  -OEChem-07051212472D

 44 43  0     1  0  0  0  0  0999 V2000
    6.3301    3.5000    0.0000 O   0  0  0  0  0  0  0  0  0  0  0  0
    3.7320    1.0000    0.0000 O   0  0  0  0  0  0  0  0  0  0  0  0
    9.7942    2.5000    0.0000 O   0  0  0  0  0  0  0  0  0  0  0  0
    8.9282    1.0000    0.0000 O   0  0  0  0  0  0  0  0  0  0  0  0
    2.0000   -2.0000    0.0000 O   0  0  0  0  0  0  0  0  0  0  0  0
    4.5981    2.5000    0.0000 N   0  0  0  0  0  0  0  0  0  0  0  0
    7.1962    2.0000    0.0000 N   0  0  0  0  0  0  0  0  0  0  0  0
    3.7320   -2.0000    0.0000 N   0  0  0  0  0  0  0  0  0  0  0  0
    5.4641    1.0000    0.0000 C   0  0  0  0  0  0  0  0  0  0  0  0
    5.4641    2.0000    0.0000 C   0  0  1  0  0  0  0  0  0  0  0  0
    4.5981    0.5000    0.0000 C   0  0  0  0  0  0  0  0  0  0  0  0
    4.5981   -0.5000    0.0000 C   0  0  0  0  0  0  0  0  0  0  0  0
    6.3301    2.5000    0.0000 C   0  0  0  0  0  0  0  0  0  0  0  0
    3.7320   -1.0000    0.0000 C   0  0  0  0  0  0  0  0  0  0  0  0
    8.0622    2.5000    0.0000 C   0  0  2  0  0  0  0  0  0  0  0  0
    3.7320    2.0000    0.0000 C   0  0  0  0  0  0  0  0  0  0  0  0
    8.0622    3.5000    0.0000 C   0  0  0  0  0  0  0  0  0  0  0  0
    8.9282    2.0000    0.0000 C   0  0  0  0  0  0  0  0  0  0  0  0
    2.8660    2.5000    0.0000 C   0  0  0  0  0  0  0  0  0  0  0  0
    2.8660   -2.5000    0.0000 C   0  0  0  0  0  0  0  0  0  0  0  0
    2.8660   -3.5000    0.0000 C   0  0  0  0  0  0  0  0  0  0  0  0
    5.6762    0.4174    0.0000 H   0  0  0  0  0  0  0  0  0  0  0  0
    6.0747    1.1077    0.0000 H   0  0  0  0  0  0  0  0  0  0  0  0
    5.4641    2.6200    0.0000 H   0  0  0  0  0  0  0  0  0  0  0  0
    4.3860    1.0826    0.0000 H   0  0  0  0  0  0  0  0  0  0  0  0
    3.9875    0.3923    0.0000 H   0  0  0  0  0  0  0  0  0  0  0  0
    4.8101   -1.0826    0.0000 H   0  0  0  0  0  0  0  0  0  0  0  0
    5.2087   -0.3923    0.0000 H   0  0  0  0  0  0  0  0  0  0  0  0
    3.5200   -0.4174    0.0000 H   0  0  0  0  0  0  0  0  0  0  0  0
    3.1215   -1.1077    0.0000 H   0  0  0  0  0  0  0  0  0  0  0  0
    4.5981    3.1200    0.0000 H   0  0  0  0  0  0  0  0  0  0  0  0
    7.1962    1.3800    0.0000 H   0  0  0  0  0  0  0  0  0  0  0  0
    8.0622    1.8800    0.0000 H   0  0  0  0  0  0  0  0  0  0  0  0
    4.2690   -2.3100    0.0000 H   0  0  0  0  0  0  0  0  0  0  0  0
    8.6822    3.5000    0.0000 H   0  0  0  0  0  0  0  0  0  0  0  0
    8.0622    4.1200    0.0000 H   0  0  0  0  0  0  0  0  0  0  0  0
    7.4422    3.5000    0.0000 H   0  0  0  0  0  0  0  0  0  0  0  0
    3.1760    3.0369    0.0000 H   0  0  0  0  0  0  0  0  0  0  0  0
    2.3291    2.8100    0.0000 H   0  0  0  0  0  0  0  0  0  0  0  0
    2.5560    1.9631    0.0000 H   0  0  0  0  0  0  0  0  0  0  0  0
    2.2460   -3.5000    0.0000 H   0  0  0  0  0  0  0  0  0  0  0  0
    2.8660   -4.1200    0.0000 H   0  0  0  0  0  0  0  0  0  0  0  0
    3.4860   -3.5000    0.0000 H   0  0  0  0  0  0  0  0  0  0  0  0
   10.3312    2.1900    0.0000 H   0  0  0  0  0  0  0  0  0  0  0  0
  1 13  2  0  0  0  0
  2 16  2  0  0  0  0
  3 18  1  0  0  0  0
  3 44  1  0  0  0  0
  4 18  2  0  0  0  0
  5 20  2  0  0  0  0
 10  6  1  6  0  0  0
  6 16  1  0  0  0  0
  6 31  1  0  0  0  0
  7 13  1  0  0  0  0
 15  7  1  6  0  0  0
  7 32  1  0  0  0  0
  8 14  1  0  0  0  0
  8 20  1  0  0  0  0
  8 34  1  0  0  0  0
  9 10  1  0  0  0  0
  9 11  1  0  0  0  0
  9 22  1  0  0  0  0
  9 23  1  0  0  0  0
 10 13  1  0  0  0  0
 10 24  1  0  0  0  0
 11 12  1  0  0  0  0
 11 25  1  0  0  0  0
 11 26  1  0  0  0  0
 12 14  1  0  0  0  0
 12 27  1  0  0  0  0
 12 28  1  0  0  0  0
 14 29  1  0  0  0  0
 14 30  1  0  0  0  0
 15 17  1  0  0  0  0
 15 18  1  0  0  0  0
 15 33  1  0  0  0  0
 16 19  1  0  0  0  0
 17 35  1  0  0  0  0
 17 36  1  0  0  0  0
 17 37  1  0  0  0  0
 19 38  1  0  0  0  0
 19 39  1  0  0  0  0
 19 40  1  0  0  0  0
 20 21  1  0  0  0  0
 21 41  1  0  0  0  0
 21 42  1  0  0  0  0
 21 43  1  0  0  0  0
M  END
> <PUBCHEM_COMPOUND_CID>
5462243

> <PUBCHEM_COMPOUND_CANONICALIZED>
1

> <PUBCHEM_CACTVS_COMPLEXITY>
397

> <PUBCHEM_CACTVS_HBOND_ACCEPTOR>
5

> <PUBCHEM_CACTVS_HBOND_DONOR>
4

> <PUBCHEM_CACTVS_ROTATABLE_BOND>
9

> <PUBCHEM_CACTVS_SUBSKEYS>
AAADceBzOAAAAAAAAAAAAAAAAAAAAAAAAAAAAAAAAAAAAAAAAAAAHgAQCAAACCjBgAQCCALAAgAIAAGQGAAAAAAAAAAAAIGIAAACQBIAgCAUQAAAFgCQAAEYCAAAAAAAAAAAAAAAAAAAAAAAAAAAAAAAAA==

> <PUBCHEM_IUPAC_OPENEYE_NAME>
(2R)-2-[[(2S)-2,6-diacetamidohexanoyl]amino]propanoic acid

> <PUBCHEM_IUPAC_CAS_NAME>
(2R)-2-[[(2S)-2,6-diacetamido-1-oxohexyl]amino]propanoic acid

> <PUBCHEM_IUPAC_NAME>
(2R)-2-[[(2S)-2,6-diacetamidohexanoyl]amino]propanoic acid

> <PUBCHEM_IUPAC_SYSTEMATIC_NAME>
(2R)-2-[[(2S)-2,6-diacetamidohexanoyl]amino]propanoic acid

> <PUBCHEM_IUPAC_TRADITIONAL_NAME>
(2R)-2-[[(2S)-2,6-diacetamidohexanoyl]amino]propionic acid

> <PUBCHEM_IUPAC_INCHI>
InChI=1S/C13H23N3O5/c1-8(13(20)21)15-12(19)11(16-10(3)18)6-4-5-7-14-9(2)17/h8,11H,4-7H2,1-3H3,(H,14,17)(H,15,19)(H,16,18)(H,20,21)/t8-,11+/m1/s1

> <PUBCHEM_IUPAC_INCHIKEY>
GREPICCJTJBJKO-KCJUWKMLSA-N

> <PUBCHEM_XLOGP3_AA>
-0.7

> <PUBCHEM_EXACT_MASS>
301.163771

> <PUBCHEM_MOLECULAR_FORMULA>
C13H23N3O5

> <PUBCHEM_MOLECULAR_WEIGHT>
301.33882

> <PUBCHEM_OPENEYE_CAN_SMILES>
CC(C(=O)O)NC(=O)C(CCCCNC(=O)C)NC(=O)C

> <PUBCHEM_OPENEYE_ISO_SMILES>
C[C@H](C(=O)O)NC(=O)[C@H](CCCCNC(=O)C)NC(=O)C

> <PUBCHEM_CACTVS_TPSA>
125

> <PUBCHEM_MONOISOTOPIC_WEIGHT>
301.163771

> <PUBCHEM_TOTAL_CHARGE>
0

> <PUBCHEM_HEAVY_ATOM_COUNT>
21

> <PUBCHEM_ATOM_DEF_STEREO_COUNT>
2

> <PUBCHEM_ATOM_UDEF_STEREO_COUNT>
0

> <PUBCHEM_BOND_DEF_STEREO_COUNT>
0

> <PUBCHEM_BOND_UDEF_STEREO_COUNT>
0

> <PUBCHEM_ISOTOPIC_ATOM_COUNT>
0

> <PUBCHEM_COMPONENT_COUNT>
1

> <PUBCHEM_CACTVS_TAUTO_COUNT>
8

> <PUBCHEM_COORDINATE_TYPE>
1
5
255

> <PUBCHEM_BONDANNOTATIONS>
10  6  6
15  7  6

$$$$

