146457
  -OEChem-07051213052D

 38 40  0     1  0  0  0  0  0999 V2000
    2.5369    1.3722    0.0000 O   0  0  0  0  0  0  0  0  0  0  0  0
   10.6648    0.3722    0.0000 O   0  0  0  0  0  0  0  0  0  0  0  0
    6.0812    1.1769    0.0000 C   0  0  1  0  0  0  0  0  0  0  0  0
    6.6648    0.3722    0.0000 C   0  0  0  0  0  0  0  0  0  0  0  0
    5.1350    0.8722    0.0000 C   0  0  0  0  0  0  0  0  0  0  0  0
    6.0812   -0.4326    0.0000 C   0  0  0  0  0  0  0  0  0  0  0  0
    5.1350   -0.1278    0.0000 C   0  0  0  0  0  0  0  0  0  0  0  0
    6.3919   -1.3831    0.0000 C   0  0  0  0  0  0  0  0  0  0  0  0
    6.3919    2.1274    0.0000 C   0  0  0  0  0  0  0  0  0  0  0  0
    7.6648    0.3722    0.0000 C   0  0  0  0  0  0  0  0  0  0  0  0
    4.2690    1.3722    0.0000 C   0  0  0  0  0  0  0  0  0  0  0  0
    4.2690   -0.6278    0.0000 C   0  0  0  0  0  0  0  0  0  0  0  0
    3.4030    0.8722    0.0000 C   0  0  0  0  0  0  0  0  0  0  0  0
    3.4030   -0.1278    0.0000 C   0  0  0  0  0  0  0  0  0  0  0  0
    5.7240   -2.1274    0.0000 C   0  0  0  0  0  0  0  0  0  0  0  0
    8.1648   -0.4939    0.0000 C   0  0  0  0  0  0  0  0  0  0  0  0
    8.1648    1.2382    0.0000 C   0  0  0  0  0  0  0  0  0  0  0  0
    9.1648   -0.4939    0.0000 C   0  0  0  0  0  0  0  0  0  0  0  0
    9.1648    1.2382    0.0000 C   0  0  0  0  0  0  0  0  0  0  0  0
    9.6648    0.3722    0.0000 C   0  0  0  0  0  0  0  0  0  0  0  0
    6.6937    1.2731    0.0000 H   0  0  0  0  0  0  0  0  0  0  0  0
    6.7744   -1.8710    0.0000 H   0  0  0  0  0  0  0  0  0  0  0  0
    6.9388   -1.0911    0.0000 H   0  0  0  0  0  0  0  0  0  0  0  0
    6.9812    1.9348    0.0000 H   0  0  0  0  0  0  0  0  0  0  0  0
    6.5845    2.7167    0.0000 H   0  0  0  0  0  0  0  0  0  0  0  0
    5.8026    2.3200    0.0000 H   0  0  0  0  0  0  0  0  0  0  0  0
    4.2690    1.9922    0.0000 H   0  0  0  0  0  0  0  0  0  0  0  0
    4.2690   -1.2478    0.0000 H   0  0  0  0  0  0  0  0  0  0  0  0
    2.8660   -0.4378    0.0000 H   0  0  0  0  0  0  0  0  0  0  0  0
    5.2626   -1.7133    0.0000 H   0  0  0  0  0  0  0  0  0  0  0  0
    5.3100   -2.5889    0.0000 H   0  0  0  0  0  0  0  0  0  0  0  0
    6.1855   -2.5415    0.0000 H   0  0  0  0  0  0  0  0  0  0  0  0
    7.8548   -1.0308    0.0000 H   0  0  0  0  0  0  0  0  0  0  0  0
    7.8548    1.7751    0.0000 H   0  0  0  0  0  0  0  0  0  0  0  0
    9.4748   -1.0308    0.0000 H   0  0  0  0  0  0  0  0  0  0  0  0
    9.4748    1.7751    0.0000 H   0  0  0  0  0  0  0  0  0  0  0  0
    2.0000    1.0622    0.0000 H   0  0  0  0  0  0  0  0  0  0  0  0
   10.9748    0.9091    0.0000 H   0  0  0  0  0  0  0  0  0  0  0  0
  1 13  1  0  0  0  0
  1 37  1  0  0  0  0
  2 20  1  0  0  0  0
  2 38  1  0  0  0  0
  3  4  1  0  0  0  0
  3  5  1  0  0  0  0
  3  9  1  1  0  0  0
  3 21  1  0  0  0  0
  4  6  2  0  0  0  0
  4 10  1  0  0  0  0
  5  7  2  0  0  0  0
  5 11  1  0  0  0  0
  6  7  1  0  0  0  0
  6  8  1  0  0  0  0
  7 12  1  0  0  0  0
  8 15  1  0  0  0  0
  8 22  1  0  0  0  0
  8 23  1  0  0  0  0
  9 24  1  0  0  0  0
  9 25  1  0  0  0  0
  9 26  1  0  0  0  0
 10 16  2  0  0  0  0
 10 17  1  0  0  0  0
 11 13  2  0  0  0  0
 11 27  1  0  0  0  0
 12 14  2  0  0  0  0
 12 28  1  0  0  0  0
 13 14  1  0  0  0  0
 14 29  1  0  0  0  0
 15 30  1  0  0  0  0
 15 31  1  0  0  0  0
 15 32  1  0  0  0  0
 16 18  1  0  0  0  0
 16 33  1  0  0  0  0
 17 19  2  0  0  0  0
 17 34  1  0  0  0  0
 18 20  2  0  0  0  0
 18 35  1  0  0  0  0
 19 20  1  0  0  0  0
 19 36  1  0  0  0  0
M  END
> <PUBCHEM_COMPOUND_CID>
146457

> <PUBCHEM_COMPOUND_CANONICALIZED>
1

> <PUBCHEM_CACTVS_COMPLEXITY>
379

> <PUBCHEM_CACTVS_HBOND_ACCEPTOR>
2

> <PUBCHEM_CACTVS_HBOND_DONOR>
2

> <PUBCHEM_CACTVS_ROTATABLE_BOND>
2

> <PUBCHEM_CACTVS_SUBSKEYS>
AAADceB4MAAAAAAAAAAAAAAAAAAAAQAAAAAwYAAAAAAAAEABQAAAGgAACAAADQSAmAAyBoAAAgCAAiBCAAACAAAgIAAIiAAGCIgIJiKCERKAcAAkwBEImAeAwPAOoAABAAAQAABAAAIAACAAAAAAAAAAAA==

> <PUBCHEM_IUPAC_OPENEYE_NAME>
(3R)-1-ethyl-2-(4-hydroxyphenyl)-3-methyl-3H-inden-5-ol

> <PUBCHEM_IUPAC_CAS_NAME>
(3R)-1-ethyl-2-(4-hydroxyphenyl)-3-methyl-3H-inden-5-ol

> <PUBCHEM_IUPAC_NAME>
(3R)-1-ethyl-2-(4-hydroxyphenyl)-3-methyl-3H-inden-5-ol

> <PUBCHEM_IUPAC_SYSTEMATIC_NAME>
(3R)-1-ethyl-2-(4-hydroxyphenyl)-3-methyl-3H-inden-5-ol

> <PUBCHEM_IUPAC_TRADITIONAL_NAME>
(3R)-1-ethyl-2-(4-hydroxyphenyl)-3-methyl-3H-inden-5-ol

> <PUBCHEM_IUPAC_INCHI>
InChI=1S/C18H18O2/c1-3-15-16-9-8-14(20)10-17(16)11(2)18(15)12-4-6-13(19)7-5-12/h4-11,19-20H,3H2,1-2H3/t11-/m1/s1

> <PUBCHEM_IUPAC_INCHIKEY>
BBOUFHMHCBZYJJ-LLVKDONJSA-N

> <PUBCHEM_XLOGP3_AA>
3.9

> <PUBCHEM_EXACT_MASS>
266.13068

> <PUBCHEM_MOLECULAR_FORMULA>
C18H18O2

> <PUBCHEM_MOLECULAR_WEIGHT>
266.33432

> <PUBCHEM_OPENEYE_CAN_SMILES>
CCC1=C(C(C2=C1C=CC(=C2)O)C)C3=CC=C(C=C3)O

> <PUBCHEM_OPENEYE_ISO_SMILES>
CCC1=C([C@@H](C2=C1C=CC(=C2)O)C)C3=CC=C(C=C3)O

> <PUBCHEM_CACTVS_TPSA>
40.5

> <PUBCHEM_MONOISOTOPIC_WEIGHT>
266.13068

> <PUBCHEM_TOTAL_CHARGE>
0

> <PUBCHEM_HEAVY_ATOM_COUNT>
20

> <PUBCHEM_ATOM_DEF_STEREO_COUNT>
1

> <PUBCHEM_ATOM_UDEF_STEREO_COUNT>
0

> <PUBCHEM_BOND_DEF_STEREO_COUNT>
0

> <PUBCHEM_BOND_UDEF_STEREO_COUNT>
0

> <PUBCHEM_ISOTOPIC_ATOM_COUNT>
0

> <PUBCHEM_COMPONENT_COUNT>
1

> <PUBCHEM_CACTVS_TAUTO_COUNT>
84

> <PUBCHEM_COORDINATE_TYPE>
1
5
255

> <PUBCHEM_BONDANNOTATIONS>
10  16  8
10  17  8
11  13  8
12  14  8
13  14  8
16  18  8
17  19  8
18  20  8
19  20  8
3  9  5
5  11  8
5  7  8
7  12  8

$$$$

