6141701
  -OEChem-07051213063D

 31 32  0     0  0  0  0  0  0999 V2000
    5.2851    2.3464   -0.1485 Cl  0  0  0  0  0  0  0  0  0  0  0  0
   -5.6315    0.0096    0.4260 O   0  0  0  0  0  0  0  0  0  0  0  0
    0.8520   -0.6726   -2.6707 N   0  0  0  0  0  0  0  0  0  0  0  0
   -1.5183   -0.1816   -0.0959 C   0  0  0  0  0  0  0  0  0  0  0  0
   -0.0771   -0.2485   -0.2795 C   0  0  0  0  0  0  0  0  0  0  0  0
    2.2841   -0.1752    0.5923 C   0  0  0  0  0  0  0  0  0  0  0  0
    0.8221   -0.1082    0.7310 C   0  0  0  0  0  0  0  0  0  0  0  0
   -2.2394   -1.3404    0.1918 C   0  0  0  0  0  0  0  0  0  0  0  0
   -2.1794    1.0415   -0.2081 C   0  0  0  0  0  0  0  0  0  0  0  0
   -4.2829   -0.0528    0.2550 C   0  0  0  0  0  0  0  0  0  0  0  0
   -3.6218   -1.2760    0.3672 C   0  0  0  0  0  0  0  0  0  0  0  0
   -3.5616    1.1059   -0.0326 C   0  0  0  0  0  0  0  0  0  0  0  0
    2.9973    0.9829    0.3195 C   0  0  0  0  0  0  0  0  0  0  0  0
    2.9272   -1.3960    0.7355 C   0  0  0  0  0  0  0  0  0  0  0  0
    4.3844    0.9188    0.1871 C   0  0  0  0  0  0  0  0  0  0  0  0
    4.3142   -1.4602    0.6032 C   0  0  0  0  0  0  0  0  0  0  0  0
    5.0428   -0.3027    0.3290 C   0  0  0  0  0  0  0  0  0  0  0  0
    0.4467   -0.4828   -1.5999 C   0  0  0  0  0  0  0  0  0  0  0  0
   -6.2439    1.2920    0.2975 C   0  0  0  0  0  0  0  0  0  0  0  0
    0.4714    0.0674    1.7462 H   0  0  0  0  0  0  0  0  0  0  0  0
   -1.7393   -2.3017    0.2826 H   0  0  0  0  0  0  0  0  0  0  0  0
   -1.6308    1.9536   -0.4319 H   0  0  0  0  0  0  0  0  0  0  0  0
   -4.1784   -2.1820    0.5910 H   0  0  0  0  0  0  0  0  0  0  0  0
   -4.0114    2.0877   -0.1335 H   0  0  0  0  0  0  0  0  0  0  0  0
    2.4825    1.9349    0.2100 H   0  0  0  0  0  0  0  0  0  0  0  0
    2.3711   -2.3050    0.9495 H   0  0  0  0  0  0  0  0  0  0  0  0
    4.8268   -2.4112    0.7137 H   0  0  0  0  0  0  0  0  0  0  0  0
    6.1232   -0.3678    0.2289 H   0  0  0  0  0  0  0  0  0  0  0  0
   -6.1260    1.6946   -0.7143 H   0  0  0  0  0  0  0  0  0  0  0  0
   -5.8869    1.9870    1.0650 H   0  0  0  0  0  0  0  0  0  0  0  0
   -7.3175    1.1557    0.4642 H   0  0  0  0  0  0  0  0  0  0  0  0
  1 15  1  0  0  0  0
  2 10  1  0  0  0  0
  2 19  1  0  0  0  0
  3 18  3  0  0  0  0
  4  5  1  0  0  0  0
  4  8  2  0  0  0  0
  4  9  1  0  0  0  0
  5  7  2  0  0  0  0
  5 18  1  0  0  0  0
  6  7  1  0  0  0  0
  6 13  2  0  0  0  0
  6 14  1  0  0  0  0
  7 20  1  0  0  0  0
  8 11  1  0  0  0  0
  8 21  1  0  0  0  0
  9 12  2  0  0  0  0
  9 22  1  0  0  0  0
 10 11  2  0  0  0  0
 10 12  1  0  0  0  0
 11 23  1  0  0  0  0
 12 24  1  0  0  0  0
 13 15  1  0  0  0  0
 13 25  1  0  0  0  0
 14 16  2  0  0  0  0
 14 26  1  0  0  0  0
 15 17  2  0  0  0  0
 16 17  1  0  0  0  0
 16 27  1  0  0  0  0
 17 28  1  0  0  0  0
 19 29  1  0  0  0  0
 19 30  1  0  0  0  0
 19 31  1  0  0  0  0
M  END
> <PUBCHEM_COMPOUND_CID>
6141701

> <PUBCHEM_CONFORMER_RMSD>
0.6

> <PUBCHEM_CONFORMER_DIVERSEORDER>
1
11
18
2
10
17
12
3
16
8
15
7
6
14
4
13
9
5

> <PUBCHEM_MMFF94_PARTIAL_CHARGES>
28
1 -0.18
10 0.08
11 -0.15
12 -0.15
13 -0.15
14 -0.15
15 0.18
16 -0.15
17 -0.15
18 0.49
19 0.28
2 -0.36
20 0.15
21 0.15
22 0.15
23 0.15
24 0.15
25 0.15
26 0.15
27 0.15
28 0.15
3 -0.56
4 0.03
5 0.04
6 0.03
7 -0.18
8 -0.15
9 -0.15

> <PUBCHEM_EFFECTIVE_ROTOR_COUNT>
3

> <PUBCHEM_PHARMACOPHORE_FEATURES>
4
1 2 acceptor
1 3 acceptor
6 4 8 9 10 11 12 rings
6 6 13 14 15 16 17 rings

> <PUBCHEM_HEAVY_ATOM_COUNT>
19

> <PUBCHEM_ATOM_DEF_STEREO_COUNT>
0

> <PUBCHEM_ATOM_UDEF_STEREO_COUNT>
0

> <PUBCHEM_BOND_DEF_STEREO_COUNT>
1

> <PUBCHEM_BOND_UDEF_STEREO_COUNT>
0

> <PUBCHEM_ISOTOPIC_ATOM_COUNT>
0

> <PUBCHEM_COMPONENT_COUNT>
1

> <PUBCHEM_CACTVS_TAUTO_COUNT>
1

> <PUBCHEM_CONFORMER_ID>
005DB70500000001

> <PUBCHEM_MMFF94_ENERGY>
64.7432

> <PUBCHEM_FEATURE_SELFOVERLAP>
20.297

> <PUBCHEM_SHAPE_FINGERPRINT>
10670039 82 16805868672321085944
10906281 52 17895459393847209657
12107183 9 17692256652182959544
12236239 1 17632574959575245235
12507560 40 18131638910418664981
12553582 1 15267346218779830474
12596602 18 18202280299631859105
12895836 83 17314229948103486988
13533116 47 18130790117549309594
13675066 3 17632573868764341339
13760787 19 18334860480908285050
14252887 29 16487258793982668170
14341114 176 18342171172070027473
14341114 328 18411983546326430208
14863182 85 14620799335953205042
15048467 5 18343302544034237000
15342168 16 17844525510097132652
17834072 33 18412829070878991970
17844677 252 18342172314737212352
17980427 23 18340485574196261629
1813 80 16056880251656833742
18222031 100 15697998552559904510
20281389 69 18272370901886124257
20645477 70 18337955688066834002
21033648 29 17774459242848614557
21267235 1 18340764940291242794
23402539 116 18260557731797996093
23559900 14 18413392029527830162
23622692 88 16773793706372853903
300161 21 18271814505530044051
34797466 226 18334848399186133900
3545911 37 18342458144921258168
4072396 5 17168431566037766338
4073 2 17845930737148787706
4214541 1 18341615944525677265
449060 50 18130792239478969852
5104073 3 18272373048657116432
542803 24 17967250905749234881
621550 34 17560813130181510110
77779 3 18413673513041734298
8272917 22 18334857259846518798
960060 61 5761379963435416424
9971528 1 17203326727876643726
9999458 23 18412262869994472078

> <PUBCHEM_SHAPE_MULTIPOLES>
382.03
13.3
1.69
1.18
6.24
0.44
1
4.72
-3.14
-1.36
-0.15
-0.39
-0.27
-0.31

> <PUBCHEM_SHAPE_SELFOVERLAP>
810.894

> <PUBCHEM_SHAPE_VOLUME>
214.3

> <PUBCHEM_COORDINATE_TYPE>
2
5
10

$$$$

