442635
  -OEChem-07051212582D

 35 37  0     1  0  0  0  0  0999 V2000
    3.2247   -0.7260    0.0000 O   0  0  0  0  0  0  0  0  0  0  0  0
    2.0000   -1.9508    0.0000 O   0  0  0  0  0  0  0  0  0  0  0  0
    8.0135    0.7399    0.0000 N   0  0  3  0  0  0  0  0  0  0  0  0
    4.1907   -0.4672    0.0000 C   0  0  2  0  0  0  0  0  0  0  0  0
    5.9227    0.5328    0.0000 C   0  0  2  0  0  0  0  0  0  0  0  0
    6.1815    1.4987    0.0000 C   0  0  1  0  0  0  0  0  0  0  0  0
    3.6907    0.3988    0.0000 C   0  0  0  0  0  0  0  0  0  0  0  0
    4.9449    2.3474    0.0000 C   0  0  0  0  0  0  0  0  0  0  0  0
    7.7547   -0.2260    0.0000 C   0  0  0  0  0  0  0  0  0  0  0  0
    5.8110    2.8474    0.0000 C   0  0  0  0  0  0  0  0  0  0  0  0
    4.8978   -1.1743    0.0000 C   0  0  0  0  0  0  0  0  0  0  0  0
    8.8795    1.2399    0.0000 C   0  0  0  0  0  0  0  0  0  0  0  0
    4.6390   -2.1402    0.0000 C   0  0  0  0  0  0  0  0  0  0  0  0
    2.9659   -1.6920    0.0000 C   0  0  0  0  0  0  0  0  0  0  0  0
    3.6730   -2.3991    0.0000 C   0  0  0  0  0  0  0  0  0  0  0  0
    5.3461   -2.8474    0.0000 C   0  0  0  0  0  0  0  0  0  0  0  0
    5.7027   -0.2882    0.0000 H   0  0  0  0  0  0  0  0  0  0  0  0
    6.4015    2.3198    0.0000 H   0  0  0  0  0  0  0  0  0  0  0  0
    3.4200    0.9566    0.0000 H   0  0  0  0  0  0  0  0  0  0  0  0
    3.1430    0.1083    0.0000 H   0  0  0  0  0  0  0  0  0  0  0  0
    4.6402    2.8873    0.0000 H   0  0  0  0  0  0  0  0  0  0  0  0
    4.4020    2.0479    0.0000 H   0  0  0  0  0  0  0  0  0  0  0  0
    7.5426   -0.8086    0.0000 H   0  0  0  0  0  0  0  0  0  0  0  0
    8.3460   -0.4125    0.0000 H   0  0  0  0  0  0  0  0  0  0  0  0
    6.3927    3.0619    0.0000 H   0  0  0  0  0  0  0  0  0  0  0  0
    5.5477    3.4087    0.0000 H   0  0  0  0  0  0  0  0  0  0  0  0
    5.4597   -1.4363    0.0000 H   0  0  0  0  0  0  0  0  0  0  0  0
    5.2534   -0.6664    0.0000 H   0  0  0  0  0  0  0  0  0  0  0  0
    9.1895    0.7030    0.0000 H   0  0  0  0  0  0  0  0  0  0  0  0
    9.4164    1.5499    0.0000 H   0  0  0  0  0  0  0  0  0  0  0  0
    8.5695    1.7768    0.0000 H   0  0  0  0  0  0  0  0  0  0  0  0
    3.5126   -2.9979    0.0000 H   0  0  0  0  0  0  0  0  0  0  0  0
    4.9077   -3.2858    0.0000 H   0  0  0  0  0  0  0  0  0  0  0  0
    5.7845   -3.2858    0.0000 H   0  0  0  0  0  0  0  0  0  0  0  0
    5.7845   -2.4090    0.0000 H   0  0  0  0  0  0  0  0  0  0  0  0
  4  1  1  1  0  0  0
  1 14  1  0  0  0  0
  2 14  2  0  0  0  0
  3  6  1  0  0  0  0
  3  9  1  0  0  0  0
  3 12  1  0  0  0  0
  4  5  1  0  0  0  0
  4  7  1  0  0  0  0
  4 11  1  0  0  0  0
  5  8  1  0  0  0  0
  5  9  1  0  0  0  0
  5 17  1  1  0  0  0
  6  7  1  0  0  0  0
  6 10  1  0  0  0  0
  6 18  1  6  0  0  0
  7 19  1  0  0  0  0
  7 20  1  0  0  0  0
  8 10  1  0  0  0  0
  8 21  1  0  0  0  0
  8 22  1  0  0  0  0
  9 23  1  0  0  0  0
  9 24  1  0  0  0  0
 10 25  1  0  0  0  0
 10 26  1  0  0  0  0
 11 13  1  0  0  0  0
 11 27  1  0  0  0  0
 11 28  1  0  0  0  0
 12 29  1  0  0  0  0
 12 30  1  0  0  0  0
 12 31  1  0  0  0  0
 13 15  2  0  0  0  0
 13 16  1  0  0  0  0
 14 15  1  0  0  0  0
 15 32  1  0  0  0  0
 16 33  1  0  0  0  0
 16 34  1  0  0  0  0
 16 35  1  0  0  0  0
M  END
> <PUBCHEM_COMPOUND_CID>
442635

> <PUBCHEM_COMPOUND_CANONICALIZED>
1

> <PUBCHEM_CACTVS_COMPLEXITY>
363

> <PUBCHEM_CACTVS_HBOND_ACCEPTOR>
3

> <PUBCHEM_CACTVS_HBOND_DONOR>
0

> <PUBCHEM_CACTVS_ROTATABLE_BOND>
0

> <PUBCHEM_CACTVS_SUBSKEYS>
AAADceByMAAAAAAAAAAAAAAAAAAAAAAAAAA8WIEAAAAAAAAAAAAAHgAAAAAADWzBgAQCCAMABACIAiDSCAAAAAAgAAAACAAIAEgABAIAoQAGEAAGwACIIQOQ0KMOgAAAAAAAAAAQAACEADAAAAAAAAAAAA==

> <PUBCHEM_IUPAC_OPENEYE_NAME>
(1R,4R,5S)-2,4'-dimethylspiro[2-azabicyclo[2.2.2]octane-5,2'-3H-pyran]-6'-one

> <PUBCHEM_IUPAC_CAS_NAME>
(1R,4R,5S)-2,4'-dimethyl-6'-spiro[2-azabicyclo[2.2.2]octane-5,2'-3H-pyran]one

> <PUBCHEM_IUPAC_NAME>
(1R,4R,5S)-2,4'-dimethylspiro[2-azabicyclo[2.2.2]octane-5,2'-3H-pyran]-6'-one

> <PUBCHEM_IUPAC_SYSTEMATIC_NAME>
(1R,4R,5S)-2,4'-dimethylspiro[2-azabicyclo[2.2.2]octane-5,2'-3H-pyran]-6'-one

> <PUBCHEM_IUPAC_TRADITIONAL_NAME>
(1R,4R,5S)-2,4'-dimethylspiro[2-azabicyclo[2.2.2]octane-5,2'-3H-pyran]-6'-one

> <PUBCHEM_IUPAC_INCHI>
InChI=1S/C13H19NO2/c1-9-5-12(15)16-13(6-9)7-11-4-3-10(13)8-14(11)2/h5,10-11H,3-4,6-8H2,1-2H3/t10-,11-,13+/m1/s1

> <PUBCHEM_IUPAC_INCHIKEY>
YBQKKTNDAXVYGX-WZRBSPASSA-N

> <PUBCHEM_XLOGP3_AA>
1.5

> <PUBCHEM_EXACT_MASS>
221.141579

> <PUBCHEM_MOLECULAR_FORMULA>
C13H19NO2

> <PUBCHEM_MOLECULAR_WEIGHT>
221.29546

> <PUBCHEM_OPENEYE_CAN_SMILES>
CC1=CC(=O)OC2(C1)CC3CCC2CN3C

> <PUBCHEM_OPENEYE_ISO_SMILES>
CC1=CC(=O)O[C@@]2(C1)C[C@H]3CC[C@@H]2CN3C

> <PUBCHEM_CACTVS_TPSA>
29.5

> <PUBCHEM_MONOISOTOPIC_WEIGHT>
221.141579

> <PUBCHEM_TOTAL_CHARGE>
0

> <PUBCHEM_HEAVY_ATOM_COUNT>
16

> <PUBCHEM_ATOM_DEF_STEREO_COUNT>
3

> <PUBCHEM_ATOM_UDEF_STEREO_COUNT>
0

> <PUBCHEM_BOND_DEF_STEREO_COUNT>
0

> <PUBCHEM_BOND_UDEF_STEREO_COUNT>
0

> <PUBCHEM_ISOTOPIC_ATOM_COUNT>
0

> <PUBCHEM_COMPONENT_COUNT>
1

> <PUBCHEM_CACTVS_TAUTO_COUNT>
1

> <PUBCHEM_COORDINATE_TYPE>
1
5
255

> <PUBCHEM_BONDANNOTATIONS>
4  1  5
5  17  5
6  18  6

$$$$

