20105
  -OEChem-07051213133D

 38 38  0     0  0  0  0  0  0999 V2000
   -0.4123   -2.8129   -0.4421 S   0  0  0  0  0  0  0  0  0  0  0  0
    2.8047    0.9710    0.2336 N   0  0  0  0  0  0  0  0  0  0  0  0
   -1.7625    1.9989   -0.0571 N   0  0  0  0  0  0  0  0  0  0  0  0
    0.5280    1.5162    0.0913 N   0  0  0  0  0  0  0  0  0  0  0  0
   -1.0781   -0.2370   -0.2319 N   0  0  0  0  0  0  0  0  0  0  0  0
    1.2583   -0.7629   -0.0829 N   0  0  0  0  0  0  0  0  0  0  0  0
    3.9307    0.0624    0.2388 C   0  0  0  0  0  0  0  0  0  0  0  0
   -3.1379    1.6441   -0.2156 C   0  0  0  0  0  0  0  0  0  0  0  0
    5.1105    0.7291    0.9337 C   0  0  0  0  0  0  0  0  0  0  0  0
    4.2772   -0.3265   -1.1925 C   0  0  0  0  0  0  0  0  0  0  0  0
   -3.9213    2.8657   -0.6773 C   0  0  0  0  0  0  0  0  0  0  0  0
   -3.6788    1.1032    1.1015 C   0  0  0  0  0  0  0  0  0  0  0  0
    1.4917    0.5628    0.0758 C   0  0  0  0  0  0  0  0  0  0  0  0
   -0.7200    1.0465   -0.0664 C   0  0  0  0  0  0  0  0  0  0  0  0
   -0.0370   -1.0850   -0.2295 C   0  0  0  0  0  0  0  0  0  0  0  0
   -2.0658   -2.9267    0.2986 C   0  0  0  0  0  0  0  0  0  0  0  0
   -2.5872   -4.3491    0.2221 C   0  0  0  0  0  0  0  0  0  0  0  0
    3.6872   -0.8419    0.8105 H   0  0  0  0  0  0  0  0  0  0  0  0
   -3.2539    0.8784   -0.9932 H   0  0  0  0  0  0  0  0  0  0  0  0
    2.9696    1.9689    0.3020 H   0  0  0  0  0  0  0  0  0  0  0  0
   -1.4950    2.9603    0.1208 H   0  0  0  0  0  0  0  0  0  0  0  0
    5.9730    0.0555    0.9716 H   0  0  0  0  0  0  0  0  0  0  0  0
    5.4170    1.6439    0.4138 H   0  0  0  0  0  0  0  0  0  0  0  0
    4.8515    1.0053    1.9618 H   0  0  0  0  0  0  0  0  0  0  0  0
    3.4502   -0.8492   -1.6839 H   0  0  0  0  0  0  0  0  0  0  0  0
    5.1470   -0.9919   -1.2130 H   0  0  0  0  0  0  0  0  0  0  0  0
    4.5134    0.5560   -1.7981 H   0  0  0  0  0  0  0  0  0  0  0  0
   -4.9777    2.6188   -0.8263 H   0  0  0  0  0  0  0  0  0  0  0  0
   -3.8637    3.6795    0.0545 H   0  0  0  0  0  0  0  0  0  0  0  0
   -3.5265    3.2467   -1.6258 H   0  0  0  0  0  0  0  0  0  0  0  0
   -3.1548    0.1954    1.4177 H   0  0  0  0  0  0  0  0  0  0  0  0
   -4.7415    0.8544    1.0098 H   0  0  0  0  0  0  0  0  0  0  0  0
   -3.5741    1.8394    1.9069 H   0  0  0  0  0  0  0  0  0  0  0  0
   -2.0177   -2.6045    1.3438 H   0  0  0  0  0  0  0  0  0  0  0  0
   -2.7561   -2.2651   -0.2347 H   0  0  0  0  0  0  0  0  0  0  0  0
   -2.6720   -4.6912   -0.8150 H   0  0  0  0  0  0  0  0  0  0  0  0
   -1.9395   -5.0445    0.7667 H   0  0  0  0  0  0  0  0  0  0  0  0
   -3.5843   -4.4053    0.6714 H   0  0  0  0  0  0  0  0  0  0  0  0
  1 15  1  0  0  0  0
  1 16  1  0  0  0  0
  2  7  1  0  0  0  0
  2 13  1  0  0  0  0
  2 20  1  0  0  0  0
  3  8  1  0  0  0  0
  3 14  1  0  0  0  0
  3 21  1  0  0  0  0
  4 13  2  0  0  0  0
  4 14  1  0  0  0  0
  5 14  2  0  0  0  0
  5 15  1  0  0  0  0
  6 13  1  0  0  0  0
  6 15  2  0  0  0  0
  7  9  1  0  0  0  0
  7 10  1  0  0  0  0
  7 18  1  0  0  0  0
  8 11  1  0  0  0  0
  8 12  1  0  0  0  0
  8 19  1  0  0  0  0
  9 22  1  0  0  0  0
  9 23  1  0  0  0  0
  9 24  1  0  0  0  0
 10 25  1  0  0  0  0
 10 26  1  0  0  0  0
 10 27  1  0  0  0  0
 11 28  1  0  0  0  0
 11 29  1  0  0  0  0
 11 30  1  0  0  0  0
 12 31  1  0  0  0  0
 12 32  1  0  0  0  0
 12 33  1  0  0  0  0
 16 17  1  0  0  0  0
 16 34  1  0  0  0  0
 16 35  1  0  0  0  0
 17 36  1  0  0  0  0
 17 37  1  0  0  0  0
 17 38  1  0  0  0  0
M  END
> <PUBCHEM_COMPOUND_CID>
20105

> <PUBCHEM_CONFORMER_RMSD>
0.8

> <PUBCHEM_CONFORMER_DIVERSEORDER>
1
51
29
50
24
34
26
18
52
19
43
38
28
2
32
33
47
41
21
36
45
42
25
49
53
30
17
48
3
31
13
44
5
22
20
6
23
46
10
16
11
40
27
15
35
39
12
14
7
9
8
37
4

> <PUBCHEM_MMFF94_PARTIAL_CHARGES>
14
1 -0.33
13 0.72
14 0.72
15 0.72
16 0.23
2 -0.87
20 0.4
21 0.4
3 -0.87
4 -0.62
5 -0.62
6 -0.62
7 0.37
8 0.37

> <PUBCHEM_EFFECTIVE_ROTOR_COUNT>
6

> <PUBCHEM_PHARMACOPHORE_FEATURES>
8
1 17 hydrophobe
1 2 donor
1 3 donor
3 7 9 10 hydrophobe
3 8 11 12 hydrophobe
4 2 4 6 13 cation
4 3 4 5 14 cation
6 4 5 6 13 14 15 rings

> <PUBCHEM_HEAVY_ATOM_COUNT>
17

> <PUBCHEM_ATOM_DEF_STEREO_COUNT>
0

> <PUBCHEM_ATOM_UDEF_STEREO_COUNT>
0

> <PUBCHEM_BOND_DEF_STEREO_COUNT>
0

> <PUBCHEM_BOND_UDEF_STEREO_COUNT>
0

> <PUBCHEM_ISOTOPIC_ATOM_COUNT>
0

> <PUBCHEM_COMPONENT_COUNT>
1

> <PUBCHEM_CACTVS_TAUTO_COUNT>
5

> <PUBCHEM_CONFORMER_ID>
00004E8900000001

> <PUBCHEM_MMFF94_ENERGY>
35.7522

> <PUBCHEM_FEATURE_SELFOVERLAP>
40.637

> <PUBCHEM_SHAPE_FINGERPRINT>
10411042 1 17907018374347853027
11357001 24 18267589013562162299
116883 192 18192989314376049542
12532896 13 18336552714975821342
12553582 1 17687184188896872574
12788726 201 18054783988736315082
13052359 8 18412268328565238383
13140716 1 18336267821511377528
13380535 76 18334860570880760054
13544592 145 18188201122231853414
14178000 15 17472981701544709887
14178000 22 18340495563641331829
14178342 30 18268728146901326786
14866123 147 18412830191834652626
15042514 8 18411699859399487290
15885798 251 18050565136339382602
17539 30 18264780856859966711
19591789 44 18194676201246406902
204376 136 18337391642326883985
20645477 56 18409733967559898024
20645477 70 17909835671641963253
21041028 32 17979074877548146127
21478907 32 18267024942775569227
22224240 67 18334288799919360817
23402539 116 18188786040474157844
23419403 2 16881555749562083575
23530152 11 18267022932762042615
23557571 272 18189045418328907484
23558518 356 18128256679787376896
23559900 14 18260261980740377316
23598291 2 17845647037399824164
2748010 2 18124575716879132327
3071541 37 18124030401697425268
3091708 16 9270933061903603771
3759504 43 18411705412755206477
474229 33 18411138048129162585
53917941 68 18265357103741947253
54173680 148 18339080359238178127
633830 44 17823980241114082244
68521 5 18267584594014466951
7164475 11 18196650688206897790
7364860 26 17761495085706970447
77188 2 17691408512559978319
81228 2 18124324813094421907
81539 233 18126568061723289877
9709674 26 18260267430579291206
9925002 15 18057873654722278069

> <PUBCHEM_SHAPE_MULTIPOLES>
328.8
8.3
4.23
0.89
8.35
5
0
-4.17
-0.82
-7.14
0.12
0.25
-0.1
0.89

> <PUBCHEM_SHAPE_SELFOVERLAP>
631.917

> <PUBCHEM_SHAPE_VOLUME>
202.2

> <PUBCHEM_COORDINATE_TYPE>
2
5
10

$$$$

