56928062
  -OEChem-07051212463D

 35 37  0     0  0  0  0  0  0999 V2000
   -0.8667    0.6922    0.4581 O   0  0  0  0  0  0  0  0  0  0  0  0
    0.8041   -2.1084   -1.0563 O   0  0  0  0  0  0  0  0  0  0  0  0
    2.9011    1.9812   -1.1150 O   0  0  0  0  0  0  0  0  0  0  0  0
    0.8531    1.9949    1.2362 O   0  0  0  0  0  0  0  0  0  0  0  0
    6.9386   -0.1982    0.1582 O   0  0  0  0  0  0  0  0  0  0  0  0
   -7.1935    0.8365    0.3899 O   0  0  0  0  0  0  0  0  0  0  0  0
    1.3279   -0.0666    0.1060 C   0  0  0  0  0  0  0  0  0  0  0  0
    2.7894   -0.0841    0.1094 C   0  0  0  0  0  0  0  0  0  0  0  0
    0.4757   -0.9553   -0.4013 C   0  0  0  0  0  0  0  0  0  0  0  0
   -0.8691   -0.5314   -0.2033 C   0  0  0  0  0  0  0  0  0  0  0  0
    0.4583    0.9925    0.6613 C   0  0  0  0  0  0  0  0  0  0  0  0
    3.5223    0.9357   -0.4980 C   0  0  0  0  0  0  0  0  0  0  0  0
   -2.0103   -1.1325   -0.5537 C   0  0  0  0  0  0  0  0  0  0  0  0
    3.4509   -1.1419    0.7334 C   0  0  0  0  0  0  0  0  0  0  0  0
   -3.3680   -0.6167   -0.3064 C   0  0  0  0  0  0  0  0  0  0  0  0
    4.9166    0.8973   -0.4817 C   0  0  0  0  0  0  0  0  0  0  0  0
    4.8452   -1.1804    0.7494 C   0  0  0  0  0  0  0  0  0  0  0  0
    5.5780   -0.1607    0.1419 C   0  0  0  0  0  0  0  0  0  0  0  0
   -4.2590   -1.3470    0.4803 C   0  0  0  0  0  0  0  0  0  0  0  0
   -3.7628    0.6017   -0.8593 C   0  0  0  0  0  0  0  0  0  0  0  0
   -5.5445   -0.8586    0.7145 C   0  0  0  0  0  0  0  0  0  0  0  0
   -5.0483    1.0899   -0.6252 C   0  0  0  0  0  0  0  0  0  0  0  0
   -5.9392    0.3598    0.1617 C   0  0  0  0  0  0  0  0  0  0  0  0
   -1.9959   -2.1026   -1.0442 H   0  0  0  0  0  0  0  0  0  0  0  0
    2.8982   -1.9443    1.2165 H   0  0  0  0  0  0  0  0  0  0  0  0
    5.4897    1.6913   -0.9546 H   0  0  0  0  0  0  0  0  0  0  0  0
    5.3549   -2.0065    1.2376 H   0  0  0  0  0  0  0  0  0  0  0  0
   -3.9654   -2.2980    0.9180 H   0  0  0  0  0  0  0  0  0  0  0  0
   -3.0845    1.1827   -1.4796 H   0  0  0  0  0  0  0  0  0  0  0  0
   -6.2290   -1.4368    1.3293 H   0  0  0  0  0  0  0  0  0  0  0  0
   -5.3504    2.0390   -1.0594 H   0  0  0  0  0  0  0  0  0  0  0  0
   -0.0060   -2.5562   -1.3473 H   0  0  0  0  0  0  0  0  0  0  0  0
    3.5732    2.5848   -1.4750 H   0  0  0  0  0  0  0  0  0  0  0  0
    7.2815    0.5842   -0.3069 H   0  0  0  0  0  0  0  0  0  0  0  0
   -7.6729    0.2048    0.9530 H   0  0  0  0  0  0  0  0  0  0  0  0
  1 10  1  0  0  0  0
  1 11  1  0  0  0  0
  2  9  1  0  0  0  0
  2 32  1  0  0  0  0
  3 12  1  0  0  0  0
  3 33  1  0  0  0  0
  4 11  2  0  0  0  0
  5 18  1  0  0  0  0
  5 34  1  0  0  0  0
  6 23  1  0  0  0  0
  6 35  1  0  0  0  0
  7  8  1  0  0  0  0
  7  9  2  0  0  0  0
  7 11  1  0  0  0  0
  8 12  2  0  0  0  0
  8 14  1  0  0  0  0
  9 10  1  0  0  0  0
 10 13  2  0  0  0  0
 12 16  1  0  0  0  0
 13 15  1  0  0  0  0
 13 24  1  0  0  0  0
 14 17  2  0  0  0  0
 14 25  1  0  0  0  0
 15 19  2  0  0  0  0
 15 20  1  0  0  0  0
 16 18  2  0  0  0  0
 16 26  1  0  0  0  0
 17 18  1  0  0  0  0
 17 27  1  0  0  0  0
 19 21  1  0  0  0  0
 19 28  1  0  0  0  0
 20 22  2  0  0  0  0
 20 29  1  0  0  0  0
 21 23  2  0  0  0  0
 21 30  1  0  0  0  0
 22 23  1  0  0  0  0
 22 31  1  0  0  0  0
M  END
> <PUBCHEM_COMPOUND_CID>
56928062

> <PUBCHEM_CONFORMER_RMSD>
0.6

> <PUBCHEM_CONFORMER_DIVERSEORDER>
1
3
2
4
9
8
6
10
7
5

> <PUBCHEM_MMFF94_PARTIAL_CHARGES>
35
1 -0.23
10 0.08
11 0.71
12 0.08
13 -0.18
14 -0.15
15 0.03
16 -0.15
17 -0.15
18 0.08
19 -0.15
2 -0.53
20 -0.15
21 -0.15
22 -0.15
23 0.08
24 0.15
25 0.15
26 0.15
27 0.15
28 0.15
29 0.15
3 -0.53
30 0.15
31 0.15
32 0.45
33 0.45
34 0.45
35 0.45
4 -0.57
5 -0.53
6 -0.53
7 -0.01
8 0.03
9 0.08

> <PUBCHEM_EFFECTIVE_ROTOR_COUNT>
2.2

> <PUBCHEM_PHARMACOPHORE_FEATURES>
8
1 2 donor
1 3 donor
1 4 acceptor
1 5 donor
1 6 donor
5 1 7 9 10 11 rings
6 15 19 20 21 22 23 rings
6 8 12 14 16 17 18 rings

> <PUBCHEM_HEAVY_ATOM_COUNT>
23

> <PUBCHEM_ATOM_DEF_STEREO_COUNT>
0

> <PUBCHEM_ATOM_UDEF_STEREO_COUNT>
0

> <PUBCHEM_BOND_DEF_STEREO_COUNT>
1

> <PUBCHEM_BOND_UDEF_STEREO_COUNT>
0

> <PUBCHEM_ISOTOPIC_ATOM_COUNT>
0

> <PUBCHEM_COMPONENT_COUNT>
1

> <PUBCHEM_CACTVS_TAUTO_COUNT>
169

> <PUBCHEM_CONFORMER_ID>
0364A73E00000001

> <PUBCHEM_MMFF94_ENERGY>
64.738

> <PUBCHEM_FEATURE_SELFOVERLAP>
40.595

> <PUBCHEM_SHAPE_FINGERPRINT>
10354089 29 18131351908256692710
10906281 52 18188473740332099091
11089746 13 16660368082318943043
11287383 113 17632576032910848362
11315181 36 5689589511820210627
11578080 2 14259910929325346572
11646440 116 17095234796686590683
12107183 9 17410228616960530953
12236239 1 18413109446818795942
12516196 113 17603308145744404112
12616971 3 18410577240742066694
12788726 201 17895461575400887528
13533116 47 17489315230485608482
13785724 45 17836934764870765794
1420 363 14549018784258935979
14251764 18 18411136927316914603
14341114 176 17917710210383984877
14849402 71 17059481934147393900
14933364 13 18060418014638264685
15142383 8 18272939348716942612
15183329 4 18202288012902582965
15788980 27 18341897376637188767
1601671 61 18186521007549163599
17844677 252 18060414712119832397
19784866 9 18411421725823099203
200 152 18412547609145801386
20281389 69 18343867718854752573
21150785 3 14634874150109483381
21236236 1 17968374658151824481
21267235 1 18413105091964745770
21641784 216 18337093661949721396
21792934 111 18115039588296878464
23402539 116 17989210339120642535
23536379 177 17918276467108763688
23559900 14 18131072601779576272
23569914 2 17053355446446426965
29717793 49 18113613496119733740
3004659 81 18341894100136161658
3009799 131 16370727036753579177
314173 85 16732696142847280793
335352 9 18259705583794038061
347723 3 18040715865832809586
34797466 226 14764338362909788606
350125 39 18410856564056654316
3545911 37 18272933829704832372
4072396 5 18113624512115112446
4073 2 17346310449852606770
4214541 1 18202284693219871839
4340502 62 17489591160480256642
4463277 17 18334859402881738136
465052 167 18343017796530024874
5104073 3 18341054012695835451
5385378 56 17968366966245302551
542803 24 18343585140171322727
7226269 152 17749108885113901219
7495541 125 18341048510858539913
8272917 22 18272370901696298026
9971528 1 15213014938399009920

> <PUBCHEM_SHAPE_MULTIPOLES>
438.11
16.18
1.63
0.95
6.34
0.12
-0.01
0.99
-1.52
-0.28
0.08
0.01
0.07
-0.24

> <PUBCHEM_SHAPE_SELFOVERLAP>
974.628

> <PUBCHEM_SHAPE_VOLUME>
232.4

> <PUBCHEM_COORDINATE_TYPE>
2
5
10

$$$$

