36149
  -OEChem-07051213003D

 22 23  0     0  0  0  0  0  0999 V2000
    0.1942    1.0298   -0.4548 N   0  0  0  0  0  0  0  0  0  0  0  0
    0.1670   -1.1916   -0.3845 N   0  0  0  0  0  0  0  0  0  0  0  0
    2.2349   -0.0425   -0.8453 N   0  0  0  0  0  0  0  0  0  0  0  0
    4.4466    0.1200    0.1188 N   0  0  0  0  0  0  0  0  0  0  0  0
    2.6058    0.0174    1.4615 N   0  0  0  0  0  0  0  0  0  0  0  0
   -1.1044    0.6883   -0.1762 C   0  0  0  0  0  0  0  0  0  0  0  0
   -1.0955   -0.7034   -0.1377 C   0  0  0  0  0  0  0  0  0  0  0  0
    0.9144   -0.1266   -0.5699 C   0  0  0  0  0  0  0  0  0  0  0  0
   -2.2510    1.4537    0.0387 C   0  0  0  0  0  0  0  0  0  0  0  0
   -2.2927   -1.3887    0.1297 C   0  0  0  0  0  0  0  0  0  0  0  0
   -3.4337    0.7553    0.3037 C   0  0  0  0  0  0  0  0  0  0  0  0
   -3.4562   -0.6405    0.3488 C   0  0  0  0  0  0  0  0  0  0  0  0
    3.0709    0.0288    0.1671 C   0  0  0  0  0  0  0  0  0  0  0  0
    0.5555    1.9688   -0.5564 H   0  0  0  0  0  0  0  0  0  0  0  0
   -2.2309    2.5371    0.0031 H   0  0  0  0  0  0  0  0  0  0  0  0
   -2.3208   -2.4729    0.1670 H   0  0  0  0  0  0  0  0  0  0  0  0
   -4.3522    1.3103    0.4776 H   0  0  0  0  0  0  0  0  0  0  0  0
   -4.3908   -1.1552    0.5571 H   0  0  0  0  0  0  0  0  0  0  0  0
    4.9386    0.1391   -0.7678 H   0  0  0  0  0  0  0  0  0  0  0  0
    5.0045    0.1695    0.9642 H   0  0  0  0  0  0  0  0  0  0  0  0
    3.2531    0.0752    2.2408 H   0  0  0  0  0  0  0  0  0  0  0  0
    1.6247   -0.0552    1.7050 H   0  0  0  0  0  0  0  0  0  0  0  0
  1  6  1  0  0  0  0
  1  8  1  0  0  0  0
  1 14  1  0  0  0  0
  2  7  1  0  0  0  0
  2  8  2  0  0  0  0
  3  8  1  0  0  0  0
  3 13  2  0  0  0  0
  4 13  1  0  0  0  0
  4 19  1  0  0  0  0
  4 20  1  0  0  0  0
  5 13  1  0  0  0  0
  5 21  1  0  0  0  0
  5 22  1  0  0  0  0
  6  7  1  0  0  0  0
  6  9  2  0  0  0  0
  7 10  2  0  0  0  0
  9 11  1  0  0  0  0
  9 15  1  0  0  0  0
 10 12  1  0  0  0  0
 10 16  1  0  0  0  0
 11 12  2  0  0  0  0
 11 17  1  0  0  0  0
 12 18  1  0  0  0  0
M  END
> <PUBCHEM_COMPOUND_CID>
36149

> <PUBCHEM_CONFORMER_RMSD>
0.4

> <PUBCHEM_CONFORMER_DIVERSEORDER>
1
3
2

> <PUBCHEM_MMFF94_PARTIAL_CHARGES>
22
1 0.03
10 -0.15
11 -0.15
12 -0.15
13 0.55
14 0.27
15 0.15
16 0.15
17 0.15
18 0.15
19 0.4
2 -0.57
20 0.4
21 0.4
22 0.4
3 -0.58
4 -0.85
5 -0.85
6 -0.15
7 0.23
8 0.31
9 -0.15

> <PUBCHEM_EFFECTIVE_ROTOR_COUNT>
1

> <PUBCHEM_PHARMACOPHORE_FEATURES>
7
1 1 donor
1 4 donor
1 5 donor
4 1 2 3 8 cation
4 3 4 5 13 cation
5 1 2 6 7 8 rings
6 6 7 9 10 11 12 rings

> <PUBCHEM_HEAVY_ATOM_COUNT>
13

> <PUBCHEM_ATOM_DEF_STEREO_COUNT>
0

> <PUBCHEM_ATOM_UDEF_STEREO_COUNT>
0

> <PUBCHEM_BOND_DEF_STEREO_COUNT>
0

> <PUBCHEM_BOND_UDEF_STEREO_COUNT>
0

> <PUBCHEM_ISOTOPIC_ATOM_COUNT>
0

> <PUBCHEM_COMPONENT_COUNT>
1

> <PUBCHEM_CACTVS_TAUTO_COUNT>
3

> <PUBCHEM_CONFORMER_ID>
00008D3500000001

> <PUBCHEM_MMFF94_ENERGY>
36.276

> <PUBCHEM_FEATURE_SELFOVERLAP>
35.724

> <PUBCHEM_SHAPE_FINGERPRINT>
10857977 72 18408322172716666577
11132069 177 18410289229057200725
12119455 92 17095527322197155902
12251169 10 18343300361937538980
12932764 1 17458348541502489102
13024252 1 13973966510988474293
14144814 61 18201999936508286875
14325111 11 18409163346140238820
15219456 202 18040989700131519534
16945 1 18411409618811036063
17846911 113 18334859450253128249
18186145 218 15140680280526650596
200 152 15554451781688075714
20279233 1 17967808362181041303
20510252 161 18261669367622946977
20645464 45 17894345583893275967
20645477 70 15123248640238680834
20871998 184 18187639159826004775
21119208 17 5617536289589355384
22445834 79 17775011218885787858
23402539 116 18335709321586855255
23463225 33 18201719582665863534
23559900 14 18262232339383364782
2748010 2 18051962916829687295
53812653 166 18187645833772191601
6333449 129 18259705605664493703
7364860 26 17972314281070269718
77492 1 17632572747318882750
90316 7 17988649643756649941

> <PUBCHEM_SHAPE_MULTIPOLES>
242.63
6.54
1.25
0.84
4.18
0
0.15
0.27
1.31
-1.06
-0.03
0.43
0
0.04

> <PUBCHEM_SHAPE_SELFOVERLAP>
530.175

> <PUBCHEM_SHAPE_VOLUME>
131.5

> <PUBCHEM_COORDINATE_TYPE>
2
5
10

$$$$

