92775
  -OEChem-07051212573D

 32 34  0     1  0  0  0  0  0999 V2000
    0.5042   -0.6617   -0.0253 O   0  0  0  0  0  0  0  0  0  0  0  0
    2.0711    3.1277   -0.1493 O   0  0  0  0  0  0  0  0  0  0  0  0
   -4.2525   -0.4725   -2.1156 O   0  0  0  0  0  0  0  0  0  0  0  0
    4.8331   -2.5984   -0.0207 O   0  0  0  0  0  0  0  0  0  0  0  0
   -5.7620   -0.6999    0.2068 O   0  0  0  0  0  0  0  0  0  0  0  0
   -0.2237    0.4513    0.5167 C   0  0  1  0  0  0  0  0  0  0  0  0
    0.1145    1.7418   -0.2275 C   0  0  0  0  0  0  0  0  0  0  0  0
   -1.7037    0.1433    0.4307 C   0  0  0  0  0  0  0  0  0  0  0  0
    1.5949    1.9993   -0.1181 C   0  0  0  0  0  0  0  0  0  0  0  0
    2.4556    0.8008   -0.0427 C   0  0  0  0  0  0  0  0  0  0  0  0
    1.8610   -0.4643   -0.0231 C   0  0  0  0  0  0  0  0  0  0  0  0
   -2.3084   -0.0267   -0.8143 C   0  0  0  0  0  0  0  0  0  0  0  0
   -2.4609    0.0301    1.5963 C   0  0  0  0  0  0  0  0  0  0  0  0
    3.8471    0.9268   -0.0347 C   0  0  0  0  0  0  0  0  0  0  0  0
    2.6616   -1.6073   -0.0297 C   0  0  0  0  0  0  0  0  0  0  0  0
   -3.6718   -0.3102   -0.8939 C   0  0  0  0  0  0  0  0  0  0  0  0
    4.0514   -1.4838   -0.0231 C   0  0  0  0  0  0  0  0  0  0  0  0
    4.6423   -0.2197   -0.0207 C   0  0  0  0  0  0  0  0  0  0  0  0
   -3.8243   -0.2533    1.5166 C   0  0  0  0  0  0  0  0  0  0  0  0
   -4.4298   -0.4234    0.2715 C   0  0  0  0  0  0  0  0  0  0  0  0
    0.0587    0.5504    1.5754 H   0  0  0  0  0  0  0  0  0  0  0  0
   -0.4260    2.5878    0.2115 H   0  0  0  0  0  0  0  0  0  0  0  0
   -0.1190    1.6880   -1.2967 H   0  0  0  0  0  0  0  0  0  0  0  0
   -1.7209    0.0487   -1.7257 H   0  0  0  0  0  0  0  0  0  0  0  0
   -2.0038    0.1600    2.5735 H   0  0  0  0  0  0  0  0  0  0  0  0
    4.3266    1.9014   -0.0497 H   0  0  0  0  0  0  0  0  0  0  0  0
    2.2052   -2.5940   -0.0297 H   0  0  0  0  0  0  0  0  0  0  0  0
   -4.4093   -0.3402    2.4282 H   0  0  0  0  0  0  0  0  0  0  0  0
    5.7241   -0.1143   -0.0169 H   0  0  0  0  0  0  0  0  0  0  0  0
   -3.5770   -0.3577   -2.8058 H   0  0  0  0  0  0  0  0  0  0  0  0
    5.7675   -2.3282   -0.0164 H   0  0  0  0  0  0  0  0  0  0  0  0
   -6.0115   -0.7855   -0.7297 H   0  0  0  0  0  0  0  0  0  0  0  0
  1  6  1  0  0  0  0
  1 11  1  0  0  0  0
  2  9  2  0  0  0  0
  3 16  1  0  0  0  0
  3 30  1  0  0  0  0
  4 17  1  0  0  0  0
  4 31  1  0  0  0  0
  5 20  1  0  0  0  0
  5 32  1  0  0  0  0
  6  7  1  0  0  0  0
  6  8  1  0  0  0  0
  6 21  1  0  0  0  0
  7  9  1  0  0  0  0
  7 22  1  0  0  0  0
  7 23  1  0  0  0  0
  8 12  2  0  0  0  0
  8 13  1  0  0  0  0
  9 10  1  0  0  0  0
 10 11  2  0  0  0  0
 10 14  1  0  0  0  0
 11 15  1  0  0  0  0
 12 16  1  0  0  0  0
 12 24  1  0  0  0  0
 13 19  2  0  0  0  0
 13 25  1  0  0  0  0
 14 18  2  0  0  0  0
 14 26  1  0  0  0  0
 15 17  2  0  0  0  0
 15 27  1  0  0  0  0
 16 20  2  0  0  0  0
 17 18  1  0  0  0  0
 18 29  1  0  0  0  0
 19 20  1  0  0  0  0
 19 28  1  0  0  0  0
M  END
> <PUBCHEM_COMPOUND_CID>
92775

> <PUBCHEM_CONFORMER_RMSD>
0.6

> <PUBCHEM_CONFORMER_DIVERSEORDER>
1
5
3
6
12
8
9
2
7
11
4
10

> <PUBCHEM_MMFF94_PARTIAL_CHARGES>
29
1 -0.36
10 0.09
11 0.08
12 -0.15
13 -0.15
14 -0.15
15 -0.15
16 0.08
17 0.08
18 -0.15
19 -0.15
2 -0.57
20 0.08
24 0.15
25 0.15
26 0.15
27 0.15
28 0.15
29 0.15
3 -0.53
30 0.45
31 0.45
32 0.45
4 -0.53
5 -0.53
6 0.42
7 0.06
8 -0.14
9 0.42

> <PUBCHEM_EFFECTIVE_ROTOR_COUNT>
1.6

> <PUBCHEM_PHARMACOPHORE_FEATURES>
8
1 1 acceptor
1 2 acceptor
1 3 donor
1 4 donor
1 5 donor
6 1 6 7 9 10 11 rings
6 10 11 14 15 17 18 rings
6 8 12 13 16 19 20 rings

> <PUBCHEM_HEAVY_ATOM_COUNT>
20

> <PUBCHEM_ATOM_DEF_STEREO_COUNT>
1

> <PUBCHEM_ATOM_UDEF_STEREO_COUNT>
0

> <PUBCHEM_BOND_DEF_STEREO_COUNT>
0

> <PUBCHEM_BOND_UDEF_STEREO_COUNT>
0

> <PUBCHEM_ISOTOPIC_ATOM_COUNT>
0

> <PUBCHEM_COMPONENT_COUNT>
1

> <PUBCHEM_CACTVS_TAUTO_COUNT>
90

> <PUBCHEM_CONFORMER_ID>
00016A6700000001

> <PUBCHEM_MMFF94_ENERGY>
55.2421

> <PUBCHEM_FEATURE_SELFOVERLAP>
40.629

> <PUBCHEM_SHAPE_FINGERPRINT>
10062212 137 17822008701317638819
10498660 4 15697733574731796687
11471102 20 18341047437195915048
11796584 16 16559039319933591402
12236239 1 17822006493683317273
12363563 72 18270110340085616242
12403259 415 17561369452831699133
12553582 1 18409441518751517318
12616971 3 18040713641619998917
13134695 92 18411418397518993548
13140716 1 18122061993017491880
13533116 47 18334854970649581665
13544653 18 18341326786153121772
13760787 5 18408602560855622430
13862211 1 18339642343372908946
14386348 63 17775282746813062867
15788980 27 18335140912144295071
15848700 24 18411702114858509380
15848702 151 18408881858262814851
15961568 22 15840700743492545860
17349148 13 17967813842606978415
17357779 13 18130514101381021621
1813 80 18189319312234660348
18186145 218 17561085804448568833
18222031 100 18334295400909424342
200 152 18334014999447541617
20645477 70 18271807891254144800
21033648 29 17774734077805632197
21033650 10 15697435671283775324
21065201 7 16487259837601712009
21267235 1 18336819879696598822
21641784 216 17987496248239383924
21728266 224 16733275581781343295
221357 26 18272941535456748197
221490 88 18198616640509072346
2255824 54 18263075535847536596
22646028 1 17967534571016860923
22646028 28 18040434386698366023
23175994 123 18060132146326923485
23402539 116 18337109089555864858
23557571 272 16988848254706022333
23559900 14 17275099505358229018
2871803 45 18131068277222418730
314194 84 18408323293787942602
34797466 226 16558735811337068238
46194498 28 17417806189011082717
465052 167 18335693940486405614
474 4 18045504110339767368
5104073 3 18265057006361807616
5161694 15 17704076183391322373
5281201 14 17775283854730210661
573450 72 17095239224692104459
602551 16 15285646447367870167
7471813 234 18041002833999469161
77492 1 17749382629582248745
7970288 3 18339079423020665194
9709674 26 18129656375290530315
9971528 1 18408325488684841272
9981440 41 17179419788777271624

> <PUBCHEM_SHAPE_MULTIPOLES>
382.24
10.85
2.03
1.14
4.49
0.78
0.1
-5.07
0.55
-3.29
0.13
1.84
-0.12
-0.15

> <PUBCHEM_SHAPE_SELFOVERLAP>
847.654

> <PUBCHEM_SHAPE_VOLUME>
203.6

> <PUBCHEM_COORDINATE_TYPE>
2
5
10

$$$$

