26879
  -OEChem-07051212522D

 26 28  0     1  0  0  0  0  0999 V2000
    7.4851   -0.8047    0.0000 S   0  0  0  0  0  0  0  0  0  0  0  0
    6.5388    0.5000    0.0000 N   0  0  0  0  0  0  0  0  0  0  0  0
    5.5878   -0.8090    0.0000 N   0  0  0  0  0  0  0  0  0  0  0  0
    5.5878    0.8090    0.0000 C   0  0  0  0  0  0  0  0  0  0  0  0
    5.0000    0.0000    0.0000 C   0  0  2  0  0  0  0  0  0  0  0  0
    7.4851    0.8047    0.0000 C   0  0  0  0  0  0  0  0  0  0  0  0
    6.5388   -0.5000    0.0000 C   0  0  0  0  0  0  0  0  0  0  0  0
    8.0687    0.0000    0.0000 C   0  0  0  0  0  0  0  0  0  0  0  0
    4.0000    0.0000    0.0000 C   0  0  0  0  0  0  0  0  0  0  0  0
    3.5000    0.8660    0.0000 C   0  0  0  0  0  0  0  0  0  0  0  0
    3.5000   -0.8660    0.0000 C   0  0  0  0  0  0  0  0  0  0  0  0
    2.5000    0.8660    0.0000 C   0  0  0  0  0  0  0  0  0  0  0  0
    2.5000   -0.8660    0.0000 C   0  0  0  0  0  0  0  0  0  0  0  0
    2.0000    0.0000    0.0000 C   0  0  0  0  0  0  0  0  0  0  0  0
    5.8400    1.3754    0.0000 H   0  0  0  0  0  0  0  0  0  0  0  0
    5.0508    1.1190    0.0000 H   0  0  0  0  0  0  0  0  0  0  0  0
    4.7185   -0.5524    0.0000 H   0  0  0  0  0  0  0  0  0  0  0  0
    8.0224    1.1140    0.0000 H   0  0  0  0  0  0  0  0  0  0  0  0
    7.2340    1.3716    0.0000 H   0  0  0  0  0  0  0  0  0  0  0  0
    8.5295   -0.4147    0.0000 H   0  0  0  0  0  0  0  0  0  0  0  0
    8.5295    0.4147    0.0000 H   0  0  0  0  0  0  0  0  0  0  0  0
    3.8100    1.4030    0.0000 H   0  0  0  0  0  0  0  0  0  0  0  0
    3.8100   -1.4030    0.0000 H   0  0  0  0  0  0  0  0  0  0  0  0
    2.1900    1.4030    0.0000 H   0  0  0  0  0  0  0  0  0  0  0  0
    2.1900   -1.4030    0.0000 H   0  0  0  0  0  0  0  0  0  0  0  0
    1.3800    0.0000    0.0000 H   0  0  0  0  0  0  0  0  0  0  0  0
  1  7  1  0  0  0  0
  1  8  1  0  0  0  0
  2  4  1  0  0  0  0
  2  6  1  0  0  0  0
  2  7  1  0  0  0  0
  3  5  1  0  0  0  0
  3  7  2  0  0  0  0
  4  5  1  0  0  0  0
  4 15  1  0  0  0  0
  4 16  1  0  0  0  0
  5  9  1  1  0  0  0
  5 17  1  0  0  0  0
  6  8  1  0  0  0  0
  6 18  1  0  0  0  0
  6 19  1  0  0  0  0
  8 20  1  0  0  0  0
  8 21  1  0  0  0  0
  9 10  2  0  0  0  0
  9 11  1  0  0  0  0
 10 12  1  0  0  0  0
 10 22  1  0  0  0  0
 11 13  2  0  0  0  0
 11 23  1  0  0  0  0
 12 14  2  0  0  0  0
 12 24  1  0  0  0  0
 13 14  1  0  0  0  0
 13 25  1  0  0  0  0
 14 26  1  0  0  0  0
M  END
> <PUBCHEM_COMPOUND_CID>
26879

> <PUBCHEM_COMPOUND_CANONICALIZED>
1

> <PUBCHEM_CACTVS_COMPLEXITY>
246

> <PUBCHEM_CACTVS_HBOND_ACCEPTOR>
2

> <PUBCHEM_CACTVS_HBOND_DONOR>
0

> <PUBCHEM_CACTVS_ROTATABLE_BOND>
1

> <PUBCHEM_CACTVS_SUBSKEYS>
AAADccBzAABAAAAAAAAAAAAAAAAAAWIAAAAwAAAAAAAQAAABAAAAHAQAAAAADCjFWASxAIMAAAigAiBCJACCEAFgABAJiAAIBIgIYCKAmRGUIABggACIiAcQgIAOAAAAAAAAAAAAAAAAAAAAAAAAAAAAAA==

> <PUBCHEM_IUPAC_OPENEYE_NAME>
(6S)-6-phenyl-2,3,5,6-tetrahydroimidazo[2,1-b]thiazole

> <PUBCHEM_IUPAC_CAS_NAME>
(6S)-6-phenyl-2,3,5,6-tetrahydroimidazo[2,1-b]thiazole

> <PUBCHEM_IUPAC_NAME>
(6S)-6-phenyl-2,3,5,6-tetrahydroimidazo[2,1-b][1,3]thiazole

> <PUBCHEM_IUPAC_SYSTEMATIC_NAME>
(6S)-6-phenyl-2,3,5,6-tetrahydroimidazo[2,1-b][1,3]thiazole

> <PUBCHEM_IUPAC_TRADITIONAL_NAME>
(6S)-6-phenyl-2,3,5,6-tetrahydroimidazo[2,1-b]thiazole

> <PUBCHEM_IUPAC_INCHI>
InChI=1S/C11H12N2S/c1-2-4-9(5-3-1)10-8-13-6-7-14-11(13)12-10/h1-5,10H,6-8H2/t10-/m1/s1

> <PUBCHEM_IUPAC_INCHIKEY>
HLFSDGLLUJUHTE-SNVBAGLBSA-N

> <PUBCHEM_XLOGP3>
1.8

> <PUBCHEM_EXACT_MASS>
204.072119

> <PUBCHEM_MOLECULAR_FORMULA>
C11H12N2S

> <PUBCHEM_MOLECULAR_WEIGHT>
204.29138

> <PUBCHEM_OPENEYE_CAN_SMILES>
C1CSC2=NC(CN21)C3=CC=CC=C3

> <PUBCHEM_OPENEYE_ISO_SMILES>
C1CSC2=N[C@H](CN21)C3=CC=CC=C3

> <PUBCHEM_CACTVS_TPSA>
40.9

> <PUBCHEM_MONOISOTOPIC_WEIGHT>
204.072119

> <PUBCHEM_TOTAL_CHARGE>
0

> <PUBCHEM_HEAVY_ATOM_COUNT>
14

> <PUBCHEM_ATOM_DEF_STEREO_COUNT>
1

> <PUBCHEM_ATOM_UDEF_STEREO_COUNT>
0

> <PUBCHEM_BOND_DEF_STEREO_COUNT>
0

> <PUBCHEM_BOND_UDEF_STEREO_COUNT>
0

> <PUBCHEM_ISOTOPIC_ATOM_COUNT>
0

> <PUBCHEM_COMPONENT_COUNT>
1

> <PUBCHEM_CACTVS_TAUTO_COUNT>
1

> <PUBCHEM_COORDINATE_TYPE>
1
5
255

> <PUBCHEM_BONDANNOTATIONS>
10  12  8
11  13  8
12  14  8
13  14  8
5  9  5
9  10  8
9  11  8

$$$$

