6385704
  -OEChem-07051213092D

 25 24  0     1  0  0  0  0  0999 V2000
    7.6962    0.8660    0.0000 Cl  0  0  0  0  0  0  0  0  0  0  0  0
    6.3301    1.5000    0.0000 Cl  0  0  0  0  0  0  0  0  0  0  0  0
    4.5981   -1.5000    0.0000 Cl  0  0  0  0  0  0  0  0  0  0  0  0
    2.0000    0.0000    0.0000 O   0  0  0  0  0  0  0  0  0  0  0  0
    7.1962    0.0000    0.0000 C   0  0  3  0  0  0  0  0  0  0  0  0
    6.3301    0.5000    0.0000 C   0  0  3  0  0  0  0  0  0  0  0  0
    6.6962   -0.8660    0.0000 C   0  0  0  0  0  0  0  0  0  0  0  0
    8.0622   -0.5000    0.0000 C   0  0  0  0  0  0  0  0  0  0  0  0
    5.4641    0.0000    0.0000 C   0  0  0  0  0  0  0  0  0  0  0  0
    4.5981    0.5000    0.0000 C   0  0  0  0  0  0  0  0  0  0  0  0
    8.9282    0.0000    0.0000 C   0  0  0  0  0  0  0  0  0  0  0  0
    3.7320    0.0000    0.0000 C   0  0  0  0  0  0  0  0  0  0  0  0
    3.7320   -1.0000    0.0000 C   0  0  0  0  0  0  0  0  0  0  0  0
    2.8660    0.5000    0.0000 C   0  0  0  0  0  0  0  0  0  0  0  0
    6.8671    0.8100    0.0000 H   0  0  0  0  0  0  0  0  0  0  0  0
    6.1592   -0.5560    0.0000 H   0  0  0  0  0  0  0  0  0  0  0  0
    6.3862   -1.4030    0.0000 H   0  0  0  0  0  0  0  0  0  0  0  0
    7.2331   -1.1760    0.0000 H   0  0  0  0  0  0  0  0  0  0  0  0
    8.0622   -1.1200    0.0000 H   0  0  0  0  0  0  0  0  0  0  0  0
    5.4641   -0.6200    0.0000 H   0  0  0  0  0  0  0  0  0  0  0  0
    4.5981    1.1200    0.0000 H   0  0  0  0  0  0  0  0  0  0  0  0
    9.4651   -0.3100    0.0000 H   0  0  0  0  0  0  0  0  0  0  0  0
    8.9282    0.6200    0.0000 H   0  0  0  0  0  0  0  0  0  0  0  0
    3.1951   -1.3100    0.0000 H   0  0  0  0  0  0  0  0  0  0  0  0
    2.8660    1.1200    0.0000 H   0  0  0  0  0  0  0  0  0  0  0  0
  1  5  1  0  0  0  0
  2  6  1  0  0  0  0
  3 13  1  0  0  0  0
  4 14  2  0  0  0  0
  5  6  1  0  0  0  0
  5  7  1  0  0  0  0
  5  8  1  0  0  0  0
  6  9  1  0  0  0  0
  6 15  1  0  0  0  0
  7 16  1  0  0  0  0
  7 17  1  0  0  0  0
  7 18  1  0  0  0  0
  8 11  2  0  0  0  0
  8 19  1  0  0  0  0
  9 10  2  0  0  0  0
  9 20  1  0  0  0  0
 10 12  1  0  0  0  0
 10 21  1  0  0  0  0
 11 22  1  0  0  0  0
 11 23  1  0  0  0  0
 12 13  2  0  0  0  0
 12 14  1  0  0  0  0
 13 24  1  0  0  0  0
 14 25  1  0  0  0  0
M  END
> <PUBCHEM_COMPOUND_CID>
6385704

> <PUBCHEM_COMPOUND_CANONICALIZED>
1

> <PUBCHEM_CACTVS_COMPLEXITY>
271

> <PUBCHEM_CACTVS_HBOND_ACCEPTOR>
1

> <PUBCHEM_CACTVS_HBOND_DONOR>
0

> <PUBCHEM_CACTVS_ROTATABLE_BOND>
5

> <PUBCHEM_CACTVS_SUBSKEYS>
AAADccBwIAAGAAAAAAAAAAAAAAAAAAAAAAAAAAAAAAAAAAAAAAAAGgIAAAAADAOggEICAAAAAACIAihSgAAAAAAgAAAICEEAAkgIAAAAAQAAAAAAgAAIgIIAAAAIAAAAAAAAAAAAAAAAAAAAAAAAAAAAAA==

> <PUBCHEM_IUPAC_OPENEYE_NAME>
(2E,3E)-5,6-dichloro-2-(chloromethylene)-6-methyl-octa-3,7-dienal

> <PUBCHEM_IUPAC_CAS_NAME>
(2E,3E)-5,6-dichloro-2-(chloromethylidene)-6-methylocta-3,7-dienal

> <PUBCHEM_IUPAC_NAME>
(2E,3E)-5,6-dichloro-2-(chloromethylidene)-6-methylocta-3,7-dienal

> <PUBCHEM_IUPAC_SYSTEMATIC_NAME>
(2E,3E)-5,6-bis(chloranyl)-2-(chloranylmethylidene)-6-methyl-octa-3,7-dienal

> <PUBCHEM_IUPAC_TRADITIONAL_NAME>
(2E,3E)-5,6-dichloro-2-(chloromethylene)-6-methyl-octa-3,7-dienal

> <PUBCHEM_IUPAC_INCHI>
InChI=1S/C10H11Cl3O/c1-3-10(2,13)9(12)5-4-8(6-11)7-14/h3-7,9H,1H2,2H3/b5-4+,8-6+

> <PUBCHEM_IUPAC_INCHIKEY>
VUMGFDOJOXNAHX-DVBIZMGNSA-N

> <PUBCHEM_XLOGP3_AA>
3.1

> <PUBCHEM_EXACT_MASS>
251.987548

> <PUBCHEM_MOLECULAR_FORMULA>
C10H11Cl3O

> <PUBCHEM_MOLECULAR_WEIGHT>
253.55274

> <PUBCHEM_OPENEYE_CAN_SMILES>
CC(C=C)(C(C=CC(=CCl)C=O)Cl)Cl

> <PUBCHEM_OPENEYE_ISO_SMILES>
CC(C=C)(C(/C=C/C(=C\Cl)/C=O)Cl)Cl

> <PUBCHEM_CACTVS_TPSA>
17.1

> <PUBCHEM_MONOISOTOPIC_WEIGHT>
251.987548

> <PUBCHEM_TOTAL_CHARGE>
0

> <PUBCHEM_HEAVY_ATOM_COUNT>
14

> <PUBCHEM_ATOM_DEF_STEREO_COUNT>
0

> <PUBCHEM_ATOM_UDEF_STEREO_COUNT>
2

> <PUBCHEM_BOND_DEF_STEREO_COUNT>
2

> <PUBCHEM_BOND_UDEF_STEREO_COUNT>
0

> <PUBCHEM_ISOTOPIC_ATOM_COUNT>
0

> <PUBCHEM_COMPONENT_COUNT>
1

> <PUBCHEM_CACTVS_TAUTO_COUNT>
1

> <PUBCHEM_COORDINATE_TYPE>
1
5
255

> <PUBCHEM_BONDANNOTATIONS>
5  1  3
6  2  3

$$$$

