5281538
  -OEChem-07051212582D

 39 40  0     1  0  0  0  0  0999 V2000
    2.5369    1.7500    0.0000 O   0  0  0  0  0  0  0  0  0  0  0  0
    3.4030    0.2500    0.0000 O   0  0  0  0  0  0  0  0  0  0  0  0
    6.0010   -1.2500    0.0000 C   0  0  2  0  0  0  0  0  0  0  0  0
    5.1350   -1.7500    0.0000 C   0  0  1  0  0  0  0  0  0  0  0  0
    6.0010   -0.2500    0.0000 C   0  0  0  0  0  0  0  0  0  0  0  0
    5.1350    0.2500    0.0000 C   0  0  1  0  0  0  0  0  0  0  0  0
    6.9473   -1.5547    0.0000 C   0  0  0  0  0  0  0  0  0  0  0  0
    4.2690   -1.2500    0.0000 C   0  0  0  0  0  0  0  0  0  0  0  0
    4.2690   -0.2500    0.0000 C   0  0  0  0  0  0  0  0  0  0  0  0
    7.5309   -0.7500    0.0000 C   0  0  0  0  0  0  0  0  0  0  0  0
    6.9473    0.0547    0.0000 C   0  0  0  0  0  0  0  0  0  0  0  0
    5.1350   -2.7500    0.0000 C   0  0  0  0  0  0  0  0  0  0  0  0
    5.1350    1.2500    0.0000 C   0  0  0  0  0  0  0  0  0  0  0  0
    7.2579    1.0052    0.0000 C   0  0  0  0  0  0  0  0  0  0  0  0
    4.2690    1.7500    0.0000 C   0  0  0  0  0  0  0  0  0  0  0  0
    4.2690    2.7500    0.0000 C   0  0  0  0  0  0  0  0  0  0  0  0
    3.4030    1.2500    0.0000 C   0  0  0  0  0  0  0  0  0  0  0  0
    6.0910   -2.0952    0.0000 H   0  0  0  0  0  0  0  0  0  0  0  0
    5.6720   -2.0600    0.0000 H   0  0  0  0  0  0  0  0  0  0  0  0
    5.6720    0.5600    0.0000 H   0  0  0  0  0  0  0  0  0  0  0  0
    6.6962   -2.1216    0.0000 H   0  0  0  0  0  0  0  0  0  0  0  0
    7.4846   -1.8640    0.0000 H   0  0  0  0  0  0  0  0  0  0  0  0
    3.6584   -1.1423    0.0000 H   0  0  0  0  0  0  0  0  0  0  0  0
    4.0569   -1.8326    0.0000 H   0  0  0  0  0  0  0  0  0  0  0  0
    4.0569    0.3326    0.0000 H   0  0  0  0  0  0  0  0  0  0  0  0
    3.6584   -0.3577    0.0000 H   0  0  0  0  0  0  0  0  0  0  0  0
    7.9917   -1.1647    0.0000 H   0  0  0  0  0  0  0  0  0  0  0  0
    7.9917   -0.3353    0.0000 H   0  0  0  0  0  0  0  0  0  0  0  0
    4.5150   -2.7500    0.0000 H   0  0  0  0  0  0  0  0  0  0  0  0
    5.1350   -3.3700    0.0000 H   0  0  0  0  0  0  0  0  0  0  0  0
    5.7550   -2.7500    0.0000 H   0  0  0  0  0  0  0  0  0  0  0  0
    5.6720    1.5600    0.0000 H   0  0  0  0  0  0  0  0  0  0  0  0
    7.8472    0.8126    0.0000 H   0  0  0  0  0  0  0  0  0  0  0  0
    7.4505    1.5946    0.0000 H   0  0  0  0  0  0  0  0  0  0  0  0
    6.6686    1.1979    0.0000 H   0  0  0  0  0  0  0  0  0  0  0  0
    4.8890    2.7500    0.0000 H   0  0  0  0  0  0  0  0  0  0  0  0
    4.2690    3.3700    0.0000 H   0  0  0  0  0  0  0  0  0  0  0  0
    3.6490    2.7500    0.0000 H   0  0  0  0  0  0  0  0  0  0  0  0
    2.0000    1.4400    0.0000 H   0  0  0  0  0  0  0  0  0  0  0  0
  1 17  1  0  0  0  0
  1 39  1  0  0  0  0
  2 17  2  0  0  0  0
  3  4  1  0  0  0  0
  3  5  1  0  0  0  0
  3  7  1  0  0  0  0
  3 18  1  1  0  0  0
  4  8  1  0  0  0  0
  4 12  1  6  0  0  0
  4 19  1  0  0  0  0
  5  6  1  0  0  0  0
  5 11  2  0  0  0  0
  6  9  1  0  0  0  0
  6 13  1  1  0  0  0
  6 20  1  0  0  0  0
  7 10  1  0  0  0  0
  7 21  1  0  0  0  0
  7 22  1  0  0  0  0
  8  9  1  0  0  0  0
  8 23  1  0  0  0  0
  8 24  1  0  0  0  0
  9 25  1  0  0  0  0
  9 26  1  0  0  0  0
 10 11  1  0  0  0  0
 10 27  1  0  0  0  0
 10 28  1  0  0  0  0
 11 14  1  0  0  0  0
 12 29  1  0  0  0  0
 12 30  1  0  0  0  0
 12 31  1  0  0  0  0
 13 15  2  0  0  0  0
 13 32  1  0  0  0  0
 14 33  1  0  0  0  0
 14 34  1  0  0  0  0
 14 35  1  0  0  0  0
 15 16  1  0  0  0  0
 15 17  1  0  0  0  0
 16 36  1  0  0  0  0
 16 37  1  0  0  0  0
 16 38  1  0  0  0  0
M  END
> <PUBCHEM_COMPOUND_CID>
5281538

> <PUBCHEM_COMPOUND_CANONICALIZED>
1

> <PUBCHEM_CACTVS_COMPLEXITY>
390

> <PUBCHEM_CACTVS_HBOND_ACCEPTOR>
2

> <PUBCHEM_CACTVS_HBOND_DONOR>
1

> <PUBCHEM_CACTVS_ROTATABLE_BOND>
2

> <PUBCHEM_CACTVS_SUBSKEYS>
AAADceBwMAAAAAAAAAAAAAAAAAAAAQAAAAAwAAAAAAAAAEAAAAAAGgAACAAADQCAgAACCAAAAgCIAiDSCAAAAAAgAAAACAEAAEgABAIAAQAAUAAAgAAIEYMAgMAOgAAAAAAAAACAAAQAACAAAAAAAAAAAA==

> <PUBCHEM_IUPAC_OPENEYE_NAME>
(Z)-3-[(4S,7R,7aR)-3,7-dimethyl-2,4,5,6,7,7a-hexahydro-1H-inden-4-yl]-2-methyl-prop-2-enoic acid

> <PUBCHEM_IUPAC_CAS_NAME>
(Z)-3-[(4S,7R,7aR)-3,7-dimethyl-2,4,5,6,7,7a-hexahydro-1H-inden-4-yl]-2-methyl-2-propenoic acid

> <PUBCHEM_IUPAC_NAME>
(Z)-3-[(4S,7R,7aR)-3,7-dimethyl-2,4,5,6,7,7a-hexahydro-1H-inden-4-yl]-2-methylprop-2-enoic acid

> <PUBCHEM_IUPAC_SYSTEMATIC_NAME>
(Z)-3-[(4S,7R,7aR)-3,7-dimethyl-2,4,5,6,7,7a-hexahydro-1H-inden-4-yl]-2-methyl-prop-2-enoic acid

> <PUBCHEM_IUPAC_TRADITIONAL_NAME>
(Z)-3-[(4S,7R,7aR)-3,7-dimethyl-2,4,5,6,7,7a-hexahydro-1H-inden-4-yl]-2-methyl-acrylic acid

> <PUBCHEM_IUPAC_INCHI>
InChI=1S/C15H22O2/c1-9-4-6-12(8-11(3)15(16)17)14-10(2)5-7-13(9)14/h8-9,12-13H,4-7H2,1-3H3,(H,16,17)/b11-8-/t9-,12+,13-/m1/s1

> <PUBCHEM_IUPAC_INCHIKEY>
FEBNTWHYQKGEIQ-JWRGBUJQSA-N

> <PUBCHEM_XLOGP3_AA>
3.2

> <PUBCHEM_EXACT_MASS>
234.16198

> <PUBCHEM_MOLECULAR_FORMULA>
C15H22O2

> <PUBCHEM_MOLECULAR_WEIGHT>
234.33398

> <PUBCHEM_OPENEYE_CAN_SMILES>
CC1CCC(C2=C(CCC12)C)C=C(C)C(=O)O

> <PUBCHEM_OPENEYE_ISO_SMILES>
C[C@@H]1CC[C@H](C2=C(CC[C@H]12)C)/C=C(/C)\C(=O)O

> <PUBCHEM_CACTVS_TPSA>
37.3

> <PUBCHEM_MONOISOTOPIC_WEIGHT>
234.16198

> <PUBCHEM_TOTAL_CHARGE>
0

> <PUBCHEM_HEAVY_ATOM_COUNT>
17

> <PUBCHEM_ATOM_DEF_STEREO_COUNT>
3

> <PUBCHEM_ATOM_UDEF_STEREO_COUNT>
0

> <PUBCHEM_BOND_DEF_STEREO_COUNT>
1

> <PUBCHEM_BOND_UDEF_STEREO_COUNT>
0

> <PUBCHEM_ISOTOPIC_ATOM_COUNT>
0

> <PUBCHEM_COMPONENT_COUNT>
1

> <PUBCHEM_CACTVS_TAUTO_COUNT>
1

> <PUBCHEM_COORDINATE_TYPE>
1
5
255

> <PUBCHEM_BONDANNOTATIONS>
3  18  5
4  12  6
6  13  5

$$$$

