114767
  -OEChem-07051213012D

 28 30  0     1  0  0  0  0  0999 V2000
    4.6660   -2.1296    0.0000 O   0  0  0  0  0  0  0  0  0  0  0  0
    6.3981   -1.1296    0.0000 O   0  0  0  0  0  0  0  0  0  0  0  0
    4.6660   -1.1296    0.0000 C   0  0  2  0  0  0  0  0  0  0  0  0
    5.5321   -0.6296    0.0000 C   0  0  2  0  0  0  0  0  0  0  0  0
    3.8000   -0.6296    0.0000 C   0  0  0  0  0  0  0  0  0  0  0  0
    5.5321    0.3704    0.0000 C   0  0  0  0  0  0  0  0  0  0  0  0
    3.8000    0.3704    0.0000 C   0  0  0  0  0  0  0  0  0  0  0  0
    4.6660    0.8704    0.0000 C   0  0  0  0  0  0  0  0  0  0  0  0
    2.9061   -1.1643    0.0000 C   0  0  0  0  0  0  0  0  0  0  0  0
    6.4421    0.8772    0.0000 C   0  0  0  0  0  0  0  0  0  0  0  0
    2.9061    0.9050    0.0000 C   0  0  0  0  0  0  0  0  0  0  0  0
    4.6500    1.9119    0.0000 C   0  0  0  0  0  0  0  0  0  0  0  0
    2.0000   -0.6504    0.0000 C   0  0  0  0  0  0  0  0  0  0  0  0
    6.4501    1.9188    0.0000 C   0  0  0  0  0  0  0  0  0  0  0  0
    2.0000    0.3912    0.0000 C   0  0  0  0  0  0  0  0  0  0  0  0
    5.5480    2.4396    0.0000 C   0  0  0  0  0  0  0  0  0  0  0  0
    5.2030   -1.4396    0.0000 H   0  0  0  0  0  0  0  0  0  0  0  0
    6.0690   -0.3196    0.0000 H   0  0  0  0  0  0  0  0  0  0  0  0
    2.9132   -1.7842    0.0000 H   0  0  0  0  0  0  0  0  0  0  0  0
    6.9754    0.5610    0.0000 H   0  0  0  0  0  0  0  0  0  0  0  0
    2.9132    1.5250    0.0000 H   0  0  0  0  0  0  0  0  0  0  0  0
    4.1095    2.2156    0.0000 H   0  0  0  0  0  0  0  0  0  0  0  0
    4.1291   -2.4396    0.0000 H   0  0  0  0  0  0  0  0  0  0  0  0
    6.3981   -1.7496    0.0000 H   0  0  0  0  0  0  0  0  0  0  0  0
    1.4643   -0.9625    0.0000 H   0  0  0  0  0  0  0  0  0  0  0  0
    6.9882    2.2267    0.0000 H   0  0  0  0  0  0  0  0  0  0  0  0
    1.4643    0.7033    0.0000 H   0  0  0  0  0  0  0  0  0  0  0  0
    5.5456    3.0596    0.0000 H   0  0  0  0  0  0  0  0  0  0  0  0
  3  1  1  1  0  0  0
  1 23  1  0  0  0  0
  4  2  1  6  0  0  0
  2 24  1  0  0  0  0
  3  4  1  0  0  0  0
  3  5  1  0  0  0  0
  3 17  1  0  0  0  0
  4  6  1  0  0  0  0
  4 18  1  0  0  0  0
  5  7  1  0  0  0  0
  5  9  2  0  0  0  0
  6  8  1  0  0  0  0
  6 10  2  0  0  0  0
  7  8  1  0  0  0  0
  7 11  2  0  0  0  0
  8 12  2  0  0  0  0
  9 13  1  0  0  0  0
  9 19  1  0  0  0  0
 10 14  1  0  0  0  0
 10 20  1  0  0  0  0
 11 15  1  0  0  0  0
 11 21  1  0  0  0  0
 12 16  1  0  0  0  0
 12 22  1  0  0  0  0
 13 15  2  0  0  0  0
 13 25  1  0  0  0  0
 14 16  2  0  0  0  0
 14 26  1  0  0  0  0
 15 27  1  0  0  0  0
 16 28  1  0  0  0  0
M  END
> <PUBCHEM_COMPOUND_CID>
114767

> <PUBCHEM_COMPOUND_CANONICALIZED>
1

> <PUBCHEM_CACTVS_COMPLEXITY>
227

> <PUBCHEM_CACTVS_HBOND_ACCEPTOR>
2

> <PUBCHEM_CACTVS_HBOND_DONOR>
2

> <PUBCHEM_CACTVS_ROTATABLE_BOND>
0

> <PUBCHEM_CACTVS_SUBSKEYS>
AAADccBwMAAAAAAAAAAAAAAAAAAAAAAAAAAwYMAAAAAAAADBQAAAGgAACAAADBSgmAIwAIAAAgCAAiBCAAACAAAgAAAIiAAACIgJNiKAERCAcAAkwAEJmAeAwPAOgAAAAAAQAADAAAYAADCAAAAAAAAAAA==

> <PUBCHEM_IUPAC_OPENEYE_NAME>
(9S,10S)-9,10-dihydrophenanthrene-9,10-diol

> <PUBCHEM_IUPAC_CAS_NAME>
(9S,10S)-9,10-dihydrophenanthrene-9,10-diol

> <PUBCHEM_IUPAC_NAME>
(9S,10S)-9,10-dihydrophenanthrene-9,10-diol

> <PUBCHEM_IUPAC_SYSTEMATIC_NAME>
(9S,10S)-9,10-dihydrophenanthrene-9,10-diol

> <PUBCHEM_IUPAC_TRADITIONAL_NAME>
(9S,10S)-9,10-dihydrophenanthrene-9,10-diol

> <PUBCHEM_IUPAC_INCHI>
InChI=1S/C14H12O2/c15-13-11-7-3-1-5-9(11)10-6-2-4-8-12(10)14(13)16/h1-8,13-16H/t13-,14-/m0/s1

> <PUBCHEM_IUPAC_INCHIKEY>
MFXNBQWUTDDOKE-KBPBESRZSA-N

> <PUBCHEM_XLOGP3_AA>
1.6

> <PUBCHEM_EXACT_MASS>
212.08373

> <PUBCHEM_MOLECULAR_FORMULA>
C14H12O2

> <PUBCHEM_MOLECULAR_WEIGHT>
212.24388

> <PUBCHEM_OPENEYE_CAN_SMILES>
C1=CC=C2C(=C1)C(C(C3=CC=CC=C32)O)O

> <PUBCHEM_OPENEYE_ISO_SMILES>
C1=CC=C2C(=C1)[C@@H]([C@H](C3=CC=CC=C32)O)O

> <PUBCHEM_CACTVS_TPSA>
40.5

> <PUBCHEM_MONOISOTOPIC_WEIGHT>
212.08373

> <PUBCHEM_TOTAL_CHARGE>
0

> <PUBCHEM_HEAVY_ATOM_COUNT>
16

> <PUBCHEM_ATOM_DEF_STEREO_COUNT>
2

> <PUBCHEM_ATOM_UDEF_STEREO_COUNT>
0

> <PUBCHEM_BOND_DEF_STEREO_COUNT>
0

> <PUBCHEM_BOND_UDEF_STEREO_COUNT>
0

> <PUBCHEM_ISOTOPIC_ATOM_COUNT>
0

> <PUBCHEM_COMPONENT_COUNT>
1

> <PUBCHEM_CACTVS_TAUTO_COUNT>
1

> <PUBCHEM_COORDINATE_TYPE>
1
5
255

> <PUBCHEM_BONDANNOTATIONS>
3  1  5
10  14  8
11  15  8
12  16  8
13  15  8
14  16  8
4  2  6
5  7  8
5  9  8
6  10  8
6  8  8
7  11  8
8  12  8
9  13  8

$$$$

