47205227
  -OEChem-06241222583D

 32 34  0     0  0  0  0  0  0999 V2000
    6.4238   -0.3566    0.8731 Cl  0  0  0  0  0  0  0  0  0  0  0  0
    0.8217   -0.6691   -0.6708 O   0  0  0  0  0  0  0  0  0  0  0  0
   -1.4259    2.0540   -0.3831 O   0  0  0  0  0  0  0  0  0  0  0  0
   -1.7925   -0.1005   -1.1581 N   0  0  0  0  0  0  0  0  0  0  0  0
   -4.3404   -1.4853    0.1110 N   0  0  0  0  0  0  0  0  0  0  0  0
   -5.1576   -1.5476    1.1761 N   0  0  0  0  0  0  0  0  0  0  0  0
    1.4395    1.3362    0.1413 C   0  0  0  0  0  0  0  0  0  0  0  0
    2.5771    0.4868    0.1575 C   0  0  0  0  0  0  0  0  0  0  0  0
    0.4040    0.5880   -0.3689 C   0  0  0  0  0  0  0  0  0  0  0  0
    2.1450   -0.7336   -0.3513 C   0  0  0  0  0  0  0  0  0  0  0  0
   -0.9616    0.9067   -0.6160 C   0  0  0  0  0  0  0  0  0  0  0  0
    3.9224    0.6144    0.5453 C   0  0  0  0  0  0  0  0  0  0  0  0
    1.3801    2.7431    0.5837 C   0  0  0  0  0  0  0  0  0  0  0  0
   -3.1897    0.0740   -1.4843 C   0  0  0  0  0  0  0  0  0  0  0  0
    2.9642   -1.8507   -0.5042 C   0  0  0  0  0  0  0  0  0  0  0  0
   -4.0809   -0.2144   -0.3110 C   0  0  0  0  0  0  0  0  0  0  0  0
    4.7709   -0.4923    0.4033 C   0  0  0  0  0  0  0  0  0  0  0  0
    4.2979   -1.7016   -0.1123 C   0  0  0  0  0  0  0  0  0  0  0  0
   -4.7772    0.6120    0.5369 C   0  0  0  0  0  0  0  0  0  0  0  0
   -5.4209   -0.2634    1.4317 C   0  0  0  0  0  0  0  0  0  0  0  0
    4.2945    1.5528    0.9467 H   0  0  0  0  0  0  0  0  0  0  0  0
   -3.3490    1.1005   -1.8320 H   0  0  0  0  0  0  0  0  0  0  0  0
   -3.4226   -0.6040   -2.3122 H   0  0  0  0  0  0  0  0  0  0  0  0
    1.0885    3.3964   -0.2452 H   0  0  0  0  0  0  0  0  0  0  0  0
    0.6514    2.8634    1.3921 H   0  0  0  0  0  0  0  0  0  0  0  0
    2.3466    3.0955    0.9568 H   0  0  0  0  0  0  0  0  0  0  0  0
    2.5899   -2.7852   -0.9049 H   0  0  0  0  0  0  0  0  0  0  0  0
   -1.3854   -1.0164   -1.3258 H   0  0  0  0  0  0  0  0  0  0  0  0
    4.9678   -2.5527   -0.2171 H   0  0  0  0  0  0  0  0  0  0  0  0
   -4.8131    1.6914    0.5126 H   0  0  0  0  0  0  0  0  0  0  0  0
   -3.9944   -2.3535   -0.2784 H   0  0  0  0  0  0  0  0  0  0  0  0
   -6.0708   -0.0189    2.2596 H   0  0  0  0  0  0  0  0  0  0  0  0
  1 17  1  0  0  0  0
  2  9  1  0  0  0  0
  2 10  1  0  0  0  0
  3 11  2  0  0  0  0
  4 11  1  0  0  0  0
  4 14  1  0  0  0  0
  4 28  1  0  0  0  0
  5  6  1  0  0  0  0
  5 16  1  0  0  0  0
  5 31  1  0  0  0  0
  6 20  2  0  0  0  0
  7  8  1  0  0  0  0
  7  9  2  0  0  0  0
  7 13  1  0  0  0  0
  8 10  2  0  0  0  0
  8 12  1  0  0  0  0
  9 11  1  0  0  0  0
 10 15  1  0  0  0  0
 12 17  2  0  0  0  0
 12 21  1  0  0  0  0
 13 24  1  0  0  0  0
 13 25  1  0  0  0  0
 13 26  1  0  0  0  0
 14 16  1  0  0  0  0
 14 22  1  0  0  0  0
 14 23  1  0  0  0  0
 15 18  2  0  0  0  0
 15 27  1  0  0  0  0
 16 19  2  0  0  0  0
 17 18  1  0  0  0  0
 18 29  1  0  0  0  0
 19 20  1  0  0  0  0
 19 30  1  0  0  0  0
 20 32  1  0  0  0  0
M  END
> <PUBCHEM_COMPOUND_CID>
47205227

> <PUBCHEM_CONFORMER_RMSD>
0.6

> <PUBCHEM_CONFORMER_DIVERSEORDER>
1
39
68
44
72
45
69
63
46
61
6
3
57
24
31
73
37
56
2
43
50
54
71
59
41
62
5
27
48
65
70
28
9
55
12
30
52
60
42
64
47
38
11
33
10
21
58
20
13
32
18
40
34
53
25
4
66
26
8
22
35
16
23
36
7
19
29
15
51
17
67
49
14

> <PUBCHEM_MMFF94_PARTIAL_CHARGES>
26
1 -0.18
10 0.14
11 0.71
12 -0.15
13 0.18
14 0.48
15 -0.15
16 -0.33
17 0.18
18 -0.15
19 -0.15
2 -0.28
20 0.14
21 0.15
27 0.15
28 0.37
29 0.15
3 -0.57
30 0.15
31 0.27
32 0.15
4 -0.73
5 0.3
6 -0.71
7 -0.18
9 0.05

> <PUBCHEM_EFFECTIVE_ROTOR_COUNT>
4

> <PUBCHEM_PHARMACOPHORE_FEATURES>
8
1 2 acceptor
1 3 acceptor
1 4 donor
1 5 donor
1 6 acceptor
5 2 7 8 9 10 rings
5 5 6 16 19 20 rings
6 8 10 12 15 17 18 rings

> <PUBCHEM_HEAVY_ATOM_COUNT>
20

> <PUBCHEM_ATOM_DEF_STEREO_COUNT>
0

> <PUBCHEM_ATOM_UDEF_STEREO_COUNT>
0

> <PUBCHEM_BOND_DEF_STEREO_COUNT>
0

> <PUBCHEM_BOND_UDEF_STEREO_COUNT>
0

> <PUBCHEM_ISOTOPIC_ATOM_COUNT>
0

> <PUBCHEM_COMPONENT_COUNT>
1

> <PUBCHEM_CACTVS_TAUTO_COUNT>
4

> <PUBCHEM_CONFORMER_ID>
02D04B6B00000001

> <PUBCHEM_MMFF94_ENERGY>
23.6704

> <PUBCHEM_FEATURE_SELFOVERLAP>
40.697

> <PUBCHEM_SHAPE_FINGERPRINT>
10693767 8 12535086238602381544
11089746 13 15213029249256277360
11128504 68 14549011074687333167
11552529 35 17897728657040566487
11796584 16 17273432766211443634
12035758 1 18337685126728168850
12236239 1 16877665656190560030
12596602 18 16877663439708308851
12670543 26 9871474244458409344
12670546 177 11671781559616991723
13103583 49 18262223483324213867
13140716 1 18117849793677166854
13402501 40 18201996625474267083
13740256 8 18272650129924493255
14251757 5 13398045558691544289
14252887 29 17968095360950028790
14341114 176 18260258664213312809
146900 427 18187088304653333448
14790565 3 17618500978696421300
14849402 71 17896888642978739592
14863182 85 18334289890814810334
15048467 5 15936697003991390266
15142383 8 18339079397266022977
15238133 3 16226038972933665825
15475509 84 17603861268945138928
15527383 91 18408039607024231405
1601671 61 5906045959111976442
17780758 139 18408884036507495147
17844677 252 17704070707171351141
1813 80 17704065192654577397
18785283 64 18268995276418743268
20645477 56 7132717215131969869
21054139 6 13038904408735314744
21150785 3 16630234888719478070
21267235 1 18408602596159762286
21503847 285 14273751629003786298
21521239 73 12679463079910929848
21521721 280 18114749236081553248
21623969 137 18410854365239023210
221490 88 18412266142274144476
22393880 68 11095874943693814017
231179 274 7565343145548954884
23402539 116 14405189507655409543
23559900 14 17989214728693607965
23590187 135 17775567532998756859
26918003 58 18412266146943320165
2838139 119 7565340916324168026
29717793 49 14189578567631036498
314194 84 18335428971295684998
341906 21 14201114613707114627
3737641 26 18264202693916442710
4072396 5 8934726548642138004
465052 167 18272938241543788690
5104073 3 18118131483861256914
5924683 9 17968099656360891263
602551 16 17131833127522002691
7495541 125 17917992754855187476

> <PUBCHEM_SHAPE_MULTIPOLES>
386.78
13.58
1.96
1.11
3.8
0.7
-0.04
-5.54
-5.57
-0.63
-0.15
1.14
-0.11
0.82

> <PUBCHEM_SHAPE_SELFOVERLAP>
839.065

> <PUBCHEM_SHAPE_VOLUME>
213.4

> <PUBCHEM_COORDINATE_TYPE>
2
5
10

$$$$

