134025
  -OEChem-07051212563D

 64 69  0     1  0  0  0  0  0999 V2000
   -2.1819    1.8247   -1.4118 O   0  0  0  0  0  0  0  0  0  0  0  0
   -0.2445   -2.3284   -0.3738 O   0  0  0  0  0  0  0  0  0  0  0  0
    0.1079    3.1882   -0.4677 O   0  0  0  0  0  0  0  0  0  0  0  0
   -1.7112    1.6422    2.2237 O   0  0  0  0  0  0  0  0  0  0  0  0
   -3.0963   -1.3047    1.5653 O   0  0  0  0  0  0  0  0  0  0  0  0
   -4.5546    0.9210   -0.9087 O   0  0  0  0  0  0  0  0  0  0  0  0
    5.0608    1.0725    1.5101 O   0  0  0  0  0  0  0  0  0  0  0  0
   -4.3672    1.9836    1.1340 O   0  0  0  0  0  0  0  0  0  0  0  0
   -1.4991   -3.4404    1.1339 O   0  0  0  0  0  0  0  0  0  0  0  0
    7.1458    0.2145    1.9653 O   0  0  0  0  0  0  0  0  0  0  0  0
   -3.8342   -2.2872   -0.3911 O   0  0  0  0  0  0  0  0  0  0  0  0
   -0.6373    0.0605   -0.9557 C   0  0  2  0  0  0  0  0  0  0  0  0
    0.4345    0.7774   -0.0330 C   0  0  1  0  0  0  0  0  0  0  0  0
   -1.9597   -0.1470   -0.2165 C   0  0  2  0  0  0  0  0  0  0  0  0
    1.9148    0.7307   -0.6120 C   0  0  2  0  0  0  0  0  0  0  0  0
   -0.1811   -1.3180   -1.4328 C   0  0  1  0  0  0  0  0  0  0  0  0
   -2.4023    1.2991   -0.0762 C   0  0  1  0  0  0  0  0  0  0  0  0
    2.2432   -0.7890   -0.9261 C   0  0  1  0  0  0  0  0  0  0  0  0
   -0.0740    2.1606    0.4996 C   0  0  2  0  0  0  0  0  0  0  0  0
   -1.1808    0.9912   -2.0532 C   0  0  0  0  0  0  0  0  0  0  0  0
   -1.5655    2.1404    0.8988 C   0  0  2  0  0  0  0  0  0  0  0  0
    1.2535   -1.3523   -1.9633 C   0  0  0  0  0  0  0  0  0  0  0  0
   -1.8271   -1.0620    0.9802 C   0  0  2  0  0  0  0  0  0  0  0  0
    3.7482   -1.0258   -1.2833 C   0  0  1  0  0  0  0  0  0  0  0  0
    2.9161    1.2295    0.4310 C   0  0  0  0  0  0  0  0  0  0  0  0
    2.1620    1.6116   -1.8593 C   0  0  0  0  0  0  0  0  0  0  0  0
   -3.8755    1.4546    0.1463 C   0  0  0  0  0  0  0  0  0  0  0  0
   -1.2151   -2.3851    0.5735 C   0  0  0  0  0  0  0  0  0  0  0  0
    4.6039   -0.4265   -0.1938 C   0  0  0  0  0  0  0  0  0  0  0  0
    4.1205    0.6654    0.5830 C   0  0  0  0  0  0  0  0  0  0  0  0
    4.0740   -2.5082   -1.5123 C   0  0  0  0  0  0  0  0  0  0  0  0
    5.8131   -0.7500    0.2496 C   0  0  0  0  0  0  0  0  0  0  0  0
    6.1058    0.2030    1.3259 C   0  0  0  0  0  0  0  0  0  0  0  0
   -4.0149   -1.9287    0.7648 C   0  0  0  0  0  0  0  0  0  0  0  0
   -5.9811    1.0016   -0.8259 C   0  0  0  0  0  0  0  0  0  0  0  0
   -5.3005   -2.1189    1.5112 C   0  0  0  0  0  0  0  0  0  0  0  0
    0.5015    0.1624    0.8757 H   0  0  0  0  0  0  0  0  0  0  0  0
   -2.6263   -0.6122   -0.9506 H   0  0  0  0  0  0  0  0  0  0  0  0
   -0.8425   -1.6905   -2.2253 H   0  0  0  0  0  0  0  0  0  0  0  0
    2.0743   -1.3538    0.0059 H   0  0  0  0  0  0  0  0  0  0  0  0
    0.5206    2.4466    1.3731 H   0  0  0  0  0  0  0  0  0  0  0  0
   -0.4497    1.6362   -2.5351 H   0  0  0  0  0  0  0  0  0  0  0  0
   -1.6929    0.4343   -2.8469 H   0  0  0  0  0  0  0  0  0  0  0  0
   -1.9438    3.1714    0.9011 H   0  0  0  0  0  0  0  0  0  0  0  0
    1.3258   -0.8143   -2.9132 H   0  0  0  0  0  0  0  0  0  0  0  0
    1.4959   -2.3985   -2.1764 H   0  0  0  0  0  0  0  0  0  0  0  0
   -1.1887   -0.6623    1.7696 H   0  0  0  0  0  0  0  0  0  0  0  0
    3.9759   -0.5018   -2.2198 H   0  0  0  0  0  0  0  0  0  0  0  0
    2.6654    2.0915    1.0407 H   0  0  0  0  0  0  0  0  0  0  0  0
    1.9929    2.6735   -1.6669 H   0  0  0  0  0  0  0  0  0  0  0  0
    3.2034    1.5521   -2.1975 H   0  0  0  0  0  0  0  0  0  0  0  0
    1.5551    1.3210   -2.7165 H   0  0  0  0  0  0  0  0  0  0  0  0
   -0.6841    3.2511   -1.0253 H   0  0  0  0  0  0  0  0  0  0  0  0
   -1.2032    2.2231    2.8150 H   0  0  0  0  0  0  0  0  0  0  0  0
    3.7936   -3.1174   -0.6461 H   0  0  0  0  0  0  0  0  0  0  0  0
    3.5531   -2.9006   -2.3905 H   0  0  0  0  0  0  0  0  0  0  0  0
    5.1421   -2.6597   -1.7029 H   0  0  0  0  0  0  0  0  0  0  0  0
    6.4787   -1.5251   -0.0867 H   0  0  0  0  0  0  0  0  0  0  0  0
   -6.3412    0.5313    0.0938 H   0  0  0  0  0  0  0  0  0  0  0  0
   -6.4015    0.4652   -1.6806 H   0  0  0  0  0  0  0  0  0  0  0  0
   -6.2994    2.0471   -0.8744 H   0  0  0  0  0  0  0  0  0  0  0  0
   -5.6283   -1.1671    1.9371 H   0  0  0  0  0  0  0  0  0  0  0  0
   -5.1621   -2.8638    2.2983 H   0  0  0  0  0  0  0  0  0  0  0  0
   -6.0726   -2.4685    0.8200 H   0  0  0  0  0  0  0  0  0  0  0  0
  1 17  1  0  0  0  0
  1 20  1  0  0  0  0
  2 16  1  0  0  0  0
  2 28  1  0  0  0  0
  3 19  1  0  0  0  0
  3 53  1  0  0  0  0
  4 21  1  0  0  0  0
  4 54  1  0  0  0  0
  5 23  1  0  0  0  0
  5 34  1  0  0  0  0
  6 27  1  0  0  0  0
  6 35  1  0  0  0  0
  7 30  1  0  0  0  0
  7 33  1  0  0  0  0
  8 27  2  0  0  0  0
  9 28  2  0  0  0  0
 10 33  2  0  0  0  0
 11 34  2  0  0  0  0
 12 13  1  0  0  0  0
 12 14  1  0  0  0  0
 12 16  1  0  0  0  0
 12 20  1  0  0  0  0
 13 15  1  0  0  0  0
 13 19  1  0  0  0  0
 13 37  1  0  0  0  0
 14 17  1  0  0  0  0
 14 23  1  0  0  0  0
 14 38  1  0  0  0  0
 15 18  1  0  0  0  0
 15 25  1  0  0  0  0
 15 26  1  0  0  0  0
 16 22  1  0  0  0  0
 16 39  1  0  0  0  0
 17 21  1  0  0  0  0
 17 27  1  0  0  0  0
 18 22  1  0  0  0  0
 18 24  1  0  0  0  0
 18 40  1  0  0  0  0
 19 21  1  0  0  0  0
 19 41  1  0  0  0  0
 20 42  1  0  0  0  0
 20 43  1  0  0  0  0
 21 44  1  0  0  0  0
 22 45  1  0  0  0  0
 22 46  1  0  0  0  0
 23 28  1  0  0  0  0
 23 47  1  0  0  0  0
 24 29  1  0  0  0  0
 24 31  1  0  0  0  0
 24 48  1  0  0  0  0
 25 30  2  0  0  0  0
 25 49  1  0  0  0  0
 26 50  1  0  0  0  0
 26 51  1  0  0  0  0
 26 52  1  0  0  0  0
 29 30  1  0  0  0  0
 29 32  2  0  0  0  0
 31 55  1  0  0  0  0
 31 56  1  0  0  0  0
 31 57  1  0  0  0  0
 32 33  1  0  0  0  0
 32 58  1  0  0  0  0
 34 36  1  0  0  0  0
 35 59  1  0  0  0  0
 35 60  1  0  0  0  0
 35 61  1  0  0  0  0
 36 62  1  0  0  0  0
 36 63  1  0  0  0  0
 36 64  1  0  0  0  0
M  END
> <PUBCHEM_COMPOUND_CID>
134025

> <PUBCHEM_CONFORMER_RMSD>
0.8

> <PUBCHEM_CONFORMER_DIVERSEORDER>
2
1

> <PUBCHEM_MMFF94_PARTIAL_CHARGES>
33
1 -0.56
10 -0.57
11 -0.57
15 0.14
16 0.28
17 0.34
19 0.28
2 -0.43
20 0.28
21 0.28
23 0.34
24 0.14
25 -0.29
27 0.66
28 0.66
29 -0.14
3 -0.68
30 0.08
32 -0.14
33 0.71
34 0.66
35 0.28
36 0.06
4 -0.68
49 0.15
5 -0.43
53 0.4
54 0.4
58 0.15
6 -0.43
7 -0.23
8 -0.57
9 -0.57

> <PUBCHEM_EFFECTIVE_ROTOR_COUNT>
5.8

> <PUBCHEM_PHARMACOPHORE_FEATURES>
14
1 1 acceptor
1 10 acceptor
1 11 acceptor
1 3 acceptor
1 3 donor
1 4 acceptor
1 4 donor
1 8 acceptor
1 9 acceptor
5 7 29 30 32 33 rings
6 12 13 15 16 18 22 rings
6 15 18 24 25 29 30 rings
6 2 12 14 16 23 28 rings
8 1 12 13 14 17 19 20 21 rings

> <PUBCHEM_HEAVY_ATOM_COUNT>
36

> <PUBCHEM_ATOM_DEF_STEREO_COUNT>
11

> <PUBCHEM_ATOM_UDEF_STEREO_COUNT>
0

> <PUBCHEM_BOND_DEF_STEREO_COUNT>
0

> <PUBCHEM_BOND_UDEF_STEREO_COUNT>
0

> <PUBCHEM_ISOTOPIC_ATOM_COUNT>
0

> <PUBCHEM_COMPONENT_COUNT>
1

> <PUBCHEM_CACTVS_TAUTO_COUNT>
1

> <PUBCHEM_CONFORMER_ID>
00020B8900000002

> <PUBCHEM_MMFF94_ENERGY>
142.6284

> <PUBCHEM_FEATURE_SELFOVERLAP>
71.307

> <PUBCHEM_SHAPE_FINGERPRINT>
10 15 18260562095906970352
10319926 262 18411701024153646274
10675989 125 17116926262822843205
10930396 42 18198088957038839496
11578080 2 13985762144962218009
12035758 1 18411971469363762089
12156800 1 17538332472174331115
12236239 1 15769771381576024548
12422481 6 18124560221064468595
12633046 712 14907880666218609212
12633257 1 18201710769335235884
13140716 1 18263630930668420255
13224815 77 18261662719303541172
13402501 40 18333453144826786368
13583140 156 17458350710376505802
13726171 33 17979599443738000724
13782708 43 16770688522697185987
13811026 1 18333454256986296591
14705955 166 18040713662709740738
15131766 46 15575001615942339802
15840311 113 17096916087663454657
16728300 4 18059310841063990834
16945 1 18050835638053791173
17349148 13 18410848833004206452
20600515 1 18202275866777313991
20721686 56 18041562559371175006
21033648 29 17822302271101694562
22122407 14 16515684442257446320
22182313 1 18187908604193007647
23559900 14 18266159790517584990
3380486 145 18114457865067811967
3383291 50 18341891862501204651
392239 28 17895193264155443403
4340502 62 18338226189517946401
469060 322 17561360681901981583
5080951 261 18198650806889444727
5081480 168 15359069708754035572
5104073 3 18114739455776602818
56638632 10 16880486861035375456
6004065 56 17968391060821831525
9981440 41 17894919550622765486

> <PUBCHEM_SHAPE_MULTIPOLES>
676.3
12.3
3.06
1.86
9.22
0.87
0.05
1.11
-5.09
-2.42
-0.3
0.63
0.01
1.89

> <PUBCHEM_SHAPE_SELFOVERLAP>
1510.255

> <PUBCHEM_SHAPE_VOLUME>
353.6

> <PUBCHEM_COORDINATE_TYPE>
2
5
10

$$$$

