880
  -OEChem-07051212442D

  9  8  0     0  0  0  0  0  0999 V2000
    2.8660   -1.0600    0.0000 O   0  0  0  0  0  0  0  0  0  0  0  0
    4.5981   -0.0600    0.0000 O   0  0  0  0  0  0  0  0  0  0  0  0
    2.0000    0.4400    0.0000 C   0  0  0  0  0  0  0  0  0  0  0  0
    2.8660   -0.0600    0.0000 C   0  0  0  0  0  0  0  0  0  0  0  0
    3.7320    0.4400    0.0000 C   0  0  0  0  0  0  0  0  0  0  0  0
    2.3100    0.9769    0.0000 H   0  0  0  0  0  0  0  0  0  0  0  0
    1.4631    0.7500    0.0000 H   0  0  0  0  0  0  0  0  0  0  0  0
    1.6900   -0.0969    0.0000 H   0  0  0  0  0  0  0  0  0  0  0  0
    3.7320    1.0600    0.0000 H   0  0  0  0  0  0  0  0  0  0  0  0
  1  4  2  0  0  0  0
  2  5  2  0  0  0  0
  3  4  1  0  0  0  0
  3  6  1  0  0  0  0
  3  7  1  0  0  0  0
  3  8  1  0  0  0  0
  4  5  1  0  0  0  0
  5  9  1  0  0  0  0
M  END
> <PUBCHEM_COMPOUND_CID>
880

> <PUBCHEM_COMPOUND_CANONICALIZED>
1

> <PUBCHEM_CACTVS_COMPLEXITY>
55.9

> <PUBCHEM_CACTVS_HBOND_ACCEPTOR>
2

> <PUBCHEM_CACTVS_HBOND_DONOR>
0

> <PUBCHEM_CACTVS_ROTATABLE_BOND>
1

> <PUBCHEM_CACTVS_SUBSKEYS>
AAADcYBAMAAAAAAAAAAAAAAAAAAAAAAAAAAAAAAAAAAAAAAAAAAAGgAAAAAACASggAICAAAAAAAIAIgQgAAAAAAAAAAAAAEAAAAAAAAAAAAAAAAAAAAAAAAAAAAAAAAAAAAAAAAAAAAAAAAAAAAAAAAAAA==

> <PUBCHEM_IUPAC_OPENEYE_NAME>
2-oxopropanal

> <PUBCHEM_IUPAC_CAS_NAME>
2-oxopropanal

> <PUBCHEM_IUPAC_NAME>
2-oxopropanal

> <PUBCHEM_IUPAC_SYSTEMATIC_NAME>
2-oxidanylidenepropanal

> <PUBCHEM_IUPAC_TRADITIONAL_NAME>
2-ketopropionaldehyde

> <PUBCHEM_IUPAC_INCHI>
InChI=1S/C3H4O2/c1-3(5)2-4/h2H,1H3

> <PUBCHEM_IUPAC_INCHIKEY>
AIJULSRZWUXGPQ-UHFFFAOYSA-N

> <PUBCHEM_XLOGP3_AA>
-0.4

> <PUBCHEM_EXACT_MASS>
72.021129

> <PUBCHEM_MOLECULAR_FORMULA>
C3H4O2

> <PUBCHEM_MOLECULAR_WEIGHT>
72.06266

> <PUBCHEM_OPENEYE_CAN_SMILES>
CC(=O)C=O

> <PUBCHEM_OPENEYE_ISO_SMILES>
CC(=O)C=O

> <PUBCHEM_CACTVS_TPSA>
34.1

> <PUBCHEM_MONOISOTOPIC_WEIGHT>
72.021129

> <PUBCHEM_TOTAL_CHARGE>
0

> <PUBCHEM_HEAVY_ATOM_COUNT>
5

> <PUBCHEM_ATOM_DEF_STEREO_COUNT>
0

> <PUBCHEM_ATOM_UDEF_STEREO_COUNT>
0

> <PUBCHEM_BOND_DEF_STEREO_COUNT>
0

> <PUBCHEM_BOND_UDEF_STEREO_COUNT>
0

> <PUBCHEM_ISOTOPIC_ATOM_COUNT>
0

> <PUBCHEM_COMPONENT_COUNT>
1

> <PUBCHEM_CACTVS_TAUTO_COUNT>
2

> <PUBCHEM_COORDINATE_TYPE>
1
5
255

$$$$

