11258
  -OEChem-06261205272D

 24 25  0     0  0  0  0  0  0999 V2000
    2.6420    2.1816    0.0000 S   0  0  0  0  0  0  0  0  0  0  0  0
    3.9511    1.2306    0.0000 S   0  0  0  0  0  0  0  0  0  0  0  0
    2.9511   -2.7694    0.0000 F   0  0  0  0  0  0  0  0  0  0  0  0
    2.9511    1.2306    0.0000 C   0  0  0  0  0  0  0  0  0  0  0  0
    2.9511    0.2306    0.0000 C   0  0  0  0  0  0  0  0  0  0  0  0
    4.2601    2.1816    0.0000 C   0  0  0  0  0  0  0  0  0  0  0  0
    3.4511    2.7694    0.0000 C   0  0  0  0  0  0  0  0  0  0  0  0
    2.0000    0.9216    0.0000 C   0  0  0  0  0  0  0  0  0  0  0  0
    2.0850   -0.2694    0.0000 C   0  0  0  0  0  0  0  0  0  0  0  0
    3.8171   -0.2694    0.0000 C   0  0  0  0  0  0  0  0  0  0  0  0
    2.0850   -1.2694    0.0000 C   0  0  0  0  0  0  0  0  0  0  0  0
    3.8171   -1.2694    0.0000 C   0  0  0  0  0  0  0  0  0  0  0  0
    2.9511   -1.7694    0.0000 C   0  0  0  0  0  0  0  0  0  0  0  0
    4.8265    1.9295    0.0000 H   0  0  0  0  0  0  0  0  0  0  0  0
    4.5701    2.7186    0.0000 H   0  0  0  0  0  0  0  0  0  0  0  0
    3.8659    3.2302    0.0000 H   0  0  0  0  0  0  0  0  0  0  0  0
    3.0362    3.2302    0.0000 H   0  0  0  0  0  0  0  0  0  0  0  0
    1.8084    1.5112    0.0000 H   0  0  0  0  0  0  0  0  0  0  0  0
    1.4103    0.7300    0.0000 H   0  0  0  0  0  0  0  0  0  0  0  0
    2.1916    0.3319    0.0000 H   0  0  0  0  0  0  0  0  0  0  0  0
    1.5481    0.0406    0.0000 H   0  0  0  0  0  0  0  0  0  0  0  0
    4.3540    0.0406    0.0000 H   0  0  0  0  0  0  0  0  0  0  0  0
    1.5481   -1.5794    0.0000 H   0  0  0  0  0  0  0  0  0  0  0  0
    4.3540   -1.5794    0.0000 H   0  0  0  0  0  0  0  0  0  0  0  0
  1  4  1  0  0  0  0
  1  7  1  0  0  0  0
  2  4  1  0  0  0  0
  2  6  1  0  0  0  0
  3 13  1  0  0  0  0
  4  5  1  0  0  0  0
  4  8  1  0  0  0  0
  5  9  2  0  0  0  0
  5 10  1  0  0  0  0
  6  7  1  0  0  0  0
  6 14  1  0  0  0  0
  6 15  1  0  0  0  0
  7 16  1  0  0  0  0
  7 17  1  0  0  0  0
  8 18  1  0  0  0  0
  8 19  1  0  0  0  0
  8 20  1  0  0  0  0
  9 11  1  0  0  0  0
  9 21  1  0  0  0  0
 10 12  2  0  0  0  0
 10 22  1  0  0  0  0
 11 13  2  0  0  0  0
 11 23  1  0  0  0  0
 12 13  1  0  0  0  0
 12 24  1  0  0  0  0
M  END
> <PUBCHEM_COMPOUND_CID>
11258

> <PUBCHEM_COMPOUND_CANONICALIZED>
1

> <PUBCHEM_CACTVS_COMPLEXITY>
170

> <PUBCHEM_CACTVS_HBOND_ACCEPTOR>
3

> <PUBCHEM_CACTVS_HBOND_DONOR>
0

> <PUBCHEM_CACTVS_ROTATABLE_BOND>
1

> <PUBCHEM_CACTVS_SUBSKEYS>
AAADccBwAQBgAAAAAAAAAAAAAAAAASAAAAAwAAAAAAAAAAABAAAAGQQAAAAADACEWAiyAIAAAAiAAiBCAAACAQAgABAIiAAAAIgIICKgERCAIAAggAAoiAcAgIAOAAAAAAAAAAAAAAAAAAAAAAAAAAAAAA==

> <PUBCHEM_IUPAC_OPENEYE_NAME>
2-(4-fluorophenyl)-2-methyl-1,3-dithiolane

> <PUBCHEM_IUPAC_CAS_NAME>
2-(4-fluorophenyl)-2-methyl-1,3-dithiolane

> <PUBCHEM_IUPAC_NAME>
2-(4-fluorophenyl)-2-methyl-1,3-dithiolane

> <PUBCHEM_IUPAC_SYSTEMATIC_NAME>
2-(4-fluorophenyl)-2-methyl-1,3-dithiolane

> <PUBCHEM_IUPAC_TRADITIONAL_NAME>
2-(4-fluorophenyl)-2-methyl-1,3-dithiolane

> <PUBCHEM_IUPAC_INCHI>
InChI=1S/C10H11FS2/c1-10(12-6-7-13-10)8-2-4-9(11)5-3-8/h2-5H,6-7H2,1H3

> <PUBCHEM_IUPAC_INCHIKEY>
OMBQOFRGXONJGP-UHFFFAOYSA-N

> <PUBCHEM_XLOGP3_AA>
3.2

> <PUBCHEM_EXACT_MASS>
214.028621

> <PUBCHEM_MOLECULAR_FORMULA>
C10H11FS2

> <PUBCHEM_MOLECULAR_WEIGHT>
214.322743

> <PUBCHEM_OPENEYE_CAN_SMILES>
CC1(SCCS1)C2=CC=C(C=C2)F

> <PUBCHEM_OPENEYE_ISO_SMILES>
CC1(SCCS1)C2=CC=C(C=C2)F

> <PUBCHEM_CACTVS_TPSA>
50.6

> <PUBCHEM_MONOISOTOPIC_WEIGHT>
214.028621

> <PUBCHEM_TOTAL_CHARGE>
0

> <PUBCHEM_HEAVY_ATOM_COUNT>
13

> <PUBCHEM_ATOM_DEF_STEREO_COUNT>
0

> <PUBCHEM_ATOM_UDEF_STEREO_COUNT>
0

> <PUBCHEM_BOND_DEF_STEREO_COUNT>
0

> <PUBCHEM_BOND_UDEF_STEREO_COUNT>
0

> <PUBCHEM_ISOTOPIC_ATOM_COUNT>
0

> <PUBCHEM_COMPONENT_COUNT>
1

> <PUBCHEM_CACTVS_TAUTO_COUNT>
1

> <PUBCHEM_COORDINATE_TYPE>
1
5
255

> <PUBCHEM_BONDANNOTATIONS>
10  12  8
11  13  8
12  13  8
5  10  8
5  9  8
9  11  8

$$$$

