160226
  -OEChem-07051212443D

 11 10  0     0  0  0  0  0  0999 V2000
   -0.7894   -0.1598   -0.0126 S   0  0  0  0  0  0  0  0  0  0  0  0
   -2.1086    0.7807    0.1847 O   0  0  0  0  0  0  0  0  0  0  0  0
   -0.6219   -0.9786    1.1770 O   0  0  0  0  0  0  0  0  0  0  0  0
   -0.8409   -0.7573   -1.3371 O   0  0  0  0  0  0  0  0  0  0  0  0
    2.1247   -0.5966   -0.0034 O   0  0  0  0  0  0  0  0  0  0  0  0
    0.4159    1.1203   -0.0072 C   0  0  0  0  0  0  0  0  0  0  0  0
    1.8202    0.5913   -0.0015 C   0  0  0  0  0  0  0  0  0  0  0  0
    0.2758    1.7202    0.8960 H   0  0  0  0  0  0  0  0  0  0  0  0
    0.2702    1.7407   -0.8946 H   0  0  0  0  0  0  0  0  0  0  0  0
    2.6071    1.3650    0.0056 H   0  0  0  0  0  0  0  0  0  0  0  0
   -2.2103    1.1867    1.0775 H   0  0  0  0  0  0  0  0  0  0  0  0
  1  2  1  0  0  0  0
  1  3  2  0  0  0  0
  1  4  2  0  0  0  0
  1  6  1  0  0  0  0
  2 11  1  0  0  0  0
  5  7  2  0  0  0  0
  6  7  1  0  0  0  0
  6  8  1  0  0  0  0
  6  9  1  0  0  0  0
  7 10  1  0  0  0  0
M  END
> <PUBCHEM_COMPOUND_CID>
160226

> <PUBCHEM_CONFORMER_RMSD>
0.4

> <PUBCHEM_CONFORMER_DIVERSEORDER>
1
2
3

> <PUBCHEM_MMFF94_PARTIAL_CHARGES>
9
1 1.38
10 0.06
11 0.5
2 -0.68
3 -0.65
4 -0.65
5 -0.57
6 0.17
7 0.45

> <PUBCHEM_EFFECTIVE_ROTOR_COUNT>
2

> <PUBCHEM_PHARMACOPHORE_FEATURES>
5
1 2 acceptor
1 3 acceptor
1 4 acceptor
1 5 acceptor
4 1 2 3 4 anion

> <PUBCHEM_HEAVY_ATOM_COUNT>
7

> <PUBCHEM_ATOM_DEF_STEREO_COUNT>
0

> <PUBCHEM_ATOM_UDEF_STEREO_COUNT>
0

> <PUBCHEM_BOND_DEF_STEREO_COUNT>
0

> <PUBCHEM_BOND_UDEF_STEREO_COUNT>
0

> <PUBCHEM_ISOTOPIC_ATOM_COUNT>
0

> <PUBCHEM_COMPONENT_COUNT>
1

> <PUBCHEM_CACTVS_TAUTO_COUNT>
2

> <PUBCHEM_CONFORMER_ID>
000271E200000001

> <PUBCHEM_MMFF94_ENERGY>
3.6814

> <PUBCHEM_FEATURE_SELFOVERLAP>
25.427

> <PUBCHEM_SHAPE_FINGERPRINT>
16714656 1 18260830452951128740
20096714 4 18410575084694941857
21040471 1 18131632300463996272
24536 1 17985836938504284544
29004967 10 18341608166630080504
5943 1 15838421438897887811

> <PUBCHEM_SHAPE_MULTIPOLES>
124.43
2.46
1.13
0.95
0.66
0.1
-0.09
0.17
0.03
-0.04
0.06
-0.31
-0.3
-0.05

> <PUBCHEM_SHAPE_SELFOVERLAP>
219.838

> <PUBCHEM_SHAPE_VOLUME>
80.8

> <PUBCHEM_COORDINATE_TYPE>
2
5
10

$$$$

