47205665
  -OEChem-06241222593D

 38 38  0     1  0  0  0  0  0999 V2000
   -4.0960   -0.2601    2.1105 Br  0  0  0  0  0  0  0  0  0  0  0  0
    0.2341   -1.5007    1.4390 O   0  0  0  0  0  0  0  0  0  0  0  0
    2.6589    0.3671   -1.2113 O   0  0  0  0  0  0  0  0  0  0  0  0
   -0.8260   -1.7182   -0.6179 N   0  0  0  0  0  0  0  0  0  0  0  0
    2.6723   -1.5358    0.1183 N   0  0  0  0  0  0  0  0  0  0  0  0
   -2.1649   -1.3932   -0.1812 C   0  0  1  0  0  0  0  0  0  0  0  0
   -2.4061    0.1008   -0.1969 C   0  0  0  0  0  0  0  0  0  0  0  0
   -3.1898   -2.1612   -1.0133 C   0  0  0  0  0  0  0  0  0  0  0  0
    1.5267   -2.1707   -0.4890 C   0  0  0  0  0  0  0  0  0  0  0  0
    0.2676   -1.7445    0.2354 C   0  0  0  0  0  0  0  0  0  0  0  0
   -3.2257    0.7251    0.7433 C   0  0  0  0  0  0  0  0  0  0  0  0
   -1.7801    0.8573   -1.1881 C   0  0  0  0  0  0  0  0  0  0  0  0
    4.3560    0.1380    0.5002 C   0  0  0  0  0  0  0  0  0  0  0  0
    4.8922    1.4942    0.0513 C   0  0  0  0  0  0  0  0  0  0  0  0
    3.1455   -0.3018   -0.3035 C   0  0  0  0  0  0  0  0  0  0  0  0
   -3.4197    2.1055    0.6928 C   0  0  0  0  0  0  0  0  0  0  0  0
   -1.9739    2.2377   -1.2384 C   0  0  0  0  0  0  0  0  0  0  0  0
   -2.7937    2.8619   -0.2983 C   0  0  0  0  0  0  0  0  0  0  0  0
    6.1225    1.8986    0.8470 C   0  0  0  0  0  0  0  0  0  0  0  0
   -2.2184   -1.7680    0.8456 H   0  0  0  0  0  0  0  0  0  0  0  0
   -0.6838   -1.9057   -1.6066 H   0  0  0  0  0  0  0  0  0  0  0  0
   -4.2115   -1.9741   -0.6670 H   0  0  0  0  0  0  0  0  0  0  0  0
   -3.0051   -3.2397   -0.9576 H   0  0  0  0  0  0  0  0  0  0  0  0
   -3.1405   -1.8743   -2.0703 H   0  0  0  0  0  0  0  0  0  0  0  0
    1.4849   -1.9077   -1.5505 H   0  0  0  0  0  0  0  0  0  0  0  0
    1.6419   -3.2539   -0.3890 H   0  0  0  0  0  0  0  0  0  0  0  0
    4.0695    0.1800    1.5579 H   0  0  0  0  0  0  0  0  0  0  0  0
    5.1340   -0.6271    0.3915 H   0  0  0  0  0  0  0  0  0  0  0  0
   -1.1500    0.4040   -1.9481 H   0  0  0  0  0  0  0  0  0  0  0  0
    5.1472    1.4619   -1.0147 H   0  0  0  0  0  0  0  0  0  0  0  0
    4.1162    2.2601    0.1684 H   0  0  0  0  0  0  0  0  0  0  0  0
    3.1296   -2.0104    0.8914 H   0  0  0  0  0  0  0  0  0  0  0  0
   -4.0548    2.6096    1.4168 H   0  0  0  0  0  0  0  0  0  0  0  0
   -1.4900    2.8265   -2.0123 H   0  0  0  0  0  0  0  0  0  0  0  0
   -2.9452    3.9366   -0.3384 H   0  0  0  0  0  0  0  0  0  0  0  0
    6.9293    1.1699    0.7193 H   0  0  0  0  0  0  0  0  0  0  0  0
    6.4886    2.8733    0.5097 H   0  0  0  0  0  0  0  0  0  0  0  0
    5.8919    1.9731    1.9145 H   0  0  0  0  0  0  0  0  0  0  0  0
  1 11  1  0  0  0  0
  2 10  2  0  0  0  0
  3 15  2  0  0  0  0
  4  6  1  0  0  0  0
  4 10  1  0  0  0  0
  4 21  1  0  0  0  0
  5  9  1  0  0  0  0
  5 15  1  0  0  0  0
  5 32  1  0  0  0  0
  6  7  1  0  0  0  0
  6  8  1  0  0  0  0
  6 20  1  0  0  0  0
  7 11  1  0  0  0  0
  7 12  2  0  0  0  0
  8 22  1  0  0  0  0
  8 23  1  0  0  0  0
  8 24  1  0  0  0  0
  9 10  1  0  0  0  0
  9 25  1  0  0  0  0
  9 26  1  0  0  0  0
 11 16  2  0  0  0  0
 12 17  1  0  0  0  0
 12 29  1  0  0  0  0
 13 14  1  0  0  0  0
 13 15  1  0  0  0  0
 13 27  1  0  0  0  0
 13 28  1  0  0  0  0
 14 19  1  0  0  0  0
 14 30  1  0  0  0  0
 14 31  1  0  0  0  0
 16 18  1  0  0  0  0
 16 33  1  0  0  0  0
 17 18  2  0  0  0  0
 17 34  1  0  0  0  0
 18 35  1  0  0  0  0
 19 36  1  0  0  0  0
 19 37  1  0  0  0  0
 19 38  1  0  0  0  0
M  END
> <PUBCHEM_COMPOUND_CID>
47205665

> <PUBCHEM_CONFORMER_RMSD>
1

> <PUBCHEM_CONFORMER_DIVERSEORDER>
1
97
59
15
22
157
141
142
68
138
126
34
113
66
65
55
57
51
121
114
18
13
19
168
150
64
62
70
31
137
124
85
174
144
42
169
76
171
96
50
3
135
102
81
175
130
48
38
106
12
123
125
147
53
136
26
60
166
173
153
61
63
111
46
107
77
54
41
11
28
119
43
149
159
88
17
23
78
156
4
71
47
79
75
160
44
152
139
9
155
164
67
69
10
90
92
36
127
84
161
128
83
148
80
101
122
172
6
116
25
117
49
146
93
131
120
39
145
165
134
133
170
16
110
95
40
45
52
143
73
98
89
72
118
105
21
58
5
158
104
33
91
2
162
167
99
35
87
112
8
74
29
109
132
20
108
86
27
32
37
151
103
163
154
82
30
7
129
14
56
24
94
140
100
115

> <PUBCHEM_MMFF94_PARTIAL_CHARGES>
22
1 -0.11
10 0.57
11 0.11
12 -0.15
13 0.06
15 0.57
16 -0.15
17 -0.15
18 -0.15
2 -0.57
21 0.37
29 0.15
3 -0.57
32 0.37
33 0.15
34 0.15
35 0.15
4 -0.73
5 -0.73
6 0.44
7 -0.14
9 0.36

> <PUBCHEM_EFFECTIVE_ROTOR_COUNT>
8

> <PUBCHEM_PHARMACOPHORE_FEATURES>
7
1 1 hydrophobe
1 19 hydrophobe
1 2 acceptor
1 3 acceptor
1 4 donor
1 5 donor
6 7 11 12 16 17 18 rings

> <PUBCHEM_HEAVY_ATOM_COUNT>
19

> <PUBCHEM_ATOM_DEF_STEREO_COUNT>
0

> <PUBCHEM_ATOM_UDEF_STEREO_COUNT>
1

> <PUBCHEM_BOND_DEF_STEREO_COUNT>
0

> <PUBCHEM_BOND_UDEF_STEREO_COUNT>
0

> <PUBCHEM_ISOTOPIC_ATOM_COUNT>
0

> <PUBCHEM_COMPONENT_COUNT>
1

> <PUBCHEM_CACTVS_TAUTO_COUNT>
4

> <PUBCHEM_CONFORMER_ID>
02D04D2100000001

> <PUBCHEM_MMFF94_ENERGY>
35.0119

> <PUBCHEM_FEATURE_SELFOVERLAP>
35.52

> <PUBCHEM_SHAPE_FINGERPRINT>
10670039 82 18270669876014993068
10764073 3 7168594099273875541
10803635 8 5833721140740692904
11715629 250 18411133679614958638
12173636 292 18189055451045547935
12363563 72 10735868491446122354
12403814 3 18412257355303560003
12596602 18 16415201118646745560
12892183 10 17775569749713591410
14251764 75 18116706511790790977
14466204 15 18337405842506909216
15342168 16 18043527437883585073
18186145 218 18041274469638400222
18981168 100 17969243246572855211
20645477 56 18334849545810812310
21069387 34 10735865145872528611
21095088 737 18339099171358588973
21623110 236 18193838145853034093
21864079 5 18339083795217081862
22907989 373 17895778273688742303
23227448 37 18335421270424442013
23503958 25 18197763591352792036
27216 239 18342174522613880329
3187 122 17632285792296751221
392239 28 17702367482197550323
469060 322 18269551650644813883
5104073 3 18200027477193879776
574716 61 4822361891580898224
9981440 41 18341900658377695762

> <PUBCHEM_SHAPE_MULTIPOLES>
375.25
10.62
3.07
1.43
16.92
0.61
0.44
6.3
3.66
-1.19
-0.56
-1.36
0.06
0.51

> <PUBCHEM_SHAPE_SELFOVERLAP>
741.49

> <PUBCHEM_SHAPE_VOLUME>
227.2

> <PUBCHEM_COORDINATE_TYPE>
2
5
10

$$$$

