47205740
  -OEChem-06241223002D

 42 42  0     1  0  0  0  0  0999 V2000
    3.7320    0.4806    0.0000 O   0  0  0  0  0  0  0  0  0  0  0  0
    2.8660   -3.0194    0.0000 O   0  0  0  0  0  0  0  0  0  0  0  0
    4.5981   -3.0194    0.0000 O   0  0  0  0  0  0  0  0  0  0  0  0
    3.7320   -1.5194    0.0000 N   0  0  0  0  0  0  0  0  0  0  0  0
    5.4641    0.4806    0.0000 N   0  0  0  0  0  0  0  0  0  0  0  0
    6.3301    2.9806    0.0000 N   0  0  0  0  0  0  0  0  0  0  0  0
    5.8301    4.5194    0.0000 N   0  0  0  0  0  0  0  0  0  0  0  0
    5.4641   -1.5194    0.0000 C   0  0  0  0  0  0  0  0  0  0  0  0
    4.5981   -1.0194    0.0000 C   0  0  3  0  0  0  0  0  0  0  0  0
    4.5981   -0.0194    0.0000 C   0  0  0  0  0  0  0  0  0  0  0  0
    5.4641   -2.5194    0.0000 C   0  0  0  0  0  0  0  0  0  0  0  0
    6.3301   -1.0194    0.0000 C   0  0  0  0  0  0  0  0  0  0  0  0
    5.4641    1.4806    0.0000 C   0  0  0  0  0  0  0  0  0  0  0  0
    6.3301    1.9806    0.0000 C   0  0  0  0  0  0  0  0  0  0  0  0
    3.7320   -2.5194    0.0000 C   0  0  0  0  0  0  0  0  0  0  0  0
    7.1391    3.5684    0.0000 C   0  0  0  0  0  0  0  0  0  0  0  0
    5.5211    3.5684    0.0000 C   0  0  0  0  0  0  0  0  0  0  0  0
    6.8301    4.5194    0.0000 C   0  0  0  0  0  0  0  0  0  0  0  0
    2.8660   -4.0194    0.0000 C   0  0  0  0  0  0  0  0  0  0  0  0
    2.0000   -4.5194    0.0000 C   0  0  0  0  0  0  0  0  0  0  0  0
    5.4641   -0.8994    0.0000 H   0  0  0  0  0  0  0  0  0  0  0  0
    4.5981   -1.6394    0.0000 H   0  0  0  0  0  0  0  0  0  0  0  0
    4.8441   -2.5194    0.0000 H   0  0  0  0  0  0  0  0  0  0  0  0
    5.4641   -3.1394    0.0000 H   0  0  0  0  0  0  0  0  0  0  0  0
    6.0841   -2.5194    0.0000 H   0  0  0  0  0  0  0  0  0  0  0  0
    6.6401   -1.5564    0.0000 H   0  0  0  0  0  0  0  0  0  0  0  0
    6.8671   -0.7094    0.0000 H   0  0  0  0  0  0  0  0  0  0  0  0
    6.0201   -0.4825    0.0000 H   0  0  0  0  0  0  0  0  0  0  0  0
    3.1951   -1.2094    0.0000 H   0  0  0  0  0  0  0  0  0  0  0  0
    5.2520    2.0632    0.0000 H   0  0  0  0  0  0  0  0  0  0  0  0
    4.8535    1.3729    0.0000 H   0  0  0  0  0  0  0  0  0  0  0  0
    6.0010    0.1706    0.0000 H   0  0  0  0  0  0  0  0  0  0  0  0
    6.5422    1.3980    0.0000 H   0  0  0  0  0  0  0  0  0  0  0  0
    6.9407    2.0882    0.0000 H   0  0  0  0  0  0  0  0  0  0  0  0
    7.7288    3.3768    0.0000 H   0  0  0  0  0  0  0  0  0  0  0  0
    4.9315    3.3768    0.0000 H   0  0  0  0  0  0  0  0  0  0  0  0
    7.1946    5.0210    0.0000 H   0  0  0  0  0  0  0  0  0  0  0  0
    3.0781   -4.6020    0.0000 H   0  0  0  0  0  0  0  0  0  0  0  0
    3.4766   -3.9118    0.0000 H   0  0  0  0  0  0  0  0  0  0  0  0
    1.6900   -3.9825    0.0000 H   0  0  0  0  0  0  0  0  0  0  0  0
    1.4631   -4.8294    0.0000 H   0  0  0  0  0  0  0  0  0  0  0  0
    2.3100   -5.0564    0.0000 H   0  0  0  0  0  0  0  0  0  0  0  0
  1 10  2  0  0  0  0
  2 15  1  0  0  0  0
  2 19  1  0  0  0  0
  3 15  2  0  0  0  0
  4  9  1  0  0  0  0
  4 15  1  0  0  0  0
  4 29  1  0  0  0  0
  5 10  1  0  0  0  0
  5 13  1  0  0  0  0
  5 32  1  0  0  0  0
  6 14  1  0  0  0  0
  6 16  1  0  0  0  0
  6 17  1  0  0  0  0
  7 17  2  0  0  0  0
  7 18  1  0  0  0  0
  8  9  1  0  0  0  0
  8 11  1  0  0  0  0
  8 12  1  0  0  0  0
  8 21  1  0  0  0  0
  9 10  1  0  0  0  0
  9 22  1  0  0  0  0
 11 23  1  0  0  0  0
 11 24  1  0  0  0  0
 11 25  1  0  0  0  0
 12 26  1  0  0  0  0
 12 27  1  0  0  0  0
 12 28  1  0  0  0  0
 13 14  1  0  0  0  0
 13 30  1  0  0  0  0
 13 31  1  0  0  0  0
 14 33  1  0  0  0  0
 14 34  1  0  0  0  0
 16 18  2  0  0  0  0
 16 35  1  0  0  0  0
 17 36  1  0  0  0  0
 18 37  1  0  0  0  0
 19 20  1  0  0  0  0
 19 38  1  0  0  0  0
 19 39  1  0  0  0  0
 20 40  1  0  0  0  0
 20 41  1  0  0  0  0
 20 42  1  0  0  0  0
M  END
> <PUBCHEM_COMPOUND_CID>
47205740

> <PUBCHEM_COMPOUND_CANONICALIZED>
1

> <PUBCHEM_CACTVS_COMPLEXITY>
323

> <PUBCHEM_CACTVS_HBOND_ACCEPTOR>
4

> <PUBCHEM_CACTVS_HBOND_DONOR>
2

> <PUBCHEM_CACTVS_ROTATABLE_BOND>
8

> <PUBCHEM_CACTVS_SUBSKEYS>
AAADceBzsAAAAAAAAAAAAAAAAAAAAWAAAAAAAAAAAAAAAAABgAAAHgAQAAAADSjhggYvmBfMFACoABE3fAAAgC0REqAJQIGYMAGASBAAiCAcAAAIFgKAACAAAAAIAAAAAAAAAAAAAAAAAAAAAAAAAAAAAA==

> <PUBCHEM_IUPAC_OPENEYE_NAME>
ethyl N-[1-(2-imidazol-1-ylethylcarbamoyl)-2-methyl-propyl]carbamate

> <PUBCHEM_IUPAC_CAS_NAME>
N-[1-[2-(1-imidazolyl)ethylamino]-3-methyl-1-oxobutan-2-yl]carbamic acid ethyl ester

> <PUBCHEM_IUPAC_NAME>
ethyl N-[1-(2-imidazol-1-ylethylamino)-3-methyl-1-oxobutan-2-yl]carbamate

> <PUBCHEM_IUPAC_SYSTEMATIC_NAME>
ethyl N-[1-(2-imidazol-1-ylethylamino)-3-methyl-1-oxidanylidene-butan-2-yl]carbamate

> <PUBCHEM_IUPAC_TRADITIONAL_NAME>
N-[1-(2-imidazol-1-ylethylcarbamoyl)-2-methyl-propyl]carbamic acid ethyl ester

> <PUBCHEM_IUPAC_INCHI>
InChI=1S/C13H22N4O3/c1-4-20-13(19)16-11(10(2)3)12(18)15-6-8-17-7-5-14-9-17/h5,7,9-11H,4,6,8H2,1-3H3,(H,15,18)(H,16,19)

> <PUBCHEM_IUPAC_INCHIKEY>
LBAHWVWAFRNPES-UHFFFAOYSA-N

> <PUBCHEM_XLOGP3_AA>
0.7

> <PUBCHEM_EXACT_MASS>
282.169191

> <PUBCHEM_MOLECULAR_FORMULA>
C13H22N4O3

> <PUBCHEM_MOLECULAR_WEIGHT>
282.33878

> <PUBCHEM_OPENEYE_CAN_SMILES>
CCOC(=O)NC(C(C)C)C(=O)NCCN1C=CN=C1

> <PUBCHEM_OPENEYE_ISO_SMILES>
CCOC(=O)NC(C(C)C)C(=O)NCCN1C=CN=C1

> <PUBCHEM_CACTVS_TPSA>
85.2

> <PUBCHEM_MONOISOTOPIC_WEIGHT>
282.169191

> <PUBCHEM_TOTAL_CHARGE>
0

> <PUBCHEM_HEAVY_ATOM_COUNT>
20

> <PUBCHEM_ATOM_DEF_STEREO_COUNT>
0

> <PUBCHEM_ATOM_UDEF_STEREO_COUNT>
1

> <PUBCHEM_BOND_DEF_STEREO_COUNT>
0

> <PUBCHEM_BOND_UDEF_STEREO_COUNT>
0

> <PUBCHEM_ISOTOPIC_ATOM_COUNT>
0

> <PUBCHEM_COMPONENT_COUNT>
1

> <PUBCHEM_CACTVS_TAUTO_COUNT>
4

> <PUBCHEM_COORDINATE_TYPE>
1
5
255

> <PUBCHEM_BONDANNOTATIONS>
16  18  8
6  16  8
6  17  8
7  17  8
7  18  8
9  8  3

$$$$

