233496
  -OEChem-07051213062D

 44 47  0     1  0  0  0  0  0999 V2000
    9.5056    2.4638    0.0000 O   0  0  0  0  0  0  0  0  0  0  0  0
    2.8556   -1.8438    0.0000 O   0  0  0  0  0  0  0  0  0  0  0  0
    2.8833    1.2477    0.0000 O   0  5  0  0  0  0  0  0  0  0  0  0
    2.0000   -0.2421    0.0000 O   0  0  0  0  0  0  0  0  0  0  0  0
    2.8718    0.2478    0.0000 N   0  3  0  0  0  0  0  0  0  0  0  0
    8.2487    0.2085    0.0000 C   0  0  2  0  0  0  0  0  0  0  0  0
    8.2487    1.2085    0.0000 C   0  0  2  0  0  0  0  0  0  0  0  0
    7.3827   -0.2915    0.0000 C   0  0  1  0  0  0  0  0  0  0  0  0
    6.5167    0.2085    0.0000 C   0  0  2  0  0  0  0  0  0  0  0  0
    7.3827    1.7085    0.0000 C   0  0  0  0  0  0  0  0  0  0  0  0
    9.1949   -0.0962    0.0000 C   0  0  0  0  0  0  0  0  0  0  0  0
    6.5167    1.2085    0.0000 C   0  0  0  0  0  0  0  0  0  0  0  0
    7.3987   -1.3330    0.0000 C   0  0  0  0  0  0  0  0  0  0  0  0
    9.1949    1.5133    0.0000 C   0  0  0  0  0  0  0  0  0  0  0  0
    9.7785    0.7085    0.0000 C   0  0  0  0  0  0  0  0  0  0  0  0
    5.6067   -0.2983    0.0000 C   0  0  0  0  0  0  0  0  0  0  0  0
    8.2487    2.2085    0.0000 C   0  0  0  0  0  0  0  0  0  0  0  0
    6.5007   -1.8607    0.0000 C   0  0  0  0  0  0  0  0  0  0  0  0
    5.5986   -1.3399    0.0000 C   0  0  0  0  0  0  0  0  0  0  0  0
    4.6798    0.2658    0.0000 C   0  0  0  0  0  0  0  0  0  0  0  0
    4.6632   -1.8896    0.0000 C   0  0  0  0  0  0  0  0  0  0  0  0
    3.7319   -0.2622    0.0000 C   0  0  0  0  0  0  0  0  0  0  0  0
    3.7236   -1.3471    0.0000 C   0  0  0  0  0  0  0  0  0  0  0  0
    8.3387   -0.6367    0.0000 H   0  0  0  0  0  0  0  0  0  0  0  0
    8.1221   -0.7108    0.0000 H   0  0  0  0  0  0  0  0  0  0  0  0
    7.2528    0.6335    0.0000 H   0  0  0  0  0  0  0  0  0  0  0  0
    7.7812    2.1835    0.0000 H   0  0  0  0  0  0  0  0  0  0  0  0
    6.9842    2.1835    0.0000 H   0  0  0  0  0  0  0  0  0  0  0  0
    8.9439   -0.6631    0.0000 H   0  0  0  0  0  0  0  0  0  0  0  0
    9.7323   -0.4054    0.0000 H   0  0  0  0  0  0  0  0  0  0  0  0
    6.3046    1.7912    0.0000 H   0  0  0  0  0  0  0  0  0  0  0  0
    5.9061    1.1009    0.0000 H   0  0  0  0  0  0  0  0  0  0  0  0
    7.6168   -1.9134    0.0000 H   0  0  0  0  0  0  0  0  0  0  0  0
    8.0079   -1.2175    0.0000 H   0  0  0  0  0  0  0  0  0  0  0  0
   10.2394    0.2938    0.0000 H   0  0  0  0  0  0  0  0  0  0  0  0
   10.2394    1.1233    0.0000 H   0  0  0  0  0  0  0  0  0  0  0  0
    8.8687    2.2085    0.0000 H   0  0  0  0  0  0  0  0  0  0  0  0
    8.2487    2.8285    0.0000 H   0  0  0  0  0  0  0  0  0  0  0  0
    7.6287    2.2085    0.0000 H   0  0  0  0  0  0  0  0  0  0  0  0
    6.1034   -2.3367    0.0000 H   0  0  0  0  0  0  0  0  0  0  0  0
    6.9017   -2.3336    0.0000 H   0  0  0  0  0  0  0  0  0  0  0  0
    4.6918    0.8857    0.0000 H   0  0  0  0  0  0  0  0  0  0  0  0
    4.6656   -2.5096    0.0000 H   0  0  0  0  0  0  0  0  0  0  0  0
    2.8532   -2.4638    0.0000 H   0  0  0  0  0  0  0  0  0  0  0  0
  1 14  2  0  0  0  0
  2 23  1  0  0  0  0
  2 44  1  0  0  0  0
  3  5  1  0  0  0  0
  4  5  2  0  0  0  0
  5 22  1  0  0  0  0
  6  7  1  0  0  0  0
  6  8  1  0  0  0  0
  6 11  1  0  0  0  0
  6 24  1  6  0  0  0
  7 10  1  0  0  0  0
  7 14  1  0  0  0  0
  7 17  1  1  0  0  0
  8  9  1  0  0  0  0
  8 13  1  0  0  0  0
  8 25  1  1  0  0  0
  9 12  1  0  0  0  0
  9 16  1  0  0  0  0
  9 26  1  6  0  0  0
 10 12  1  0  0  0  0
 10 27  1  0  0  0  0
 10 28  1  0  0  0  0
 11 15  1  0  0  0  0
 11 29  1  0  0  0  0
 11 30  1  0  0  0  0
 12 31  1  0  0  0  0
 12 32  1  0  0  0  0
 13 18  1  0  0  0  0
 13 33  1  0  0  0  0
 13 34  1  0  0  0  0
 14 15  1  0  0  0  0
 15 35  1  0  0  0  0
 15 36  1  0  0  0  0
 16 19  1  0  0  0  0
 16 20  2  0  0  0  0
 17 37  1  0  0  0  0
 17 38  1  0  0  0  0
 17 39  1  0  0  0  0
 18 19  1  0  0  0  0
 18 40  1  0  0  0  0
 18 41  1  0  0  0  0
 19 21  2  0  0  0  0
 20 22  1  0  0  0  0
 20 42  1  0  0  0  0
 21 23  1  0  0  0  0
 21 43  1  0  0  0  0
 22 23  2  0  0  0  0
M  CHG  2   3  -1   5   1
M  END
> <PUBCHEM_COMPOUND_CID>
233496

> <PUBCHEM_COMPOUND_CANONICALIZED>
1

> <PUBCHEM_CACTVS_COMPLEXITY>
530

> <PUBCHEM_CACTVS_HBOND_ACCEPTOR>
4

> <PUBCHEM_CACTVS_HBOND_DONOR>
1

> <PUBCHEM_CACTVS_ROTATABLE_BOND>
0

> <PUBCHEM_CACTVS_SUBSKEYS>
AAADceB6OAAAAAAAAAAAAAAAAAAAAYAAAAAwYMAAAAAAAGDBAAAAHgAECAAADwyBmAAyxoAQQgCJAqRSQwCCAAAgIgAgiAEHbIoKJjKSkZOAcABkwFEI2AeYyPCPqAABQAAQEADQAAaAACAgAAAACAAAAA==

> <PUBCHEM_IUPAC_OPENEYE_NAME>
(8R,9S,13S,14S)-3-hydroxy-13-methyl-2-nitro-7,8,9,11,12,14,15,16-octahydro-6H-cyclopenta[a]phenanthren-17-one

> <PUBCHEM_IUPAC_CAS_NAME>
(8R,9S,13S,14S)-3-hydroxy-13-methyl-2-nitro-7,8,9,11,12,14,15,16-octahydro-6H-cyclopenta[a]phenanthren-17-one

> <PUBCHEM_IUPAC_NAME>
(8R,9S,13S,14S)-3-hydroxy-13-methyl-2-nitro-7,8,9,11,12,14,15,16-octahydro-6H-cyclopenta[a]phenanthren-17-one

> <PUBCHEM_IUPAC_SYSTEMATIC_NAME>
(8R,9S,13S,14S)-13-methyl-2-nitro-3-oxidanyl-7,8,9,11,12,14,15,16-octahydro-6H-cyclopenta[a]phenanthren-17-one

> <PUBCHEM_IUPAC_TRADITIONAL_NAME>
(8R,9S,13S,14S)-3-hydroxy-13-methyl-2-nitro-7,8,9,11,12,14,15,16-octahydro-6H-cyclopenta[a]phenanthren-17-one

> <PUBCHEM_IUPAC_INCHI>
InChI=1S/C18H21NO4/c1-18-7-6-11-12(14(18)4-5-17(18)21)3-2-10-8-16(20)15(19(22)23)9-13(10)11/h8-9,11-12,14,20H,2-7H2,1H3/t11-,12+,14-,18-/m0/s1

> <PUBCHEM_IUPAC_INCHIKEY>
CXYPVKBFRMXQDI-JPVZDGGYSA-N

> <PUBCHEM_XLOGP3>
3.5

> <PUBCHEM_EXACT_MASS>
315.147058

> <PUBCHEM_MOLECULAR_FORMULA>
C18H21NO4

> <PUBCHEM_MOLECULAR_WEIGHT>
315.36364

> <PUBCHEM_OPENEYE_CAN_SMILES>
CC12CCC3C(C1CCC2=O)CCC4=CC(=C(C=C34)[N+](=O)[O-])O

> <PUBCHEM_OPENEYE_ISO_SMILES>
C[C@]12CC[C@H]3[C@H]([C@@H]1CCC2=O)CCC4=CC(=C(C=C34)[N+](=O)[O-])O

> <PUBCHEM_CACTVS_TPSA>
83.1

> <PUBCHEM_MONOISOTOPIC_WEIGHT>
315.147058

> <PUBCHEM_TOTAL_CHARGE>
0

> <PUBCHEM_HEAVY_ATOM_COUNT>
23

> <PUBCHEM_ATOM_DEF_STEREO_COUNT>
4

> <PUBCHEM_ATOM_UDEF_STEREO_COUNT>
0

> <PUBCHEM_BOND_DEF_STEREO_COUNT>
0

> <PUBCHEM_BOND_UDEF_STEREO_COUNT>
0

> <PUBCHEM_ISOTOPIC_ATOM_COUNT>
0

> <PUBCHEM_COMPONENT_COUNT>
1

> <PUBCHEM_CACTVS_TAUTO_COUNT>
24

> <PUBCHEM_COORDINATE_TYPE>
1
5
255

> <PUBCHEM_BONDANNOTATIONS>
16  19  8
16  20  8
19  21  8
20  22  8
21  23  8
22  23  8
6  24  6
7  17  5
8  25  5
9  26  6

$$$$

