13878
  -OEChem-07051212513D

 19 19  0     0  0  0  0  0  0999 V2000
   -1.7407   -2.7936   -0.0023 Cl  0  0  0  0  0  0  0  0  0  0  0  0
    1.8658    0.5932    0.0105 N   0  0  0  0  0  0  0  0  0  0  0  0
   -0.3479    1.3685    0.0034 N   0  0  0  0  0  0  0  0  0  0  0  0
    0.1303   -0.9829    0.0030 N   0  0  0  0  0  0  0  0  0  0  0  0
   -2.1452   -0.2213   -0.0045 N   0  0  0  0  0  0  0  0  0  0  0  0
   -2.5822    2.0820   -0.0040 N   0  0  0  0  0  0  0  0  0  0  0  0
    2.8888   -0.4145    0.0131 C   0  0  0  0  0  0  0  0  0  0  0  0
    0.5033    0.3173    0.0053 C   0  0  0  0  0  0  0  0  0  0  0  0
    4.2728    0.1999   -0.0207 C   0  0  0  0  0  0  0  0  0  0  0  0
   -1.6461    1.0253   -0.0016 C   0  0  0  0  0  0  0  0  0  0  0  0
   -1.1989   -1.1739   -0.0021 C   0  0  0  0  0  0  0  0  0  0  0  0
    2.7987   -1.0372    0.9109 H   0  0  0  0  0  0  0  0  0  0  0  0
    2.7735   -1.0690   -0.8588 H   0  0  0  0  0  0  0  0  0  0  0  0
    2.1290    1.5722    0.0153 H   0  0  0  0  0  0  0  0  0  0  0  0
    4.4089    0.8118   -0.9187 H   0  0  0  0  0  0  0  0  0  0  0  0
    4.4379    0.8437    0.8498 H   0  0  0  0  0  0  0  0  0  0  0  0
    5.0395   -0.5811   -0.0192 H   0  0  0  0  0  0  0  0  0  0  0  0
   -2.2531    3.0376   -0.0014 H   0  0  0  0  0  0  0  0  0  0  0  0
   -3.5704    1.8707   -0.0073 H   0  0  0  0  0  0  0  0  0  0  0  0
  1 11  1  0  0  0  0
  2  7  1  0  0  0  0
  2  8  1  0  0  0  0
  2 14  1  0  0  0  0
  3  8  1  0  0  0  0
  3 10  2  0  0  0  0
  4  8  2  0  0  0  0
  4 11  1  0  0  0  0
  5 10  1  0  0  0  0
  5 11  2  0  0  0  0
  6 10  1  0  0  0  0
  6 18  1  0  0  0  0
  6 19  1  0  0  0  0
  7  9  1  0  0  0  0
  7 12  1  0  0  0  0
  7 13  1  0  0  0  0
  9 15  1  0  0  0  0
  9 16  1  0  0  0  0
  9 17  1  0  0  0  0
M  END
> <PUBCHEM_COMPOUND_CID>
13878

> <PUBCHEM_CONFORMER_RMSD>
0.4

> <PUBCHEM_CONFORMER_DIVERSEORDER>
1
7
4
5
3
6
8
2

> <PUBCHEM_MMFF94_PARTIAL_CHARGES>
13
1 -0.18
10 0.72
11 0.8
14 0.4
18 0.4
19 0.4
2 -0.87
3 -0.62
4 -0.62
5 -0.62
6 -0.9
7 0.37
8 0.72

> <PUBCHEM_EFFECTIVE_ROTOR_COUNT>
2

> <PUBCHEM_PHARMACOPHORE_FEATURES>
5
1 2 donor
1 6 donor
4 2 3 4 8 cation
4 3 5 6 10 cation
6 3 4 5 8 10 11 rings

> <PUBCHEM_HEAVY_ATOM_COUNT>
11

> <PUBCHEM_ATOM_DEF_STEREO_COUNT>
0

> <PUBCHEM_ATOM_UDEF_STEREO_COUNT>
0

> <PUBCHEM_BOND_DEF_STEREO_COUNT>
0

> <PUBCHEM_BOND_UDEF_STEREO_COUNT>
0

> <PUBCHEM_ISOTOPIC_ATOM_COUNT>
0

> <PUBCHEM_COMPONENT_COUNT>
1

> <PUBCHEM_CACTVS_TAUTO_COUNT>
9

> <PUBCHEM_CONFORMER_ID>
0000363600000001

> <PUBCHEM_MMFF94_ENERGY>
25.3773

> <PUBCHEM_FEATURE_SELFOVERLAP>
25.414

> <PUBCHEM_SHAPE_FINGERPRINT>
12716758 59 18408328795434885474
13024252 1 14836124364215474029
13380535 76 18263365943902464487
14325111 11 18338799021842793760
15669948 3 18411986845177986690
16945 1 18410856538265238355
20524608 308 18407759244085328382
20871998 184 18187923924315069478
21040471 1 18338517555292448417
23402539 116 18334868203501823503
23552423 10 18129101108975202054
23559900 14 18261394494933791666
3071541 12 17328300758600867717
366044 4 18339363079955838761
6333449 129 18408888451101008708
75552 356 18410855447591400126

> <PUBCHEM_SHAPE_MULTIPOLES>
203.34
5.2
2.28
0.58
6.86
0.81
0
-0.07
0.03
-2.78
0
0.02
0.04
0

> <PUBCHEM_SHAPE_SELFOVERLAP>
400.318

> <PUBCHEM_SHAPE_VOLUME>
119.5

> <PUBCHEM_COORDINATE_TYPE>
2
5
10

$$$$

