14362
  -OEChem-06241222432D

 32 32  0     1  0  0  0  0  0999 V2000
    3.1133    2.6946    0.0000 Br  0  0  0  0  0  0  0  0  0  0  0  0
    5.9378    0.2010    0.0000 O   0  0  0  0  0  0  0  0  0  0  0  0
    2.3549   -0.4727    0.0000 O   0  0  0  0  0  0  0  0  0  0  0  0
    4.2057   -2.7990    0.0000 O   0  0  0  0  0  0  0  0  0  0  0  0
    5.0718   -1.2990    0.0000 N   0  0  0  0  0  0  0  0  0  0  0  0
    3.3397   -1.2990    0.0000 N   0  0  0  0  0  0  0  0  0  0  0  0
    4.2057    0.2010    0.0000 C   0  0  0  0  0  0  0  0  0  0  0  0
    4.7057    1.0670    0.0000 C   0  0  3  0  0  0  0  0  0  0  0  0
    3.7057    1.0670    0.0000 C   0  0  0  0  0  0  0  0  0  0  0  0
    4.2057    1.9330    0.0000 C   0  0  0  0  0  0  0  0  0  0  0  0
    5.0718   -0.2990    0.0000 C   0  0  0  0  0  0  0  0  0  0  0  0
    3.3397   -0.2990    0.0000 C   0  0  0  0  0  0  0  0  0  0  0  0
    5.7057    1.0670    0.0000 C   0  0  0  0  0  0  0  0  0  0  0  0
    4.7057    2.7990    0.0000 C   0  0  0  0  0  0  0  0  0  0  0  0
    2.9398    1.7098    0.0000 C   0  0  0  0  0  0  0  0  0  0  0  0
    4.2057   -1.7990    0.0000 C   0  0  0  0  0  0  0  0  0  0  0  0
    2.0000    1.3678    0.0000 C   0  0  0  0  0  0  0  0  0  0  0  0
    5.0157    0.5301    0.0000 H   0  0  0  0  0  0  0  0  0  0  0  0
    4.3215    1.1389    0.0000 H   0  0  0  0  0  0  0  0  0  0  0  0
    3.2308    0.6685    0.0000 H   0  0  0  0  0  0  0  0  0  0  0  0
    3.7308    2.3315    0.0000 H   0  0  0  0  0  0  0  0  0  0  0  0
    3.7308    1.5345    0.0000 H   0  0  0  0  0  0  0  0  0  0  0  0
    5.7057    0.4470    0.0000 H   0  0  0  0  0  0  0  0  0  0  0  0
    6.3257    1.0670    0.0000 H   0  0  0  0  0  0  0  0  0  0  0  0
    5.7057    1.6870    0.0000 H   0  0  0  0  0  0  0  0  0  0  0  0
    5.2427    2.4890    0.0000 H   0  0  0  0  0  0  0  0  0  0  0  0
    5.0157    3.3360    0.0000 H   0  0  0  0  0  0  0  0  0  0  0  0
    4.1688    3.1090    0.0000 H   0  0  0  0  0  0  0  0  0  0  0  0
    5.6087   -1.6090    0.0000 H   0  0  0  0  0  0  0  0  0  0  0  0
    2.8028   -1.6090    0.0000 H   0  0  0  0  0  0  0  0  0  0  0  0
    1.5250    1.7663    0.0000 H   0  0  0  0  0  0  0  0  0  0  0  0
    1.8924    0.7572    0.0000 H   0  0  0  0  0  0  0  0  0  0  0  0
  1 15  1  0  0  0  0
  2 11  2  0  0  0  0
  3 12  2  0  0  0  0
  4 16  2  0  0  0  0
  5 11  1  0  0  0  0
  5 16  1  0  0  0  0
  5 29  1  0  0  0  0
  6 12  1  0  0  0  0
  6 16  1  0  0  0  0
  6 30  1  0  0  0  0
  7  8  1  0  0  0  0
  7  9  1  0  0  0  0
  7 11  1  0  0  0  0
  7 12  1  0  0  0  0
  8 10  1  0  0  0  0
  8 13  1  0  0  0  0
  8 18  1  0  0  0  0
  9 15  1  0  0  0  0
  9 19  1  0  0  0  0
  9 20  1  0  0  0  0
 10 14  1  0  0  0  0
 10 21  1  0  0  0  0
 10 22  1  0  0  0  0
 13 23  1  0  0  0  0
 13 24  1  0  0  0  0
 13 25  1  0  0  0  0
 14 26  1  0  0  0  0
 14 27  1  0  0  0  0
 14 28  1  0  0  0  0
 15 17  2  0  0  0  0
 17 31  1  0  0  0  0
 17 32  1  0  0  0  0
M  END
> <PUBCHEM_COMPOUND_CID>
14362

> <PUBCHEM_COMPOUND_CANONICALIZED>
1

> <PUBCHEM_CACTVS_COMPLEXITY>
372

> <PUBCHEM_CACTVS_HBOND_ACCEPTOR>
3

> <PUBCHEM_CACTVS_HBOND_DONOR>
2

> <PUBCHEM_CACTVS_ROTATABLE_BOND>
4

> <PUBCHEM_CACTVS_SUBSKEYS>
AAADccBzMAAAEAAAAAAAAAAAAAAAAAAAAAAsAAAAAAAAAAAAAAAAHgBQAAABjwCBgAADAALAAACIAAFSEAAAAAAgAAAAAAEAACiAABoIwQAEAAAIhSIAAAEYAAAPgAAAAAAAAAAAAAAAAAAAAAAAAAAAAA==

> <PUBCHEM_IUPAC_OPENEYE_NAME>
5-(2-bromoallyl)-5-sec-butyl-hexahydropyrimidine-2,4,6-trione

> <PUBCHEM_IUPAC_CAS_NAME>
5-(2-bromoprop-2-enyl)-5-butan-2-yl-1,3-diazinane-2,4,6-trione

> <PUBCHEM_IUPAC_NAME>
5-(2-bromoprop-2-enyl)-5-butan-2-yl-1,3-diazinane-2,4,6-trione

> <PUBCHEM_IUPAC_SYSTEMATIC_NAME>
5-(2-bromanylprop-2-enyl)-5-butan-2-yl-1,3-diazinane-2,4,6-trione

> <PUBCHEM_IUPAC_TRADITIONAL_NAME>
5-(2-bromoallyl)-5-sec-butyl-barbituric acid

> <PUBCHEM_IUPAC_INCHI>
InChI=1S/C11H15BrN2O3/c1-4-6(2)11(5-7(3)12)8(15)13-10(17)14-9(11)16/h6H,3-5H2,1-2H3,(H2,13,14,15,16,17)

> <PUBCHEM_IUPAC_INCHIKEY>
FWZMBTIUIQUJFF-UHFFFAOYSA-N

> <PUBCHEM_XLOGP3>
1.9

> <PUBCHEM_EXACT_MASS>
302.026604

> <PUBCHEM_MOLECULAR_FORMULA>
C11H15BrN2O3

> <PUBCHEM_MOLECULAR_WEIGHT>
303.1524

> <PUBCHEM_OPENEYE_CAN_SMILES>
CCC(C)C1(C(=O)NC(=O)NC1=O)CC(=C)Br

> <PUBCHEM_OPENEYE_ISO_SMILES>
CCC(C)C1(C(=O)NC(=O)NC1=O)CC(=C)Br

> <PUBCHEM_CACTVS_TPSA>
75.3

> <PUBCHEM_MONOISOTOPIC_WEIGHT>
302.026604

> <PUBCHEM_TOTAL_CHARGE>
0

> <PUBCHEM_HEAVY_ATOM_COUNT>
17

> <PUBCHEM_ATOM_DEF_STEREO_COUNT>
0

> <PUBCHEM_ATOM_UDEF_STEREO_COUNT>
1

> <PUBCHEM_BOND_DEF_STEREO_COUNT>
0

> <PUBCHEM_BOND_UDEF_STEREO_COUNT>
0

> <PUBCHEM_ISOTOPIC_ATOM_COUNT>
0

> <PUBCHEM_COMPONENT_COUNT>
1

> <PUBCHEM_CACTVS_TAUTO_COUNT>
5

> <PUBCHEM_COORDINATE_TYPE>
1
5
255

> <PUBCHEM_BONDANNOTATIONS>
8  13  3

$$$$

