46173911
  -OEChem-07051213103D

 54 57  0     1  0  0  0  0  0999 V2000
    1.8895   -0.5224   -0.7014 O   0  0  0  0  0  0  0  0  0  0  0  0
    0.2732   -1.2362    0.8430 O   0  0  0  0  0  0  0  0  0  0  0  0
    4.6858   -3.1668    0.8277 O   0  0  0  0  0  0  0  0  0  0  0  0
    2.8853   -1.3157    1.8353 O   0  0  0  0  0  0  0  0  0  0  0  0
    5.0719   -2.0372   -1.7738 O   0  0  0  0  0  0  0  0  0  0  0  0
   -2.1554    1.3695   -0.0987 O   0  0  0  0  0  0  0  0  0  0  0  0
   -1.9676   -2.6841    0.5132 O   0  0  0  0  0  0  0  0  0  0  0  0
   -4.5669   -2.8383    0.2052 O   0  0  0  0  0  0  0  0  0  0  0  0
   -6.8607    1.2301   -0.6377 O   0  0  0  0  0  0  0  0  0  0  0  0
    3.1165    2.7699    2.1509 O   0  0  0  0  0  0  0  0  0  0  0  0
    3.3809    4.1414   -0.2521 O   0  0  0  0  0  0  0  0  0  0  0  0
    3.6168   -2.7024    0.0074 C   0  0  1  0  0  0  0  0  0  0  0  0
    2.4336   -2.2782    0.8770 C   0  0  2  0  0  0  0  0  0  0  0  0
    4.1086   -1.5342   -0.8512 C   0  0  2  0  0  0  0  0  0  0  0  0
    1.3513   -1.6424    0.0053 C   0  0  2  0  0  0  0  0  0  0  0  0
    2.9357   -0.8926   -1.6054 C   0  0  2  0  0  0  0  0  0  0  0  0
   -0.7743   -0.6435    0.0895 C   0  0  2  0  0  0  0  0  0  0  0  0
   -1.0622    0.7655    0.6108 C   0  0  1  0  0  0  0  0  0  0  0  0
    3.3550    0.3718   -2.3491 C   0  0  0  0  0  0  0  0  0  0  0  0
   -2.0194   -1.4869    0.2561 C   0  0  0  0  0  0  0  0  0  0  0  0
    0.1145    1.6590    0.3857 C   0  0  0  0  0  0  0  0  0  0  0  0
   -3.3000   -0.7791    0.0609 C   0  0  0  0  0  0  0  0  0  0  0  0
   -3.2917    0.6058   -0.1210 C   0  0  0  0  0  0  0  0  0  0  0  0
   -4.5035   -1.4888    0.0302 C   0  0  0  0  0  0  0  0  0  0  0  0
    1.0801    1.8048    1.3818 C   0  0  0  0  0  0  0  0  0  0  0  0
    0.2475    2.3465   -0.8206 C   0  0  0  0  0  0  0  0  0  0  0  0
   -4.4897    1.2781   -0.3695 C   0  0  0  0  0  0  0  0  0  0  0  0
   -5.6994   -0.8082   -0.2005 C   0  0  0  0  0  0  0  0  0  0  0  0
   -5.6924    0.5716   -0.4046 C   0  0  0  0  0  0  0  0  0  0  0  0
    2.1789    2.6378    1.1713 C   0  0  0  0  0  0  0  0  0  0  0  0
    1.3463    3.1797   -1.0309 C   0  0  0  0  0  0  0  0  0  0  0  0
    2.3120    3.3253   -0.0350 C   0  0  0  0  0  0  0  0  0  0  0  0
    3.3245   -3.5391   -0.6393 H   0  0  0  0  0  0  0  0  0  0  0  0
    2.0405   -3.1235    1.4511 H   0  0  0  0  0  0  0  0  0  0  0  0
    4.6209   -0.7970   -0.2222 H   0  0  0  0  0  0  0  0  0  0  0  0
    0.9731   -2.3819   -0.7137 H   0  0  0  0  0  0  0  0  0  0  0  0
    2.5299   -1.5926   -2.3477 H   0  0  0  0  0  0  0  0  0  0  0  0
   -0.5689   -0.6307   -0.9912 H   0  0  0  0  0  0  0  0  0  0  0  0
   -1.3113    0.7565    1.6818 H   0  0  0  0  0  0  0  0  0  0  0  0
    3.7569    1.1177   -1.6557 H   0  0  0  0  0  0  0  0  0  0  0  0
    2.4922    0.8275   -2.8461 H   0  0  0  0  0  0  0  0  0  0  0  0
    4.1155    0.1563   -3.1055 H   0  0  0  0  0  0  0  0  0  0  0  0
    4.3424   -3.8984    1.3686 H   0  0  0  0  0  0  0  0  0  0  0  0
    3.0573   -0.4795    1.3708 H   0  0  0  0  0  0  0  0  0  0  0  0
    4.6247   -2.6703   -2.3609 H   0  0  0  0  0  0  0  0  0  0  0  0
    0.9769    1.2676    2.3216 H   0  0  0  0  0  0  0  0  0  0  0  0
   -0.4767    2.2390   -1.6235 H   0  0  0  0  0  0  0  0  0  0  0  0
   -4.4820    2.3542   -0.5259 H   0  0  0  0  0  0  0  0  0  0  0  0
   -6.6394   -1.3542   -0.2287 H   0  0  0  0  0  0  0  0  0  0  0  0
    1.4408    3.7052   -1.9774 H   0  0  0  0  0  0  0  0  0  0  0  0
   -3.6822   -3.2032    0.3596 H   0  0  0  0  0  0  0  0  0  0  0  0
   -6.6712    2.1767   -0.7563 H   0  0  0  0  0  0  0  0  0  0  0  0
    2.8619    2.2178    2.9101 H   0  0  0  0  0  0  0  0  0  0  0  0
    3.3073    4.5297   -1.1408 H   0  0  0  0  0  0  0  0  0  0  0  0
  1 15  1  0  0  0  0
  1 16  1  0  0  0  0
  2 15  1  0  0  0  0
  2 17  1  0  0  0  0
  3 12  1  0  0  0  0
  3 43  1  0  0  0  0
  4 13  1  0  0  0  0
  4 44  1  0  0  0  0
  5 14  1  0  0  0  0
  5 45  1  0  0  0  0
  6 18  1  0  0  0  0
  6 23  1  0  0  0  0
  7 20  2  0  0  0  0
  8 24  1  0  0  0  0
  8 51  1  0  0  0  0
  9 29  1  0  0  0  0
  9 52  1  0  0  0  0
 10 30  1  0  0  0  0
 10 53  1  0  0  0  0
 11 32  1  0  0  0  0
 11 54  1  0  0  0  0
 12 13  1  0  0  0  0
 12 14  1  0  0  0  0
 12 33  1  0  0  0  0
 13 15  1  0  0  0  0
 13 34  1  0  0  0  0
 14 16  1  0  0  0  0
 14 35  1  0  0  0  0
 15 36  1  0  0  0  0
 16 19  1  0  0  0  0
 16 37  1  0  0  0  0
 17 18  1  0  0  0  0
 17 20  1  0  0  0  0
 17 38  1  0  0  0  0
 18 21  1  0  0  0  0
 18 39  1  0  0  0  0
 19 40  1  0  0  0  0
 19 41  1  0  0  0  0
 19 42  1  0  0  0  0
 20 22  1  0  0  0  0
 21 25  2  0  0  0  0
 21 26  1  0  0  0  0
 22 23  1  0  0  0  0
 22 24  2  0  0  0  0
 23 27  2  0  0  0  0
 24 28  1  0  0  0  0
 25 30  1  0  0  0  0
 25 46  1  0  0  0  0
 26 31  2  0  0  0  0
 26 47  1  0  0  0  0
 27 29  1  0  0  0  0
 27 48  1  0  0  0  0
 28 29  2  0  0  0  0
 28 49  1  0  0  0  0
 30 32  2  0  0  0  0
 31 32  1  0  0  0  0
 31 50  1  0  0  0  0
M  END
> <PUBCHEM_COMPOUND_CID>
46173911

> <PUBCHEM_CONFORMER_RMSD>
0.8

> <PUBCHEM_CONFORMER_DIVERSEORDER>
1
9
4
8
6
7
5
2
3

> <PUBCHEM_MMFF94_PARTIAL_CHARGES>
43
1 -0.56
10 -0.53
11 -0.53
12 0.28
13 0.28
14 0.28
15 0.56
16 0.28
17 0.34
18 0.42
2 -0.56
20 0.42
21 -0.14
22 0.09
23 0.08
24 0.08
25 -0.15
26 -0.15
27 -0.15
28 -0.15
29 0.08
3 -0.68
30 0.08
31 -0.15
32 0.08
4 -0.68
43 0.4
44 0.4
45 0.4
46 0.15
47 0.15
48 0.15
49 0.15
5 -0.68
50 0.15
51 0.45
52 0.45
53 0.45
54 0.45
6 -0.36
7 -0.57
8 -0.53
9 -0.53

> <PUBCHEM_EFFECTIVE_ROTOR_COUNT>
4.8

> <PUBCHEM_PHARMACOPHORE_FEATURES>
18
1 1 acceptor
1 10 donor
1 11 donor
1 2 acceptor
1 3 acceptor
1 3 donor
1 4 acceptor
1 4 donor
1 5 acceptor
1 5 donor
1 6 acceptor
1 7 acceptor
1 8 donor
1 9 donor
6 1 12 13 14 15 16 rings
6 21 25 26 30 31 32 rings
6 22 23 24 27 28 29 rings
6 6 17 18 20 22 23 rings

> <PUBCHEM_HEAVY_ATOM_COUNT>
32

> <PUBCHEM_ATOM_DEF_STEREO_COUNT>
7

> <PUBCHEM_ATOM_UDEF_STEREO_COUNT>
0

> <PUBCHEM_BOND_DEF_STEREO_COUNT>
0

> <PUBCHEM_BOND_UDEF_STEREO_COUNT>
0

> <PUBCHEM_ISOTOPIC_ATOM_COUNT>
0

> <PUBCHEM_COMPONENT_COUNT>
1

> <PUBCHEM_CACTVS_TAUTO_COUNT>
210

> <PUBCHEM_CONFORMER_ID>
02C08ED700000001

> <PUBCHEM_MMFF94_ENERGY>
95.696

> <PUBCHEM_FEATURE_SELFOVERLAP>
91.444

> <PUBCHEM_SHAPE_FINGERPRINT>
10050765 1 18339644435327605767
10369192 42 17909271282173521413
1100329 8 18118116111947172113
11513181 2 18117560626293451063
11963148 33 17689726264049624391
12156800 1 16054662610219298004
12166972 35 17987513878837156710
12236239 1 17774435104953153567
12422481 6 18048350840738757080
12741549 16 16951704681962005282
12788726 201 17983571102969805762
13140716 1 18410292519719516099
133893 2 18264465348361936192
140371 6 18115863165329251883
14068700 675 18042128815863722017
14347329 18 16628855095867649469
14790565 3 17328861505036483216
14931854 50 18196062548898144148
15439362 3 18340488872082817237
15475509 8 17898837213768584853
15775530 1 17700677489765618619
15927050 60 18120091672132677622
17492 54 18269251548743158732
17492 89 18339928096105664339
1813 80 18041558169064921574
18681886 176 18409447007852214102
19319366 153 17703508912385252307
20028762 73 16749300671330130767
20600515 1 18044377360166088864
20642791 105 17553778638927202484
20642791 239 18128794439910334732
20691752 17 17632305531929045841
20775438 99 18193008014738159143
21133665 82 18050845513123614860
22182313 1 18200335293559028869
22311459 1 18267025141103304363
22393880 68 18338227159811050327
23366157 5 18130230363135464969
23557571 272 17826229885386577614
23559900 14 18410577279781802783
3004659 81 18201432648918173310
3178227 256 18268977856605585785
3298306 158 18045781182858642800
335352 9 18339365283864717247
3411729 13 18262529087137491392
350125 39 18340484595239577541
4093350 32 17458057154052482421
4280585 95 18339929324112272514
460360 51 18410282593696829801
5081480 168 18340777013138441869
5104073 3 18409164386566894963
513532 50 18114182995270969076
6669772 16 18192426369281974612
6823239 73 18407762529729879562
9709674 26 18267867181983578811
9981440 41 17909833128514760057

> <PUBCHEM_SHAPE_MULTIPOLES>
593.98
11.53
4.42
1.46
14.9
2.05
0.12
-4.23
2.77
-5.33
-0.66
-2.22
0.29
0.93

> <PUBCHEM_SHAPE_SELFOVERLAP>
1304.374

> <PUBCHEM_SHAPE_VOLUME>
317.1

> <PUBCHEM_COORDINATE_TYPE>
2
5
10

$$$$

