5281694
  -OEChem-07051212592D

 58 63  0     0  0  0  0  0  0999 V2000
    9.0124    3.6001    0.0000 O   0  0  0  0  0  0  0  0  0  0  0  0
    3.7884   -1.4345    0.0000 O   0  0  0  0  0  0  0  0  0  0  0  0
    7.2525    0.5655    0.0000 O   0  0  0  0  0  0  0  0  0  0  0  0
    5.5204    3.5655    0.0000 O   0  0  0  0  0  0  0  0  0  0  0  0
    4.6544    3.0655    0.0000 O   0  0  0  0  0  0  0  0  0  0  0  0
    9.0009    0.5309    0.0000 O   0  0  0  0  0  0  0  0  0  0  0  0
    5.5422   -4.4660    0.0000 O   0  0  0  0  0  0  0  0  0  0  0  0
    6.3864   -2.9345    0.0000 O   0  0  0  0  0  0  0  0  0  0  0  0
    2.0024   -4.4796    0.0000 O   0  0  0  0  0  0  0  0  0  0  0  0
   13.3749    5.0996    0.0000 O   0  0  0  0  0  0  0  0  0  0  0  0
    6.3864    2.0655    0.0000 C   0  0  0  0  0  0  0  0  0  0  0  0
    5.5204    1.5655    0.0000 C   0  0  0  0  0  0  0  0  0  0  0  0
    8.1185    2.0655    0.0000 C   0  0  0  0  0  0  0  0  0  0  0  0
    7.2525    1.5655    0.0000 C   0  0  0  0  0  0  0  0  0  0  0  0
    8.1185    3.0655    0.0000 C   0  0  0  0  0  0  0  0  0  0  0  0
    4.6544    0.0655    0.0000 C   0  0  0  0  0  0  0  0  0  0  0  0
    6.3864    3.0655    0.0000 C   0  0  0  0  0  0  0  0  0  0  0  0
    5.5204    0.5655    0.0000 C   0  0  0  0  0  0  0  0  0  0  0  0
    7.2525    3.5655    0.0000 C   0  0  0  0  0  0  0  0  0  0  0  0
    4.6544    2.0655    0.0000 C   0  0  0  0  0  0  0  0  0  0  0  0
    4.6544   -0.9345    0.0000 C   0  0  0  0  0  0  0  0  0  0  0  0
    9.0124    1.5308    0.0000 C   0  0  0  0  0  0  0  0  0  0  0  0
    3.7884    0.5655    0.0000 C   0  0  0  0  0  0  0  0  0  0  0  0
    9.9185    3.0863    0.0000 C   0  0  0  0  0  0  0  0  0  0  0  0
    3.7884    1.5655    0.0000 C   0  0  0  0  0  0  0  0  0  0  0  0
    9.9185    2.0447    0.0000 C   0  0  0  0  0  0  0  0  0  0  0  0
    4.6544   -2.9345    0.0000 C   0  0  0  0  0  0  0  0  0  0  0  0
    3.7884   -2.4345    0.0000 C   0  0  0  0  0  0  0  0  0  0  0  0
    5.5204   -1.4345    0.0000 C   0  0  0  0  0  0  0  0  0  0  0  0
   10.7826    3.5896    0.0000 C   0  0  0  0  0  0  0  0  0  0  0  0
    5.5204   -2.4345    0.0000 C   0  0  0  0  0  0  0  0  0  0  0  0
    4.6704   -3.9760    0.0000 C   0  0  0  0  0  0  0  0  0  0  0  0
    2.8784   -2.9414    0.0000 C   0  0  0  0  0  0  0  0  0  0  0  0
    2.8703   -3.9830    0.0000 C   0  0  0  0  0  0  0  0  0  0  0  0
    3.7724   -4.5038    0.0000 C   0  0  0  0  0  0  0  0  0  0  0  0
   11.6505    3.0930    0.0000 C   0  0  0  0  0  0  0  0  0  0  0  0
   10.7787    4.5896    0.0000 C   0  0  0  0  0  0  0  0  0  0  0  0
   12.5146    3.5963    0.0000 C   0  0  0  0  0  0  0  0  0  0  0  0
   11.6428    5.0930    0.0000 C   0  0  0  0  0  0  0  0  0  0  0  0
   12.5108    4.5963    0.0000 C   0  0  0  0  0  0  0  0  0  0  0  0
    6.0573    0.2555    0.0000 H   0  0  0  0  0  0  0  0  0  0  0  0
    7.2525    4.1855    0.0000 H   0  0  0  0  0  0  0  0  0  0  0  0
    3.2514    0.2555    0.0000 H   0  0  0  0  0  0  0  0  0  0  0  0
    3.2514    1.8755    0.0000 H   0  0  0  0  0  0  0  0  0  0  0  0
   10.4542    1.7326    0.0000 H   0  0  0  0  0  0  0  0  0  0  0  0
    6.0573   -1.1245    0.0000 H   0  0  0  0  0  0  0  0  0  0  0  0
    2.3450   -2.6252    0.0000 H   0  0  0  0  0  0  0  0  0  0  0  0
    7.7894    0.2555    0.0000 H   0  0  0  0  0  0  0  0  0  0  0  0
    3.7748   -5.1238    0.0000 H   0  0  0  0  0  0  0  0  0  0  0  0
    5.5204    4.1855    0.0000 H   0  0  0  0  0  0  0  0  0  0  0  0
   11.6529    2.4730    0.0000 H   0  0  0  0  0  0  0  0  0  0  0  0
   10.2406    4.8975    0.0000 H   0  0  0  0  0  0  0  0  0  0  0  0
    4.1175    3.3755    0.0000 H   0  0  0  0  0  0  0  0  0  0  0  0
   13.0528    3.2884    0.0000 H   0  0  0  0  0  0  0  0  0  0  0  0
   11.6404    5.7130    0.0000 H   0  0  0  0  0  0  0  0  0  0  0  0
    5.5494   -5.0860    0.0000 H   0  0  0  0  0  0  0  0  0  0  0  0
    2.0000   -5.0996    0.0000 H   0  0  0  0  0  0  0  0  0  0  0  0
   13.9130    4.7917    0.0000 H   0  0  0  0  0  0  0  0  0  0  0  0
  1 15  1  0  0  0  0
  1 24  1  0  0  0  0
  2 21  1  0  0  0  0
  2 28  1  0  0  0  0
  3 14  1  0  0  0  0
  3 48  1  0  0  0  0
  4 17  1  0  0  0  0
  4 50  1  0  0  0  0
  5 20  1  0  0  0  0
  5 53  1  0  0  0  0
  6 22  2  0  0  0  0
  7 32  1  0  0  0  0
  7 56  1  0  0  0  0
  8 31  2  0  0  0  0
  9 34  1  0  0  0  0
  9 57  1  0  0  0  0
 10 40  1  0  0  0  0
 10 58  1  0  0  0  0
 11 12  1  0  0  0  0
 11 14  2  0  0  0  0
 11 17  1  0  0  0  0
 12 18  1  0  0  0  0
 12 20  2  0  0  0  0
 13 14  1  0  0  0  0
 13 15  2  0  0  0  0
 13 22  1  0  0  0  0
 15 19  1  0  0  0  0
 16 18  2  0  0  0  0
 16 21  1  0  0  0  0
 16 23  1  0  0  0  0
 17 19  2  0  0  0  0
 18 41  1  0  0  0  0
 19 42  1  0  0  0  0
 20 25  1  0  0  0  0
 21 29  2  0  0  0  0
 22 26  1  0  0  0  0
 23 25  2  0  0  0  0
 23 43  1  0  0  0  0
 24 26  2  0  0  0  0
 24 30  1  0  0  0  0
 25 44  1  0  0  0  0
 26 45  1  0  0  0  0
 27 28  1  0  0  0  0
 27 31  1  0  0  0  0
 27 32  2  0  0  0  0
 28 33  2  0  0  0  0
 29 31  1  0  0  0  0
 29 46  1  0  0  0  0
 30 36  2  0  0  0  0
 30 37  1  0  0  0  0
 32 35  1  0  0  0  0
 33 34  1  0  0  0  0
 33 47  1  0  0  0  0
 34 35  2  0  0  0  0
 35 49  1  0  0  0  0
 36 38  1  0  0  0  0
 36 51  1  0  0  0  0
 37 39  2  0  0  0  0
 37 52  1  0  0  0  0
 38 40  2  0  0  0  0
 38 54  1  0  0  0  0
 39 40  1  0  0  0  0
 39 55  1  0  0  0  0
M  END
> <PUBCHEM_COMPOUND_CID>
5281694

> <PUBCHEM_COMPOUND_CANONICALIZED>
1

> <PUBCHEM_CACTVS_COMPLEXITY>
1050

> <PUBCHEM_CACTVS_HBOND_ACCEPTOR>
10

> <PUBCHEM_CACTVS_HBOND_DONOR>
6

> <PUBCHEM_CACTVS_ROTATABLE_BOND>
3

> <PUBCHEM_CACTVS_SUBSKEYS>
AAADceB4PAAAAAAAAAAAAAAAAAAAAAAAAAAwYMGCAAAAAACBVAAAGgAACAAADASAmAAwBoAABgCIAqBSAAACCAAkIAAIiAEGCMgMJzaGNRqCeWCl4BUIuQfI7PzOoAACCAAIAABAAAQQABAAAAAAAAAAAA==

> <PUBCHEM_IUPAC_OPENEYE_NAME>
6-[5-(5,7-dihydroxy-4-oxo-chromen-2-yl)-2-hydroxy-phenyl]-5,7-dihydroxy-2-(4-hydroxyphenyl)chromen-4-one

> <PUBCHEM_IUPAC_CAS_NAME>
6-[5-(5,7-dihydroxy-4-oxo-1-benzopyran-2-yl)-2-hydroxyphenyl]-5,7-dihydroxy-2-(4-hydroxyphenyl)-1-benzopyran-4-one

> <PUBCHEM_IUPAC_NAME>
6-[5-(5,7-dihydroxy-4-oxochromen-2-yl)-2-hydroxyphenyl]-5,7-dihydroxy-2-(4-hydroxyphenyl)chromen-4-one

> <PUBCHEM_IUPAC_SYSTEMATIC_NAME>
6-[5-[5,7-bis(oxidanyl)-4-oxidanylidene-chromen-2-yl]-2-oxidanyl-phenyl]-2-(4-hydroxyphenyl)-5,7-bis(oxidanyl)chromen-4-one

> <PUBCHEM_IUPAC_TRADITIONAL_NAME>
6-[5-(5,7-dihydroxy-4-keto-chromen-2-yl)-2-hydroxy-phenyl]-5,7-dihydroxy-2-(4-hydroxyphenyl)chromone

> <PUBCHEM_IUPAC_INCHI>
InChI=1S/C30H18O10/c31-15-4-1-13(2-5-15)23-11-22(37)29-26(39-23)12-20(35)27(30(29)38)17-7-14(3-6-18(17)33)24-10-21(36)28-19(34)8-16(32)9-25(28)40-24/h1-12,31-35,38H

> <PUBCHEM_IUPAC_INCHIKEY>
BORWSEZUWHQTOK-UHFFFAOYSA-N

> <PUBCHEM_XLOGP3_AA>
5

> <PUBCHEM_EXACT_MASS>
538.089997

> <PUBCHEM_MOLECULAR_FORMULA>
C30H18O10

> <PUBCHEM_MOLECULAR_WEIGHT>
538.45792

> <PUBCHEM_OPENEYE_CAN_SMILES>
C1=CC(=CC=C1C2=CC(=O)C3=C(C(=C(C=C3O2)O)C4=C(C=CC(=C4)C5=CC(=O)C6=C(C=C(C=C6O5)O)O)O)O)O

> <PUBCHEM_OPENEYE_ISO_SMILES>
C1=CC(=CC=C1C2=CC(=O)C3=C(C(=C(C=C3O2)O)C4=C(C=CC(=C4)C5=CC(=O)C6=C(C=C(C=C6O5)O)O)O)O)O

> <PUBCHEM_CACTVS_TPSA>
174

> <PUBCHEM_MONOISOTOPIC_WEIGHT>
538.089997

> <PUBCHEM_TOTAL_CHARGE>
0

> <PUBCHEM_HEAVY_ATOM_COUNT>
40

> <PUBCHEM_ATOM_DEF_STEREO_COUNT>
0

> <PUBCHEM_ATOM_UDEF_STEREO_COUNT>
0

> <PUBCHEM_BOND_DEF_STEREO_COUNT>
0

> <PUBCHEM_BOND_UDEF_STEREO_COUNT>
0

> <PUBCHEM_ISOTOPIC_ATOM_COUNT>
0

> <PUBCHEM_COMPONENT_COUNT>
1

> <PUBCHEM_CACTVS_TAUTO_COUNT>
994

> <PUBCHEM_COORDINATE_TYPE>
1
5
255

> <PUBCHEM_BONDANNOTATIONS>
1  15  8
1  24  8
11  14  8
11  17  8
12  18  8
12  20  8
13  14  8
13  15  8
13  22  8
15  19  8
16  18  8
16  23  8
17  19  8
2  21  8
2  28  8
20  25  8
21  29  8
22  26  8
23  25  8
24  26  8
27  28  8
27  31  8
27  32  8
28  33  8
29  31  8
30  36  8
30  37  8
32  35  8
33  34  8
34  35  8
36  38  8
37  39  8
38  40  8
39  40  8

$$$$

