440908
  -OEChem-07051212513D

 42 45  0     1  0  0  0  0  0999 V2000
   -0.9802   -1.5773   -1.9927 O   0  0  0  0  0  0  0  0  0  0  0  0
   -0.2510    1.2970   -1.3744 O   0  0  0  0  0  0  0  0  0  0  0  0
   -3.4318   -0.1437    1.3740 O   0  0  0  0  0  0  0  0  0  0  0  0
   -2.2826    2.6799   -0.0293 O   0  0  0  0  0  0  0  0  0  0  0  0
    1.4492   -2.4049    0.5154 O   0  0  0  0  0  0  0  0  0  0  0  0
   -0.1900    0.8290    2.6463 O   0  0  0  0  0  0  0  0  0  0  0  0
    3.7841   -1.2551    0.0939 O   0  0  0  0  0  0  0  0  0  0  0  0
   -1.1913   -0.7241    0.4062 C   0  0  1  0  0  0  0  0  0  0  0  0
   -1.5474   -0.6636   -1.0660 C   0  0  1  0  0  0  0  0  0  0  0  0
    0.3303   -0.2052    0.5565 C   0  0  2  0  0  0  0  0  0  0  0  0
   -1.5840    0.7799   -1.4115 C   0  0  1  0  0  0  0  0  0  0  0  0
   -2.1888    0.4020    0.9339 C   0  0  1  0  0  0  0  0  0  0  0  0
   -2.4033   -1.6671   -1.8080 C   0  0  0  0  0  0  0  0  0  0  0  0
   -2.4953    1.3068   -0.2920 C   0  0  1  0  0  0  0  0  0  0  0  0
    0.4407    1.2066   -0.1179 C   0  0  1  0  0  0  0  0  0  0  0  0
   -1.4598   -2.0894    1.0494 C   0  0  0  0  0  0  0  0  0  0  0  0
    1.3820   -1.1386   -0.1204 C   0  0  1  0  0  0  0  0  0  0  0  0
    0.7083   -0.0820    2.0646 C   0  0  0  0  0  0  0  0  0  0  0  0
    1.8468    1.6679   -0.3873 C   0  0  0  0  0  0  0  0  0  0  0  0
    2.7908   -0.5533   -0.0932 C   0  0  0  0  0  0  0  0  0  0  0  0
    2.9464    0.9035   -0.3604 C   0  0  0  0  0  0  0  0  0  0  0  0
    4.3270    1.4317   -0.5868 C   0  0  0  0  0  0  0  0  0  0  0  0
   -1.9992    0.9928   -2.4013 H   0  0  0  0  0  0  0  0  0  0  0  0
   -1.8996    1.0383    1.7512 H   0  0  0  0  0  0  0  0  0  0  0  0
   -2.7797   -2.5459   -1.3046 H   0  0  0  0  0  0  0  0  0  0  0  0
   -3.0311   -1.3159   -2.6176 H   0  0  0  0  0  0  0  0  0  0  0  0
   -3.5452    1.1847   -0.5885 H   0  0  0  0  0  0  0  0  0  0  0  0
    0.0115    1.9741    0.5323 H   0  0  0  0  0  0  0  0  0  0  0  0
   -1.2270   -2.0912    2.1174 H   0  0  0  0  0  0  0  0  0  0  0  0
   -2.5125   -2.3801    0.9611 H   0  0  0  0  0  0  0  0  0  0  0  0
   -0.8943   -2.8898    0.5656 H   0  0  0  0  0  0  0  0  0  0  0  0
    1.1639   -1.3117   -1.1757 H   0  0  0  0  0  0  0  0  0  0  0  0
    1.7288    0.2798    2.2261 H   0  0  0  0  0  0  0  0  0  0  0  0
    0.6151   -1.0305    2.5983 H   0  0  0  0  0  0  0  0  0  0  0  0
    1.9565    2.7290   -0.6045 H   0  0  0  0  0  0  0  0  0  0  0  0
   -4.0131    0.5979    1.6147 H   0  0  0  0  0  0  0  0  0  0  0  0
   -2.4012    3.1592   -0.8668 H   0  0  0  0  0  0  0  0  0  0  0  0
    1.8251   -2.2913    1.4037 H   0  0  0  0  0  0  0  0  0  0  0  0
    0.2370    1.7025    2.6624 H   0  0  0  0  0  0  0  0  0  0  0  0
    4.9493    1.2688    0.2992 H   0  0  0  0  0  0  0  0  0  0  0  0
    4.3249    2.5062   -0.7983 H   0  0  0  0  0  0  0  0  0  0  0  0
    4.7944    0.9269   -1.4385 H   0  0  0  0  0  0  0  0  0  0  0  0
  1  9  1  0  0  0  0
  1 13  1  0  0  0  0
  2 11  1  0  0  0  0
  2 15  1  0  0  0  0
  3 12  1  0  0  0  0
  3 36  1  0  0  0  0
  4 14  1  0  0  0  0
  4 37  1  0  0  0  0
  5 17  1  0  0  0  0
  5 38  1  0  0  0  0
  6 18  1  0  0  0  0
  6 39  1  0  0  0  0
  7 20  2  0  0  0  0
  8  9  1  0  0  0  0
  8 10  1  0  0  0  0
  8 12  1  0  0  0  0
  8 16  1  0  0  0  0
  9 11  1  0  0  0  0
  9 13  1  0  0  0  0
 10 15  1  0  0  0  0
 10 17  1  0  0  0  0
 10 18  1  0  0  0  0
 11 14  1  0  0  0  0
 11 23  1  0  0  0  0
 12 14  1  0  0  0  0
 12 24  1  0  0  0  0
 13 25  1  0  0  0  0
 13 26  1  0  0  0  0
 14 27  1  0  0  0  0
 15 19  1  0  0  0  0
 15 28  1  0  0  0  0
 16 29  1  0  0  0  0
 16 30  1  0  0  0  0
 16 31  1  0  0  0  0
 17 20  1  0  0  0  0
 17 32  1  0  0  0  0
 18 33  1  0  0  0  0
 18 34  1  0  0  0  0
 19 21  2  0  0  0  0
 19 35  1  0  0  0  0
 20 21  1  0  0  0  0
 21 22  1  0  0  0  0
 22 40  1  0  0  0  0
 22 41  1  0  0  0  0
 22 42  1  0  0  0  0
M  END
> <PUBCHEM_COMPOUND_CID>
440908

> <PUBCHEM_CONFORMER_RMSD>
0.6

> <PUBCHEM_CONFORMER_DIVERSEORDER>
1

> <PUBCHEM_MMFF94_PARTIAL_CHARGES>
27
1 -0.3
11 0.38
12 0.28
13 -0.05
14 0.28
15 0.42
17 0.34
18 0.28
19 -0.29
2 -0.56
20 0.49
21 -0.12
22 0.14
25 0.1
26 0.1
3 -0.68
35 0.15
36 0.4
37 0.4
38 0.4
39 0.4
4 -0.68
5 -0.68
6 -0.68
7 -0.57
8 0.09
9 -0.04

> <PUBCHEM_EFFECTIVE_ROTOR_COUNT>
2.2

> <PUBCHEM_PHARMACOPHORE_FEATURES>
13
1 1 acceptor
1 2 acceptor
1 3 acceptor
1 3 donor
1 4 acceptor
1 4 donor
1 5 acceptor
1 5 donor
1 6 acceptor
1 6 donor
1 7 acceptor
6 10 15 17 19 20 21 rings
8 2 8 9 10 11 12 14 15 rings

> <PUBCHEM_HEAVY_ATOM_COUNT>
22

> <PUBCHEM_ATOM_DEF_STEREO_COUNT>
8

> <PUBCHEM_ATOM_UDEF_STEREO_COUNT>
0

> <PUBCHEM_BOND_DEF_STEREO_COUNT>
0

> <PUBCHEM_BOND_UDEF_STEREO_COUNT>
0

> <PUBCHEM_ISOTOPIC_ATOM_COUNT>
0

> <PUBCHEM_COMPONENT_COUNT>
1

> <PUBCHEM_CACTVS_TAUTO_COUNT>
8

> <PUBCHEM_CONFORMER_ID>
0006BA4C00000001

> <PUBCHEM_MMFF94_ENERGY>
100.1769

> <PUBCHEM_FEATURE_SELFOVERLAP>
65.989

> <PUBCHEM_SHAPE_FINGERPRINT>
10062212 137 18270977842043776226
10863032 1 18129372873020352553
10948715 1 18268991071402712693
11578080 2 17897478087994383928
12173636 292 18272081686755561598
12403814 3 18410289194734340177
12423570 1 15020808623753004269
12491281 212 18409731780883240564
12808571 1 18123198063063837413
13024252 1 11311789345070224941
13140716 1 17625247624903716616
13299463 15 18118421565145365222
13538477 17 17603579725337932690
14115302 16 17822863094661175402
144361 1 18267608860605705951
14614273 12 15769785632282663795
16945 1 18271225158771087265
18186145 218 16917352562949882998
18981168 100 17274276074212597569
20525323 117 18342182150243643924
20600515 1 15264785323212776139
21501502 16 18341339945953944436
23419403 2 16165527058831542906
23559900 14 17346605184358386000
2748010 2 17916865849667398253
3286 77 17774993609525200826
528886 8 18342175523114277056
5845 1 15326525443601344187
90525 40 18188211021350846367

> <PUBCHEM_SHAPE_MULTIPOLES>
411.66
5.16
2.24
1.81
4.21
0.02
-0.44
-0.74
0.72
-0.27
0.2
-1.09
0.27
-0.51

> <PUBCHEM_SHAPE_SELFOVERLAP>
901.31

> <PUBCHEM_SHAPE_VOLUME>
217.2

> <PUBCHEM_COORDINATE_TYPE>
2
5
10

$$$$

