443337
  -OEChem-07051213023D

 49 51  0     1  0  0  0  0  0999 V2000
   -0.0624   -1.1220    0.2674 O   0  0  0  0  0  0  0  0  0  0  0  0
   -1.2135    0.4469    1.5311 O   0  0  0  0  0  0  0  0  0  0  0  0
    1.3554    0.5791   -0.4678 O   0  0  0  0  0  0  0  0  0  0  0  0
    2.1212   -2.3384    1.5941 O   0  0  0  0  0  0  0  0  0  0  0  0
    4.6907   -1.6886    0.3070 O   0  0  0  0  0  0  0  0  0  0  0  0
    4.9468    1.1676   -0.0567 O   0  0  0  0  0  0  0  0  0  0  0  0
    1.4231    3.2421   -1.1459 O   0  0  0  0  0  0  0  0  0  0  0  0
   -2.4591   -1.0529    0.0138 C   0  0  1  0  0  0  0  0  0  0  0  0
   -3.7086   -0.1637    0.1480 C   0  0  2  0  0  0  0  0  0  0  0  0
   -2.6422   -1.6320   -1.4016 C   0  0  1  0  0  0  0  0  0  0  0  0
   -3.9218    0.4393   -1.2495 C   0  0  0  0  0  0  0  0  0  0  0  0
   -3.1411   -0.4425   -2.2250 C   0  0  0  0  0  0  0  0  0  0  0  0
   -1.1799   -0.2355    0.2695 C   0  0  2  0  0  0  0  0  0  0  0  0
   -3.5746    0.8649    1.2326 C   0  0  0  0  0  0  0  0  0  0  0  0
   -1.4398   -2.3148   -2.0314 C   0  0  0  0  0  0  0  0  0  0  0  0
    1.1552   -0.4235    0.5258 C   0  0  2  0  0  0  0  0  0  0  0  0
   -2.3943    1.0640    1.8362 C   0  0  0  0  0  0  0  0  0  0  0  0
    2.2962   -1.4405    0.4984 C   0  0  1  0  0  0  0  0  0  0  0  0
    3.6566   -0.7534    0.6176 C   0  0  2  0  0  0  0  0  0  0  0  0
   -4.8129    1.6043    1.6397 C   0  0  0  0  0  0  0  0  0  0  0  0
    3.7714    0.4193   -0.3565 C   0  0  1  0  0  0  0  0  0  0  0  0
    2.5489    1.3341   -0.2518 C   0  0  1  0  0  0  0  0  0  0  0  0
    2.5847    2.4463   -1.2951 C   0  0  0  0  0  0  0  0  0  0  0  0
   -2.4992   -1.8688    0.7485 H   0  0  0  0  0  0  0  0  0  0  0  0
   -4.5620   -0.8158    0.3818 H   0  0  0  0  0  0  0  0  0  0  0  0
   -3.4539   -2.3723   -1.3540 H   0  0  0  0  0  0  0  0  0  0  0  0
   -3.5670    1.4746   -1.3185 H   0  0  0  0  0  0  0  0  0  0  0  0
   -4.9886    0.4485   -1.5012 H   0  0  0  0  0  0  0  0  0  0  0  0
   -3.7665   -0.7674   -3.0631 H   0  0  0  0  0  0  0  0  0  0  0  0
   -2.3042    0.1281   -2.6454 H   0  0  0  0  0  0  0  0  0  0  0  0
   -1.0536    0.5139   -0.5226 H   0  0  0  0  0  0  0  0  0  0  0  0
   -1.7163   -2.7567   -2.9948 H   0  0  0  0  0  0  0  0  0  0  0  0
   -0.6206   -1.6139   -2.2200 H   0  0  0  0  0  0  0  0  0  0  0  0
   -1.0688   -3.1195   -1.3888 H   0  0  0  0  0  0  0  0  0  0  0  0
    1.1041    0.0381    1.5207 H   0  0  0  0  0  0  0  0  0  0  0  0
   -2.2547    1.7399    2.6692 H   0  0  0  0  0  0  0  0  0  0  0  0
    2.2539   -2.0442   -0.4160 H   0  0  0  0  0  0  0  0  0  0  0  0
    3.8347   -0.4264    1.6494 H   0  0  0  0  0  0  0  0  0  0  0  0
    3.8790    0.0350   -1.3783 H   0  0  0  0  0  0  0  0  0  0  0  0
   -5.2102    2.1790    0.7972 H   0  0  0  0  0  0  0  0  0  0  0  0
   -4.6210    2.3052    2.4590 H   0  0  0  0  0  0  0  0  0  0  0  0
   -5.5826    0.9021    1.9755 H   0  0  0  0  0  0  0  0  0  0  0  0
    2.4900    1.8020    0.7404 H   0  0  0  0  0  0  0  0  0  0  0  0
    2.5836    2.0415   -2.3126 H   0  0  0  0  0  0  0  0  0  0  0  0
    3.4609    3.0890   -1.1722 H   0  0  0  0  0  0  0  0  0  0  0  0
    2.1596   -1.8218    2.4170 H   0  0  0  0  0  0  0  0  0  0  0  0
    5.5392   -1.2186    0.3782 H   0  0  0  0  0  0  0  0  0  0  0  0
    4.8571    1.5188    0.8457 H   0  0  0  0  0  0  0  0  0  0  0  0
    0.6515    2.6594   -1.2515 H   0  0  0  0  0  0  0  0  0  0  0  0
  1 13  1  0  0  0  0
  1 16  1  0  0  0  0
  2 13  1  0  0  0  0
  2 17  1  0  0  0  0
  3 16  1  0  0  0  0
  3 22  1  0  0  0  0
  4 18  1  0  0  0  0
  4 46  1  0  0  0  0
  5 19  1  0  0  0  0
  5 47  1  0  0  0  0
  6 21  1  0  0  0  0
  6 48  1  0  0  0  0
  7 23  1  0  0  0  0
  7 49  1  0  0  0  0
  8  9  1  0  0  0  0
  8 10  1  0  0  0  0
  8 13  1  0  0  0  0
  8 24  1  0  0  0  0
  9 11  1  0  0  0  0
  9 14  1  0  0  0  0
  9 25  1  0  0  0  0
 10 12  1  0  0  0  0
 10 15  1  0  0  0  0
 10 26  1  0  0  0  0
 11 12  1  0  0  0  0
 11 27  1  0  0  0  0
 11 28  1  0  0  0  0
 12 29  1  0  0  0  0
 12 30  1  0  0  0  0
 13 31  1  0  0  0  0
 14 17  2  0  0  0  0
 14 20  1  0  0  0  0
 15 32  1  0  0  0  0
 15 33  1  0  0  0  0
 15 34  1  0  0  0  0
 16 18  1  0  0  0  0
 16 35  1  0  0  0  0
 17 36  1  0  0  0  0
 18 19  1  0  0  0  0
 18 37  1  0  0  0  0
 19 21  1  0  0  0  0
 19 38  1  0  0  0  0
 20 40  1  0  0  0  0
 20 41  1  0  0  0  0
 20 42  1  0  0  0  0
 21 22  1  0  0  0  0
 21 39  1  0  0  0  0
 22 23  1  0  0  0  0
 22 43  1  0  0  0  0
 23 44  1  0  0  0  0
 23 45  1  0  0  0  0
M  END
> <PUBCHEM_COMPOUND_CID>
443337

> <PUBCHEM_CONFORMER_RMSD>
0.8

> <PUBCHEM_CONFORMER_DIVERSEORDER>
3
11
34
26
48
35
52
4
27
51
18
20
17
43
41
33
37
54
6
50
46
42
40
47
45
19
55
44
21
7
25
29
15
22
8
16
23
31
14
24
10
13
30
39
12
49
28
5
36
53
32
1
2
38
56
9

> <PUBCHEM_MMFF94_PARTIAL_CHARGES>
23
1 -0.56
13 0.56
14 -0.28
16 0.56
17 -0.07
18 0.28
19 0.28
2 -0.36
20 0.14
21 0.28
22 0.28
23 0.28
3 -0.56
36 0.15
4 -0.68
46 0.4
47 0.4
48 0.4
49 0.4
5 -0.68
6 -0.68
7 -0.68
9 0.14

> <PUBCHEM_EFFECTIVE_ROTOR_COUNT>
5.2

> <PUBCHEM_PHARMACOPHORE_FEATURES>
14
1 1 acceptor
1 2 acceptor
1 3 acceptor
1 4 acceptor
1 4 donor
1 5 acceptor
1 5 donor
1 6 acceptor
1 6 donor
1 7 acceptor
1 7 donor
5 8 9 10 11 12 rings
6 2 8 9 13 14 17 rings
6 3 16 18 19 21 22 rings

> <PUBCHEM_HEAVY_ATOM_COUNT>
23

> <PUBCHEM_ATOM_DEF_STEREO_COUNT>
9

> <PUBCHEM_ATOM_UDEF_STEREO_COUNT>
0

> <PUBCHEM_BOND_DEF_STEREO_COUNT>
0

> <PUBCHEM_BOND_UDEF_STEREO_COUNT>
0

> <PUBCHEM_ISOTOPIC_ATOM_COUNT>
0

> <PUBCHEM_COMPONENT_COUNT>
1

> <PUBCHEM_CACTVS_TAUTO_COUNT>
1

> <PUBCHEM_CONFORMER_ID>
0006C3C900000003

> <PUBCHEM_MMFF94_ENERGY>
62.547

> <PUBCHEM_FEATURE_SELFOVERLAP>
71.291

> <PUBCHEM_SHAPE_FINGERPRINT>
10062212 137 18187365424074055307
10366900 7 16558757818854799083
10369192 42 15981976971724580404
10906281 52 18200020735145341852
11578080 2 17973481859519205040
11640471 11 18335975381271832061
11796584 16 16443615892200947190
12236239 1 18334295383555378091
12553582 1 18129666438652235826
12788726 201 17897727566103062399
13134695 92 17988655120372039622
13583140 156 18060698407958605883
14294032 229 17531803684499373993
15081414 286 18273490174795514412
15295992 7 17131845286769654709
16752209 62 17530975682880356319
17980427 23 18040444282551228272
1813 80 18122901203773300390
18186145 218 18202563973299677754
18219364 16 17560803186630547808
19049666 15 16343154652351746467
19862831 5 18260555493434440503
19930381 70 17555453921281561317
20511986 3 18261121767930341696
20600515 1 16660368116261957241
20645476 183 18333725806715449131
21033648 29 17060627676270139813
21639500 275 18129946663460802772
23402539 116 17168152277024959466
23557571 272 15936402321499757505
23598288 3 18114733820884992151
23598291 2 18408326587711126894
2838139 119 18056768848144007605
4409770 3 15164579669175056455
474 4 18272084946873051336
574716 61 18338522945349674790
6049 1 16630522921145417773
633830 44 18340472379866661212
7615 1 18261393299793621385
77492 1 18334299772706187859
81228 2 15111186142878069379
9981440 41 17472146072744712664

> <PUBCHEM_SHAPE_MULTIPOLES>
432.24
9.35
2.54
1.89
3.08
0.27
-0.36
1.93
0.67
0.39
-0.78
-1.08
0.11
-3.28

> <PUBCHEM_SHAPE_SELFOVERLAP>
901.282

> <PUBCHEM_SHAPE_VOLUME>
242.4

> <PUBCHEM_COORDINATE_TYPE>
2
5
10

$$$$

