91673
  -OEChem-07051213013D

 36 38  0     1  0  0  0  0  0999 V2000
    1.2912   -1.4838   -1.9539 Cl  0  0  0  0  0  0  0  0  0  0  0  0
    5.9352    0.5389   -0.1339 Cl  0  0  0  0  0  0  0  0  0  0  0  0
   -0.5842   -1.0407   -0.2018 O   0  0  0  0  0  0  0  0  0  0  0  0
   -0.4945    0.4789    1.5788 O   0  0  0  0  0  0  0  0  0  0  0  0
   -2.1748    1.3042   -0.5842 N   0  0  0  0  0  0  0  0  0  0  0  0
   -2.7942    2.0589    0.3236 N   0  0  0  0  0  0  0  0  0  0  0  0
   -4.2662    0.8630   -0.9555 N   0  0  0  0  0  0  0  0  0  0  0  0
   -0.0823    0.2450    0.2169 C   0  0  2  0  0  0  0  0  0  0  0  0
   -0.9743   -1.6959    1.0069 C   0  0  1  0  0  0  0  0  0  0  0  0
   -1.4388   -0.5516    1.8700 C   0  0  0  0  0  0  0  0  0  0  0  0
   -0.7202    1.3098   -0.6745 C   0  0  0  0  0  0  0  0  0  0  0  0
    1.4341    0.2974    0.1033 C   0  0  0  0  0  0  0  0  0  0  0  0
   -2.0425   -2.7317    0.7300 C   0  0  0  0  0  0  0  0  0  0  0  0
   -1.5128   -3.8793   -0.1167 C   0  0  0  0  0  0  0  0  0  0  0  0
    2.1262   -0.4530   -0.8497 C   0  0  0  0  0  0  0  0  0  0  0  0
    2.1388    1.1226    0.9820 C   0  0  0  0  0  0  0  0  0  0  0  0
    3.5173   -0.3786   -0.9231 C   0  0  0  0  0  0  0  0  0  0  0  0
    3.5296    1.1969    0.9086 C   0  0  0  0  0  0  0  0  0  0  0  0
   -3.0400    0.5965   -1.3412 C   0  0  0  0  0  0  0  0  0  0  0  0
    4.2190    0.4465   -0.0440 C   0  0  0  0  0  0  0  0  0  0  0  0
   -4.0667    1.7559    0.0584 C   0  0  0  0  0  0  0  0  0  0  0  0
   -0.0786   -2.1606    1.4384 H   0  0  0  0  0  0  0  0  0  0  0  0
   -2.4495   -0.2170    1.6297 H   0  0  0  0  0  0  0  0  0  0  0  0
   -1.4064   -0.7928    2.9364 H   0  0  0  0  0  0  0  0  0  0  0  0
   -0.4760    1.1549   -1.7324 H   0  0  0  0  0  0  0  0  0  0  0  0
   -0.3936    2.3198   -0.3965 H   0  0  0  0  0  0  0  0  0  0  0  0
   -2.8858   -2.2754    0.1979 H   0  0  0  0  0  0  0  0  0  0  0  0
   -2.4254   -3.1328    1.6753 H   0  0  0  0  0  0  0  0  0  0  0  0
   -1.1868   -3.5298   -1.1011 H   0  0  0  0  0  0  0  0  0  0  0  0
   -0.6661   -4.3710    0.3726 H   0  0  0  0  0  0  0  0  0  0  0  0
   -2.2968   -4.6278   -0.2698 H   0  0  0  0  0  0  0  0  0  0  0  0
    1.6283    1.7286    1.7254 H   0  0  0  0  0  0  0  0  0  0  0  0
    4.0565   -0.9632   -1.6656 H   0  0  0  0  0  0  0  0  0  0  0  0
    4.0633    1.8461    1.5980 H   0  0  0  0  0  0  0  0  0  0  0  0
   -2.7465   -0.0781   -2.1332 H   0  0  0  0  0  0  0  0  0  0  0  0
   -4.8740    2.1992    0.6220 H   0  0  0  0  0  0  0  0  0  0  0  0
  1 15  1  0  0  0  0
  2 20  1  0  0  0  0
  3  8  1  0  0  0  0
  3  9  1  0  0  0  0
  4  8  1  0  0  0  0
  4 10  1  0  0  0  0
  5  6  1  0  0  0  0
  5 11  1  0  0  0  0
  5 19  1  0  0  0  0
  6 21  2  0  0  0  0
  7 19  2  0  0  0  0
  7 21  1  0  0  0  0
  8 11  1  0  0  0  0
  8 12  1  0  0  0  0
  9 10  1  0  0  0  0
  9 13  1  0  0  0  0
  9 22  1  0  0  0  0
 10 23  1  0  0  0  0
 10 24  1  0  0  0  0
 11 25  1  0  0  0  0
 11 26  1  0  0  0  0
 12 15  2  0  0  0  0
 12 16  1  0  0  0  0
 13 14  1  0  0  0  0
 13 27  1  0  0  0  0
 13 28  1  0  0  0  0
 14 29  1  0  0  0  0
 14 30  1  0  0  0  0
 14 31  1  0  0  0  0
 15 17  1  0  0  0  0
 16 18  2  0  0  0  0
 16 32  1  0  0  0  0
 17 20  2  0  0  0  0
 17 33  1  0  0  0  0
 18 20  1  0  0  0  0
 18 34  1  0  0  0  0
 19 35  1  0  0  0  0
 21 36  1  0  0  0  0
M  END
> <PUBCHEM_COMPOUND_CID>
91673

> <PUBCHEM_CONFORMER_RMSD>
0.8

> <PUBCHEM_CONFORMER_DIVERSEORDER>
2
48
45
29
10
33
19
49
47
31
26
28
40
44
3
20
16
27
15
32
11
1
25
38
42
5
18
17
30
37
43
4
35
12
7
13
41
9
39
6
14
8
46
36
34
22
24
21
23

> <PUBCHEM_MMFF94_PARTIAL_CHARGES>
24
1 -0.18
10 0.28
11 0.26
12 -0.14
15 0.18
16 -0.15
17 -0.15
18 -0.15
19 0.04
2 -0.18
20 0.18
21 0.37
3 -0.56
32 0.15
33 0.15
34 0.15
35 0.15
36 0.15
4 -0.56
5 0.31
6 -0.71
7 -0.57
8 0.7
9 0.28

> <PUBCHEM_EFFECTIVE_ROTOR_COUNT>
5

> <PUBCHEM_PHARMACOPHORE_FEATURES>
8
1 14 hydrophobe
1 3 acceptor
1 4 acceptor
3 5 7 19 cation
3 6 7 21 cation
5 3 4 8 9 10 rings
5 5 6 7 19 21 rings
6 12 15 16 17 18 20 rings

> <PUBCHEM_HEAVY_ATOM_COUNT>
21

> <PUBCHEM_ATOM_DEF_STEREO_COUNT>
0

> <PUBCHEM_ATOM_UDEF_STEREO_COUNT>
2

> <PUBCHEM_BOND_DEF_STEREO_COUNT>
0

> <PUBCHEM_BOND_UDEF_STEREO_COUNT>
0

> <PUBCHEM_ISOTOPIC_ATOM_COUNT>
0

> <PUBCHEM_COMPONENT_COUNT>
1

> <PUBCHEM_CACTVS_TAUTO_COUNT>
1

> <PUBCHEM_CONFORMER_ID>
0001661900000002

> <PUBCHEM_MMFF94_ENERGY>
46.6504

> <PUBCHEM_FEATURE_SELFOVERLAP>
43.402

> <PUBCHEM_SHAPE_FINGERPRINT>
116883 192 18123190095999899055
12035758 1 18339347600803968881
12138202 97 18342457045140656927
12236239 1 16128655258506299464
12293681 4 18334575758926048432
12500047 106 18413389830567929810
12592029 89 17531251694389349214
12788726 201 17914042101960001067
13538477 17 16415185772163977320
13583140 156 16773793688549737985
13931106 250 18338794499036918535
15852999 172 18335137622183795054
16752209 62 17988369143758354827
16945 1 18342185461573907801
17349148 13 17967535718100053496
17357779 13 18047205046490995479
17980427 23 17059769997925143924
18186145 218 18337115686504559037
200 152 16443349784142460620
20602899 9 18260829315038152675
20645477 70 17531805878899887118
20681677 76 18191873327675719328
21033648 144 18270131110711718164
21033648 29 16916804988679572324
21524375 3 17917152809386002065
22182313 1 18268970120694849523
22907989 373 18191570965624104484
23402539 116 18341341066703525748
23419403 2 17389108849948744427
23493267 7 18409736136254210018
23557571 272 18339356349393893778
23559900 14 18411134767169904406
23598288 3 17201898389115423851
25 1 18115310106231871452
2748010 2 17895468116841112052
3323516 105 17386020463404216645
5845 1 17687139207361249987
633830 44 18190463955389760765
69090 78 18130791186921916473
81228 2 17986108518076740683
9709674 26 18333449829017224926

> <PUBCHEM_SHAPE_MULTIPOLES>
409.23
8.3
2.75
1.49
7.92
2.89
0.01
-3.92
1.08
-3.4
-0.11
-0.26
0.27
1.26

> <PUBCHEM_SHAPE_SELFOVERLAP>
862.002

> <PUBCHEM_SHAPE_VOLUME>
234

> <PUBCHEM_COORDINATE_TYPE>
2
5
10

$$$$

