5498
  -OEChem-06261200423D

 49 50  0     1  0  0  0  0  0999 V2000
    0.4818    1.7718   -0.2445 O   0  0  0  0  0  0  0  0  0  0  0  0
   -4.7647    0.8923    0.2171 O   0  0  0  0  0  0  0  0  0  0  0  0
   -4.3342    0.0325   -1.8496 O   0  0  0  0  0  0  0  0  0  0  0  0
    0.6258    0.5941    1.7376 O   0  0  0  0  0  0  0  0  0  0  0  0
   -1.7171   -0.6060   -0.2636 C   0  0  0  0  0  0  0  0  0  0  0  0
   -3.2112   -0.8844    0.1032 C   0  0  2  0  0  0  0  0  0  0  0  0
   -1.4513    0.7029    0.5249 C   0  0  1  0  0  0  0  0  0  0  0  0
   -3.2796   -0.5387    1.6023 C   0  0  0  0  0  0  0  0  0  0  0  0
   -2.2310    0.5549    1.8356 C   0  0  0  0  0  0  0  0  0  0  0  0
   -0.7881   -1.7557    0.1981 C   0  0  0  0  0  0  0  0  0  0  0  0
   -1.4809   -0.4011   -1.7702 C   0  0  0  0  0  0  0  0  0  0  0  0
   -3.7031   -2.3104   -0.1608 C   0  0  0  0  0  0  0  0  0  0  0  0
   -4.1507    0.0419   -0.6414 C   0  0  0  0  0  0  0  0  0  0  0  0
   -0.0024    0.9982    0.7685 C   0  0  0  0  0  0  0  0  0  0  0  0
    1.8629    2.1312   -0.1376 C   0  0  1  0  0  0  0  0  0  0  0  0
    2.7037    0.8770   -0.1154 C   0  0  0  0  0  0  0  0  0  0  0  0
    2.2385    3.0523   -1.2930 C   0  0  0  0  0  0  0  0  0  0  0  0
    3.4588    0.5852    1.0093 C   0  0  0  0  0  0  0  0  0  0  0  0
    2.7044    0.0410   -1.2206 C   0  0  0  0  0  0  0  0  0  0  0  0
    4.2354   -0.5733    1.0293 C   0  0  0  0  0  0  0  0  0  0  0  0
    3.4809   -1.1175   -1.2003 C   0  0  0  0  0  0  0  0  0  0  0  0
    4.2463   -1.4246   -0.0754 C   0  0  0  0  0  0  0  0  0  0  0  0
    5.0759   -2.6637   -0.0534 C   0  0  0  0  0  0  0  0  0  0  0  0
   -1.8824    1.5637   -0.0065 H   0  0  0  0  0  0  0  0  0  0  0  0
   -2.9717   -1.4160    2.1884 H   0  0  0  0  0  0  0  0  0  0  0  0
   -4.2614   -0.2787    2.0114 H   0  0  0  0  0  0  0  0  0  0  0  0
   -2.7191    1.5040    2.0870 H   0  0  0  0  0  0  0  0  0  0  0  0
   -1.6055    0.2916    2.6953 H   0  0  0  0  0  0  0  0  0  0  0  0
    0.2634   -1.5332   -0.0107 H   0  0  0  0  0  0  0  0  0  0  0  0
   -0.8734   -1.9554    1.2707 H   0  0  0  0  0  0  0  0  0  0  0  0
   -1.0149   -2.6854   -0.3352 H   0  0  0  0  0  0  0  0  0  0  0  0
   -1.8745   -1.2398   -2.3538 H   0  0  0  0  0  0  0  0  0  0  0  0
   -1.9309    0.5240   -2.1436 H   0  0  0  0  0  0  0  0  0  0  0  0
   -0.4102   -0.3283   -1.9914 H   0  0  0  0  0  0  0  0  0  0  0  0
   -3.5615   -2.5946   -1.2092 H   0  0  0  0  0  0  0  0  0  0  0  0
   -3.1861   -3.0477    0.4617 H   0  0  0  0  0  0  0  0  0  0  0  0
   -4.7742   -2.4019    0.0567 H   0  0  0  0  0  0  0  0  0  0  0  0
   -5.3760    1.5032   -0.2468 H   0  0  0  0  0  0  0  0  0  0  0  0
    1.9938    2.7022    0.7914 H   0  0  0  0  0  0  0  0  0  0  0  0
    2.0077    2.6067   -2.2667 H   0  0  0  0  0  0  0  0  0  0  0  0
    3.3014    3.3141   -1.2710 H   0  0  0  0  0  0  0  0  0  0  0  0
    1.6526    3.9768   -1.2378 H   0  0  0  0  0  0  0  0  0  0  0  0
    3.4613    1.2412    1.8751 H   0  0  0  0  0  0  0  0  0  0  0  0
    2.1077    0.2594   -2.1010 H   0  0  0  0  0  0  0  0  0  0  0  0
    4.8264   -0.8024    1.9121 H   0  0  0  0  0  0  0  0  0  0  0  0
    3.4777   -1.7753   -2.0655 H   0  0  0  0  0  0  0  0  0  0  0  0
    4.4927   -3.4989    0.3469 H   0  0  0  0  0  0  0  0  0  0  0  0
    5.4205   -2.9264   -1.0593 H   0  0  0  0  0  0  0  0  0  0  0  0
    5.9693   -2.5304    0.5662 H   0  0  0  0  0  0  0  0  0  0  0  0
  1 14  1  0  0  0  0
  1 15  1  0  0  0  0
  2 13  1  0  0  0  0
  2 38  1  0  0  0  0
  3 13  2  0  0  0  0
  4 14  2  0  0  0  0
  5  6  1  0  0  0  0
  5  7  1  0  0  0  0
  5 10  1  0  0  0  0
  5 11  1  0  0  0  0
  6  8  1  0  0  0  0
  6 12  1  0  0  0  0
  6 13  1  0  0  0  0
  7  9  1  0  0  0  0
  7 14  1  0  0  0  0
  7 24  1  0  0  0  0
  8  9  1  0  0  0  0
  8 25  1  0  0  0  0
  8 26  1  0  0  0  0
  9 27  1  0  0  0  0
  9 28  1  0  0  0  0
 10 29  1  0  0  0  0
 10 30  1  0  0  0  0
 10 31  1  0  0  0  0
 11 32  1  0  0  0  0
 11 33  1  0  0  0  0
 11 34  1  0  0  0  0
 12 35  1  0  0  0  0
 12 36  1  0  0  0  0
 12 37  1  0  0  0  0
 15 16  1  0  0  0  0
 15 17  1  0  0  0  0
 15 39  1  0  0  0  0
 16 18  2  0  0  0  0
 16 19  1  0  0  0  0
 17 40  1  0  0  0  0
 17 41  1  0  0  0  0
 17 42  1  0  0  0  0
 18 20  1  0  0  0  0
 18 43  1  0  0  0  0
 19 21  2  0  0  0  0
 19 44  1  0  0  0  0
 20 22  2  0  0  0  0
 20 45  1  0  0  0  0
 21 22  1  0  0  0  0
 21 46  1  0  0  0  0
 22 23  1  0  0  0  0
 23 47  1  0  0  0  0
 23 48  1  0  0  0  0
 23 49  1  0  0  0  0
M  END
> <PUBCHEM_COMPOUND_CID>
5498

> <PUBCHEM_CONFORMER_RMSD>
0.8

> <PUBCHEM_CONFORMER_DIVERSEORDER>
63
21
243
222
244
209
201
230
153
176
83
95
168
147
56
7
82
130
133
97
116
151
40
199
65
69
183
167
52
169
50
66
76
59
30
231
202
131
62
212
39
64
166
205
102
25
67
118
126
45
32
149
29
124
218
125
88
12
191
114
152
18
219
158
180
103
74
71
53
108
104
215
171
236
234
73
6
37
155
11
182
128
179
111
49
193
216
203
208
185
72
77
14
226
214
2
98
173
38
96
186
28
145
242
237
148
9
115
181
188
177
75
106
197
190
42
198
119
80
91
93
117
172
141
150
78
247
200
84
19
137
55
241
34
213
192
138
156
129
51
54
235
1
178
162
157
194
233
196
132
58
27
105
170
90
101
24
35
160
61
109
240
139
23
245
5
68
239
163
110
154
146
195
46
140
206
33
174
43
113
41
20
159
122
57
44
127
87
187
3
26
4
15
135
143
60
92
31
165
207
85
86
229
217
123
161
16
136
94
210
100
8
211
248
79
184
238
144
121
232
204
13
48
225
221
70
134
142
224
223
99
107
47
246
22
228
81
220
17
189
10
164
227
89
175
36
112
120

> <PUBCHEM_MMFF94_PARTIAL_CHARGES>
21
1 -0.43
13 0.66
14 0.66
15 0.42
16 -0.14
18 -0.15
19 -0.15
2 -0.65
20 -0.15
21 -0.15
22 -0.14
23 0.14
3 -0.57
38 0.5
4 -0.57
43 0.15
44 0.15
45 0.15
46 0.15
6 0.06
7 0.06

> <PUBCHEM_EFFECTIVE_ROTOR_COUNT>
6

> <PUBCHEM_PHARMACOPHORE_FEATURES>
7
1 2 acceptor
1 3 acceptor
1 4 acceptor
3 2 3 13 anion
3 5 10 11 hydrophobe
5 5 6 7 8 9 rings
6 16 18 19 20 21 22 rings

> <PUBCHEM_HEAVY_ATOM_COUNT>
23

> <PUBCHEM_ATOM_DEF_STEREO_COUNT>
0

> <PUBCHEM_ATOM_UDEF_STEREO_COUNT>
3

> <PUBCHEM_BOND_DEF_STEREO_COUNT>
0

> <PUBCHEM_BOND_UDEF_STEREO_COUNT>
0

> <PUBCHEM_ISOTOPIC_ATOM_COUNT>
0

> <PUBCHEM_COMPONENT_COUNT>
1

> <PUBCHEM_CACTVS_TAUTO_COUNT>
1

> <PUBCHEM_CONFORMER_ID>
0000157A0000003F

> <PUBCHEM_MMFF94_ENERGY>
76.0029

> <PUBCHEM_FEATURE_SELFOVERLAP>
35.576

> <PUBCHEM_SHAPE_FINGERPRINT>
10062212 137 17821443556662497991
10366900 7 17023185981535162520
10369192 42 16697209233800683180
11405975 8 18342172237670173337
12363563 72 18271519892696741722
12422481 6 17388226144254632603
12553582 1 18339060680014311718
12596599 1 18260817203030086410
13083527 12 14924813111153552713
13224815 77 17676477311651875130
13533116 47 18113622252830179907
13544653 18 18113902680225130416
13583140 156 17750804233555316841
13675066 3 18114466682092072361
14341114 328 14996294595685078586
14848178 5 18187372033897244750
15420108 30 17179954649718540321
15848702 151 18342742888267795727
16752209 62 18200880698270073200
17349148 13 17822008705317207223
17492 89 18338514114818611087
17818456 19 18188197827343922601
1813 80 18337098064759769132
18186145 218 16845292704889489049
192875 21 18186238428913810693
19862831 5 17703793625761268784
200 152 17749114387346841151
20626108 58 18335994068695687914
20645477 70 18271526399192568872
23559900 14 18408604738899874688
2637199 183 12751237043072410008
339767 52 18335430079613628922
44062 13 18272090500408592383
463206 1 17774729744194570586
5104073 3 17894344462896659187
5161694 15 17846503625134045021
5281201 14 17917709046337318205
633830 44 17203329966419160689
6442390 28 8285904814142851900
6913067 236 4967599556211008057
7399639 24 17264115165296301089
7808743 9 8862069763690591702
7970288 3 18340483473884322578
8988823 20 17095538269984741632
9709674 26 18270960116117854690
9971528 1 18410015442409741888
9981440 41 17472709026645071648

> <PUBCHEM_SHAPE_MULTIPOLES>
449.85
9.92
2.45
1.6
0.56
0.3
0.01
-4.7
-0.65
2.37
-0.55
-0.61
0.24
-0.33

> <PUBCHEM_SHAPE_SELFOVERLAP>
951.465

> <PUBCHEM_SHAPE_VOLUME>
254.5

> <PUBCHEM_COORDINATE_TYPE>
2
5
10

$$$$

