19861
  -OEChem-07051212542D

 44 47  0     0  0  0  0  0  0999 V2000
    4.8830   -2.0953    0.0000 N   0  0  0  0  0  0  0  0  0  0  0  0
    6.5365    0.6184    0.0000 N   0  0  0  0  0  0  0  0  0  0  0  0
    4.8830   -0.0953    0.0000 C   0  0  0  0  0  0  0  0  0  0  0  0
    5.7490   -0.5953    0.0000 C   0  0  0  0  0  0  0  0  0  0  0  0
    4.0170   -0.5953    0.0000 C   0  0  0  0  0  0  0  0  0  0  0  0
    5.7490   -1.5953    0.0000 C   0  0  0  0  0  0  0  0  0  0  0  0
    4.0169   -1.5953    0.0000 C   0  0  0  0  0  0  0  0  0  0  0  0
    4.8830    0.9047    0.0000 C   0  0  0  0  0  0  0  0  0  0  0  0
    3.9820    1.3386    0.0000 C   0  0  0  0  0  0  0  0  0  0  0  0
    5.7840    1.3385    0.0000 C   0  0  0  0  0  0  0  0  0  0  0  0
    3.7595    2.3135    0.0000 C   0  0  0  0  0  0  0  0  0  0  0  0
    4.3830    3.0953    0.0000 C   0  0  0  0  0  0  0  0  0  0  0  0
    5.3830    3.0953    0.0000 C   0  0  0  0  0  0  0  0  0  0  0  0
    6.0065    2.3135    0.0000 C   0  0  0  0  0  0  0  0  0  0  0  0
    4.8830   -3.0953    0.0000 C   0  0  0  0  0  0  0  0  0  0  0  0
    3.2295    0.6184    0.0000 C   0  0  0  0  0  0  0  0  0  0  0  0
    2.7690    2.6358    0.0000 C   0  0  0  0  0  0  0  0  0  0  0  0
    6.9970    2.6358    0.0000 C   0  0  0  0  0  0  0  0  0  0  0  0
    2.2318    0.9177    0.0000 C   0  0  0  0  0  0  0  0  0  0  0  0
    2.0000    1.9333    0.0000 C   0  0  0  0  0  0  0  0  0  0  0  0
    7.7660    1.9332    0.0000 C   0  0  0  0  0  0  0  0  0  0  0  0
    7.5342    0.9177    0.0000 C   0  0  0  0  0  0  0  0  0  0  0  0
    3.8049   -0.0127    0.0000 H   0  0  0  0  0  0  0  0  0  0  0  0
    3.4064   -0.7030    0.0000 H   0  0  0  0  0  0  0  0  0  0  0  0
    6.3596   -0.7030    0.0000 H   0  0  0  0  0  0  0  0  0  0  0  0
    5.9611   -0.0127    0.0000 H   0  0  0  0  0  0  0  0  0  0  0  0
    5.9610   -2.1779    0.0000 H   0  0  0  0  0  0  0  0  0  0  0  0
    6.3596   -1.4877    0.0000 H   0  0  0  0  0  0  0  0  0  0  0  0
    3.4064   -1.4876    0.0000 H   0  0  0  0  0  0  0  0  0  0  0  0
    3.8049   -2.1779    0.0000 H   0  0  0  0  0  0  0  0  0  0  0  0
    4.5210    3.6998    0.0000 H   0  0  0  0  0  0  0  0  0  0  0  0
    3.8244    3.3643    0.0000 H   0  0  0  0  0  0  0  0  0  0  0  0
    5.9416    3.3643    0.0000 H   0  0  0  0  0  0  0  0  0  0  0  0
    5.2450    3.6998    0.0000 H   0  0  0  0  0  0  0  0  0  0  0  0
    4.2630   -3.0953    0.0000 H   0  0  0  0  0  0  0  0  0  0  0  0
    4.8830   -3.7153    0.0000 H   0  0  0  0  0  0  0  0  0  0  0  0
    5.5030   -3.0953    0.0000 H   0  0  0  0  0  0  0  0  0  0  0  0
    3.3744    0.0156    0.0000 H   0  0  0  0  0  0  0  0  0  0  0  0
    2.6380    3.2418    0.0000 H   0  0  0  0  0  0  0  0  0  0  0  0
    7.1280    3.2418    0.0000 H   0  0  0  0  0  0  0  0  0  0  0  0
    1.7789    0.4943    0.0000 H   0  0  0  0  0  0  0  0  0  0  0  0
    1.4083    2.1183    0.0000 H   0  0  0  0  0  0  0  0  0  0  0  0
    8.3578    2.1183    0.0000 H   0  0  0  0  0  0  0  0  0  0  0  0
    7.9871    0.4942    0.0000 H   0  0  0  0  0  0  0  0  0  0  0  0
  1  6  1  0  0  0  0
  1  7  1  0  0  0  0
  1 15  1  0  0  0  0
  2 10  1  0  0  0  0
  2 22  2  0  0  0  0
  3  4  1  0  0  0  0
  3  5  1  0  0  0  0
  3  8  2  0  0  0  0
  4  6  1  0  0  0  0
  4 25  1  0  0  0  0
  4 26  1  0  0  0  0
  5  7  1  0  0  0  0
  5 23  1  0  0  0  0
  5 24  1  0  0  0  0
  6 27  1  0  0  0  0
  6 28  1  0  0  0  0
  7 29  1  0  0  0  0
  7 30  1  0  0  0  0
  8  9  1  0  0  0  0
  8 10  1  0  0  0  0
  9 11  1  0  0  0  0
  9 16  2  0  0  0  0
 10 14  2  0  0  0  0
 11 12  1  0  0  0  0
 11 17  2  0  0  0  0
 12 13  1  0  0  0  0
 12 31  1  0  0  0  0
 12 32  1  0  0  0  0
 13 14  1  0  0  0  0
 13 33  1  0  0  0  0
 13 34  1  0  0  0  0
 14 18  1  0  0  0  0
 15 35  1  0  0  0  0
 15 36  1  0  0  0  0
 15 37  1  0  0  0  0
 16 19  1  0  0  0  0
 16 38  1  0  0  0  0
 17 20  1  0  0  0  0
 17 39  1  0  0  0  0
 18 21  2  0  0  0  0
 18 40  1  0  0  0  0
 19 20  2  0  0  0  0
 19 41  1  0  0  0  0
 20 42  1  0  0  0  0
 21 22  1  0  0  0  0
 21 43  1  0  0  0  0
 22 44  1  0  0  0  0
M  END
> <PUBCHEM_COMPOUND_CID>
19861

> <PUBCHEM_COMPOUND_CANONICALIZED>
1

> <PUBCHEM_CACTVS_COMPLEXITY>
417

> <PUBCHEM_CACTVS_HBOND_ACCEPTOR>
2

> <PUBCHEM_CACTVS_HBOND_DONOR>
0

> <PUBCHEM_CACTVS_ROTATABLE_BOND>
0

> <PUBCHEM_CACTVS_SUBSKEYS>
AAADceB7AAAAAAAAAAAAAAAAAAAAAAAAAAA8WIAABgAAAAABwAAAHAAAAAAADAjBHgQ+gJMIEACgAzRnRACCgCAxAiAI2CA4ZJgIIOLAkZGEIAhggADIyAcQgMAOgAAAAAAQAAAAAAAAACAAAAAAAAAAAA==

> <PUBCHEM_IUPAC_OPENEYE_NAME>
11-(1-methyl-4-piperidylidene)-5,6-dihydrobenzo[1,2]cyclohepta[3,4-b]pyridine

> <PUBCHEM_IUPAC_CAS_NAME>
11-(1-methyl-4-piperidinylidene)-5,6-dihydrobenzo[1,2]cyclohepta[3,4-b]pyridine

> <PUBCHEM_IUPAC_NAME>
11-(1-methylpiperidin-4-ylidene)-5,6-dihydrobenzo[1,2]cyclohepta[3,4-b]pyridine

> <PUBCHEM_IUPAC_SYSTEMATIC_NAME>
11-(1-methylpiperidin-4-ylidene)-5,6-dihydrobenzo[1,2]cyclohepta[3,4-b]pyridine

> <PUBCHEM_IUPAC_TRADITIONAL_NAME>
11-(1-methyl-4-piperidylidene)-5,6-dihydrobenzo[1,2]cyclohepta[3,4-b]pyridine

> <PUBCHEM_IUPAC_INCHI>
InChI=1S/C20H22N2/c1-22-13-10-16(11-14-22)19-18-7-3-2-5-15(18)8-9-17-6-4-12-21-20(17)19/h2-7,12H,8-11,13-14H2,1H3

> <PUBCHEM_IUPAC_INCHIKEY>
SEBMTIQKRHYNIT-UHFFFAOYSA-N

> <PUBCHEM_XLOGP3>
3.6

> <PUBCHEM_EXACT_MASS>
290.178299

> <PUBCHEM_MOLECULAR_FORMULA>
C20H22N2

> <PUBCHEM_MOLECULAR_WEIGHT>
290.40208

> <PUBCHEM_OPENEYE_CAN_SMILES>
CN1CCC(=C2C3=CC=CC=C3CCC4=C2N=CC=C4)CC1

> <PUBCHEM_OPENEYE_ISO_SMILES>
CN1CCC(=C2C3=CC=CC=C3CCC4=C2N=CC=C4)CC1

> <PUBCHEM_CACTVS_TPSA>
16.1

> <PUBCHEM_MONOISOTOPIC_WEIGHT>
290.178299

> <PUBCHEM_TOTAL_CHARGE>
0

> <PUBCHEM_HEAVY_ATOM_COUNT>
22

> <PUBCHEM_ATOM_DEF_STEREO_COUNT>
0

> <PUBCHEM_ATOM_UDEF_STEREO_COUNT>
0

> <PUBCHEM_BOND_DEF_STEREO_COUNT>
0

> <PUBCHEM_BOND_UDEF_STEREO_COUNT>
0

> <PUBCHEM_ISOTOPIC_ATOM_COUNT>
0

> <PUBCHEM_COMPONENT_COUNT>
1

> <PUBCHEM_CACTVS_TAUTO_COUNT>
1

> <PUBCHEM_COORDINATE_TYPE>
1
5
255

> <PUBCHEM_BONDANNOTATIONS>
10  14  8
11  17  8
14  18  8
16  19  8
17  20  8
18  21  8
19  20  8
2  10  8
2  22  8
21  22  8
9  11  8
9  16  8

$$$$

