5282015
  -OEChem-07051213023D

 92 95  0     1  0  0  0  0  0999 V2000
    2.9971    1.5664    0.1635 O   0  0  0  0  0  0  0  0  0  0  0  0
    2.7669   -0.0253   -1.6203 O   0  0  0  0  0  0  0  0  0  0  0  0
    5.4744    0.6692   -2.2770 O   0  0  0  0  0  0  0  0  0  0  0  0
   -1.1295    1.2558   -1.0657 O   0  0  0  0  0  0  0  0  0  0  0  0
   -3.8786    0.5667    1.4092 O   0  0  0  0  0  0  0  0  0  0  0  0
   -1.5211    2.4501    0.8667 O   0  0  0  0  0  0  0  0  0  0  0  0
    0.2884   -5.2139    2.0690 O   0  0  0  0  0  0  0  0  0  0  0  0
   -7.3044    1.9983    0.7494 O   0  0  0  0  0  0  0  0  0  0  0  0
    2.6593    1.3508   -1.2144 C   0  0  2  0  0  0  0  0  0  0  0  0
    4.3467    1.2232    0.5061 C   0  0  1  0  0  0  0  0  0  0  0  0
    5.3341    2.1007   -0.2887 C   0  0  2  0  0  0  0  0  0  0  0  0
    3.5927    2.1943   -2.1054 C   0  0  0  0  0  0  0  0  0  0  0  0
    5.0720    1.9491   -1.7983 C   0  0  2  0  0  0  0  0  0  0  0  0
    1.2099    1.8335   -1.4238 C   0  0  0  0  0  0  0  0  0  0  0  0
    0.2224    0.9326   -0.6898 C   0  0  2  0  0  0  0  0  0  0  0  0
    4.4634    1.4201    2.0152 C   0  0  1  0  0  0  0  0  0  0  0  0
    1.9065   -0.9262   -0.9102 C   0  0  1  0  0  0  0  0  0  0  0  0
    0.4508   -0.5144   -1.1021 C   0  0  0  0  0  0  0  0  0  0  0  0
    6.7940    1.7864    0.0453 C   0  0  0  0  0  0  0  0  0  0  0  0
    4.2161    2.8972    2.3739 C   0  0  0  0  0  0  0  0  0  0  0  0
    2.1823   -2.3419   -1.4431 C   0  0  0  0  0  0  0  0  0  0  0  0
    3.4981    0.4785    2.7395 C   0  0  0  0  0  0  0  0  0  0  0  0
    4.3761    3.2025    3.8565 C   0  0  0  0  0  0  0  0  0  0  0  0
    1.2459   -3.3855   -0.8937 C   0  0  0  0  0  0  0  0  0  0  0  0
   -3.3695    1.8292   -0.6109 C   0  0  1  0  0  0  0  0  0  0  0  0
   -1.9089    1.9220   -0.1671 C   0  0  0  0  0  0  0  0  0  0  0  0
   -4.0575    0.5625   -0.0225 C   0  0  2  0  0  0  0  0  0  0  0  0
    1.4124   -4.1765    0.1850 C   0  0  0  0  0  0  0  0  0  0  0  0
   -5.5799    0.6530   -0.2217 C   0  0  0  0  0  0  0  0  0  0  0  0
   -4.0660    3.1064   -0.2176 C   0  0  0  0  0  0  0  0  0  0  0  0
   -3.5164   -0.7578   -0.6274 C   0  0  0  0  0  0  0  0  0  0  0  0
    0.3687   -5.2065    0.6360 C   0  0  2  0  0  0  0  0  0  0  0  0
   -5.3255    3.1911    0.2363 C   0  0  0  0  0  0  0  0  0  0  0  0
   -6.1537    1.9522    0.3142 C   0  0  0  0  0  0  0  0  0  0  0  0
   -1.0912   -5.1133    0.0918 C   0  0  2  0  0  0  0  0  0  0  0  0
    2.6691   -4.1394    1.0225 C   0  0  0  0  0  0  0  0  0  0  0  0
   -3.0172   -1.7515    0.1433 C   0  0  0  0  0  0  0  0  0  0  0  0
   -3.5470   -0.8609   -2.1376 C   0  0  0  0  0  0  0  0  0  0  0  0
   -5.9671    4.4810    0.6410 C   0  0  0  0  0  0  0  0  0  0  0  0
   -1.8162   -3.8566    0.5340 C   0  0  0  0  0  0  0  0  0  0  0  0
   -2.3820   -2.9763   -0.3086 C   0  0  0  0  0  0  0  0  0  0  0  0
   -1.9156   -6.3267    0.5473 C   0  0  0  0  0  0  0  0  0  0  0  0
    4.5162    0.1641    0.2720 H   0  0  0  0  0  0  0  0  0  0  0  0
    5.1488    3.1614   -0.0873 H   0  0  0  0  0  0  0  0  0  0  0  0
    3.3868    3.2596   -1.9401 H   0  0  0  0  0  0  0  0  0  0  0  0
    3.4011    1.9643   -3.1607 H   0  0  0  0  0  0  0  0  0  0  0  0
    5.6631    2.6895   -2.3516 H   0  0  0  0  0  0  0  0  0  0  0  0
    0.9593    1.8332   -2.4931 H   0  0  0  0  0  0  0  0  0  0  0  0
    1.0828    2.8639   -1.0694 H   0  0  0  0  0  0  0  0  0  0  0  0
    0.3584    1.0205    0.3954 H   0  0  0  0  0  0  0  0  0  0  0  0
    5.4741    1.1447    2.3393 H   0  0  0  0  0  0  0  0  0  0  0  0
    2.1642   -0.8970    0.1557 H   0  0  0  0  0  0  0  0  0  0  0  0
    0.1570   -0.6396   -2.1532 H   0  0  0  0  0  0  0  0  0  0  0  0
   -0.2143   -1.1530   -0.5163 H   0  0  0  0  0  0  0  0  0  0  0  0
    7.0494    2.1223    1.0550 H   0  0  0  0  0  0  0  0  0  0  0  0
    7.0013    0.7129   -0.0147 H   0  0  0  0  0  0  0  0  0  0  0  0
    7.4710    2.3034   -0.6434 H   0  0  0  0  0  0  0  0  0  0  0  0
    3.2143    3.2144    2.0611 H   0  0  0  0  0  0  0  0  0  0  0  0
    4.9327    3.5473    1.8655 H   0  0  0  0  0  0  0  0  0  0  0  0
    3.2327   -2.6018   -1.2722 H   0  0  0  0  0  0  0  0  0  0  0  0
    2.0882   -2.3424   -2.5379 H   0  0  0  0  0  0  0  0  0  0  0  0
    2.4527    0.7624    2.5784 H   0  0  0  0  0  0  0  0  0  0  0  0
    3.6826    0.4807    3.8186 H   0  0  0  0  0  0  0  0  0  0  0  0
    3.6268   -0.5537    2.3955 H   0  0  0  0  0  0  0  0  0  0  0  0
    6.4451    0.6315   -2.2496 H   0  0  0  0  0  0  0  0  0  0  0  0
    4.2963    4.2809    4.0292 H   0  0  0  0  0  0  0  0  0  0  0  0
    5.3534    2.8727    4.2229 H   0  0  0  0  0  0  0  0  0  0  0  0
    3.5984    2.7167    4.4528 H   0  0  0  0  0  0  0  0  0  0  0  0
    0.3360   -3.4825   -1.4792 H   0  0  0  0  0  0  0  0  0  0  0  0
   -3.3844    1.8141   -1.7088 H   0  0  0  0  0  0  0  0  0  0  0  0
   -6.0717   -0.1633    0.3234 H   0  0  0  0  0  0  0  0  0  0  0  0
   -5.8726    0.5877   -1.2746 H   0  0  0  0  0  0  0  0  0  0  0  0
   -3.4928    4.0260   -0.3236 H   0  0  0  0  0  0  0  0  0  0  0  0
    0.7772   -6.1846    0.3457 H   0  0  0  0  0  0  0  0  0  0  0  0
   -1.0529   -5.1554   -1.0044 H   0  0  0  0  0  0  0  0  0  0  0  0
    3.4380   -3.4665    0.6375 H   0  0  0  0  0  0  0  0  0  0  0  0
    3.1119   -5.1396    1.0764 H   0  0  0  0  0  0  0  0  0  0  0  0
    2.4385   -3.8062    2.0398 H   0  0  0  0  0  0  0  0  0  0  0  0
   -2.9267    0.5710    1.6046 H   0  0  0  0  0  0  0  0  0  0  0  0
   -3.0264   -1.6368    1.2249 H   0  0  0  0  0  0  0  0  0  0  0  0
   -2.6180   -0.4729   -2.5659 H   0  0  0  0  0  0  0  0  0  0  0  0
   -4.3759   -0.2929   -2.5679 H   0  0  0  0  0  0  0  0  0  0  0  0
   -3.6869   -1.8897   -2.4823 H   0  0  0  0  0  0  0  0  0  0  0  0
   -6.8523    4.6778    0.0273 H   0  0  0  0  0  0  0  0  0  0  0  0
   -5.2870    5.3315    0.5247 H   0  0  0  0  0  0  0  0  0  0  0  0
   -6.2729    4.4421    1.6916 H   0  0  0  0  0  0  0  0  0  0  0  0
   -1.8616   -3.6737    1.6061 H   0  0  0  0  0  0  0  0  0  0  0  0
   -2.3207   -3.1645   -1.3751 H   0  0  0  0  0  0  0  0  0  0  0  0
   -2.8988   -6.3280    0.0625 H   0  0  0  0  0  0  0  0  0  0  0  0
   -1.4140   -7.2615    0.2751 H   0  0  0  0  0  0  0  0  0  0  0  0
   -2.0853   -6.3329    1.6296 H   0  0  0  0  0  0  0  0  0  0  0  0
    0.0139   -6.1043    2.3460 H   0  0  0  0  0  0  0  0  0  0  0  0
  1  9  1  0  0  0  0
  1 10  1  0  0  0  0
  2  9  1  0  0  0  0
  2 17  1  0  0  0  0
  3 13  1  0  0  0  0
  3 65  1  0  0  0  0
  4 15  1  0  0  0  0
  4 26  1  0  0  0  0
  5 27  1  0  0  0  0
  5 79  1  0  0  0  0
  6 26  2  0  0  0  0
  7 32  1  0  0  0  0
  7 92  1  0  0  0  0
  8 34  2  0  0  0  0
  9 12  1  0  0  0  0
  9 14  1  0  0  0  0
 10 11  1  0  0  0  0
 10 16  1  0  0  0  0
 10 43  1  0  0  0  0
 11 13  1  0  0  0  0
 11 19  1  0  0  0  0
 11 44  1  0  0  0  0
 12 13  1  0  0  0  0
 12 45  1  0  0  0  0
 12 46  1  0  0  0  0
 13 47  1  0  0  0  0
 14 15  1  0  0  0  0
 14 48  1  0  0  0  0
 14 49  1  0  0  0  0
 15 18  1  0  0  0  0
 15 50  1  0  0  0  0
 16 20  1  0  0  0  0
 16 22  1  0  0  0  0
 16 51  1  0  0  0  0
 17 18  1  0  0  0  0
 17 21  1  0  0  0  0
 17 52  1  0  0  0  0
 18 53  1  0  0  0  0
 18 54  1  0  0  0  0
 19 55  1  0  0  0  0
 19 56  1  0  0  0  0
 19 57  1  0  0  0  0
 20 23  1  0  0  0  0
 20 58  1  0  0  0  0
 20 59  1  0  0  0  0
 21 24  1  0  0  0  0
 21 60  1  0  0  0  0
 21 61  1  0  0  0  0
 22 62  1  0  0  0  0
 22 63  1  0  0  0  0
 22 64  1  0  0  0  0
 23 66  1  0  0  0  0
 23 67  1  0  0  0  0
 23 68  1  0  0  0  0
 24 28  2  0  0  0  0
 24 69  1  0  0  0  0
 25 26  1  0  0  0  0
 25 27  1  0  0  0  0
 25 30  1  0  0  0  0
 25 70  1  0  0  0  0
 27 29  1  0  0  0  0
 27 31  1  0  0  0  0
 28 32  1  0  0  0  0
 28 36  1  0  0  0  0
 29 34  1  0  0  0  0
 29 71  1  0  0  0  0
 29 72  1  0  0  0  0
 30 33  2  0  0  0  0
 30 73  1  0  0  0  0
 31 37  2  0  0  0  0
 31 38  1  0  0  0  0
 32 35  1  0  0  0  0
 32 74  1  0  0  0  0
 33 34  1  0  0  0  0
 33 39  1  0  0  0  0
 35 40  1  0  0  0  0
 35 42  1  0  0  0  0
 35 75  1  0  0  0  0
 36 76  1  0  0  0  0
 36 77  1  0  0  0  0
 36 78  1  0  0  0  0
 37 41  1  0  0  0  0
 37 80  1  0  0  0  0
 38 81  1  0  0  0  0
 38 82  1  0  0  0  0
 38 83  1  0  0  0  0
 39 84  1  0  0  0  0
 39 85  1  0  0  0  0
 39 86  1  0  0  0  0
 40 41  2  0  0  0  0
 40 87  1  0  0  0  0
 41 88  1  0  0  0  0
 42 89  1  0  0  0  0
 42 90  1  0  0  0  0
 42 91  1  0  0  0  0
M  END
> <PUBCHEM_COMPOUND_CID>
5282015

> <PUBCHEM_CONFORMER_RMSD>
1

> <PUBCHEM_CONFORMER_DIVERSEORDER>
1

> <PUBCHEM_MMFF94_PARTIAL_CHARGES>
40
1 -0.56
10 0.28
13 0.28
15 0.28
17 0.28
2 -0.56
21 0.14
24 -0.29
25 0.2
26 0.66
27 0.42
28 -0.28
29 0.06
3 -0.68
30 -0.29
31 -0.28
32 0.42
33 -0.12
34 0.49
35 0.14
36 0.14
37 -0.15
38 0.14
39 0.14
4 -0.43
40 -0.29
41 -0.15
5 -0.68
6 -0.57
65 0.4
69 0.15
7 -0.68
73 0.15
79 0.4
8 -0.57
80 0.15
87 0.15
88 0.15
9 0.56
92 0.4

> <PUBCHEM_EFFECTIVE_ROTOR_COUNT>
4.6

> <PUBCHEM_PHARMACOPHORE_FEATURES>
15
1 1 acceptor
1 2 acceptor
1 22 hydrophobe
1 23 hydrophobe
1 3 acceptor
1 3 donor
1 5 acceptor
1 5 donor
1 6 acceptor
1 7 acceptor
1 7 donor
1 8 acceptor
6 1 9 10 11 12 13 rings
6 2 9 14 15 17 18 rings
6 25 27 29 30 33 34 rings

> <PUBCHEM_HEAVY_ATOM_COUNT>
42

> <PUBCHEM_ATOM_DEF_STEREO_COUNT>
10

> <PUBCHEM_ATOM_UDEF_STEREO_COUNT>
1

> <PUBCHEM_BOND_DEF_STEREO_COUNT>
3

> <PUBCHEM_BOND_UDEF_STEREO_COUNT>
0

> <PUBCHEM_ISOTOPIC_ATOM_COUNT>
0

> <PUBCHEM_COMPONENT_COUNT>
1

> <PUBCHEM_CACTVS_TAUTO_COUNT>
7

> <PUBCHEM_CONFORMER_ID>
005098DF00000001

> <PUBCHEM_MMFF94_ENERGY>
97.4107

> <PUBCHEM_FEATURE_SELFOVERLAP>
76.155

> <PUBCHEM_SHAPE_FINGERPRINT>
10074138 170 18050870839621482626
10290309 65 18198341947692229181
10581848 197 17907613498481233506
10675989 125 18122333842582036989
11059845 2 18267889232498593058
11070050 100 18335147522262909712
11093857 5 18263648359783156920
12788726 201 17480013100058496174
13692114 37 18337678499324689727
14394314 77 17042038538195627974
14705955 166 17686920323443915938
15200665 1 18267574724332296483
15297060 5 18337662053868753776
15400415 2 18340758317072579197
15927050 60 18410284831538847343
19319366 153 18337107973191220983
20609170 109 16537983410004951896
21033648 29 18114191778959540080
21591340 35 18263639748099233067
21796203 349 17331641023492465514
23516275 137 17986088903124565968
23559900 14 17971192775156927557
3383291 50 18338795586454629995
376196 1 18113621174814786678
508180 173 18192976339396438418
508706 21 18189616042534344413
5776283 40 18195787769306527198
6086070 43 16877662353614034348
653340 110 18194121819879374074
79837 15 18268713813878320791
9658208 31 18335696101577323916
9849439 229 18411139134587408199
9896288 288 18341037520443879243
9961470 85 18410305713100089147

> <PUBCHEM_SHAPE_MULTIPOLES>
817.39
14.27
8.16
2.33
4.2
14.68
1.31
-20.26
2.17
4.75
3.84
-4.39
-1.55
0.41

> <PUBCHEM_SHAPE_SELFOVERLAP>
1696.402

> <PUBCHEM_SHAPE_VOLUME>
460.9

> <PUBCHEM_COORDINATE_TYPE>
2
5
10

$$$$

