9780
  -OEChem-06261204033D

 16 15  0     0  0  0  0  0  0999 V2000
    1.2276   -0.4902   -1.6946 F   0  0  0  0  0  0  0  0  0  0  0  0
    2.1066   -1.4420    0.0554 F   0  0  0  0  0  0  0  0  0  0  0  0
   -0.4761   -2.0587   -0.2493 F   0  0  0  0  0  0  0  0  0  0  0  0
   -0.1153   -0.8401    1.5211 F   0  0  0  0  0  0  0  0  0  0  0  0
    1.8592    0.9355    1.4512 F   0  0  0  0  0  0  0  0  0  0  0  0
    3.0401    1.0691   -0.3775 F   0  0  0  0  0  0  0  0  0  0  0  0
    1.0201    1.8933   -0.3139 F   0  0  0  0  0  0  0  0  0  0  0  0
   -4.3535    1.0643   -0.3107 O   0  0  0  0  0  0  0  0  0  0  0  0
   -2.5228   -0.2842    0.2792 N   0  0  0  0  0  0  0  0  0  0  0  0
    1.2453   -0.4662   -0.3330 C   0  0  0  0  0  0  0  0  0  0  0  0
   -0.1512   -0.8048    0.1601 C   0  0  0  0  0  0  0  0  0  0  0  0
   -1.2393    0.1627   -0.2731 C   0  0  0  0  0  0  0  0  0  0  0  0
    1.7942    0.8703    0.1022 C   0  0  0  0  0  0  0  0  0  0  0  0
   -3.4348    0.3910   -0.0170 C   0  0  0  0  0  0  0  0  0  0  0  0
   -1.0297    1.1679    0.1078 H   0  0  0  0  0  0  0  0  0  0  0  0
   -1.2873    0.1967   -1.3692 H   0  0  0  0  0  0  0  0  0  0  0  0
  1 10  1  0  0  0  0
  2 10  1  0  0  0  0
  3 11  1  0  0  0  0
  4 11  1  0  0  0  0
  5 13  1  0  0  0  0
  6 13  1  0  0  0  0
  7 13  1  0  0  0  0
  8 14  2  0  0  0  0
  9 12  1  0  0  0  0
  9 14  2  0  0  0  0
 10 11  1  0  0  0  0
 10 13  1  0  0  0  0
 11 12  1  0  0  0  0
 12 15  1  0  0  0  0
 12 16  1  0  0  0  0
M  END
> <PUBCHEM_COMPOUND_CID>
9780

> <PUBCHEM_CONFORMER_RMSD>
0.6

> <PUBCHEM_CONFORMER_DIVERSEORDER>
2
28
14
26
18
6
27
8
3
23
19
24
22
9
21
15
5
25
4
13
20
7
1
10
12
16
11
17

> <PUBCHEM_MMFF94_PARTIAL_CHARGES>
14
1 -0.34
10 0.68
11 0.68
12 0.25
13 1.02
14 0.79
2 -0.34
3 -0.34
4 -0.34
5 -0.34
6 -0.34
7 -0.34
8 -0.49
9 -0.55

> <PUBCHEM_EFFECTIVE_ROTOR_COUNT>
4

> <PUBCHEM_PHARMACOPHORE_FEATURES>
1
1 9 acceptor

> <PUBCHEM_HEAVY_ATOM_COUNT>
14

> <PUBCHEM_ATOM_DEF_STEREO_COUNT>
0

> <PUBCHEM_ATOM_UDEF_STEREO_COUNT>
0

> <PUBCHEM_BOND_DEF_STEREO_COUNT>
0

> <PUBCHEM_BOND_UDEF_STEREO_COUNT>
0

> <PUBCHEM_ISOTOPIC_ATOM_COUNT>
0

> <PUBCHEM_COMPONENT_COUNT>
1

> <PUBCHEM_CACTVS_TAUTO_COUNT>
1

> <PUBCHEM_CONFORMER_ID>
0000263400000002

> <PUBCHEM_MMFF94_ENERGY>
8.2442

> <PUBCHEM_FEATURE_SELFOVERLAP>
5.074

> <PUBCHEM_SHAPE_FINGERPRINT>
12138202 97 18116143385663835423
12423570 1 4724474883752175846
12654215 9 18199197359027027317
12897270 3 17095239190174207865
13571099 52 18188497852304801176
13922767 16 18336272348179612179
14325111 11 18411699872664028295
15775835 57 18202283589334226917
16945 1 18266751177032312254
18186145 218 18260535749939136115
20606313 2 18409451409929441645
21947302 44 18334293162783005273
230 275 18410009935945079385
23235685 24 18411141290302301212
23402539 116 18261402134583580020
23402655 69 18261117413355554573
276578 36 16989124261862122464
305870 269 18343871012894130611
5084963 1 17631726183542672567

> <PUBCHEM_SHAPE_MULTIPOLES>
226.35
5.02
1.54
1.02
5.58
0.13
0.09
-2.15
-0.35
-0.54
-0.03
-0.44
0.07
0.23

> <PUBCHEM_SHAPE_SELFOVERLAP>
465.376

> <PUBCHEM_SHAPE_VOLUME>
128.7

> <PUBCHEM_COORDINATE_TYPE>
2
5
10

$$$$

