3590
  -OEChem-06251223322D

 29 28  0     1  0  0  0  0  0999 V2000
    2.5369   -0.5600    0.0000 O   0  0  0  0  0  0  0  0  0  0  0  0
    7.7331    0.4400    0.0000 N   0  0  0  0  0  0  0  0  0  0  0  0
    4.2690    0.4400    0.0000 C   0  0  0  0  0  0  0  0  0  0  0  0
    3.4030   -0.0600    0.0000 C   0  0  0  0  0  0  0  0  0  0  0  0
    5.1350   -0.0600    0.0000 C   0  0  0  0  0  0  0  0  0  0  0  0
    6.0010    0.4400    0.0000 C   0  0  0  0  0  0  0  0  0  0  0  0
    6.8671   -0.0600    0.0000 C   0  0  3  0  0  0  0  0  0  0  0  0
    2.9030    0.8060    0.0000 C   0  0  0  0  0  0  0  0  0  0  0  0
    3.9030   -0.9260    0.0000 C   0  0  0  0  0  0  0  0  0  0  0  0
    6.8671   -1.0600    0.0000 C   0  0  0  0  0  0  0  0  0  0  0  0
    4.6675    0.9149    0.0000 H   0  0  0  0  0  0  0  0  0  0  0  0
    3.8705    0.9149    0.0000 H   0  0  0  0  0  0  0  0  0  0  0  0
    4.7365   -0.5349    0.0000 H   0  0  0  0  0  0  0  0  0  0  0  0
    5.5335   -0.5349    0.0000 H   0  0  0  0  0  0  0  0  0  0  0  0
    6.3996    0.9149    0.0000 H   0  0  0  0  0  0  0  0  0  0  0  0
    5.6025    0.9149    0.0000 H   0  0  0  0  0  0  0  0  0  0  0  0
    7.6032   -0.4850    0.0000 H   0  0  0  0  0  0  0  0  0  0  0  0
    3.4399    1.1160    0.0000 H   0  0  0  0  0  0  0  0  0  0  0  0
    2.5930    1.3430    0.0000 H   0  0  0  0  0  0  0  0  0  0  0  0
    2.3660    0.4960    0.0000 H   0  0  0  0  0  0  0  0  0  0  0  0
    3.3660   -1.2360    0.0000 H   0  0  0  0  0  0  0  0  0  0  0  0
    4.2130   -1.4630    0.0000 H   0  0  0  0  0  0  0  0  0  0  0  0
    4.4399   -0.6160    0.0000 H   0  0  0  0  0  0  0  0  0  0  0  0
    6.2471   -1.0600    0.0000 H   0  0  0  0  0  0  0  0  0  0  0  0
    6.8671   -1.6800    0.0000 H   0  0  0  0  0  0  0  0  0  0  0  0
    7.4871   -1.0600    0.0000 H   0  0  0  0  0  0  0  0  0  0  0  0
    2.0000   -0.2500    0.0000 H   0  0  0  0  0  0  0  0  0  0  0  0
    8.2700    0.1300    0.0000 H   0  0  0  0  0  0  0  0  0  0  0  0
    7.7331    1.0600    0.0000 H   0  0  0  0  0  0  0  0  0  0  0  0
  1  4  1  0  0  0  0
  1 27  1  0  0  0  0
  2  7  1  0  0  0  0
  2 28  1  0  0  0  0
  2 29  1  0  0  0  0
  3  4  1  0  0  0  0
  3  5  1  0  0  0  0
  3 11  1  0  0  0  0
  3 12  1  0  0  0  0
  4  8  1  0  0  0  0
  4  9  1  0  0  0  0
  5  6  1  0  0  0  0
  5 13  1  0  0  0  0
  5 14  1  0  0  0  0
  6  7  1  0  0  0  0
  6 15  1  0  0  0  0
  6 16  1  0  0  0  0
  7 10  1  0  0  0  0
  7 17  1  0  0  0  0
  8 18  1  0  0  0  0
  8 19  1  0  0  0  0
  8 20  1  0  0  0  0
  9 21  1  0  0  0  0
  9 22  1  0  0  0  0
  9 23  1  0  0  0  0
 10 24  1  0  0  0  0
 10 25  1  0  0  0  0
 10 26  1  0  0  0  0
M  END
> <PUBCHEM_COMPOUND_CID>
3590

> <PUBCHEM_COMPOUND_CANONICALIZED>
1

> <PUBCHEM_CACTVS_COMPLEXITY>
91.3

> <PUBCHEM_CACTVS_HBOND_ACCEPTOR>
2

> <PUBCHEM_CACTVS_HBOND_DONOR>
2

> <PUBCHEM_CACTVS_ROTATABLE_BOND>
4

> <PUBCHEM_CACTVS_SUBSKEYS>
AAADceByIAAAAAAAAAAAAAAAAAAAAAAAAAAAAAAAAAAAAAAAAAAAHgAQCAAADGzBgAQCAABAAgAAAAAAAAAAAAAAAAAAAIAAAAAAAAIAgAAAQAAEEAAAAAGQ0EEMAAAAAAAAAAAAAAAAAAAAAAAAAAAAAA==

> <PUBCHEM_IUPAC_OPENEYE_NAME>
6-amino-2-methyl-heptan-2-ol

> <PUBCHEM_IUPAC_CAS_NAME>
6-amino-2-methyl-2-heptanol

> <PUBCHEM_IUPAC_NAME>
6-amino-2-methylheptan-2-ol

> <PUBCHEM_IUPAC_SYSTEMATIC_NAME>
6-azanyl-2-methyl-heptan-2-ol

> <PUBCHEM_IUPAC_TRADITIONAL_NAME>
6-amino-2-methyl-heptan-2-ol

> <PUBCHEM_IUPAC_INCHI>
InChI=1S/C8H19NO/c1-7(9)5-4-6-8(2,3)10/h7,10H,4-6,9H2,1-3H3

> <PUBCHEM_IUPAC_INCHIKEY>
LREQLEBVOXIEOM-UHFFFAOYSA-N

> <PUBCHEM_XLOGP3_AA>
0.7

> <PUBCHEM_EXACT_MASS>
145.146664

> <PUBCHEM_MOLECULAR_FORMULA>
C8H19NO

> <PUBCHEM_MOLECULAR_WEIGHT>
145.24256

> <PUBCHEM_OPENEYE_CAN_SMILES>
CC(CCCC(C)(C)O)N

> <PUBCHEM_OPENEYE_ISO_SMILES>
CC(CCCC(C)(C)O)N

> <PUBCHEM_CACTVS_TPSA>
46.2

> <PUBCHEM_MONOISOTOPIC_WEIGHT>
145.146664

> <PUBCHEM_TOTAL_CHARGE>
0

> <PUBCHEM_HEAVY_ATOM_COUNT>
10

> <PUBCHEM_ATOM_DEF_STEREO_COUNT>
0

> <PUBCHEM_ATOM_UDEF_STEREO_COUNT>
1

> <PUBCHEM_BOND_DEF_STEREO_COUNT>
0

> <PUBCHEM_BOND_UDEF_STEREO_COUNT>
0

> <PUBCHEM_ISOTOPIC_ATOM_COUNT>
0

> <PUBCHEM_COMPONENT_COUNT>
1

> <PUBCHEM_CACTVS_TAUTO_COUNT>
1

> <PUBCHEM_COORDINATE_TYPE>
1
5
255

> <PUBCHEM_BONDANNOTATIONS>
7  17  3

$$$$

