442328
  -OEChem-07051212573D

 39 43  0     1  0  0  0  0  0999 V2000
    0.9824   -2.8040    0.2035 O   0  0  0  0  0  0  0  0  0  0  0  0
   -1.1448   -3.9112    0.1534 O   0  0  0  0  0  0  0  0  0  0  0  0
    4.9493   -0.1663   -0.6571 O   0  0  0  0  0  0  0  0  0  0  0  0
   -2.4160    2.3660    0.1682 N   0  0  2  0  0  0  0  0  0  0  0  0
   -1.1184    1.7278   -0.1731 C   0  0  2  0  0  0  0  0  0  0  0  0
   -1.1576    0.1963   -0.0829 C   0  0  0  0  0  0  0  0  0  0  0  0
    0.0203    2.2408    0.7383 C   0  0  0  0  0  0  0  0  0  0  0  0
   -2.4045   -0.4804   -0.1118 C   0  0  0  0  0  0  0  0  0  0  0  0
    0.0686   -0.5241   -0.0194 C   0  0  0  0  0  0  0  0  0  0  0  0
   -3.5011    1.7360   -0.6000 C   0  0  0  0  0  0  0  0  0  0  0  0
   -3.6937    0.2934   -0.1445 C   0  0  0  0  0  0  0  0  0  0  0  0
    1.3349    1.5809    0.3858 C   0  0  0  0  0  0  0  0  0  0  0  0
    1.3477    0.2220    0.0003 C   0  0  0  0  0  0  0  0  0  0  0  0
   -0.0416   -1.9110    0.0642 C   0  0  0  0  0  0  0  0  0  0  0  0
   -2.4520   -1.8761   -0.0384 C   0  0  0  0  0  0  0  0  0  0  0  0
   -1.2600   -2.5581    0.0510 C   0  0  0  0  0  0  0  0  0  0  0  0
   -2.4138    3.8074   -0.1041 C   0  0  0  0  0  0  0  0  0  0  0  0
    2.5267    2.3180    0.4659 C   0  0  0  0  0  0  0  0  0  0  0  0
    2.5848   -0.3364   -0.3646 C   0  0  0  0  0  0  0  0  0  0  0  0
    0.2817   -4.0592    0.2421 C   0  0  0  0  0  0  0  0  0  0  0  0
    3.7672    0.4076   -0.3006 C   0  0  0  0  0  0  0  0  0  0  0  0
    3.7398    1.7305    0.1239 C   0  0  0  0  0  0  0  0  0  0  0  0
   -0.8715    1.9622   -1.2203 H   0  0  0  0  0  0  0  0  0  0  0  0
   -0.1986    2.0374    1.7950 H   0  0  0  0  0  0  0  0  0  0  0  0
    0.1386    3.3238    0.6263 H   0  0  0  0  0  0  0  0  0  0  0  0
   -3.2909    1.7743   -1.6777 H   0  0  0  0  0  0  0  0  0  0  0  0
   -4.4486    2.2651   -0.4376 H   0  0  0  0  0  0  0  0  0  0  0  0
   -4.4053   -0.1969   -0.8197 H   0  0  0  0  0  0  0  0  0  0  0  0
   -4.1272    0.2800    0.8638 H   0  0  0  0  0  0  0  0  0  0  0  0
   -3.3983   -2.4070   -0.0363 H   0  0  0  0  0  0  0  0  0  0  0  0
   -2.1452    4.0318   -1.1425 H   0  0  0  0  0  0  0  0  0  0  0  0
   -1.7280    4.3404    0.5606 H   0  0  0  0  0  0  0  0  0  0  0  0
   -3.4027    4.2383    0.0926 H   0  0  0  0  0  0  0  0  0  0  0  0
    2.5113    3.3569    0.7852 H   0  0  0  0  0  0  0  0  0  0  0  0
    2.6548   -1.3593   -0.7241 H   0  0  0  0  0  0  0  0  0  0  0  0
    0.5256   -4.5690    1.1811 H   0  0  0  0  0  0  0  0  0  0  0  0
    0.6250   -4.6799   -0.5934 H   0  0  0  0  0  0  0  0  0  0  0  0
    4.6524    2.3168    0.1827 H   0  0  0  0  0  0  0  0  0  0  0  0
    5.6617    0.4879   -0.5537 H   0  0  0  0  0  0  0  0  0  0  0  0
  1 14  1  0  0  0  0
  1 20  1  0  0  0  0
  2 16  1  0  0  0  0
  2 20  1  0  0  0  0
  3 21  1  0  0  0  0
  3 39  1  0  0  0  0
  4  5  1  0  0  0  0
  4 10  1  0  0  0  0
  4 17  1  0  0  0  0
  5  6  1  0  0  0  0
  5  7  1  0  0  0  0
  5 23  1  0  0  0  0
  6  8  1  0  0  0  0
  6  9  2  0  0  0  0
  7 12  1  0  0  0  0
  7 24  1  0  0  0  0
  7 25  1  0  0  0  0
  8 11  1  0  0  0  0
  8 15  2  0  0  0  0
  9 13  1  0  0  0  0
  9 14  1  0  0  0  0
 10 11  1  0  0  0  0
 10 26  1  0  0  0  0
 10 27  1  0  0  0  0
 11 28  1  0  0  0  0
 11 29  1  0  0  0  0
 12 13  2  0  0  0  0
 12 18  1  0  0  0  0
 13 19  1  0  0  0  0
 14 16  2  0  0  0  0
 15 16  1  0  0  0  0
 15 30  1  0  0  0  0
 17 31  1  0  0  0  0
 17 32  1  0  0  0  0
 17 33  1  0  0  0  0
 18 22  2  0  0  0  0
 18 34  1  0  0  0  0
 19 21  2  0  0  0  0
 19 35  1  0  0  0  0
 20 36  1  0  0  0  0
 20 37  1  0  0  0  0
 21 22  1  0  0  0  0
 22 38  1  0  0  0  0
M  END
> <PUBCHEM_COMPOUND_CID>
442328

> <PUBCHEM_CONFORMER_RMSD>
0.6

> <PUBCHEM_CONFORMER_DIVERSEORDER>
1

> <PUBCHEM_MMFF94_PARTIAL_CHARGES>
25
1 -0.36
10 0.27
11 0.14
12 -0.14
14 0.08
15 -0.15
16 0.08
17 0.27
18 -0.15
19 -0.15
2 -0.36
20 0.56
21 0.08
22 -0.15
3 -0.53
30 0.15
34 0.15
35 0.15
38 0.15
39 0.45
4 -0.81
5 0.41
6 -0.14
7 0.14
8 -0.14

> <PUBCHEM_EFFECTIVE_ROTOR_COUNT>
1.4

> <PUBCHEM_PHARMACOPHORE_FEATURES>
9
1 1 acceptor
1 2 acceptor
1 3 donor
1 4 cation
5 1 2 14 16 20 rings
6 12 13 18 19 21 22 rings
6 4 5 6 8 10 11 rings
6 5 6 7 9 12 13 rings
6 6 8 9 14 15 16 rings

> <PUBCHEM_HEAVY_ATOM_COUNT>
22

> <PUBCHEM_ATOM_DEF_STEREO_COUNT>
1

> <PUBCHEM_ATOM_UDEF_STEREO_COUNT>
0

> <PUBCHEM_BOND_DEF_STEREO_COUNT>
0

> <PUBCHEM_BOND_UDEF_STEREO_COUNT>
0

> <PUBCHEM_ISOTOPIC_ATOM_COUNT>
0

> <PUBCHEM_COMPONENT_COUNT>
1

> <PUBCHEM_CACTVS_TAUTO_COUNT>
3

> <PUBCHEM_CONFORMER_ID>
0006BFD800000001

> <PUBCHEM_MMFF94_ENERGY>
64.6833

> <PUBCHEM_FEATURE_SELFOVERLAP>
45.913

> <PUBCHEM_SHAPE_FINGERPRINT>
10319926 262 18118708538872881256
10411042 1 17546446674745581018
10693767 8 17825129029513757799
10967382 1 17473546231655257817
1100329 8 17835238948789013243
12173636 292 18411705378321940037
12403259 226 18118123571824615258
12553582 1 17331113897660253742
12730499 353 18268712891320364245
12788726 201 17912086049657579888
13140716 1 18338230445355510587
138480 1 17402051596181836723
14251757 5 18195508330312463620
14790565 3 18410281502833840441
15042514 8 18268990873665522611
16752209 62 18410863152741630200
16945 1 18338242656021450801
19591789 44 18410571816256309259
20028762 73 17899691268348737007
20510252 161 18335701577138399721
20642791 178 17909261730650596394
20775438 99 16528957493446934063
20905425 154 18118122695788339765
23184049 29 17907303152428038898
2334 1 18050008792287625451
23366157 5 17698154393920911411
23557571 272 18046897187588110220
23559900 14 18334012758160681472
23566358 2 18118117202277267975
238 59 17408565013071222005
25147074 1 17609229192867084749
2748010 2 17975983055071428001
3071541 12 17906453586348142103
3084891 72 18408890628644218010
3091708 16 9196626953490943011
335352 9 18409729569148968236
350125 39 18339921640268054209
352729 6 18411136909340356433
43471831 8 18340209707924456395
54173680 148 18194965128033073928
6138700 20 18049156967730846598
7364860 26 17978513362134478359
81228 2 17904774275615465635
84936 182 18119536684732046889
8809292 202 18336542707991989772
9709674 26 18190460459449613172
9981440 41 18341055219365237843

> <PUBCHEM_SHAPE_MULTIPOLES>
430.16
6.16
4.82
0.7
4.73
2.73
0
-3.05
1.11
-2.65
-0.53
0.09
-0.11
0.46

> <PUBCHEM_SHAPE_SELFOVERLAP>
976.516

> <PUBCHEM_SHAPE_VOLUME>
224

> <PUBCHEM_COORDINATE_TYPE>
2
5
10

$$$$

