23724523
  -OEChem-07051213032D

 72 75  0     1  0  0  0  0  0999 V2000
    9.7942    1.3546    0.0000 S   0  0  0  0  0  0  0  0  0  0  0  0
    2.8660    1.3546    0.0000 S   0  0  0  0  0  0  0  0  0  0  0  0
    8.9282    5.8546    0.0000 Na  0  3  0  0  0  0  0  0  0  0  0  0
   12.3742    3.5673    0.0000 O   0  0  0  0  0  0  0  0  0  0  0  0
   13.6014    2.3641    0.0000 O   0  0  0  0  0  0  0  0  0  0  0  0
    8.9282    4.8546    0.0000 O   0  5  0  0  0  0  0  0  0  0  0  0
   10.6603    4.8546    0.0000 O   0  0  0  0  0  0  0  0  0  0  0  0
   15.4576   -0.7269    0.0000 O   0  0  0  0  0  0  0  0  0  0  0  0
    2.0000    0.8546    0.0000 O   0  5  0  0  0  0  0  0  0  0  0  0
    2.3660    2.2206    0.0000 O   0  0  0  0  0  0  0  0  0  0  0  0
    3.3660    0.4886    0.0000 O   0  0  0  0  0  0  0  0  0  0  0  0
   14.0372   -5.2753    0.0000 O   0  0  0  0  0  0  0  0  0  0  0  0
   15.6555   -4.6579    0.0000 O   0  0  0  0  0  0  0  0  0  0  0  0
   10.6603    2.8546    0.0000 N   0  0  0  0  0  0  0  0  0  0  0  0
   12.3742    1.1419    0.0000 N   0  0  0  0  0  0  0  0  0  0  0  0
    7.1962    2.8546    0.0000 N   0  3  0  0  0  0  0  0  0  0  0  0
   13.7855   -0.2752    0.0000 N   0  0  0  0  0  0  0  0  0  0  0  0
   14.8581   -2.7276    0.0000 N   0  0  0  0  0  0  0  0  0  0  0  0
   13.3463   -3.3044    0.0000 N   0  0  0  0  0  0  0  0  0  0  0  0
   10.6603    1.8546    0.0000 C   0  0  1  0  0  0  0  0  0  0  0  0
   11.6685    1.8504    0.0000 C   0  0  1  0  0  0  0  0  0  0  0  0
   11.6685    2.8587    0.0000 C   0  0  0  0  0  0  0  0  0  0  0  0
    9.7942    3.3546    0.0000 C   0  0  0  0  0  0  0  0  0  0  0  0
    8.9282    2.8546    0.0000 C   0  0  0  0  0  0  0  0  0  0  0  0
    8.9282    1.8546    0.0000 C   0  0  0  0  0  0  0  0  0  0  0  0
    8.0622    3.3546    0.0000 C   0  0  0  0  0  0  0  0  0  0  0  0
   13.3406    1.3987    0.0000 C   0  0  0  0  0  0  0  0  0  0  0  0
    9.7942    4.3546    0.0000 C   0  0  0  0  0  0  0  0  0  0  0  0
   14.0463    0.6902    0.0000 C   0  0  1  0  0  0  0  0  0  0  0  0
   15.0127    0.9470    0.0000 C   0  0  0  0  0  0  0  0  0  0  0  0
    6.3301    3.3546    0.0000 C   0  0  0  0  0  0  0  0  0  0  0  0
    7.1962    1.8546    0.0000 C   0  0  0  0  0  0  0  0  0  0  0  0
    5.4641    1.8546    0.0000 C   0  0  0  0  0  0  0  0  0  0  0  0
    5.4641    2.8546    0.0000 C   0  0  0  0  0  0  0  0  0  0  0  0
    6.3301    1.3546    0.0000 C   0  0  0  0  0  0  0  0  0  0  0  0
   15.7184    0.2384    0.0000 C   0  0  0  0  0  0  0  0  0  0  0  0
   15.2736    1.9124    0.0000 C   0  0  0  0  0  0  0  0  0  0  0  0
    4.5981    1.3546    0.0000 C   0  0  0  0  0  0  0  0  0  0  0  0
   14.4911   -0.9838    0.0000 C   0  0  0  0  0  0  0  0  0  0  0  0
    3.7320    1.8546    0.0000 C   0  0  0  0  0  0  0  0  0  0  0  0
   16.6849    0.4953    0.0000 C   0  0  0  0  0  0  0  0  0  0  0  0
   16.2400    2.1692    0.0000 C   0  0  0  0  0  0  0  0  0  0  0  0
   14.2303   -1.9492    0.0000 C   0  0  0  0  0  0  0  0  0  0  0  0
   16.9457    1.4607    0.0000 C   0  0  0  0  0  0  0  0  0  0  0  0
   13.2960   -2.3056    0.0000 C   0  0  0  0  0  0  0  0  0  0  0  0
   14.3117   -3.5652    0.0000 C   0  0  0  0  0  0  0  0  0  0  0  0
   14.6681   -4.4995    0.0000 C   0  0  0  0  0  0  0  0  0  0  0  0
   10.8786    1.0331    0.0000 H   0  0  0  0  0  0  0  0  0  0  0  0
   11.4295    1.2784    0.0000 H   0  0  0  0  0  0  0  0  0  0  0  0
    8.3176    1.9623    0.0000 H   0  0  0  0  0  0  0  0  0  0  0  0
    8.7162    1.2720    0.0000 H   0  0  0  0  0  0  0  0  0  0  0  0
   12.2125    0.5434    0.0000 H   0  0  0  0  0  0  0  0  0  0  0  0
    8.4607    3.8296    0.0000 H   0  0  0  0  0  0  0  0  0  0  0  0
    7.6636    3.8296    0.0000 H   0  0  0  0  0  0  0  0  0  0  0  0
   14.4838    0.2509    0.0000 H   0  0  0  0  0  0  0  0  0  0  0  0
    6.3301    3.9746    0.0000 H   0  0  0  0  0  0  0  0  0  0  0  0
    7.7331    1.5446    0.0000 H   0  0  0  0  0  0  0  0  0  0  0  0
   13.1863   -0.4345    0.0000 H   0  0  0  0  0  0  0  0  0  0  0  0
    4.9272    3.1646    0.0000 H   0  0  0  0  0  0  0  0  0  0  0  0
    6.3301    0.7346    0.0000 H   0  0  0  0  0  0  0  0  0  0  0  0
   15.5567   -0.3601    0.0000 H   0  0  0  0  0  0  0  0  0  0  0  0
   14.8360    2.3517    0.0000 H   0  0  0  0  0  0  0  0  0  0  0  0
    4.1996    0.8797    0.0000 H   0  0  0  0  0  0  0  0  0  0  0  0
    4.9966    0.8797    0.0000 H   0  0  0  0  0  0  0  0  0  0  0  0
    4.1306    2.3295    0.0000 H   0  0  0  0  0  0  0  0  0  0  0  0
    3.3335    2.3295    0.0000 H   0  0  0  0  0  0  0  0  0  0  0  0
   17.1224    0.0560    0.0000 H   0  0  0  0  0  0  0  0  0  0  0  0
   16.4017    2.7678    0.0000 H   0  0  0  0  0  0  0  0  0  0  0  0
   17.5449    1.6199    0.0000 H   0  0  0  0  0  0  0  0  0  0  0  0
   15.4773   -2.6964    0.0000 H   0  0  0  0  0  0  0  0  0  0  0  0
   12.7767   -1.9669    0.0000 H   0  0  0  0  0  0  0  0  0  0  0  0
   14.2582   -5.8546    0.0000 H   0  0  0  0  0  0  0  0  0  0  0  0
  1 20  1  0  0  0  0
  1 25  1  0  0  0  0
  2  9  1  0  0  0  0
  2 10  2  0  0  0  0
  2 11  2  0  0  0  0
  2 40  1  0  0  0  0
  4 22  2  0  0  0  0
  5 27  2  0  0  0  0
  6 28  1  0  0  0  0
  7 28  2  0  0  0  0
  8 39  2  0  0  0  0
 12 47  1  0  0  0  0
 12 72  1  0  0  0  0
 13 47  2  0  0  0  0
 14 20  1  0  0  0  0
 14 22  1  0  0  0  0
 14 23  1  0  0  0  0
 21 15  1  1  0  0  0
 15 27  1  0  0  0  0
 15 52  1  0  0  0  0
 16 26  1  0  0  0  0
 16 31  2  0  0  0  0
 16 32  1  0  0  0  0
 29 17  1  1  0  0  0
 17 39  1  0  0  0  0
 17 58  1  0  0  0  0
 18 43  1  0  0  0  0
 18 46  1  0  0  0  0
 18 70  1  0  0  0  0
 19 45  1  0  0  0  0
 19 46  2  0  0  0  0
 20 21  1  0  0  0  0
 20 48  1  6  0  0  0
 21 22  1  0  0  0  0
 21 49  1  0  0  0  0
 23 24  2  0  0  0  0
 23 28  1  0  0  0  0
 24 25  1  0  0  0  0
 24 26  1  0  0  0  0
 25 50  1  0  0  0  0
 25 51  1  0  0  0  0
 26 53  1  0  0  0  0
 26 54  1  0  0  0  0
 27 29  1  0  0  0  0
 29 30  1  0  0  0  0
 29 55  1  0  0  0  0
 30 36  2  0  0  0  0
 30 37  1  0  0  0  0
 31 34  1  0  0  0  0
 31 56  1  0  0  0  0
 32 35  2  0  0  0  0
 32 57  1  0  0  0  0
 33 34  2  0  0  0  0
 33 35  1  0  0  0  0
 33 38  1  0  0  0  0
 34 59  1  0  0  0  0
 35 60  1  0  0  0  0
 36 41  1  0  0  0  0
 36 61  1  0  0  0  0
 37 42  2  0  0  0  0
 37 62  1  0  0  0  0
 38 40  1  0  0  0  0
 38 63  1  0  0  0  0
 38 64  1  0  0  0  0
 39 43  1  0  0  0  0
 40 65  1  0  0  0  0
 40 66  1  0  0  0  0
 41 44  2  0  0  0  0
 41 67  1  0  0  0  0
 42 44  1  0  0  0  0
 42 68  1  0  0  0  0
 43 45  2  0  0  0  0
 44 69  1  0  0  0  0
 45 71  1  0  0  0  0
 46 47  1  0  0  0  0
M  CHG  4   3   1   6  -1   9  -1  16   1
M  END
> <PUBCHEM_COMPOUND_CID>
23724523

> <PUBCHEM_COMPOUND_CANONICALIZED>
1

> <PUBCHEM_CACTVS_COMPLEXITY>
1340

> <PUBCHEM_CACTVS_HBOND_ACCEPTOR>
12

> <PUBCHEM_CACTVS_HBOND_DONOR>
4

> <PUBCHEM_CACTVS_ROTATABLE_BOND>
10

> <PUBCHEM_CACTVS_SUBSKEYS>
AAADceB7vCBgAAAAAAAAAAAAAABYAWAAAAA8QIAAAAAQAAAB8AAAHgQQCAAADCjF3wS9mJfNkgqoAzf3fHTCgC33ErAJ2aG4dNiKbHrg3bGUMIholgL4yecYiICOAAAAAAAAAAAAAAAAAAAAAAAAAAAAAA==

> <PUBCHEM_IUPAC_OPENEYE_NAME>
sodium (6R,7R)-7-[[(2R)-2-[(2-carboxy-1H-imidazole-5-carbonyl)amino]-2-phenyl-acetyl]amino]-8-oxo-3-[[4-(2-sulfonatoethyl)pyridin-1-ium-1-yl]methyl]-5-thia-1-azabicyclo[4.2.0]oct-2-ene-2-carboxylate

> <PUBCHEM_IUPAC_CAS_NAME>
sodium (6R,7R)-7-[[(2R)-2-[[(2-carboxy-1H-imidazol-5-yl)-oxomethyl]amino]-1-oxo-2-phenylethyl]amino]-8-oxo-3-[[4-(2-sulfonatoethyl)-1-pyridin-1-iumyl]methyl]-5-thia-1-azabicyclo[4.2.0]oct-2-ene-2-carboxylate

> <PUBCHEM_IUPAC_NAME>
sodium (6R,7R)-7-[[(2R)-2-[(2-carboxy-1H-imidazole-5-carbonyl)amino]-2-phenylacetyl]amino]-8-oxo-3-[[4-(2-sulfonatoethyl)pyridin-1-ium-1-yl]methyl]-5-thia-1-azabicyclo[4.2.0]oct-2-ene-2-carboxylate

> <PUBCHEM_IUPAC_SYSTEMATIC_NAME>
sodium (6R,7R)-7-[[(2R)-2-[(2-carboxy-1H-imidazol-5-yl)carbonylamino]-2-phenyl-ethanoyl]amino]-8-oxidanylidene-3-[[4-(2-sulfonatoethyl)pyridin-1-ium-1-yl]methyl]-5-thia-1-azabicyclo[4.2.0]oct-2-ene-2-carboxylate

> <PUBCHEM_IUPAC_TRADITIONAL_NAME>
sodium (6R,7R)-7-[[(2R)-2-[(2-carboxy-1H-imidazole-5-carbonyl)amino]-2-phenyl-acetyl]amino]-8-keto-3-[[4-(2-sulfonatoethyl)pyridin-1-ium-1-yl]methyl]-5-thia-1-azabicyclo[4.2.0]oct-2-ene-2-carboxylate

> <PUBCHEM_IUPAC_INCHI>
InChI=1S/C28H26N6O10S2.Na/c35-23(18-12-29-22(30-18)28(40)41)31-19(16-4-2-1-3-5-16)24(36)32-20-25(37)34-21(27(38)39)17(14-45-26(20)34)13-33-9-6-15(7-10-33)8-11-46(42,43)44;/h1-7,9-10,12,19-20,26H,8,11,13-14H2,(H5-,29,30,31,32,35,36,38,39,40,41,42,43,44);/q;+1/p-1/t19-,20-,26-;/m1./s1

> <PUBCHEM_IUPAC_INCHIKEY>
AFRHBNZCLNRBKP-USSRSQKSSA-M

> <PUBCHEM_EXACT_MASS>
692.097127

> <PUBCHEM_MOLECULAR_FORMULA>
C28H25N6NaO10S2

> <PUBCHEM_MOLECULAR_WEIGHT>
692.652069

> <PUBCHEM_OPENEYE_CAN_SMILES>
C1C(=C(N2C(S1)C(C2=O)NC(=O)C(C3=CC=CC=C3)NC(=O)C4=CN=C(N4)C(=O)O)C(=O)[O-])C[N+]5=CC=C(C=C5)CCS(=O)(=O)[O-].[Na+]

> <PUBCHEM_OPENEYE_ISO_SMILES>
C1C(=C(N2[C@H](S1)[C@@H](C2=O)NC(=O)[C@@H](C3=CC=CC=C3)NC(=O)C4=CN=C(N4)C(=O)O)C(=O)[O-])C[N+]5=CC=C(C=C5)CCS(=O)(=O)[O-].[Na+]

> <PUBCHEM_CACTVS_TPSA>
279

> <PUBCHEM_MONOISOTOPIC_WEIGHT>
692.097127

> <PUBCHEM_TOTAL_CHARGE>
0

> <PUBCHEM_HEAVY_ATOM_COUNT>
47

> <PUBCHEM_ATOM_DEF_STEREO_COUNT>
3

> <PUBCHEM_ATOM_UDEF_STEREO_COUNT>
0

> <PUBCHEM_BOND_DEF_STEREO_COUNT>
0

> <PUBCHEM_BOND_UDEF_STEREO_COUNT>
0

> <PUBCHEM_ISOTOPIC_ATOM_COUNT>
0

> <PUBCHEM_COMPONENT_COUNT>
2

> <PUBCHEM_CACTVS_TAUTO_COUNT>
44

> <PUBCHEM_COORDINATE_TYPE>
1
5
255

> <PUBCHEM_BONDANNOTATIONS>
21  15  5
16  31  8
16  32  8
29  17  5
18  43  8
18  46  8
19  45  8
19  46  8
20  48  6
30  36  8
30  37  8
31  34  8
32  35  8
33  34  8
33  35  8
36  41  8
37  42  8
41  44  8
42  44  8
43  45  8

$$$$

