54886
  -OEChem-07051213012D

 58 59  0     1  0  0  0  0  0999 V2000
    3.7320   -0.2500    0.0000 S   0  0  0  0  0  0  0  0  0  0  0  0
    7.2764   -3.4453    0.0000 O   0  0  0  0  0  0  0  0  0  0  0  0
    5.4641   -2.2500    0.0000 O   0  0  0  0  0  0  0  0  0  0  0  0
    3.7320   -2.2500    0.0000 O   0  0  0  0  0  0  0  0  0  0  0  0
    5.4641    3.7500    0.0000 O   0  0  0  0  0  0  0  0  0  0  0  0
    6.3301    2.2500    0.0000 O   0  0  0  0  0  0  0  0  0  0  0  0
    3.7320    0.7500    0.0000 N   0  0  3  0  0  0  0  0  0  0  0  0
    4.5981   -0.7500    0.0000 N   0  0  0  0  0  0  0  0  0  0  0  0
    7.8600   -4.2500    0.0000 C   0  0  0  0  0  0  0  0  0  0  0  0
    7.2764   -5.0547    0.0000 C   0  0  0  0  0  0  0  0  0  0  0  0
    6.3301   -4.7500    0.0000 C   0  0  0  0  0  0  0  0  0  0  0  0
    6.3301   -3.7500    0.0000 C   0  0  0  0  0  0  0  0  0  0  0  0
    8.6690   -4.8378    0.0000 C   0  0  0  0  0  0  0  0  0  0  0  0
    8.6690   -3.6622    0.0000 C   0  0  0  0  0  0  0  0  0  0  0  0
    5.4641   -5.2500    0.0000 C   0  0  0  0  0  0  0  0  0  0  0  0
    5.4641   -3.2500    0.0000 C   0  0  0  0  0  0  0  0  0  0  0  0
    4.5981   -4.7500    0.0000 C   0  0  0  0  0  0  0  0  0  0  0  0
    4.5981   -3.7500    0.0000 C   0  0  0  0  0  0  0  0  0  0  0  0
    2.8660    1.2500    0.0000 C   0  0  0  0  0  0  0  0  0  0  0  0
    4.5981    1.2500    0.0000 C   0  0  0  0  0  0  0  0  0  0  0  0
    2.8660    2.2500    0.0000 C   0  0  0  0  0  0  0  0  0  0  0  0
    2.0000    0.7500    0.0000 C   0  0  0  0  0  0  0  0  0  0  0  0
    4.5981    2.2500    0.0000 C   0  0  0  0  0  0  0  0  0  0  0  0
    4.5981   -1.7500    0.0000 C   0  0  0  0  0  0  0  0  0  0  0  0
    5.4641    2.7500    0.0000 C   0  0  0  0  0  0  0  0  0  0  0  0
    5.4641   -0.2500    0.0000 C   0  0  0  0  0  0  0  0  0  0  0  0
    6.3301    4.2500    0.0000 C   0  0  0  0  0  0  0  0  0  0  0  0
    6.3301    5.2500    0.0000 C   0  0  0  0  0  0  0  0  0  0  0  0
    7.0253   -5.6216    0.0000 H   0  0  0  0  0  0  0  0  0  0  0  0
    7.8137   -5.3640    0.0000 H   0  0  0  0  0  0  0  0  0  0  0  0
    8.3046   -5.3394    0.0000 H   0  0  0  0  0  0  0  0  0  0  0  0
    9.1706   -5.2022    0.0000 H   0  0  0  0  0  0  0  0  0  0  0  0
    9.0334   -4.3362    0.0000 H   0  0  0  0  0  0  0  0  0  0  0  0
    9.0334   -4.1638    0.0000 H   0  0  0  0  0  0  0  0  0  0  0  0
    9.1706   -3.2978    0.0000 H   0  0  0  0  0  0  0  0  0  0  0  0
    8.3046   -3.1606    0.0000 H   0  0  0  0  0  0  0  0  0  0  0  0
    5.4641   -5.8700    0.0000 H   0  0  0  0  0  0  0  0  0  0  0  0
    4.0611   -5.0600    0.0000 H   0  0  0  0  0  0  0  0  0  0  0  0
    4.0611   -3.4400    0.0000 H   0  0  0  0  0  0  0  0  0  0  0  0
    2.8660    0.6300    0.0000 H   0  0  0  0  0  0  0  0  0  0  0  0
    4.8101    0.6674    0.0000 H   0  0  0  0  0  0  0  0  0  0  0  0
    5.2087    1.3577    0.0000 H   0  0  0  0  0  0  0  0  0  0  0  0
    1.6900    1.2869    0.0000 H   0  0  0  0  0  0  0  0  0  0  0  0
    1.4631    0.4400    0.0000 H   0  0  0  0  0  0  0  0  0  0  0  0
    2.3100    0.2131    0.0000 H   0  0  0  0  0  0  0  0  0  0  0  0
    3.4860    2.2500    0.0000 H   0  0  0  0  0  0  0  0  0  0  0  0
    2.8660    2.8700    0.0000 H   0  0  0  0  0  0  0  0  0  0  0  0
    2.2460    2.2500    0.0000 H   0  0  0  0  0  0  0  0  0  0  0  0
    4.3860    2.8326    0.0000 H   0  0  0  0  0  0  0  0  0  0  0  0
    3.9875    2.1423    0.0000 H   0  0  0  0  0  0  0  0  0  0  0  0
    5.7741   -0.7869    0.0000 H   0  0  0  0  0  0  0  0  0  0  0  0
    6.0010    0.0600    0.0000 H   0  0  0  0  0  0  0  0  0  0  0  0
    5.1541    0.2869    0.0000 H   0  0  0  0  0  0  0  0  0  0  0  0
    6.5422    3.6674    0.0000 H   0  0  0  0  0  0  0  0  0  0  0  0
    6.9407    4.3577    0.0000 H   0  0  0  0  0  0  0  0  0  0  0  0
    6.9501    5.2500    0.0000 H   0  0  0  0  0  0  0  0  0  0  0  0
    6.3301    5.8700    0.0000 H   0  0  0  0  0  0  0  0  0  0  0  0
    5.7101    5.2500    0.0000 H   0  0  0  0  0  0  0  0  0  0  0  0
  1  7  1  0  0  0  0
  1  8  1  0  0  0  0
  2  9  1  0  0  0  0
  2 12  1  0  0  0  0
  3 16  1  0  0  0  0
  3 24  1  0  0  0  0
  4 24  2  0  0  0  0
  5 25  1  0  0  0  0
  5 27  1  0  0  0  0
  6 25  2  0  0  0  0
  7 19  1  0  0  0  0
  7 20  1  0  0  0  0
  8 24  1  0  0  0  0
  8 26  1  0  0  0  0
  9 10  1  0  0  0  0
  9 13  1  0  0  0  0
  9 14  1  0  0  0  0
 10 11  1  0  0  0  0
 10 29  1  0  0  0  0
 10 30  1  0  0  0  0
 11 12  2  0  0  0  0
 11 15  1  0  0  0  0
 12 16  1  0  0  0  0
 13 31  1  0  0  0  0
 13 32  1  0  0  0  0
 13 33  1  0  0  0  0
 14 34  1  0  0  0  0
 14 35  1  0  0  0  0
 14 36  1  0  0  0  0
 15 17  2  0  0  0  0
 15 37  1  0  0  0  0
 16 18  2  0  0  0  0
 17 18  1  0  0  0  0
 17 38  1  0  0  0  0
 18 39  1  0  0  0  0
 19 21  1  0  0  0  0
 19 22  1  0  0  0  0
 19 40  1  0  0  0  0
 20 23  1  0  0  0  0
 20 41  1  0  0  0  0
 20 42  1  0  0  0  0
 21 46  1  0  0  0  0
 21 47  1  0  0  0  0
 21 48  1  0  0  0  0
 22 43  1  0  0  0  0
 22 44  1  0  0  0  0
 22 45  1  0  0  0  0
 23 25  1  0  0  0  0
 23 49  1  0  0  0  0
 23 50  1  0  0  0  0
 26 51  1  0  0  0  0
 26 52  1  0  0  0  0
 26 53  1  0  0  0  0
 27 28  1  0  0  0  0
 27 54  1  0  0  0  0
 27 55  1  0  0  0  0
 28 56  1  0  0  0  0
 28 57  1  0  0  0  0
 28 58  1  0  0  0  0
M  END
> <PUBCHEM_COMPOUND_CID>
54886

> <PUBCHEM_COMPOUND_CANONICALIZED>
1

> <PUBCHEM_CACTVS_COMPLEXITY>
543

> <PUBCHEM_CACTVS_HBOND_ACCEPTOR>
7

> <PUBCHEM_CACTVS_HBOND_DONOR>
0

> <PUBCHEM_CACTVS_ROTATABLE_BOND>
10

> <PUBCHEM_CACTVS_SUBSKEYS>
AAADceB7OABAAAAAAAAAAAAAAAAAASAAAAAwAAAAAAAAAEgBAAAAHgAAQAAADGzhmAYyDoIABACIAiDSGAACCAAgIAAIiAEOiIgNJiqEMRqOOiKmwhGKqAeA4PwOAAABAAAIQAAAAAIAABCAAAAAAAAAAA==

> <PUBCHEM_IUPAC_OPENEYE_NAME>
ethyl 3-[[(2,2-dimethyl-3H-benzofuran-7-yl)oxycarbonyl-methyl-amino]sulfanyl-isopropyl-amino]propanoate

> <PUBCHEM_IUPAC_CAS_NAME>
3-[[[[(2,2-dimethyl-3H-benzofuran-7-yl)oxy-oxomethyl]-methylamino]thio]-propan-2-ylamino]propanoic acid ethyl ester

> <PUBCHEM_IUPAC_NAME>
ethyl 3-[[(2,2-dimethyl-3H-1-benzofuran-7-yl)oxycarbonyl-methylamino]sulfanyl-propan-2-ylamino]propanoate

> <PUBCHEM_IUPAC_SYSTEMATIC_NAME>
ethyl 3-[[(2,2-dimethyl-3H-1-benzofuran-7-yl)oxycarbonyl-methyl-amino]sulfanyl-propan-2-yl-amino]propanoate

> <PUBCHEM_IUPAC_TRADITIONAL_NAME>
3-[[[(2,2-dimethylcoumaran-7-yl)oxycarbonyl-methyl-amino]thio]-isopropyl-amino]propionic acid ethyl ester

> <PUBCHEM_IUPAC_INCHI>
InChI=1S/C20H30N2O5S/c1-7-25-17(23)11-12-22(14(2)3)28-21(6)19(24)26-16-10-8-9-15-13-20(4,5)27-18(15)16/h8-10,14H,7,11-13H2,1-6H3

> <PUBCHEM_IUPAC_INCHIKEY>
FYZBOYWSHKHDMT-UHFFFAOYSA-N

> <PUBCHEM_XLOGP3>
4.2

> <PUBCHEM_EXACT_MASS>
410.187543

> <PUBCHEM_MOLECULAR_FORMULA>
C20H30N2O5S

> <PUBCHEM_MOLECULAR_WEIGHT>
410.5276

> <PUBCHEM_OPENEYE_CAN_SMILES>
CCOC(=O)CCN(C(C)C)SN(C)C(=O)OC1=CC=CC2=C1OC(C2)(C)C

> <PUBCHEM_OPENEYE_ISO_SMILES>
CCOC(=O)CCN(C(C)C)SN(C)C(=O)OC1=CC=CC2=C1OC(C2)(C)C

> <PUBCHEM_CACTVS_TPSA>
93.6

> <PUBCHEM_MONOISOTOPIC_WEIGHT>
410.187543

> <PUBCHEM_TOTAL_CHARGE>
0

> <PUBCHEM_HEAVY_ATOM_COUNT>
28

> <PUBCHEM_ATOM_DEF_STEREO_COUNT>
0

> <PUBCHEM_ATOM_UDEF_STEREO_COUNT>
0

> <PUBCHEM_BOND_DEF_STEREO_COUNT>
0

> <PUBCHEM_BOND_UDEF_STEREO_COUNT>
0

> <PUBCHEM_ISOTOPIC_ATOM_COUNT>
0

> <PUBCHEM_COMPONENT_COUNT>
1

> <PUBCHEM_CACTVS_TAUTO_COUNT>
1

> <PUBCHEM_COORDINATE_TYPE>
1
5
255

> <PUBCHEM_BONDANNOTATIONS>
11  12  8
11  15  8
12  16  8
15  17  8
16  18  8
17  18  8

$$$$

