100768
  -OEChem-07051212563D

 30 31  0     0  0  0  0  0  0999 V2000
   -2.0624   -1.0251   -0.0003 O   0  0  0  0  0  0  0  0  0  0  0  0
    2.5114   -2.2034    0.0009 O   0  0  0  0  0  0  0  0  0  0  0  0
    4.2453   -0.3321    0.0002 O   0  0  0  0  0  0  0  0  0  0  0  0
   -3.1340   -0.0573    0.0001 C   0  0  0  0  0  0  0  0  0  0  0  0
   -2.7152    1.3942    0.0001 C   0  0  0  0  0  0  0  0  0  0  0  0
   -0.7682   -0.5874   -0.0002 C   0  0  0  0  0  0  0  0  0  0  0  0
   -0.4076    0.7616   -0.0001 C   0  0  0  0  0  0  0  0  0  0  0  0
   -3.9702   -0.3407    1.2536 C   0  0  0  0  0  0  0  0  0  0  0  0
   -3.9712   -0.3406   -1.2526 C   0  0  0  0  0  0  0  0  0  0  0  0
   -1.4390    1.7846   -0.0002 C   0  0  0  0  0  0  0  0  0  0  0  0
    0.9474    1.1134   -0.0004 C   0  0  0  0  0  0  0  0  0  0  0  0
    0.2183   -1.5772   -0.0005 C   0  0  0  0  0  0  0  0  0  0  0  0
    1.9308    0.1230   -0.0007 C   0  0  0  0  0  0  0  0  0  0  0  0
    1.5664   -1.2216   -0.0007 C   0  0  0  0  0  0  0  0  0  0  0  0
    3.3331    0.5168   -0.0001 C   0  0  0  0  0  0  0  0  0  0  0  0
    3.7151    1.9919    0.0008 C   0  0  0  0  0  0  0  0  0  0  0  0
   -3.4946    2.1523    0.0002 H   0  0  0  0  0  0  0  0  0  0  0  0
   -4.2993   -1.3864    1.2755 H   0  0  0  0  0  0  0  0  0  0  0  0
   -3.3759   -0.1863    2.1624 H   0  0  0  0  0  0  0  0  0  0  0  0
   -4.8570    0.3001    1.3100 H   0  0  0  0  0  0  0  0  0  0  0  0
   -3.3777   -0.1862   -2.1618 H   0  0  0  0  0  0  0  0  0  0  0  0
   -4.3003   -1.3863   -1.2742 H   0  0  0  0  0  0  0  0  0  0  0  0
   -4.8580    0.3002   -1.3082 H   0  0  0  0  0  0  0  0  0  0  0  0
   -1.1668    2.8332   -0.0003 H   0  0  0  0  0  0  0  0  0  0  0  0
    1.2024    2.1696   -0.0003 H   0  0  0  0  0  0  0  0  0  0  0  0
   -0.0723   -2.6253   -0.0003 H   0  0  0  0  0  0  0  0  0  0  0  0
    3.3408    2.4808    0.9039 H   0  0  0  0  0  0  0  0  0  0  0  0
    3.3412    2.4818   -0.9020 H   0  0  0  0  0  0  0  0  0  0  0  0
    4.8067    2.0771    0.0010 H   0  0  0  0  0  0  0  0  0  0  0  0
    2.0700   -3.0701    0.0011 H   0  0  0  0  0  0  0  0  0  0  0  0
  1  4  1  0  0  0  0
  1  6  1  0  0  0  0
  2 14  1  0  0  0  0
  2 30  1  0  0  0  0
  3 15  2  0  0  0  0
  4  5  1  0  0  0  0
  4  8  1  0  0  0  0
  4  9  1  0  0  0  0
  5 10  2  0  0  0  0
  5 17  1  0  0  0  0
  6  7  1  0  0  0  0
  6 12  2  0  0  0  0
  7 10  1  0  0  0  0
  7 11  2  0  0  0  0
  8 18  1  0  0  0  0
  8 19  1  0  0  0  0
  8 20  1  0  0  0  0
  9 21  1  0  0  0  0
  9 22  1  0  0  0  0
  9 23  1  0  0  0  0
 10 24  1  0  0  0  0
 11 13  1  0  0  0  0
 11 25  1  0  0  0  0
 12 14  1  0  0  0  0
 12 26  1  0  0  0  0
 13 14  2  0  0  0  0
 13 15  1  0  0  0  0
 15 16  1  0  0  0  0
 16 27  1  0  0  0  0
 16 28  1  0  0  0  0
 16 29  1  0  0  0  0
M  END
> <PUBCHEM_COMPOUND_CID>
100768

> <PUBCHEM_CONFORMER_RMSD>
0.6

> <PUBCHEM_CONFORMER_DIVERSEORDER>
1
2

> <PUBCHEM_MMFF94_PARTIAL_CHARGES>
19
1 -0.36
10 -0.18
11 -0.15
12 -0.15
13 0.09
14 0.08
15 0.42
16 0.06
17 0.15
2 -0.53
24 0.15
25 0.15
26 0.15
3 -0.57
30 0.45
4 0.42
5 -0.29
6 0.08
7 0.03

> <PUBCHEM_EFFECTIVE_ROTOR_COUNT>
1.4

> <PUBCHEM_PHARMACOPHORE_FEATURES>
6
1 1 acceptor
1 2 donor
1 3 acceptor
3 4 8 9 hydrophobe
6 1 4 5 6 7 10 rings
6 6 7 11 12 13 14 rings

> <PUBCHEM_HEAVY_ATOM_COUNT>
16

> <PUBCHEM_ATOM_DEF_STEREO_COUNT>
0

> <PUBCHEM_ATOM_UDEF_STEREO_COUNT>
0

> <PUBCHEM_BOND_DEF_STEREO_COUNT>
0

> <PUBCHEM_BOND_UDEF_STEREO_COUNT>
0

> <PUBCHEM_ISOTOPIC_ATOM_COUNT>
0

> <PUBCHEM_COMPONENT_COUNT>
1

> <PUBCHEM_CACTVS_TAUTO_COUNT>
9

> <PUBCHEM_CONFORMER_ID>
000189A000000001

> <PUBCHEM_MMFF94_ENERGY>
50.4341

> <PUBCHEM_FEATURE_SELFOVERLAP>
30.475

> <PUBCHEM_SHAPE_FINGERPRINT>
10608611 8 18340490070404767828
10967382 1 18410855434601120036
10980938 120 18334860519541696826
11132069 177 18338244769018818416
11471102 20 18410579465856859556
11543360 7 15647615536687935664
12236239 1 17821726114266197291
12932764 1 17603596235097350889
13140716 1 18122622743235234832
13221675 6 18408604742677994150
13296908 3 18130502028565282955
13380535 76 18412265021493284970
13583140 156 16844748425111515176
13760787 5 18409448072518098725
14144814 61 18411981385836495849
14325111 11 18410855498841162560
14576447 43 18043268855077437359
15196674 1 18410856559698006725
15219456 202 18340766043633484019
15309172 13 18334289868722521779
15375358 24 18202287991723080673
15375462 189 18186517700693377825
15442244 35 18121500421352576146
15536298 74 18334295418010139822
15775835 57 18187079551061266065
16945 1 18410855430248065509
17844478 74 18201992249023320225
18186145 218 18187640289275640236
19026448 4 16845577504165378081
19026448 5 16805318885909085093
200 152 18187938274222525645
20279233 1 17918555734957743211
20510252 161 18334009518927302137
20645477 70 18337680831407808479
21267235 1 18410003355891813926
21501502 16 18264490757251016417
221490 88 18340197613497361650
22854114 111 18410855460481778088
2334 1 18338797930520134984
23402539 116 18261401047999091164
23402655 69 18335713783952458781
23463225 33 18341333378970073624
23493267 7 17632587058514163409
23559900 14 18265903638657403938
25610 137 18411133632533783561
2748010 2 18267586990495019668
5104073 3 18340204188801954009
53812653 166 18261675887493909656
6333272 397 18341048515343625544
69090 78 18186805746854104134
7364860 26 18335419127605117238
8809292 202 18130218259928544867
9709674 26 18410007775429141750

> <PUBCHEM_SHAPE_MULTIPOLES>
311.66
7.46
1.92
0.81
0.48
0.01
0
-0.71
0
1.1
0
-0.83
0.05
0

> <PUBCHEM_SHAPE_SELFOVERLAP>
671.759

> <PUBCHEM_SHAPE_VOLUME>
173.2

> <PUBCHEM_COORDINATE_TYPE>
2
5
10

$$$$

