2317241
  -OEChem-07051213133D

 27 27  0     0  0  0  0  0  0999 V2000
    4.4143   -1.0455    0.0072 F   0  0  0  0  0  0  0  0  0  0  0  0
    4.1801    0.8110   -1.0894 F   0  0  0  0  0  0  0  0  0  0  0  0
    4.1583    0.8258    1.0850 F   0  0  0  0  0  0  0  0  0  0  0  0
   -2.6654    1.6275    0.0049 O   0  0  0  0  0  0  0  0  0  0  0  0
   -1.9171   -0.5754    0.0018 N   0  0  0  0  0  0  0  0  0  0  0  0
   -4.2221   -0.0858   -0.0028 N   0  0  0  0  0  0  0  0  0  0  0  0
   -0.5109   -0.3998    0.0012 C   0  0  0  0  0  0  0  0  0  0  0  0
    2.2357   -0.0571   -0.0002 C   0  0  0  0  0  0  0  0  0  0  0  0
    0.3090   -1.5147    0.0099 C   0  0  0  0  0  0  0  0  0  0  0  0
    0.0098    0.8824   -0.0081 C   0  0  0  0  0  0  0  0  0  0  0  0
    1.6931   -1.3421    0.0092 C   0  0  0  0  0  0  0  0  0  0  0  0
    1.3939    1.0552   -0.0088 C   0  0  0  0  0  0  0  0  0  0  0  0
   -2.9003    0.4172   -0.0060 C   0  0  0  0  0  0  0  0  0  0  0  0
    3.7152    0.1281   -0.0015 C   0  0  0  0  0  0  0  0  0  0  0  0
   -5.3853    0.7921    0.0136 C   0  0  0  0  0  0  0  0  0  0  0  0
   -4.5082   -1.5189   -0.0158 C   0  0  0  0  0  0  0  0  0  0  0  0
   -0.1033   -2.5198    0.0173 H   0  0  0  0  0  0  0  0  0  0  0  0
   -0.5624    1.7968   -0.0173 H   0  0  0  0  0  0  0  0  0  0  0  0
    2.3323   -2.2207    0.0159 H   0  0  0  0  0  0  0  0  0  0  0  0
    1.8090    2.0598   -0.0168 H   0  0  0  0  0  0  0  0  0  0  0  0
   -2.2068   -1.5471    0.0088 H   0  0  0  0  0  0  0  0  0  0  0  0
   -5.9767    0.5771    0.9082 H   0  0  0  0  0  0  0  0  0  0  0  0
   -5.9837    0.6015   -0.8820 H   0  0  0  0  0  0  0  0  0  0  0  0
   -5.0877    1.8434    0.0267 H   0  0  0  0  0  0  0  0  0  0  0  0
   -5.5882   -1.6929   -0.0420 H   0  0  0  0  0  0  0  0  0  0  0  0
   -4.0980   -1.9775    0.8888 H   0  0  0  0  0  0  0  0  0  0  0  0
   -4.0576   -1.9727   -0.9035 H   0  0  0  0  0  0  0  0  0  0  0  0
  1 14  1  0  0  0  0
  2 14  1  0  0  0  0
  3 14  1  0  0  0  0
  4 13  2  0  0  0  0
  5  7  1  0  0  0  0
  5 13  1  0  0  0  0
  5 21  1  0  0  0  0
  6 13  1  0  0  0  0
  6 15  1  0  0  0  0
  6 16  1  0  0  0  0
  7  9  2  0  0  0  0
  7 10  1  0  0  0  0
  8 11  2  0  0  0  0
  8 12  1  0  0  0  0
  8 14  1  0  0  0  0
  9 11  1  0  0  0  0
  9 17  1  0  0  0  0
 10 12  2  0  0  0  0
 10 18  1  0  0  0  0
 11 19  1  0  0  0  0
 12 20  1  0  0  0  0
 15 22  1  0  0  0  0
 15 23  1  0  0  0  0
 15 24  1  0  0  0  0
 16 25  1  0  0  0  0
 16 26  1  0  0  0  0
 16 27  1  0  0  0  0
M  END
> <PUBCHEM_COMPOUND_CID>
2317241

> <PUBCHEM_CONFORMER_RMSD>
0.6

> <PUBCHEM_CONFORMER_DIVERSEORDER>
1
4
5
6
3
2

> <PUBCHEM_MMFF94_PARTIAL_CHARGES>
21
1 -0.34
10 -0.15
11 -0.15
12 -0.15
13 0.69
14 1.16
15 0.3
16 0.3
17 0.15
18 0.15
19 0.15
2 -0.34
20 0.15
21 0.37
3 -0.34
4 -0.57
5 -0.55
6 -0.66
7 0.12
8 -0.14
9 -0.15

> <PUBCHEM_EFFECTIVE_ROTOR_COUNT>
4

> <PUBCHEM_PHARMACOPHORE_FEATURES>
3
1 4 acceptor
1 5 donor
6 7 8 9 10 11 12 rings

> <PUBCHEM_HEAVY_ATOM_COUNT>
16

> <PUBCHEM_ATOM_DEF_STEREO_COUNT>
0

> <PUBCHEM_ATOM_UDEF_STEREO_COUNT>
0

> <PUBCHEM_BOND_DEF_STEREO_COUNT>
0

> <PUBCHEM_BOND_UDEF_STEREO_COUNT>
0

> <PUBCHEM_ISOTOPIC_ATOM_COUNT>
0

> <PUBCHEM_COMPONENT_COUNT>
1

> <PUBCHEM_CACTVS_TAUTO_COUNT>
2

> <PUBCHEM_CONFORMER_ID>
00235BB900000001

> <PUBCHEM_MMFF94_ENERGY>
40.0034

> <PUBCHEM_FEATURE_SELFOVERLAP>
15.223

> <PUBCHEM_SHAPE_FINGERPRINT>
11401426 45 18409452479444538745
11471102 20 18410856572719896358
11806522 49 18412263909101828695
13081056 2 18334014999294742592
13380535 76 18413105061008808075
13675066 3 18260832574612030507
13690532 89 18411418423145924026
14123238 8 18187083936222868767
14943859 89 17749111071421228519
15196674 1 18410856551303140519
17834072 33 18341610378374597237
18522853 276 18407760348192610377
200 152 18186805768909065655
20645477 70 18187927356178730847
21267235 1 18338508733445713038
212847 35 18410573990032143368
22854114 59 18334577927625485153
23402539 116 18342745104819067223
23402655 69 18337113457922583901
23557571 272 17916583279648165893
23559900 14 18410292536351122450
2916195 48 17895768296084152632
3545911 37 18410291441418908805
4047638 21 17676488328759850242
4072396 5 18341628047896576314
42 15 18411982472463241091
42788 4 18410293618729944517
4990 188 17968087646961794934
5104073 3 18409729586387022627
542803 24 17632574955285578709
69090 78 17967819318616421503
77779 3 18409728482511666471

> <PUBCHEM_SHAPE_MULTIPOLES>
291.62
10.3
1.49
0.69
4.57
0.23
0
-0.75
0
0.45
0
-0.42
-0.08
-0.02

> <PUBCHEM_SHAPE_SELFOVERLAP>
604.002

> <PUBCHEM_SHAPE_VOLUME>
167.8

> <PUBCHEM_COORDINATE_TYPE>
2
5
10

$$$$

