47205248
  -OEChem-06241222583D

 37 37  0     1  0  0  0  0  0999 V2000
   -3.1313    0.0961   -1.7819 O   0  0  0  0  0  0  0  0  0  0  0  0
   -1.1099   -1.0317    1.4644 O   0  0  0  0  0  0  0  0  0  0  0  0
    5.6561    0.4902    0.5415 O   0  5  0  0  0  0  0  0  0  0  0  0
    5.2281    0.2472   -1.5979 O   0  0  0  0  0  0  0  0  0  0  0  0
   -1.5137    0.8873    0.2264 N   0  0  0  0  0  0  0  0  0  0  0  0
   -4.7784   -0.5773   -0.3007 N   0  0  0  0  0  0  0  0  0  0  0  0
    4.8516    0.3159   -0.4041 N   0  3  0  0  0  0  0  0  0  0  0  0
   -2.9379    0.9382    0.4535 C   0  0  2  0  0  0  0  0  0  0  0  0
   -3.6069    0.1077   -0.6411 C   0  0  0  0  0  0  0  0  0  0  0  0
   -3.4339    2.3764    0.4221 C   0  0  0  0  0  0  0  0  0  0  0  0
    0.7409   -0.0048    0.4552 C   0  0  0  0  0  0  0  0  0  0  0  0
   -0.7094   -0.1087    0.7598 C   0  0  0  0  0  0  0  0  0  0  0  0
    2.8942   -1.0548    0.1432 C   0  0  0  0  0  0  0  0  0  0  0  0
    1.5322   -1.1532    0.4272 C   0  0  0  0  0  0  0  0  0  0  0  0
    1.3116    1.2419    0.1992 C   0  0  0  0  0  0  0  0  0  0  0  0
    3.4651    0.1919   -0.1127 C   0  0  0  0  0  0  0  0  0  0  0  0
    2.6738    1.3402   -0.0847 C   0  0  0  0  0  0  0  0  0  0  0  0
   -5.3668   -0.6558    1.0344 C   0  0  0  0  0  0  0  0  0  0  0  0
   -5.4799   -1.3425   -1.3252 C   0  0  0  0  0  0  0  0  0  0  0  0
    3.7146   -2.3042    0.1212 C   0  0  0  0  0  0  0  0  0  0  0  0
   -3.1188    0.5018    1.4387 H   0  0  0  0  0  0  0  0  0  0  0  0
   -1.1273    1.5536   -0.4346 H   0  0  0  0  0  0  0  0  0  0  0  0
   -2.9333    2.9782    1.1881 H   0  0  0  0  0  0  0  0  0  0  0  0
   -4.5134    2.4256    0.5976 H   0  0  0  0  0  0  0  0  0  0  0  0
   -3.2373    2.8446   -0.5493 H   0  0  0  0  0  0  0  0  0  0  0  0
    1.0874   -2.1262    0.6222 H   0  0  0  0  0  0  0  0  0  0  0  0
    0.7366    2.1624    0.2405 H   0  0  0  0  0  0  0  0  0  0  0  0
    3.1063    2.3194   -0.2758 H   0  0  0  0  0  0  0  0  0  0  0  0
   -6.4491   -0.7964    0.9564 H   0  0  0  0  0  0  0  0  0  0  0  0
   -4.9223   -1.5090    1.5543 H   0  0  0  0  0  0  0  0  0  0  0  0
   -5.1848    0.2547    1.6072 H   0  0  0  0  0  0  0  0  0  0  0  0
   -6.4965   -0.9502   -1.4239 H   0  0  0  0  0  0  0  0  0  0  0  0
   -4.9839   -1.2806   -2.2969 H   0  0  0  0  0  0  0  0  0  0  0  0
   -5.5193   -2.3908   -1.0144 H   0  0  0  0  0  0  0  0  0  0  0  0
    4.1600   -2.4547   -0.8677 H   0  0  0  0  0  0  0  0  0  0  0  0
    4.5083   -2.2566    0.8740 H   0  0  0  0  0  0  0  0  0  0  0  0
    3.1120   -3.1920    0.3427 H   0  0  0  0  0  0  0  0  0  0  0  0
  1  9  2  0  0  0  0
  2 12  2  0  0  0  0
  3  7  1  0  0  0  0
  4  7  2  0  0  0  0
  5  8  1  0  0  0  0
  5 12  1  0  0  0  0
  5 22  1  0  0  0  0
  6  9  1  0  0  0  0
  6 18  1  0  0  0  0
  6 19  1  0  0  0  0
  7 16  1  0  0  0  0
  8  9  1  0  0  0  0
  8 10  1  0  0  0  0
  8 21  1  0  0  0  0
 10 23  1  0  0  0  0
 10 24  1  0  0  0  0
 10 25  1  0  0  0  0
 11 12  1  0  0  0  0
 11 14  2  0  0  0  0
 11 15  1  0  0  0  0
 13 14  1  0  0  0  0
 13 16  2  0  0  0  0
 13 20  1  0  0  0  0
 14 26  1  0  0  0  0
 15 17  2  0  0  0  0
 15 27  1  0  0  0  0
 16 17  1  0  0  0  0
 17 28  1  0  0  0  0
 18 29  1  0  0  0  0
 18 30  1  0  0  0  0
 18 31  1  0  0  0  0
 19 32  1  0  0  0  0
 19 33  1  0  0  0  0
 19 34  1  0  0  0  0
 20 35  1  0  0  0  0
 20 36  1  0  0  0  0
 20 37  1  0  0  0  0
M  CHG  2   3  -1   7   1
M  END
> <PUBCHEM_COMPOUND_CID>
47205248

> <PUBCHEM_CONFORMER_RMSD>
0.8

> <PUBCHEM_CONFORMER_DIVERSEORDER>
7
42
38
37
26
19
30
40
29
31
36
11
24
39
32
27
1
22
21
28
41
18
25
9
17
5
33
3
20
2
15
12
35
6
34
8
10
13
16
23
4
14

> <PUBCHEM_MMFF94_PARTIAL_CHARGES>
23
1 -0.57
11 0.09
12 0.54
13 -0.14
14 -0.15
15 -0.15
16 0.13
17 -0.15
18 0.3
19 0.3
2 -0.57
20 0.14
22 0.37
26 0.15
27 0.15
28 0.15
3 -0.52
4 -0.52
5 -0.73
6 -0.66
7 0.91
8 0.36
9 0.57

> <PUBCHEM_EFFECTIVE_ROTOR_COUNT>
6

> <PUBCHEM_PHARMACOPHORE_FEATURES>
7
1 1 acceptor
1 2 acceptor
1 3 acceptor
1 3 anion
1 4 acceptor
1 5 donor
6 11 13 14 15 16 17 rings

> <PUBCHEM_HEAVY_ATOM_COUNT>
20

> <PUBCHEM_ATOM_DEF_STEREO_COUNT>
0

> <PUBCHEM_ATOM_UDEF_STEREO_COUNT>
1

> <PUBCHEM_BOND_DEF_STEREO_COUNT>
0

> <PUBCHEM_BOND_UDEF_STEREO_COUNT>
0

> <PUBCHEM_ISOTOPIC_ATOM_COUNT>
0

> <PUBCHEM_COMPONENT_COUNT>
1

> <PUBCHEM_CACTVS_TAUTO_COUNT>
2

> <PUBCHEM_CONFORMER_ID>
02D04B8000000007

> <PUBCHEM_MMFF94_ENERGY>
61.6853

> <PUBCHEM_FEATURE_SELFOVERLAP>
35.602

> <PUBCHEM_SHAPE_MULTIPOLES>
373.17
13.04
1.79
1.17
1.28
0.06
0.28
-2.19
2.91
0.24
-0.14
0.76
-0.22
-0.76

> <PUBCHEM_SHAPE_SELFOVERLAP>
766.768

> <PUBCHEM_SHAPE_VOLUME>
215.5

> <PUBCHEM_COORDINATE_TYPE>
2
5
10

$$$$

