47205673
  -OEChem-06241222592D

 39 39  0     0  0  0  0  0  0999 V2000
    3.2601   -4.1149    0.0000 O   0  0  0  0  0  0  0  0  0  0  0  0
    5.4921    3.4239    0.0000 O   0  0  0  0  0  0  0  0  0  0  0  0
    2.8940   -1.0761    0.0000 O   0  0  0  0  0  0  0  0  0  0  0  0
    6.3582   -0.0761    0.0000 O   0  0  0  0  0  0  0  0  0  0  0  0
    6.3582    1.9239    0.0000 N   0  0  0  0  0  0  0  0  0  0  0  0
    4.6261   -1.0761    0.0000 N   0  0  0  0  0  0  0  0  0  0  0  0
    4.6261   -0.0761    0.0000 N   0  0  0  0  0  0  0  0  0  0  0  0
    7.2242    3.4239    0.0000 C   0  0  0  0  0  0  0  0  0  0  0  0
    7.2242    4.4239    0.0000 C   0  0  0  0  0  0  0  0  0  0  0  0
    3.7601   -2.5761    0.0000 C   0  0  0  0  0  0  0  0  0  0  0  0
    2.9511   -3.1639    0.0000 C   0  0  0  0  0  0  0  0  0  0  0  0
    6.3582    2.9239    0.0000 C   0  0  0  0  0  0  0  0  0  0  0  0
    4.5691   -3.1639    0.0000 C   0  0  0  0  0  0  0  0  0  0  0  0
    4.2601   -4.1149    0.0000 C   0  0  0  0  0  0  0  0  0  0  0  0
    5.4921    1.4239    0.0000 C   0  0  0  0  0  0  0  0  0  0  0  0
    3.7601   -1.5761    0.0000 C   0  0  0  0  0  0  0  0  0  0  0  0
    8.0902    4.9239    0.0000 C   0  0  0  0  0  0  0  0  0  0  0  0
    2.0000   -2.8548    0.0000 C   0  0  0  0  0  0  0  0  0  0  0  0
    5.4921    0.4239    0.0000 C   0  0  0  0  0  0  0  0  0  0  0  0
    4.8479   -4.9239    0.0000 C   0  0  0  0  0  0  0  0  0  0  0  0
    7.4362    2.8413    0.0000 H   0  0  0  0  0  0  0  0  0  0  0  0
    7.8348    3.5316    0.0000 H   0  0  0  0  0  0  0  0  0  0  0  0
    7.0121    5.0065    0.0000 H   0  0  0  0  0  0  0  0  0  0  0  0
    6.6136    4.3163    0.0000 H   0  0  0  0  0  0  0  0  0  0  0  0
    5.1588   -2.9723    0.0000 H   0  0  0  0  0  0  0  0  0  0  0  0
    5.2801    2.0065    0.0000 H   0  0  0  0  0  0  0  0  0  0  0  0
    4.8815    1.3163    0.0000 H   0  0  0  0  0  0  0  0  0  0  0  0
    6.8951    1.6139    0.0000 H   0  0  0  0  0  0  0  0  0  0  0  0
    8.4002    4.3870    0.0000 H   0  0  0  0  0  0  0  0  0  0  0  0
    8.6271    5.2339    0.0000 H   0  0  0  0  0  0  0  0  0  0  0  0
    7.7802    5.4609    0.0000 H   0  0  0  0  0  0  0  0  0  0  0  0
    2.1916   -2.2652    0.0000 H   0  0  0  0  0  0  0  0  0  0  0  0
    1.4103   -2.6632    0.0000 H   0  0  0  0  0  0  0  0  0  0  0  0
    1.8084   -3.4445    0.0000 H   0  0  0  0  0  0  0  0  0  0  0  0
    5.1630   -1.3861    0.0000 H   0  0  0  0  0  0  0  0  0  0  0  0
    4.3463   -5.2884    0.0000 H   0  0  0  0  0  0  0  0  0  0  0  0
    5.2123   -5.4255    0.0000 H   0  0  0  0  0  0  0  0  0  0  0  0
    5.3494   -4.5595    0.0000 H   0  0  0  0  0  0  0  0  0  0  0  0
    4.0892    0.2339    0.0000 H   0  0  0  0  0  0  0  0  0  0  0  0
  1 11  1  0  0  0  0
  1 14  1  0  0  0  0
  2 12  2  0  0  0  0
  3 16  2  0  0  0  0
  4 19  2  0  0  0  0
  5 12  1  0  0  0  0
  5 15  1  0  0  0  0
  5 28  1  0  0  0  0
  6  7  1  0  0  0  0
  6 16  1  0  0  0  0
  6 35  1  0  0  0  0
  7 19  1  0  0  0  0
  7 39  1  0  0  0  0
  8  9  1  0  0  0  0
  8 12  1  0  0  0  0
  8 21  1  0  0  0  0
  8 22  1  0  0  0  0
  9 17  1  0  0  0  0
  9 23  1  0  0  0  0
  9 24  1  0  0  0  0
 10 11  2  0  0  0  0
 10 13  1  0  0  0  0
 10 16  1  0  0  0  0
 11 18  1  0  0  0  0
 13 14  2  0  0  0  0
 13 25  1  0  0  0  0
 14 20  1  0  0  0  0
 15 19  1  0  0  0  0
 15 26  1  0  0  0  0
 15 27  1  0  0  0  0
 17 29  1  0  0  0  0
 17 30  1  0  0  0  0
 17 31  1  0  0  0  0
 18 32  1  0  0  0  0
 18 33  1  0  0  0  0
 18 34  1  0  0  0  0
 20 36  1  0  0  0  0
 20 37  1  0  0  0  0
 20 38  1  0  0  0  0
M  END
> <PUBCHEM_COMPOUND_CID>
47205673

> <PUBCHEM_COMPOUND_CANONICALIZED>
1

> <PUBCHEM_CACTVS_COMPLEXITY>
373

> <PUBCHEM_CACTVS_HBOND_ACCEPTOR>
4

> <PUBCHEM_CACTVS_HBOND_DONOR>
3

> <PUBCHEM_CACTVS_ROTATABLE_BOND>
5

> <PUBCHEM_CACTVS_SUBSKEYS>
AAADceBzOAAAAAAAAAAAAAAAAAAAASAAAAAAAAAAAAAAAAABgAAAHgAYAAAADATBmAQyBILiBECIAqFSEACCCAAkIAISqIGODMgMZj6MtTuWGWDm9hGIqYe/AAAOAAAAAAAAAAAAAAAAAAAAAAAAAAAAAA==

> <PUBCHEM_IUPAC_OPENEYE_NAME>
N-[2-[2-(2,5-dimethylfuran-3-carbonyl)hydrazino]-2-oxo-ethyl]butanamide

> <PUBCHEM_IUPAC_CAS_NAME>
N-[2-[[(2,5-dimethyl-3-furanyl)-oxomethyl]hydrazo]-2-oxoethyl]butanamide

> <PUBCHEM_IUPAC_NAME>
N-[2-[2-(2,5-dimethylfuran-3-carbonyl)hydrazinyl]-2-oxoethyl]butanamide

> <PUBCHEM_IUPAC_SYSTEMATIC_NAME>
N-[2-[2-(2,5-dimethylfuran-3-yl)carbonylhydrazinyl]-2-oxidanylidene-ethyl]butanamide

> <PUBCHEM_IUPAC_TRADITIONAL_NAME>
N-[2-[N'-(2,5-dimethyl-3-furoyl)hydrazino]-2-keto-ethyl]butyramide

> <PUBCHEM_IUPAC_INCHI>
InChI=1S/C13H19N3O4/c1-4-5-11(17)14-7-12(18)15-16-13(19)10-6-8(2)20-9(10)3/h6H,4-5,7H2,1-3H3,(H,14,17)(H,15,18)(H,16,19)

> <PUBCHEM_IUPAC_INCHIKEY>
DGMXWODMOVQGCR-UHFFFAOYSA-N

> <PUBCHEM_XLOGP3_AA>
0.7

> <PUBCHEM_EXACT_MASS>
281.137556

> <PUBCHEM_MOLECULAR_FORMULA>
C13H19N3O4

> <PUBCHEM_MOLECULAR_WEIGHT>
281.30766

> <PUBCHEM_OPENEYE_CAN_SMILES>
CCCC(=O)NCC(=O)NNC(=O)C1=C(OC(=C1)C)C

> <PUBCHEM_OPENEYE_ISO_SMILES>
CCCC(=O)NCC(=O)NNC(=O)C1=C(OC(=C1)C)C

> <PUBCHEM_CACTVS_TPSA>
100

> <PUBCHEM_MONOISOTOPIC_WEIGHT>
281.137556

> <PUBCHEM_TOTAL_CHARGE>
0

> <PUBCHEM_HEAVY_ATOM_COUNT>
20

> <PUBCHEM_ATOM_DEF_STEREO_COUNT>
0

> <PUBCHEM_ATOM_UDEF_STEREO_COUNT>
0

> <PUBCHEM_BOND_DEF_STEREO_COUNT>
0

> <PUBCHEM_BOND_UDEF_STEREO_COUNT>
0

> <PUBCHEM_ISOTOPIC_ATOM_COUNT>
0

> <PUBCHEM_COMPONENT_COUNT>
1

> <PUBCHEM_CACTVS_TAUTO_COUNT>
8

> <PUBCHEM_COORDINATE_TYPE>
1
5
255

> <PUBCHEM_BONDANNOTATIONS>
1  11  8
1  14  8
10  11  8
10  13  8
13  14  8

$$$$

