17396064
  -OEChem-06241222542D

 46 49  0     0  0  0  0  0  0999 V2000
    8.8590    0.1366    0.0000 O   0  0  0  0  0  0  0  0  0  0  0  0
    8.8590   -1.4729    0.0000 O   0  0  0  0  0  0  0  0  0  0  0  0
    2.0000   -2.0046    0.0000 O   0  0  0  0  0  0  0  0  0  0  0  0
    3.5827    0.3318    0.0000 O   0  0  0  0  0  0  0  0  0  0  0  0
    5.3147    0.3318    0.0000 N   0  0  0  0  0  0  0  0  0  0  0  0
    2.5000   -2.8706    0.0000 N   0  0  0  0  0  0  0  0  0  0  0  0
    2.7166    2.8318    0.0000 N   0  0  0  0  0  0  0  0  0  0  0  0
    6.1808   -0.1682    0.0000 C   0  0  0  0  0  0  0  0  0  0  0  0
    5.3147    1.3318    0.0000 C   0  0  0  0  0  0  0  0  0  0  0  0
    4.4487   -1.1682    0.0000 C   0  0  0  0  0  0  0  0  0  0  0  0
    4.4487   -0.1682    0.0000 C   0  0  0  0  0  0  0  0  0  0  0  0
    3.5827   -1.6682    0.0000 C   0  0  0  0  0  0  0  0  0  0  0  0
    7.0468    0.3318    0.0000 C   0  0  0  0  0  0  0  0  0  0  0  0
    7.9128   -0.1682    0.0000 C   0  0  0  0  0  0  0  0  0  0  0  0
    4.4487    1.8318    0.0000 C   0  0  0  0  0  0  0  0  0  0  0  0
    6.1808   -1.1682    0.0000 C   0  0  0  0  0  0  0  0  0  0  0  0
    7.9128   -1.1682    0.0000 C   0  0  0  0  0  0  0  0  0  0  0  0
    2.6691   -1.2614    0.0000 C   0  0  0  0  0  0  0  0  0  0  0  0
    3.4782   -2.6627    0.0000 C   0  0  0  0  0  0  0  0  0  0  0  0
    7.0468   -1.6682    0.0000 C   0  0  0  0  0  0  0  0  0  0  0  0
    9.4426   -0.6682    0.0000 C   0  0  0  0  0  0  0  0  0  0  0  0
    3.5827    1.3318    0.0000 C   0  0  0  0  0  0  0  0  0  0  0  0
    4.4487    2.8318    0.0000 C   0  0  0  0  0  0  0  0  0  0  0  0
    2.4612   -0.2833    0.0000 C   0  0  0  0  0  0  0  0  0  0  0  0
    4.2213   -3.3318    0.0000 C   0  0  0  0  0  0  0  0  0  0  0  0
    2.7166    1.8318    0.0000 C   0  0  0  0  0  0  0  0  0  0  0  0
    3.5827    3.3318    0.0000 C   0  0  0  0  0  0  0  0  0  0  0  0
    5.9253    1.2242    0.0000 H   0  0  0  0  0  0  0  0  0  0  0  0
    5.5268    1.9144    0.0000 H   0  0  0  0  0  0  0  0  0  0  0  0
    4.6608   -1.7508    0.0000 H   0  0  0  0  0  0  0  0  0  0  0  0
    5.0593   -1.0605    0.0000 H   0  0  0  0  0  0  0  0  0  0  0  0
    7.0468    0.9518    0.0000 H   0  0  0  0  0  0  0  0  0  0  0  0
    5.6438   -1.4782    0.0000 H   0  0  0  0  0  0  0  0  0  0  0  0
    7.0468   -2.2882    0.0000 H   0  0  0  0  0  0  0  0  0  0  0  0
    9.9035   -1.0829    0.0000 H   0  0  0  0  0  0  0  0  0  0  0  0
    9.9035   -0.2534    0.0000 H   0  0  0  0  0  0  0  0  0  0  0  0
    3.5827    0.7118    0.0000 H   0  0  0  0  0  0  0  0  0  0  0  0
    4.9856    3.1418    0.0000 H   0  0  0  0  0  0  0  0  0  0  0  0
    3.0677   -0.1544    0.0000 H   0  0  0  0  0  0  0  0  0  0  0  0
    2.3323    0.3232    0.0000 H   0  0  0  0  0  0  0  0  0  0  0  0
    1.8548   -0.4122    0.0000 H   0  0  0  0  0  0  0  0  0  0  0  0
    3.8064   -3.7926    0.0000 H   0  0  0  0  0  0  0  0  0  0  0  0
    4.6820   -3.7467    0.0000 H   0  0  0  0  0  0  0  0  0  0  0  0
    4.6362   -2.8711    0.0000 H   0  0  0  0  0  0  0  0  0  0  0  0
    2.1797    1.5218    0.0000 H   0  0  0  0  0  0  0  0  0  0  0  0
    3.5827    3.9518    0.0000 H   0  0  0  0  0  0  0  0  0  0  0  0
  1 14  1  0  0  0  0
  1 21  1  0  0  0  0
  2 17  1  0  0  0  0
  2 21  1  0  0  0  0
  3  6  1  0  0  0  0
  3 18  1  0  0  0  0
  4 11  2  0  0  0  0
  5  8  1  0  0  0  0
  5  9  1  0  0  0  0
  5 11  1  0  0  0  0
  6 19  2  0  0  0  0
  7 26  2  0  0  0  0
  7 27  1  0  0  0  0
  8 13  2  0  0  0  0
  8 16  1  0  0  0  0
  9 15  1  0  0  0  0
  9 28  1  0  0  0  0
  9 29  1  0  0  0  0
 10 11  1  0  0  0  0
 10 12  1  0  0  0  0
 10 30  1  0  0  0  0
 10 31  1  0  0  0  0
 12 18  2  0  0  0  0
 12 19  1  0  0  0  0
 13 14  1  0  0  0  0
 13 32  1  0  0  0  0
 14 17  2  0  0  0  0
 15 22  2  0  0  0  0
 15 23  1  0  0  0  0
 16 20  2  0  0  0  0
 16 33  1  0  0  0  0
 17 20  1  0  0  0  0
 18 24  1  0  0  0  0
 19 25  1  0  0  0  0
 20 34  1  0  0  0  0
 21 35  1  0  0  0  0
 21 36  1  0  0  0  0
 22 26  1  0  0  0  0
 22 37  1  0  0  0  0
 23 27  2  0  0  0  0
 23 38  1  0  0  0  0
 24 39  1  0  0  0  0
 24 40  1  0  0  0  0
 24 41  1  0  0  0  0
 25 42  1  0  0  0  0
 25 43  1  0  0  0  0
 25 44  1  0  0  0  0
 26 45  1  0  0  0  0
 27 46  1  0  0  0  0
M  END
> <PUBCHEM_COMPOUND_CID>
17396064

> <PUBCHEM_COMPOUND_CANONICALIZED>
1

> <PUBCHEM_CACTVS_COMPLEXITY>
514

> <PUBCHEM_CACTVS_HBOND_ACCEPTOR>
6

> <PUBCHEM_CACTVS_HBOND_DONOR>
0

> <PUBCHEM_CACTVS_ROTATABLE_BOND>
5

> <PUBCHEM_CACTVS_SUBSKEYS>
AAADceB7OAAAAAAAAAAAAAAAAAAAAWJAAAA8QAAAAAAAAEgB8AAAHgAEAAAADAzBngc+zpMYFACpA7V3VgCCiCA1IiAo2CE+7NodJnrEtZukMapmxhnO6Ue/UAMKAEAAAgAAQAAAgAAEAACAAAAAAAAAAA==

> <PUBCHEM_IUPAC_OPENEYE_NAME>
N-(1,3-benzodioxol-5-yl)-2-(3,5-dimethylisoxazol-4-yl)-N-(4-pyridylmethyl)acetamide

> <PUBCHEM_IUPAC_CAS_NAME>
N-(1,3-benzodioxol-5-yl)-2-(3,5-dimethyl-4-isoxazolyl)-N-(pyridin-4-ylmethyl)acetamide

> <PUBCHEM_IUPAC_NAME>
N-(1,3-benzodioxol-5-yl)-2-(3,5-dimethyl-1,2-oxazol-4-yl)-N-(pyridin-4-ylmethyl)acetamide

> <PUBCHEM_IUPAC_SYSTEMATIC_NAME>
N-(1,3-benzodioxol-5-yl)-2-(3,5-dimethyl-1,2-oxazol-4-yl)-N-(pyridin-4-ylmethyl)ethanamide

> <PUBCHEM_IUPAC_TRADITIONAL_NAME>
N-(1,3-benzodioxol-5-yl)-2-(3,5-dimethylisoxazol-4-yl)-N-(4-pyridylmethyl)acetamide

> <PUBCHEM_IUPAC_INCHI>
InChI=1S/C20H19N3O4/c1-13-17(14(2)27-22-13)10-20(24)23(11-15-5-7-21-8-6-15)16-3-4-18-19(9-16)26-12-25-18/h3-9H,10-12H2,1-2H3

> <PUBCHEM_IUPAC_INCHIKEY>
AZEIOQTWIYWFGJ-UHFFFAOYSA-N

> <PUBCHEM_XLOGP3_AA>
2.4

> <PUBCHEM_EXACT_MASS>
365.137556

> <PUBCHEM_MOLECULAR_FORMULA>
C20H19N3O4

> <PUBCHEM_MOLECULAR_WEIGHT>
365.38256

> <PUBCHEM_OPENEYE_CAN_SMILES>
CC1=C(C(=NO1)C)CC(=O)N(CC2=CC=NC=C2)C3=CC4=C(C=C3)OCO4

> <PUBCHEM_OPENEYE_ISO_SMILES>
CC1=C(C(=NO1)C)CC(=O)N(CC2=CC=NC=C2)C3=CC4=C(C=C3)OCO4

> <PUBCHEM_CACTVS_TPSA>
77.7

> <PUBCHEM_MONOISOTOPIC_WEIGHT>
365.137556

> <PUBCHEM_TOTAL_CHARGE>
0

> <PUBCHEM_HEAVY_ATOM_COUNT>
27

> <PUBCHEM_ATOM_DEF_STEREO_COUNT>
0

> <PUBCHEM_ATOM_UDEF_STEREO_COUNT>
0

> <PUBCHEM_BOND_DEF_STEREO_COUNT>
0

> <PUBCHEM_BOND_UDEF_STEREO_COUNT>
0

> <PUBCHEM_ISOTOPIC_ATOM_COUNT>
0

> <PUBCHEM_COMPONENT_COUNT>
1

> <PUBCHEM_CACTVS_TAUTO_COUNT>
1

> <PUBCHEM_COORDINATE_TYPE>
1
5
255

> <PUBCHEM_BONDANNOTATIONS>
12  18  8
12  19  8
13  14  8
14  17  8
15  22  8
15  23  8
16  20  8
17  20  8
22  26  8
23  27  8
3  18  8
3  6  8
6  19  8
7  26  8
7  27  8
8  13  8
8  16  8

$$$$

