242358
  -OEChem-07051213063D

 46 49  0     1  0  0  0  0  0999 V2000
   -5.4486    0.0625    0.8584 O   0  0  0  0  0  0  0  0  0  0  0  0
   -0.0495   -0.4694    0.1808 C   0  0  1  0  0  0  0  0  0  0  0  0
    0.7945    0.7890   -0.1730 C   0  0  2  0  0  0  0  0  0  0  0  0
   -1.4922   -0.4540   -0.4593 C   0  0  2  0  0  0  0  0  0  0  0  0
    2.1586    0.7647    0.5493 C   0  0  1  0  0  0  0  0  0  0  0  0
    0.7619   -1.7457   -0.1584 C   0  0  0  0  0  0  0  0  0  0  0  0
    0.0302    2.0716    0.1823 C   0  0  0  0  0  0  0  0  0  0  0  0
    2.8743   -0.5446    0.3776 C   0  0  0  0  0  0  0  0  0  0  0  0
   -2.1561    0.9050   -0.2109 C   0  0  0  0  0  0  0  0  0  0  0  0
    2.0987   -1.8005    0.5846 C   0  0  0  0  0  0  0  0  0  0  0  0
   -1.3227    2.1268   -0.5117 C   0  0  0  0  0  0  0  0  0  0  0  0
    3.1657    1.7723   -0.0238 C   0  0  0  0  0  0  0  0  0  0  0  0
   -2.3296   -1.5845    0.2086 C   0  0  0  0  0  0  0  0  0  0  0  0
   -1.4512   -0.6967   -1.9854 C   0  0  0  0  0  0  0  0  0  0  0  0
    4.5271    1.0809    0.0205 C   0  0  0  0  0  0  0  0  0  0  0  0
    4.1706   -0.3736    0.0806 C   0  0  0  0  0  0  0  0  0  0  0  0
   -3.8261   -1.4573   -0.0296 C   0  0  0  0  0  0  0  0  0  0  0  0
   -3.4178    1.0584    0.2247 C   0  0  0  0  0  0  0  0  0  0  0  0
   -4.3143   -0.1044    0.4149 C   0  0  0  0  0  0  0  0  0  0  0  0
    5.2262   -1.4005   -0.1301 C   0  0  0  0  0  0  0  0  0  0  0  0
   -0.1833   -0.4566    1.2742 H   0  0  0  0  0  0  0  0  0  0  0  0
    0.9758    0.7854   -1.2569 H   0  0  0  0  0  0  0  0  0  0  0  0
    2.0196    0.9438    1.6241 H   0  0  0  0  0  0  0  0  0  0  0  0
    0.9580   -1.7904   -1.2368 H   0  0  0  0  0  0  0  0  0  0  0  0
    0.1948   -2.6451    0.1017 H   0  0  0  0  0  0  0  0  0  0  0  0
    0.6129    2.9530   -0.1102 H   0  0  0  0  0  0  0  0  0  0  0  0
   -0.1124    2.1335    1.2692 H   0  0  0  0  0  0  0  0  0  0  0  0
    2.6547   -2.6824    0.2521 H   0  0  0  0  0  0  0  0  0  0  0  0
    1.9106   -1.9262    1.6579 H   0  0  0  0  0  0  0  0  0  0  0  0
   -1.1778    2.2038   -1.5962 H   0  0  0  0  0  0  0  0  0  0  0  0
   -1.8372    3.0460   -0.2054 H   0  0  0  0  0  0  0  0  0  0  0  0
    3.1718    2.7090    0.5441 H   0  0  0  0  0  0  0  0  0  0  0  0
    2.9237    2.0297   -1.0632 H   0  0  0  0  0  0  0  0  0  0  0  0
   -2.1582   -1.5740    1.2943 H   0  0  0  0  0  0  0  0  0  0  0  0
   -2.0060   -2.5702   -0.1458 H   0  0  0  0  0  0  0  0  0  0  0  0
   -1.1389   -1.7195   -2.2222 H   0  0  0  0  0  0  0  0  0  0  0  0
   -2.4363   -0.5502   -2.4437 H   0  0  0  0  0  0  0  0  0  0  0  0
   -0.7602   -0.0166   -2.4937 H   0  0  0  0  0  0  0  0  0  0  0  0
    5.0934    1.3719    0.9117 H   0  0  0  0  0  0  0  0  0  0  0  0
    5.1149    1.3259   -0.8697 H   0  0  0  0  0  0  0  0  0  0  0  0
   -4.3487   -2.2241    0.5529 H   0  0  0  0  0  0  0  0  0  0  0  0
   -4.0842   -1.5961   -1.0841 H   0  0  0  0  0  0  0  0  0  0  0  0
   -3.8484    2.0386    0.4003 H   0  0  0  0  0  0  0  0  0  0  0  0
    4.8521   -2.4199   -0.0054 H   0  0  0  0  0  0  0  0  0  0  0  0
    6.0412   -1.2574    0.5868 H   0  0  0  0  0  0  0  0  0  0  0  0
    5.6379   -1.3171   -1.1408 H   0  0  0  0  0  0  0  0  0  0  0  0
  1 19  2  0  0  0  0
  2  3  1  0  0  0  0
  2  4  1  0  0  0  0
  2  6  1  0  0  0  0
  2 21  1  0  0  0  0
  3  5  1  0  0  0  0
  3  7  1  0  0  0  0
  3 22  1  0  0  0  0
  4  9  1  0  0  0  0
  4 13  1  0  0  0  0
  4 14  1  0  0  0  0
  5  8  1  0  0  0  0
  5 12  1  0  0  0  0
  5 23  1  0  0  0  0
  6 10  1  0  0  0  0
  6 24  1  0  0  0  0
  6 25  1  0  0  0  0
  7 11  1  0  0  0  0
  7 26  1  0  0  0  0
  7 27  1  0  0  0  0
  8 10  1  0  0  0  0
  8 16  2  0  0  0  0
  9 11  1  0  0  0  0
  9 18  2  0  0  0  0
 10 28  1  0  0  0  0
 10 29  1  0  0  0  0
 11 30  1  0  0  0  0
 11 31  1  0  0  0  0
 12 15  1  0  0  0  0
 12 32  1  0  0  0  0
 12 33  1  0  0  0  0
 13 17  1  0  0  0  0
 13 34  1  0  0  0  0
 13 35  1  0  0  0  0
 14 36  1  0  0  0  0
 14 37  1  0  0  0  0
 14 38  1  0  0  0  0
 15 16  1  0  0  0  0
 15 39  1  0  0  0  0
 15 40  1  0  0  0  0
 16 20  1  0  0  0  0
 17 19  1  0  0  0  0
 17 41  1  0  0  0  0
 17 42  1  0  0  0  0
 18 19  1  0  0  0  0
 18 43  1  0  0  0  0
 20 44  1  0  0  0  0
 20 45  1  0  0  0  0
 20 46  1  0  0  0  0
M  END
> <PUBCHEM_COMPOUND_CID>
242358

> <PUBCHEM_CONFORMER_RMSD>
0.6

> <PUBCHEM_CONFORMER_DIVERSEORDER>
1

> <PUBCHEM_MMFF94_PARTIAL_CHARGES>
14
1 -0.57
10 0.14
11 0.14
15 0.14
16 -0.28
17 0.06
18 -0.14
19 0.49
20 0.14
4 0.14
43 0.15
5 0.14
8 -0.28
9 -0.28

> <PUBCHEM_EFFECTIVE_ROTOR_COUNT>
1.6

> <PUBCHEM_PHARMACOPHORE_FEATURES>
5
1 1 acceptor
5 5 8 12 15 16 rings
6 2 3 4 7 9 11 rings
6 2 3 5 6 8 10 rings
6 4 9 13 17 18 19 rings

> <PUBCHEM_HEAVY_ATOM_COUNT>
20

> <PUBCHEM_ATOM_DEF_STEREO_COUNT>
4

> <PUBCHEM_ATOM_UDEF_STEREO_COUNT>
0

> <PUBCHEM_BOND_DEF_STEREO_COUNT>
0

> <PUBCHEM_BOND_UDEF_STEREO_COUNT>
0

> <PUBCHEM_ISOTOPIC_ATOM_COUNT>
0

> <PUBCHEM_COMPONENT_COUNT>
1

> <PUBCHEM_CACTVS_TAUTO_COUNT>
5

> <PUBCHEM_CONFORMER_ID>
0003B2B600000001

> <PUBCHEM_MMFF94_ENERGY>
42.2321

> <PUBCHEM_FEATURE_SELFOVERLAP>
25.487

> <PUBCHEM_SHAPE_FINGERPRINT>
10366900 7 17632571673724778178
10616163 171 18410293631182550619
10967382 1 18411703166661292768
11132069 177 18411428284216866465
11578080 2 16843049885884250863
12011746 2 18412268350440754869
12107183 9 17761209212736483995
12236239 1 18040152907679869739
12251169 10 18408600358149277241
12403814 3 17203333299361151623
12553582 1 18340501022539340912
12592029 89 17748818644257106814
128620 24 16773801389578489124
13140716 1 18266744584225910160
13214271 11 18409452470801960791
13221675 6 18408891745477964372
13224815 77 18341623602716032000
13675066 3 18114188527420506570
13862211 1 18411423911998350155
14223421 5 18269839881240921511
14341114 176 18413100667204003618
14787075 74 18272087162986368859
14790565 3 18052249605391286740
15196674 1 18410856542491594968
15209289 33 18413389821550811931
15375462 189 18335990821594826248
15536298 74 18407761417750067880
16945 1 18269855231696773324
17804303 29 18408040706066269841
1813 80 17203605982376257733
18186145 218 18131361803972183902
19141452 34 18040155093533666415
19591789 44 18410294679397365322
19784866 170 18411132546086314755
200 152 18259988162640634123
20261772 1 18260269637533033094
21267235 1 18411692205678133987
21421861 104 18058453286170311050
21652331 79 18412546509149071692
221490 88 18412822482836983890
23402539 116 18334020492926997631
23463225 33 18412265021203011189
23559900 14 18193844966551179026
2748010 2 18266198187351091764
2871803 45 18272095997649771906
335352 9 18410575131939504501
34934 24 18411143545618684205
350125 39 18411135857717310952
4214541 1 18411138073292616801
465052 167 18337382747992790039
5104073 3 18410013212851990394
77779 3 18410573972472290648
8809292 202 18272650134272494266
9709674 26 18412259541020225666

> <PUBCHEM_SHAPE_MULTIPOLES>
405.72
9.54
2.16
0.92
1.07
0.33
-0.35
-1.36
1.51
0.48
-0.02
-0.45
-0.14
-0.08

> <PUBCHEM_SHAPE_SELFOVERLAP>
873.935

> <PUBCHEM_SHAPE_VOLUME>
221.8

> <PUBCHEM_COORDINATE_TYPE>
2
5
10

$$$$

