5281446
  -OEChem-07051212573D

 53 55  0     1  0  0  0  0  0999 V2000
   -3.2089   -3.4229    1.5307 Cl  0  0  0  0  0  0  0  0  0  0  0  0
   -0.8660    2.5951   -0.5159 O   0  0  0  0  0  0  0  0  0  0  0  0
   -2.8406    1.2078    0.9519 O   0  0  0  0  0  0  0  0  0  0  0  0
   -1.4233   -1.1588    2.4018 O   0  0  0  0  0  0  0  0  0  0  0  0
    2.0783   -0.0404    0.1879 O   0  0  0  0  0  0  0  0  0  0  0  0
   -1.1124   -1.8568   -1.9582 O   0  0  0  0  0  0  0  0  0  0  0  0
    0.2857    4.5170   -0.0199 O   0  0  0  0  0  0  0  0  0  0  0  0
    3.2247   -1.7862    1.1571 O   0  0  0  0  0  0  0  0  0  0  0  0
   -2.2041   -0.9832    0.1008 C   0  0  2  0  0  0  0  0  0  0  0  0
   -2.1481    0.5631   -0.1207 C   0  0  2  0  0  0  0  0  0  0  0  0
   -1.1997   -1.6636    1.0789 C   0  0  1  0  0  0  0  0  0  0  0  0
   -0.7373    1.1776   -0.2487 C   0  0  2  0  0  0  0  0  0  0  0  0
    0.0826    1.0872    1.0355 C   0  0  1  0  0  0  0  0  0  0  0  0
   -2.3423   -1.5794   -1.3212 C   0  0  1  0  0  0  0  0  0  0  0  0
    0.2944   -1.4867    0.7519 C   0  0  0  0  0  0  0  0  0  0  0  0
    0.9771   -0.1544    1.0975 C   0  0  1  0  0  0  0  0  0  0  0  0
   -2.9495    0.6910   -1.4078 C   0  0  0  0  0  0  0  0  0  0  0  0
   -3.0365   -0.4797   -2.0534 C   0  0  0  0  0  0  0  0  0  0  0  0
   -1.5021   -3.1748    1.1463 C   0  0  0  0  0  0  0  0  0  0  0  0
    0.7652    2.4149    1.0602 C   0  0  0  0  0  0  0  0  0  0  0  0
   -3.5591    1.9688   -1.8726 C   0  0  0  0  0  0  0  0  0  0  0  0
    0.0786    3.3267    0.1318 C   0  0  0  0  0  0  0  0  0  0  0  0
    1.8141    2.8183    1.7822 C   0  0  0  0  0  0  0  0  0  0  0  0
    2.9593   -1.0779    0.1962 C   0  0  0  0  0  0  0  0  0  0  0  0
    3.5687   -1.2229   -1.1607 C   0  0  0  0  0  0  0  0  0  0  0  0
    2.9114   -2.1487   -2.1409 C   0  0  0  0  0  0  0  0  0  0  0  0
    4.6946   -0.5181   -1.3770 C   0  0  0  0  0  0  0  0  0  0  0  0
    5.3952    0.3869   -0.4138 C   0  0  0  0  0  0  0  0  0  0  0  0
   -3.1970   -1.1033    0.5628 H   0  0  0  0  0  0  0  0  0  0  0  0
   -0.2047    0.7458   -1.1061 H   0  0  0  0  0  0  0  0  0  0  0  0
   -0.5829    1.0838    1.9068 H   0  0  0  0  0  0  0  0  0  0  0  0
   -2.9641   -2.4805   -1.3241 H   0  0  0  0  0  0  0  0  0  0  0  0
    0.4804   -1.7567   -0.2893 H   0  0  0  0  0  0  0  0  0  0  0  0
    0.8305   -2.2547    1.3280 H   0  0  0  0  0  0  0  0  0  0  0  0
    1.3860   -0.2123    2.1159 H   0  0  0  0  0  0  0  0  0  0  0  0
   -3.5410   -0.6231   -2.9987 H   0  0  0  0  0  0  0  0  0  0  0  0
   -0.9329   -3.6535    1.9501 H   0  0  0  0  0  0  0  0  0  0  0  0
   -1.2799   -3.6947    0.2110 H   0  0  0  0  0  0  0  0  0  0  0  0
   -3.7751    0.9402    0.9268 H   0  0  0  0  0  0  0  0  0  0  0  0
   -2.7909    2.6933   -2.1546 H   0  0  0  0  0  0  0  0  0  0  0  0
   -4.1841    2.4072   -1.0888 H   0  0  0  0  0  0  0  0  0  0  0  0
   -4.1967    1.8106   -2.7491 H   0  0  0  0  0  0  0  0  0  0  0  0
   -2.3514   -1.3289    2.6367 H   0  0  0  0  0  0  0  0  0  0  0  0
   -0.8596   -2.7673   -1.7320 H   0  0  0  0  0  0  0  0  0  0  0  0
    2.3062    2.1430    2.4738 H   0  0  0  0  0  0  0  0  0  0  0  0
    2.2088    3.8258    1.7068 H   0  0  0  0  0  0  0  0  0  0  0  0
    3.4998   -2.2490   -3.0585 H   0  0  0  0  0  0  0  0  0  0  0  0
    2.7956   -3.1456   -1.7040 H   0  0  0  0  0  0  0  0  0  0  0  0
    1.9213   -1.7705   -2.4134 H   0  0  0  0  0  0  0  0  0  0  0  0
    5.1715   -0.6076   -2.3514 H   0  0  0  0  0  0  0  0  0  0  0  0
    6.4166    0.0279   -0.2517 H   0  0  0  0  0  0  0  0  0  0  0  0
    4.9109    0.4642    0.5625 H   0  0  0  0  0  0  0  0  0  0  0  0
    5.4539    1.3948   -0.8367 H   0  0  0  0  0  0  0  0  0  0  0  0
  1 19  1  0  0  0  0
  2 12  1  0  0  0  0
  2 22  1  0  0  0  0
  3 10  1  0  0  0  0
  3 39  1  0  0  0  0
  4 11  1  0  0  0  0
  4 43  1  0  0  0  0
  5 16  1  0  0  0  0
  5 24  1  0  0  0  0
  6 14  1  0  0  0  0
  6 44  1  0  0  0  0
  7 22  2  0  0  0  0
  8 24  2  0  0  0  0
  9 10  1  0  0  0  0
  9 11  1  0  0  0  0
  9 14  1  0  0  0  0
  9 29  1  0  0  0  0
 10 12  1  0  0  0  0
 10 17  1  0  0  0  0
 11 15  1  0  0  0  0
 11 19  1  0  0  0  0
 12 13  1  0  0  0  0
 12 30  1  0  0  0  0
 13 16  1  0  0  0  0
 13 20  1  0  0  0  0
 13 31  1  0  0  0  0
 14 18  1  0  0  0  0
 14 32  1  0  0  0  0
 15 16  1  0  0  0  0
 15 33  1  0  0  0  0
 15 34  1  0  0  0  0
 16 35  1  0  0  0  0
 17 18  2  0  0  0  0
 17 21  1  0  0  0  0
 18 36  1  0  0  0  0
 19 37  1  0  0  0  0
 19 38  1  0  0  0  0
 20 22  1  0  0  0  0
 20 23  2  0  0  0  0
 21 40  1  0  0  0  0
 21 41  1  0  0  0  0
 21 42  1  0  0  0  0
 23 45  1  0  0  0  0
 23 46  1  0  0  0  0
 24 25  1  0  0  0  0
 25 26  1  0  0  0  0
 25 27  2  0  0  0  0
 26 47  1  0  0  0  0
 26 48  1  0  0  0  0
 26 49  1  0  0  0  0
 27 28  1  0  0  0  0
 27 50  1  0  0  0  0
 28 51  1  0  0  0  0
 28 52  1  0  0  0  0
 28 53  1  0  0  0  0
M  END
> <PUBCHEM_COMPOUND_CID>
5281446

> <PUBCHEM_CONFORMER_RMSD>
0.8

> <PUBCHEM_CONFORMER_DIVERSEORDER>
1
4
6
8
10
7
9
3
5
2

> <PUBCHEM_MMFF94_PARTIAL_CHARGES>
33
1 -0.29
10 0.42
11 0.28
12 0.28
13 0.14
14 0.42
16 0.28
17 -0.28
18 -0.29
19 0.29
2 -0.43
20 -0.12
21 0.14
22 0.71
23 -0.3
24 0.71
25 -0.12
26 0.14
27 -0.29
28 0.14
3 -0.68
36 0.15
39 0.4
4 -0.68
43 0.4
44 0.4
45 0.15
46 0.15
5 -0.43
50 0.15
6 -0.68
7 -0.57
8 -0.57

> <PUBCHEM_EFFECTIVE_ROTOR_COUNT>
5

> <PUBCHEM_PHARMACOPHORE_FEATURES>
13
1 26 hydrophobe
1 28 hydrophobe
1 3 acceptor
1 3 donor
1 4 acceptor
1 4 donor
1 6 acceptor
1 6 donor
1 7 acceptor
1 8 acceptor
5 2 12 13 20 22 rings
5 9 10 14 17 18 rings
7 9 10 11 12 13 15 16 rings

> <PUBCHEM_HEAVY_ATOM_COUNT>
28

> <PUBCHEM_ATOM_DEF_STEREO_COUNT>
7

> <PUBCHEM_ATOM_UDEF_STEREO_COUNT>
0

> <PUBCHEM_BOND_DEF_STEREO_COUNT>
1

> <PUBCHEM_BOND_UDEF_STEREO_COUNT>
0

> <PUBCHEM_ISOTOPIC_ATOM_COUNT>
0

> <PUBCHEM_COMPONENT_COUNT>
1

> <PUBCHEM_CACTVS_TAUTO_COUNT>
1

> <PUBCHEM_CONFORMER_ID>
005096A600000001

> <PUBCHEM_MMFF94_ENERGY>
99.993

> <PUBCHEM_FEATURE_SELFOVERLAP>
66.036

> <PUBCHEM_SHAPE_FINGERPRINT>
10764073 3 16093689886462664371
10863032 1 15553601971211826769
11640471 11 17203321282222180534
12160290 23 17900818559375681432
12173636 292 17983557878638432828
12293681 160 18195540404469424864
12553582 1 18334579087530470504
12788726 201 18192151714401976424
13149001 5 18342465807116468957
14787075 74 17987795341102733443
14790565 3 18122902302778786033
14955137 171 17968927730149833297
16752209 62 17978240683282496976
16945 1 18195820780150129675
17357779 13 18260267430468365224
17492 54 18265627643900662381
19319366 153 17840887470675358111
20600515 1 17914364375126566088
20775438 99 17689190853384048071
21285901 2 17823706462691964197
21304303 282 17911540975448059204
22182313 1 18195537986486590498
22907989 373 18125128728278257294
23419403 2 18193550073674148810
23557571 272 18269534110315251574
238 59 17832726572813309060
26353 1 18333733533214227436
2748010 2 18267596705784857425
2818148 4 17982420751671377705
394222 165 16842490238955676977
4280585 95 18189077372732634852
469060 322 16700015328896775706
5262128 65 18189355497202285999
81228 2 18116716411858368680
84936 31 17682102288649076114
9709674 26 18051998929929997381

> <PUBCHEM_SHAPE_MULTIPOLES>
537.01
6.97
4.32
2.14
7.47
2.68
-0.4
-2.93
-3.13
-1.19
1.14
-0.76
-0.73
2.45

> <PUBCHEM_SHAPE_SELFOVERLAP>
1135.227

> <PUBCHEM_SHAPE_VOLUME>
299.9

> <PUBCHEM_COORDINATE_TYPE>
2
5
10

$$$$

