3646
  -OEChem-06251223333D

 31 33  0     1  0  0  0  0  0999 V2000
    2.9599   -0.7425   -0.2007 O   0  0  0  0  0  0  0  0  0  0  0  0
    2.9860    1.6574    0.0105 O   0  0  0  0  0  0  0  0  0  0  0  0
    0.5496   -2.2841   -0.2657 O   0  0  0  0  0  0  0  0  0  0  0  0
   -3.1538   -0.1203   -0.3757 N   0  0  2  0  0  0  0  0  0  0  0  0
   -0.6789   -0.2170   -0.0683 C   0  0  0  0  0  0  0  0  0  0  0  0
   -0.6619    1.1925    0.0785 C   0  0  0  0  0  0  0  0  0  0  0  0
   -1.9582    1.9588    0.1491 C   0  0  0  0  0  0  0  0  0  0  0  0
   -1.9914   -0.9690   -0.0604 C   0  0  0  0  0  0  0  0  0  0  0  0
   -3.1600    1.0700    0.4832 C   0  0  0  0  0  0  0  0  0  0  0  0
    0.5271   -0.9300   -0.1565 C   0  0  0  0  0  0  0  0  0  0  0  0
    0.5579    1.8859    0.0999 C   0  0  0  0  0  0  0  0  0  0  0  0
    1.7071   -0.2163   -0.1226 C   0  0  0  0  0  0  0  0  0  0  0  0
    1.7220    1.1526    0.0004 C   0  0  0  0  0  0  0  0  0  0  0  0
   -4.3945   -0.8789   -0.2193 C   0  0  0  0  0  0  0  0  0  0  0  0
    3.7654    0.4507   -0.1152 C   0  0  0  0  0  0  0  0  0  0  0  0
    1.2236   -3.0098    0.7629 C   0  0  0  0  0  0  0  0  0  0  0  0
   -1.8821    2.7479    0.9067 H   0  0  0  0  0  0  0  0  0  0  0  0
   -2.1202    2.4426   -0.8227 H   0  0  0  0  0  0  0  0  0  0  0  0
   -1.9442   -1.7678   -0.8109 H   0  0  0  0  0  0  0  0  0  0  0  0
   -2.1060   -1.4353    0.9275 H   0  0  0  0  0  0  0  0  0  0  0  0
   -3.1399    0.7864    1.5443 H   0  0  0  0  0  0  0  0  0  0  0  0
   -4.0723    1.6575    0.3223 H   0  0  0  0  0  0  0  0  0  0  0  0
    0.5870    2.9666    0.1922 H   0  0  0  0  0  0  0  0  0  0  0  0
   -4.5437   -1.2231    0.8106 H   0  0  0  0  0  0  0  0  0  0  0  0
   -4.3966   -1.7532   -0.8795 H   0  0  0  0  0  0  0  0  0  0  0  0
   -5.2569   -0.2672   -0.5062 H   0  0  0  0  0  0  0  0  0  0  0  0
    4.3819    0.5234   -1.0185 H   0  0  0  0  0  0  0  0  0  0  0  0
    4.4255    0.3667    0.7558 H   0  0  0  0  0  0  0  0  0  0  0  0
    2.2776   -3.1410    0.5030 H   0  0  0  0  0  0  0  0  0  0  0  0
    0.7642   -4.0001    0.8327 H   0  0  0  0  0  0  0  0  0  0  0  0
    1.1281   -2.5174    1.7368 H   0  0  0  0  0  0  0  0  0  0  0  0
  1 12  1  0  0  0  0
  1 15  1  0  0  0  0
  2 13  1  0  0  0  0
  2 15  1  0  0  0  0
  3 10  1  0  0  0  0
  3 16  1  0  0  0  0
  4  8  1  0  0  0  0
  4  9  1  0  0  0  0
  4 14  1  0  0  0  0
  5  6  1  0  0  0  0
  5  8  1  0  0  0  0
  5 10  2  0  0  0  0
  6  7  1  0  0  0  0
  6 11  2  0  0  0  0
  7  9  1  0  0  0  0
  7 17  1  0  0  0  0
  7 18  1  0  0  0  0
  8 19  1  0  0  0  0
  8 20  1  0  0  0  0
  9 21  1  0  0  0  0
  9 22  1  0  0  0  0
 10 12  1  0  0  0  0
 11 13  1  0  0  0  0
 11 23  1  0  0  0  0
 12 13  2  0  0  0  0
 14 24  1  0  0  0  0
 14 25  1  0  0  0  0
 14 26  1  0  0  0  0
 15 27  1  0  0  0  0
 15 28  1  0  0  0  0
 16 29  1  0  0  0  0
 16 30  1  0  0  0  0
 16 31  1  0  0  0  0
M  END
> <PUBCHEM_COMPOUND_CID>
3646

> <PUBCHEM_CONFORMER_RMSD>
0.6

> <PUBCHEM_CONFORMER_DIVERSEORDER>
1
2
3

> <PUBCHEM_MMFF94_PARTIAL_CHARGES>
17
1 -0.36
10 0.08
11 -0.15
12 0.08
13 0.08
14 0.27
15 0.56
16 0.28
2 -0.36
23 0.15
3 -0.36
4 -0.81
5 -0.14
6 -0.14
7 0.14
8 0.41
9 0.27

> <PUBCHEM_EFFECTIVE_ROTOR_COUNT>
2.4

> <PUBCHEM_PHARMACOPHORE_FEATURES>
7
1 1 acceptor
1 2 acceptor
1 3 acceptor
1 4 cation
5 1 2 12 13 15 rings
6 4 5 6 7 8 9 rings
6 5 6 10 11 12 13 rings

> <PUBCHEM_HEAVY_ATOM_COUNT>
16

> <PUBCHEM_ATOM_DEF_STEREO_COUNT>
0

> <PUBCHEM_ATOM_UDEF_STEREO_COUNT>
0

> <PUBCHEM_BOND_DEF_STEREO_COUNT>
0

> <PUBCHEM_BOND_UDEF_STEREO_COUNT>
0

> <PUBCHEM_ISOTOPIC_ATOM_COUNT>
0

> <PUBCHEM_COMPONENT_COUNT>
1

> <PUBCHEM_CACTVS_TAUTO_COUNT>
1

> <PUBCHEM_CONFORMER_ID>
00000E3E00000001

> <PUBCHEM_MMFF94_ENERGY>
50.1754

> <PUBCHEM_FEATURE_SELFOVERLAP>
35.7

> <PUBCHEM_SHAPE_FINGERPRINT>
108231 29 18187925006646815089
10967382 1 18410292480109982430
10980938 120 18410855503104319035
11132069 177 18408609170784203040
11471102 20 18410299090565876045
11578080 2 17057246854277148014
11806522 49 18335423405260357063
12032990 46 18335696148099173388
12553582 1 17547008993090903003
13140716 1 18193839236948424219
13221675 6 18335139795521402399
13380535 76 18413107247136404371
14178342 30 18265061412444689824
14251717 144 18410014312511381847
14325111 11 18408602560856044524
14614273 12 18272378606582504989
15196674 1 18408884048722730477
15309172 13 18339353076539098193
15375462 189 18335414712283531945
15442244 35 17977384159445167043
15536298 74 18187926222401770638
16945 1 18339363092387137901
18186145 218 18409444795526812172
19021347 11 18411983584833559411
193761 8 17978511163084965948
19591789 44 18410008853587239342
200 152 18114190713928235981
20201158 50 18413670210306822507
20510252 161 18259702281091353256
20645476 183 17772173233603968990
20645477 70 18334861653766608271
21267235 1 18336537261657129319
21501502 16 18266461099484008147
21524375 3 18335702706825503158
2334 1 17905890275554157855
23402539 116 18262527978924697854
23402655 69 18335146405929979237
23463225 33 18340488962508634912
23552423 10 18339921635888547989
23559900 14 18119819255131035698
2748010 2 17688589368587406844
2871803 45 18410579478905233407
3312278 4 18335982047372435193
335352 9 18049158066392713228
33824 294 18412265021593498795
34934 24 18336832008568146125
4072396 5 18270141078739162595
43471831 8 18413111684006426290
5104073 3 18408602582441385425
528886 8 18409735019130079256
53812653 166 18334296491388090568
54173680 148 17979351963194796306
7364860 26 18191866936310682446
81228 2 17618234900955147802
8809292 202 18200308815006300331

> <PUBCHEM_SHAPE_MULTIPOLES>
306.68
5.99
2.56
0.67
2.44
1.23
0.04
-0.31
-0.34
-0.71
0.43
0.05
0.1
-0.37

> <PUBCHEM_SHAPE_SELFOVERLAP>
667.147

> <PUBCHEM_SHAPE_VOLUME>
167.1

> <PUBCHEM_COORDINATE_TYPE>
2
5
10

$$$$

