441818
  -OEChem-07051212563D

 84 87  0     1  0  0  0  0  0999 V2000
    2.0992   -2.6571    0.2966 O   0  0  0  0  0  0  0  0  0  0  0  0
   -1.9017    3.1538    0.2845 O   0  0  0  0  0  0  0  0  0  0  0  0
    3.1921    0.9185    1.4010 O   0  0  0  0  0  0  0  0  0  0  0  0
   -6.6818    2.1950   -1.5976 O   0  0  0  0  0  0  0  0  0  0  0  0
    3.8629   -1.2448   -1.2413 O   0  0  0  0  0  0  0  0  0  0  0  0
   -7.5151   -0.2767   -1.2493 O   0  0  0  0  0  0  0  0  0  0  0  0
    6.2638    0.3238   -2.1761 O   0  0  0  0  0  0  0  0  0  0  0  0
    8.2503   -0.6546    0.7643 O   0  0  0  0  0  0  0  0  0  0  0  0
   -0.6289   -0.7738    0.9149 C   0  0  2  0  0  0  0  0  0  0  0  0
    0.3357    0.4447    0.6786 C   0  0  1  0  0  0  0  0  0  0  0  0
   -1.8763   -0.2750    1.7099 C   0  0  1  0  0  0  0  0  0  0  0  0
   -2.6230    0.9464    1.0466 C   0  0  2  0  0  0  0  0  0  0  0  0
    1.5890   -0.2746    0.1219 C   0  0  2  0  0  0  0  0  0  0  0  0
    0.3129   -1.7403    1.6776 C   0  0  0  0  0  0  0  0  0  0  0  0
    1.7100   -1.5149    1.0466 C   0  0  1  0  0  0  0  0  0  0  0  0
   -0.3476    1.4349   -0.2593 C   0  0  0  0  0  0  0  0  0  0  0  0
   -3.6542    0.5100   -0.0713 C   0  0  1  0  0  0  0  0  0  0  0  0
   -1.6318    1.9525    0.3807 C   0  0  0  0  0  0  0  0  0  0  0  0
   -2.8679   -1.3754    2.1274 C   0  0  0  0  0  0  0  0  0  0  0  0
   -1.0419   -1.5372   -0.3808 C   0  0  0  0  0  0  0  0  0  0  0  0
    0.7371    1.2301    1.9720 C   0  0  0  0  0  0  0  0  0  0  0  0
    2.8836    0.5318    0.0633 C   0  0  1  0  0  0  0  0  0  0  0  0
   -4.3119   -0.8618    0.1206 C   0  0  0  0  0  0  0  0  0  0  0  0
   -3.3282    1.7054    2.2083 C   0  0  0  0  0  0  0  0  0  0  0  0
   -4.7582    1.5704   -0.2997 C   0  0  0  0  0  0  0  0  0  0  0  0
   -3.9583   -1.6571    1.1472 C   0  0  0  0  0  0  0  0  0  0  0  0
   -5.3292   -1.3046   -0.9514 C   0  0  0  0  0  0  0  0  0  0  0  0
   -5.6588    1.2222   -1.4746 C   0  0  1  0  0  0  0  0  0  0  0  0
    2.7147    1.7961   -0.7733 C   0  0  0  0  0  0  0  0  0  0  0  0
    4.0540   -0.3204   -0.4483 C   0  0  0  0  0  0  0  0  0  0  0  0
   -6.2923   -0.1307   -1.2118 C   0  0  0  0  0  0  0  0  0  0  0  0
   -4.6031   -1.6531   -2.2647 C   0  0  0  0  0  0  0  0  0  0  0  0
   -6.1754   -2.5388   -0.5594 C   0  0  0  0  0  0  0  0  0  0  0  0
    5.4557    0.0236    0.0563 C   0  0  0  0  0  0  0  0  0  0  0  0
    6.5595   -0.3435   -0.9490 C   0  0  2  0  0  0  0  0  0  0  0  0
    7.9849    0.0283   -0.4654 C   0  0  0  0  0  0  0  0  0  0  0  0
    8.1044    1.5326   -0.1871 C   0  0  0  0  0  0  0  0  0  0  0  0
    9.0760   -0.3853   -1.4578 C   0  0  0  0  0  0  0  0  0  0  0  0
   -1.4749    0.0663    2.6733 H   0  0  0  0  0  0  0  0  0  0  0  0
    1.3889   -0.6021   -0.9066 H   0  0  0  0  0  0  0  0  0  0  0  0
   -0.0094   -2.7857    1.6162 H   0  0  0  0  0  0  0  0  0  0  0  0
    0.3455   -1.4754    2.7411 H   0  0  0  0  0  0  0  0  0  0  0  0
    2.4371   -1.4174    1.8547 H   0  0  0  0  0  0  0  0  0  0  0  0
   -0.5905    1.0025   -1.2339 H   0  0  0  0  0  0  0  0  0  0  0  0
    0.2619    2.3182   -0.4522 H   0  0  0  0  0  0  0  0  0  0  0  0
   -3.1016    0.4658   -1.0167 H   0  0  0  0  0  0  0  0  0  0  0  0
   -3.3433   -1.1001    3.0776 H   0  0  0  0  0  0  0  0  0  0  0  0
   -2.3258   -2.3062    2.3303 H   0  0  0  0  0  0  0  0  0  0  0  0
   -0.2028   -1.9062   -0.9706 H   0  0  0  0  0  0  0  0  0  0  0  0
   -1.6366   -2.4245   -0.1401 H   0  0  0  0  0  0  0  0  0  0  0  0
   -1.6196   -0.9266   -1.0702 H   0  0  0  0  0  0  0  0  0  0  0  0
    1.2612    0.6190    2.7125 H   0  0  0  0  0  0  0  0  0  0  0  0
    1.3157    2.1324    1.7532 H   0  0  0  0  0  0  0  0  0  0  0  0
   -0.1383    1.6223    2.4988 H   0  0  0  0  0  0  0  0  0  0  0  0
   -2.6147    1.9588    3.0015 H   0  0  0  0  0  0  0  0  0  0  0  0
   -3.7625    2.6586    1.8887 H   0  0  0  0  0  0  0  0  0  0  0  0
   -4.1296    1.1094    2.6565 H   0  0  0  0  0  0  0  0  0  0  0  0
   -5.3830    1.6732    0.5977 H   0  0  0  0  0  0  0  0  0  0  0  0
   -4.3207    2.5586   -0.4816 H   0  0  0  0  0  0  0  0  0  0  0  0
   -4.4319   -2.6233    1.2873 H   0  0  0  0  0  0  0  0  0  0  0  0
    1.4098   -2.8673   -0.3517 H   0  0  0  0  0  0  0  0  0  0  0  0
   -5.1090    1.1934   -2.4191 H   0  0  0  0  0  0  0  0  0  0  0  0
    3.6961    2.1692   -1.0933 H   0  0  0  0  0  0  0  0  0  0  0  0
    2.1511    1.6099   -1.6931 H   0  0  0  0  0  0  0  0  0  0  0  0
    2.2780    2.6253   -0.2122 H   0  0  0  0  0  0  0  0  0  0  0  0
    3.5438    0.1611    1.8946 H   0  0  0  0  0  0  0  0  0  0  0  0
   -3.9999   -0.8249   -2.6497 H   0  0  0  0  0  0  0  0  0  0  0  0
   -3.9323   -2.5097   -2.1294 H   0  0  0  0  0  0  0  0  0  0  0  0
   -5.3212   -1.9098   -3.0527 H   0  0  0  0  0  0  0  0  0  0  0  0
   -6.9276   -2.7649   -1.3253 H   0  0  0  0  0  0  0  0  0  0  0  0
   -5.5594   -3.4388   -0.4506 H   0  0  0  0  0  0  0  0  0  0  0  0
   -6.7154   -2.3723    0.3803 H   0  0  0  0  0  0  0  0  0  0  0  0
    5.4663    1.1050    0.2242 H   0  0  0  0  0  0  0  0  0  0  0  0
    5.6076   -0.4866    1.0125 H   0  0  0  0  0  0  0  0  0  0  0  0
   -7.1346    2.2714   -0.7405 H   0  0  0  0  0  0  0  0  0  0  0  0
    6.5210   -1.4237   -1.1399 H   0  0  0  0  0  0  0  0  0  0  0  0
    5.4616   -0.0778   -2.5503 H   0  0  0  0  0  0  0  0  0  0  0  0
    7.8415    2.1359   -1.0616 H   0  0  0  0  0  0  0  0  0  0  0  0
    9.1317    1.7870    0.1011 H   0  0  0  0  0  0  0  0  0  0  0  0
    7.4836    1.8410    0.6601 H   0  0  0  0  0  0  0  0  0  0  0  0
   10.0741   -0.1908   -1.0487 H   0  0  0  0  0  0  0  0  0  0  0  0
    8.9814    0.1458   -2.4103 H   0  0  0  0  0  0  0  0  0  0  0  0
    9.0287   -1.4619   -1.6575 H   0  0  0  0  0  0  0  0  0  0  0  0
    8.1701   -1.6095    0.5982 H   0  0  0  0  0  0  0  0  0  0  0  0
  1 15  1  0  0  0  0
  1 61  1  0  0  0  0
  2 18  2  0  0  0  0
  3 22  1  0  0  0  0
  3 66  1  0  0  0  0
  4 28  1  0  0  0  0
  4 75  1  0  0  0  0
  5 30  2  0  0  0  0
  6 31  2  0  0  0  0
  7 35  1  0  0  0  0
  7 77  1  0  0  0  0
  8 36  1  0  0  0  0
  8 84  1  0  0  0  0
  9 10  1  0  0  0  0
  9 11  1  0  0  0  0
  9 14  1  0  0  0  0
  9 20  1  0  0  0  0
 10 13  1  0  0  0  0
 10 16  1  0  0  0  0
 10 21  1  0  0  0  0
 11 12  1  0  0  0  0
 11 19  1  0  0  0  0
 11 39  1  0  0  0  0
 12 17  1  0  0  0  0
 12 18  1  0  0  0  0
 12 24  1  0  0  0  0
 13 15  1  0  0  0  0
 13 22  1  0  0  0  0
 13 40  1  0  0  0  0
 14 15  1  0  0  0  0
 14 41  1  0  0  0  0
 14 42  1  0  0  0  0
 15 43  1  0  0  0  0
 16 18  1  0  0  0  0
 16 44  1  0  0  0  0
 16 45  1  0  0  0  0
 17 23  1  0  0  0  0
 17 25  1  0  0  0  0
 17 46  1  0  0  0  0
 19 26  1  0  0  0  0
 19 47  1  0  0  0  0
 19 48  1  0  0  0  0
 20 49  1  0  0  0  0
 20 50  1  0  0  0  0
 20 51  1  0  0  0  0
 21 52  1  0  0  0  0
 21 53  1  0  0  0  0
 21 54  1  0  0  0  0
 22 29  1  0  0  0  0
 22 30  1  0  0  0  0
 23 26  2  0  0  0  0
 23 27  1  0  0  0  0
 24 55  1  0  0  0  0
 24 56  1  0  0  0  0
 24 57  1  0  0  0  0
 25 28  1  0  0  0  0
 25 58  1  0  0  0  0
 25 59  1  0  0  0  0
 26 60  1  0  0  0  0
 27 31  1  0  0  0  0
 27 32  1  0  0  0  0
 27 33  1  0  0  0  0
 28 31  1  0  0  0  0
 28 62  1  0  0  0  0
 29 63  1  0  0  0  0
 29 64  1  0  0  0  0
 29 65  1  0  0  0  0
 30 34  1  0  0  0  0
 32 67  1  0  0  0  0
 32 68  1  0  0  0  0
 32 69  1  0  0  0  0
 33 70  1  0  0  0  0
 33 71  1  0  0  0  0
 33 72  1  0  0  0  0
 34 35  1  0  0  0  0
 34 73  1  0  0  0  0
 34 74  1  0  0  0  0
 35 36  1  0  0  0  0
 35 76  1  0  0  0  0
 36 37  1  0  0  0  0
 36 38  1  0  0  0  0
 37 78  1  0  0  0  0
 37 79  1  0  0  0  0
 37 80  1  0  0  0  0
 38 81  1  0  0  0  0
 38 82  1  0  0  0  0
 38 83  1  0  0  0  0
M  END
> <PUBCHEM_COMPOUND_CID>
441818

> <PUBCHEM_CONFORMER_RMSD>
1

> <PUBCHEM_CONFORMER_DIVERSEORDER>
9
11
14
10
13
12
8
5
2
3
6
7
1
4

> <PUBCHEM_MMFF94_PARTIAL_CHARGES>
30
1 -0.68
12 0.06
15 0.28
16 0.06
17 0.14
18 0.45
19 0.14
2 -0.57
22 0.34
23 -0.28
26 -0.29
27 0.2
28 0.34
3 -0.68
30 0.45
31 0.45
34 0.06
35 0.28
36 0.28
4 -0.68
5 -0.57
6 -0.57
60 0.15
61 0.4
66 0.4
7 -0.68
75 0.4
77 0.4
8 -0.68
84 0.4

> <PUBCHEM_EFFECTIVE_ROTOR_COUNT>
6.6

> <PUBCHEM_PHARMACOPHORE_FEATURES>
19
1 1 acceptor
1 1 donor
1 2 acceptor
1 3 acceptor
1 3 donor
1 4 acceptor
1 4 donor
1 5 acceptor
1 6 acceptor
1 7 acceptor
1 7 donor
1 8 acceptor
1 8 donor
3 27 32 33 hydrophobe
3 36 37 38 hydrophobe
5 9 10 13 14 15 rings
6 11 12 17 19 23 26 rings
6 17 23 25 27 28 31 rings
6 9 10 11 12 16 18 rings

> <PUBCHEM_HEAVY_ATOM_COUNT>
38

> <PUBCHEM_ATOM_DEF_STEREO_COUNT>
9

> <PUBCHEM_ATOM_UDEF_STEREO_COUNT>
1

> <PUBCHEM_BOND_DEF_STEREO_COUNT>
0

> <PUBCHEM_BOND_UDEF_STEREO_COUNT>
0

> <PUBCHEM_ISOTOPIC_ATOM_COUNT>
0

> <PUBCHEM_COMPONENT_COUNT>
1

> <PUBCHEM_CACTVS_TAUTO_COUNT>
16

> <PUBCHEM_CONFORMER_ID>
0006BDDA00000009

> <PUBCHEM_MMFF94_ENERGY>
156.9454

> <PUBCHEM_FEATURE_SELFOVERLAP>
96.544

> <PUBCHEM_SHAPE_FINGERPRINT>
10 15 10952054454698415037
10076449 9 17968094192302010643
10100884 174 7636240755348510317
10165383 225 17131838673300681967
10299344 5 6050442622311995278
10391435 84 17168155498636066790
10554248 39 17846771928406551358
10577160 183 16916798370498225394
10670039 82 17847067683621773045
10674148 151 17458062677907855235
11007060 377 18131063788997425680
11135926 11 18130783481940849203
11181472 205 16630525181368990654
11315181 36 18333728013748553225
11456790 92 11959740339923850940
11578821 258 17059199355923413700
12082328 90 17918274247059473695
12788726 201 18265061404598696649
13540713 5 18054233399165600121
13782708 43 16009021822299298726
13811026 1 18186807950515413288
13914758 101 16988844982325784802
14068700 675 18411421708870609852
150020 25 18260271841284045604
15064986 96 11671795887549640704
15183329 4 17775563140064715262
15324884 4 18050006588874562179
15461852 350 18334289865044590588
1577012 14 17989491844251769130
16110190 28 8142082065767529234
18681886 176 18339368474139370200
19958102 18 17676758847228088462
20105231 36 18339922620528718467
21033648 29 13542176127271737004
21033650 10 18272655684114253417
21792961 116 17988921159183963651
21792965 68 14836129892065153749
22393880 68 18337403677542314843
23559900 14 18341895160387085312
23569914 152 17468767737263185839
23569943 247 16446692429268860750
23576562 1 17630601224434212902
24771293 8 18335975420860902748
2838139 119 16128658552529594221
354706 132 17489875947293321551
4353968 344 18337109085920170366
44880568 143 18187638142151415944
4760202 70 4822343148227683944
484989 97 18266737991699452939
504579 68 18334015003468247652
5104073 3 8430302533403731118
54039377 194 18187926119834804551
563151 74 14045743759035922777
563151 97 17988082325805242080
6004065 56 18187365403253638872
6009941 240 15697709355854514368
6086070 43 17417531311352356696
6371009 1 18131062741347587388
7226269 152 11887678363869508007
9896288 288 9799154949057327615
9953998 17 8430319043753499359
999808 66 4750877043831243156

> <PUBCHEM_SHAPE_MULTIPOLES>
735.07
21.85
2.39
1.93
36.89
0.32
0.18
-1.24
-13.22
-2.8
0.09
-1.41
-0.12
0

> <PUBCHEM_SHAPE_SELFOVERLAP>
1564.007

> <PUBCHEM_SHAPE_VOLUME>
406.6

> <PUBCHEM_COORDINATE_TYPE>
2
5
10

$$$$

