5280472
  -OEChem-07051212462D

 38 37  0     1  0  0  0  0  0999 V2000
    7.7331   -0.0950    0.0000 P   0  0  3  0  0  0  0  0  0  0  0  0
    8.5991    0.4050    0.0000 O   0  0  0  0  0  0  0  0  0  0  0  0
    6.8671   -0.5950    0.0000 O   0  0  0  0  0  0  0  0  0  0  0  0
   12.0632    0.4050    0.0000 O   0  0  0  0  0  0  0  0  0  0  0  0
    7.2331    0.7710    0.0000 O   0  0  0  0  0  0  0  0  0  0  0  0
   11.1972   -1.0950    0.0000 O   0  0  0  0  0  0  0  0  0  0  0  0
    8.2331   -0.9610    0.0000 O   0  0  0  0  0  0  0  0  0  0  0  0
   10.3312    1.4050    0.0000 N   0  0  0  0  0  0  0  0  0  0  0  0
    4.2690   -0.0950    0.0000 N   0  0  0  0  0  0  0  0  0  0  0  0
    2.5369   -0.0950    0.0000 N   0  0  0  0  0  0  0  0  0  0  0  0
    3.4030   -1.5950    0.0000 N   0  0  0  0  0  0  0  0  0  0  0  0
   10.3312    0.4050    0.0000 C   0  0  1  0  0  0  0  0  0  0  0  0
    9.4651   -0.0950    0.0000 C   0  0  0  0  0  0  0  0  0  0  0  0
   11.1972   -0.0950    0.0000 C   0  0  0  0  0  0  0  0  0  0  0  0
   11.1972    1.9050    0.0000 C   0  0  0  0  0  0  0  0  0  0  0  0
    9.4651    1.9050    0.0000 C   0  0  0  0  0  0  0  0  0  0  0  0
    6.0010   -0.0950    0.0000 C   0  0  0  0  0  0  0  0  0  0  0  0
    5.1350   -0.5950    0.0000 C   0  0  0  0  0  0  0  0  0  0  0  0
    3.4030   -0.5950    0.0000 C   0  0  0  0  0  0  0  0  0  0  0  0
   10.8681    0.7150    0.0000 H   0  0  0  0  0  0  0  0  0  0  0  0
    9.0666   -0.5699    0.0000 H   0  0  0  0  0  0  0  0  0  0  0  0
    9.8637   -0.5699    0.0000 H   0  0  0  0  0  0  0  0  0  0  0  0
   11.5072    1.3681    0.0000 H   0  0  0  0  0  0  0  0  0  0  0  0
   11.7341    2.2150    0.0000 H   0  0  0  0  0  0  0  0  0  0  0  0
   10.8872    2.4419    0.0000 H   0  0  0  0  0  0  0  0  0  0  0  0
    9.7751    2.4419    0.0000 H   0  0  0  0  0  0  0  0  0  0  0  0
    8.9282    2.2150    0.0000 H   0  0  0  0  0  0  0  0  0  0  0  0
    9.1551    1.3681    0.0000 H   0  0  0  0  0  0  0  0  0  0  0  0
    6.3996    0.3799    0.0000 H   0  0  0  0  0  0  0  0  0  0  0  0
    5.6025    0.3799    0.0000 H   0  0  0  0  0  0  0  0  0  0  0  0
    4.7365   -1.0700    0.0000 H   0  0  0  0  0  0  0  0  0  0  0  0
    5.5335   -1.0700    0.0000 H   0  0  0  0  0  0  0  0  0  0  0  0
   12.6002    0.0950    0.0000 H   0  0  0  0  0  0  0  0  0  0  0  0
    7.5431    1.3080    0.0000 H   0  0  0  0  0  0  0  0  0  0  0  0
    2.0000   -0.4050    0.0000 H   0  0  0  0  0  0  0  0  0  0  0  0
    2.5369    0.5250    0.0000 H   0  0  0  0  0  0  0  0  0  0  0  0
    2.8660   -1.9050    0.0000 H   0  0  0  0  0  0  0  0  0  0  0  0
    3.9399   -1.9050    0.0000 H   0  0  0  0  0  0  0  0  0  0  0  0
  1  2  1  0  0  0  0
  1  3  1  0  0  0  0
  1  5  1  0  0  0  0
  1  7  2  0  0  0  0
  2 13  1  0  0  0  0
  3 17  1  0  0  0  0
  4 14  1  0  0  0  0
  4 33  1  0  0  0  0
  5 34  1  0  0  0  0
  6 14  2  0  0  0  0
 12  8  1  6  0  0  0
  8 15  1  0  0  0  0
  8 16  1  0  0  0  0
  9 18  1  0  0  0  0
  9 19  2  0  0  0  0
 10 19  1  0  0  0  0
 10 35  1  0  0  0  0
 10 36  1  0  0  0  0
 11 19  1  0  0  0  0
 11 37  1  0  0  0  0
 11 38  1  0  0  0  0
 12 13  1  0  0  0  0
 12 14  1  0  0  0  0
 12 20  1  0  0  0  0
 13 21  1  0  0  0  0
 13 22  1  0  0  0  0
 15 23  1  0  0  0  0
 15 24  1  0  0  0  0
 15 25  1  0  0  0  0
 16 26  1  0  0  0  0
 16 27  1  0  0  0  0
 16 28  1  0  0  0  0
 17 18  1  0  0  0  0
 17 29  1  0  0  0  0
 17 30  1  0  0  0  0
 18 31  1  0  0  0  0
 18 32  1  0  0  0  0
M  END
> <PUBCHEM_COMPOUND_CID>
5280472

> <PUBCHEM_COMPOUND_CANONICALIZED>
1

> <PUBCHEM_CACTVS_COMPLEXITY>
370

> <PUBCHEM_CACTVS_HBOND_ACCEPTOR>
8

> <PUBCHEM_CACTVS_HBOND_DONOR>
4

> <PUBCHEM_CACTVS_ROTATABLE_BOND>
9

> <PUBCHEM_CACTVS_SUBSKEYS>
AAADceBzuAIAAAAAAAAAAAAAAAAAAAAAAAAAAAAAAAAAAAAAAAAAHgAQCCAACCjhgAYDCANAAxAoQACQLIAAAAEAAAAAAAGIAAACAAQAACAAQAABIAAQAAAAAAAAAAAAAAAAAAAAAAAAAAAAAAAAAAAAAA==

> <PUBCHEM_IUPAC_OPENEYE_NAME>
(2S)-2-(dimethylamino)-3-[2-guanidinoethoxy(hydroxy)phosphoryl]oxy-propanoic acid

> <PUBCHEM_IUPAC_CAS_NAME>
(2S)-3-[2-(diaminomethylideneamino)ethoxy-hydroxyphosphoryl]oxy-2-(dimethylamino)propanoic acid

> <PUBCHEM_IUPAC_NAME>
(2S)-3-[2-(diaminomethylideneamino)ethoxy-hydroxyphosphoryl]oxy-2-(dimethylamino)propanoic acid

> <PUBCHEM_IUPAC_SYSTEMATIC_NAME>
(2S)-3-[2-[bis(azanyl)methylideneamino]ethoxy-oxidanyl-phosphoryl]oxy-2-(dimethylamino)propanoic acid

> <PUBCHEM_IUPAC_TRADITIONAL_NAME>
(2S)-2-(dimethylamino)-3-[2-guanidinoethoxy(hydroxy)phosphoryl]oxy-propionic acid

> <PUBCHEM_IUPAC_INCHI>
InChI=1S/C8H19N4O6P/c1-12(2)6(7(13)14)5-18-19(15,16)17-4-3-11-8(9)10/h6H,3-5H2,1-2H3,(H,13,14)(H,15,16)(H4,9,10,11)/t6-/m0/s1

> <PUBCHEM_IUPAC_INCHIKEY>
FRAIHXIYAIPKII-LURJTMIESA-N

> <PUBCHEM_XLOGP3_AA>
-5.2

> <PUBCHEM_EXACT_MASS>
298.104221

> <PUBCHEM_MOLECULAR_FORMULA>
C8H19N4O6P

> <PUBCHEM_MOLECULAR_WEIGHT>
298.233422

> <PUBCHEM_OPENEYE_CAN_SMILES>
CN(C)C(COP(=O)(O)OCCN=C(N)N)C(=O)O

> <PUBCHEM_OPENEYE_ISO_SMILES>
CN(C)[C@@H](COP(=O)(O)OCCN=C(N)N)C(=O)O

> <PUBCHEM_CACTVS_TPSA>
161

> <PUBCHEM_MONOISOTOPIC_WEIGHT>
298.104221

> <PUBCHEM_TOTAL_CHARGE>
0

> <PUBCHEM_HEAVY_ATOM_COUNT>
19

> <PUBCHEM_ATOM_DEF_STEREO_COUNT>
1

> <PUBCHEM_ATOM_UDEF_STEREO_COUNT>
0

> <PUBCHEM_BOND_DEF_STEREO_COUNT>
0

> <PUBCHEM_BOND_UDEF_STEREO_COUNT>
0

> <PUBCHEM_ISOTOPIC_ATOM_COUNT>
0

> <PUBCHEM_COMPONENT_COUNT>
1

> <PUBCHEM_CACTVS_TAUTO_COUNT>
2

> <PUBCHEM_COORDINATE_TYPE>
1
5
255

> <PUBCHEM_BONDANNOTATIONS>
12  8  6

$$$$

