17396137
  -OEChem-06241222543D

 51 53  0     1  0  0  0  0  0999 V2000
   -1.5632   -2.9853    0.7236 S   0  0  0  0  0  0  0  0  0  0  0  0
   -3.7770   -0.8061    1.2455 O   0  0  0  0  0  0  0  0  0  0  0  0
    5.0842    0.3348   -0.0714 O   0  0  0  0  0  0  0  0  0  0  0  0
   -3.0939   -0.0127   -0.8275 N   0  0  0  0  0  0  0  0  0  0  0  0
    0.8740   -1.6878    0.7529 N   0  0  0  0  0  0  0  0  0  0  0  0
   -0.0738   -1.7097   -1.2191 N   0  0  0  0  0  0  0  0  0  0  0  0
    1.1289   -1.0394   -1.3213 N   0  0  0  0  0  0  0  0  0  0  0  0
   -2.1778    2.0903    0.0018 C   0  0  0  0  0  0  0  0  0  0  0  0
   -2.5224    3.5515    0.3204 C   0  0  0  0  0  0  0  0  0  0  0  0
   -0.9736    2.0071   -0.9459 C   0  0  0  0  0  0  0  0  0  0  0  0
   -1.3152    4.3087    0.8692 C   0  0  0  0  0  0  0  0  0  0  0  0
    0.2310    2.7668   -0.3948 C   0  0  0  0  0  0  0  0  0  0  0  0
   -0.1176    4.2162   -0.0712 C   0  0  0  0  0  0  0  0  0  0  0  0
   -3.3848    1.3692   -0.5952 C   0  0  0  0  0  0  0  0  0  0  0  0
   -3.3153   -1.0083    0.1239 C   0  0  0  0  0  0  0  0  0  0  0  0
   -2.9048   -2.3918   -0.3588 C   0  0  2  0  0  0  0  0  0  0  0  0
   -4.0703   -3.3715   -0.3176 C   0  0  0  0  0  0  0  0  0  0  0  0
   -0.2084   -2.0905    0.0311 C   0  0  0  0  0  0  0  0  0  0  0  0
    1.6817   -1.0366   -0.1293 C   0  0  0  0  0  0  0  0  0  0  0  0
    2.9816   -0.4163    0.1852 C   0  0  0  0  0  0  0  0  0  0  0  0
    1.1323   -1.8976    2.1591 C   0  0  0  0  0  0  0  0  0  0  0  0
    4.0398   -0.2821   -0.6834 C   0  0  0  0  0  0  0  0  0  0  0  0
    3.4031    0.1548    1.4096 C   0  0  0  0  0  0  0  0  0  0  0  0
    4.2527   -0.6613   -2.0890 C   0  0  0  0  0  0  0  0  0  0  0  0
    4.6887    0.5976    1.2020 C   0  0  0  0  0  0  0  0  0  0  0  0
   -1.9018    1.5922    0.9421 H   0  0  0  0  0  0  0  0  0  0  0  0
   -2.8832    4.0558   -0.5851 H   0  0  0  0  0  0  0  0  0  0  0  0
   -3.3373    3.5923    1.0529 H   0  0  0  0  0  0  0  0  0  0  0  0
   -0.6829    0.9675   -1.1134 H   0  0  0  0  0  0  0  0  0  0  0  0
   -1.2412    2.4225   -1.9260 H   0  0  0  0  0  0  0  0  0  0  0  0
   -1.5802    5.3603    1.0261 H   0  0  0  0  0  0  0  0  0  0  0  0
   -1.0423    3.8983    1.8492 H   0  0  0  0  0  0  0  0  0  0  0  0
    0.5928    2.2669    0.5123 H   0  0  0  0  0  0  0  0  0  0  0  0
    1.0496    2.7376   -1.1228 H   0  0  0  0  0  0  0  0  0  0  0  0
   -0.3413    4.7539   -1.0008 H   0  0  0  0  0  0  0  0  0  0  0  0
    0.7478    4.7109    0.3838 H   0  0  0  0  0  0  0  0  0  0  0  0
   -3.6711    1.8105   -1.5563 H   0  0  0  0  0  0  0  0  0  0  0  0
   -4.2457    1.4458    0.0786 H   0  0  0  0  0  0  0  0  0  0  0  0
   -2.7065   -0.2664   -1.7314 H   0  0  0  0  0  0  0  0  0  0  0  0
   -2.5493   -2.3535   -1.3936 H   0  0  0  0  0  0  0  0  0  0  0  0
   -3.7743   -4.3629   -0.6775 H   0  0  0  0  0  0  0  0  0  0  0  0
   -4.8855   -3.0153   -0.9579 H   0  0  0  0  0  0  0  0  0  0  0  0
   -4.4826   -3.4773    0.6926 H   0  0  0  0  0  0  0  0  0  0  0  0
    2.1845   -2.1548    2.3015 H   0  0  0  0  0  0  0  0  0  0  0  0
    0.5385   -2.7326    2.5356 H   0  0  0  0  0  0  0  0  0  0  0  0
    0.8659   -0.9855    2.6980 H   0  0  0  0  0  0  0  0  0  0  0  0
    2.8538    0.2623    2.3332 H   0  0  0  0  0  0  0  0  0  0  0  0
    3.9769   -1.7074   -2.2548 H   0  0  0  0  0  0  0  0  0  0  0  0
    5.3009   -0.5427   -2.3815 H   0  0  0  0  0  0  0  0  0  0  0  0
    3.6452   -0.0356   -2.7501 H   0  0  0  0  0  0  0  0  0  0  0  0
    5.4166    1.0979    1.8235 H   0  0  0  0  0  0  0  0  0  0  0  0
  1 16  1  0  0  0  0
  1 18  1  0  0  0  0
  2 15  2  0  0  0  0
  3 22  1  0  0  0  0
  3 25  1  0  0  0  0
  4 14  1  0  0  0  0
  4 15  1  0  0  0  0
  4 39  1  0  0  0  0
  5 18  1  0  0  0  0
  5 19  1  0  0  0  0
  5 21  1  0  0  0  0
  6  7  1  0  0  0  0
  6 18  2  0  0  0  0
  7 19  2  0  0  0  0
  8  9  1  0  0  0  0
  8 10  1  0  0  0  0
  8 14  1  0  0  0  0
  8 26  1  0  0  0  0
  9 11  1  0  0  0  0
  9 27  1  0  0  0  0
  9 28  1  0  0  0  0
 10 12  1  0  0  0  0
 10 29  1  0  0  0  0
 10 30  1  0  0  0  0
 11 13  1  0  0  0  0
 11 31  1  0  0  0  0
 11 32  1  0  0  0  0
 12 13  1  0  0  0  0
 12 33  1  0  0  0  0
 12 34  1  0  0  0  0
 13 35  1  0  0  0  0
 13 36  1  0  0  0  0
 14 37  1  0  0  0  0
 14 38  1  0  0  0  0
 15 16  1  0  0  0  0
 16 17  1  0  0  0  0
 16 40  1  0  0  0  0
 17 41  1  0  0  0  0
 17 42  1  0  0  0  0
 17 43  1  0  0  0  0
 19 20  1  0  0  0  0
 20 22  2  0  0  0  0
 20 23  1  0  0  0  0
 21 44  1  0  0  0  0
 21 45  1  0  0  0  0
 21 46  1  0  0  0  0
 22 24  1  0  0  0  0
 23 25  2  0  0  0  0
 23 47  1  0  0  0  0
 24 48  1  0  0  0  0
 24 49  1  0  0  0  0
 24 50  1  0  0  0  0
 25 51  1  0  0  0  0
M  END
> <PUBCHEM_COMPOUND_CID>
17396137

> <PUBCHEM_CONFORMER_RMSD>
1.4

> <PUBCHEM_CONFORMER_DIVERSEORDER>
1
12
35
33
47
32
54
37
49
4
42
46
21
50
52
22
17
6
26
24
5
56
14
11
18
41
51
36
28
44
3
39
19
53
20
38
16
23
40
27
2
13
25
45
30
8
29
7
31
9
48
43
55
15
34
10

> <PUBCHEM_MMFF94_PARTIAL_CHARGES>
20
1 -0.29
14 0.3
15 0.57
16 0.29
18 0.24
19 0.19
2 -0.57
21 0.26
22 -0.04
23 -0.15
24 0.18
25 -0.01
3 -0.28
39 0.37
4 -0.73
47 0.15
5 0.05
51 0.15
6 -0.34
7 -0.34

> <PUBCHEM_EFFECTIVE_ROTOR_COUNT>
8.2

> <PUBCHEM_PHARMACOPHORE_FEATURES>
9
1 17 hydrophobe
1 2 acceptor
1 3 acceptor
1 4 donor
3 5 6 18 cation
3 5 7 19 cation
5 3 20 22 23 25 rings
5 5 6 7 18 19 rings
6 8 9 10 11 12 13 rings

> <PUBCHEM_HEAVY_ATOM_COUNT>
25

> <PUBCHEM_ATOM_DEF_STEREO_COUNT>
0

> <PUBCHEM_ATOM_UDEF_STEREO_COUNT>
1

> <PUBCHEM_BOND_DEF_STEREO_COUNT>
0

> <PUBCHEM_BOND_UDEF_STEREO_COUNT>
0

> <PUBCHEM_ISOTOPIC_ATOM_COUNT>
0

> <PUBCHEM_COMPONENT_COUNT>
1

> <PUBCHEM_CACTVS_TAUTO_COUNT>
2

> <PUBCHEM_CONFORMER_ID>
010971A900000001

> <PUBCHEM_MMFF94_ENERGY>
25.3893

> <PUBCHEM_FEATURE_SELFOVERLAP>
48.171

> <PUBCHEM_SHAPE_FINGERPRINT>
10006869 2 18196092373087782163
10498660 4 18338806709565156973
10670039 82 18269826657674888644
1100329 8 18340206298174305301
11646440 116 18410847742873829947
12156800 1 16085257491523958289
12293681 4 18199182889408911850
12553582 1 18411410688242081469
12788726 201 18270953536871203852
13140716 1 18125714591829526315
138480 1 15960334686869410621
14081887 123 18410300236820971024
14251757 17 17750513052310972838
14363568 33 17475496292836965360
14787075 74 18058449794525286070
14955137 171 18195501758928591803
151778 21 17183614932443461769
15961568 22 18120659020375371768
16728300 4 16036658793897154584
17818456 19 18198641006359891242
18336668 15 17987523606679658588
19930381 70 16033803315034417410
21033648 29 17604153610162773178
21033650 10 18198600234514756006
21344244 246 17183362616622281031
23557571 272 18408878525421389310
3052486 1 18271804648880994244
392239 28 18412830153284941784
469060 322 17987495109729684489
5048184 11 17905605854119736016
5312544 6 17329435454991772493
6287921 2 17680995084724154547

> <PUBCHEM_SHAPE_MULTIPOLES>
486.68
8.32
5.31
1.47
6.73
5.15
0.08
-2.48
-0.45
-6.19
0.79
1.29
-0.51
0.09

> <PUBCHEM_SHAPE_SELFOVERLAP>
1000.719

> <PUBCHEM_SHAPE_VOLUME>
283.6

> <PUBCHEM_COORDINATE_TYPE>
2
5
10

$$$$

