17396107
  -OEChem-06241222543D

 44 45  0     0  0  0  0  0  0999 V2000
    7.2796    2.7970   -0.0344 Br  0  0  0  0  0  0  0  0  0  0  0  0
    5.1933   -1.9833    0.0902 F   0  0  0  0  0  0  0  0  0  0  0  0
   -3.8593    0.9750   -1.7581 O   0  0  0  0  0  0  0  0  0  0  0  0
    2.6254   -1.0439    0.4589 O   0  0  0  0  0  0  0  0  0  0  0  0
   -6.0464    1.1394   -0.0726 O   0  0  0  0  0  0  0  0  0  0  0  0
    1.0206   -2.9066   -0.3688 O   0  0  0  0  0  0  0  0  0  0  0  0
   -0.7735   -1.5173   -0.8610 N   0  0  0  0  0  0  0  0  0  0  0  0
   -1.3968   -0.1979   -0.9289 C   0  0  0  0  0  0  0  0  0  0  0  0
   -2.5972   -0.0970   -0.0327 C   0  0  0  0  0  0  0  0  0  0  0  0
   -3.7800    0.4863   -0.4875 C   0  0  0  0  0  0  0  0  0  0  0  0
   -2.5202   -0.5951    1.2679 C   0  0  0  0  0  0  0  0  0  0  0  0
    0.5267   -1.7763   -0.4264 C   0  0  0  0  0  0  0  0  0  0  0  0
   -4.8857    0.5717    0.3587 C   0  0  0  0  0  0  0  0  0  0  0  0
   -1.6235   -2.6257   -1.2783 C   0  0  0  0  0  0  0  0  0  0  0  0
    1.3670   -0.5930    0.0053 C   0  0  0  0  0  0  0  0  0  0  0  0
   -3.6258   -0.5099    2.1139 C   0  0  0  0  0  0  0  0  0  0  0  0
   -4.8086    0.0735    1.6593 C   0  0  0  0  0  0  0  0  0  0  0  0
    3.6828   -0.1723    0.3456 C   0  0  0  0  0  0  0  0  0  0  0  0
   -3.4960    2.3401   -1.9499 C   0  0  0  0  0  0  0  0  0  0  0  0
    4.9754   -0.6629    0.1604 C   0  0  0  0  0  0  0  0  0  0  0  0
    3.4623    1.2032    0.4166 C   0  0  0  0  0  0  0  0  0  0  0  0
   -7.1287    1.1867    0.8552 C   0  0  0  0  0  0  0  0  0  0  0  0
    6.0475    0.2222    0.0464 C   0  0  0  0  0  0  0  0  0  0  0  0
    4.5343    2.0882    0.3027 C   0  0  0  0  0  0  0  0  0  0  0  0
    5.8268    1.5978    0.1174 C   0  0  0  0  0  0  0  0  0  0  0  0
   -0.6988    0.5984   -0.6600 H   0  0  0  0  0  0  0  0  0  0  0  0
   -1.6553   -0.0432   -1.9824 H   0  0  0  0  0  0  0  0  0  0  0  0
   -1.6064   -1.0416    1.6500 H   0  0  0  0  0  0  0  0  0  0  0  0
   -2.3943   -2.8101   -0.5258 H   0  0  0  0  0  0  0  0  0  0  0  0
   -1.0446   -3.5451   -1.4020 H   0  0  0  0  0  0  0  0  0  0  0  0
   -2.0922   -2.3825   -2.2368 H   0  0  0  0  0  0  0  0  0  0  0  0
    0.8561   -0.0763    0.8246 H   0  0  0  0  0  0  0  0  0  0  0  0
    1.4672    0.0584   -0.8720 H   0  0  0  0  0  0  0  0  0  0  0  0
   -3.5639   -0.8952    3.1275 H   0  0  0  0  0  0  0  0  0  0  0  0
   -5.6255    0.1058    2.3718 H   0  0  0  0  0  0  0  0  0  0  0  0
   -3.5704    2.5673   -3.0169 H   0  0  0  0  0  0  0  0  0  0  0  0
   -2.4660    2.5199   -1.6260 H   0  0  0  0  0  0  0  0  0  0  0  0
   -4.1794    2.9985   -1.4044 H   0  0  0  0  0  0  0  0  0  0  0  0
    2.4750    1.6235    0.5839 H   0  0  0  0  0  0  0  0  0  0  0  0
   -7.9692    1.6690    0.3452 H   0  0  0  0  0  0  0  0  0  0  0  0
   -7.4625    0.1824    1.1376 H   0  0  0  0  0  0  0  0  0  0  0  0
   -6.8873    1.8064    1.7255 H   0  0  0  0  0  0  0  0  0  0  0  0
    7.0483   -0.1765   -0.0975 H   0  0  0  0  0  0  0  0  0  0  0  0
    4.3465    3.1570    0.3658 H   0  0  0  0  0  0  0  0  0  0  0  0
  1 25  1  0  0  0  0
  2 20  1  0  0  0  0
  3 10  1  0  0  0  0
  3 19  1  0  0  0  0
  4 15  1  0  0  0  0
  4 18  1  0  0  0  0
  5 13  1  0  0  0  0
  5 22  1  0  0  0  0
  6 12  2  0  0  0  0
  7  8  1  0  0  0  0
  7 12  1  0  0  0  0
  7 14  1  0  0  0  0
  8  9  1  0  0  0  0
  8 26  1  0  0  0  0
  8 27  1  0  0  0  0
  9 10  2  0  0  0  0
  9 11  1  0  0  0  0
 10 13  1  0  0  0  0
 11 16  2  0  0  0  0
 11 28  1  0  0  0  0
 12 15  1  0  0  0  0
 13 17  2  0  0  0  0
 14 29  1  0  0  0  0
 14 30  1  0  0  0  0
 14 31  1  0  0  0  0
 15 32  1  0  0  0  0
 15 33  1  0  0  0  0
 16 17  1  0  0  0  0
 16 34  1  0  0  0  0
 17 35  1  0  0  0  0
 18 20  2  0  0  0  0
 18 21  1  0  0  0  0
 19 36  1  0  0  0  0
 19 37  1  0  0  0  0
 19 38  1  0  0  0  0
 20 23  1  0  0  0  0
 21 24  2  0  0  0  0
 21 39  1  0  0  0  0
 22 40  1  0  0  0  0
 22 41  1  0  0  0  0
 22 42  1  0  0  0  0
 23 25  2  0  0  0  0
 23 43  1  0  0  0  0
 24 25  1  0  0  0  0
 24 44  1  0  0  0  0
M  END
> <PUBCHEM_COMPOUND_CID>
17396107

> <PUBCHEM_CONFORMER_RMSD>
1.2

> <PUBCHEM_CONFORMER_DIVERSEORDER>
1
93
57
145
134
52
56
2
64
72
34
36
17
129
37
85
135
48
53
44
97
63
27
14
84
101
43
122
5
98
86
70
87
51
28
111
20
13
3
117
23
11
107
138
65
40
19
146
67
18
104
62
149
74
30
150
91
109
139
54
103
12
45
132
22
9
59
46
127
120
147
8
6
49
83
75
55
136
10
25
119
105
69
73
39
96
108
35
92
76
95
123
80
81
29
60
71
112
21
100
121
128
116
130
115
26
137
90
113
66
94
99
58
140
7
50
61
152
144
118
24
88
89
110
124
38
114
42
148
78
102
47
143
79
106
4
15
153
82
68
141
126
41
142
151
77
33
32
16
133
125
131
31

> <PUBCHEM_MMFF94_PARTIAL_CHARGES>
31
1 -0.11
10 0.08
11 -0.15
12 0.57
13 0.08
14 0.3
15 0.34
16 -0.15
17 -0.15
18 0.08
19 0.28
2 -0.19
20 0.19
21 -0.15
22 0.28
23 -0.15
24 -0.15
25 0.11
28 0.15
3 -0.36
34 0.15
35 0.15
39 0.15
4 -0.36
43 0.15
44 0.15
5 -0.36
6 -0.57
7 -0.66
8 0.44
9 -0.14

> <PUBCHEM_EFFECTIVE_ROTOR_COUNT>
8

> <PUBCHEM_PHARMACOPHORE_FEATURES>
7
1 1 hydrophobe
1 3 acceptor
1 4 acceptor
1 5 acceptor
1 6 acceptor
6 18 20 21 23 24 25 rings
6 9 10 11 13 16 17 rings

> <PUBCHEM_HEAVY_ATOM_COUNT>
25

> <PUBCHEM_ATOM_DEF_STEREO_COUNT>
0

> <PUBCHEM_ATOM_UDEF_STEREO_COUNT>
0

> <PUBCHEM_BOND_DEF_STEREO_COUNT>
0

> <PUBCHEM_BOND_UDEF_STEREO_COUNT>
0

> <PUBCHEM_ISOTOPIC_ATOM_COUNT>
0

> <PUBCHEM_COMPONENT_COUNT>
1

> <PUBCHEM_CACTVS_TAUTO_COUNT>
1

> <PUBCHEM_CONFORMER_ID>
0109718B00000001

> <PUBCHEM_MMFF94_ENERGY>
90.8316

> <PUBCHEM_FEATURE_SELFOVERLAP>
35.537

> <PUBCHEM_SHAPE_FINGERPRINT>
10 15 17989207019311610032
10319926 262 17274812567367805795
10670039 82 16153695557364716120
11796584 16 5978094735291746132
12236239 1 17095808814791734679
12390115 104 18188200997045344494
12516196 113 11600002141683573206
12788726 201 17385992984546589536
13402501 40 18272373096218903581
13631057 29 17968950669813189879
13685833 64 10159690296793974833
13911987 19 18187372038666705997
14341114 176 17846776334198620320
14840074 17 18187081758754123249
15081414 286 18410570670355220236
15183329 4 14634862067986658516
15575132 122 17749946773631940177
1577012 14 18113902641359376062
17492 89 10879177742300616824
17857418 61 11815902245266829942
1813 80 12247393553057772811
19377110 9 13254796833244100318
20691028 202 18261956232974070432
21033648 144 17968953989337242116
21033648 29 18341065067873492224
21315759 148 17489582360139486578
21315764 119 4895559567217685057
21756936 100 17095511882038042939
22122407 14 18114732820136767409
23198884 109 16370720413972102104
23559900 14 17344334795183270071
3004659 81 7132440112189392580
312425 54 16917349220980134952
474 4 17967811673638139287
497634 4 18187937110180978359
5104073 3 18267315248890479658
5364581 5 17416395472680578084
6608658 132 16588013650037729225
90127 26 18202004352220106774

> <PUBCHEM_SHAPE_MULTIPOLES>
484.7
18.76
2.7
1.44
11.58
0.46
0.01
-14.06
-3.7
2.31
0.97
-2.69
-0.21
0.6

> <PUBCHEM_SHAPE_SELFOVERLAP>
1005.51

> <PUBCHEM_SHAPE_VOLUME>
282.3

> <PUBCHEM_COORDINATE_TYPE>
2
5
10

$$$$

