104845
  -OEChem-07051213043D

 56 59  0     1  0  0  0  0  0999 V2000
   -0.1968   -2.5312   -0.5490 O   0  0  0  0  0  0  0  0  0  0  0  0
   -5.2039   -0.1006    1.7160 O   0  0  0  0  0  0  0  0  0  0  0  0
    5.5061   -0.1432   -0.6930 O   0  0  0  0  0  0  0  0  0  0  0  0
    0.0310    1.0356   -0.2640 C   0  0  1  0  0  0  0  0  0  0  0  0
    1.4291    1.0705    0.3685 C   0  0  1  0  0  0  0  0  0  0  0  0
   -0.7064   -0.2561    0.2129 C   0  0  1  0  0  0  0  0  0  0  0  0
    2.2958   -0.1489   -0.0208 C   0  0  1  0  0  0  0  0  0  0  0  0
   -2.1718   -0.3433   -0.3468 C   0  0  2  0  0  0  0  0  0  0  0  0
   -2.9093    0.9696    0.0852 C   0  0  1  0  0  0  0  0  0  0  0  0
   -0.7684    2.2981    0.0856 C   0  0  0  0  0  0  0  0  0  0  0  0
    3.6063    0.2384    0.6977 C   0  0  2  0  0  0  0  0  0  0  0  0
    2.3380    2.2602    0.0748 C   0  0  0  0  0  0  0  0  0  0  0  0
    1.6164   -1.4080    0.5196 C   0  0  0  0  0  0  0  0  0  0  0  0
   -2.2062    2.2342   -0.4208 C   0  0  0  0  0  0  0  0  0  0  0  0
    0.1935   -1.4915   -0.0215 C   0  0  0  0  0  0  0  0  0  0  0  0
   -2.9443   -1.5315    0.2976 C   0  0  0  0  0  0  0  0  0  0  0  0
    3.7423    1.7543    0.4470 C   0  0  0  0  0  0  0  0  0  0  0  0
   -4.4002    0.9754   -0.2943 C   0  0  0  0  0  0  0  0  0  0  0  0
   -2.1640   -0.5155   -1.8872 C   0  0  0  0  0  0  0  0  0  0  0  0
    2.5172   -0.3013   -1.5491 C   0  0  0  0  0  0  0  0  0  0  0  0
   -4.4427   -1.5469   -0.0343 C   0  0  0  0  0  0  0  0  0  0  0  0
   -5.1356   -0.2286    0.2958 C   0  0  1  0  0  0  0  0  0  0  0  0
    4.8184   -0.5214    0.2542 C   0  0  0  0  0  0  0  0  0  0  0  0
    5.1554   -1.7684    1.0259 C   0  0  0  0  0  0  0  0  0  0  0  0
    0.1434    1.0148   -1.3530 H   0  0  0  0  0  0  0  0  0  0  0  0
    1.2832    1.0587    1.4619 H   0  0  0  0  0  0  0  0  0  0  0  0
   -0.7936   -0.1999    1.3096 H   0  0  0  0  0  0  0  0  0  0  0  0
   -2.8702    1.0186    1.1847 H   0  0  0  0  0  0  0  0  0  0  0  0
   -0.2833    3.1830   -0.3427 H   0  0  0  0  0  0  0  0  0  0  0  0
   -0.7784    2.4407    1.1739 H   0  0  0  0  0  0  0  0  0  0  0  0
    3.4996    0.0944    1.7821 H   0  0  0  0  0  0  0  0  0  0  0  0
    2.0647    3.1417    0.6638 H   0  0  0  0  0  0  0  0  0  0  0  0
    2.2999    2.5436   -0.9828 H   0  0  0  0  0  0  0  0  0  0  0  0
    1.5590   -1.4060    1.6140 H   0  0  0  0  0  0  0  0  0  0  0  0
    2.1588   -2.3103    0.2181 H   0  0  0  0  0  0  0  0  0  0  0  0
   -2.7414    3.1241   -0.0671 H   0  0  0  0  0  0  0  0  0  0  0  0
   -2.2220    2.2796   -1.5155 H   0  0  0  0  0  0  0  0  0  0  0  0
   -2.8270   -1.4931    1.3886 H   0  0  0  0  0  0  0  0  0  0  0  0
   -2.5275   -2.4922   -0.0204 H   0  0  0  0  0  0  0  0  0  0  0  0
    4.4506    2.0138   -0.3468 H   0  0  0  0  0  0  0  0  0  0  0  0
    4.0969    2.2503    1.3583 H   0  0  0  0  0  0  0  0  0  0  0  0
   -4.8580    1.8973    0.0863 H   0  0  0  0  0  0  0  0  0  0  0  0
   -4.5209    0.9902   -1.3830 H   0  0  0  0  0  0  0  0  0  0  0  0
   -1.6047    0.2730   -2.3966 H   0  0  0  0  0  0  0  0  0  0  0  0
   -1.7161   -1.4688   -2.1832 H   0  0  0  0  0  0  0  0  0  0  0  0
   -3.1712   -0.5046   -2.3126 H   0  0  0  0  0  0  0  0  0  0  0  0
    3.0127    0.5682   -1.9915 H   0  0  0  0  0  0  0  0  0  0  0  0
    3.1391   -1.1775   -1.7661 H   0  0  0  0  0  0  0  0  0  0  0  0
    1.5797   -0.4500   -2.0936 H   0  0  0  0  0  0  0  0  0  0  0  0
   -4.5838   -1.7804   -1.0955 H   0  0  0  0  0  0  0  0  0  0  0  0
   -4.9105   -2.3605    0.5337 H   0  0  0  0  0  0  0  0  0  0  0  0
   -6.1661   -0.2546   -0.0751 H   0  0  0  0  0  0  0  0  0  0  0  0
    5.2817   -1.5258    2.0839 H   0  0  0  0  0  0  0  0  0  0  0  0
    4.3690   -2.5142    0.9004 H   0  0  0  0  0  0  0  0  0  0  0  0
    6.0950   -2.1852    0.6518 H   0  0  0  0  0  0  0  0  0  0  0  0
   -5.6681    0.7307    1.9135 H   0  0  0  0  0  0  0  0  0  0  0  0
  1 15  2  0  0  0  0
  2 22  1  0  0  0  0
  2 56  1  0  0  0  0
  3 23  2  0  0  0  0
  4  5  1  0  0  0  0
  4  6  1  0  0  0  0
  4 10  1  0  0  0  0
  4 25  1  0  0  0  0
  5  7  1  0  0  0  0
  5 12  1  0  0  0  0
  5 26  1  0  0  0  0
  6  8  1  0  0  0  0
  6 15  1  0  0  0  0
  6 27  1  0  0  0  0
  7 11  1  0  0  0  0
  7 13  1  0  0  0  0
  7 20  1  0  0  0  0
  8  9  1  0  0  0  0
  8 16  1  0  0  0  0
  8 19  1  0  0  0  0
  9 14  1  0  0  0  0
  9 18  1  0  0  0  0
  9 28  1  0  0  0  0
 10 14  1  0  0  0  0
 10 29  1  0  0  0  0
 10 30  1  0  0  0  0
 11 17  1  0  0  0  0
 11 23  1  0  0  0  0
 11 31  1  0  0  0  0
 12 17  1  0  0  0  0
 12 32  1  0  0  0  0
 12 33  1  0  0  0  0
 13 15  1  0  0  0  0
 13 34  1  0  0  0  0
 13 35  1  0  0  0  0
 14 36  1  0  0  0  0
 14 37  1  0  0  0  0
 16 21  1  0  0  0  0
 16 38  1  0  0  0  0
 16 39  1  0  0  0  0
 17 40  1  0  0  0  0
 17 41  1  0  0  0  0
 18 22  1  0  0  0  0
 18 42  1  0  0  0  0
 18 43  1  0  0  0  0
 19 44  1  0  0  0  0
 19 45  1  0  0  0  0
 19 46  1  0  0  0  0
 20 47  1  0  0  0  0
 20 48  1  0  0  0  0
 20 49  1  0  0  0  0
 21 22  1  0  0  0  0
 21 50  1  0  0  0  0
 21 51  1  0  0  0  0
 22 52  1  0  0  0  0
 23 24  1  0  0  0  0
 24 53  1  0  0  0  0
 24 54  1  0  0  0  0
 24 55  1  0  0  0  0
M  END
> <PUBCHEM_COMPOUND_CID>
104845

> <PUBCHEM_CONFORMER_RMSD>
0.6

> <PUBCHEM_CONFORMER_DIVERSEORDER>
1
2

> <PUBCHEM_MMFF94_PARTIAL_CHARGES>
11
1 -0.57
11 0.06
13 0.06
15 0.45
2 -0.68
22 0.28
23 0.45
24 0.06
3 -0.57
56 0.4
6 0.06

> <PUBCHEM_EFFECTIVE_ROTOR_COUNT>
3

> <PUBCHEM_PHARMACOPHORE_FEATURES>
8
1 1 acceptor
1 2 acceptor
1 2 donor
1 3 acceptor
5 5 7 11 12 17 rings
6 4 5 6 7 13 15 rings
6 4 6 8 9 10 14 rings
6 8 9 16 18 21 22 rings

> <PUBCHEM_HEAVY_ATOM_COUNT>
24

> <PUBCHEM_ATOM_DEF_STEREO_COUNT>
8

> <PUBCHEM_ATOM_UDEF_STEREO_COUNT>
0

> <PUBCHEM_BOND_DEF_STEREO_COUNT>
0

> <PUBCHEM_BOND_UDEF_STEREO_COUNT>
0

> <PUBCHEM_ISOTOPIC_ATOM_COUNT>
0

> <PUBCHEM_COMPONENT_COUNT>
1

> <PUBCHEM_CACTVS_TAUTO_COUNT>
9

> <PUBCHEM_CONFORMER_ID>
0001998D00000001

> <PUBCHEM_MMFF94_ENERGY>
79.3488

> <PUBCHEM_FEATURE_SELFOVERLAP>
40.687

> <PUBCHEM_SHAPE_FINGERPRINT>
10675989 125 16611119074878512861
10967382 1 18410015437608307373
11578080 2 16628008501398972263
12011746 2 18412269432830529295
12166972 35 17775563135121090396
12236239 1 17704069620834339812
12403259 226 18412554210178855956
12403259 415 18408892832274067056
12422481 6 18260827154468876027
12592029 89 18409448128516567874
12633257 1 17676206844671251289
12788726 201 17895180104771976296
13140716 1 18337671893264068387
13224815 77 18410295796099197437
13288520 33 18411138065018933428
13675066 3 18114187406091241872
13862211 1 18410581686075629963
14178342 30 18118119410159977032
14223421 5 18340206422628000301
14341114 176 18413669110679176280
14790565 3 18337947892110523320
15196674 1 18410859823873210209
15209289 33 18413110567114319770
15788980 27 18202284701593457171
1601671 61 18408601487092705810
16945 1 18412271652579599845
17349148 13 17989207057628471698
17804303 29 18410293601228549332
1813 80 17418098684816229236
18186145 218 18272664415217990884
19141452 34 17821729403741843023
19591789 44 18410297973373186531
200 152 18259990366117196849
20028762 73 18186809040984010871
20261772 1 18335141972816678763
21033648 29 17916887753937720260
21267235 1 18411694391832110507
21682296 61 18043526320976206734
22182313 1 17970062451375754502
23402539 116 18261119555837249598
23522609 53 18123719106858613732
23557571 272 18260543459010079508
23559900 14 18411707564750450224
3004659 81 18201437026312416614
335352 9 18410859888244816556
34934 24 18338804511211716869
350125 39 18411136952522612216
3680242 22 18410852204669611010
4214541 1 18411984693109370497
4340502 62 14779261995003315527
465052 167 18343577434673095762
5104073 3 18334859372547922931
542803 24 17346880056873233532
9709674 26 18268993089820739275

> <PUBCHEM_SHAPE_MULTIPOLES>
476.3
10.87
2.34
1.1
1.2
0.44
-0.24
-2.24
2.24
0.23
0.09
-0.24
-0.2
-0.08

> <PUBCHEM_SHAPE_SELFOVERLAP>
1014.916

> <PUBCHEM_SHAPE_VOLUME>
263.2

> <PUBCHEM_COORDINATE_TYPE>
2
5
10

$$$$

