9690
  -OEChem-06261203573D

 30 32  0     0  0  0  0  0  0999 V2000
    4.9555    1.2690    0.0026 F   0  0  0  0  0  0  0  0  0  0  0  0
    5.4767   -0.5481    1.0906 F   0  0  0  0  0  0  0  0  0  0  0  0
    5.4821   -0.5424   -1.0885 F   0  0  0  0  0  0  0  0  0  0  0  0
    3.0594   -1.6850    0.0009 O   0  0  0  0  0  0  0  0  0  0  0  0
    2.5153    0.6080   -0.0003 N   0  0  0  0  0  0  0  0  0  0  0  0
   -1.9388   -1.6970   -0.0017 C   0  0  0  0  0  0  0  0  0  0  0  0
   -0.9628   -0.5390   -0.0019 C   0  0  0  0  0  0  0  0  0  0  0  0
   -1.6562    0.6923   -0.0010 C   0  0  0  0  0  0  0  0  0  0  0  0
   -3.2714   -0.9776   -0.0008 C   0  0  0  0  0  0  0  0  0  0  0  0
   -3.0779    0.4220   -0.0004 C   0  0  0  0  0  0  0  0  0  0  0  0
    0.4201   -0.5900   -0.0023 C   0  0  0  0  0  0  0  0  0  0  0  0
   -0.9621    1.8906   -0.0002 C   0  0  0  0  0  0  0  0  0  0  0  0
    1.1195    0.6182   -0.0014 C   0  0  0  0  0  0  0  0  0  0  0  0
   -4.5393   -1.5323    0.0002 C   0  0  0  0  0  0  0  0  0  0  0  0
   -4.1633    1.2823    0.0011 C   0  0  0  0  0  0  0  0  0  0  0  0
    0.4355    1.8461   -0.0001 C   0  0  0  0  0  0  0  0  0  0  0  0
   -5.6331   -0.6649    0.0017 C   0  0  0  0  0  0  0  0  0  0  0  0
   -5.4471    0.7283    0.0021 C   0  0  0  0  0  0  0  0  0  0  0  0
    3.3719   -0.4992   -0.0012 C   0  0  0  0  0  0  0  0  0  0  0  0
    4.8161   -0.0813    0.0005 C   0  0  0  0  0  0  0  0  0  0  0  0
   -1.8237   -2.3006    0.9032 H   0  0  0  0  0  0  0  0  0  0  0  0
   -1.8246   -2.3001   -0.9071 H   0  0  0  0  0  0  0  0  0  0  0  0
    0.8751   -1.5689   -0.0030 H   0  0  0  0  0  0  0  0  0  0  0  0
   -1.4761    2.8459    0.0007 H   0  0  0  0  0  0  0  0  0  0  0  0
   -4.6844   -2.6068    0.0000 H   0  0  0  0  0  0  0  0  0  0  0  0
   -4.0357    2.3596    0.0016 H   0  0  0  0  0  0  0  0  0  0  0  0
    0.9895    2.7824    0.0009 H   0  0  0  0  0  0  0  0  0  0  0  0
   -6.6415   -1.0700    0.0026 H   0  0  0  0  0  0  0  0  0  0  0  0
   -6.3146    1.3831    0.0033 H   0  0  0  0  0  0  0  0  0  0  0  0
    2.9565    1.5254    0.0002 H   0  0  0  0  0  0  0  0  0  0  0  0
  1 20  1  0  0  0  0
  2 20  1  0  0  0  0
  3 20  1  0  0  0  0
  4 19  2  0  0  0  0
  5 13  1  0  0  0  0
  5 19  1  0  0  0  0
  5 30  1  0  0  0  0
  6  7  1  0  0  0  0
  6  9  1  0  0  0  0
  6 21  1  0  0  0  0
  6 22  1  0  0  0  0
  7  8  2  0  0  0  0
  7 11  1  0  0  0  0
  8 10  1  0  0  0  0
  8 12  1  0  0  0  0
  9 10  1  0  0  0  0
  9 14  2  0  0  0  0
 10 15  2  0  0  0  0
 11 13  2  0  0  0  0
 11 23  1  0  0  0  0
 12 16  2  0  0  0  0
 12 24  1  0  0  0  0
 13 16  1  0  0  0  0
 14 17  1  0  0  0  0
 14 25  1  0  0  0  0
 15 18  1  0  0  0  0
 15 26  1  0  0  0  0
 16 27  1  0  0  0  0
 17 18  2  0  0  0  0
 17 28  1  0  0  0  0
 18 29  1  0  0  0  0
 19 20  1  0  0  0  0
M  END
> <PUBCHEM_COMPOUND_CID>
9690

> <PUBCHEM_CONFORMER_RMSD>
0.6

> <PUBCHEM_CONFORMER_DIVERSEORDER>
1
3
2
4

> <PUBCHEM_MMFF94_PARTIAL_CHARGES>
26
1 -0.34
11 -0.15
12 -0.15
13 0.12
14 -0.15
15 -0.15
16 -0.15
17 -0.15
18 -0.15
19 0.57
2 -0.34
20 1.08
23 0.15
24 0.15
25 0.15
26 0.15
27 0.15
28 0.15
29 0.15
3 -0.34
30 0.37
4 -0.57
5 -0.55
6 0.29
7 -0.14
9 -0.14

> <PUBCHEM_EFFECTIVE_ROTOR_COUNT>
3.2

> <PUBCHEM_PHARMACOPHORE_FEATURES>
5
1 4 acceptor
1 5 donor
5 6 7 8 9 10 rings
6 7 8 11 12 13 16 rings
6 9 10 14 15 17 18 rings

> <PUBCHEM_HEAVY_ATOM_COUNT>
20

> <PUBCHEM_ATOM_DEF_STEREO_COUNT>
0

> <PUBCHEM_ATOM_UDEF_STEREO_COUNT>
0

> <PUBCHEM_BOND_DEF_STEREO_COUNT>
0

> <PUBCHEM_BOND_UDEF_STEREO_COUNT>
0

> <PUBCHEM_ISOTOPIC_ATOM_COUNT>
0

> <PUBCHEM_COMPONENT_COUNT>
1

> <PUBCHEM_CACTVS_TAUTO_COUNT>
2

> <PUBCHEM_CONFORMER_ID>
000025DA00000001

> <PUBCHEM_MMFF94_ENERGY>
60.4937

> <PUBCHEM_FEATURE_SELFOVERLAP>
25.536

> <PUBCHEM_SHAPE_FINGERPRINT>
10906281 52 18338215125154463391
10968037 39 18412823573141440116
11315181 36 18114177527597993480
11401426 45 18409450288974314021
12107183 9 17691126358477093721
12236239 1 17847062194204902513
12516196 113 17967535657464381921
13288520 33 18409446981986626741
13533116 47 14779536925051318870
13685833 64 18340764854444683331
13862211 1 18411142424352963407
14251731 8 18413389843452766821
15042514 8 18194117422645499571
15099037 51 18411138030785808671
15196674 1 18410575084678922663
17804303 29 18335983091028343585
17834072 33 18411418388712358676
1813 80 17489584580136321334
19141452 34 18113338574720148591
200 152 17967253092082682667
20374829 77 18413110554398073449
20612939 158 17845929632951984165
21033648 29 16878240743542069649
21236236 1 18335701697951754953
21267235 1 18411411779522691563
21279426 13 18194683893954411823
221490 88 18198054777699003787
2215653 11 18259990392024098989
2297311 6 18260537948867621804
23175994 123 17312820468210900169
23402539 116 18334019384762112311
23536379 177 16200436887651504175
23557571 272 18188481488743394556
23559900 14 18335145241281997289
23622692 118 17825118017391371895
239999 70 18187078465115243390
3004659 81 18272367581902265068
335352 9 18410856556431668469
34797466 226 17386277697812563492
34934 24 18410298007786010158
350125 39 18411135840801322257
3545911 37 18410291423595610838
4214541 1 18410575093685822501
4463277 17 18411418401571049133
5104073 3 18410572842827574209
559249 180 18342744043746023107
9709674 26 18410848880629187158

> <PUBCHEM_SHAPE_MULTIPOLES>
378.92
12.95
1.76
0.67
8.08
0.18
0
-2.05
0.01
-0.71
0
0.37
-0.04
0

> <PUBCHEM_SHAPE_SELFOVERLAP>
843.712

> <PUBCHEM_SHAPE_VOLUME>
203.3

> <PUBCHEM_COORDINATE_TYPE>
2
5
10

$$$$

