443468
  -OEChem-07051213023D

 54 57  0     1  0  0  0  0  0999 V2000
    0.6173    2.0843   -1.7426 O   0  0  0  0  0  0  0  0  0  0  0  0
   -1.4895    2.6568   -0.0554 O   0  0  0  0  0  0  0  0  0  0  0  0
   -3.8375   -0.6940    1.7678 O   0  0  0  0  0  0  0  0  0  0  0  0
   -3.0242    1.4394    1.6501 O   0  0  0  0  0  0  0  0  0  0  0  0
    1.7154    0.6657   -0.1001 C   0  0  1  0  0  0  0  0  0  0  0  0
    1.1302   -0.7083   -0.5987 C   0  0  2  0  0  0  0  0  0  0  0  0
   -0.3867   -1.0183   -0.2116 C   0  0  1  0  0  0  0  0  0  0  0  0
   -1.2822    0.2462   -0.4991 C   0  0  2  0  0  0  0  0  0  0  0  0
    0.7240    1.8154   -0.3380 C   0  0  2  0  0  0  0  0  0  0  0  0
    2.1873    0.5762    1.3615 C   0  0  0  0  0  0  0  0  0  0  0  0
   -0.6829    1.5063    0.1860 C   0  0  1  0  0  0  0  0  0  0  0  0
    3.4033   -0.3415    1.2474 C   0  0  1  0  0  0  0  0  0  0  0  0
    2.1040   -1.8916   -0.3240 C   0  0  0  0  0  0  0  0  0  0  0  0
    3.0802    0.9632   -0.8063 C   0  0  0  0  0  0  0  0  0  0  0  0
   -2.8273    0.0126   -0.2711 C   0  0  2  0  0  0  0  0  0  0  0  0
   -0.8811   -2.2042   -1.1123 C   0  0  0  0  0  0  0  0  0  0  0  0
    2.9396   -1.7719    0.9603 C   0  0  0  0  0  0  0  0  0  0  0  0
    4.0936    0.2456    0.0447 C   0  0  0  0  0  0  0  0  0  0  0  0
   -0.5193   -1.4798    1.2613 C   0  0  0  0  0  0  0  0  0  0  0  0
   -3.2431   -1.4509   -0.5699 C   0  0  0  0  0  0  0  0  0  0  0  0
   -2.3294   -2.1079   -1.5905 C   0  0  0  0  0  0  0  0  0  0  0  0
   -3.6653    0.9265   -1.1971 C   0  0  0  0  0  0  0  0  0  0  0  0
   -3.2313    0.3458    1.1461 C   0  0  0  0  0  0  0  0  0  0  0  0
    5.4049    0.1842   -0.2085 C   0  0  0  0  0  0  0  0  0  0  0  0
    1.1045   -0.6144   -1.6967 H   0  0  0  0  0  0  0  0  0  0  0  0
   -1.1953    0.4242   -1.5824 H   0  0  0  0  0  0  0  0  0  0  0  0
    1.0974    2.7400    0.1196 H   0  0  0  0  0  0  0  0  0  0  0  0
    1.4474    0.1909    2.0606 H   0  0  0  0  0  0  0  0  0  0  0  0
    2.4894    1.5644    1.7359 H   0  0  0  0  0  0  0  0  0  0  0  0
   -0.6282    1.3729    1.2702 H   0  0  0  0  0  0  0  0  0  0  0  0
    4.0190   -0.2999    2.1515 H   0  0  0  0  0  0  0  0  0  0  0  0
    2.8043   -1.9437   -1.1696 H   0  0  0  0  0  0  0  0  0  0  0  0
    1.5904   -2.8583   -0.3338 H   0  0  0  0  0  0  0  0  0  0  0  0
    3.2978    2.0384   -0.7936 H   0  0  0  0  0  0  0  0  0  0  0  0
    3.0924    0.6133   -1.8438 H   0  0  0  0  0  0  0  0  0  0  0  0
   -0.7547   -3.1538   -0.5755 H   0  0  0  0  0  0  0  0  0  0  0  0
   -0.2578   -2.2989   -2.0106 H   0  0  0  0  0  0  0  0  0  0  0  0
    2.3598   -2.1343    1.8163 H   0  0  0  0  0  0  0  0  0  0  0  0
    3.8073   -2.4389    0.8796 H   0  0  0  0  0  0  0  0  0  0  0  0
   -1.4968   -1.9150    1.4749 H   0  0  0  0  0  0  0  0  0  0  0  0
    0.1948   -2.2683    1.5083 H   0  0  0  0  0  0  0  0  0  0  0  0
   -0.3898   -0.6687    1.9772 H   0  0  0  0  0  0  0  0  0  0  0  0
   -4.2763   -1.4920   -0.9393 H   0  0  0  0  0  0  0  0  0  0  0  0
   -3.2294   -2.1210    0.2946 H   0  0  0  0  0  0  0  0  0  0  0  0
   -2.6977   -3.1123   -1.8312 H   0  0  0  0  0  0  0  0  0  0  0  0
   -2.3652   -1.5407   -2.5291 H   0  0  0  0  0  0  0  0  0  0  0  0
   -4.7384    0.7395   -1.0647 H   0  0  0  0  0  0  0  0  0  0  0  0
   -3.5238    1.9905   -0.9957 H   0  0  0  0  0  0  0  0  0  0  0  0
   -3.4264    0.7497   -2.2515 H   0  0  0  0  0  0  0  0  0  0  0  0
   -0.0139    2.8161   -1.8511 H   0  0  0  0  0  0  0  0  0  0  0  0
   -1.0952    3.4015    0.4300 H   0  0  0  0  0  0  0  0  0  0  0  0
    6.0798   -0.3366    0.4617 H   0  0  0  0  0  0  0  0  0  0  0  0
    5.8255    0.6525   -1.0916 H   0  0  0  0  0  0  0  0  0  0  0  0
   -4.0956   -0.4710    2.6875 H   0  0  0  0  0  0  0  0  0  0  0  0
  1  9  1  0  0  0  0
  1 50  1  0  0  0  0
  2 11  1  0  0  0  0
  2 51  1  0  0  0  0
  3 23  1  0  0  0  0
  3 54  1  0  0  0  0
  4 23  2  0  0  0  0
  5  6  1  0  0  0  0
  5  9  1  0  0  0  0
  5 10  1  0  0  0  0
  5 14  1  0  0  0  0
  6  7  1  0  0  0  0
  6 13  1  0  0  0  0
  6 25  1  0  0  0  0
  7  8  1  0  0  0  0
  7 16  1  0  0  0  0
  7 19  1  0  0  0  0
  8 11  1  0  0  0  0
  8 15  1  0  0  0  0
  8 26  1  0  0  0  0
  9 11  1  0  0  0  0
  9 27  1  0  0  0  0
 10 12  1  0  0  0  0
 10 28  1  0  0  0  0
 10 29  1  0  0  0  0
 11 30  1  0  0  0  0
 12 17  1  0  0  0  0
 12 18  1  0  0  0  0
 12 31  1  0  0  0  0
 13 17  1  0  0  0  0
 13 32  1  0  0  0  0
 13 33  1  0  0  0  0
 14 18  1  0  0  0  0
 14 34  1  0  0  0  0
 14 35  1  0  0  0  0
 15 20  1  0  0  0  0
 15 22  1  0  0  0  0
 15 23  1  0  0  0  0
 16 21  1  0  0  0  0
 16 36  1  0  0  0  0
 16 37  1  0  0  0  0
 17 38  1  0  0  0  0
 17 39  1  0  0  0  0
 18 24  2  0  0  0  0
 19 40  1  0  0  0  0
 19 41  1  0  0  0  0
 19 42  1  0  0  0  0
 20 21  1  0  0  0  0
 20 43  1  0  0  0  0
 20 44  1  0  0  0  0
 21 45  1  0  0  0  0
 21 46  1  0  0  0  0
 22 47  1  0  0  0  0
 22 48  1  0  0  0  0
 22 49  1  0  0  0  0
 24 52  1  0  0  0  0
 24 53  1  0  0  0  0
M  END
> <PUBCHEM_COMPOUND_CID>
443468

> <PUBCHEM_CONFORMER_RMSD>
0.6

> <PUBCHEM_CONFORMER_DIVERSEORDER>
1
2

> <PUBCHEM_MMFF94_PARTIAL_CHARGES>
17
1 -0.68
11 0.28
12 0.14
14 0.14
15 0.06
18 -0.28
2 -0.68
23 0.66
24 -0.3
3 -0.65
4 -0.57
50 0.4
51 0.4
52 0.15
53 0.15
54 0.5
9 0.28

> <PUBCHEM_EFFECTIVE_ROTOR_COUNT>
3

> <PUBCHEM_PHARMACOPHORE_FEATURES>
10
1 1 acceptor
1 1 donor
1 2 acceptor
1 2 donor
1 3 acceptor
1 4 acceptor
3 3 4 23 anion
6 5 6 7 8 9 11 rings
6 7 8 15 16 20 21 rings
8 5 6 10 12 13 14 17 18 rings

> <PUBCHEM_HEAVY_ATOM_COUNT>
24

> <PUBCHEM_ATOM_DEF_STEREO_COUNT>
8

> <PUBCHEM_ATOM_UDEF_STEREO_COUNT>
0

> <PUBCHEM_BOND_DEF_STEREO_COUNT>
0

> <PUBCHEM_BOND_UDEF_STEREO_COUNT>
0

> <PUBCHEM_ISOTOPIC_ATOM_COUNT>
0

> <PUBCHEM_COMPONENT_COUNT>
1

> <PUBCHEM_CACTVS_TAUTO_COUNT>
1

> <PUBCHEM_CONFORMER_ID>
0006C44C00000001

> <PUBCHEM_MMFF94_ENERGY>
111.3298

> <PUBCHEM_FEATURE_SELFOVERLAP>
50.851

> <PUBCHEM_SHAPE_FINGERPRINT>
10062212 137 18338807723209275847
10366900 7 17240776080970378216
10369192 42 16592553332461157888
10498660 4 18337121102579255428
10646746 165 17385442107555838866
10863032 1 17458063793755475806
11132069 177 18336559260822250840
11370993 70 16081366341231784350
11552529 35 16878516617628634174
11578080 2 18123500239541094909
12011746 2 18334020509816891948
12236239 1 18411138013157520502
12403814 3 18341335569181945949
12491281 212 18186518808642186619
12553582 1 18412831252722430232
12633257 1 17749114404299935538
12788726 201 17844266213472150004
13132413 78 18341618087814675956
13140716 1 18193551169049318424
13172582 1 18410575089195423069
13221675 6 18413670201748419472
13224815 77 18411702101367082450
13583140 156 17847063285353552933
14223421 5 18125441057936109394
14787075 74 17845363367120007067
14790565 3 18269833117501503916
14955137 171 18266999718458474464
15209289 33 18187644674326323818
15209294 21 17749382706495995577
15309172 13 18408319990736247091
15375462 189 18341611486507873008
16752209 62 18338250360844841116
16945 1 18261401052272868300
17349148 13 18041858241582470071
1813 80 18131061645824348284
18186145 218 16660363705251545594
20261772 1 18335414655947887882
20691752 17 17987224719820724214
20775438 99 15588846455737840359
21267235 1 18337670815243452190
22112679 90 18189893119654493581
23184049 59 18336822086745202099
2334 1 17833273021423491364
23402539 116 18201446869807389638
23557571 272 17459190694595706631
23559900 14 18040721329812262992
238 59 16615639132762013660
2748010 2 18049158066387373525
296302 2 17346604088139450956
3286 77 17386578946654739432
34934 24 18342465875556325389
5104073 3 18334583412910931802
6992083 37 18408046208246391311
7471813 234 17464558411298634623
90525 40 18335706061073739703

> <PUBCHEM_SHAPE_MULTIPOLES>
470.43
7.58
2.36
1.51
3.8
0.03
-0.28
0.03
-0.83
-0.84
0.54
-0.78
0.03
-0.81

> <PUBCHEM_SHAPE_SELFOVERLAP>
1016.956

> <PUBCHEM_SHAPE_VOLUME>
254.3

> <PUBCHEM_COORDINATE_TYPE>
2
5
10

$$$$

