7887
  -OEChem-06261202253D

 34 33  0     1  0  0  0  0  0999 V2000
    2.7312    1.4683    0.6806 O   0  0  0  0  0  0  0  0  0  0  0  0
    4.5216    0.2272   -0.9711 O   0  0  0  0  0  0  0  0  0  0  0  0
    1.2077   -0.4207    0.7996 C   0  0  2  0  0  0  0  0  0  0  0  0
    0.1916    0.2540   -0.1496 C   0  0  0  0  0  0  0  0  0  0  0  0
   -1.2862   -0.0301    0.1518 C   0  0  0  0  0  0  0  0  0  0  0  0
   -2.3015    0.6776   -0.7537 C   0  0  0  0  0  0  0  0  0  0  0  0
    2.6601    0.0460    0.5328 C   0  0  1  0  0  0  0  0  0  0  0  0
   -3.7815    0.3452   -0.4859 C   0  0  0  0  0  0  0  0  0  0  0  0
    1.1040   -1.9478    0.7524 C   0  0  0  0  0  0  0  0  0  0  0  0
    3.2014   -0.2978   -0.8531 C   0  0  0  0  0  0  0  0  0  0  0  0
   -4.0745   -1.1498   -0.6170 C   0  0  0  0  0  0  0  0  0  0  0  0
   -4.1739    0.8279    0.9133 C   0  0  0  0  0  0  0  0  0  0  0  0
    0.9531   -0.0974    1.8185 H   0  0  0  0  0  0  0  0  0  0  0  0
    0.3901   -0.0567   -1.1824 H   0  0  0  0  0  0  0  0  0  0  0  0
    0.3346    1.3411   -0.1200 H   0  0  0  0  0  0  0  0  0  0  0  0
   -1.4746    0.2457    1.1954 H   0  0  0  0  0  0  0  0  0  0  0  0
   -1.4456   -1.1101    0.0760 H   0  0  0  0  0  0  0  0  0  0  0  0
   -2.1557    1.7622   -0.6701 H   0  0  0  0  0  0  0  0  0  0  0  0
   -2.0734    0.4202   -1.7962 H   0  0  0  0  0  0  0  0  0  0  0  0
    3.3216   -0.3750    1.2998 H   0  0  0  0  0  0  0  0  0  0  0  0
   -4.3879    0.8856   -1.2233 H   0  0  0  0  0  0  0  0  0  0  0  0
    1.1763   -2.3265   -0.2722 H   0  0  0  0  0  0  0  0  0  0  0  0
    0.1523   -2.2903    1.1707 H   0  0  0  0  0  0  0  0  0  0  0  0
    1.9001   -2.4107    1.3453 H   0  0  0  0  0  0  0  0  0  0  0  0
    2.6117    0.1726   -1.6445 H   0  0  0  0  0  0  0  0  0  0  0  0
    3.2393   -1.3760   -1.0300 H   0  0  0  0  0  0  0  0  0  0  0  0
   -3.6007   -1.7372    0.1757 H   0  0  0  0  0  0  0  0  0  0  0  0
   -3.7279   -1.5311   -1.5831 H   0  0  0  0  0  0  0  0  0  0  0  0
   -5.1533   -1.3312   -0.5557 H   0  0  0  0  0  0  0  0  0  0  0  0
   -3.6785    0.2560    1.7042 H   0  0  0  0  0  0  0  0  0  0  0  0
   -3.9278    1.8865    1.0474 H   0  0  0  0  0  0  0  0  0  0  0  0
   -5.2541    0.7191    1.0611 H   0  0  0  0  0  0  0  0  0  0  0  0
    3.6567    1.7310    0.5383 H   0  0  0  0  0  0  0  0  0  0  0  0
    5.0688   -0.2041   -0.2927 H   0  0  0  0  0  0  0  0  0  0  0  0
  1  7  1  0  0  0  0
  1 33  1  0  0  0  0
  2 10  1  0  0  0  0
  2 34  1  0  0  0  0
  3  4  1  0  0  0  0
  3  7  1  0  0  0  0
  3  9  1  0  0  0  0
  3 13  1  0  0  0  0
  4  5  1  0  0  0  0
  4 14  1  0  0  0  0
  4 15  1  0  0  0  0
  5  6  1  0  0  0  0
  5 16  1  0  0  0  0
  5 17  1  0  0  0  0
  6  8  1  0  0  0  0
  6 18  1  0  0  0  0
  6 19  1  0  0  0  0
  7 10  1  0  0  0  0
  7 20  1  0  0  0  0
  8 11  1  0  0  0  0
  8 12  1  0  0  0  0
  8 21  1  0  0  0  0
  9 22  1  0  0  0  0
  9 23  1  0  0  0  0
  9 24  1  0  0  0  0
 10 25  1  0  0  0  0
 10 26  1  0  0  0  0
 11 27  1  0  0  0  0
 11 28  1  0  0  0  0
 11 29  1  0  0  0  0
 12 30  1  0  0  0  0
 12 31  1  0  0  0  0
 12 32  1  0  0  0  0
M  END
> <PUBCHEM_COMPOUND_CID>
7887

> <PUBCHEM_CONFORMER_RMSD>
0.6

> <PUBCHEM_CONFORMER_DIVERSEORDER>
1
2
32
30
49
11
34
46
23
20
48
7
38
4
15
41
44
37
9
43
40
19
29
5
13
31
21
35
6
17
28
24
3
33
39
47
12
45
16
8
22
10
18
26
14
42
25
36
27

> <PUBCHEM_MMFF94_PARTIAL_CHARGES>
6
1 -0.68
10 0.28
2 -0.68
33 0.4
34 0.4
7 0.28

> <PUBCHEM_EFFECTIVE_ROTOR_COUNT>
6

> <PUBCHEM_PHARMACOPHORE_FEATURES>
7
1 1 acceptor
1 1 donor
1 2 acceptor
1 2 donor
1 9 hydrophobe
3 8 11 12 hydrophobe
5 3 4 5 6 8 hydrophobe

> <PUBCHEM_HEAVY_ATOM_COUNT>
12

> <PUBCHEM_ATOM_DEF_STEREO_COUNT>
0

> <PUBCHEM_ATOM_UDEF_STEREO_COUNT>
2

> <PUBCHEM_BOND_DEF_STEREO_COUNT>
0

> <PUBCHEM_BOND_UDEF_STEREO_COUNT>
0

> <PUBCHEM_ISOTOPIC_ATOM_COUNT>
0

> <PUBCHEM_COMPONENT_COUNT>
1

> <PUBCHEM_CACTVS_TAUTO_COUNT>
1

> <PUBCHEM_CONFORMER_ID>
00001ECF00000001

> <PUBCHEM_MMFF94_ENERGY>
17.844

> <PUBCHEM_FEATURE_SELFOVERLAP>
35.535

> <PUBCHEM_SHAPE_FINGERPRINT>
10130415 120 6266896883185968374
107287 299 18131066077766659555
10751810 167 17458060482483234385
11031198 65 18201718487517826778
11062470 55 14117518748630912845
124424 183 5039947429939887795
12932764 1 18339653325192334397
14445660 50 18408604786381976273
17834072 14 10519987058396996111
18186145 218 18334582342957522785
190213 19 17603310349342208065
19422 9 17821730520359330557
1986462 14 17894911832655906813
20279233 1 15985106349231127611
20339313 130 16515404053743729000
20645477 70 17986689258006663459
21119208 17 17095239241576717396
22169311 21 13686304599306769465
22485316 2 14562819858379140572
23402539 116 18409732872242504380
23402655 69 18271530900397442557
4990 188 18186798089022360950
581208 293 18060427931781171563
633830 44 18333734602222941589
81539 233 16988563524165356050

> <PUBCHEM_SHAPE_MULTIPOLES>
235.22
8.91
1.32
1.06
2.18
0.51
0
-1.16
-1.54
-0.11
0.24
-0.1
-0.03
-0.41

> <PUBCHEM_SHAPE_SELFOVERLAP>
426.843

> <PUBCHEM_SHAPE_VOLUME>
151.4

> <PUBCHEM_COORDINATE_TYPE>
2
5
10

$$$$

