5281440
  -OEChem-07051212573D

 57 60  0     1  0  0  0  0  0999 V2000
    2.7715    2.9036    1.1822 O   0  0  0  0  0  0  0  0  0  0  0  0
    5.1929    0.7648   -0.2008 O   0  0  0  0  0  0  0  0  0  0  0  0
   -1.0132    0.9020    0.0405 O   0  0  0  0  0  0  0  0  0  0  0  0
    0.3797   -1.7437   -1.0692 O   0  0  0  0  0  0  0  0  0  0  0  0
    5.6413   -2.5989   -1.2012 O   0  0  0  0  0  0  0  0  0  0  0  0
   -1.3721   -3.1934   -0.7286 O   0  0  0  0  0  0  0  0  0  0  0  0
   -1.8746    2.7804    1.0561 O   0  0  0  0  0  0  0  0  0  0  0  0
   -4.6377   -0.4938   -0.7332 O   0  0  0  0  0  0  0  0  0  0  0  0
   -5.6312   -1.1101    1.2594 O   0  0  0  0  0  0  0  0  0  0  0  0
    3.0451    1.5384    0.8253 C   0  0  1  0  0  0  0  0  0  0  0  0
    1.6687    2.1471    0.6723 C   0  0  1  0  0  0  0  0  0  0  0  0
    3.8806    1.2866   -0.4110 C   0  0  2  0  0  0  0  0  0  0  0  0
    4.2688   -0.0868   -0.9132 C   0  0  2  0  0  0  0  0  0  0  0  0
    0.5841    1.8145    1.6382 C   0  0  0  0  0  0  0  0  0  0  0  0
    1.2260    2.7005   -0.6444 C   0  0  0  0  0  0  0  0  0  0  0  0
   -0.2650    0.5996    1.2159 C   0  0  2  0  0  0  0  0  0  0  0  0
    0.5274   -0.7257    1.0851 C   0  0  2  0  0  0  0  0  0  0  0  0
    3.8117   -1.3567   -0.3094 C   0  0  0  0  0  0  0  0  0  0  0  0
    1.2696   -0.9600   -0.2427 C   0  0  1  0  0  0  0  0  0  0  0  0
    2.5467   -1.7426   -0.0450 C   0  0  0  0  0  0  0  0  0  0  0  0
   -0.4119   -1.8917    1.0615 C   0  0  0  0  0  0  0  0  0  0  0  0
    4.9382   -2.3201   -0.0098 C   0  0  0  0  0  0  0  0  0  0  0  0
   -0.5615   -2.3827   -0.3193 C   0  0  0  0  0  0  0  0  0  0  0  0
   -1.0166   -2.4857    2.0933 C   0  0  0  0  0  0  0  0  0  0  0  0
   -1.7809    2.0277    0.0969 C   0  0  0  0  0  0  0  0  0  0  0  0
   -2.5053    2.2066   -1.1981 C   0  0  0  0  0  0  0  0  0  0  0  0
   -1.8568    3.0360   -2.2665 C   0  0  0  0  0  0  0  0  0  0  0  0
   -3.7137    1.6191   -1.2810 C   0  0  0  0  0  0  0  0  0  0  0  0
   -4.4015    0.8135   -0.2231 C   0  0  0  0  0  0  0  0  0  0  0  0
   -5.2643   -1.3596    0.1191 C   0  0  0  0  0  0  0  0  0  0  0  0
   -5.4461   -2.6887   -0.5490 C   0  0  0  0  0  0  0  0  0  0  0  0
    3.2087    0.8640    1.6600 H   0  0  0  0  0  0  0  0  0  0  0  0
    3.8285    2.0548   -1.1773 H   0  0  0  0  0  0  0  0  0  0  0  0
    4.4240   -0.1678   -1.9856 H   0  0  0  0  0  0  0  0  0  0  0  0
    1.0503    1.5458    2.5977 H   0  0  0  0  0  0  0  0  0  0  0  0
    0.0429    2.7278    1.8802 H   0  0  0  0  0  0  0  0  0  0  0  0
    0.8682    1.9270   -1.3250 H   0  0  0  0  0  0  0  0  0  0  0  0
    0.4398    3.4462   -0.4967 H   0  0  0  0  0  0  0  0  0  0  0  0
    2.0278    3.2368   -1.1638 H   0  0  0  0  0  0  0  0  0  0  0  0
   -0.9971    0.4545    2.0245 H   0  0  0  0  0  0  0  0  0  0  0  0
    1.2075   -0.8077    1.9429 H   0  0  0  0  0  0  0  0  0  0  0  0
    1.4641   -0.0458   -0.7950 H   0  0  0  0  0  0  0  0  0  0  0  0
    2.4028   -2.7344    0.3843 H   0  0  0  0  0  0  0  0  0  0  0  0
    4.5912   -3.2674    0.4164 H   0  0  0  0  0  0  0  0  0  0  0  0
    5.6344   -1.8747    0.7087 H   0  0  0  0  0  0  0  0  0  0  0  0
   -0.8724   -2.1187    3.1039 H   0  0  0  0  0  0  0  0  0  0  0  0
   -1.6657   -3.3445    1.9599 H   0  0  0  0  0  0  0  0  0  0  0  0
    5.0264   -3.0366   -1.8147 H   0  0  0  0  0  0  0  0  0  0  0  0
   -2.5465    3.2290   -3.0949 H   0  0  0  0  0  0  0  0  0  0  0  0
   -1.5440    4.0045   -1.8644 H   0  0  0  0  0  0  0  0  0  0  0  0
   -0.9830    2.5204   -2.6742 H   0  0  0  0  0  0  0  0  0  0  0  0
   -4.2732    1.7405   -2.2073 H   0  0  0  0  0  0  0  0  0  0  0  0
   -3.8265    0.7400    0.7049 H   0  0  0  0  0  0  0  0  0  0  0  0
   -5.3624    1.2896    0.0054 H   0  0  0  0  0  0  0  0  0  0  0  0
   -4.4713   -3.1078   -0.8107 H   0  0  0  0  0  0  0  0  0  0  0  0
   -6.0679   -2.5735   -1.4403 H   0  0  0  0  0  0  0  0  0  0  0  0
   -5.9470   -3.3754    0.1394 H   0  0  0  0  0  0  0  0  0  0  0  0
  1 10  1  0  0  0  0
  1 11  1  0  0  0  0
  2 12  1  0  0  0  0
  2 13  1  0  0  0  0
  3 16  1  0  0  0  0
  3 25  1  0  0  0  0
  4 19  1  0  0  0  0
  4 23  1  0  0  0  0
  5 22  1  0  0  0  0
  5 48  1  0  0  0  0
  6 23  2  0  0  0  0
  7 25  2  0  0  0  0
  8 29  1  0  0  0  0
  8 30  1  0  0  0  0
  9 30  2  0  0  0  0
 10 11  1  0  0  0  0
 10 12  1  0  0  0  0
 10 32  1  0  0  0  0
 11 14  1  0  0  0  0
 11 15  1  0  0  0  0
 12 13  1  0  0  0  0
 12 33  1  0  0  0  0
 13 18  1  0  0  0  0
 13 34  1  0  0  0  0
 14 16  1  0  0  0  0
 14 35  1  0  0  0  0
 14 36  1  0  0  0  0
 15 37  1  0  0  0  0
 15 38  1  0  0  0  0
 15 39  1  0  0  0  0
 16 17  1  0  0  0  0
 16 40  1  0  0  0  0
 17 19  1  0  0  0  0
 17 21  1  0  0  0  0
 17 41  1  0  0  0  0
 18 20  2  0  0  0  0
 18 22  1  0  0  0  0
 19 20  1  0  0  0  0
 19 42  1  0  0  0  0
 20 43  1  0  0  0  0
 21 23  1  0  0  0  0
 21 24  2  0  0  0  0
 22 44  1  0  0  0  0
 22 45  1  0  0  0  0
 24 46  1  0  0  0  0
 24 47  1  0  0  0  0
 25 26  1  0  0  0  0
 26 27  1  0  0  0  0
 26 28  2  0  0  0  0
 27 49  1  0  0  0  0
 27 50  1  0  0  0  0
 27 51  1  0  0  0  0
 28 29  1  0  0  0  0
 28 52  1  0  0  0  0
 29 53  1  0  0  0  0
 29 54  1  0  0  0  0
 30 31  1  0  0  0  0
 31 55  1  0  0  0  0
 31 56  1  0  0  0  0
 31 57  1  0  0  0  0
M  END
> <PUBCHEM_COMPOUND_CID>
5281440

> <PUBCHEM_CONFORMER_RMSD>
1

> <PUBCHEM_CONFORMER_DIVERSEORDER>
5
30
4
25
47
53
57
66
49
34
45
27
32
6
39
60
68
15
56
19
14
28
21
48
22
2
36
11
24
54
13
16
26
50
23
20
42
7
65
40
67
62
37
17
51
18
33
10
63
1
46
41
31
59
61
52
64
35
38
29
3
12
8
55
43
9
58
44

> <PUBCHEM_MMFF94_PARTIAL_CHARGES>
39
1 -0.3
10 0.05
11 -0.04
12 0.05
13 0.09
14 0.09
15 0.09
16 0.28
17 0.14
18 -0.18
19 0.42
2 -0.3
20 -0.29
21 -0.12
22 0.42
23 0.71
24 -0.3
25 0.71
26 -0.12
27 0.14
28 -0.29
29 0.42
3 -0.43
30 0.66
31 0.06
32 0.1
33 0.1
34 0.1
4 -0.43
43 0.15
46 0.15
47 0.15
48 0.4
5 -0.68
52 0.15
6 -0.57
7 -0.57
8 -0.43
9 -0.57

> <PUBCHEM_EFFECTIVE_ROTOR_COUNT>
8

> <PUBCHEM_PHARMACOPHORE_FEATURES>
9
1 1 acceptor
1 2 acceptor
1 27 hydrophobe
1 5 acceptor
1 5 donor
1 6 acceptor
1 7 acceptor
1 9 acceptor
5 4 17 19 21 23 rings

> <PUBCHEM_HEAVY_ATOM_COUNT>
31

> <PUBCHEM_ATOM_DEF_STEREO_COUNT>
7

> <PUBCHEM_ATOM_UDEF_STEREO_COUNT>
0

> <PUBCHEM_BOND_DEF_STEREO_COUNT>
2

> <PUBCHEM_BOND_UDEF_STEREO_COUNT>
0

> <PUBCHEM_ISOTOPIC_ATOM_COUNT>
0

> <PUBCHEM_COMPONENT_COUNT>
1

> <PUBCHEM_CACTVS_TAUTO_COUNT>
1

> <PUBCHEM_CONFORMER_ID>
005096A000000005

> <PUBCHEM_MMFF94_ENERGY>
73.7804

> <PUBCHEM_FEATURE_SELFOVERLAP>
45.669

> <PUBCHEM_SHAPE_FINGERPRINT>
10190108 129 18130208442371544483
11488393 25 18042960063834833055
11578080 2 16807869615610349938
12166972 35 18272361023413526822
12422481 6 18334287648493520091
13402501 40 18411418376307439715
17492 54 18269833288978033052
17909252 39 18187085044082065674
18608769 82 18338518521823496996
19591789 44 18409172095326295707
20775438 99 17608974968634396214
22182313 1 18337692865563273856
22393880 68 18127984198303346757
23559900 14 18410586089129680741
23566358 2 18408327691770695654
3323516 105 18335708238569560365
3380486 145 17976248041937721859
350125 39 18409445895054257521
484989 97 18411411821976830110
6669772 16 18263382329809360336

> <PUBCHEM_SHAPE_MULTIPOLES>
585.14
10.78
4.29
1.56
2.61
0.13
-0.16
-5.54
2.85
0.75
0.48
0.4
0.38
1.78

> <PUBCHEM_SHAPE_SELFOVERLAP>
1231.819

> <PUBCHEM_SHAPE_VOLUME>
326.6

> <PUBCHEM_COORDINATE_TYPE>
2
5
10

$$$$

