92275
  -OEChem-07051213093D

 60 62  0     1  0  0  0  0  0999 V2000
    1.7989   -2.5954   -1.0188 O   0  0  0  0  0  0  0  0  0  0  0  0
   -1.3694   -2.9043    0.2988 O   0  0  0  0  0  0  0  0  0  0  0  0
    2.0639    1.6564   -0.4541 O   0  0  0  0  0  0  0  0  0  0  0  0
    3.3765   -0.2390   -0.0911 O   0  0  0  0  0  0  0  0  0  0  0  0
   -2.5255    1.9626    0.1952 O   0  0  0  0  0  0  0  0  0  0  0  0
   -3.2871   -2.7062   -0.9741 O   0  0  0  0  0  0  0  0  0  0  0  0
    4.5352    1.2275   -1.4424 O   0  0  0  0  0  0  0  0  0  0  0  0
   -4.1792    3.2432   -0.7767 O   0  0  0  0  0  0  0  0  0  0  0  0
    0.7877   -1.9600   -0.2253 C   0  0  2  0  0  0  0  0  0  0  0  0
    0.9627   -0.4810    0.0293 C   0  0  2  0  0  0  0  0  0  0  0  0
    1.6899   -3.0264    0.3445 C   0  0  0  0  0  0  0  0  0  0  0  0
   -0.6256   -2.2092   -0.6921 C   0  0  2  0  0  0  0  0  0  0  0  0
   -0.3076    0.1121   -0.5418 C   0  0  0  0  0  0  0  0  0  0  0  0
    2.1431    0.2270   -0.6366 C   0  0  1  0  0  0  0  0  0  0  0  0
   -1.1954   -0.8300   -0.8946 C   0  0  0  0  0  0  0  0  0  0  0  0
   -0.3501    1.5427   -0.6864 C   0  0  0  0  0  0  0  0  0  0  0  0
    0.8140    2.2096   -0.6063 C   0  0  0  0  0  0  0  0  0  0  0  0
   -1.6629    2.2302   -0.8959 C   0  0  0  0  0  0  0  0  0  0  0  0
   -2.6982   -3.0853    0.0292 C   0  0  0  0  0  0  0  0  0  0  0  0
    4.5054    0.3524   -0.5880 C   0  0  0  0  0  0  0  0  0  0  0  0
    5.7213   -0.2752    0.0595 C   0  0  0  0  0  0  0  0  0  0  0  0
   -3.3511   -3.8290    1.1548 C   0  0  0  0  0  0  0  0  0  0  0  0
    6.2096    0.4918    1.2981 C   0  0  0  0  0  0  0  0  0  0  0  0
   -3.7715    2.5348    0.1335 C   0  0  0  0  0  0  0  0  0  0  0  0
   -4.5514    2.1869    1.3835 C   0  0  0  0  0  0  0  0  0  0  0  0
    5.1390    0.4593    2.3905 C   0  0  0  0  0  0  0  0  0  0  0  0
    6.5566    1.9431    0.9568 C   0  0  0  0  0  0  0  0  0  0  0  0
   -5.4337    0.9399    1.2174 C   0  0  0  0  0  0  0  0  0  0  0  0
   -6.4350    1.1113    0.0723 C   0  0  0  0  0  0  0  0  0  0  0  0
   -4.5602   -0.2896    0.9608 C   0  0  0  0  0  0  0  0  0  0  0  0
    0.9869   -0.3095    1.1142 H   0  0  0  0  0  0  0  0  0  0  0  0
    1.2792   -4.0113    0.5250 H   0  0  0  0  0  0  0  0  0  0  0  0
    2.4734   -2.7293    1.0294 H   0  0  0  0  0  0  0  0  0  0  0  0
   -0.6322   -2.7759   -1.6313 H   0  0  0  0  0  0  0  0  0  0  0  0
    2.1514    0.0205   -1.7171 H   0  0  0  0  0  0  0  0  0  0  0  0
   -2.1375   -0.6149   -1.3766 H   0  0  0  0  0  0  0  0  0  0  0  0
    0.8929    3.2878   -0.6489 H   0  0  0  0  0  0  0  0  0  0  0  0
   -2.1215    1.8793   -1.8290 H   0  0  0  0  0  0  0  0  0  0  0  0
   -1.5202    3.3150   -0.9804 H   0  0  0  0  0  0  0  0  0  0  0  0
    5.4997   -1.3202    0.3092 H   0  0  0  0  0  0  0  0  0  0  0  0
    6.5120   -0.3133   -0.6999 H   0  0  0  0  0  0  0  0  0  0  0  0
   -4.4151   -3.9567    0.9362 H   0  0  0  0  0  0  0  0  0  0  0  0
   -2.8950   -4.8165    1.2596 H   0  0  0  0  0  0  0  0  0  0  0  0
   -3.2525   -3.2585    2.0817 H   0  0  0  0  0  0  0  0  0  0  0  0
    7.1114   -0.0060    1.6749 H   0  0  0  0  0  0  0  0  0  0  0  0
   -5.1682    3.0580    1.6364 H   0  0  0  0  0  0  0  0  0  0  0  0
   -3.8541    2.0634    2.2213 H   0  0  0  0  0  0  0  0  0  0  0  0
    5.5302    0.8956    3.3163 H   0  0  0  0  0  0  0  0  0  0  0  0
    4.8360   -0.5694    2.6128 H   0  0  0  0  0  0  0  0  0  0  0  0
    4.2461    1.0296    2.1143 H   0  0  0  0  0  0  0  0  0  0  0  0
    7.2800    1.9874    0.1360 H   0  0  0  0  0  0  0  0  0  0  0  0
    7.0068    2.4392    1.8236 H   0  0  0  0  0  0  0  0  0  0  0  0
    5.6742    2.5240    0.6694 H   0  0  0  0  0  0  0  0  0  0  0  0
   -5.9888    0.7879    2.1510 H   0  0  0  0  0  0  0  0  0  0  0  0
   -7.0322    2.0186    0.2104 H   0  0  0  0  0  0  0  0  0  0  0  0
   -7.1250    0.2608    0.0419 H   0  0  0  0  0  0  0  0  0  0  0  0
   -5.9434    1.1684   -0.9041 H   0  0  0  0  0  0  0  0  0  0  0  0
   -4.0808   -0.2436   -0.0201 H   0  0  0  0  0  0  0  0  0  0  0  0
   -3.7843   -0.3923    1.7264 H   0  0  0  0  0  0  0  0  0  0  0  0
   -5.1731   -1.1971    0.9836 H   0  0  0  0  0  0  0  0  0  0  0  0
  1  9  1  0  0  0  0
  1 11  1  0  0  0  0
  2 12  1  0  0  0  0
  2 19  1  0  0  0  0
  3 14  1  0  0  0  0
  3 17  1  0  0  0  0
  4 14  1  0  0  0  0
  4 20  1  0  0  0  0
  5 18  1  0  0  0  0
  5 24  1  0  0  0  0
  6 19  2  0  0  0  0
  7 20  2  0  0  0  0
  8 24  2  0  0  0  0
  9 10  1  0  0  0  0
  9 11  1  0  0  0  0
  9 12  1  0  0  0  0
 10 13  1  0  0  0  0
 10 14  1  0  0  0  0
 10 31  1  0  0  0  0
 11 32  1  0  0  0  0
 11 33  1  0  0  0  0
 12 15  1  0  0  0  0
 12 34  1  0  0  0  0
 13 15  2  0  0  0  0
 13 16  1  0  0  0  0
 14 35  1  0  0  0  0
 15 36  1  0  0  0  0
 16 17  2  0  0  0  0
 16 18  1  0  0  0  0
 17 37  1  0  0  0  0
 18 38  1  0  0  0  0
 18 39  1  0  0  0  0
 19 22  1  0  0  0  0
 20 21  1  0  0  0  0
 21 23  1  0  0  0  0
 21 40  1  0  0  0  0
 21 41  1  0  0  0  0
 22 42  1  0  0  0  0
 22 43  1  0  0  0  0
 22 44  1  0  0  0  0
 23 26  1  0  0  0  0
 23 27  1  0  0  0  0
 23 45  1  0  0  0  0
 24 25  1  0  0  0  0
 25 28  1  0  0  0  0
 25 46  1  0  0  0  0
 25 47  1  0  0  0  0
 26 48  1  0  0  0  0
 26 49  1  0  0  0  0
 26 50  1  0  0  0  0
 27 51  1  0  0  0  0
 27 52  1  0  0  0  0
 27 53  1  0  0  0  0
 28 29  1  0  0  0  0
 28 30  1  0  0  0  0
 28 54  1  0  0  0  0
 29 55  1  0  0  0  0
 29 56  1  0  0  0  0
 29 57  1  0  0  0  0
 30 58  1  0  0  0  0
 30 59  1  0  0  0  0
 30 60  1  0  0  0  0
M  END
> <PUBCHEM_COMPOUND_CID>
92275

> <PUBCHEM_CONFORMER_RMSD>
1

> <PUBCHEM_CONFORMER_DIVERSEORDER>
1
19
84
145
133
77
17
89
115
82
91
148
114
105
146
92
126
120
20
75
125
101
122
98
137
138
100
37
106
85
135
38
52
130
129
61
35
80
36
142
72
43
70
131
27
33
111
124
54
93
48
143
144
134
11
41
24
71
56
121
139
34
86
108
88
128
74
78
18
47
69
73
53
23
147
13
90
57
87
16
96
40
127
141
31
119
15
49
94
117
51
81
103
26
67
44
110
63
14
65
118
79
50
99
104
9
7
95
113
21
112
2
58
46
45
32
132
28
66
68
102
60
39
116
5
76
59
12
62
6
29
25
55
4
64
30
109
83
140
107
42
22
123
8
10
97
3
136

> <PUBCHEM_MMFF94_PARTIAL_CHARGES>
28
1 -0.3
10 0.23
11 -0.05
12 0.51
13 -0.14
14 0.56
15 -0.29
16 -0.14
17 -0.07
18 0.42
19 0.66
2 -0.43
20 0.66
21 0.06
22 0.06
24 0.66
25 0.06
3 -0.36
32 0.1
33 0.1
36 0.15
37 0.15
4 -0.43
5 -0.43
6 -0.57
7 -0.57
8 -0.57
9 -0.04

> <PUBCHEM_EFFECTIVE_ROTOR_COUNT>
12

> <PUBCHEM_PHARMACOPHORE_FEATURES>
9
1 1 acceptor
1 3 acceptor
1 6 acceptor
1 7 acceptor
1 8 acceptor
3 23 26 27 hydrophobe
3 28 29 30 hydrophobe
5 9 10 12 13 15 rings
6 3 10 13 14 16 17 rings

> <PUBCHEM_HEAVY_ATOM_COUNT>
30

> <PUBCHEM_ATOM_DEF_STEREO_COUNT>
4

> <PUBCHEM_ATOM_UDEF_STEREO_COUNT>
0

> <PUBCHEM_BOND_DEF_STEREO_COUNT>
0

> <PUBCHEM_BOND_UDEF_STEREO_COUNT>
0

> <PUBCHEM_ISOTOPIC_ATOM_COUNT>
0

> <PUBCHEM_COMPONENT_COUNT>
1

> <PUBCHEM_CACTVS_TAUTO_COUNT>
1

> <PUBCHEM_CONFORMER_ID>
0001687300000001

> <PUBCHEM_MMFF94_ENERGY>
55.9909

> <PUBCHEM_FEATURE_SELFOVERLAP>
45.765

> <PUBCHEM_SHAPE_FINGERPRINT>
10 15 18413672409499435536
10074138 170 18270412602282209362
10493431 412 18408886269347540100
10675989 125 17188982748743481853
1100329 8 18410286974242042573
11136131 41 18200317765803243059
11479125 193 15359695201261092666
11513181 2 18114173194778443455
11578080 2 17386298609628474586
12422481 6 18271526493861216954
12717326 150 15480738404970093608
12788726 201 18125150546912359782
12838862 33 18410866477822218933
13140716 1 18267300941510241325
13692114 37 18261401014093143879
13782708 43 13542473072705096504
14289278 72 18337400456618193002
14395042 24 18193540205290789475
14466204 15 18409448051127561034
14790565 3 18196920098509944644
14866123 147 18413108359496251083
17913733 40 18261391216776681152
19591789 44 17979908634016787991
21236236 1 18335704905574413302
22224240 67 18334856156335335969
23559900 14 18261116305760063084
25147074 1 18059006160774157324
350125 39 18338516327069361228
392239 28 18113332012105378065
4340502 62 18262235637654666212
5104073 3 18124024896008716897
5171179 24 17461173049440749121

> <PUBCHEM_SHAPE_MULTIPOLES>
570.43
14.12
4.29
1.37
8.68
2.89
-0.54
-8.31
-6.57
-5.15
0
0.85
-0.23
0.41

> <PUBCHEM_SHAPE_SELFOVERLAP>
1184.872

> <PUBCHEM_SHAPE_VOLUME>
324.7

> <PUBCHEM_COORDINATE_TYPE>
2
5
10

$$$$

