62210
  -OEChem-07051213122D

 40 41  0     1  0  0  0  0  0999 V2000
    7.0917    2.2500    0.0000 Cl  0  0  0  0  0  0  0  0  0  0  0  0
    3.6276    2.2500    0.0000 F   0  0  0  0  0  0  0  0  0  0  0  0
    4.4936   -4.2500    0.0000 F   0  0  0  0  0  0  0  0  0  0  0  0
    3.4936   -3.2500    0.0000 F   0  0  0  0  0  0  0  0  0  0  0  0
    5.4936   -3.2500    0.0000 F   0  0  0  0  0  0  0  0  0  0  0  0
    2.3007   -1.8633    0.0000 O   0  5  0  0  0  0  0  0  0  0  0  0
    7.0917   -0.7500    0.0000 O   0  5  0  0  0  0  0  0  0  0  0  0
    2.0000   -0.1576    0.0000 O   0  0  0  0  0  0  0  0  0  0  0  0
    6.2257    0.7500    0.0000 O   0  0  0  0  0  0  0  0  0  0  0  0
    4.4936    0.7500    0.0000 N   0  0  3  0  0  0  0  0  0  0  0  0
    2.6428   -0.9236    0.0000 N   0  3  0  0  0  0  0  0  0  0  0  0
    6.2257   -0.2500    0.0000 N   0  3  0  0  0  0  0  0  0  0  0  0
    4.4936   -0.2500    0.0000 C   0  0  0  0  0  0  0  0  0  0  0  0
    5.3596    1.2500    0.0000 C   0  0  0  0  0  0  0  0  0  0  0  0
    3.6276    1.2500    0.0000 C   0  0  0  0  0  0  0  0  0  0  0  0
    3.6276   -0.7500    0.0000 C   0  0  0  0  0  0  0  0  0  0  0  0
    5.3596   -0.7500    0.0000 C   0  0  0  0  0  0  0  0  0  0  0  0
    5.3596    2.2500    0.0000 C   0  0  0  0  0  0  0  0  0  0  0  0
    4.4936   -2.2500    0.0000 C   0  0  0  0  0  0  0  0  0  0  0  0
    3.6276   -1.7500    0.0000 C   0  0  0  0  0  0  0  0  0  0  0  0
    5.3596   -1.7500    0.0000 C   0  0  0  0  0  0  0  0  0  0  0  0
    2.6428    1.4237    0.0000 C   0  0  0  0  0  0  0  0  0  0  0  0
    6.2257    2.7500    0.0000 C   0  0  0  0  0  0  0  0  0  0  0  0
    4.4936    2.7500    0.0000 C   0  0  0  0  0  0  0  0  0  0  0  0
    4.4936   -3.2500    0.0000 C   0  0  0  0  0  0  0  0  0  0  0  0
    6.2257    3.7500    0.0000 C   0  0  0  0  0  0  0  0  0  0  0  0
    4.4936    3.7500    0.0000 C   0  0  0  0  0  0  0  0  0  0  0  0
    5.3596    4.2500    0.0000 C   0  0  0  0  0  0  0  0  0  0  0  0
    5.5717    0.6674    0.0000 H   0  0  0  0  0  0  0  0  0  0  0  0
    5.9702    1.3577    0.0000 H   0  0  0  0  0  0  0  0  0  0  0  0
    4.1249    1.6202    0.0000 H   0  0  0  0  0  0  0  0  0  0  0  0
    3.4155    0.6674    0.0000 H   0  0  0  0  0  0  0  0  0  0  0  0
    3.0907   -2.0600    0.0000 H   0  0  0  0  0  0  0  0  0  0  0  0
    5.8966   -2.0600    0.0000 H   0  0  0  0  0  0  0  0  0  0  0  0
    2.7505    2.0343    0.0000 H   0  0  0  0  0  0  0  0  0  0  0  0
    2.0322    1.5314    0.0000 H   0  0  0  0  0  0  0  0  0  0  0  0
    2.5351    0.8131    0.0000 H   0  0  0  0  0  0  0  0  0  0  0  0
    6.7626    4.0600    0.0000 H   0  0  0  0  0  0  0  0  0  0  0  0
    3.9567    4.0600    0.0000 H   0  0  0  0  0  0  0  0  0  0  0  0
    5.3596    4.8700    0.0000 H   0  0  0  0  0  0  0  0  0  0  0  0
  1 23  1  0  0  0  0
  2 24  1  0  0  0  0
  3 25  1  0  0  0  0
  4 25  1  0  0  0  0
  5 25  1  0  0  0  0
  6 11  1  0  0  0  0
  7 12  1  0  0  0  0
  8 11  2  0  0  0  0
  9 12  2  0  0  0  0
 10 13  1  0  0  0  0
 10 14  1  0  0  0  0
 10 15  1  0  0  0  0
 11 16  1  0  0  0  0
 12 17  1  0  0  0  0
 13 16  2  0  0  0  0
 13 17  1  0  0  0  0
 14 18  1  0  0  0  0
 14 29  1  0  0  0  0
 14 30  1  0  0  0  0
 15 22  1  0  0  0  0
 15 31  1  0  0  0  0
 15 32  1  0  0  0  0
 16 20  1  0  0  0  0
 17 21  2  0  0  0  0
 18 23  1  0  0  0  0
 18 24  2  0  0  0  0
 19 20  2  0  0  0  0
 19 21  1  0  0  0  0
 19 25  1  0  0  0  0
 20 33  1  0  0  0  0
 21 34  1  0  0  0  0
 22 35  1  0  0  0  0
 22 36  1  0  0  0  0
 22 37  1  0  0  0  0
 23 26  2  0  0  0  0
 24 27  1  0  0  0  0
 26 28  1  0  0  0  0
 26 38  1  0  0  0  0
 27 28  2  0  0  0  0
 27 39  1  0  0  0  0
 28 40  1  0  0  0  0
M  CHG  4   6  -1   7  -1  11   1  12   1
M  END
> <PUBCHEM_COMPOUND_CID>
62210

> <PUBCHEM_COMPOUND_CANONICALIZED>
1

> <PUBCHEM_CACTVS_COMPLEXITY>
548

> <PUBCHEM_CACTVS_HBOND_ACCEPTOR>
9

> <PUBCHEM_CACTVS_HBOND_DONOR>
0

> <PUBCHEM_CACTVS_ROTATABLE_BOND>
4

> <PUBCHEM_CACTVS_SUBSKEYS>
AAADccB7OcAEAAAAAAAAAAAAAAAAAAAAAAAwYAAAAAAAAAABQAAAHQIEAAAADArBGDwywIMQQACBAiRCQwCCAAAhBwAoiAAIdooIYCLB09GUIAhggIDIyAcQgAAOCAAAQAQBACAQAACACAIAQAAAAAAAAA==

> <PUBCHEM_IUPAC_OPENEYE_NAME>
N-[(2-chloro-6-fluoro-phenyl)methyl]-N-ethyl-2,6-dinitro-4-(trifluoromethyl)aniline

> <PUBCHEM_IUPAC_CAS_NAME>
N-[(2-chloro-6-fluorophenyl)methyl]-N-ethyl-2,6-dinitro-4-(trifluoromethyl)aniline

> <PUBCHEM_IUPAC_NAME>
N-[(2-chloro-6-fluorophenyl)methyl]-N-ethyl-2,6-dinitro-4-(trifluoromethyl)aniline

> <PUBCHEM_IUPAC_SYSTEMATIC_NAME>
N-[(2-chloranyl-6-fluoranyl-phenyl)methyl]-N-ethyl-2,6-dinitro-4-(trifluoromethyl)aniline

> <PUBCHEM_IUPAC_TRADITIONAL_NAME>
(2-chloro-6-fluoro-benzyl)-[2,6-dinitro-4-(trifluoromethyl)phenyl]-ethyl-amine

> <PUBCHEM_IUPAC_INCHI>
InChI=1S/C16H12ClF4N3O4/c1-2-22(8-10-11(17)4-3-5-12(10)18)15-13(23(25)26)6-9(16(19,20)21)7-14(15)24(27)28/h3-7H,2,8H2,1H3

> <PUBCHEM_IUPAC_INCHIKEY>
PWNAWOCHVWERAR-UHFFFAOYSA-N

> <PUBCHEM_XLOGP3_AA>
5.2

> <PUBCHEM_EXACT_MASS>
421.045246

> <PUBCHEM_MOLECULAR_FORMULA>
C16H12ClF4N3O4

> <PUBCHEM_MOLECULAR_WEIGHT>
421.730793

> <PUBCHEM_OPENEYE_CAN_SMILES>
CCN(CC1=C(C=CC=C1Cl)F)C2=C(C=C(C=C2[N+](=O)[O-])C(F)(F)F)[N+](=O)[O-]

> <PUBCHEM_OPENEYE_ISO_SMILES>
CCN(CC1=C(C=CC=C1Cl)F)C2=C(C=C(C=C2[N+](=O)[O-])C(F)(F)F)[N+](=O)[O-]

> <PUBCHEM_CACTVS_TPSA>
94.9

> <PUBCHEM_MONOISOTOPIC_WEIGHT>
421.045246

> <PUBCHEM_TOTAL_CHARGE>
0

> <PUBCHEM_HEAVY_ATOM_COUNT>
28

> <PUBCHEM_ATOM_DEF_STEREO_COUNT>
0

> <PUBCHEM_ATOM_UDEF_STEREO_COUNT>
0

> <PUBCHEM_BOND_DEF_STEREO_COUNT>
0

> <PUBCHEM_BOND_UDEF_STEREO_COUNT>
0

> <PUBCHEM_ISOTOPIC_ATOM_COUNT>
0

> <PUBCHEM_COMPONENT_COUNT>
1

> <PUBCHEM_CACTVS_TAUTO_COUNT>
1

> <PUBCHEM_COORDINATE_TYPE>
1
5
255

> <PUBCHEM_BONDANNOTATIONS>
13  16  8
13  17  8
16  20  8
17  21  8
18  23  8
18  24  8
19  20  8
19  21  8
23  26  8
24  27  8
26  28  8
27  28  8

$$$$

