439424
  -OEChem-07051212453D

 34 35  0     1  0  0  0  0  0999 V2000
    3.8558    1.5077    0.0438 P   0  0  0  0  0  0  0  0  0  0  0  0
    0.4393   -0.9016    1.1056 O   0  0  0  0  0  0  0  0  0  0  0  0
    0.5884   -3.8249    0.3628 O   0  0  0  0  0  0  0  0  0  0  0  0
   -1.4189   -2.8979   -1.2251 O   0  0  0  0  0  0  0  0  0  0  0  0
    2.9129    0.3230    0.6174 O   0  0  0  0  0  0  0  0  0  0  0  0
   -3.6475   -1.2334    0.5558 O   0  0  0  0  0  0  0  0  0  0  0  0
    2.9532    2.1914   -1.1107 O   0  0  0  0  0  0  0  0  0  0  0  0
    4.9809    0.7014   -0.7922 O   0  0  0  0  0  0  0  0  0  0  0  0
    4.3914    2.4499    1.0819 O   0  0  0  0  0  0  0  0  0  0  0  0
   -3.9170    3.2839   -0.3476 O   0  0  0  0  0  0  0  0  0  0  0  0
   -3.7960    1.0246    0.1066 N   0  0  0  0  0  0  0  0  0  0  0  0
   -1.8507    2.2814   -0.2109 N   0  0  0  0  0  0  0  0  0  0  0  0
    0.8758   -2.6664   -0.4194 C   0  0  1  0  0  0  0  0  0  0  0  0
   -0.4195   -1.9865   -0.8143 C   0  0  2  0  0  0  0  0  0  0  0  0
    1.5249   -1.6162    0.4739 C   0  0  1  0  0  0  0  0  0  0  0  0
   -0.8003   -1.2674    0.4723 C   0  0  2  0  0  0  0  0  0  0  0  0
    2.3668   -0.6098   -0.2987 C   0  0  0  0  0  0  0  0  0  0  0  0
   -1.6149   -0.0393    0.2506 C   0  0  0  0  0  0  0  0  0  0  0  0
   -3.1007   -0.1585    0.3225 C   0  0  0  0  0  0  0  0  0  0  0  0
   -1.0883    1.1639   -0.0095 C   0  0  0  0  0  0  0  0  0  0  0  0
   -3.2356    2.2746   -0.1647 C   0  0  0  0  0  0  0  0  0  0  0  0
    1.4854   -2.9824   -1.2699 H   0  0  0  0  0  0  0  0  0  0  0  0
   -0.2311   -1.2821   -1.6338 H   0  0  0  0  0  0  0  0  0  0  0  0
    2.1197   -2.0640    1.2780 H   0  0  0  0  0  0  0  0  0  0  0  0
   -1.3191   -1.9377    1.1682 H   0  0  0  0  0  0  0  0  0  0  0  0
    1.7614   -0.0683   -1.0312 H   0  0  0  0  0  0  0  0  0  0  0  0
    3.1783   -1.1253   -0.8216 H   0  0  0  0  0  0  0  0  0  0  0  0
    0.1881   -3.5490    1.2040 H   0  0  0  0  0  0  0  0  0  0  0  0
   -2.2278   -2.3881   -1.4011 H   0  0  0  0  0  0  0  0  0  0  0  0
   -0.0217    1.3363   -0.0818 H   0  0  0  0  0  0  0  0  0  0  0  0
   -4.8101    0.9763    0.1489 H   0  0  0  0  0  0  0  0  0  0  0  0
   -1.3695    3.1548   -0.4041 H   0  0  0  0  0  0  0  0  0  0  0  0
    3.2909    2.9923   -1.5653 H   0  0  0  0  0  0  0  0  0  0  0  0
    5.7373    1.1979   -1.1710 H   0  0  0  0  0  0  0  0  0  0  0  0
  1  5  1  0  0  0  0
  1  7  1  0  0  0  0
  1  8  1  0  0  0  0
  1  9  2  0  0  0  0
  2 15  1  0  0  0  0
  2 16  1  0  0  0  0
  3 13  1  0  0  0  0
  3 28  1  0  0  0  0
  4 14  1  0  0  0  0
  4 29  1  0  0  0  0
  5 17  1  0  0  0  0
  6 19  2  0  0  0  0
  7 33  1  0  0  0  0
  8 34  1  0  0  0  0
 10 21  2  0  0  0  0
 11 19  1  0  0  0  0
 11 21  1  0  0  0  0
 11 31  1  0  0  0  0
 12 20  1  0  0  0  0
 12 21  1  0  0  0  0
 12 32  1  0  0  0  0
 13 14  1  0  0  0  0
 13 15  1  0  0  0  0
 13 22  1  0  0  0  0
 14 16  1  0  0  0  0
 14 23  1  0  0  0  0
 15 17  1  0  0  0  0
 15 24  1  0  0  0  0
 16 18  1  0  0  0  0
 16 25  1  0  0  0  0
 17 26  1  0  0  0  0
 17 27  1  0  0  0  0
 18 19  1  0  0  0  0
 18 20  2  0  0  0  0
 20 30  1  0  0  0  0
M  END
> <PUBCHEM_COMPOUND_CID>
439424

> <PUBCHEM_CONFORMER_RMSD>
0.8

> <PUBCHEM_CONFORMER_DIVERSEORDER>
1
21
38
3
26
17
43
40
5
39
34
27
6
32
15
7
41
14
30
8
18
29
10
33
25
12
16
28
4
24
13
35
31
36
42
19
22
37
23
2
11
20
9

> <PUBCHEM_MMFF94_PARTIAL_CHARGES>
28
1 1.51
10 -0.57
11 -0.49
12 -0.54
13 0.28
14 0.28
15 0.28
16 0.42
17 0.28
18 -0.12
19 0.62
2 -0.56
20 -0.04
21 0.69
28 0.4
29 0.4
3 -0.68
30 0.15
31 0.37
32 0.37
33 0.5
34 0.5
4 -0.68
5 -0.55
6 -0.57
7 -0.77
8 -0.77
9 -0.7

> <PUBCHEM_EFFECTIVE_ROTOR_COUNT>
5

> <PUBCHEM_PHARMACOPHORE_FEATURES>
15
1 10 acceptor
1 11 donor
1 12 donor
1 2 acceptor
1 3 acceptor
1 3 donor
1 4 acceptor
1 4 donor
1 6 acceptor
1 7 acceptor
1 8 acceptor
1 9 acceptor
4 1 7 8 9 anion
5 2 13 14 15 16 rings
6 11 12 18 19 20 21 rings

> <PUBCHEM_HEAVY_ATOM_COUNT>
21

> <PUBCHEM_ATOM_DEF_STEREO_COUNT>
4

> <PUBCHEM_ATOM_UDEF_STEREO_COUNT>
0

> <PUBCHEM_BOND_DEF_STEREO_COUNT>
0

> <PUBCHEM_BOND_UDEF_STEREO_COUNT>
0

> <PUBCHEM_ISOTOPIC_ATOM_COUNT>
0

> <PUBCHEM_COMPONENT_COUNT>
1

> <PUBCHEM_CACTVS_TAUTO_COUNT>
6

> <PUBCHEM_CONFORMER_ID>
0006B48000000001

> <PUBCHEM_MMFF94_ENERGY>
15.1637

> <PUBCHEM_FEATURE_SELFOVERLAP>
76.208

> <PUBCHEM_SHAPE_FINGERPRINT>
10411042 1 17546164099993712898
10498660 4 18410293639841303817
10608611 8 18124032588183756473
10871710 139 18265897947677751663
10906281 52 18270664400000028043
12173636 292 18337677395349341694
13134695 92 17548422956211513551
138480 1 17689999359280220646
14026960 21 18412539937864803299
14123255 52 18409171008631069496
14648413 74 18050566549646970931
17134986 127 18336548334357112062
17980427 23 17834149645644502298
19591789 44 18337670793868543569
20645477 56 18116428142638833080
21524375 3 18408316675296061122
23227448 37 18118124671494680484
23419403 2 15016321469266111467
23557571 272 17827071806551093104
23559900 14 17977110385535105467
3060560 45 17828206824051344654
43658 37 18336553810139915845
474 4 18195530522013115625
5939293 188 17691131851835216674
7364860 26 18049723211127111438
7808743 9 18123187905862347512
81228 2 17613733521725863658
9709674 26 18122061172705131199
9981440 41 18342179963862762850

> <PUBCHEM_SHAPE_MULTIPOLES>
373.23
7.77
4.08
0.92
3.74
0.95
0.04
-7.9
0.01
-0.55
0.54
0.38
0.11
0.27

> <PUBCHEM_SHAPE_SELFOVERLAP>
769.536

> <PUBCHEM_SHAPE_VOLUME>
215.6

> <PUBCHEM_COORDINATE_TYPE>
2
5
10

$$$$

