60976
  -OEChem-07051213142D

 32 34  0     1  0  0  0  0  0999 V2000
    3.3660    0.0000    0.0000 P   0  0  0  0  0  0  0  0  0  0  0  0
    2.3660    0.0000    0.0000 O   0  0  0  0  0  0  0  0  0  0  0  0
    3.3660   -1.0000    0.0000 N   0  0  3  0  0  0  0  0  0  0  0  0
    3.3660    1.0000    0.0000 N   0  0  3  0  0  0  0  0  0  0  0  0
    4.3660    0.0000    0.0000 N   0  0  3  0  0  0  0  0  0  0  0  0
    5.2320    0.5000    0.0000 C   0  0  3  0  0  0  0  0  0  0  0  0
    3.8660    1.8660    0.0000 C   0  0  3  0  0  0  0  0  0  0  0  0
    2.8660   -1.8660    0.0000 C   0  0  3  0  0  0  0  0  0  0  0  0
    3.8660   -1.8660    0.0000 C   0  0  0  0  0  0  0  0  0  0  0  0
    2.8660    1.8660    0.0000 C   0  0  0  0  0  0  0  0  0  0  0  0
    5.2320   -0.5000    0.0000 C   0  0  0  0  0  0  0  0  0  0  0  0
    5.7320    1.3660    0.0000 C   0  0  0  0  0  0  0  0  0  0  0  0
    4.7320    2.3660    0.0000 C   0  0  0  0  0  0  0  0  0  0  0  0
    2.0000   -2.3660    0.0000 C   0  0  0  0  0  0  0  0  0  0  0  0
    4.6310    1.1010    0.0000 H   0  0  0  0  0  0  0  0  0  0  0  0
    4.4671    1.2650    0.0000 H   0  0  0  0  0  0  0  0  0  0  0  0
    2.2650   -1.2650    0.0000 H   0  0  0  0  0  0  0  0  0  0  0  0
    3.9737   -2.4766    0.0000 H   0  0  0  0  0  0  0  0  0  0  0  0
    4.4486   -1.6540    0.0000 H   0  0  0  0  0  0  0  0  0  0  0  0
    2.7584    2.4766    0.0000 H   0  0  0  0  0  0  0  0  0  0  0  0
    2.2834    1.6540    0.0000 H   0  0  0  0  0  0  0  0  0  0  0  0
    5.0200   -1.0826    0.0000 H   0  0  0  0  0  0  0  0  0  0  0  0
    5.8426   -0.6077    0.0000 H   0  0  0  0  0  0  0  0  0  0  0  0
    6.2690    1.0560    0.0000 H   0  0  0  0  0  0  0  0  0  0  0  0
    6.0420    1.9030    0.0000 H   0  0  0  0  0  0  0  0  0  0  0  0
    5.1951    1.6760    0.0000 H   0  0  0  0  0  0  0  0  0  0  0  0
    5.0420    1.8291    0.0000 H   0  0  0  0  0  0  0  0  0  0  0  0
    5.2690    2.6760    0.0000 H   0  0  0  0  0  0  0  0  0  0  0  0
    4.4220    2.9030    0.0000 H   0  0  0  0  0  0  0  0  0  0  0  0
    1.6900   -1.8291    0.0000 H   0  0  0  0  0  0  0  0  0  0  0  0
    1.4631   -2.6760    0.0000 H   0  0  0  0  0  0  0  0  0  0  0  0
    2.3100   -2.9030    0.0000 H   0  0  0  0  0  0  0  0  0  0  0  0
  1  2  2  0  0  0  0
  1  3  1  0  0  0  0
  1  4  1  0  0  0  0
  1  5  1  0  0  0  0
  3  8  1  0  0  0  0
  3  9  1  0  0  0  0
  4  7  1  0  0  0  0
  4 10  1  0  0  0  0
  5  6  1  0  0  0  0
  5 11  1  0  0  0  0
  6 11  1  0  0  0  0
  6 12  1  0  0  0  0
  6 15  1  0  0  0  0
  7 10  1  0  0  0  0
  7 13  1  0  0  0  0
  7 16  1  0  0  0  0
  8  9  1  0  0  0  0
  8 14  1  0  0  0  0
  8 17  1  0  0  0  0
  9 18  1  0  0  0  0
  9 19  1  0  0  0  0
 10 20  1  0  0  0  0
 10 21  1  0  0  0  0
 11 22  1  0  0  0  0
 11 23  1  0  0  0  0
 12 24  1  0  0  0  0
 12 25  1  0  0  0  0
 12 26  1  0  0  0  0
 13 27  1  0  0  0  0
 13 28  1  0  0  0  0
 13 29  1  0  0  0  0
 14 30  1  0  0  0  0
 14 31  1  0  0  0  0
 14 32  1  0  0  0  0
M  END
> <PUBCHEM_COMPOUND_CID>
60976

> <PUBCHEM_COMPOUND_CANONICALIZED>
1

> <PUBCHEM_CACTVS_COMPLEXITY>
274

> <PUBCHEM_CACTVS_HBOND_ACCEPTOR>
4

> <PUBCHEM_CACTVS_HBOND_DONOR>
0

> <PUBCHEM_CACTVS_ROTATABLE_BOND>
3

> <PUBCHEM_CACTVS_SUBSKEYS>
AAADceBzIAIAAAAAAAAAAAAAFiwAAAAAAAAAAAAAAAAAAAAAAAAAHAAAgCAACCjBAAQCAAIAAAAAQAAAAAAAAAAAAAAAAAAIAAAAAAAAAAAAAAAAAAAAAAAAAAAAAAAAAAAAAAAAAAAAAAAAAAAAAAAAAA==

> <PUBCHEM_IUPAC_OPENEYE_NAME>
1-bis(2-methylaziridin-1-yl)phosphoryl-2-methyl-aziridine

> <PUBCHEM_IUPAC_CAS_NAME>
1-[bis(2-methyl-1-aziridinyl)phosphoryl]-2-methylaziridine

> <PUBCHEM_IUPAC_NAME>
1-bis(2-methylaziridin-1-yl)phosphoryl-2-methylaziridine

> <PUBCHEM_IUPAC_SYSTEMATIC_NAME>
1-bis(2-methylaziridin-1-yl)phosphoryl-2-methyl-aziridine

> <PUBCHEM_IUPAC_TRADITIONAL_NAME>
1-bis(2-methylethylenimin-1-yl)phosphoryl-2-methyl-ethylenimine

> <PUBCHEM_IUPAC_INCHI>
InChI=1S/C9H18N3OP/c1-7-4-10(7)14(13,11-5-8(11)2)12-6-9(12)3/h7-9H,4-6H2,1-3H3

> <PUBCHEM_IUPAC_INCHIKEY>
AVUYXHYHTTVPRX-UHFFFAOYSA-N

> <PUBCHEM_XLOGP3_AA>
0.7

> <PUBCHEM_EXACT_MASS>
215.118749

> <PUBCHEM_MOLECULAR_FORMULA>
C9H18N3OP

> <PUBCHEM_MOLECULAR_WEIGHT>
215.232482

> <PUBCHEM_OPENEYE_CAN_SMILES>
CC1CN1P(=O)(N2CC2C)N3CC3C

> <PUBCHEM_OPENEYE_ISO_SMILES>
CC1CN1P(=O)(N2CC2C)N3CC3C

> <PUBCHEM_CACTVS_TPSA>
26.1

> <PUBCHEM_MONOISOTOPIC_WEIGHT>
215.118749

> <PUBCHEM_TOTAL_CHARGE>
0

> <PUBCHEM_HEAVY_ATOM_COUNT>
14

> <PUBCHEM_ATOM_DEF_STEREO_COUNT>
0

> <PUBCHEM_ATOM_UDEF_STEREO_COUNT>
3

> <PUBCHEM_BOND_DEF_STEREO_COUNT>
0

> <PUBCHEM_BOND_UDEF_STEREO_COUNT>
0

> <PUBCHEM_ISOTOPIC_ATOM_COUNT>
0

> <PUBCHEM_COMPONENT_COUNT>
1

> <PUBCHEM_CACTVS_TAUTO_COUNT>
1

> <PUBCHEM_COORDINATE_TYPE>
1
5
255

> <PUBCHEM_BONDANNOTATIONS>
6  15  3
7  16  3
8  17  3

$$$$

