442077
  -OEChem-07051212562D

 45 47  0     1  0  0  0  0  0999 V2000
   10.5989    0.4678    0.0000 O   0  0  0  0  0  0  0  0  0  0  0  0
    4.3213    0.0938    0.0000 O   0  0  0  0  0  0  0  0  0  0  0  0
    3.9547    1.7866    0.0000 O   0  0  0  0  0  0  0  0  0  0  0  0
    9.4377   -0.8173    0.0000 N   0  0  0  0  0  0  0  0  0  0  0  0
    8.3260    0.7201    0.0000 N   0  0  3  0  0  0  0  0  0  0  0  0
   11.1313   -1.1804    0.0000 N   0  0  0  0  0  0  0  0  0  0  0  0
    2.6720    0.6227    0.0000 N   0  0  0  0  0  0  0  0  0  0  0  0
    7.8260   -0.8187    0.0000 C   0  0  1  0  0  0  0  0  0  0  0  0
    8.6350   -0.2309    0.0000 C   0  0  2  0  0  0  0  0  0  0  0  0
    8.1357   -1.7634    0.0000 C   0  0  0  0  0  0  0  0  0  0  0  0
    7.0170   -0.2309    0.0000 C   0  0  0  0  0  0  0  0  0  0  0  0
    9.1297   -1.7625    0.0000 C   0  0  0  0  0  0  0  0  0  0  0  0
    7.3260    0.7201    0.0000 C   0  0  0  0  0  0  0  0  0  0  0  0
    7.0170   -1.4065    0.0000 C   0  0  0  0  0  0  0  0  0  0  0  0
    6.0016   -0.4632    0.0000 C   0  0  0  0  0  0  0  0  0  0  0  0
    8.9138    1.5291    0.0000 C   0  0  0  0  0  0  0  0  0  0  0  0
   10.3893   -0.5100    0.0000 C   0  0  0  0  0  0  0  0  0  0  0  0
    6.6410    1.5048    0.0000 C   0  0  0  0  0  0  0  0  0  0  0  0
    5.2987    0.3055    0.0000 C   0  0  0  0  0  0  0  0  0  0  0  0
    5.6205    1.2961    0.0000 C   0  0  0  0  0  0  0  0  0  0  0  0
   12.0829   -0.8730    0.0000 C   0  0  0  0  0  0  0  0  0  0  0  0
    3.6493    0.8344    0.0000 C   0  0  0  0  0  0  0  0  0  0  0  0
    2.0000    1.3632    0.0000 C   0  0  0  0  0  0  0  0  0  0  0  0
    9.3234    0.2678    0.0000 H   0  0  0  0  0  0  0  0  0  0  0  0
    7.5295   -1.8935    0.0000 H   0  0  0  0  0  0  0  0  0  0  0  0
    8.2014   -2.3799    0.0000 H   0  0  0  0  0  0  0  0  0  0  0  0
    9.0651   -2.3791    0.0000 H   0  0  0  0  0  0  0  0  0  0  0  0
    9.7362   -1.8916    0.0000 H   0  0  0  0  0  0  0  0  0  0  0  0
    6.6526   -0.9049    0.0000 H   0  0  0  0  0  0  0  0  0  0  0  0
    6.5154   -1.7709    0.0000 H   0  0  0  0  0  0  0  0  0  0  0  0
    7.3814   -1.9081    0.0000 H   0  0  0  0  0  0  0  0  0  0  0  0
    5.8168   -1.0550    0.0000 H   0  0  0  0  0  0  0  0  0  0  0  0
    9.4154    1.1647    0.0000 H   0  0  0  0  0  0  0  0  0  0  0  0
    9.2782    2.0307    0.0000 H   0  0  0  0  0  0  0  0  0  0  0  0
    8.4122    1.8936    0.0000 H   0  0  0  0  0  0  0  0  0  0  0  0
    6.8394    2.0922    0.0000 H   0  0  0  0  0  0  0  0  0  0  0  0
    5.2075    1.7585    0.0000 H   0  0  0  0  0  0  0  0  0  0  0  0
   11.0014   -1.7866    0.0000 H   0  0  0  0  0  0  0  0  0  0  0  0
   12.2735   -1.4630    0.0000 H   0  0  0  0  0  0  0  0  0  0  0  0
   12.6729   -0.6824    0.0000 H   0  0  0  0  0  0  0  0  0  0  0  0
   11.8923   -0.2830    0.0000 H   0  0  0  0  0  0  0  0  0  0  0  0
    2.4827    0.0323    0.0000 H   0  0  0  0  0  0  0  0  0  0  0  0
    2.4592    1.7799    0.0000 H   0  0  0  0  0  0  0  0  0  0  0  0
    1.5834    1.8224    0.0000 H   0  0  0  0  0  0  0  0  0  0  0  0
    1.5408    0.9466    0.0000 H   0  0  0  0  0  0  0  0  0  0  0  0
  1 17  2  0  0  0  0
  2 19  1  0  0  0  0
  2 22  1  0  0  0  0
  3 22  2  0  0  0  0
  4  9  1  0  0  0  0
  4 12  1  0  0  0  0
  4 17  1  0  0  0  0
  5  9  1  0  0  0  0
  5 13  1  0  0  0  0
  5 16  1  0  0  0  0
  6 17  1  0  0  0  0
  6 21  1  0  0  0  0
  6 38  1  0  0  0  0
  7 22  1  0  0  0  0
  7 23  1  0  0  0  0
  7 42  1  0  0  0  0
  8  9  1  0  0  0  0
  8 10  1  0  0  0  0
  8 11  1  0  0  0  0
  8 14  1  6  0  0  0
  9 24  1  6  0  0  0
 10 12  1  0  0  0  0
 10 25  1  0  0  0  0
 10 26  1  0  0  0  0
 11 13  2  0  0  0  0
 11 15  1  0  0  0  0
 12 27  1  0  0  0  0
 12 28  1  0  0  0  0
 13 18  1  0  0  0  0
 14 29  1  0  0  0  0
 14 30  1  0  0  0  0
 14 31  1  0  0  0  0
 15 19  2  0  0  0  0
 15 32  1  0  0  0  0
 16 33  1  0  0  0  0
 16 34  1  0  0  0  0
 16 35  1  0  0  0  0
 18 20  2  0  0  0  0
 18 36  1  0  0  0  0
 19 20  1  0  0  0  0
 20 37  1  0  0  0  0
 21 39  1  0  0  0  0
 21 40  1  0  0  0  0
 21 41  1  0  0  0  0
 23 43  1  0  0  0  0
 23 44  1  0  0  0  0
 23 45  1  0  0  0  0
M  END
> <PUBCHEM_COMPOUND_CID>
442077

> <PUBCHEM_COMPOUND_CANONICALIZED>
1

> <PUBCHEM_CACTVS_COMPLEXITY>
500

> <PUBCHEM_CACTVS_HBOND_ACCEPTOR>
4

> <PUBCHEM_CACTVS_HBOND_DONOR>
2

> <PUBCHEM_CACTVS_ROTATABLE_BOND>
2

> <PUBCHEM_CACTVS_SUBSKEYS>
AAADceB7sAAAAAAAAAAAAAAAAAAAAWLAAAAwAAAAAAAWAFgBAAAAHgAQAAAADgzBmAQzzoPABACIAiRCWACCCAAhIgAIiIAObImMJiLEsZuMMihsxxPI6Cew0PIPgEABAAACAAAAgAIAAAQAAAAAAAAAAA==

> <PUBCHEM_IUPAC_OPENEYE_NAME>
[(3aS,8bS)-4,8b-dimethyl-3-(methylcarbamoyl)-2,3a-dihydro-1H-pyrrolo[2,3-b]indol-7-yl] N-methylcarbamate

> <PUBCHEM_IUPAC_CAS_NAME>
N-methylcarbamic acid [(3aS,8bS)-4,8b-dimethyl-3-(methylcarbamoyl)-2,3a-dihydro-1H-pyrrolo[2,3-b]indol-7-yl] ester

> <PUBCHEM_IUPAC_NAME>
[(3aS,8bS)-4,8b-dimethyl-3-(methylcarbamoyl)-2,3a-dihydro-1H-pyrrolo[2,3-b]indol-7-yl] N-methylcarbamate

> <PUBCHEM_IUPAC_SYSTEMATIC_NAME>
[(3aS,8bS)-4,8b-dimethyl-3-(methylcarbamoyl)-2,3a-dihydro-1H-pyrrolo[2,3-b]indol-7-yl] N-methylcarbamate

> <PUBCHEM_IUPAC_TRADITIONAL_NAME>
N-methylcarbamic acid [(3aS,8bS)-4,8b-dimethyl-3-(methylcarbamoyl)-2,3a-dihydro-1H-pyrrol[2,3-b]indol-7-yl] ester

> <PUBCHEM_IUPAC_INCHI>
InChI=1S/C16H22N4O3/c1-16-7-8-20(14(21)17-2)13(16)19(4)12-6-5-10(9-11(12)16)23-15(22)18-3/h5-6,9,13H,7-8H2,1-4H3,(H,17,21)(H,18,22)/t13-,16-/m0/s1

> <PUBCHEM_IUPAC_INCHIKEY>
PYEMNABYODPRPP-BBRMVZONSA-N

> <PUBCHEM_XLOGP3>
0

> <PUBCHEM_EXACT_MASS>
318.169191

> <PUBCHEM_MOLECULAR_FORMULA>
C16H22N4O3

> <PUBCHEM_MOLECULAR_WEIGHT>
318.37088

> <PUBCHEM_OPENEYE_CAN_SMILES>
CC12CCN(C1N(C3=C2C=C(C=C3)OC(=O)NC)C)C(=O)NC

> <PUBCHEM_OPENEYE_ISO_SMILES>
C[C@@]12CCN([C@@H]1N(C3=C2C=C(C=C3)OC(=O)NC)C)C(=O)NC

> <PUBCHEM_CACTVS_TPSA>
73.9

> <PUBCHEM_MONOISOTOPIC_WEIGHT>
318.169191

> <PUBCHEM_TOTAL_CHARGE>
0

> <PUBCHEM_HEAVY_ATOM_COUNT>
23

> <PUBCHEM_ATOM_DEF_STEREO_COUNT>
2

> <PUBCHEM_ATOM_UDEF_STEREO_COUNT>
0

> <PUBCHEM_BOND_DEF_STEREO_COUNT>
0

> <PUBCHEM_BOND_UDEF_STEREO_COUNT>
0

> <PUBCHEM_ISOTOPIC_ATOM_COUNT>
0

> <PUBCHEM_COMPONENT_COUNT>
1

> <PUBCHEM_CACTVS_TAUTO_COUNT>
4

> <PUBCHEM_COORDINATE_TYPE>
1
5
255

> <PUBCHEM_BONDANNOTATIONS>
11  13  8
11  15  8
13  18  8
15  19  8
18  20  8
19  20  8
8  14  6
9  24  6

$$$$

