11073781
  -OEChem-07051213103D

 26 25  0     0  0  0  0  0  0999 V2000
   -3.5043    1.8217    0.0619 O   0  0  0  0  0  0  0  0  0  0  0  0
    3.1718    2.3995   -0.3167 O   0  0  0  0  0  0  0  0  0  0  0  0
    0.9439   -1.9140   -0.7778 C   0  0  0  0  0  0  0  0  0  0  0  0
   -0.5281   -2.0706   -0.3733 C   0  0  0  0  0  0  0  0  0  0  0  0
    1.6697   -0.8135   -0.0302 C   0  0  0  0  0  0  0  0  0  0  0  0
   -1.3628   -0.8762   -0.7481 C   0  0  0  0  0  0  0  0  0  0  0  0
    2.2645   -1.2328    1.2913 C   0  0  0  0  0  0  0  0  0  0  0  0
   -2.0728   -0.0906    0.0791 C   0  0  0  0  0  0  0  0  0  0  0  0
    1.8403    0.4505   -0.4579 C   0  0  0  0  0  0  0  0  0  0  0  0
   -2.1887   -0.2018    1.5660 C   0  0  0  0  0  0  0  0  0  0  0  0
   -2.8151    1.0270   -0.5670 C   0  0  0  0  0  0  0  0  0  0  0  0
    2.5815    1.5009    0.2726 C   0  0  0  0  0  0  0  0  0  0  0  0
    1.0012   -1.7115   -1.8560 H   0  0  0  0  0  0  0  0  0  0  0  0
    1.4658   -2.8680   -0.6343 H   0  0  0  0  0  0  0  0  0  0  0  0
   -0.9399   -2.9395   -0.9021 H   0  0  0  0  0  0  0  0  0  0  0  0
   -0.5919   -2.3096    0.6919 H   0  0  0  0  0  0  0  0  0  0  0  0
   -1.3780   -0.6687   -1.8177 H   0  0  0  0  0  0  0  0  0  0  0  0
    1.4950   -1.2201    2.0699 H   0  0  0  0  0  0  0  0  0  0  0  0
    3.1081   -0.6205    1.6195 H   0  0  0  0  0  0  0  0  0  0  0  0
    2.6570   -2.2539    1.2236 H   0  0  0  0  0  0  0  0  0  0  0  0
    1.4673    0.7406   -1.4362 H   0  0  0  0  0  0  0  0  0  0  0  0
   -1.8846    0.7373    2.0409 H   0  0  0  0  0  0  0  0  0  0  0  0
   -3.2256   -0.4104    1.8497 H   0  0  0  0  0  0  0  0  0  0  0  0
   -1.5657   -0.9904    1.9927 H   0  0  0  0  0  0  0  0  0  0  0  0
   -2.7146    1.1077   -1.6626 H   0  0  0  0  0  0  0  0  0  0  0  0
    2.5890    1.4294    1.3710 H   0  0  0  0  0  0  0  0  0  0  0  0
  1 11  2  0  0  0  0
  2 12  2  0  0  0  0
  3  4  1  0  0  0  0
  3  5  1  0  0  0  0
  3 13  1  0  0  0  0
  3 14  1  0  0  0  0
  4  6  1  0  0  0  0
  4 15  1  0  0  0  0
  4 16  1  0  0  0  0
  5  7  1  0  0  0  0
  5  9  2  0  0  0  0
  6  8  2  0  0  0  0
  6 17  1  0  0  0  0
  7 18  1  0  0  0  0
  7 19  1  0  0  0  0
  7 20  1  0  0  0  0
  8 10  1  0  0  0  0
  8 11  1  0  0  0  0
  9 12  1  0  0  0  0
  9 21  1  0  0  0  0
 10 22  1  0  0  0  0
 10 23  1  0  0  0  0
 10 24  1  0  0  0  0
 11 25  1  0  0  0  0
 12 26  1  0  0  0  0
M  END
> <PUBCHEM_COMPOUND_CID>
11073781

> <PUBCHEM_CONFORMER_RMSD>
0.6

> <PUBCHEM_CONFORMER_DIVERSEORDER>
1
28
82
2
21
44
56
33
31
55
8
42
18
64
71
40
49
43
93
76
95
48
4
36
14
54
98
25
9
74
3
20
60
92
13
6
100
87
77
24
94
58
46
70
7
29
52
35
84
67
57
96
11
89
68
63
97
47
45
75
83
85
19
37
65
30
34
50
23
17
16
91
62
12
78
15
66
41
80
38
90
39
79
27
73
32
86
26
53
5
72
61
81
10
22
88
51
59
99
69

> <PUBCHEM_MMFF94_PARTIAL_CHARGES>
16
1 -0.57
10 0.14
11 0.5
12 0.5
17 0.15
2 -0.57
21 0.15
25 0.06
26 0.06
3 0.14
4 0.14
5 -0.28
6 -0.29
7 0.14
8 -0.12
9 -0.14

> <PUBCHEM_EFFECTIVE_ROTOR_COUNT>
5

> <PUBCHEM_PHARMACOPHORE_FEATURES>
5
1 1 acceptor
1 10 hydrophobe
1 2 acceptor
1 7 hydrophobe
4 3 4 5 6 hydrophobe

> <PUBCHEM_HEAVY_ATOM_COUNT>
12

> <PUBCHEM_ATOM_DEF_STEREO_COUNT>
0

> <PUBCHEM_ATOM_UDEF_STEREO_COUNT>
0

> <PUBCHEM_BOND_DEF_STEREO_COUNT>
2

> <PUBCHEM_BOND_UDEF_STEREO_COUNT>
0

> <PUBCHEM_ISOTOPIC_ATOM_COUNT>
0

> <PUBCHEM_COMPONENT_COUNT>
1

> <PUBCHEM_CACTVS_TAUTO_COUNT>
1

> <PUBCHEM_CONFORMER_ID>
00A8F8F500000001

> <PUBCHEM_MMFF94_ENERGY>
14.7724

> <PUBCHEM_FEATURE_SELFOVERLAP>
25.377

> <PUBCHEM_SHAPE_FINGERPRINT>
10149128 76 18409450284368155965
13618510 140 18408039623792812909
14026960 21 18411973672639793017
14123255 52 18336546019201207164
14648413 74 18409723001996708094
15775835 57 18337389331623714816
20233049 118 18198332060692720830
20653085 51 18334573590062119351
20671657 1 18336546130854403006
21130352 189 17976820109853972158
21524375 3 18261673654026727350
22096605 113 18337113462111945669
230 275 17895477036961061426
23419403 2 7334362200951926458
23532345 11 16558453224258876425
305870 269 18342743970910829642
5262128 65 14273464664599662899

> <PUBCHEM_SHAPE_MULTIPOLES>
235.22
5.32
2.42
1.14
1.25
0.47
-0.43
3.85
-0.48
-1.14
0.4
0.17
-0.29
-0.25

> <PUBCHEM_SHAPE_SELFOVERLAP>
446.176

> <PUBCHEM_SHAPE_VOLUME>
144.7

> <PUBCHEM_COORDINATE_TYPE>
2
5
10

$$$$

