12516
  -OEChem-06261207023D

 21 20  0     0  0  0  0  0  0999 V2000
    1.4481    0.4435   -0.0121 O   0  0  0  0  0  0  0  0  0  0  0  0
    0.3317   -1.5451   -0.3642 O   0  0  0  0  0  0  0  0  0  0  0  0
   -2.0830    0.2323    0.0462 C   0  0  0  0  0  0  0  0  0  0  0  0
    2.6947   -0.2569    0.0560 C   0  0  0  0  0  0  0  0  0  0  0  0
   -0.8235    0.5695   -0.2850 C   0  0  0  0  0  0  0  0  0  0  0  0
   -3.1836    1.2567   -0.0618 C   0  0  0  0  0  0  0  0  0  0  0  0
   -2.5430   -1.1068    0.5507 C   0  0  0  0  0  0  0  0  0  0  0  0
    0.3507   -0.3334   -0.2271 C   0  0  0  0  0  0  0  0  0  0  0  0
    3.8079    0.7402    0.2973 C   0  0  0  0  0  0  0  0  0  0  0  0
    2.6619   -0.9815    0.8773 H   0  0  0  0  0  0  0  0  0  0  0  0
    2.8688   -0.7849   -0.8882 H   0  0  0  0  0  0  0  0  0  0  0  0
   -0.6100    1.5867   -0.6063 H   0  0  0  0  0  0  0  0  0  0  0  0
   -3.9657    0.9005   -0.7403 H   0  0  0  0  0  0  0  0  0  0  0  0
   -2.8248    2.2176   -0.4459 H   0  0  0  0  0  0  0  0  0  0  0  0
   -3.6312    1.4386    0.9208 H   0  0  0  0  0  0  0  0  0  0  0  0
   -1.7251   -1.7668    0.8456 H   0  0  0  0  0  0  0  0  0  0  0  0
   -3.1355   -1.6149   -0.2168 H   0  0  0  0  0  0  0  0  0  0  0  0
   -3.1710   -0.9787    1.4394 H   0  0  0  0  0  0  0  0  0  0  0  0
    4.7774    0.2376    0.3550 H   0  0  0  0  0  0  0  0  0  0  0  0
    3.8415    1.4824   -0.5070 H   0  0  0  0  0  0  0  0  0  0  0  0
    3.6381    1.2891    1.2295 H   0  0  0  0  0  0  0  0  0  0  0  0
  1  4  1  0  0  0  0
  1  8  1  0  0  0  0
  2  8  2  0  0  0  0
  3  5  2  0  0  0  0
  3  6  1  0  0  0  0
  3  7  1  0  0  0  0
  4  9  1  0  0  0  0
  4 10  1  0  0  0  0
  4 11  1  0  0  0  0
  5  8  1  0  0  0  0
  5 12  1  0  0  0  0
  6 13  1  0  0  0  0
  6 14  1  0  0  0  0
  6 15  1  0  0  0  0
  7 16  1  0  0  0  0
  7 17  1  0  0  0  0
  7 18  1  0  0  0  0
  9 19  1  0  0  0  0
  9 20  1  0  0  0  0
  9 21  1  0  0  0  0
M  END
> <PUBCHEM_COMPOUND_CID>
12516

> <PUBCHEM_CONFORMER_RMSD>
0.6

> <PUBCHEM_CONFORMER_DIVERSEORDER>
1
15
10
9
14
3
4
13
2
5
16
7
6
8
11
12

> <PUBCHEM_MMFF94_PARTIAL_CHARGES>
9
1 -0.43
12 0.15
2 -0.57
3 -0.28
4 0.28
5 -0.14
6 0.14
7 0.14
8 0.71

> <PUBCHEM_EFFECTIVE_ROTOR_COUNT>
3

> <PUBCHEM_PHARMACOPHORE_FEATURES>
2
1 2 acceptor
3 3 6 7 hydrophobe

> <PUBCHEM_HEAVY_ATOM_COUNT>
9

> <PUBCHEM_ATOM_DEF_STEREO_COUNT>
0

> <PUBCHEM_ATOM_UDEF_STEREO_COUNT>
0

> <PUBCHEM_BOND_DEF_STEREO_COUNT>
0

> <PUBCHEM_BOND_UDEF_STEREO_COUNT>
0

> <PUBCHEM_ISOTOPIC_ATOM_COUNT>
0

> <PUBCHEM_COMPONENT_COUNT>
1

> <PUBCHEM_CACTVS_TAUTO_COUNT>
1

> <PUBCHEM_CONFORMER_ID>
000030E400000001

> <PUBCHEM_MMFF94_ENERGY>
12.1723

> <PUBCHEM_FEATURE_SELFOVERLAP>
10.148

> <PUBCHEM_SHAPE_FINGERPRINT>
10857977 72 18341334400845268609
11062470 55 17275106141246329133
12932764 1 17385449799678780838
14325111 11 18409730664302207870
14390081 3 18260548965247778185
20645464 45 18339355361867770911
23235685 24 18410299141783775457
23402539 116 18202294597857470981
3248919 1 17131827651412261146

> <PUBCHEM_SHAPE_MULTIPOLES>
173.48
5.94
1.28
0.67
3.13
0.21
-0.02
-1.73
-0.89
-0.64
0.01
-0.05
0.04
0.32

> <PUBCHEM_SHAPE_SELFOVERLAP>
321.244

> <PUBCHEM_SHAPE_VOLUME>
110

> <PUBCHEM_COORDINATE_TYPE>
2
5
10

$$$$

