17395361
  -OEChem-06241222493D

 34 36  0     0  0  0  0  0  0999 V2000
   -4.3786   -1.0942   -0.9692 S   0  0  0  0  0  0  0  0  0  0  0  0
    2.3557    2.1445   -1.5329 O   0  5  0  0  0  0  0  0  0  0  0  0
    2.2953    2.5534    0.6230 O   0  0  0  0  0  0  0  0  0  0  0  0
    0.6772   -0.3678    0.0133 N   0  0  0  0  0  0  0  0  0  0  0  0
   -2.1143   -0.0134   -0.0462 N   0  0  0  0  0  0  0  0  0  0  0  0
   -4.1881    0.7320    0.8505 N   0  0  0  0  0  0  0  0  0  0  0  0
    2.5158    1.7859   -0.3428 N   0  3  0  0  0  0  0  0  0  0  0  0
   -0.1144   -1.0774   -0.9968 C   0  0  0  0  0  0  0  0  0  0  0  0
   -0.0349   -0.0273    1.2523 C   0  0  0  0  0  0  0  0  0  0  0  0
   -1.4150   -0.3265   -1.2934 C   0  0  0  0  0  0  0  0  0  0  0  0
   -1.3171    0.7362    0.9292 C   0  0  0  0  0  0  0  0  0  0  0  0
    2.0567   -0.5857    0.0938 C   0  0  0  0  0  0  0  0  0  0  0  0
   -3.4880   -0.0277    0.0377 C   0  0  0  0  0  0  0  0  0  0  0  0
    2.9629    0.4607   -0.0790 C   0  0  0  0  0  0  0  0  0  0  0  0
    2.5216   -1.8752    0.3519 C   0  0  0  0  0  0  0  0  0  0  0  0
    4.3337    0.2173    0.0064 C   0  0  0  0  0  0  0  0  0  0  0  0
    3.8924   -2.1185    0.4372 C   0  0  0  0  0  0  0  0  0  0  0  0
    4.7985   -1.0723    0.2644 C   0  0  0  0  0  0  0  0  0  0  0  0
   -5.8291   -0.5025   -0.2713 C   0  0  0  0  0  0  0  0  0  0  0  0
   -5.5303    0.4583    0.6719 C   0  0  0  0  0  0  0  0  0  0  0  0
   -0.3446   -2.0883   -0.6377 H   0  0  0  0  0  0  0  0  0  0  0  0
    0.4549   -1.1764   -1.9293 H   0  0  0  0  0  0  0  0  0  0  0  0
    0.5888    0.5906    1.9092 H   0  0  0  0  0  0  0  0  0  0  0  0
   -0.2715   -0.9503    1.7970 H   0  0  0  0  0  0  0  0  0  0  0  0
   -1.1842    0.6155   -1.8082 H   0  0  0  0  0  0  0  0  0  0  0  0
   -1.9882   -0.9324   -2.0003 H   0  0  0  0  0  0  0  0  0  0  0  0
   -1.8669    0.8958    1.8644 H   0  0  0  0  0  0  0  0  0  0  0  0
   -1.0781    1.7243    0.5164 H   0  0  0  0  0  0  0  0  0  0  0  0
    1.8308   -2.7022    0.4955 H   0  0  0  0  0  0  0  0  0  0  0  0
    5.0523    1.0226   -0.1257 H   0  0  0  0  0  0  0  0  0  0  0  0
    4.2545   -3.1222    0.6397 H   0  0  0  0  0  0  0  0  0  0  0  0
    5.8659   -1.2618    0.3313 H   0  0  0  0  0  0  0  0  0  0  0  0
   -6.7983   -0.8726   -0.5735 H   0  0  0  0  0  0  0  0  0  0  0  0
   -6.2606    0.9946    1.2626 H   0  0  0  0  0  0  0  0  0  0  0  0
  1 13  1  0  0  0  0
  1 19  1  0  0  0  0
  2  7  1  0  0  0  0
  3  7  2  0  0  0  0
  4  8  1  0  0  0  0
  4  9  1  0  0  0  0
  4 12  1  0  0  0  0
  5 10  1  0  0  0  0
  5 11  1  0  0  0  0
  5 13  1  0  0  0  0
  6 13  2  0  0  0  0
  6 20  1  0  0  0  0
  7 14  1  0  0  0  0
  8 10  1  0  0  0  0
  8 21  1  0  0  0  0
  8 22  1  0  0  0  0
  9 11  1  0  0  0  0
  9 23  1  0  0  0  0
  9 24  1  0  0  0  0
 10 25  1  0  0  0  0
 10 26  1  0  0  0  0
 11 27  1  0  0  0  0
 11 28  1  0  0  0  0
 12 14  1  0  0  0  0
 12 15  2  0  0  0  0
 14 16  2  0  0  0  0
 15 17  1  0  0  0  0
 15 29  1  0  0  0  0
 16 18  1  0  0  0  0
 16 30  1  0  0  0  0
 17 18  2  0  0  0  0
 17 31  1  0  0  0  0
 18 32  1  0  0  0  0
 19 20  2  0  0  0  0
 19 33  1  0  0  0  0
 20 34  1  0  0  0  0
M  CHG  2   2  -1   7   1
M  END
> <PUBCHEM_COMPOUND_CID>
17395361

> <PUBCHEM_CONFORMER_RMSD>
0.6

> <PUBCHEM_CONFORMER_DIVERSEORDER>
1
19
18
52
49
51
50
43
31
48
41
26
22
45
27
40
13
44
55
34
14
47
7
42
20
39
56
38
25
17
10
57
54
24
36
46
30
33
8
53
29
35
23
37
6
11
9
4
21
15
3
32
5
16
12
28
2

> <PUBCHEM_MMFF94_PARTIAL_CHARGES>
26
1 -0.08
10 0.37
11 0.37
12 0.1
13 0.46
14 0.13
15 -0.15
16 -0.15
17 -0.15
18 -0.15
19 -0.11
2 -0.52
20 0.08
29 0.15
3 -0.52
30 0.15
31 0.15
32 0.15
33 0.15
34 0.15
4 -0.84
5 -0.82
6 -0.57
7 0.91
8 0.37
9 0.37

> <PUBCHEM_EFFECTIVE_ROTOR_COUNT>
4.2

> <PUBCHEM_PHARMACOPHORE_FEATURES>
8
1 2 acceptor
1 2 anion
1 3 acceptor
1 4 cation
3 5 6 13 cation
5 1 6 13 19 20 rings
6 12 14 15 16 17 18 rings
6 4 5 8 9 10 11 rings

> <PUBCHEM_HEAVY_ATOM_COUNT>
20

> <PUBCHEM_ATOM_DEF_STEREO_COUNT>
0

> <PUBCHEM_ATOM_UDEF_STEREO_COUNT>
0

> <PUBCHEM_BOND_DEF_STEREO_COUNT>
0

> <PUBCHEM_BOND_UDEF_STEREO_COUNT>
0

> <PUBCHEM_ISOTOPIC_ATOM_COUNT>
0

> <PUBCHEM_COMPONENT_COUNT>
1

> <PUBCHEM_CACTVS_TAUTO_COUNT>
1

> <PUBCHEM_CONFORMER_ID>
01096EA100000001

> <PUBCHEM_MMFF94_ENERGY>
74.5649

> <PUBCHEM_FEATURE_SELFOVERLAP>
40.676

> <PUBCHEM_SHAPE_FINGERPRINT>
10062212 137 17894919512036502023
10354089 29 18409165519589012178
10366900 7 17275100664946664667
10688039 33 17988643042476325260
10937287 8 17265518159313758644
11045977 3 18131345289722918723
11405975 8 18343299237004429859
12107183 9 17614841146979222875
12236239 1 18113618997535165058
12616971 3 18261109669434197327
12788726 201 17023450984927801745
12916748 109 14923940150740248411
13167823 11 18408325480121514095
13760787 5 18333739009439493151
14115302 16 18040436564257516446
14341114 176 18412539937933368459
14863182 85 17240478147995942878
15788980 27 18412826902247477059
15848702 151 18272652372124359743
17349148 13 17821728351342953719
17834072 33 18408888404420942367
17844677 252 18272928350001925877
17980427 23 16154863179190650024
1813 80 18265325291320151462
18186145 218 17775008977086848035
19050596 39 18333731317000175919
19784866 9 17968095365039481731
200 152 18409731780930589915
20612939 158 18342174444877337461
20645477 70 18343582975249797578
21033648 29 17489321775783632725
21267235 1 18335697299899845622
21709351 56 18409736192130931029
23402539 116 18411704322350289277
23557571 272 15792001329019995120
23559900 14 18060415785534387962
3004659 81 18259702315376880887
3286 77 18201721790247255982
3411729 13 16154856530359314888
4214541 1 18408886274143374945
465052 167 18407755949856254247
474 4 18128535968377911580
5104073 3 18114462271714892243
5281201 14 18060140959436154973
633830 44 17346885524788646613
8272917 22 18410288146667803142
9981440 41 17471306054377173416

> <PUBCHEM_SHAPE_MULTIPOLES>
383.78
11.81
1.89
1.11
10.64
0.6
0.17
-1.96
-0.79
-2.34
0.13
0.29
0.16
-1.29

> <PUBCHEM_SHAPE_SELFOVERLAP>
809.61

> <PUBCHEM_SHAPE_VOLUME>
217.4

> <PUBCHEM_COORDINATE_TYPE>
2
5
10

$$$$

