46173726
  -OEChem-07051212492D

 29 29  0     1  0  0  0  0  0999 V2000
    8.5022   -0.5349    0.0000 P   0  0  0  0  0  0  0  0  0  0  0  0
    3.0800    1.4213    0.0000 P   0  0  0  0  0  0  0  0  0  0  0  0
    5.9990    0.4129    0.0000 O   0  0  0  0  0  0  0  0  0  0  0  0
    7.7591    0.1342    0.0000 O   0  0  0  0  0  0  0  0  0  0  0  0
    4.9112   -1.9349    0.0000 O   0  0  0  0  0  0  0  0  0  0  0  0
    4.0310    1.1123    0.0000 O   0  0  0  0  0  0  0  0  0  0  0  0
    9.2454   -1.2041    0.0000 O   0  0  0  0  0  0  0  0  0  0  0  0
    9.1714    0.2082    0.0000 O   0  0  0  0  0  0  0  0  0  0  0  0
    7.8331   -1.2781    0.0000 O   0  0  0  0  0  0  0  0  0  0  0  0
    2.1289    1.7304    0.0000 O   0  0  0  0  0  0  0  0  0  0  0  0
    3.3890    2.3724    0.0000 O   0  0  0  0  0  0  0  0  0  0  0  0
    2.7709    0.4703    0.0000 O   0  0  0  0  0  0  0  0  0  0  0  0
    5.4990   -1.1259    0.0000 C   0  0  2  0  0  0  0  0  0  0  0  0
    5.1900   -0.1748    0.0000 C   0  0  1  0  0  0  0  0  0  0  0  0
    6.4990   -1.1259    0.0000 C   0  0  0  0  0  0  0  0  0  0  0  0
    6.8080   -0.1748    0.0000 C   0  0  2  0  0  0  0  0  0  0  0  0
    4.2389    0.1342    0.0000 C   0  0  0  0  0  0  0  0  0  0  0  0
    5.0930    0.4375    0.0000 H   0  0  0  0  0  0  0  0  0  0  0  0
    4.8866   -1.0289    0.0000 H   0  0  0  0  0  0  0  0  0  0  0  0
    6.4342   -1.7425    0.0000 H   0  0  0  0  0  0  0  0  0  0  0  0
    7.1054   -1.2548    0.0000 H   0  0  0  0  0  0  0  0  0  0  0  0
    7.2464   -0.6132    0.0000 H   0  0  0  0  0  0  0  0  0  0  0  0
    3.6193    0.1125    0.0000 H   0  0  0  0  0  0  0  0  0  0  0  0
    4.1526   -0.4798    0.0000 H   0  0  0  0  0  0  0  0  0  0  0  0
    5.1634   -2.5013    0.0000 H   0  0  0  0  0  0  0  0  0  0  0  0
    9.8350   -1.0125    0.0000 H   0  0  0  0  0  0  0  0  0  0  0  0
    8.9798    0.7978    0.0000 H   0  0  0  0  0  0  0  0  0  0  0  0
    2.0000    2.3368    0.0000 H   0  0  0  0  0  0  0  0  0  0  0  0
    3.9954    2.5013    0.0000 H   0  0  0  0  0  0  0  0  0  0  0  0
  1  4  1  0  0  0  0
  1  7  1  0  0  0  0
  1  8  1  0  0  0  0
  1  9  2  0  0  0  0
  2  6  1  0  0  0  0
  2 10  1  0  0  0  0
  2 11  1  0  0  0  0
  2 12  2  0  0  0  0
  3 14  1  0  0  0  0
  3 16  1  0  0  0  0
 16  4  1  6  0  0  0
 13  5  1  6  0  0  0
  5 25  1  0  0  0  0
  6 17  1  0  0  0  0
  7 26  1  0  0  0  0
  8 27  1  0  0  0  0
 10 28  1  0  0  0  0
 11 29  1  0  0  0  0
 13 14  1  0  0  0  0
 13 15  1  0  0  0  0
 13 19  1  0  0  0  0
 14 17  1  1  0  0  0
 14 18  1  0  0  0  0
 15 16  1  0  0  0  0
 15 20  1  0  0  0  0
 15 21  1  0  0  0  0
 16 22  1  0  0  0  0
 17 23  1  0  0  0  0
 17 24  1  0  0  0  0
M  END
> <PUBCHEM_COMPOUND_CID>
46173726

> <PUBCHEM_COMPOUND_CANONICALIZED>
1

> <PUBCHEM_CACTVS_COMPLEXITY>
345

> <PUBCHEM_CACTVS_HBOND_ACCEPTOR>
10

> <PUBCHEM_CACTVS_HBOND_DONOR>
5

> <PUBCHEM_CACTVS_ROTATABLE_BOND>
5

> <PUBCHEM_CACTVS_SUBSKEYS>
AAADccBgPAMAAAAAAAAAAAAAAAAAASAAAAAAAAAAAAAAAAAAAAAAGgAACCAACBSwgAMACAAABxAAQAAAAIAAAAAAAAAAAAAAAAAREAIAAAACQAAFAAAHAADAIAAAAAAAAAAAAAAAAAAAAAAAAAAAAAAAAA==

> <PUBCHEM_IUPAC_OPENEYE_NAME>
[(2R,4S,5R)-4-hydroxy-5-(phosphonooxymethyl)tetrahydrofuran-2-yl] dihydrogen phosphate

> <PUBCHEM_IUPAC_CAS_NAME>
[(2R,4S,5R)-4-hydroxy-5-(phosphonooxymethyl)-2-oxolanyl] dihydrogen phosphate

> <PUBCHEM_IUPAC_NAME>
[(2R,4S,5R)-4-hydroxy-5-(phosphonooxymethyl)oxolan-2-yl] dihydrogen phosphate

> <PUBCHEM_IUPAC_SYSTEMATIC_NAME>
[(2R,4S,5R)-4-oxidanyl-5-(phosphonooxymethyl)oxolan-2-yl] dihydrogen phosphate

> <PUBCHEM_IUPAC_TRADITIONAL_NAME>
[(2R,4S,5R)-4-hydroxy-5-(phosphonooxymethyl)tetrahydrofuran-2-yl] dihydrogen phosphate

> <PUBCHEM_IUPAC_INCHI>
InChI=1S/C5H12O10P2/c6-3-1-5(15-17(10,11)12)14-4(3)2-13-16(7,8)9/h3-6H,1-2H2,(H2,7,8,9)(H2,10,11,12)/t3-,4+,5+/m0/s1

> <PUBCHEM_IUPAC_INCHIKEY>
GBXLSZYXQQKEER-VPENINKCSA-N

> <PUBCHEM_XLOGP3_AA>
-3.7

> <PUBCHEM_EXACT_MASS>
293.99057

> <PUBCHEM_MOLECULAR_FORMULA>
C5H12O10P2

> <PUBCHEM_MOLECULAR_WEIGHT>
294.090304

> <PUBCHEM_OPENEYE_CAN_SMILES>
C1C(C(OC1OP(=O)(O)O)COP(=O)(O)O)O

> <PUBCHEM_OPENEYE_ISO_SMILES>
C1[C@@H]([C@H](O[C@@H]1OP(=O)(O)O)COP(=O)(O)O)O

> <PUBCHEM_CACTVS_TPSA>
163

> <PUBCHEM_MONOISOTOPIC_WEIGHT>
293.99057

> <PUBCHEM_TOTAL_CHARGE>
0

> <PUBCHEM_HEAVY_ATOM_COUNT>
17

> <PUBCHEM_ATOM_DEF_STEREO_COUNT>
3

> <PUBCHEM_ATOM_UDEF_STEREO_COUNT>
0

> <PUBCHEM_BOND_DEF_STEREO_COUNT>
0

> <PUBCHEM_BOND_UDEF_STEREO_COUNT>
0

> <PUBCHEM_ISOTOPIC_ATOM_COUNT>
0

> <PUBCHEM_COMPONENT_COUNT>
1

> <PUBCHEM_CACTVS_TAUTO_COUNT>
1

> <PUBCHEM_COORDINATE_TYPE>
1
5
255

> <PUBCHEM_BONDANNOTATIONS>
14  17  5
16  4  6
13  5  6

$$$$

