56928133
  -OEChem-07051213153D

 56 58  0     1  0  0  0  0  0999 V2000
   -5.5775   -0.3327   -0.4498 S   0  0  0  0  0  0  0  0  0  0  0  0
   -1.3857   -0.0500   -0.6505 O   0  0  0  0  0  0  0  0  0  0  0  0
   -1.1266   -0.6747    1.6211 O   0  0  0  0  0  0  0  0  0  0  0  0
    0.9830   -2.2994    0.5231 O   0  0  0  0  0  0  0  0  0  0  0  0
   -5.4349    1.8731    0.9924 O   0  0  0  0  0  0  0  0  0  0  0  0
    2.8054   -3.3477   -0.4452 O   0  0  0  0  0  0  0  0  0  0  0  0
   -3.6109    0.4188    1.0121 N   0  0  0  0  0  0  0  0  0  0  0  0
   -1.7192   -1.0074    0.3638 C   0  0  2  0  0  0  0  0  0  0  0  0
   -0.0087   -0.0787   -1.0388 C   0  0  1  0  0  0  0  0  0  0  0  0
   -1.3467   -2.4432   -0.0658 C   0  0  0  0  0  0  0  0  0  0  0  0
    0.0924   -2.5425   -0.5862 C   0  0  1  0  0  0  0  0  0  0  0  0
    0.3133   -1.4516   -1.6439 C   0  0  0  0  0  0  0  0  0  0  0  0
   -3.2221   -0.9053    0.5727 C   0  0  2  0  0  0  0  0  0  0  0  0
    0.2561    1.0534   -2.0366 C   0  0  0  0  0  0  0  0  0  0  0  0
   -4.0015   -1.2002   -0.7018 C   0  0  0  0  0  0  0  0  0  0  0  0
   -0.0249    2.4555   -1.4692 C   0  0  0  0  0  0  0  0  0  0  0  0
    0.8444    2.8798   -0.2620 C   0  0  2  0  0  0  0  0  0  0  0  0
   -4.8665    0.8493    0.6444 C   0  0  0  0  0  0  0  0  0  0  0  0
    0.3729    4.2464    0.2486 C   0  0  0  0  0  0  0  0  0  0  0  0
    2.3094    2.9743   -0.6188 C   0  0  0  0  0  0  0  0  0  0  0  0
    2.3029   -2.5520    0.3283 C   0  0  0  0  0  0  0  0  0  0  0  0
    3.3663    2.5198    0.0749 C   0  0  0  0  0  0  0  0  0  0  0  0
    3.0194   -1.5443    1.1354 C   0  0  0  0  0  0  0  0  0  0  0  0
    3.3739    1.7821    1.3846 C   0  0  0  0  0  0  0  0  0  0  0  0
    4.3020    0.5522    1.3997 C   0  0  0  0  0  0  0  0  0  0  0  0
    3.7925   -0.6037    0.5599 C   0  0  0  0  0  0  0  0  0  0  0  0
    4.1915   -0.5713   -0.8924 C   0  0  0  0  0  0  0  0  0  0  0  0
    0.6133    0.0909   -0.1543 H   0  0  0  0  0  0  0  0  0  0  0  0
   -1.4716   -3.1225    0.7862 H   0  0  0  0  0  0  0  0  0  0  0  0
   -1.9919   -2.7894   -0.8799 H   0  0  0  0  0  0  0  0  0  0  0  0
    0.2757   -3.5427   -0.9954 H   0  0  0  0  0  0  0  0  0  0  0  0
   -0.3413   -1.6482   -2.5019 H   0  0  0  0  0  0  0  0  0  0  0  0
    1.3486   -1.4640   -2.0007 H   0  0  0  0  0  0  0  0  0  0  0  0
   -3.5384   -1.5870    1.3750 H   0  0  0  0  0  0  0  0  0  0  0  0
   -0.3951    0.9180   -2.9099 H   0  0  0  0  0  0  0  0  0  0  0  0
    1.2894    1.0004   -2.3978 H   0  0  0  0  0  0  0  0  0  0  0  0
   -3.5377   -0.7874   -1.6025 H   0  0  0  0  0  0  0  0  0  0  0  0
   -4.1803   -2.2686   -0.8496 H   0  0  0  0  0  0  0  0  0  0  0  0
    0.1065    3.1813   -2.2833 H   0  0  0  0  0  0  0  0  0  0  0  0
   -1.0836    2.5134   -1.1845 H   0  0  0  0  0  0  0  0  0  0  0  0
   -3.0665    0.9629    1.6737 H   0  0  0  0  0  0  0  0  0  0  0  0
   -1.7756   -0.2573    2.2074 H   0  0  0  0  0  0  0  0  0  0  0  0
    0.6867    2.1648    0.5501 H   0  0  0  0  0  0  0  0  0  0  0  0
    0.4737    5.0212   -0.5200 H   0  0  0  0  0  0  0  0  0  0  0  0
    0.9536    4.5610    1.1231 H   0  0  0  0  0  0  0  0  0  0  0  0
   -0.6800    4.2051    0.5486 H   0  0  0  0  0  0  0  0  0  0  0  0
    2.5300    3.5101   -1.5419 H   0  0  0  0  0  0  0  0  0  0  0  0
    4.3499    2.7282   -0.3446 H   0  0  0  0  0  0  0  0  0  0  0  0
    2.7443   -1.4777    2.1839 H   0  0  0  0  0  0  0  0  0  0  0  0
    3.7346    2.4821    2.1488 H   0  0  0  0  0  0  0  0  0  0  0  0
    2.3669    1.4820    1.6905 H   0  0  0  0  0  0  0  0  0  0  0  0
    4.4077    0.2233    2.4426 H   0  0  0  0  0  0  0  0  0  0  0  0
    5.3149    0.8294    1.0811 H   0  0  0  0  0  0  0  0  0  0  0  0
    3.6261    0.1914   -1.4338 H   0  0  0  0  0  0  0  0  0  0  0  0
    4.0370   -1.5204   -1.4089 H   0  0  0  0  0  0  0  0  0  0  0  0
    5.2586   -0.3423   -0.9860 H   0  0  0  0  0  0  0  0  0  0  0  0
  1 15  1  0  0  0  0
  1 18  1  0  0  0  0
  2  8  1  0  0  0  0
  2  9  1  0  0  0  0
  3  8  1  0  0  0  0
  3 42  1  0  0  0  0
  4 11  1  0  0  0  0
  4 21  1  0  0  0  0
  5 18  2  0  0  0  0
  6 21  2  0  0  0  0
  7 13  1  0  0  0  0
  7 18  1  0  0  0  0
  7 41  1  0  0  0  0
  8 10  1  0  0  0  0
  8 13  1  0  0  0  0
  9 12  1  0  0  0  0
  9 14  1  0  0  0  0
  9 28  1  0  0  0  0
 10 11  1  0  0  0  0
 10 29  1  0  0  0  0
 10 30  1  0  0  0  0
 11 12  1  0  0  0  0
 11 31  1  0  0  0  0
 12 32  1  0  0  0  0
 12 33  1  0  0  0  0
 13 15  1  0  0  0  0
 13 34  1  0  0  0  0
 14 16  1  0  0  0  0
 14 35  1  0  0  0  0
 14 36  1  0  0  0  0
 15 37  1  0  0  0  0
 15 38  1  0  0  0  0
 16 17  1  0  0  0  0
 16 39  1  0  0  0  0
 16 40  1  0  0  0  0
 17 19  1  0  0  0  0
 17 20  1  0  0  0  0
 17 43  1  0  0  0  0
 19 44  1  0  0  0  0
 19 45  1  0  0  0  0
 19 46  1  0  0  0  0
 20 22  2  0  0  0  0
 20 47  1  0  0  0  0
 21 23  1  0  0  0  0
 22 24  1  0  0  0  0
 22 48  1  0  0  0  0
 23 26  2  0  0  0  0
 23 49  1  0  0  0  0
 24 25  1  0  0  0  0
 24 50  1  0  0  0  0
 24 51  1  0  0  0  0
 25 26  1  0  0  0  0
 25 52  1  0  0  0  0
 25 53  1  0  0  0  0
 26 27  1  0  0  0  0
 27 54  1  0  0  0  0
 27 55  1  0  0  0  0
 27 56  1  0  0  0  0
M  END
> <PUBCHEM_COMPOUND_CID>
56928133

> <PUBCHEM_CONFORMER_RMSD>
0.8

> <PUBCHEM_CONFORMER_DIVERSEORDER>
2
12
6
13
10
5
14
11
1
4
7
8
9
3

> <PUBCHEM_MMFF94_PARTIAL_CHARGES>
27
1 -0.37
11 0.28
13 0.3
15 0.23
17 0.14
18 0.77
2 -0.56
20 -0.29
21 0.71
22 -0.29
23 -0.14
24 0.14
25 0.14
26 -0.28
27 0.14
3 -0.68
4 -0.43
41 0.37
42 0.4
47 0.15
48 0.15
49 0.15
5 -0.57
6 -0.57
7 -0.73
8 0.56
9 0.28

> <PUBCHEM_EFFECTIVE_ROTOR_COUNT>
3.8

> <PUBCHEM_PHARMACOPHORE_FEATURES>
7
1 2 acceptor
1 3 acceptor
1 3 donor
1 6 acceptor
1 7 donor
5 1 7 13 15 18 rings
6 2 8 9 10 11 12 rings

> <PUBCHEM_HEAVY_ATOM_COUNT>
27

> <PUBCHEM_ATOM_DEF_STEREO_COUNT>
5

> <PUBCHEM_ATOM_UDEF_STEREO_COUNT>
0

> <PUBCHEM_BOND_DEF_STEREO_COUNT>
2

> <PUBCHEM_BOND_UDEF_STEREO_COUNT>
0

> <PUBCHEM_ISOTOPIC_ATOM_COUNT>
0

> <PUBCHEM_COMPONENT_COUNT>
1

> <PUBCHEM_CACTVS_TAUTO_COUNT>
2

> <PUBCHEM_CONFORMER_ID>
0364A78500000002

> <PUBCHEM_MMFF94_ENERGY>
60.0479

> <PUBCHEM_FEATURE_SELFOVERLAP>
35.561

> <PUBCHEM_SHAPE_FINGERPRINT>
10006869 2 18124328360653181127
10708813 3 18337106765783307552
11578080 2 5544102081666975043
12422481 6 18199766854194194192
12633257 1 17916882235136444538
13075007 39 17774425097852921273
13140716 1 18269281166784831938
13899415 154 18270382971450409958
13965767 371 18191052082778796138
14142880 1 17973469623489284906
14170010 4 18342740724284786607
14178342 30 16900191063162387508
14466204 15 18337394829383022001
14790565 3 17982725269396506524
15420108 30 18259706683727607183
15475509 84 17623013808007505642
1601671 61 18412539937922896974
17859628 37 18409446994518133198
17974551 9 18055353531053235457
17980427 23 18187088377773045047
19377110 9 18187917328237027707
19930381 70 18411709797985478234
21304253 335 18335134341134534401
23227448 37 18266746774644023682
23419403 2 17916322669590807439
23559900 14 17241313806708023503
3493558 16 17679298834930775865
35225 105 16693844058051191944
474 4 18410578340301439819
513532 50 18113327618326823790
56638632 10 18118422669021356809
6443956 14 18413386527590581116
6669772 16 17175765047060963777
7064713 232 18120388566273855792
7097593 13 18051979116998636236
81228 2 17410755278883162415
8509985 295 18410854318015683341
9981440 41 17907297650907359521

> <PUBCHEM_SHAPE_MULTIPOLES>
525.17
9.44
4.31
1.49
9.59
2.06
0.22
1.38
-3.06
-3.11
0.27
-0.32
0.23
-0.49

> <PUBCHEM_SHAPE_SELFOVERLAP>
1070.93

> <PUBCHEM_SHAPE_VOLUME>
303.8

> <PUBCHEM_COORDINATE_TYPE>
2
5
10

$$$$

