582817
  -OEChem-06241222443D

 34 34  0     0  0  0  0  0  0999 V2000
   -3.5891    1.7201    2.1412 Cl  0  0  0  0  0  0  0  0  0  0  0  0
   -6.8815   -2.0999    0.2491 Cl  0  0  0  0  0  0  0  0  0  0  0  0
   -1.9980    1.1110   -0.3350 O   0  0  0  0  0  0  0  0  0  0  0  0
    5.6250   -1.0308    0.3420 O   0  0  0  0  0  0  0  0  0  0  0  0
    0.4869    1.8778    0.3599 O   0  0  0  0  0  0  0  0  0  0  0  0
    5.3782    1.1916   -0.2219 O   0  0  0  0  0  0  0  0  0  0  0  0
    2.7547    0.8003   -0.8412 N   0  0  0  0  0  0  0  0  0  0  0  0
    1.4633    0.4313   -1.1793 N   0  0  0  0  0  0  0  0  0  0  0  0
    3.5096   -0.3604   -0.3893 C   0  0  0  0  0  0  0  0  0  0  0  0
   -0.9274    0.5023   -1.0252 C   0  0  0  0  0  0  0  0  0  0  0  0
   -3.1458    0.3705   -0.1785 C   0  0  0  0  0  0  0  0  0  0  0  0
    0.4003    1.0270   -0.5220 C   0  0  0  0  0  0  0  0  0  0  0  0
   -3.9682    0.5568    0.9251 C   0  0  0  0  0  0  0  0  0  0  0  0
   -3.4621   -0.5692   -1.1517 C   0  0  0  0  0  0  0  0  0  0  0  0
    4.9272    0.0616   -0.0932 C   0  0  0  0  0  0  0  0  0  0  0  0
    6.9992   -0.7958    0.6662 C   0  0  0  0  0  0  0  0  0  0  0  0
   -5.1262   -0.2093    1.0582 C   0  0  0  0  0  0  0  0  0  0  0  0
   -4.6200   -1.3354   -1.0186 C   0  0  0  0  0  0  0  0  0  0  0  0
   -5.4521   -1.1554    0.0864 C   0  0  0  0  0  0  0  0  0  0  0  0
    7.6260   -2.0941    1.1277 C   0  0  0  0  0  0  0  0  0  0  0  0
    3.5349   -1.1347   -1.1645 H   0  0  0  0  0  0  0  0  0  0  0  0
    3.0707   -0.7640    0.5299 H   0  0  0  0  0  0  0  0  0  0  0  0
   -0.9002   -0.5848   -0.8697 H   0  0  0  0  0  0  0  0  0  0  0  0
   -1.0050    0.7281   -2.0950 H   0  0  0  0  0  0  0  0  0  0  0  0
    3.1804    1.1756   -1.6885 H   0  0  0  0  0  0  0  0  0  0  0  0
    1.3338   -0.2532   -1.9183 H   0  0  0  0  0  0  0  0  0  0  0  0
   -2.8613   -0.7207   -2.0430 H   0  0  0  0  0  0  0  0  0  0  0  0
    7.5254   -0.4255   -0.2207 H   0  0  0  0  0  0  0  0  0  0  0  0
    7.0632   -0.0491    1.4655 H   0  0  0  0  0  0  0  0  0  0  0  0
   -5.7763   -0.0698    1.9194 H   0  0  0  0  0  0  0  0  0  0  0  0
   -4.8657   -2.0641   -1.7869 H   0  0  0  0  0  0  0  0  0  0  0  0
    8.6793   -1.9505    1.3844 H   0  0  0  0  0  0  0  0  0  0  0  0
    7.0988   -2.4864    2.0036 H   0  0  0  0  0  0  0  0  0  0  0  0
    7.5534   -2.8567    0.3452 H   0  0  0  0  0  0  0  0  0  0  0  0
  1 13  1  0  0  0  0
  2 19  1  0  0  0  0
  3 10  1  0  0  0  0
  3 11  1  0  0  0  0
  4 15  1  0  0  0  0
  4 16  1  0  0  0  0
  5 12  2  0  0  0  0
  6 15  2  0  0  0  0
  7  8  1  0  0  0  0
  7  9  1  0  0  0  0
  7 25  1  0  0  0  0
  8 12  1  0  0  0  0
  8 26  1  0  0  0  0
  9 15  1  0  0  0  0
  9 21  1  0  0  0  0
  9 22  1  0  0  0  0
 10 12  1  0  0  0  0
 10 23  1  0  0  0  0
 10 24  1  0  0  0  0
 11 13  2  0  0  0  0
 11 14  1  0  0  0  0
 13 17  1  0  0  0  0
 14 18  2  0  0  0  0
 14 27  1  0  0  0  0
 16 20  1  0  0  0  0
 16 28  1  0  0  0  0
 16 29  1  0  0  0  0
 17 19  2  0  0  0  0
 17 30  1  0  0  0  0
 18 19  1  0  0  0  0
 18 31  1  0  0  0  0
 20 32  1  0  0  0  0
 20 33  1  0  0  0  0
 20 34  1  0  0  0  0
M  END
> <PUBCHEM_COMPOUND_CID>
582817

> <PUBCHEM_CONFORMER_RMSD>
0.8

> <PUBCHEM_CONFORMER_DIVERSEORDER>
3
185
197
200
164
215
108
89
12
137
79
20
76
225
246
151
244
165
240
125
86
207
220
69
143
123
28
97
147
231
109
53
250
19
101
37
66
134
192
75
227
60
98
80
38
102
169
196
110
166
180
148
118
29
229
245
9
232
209
224
179
94
49
198
204
156
70
65
183
22
55
74
128
46
144
59
99
121
213
6
84
78
190
54
34
124
202
212
238
154
171
205
187
23
219
141
119
36
103
2
130
201
168
145
92
226
82
129
41
57
140
48
112
114
136
241
170
26
206
64
193
122
162
56
236
210
63
11
138
159
71
30
195
91
27
249
135
234
152
116
188
31
233
230
242
96
40
17
243
173
8
113
228
157
45
15
61
222
167
95
83
4
117
223
90
239
81
5
14
100
163
68
177
16
120
77
131
85
203
133
194
104
107
178
139
127
39
160
67
248
58
182
115
172
7
186
42
88
199
43
217
142
184
208
132
158
155
247
153
111
50
126
174
150
175
211
146
218
25
93
235
191
44
10
105
221
13
33
72
51
21
216
161
237
214
1
106
62
189
47
32
87
181
73
24
18
52
176
149
35

> <PUBCHEM_MMFF94_PARTIAL_CHARGES>
24
1 -0.18
10 0.34
11 0.08
12 0.57
13 0.18
14 -0.15
15 0.66
16 0.28
17 -0.15
18 -0.15
19 0.18
2 -0.18
25 0.36
26 0.37
27 0.15
3 -0.36
30 0.15
31 0.15
4 -0.43
5 -0.57
6 -0.57
7 -0.64
8 -0.42
9 0.33

> <PUBCHEM_EFFECTIVE_ROTOR_COUNT>
9

> <PUBCHEM_PHARMACOPHORE_FEATURES>
6
1 3 acceptor
1 5 acceptor
1 6 acceptor
1 7 donor
1 8 donor
6 11 13 14 17 18 19 rings

> <PUBCHEM_HEAVY_ATOM_COUNT>
20

> <PUBCHEM_ATOM_DEF_STEREO_COUNT>
0

> <PUBCHEM_ATOM_UDEF_STEREO_COUNT>
0

> <PUBCHEM_BOND_DEF_STEREO_COUNT>
0

> <PUBCHEM_BOND_UDEF_STEREO_COUNT>
0

> <PUBCHEM_ISOTOPIC_ATOM_COUNT>
0

> <PUBCHEM_COMPONENT_COUNT>
1

> <PUBCHEM_CACTVS_TAUTO_COUNT>
2

> <PUBCHEM_CONFORMER_ID>
0008E4A100000003

> <PUBCHEM_MMFF94_ENERGY>
38.8987

> <PUBCHEM_FEATURE_SELFOVERLAP>
31.944

> <PUBCHEM_SHAPE_FINGERPRINT>
10 15 16805608049357264800
11315181 36 18334856108874203353
12596602 18 18334856104041088489
13403585 85 16805322210430147857
13533116 47 18201718441075189228
13668630 136 17346318168035437747
13862211 1 18202283610951520742
13885169 127 17988929994174200069
14251764 18 18334859394840371182
14849402 71 17895762769142342064
15348495 7 16443356325652049990
15716309 27 18411136930815179926
17780758 139 18113338622149054129
17870717 6 14836402528141729617
1813 80 18271228482933714317
20028762 73 18413390956229936186
20281389 69 5112012729064865678
20526848 3 7348889992449989882
20621476 66 8142089770712251434
21033648 29 15213294274576978537
21307412 95 16271642296592589155
21637258 2 18060706095744129428
22061861 79 16487255452276559270
22224240 67 15574714686098414279
22288116 15 11095584694040954256
23081809 10 18201430390023559284
23402539 116 17917711322606863701
23522609 53 18125407965736178116
23559900 14 14548450255327841597
351380 3 18343867705716428678
3663271 9 18259985981435538552
5104073 3 17895188840650553545
5364581 5 16227193404450758626
543368 44 7781512620669821831
559249 180 18413109472683499983

> <PUBCHEM_SHAPE_MULTIPOLES>
381.89
20.96
1.9
1.37
29.32
0.24
-0.37
14.31
-7.7
-0.86
-0.62
-0.68
-0.26
-2.37

> <PUBCHEM_SHAPE_SELFOVERLAP>
756.03

> <PUBCHEM_SHAPE_VOLUME>
228.2

> <PUBCHEM_COORDINATE_TYPE>
2
5
10

$$$$

