21158449
  -OEChem-07051212483D

 46 48  0     1  0  0  0  0  0999 V2000
    3.5783   -0.1227    1.4868 O   0  0  0  0  0  0  0  0  0  0  0  0
    2.2641   -1.0929   -0.2304 O   0  0  0  0  0  0  0  0  0  0  0  0
    2.4008    1.5673   -1.4443 O   0  0  0  0  0  0  0  0  0  0  0  0
    5.6540    0.1690   -0.5534 O   0  0  0  0  0  0  0  0  0  0  0  0
    4.8764    2.4428    1.0735 O   0  0  0  0  0  0  0  0  0  0  0  0
   -2.8957   -1.7755    0.8470 N   0  0  0  0  0  0  0  0  0  0  0  0
   -4.6223    0.6868    1.4505 N   0  0  0  0  0  0  0  0  0  0  0  0
   -2.3735   -0.6016   -1.1588 N   0  0  0  0  0  0  0  0  0  0  0  0
   -4.7970    2.4387    0.0835 N   0  0  0  0  0  0  0  0  0  0  0  0
   -3.3122    1.5965   -1.6475 N   0  0  0  0  0  0  0  0  0  0  0  0
    3.6987    1.5636   -0.8542 C   0  0  2  0  0  0  0  0  0  0  0  0
    4.2586    0.1350   -0.8464 C   0  0  2  0  0  0  0  0  0  0  0  0
    3.5825    2.1352    0.5604 C   0  0  1  0  0  0  0  0  0  0  0  0
    3.5770   -0.7506    0.2020 C   0  0  1  0  0  0  0  0  0  0  0  0
    2.9185    1.1434    1.5104 C   0  0  0  0  0  0  0  0  0  0  0  0
    1.7802   -2.2405    0.4493 C   0  0  0  0  0  0  0  0  0  0  0  0
    0.3907   -2.5663   -0.0382 C   0  0  0  0  0  0  0  0  0  0  0  0
   -0.6434   -2.5859    0.8250 C   0  0  0  0  0  0  0  0  0  0  0  0
    0.2859   -2.8856   -1.5043 C   0  0  0  0  0  0  0  0  0  0  0  0
   -2.0739   -2.9171    0.5309 C   0  0  0  0  0  0  0  0  0  0  0  0
   -3.0286   -0.6687    0.0219 C   0  0  0  0  0  0  0  0  0  0  0  0
   -3.8307    0.3985    0.3754 C   0  0  0  0  0  0  0  0  0  0  0  0
   -3.9559    1.5011   -0.4591 C   0  0  0  0  0  0  0  0  0  0  0  0
   -5.1797    1.9186    1.2301 C   0  0  0  0  0  0  0  0  0  0  0  0
   -2.5530    0.5109   -1.9100 C   0  0  0  0  0  0  0  0  0  0  0  0
    4.3535    2.2025   -1.4589 H   0  0  0  0  0  0  0  0  0  0  0  0
    4.1298   -0.3069   -1.8420 H   0  0  0  0  0  0  0  0  0  0  0  0
    3.0031    3.0656    0.5481 H   0  0  0  0  0  0  0  0  0  0  0  0
    4.1718   -1.6671    0.3079 H   0  0  0  0  0  0  0  0  0  0  0  0
    1.8593    1.0048    1.2653 H   0  0  0  0  0  0  0  0  0  0  0  0
    2.9733    1.5082    2.5414 H   0  0  0  0  0  0  0  0  0  0  0  0
    2.0965    2.4901   -1.4807 H   0  0  0  0  0  0  0  0  0  0  0  0
    5.9946   -0.7383   -0.6333 H   0  0  0  0  0  0  0  0  0  0  0  0
    1.7891   -2.0574    1.5305 H   0  0  0  0  0  0  0  0  0  0  0  0
    2.4347   -3.0977    0.2478 H   0  0  0  0  0  0  0  0  0  0  0  0
    4.7584    2.8397    1.9534 H   0  0  0  0  0  0  0  0  0  0  0  0
   -0.4402   -2.3530    1.8701 H   0  0  0  0  0  0  0  0  0  0  0  0
   -0.7072   -3.2066   -1.8214 H   0  0  0  0  0  0  0  0  0  0  0  0
    0.9796   -3.6934   -1.7610 H   0  0  0  0  0  0  0  0  0  0  0  0
    0.5485   -2.0063   -2.1020 H   0  0  0  0  0  0  0  0  0  0  0  0
   -2.2625   -3.2584   -0.4893 H   0  0  0  0  0  0  0  0  0  0  0  0
   -2.3667   -3.7483    1.1832 H   0  0  0  0  0  0  0  0  0  0  0  0
   -3.3948   -1.7755    1.7295 H   0  0  0  0  0  0  0  0  0  0  0  0
   -4.7719    0.1015    2.2616 H   0  0  0  0  0  0  0  0  0  0  0  0
   -5.8522    2.3760    1.9417 H   0  0  0  0  0  0  0  0  0  0  0  0
   -2.0119    0.5320   -2.8499 H   0  0  0  0  0  0  0  0  0  0  0  0
  1 14  1  0  0  0  0
  1 15  1  0  0  0  0
  2 14  1  0  0  0  0
  2 16  1  0  0  0  0
  3 11  1  0  0  0  0
  3 32  1  0  0  0  0
  4 12  1  0  0  0  0
  4 33  1  0  0  0  0
  5 13  1  0  0  0  0
  5 36  1  0  0  0  0
  6 20  1  0  0  0  0
  6 21  1  0  0  0  0
  6 43  1  0  0  0  0
  7 22  1  0  0  0  0
  7 24  1  0  0  0  0
  7 44  1  0  0  0  0
  8 21  2  0  0  0  0
  8 25  1  0  0  0  0
  9 23  1  0  0  0  0
  9 24  2  0  0  0  0
 10 23  1  0  0  0  0
 10 25  2  0  0  0  0
 11 12  1  0  0  0  0
 11 13  1  0  0  0  0
 11 26  1  0  0  0  0
 12 14  1  0  0  0  0
 12 27  1  0  0  0  0
 13 15  1  0  0  0  0
 13 28  1  0  0  0  0
 14 29  1  0  0  0  0
 15 30  1  0  0  0  0
 15 31  1  0  0  0  0
 16 17  1  0  0  0  0
 16 34  1  0  0  0  0
 16 35  1  0  0  0  0
 17 18  2  0  0  0  0
 17 19  1  0  0  0  0
 18 20  1  0  0  0  0
 18 37  1  0  0  0  0
 19 38  1  0  0  0  0
 19 39  1  0  0  0  0
 19 40  1  0  0  0  0
 20 41  1  0  0  0  0
 20 42  1  0  0  0  0
 21 22  1  0  0  0  0
 22 23  2  0  0  0  0
 24 45  1  0  0  0  0
 25 46  1  0  0  0  0
M  END
> <PUBCHEM_COMPOUND_CID>
21158449

> <PUBCHEM_CONFORMER_RMSD>
1.2

> <PUBCHEM_CONFORMER_DIVERSEORDER>
6
113
108
46
70
106
51
75
27
10
120
44
23
123
116
55
26
37
91
1
117
114
41
65
59
104
31
129
115
39
63
126
21
76
64
78
57
90
18
128
95
42
85
125
60
5
4
22
16
43
110
7
61
54
67
14
3
119
48
25
9
87
38
130
8
45
127
49
19
15
30
86
33
13
74
35
68
121
93
40
24
102
53
105
111
81
52
107
12
11
109
50
103
97
72
118
100
99
36
62
112
66
84
56
69
17
79
88
122
20
32
80
92
2
101
47
58
34
82
29
96
73
71
124
28
77
83
94
98
89

> <PUBCHEM_MMFF94_PARTIAL_CHARGES>
33
1 -0.56
10 -0.57
11 0.28
12 0.28
13 0.28
14 0.56
15 0.28
16 0.42
17 -0.28
18 -0.29
19 0.14
2 -0.56
20 0.51
21 0.41
22 -0.15
23 0.48
24 0.04
25 0.47
3 -0.68
32 0.4
33 0.4
36 0.4
37 0.15
4 -0.68
43 0.4
44 0.27
45 0.15
46 0.15
5 -0.68
6 -0.87
7 0.03
8 -0.62
9 -0.57

> <PUBCHEM_EFFECTIVE_ROTOR_COUNT>
7.2

> <PUBCHEM_PHARMACOPHORE_FEATURES>
17
1 1 acceptor
1 19 hydrophobe
1 2 acceptor
1 3 acceptor
1 3 donor
1 4 acceptor
1 4 donor
1 5 acceptor
1 5 donor
1 6 donor
1 7 donor
3 6 8 21 cation
3 7 9 24 cation
3 8 10 25 cation
5 7 9 22 23 24 rings
6 1 11 12 13 14 15 rings
6 8 10 21 22 23 25 rings

> <PUBCHEM_HEAVY_ATOM_COUNT>
25

> <PUBCHEM_ATOM_DEF_STEREO_COUNT>
4

> <PUBCHEM_ATOM_UDEF_STEREO_COUNT>
0

> <PUBCHEM_BOND_DEF_STEREO_COUNT>
1

> <PUBCHEM_BOND_UDEF_STEREO_COUNT>
0

> <PUBCHEM_ISOTOPIC_ATOM_COUNT>
0

> <PUBCHEM_COMPONENT_COUNT>
1

> <PUBCHEM_CACTVS_TAUTO_COUNT>
8

> <PUBCHEM_CONFORMER_ID>
0142DA3100000006

> <PUBCHEM_MMFF94_ENERGY>
54.2227

> <PUBCHEM_FEATURE_SELFOVERLAP>
86.559

> <PUBCHEM_SHAPE_FINGERPRINT>
10670039 82 18199742549459257614
11595378 159 16200433597627544855
11720765 8 17750784644905747398
12633257 1 18060146452435621046
12925494 130 17982450705396785933
12978246 48 18272931665179004357
13544653 18 10087641515538698142
14251757 17 17969503701968933688
14251764 38 18337108943373820596
14848178 5 10087635988068392379
14848178 96 18408890662993322633
14950920 106 15913339008503198176
151778 21 18271525393948779650
15342168 16 18337669836602526327
21033648 29 18187652349701725706
21095088 737 18046648723339477751
21860390 5 17971755737732156510
21864079 5 18335709308021568578
22122407 14 17830159557446320585
22182937 141 18411980222164459931
22749437 52 18341060643930069998
474 4 18337112379606431903
5048184 11 18411982451120409845
508706 21 18342456989279857783
5252454 2 18343303681957977214
633830 44 18186806872204049036
7064713 232 18343580715933053981
7808743 9 18200583718598515606

> <PUBCHEM_SHAPE_MULTIPOLES>
460.24
12.04
3.58
1.58
0.83
1.6
0.29
-10.02
-1.8
-0.58
-0.31
-0.35
-0.35
0.44

> <PUBCHEM_SHAPE_SELFOVERLAP>
973.192

> <PUBCHEM_SHAPE_VOLUME>
253.3

> <PUBCHEM_COORDINATE_TYPE>
2
5
10

$$$$

