71724
  -OEChem-07051212513D

 45 46  0     1  0  0  0  0  0999 V2000
   -1.4124    0.2841    2.0583 S   0  0  0  0  0  0  0  0  0  0  0  0
   -1.1393   -1.6381   -1.8967 O   0  0  0  0  0  0  0  0  0  0  0  0
   -3.5826    1.9690   -2.0188 O   0  0  0  0  0  0  0  0  0  0  0  0
   -4.7722    0.2771   -1.0607 O   0  0  0  0  0  0  0  0  0  0  0  0
    1.1662   -3.3672   -0.7300 O   0  0  0  0  0  0  0  0  0  0  0  0
    5.6486    1.0657   -0.9808 O   0  0  0  0  0  0  0  0  0  0  0  0
    4.8908    2.4434    0.6525 O   0  0  0  0  0  0  0  0  0  0  0  0
   -2.3952   -0.7149   -0.1244 N   0  0  0  0  0  0  0  0  0  0  0  0
    0.3249   -1.9816    0.9290 N   0  0  0  0  0  0  0  0  0  0  0  0
    2.2934    2.0918   -0.0508 N   0  0  0  0  0  0  0  0  0  0  0  0
   -2.1044   -1.1938    1.2302 C   0  0  1  0  0  0  0  0  0  0  0  0
   -2.4709    1.4100    1.0182 C   0  0  0  0  0  0  0  0  0  0  0  0
   -2.5035    0.7109   -0.3579 C   0  0  2  0  0  0  0  0  0  0  0  0
   -1.0990   -2.1675    0.6003 C   0  0  1  0  0  0  0  0  0  0  0  0
   -1.5149   -1.5500   -0.7497 C   0  0  0  0  0  0  0  0  0  0  0  0
   -1.8007    2.7823    0.9309 C   0  0  0  0  0  0  0  0  0  0  0  0
   -3.8395    1.5357    1.7013 C   0  0  0  0  0  0  0  0  0  0  0  0
   -3.7465    0.9339   -1.1591 C   0  0  0  0  0  0  0  0  0  0  0  0
    1.3419   -2.6098    0.2208 C   0  0  0  0  0  0  0  0  0  0  0  0
    2.7132   -2.2707    0.7806 C   0  0  0  0  0  0  0  0  0  0  0  0
    3.0368   -0.7762    0.7479 C   0  0  0  0  0  0  0  0  0  0  0  0
    3.0233   -0.2128   -0.6818 C   0  0  0  0  0  0  0  0  0  0  0  0
    3.2809    1.2988   -0.7825 C   0  0  2  0  0  0  0  0  0  0  0  0
    4.6611    1.6801   -0.2768 C   0  0  0  0  0  0  0  0  0  0  0  0
   -2.9733   -1.6483    1.7147 H   0  0  0  0  0  0  0  0  0  0  0  0
   -1.6359    0.9946   -0.9697 H   0  0  0  0  0  0  0  0  0  0  0  0
   -1.3947   -3.2192    0.6930 H   0  0  0  0  0  0  0  0  0  0  0  0
   -2.3888    3.4599    0.3015 H   0  0  0  0  0  0  0  0  0  0  0  0
   -0.7981    2.7205    0.4936 H   0  0  0  0  0  0  0  0  0  0  0  0
   -1.7082    3.2506    1.9177 H   0  0  0  0  0  0  0  0  0  0  0  0
   -3.7442    1.9369    2.7175 H   0  0  0  0  0  0  0  0  0  0  0  0
   -4.3614    0.5747    1.7700 H   0  0  0  0  0  0  0  0  0  0  0  0
   -4.4906    2.2240    1.1502 H   0  0  0  0  0  0  0  0  0  0  0  0
    0.5745   -1.4095    1.7315 H   0  0  0  0  0  0  0  0  0  0  0  0
    3.4623   -2.8277    0.2058 H   0  0  0  0  0  0  0  0  0  0  0  0
    2.7600   -2.6370    1.8130 H   0  0  0  0  0  0  0  0  0  0  0  0
   -4.3882    2.1315   -2.5543 H   0  0  0  0  0  0  0  0  0  0  0  0
    2.3294   -0.2301    1.3794 H   0  0  0  0  0  0  0  0  0  0  0  0
    4.0292   -0.6282    1.1899 H   0  0  0  0  0  0  0  0  0  0  0  0
    2.0519   -0.4202   -1.1484 H   0  0  0  0  0  0  0  0  0  0  0  0
    3.7704   -0.7513   -1.2788 H   0  0  0  0  0  0  0  0  0  0  0  0
    3.2317    1.6040   -1.8344 H   0  0  0  0  0  0  0  0  0  0  0  0
    2.3490    1.8946    0.9470 H   0  0  0  0  0  0  0  0  0  0  0  0
    1.3553    1.8175   -0.3405 H   0  0  0  0  0  0  0  0  0  0  0  0
    6.5392    1.3110   -0.6508 H   0  0  0  0  0  0  0  0  0  0  0  0
  1 11  1  0  0  0  0
  1 12  1  0  0  0  0
  2 15  2  0  0  0  0
  3 18  1  0  0  0  0
  3 37  1  0  0  0  0
  4 18  2  0  0  0  0
  5 19  2  0  0  0  0
  6 24  1  0  0  0  0
  6 45  1  0  0  0  0
  7 24  2  0  0  0  0
  8 11  1  0  0  0  0
  8 13  1  0  0  0  0
  8 15  1  0  0  0  0
  9 14  1  0  0  0  0
  9 19  1  0  0  0  0
  9 34  1  0  0  0  0
 10 23  1  0  0  0  0
 10 43  1  0  0  0  0
 10 44  1  0  0  0  0
 11 14  1  0  0  0  0
 11 25  1  0  0  0  0
 12 13  1  0  0  0  0
 12 16  1  0  0  0  0
 12 17  1  0  0  0  0
 13 18  1  0  0  0  0
 13 26  1  0  0  0  0
 14 15  1  0  0  0  0
 14 27  1  0  0  0  0
 16 28  1  0  0  0  0
 16 29  1  0  0  0  0
 16 30  1  0  0  0  0
 17 31  1  0  0  0  0
 17 32  1  0  0  0  0
 17 33  1  0  0  0  0
 19 20  1  0  0  0  0
 20 21  1  0  0  0  0
 20 35  1  0  0  0  0
 20 36  1  0  0  0  0
 21 22  1  0  0  0  0
 21 38  1  0  0  0  0
 21 39  1  0  0  0  0
 22 23  1  0  0  0  0
 22 40  1  0  0  0  0
 22 41  1  0  0  0  0
 23 24  1  0  0  0  0
 23 42  1  0  0  0  0
M  END
> <PUBCHEM_COMPOUND_CID>
71724

> <PUBCHEM_CONFORMER_RMSD>
1

> <PUBCHEM_CONFORMER_DIVERSEORDER>
5
53
50
13
54
41
3
33
48
27
11
23
38
25
52
10
17
4
44
18
47
8
6
20
1
14
21
42
31
7
24
34
49
37
16
40
45
43
2
46
32
9
12
55
28
19
22
51
30
29
26
36
15
35
39

> <PUBCHEM_MMFF94_PARTIAL_CHARGES>
25
1 -0.45
10 -0.99
11 0.44
12 0.23
13 0.36
14 0.28
15 0.58
18 0.66
19 0.57
2 -0.57
20 0.06
23 0.33
24 0.66
3 -0.65
34 0.37
37 0.5
4 -0.57
43 0.36
44 0.36
45 0.5
5 -0.57
6 -0.65
7 -0.57
8 -0.59
9 -0.65

> <PUBCHEM_EFFECTIVE_ROTOR_COUNT>
8.8

> <PUBCHEM_PHARMACOPHORE_FEATURES>
13
1 10 cation
1 10 donor
1 2 acceptor
1 3 acceptor
1 4 acceptor
1 5 acceptor
1 6 acceptor
1 7 acceptor
1 9 donor
3 12 16 17 hydrophobe
3 3 4 18 anion
3 6 7 24 anion
7 1 8 11 12 13 14 15 rings

> <PUBCHEM_HEAVY_ATOM_COUNT>
24

> <PUBCHEM_ATOM_DEF_STEREO_COUNT>
4

> <PUBCHEM_ATOM_UDEF_STEREO_COUNT>
0

> <PUBCHEM_BOND_DEF_STEREO_COUNT>
0

> <PUBCHEM_BOND_UDEF_STEREO_COUNT>
0

> <PUBCHEM_ISOTOPIC_ATOM_COUNT>
0

> <PUBCHEM_COMPONENT_COUNT>
1

> <PUBCHEM_CACTVS_TAUTO_COUNT>
2

> <PUBCHEM_CONFORMER_ID>
0001182C00000005

> <PUBCHEM_MMFF94_ENERGY>
49.2714

> <PUBCHEM_FEATURE_SELFOVERLAP>
66.082

> <PUBCHEM_SHAPE_FINGERPRINT>
10498660 4 18409448051222499920
11135609 187 18410301294048330721
11370993 70 18341618083688630244
11640471 11 18334582356022039002
11725454 13 16557358244038219479
12422481 6 17987820574383783424
12788726 201 17169254039263812952
13583140 156 17487331788565590099
14123250 116 18187072979550670800
14251751 93 18262510386939204230
14251764 38 17982740967211504701
14468879 13 17917712404954284009
14787075 74 18341336613555825003
15295992 7 17201923862761719667
17492 54 18261121776857541917
17980427 23 17972613348739219378
192875 21 18191882316408825201
21033648 29 16987992929275434965
21095088 737 18335422352608559409
21475661 188 17486227895817607117
21864079 5 18191291882949374304
22749437 52 18341333378790901112
22907989 373 17675926499708899839
23227448 37 18343305851222494839
23559900 14 18125168374932189851
469060 322 17914036621750192595
474 4 18341337789601326162
5048184 11 18413108334079472420
9981440 41 18270688567148442138

> <PUBCHEM_SHAPE_MULTIPOLES>
447.6
9.35
3.51
1.7
7.61
0.88
0.06
-7.32
1.96
1.91
-0.16
-1.7
-0.26
-0.48

> <PUBCHEM_SHAPE_SELFOVERLAP>
906.73

> <PUBCHEM_SHAPE_VOLUME>
262.3

> <PUBCHEM_COORDINATE_TYPE>
2
5
10

$$$$

