115244
  -OEChem-07051212592D

 23 23  0     1  0  0  0  0  0999 V2000
    5.3122    0.5830    0.0000 O   0  5  0  0  0  0  0  0  0  0  0  0
    4.7770   -1.0643    0.0000 O   0  0  0  0  0  0  0  0  0  0  0  0
    2.8090   -0.3649    0.0000 N   0  3  0  0  0  0  0  0  0  0  0  0
    3.6180    0.2229    0.0000 C   0  0  1  0  0  0  0  0  0  0  0  0
    2.0000    0.2229    0.0000 C   0  0  0  0  0  0  0  0  0  0  0  0
    3.3090    1.1739    0.0000 C   0  0  0  0  0  0  0  0  0  0  0  0
    2.3090    1.1739    0.0000 C   0  0  0  0  0  0  0  0  0  0  0  0
    2.2212   -1.1739    0.0000 C   0  0  0  0  0  0  0  0  0  0  0  0
    3.3968   -1.1739    0.0000 C   0  0  0  0  0  0  0  0  0  0  0  0
    4.5691   -0.0861    0.0000 C   0  0  0  0  0  0  0  0  0  0  0  0
    3.7150   -0.3895    0.0000 H   0  0  0  0  0  0  0  0  0  0  0  0
    1.4336    0.4750    0.0000 H   0  0  0  0  0  0  0  0  0  0  0  0
    1.6900   -0.3141    0.0000 H   0  0  0  0  0  0  0  0  0  0  0  0
    3.9155    1.3028    0.0000 H   0  0  0  0  0  0  0  0  0  0  0  0
    3.2442    1.7905    0.0000 H   0  0  0  0  0  0  0  0  0  0  0  0
    2.3738    1.7905    0.0000 H   0  0  0  0  0  0  0  0  0  0  0  0
    1.7026    1.3028    0.0000 H   0  0  0  0  0  0  0  0  0  0  0  0
    1.7196   -0.8095    0.0000 H   0  0  0  0  0  0  0  0  0  0  0  0
    1.8568   -1.6755    0.0000 H   0  0  0  0  0  0  0  0  0  0  0  0
    2.7228   -1.5384    0.0000 H   0  0  0  0  0  0  0  0  0  0  0  0
    2.8952   -1.5384    0.0000 H   0  0  0  0  0  0  0  0  0  0  0  0
    3.7612   -1.6755    0.0000 H   0  0  0  0  0  0  0  0  0  0  0  0
    3.8984   -0.8095    0.0000 H   0  0  0  0  0  0  0  0  0  0  0  0
  1 10  1  0  0  0  0
  2 10  2  0  0  0  0
  3  4  1  0  0  0  0
  3  5  1  0  0  0  0
  3  8  1  0  0  0  0
  3  9  1  0  0  0  0
  4  6  1  0  0  0  0
  4 10  1  1  0  0  0
  4 11  1  0  0  0  0
  5  7  1  0  0  0  0
  5 12  1  0  0  0  0
  5 13  1  0  0  0  0
  6  7  1  0  0  0  0
  6 14  1  0  0  0  0
  6 15  1  0  0  0  0
  7 16  1  0  0  0  0
  7 17  1  0  0  0  0
  8 18  1  0  0  0  0
  8 19  1  0  0  0  0
  8 20  1  0  0  0  0
  9 21  1  0  0  0  0
  9 22  1  0  0  0  0
  9 23  1  0  0  0  0
M  CHG  2   1  -1   3   1
M  END
> <PUBCHEM_COMPOUND_CID>
115244

> <PUBCHEM_COMPOUND_CANONICALIZED>
1

> <PUBCHEM_CACTVS_COMPLEXITY>
148

> <PUBCHEM_CACTVS_HBOND_ACCEPTOR>
2

> <PUBCHEM_CACTVS_HBOND_DONOR>
0

> <PUBCHEM_CACTVS_ROTATABLE_BOND>
0

> <PUBCHEM_CACTVS_SUBSKEYS>
AAADccBiMAAAAAAAAAAAAAAAAAAAAWAAAAAAAAAAAAAAAAAAAAAAHgAAAAAACCjBgAQCCAMAAAAIAACQCAAAAAAAAAAAAAGIAAACABIAgCAEAAAEAACQAACYEQIAAAAAAAAAAAAAAAAAAAAAAAAAAAAAAA==

> <PUBCHEM_IUPAC_OPENEYE_NAME>
(2S)-1,1-dimethylpyrrolidin-1-ium-2-carboxylate

> <PUBCHEM_IUPAC_CAS_NAME>
(2S)-1,1-dimethyl-2-pyrrolidin-1-iumcarboxylate

> <PUBCHEM_IUPAC_NAME>
(2S)-1,1-dimethylpyrrolidin-1-ium-2-carboxylate

> <PUBCHEM_IUPAC_SYSTEMATIC_NAME>
(2S)-1,1-dimethylpyrrolidin-1-ium-2-carboxylate

> <PUBCHEM_IUPAC_TRADITIONAL_NAME>
(2S)-1,1-dimethylpyrrolidin-1-ium-2-carboxylate

> <PUBCHEM_IUPAC_INCHI>
InChI=1S/C7H13NO2/c1-8(2)5-3-4-6(8)7(9)10/h6H,3-5H2,1-2H3/t6-/m0/s1

> <PUBCHEM_IUPAC_INCHIKEY>
CMUNUTVVOOHQPW-LURJTMIESA-N

> <PUBCHEM_XLOGP3_AA>
1

> <PUBCHEM_EXACT_MASS>
143.094629

> <PUBCHEM_MOLECULAR_FORMULA>
C7H13NO2

> <PUBCHEM_MOLECULAR_WEIGHT>
143.18362

> <PUBCHEM_OPENEYE_CAN_SMILES>
C[N+]1(CCCC1C(=O)[O-])C

> <PUBCHEM_OPENEYE_ISO_SMILES>
C[N+]1(CCC[C@H]1C(=O)[O-])C

> <PUBCHEM_CACTVS_TPSA>
40.1

> <PUBCHEM_MONOISOTOPIC_WEIGHT>
143.094629

> <PUBCHEM_TOTAL_CHARGE>
0

> <PUBCHEM_HEAVY_ATOM_COUNT>
10

> <PUBCHEM_ATOM_DEF_STEREO_COUNT>
1

> <PUBCHEM_ATOM_UDEF_STEREO_COUNT>
0

> <PUBCHEM_BOND_DEF_STEREO_COUNT>
0

> <PUBCHEM_BOND_UDEF_STEREO_COUNT>
0

> <PUBCHEM_ISOTOPIC_ATOM_COUNT>
0

> <PUBCHEM_COMPONENT_COUNT>
1

> <PUBCHEM_CACTVS_TAUTO_COUNT>
1

> <PUBCHEM_COORDINATE_TYPE>
1
5
255

> <PUBCHEM_BONDANNOTATIONS>
4  10  5

$$$$

