441875
  -OEChem-07051212562D

 84 89  0     1  0  0  0  0  0999 V2000
   11.3876   -1.6432    0.0000 O   0  0  0  0  0  0  0  0  0  0  0  0
    8.7298   -3.1916    0.0000 O   0  0  0  0  0  0  0  0  0  0  0  0
   13.9174   -0.1432    0.0000 O   0  0  0  0  0  0  0  0  0  0  0  0
    5.9945   -2.6956    0.0000 O   0  0  0  0  0  0  0  0  0  0  0  0
    7.4273   -0.0265    0.0000 O   0  0  0  0  0  0  0  0  0  0  0  0
   12.6473    3.2300    0.0000 O   0  0  0  0  0  0  0  0  0  0  0  0
    4.2625   -2.6889    0.0000 O   0  0  0  0  0  0  0  0  0  0  0  0
   14.4078    3.5058    0.0000 O   0  0  0  0  0  0  0  0  0  0  0  0
    4.2740    0.3111    0.0000 O   0  0  0  0  0  0  0  0  0  0  0  0
    2.5381   -0.6822    0.0000 O   0  0  0  0  0  0  0  0  0  0  0  0
   11.3876   -0.6432    0.0000 C   0  0  1  0  0  0  0  0  0  0  0  0
   10.5216   -1.1432    0.0000 C   0  0  1  0  0  0  0  0  0  0  0  0
   11.3876    0.3568    0.0000 C   0  0  1  0  0  0  0  0  0  0  0  0
    9.6555   -0.6432    0.0000 C   0  0  1  0  0  0  0  0  0  0  0  0
    8.7455   -1.1501    0.0000 C   0  0  2  0  0  0  0  0  0  0  0  0
    8.7375   -2.1917    0.0000 C   0  0  1  0  0  0  0  0  0  0  0  0
   12.3338    0.6615    0.0000 C   0  0  2  0  0  0  0  0  0  0  0  0
   10.5216    0.8568    0.0000 C   0  0  0  0  0  0  0  0  0  0  0  0
    9.6555    0.3568    0.0000 C   0  0  0  0  0  0  0  0  0  0  0  0
   12.3338   -0.9480    0.0000 C   0  0  0  0  0  0  0  0  0  0  0  0
   10.5376   -2.1847    0.0000 C   0  0  0  0  0  0  0  0  0  0  0  0
   12.9174   -0.1432    0.0000 C   0  0  2  0  0  0  0  0  0  0  0  0
    9.6396   -2.7125    0.0000 C   0  0  0  0  0  0  0  0  0  0  0  0
    7.8187   -0.5860    0.0000 C   0  0  0  0  0  0  0  0  0  0  0  0
   11.3876    1.3568    0.0000 C   0  0  0  0  0  0  0  0  0  0  0  0
    7.8021   -2.7414    0.0000 C   0  0  0  0  0  0  0  0  0  0  0  0
    6.8708   -1.1139    0.0000 C   0  0  0  0  0  0  0  0  0  0  0  0
    6.8624   -2.1989    0.0000 C   0  0  2  0  0  0  0  0  0  0  0  0
   12.6445    1.6120    0.0000 C   0  0  0  0  0  0  0  0  0  0  0  0
    8.4108   -0.2078    0.0000 C   0  0  0  0  0  0  0  0  0  0  0  0
   12.0581    2.4221    0.0000 C   0  0  0  0  0  0  0  0  0  0  0  0
   13.5960    1.9194    0.0000 C   0  0  0  0  0  0  0  0  0  0  0  0
   13.5978    2.9194    0.0000 C   0  0  0  0  0  0  0  0  0  0  0  0
    5.1304   -2.1922    0.0000 C   0  0  2  0  0  0  0  0  0  0  0  0
    5.1343   -1.1922    0.0000 C   0  0  0  0  0  0  0  0  0  0  0  0
    4.2702   -0.6889    0.0000 C   0  0  2  0  0  0  0  0  0  0  0  0
    3.3984   -2.1856    0.0000 C   0  0  1  0  0  0  0  0  0  0  0  0
    3.4022   -1.1856    0.0000 C   0  0  2  0  0  0  0  0  0  0  0  0
    2.5304   -2.6822    0.0000 C   0  0  0  0  0  0  0  0  0  0  0  0
    3.4099    0.8144    0.0000 C   0  0  0  0  0  0  0  0  0  0  0  0
   11.2609   -1.5625    0.0000 H   0  0  0  0  0  0  0  0  0  0  0  0
   10.3916   -0.2182    0.0000 H   0  0  0  0  0  0  0  0  0  0  0  0
   12.9463    0.7577    0.0000 H   0  0  0  0  0  0  0  0  0  0  0  0
   10.9201    1.3317    0.0000 H   0  0  0  0  0  0  0  0  0  0  0  0
   10.1230    1.3317    0.0000 H   0  0  0  0  0  0  0  0  0  0  0  0
    9.4435    0.9394    0.0000 H   0  0  0  0  0  0  0  0  0  0  0  0
    9.0450    0.2491    0.0000 H   0  0  0  0  0  0  0  0  0  0  0  0
   12.0828   -1.5149    0.0000 H   0  0  0  0  0  0  0  0  0  0  0  0
   12.8712   -1.2572    0.0000 H   0  0  0  0  0  0  0  0  0  0  0  0
   10.7556   -2.7651    0.0000 H   0  0  0  0  0  0  0  0  0  0  0  0
   11.1468   -2.0692    0.0000 H   0  0  0  0  0  0  0  0  0  0  0  0
   13.1991   -0.6955    0.0000 H   0  0  0  0  0  0  0  0  0  0  0  0
    9.2423   -3.1885    0.0000 H   0  0  0  0  0  0  0  0  0  0  0  0
   10.0405   -3.1854    0.0000 H   0  0  0  0  0  0  0  0  0  0  0  0
    8.2269   -0.1193    0.0000 H   0  0  0  0  0  0  0  0  0  0  0  0
    7.4288   -0.1040    0.0000 H   0  0  0  0  0  0  0  0  0  0  0  0
   12.0076    1.3568    0.0000 H   0  0  0  0  0  0  0  0  0  0  0  0
   11.3876    1.9768    0.0000 H   0  0  0  0  0  0  0  0  0  0  0  0
   10.7676    1.3568    0.0000 H   0  0  0  0  0  0  0  0  0  0  0  0
    7.4048   -3.2174    0.0000 H   0  0  0  0  0  0  0  0  0  0  0  0
    8.2030   -3.2143    0.0000 H   0  0  0  0  0  0  0  0  0  0  0  0
    6.6662   -0.5287    0.0000 H   0  0  0  0  0  0  0  0  0  0  0  0
    6.2592   -1.2153    0.0000 H   0  0  0  0  0  0  0  0  0  0  0  0
    6.8612   -2.8189    0.0000 H   0  0  0  0  0  0  0  0  0  0  0  0
   11.9245   -1.9532    0.0000 H   0  0  0  0  0  0  0  0  0  0  0  0
    8.8129    0.2641    0.0000 H   0  0  0  0  0  0  0  0  0  0  0  0
    9.2643   -3.5058    0.0000 H   0  0  0  0  0  0  0  0  0  0  0  0
   14.2274   -0.6802    0.0000 H   0  0  0  0  0  0  0  0  0  0  0  0
   11.5980    2.8377    0.0000 H   0  0  0  0  0  0  0  0  0  0  0  0
   11.5966    2.0080    0.0000 H   0  0  0  0  0  0  0  0  0  0  0  0
   14.0970    1.5541    0.0000 H   0  0  0  0  0  0  0  0  0  0  0  0
    5.1280   -2.8122    0.0000 H   0  0  0  0  0  0  0  0  0  0  0  0
    5.7444   -1.3022    0.0000 H   0  0  0  0  0  0  0  0  0  0  0  0
    5.3486   -0.6104    0.0000 H   0  0  0  0  0  0  0  0  0  0  0  0
    3.7344   -0.3768    0.0000 H   0  0  0  0  0  0  0  0  0  0  0  0
    3.3960   -2.8056    0.0000 H   0  0  0  0  0  0  0  0  0  0  0  0
    2.8641   -1.4935    0.0000 H   0  0  0  0  0  0  0  0  0  0  0  0
    2.2225   -2.1441    0.0000 H   0  0  0  0  0  0  0  0  0  0  0  0
    1.9923   -2.9901    0.0000 H   0  0  0  0  0  0  0  0  0  0  0  0
    2.8384   -3.2203    0.0000 H   0  0  0  0  0  0  0  0  0  0  0  0
    2.0000   -0.9902    0.0000 H   0  0  0  0  0  0  0  0  0  0  0  0
    3.7220    1.3502    0.0000 H   0  0  0  0  0  0  0  0  0  0  0  0
    2.8742    1.1265    0.0000 H   0  0  0  0  0  0  0  0  0  0  0  0
    3.0979    0.2787    0.0000 H   0  0  0  0  0  0  0  0  0  0  0  0
 11  1  1  1  0  0  0
  1 65  1  0  0  0  0
 16  2  1  1  0  0  0
  2 67  1  0  0  0  0
 22  3  1  1  0  0  0
  3 68  1  0  0  0  0
 28  4  1  1  0  0  0
 34  4  1  6  0  0  0
  5 30  2  0  0  0  0
  6 31  1  0  0  0  0
  6 33  1  0  0  0  0
  7 34  1  0  0  0  0
  7 37  1  0  0  0  0
  8 33  2  0  0  0  0
 36  9  1  6  0  0  0
  9 40  1  0  0  0  0
 38 10  1  6  0  0  0
 10 81  1  0  0  0  0
 11 12  1  0  0  0  0
 11 13  1  0  0  0  0
 11 20  1  0  0  0  0
 12 14  1  0  0  0  0
 12 21  1  0  0  0  0
 12 41  1  1  0  0  0
 13 17  1  0  0  0  0
 13 18  1  0  0  0  0
 13 25  1  1  0  0  0
 14 15  1  0  0  0  0
 14 19  1  0  0  0  0
 14 42  1  6  0  0  0
 15 16  1  0  0  0  0
 15 24  1  0  0  0  0
 15 30  1  1  0  0  0
 16 23  1  0  0  0  0
 16 26  1  0  0  0  0
 17 22  1  0  0  0  0
 17 29  1  1  0  0  0
 17 43  1  0  0  0  0
 18 19  1  0  0  0  0
 18 44  1  0  0  0  0
 18 45  1  0  0  0  0
 19 46  1  0  0  0  0
 19 47  1  0  0  0  0
 20 22  1  0  0  0  0
 20 48  1  0  0  0  0
 20 49  1  0  0  0  0
 21 23  1  0  0  0  0
 21 50  1  0  0  0  0
 21 51  1  0  0  0  0
 22 52  1  0  0  0  0
 23 53  1  0  0  0  0
 23 54  1  0  0  0  0
 24 27  1  0  0  0  0
 24 55  1  0  0  0  0
 24 56  1  0  0  0  0
 25 57  1  0  0  0  0
 25 58  1  0  0  0  0
 25 59  1  0  0  0  0
 26 28  1  0  0  0  0
 26 60  1  0  0  0  0
 26 61  1  0  0  0  0
 27 28  1  0  0  0  0
 27 62  1  0  0  0  0
 27 63  1  0  0  0  0
 28 64  1  0  0  0  0
 29 31  1  0  0  0  0
 29 32  2  0  0  0  0
 30 66  1  0  0  0  0
 31 69  1  0  0  0  0
 31 70  1  0  0  0  0
 32 33  1  0  0  0  0
 32 71  1  0  0  0  0
 34 35  1  0  0  0  0
 34 72  1  0  0  0  0
 35 36  1  0  0  0  0
 35 73  1  0  0  0  0
 35 74  1  0  0  0  0
 36 38  1  0  0  0  0
 36 75  1  0  0  0  0
 37 38  1  0  0  0  0
 37 39  1  6  0  0  0
 37 76  1  0  0  0  0
 38 77  1  0  0  0  0
 39 78  1  0  0  0  0
 39 79  1  0  0  0  0
 39 80  1  0  0  0  0
 40 82  1  0  0  0  0
 40 83  1  0  0  0  0
 40 84  1  0  0  0  0
M  END
> <PUBCHEM_COMPOUND_CID>
441875

> <PUBCHEM_COMPOUND_CANONICALIZED>
1

> <PUBCHEM_CACTVS_COMPLEXITY>
1060

> <PUBCHEM_CACTVS_HBOND_ACCEPTOR>
10

> <PUBCHEM_CACTVS_HBOND_DONOR>
4

> <PUBCHEM_CACTVS_ROTATABLE_BOND>
5

> <PUBCHEM_CACTVS_SUBSKEYS>
AAADcfB4PAAAAAAAAAAAAAAAAAAAAYIAAAA0YMEAAAAAAGDAAAAAGgAACAAAD1SwgAMCCAAABgCIAijSiAAAAAAgAAAACAEAAEgRFBYAIQAiUAAF4AAPIQPI7PzPgAAAAAAAAADAAAYQADAAAYQADAAAAA==

> <PUBCHEM_IUPAC_OPENEYE_NAME>
(3S,5S,8R,9S,10S,13R,14S,16S,17R)-5,14,16-trihydroxy-3-[(2R,4R,5S,6R)-5-hydroxy-4-methoxy-6-methyl-tetrahydropyran-2-yl]oxy-13-methyl-17-(5-oxo-2H-furan-3-yl)-2,3,4,6,7,8,9,11,12,15,16,17-dodecahydro-1H-cyclopenta[a]phenanthrene-10-carbaldehyde

> <PUBCHEM_IUPAC_CAS_NAME>
(3S,5S,8R,9S,10S,13R,14S,16S,17R)-5,14,16-trihydroxy-3-[[(2R,4R,5S,6R)-5-hydroxy-4-methoxy-6-methyl-2-oxanyl]oxy]-13-methyl-17-(5-oxo-2H-furan-3-yl)-2,3,4,6,7,8,9,11,12,15,16,17-dodecahydro-1H-cyclopenta[a]phenanthrene-10-carboxaldehyde

> <PUBCHEM_IUPAC_NAME>
(3S,5S,8R,9S,10S,13R,14S,16S,17R)-5,14,16-trihydroxy-3-[(2R,4R,5S,6R)-5-hydroxy-4-methoxy-6-methyloxan-2-yl]oxy-13-methyl-17-(5-oxo-2H-furan-3-yl)-2,3,4,6,7,8,9,11,12,15,16,17-dodecahydro-1H-cyclopenta[a]phenanthrene-10-carbaldehyde

> <PUBCHEM_IUPAC_SYSTEMATIC_NAME>
(3S,5S,8R,9S,10S,13R,14S,16S,17R)-3-[(2R,4R,5S,6R)-4-methoxy-6-methyl-5-oxidanyl-oxan-2-yl]oxy-13-methyl-5,14,16-tris(oxidanyl)-17-(5-oxidanylidene-2H-furan-3-yl)-2,3,4,6,7,8,9,11,12,15,16,17-dodecahydro-1H-cyclopenta[a]phenanthrene-10-carbaldehyde

> <PUBCHEM_IUPAC_TRADITIONAL_NAME>
(3S,5S,8R,9S,10S,13R,14S,16S,17R)-5,14,16-trihydroxy-3-[(2R,4R,5S,6R)-5-hydroxy-4-methoxy-6-methyl-tetrahydropyran-2-yl]oxy-17-(5-keto-2H-furan-3-yl)-13-methyl-2,3,4,6,7,8,9,11,12,15,16,17-dodecahydro-1H-cyclopenta[a]phenanthrene-10-carbaldehyde

> <PUBCHEM_IUPAC_INCHI>
InChI=1S/C30H44O10/c1-16-26(34)22(37-3)11-24(39-16)40-18-4-8-28(15-31)19-5-7-27(2)25(17-10-23(33)38-14-17)21(32)13-30(27,36)20(19)6-9-29(28,35)12-18/h10,15-16,18-22,24-26,32,34-36H,4-9,11-14H2,1-3H3/t16-,18+,19+,20-,21+,22-,24+,25+,26+,27-,28+,29+,30+/m1/s1

> <PUBCHEM_IUPAC_INCHIKEY>
NAQIOLFTZRJOKV-OBDZMSMTSA-N

> <PUBCHEM_XLOGP3>
-0.1

> <PUBCHEM_EXACT_MASS>
564.293448

> <PUBCHEM_MOLECULAR_FORMULA>
C30H44O10

> <PUBCHEM_MOLECULAR_WEIGHT>
564.66436

> <PUBCHEM_OPENEYE_CAN_SMILES>
CC1C(C(CC(O1)OC2CCC3(C4CCC5(C(C(CC5(C4CCC3(C2)O)O)O)C6=CC(=O)OC6)C)C=O)OC)O

> <PUBCHEM_OPENEYE_ISO_SMILES>
C[C@@H]1[C@@H]([C@@H](C[C@@H](O1)O[C@H]2CC[C@@]3([C@H]4CC[C@@]5([C@H]([C@H](C[C@@]5([C@@H]4CC[C@@]3(C2)O)O)O)C6=CC(=O)OC6)C)C=O)OC)O

> <PUBCHEM_CACTVS_TPSA>
152

> <PUBCHEM_MONOISOTOPIC_WEIGHT>
564.293448

> <PUBCHEM_TOTAL_CHARGE>
0

> <PUBCHEM_HEAVY_ATOM_COUNT>
40

> <PUBCHEM_ATOM_DEF_STEREO_COUNT>
13

> <PUBCHEM_ATOM_UDEF_STEREO_COUNT>
0

> <PUBCHEM_BOND_DEF_STEREO_COUNT>
0

> <PUBCHEM_BOND_UDEF_STEREO_COUNT>
0

> <PUBCHEM_ISOTOPIC_ATOM_COUNT>
0

> <PUBCHEM_COMPONENT_COUNT>
1

> <PUBCHEM_CACTVS_TAUTO_COUNT>
1

> <PUBCHEM_COORDINATE_TYPE>
1
5
255

> <PUBCHEM_BONDANNOTATIONS>
11  1  5
38  10  6
12  41  5
13  25  5
14  42  6
15  30  5
17  29  5
16  2  5
22  3  5
37  39  6
28  4  5
34  4  6
36  9  6

$$$$

