4235
  -OEChem-06251223583D

 35 36  0     0  0  0  0  0  0999 V2000
    6.7443    0.4910    0.9845 Cl  0  0  0  0  0  0  0  0  0  0  0  0
   -6.1249    0.3426    0.5229 O   0  0  0  0  0  0  0  0  0  0  0  0
    0.8312   -1.4493   -1.3648 O   0  0  0  0  0  0  0  0  0  0  0  0
   -3.3837   -0.2280    0.0109 N   0  0  0  0  0  0  0  0  0  0  0  0
    0.2245    0.5855   -0.4366 N   0  0  0  0  0  0  0  0  0  0  0  0
   -3.9304    1.1261   -0.1534 C   0  0  0  0  0  0  0  0  0  0  0  0
   -4.1413   -0.9554    1.0386 C   0  0  0  0  0  0  0  0  0  0  0  0
   -1.9637   -0.1762    0.3524 C   0  0  0  0  0  0  0  0  0  0  0  0
   -5.4153    1.0472   -0.4967 C   0  0  0  0  0  0  0  0  0  0  0  0
   -5.6209   -0.9858    0.6664 C   0  0  0  0  0  0  0  0  0  0  0  0
   -1.1912    0.5005   -0.7727 C   0  0  0  0  0  0  0  0  0  0  0  0
    1.1155   -0.4132   -0.7698 C   0  0  0  0  0  0  0  0  0  0  0  0
    2.5177   -0.1884   -0.3331 C   0  0  0  0  0  0  0  0  0  0  0  0
    3.3266   -1.2812   -0.1006 C   0  0  0  0  0  0  0  0  0  0  0  0
    2.9658    1.1066   -0.1735 C   0  0  0  0  0  0  0  0  0  0  0  0
    4.6429   -1.0697    0.3099 C   0  0  0  0  0  0  0  0  0  0  0  0
    4.2821    1.3179    0.2369 C   0  0  0  0  0  0  0  0  0  0  0  0
    5.1206    0.2298    0.4787 C   0  0  0  0  0  0  0  0  0  0  0  0
   -3.4656    1.6689   -0.9799 H   0  0  0  0  0  0  0  0  0  0  0  0
   -3.7964    1.7096    0.7666 H   0  0  0  0  0  0  0  0  0  0  0  0
   -4.0209   -0.4691    2.0155 H   0  0  0  0  0  0  0  0  0  0  0  0
   -3.7754   -1.9849    1.1241 H   0  0  0  0  0  0  0  0  0  0  0  0
   -1.7965    0.3539    1.2996 H   0  0  0  0  0  0  0  0  0  0  0  0
   -1.5761   -1.1943    0.4859 H   0  0  0  0  0  0  0  0  0  0  0  0
   -5.8383    2.0551   -0.5589 H   0  0  0  0  0  0  0  0  0  0  0  0
   -5.5825    0.5573   -1.4639 H   0  0  0  0  0  0  0  0  0  0  0  0
   -5.7936   -1.5453   -0.2611 H   0  0  0  0  0  0  0  0  0  0  0  0
   -6.1947   -1.4753    1.4599 H   0  0  0  0  0  0  0  0  0  0  0  0
   -1.3050   -0.0460   -1.7159 H   0  0  0  0  0  0  0  0  0  0  0  0
   -1.4828    1.5404   -0.9338 H   0  0  0  0  0  0  0  0  0  0  0  0
    0.5073    1.3785    0.1287 H   0  0  0  0  0  0  0  0  0  0  0  0
    2.9686   -2.2992   -0.2222 H   0  0  0  0  0  0  0  0  0  0  0  0
    2.3595    1.9808   -0.3862 H   0  0  0  0  0  0  0  0  0  0  0  0
    5.2848   -1.9271    0.4958 H   0  0  0  0  0  0  0  0  0  0  0  0
    4.6437    2.3361    0.3566 H   0  0  0  0  0  0  0  0  0  0  0  0
  1 18  1  0  0  0  0
  2  9  1  0  0  0  0
  2 10  1  0  0  0  0
  3 12  2  0  0  0  0
  4  6  1  0  0  0  0
  4  7  1  0  0  0  0
  4  8  1  0  0  0  0
  5 11  1  0  0  0  0
  5 12  1  0  0  0  0
  5 31  1  0  0  0  0
  6  9  1  0  0  0  0
  6 19  1  0  0  0  0
  6 20  1  0  0  0  0
  7 10  1  0  0  0  0
  7 21  1  0  0  0  0
  7 22  1  0  0  0  0
  8 11  1  0  0  0  0
  8 23  1  0  0  0  0
  8 24  1  0  0  0  0
  9 25  1  0  0  0  0
  9 26  1  0  0  0  0
 10 27  1  0  0  0  0
 10 28  1  0  0  0  0
 11 29  1  0  0  0  0
 11 30  1  0  0  0  0
 12 13  1  0  0  0  0
 13 14  2  0  0  0  0
 13 15  1  0  0  0  0
 14 16  1  0  0  0  0
 14 32  1  0  0  0  0
 15 17  2  0  0  0  0
 15 33  1  0  0  0  0
 16 18  2  0  0  0  0
 16 34  1  0  0  0  0
 17 18  1  0  0  0  0
 17 35  1  0  0  0  0
M  END
> <PUBCHEM_COMPOUND_CID>
4235

> <PUBCHEM_CONFORMER_RMSD>
0.8

> <PUBCHEM_CONFORMER_DIVERSEORDER>
2
8
18
3
10
15
7
1
9
4
6
11
16
13
19
5
17
14
12

> <PUBCHEM_MMFF94_PARTIAL_CHARGES>
23
1 -0.18
10 0.28
11 0.3
12 0.54
13 0.09
14 -0.15
15 -0.15
16 -0.15
17 -0.15
18 0.18
2 -0.56
3 -0.57
31 0.37
32 0.15
33 0.15
34 0.15
35 0.15
4 -0.81
5 -0.73
6 0.27
7 0.27
8 0.27
9 0.28

> <PUBCHEM_EFFECTIVE_ROTOR_COUNT>
6.2

> <PUBCHEM_PHARMACOPHORE_FEATURES>
6
1 2 acceptor
1 3 acceptor
1 4 cation
1 5 donor
6 13 14 15 16 17 18 rings
6 2 4 6 7 9 10 rings

> <PUBCHEM_HEAVY_ATOM_COUNT>
18

> <PUBCHEM_ATOM_DEF_STEREO_COUNT>
0

> <PUBCHEM_ATOM_UDEF_STEREO_COUNT>
0

> <PUBCHEM_BOND_DEF_STEREO_COUNT>
0

> <PUBCHEM_BOND_UDEF_STEREO_COUNT>
0

> <PUBCHEM_ISOTOPIC_ATOM_COUNT>
0

> <PUBCHEM_COMPONENT_COUNT>
1

> <PUBCHEM_CACTVS_TAUTO_COUNT>
2

> <PUBCHEM_CONFORMER_ID>
0000108B00000002

> <PUBCHEM_MMFF94_ENERGY>
35.721

> <PUBCHEM_FEATURE_SELFOVERLAP>
30.446

> <PUBCHEM_SHAPE_FINGERPRINT>
10 15 18411145702098787016
10354089 29 18334013887536334512
106641 1 18334859368253110938
10688039 33 18343021120539826172
11045977 3 18341610395565087418
11287383 113 18412260627709813417
11315181 36 17561080289889889245
11724838 91 18114750343180860550
117890 112 18260546762124799241
12107183 9 17620758718296013329
12236239 1 16298107600800527661
12507557 5 18334576828256606937
12596602 18 18272937124256095816
12670543 26 8862950484966829352
12916748 109 5256405002592264511
13403585 85 18342178881969132645
13533116 47 16226042345184846998
13631057 29 16733845081918860671
14251752 14 8862949368312483040
14251764 18 17775567516388405048
14341114 176 18409727383073794252
14528608 73 6194838168240574041
14848160 23 18131070433190376203
15183329 4 9511472121110808823
15188451 53 17417529103987210283
15348495 7 18272087141358759721
15475509 35 16988020392029445608
17834072 8 9655579612668489304
17844677 252 18131344215770403349
18222031 100 14836406926151239726
19489759 90 17775567542242741257
19784866 140 11240005554812275869
20281389 69 15357696405434084418
20369508 70 12679177189913430726
204376 136 17603584127769446143
21150785 3 14345802625808351877
21267235 1 18336827598369969158
22224240 67 18186806854792395886
23402539 116 18060142033462659501
23402655 69 8718831976527832332
23559900 14 18272931617759972424
23590187 198 16271926000213779107
239999 70 18412257363925474382
26918003 58 18343582940826346345
2767999 5 16950565480029424729
300161 21 17822015306465760775
351380 180 18413670210074694489
351380 3 14333410042761803913
3545911 37 18187082854181280062
4214541 1 18201999949984279437
4340502 62 18273218595270330114
5104073 3 18264486354883164897
542803 24 14706927345483669585
559249 180 16702023076395684403
5924683 9 18337953364626884671

> <PUBCHEM_SHAPE_MULTIPOLES>
350.6
16.89
1.35
0.97
4.62
0.05
-0.05
-1.2
5.72
-0.02
-0.05
-0.11
0.16
0.94

> <PUBCHEM_SHAPE_SELFOVERLAP>
715.826

> <PUBCHEM_SHAPE_VOLUME>
203.7

> <PUBCHEM_COORDINATE_TYPE>
2
5
10

$$$$

