5211
  -OEChem-06261200352D

 58 62  0     1  0  0  0  0  0999 V2000
    5.6451    1.9650    0.0000 O   0  0  0  0  0  0  0  0  0  0  0  0
    5.6829   -1.0953    0.0000 O   0  0  0  0  0  0  0  0  0  0  0  0
    3.8194   -1.1473    0.0000 O   0  0  0  0  0  0  0  0  0  0  0  0
    7.4051   -0.0696    0.0000 C   0  0  3  0  0  0  0  0  0  0  0  0
    8.2711    0.4304    0.0000 C   0  0  3  0  0  0  0  0  0  0  0  0
    6.5390    0.4304    0.0000 C   0  0  3  0  0  0  0  0  0  0  0  0
    6.5390    1.4304    0.0000 C   0  0  3  0  0  0  0  0  0  0  0  0
    9.6824   -0.1467    0.0000 C   0  0  0  0  0  0  0  0  0  0  0  0
    7.1992   -1.5804    0.0000 C   0  0  0  0  0  0  0  0  0  0  0  0
    8.2711    1.4304    0.0000 C   0  0  0  0  0  0  0  0  0  0  0  0
    7.4063   -1.0613    0.0000 C   0  0  0  0  0  0  0  0  0  0  0  0
    7.4051    1.9304    0.0000 C   0  0  0  0  0  0  0  0  0  0  0  0
    5.6451   -0.1043    0.0000 C   0  0  3  0  0  0  0  0  0  0  0  0
    9.7856   -1.6680    0.0000 C   0  0  0  0  0  0  0  0  0  0  0  0
    8.4651   -2.4304    0.0000 C   0  0  0  0  0  0  0  0  0  0  0  0
    6.5543   -1.5688    0.0000 C   0  0  0  0  0  0  0  0  0  0  0  0
    6.5390    2.4304    0.0000 C   0  0  0  0  0  0  0  0  0  0  0  0
   10.6773   -0.0454    0.0000 C   0  0  0  0  0  0  0  0  0  0  0  0
   10.0920    0.7655    0.0000 C   0  0  0  0  0  0  0  0  0  0  0  0
    4.7390    0.4096    0.0000 C   0  0  0  0  0  0  0  0  0  0  0  0
    4.7390    1.4512    0.0000 C   0  0  0  0  0  0  0  0  0  0  0  0
    3.8079   -0.1474    0.0000 C   0  0  0  0  0  0  0  0  0  0  0  0
    3.8079    2.0081    0.0000 C   0  0  0  0  0  0  0  0  0  0  0  0
    2.8641    0.3879    0.0000 C   0  0  0  0  0  0  0  0  0  0  0  0
    2.8641    1.4729    0.0000 C   0  0  0  0  0  0  0  0  0  0  0  0
    2.0000    1.9762    0.0000 C   0  0  0  0  0  0  0  0  0  0  0  0
    8.7858    0.7760    0.0000 H   0  0  0  0  0  0  0  0  0  0  0  0
    5.9997    0.7362    0.0000 H   0  0  0  0  0  0  0  0  0  0  0  0
    6.6046   -1.4047    0.0000 H   0  0  0  0  0  0  0  0  0  0  0  0
    6.9355   -2.1415    0.0000 H   0  0  0  0  0  0  0  0  0  0  0  0
    8.8817    1.3227    0.0000 H   0  0  0  0  0  0  0  0  0  0  0  0
    8.4832    2.0130    0.0000 H   0  0  0  0  0  0  0  0  0  0  0  0
    7.6239   -1.6419    0.0000 H   0  0  0  0  0  0  0  0  0  0  0  0
    8.0163   -0.9504    0.0000 H   0  0  0  0  0  0  0  0  0  0  0  0
    7.8036    2.4053    0.0000 H   0  0  0  0  0  0  0  0  0  0  0  0
    7.0065    2.4053    0.0000 H   0  0  0  0  0  0  0  0  0  0  0  0
    5.1154   -0.4265    0.0000 H   0  0  0  0  0  0  0  0  0  0  0  0
   10.0107   -2.2457    0.0000 H   0  0  0  0  0  0  0  0  0  0  0  0
   10.3907   -1.5329    0.0000 H   0  0  0  0  0  0  0  0  0  0  0  0
    8.0455   -2.8869    0.0000 H   0  0  0  0  0  0  0  0  0  0  0  0
    8.8528   -2.9142    0.0000 H   0  0  0  0  0  0  0  0  0  0  0  0
    6.1662   -2.0523    0.0000 H   0  0  0  0  0  0  0  0  0  0  0  0
    6.9611   -2.0366    0.0000 H   0  0  0  0  0  0  0  0  0  0  0  0
    7.1590    2.4304    0.0000 H   0  0  0  0  0  0  0  0  0  0  0  0
    6.5390    3.0504    0.0000 H   0  0  0  0  0  0  0  0  0  0  0  0
    5.9191    2.4304    0.0000 H   0  0  0  0  0  0  0  0  0  0  0  0
   10.7401   -0.6622    0.0000 H   0  0  0  0  0  0  0  0  0  0  0  0
   11.2941    0.0175    0.0000 H   0  0  0  0  0  0  0  0  0  0  0  0
   10.6144    0.5714    0.0000 H   0  0  0  0  0  0  0  0  0  0  0  0
   10.6576    0.5115    0.0000 H   0  0  0  0  0  0  0  0  0  0  0  0
   10.3460    1.3311    0.0000 H   0  0  0  0  0  0  0  0  0  0  0  0
    9.5264    1.0195    0.0000 H   0  0  0  0  0  0  0  0  0  0  0  0
    3.8150    2.6281    0.0000 H   0  0  0  0  0  0  0  0  0  0  0  0
    2.3284    0.0758    0.0000 H   0  0  0  0  0  0  0  0  0  0  0  0
    3.2861   -1.4635    0.0000 H   0  0  0  0  0  0  0  0  0  0  0  0
    2.3121    2.5120    0.0000 H   0  0  0  0  0  0  0  0  0  0  0  0
    1.4643    2.2883    0.0000 H   0  0  0  0  0  0  0  0  0  0  0  0
    1.6879    1.4405    0.0000 H   0  0  0  0  0  0  0  0  0  0  0  0
  1  7  1  0  0  0  0
  1 21  1  0  0  0  0
  2 13  1  0  0  0  0
  2 16  1  0  0  0  0
  3 22  1  0  0  0  0
  3 55  1  0  0  0  0
  4  5  1  0  0  0  0
  4  6  1  0  0  0  0
  4  9  1  0  0  0  0
  4 11  1  0  0  0  0
  5  8  1  0  0  0  0
  5 10  1  0  0  0  0
  5 27  1  0  0  0  0
  6  7  1  0  0  0  0
  6 13  1  0  0  0  0
  6 28  1  0  0  0  0
  7 12  1  0  0  0  0
  7 17  1  0  0  0  0
  8 14  1  0  0  0  0
  8 18  1  0  0  0  0
  8 19  1  0  0  0  0
  9 15  1  0  0  0  0
  9 29  1  0  0  0  0
  9 30  1  0  0  0  0
 10 12  1  0  0  0  0
 10 31  1  0  0  0  0
 10 32  1  0  0  0  0
 11 16  1  0  0  0  0
 11 33  1  0  0  0  0
 11 34  1  0  0  0  0
 12 35  1  0  0  0  0
 12 36  1  0  0  0  0
 13 20  1  0  0  0  0
 13 37  1  0  0  0  0
 14 15  1  0  0  0  0
 14 38  1  0  0  0  0
 14 39  1  0  0  0  0
 15 40  1  0  0  0  0
 15 41  1  0  0  0  0
 16 42  1  0  0  0  0
 16 43  1  0  0  0  0
 17 44  1  0  0  0  0
 17 45  1  0  0  0  0
 17 46  1  0  0  0  0
 18 47  1  0  0  0  0
 18 48  1  0  0  0  0
 18 49  1  0  0  0  0
 19 50  1  0  0  0  0
 19 51  1  0  0  0  0
 19 52  1  0  0  0  0
 20 21  1  0  0  0  0
 20 22  2  0  0  0  0
 21 23  2  0  0  0  0
 22 24  1  0  0  0  0
 23 25  1  0  0  0  0
 23 53  1  0  0  0  0
 24 25  2  0  0  0  0
 24 54  1  0  0  0  0
 25 26  1  0  0  0  0
 26 56  1  0  0  0  0
 26 57  1  0  0  0  0
 26 58  1  0  0  0  0
M  END
> <PUBCHEM_COMPOUND_CID>
5211

> <PUBCHEM_COMPOUND_CANONICALIZED>
1

> <PUBCHEM_CACTVS_COMPLEXITY>
574

> <PUBCHEM_CACTVS_HBOND_ACCEPTOR>
3

> <PUBCHEM_CACTVS_HBOND_DONOR>
1

> <PUBCHEM_CACTVS_ROTATABLE_BOND>
0

> <PUBCHEM_CACTVS_SUBSKEYS>
AAADcfB4MAAAAAAAAAAAAAAAAAAAAAAAAAA0aMECAAAAAADRAAAAGgAACAAAD1SgmAIyBoAABgCAAiBCAAACCAAgIAAAiAAGCIgMJyKGMRqCeCClwBUIuAeA4PwPwAABCAAIAADAAAYQADAAAAAAAAAAAA==

> <PUBCHEM_IUPAC_INCHI>
InChI=1S/C23H32O3/c1-14-12-15(24)18-16(13-14)26-22(4)9-6-17-21(2,3)7-5-8-23(17)10-11-25-19(18)20(22)23/h12-13,17,19-20,24H,5-11H2,1-4H3

> <PUBCHEM_IUPAC_INCHIKEY>
VGKYOMHRAZBGRC-UHFFFAOYSA-N

> <PUBCHEM_XLOGP3_AA>
5.4

> <PUBCHEM_EXACT_MASS>
356.235145

> <PUBCHEM_MOLECULAR_FORMULA>
C23H32O3

> <PUBCHEM_MOLECULAR_WEIGHT>
356.49838

> <PUBCHEM_OPENEYE_CAN_SMILES>
CC1=CC2=C(C3C4C(O2)(CCC5C4(CCCC5(C)C)CCO3)C)C(=C1)O

> <PUBCHEM_OPENEYE_ISO_SMILES>
CC1=CC2=C(C3C4C(O2)(CCC5C4(CCCC5(C)C)CCO3)C)C(=C1)O

> <PUBCHEM_CACTVS_TPSA>
38.7

> <PUBCHEM_MONOISOTOPIC_WEIGHT>
356.235145

> <PUBCHEM_TOTAL_CHARGE>
0

> <PUBCHEM_HEAVY_ATOM_COUNT>
26

> <PUBCHEM_ATOM_DEF_STEREO_COUNT>
0

> <PUBCHEM_ATOM_UDEF_STEREO_COUNT>
5

> <PUBCHEM_BOND_DEF_STEREO_COUNT>
0

> <PUBCHEM_BOND_UDEF_STEREO_COUNT>
0

> <PUBCHEM_ISOTOPIC_ATOM_COUNT>
0

> <PUBCHEM_COMPONENT_COUNT>
1

> <PUBCHEM_CACTVS_TAUTO_COUNT>
9

> <PUBCHEM_COORDINATE_TYPE>
1
5
255

> <PUBCHEM_BONDANNOTATIONS>
13  2  3
20  21  8
20  22  8
21  23  8
22  24  8
23  25  8
24  25  8
4  9  3
5  10  3
6  13  3
7  17  3

$$$$

