227054
  -OEChem-07051213073D

 50 53  0     1  0  0  0  0  0999 V2000
   -5.0298   -0.9636    0.0829 O   0  0  0  0  0  0  0  0  0  0  0  0
    5.8728    0.0616   -0.7896 O   0  0  0  0  0  0  0  0  0  0  0  0
   -2.6083   -0.5213    0.1750 C   0  0  1  0  0  0  0  0  0  0  0  0
   -1.8169    0.7708   -0.1461 C   0  0  2  0  0  0  0  0  0  0  0  0
   -0.4206    0.7771    0.4937 C   0  0  1  0  0  0  0  0  0  0  0  0
    0.3784   -0.4352   -0.0861 C   0  0  2  0  0  0  0  0  0  0  0  0
   -3.9788   -0.1911   -0.4933 C   0  0  2  0  0  0  0  0  0  0  0  0
   -1.8247   -1.7196   -0.3900 C   0  0  0  0  0  0  0  0  0  0  0  0
   -2.8005    1.8811    0.2139 C   0  0  0  0  0  0  0  0  0  0  0  0
   -0.3772   -1.7679    0.1404 C   0  0  0  0  0  0  0  0  0  0  0  0
    1.8772   -0.4217    0.3860 C   0  0  2  0  0  0  0  0  0  0  0  0
   -4.1826    1.3111   -0.1575 C   0  0  0  0  0  0  0  0  0  0  0  0
   -2.8246   -0.7552    1.7005 C   0  0  0  0  0  0  0  0  0  0  0  0
    0.3342    2.0607    0.2713 C   0  0  0  0  0  0  0  0  0  0  0  0
    2.5049    0.9247   -0.0063 C   0  0  0  0  0  0  0  0  0  0  0  0
   -4.0439   -0.4216   -2.0085 C   0  0  0  0  0  0  0  0  0  0  0  0
    2.6548   -1.5637   -0.3216 C   0  0  0  0  0  0  0  0  0  0  0  0
    1.9938   -0.6010    1.9181 C   0  0  0  0  0  0  0  0  0  0  0  0
    1.6527    2.1048    0.0366 C   0  0  0  0  0  0  0  0  0  0  0  0
    4.1638   -1.4763   -0.1312 C   0  0  0  0  0  0  0  0  0  0  0  0
    3.7814    1.0558   -0.4053 C   0  0  0  0  0  0  0  0  0  0  0  0
    4.6938   -0.1096   -0.4829 C   0  0  0  0  0  0  0  0  0  0  0  0
   -1.6625    0.8380   -1.2341 H   0  0  0  0  0  0  0  0  0  0  0  0
   -0.5310    0.6762    1.5784 H   0  0  0  0  0  0  0  0  0  0  0  0
    0.4038   -0.3023   -1.1815 H   0  0  0  0  0  0  0  0  0  0  0  0
   -1.7692   -1.6620   -1.4835 H   0  0  0  0  0  0  0  0  0  0  0  0
   -2.3359   -2.6604   -0.1537 H   0  0  0  0  0  0  0  0  0  0  0  0
   -2.5957    2.8045   -0.3375 H   0  0  0  0  0  0  0  0  0  0  0  0
   -2.7619    2.1206    1.2825 H   0  0  0  0  0  0  0  0  0  0  0  0
   -0.3782   -2.0332    1.2020 H   0  0  0  0  0  0  0  0  0  0  0  0
    0.1343   -2.5844   -0.3807 H   0  0  0  0  0  0  0  0  0  0  0  0
   -4.8831    1.4642    0.6715 H   0  0  0  0  0  0  0  0  0  0  0  0
   -4.5946    1.8579   -1.0138 H   0  0  0  0  0  0  0  0  0  0  0  0
   -1.8876   -0.8307    2.2578 H   0  0  0  0  0  0  0  0  0  0  0  0
   -3.4027    0.0458    2.1721 H   0  0  0  0  0  0  0  0  0  0  0  0
   -3.3630   -1.6942    1.8754 H   0  0  0  0  0  0  0  0  0  0  0  0
   -0.2110    2.9985    0.3276 H   0  0  0  0  0  0  0  0  0  0  0  0
   -5.0222   -0.1139   -2.3970 H   0  0  0  0  0  0  0  0  0  0  0  0
   -3.2766    0.1295   -2.5585 H   0  0  0  0  0  0  0  0  0  0  0  0
   -3.9529   -1.4870   -2.2467 H   0  0  0  0  0  0  0  0  0  0  0  0
    2.4400   -1.5381   -1.3991 H   0  0  0  0  0  0  0  0  0  0  0  0
    2.3220   -2.5436    0.0405 H   0  0  0  0  0  0  0  0  0  0  0  0
    3.0316   -0.5161    2.2597 H   0  0  0  0  0  0  0  0  0  0  0  0
    1.4287    0.1550    2.4719 H   0  0  0  0  0  0  0  0  0  0  0  0
    1.6301   -1.5846    2.2332 H   0  0  0  0  0  0  0  0  0  0  0  0
    2.1171    3.0742   -0.1266 H   0  0  0  0  0  0  0  0  0  0  0  0
   -5.2319   -0.6215    0.9692 H   0  0  0  0  0  0  0  0  0  0  0  0
    4.6467   -2.2111   -0.7852 H   0  0  0  0  0  0  0  0  0  0  0  0
    4.4507   -1.7036    0.9003 H   0  0  0  0  0  0  0  0  0  0  0  0
    4.2039    2.0165   -0.6841 H   0  0  0  0  0  0  0  0  0  0  0  0
  1  7  1  0  0  0  0
  1 47  1  0  0  0  0
  2 22  2  0  0  0  0
  3  4  1  0  0  0  0
  3  7  1  0  0  0  0
  3  8  1  0  0  0  0
  3 13  1  0  0  0  0
  4  5  1  0  0  0  0
  4  9  1  0  0  0  0
  4 23  1  0  0  0  0
  5  6  1  0  0  0  0
  5 14  1  0  0  0  0
  5 24  1  0  0  0  0
  6 10  1  0  0  0  0
  6 11  1  0  0  0  0
  6 25  1  0  0  0  0
  7 12  1  0  0  0  0
  7 16  1  0  0  0  0
  8 10  1  0  0  0  0
  8 26  1  0  0  0  0
  8 27  1  0  0  0  0
  9 12  1  0  0  0  0
  9 28  1  0  0  0  0
  9 29  1  0  0  0  0
 10 30  1  0  0  0  0
 10 31  1  0  0  0  0
 11 15  1  0  0  0  0
 11 17  1  0  0  0  0
 11 18  1  0  0  0  0
 12 32  1  0  0  0  0
 12 33  1  0  0  0  0
 13 34  1  0  0  0  0
 13 35  1  0  0  0  0
 13 36  1  0  0  0  0
 14 19  2  0  0  0  0
 14 37  1  0  0  0  0
 15 19  1  0  0  0  0
 15 21  2  0  0  0  0
 16 38  1  0  0  0  0
 16 39  1  0  0  0  0
 16 40  1  0  0  0  0
 17 20  1  0  0  0  0
 17 41  1  0  0  0  0
 17 42  1  0  0  0  0
 18 43  1  0  0  0  0
 18 44  1  0  0  0  0
 18 45  1  0  0  0  0
 19 46  1  0  0  0  0
 20 22  1  0  0  0  0
 20 48  1  0  0  0  0
 20 49  1  0  0  0  0
 21 22  1  0  0  0  0
 21 50  1  0  0  0  0
M  END
> <PUBCHEM_COMPOUND_CID>
227054

> <PUBCHEM_CONFORMER_RMSD>
0.6

> <PUBCHEM_CONFORMER_DIVERSEORDER>
1

> <PUBCHEM_MMFF94_PARTIAL_CHARGES>
15
1 -0.68
11 0.14
14 -0.29
15 -0.14
19 -0.15
2 -0.57
20 0.06
21 -0.14
22 0.49
37 0.15
46 0.15
47 0.4
5 0.14
50 0.15
7 0.28

> <PUBCHEM_EFFECTIVE_ROTOR_COUNT>
1.4

> <PUBCHEM_PHARMACOPHORE_FEATURES>
7
1 1 acceptor
1 1 donor
1 2 acceptor
5 3 4 7 9 12 rings
6 11 15 17 20 21 22 rings
6 3 4 5 6 8 10 rings
6 5 6 11 14 15 19 rings

> <PUBCHEM_HEAVY_ATOM_COUNT>
22

> <PUBCHEM_ATOM_DEF_STEREO_COUNT>
6

> <PUBCHEM_ATOM_UDEF_STEREO_COUNT>
0

> <PUBCHEM_BOND_DEF_STEREO_COUNT>
0

> <PUBCHEM_BOND_UDEF_STEREO_COUNT>
0

> <PUBCHEM_ISOTOPIC_ATOM_COUNT>
0

> <PUBCHEM_COMPONENT_COUNT>
1

> <PUBCHEM_CACTVS_TAUTO_COUNT>
2

> <PUBCHEM_CONFORMER_ID>
000376EE00000001

> <PUBCHEM_MMFF94_ENERGY>
78.0788

> <PUBCHEM_FEATURE_SELFOVERLAP>
35.613

> <PUBCHEM_SHAPE_FINGERPRINT>
10062212 137 18186808006344329973
10366900 7 17632580422641764201
10498660 4 17346891056416451837
10967382 1 18410012113255952672
12011746 2 18413673513062800925
12236239 1 18060701710714388946
12403259 415 18113345214818579641
12553582 1 18336555953328245825
12788726 201 18191306198075963384
13140716 1 17905895777228111353
13221675 6 18413107238656901810
13224815 77 18131635581971802777
13288520 33 18187642509388474189
13583140 156 16988560182427208923
13862211 1 18409168827130652478
14790565 3 17616244127684834361
15099037 51 18410575097574406695
15196674 1 18410291445096821060
15209294 21 12031792495646828415
15536298 74 18333735684850203192
15788980 27 18040152924643422220
16752209 62 18337118946326415697
16945 1 18337111142302215089
17349148 13 18040439888388032951
18186145 218 17847065501546024305
19862831 5 18343022189933012796
200 152 18186801382982617424
20645477 70 18340489971699420436
20775438 99 16815500175174105799
20871999 31 18411419535452795980
21033648 29 17917443003383960525
21267235 1 18409156706163211486
221357 26 18410298003960392125
221490 88 18268423534244539994
22393880 68 18342188755956112341
231179 274 17418100914204520068
23402539 116 18333733550325069844
23493267 7 18131630084218583051
23559900 14 18260838055317900280
296302 2 15482672385614284424
3004659 81 18272085059186090942
335352 9 18337670952639915421
34934 24 18411141320936414202
350125 39 18409444817555698889
4214541 1 18410009957267019485
4280585 95 17396972931079591830
4340502 62 16487245608164044568
474 4 17417803990536602436
4921388 177 16486960766122773953
5104073 3 18410011060999567536
633830 44 18271528692847536295
7364860 26 18189340078407246280
9709674 26 18339645516846844811
9981440 41 17261027724156762736

> <PUBCHEM_SHAPE_MULTIPOLES>
441.01
9.92
2.02
1.19
3.08
0.45
0.16
-0.89
-2.84
0.01
0.04
-0.6
-0.29
-0.15

> <PUBCHEM_SHAPE_SELFOVERLAP>
952.653

> <PUBCHEM_SHAPE_VOLUME>
241.5

> <PUBCHEM_COORDINATE_TYPE>
2
5
10

$$$$

