12061
  -OEChem-06261206272D

 23 21  0     0  0  0  0  0  0999 V2000
    0.0000    3.4650    0.0000 Cl  0  5  0  0  0  0  0  0  0  0  0  0
    4.6835    0.0000    0.0000 Cl  0  5  0  0  0  0  0  0  0  0  0  0
    6.5010    2.8100    0.0000 O   0  0  0  0  0  0  0  0  0  0  0  0
    7.3671    4.3100    0.0000 O   0  0  0  0  0  0  0  0  0  0  0  0
    4.7690    6.8100    0.0000 N   0  3  0  0  0  0  0  0  0  0  0  0
    3.0369    3.8100    0.0000 N   0  3  0  0  0  0  0  0  0  0  0  0
    4.7690    5.8100    0.0000 C   0  0  0  0  0  0  0  0  0  0  0  0
    3.9030    4.3100    0.0000 C   0  0  0  0  0  0  0  0  0  0  0  0
    3.9030    5.3100    0.0000 C   0  0  0  0  0  0  0  0  0  0  0  0
    5.6350    4.3100    0.0000 C   0  0  0  0  0  0  0  0  0  0  0  0
    5.6350    5.3100    0.0000 C   0  0  0  0  0  0  0  0  0  0  0  0
    4.7690    3.8100    0.0000 C   0  0  0  0  0  0  0  0  0  0  0  0
    6.5010    3.8100    0.0000 C   0  0  0  0  0  0  0  0  0  0  0  0
    3.3660    5.6200    0.0000 H   0  0  0  0  0  0  0  0  0  0  0  0
    6.1720    5.6200    0.0000 H   0  0  0  0  0  0  0  0  0  0  0  0
    4.7690    3.1900    0.0000 H   0  0  0  0  0  0  0  0  0  0  0  0
    4.7690    7.4300    0.0000 H   0  0  0  0  0  0  0  0  0  0  0  0
    5.3890    6.8100    0.0000 H   0  0  0  0  0  0  0  0  0  0  0  0
    4.1490    6.8100    0.0000 H   0  0  0  0  0  0  0  0  0  0  0  0
    2.5000    3.5000    0.0000 H   0  0  0  0  0  0  0  0  0  0  0  0
    3.3469    3.2731    0.0000 H   0  0  0  0  0  0  0  0  0  0  0  0
    2.7269    4.3469    0.0000 H   0  0  0  0  0  0  0  0  0  0  0  0
    7.0380    2.5000    0.0000 H   0  0  0  0  0  0  0  0  0  0  0  0
  3 13  1  0  0  0  0
  3 23  1  0  0  0  0
  4 13  2  0  0  0  0
  5  7  1  0  0  0  0
  5 17  1  0  0  0  0
  5 18  1  0  0  0  0
  5 19  1  0  0  0  0
  6  8  1  0  0  0  0
  6 20  1  0  0  0  0
  6 21  1  0  0  0  0
  6 22  1  0  0  0  0
  7  9  2  0  0  0  0
  7 11  1  0  0  0  0
  8  9  1  0  0  0  0
  8 12  2  0  0  0  0
  9 14  1  0  0  0  0
 10 11  2  0  0  0  0
 10 12  1  0  0  0  0
 10 13  1  0  0  0  0
 11 15  1  0  0  0  0
 12 16  1  0  0  0  0
M  CHG  4   1  -1   2  -1   5   1   6   1
M  END
> <PUBCHEM_COMPOUND_CID>
12061

> <PUBCHEM_COMPOUND_CANONICALIZED>
1

> <PUBCHEM_CACTVS_COMPLEXITY>
151

> <PUBCHEM_CACTVS_HBOND_ACCEPTOR>
4

> <PUBCHEM_CACTVS_HBOND_DONOR>
3

> <PUBCHEM_CACTVS_ROTATABLE_BOND>
1

> <PUBCHEM_CACTVS_SUBSKEYS>
AAADccBjMAAGAAAAAAAAAAAAAAAAAAAAAAAwAAAAAAAAAAABAAAAHgAQCAAADAiBmAAwyIBAAgCIAiTSSACCAAAkAgAAiAEAbMgIJjKA1dGAcQBk0AEI2Ye8yCCOAAAAQAQAAAAAAACACAAAAAAAAAAAAA==

> <PUBCHEM_IUPAC_OPENEYE_NAME>
(3-azaniumyl-5-carboxy-phenyl)ammonium dichloride

> <PUBCHEM_IUPAC_CAS_NAME>
(3-ammonio-5-carboxyphenyl)ammonium dichloride

> <PUBCHEM_IUPAC_NAME>
(3-azaniumyl-5-carboxyphenyl)azanium dichloride

> <PUBCHEM_IUPAC_SYSTEMATIC_NAME>
(3-azaniumyl-5-carboxy-phenyl)azanium dichloride

> <PUBCHEM_IUPAC_TRADITIONAL_NAME>
(3-ammonio-5-carboxy-phenyl)ammonium dichloride

> <PUBCHEM_IUPAC_INCHI>
InChI=1S/C7H8N2O2.2ClH/c8-5-1-4(7(10)11)2-6(9)3-5;;/h1-3H,8-9H2,(H,10,11);2*1H

> <PUBCHEM_IUPAC_INCHIKEY>
IGPLRBRBTUNCRT-UHFFFAOYSA-N

> <PUBCHEM_EXACT_MASS>
224.011933

> <PUBCHEM_MOLECULAR_FORMULA>
C7H10Cl2N2O2

> <PUBCHEM_MOLECULAR_WEIGHT>
225.0725

> <PUBCHEM_OPENEYE_CAN_SMILES>
C1=C(C=C(C=C1[NH3+])[NH3+])C(=O)O.[Cl-].[Cl-]

> <PUBCHEM_OPENEYE_ISO_SMILES>
C1=C(C=C(C=C1[NH3+])[NH3+])C(=O)O.[Cl-].[Cl-]

> <PUBCHEM_CACTVS_TPSA>
92.6

> <PUBCHEM_MONOISOTOPIC_WEIGHT>
224.011933

> <PUBCHEM_TOTAL_CHARGE>
0

> <PUBCHEM_HEAVY_ATOM_COUNT>
13

> <PUBCHEM_ATOM_DEF_STEREO_COUNT>
0

> <PUBCHEM_ATOM_UDEF_STEREO_COUNT>
0

> <PUBCHEM_BOND_DEF_STEREO_COUNT>
0

> <PUBCHEM_BOND_UDEF_STEREO_COUNT>
0

> <PUBCHEM_ISOTOPIC_ATOM_COUNT>
0

> <PUBCHEM_COMPONENT_COUNT>
3

> <PUBCHEM_CACTVS_TAUTO_COUNT>
1

> <PUBCHEM_COORDINATE_TYPE>
1
5
255

> <PUBCHEM_BONDANNOTATIONS>
10  11  8
10  12  8
7  11  8
7  9  8
8  12  8
8  9  8

$$$$

