11954157
  -OEChem-07051213073D

 45 48  0     1  0  0  0  0  0999 V2000
   -4.9974   -1.2327   -0.1923 O   0  0  0  0  0  0  0  0  0  0  0  0
    5.7502    0.2375    0.4209 O   0  0  0  0  0  0  0  0  0  0  0  0
   -2.1257    0.7179   -0.3275 C   0  0  2  0  0  0  0  0  0  0  0  0
   -2.7274   -0.5370    0.3390 C   0  0  2  0  0  0  0  0  0  0  0  0
   -0.6581    0.8985    0.0566 C   0  0  1  0  0  0  0  0  0  0  0  0
    0.1411   -0.3298   -0.4796 C   0  0  2  0  0  0  0  0  0  0  0  0
   -2.0110   -1.7570   -0.2298 C   0  0  0  0  0  0  0  0  0  0  0  0
   -3.1362    1.8194   -0.0286 C   0  0  0  0  0  0  0  0  0  0  0  0
   -0.4890   -1.6679   -0.0038 C   0  0  0  0  0  0  0  0  0  0  0  0
   -0.0465    2.1773   -0.5172 C   0  0  0  0  0  0  0  0  0  0  0  0
   -4.1719   -0.3360   -0.0815 C   0  0  0  0  0  0  0  0  0  0  0  0
   -4.4798    1.1332   -0.3175 C   0  0  0  0  0  0  0  0  0  0  0  0
    1.6343   -0.1816   -0.2013 C   0  0  0  0  0  0  0  0  0  0  0  0
   -2.7164   -0.5569    1.8788 C   0  0  0  0  0  0  0  0  0  0  0  0
    1.3729    2.3560    0.0137 C   0  0  0  0  0  0  0  0  0  0  0  0
    2.2046    1.0968   -0.0145 C   0  0  0  0  0  0  0  0  0  0  0  0
    2.4911   -1.2967   -0.2114 C   0  0  0  0  0  0  0  0  0  0  0  0
    3.5878    1.2211    0.2061 C   0  0  0  0  0  0  0  0  0  0  0  0
    3.8645   -1.1580    0.0007 C   0  0  0  0  0  0  0  0  0  0  0  0
    4.4126    0.1001    0.2140 C   0  0  0  0  0  0  0  0  0  0  0  0
    2.1005   -2.7041   -0.5247 C   0  0  0  0  0  0  0  0  0  0  0  0
   -2.1532    0.5840   -1.4230 H   0  0  0  0  0  0  0  0  0  0  0  0
   -0.5674    0.9499    1.1493 H   0  0  0  0  0  0  0  0  0  0  0  0
    0.0556   -0.3247   -1.5776 H   0  0  0  0  0  0  0  0  0  0  0  0
   -2.2138   -1.8413   -1.3060 H   0  0  0  0  0  0  0  0  0  0  0  0
   -2.3986   -2.6793    0.2203 H   0  0  0  0  0  0  0  0  0  0  0  0
   -3.0016    2.6990   -0.6657 H   0  0  0  0  0  0  0  0  0  0  0  0
   -3.0783    2.1507    1.0137 H   0  0  0  0  0  0  0  0  0  0  0  0
   -0.2549   -1.8502    1.0511 H   0  0  0  0  0  0  0  0  0  0  0  0
   -0.1502   -2.5176   -0.5857 H   0  0  0  0  0  0  0  0  0  0  0  0
   -0.6381    3.0581   -0.2441 H   0  0  0  0  0  0  0  0  0  0  0  0
   -0.0324    2.1291   -1.6137 H   0  0  0  0  0  0  0  0  0  0  0  0
   -4.7745    1.2688   -1.3621 H   0  0  0  0  0  0  0  0  0  0  0  0
   -5.2637    1.4834    0.3574 H   0  0  0  0  0  0  0  0  0  0  0  0
   -1.7059   -0.5512    2.2958 H   0  0  0  0  0  0  0  0  0  0  0  0
   -3.2566    0.2915    2.3122 H   0  0  0  0  0  0  0  0  0  0  0  0
   -3.2151   -1.4611    2.2489 H   0  0  0  0  0  0  0  0  0  0  0  0
    1.3232    2.7018    1.0542 H   0  0  0  0  0  0  0  0  0  0  0  0
    1.8682    3.1413   -0.5701 H   0  0  0  0  0  0  0  0  0  0  0  0
    4.0159    2.2080    0.3706 H   0  0  0  0  0  0  0  0  0  0  0  0
    4.5301   -2.0185   -0.0055 H   0  0  0  0  0  0  0  0  0  0  0  0
    1.5693   -3.1710    0.3089 H   0  0  0  0  0  0  0  0  0  0  0  0
    1.5655   -2.7596   -1.4777 H   0  0  0  0  0  0  0  0  0  0  0  0
    2.9782   -3.3445   -0.6864 H   0  0  0  0  0  0  0  0  0  0  0  0
    5.9548    1.1798    0.5487 H   0  0  0  0  0  0  0  0  0  0  0  0
  1 11  2  0  0  0  0
  2 20  1  0  0  0  0
  2 45  1  0  0  0  0
  3  4  1  0  0  0  0
  3  5  1  0  0  0  0
  3  8  1  0  0  0  0
  3 22  1  0  0  0  0
  4  7  1  0  0  0  0
  4 11  1  0  0  0  0
  4 14  1  0  0  0  0
  5  6  1  0  0  0  0
  5 10  1  0  0  0  0
  5 23  1  0  0  0  0
  6  9  1  0  0  0  0
  6 13  1  0  0  0  0
  6 24  1  0  0  0  0
  7  9  1  0  0  0  0
  7 25  1  0  0  0  0
  7 26  1  0  0  0  0
  8 12  1  0  0  0  0
  8 27  1  0  0  0  0
  8 28  1  0  0  0  0
  9 29  1  0  0  0  0
  9 30  1  0  0  0  0
 10 15  1  0  0  0  0
 10 31  1  0  0  0  0
 10 32  1  0  0  0  0
 11 12  1  0  0  0  0
 12 33  1  0  0  0  0
 12 34  1  0  0  0  0
 13 16  2  0  0  0  0
 13 17  1  0  0  0  0
 14 35  1  0  0  0  0
 14 36  1  0  0  0  0
 14 37  1  0  0  0  0
 15 16  1  0  0  0  0
 15 38  1  0  0  0  0
 15 39  1  0  0  0  0
 16 18  1  0  0  0  0
 17 19  2  0  0  0  0
 17 21  1  0  0  0  0
 18 20  2  0  0  0  0
 18 40  1  0  0  0  0
 19 20  1  0  0  0  0
 19 41  1  0  0  0  0
 21 42  1  0  0  0  0
 21 43  1  0  0  0  0
 21 44  1  0  0  0  0
M  END
> <PUBCHEM_COMPOUND_CID>
11954157

> <PUBCHEM_CONFORMER_RMSD>
0.6

> <PUBCHEM_CONFORMER_DIVERSEORDER>
1

> <PUBCHEM_MMFF94_PARTIAL_CHARGES>
17
1 -0.57
11 0.45
12 0.06
13 -0.14
15 0.14
16 -0.14
17 -0.14
18 -0.15
19 -0.15
2 -0.53
20 0.08
21 0.14
4 0.06
40 0.15
41 0.15
45 0.45
6 0.14

> <PUBCHEM_EFFECTIVE_ROTOR_COUNT>
1.2

> <PUBCHEM_PHARMACOPHORE_FEATURES>
6
1 1 acceptor
1 2 donor
5 3 4 8 11 12 rings
6 13 16 17 18 19 20 rings
6 3 4 5 6 7 9 rings
6 5 6 10 13 15 16 rings

> <PUBCHEM_HEAVY_ATOM_COUNT>
21

> <PUBCHEM_ATOM_DEF_STEREO_COUNT>
4

> <PUBCHEM_ATOM_UDEF_STEREO_COUNT>
0

> <PUBCHEM_BOND_DEF_STEREO_COUNT>
0

> <PUBCHEM_BOND_UDEF_STEREO_COUNT>
0

> <PUBCHEM_ISOTOPIC_ATOM_COUNT>
0

> <PUBCHEM_COMPONENT_COUNT>
1

> <PUBCHEM_CACTVS_TAUTO_COUNT>
34

> <PUBCHEM_CONFORMER_ID>
00B667ED00000001

> <PUBCHEM_MMFF94_ENERGY>
75.9383

> <PUBCHEM_FEATURE_SELFOVERLAP>
30.545

> <PUBCHEM_SHAPE_FINGERPRINT>
10 15 18340217289475865760
10366900 7 18201996616567204026
10616163 171 18410009897174465646
10906281 52 18270662234830166760
10967382 1 18410292527586841814
11132069 177 18408887330504791658
11471102 20 18409168813944803998
11578080 2 16735809813959433163
12011746 2 18410576197138860124
12236239 1 17458062668326221318
12251169 10 18408322159715661790
12403259 226 18338241453752783477
12403260 363 18410014291300406381
12553582 1 18267000856477069372
12596602 18 16950283974982629418
13140716 1 18193271884389630842
13224815 77 18334009514463094102
13402501 40 18412828009837388580
13862211 1 18411143532591617406
14790565 3 18195240011016454188
14866123 147 17037813106420338674
15196674 1 18410575127744731190
15375358 24 18413388756509620658
15536298 74 18334294300901885558
15635459 17 18410570725540630214
1601671 61 18409446990666401020
16945 1 18339067182257304645
17349148 13 18335990791651296375
17492 89 18335701667660520599
17804303 29 18410854339226554917
1813 80 17346597491344205836
19784866 170 18411979178750826270
19930381 70 18266742570219226551
200 152 18113059333178815229
20028762 73 18115591422511817775
20645477 70 18412265021255570460
21033648 29 17895208704578872665
21267235 1 18410567379797925950
21279426 13 18124881419613535341
21421861 104 17843691199440280738
22854114 59 18260548918008198370
23402539 116 18408893935689758989
23558518 356 18054500584976526900
23559900 14 18409452513577664160
26918003 58 17847062168767466850
2748010 2 18267297806067811052
296302 2 18412543236257170728
335352 9 18338799030073961284
34934 24 18411143562450666654
350125 39 18265050223912049133
351380 180 18412547604608130443
3545911 37 18408040710392781735
4214541 1 18411139147287615853
4921388 177 15841258269123655329
5104073 3 18338516442684910090
69090 78 18335704927265735367
7364860 26 18336546006379472340
9709674 26 18411694400638784087

> <PUBCHEM_SHAPE_MULTIPOLES>
420.43
9.43
2.42
0.85
1.59
0.05
-0.3
0.31
-0.76
0.38
0.33
-0.43
0.11
0.46

> <PUBCHEM_SHAPE_SELFOVERLAP>
921.191

> <PUBCHEM_SHAPE_VOLUME>
228.3

> <PUBCHEM_COORDINATE_TYPE>
2
5
10

$$$$

