10895
  -OEChem-06261205053D

 23 22  0     0  0  0  0  0  0999 V2000
    0.1154   -0.3002   -0.2277 O   0  0  0  0  0  0  0  0  0  0  0  0
    1.5683    1.3689    0.4256 O   0  0  0  0  0  0  0  0  0  0  0  0
   -2.2970   -0.1654   -0.3286 C   0  0  0  0  0  0  0  0  0  0  0  0
   -0.9908    0.5638   -0.0024 C   0  0  0  0  0  0  0  0  0  0  0  0
   -2.4842   -1.3976    0.5593 C   0  0  0  0  0  0  0  0  0  0  0  0
   -3.4865    0.7808   -0.1810 C   0  0  0  0  0  0  0  0  0  0  0  0
    2.4105   -0.8064   -0.2587 C   0  0  0  0  0  0  0  0  0  0  0  0
    1.3518    0.2325    0.0278 C   0  0  0  0  0  0  0  0  0  0  0  0
    3.8126   -0.2764   -0.0142 C   0  0  0  0  0  0  0  0  0  0  0  0
   -2.2512   -0.5146   -1.3680 H   0  0  0  0  0  0  0  0  0  0  0  0
   -0.8906    1.4463   -0.6459 H   0  0  0  0  0  0  0  0  0  0  0  0
   -0.9906    0.8910    1.0448 H   0  0  0  0  0  0  0  0  0  0  0  0
   -3.4223   -1.9093    0.3190 H   0  0  0  0  0  0  0  0  0  0  0  0
   -2.5113   -1.1222    1.6191 H   0  0  0  0  0  0  0  0  0  0  0  0
   -1.6706   -2.1161    0.4163 H   0  0  0  0  0  0  0  0  0  0  0  0
   -4.4215    0.2743   -0.4430 H   0  0  0  0  0  0  0  0  0  0  0  0
   -3.3794    1.6464   -0.8432 H   0  0  0  0  0  0  0  0  0  0  0  0
   -3.5774    1.1491    0.8466 H   0  0  0  0  0  0  0  0  0  0  0  0
    2.2308   -1.6711    0.3887 H   0  0  0  0  0  0  0  0  0  0  0  0
    2.3178   -1.1159   -1.3051 H   0  0  0  0  0  0  0  0  0  0  0  0
    3.9385    0.0368    1.0276 H   0  0  0  0  0  0  0  0  0  0  0  0
    4.5558   -1.0497   -0.2313 H   0  0  0  0  0  0  0  0  0  0  0  0
    4.0225    0.5890   -0.6515 H   0  0  0  0  0  0  0  0  0  0  0  0
  1  4  1  0  0  0  0
  1  8  1  0  0  0  0
  2  8  2  0  0  0  0
  3  4  1  0  0  0  0
  3  5  1  0  0  0  0
  3  6  1  0  0  0  0
  3 10  1  0  0  0  0
  4 11  1  0  0  0  0
  4 12  1  0  0  0  0
  5 13  1  0  0  0  0
  5 14  1  0  0  0  0
  5 15  1  0  0  0  0
  6 16  1  0  0  0  0
  6 17  1  0  0  0  0
  6 18  1  0  0  0  0
  7  8  1  0  0  0  0
  7  9  1  0  0  0  0
  7 19  1  0  0  0  0
  7 20  1  0  0  0  0
  9 21  1  0  0  0  0
  9 22  1  0  0  0  0
  9 23  1  0  0  0  0
M  END
> <PUBCHEM_COMPOUND_CID>
10895

> <PUBCHEM_CONFORMER_RMSD>
0.6

> <PUBCHEM_CONFORMER_DIVERSEORDER>
1
18
16
7
20
2
19
11
4
13
8
12
10
3
9
14
17
5
6
15

> <PUBCHEM_MMFF94_PARTIAL_CHARGES>
5
1 -0.43
2 -0.57
4 0.28
7 0.06
8 0.66

> <PUBCHEM_EFFECTIVE_ROTOR_COUNT>
4

> <PUBCHEM_PHARMACOPHORE_FEATURES>
3
1 2 acceptor
1 9 hydrophobe
3 3 5 6 hydrophobe

> <PUBCHEM_HEAVY_ATOM_COUNT>
9

> <PUBCHEM_ATOM_DEF_STEREO_COUNT>
0

> <PUBCHEM_ATOM_UDEF_STEREO_COUNT>
0

> <PUBCHEM_BOND_DEF_STEREO_COUNT>
0

> <PUBCHEM_BOND_UDEF_STEREO_COUNT>
0

> <PUBCHEM_ISOTOPIC_ATOM_COUNT>
0

> <PUBCHEM_COMPONENT_COUNT>
1

> <PUBCHEM_CACTVS_TAUTO_COUNT>
1

> <PUBCHEM_CONFORMER_ID>
00002A8F00000001

> <PUBCHEM_MMFF94_ENERGY>
5.2216

> <PUBCHEM_FEATURE_SELFOVERLAP>
15.223

> <PUBCHEM_SHAPE_FINGERPRINT>
10219947 1 17167861980633776748
11062470 55 17967535700487686796
12932741 1 18341620282595574885
12932764 1 16702314433432798869
14325111 11 18411700954552649268
20201158 50 18335138721516107079
20279233 1 18334010609727480870
20645464 45 18408878556002780455
20645477 70 17822573940230589030
22485316 2 18273218612202175194
23402539 116 18187654634941162885
23552423 10 18131068182411248199
29004967 10 18186517726521261986
3248919 1 18271535190916705861

> <PUBCHEM_SHAPE_MULTIPOLES>
173.48
6.35
1.2
0.68
1.4
0.1
-0.01
0.41
0.16
-0.43
-0.17
-0.07
0.03
0.39

> <PUBCHEM_SHAPE_SELFOVERLAP>
315.034

> <PUBCHEM_SHAPE_VOLUME>
112.2

> <PUBCHEM_COORDINATE_TYPE>
2
5
10

$$$$

