247835
  -OEChem-07051213062D

 59 62  0     1  0  0  0  0  0999 V2000
    7.1640    1.9472    0.0000 O   0  0  0  0  0  0  0  0  0  0  0  0
    6.5251    0.6909    0.0000 C   0  0  1  0  0  0  0  0  0  0  0  0
    6.5251   -0.3091    0.0000 C   0  0  2  0  0  0  0  0  0  0  0  0
    5.6591   -0.8091    0.0000 C   0  0  1  0  0  0  0  0  0  0  0  0
    4.7931   -0.3091    0.0000 C   0  0  1  0  0  0  0  0  0  0  0  0
    3.8831   -0.8159    0.0000 C   0  0  2  0  0  0  0  0  0  0  0  0
    7.4714    0.9956    0.0000 C   0  0  2  0  0  0  0  0  0  0  0  0
    5.6591    1.1909    0.0000 C   0  0  0  0  0  0  0  0  0  0  0  0
    4.7931    0.6909    0.0000 C   0  0  0  0  0  0  0  0  0  0  0  0
    7.4714   -0.6138    0.0000 C   0  0  0  0  0  0  0  0  0  0  0  0
    3.8751   -1.8575    0.0000 C   0  0  1  0  0  0  0  0  0  0  0  0
    5.6752   -1.8506    0.0000 C   0  0  0  0  0  0  0  0  0  0  0  0
    8.0550    0.1909    0.0000 C   0  0  0  0  0  0  0  0  0  0  0  0
    4.7771   -2.3784    0.0000 C   0  0  0  0  0  0  0  0  0  0  0  0
    6.5251    1.6909    0.0000 C   0  0  0  0  0  0  0  0  0  0  0  0
    2.9562   -0.2519    0.0000 C   0  0  0  0  0  0  0  0  0  0  0  0
    8.2814    1.5820    0.0000 C   0  0  0  0  0  0  0  0  0  0  0  0
    3.8908    0.1840    0.0000 C   0  0  0  0  0  0  0  0  0  0  0  0
    2.9396   -2.4073    0.0000 C   0  0  0  0  0  0  0  0  0  0  0  0
    2.0084   -0.7798    0.0000 C   0  0  0  0  0  0  0  0  0  0  0  0
    2.0000   -1.8648    0.0000 C   0  0  0  0  0  0  0  0  0  0  0  0
    9.1942    1.1737    0.0000 C   0  0  0  0  0  0  0  0  0  0  0  0
   10.0043    1.7601    0.0000 C   0  0  0  0  0  0  0  0  0  0  0  0
    6.6151   -1.1543    0.0000 H   0  0  0  0  0  0  0  0  0  0  0  0
    6.3985   -1.2284    0.0000 H   0  0  0  0  0  0  0  0  0  0  0  0
    5.5292    0.1159    0.0000 H   0  0  0  0  0  0  0  0  0  0  0  0
    6.0576    1.6659    0.0000 H   0  0  0  0  0  0  0  0  0  0  0  0
    5.2606    1.6659    0.0000 H   0  0  0  0  0  0  0  0  0  0  0  0
    4.5810    1.2735    0.0000 H   0  0  0  0  0  0  0  0  0  0  0  0
    4.1825    0.5832    0.0000 H   0  0  0  0  0  0  0  0  0  0  0  0
    7.2203   -1.1807    0.0000 H   0  0  0  0  0  0  0  0  0  0  0  0
    8.0087   -0.9230    0.0000 H   0  0  0  0  0  0  0  0  0  0  0  0
    3.8783   -2.7075    0.0000 H   0  0  0  0  0  0  0  0  0  0  0  0
    5.8932   -2.4310    0.0000 H   0  0  0  0  0  0  0  0  0  0  0  0
    6.2843   -1.7351    0.0000 H   0  0  0  0  0  0  0  0  0  0  0  0
    8.5158   -0.2238    0.0000 H   0  0  0  0  0  0  0  0  0  0  0  0
    8.5158    0.6056    0.0000 H   0  0  0  0  0  0  0  0  0  0  0  0
    4.3798   -2.8543    0.0000 H   0  0  0  0  0  0  0  0  0  0  0  0
    5.1781   -2.8512    0.0000 H   0  0  0  0  0  0  0  0  0  0  0  0
    7.1451    1.6909    0.0000 H   0  0  0  0  0  0  0  0  0  0  0  0
    6.5251    2.3109    0.0000 H   0  0  0  0  0  0  0  0  0  0  0  0
    5.9051    1.6909    0.0000 H   0  0  0  0  0  0  0  0  0  0  0  0
    3.3645    0.2148    0.0000 H   0  0  0  0  0  0  0  0  0  0  0  0
    2.5663    0.2302    0.0000 H   0  0  0  0  0  0  0  0  0  0  0  0
    8.6290    2.0954    0.0000 H   0  0  0  0  0  0  0  0  0  0  0  0
    7.8362    2.0135    0.0000 H   0  0  0  0  0  0  0  0  0  0  0  0
    4.5108    0.1793    0.0000 H   0  0  0  0  0  0  0  0  0  0  0  0
    3.8956    0.8040    0.0000 H   0  0  0  0  0  0  0  0  0  0  0  0
    3.2708    0.1888    0.0000 H   0  0  0  0  0  0  0  0  0  0  0  0
    2.5423   -2.8832    0.0000 H   0  0  0  0  0  0  0  0  0  0  0  0
    3.3406   -2.8802    0.0000 H   0  0  0  0  0  0  0  0  0  0  0  0
    7.5796    2.4073    0.0000 H   0  0  0  0  0  0  0  0  0  0  0  0
    1.4750   -0.4636    0.0000 H   0  0  0  0  0  0  0  0  0  0  0  0
    1.4619   -2.1727    0.0000 H   0  0  0  0  0  0  0  0  0  0  0  0
    8.8466    0.6603    0.0000 H   0  0  0  0  0  0  0  0  0  0  0  0
    9.6395    0.7422    0.0000 H   0  0  0  0  0  0  0  0  0  0  0  0
   10.3678    1.2579    0.0000 H   0  0  0  0  0  0  0  0  0  0  0  0
   10.5065    2.1236    0.0000 H   0  0  0  0  0  0  0  0  0  0  0  0
    9.6407    2.2623    0.0000 H   0  0  0  0  0  0  0  0  0  0  0  0
  7  1  1  1  0  0  0
  1 52  1  0  0  0  0
  2  3  1  0  0  0  0
  2  7  1  0  0  0  0
  2  8  1  0  0  0  0
  2 15  1  1  0  0  0
  3  4  1  0  0  0  0
  3 10  1  0  0  0  0
  3 24  1  6  0  0  0
  4  5  1  0  0  0  0
  4 12  1  0  0  0  0
  4 25  1  1  0  0  0
  5  6  1  0  0  0  0
  5  9  1  0  0  0  0
  5 26  1  6  0  0  0
  6 11  1  0  0  0  0
  6 16  1  0  0  0  0
  6 18  1  1  0  0  0
  7 13  1  0  0  0  0
  7 17  1  0  0  0  0
  8  9  1  0  0  0  0
  8 27  1  0  0  0  0
  8 28  1  0  0  0  0
  9 29  1  0  0  0  0
  9 30  1  0  0  0  0
 10 13  1  0  0  0  0
 10 31  1  0  0  0  0
 10 32  1  0  0  0  0
 11 14  1  0  0  0  0
 11 19  1  0  0  0  0
 11 33  1  6  0  0  0
 12 14  1  0  0  0  0
 12 34  1  0  0  0  0
 12 35  1  0  0  0  0
 13 36  1  0  0  0  0
 13 37  1  0  0  0  0
 14 38  1  0  0  0  0
 14 39  1  0  0  0  0
 15 40  1  0  0  0  0
 15 41  1  0  0  0  0
 15 42  1  0  0  0  0
 16 20  1  0  0  0  0
 16 43  1  0  0  0  0
 16 44  1  0  0  0  0
 17 22  1  0  0  0  0
 17 45  1  0  0  0  0
 17 46  1  0  0  0  0
 18 47  1  0  0  0  0
 18 48  1  0  0  0  0
 18 49  1  0  0  0  0
 19 21  1  0  0  0  0
 19 50  1  0  0  0  0
 19 51  1  0  0  0  0
 20 21  2  0  0  0  0
 20 53  1  0  0  0  0
 21 54  1  0  0  0  0
 22 23  1  0  0  0  0
 22 55  1  0  0  0  0
 22 56  1  0  0  0  0
 23 57  1  0  0  0  0
 23 58  1  0  0  0  0
 23 59  1  0  0  0  0
M  END
> <PUBCHEM_COMPOUND_CID>
247835

> <PUBCHEM_COMPOUND_CANONICALIZED>
1

> <PUBCHEM_CACTVS_COMPLEXITY>
496

> <PUBCHEM_CACTVS_HBOND_ACCEPTOR>
1

> <PUBCHEM_CACTVS_HBOND_DONOR>
1

> <PUBCHEM_CACTVS_ROTATABLE_BOND>
2

> <PUBCHEM_CACTVS_SUBSKEYS>
AAADcfB4IAAAAAAAAAAAAAAAAAAAAYAAAAAwYIAAAAAAAGDAAAAAGgAACAAAD0SAgAACAAAAAgCAACBCAAAAAAAgAAAICAAAAAgAAAIAAQAAQAAEgAAIAAOAwPAPgAAAAAAAAACAAAQAACAAAYAADAAAAA==

> <PUBCHEM_IUPAC_OPENEYE_NAME>
(5S,8R,9S,10S,13S,14S,17S)-10,13-dimethyl-17-propyl-1,4,5,6,7,8,9,11,12,14,15,16-dodecahydrocyclopenta[a]phenanthren-17-ol

> <PUBCHEM_IUPAC_CAS_NAME>
(5S,8R,9S,10S,13S,14S,17S)-10,13-dimethyl-17-propyl-1,4,5,6,7,8,9,11,12,14,15,16-dodecahydrocyclopenta[a]phenanthren-17-ol

> <PUBCHEM_IUPAC_NAME>
(5S,8R,9S,10S,13S,14S,17S)-10,13-dimethyl-17-propyl-1,4,5,6,7,8,9,11,12,14,15,16-dodecahydrocyclopenta[a]phenanthren-17-ol

> <PUBCHEM_IUPAC_SYSTEMATIC_NAME>
(5S,8R,9S,10S,13S,14S,17S)-10,13-dimethyl-17-propyl-1,4,5,6,7,8,9,11,12,14,15,16-dodecahydrocyclopenta[a]phenanthren-17-ol

> <PUBCHEM_IUPAC_TRADITIONAL_NAME>
(5S,8R,9S,10S,13S,14S,17S)-10,13-dimethyl-17-propyl-1,4,5,6,7,8,9,11,12,14,15,16-dodecahydrocyclopenta[a]phenanthren-17-ol

> <PUBCHEM_IUPAC_INCHI>
InChI=1S/C22H36O/c1-4-12-22(23)15-11-19-17-9-8-16-7-5-6-13-20(16,2)18(17)10-14-21(19,22)3/h5-6,16-19,23H,4,7-15H2,1-3H3/t16-,17-,18+,19+,20+,21+,22+/m1/s1

> <PUBCHEM_IUPAC_INCHIKEY>
CTFZTEDAUHSZSC-DHGBTQKMSA-N

> <PUBCHEM_XLOGP3_AA>
6.2

> <PUBCHEM_EXACT_MASS>
316.276616

> <PUBCHEM_MOLECULAR_FORMULA>
C22H36O

> <PUBCHEM_MOLECULAR_WEIGHT>
316.52064

> <PUBCHEM_OPENEYE_CAN_SMILES>
CCCC1(CCC2C1(CCC3C2CCC4C3(CC=CC4)C)C)O

> <PUBCHEM_OPENEYE_ISO_SMILES>
CCC[C@@]1(CC[C@@H]2[C@@]1(CC[C@H]3[C@H]2CC[C@@H]4[C@@]3(CC=CC4)C)C)O

> <PUBCHEM_CACTVS_TPSA>
20.2

> <PUBCHEM_MONOISOTOPIC_WEIGHT>
316.276616

> <PUBCHEM_TOTAL_CHARGE>
0

> <PUBCHEM_HEAVY_ATOM_COUNT>
23

> <PUBCHEM_ATOM_DEF_STEREO_COUNT>
7

> <PUBCHEM_ATOM_UDEF_STEREO_COUNT>
0

> <PUBCHEM_BOND_DEF_STEREO_COUNT>
0

> <PUBCHEM_BOND_UDEF_STEREO_COUNT>
0

> <PUBCHEM_ISOTOPIC_ATOM_COUNT>
0

> <PUBCHEM_COMPONENT_COUNT>
1

> <PUBCHEM_CACTVS_TAUTO_COUNT>
1

> <PUBCHEM_COORDINATE_TYPE>
1
5
255

> <PUBCHEM_BONDANNOTATIONS>
7  1  5
11  33  6
2  15  5
3  24  6
4  25  5
5  26  6
6  18  5

$$$$

