440043
  -OEChem-07051212483D

 29 29  0     1  0  0  0  0  0999 V2000
    2.6987    0.1486    0.1124 P   0  0  0  0  0  0  0  0  0  0  0  0
    1.3686   -0.7602    0.1885 O   0  0  0  0  0  0  0  0  0  0  0  0
   -0.9351    1.3555   -1.6840 O   0  0  0  0  0  0  0  0  0  0  0  0
   -1.6288   -1.4952   -1.7384 O   0  0  0  0  0  0  0  0  0  0  0  0
   -1.5172    2.4338    0.8382 O   0  0  0  0  0  0  0  0  0  0  0  0
   -0.8971   -1.6748    1.8416 O   0  0  0  0  0  0  0  0  0  0  0  0
   -3.1309    0.3902   -0.1665 O   0  0  0  0  0  0  0  0  0  0  0  0
    3.3608   -0.2516   -1.3076 O   0  0  0  0  0  0  0  0  0  0  0  0
    3.6712   -0.5638    1.1902 O   0  0  0  0  0  0  0  0  0  0  0  0
    2.4822    1.6179    0.3281 O   0  0  0  0  0  0  0  0  0  0  0  0
    0.3175   -0.4900   -0.7364 C   0  0  0  0  0  0  0  0  0  0  0  0
   -0.1753    0.9529   -0.5455 C   0  0  2  0  0  0  0  0  0  0  0  0
   -0.7980   -1.5404   -0.5806 C   0  0  1  0  0  0  0  0  0  0  0  0
   -1.0015    1.1086    0.7400 C   0  0  2  0  0  0  0  0  0  0  0  0
   -1.6563   -1.3371    0.6833 C   0  0  2  0  0  0  0  0  0  0  0  0
   -2.1589    0.1057    0.8369 C   0  0  0  0  0  0  0  0  0  0  0  0
    0.7303   -0.5831   -1.7490 H   0  0  0  0  0  0  0  0  0  0  0  0
    0.6120    1.6918   -0.5413 H   0  0  0  0  0  0  0  0  0  0  0  0
   -0.3435   -2.5378   -0.5323 H   0  0  0  0  0  0  0  0  0  0  0  0
   -0.3365    0.9669    1.6000 H   0  0  0  0  0  0  0  0  0  0  0  0
   -2.5180   -2.0139    0.6306 H   0  0  0  0  0  0  0  0  0  0  0  0
   -2.6600    0.2371    1.8028 H   0  0  0  0  0  0  0  0  0  0  0  0
   -1.1810    2.2882   -1.5634 H   0  0  0  0  0  0  0  0  0  0  0  0
   -1.0729   -1.7015   -2.5091 H   0  0  0  0  0  0  0  0  0  0  0  0
   -2.2363    2.5229    0.1900 H   0  0  0  0  0  0  0  0  0  0  0  0
   -1.4818   -1.5849    2.6134 H   0  0  0  0  0  0  0  0  0  0  0  0
   -2.7156    0.2763   -1.0376 H   0  0  0  0  0  0  0  0  0  0  0  0
    4.1658    0.2226   -1.6062 H   0  0  0  0  0  0  0  0  0  0  0  0
    4.5297   -0.1415    1.4065 H   0  0  0  0  0  0  0  0  0  0  0  0
  1  2  1  0  0  0  0
  1  8  1  0  0  0  0
  1  9  1  0  0  0  0
  1 10  2  0  0  0  0
  2 11  1  0  0  0  0
  3 12  1  0  0  0  0
  3 23  1  0  0  0  0
  4 13  1  0  0  0  0
  4 24  1  0  0  0  0
  5 14  1  0  0  0  0
  5 25  1  0  0  0  0
  6 15  1  0  0  0  0
  6 26  1  0  0  0  0
  7 16  1  0  0  0  0
  7 27  1  0  0  0  0
  8 28  1  0  0  0  0
  9 29  1  0  0  0  0
 11 12  1  0  0  0  0
 11 13  1  0  0  0  0
 11 17  1  0  0  0  0
 12 14  1  0  0  0  0
 12 18  1  0  0  0  0
 13 15  1  0  0  0  0
 13 19  1  0  0  0  0
 14 16  1  0  0  0  0
 14 20  1  0  0  0  0
 15 16  1  0  0  0  0
 15 21  1  0  0  0  0
 16 22  1  0  0  0  0
M  END
> <PUBCHEM_COMPOUND_CID>
440043

> <PUBCHEM_CONFORMER_RMSD>
0.6

> <PUBCHEM_CONFORMER_DIVERSEORDER>
2
4
5
3
1

> <PUBCHEM_MMFF94_PARTIAL_CHARGES>
23
1 1.51
10 -0.7
11 0.28
12 0.28
13 0.28
14 0.28
15 0.28
16 0.28
2 -0.55
23 0.4
24 0.4
25 0.4
26 0.4
27 0.4
28 0.5
29 0.5
3 -0.68
4 -0.68
5 -0.68
6 -0.68
7 -0.68
8 -0.77
9 -0.77

> <PUBCHEM_EFFECTIVE_ROTOR_COUNT>
3.2

> <PUBCHEM_PHARMACOPHORE_FEATURES>
15
1 10 acceptor
1 3 acceptor
1 3 donor
1 4 acceptor
1 4 donor
1 5 acceptor
1 5 donor
1 6 acceptor
1 6 donor
1 7 acceptor
1 7 donor
1 8 acceptor
1 9 acceptor
4 1 8 9 10 anion
6 11 12 13 14 15 16 rings

> <PUBCHEM_HEAVY_ATOM_COUNT>
16

> <PUBCHEM_ATOM_DEF_STEREO_COUNT>
4

> <PUBCHEM_ATOM_UDEF_STEREO_COUNT>
0

> <PUBCHEM_BOND_DEF_STEREO_COUNT>
0

> <PUBCHEM_BOND_UDEF_STEREO_COUNT>
0

> <PUBCHEM_ISOTOPIC_ATOM_COUNT>
0

> <PUBCHEM_COMPONENT_COUNT>
1

> <PUBCHEM_CACTVS_TAUTO_COUNT>
1

> <PUBCHEM_CONFORMER_ID>
0006B6EB00000002

> <PUBCHEM_MMFF94_ENERGY>
15.3459

> <PUBCHEM_FEATURE_SELFOVERLAP>
76.183

> <PUBCHEM_SHAPE_FINGERPRINT>
11132069 177 17749112183764822219
12423570 1 16038067277088023975
13024252 1 12031790279359352647
14817 1 13508411773790593167
15076042 46 18337096926039697016
15775835 57 18201717371053053208
16945 1 18336816580728919587
20653085 51 16009308841540633592
21028194 46 16588299535855888644
21524375 3 18049722120226796665
23419403 2 17108531087279010773
2748010 2 18118119177956974844
369184 2 17846785087283856434
5084963 1 18128531767836202718

> <PUBCHEM_SHAPE_MULTIPOLES>
280.3
4.46
1.91
1.47
4.17
0.5
-0.15
0.03
0.52
-0.88
0.17
-0.2
-0.34
-0.1

> <PUBCHEM_SHAPE_SELFOVERLAP>
553.943

> <PUBCHEM_SHAPE_VOLUME>
167.7

> <PUBCHEM_COORDINATE_TYPE>
2
5
10

$$$$

