439912
  -OEChem-07051212483D

 63 66  0     1  0  0  0  0  0999 V2000
   -2.6347    2.8224    0.3992 P   0  0  2  0  0  0  0  0  0  0  0  0
   -3.5667    1.1782   -1.8559 P   0  0  1  0  0  0  0  0  0  0  0  0
    1.5164    1.9921    1.2653 O   0  0  0  0  0  0  0  0  0  0  0  0
   -2.1021   -0.8206    0.4016 O   0  0  0  0  0  0  0  0  0  0  0  0
    4.2423    2.5834   -1.0020 O   0  0  0  0  0  0  0  0  0  0  0  0
    3.4073    4.3535    0.8835 O   0  0  0  0  0  0  0  0  0  0  0  0
   -1.1256    2.9054    0.9763 O   0  0  0  0  0  0  0  0  0  0  0  0
   -3.8127   -0.2488   -1.1406 O   0  0  0  0  0  0  0  0  0  0  0  0
   -4.3261   -4.3182    0.2082 O   0  0  0  0  0  0  0  0  0  0  0  0
   -4.3462   -2.6905    2.6274 O   0  0  0  0  0  0  0  0  0  0  0  0
   -1.9768   -3.3747   -0.9098 O   0  0  0  0  0  0  0  0  0  0  0  0
   -2.4668    1.9160   -0.9287 O   0  0  0  0  0  0  0  0  0  0  0  0
   -2.9032    4.3004   -0.2010 O   0  0  0  0  0  0  0  0  0  0  0  0
   -2.7394    0.8220   -3.1999 O   0  0  0  0  0  0  0  0  0  0  0  0
   -3.6746    2.3313    1.3633 O   0  0  0  0  0  0  0  0  0  0  0  0
   -4.8128    1.9820   -2.0904 O   0  0  0  0  0  0  0  0  0  0  0  0
    3.0891   -4.1851   -0.9638 O   0  0  0  0  0  0  0  0  0  0  0  0
    2.5345    0.1600    0.1530 N   0  0  0  0  0  0  0  0  0  0  0  0
    4.7976   -0.7208    0.2865 N   0  0  0  0  0  0  0  0  0  0  0  0
    1.5256   -1.7214   -0.5399 N   0  0  0  0  0  0  0  0  0  0  0  0
    4.9969   -3.0347   -0.3247 N   0  0  0  0  0  0  0  0  0  0  0  0
    6.8626   -1.7578    0.3423 N   0  0  0  0  0  0  0  0  0  0  0  0
    2.8928    2.5230   -0.5873 C   0  0  2  0  0  0  0  0  0  0  0  0
    2.4006    3.8203    0.0232 C   0  0  1  0  0  0  0  0  0  0  0  0
    2.6969    1.5518    0.5668 C   0  0  1  0  0  0  0  0  0  0  0  0
    1.2235    3.3534    0.8738 C   0  0  1  0  0  0  0  0  0  0  0  0
   -4.0605   -2.9185    0.2403 C   0  0  1  0  0  0  0  0  0  0  0  0
   -0.0966    3.3615    0.1159 C   0  0  0  0  0  0  0  0  0  0  0  0
   -3.4070   -2.5297    1.5676 C   0  0  1  0  0  0  0  0  0  0  0  0
   -3.1517   -2.5622   -0.9374 C   0  0  1  0  0  0  0  0  0  0  0  0
   -2.9551   -1.0646    1.5231 C   0  0  1  0  0  0  0  0  0  0  0  0
   -2.7072   -1.1022   -0.8651 C   0  0  2  0  0  0  0  0  0  0  0  0
    3.4861   -0.7958    0.0457 C   0  0  0  0  0  0  0  0  0  0  0  0
    1.3562   -0.4510   -0.2138 C   0  0  0  0  0  0  0  0  0  0  0  0
   -2.1765   -0.6808    2.7783 C   0  0  0  0  0  0  0  0  0  0  0  0
    2.8653   -1.9354   -0.3756 C   0  0  0  0  0  0  0  0  0  0  0  0
    3.6261   -3.1506   -0.5867 C   0  0  0  0  0  0  0  0  0  0  0  0
    5.5224   -1.8932    0.0814 C   0  0  0  0  0  0  0  0  0  0  0  0
    2.2694    2.2537   -1.4486 H   0  0  0  0  0  0  0  0  0  0  0  0
    2.1556    4.5848   -0.7196 H   0  0  0  0  0  0  0  0  0  0  0  0
    3.5330    1.5783    1.2760 H   0  0  0  0  0  0  0  0  0  0  0  0
    1.1239    3.9307    1.7999 H   0  0  0  0  0  0  0  0  0  0  0  0
   -5.0269   -2.4084    0.1424 H   0  0  0  0  0  0  0  0  0  0  0  0
   -2.5618   -3.1967    1.7745 H   0  0  0  0  0  0  0  0  0  0  0  0
   -0.3193    4.3784   -0.2193 H   0  0  0  0  0  0  0  0  0  0  0  0
   -0.0492    2.6984   -0.7533 H   0  0  0  0  0  0  0  0  0  0  0  0
   -3.6745   -2.7712   -1.8779 H   0  0  0  0  0  0  0  0  0  0  0  0
   -3.8272   -0.4021    1.4605 H   0  0  0  0  0  0  0  0  0  0  0  0
   -1.9255   -0.9332   -1.6131 H   0  0  0  0  0  0  0  0  0  0  0  0
    4.4939    1.6979   -1.3149 H   0  0  0  0  0  0  0  0  0  0  0  0
    3.0426    5.1564    1.2935 H   0  0  0  0  0  0  0  0  0  0  0  0
    0.4141    0.0784   -0.2343 H   0  0  0  0  0  0  0  0  0  0  0  0
   -1.2781   -1.2990    2.8841 H   0  0  0  0  0  0  0  0  0  0  0  0
   -1.8338    0.3576    2.7117 H   0  0  0  0  0  0  0  0  0  0  0  0
   -2.7851   -0.7875    3.6809 H   0  0  0  0  0  0  0  0  0  0  0  0
   -4.7447   -4.5182   -0.6464 H   0  0  0  0  0  0  0  0  0  0  0  0
   -5.1033   -2.1065    2.4506 H   0  0  0  0  0  0  0  0  0  0  0  0
   -1.4499   -3.1569   -1.6975 H   0  0  0  0  0  0  0  0  0  0  0  0
    5.2640    0.1254    0.5963 H   0  0  0  0  0  0  0  0  0  0  0  0
   -2.3372    4.6418   -0.9252 H   0  0  0  0  0  0  0  0  0  0  0  0
   -2.5915    1.5264   -3.8662 H   0  0  0  0  0  0  0  0  0  0  0  0
    7.2548   -0.8757    0.6528 H   0  0  0  0  0  0  0  0  0  0  0  0
    7.5003   -2.5384    0.2309 H   0  0  0  0  0  0  0  0  0  0  0  0
  1  7  1  0  0  0  0
  1 12  1  0  0  0  0
  1 13  1  0  0  0  0
  1 15  2  0  0  0  0
  2  8  1  0  0  0  0
  2 12  1  0  0  0  0
  2 14  1  0  0  0  0
  2 16  2  0  0  0  0
  3 25  1  0  0  0  0
  3 26  1  0  0  0  0
  4 31  1  0  0  0  0
  4 32  1  0  0  0  0
  5 23  1  0  0  0  0
  5 50  1  0  0  0  0
  6 24  1  0  0  0  0
  6 51  1  0  0  0  0
  7 28  1  0  0  0  0
  8 32  1  0  0  0  0
  9 27  1  0  0  0  0
  9 56  1  0  0  0  0
 10 29  1  0  0  0  0
 10 57  1  0  0  0  0
 11 30  1  0  0  0  0
 11 58  1  0  0  0  0
 13 60  1  0  0  0  0
 14 61  1  0  0  0  0
 17 37  2  0  0  0  0
 18 25  1  0  0  0  0
 18 33  1  0  0  0  0
 18 34  1  0  0  0  0
 19 33  1  0  0  0  0
 19 38  1  0  0  0  0
 19 59  1  0  0  0  0
 20 34  2  0  0  0  0
 20 36  1  0  0  0  0
 21 37  1  0  0  0  0
 21 38  2  0  0  0  0
 22 38  1  0  0  0  0
 22 62  1  0  0  0  0
 22 63  1  0  0  0  0
 23 24  1  0  0  0  0
 23 25  1  0  0  0  0
 23 39  1  0  0  0  0
 24 26  1  0  0  0  0
 24 40  1  0  0  0  0
 25 41  1  0  0  0  0
 26 28  1  0  0  0  0
 26 42  1  0  0  0  0
 27 29  1  0  0  0  0
 27 30  1  0  0  0  0
 27 43  1  0  0  0  0
 28 45  1  0  0  0  0
 28 46  1  0  0  0  0
 29 31  1  0  0  0  0
 29 44  1  0  0  0  0
 30 32  1  0  0  0  0
 30 47  1  0  0  0  0
 31 35  1  0  0  0  0
 31 48  1  0  0  0  0
 32 49  1  0  0  0  0
 33 36  2  0  0  0  0
 34 52  1  0  0  0  0
 35 53  1  0  0  0  0
 35 54  1  0  0  0  0
 35 55  1  0  0  0  0
 36 37  1  0  0  0  0
M  END
> <PUBCHEM_COMPOUND_CID>
439912

> <PUBCHEM_CONFORMER_RMSD>
1.6

> <PUBCHEM_CONFORMER_DIVERSEORDER>
1
62
37
115
143
45
22
138
14
131
3
128
114
75
85
137
4
93
112
122
61
87
40
70
81
127
104
123
111
53
48
126
36
125
78
103
144
60
157
98
43
154
83
106
110
18
46
80
92
51
147
136
139
140
2
151
23
141
41
101
29
39
19
105
146
132
116
68
119
142
33
56
38
24
118
34
42
107
135
59
74
133
44
156
86
97
47
89
121
69
152
73
100
102
77
21
15
150
50
72
63
96
117
94
54
124
17
8
90
58
84
130
35
109
12
25
148
6
99
66
95
155
55
71
30
82
9
26
49
64
28
76
57
5
67
153
52
149
16
145
91
129
31
120
113
134
79
20
13
7
108
88
27
32
65
11
10

> <PUBCHEM_MMFF94_PARTIAL_CHARGES>
48
1 1.51
10 -0.68
11 -0.68
12 -0.54
13 -0.77
14 -0.77
15 -0.7
16 -0.7
17 -0.57
18 0.05
19 -0.53
2 1.51
20 -0.57
21 -0.66
22 -0.85
23 0.28
24 0.28
25 0.54
26 0.28
27 0.28
28 0.28
29 0.28
3 -0.56
30 0.28
31 0.28
32 0.56
33 -0.07
34 0.04
36 0.14
37 0.87
38 0.55
4 -0.56
5 -0.68
50 0.4
51 0.4
52 0.15
56 0.4
57 0.4
58 0.4
59 0.4
6 -0.68
60 0.5
61 0.5
62 0.4
63 0.4
7 -0.55
8 -0.55
9 -0.68

> <PUBCHEM_EFFECTIVE_ROTOR_COUNT>
10.2

> <PUBCHEM_PHARMACOPHORE_FEATURES>
25
1 10 acceptor
1 10 donor
1 11 acceptor
1 11 donor
1 13 acceptor
1 14 acceptor
1 15 acceptor
1 16 acceptor
1 17 acceptor
1 19 donor
1 21 donor
1 22 donor
1 3 acceptor
1 4 acceptor
1 5 acceptor
1 5 donor
1 6 acceptor
1 6 donor
1 9 acceptor
1 9 donor
3 18 20 34 cation
5 18 20 33 34 36 rings
5 3 23 24 25 26 rings
6 19 21 33 36 37 38 rings
6 4 27 29 30 31 32 rings

> <PUBCHEM_HEAVY_ATOM_COUNT>
38

> <PUBCHEM_ATOM_DEF_STEREO_COUNT>
9

> <PUBCHEM_ATOM_UDEF_STEREO_COUNT>
0

> <PUBCHEM_BOND_DEF_STEREO_COUNT>
0

> <PUBCHEM_BOND_UDEF_STEREO_COUNT>
0

> <PUBCHEM_ISOTOPIC_ATOM_COUNT>
0

> <PUBCHEM_COMPONENT_COUNT>
1

> <PUBCHEM_CACTVS_TAUTO_COUNT>
6

> <PUBCHEM_CONFORMER_ID>
0006B66800000001

> <PUBCHEM_MMFF94_ENERGY>
58.0454

> <PUBCHEM_FEATURE_SELFOVERLAP>
127.154

> <PUBCHEM_SHAPE_FINGERPRINT>
10190108 129 17978762667674637432
10928967 22 17972594377325016388
11135609 12 18412823590442940936
11136131 41 18269567044641260704
12202916 173 17337054606514546651
13560911 43 18341059510233635186
13911987 19 17620472407091818149
140371 6 18263928898641229692
14659021 117 18193852658832429288
15274700 242 17621889011991154064
19311894 1 18194683897796653282
19315092 285 16083940229375440245
20764821 26 18410006645741492292
20775438 99 17975736902512421957
23559900 14 18337688476190735908
3737641 26 18192699060311949860
4015057 19 18264790834174243869
4280585 95 18269006443597093416
445580 102 18337670819659316420
463206 1 18265892643683869272
469060 322 17473002609286888015
5309563 4 17977662014028204203
613672 6 18263933301130920622
6376802 137 17387431226853657888

> <PUBCHEM_SHAPE_MULTIPOLES>
676.78
11.68
6.69
1.9
8.53
1.76
0.04
-7.84
-0.58
0.54
0.31
-3.23
-0.06
2.38

> <PUBCHEM_SHAPE_SELFOVERLAP>
1411.007

> <PUBCHEM_SHAPE_VOLUME>
386.5

> <PUBCHEM_COORDINATE_TYPE>
2
5
10

$$$$

