47205177
  -OEChem-06241222582D

 35 35  0     1  0  0  0  0  0999 V2000
    4.4444    3.3533    0.0000 S   0  0  0  0  0  0  0  0  0  0  0  0
    5.0322    4.1623    0.0000 O   0  0  0  0  0  0  0  0  0  0  0  0
    3.8566    4.1623    0.0000 O   0  0  0  0  0  0  0  0  0  0  0  0
    4.7579   -0.0127    0.0000 O   0  0  0  0  0  0  0  0  0  0  0  0
    2.0000   -2.3352    0.0000 O   0  0  0  0  0  0  0  0  0  0  0  0
    3.3566    1.0054    0.0000 N   0  0  0  0  0  0  0  0  0  0  0  0
    3.5823   -1.6307    0.0000 N   0  0  0  0  0  0  0  0  0  0  0  0
    3.9444    1.8144    0.0000 C   0  0  3  0  0  0  0  0  0  0  0  0
    3.6354    2.7655    0.0000 C   0  0  0  0  0  0  0  0  0  0  0  0
    4.9444    1.8144    0.0000 C   0  0  0  0  0  0  0  0  0  0  0  0
    5.2534    2.7655    0.0000 C   0  0  0  0  0  0  0  0  0  0  0  0
    3.7634    0.0919    0.0000 C   0  0  0  0  0  0  0  0  0  0  0  0
    3.1756   -0.7172    0.0000 C   0  0  0  0  0  0  0  0  0  0  0  0
    3.4013   -3.3533    0.0000 C   0  0  0  0  0  0  0  0  0  0  0  0
    2.9945   -2.4397    0.0000 C   0  0  0  0  0  0  0  0  0  0  0  0
    2.8135   -4.1623    0.0000 C   0  0  0  0  0  0  0  0  0  0  0  0
    4.3958   -3.4578    0.0000 C   0  0  0  0  0  0  0  0  0  0  0  0
    3.3320    1.9114    0.0000 H   0  0  0  0  0  0  0  0  0  0  0  0
    3.3254    3.3024    0.0000 H   0  0  0  0  0  0  0  0  0  0  0  0
    3.0690    2.5133    0.0000 H   0  0  0  0  0  0  0  0  0  0  0  0
    4.8796    1.1978    0.0000 H   0  0  0  0  0  0  0  0  0  0  0  0
    5.5509    1.6855    0.0000 H   0  0  0  0  0  0  0  0  0  0  0  0
    5.8198    2.5133    0.0000 H   0  0  0  0  0  0  0  0  0  0  0  0
    5.5634    3.3024    0.0000 H   0  0  0  0  0  0  0  0  0  0  0  0
    2.7400    1.0702    0.0000 H   0  0  0  0  0  0  0  0  0  0  0  0
    2.7449   -0.2712    0.0000 H   0  0  0  0  0  0  0  0  0  0  0  0
    2.6616   -1.0639    0.0000 H   0  0  0  0  0  0  0  0  0  0  0  0
    4.1989   -1.6955    0.0000 H   0  0  0  0  0  0  0  0  0  0  0  0
    3.6534   -3.9197    0.0000 H   0  0  0  0  0  0  0  0  0  0  0  0
    4.3310   -4.0744    0.0000 H   0  0  0  0  0  0  0  0  0  0  0  0
    5.0124   -3.5226    0.0000 H   0  0  0  0  0  0  0  0  0  0  0  0
    4.4606   -2.8412    0.0000 H   0  0  0  0  0  0  0  0  0  0  0  0
    2.3119   -3.7978    0.0000 H   0  0  0  0  0  0  0  0  0  0  0  0
    2.4490   -4.6639    0.0000 H   0  0  0  0  0  0  0  0  0  0  0  0
    3.3151   -4.5267    0.0000 H   0  0  0  0  0  0  0  0  0  0  0  0
  1  2  2  0  0  0  0
  1  3  2  0  0  0  0
  1  9  1  0  0  0  0
  1 11  1  0  0  0  0
  4 12  2  0  0  0  0
  5 15  2  0  0  0  0
  6  8  1  0  0  0  0
  6 12  1  0  0  0  0
  6 25  1  0  0  0  0
  7 13  1  0  0  0  0
  7 15  1  0  0  0  0
  7 28  1  0  0  0  0
  8  9  1  0  0  0  0
  8 10  1  0  0  0  0
  8 18  1  0  0  0  0
  9 19  1  0  0  0  0
  9 20  1  0  0  0  0
 10 11  1  0  0  0  0
 10 21  1  0  0  0  0
 10 22  1  0  0  0  0
 11 23  1  0  0  0  0
 11 24  1  0  0  0  0
 12 13  1  0  0  0  0
 13 26  1  0  0  0  0
 13 27  1  0  0  0  0
 14 15  1  0  0  0  0
 14 16  1  0  0  0  0
 14 17  1  0  0  0  0
 14 29  1  0  0  0  0
 16 33  1  0  0  0  0
 16 34  1  0  0  0  0
 16 35  1  0  0  0  0
 17 30  1  0  0  0  0
 17 31  1  0  0  0  0
 17 32  1  0  0  0  0
M  END
> <PUBCHEM_COMPOUND_CID>
47205177

> <PUBCHEM_COMPOUND_CANONICALIZED>
1

> <PUBCHEM_CACTVS_COMPLEXITY>
397

> <PUBCHEM_CACTVS_HBOND_ACCEPTOR>
4

> <PUBCHEM_CACTVS_HBOND_DONOR>
2

> <PUBCHEM_CACTVS_ROTATABLE_BOND>
4

> <PUBCHEM_CACTVS_SUBSKEYS>
AAADceBzOABAAAAAAAAAAAAAAAAAASAAAAAAAAAAAAAAAAAAAAAAHgQQAAAADSjFwASCAALAAAoIAAEQEHBAAAAAABAAAIGIAAAAQAAgACAUAAAAFgCgAAAAAAAAAAAAAAAAAAAAAAAAAAAAAAAAAAAAAA==

> <PUBCHEM_IUPAC_OPENEYE_NAME>
N-[2-[(1,1-dioxothiolan-3-yl)amino]-2-oxo-ethyl]-2-methyl-propanamide

> <PUBCHEM_IUPAC_CAS_NAME>
N-[2-[(1,1-dioxo-3-thiolanyl)amino]-2-oxoethyl]-2-methylpropanamide

> <PUBCHEM_IUPAC_NAME>
N-[2-[(1,1-dioxothiolan-3-yl)amino]-2-oxoethyl]-2-methylpropanamide

> <PUBCHEM_IUPAC_SYSTEMATIC_NAME>
N-[2-[[1,1-bis(oxidanylidene)thiolan-3-yl]amino]-2-oxidanylidene-ethyl]-2-methyl-propanamide

> <PUBCHEM_IUPAC_TRADITIONAL_NAME>
N-[2-[(1,1-diketothiolan-3-yl)amino]-2-keto-ethyl]-2-methyl-propionamide

> <PUBCHEM_IUPAC_INCHI>
InChI=1S/C10H18N2O4S/c1-7(2)10(14)11-5-9(13)12-8-3-4-17(15,16)6-8/h7-8H,3-6H2,1-2H3,(H,11,14)(H,12,13)

> <PUBCHEM_IUPAC_INCHIKEY>
MZEGXPIVLMQWEP-UHFFFAOYSA-N

> <PUBCHEM_XLOGP3_AA>
-0.5

> <PUBCHEM_EXACT_MASS>
262.098728

> <PUBCHEM_MOLECULAR_FORMULA>
C10H18N2O4S

> <PUBCHEM_MOLECULAR_WEIGHT>
262.32592

> <PUBCHEM_OPENEYE_CAN_SMILES>
CC(C)C(=O)NCC(=O)NC1CCS(=O)(=O)C1

> <PUBCHEM_OPENEYE_ISO_SMILES>
CC(C)C(=O)NCC(=O)NC1CCS(=O)(=O)C1

> <PUBCHEM_CACTVS_TPSA>
101

> <PUBCHEM_MONOISOTOPIC_WEIGHT>
262.098728

> <PUBCHEM_TOTAL_CHARGE>
0

> <PUBCHEM_HEAVY_ATOM_COUNT>
17

> <PUBCHEM_ATOM_DEF_STEREO_COUNT>
0

> <PUBCHEM_ATOM_UDEF_STEREO_COUNT>
1

> <PUBCHEM_BOND_DEF_STEREO_COUNT>
0

> <PUBCHEM_BOND_UDEF_STEREO_COUNT>
0

> <PUBCHEM_ISOTOPIC_ATOM_COUNT>
0

> <PUBCHEM_COMPONENT_COUNT>
1

> <PUBCHEM_CACTVS_TAUTO_COUNT>
4

> <PUBCHEM_COORDINATE_TYPE>
1
5
255

> <PUBCHEM_BONDANNOTATIONS>
8  6  3

$$$$

