117900
  -OEChem-07051212583D

 39 41  0     0  0  0  0  0  0999 V2000
    0.4298    1.0983   -0.0242 O   0  0  0  0  0  0  0  0  0  0  0  0
    1.9158   -2.2489    0.3954 O   0  0  0  0  0  0  0  0  0  0  0  0
   -3.3099   -1.9582    0.3761 O   0  0  0  0  0  0  0  0  0  0  0  0
   -4.0355    2.6999   -0.1901 O   0  0  0  0  0  0  0  0  0  0  0  0
   -0.8193   -2.7496    0.4633 O   0  0  0  0  0  0  0  0  0  0  0  0
   -1.4013   -0.4816    0.1812 C   0  0  0  0  0  0  0  0  0  0  0  0
   -0.9101    0.8119    0.0191 C   0  0  0  0  0  0  0  0  0  0  0  0
    1.3335    0.0533    0.0865 C   0  0  0  0  0  0  0  0  0  0  0  0
   -0.4473   -1.5935    0.3129 C   0  0  0  0  0  0  0  0  0  0  0  0
    0.9908   -1.2368    0.2555 C   0  0  0  0  0  0  0  0  0  0  0  0
   -2.7785   -0.7139    0.2193 C   0  0  0  0  0  0  0  0  0  0  0  0
   -1.7945    1.8836   -0.1056 C   0  0  0  0  0  0  0  0  0  0  0  0
    2.7371    0.4983    0.0253 C   0  0  0  0  0  0  0  0  0  0  0  0
   -3.1703    1.6559   -0.0683 C   0  0  0  0  0  0  0  0  0  0  0  0
   -3.6610    0.3596    0.0937 C   0  0  0  0  0  0  0  0  0  0  0  0
    3.3993    0.5528   -1.2015 C   0  0  0  0  0  0  0  0  0  0  0  0
    3.4047    0.8659    1.1940 C   0  0  0  0  0  0  0  0  0  0  0  0
    4.7278    0.9745   -1.2597 C   0  0  0  0  0  0  0  0  0  0  0  0
    4.7330    1.2876    1.1359 C   0  0  0  0  0  0  0  0  0  0  0  0
    5.3945    1.3418   -0.0910 C   0  0  0  0  0  0  0  0  0  0  0  0
    2.2617   -2.7923   -0.8642 C   0  0  0  0  0  0  0  0  0  0  0  0
   -3.5714   -2.7056   -0.8102 C   0  0  0  0  0  0  0  0  0  0  0  0
   -5.4288    2.3969   -0.1436 C   0  0  0  0  0  0  0  0  0  0  0  0
   -1.4146    2.8944   -0.2318 H   0  0  0  0  0  0  0  0  0  0  0  0
   -4.7199    0.1246    0.1314 H   0  0  0  0  0  0  0  0  0  0  0  0
    2.8910    0.2809   -2.1234 H   0  0  0  0  0  0  0  0  0  0  0  0
    2.9022    0.8293    2.1576 H   0  0  0  0  0  0  0  0  0  0  0  0
    5.2421    1.0192   -2.2152 H   0  0  0  0  0  0  0  0  0  0  0  0
    5.2523    1.5740    2.0458 H   0  0  0  0  0  0  0  0  0  0  0  0
    6.4286    1.6708   -0.1363 H   0  0  0  0  0  0  0  0  0  0  0  0
    2.7348   -2.0623   -1.5237 H   0  0  0  0  0  0  0  0  0  0  0  0
    1.3866   -3.2262   -1.3610 H   0  0  0  0  0  0  0  0  0  0  0  0
    2.9807   -3.6000   -0.6959 H   0  0  0  0  0  0  0  0  0  0  0  0
   -3.7859   -3.7388   -0.5242 H   0  0  0  0  0  0  0  0  0  0  0  0
   -2.7111   -2.6998   -1.4872 H   0  0  0  0  0  0  0  0  0  0  0  0
   -4.4474   -2.2954   -1.3225 H   0  0  0  0  0  0  0  0  0  0  0  0
   -5.7299    1.7562   -0.9795 H   0  0  0  0  0  0  0  0  0  0  0  0
   -5.9688    3.3428   -0.2563 H   0  0  0  0  0  0  0  0  0  0  0  0
   -5.7178    1.9783    0.8265 H   0  0  0  0  0  0  0  0  0  0  0  0
  1  7  1  0  0  0  0
  1  8  1  0  0  0  0
  2 10  1  0  0  0  0
  2 21  1  0  0  0  0
  3 11  1  0  0  0  0
  3 22  1  0  0  0  0
  4 14  1  0  0  0  0
  4 23  1  0  0  0  0
  5  9  2  0  0  0  0
  6  7  2  0  0  0  0
  6  9  1  0  0  0  0
  6 11  1  0  0  0  0
  7 12  1  0  0  0  0
  8 10  2  0  0  0  0
  8 13  1  0  0  0  0
  9 10  1  0  0  0  0
 11 15  2  0  0  0  0
 12 14  2  0  0  0  0
 12 24  1  0  0  0  0
 13 16  2  0  0  0  0
 13 17  1  0  0  0  0
 14 15  1  0  0  0  0
 15 25  1  0  0  0  0
 16 18  1  0  0  0  0
 16 26  1  0  0  0  0
 17 19  2  0  0  0  0
 17 27  1  0  0  0  0
 18 20  2  0  0  0  0
 18 28  1  0  0  0  0
 19 20  1  0  0  0  0
 19 29  1  0  0  0  0
 20 30  1  0  0  0  0
 21 31  1  0  0  0  0
 21 32  1  0  0  0  0
 21 33  1  0  0  0  0
 22 34  1  0  0  0  0
 22 35  1  0  0  0  0
 22 36  1  0  0  0  0
 23 37  1  0  0  0  0
 23 38  1  0  0  0  0
 23 39  1  0  0  0  0
M  END
> <PUBCHEM_COMPOUND_CID>
117900

> <PUBCHEM_CONFORMER_RMSD>
0.6

> <PUBCHEM_CONFORMER_DIVERSEORDER>
1
6
8
2
7
3
5
4

> <PUBCHEM_MMFF94_PARTIAL_CHARGES>
30
1 -0.16
10 0.09
11 0.08
12 -0.15
13 0.03
14 0.08
15 -0.15
16 -0.15
17 -0.15
18 -0.15
19 -0.15
2 -0.36
20 -0.15
21 0.28
22 0.28
23 0.28
24 0.15
25 0.15
26 0.15
27 0.15
28 0.15
29 0.15
3 -0.36
30 0.15
4 -0.36
5 -0.57
6 0.09
7 0.08
8 0.05
9 0.47

> <PUBCHEM_EFFECTIVE_ROTOR_COUNT>
4

> <PUBCHEM_PHARMACOPHORE_FEATURES>
8
1 1 acceptor
1 2 acceptor
1 3 acceptor
1 4 acceptor
1 5 acceptor
6 1 6 7 8 9 10 rings
6 13 16 17 18 19 20 rings
6 6 7 11 12 14 15 rings

> <PUBCHEM_HEAVY_ATOM_COUNT>
23

> <PUBCHEM_ATOM_DEF_STEREO_COUNT>
0

> <PUBCHEM_ATOM_UDEF_STEREO_COUNT>
0

> <PUBCHEM_BOND_DEF_STEREO_COUNT>
0

> <PUBCHEM_BOND_UDEF_STEREO_COUNT>
0

> <PUBCHEM_ISOTOPIC_ATOM_COUNT>
0

> <PUBCHEM_COMPONENT_COUNT>
1

> <PUBCHEM_CACTVS_TAUTO_COUNT>
1

> <PUBCHEM_CONFORMER_ID>
0001CC8C00000001

> <PUBCHEM_MMFF94_ENERGY>
97.6586

> <PUBCHEM_FEATURE_SELFOVERLAP>
40.638

> <PUBCHEM_SHAPE_FINGERPRINT>
10319926 262 18264227846051582816
10411042 1 17547569279969669002
10493431 412 18411978100893844329
10498660 4 18408601465876865000
10616163 171 18411416172446138279
10646746 165 18409168788396819120
10670039 82 18272362037104897588
1100329 8 17252858863741682376
11963148 33 18124882257048950626
12107183 9 18127988601235468002
12173636 292 18410859901509461613
12236239 1 17632019642258990656
12390115 104 18335688464777545761
12403259 415 18187082802694784128
12403260 363 18269563732377248108
12403814 3 17274829047178679605
12553582 1 18195246616406974075
13140716 1 17765429851223366747
13540713 4 18339626941076905539
13540713 5 18269572653061700147
14790565 3 18269825450230785813
15196674 1 18411981385826108674
15536298 74 18337952410410304838
16087824 20 18410296896982261063
16752209 62 18268427945608592986
16945 1 18268425746126609427
17349148 13 18058733494358379046
17980427 23 17846495881661711628
18186145 218 17895185585239266800
20510252 161 18334573495251020872
20645477 56 18412544340644527753
20691752 17 17274822497522474874
21033648 29 18041574520702328512
21236236 1 18337674122256999825
21279426 13 18335131042853034406
21859007 373 17199123453711294237
22122407 14 15554173575318804038
22149856 69 18126540527780583081
22182313 1 18267000869409768763
22393880 68 18333724737121107862
2334 1 18412261761439034051
23366157 5 17987517177403941946
23402539 116 18339649923256495814
23557571 272 18261943068571402965
23558518 356 18273211993415492379
23559900 14 18190183584367584810
25147074 1 18271260394582810483
2748010 2 18341042029637020931
335352 9 18267866262765716622
34934 24 18411141359348656633
350125 39 18197777924006961084
3545911 37 18410570729666909333
469060 322 18197759043388614609
474 4 17917423259086828640
495365 180 17823148963468577234
5104073 3 18270112556494457145
5265222 85 18192984926032147060
56616090 163 18337666515875349293
7364860 26 18190462851783437026
7808743 9 18413109467582093208
9709674 26 18408885169804302743
9981440 41 18343301440227993410

> <PUBCHEM_SHAPE_MULTIPOLES>
443.98
10.54
3.2
0.96
2.51
1.57
0.07
-6.95
0.91
-3.03
0.3
1.01
-0.02
0.32

> <PUBCHEM_SHAPE_SELFOVERLAP>
973.752

> <PUBCHEM_SHAPE_VOLUME>
239.9

> <PUBCHEM_COORDINATE_TYPE>
2
5
10

$$$$

