238386
  -OEChem-07051213072D

 60 63  0     1  0  0  0  0  0999 V2000
    7.7820    1.4952    0.0000 O   0  0  0  0  0  0  0  0  0  0  0  0
    9.4284    0.9572    0.0000 O   0  0  0  0  0  0  0  0  0  0  0  0
    4.7931   -0.7600    0.0000 C   0  0  1  0  0  0  0  0  0  0  0  0
    5.6591   -1.2600    0.0000 C   0  0  2  0  0  0  0  0  0  0  0  0
    6.5251   -0.7600    0.0000 C   0  0  1  0  0  0  0  0  0  0  0  0
    3.8831   -1.2669    0.0000 C   0  0  2  0  0  0  0  0  0  0  0  0
    6.5251    0.2400    0.0000 C   0  0  2  0  0  0  0  0  0  0  0  0
    3.8751   -2.3085    0.0000 C   0  0  1  0  0  0  0  0  0  0  0  0
    4.7931    0.2400    0.0000 C   0  0  0  0  0  0  0  0  0  0  0  0
    5.6591    0.7400    0.0000 C   0  0  0  0  0  0  0  0  0  0  0  0
    5.6752   -2.3015    0.0000 C   0  0  0  0  0  0  0  0  0  0  0  0
    7.4714    0.5447    0.0000 C   0  0  2  0  0  0  0  0  0  0  0  0
    7.4714   -1.0648    0.0000 C   0  0  0  0  0  0  0  0  0  0  0  0
    4.7771   -2.8293    0.0000 C   0  0  0  0  0  0  0  0  0  0  0  0
    2.9562   -0.7028    0.0000 C   0  0  0  0  0  0  0  0  0  0  0  0
    8.0550   -0.2600    0.0000 C   0  0  0  0  0  0  0  0  0  0  0  0
    2.9396   -2.8582    0.0000 C   0  0  0  0  0  0  0  0  0  0  0  0
    3.8908   -0.2669    0.0000 C   0  0  0  0  0  0  0  0  0  0  0  0
    6.5251    1.2400    0.0000 C   0  0  0  0  0  0  0  0  0  0  0  0
    2.0084   -1.2307    0.0000 C   0  0  0  0  0  0  0  0  0  0  0  0
    2.0000   -2.3157    0.0000 C   0  0  0  0  0  0  0  0  0  0  0  0
    8.7605    1.7014    0.0000 C   0  0  0  0  0  0  0  0  0  0  0  0
    9.0712    2.6520    0.0000 C   0  0  0  0  0  0  0  0  0  0  0  0
   10.0497    2.8582    0.0000 C   0  0  0  0  0  0  0  0  0  0  0  0
    5.5292   -0.3350    0.0000 H   0  0  0  0  0  0  0  0  0  0  0  0
    6.3985   -1.6793    0.0000 H   0  0  0  0  0  0  0  0  0  0  0  0
    6.6151   -1.6052    0.0000 H   0  0  0  0  0  0  0  0  0  0  0  0
    3.8783   -3.1585    0.0000 H   0  0  0  0  0  0  0  0  0  0  0  0
    4.5810    0.8226    0.0000 H   0  0  0  0  0  0  0  0  0  0  0  0
    4.1825    0.1323    0.0000 H   0  0  0  0  0  0  0  0  0  0  0  0
    6.0576    1.2149    0.0000 H   0  0  0  0  0  0  0  0  0  0  0  0
    5.2606    1.2149    0.0000 H   0  0  0  0  0  0  0  0  0  0  0  0
    5.8932   -2.8819    0.0000 H   0  0  0  0  0  0  0  0  0  0  0  0
    6.2843   -2.1860    0.0000 H   0  0  0  0  0  0  0  0  0  0  0  0
    8.0838    0.6409    0.0000 H   0  0  0  0  0  0  0  0  0  0  0  0
    7.2203   -1.6317    0.0000 H   0  0  0  0  0  0  0  0  0  0  0  0
    8.0087   -1.3740    0.0000 H   0  0  0  0  0  0  0  0  0  0  0  0
    4.3798   -3.3052    0.0000 H   0  0  0  0  0  0  0  0  0  0  0  0
    5.1781   -3.3022    0.0000 H   0  0  0  0  0  0  0  0  0  0  0  0
    3.3645   -0.2361    0.0000 H   0  0  0  0  0  0  0  0  0  0  0  0
    2.5663   -0.2207    0.0000 H   0  0  0  0  0  0  0  0  0  0  0  0
    8.5158   -0.6747    0.0000 H   0  0  0  0  0  0  0  0  0  0  0  0
    8.5158    0.1547    0.0000 H   0  0  0  0  0  0  0  0  0  0  0  0
    2.5423   -3.3342    0.0000 H   0  0  0  0  0  0  0  0  0  0  0  0
    3.3406   -3.3311    0.0000 H   0  0  0  0  0  0  0  0  0  0  0  0
    4.5108   -0.2717    0.0000 H   0  0  0  0  0  0  0  0  0  0  0  0
    3.8956    0.3531    0.0000 H   0  0  0  0  0  0  0  0  0  0  0  0
    3.2708   -0.2621    0.0000 H   0  0  0  0  0  0  0  0  0  0  0  0
    7.1451    1.2400    0.0000 H   0  0  0  0  0  0  0  0  0  0  0  0
    6.5251    1.8600    0.0000 H   0  0  0  0  0  0  0  0  0  0  0  0
    5.9051    1.2400    0.0000 H   0  0  0  0  0  0  0  0  0  0  0  0
    1.8038   -0.6454    0.0000 H   0  0  0  0  0  0  0  0  0  0  0  0
    1.3967   -1.3321    0.0000 H   0  0  0  0  0  0  0  0  0  0  0  0
    1.3900   -2.2049    0.0000 H   0  0  0  0  0  0  0  0  0  0  0  0
    1.7864   -2.8978    0.0000 H   0  0  0  0  0  0  0  0  0  0  0  0
    9.0506    3.2716    0.0000 H   0  0  0  0  0  0  0  0  0  0  0  0
    8.4574    2.7393    0.0000 H   0  0  0  0  0  0  0  0  0  0  0  0
   10.1775    2.2515    0.0000 H   0  0  0  0  0  0  0  0  0  0  0  0
   10.6564    2.9860    0.0000 H   0  0  0  0  0  0  0  0  0  0  0  0
    9.9218    3.4649    0.0000 H   0  0  0  0  0  0  0  0  0  0  0  0
 12  1  1  1  0  0  0
  1 22  1  0  0  0  0
  2 22  2  0  0  0  0
  3  4  1  0  0  0  0
  3  6  1  0  0  0  0
  3  9  1  0  0  0  0
  3 25  1  6  0  0  0
  4  5  1  0  0  0  0
  4 11  1  0  0  0  0
  4 26  1  1  0  0  0
  5  7  1  0  0  0  0
  5 13  1  0  0  0  0
  5 27  1  6  0  0  0
  6  8  1  0  0  0  0
  6 15  1  0  0  0  0
  6 18  1  1  0  0  0
  7 10  1  0  0  0  0
  7 12  1  0  0  0  0
  7 19  1  1  0  0  0
  8 14  1  0  0  0  0
  8 17  1  0  0  0  0
  8 28  1  6  0  0  0
  9 10  1  0  0  0  0
  9 29  1  0  0  0  0
  9 30  1  0  0  0  0
 10 31  1  0  0  0  0
 10 32  1  0  0  0  0
 11 14  1  0  0  0  0
 11 33  1  0  0  0  0
 11 34  1  0  0  0  0
 12 16  1  0  0  0  0
 12 35  1  0  0  0  0
 13 16  1  0  0  0  0
 13 36  1  0  0  0  0
 13 37  1  0  0  0  0
 14 38  1  0  0  0  0
 14 39  1  0  0  0  0
 15 20  1  0  0  0  0
 15 40  1  0  0  0  0
 15 41  1  0  0  0  0
 16 42  1  0  0  0  0
 16 43  1  0  0  0  0
 17 21  1  0  0  0  0
 17 44  1  0  0  0  0
 17 45  1  0  0  0  0
 18 46  1  0  0  0  0
 18 47  1  0  0  0  0
 18 48  1  0  0  0  0
 19 49  1  0  0  0  0
 19 50  1  0  0  0  0
 19 51  1  0  0  0  0
 20 21  1  0  0  0  0
 20 52  1  0  0  0  0
 20 53  1  0  0  0  0
 21 54  1  0  0  0  0
 21 55  1  0  0  0  0
 22 23  1  0  0  0  0
 23 24  1  0  0  0  0
 23 56  1  0  0  0  0
 23 57  1  0  0  0  0
 24 58  1  0  0  0  0
 24 59  1  0  0  0  0
 24 60  1  0  0  0  0
M  END
> <PUBCHEM_COMPOUND_CID>
238386

> <PUBCHEM_COMPOUND_CANONICALIZED>
1

> <PUBCHEM_CACTVS_COMPLEXITY>
500

> <PUBCHEM_CACTVS_HBOND_ACCEPTOR>
2

> <PUBCHEM_CACTVS_HBOND_DONOR>
0

> <PUBCHEM_CACTVS_ROTATABLE_BOND>
3

> <PUBCHEM_CACTVS_SUBSKEYS>
AAADcfB4MAAAAAAAAAAAAAAAAAAAAYAAAAAwYMAAAAAAAGDAAAAAGgAAAAAADxSggAICCAAABAAIAACQCAAAAAAAAAAAAAEAAAAAAAIAAAACAAAEAAAAAAGAwPAPgAAAAAAAAACAAAQAACAAAIAADAAAAA==

> <PUBCHEM_IUPAC_OPENEYE_NAME>
[(5R,8R,9S,10S,13S,14S,17S)-10,13-dimethyl-2,3,4,5,6,7,8,9,11,12,14,15,16,17-tetradecahydro-1H-cyclopenta[a]phenanthren-17-yl] propanoate

> <PUBCHEM_IUPAC_CAS_NAME>
propanoic acid [(5R,8R,9S,10S,13S,14S,17S)-10,13-dimethyl-2,3,4,5,6,7,8,9,11,12,14,15,16,17-tetradecahydro-1H-cyclopenta[a]phenanthren-17-yl] ester

> <PUBCHEM_IUPAC_NAME>
[(5R,8R,9S,10S,13S,14S,17S)-10,13-dimethyl-2,3,4,5,6,7,8,9,11,12,14,15,16,17-tetradecahydro-1H-cyclopenta[a]phenanthren-17-yl] propanoate

> <PUBCHEM_IUPAC_SYSTEMATIC_NAME>
[(5R,8R,9S,10S,13S,14S,17S)-10,13-dimethyl-2,3,4,5,6,7,8,9,11,12,14,15,16,17-tetradecahydro-1H-cyclopenta[a]phenanthren-17-yl] propanoate

> <PUBCHEM_IUPAC_TRADITIONAL_NAME>
propionic acid [(5R,8R,9S,10S,13S,14S,17S)-10,13-dimethyl-2,3,4,5,6,7,8,9,11,12,14,15,16,17-tetradecahydro-1H-cyclopenta[a]phenanthren-17-yl] ester

> <PUBCHEM_IUPAC_INCHI>
InChI=1S/C22H36O2/c1-4-20(23)24-19-11-10-17-16-9-8-15-7-5-6-13-21(15,2)18(16)12-14-22(17,19)3/h15-19H,4-14H2,1-3H3/t15-,16+,17+,18+,19+,21+,22+/m1/s1

> <PUBCHEM_IUPAC_INCHIKEY>
LBGCQMWKTKHISP-WZYQIZRJSA-N

> <PUBCHEM_XLOGP3_AA>
6.9

> <PUBCHEM_EXACT_MASS>
332.27153

> <PUBCHEM_MOLECULAR_FORMULA>
C22H36O2

> <PUBCHEM_MOLECULAR_WEIGHT>
332.52004

> <PUBCHEM_OPENEYE_CAN_SMILES>
CCC(=O)OC1CCC2C1(CCC3C2CCC4C3(CCCC4)C)C

> <PUBCHEM_OPENEYE_ISO_SMILES>
CCC(=O)O[C@H]1CC[C@@H]2[C@@]1(CC[C@H]3[C@H]2CC[C@@H]4[C@@]3(CCCC4)C)C

> <PUBCHEM_CACTVS_TPSA>
26.3

> <PUBCHEM_MONOISOTOPIC_WEIGHT>
332.27153

> <PUBCHEM_TOTAL_CHARGE>
0

> <PUBCHEM_HEAVY_ATOM_COUNT>
24

> <PUBCHEM_ATOM_DEF_STEREO_COUNT>
7

> <PUBCHEM_ATOM_UDEF_STEREO_COUNT>
0

> <PUBCHEM_BOND_DEF_STEREO_COUNT>
0

> <PUBCHEM_BOND_UDEF_STEREO_COUNT>
0

> <PUBCHEM_ISOTOPIC_ATOM_COUNT>
0

> <PUBCHEM_COMPONENT_COUNT>
1

> <PUBCHEM_CACTVS_TAUTO_COUNT>
1

> <PUBCHEM_COORDINATE_TYPE>
1
5
255

> <PUBCHEM_BONDANNOTATIONS>
12  1  5
3  25  6
4  26  5
5  27  6
6  18  5
7  19  5
8  28  6

$$$$

