16203168
  -OEChem-07051213113D

 70 74  0     1  0  0  0  0  0999 V2000
    0.7089   -1.4119    0.1721 O   0  0  0  0  0  0  0  0  0  0  0  0
    1.2854   -3.3039   -1.9214 O   0  0  0  0  0  0  0  0  0  0  0  0
    0.0977    0.0088    2.5075 O   0  0  0  0  0  0  0  0  0  0  0  0
    4.3662    1.0503    1.9307 O   0  0  0  0  0  0  0  0  0  0  0  0
    4.8940   -3.6161    1.2205 O   0  0  0  0  0  0  0  0  0  0  0  0
    3.1576    5.0223   -1.4147 O   0  0  0  0  0  0  0  0  0  0  0  0
   -2.1349    1.4263    3.8674 O   0  0  0  0  0  0  0  0  0  0  0  0
   -2.0947    2.3714   -0.8338 O   0  0  0  0  0  0  0  0  0  0  0  0
   -2.8223   -0.5682   -3.2426 O   0  0  0  0  0  0  0  0  0  0  0  0
    2.4834    3.8460   -3.8413 O   0  0  0  0  0  0  0  0  0  0  0  0
   -4.9551   -2.1759   -2.4723 O   0  0  0  0  0  0  0  0  0  0  0  0
   -6.1901    1.3272    1.3668 O   0  0  0  0  0  0  0  0  0  0  0  0
    1.6945    1.0323    0.9865 C   0  0  2  0  0  0  0  0  0  0  0  0
    2.5293   -0.2084    1.0420 C   0  0  0  0  0  0  0  0  0  0  0  0
    0.9611   -3.7382   -0.6001 C   0  0  2  0  0  0  0  0  0  0  0  0
    0.0719   -2.6972    0.0927 C   0  0  2  0  0  0  0  0  0  0  0  0
    2.0013   -1.4345    0.6291 C   0  0  0  0  0  0  0  0  0  0  0  0
    2.2497   -3.9181    0.1999 C   0  0  0  0  0  0  0  0  0  0  0  0
    2.7905   -2.5913    0.6606 C   0  0  0  0  0  0  0  0  0  0  0  0
    0.1757    0.8052    1.3167 C   0  0  2  0  0  0  0  0  0  0  0  0
    1.9104    1.8013   -0.3257 C   0  0  0  0  0  0  0  0  0  0  0  0
   -0.6028    2.1114    1.5725 C   0  0  0  0  0  0  0  0  0  0  0  0
    3.8379   -0.1357    1.5168 C   0  0  0  0  0  0  0  0  0  0  0  0
    4.1012   -2.5082    1.1500 C   0  0  0  0  0  0  0  0  0  0  0  0
   -1.2726   -2.5547   -0.5960 C   0  0  0  0  0  0  0  0  0  0  0  0
    4.6221   -1.2855    1.5750 C   0  0  0  0  0  0  0  0  0  0  0  0
   -2.0984    1.9011    1.5174 C   0  0  0  0  0  0  0  0  0  0  0  0
    2.4384    3.0670   -0.2613 C   0  0  0  0  0  0  0  0  0  0  0  0
    1.5658    1.1886   -1.5052 C   0  0  0  0  0  0  0  0  0  0  0  0
   -1.4369   -1.6176   -1.6147 C   0  0  0  0  0  0  0  0  0  0  0  0
   -2.3414   -3.3617   -0.2086 C   0  0  0  0  0  0  0  0  0  0  0  0
    2.6348    3.7650   -1.4529 C   0  0  0  0  0  0  0  0  0  0  0  0
    1.7619    1.8867   -2.6967 C   0  0  0  0  0  0  0  0  0  0  0  0
   -2.7826    1.5684    2.6769 C   0  0  0  0  0  0  0  0  0  0  0  0
   -2.7623    2.0442    0.3082 C   0  0  0  0  0  0  0  0  0  0  0  0
   -2.6729   -1.4870   -2.2481 C   0  0  0  0  0  0  0  0  0  0  0  0
    2.2965    3.1748   -2.6707 C   0  0  0  0  0  0  0  0  0  0  0  0
   -3.5774   -3.2308   -0.8417 C   0  0  0  0  0  0  0  0  0  0  0  0
   -3.7432   -2.2937   -1.8615 C   0  0  0  0  0  0  0  0  0  0  0  0
   -4.1629    1.3745    2.6261 C   0  0  0  0  0  0  0  0  0  0  0  0
   -4.1426    1.8505    0.2574 C   0  0  0  0  0  0  0  0  0  0  0  0
   -4.8430    1.5157    1.4164 C   0  0  0  0  0  0  0  0  0  0  0  0
    2.0387    1.6741    1.8119 H   0  0  0  0  0  0  0  0  0  0  0  0
    0.4433   -4.7001   -0.6926 H   0  0  0  0  0  0  0  0  0  0  0  0
   -0.1241   -3.0126    1.1282 H   0  0  0  0  0  0  0  0  0  0  0  0
    2.0461   -4.5326    1.0852 H   0  0  0  0  0  0  0  0  0  0  0  0
    2.9869   -4.4296   -0.4299 H   0  0  0  0  0  0  0  0  0  0  0  0
   -0.3686    0.3119    0.5121 H   0  0  0  0  0  0  0  0  0  0  0  0
   -0.3243    2.8884    0.8520 H   0  0  0  0  0  0  0  0  0  0  0  0
   -0.3124    2.5510    2.5352 H   0  0  0  0  0  0  0  0  0  0  0  0
    5.6422   -1.2378    1.9485 H   0  0  0  0  0  0  0  0  0  0  0  0
    2.7019    3.5298    0.6848 H   0  0  0  0  0  0  0  0  0  0  0  0
    1.1600    0.1918   -1.5635 H   0  0  0  0  0  0  0  0  0  0  0  0
    1.8251   -3.9991   -2.3347 H   0  0  0  0  0  0  0  0  0  0  0  0
    0.6467    0.4345    3.1882 H   0  0  0  0  0  0  0  0  0  0  0  0
   -0.6095   -0.9990   -1.9411 H   0  0  0  0  0  0  0  0  0  0  0  0
   -2.2241   -4.0968    0.5829 H   0  0  0  0  0  0  0  0  0  0  0  0
    5.2820    0.9056    2.2242 H   0  0  0  0  0  0  0  0  0  0  0  0
    1.4977    1.4207   -3.6422 H   0  0  0  0  0  0  0  0  0  0  0  0
    4.3681   -4.4238    1.1135 H   0  0  0  0  0  0  0  0  0  0  0  0
   -4.4071   -3.8625   -0.5362 H   0  0  0  0  0  0  0  0  0  0  0  0
   -4.7032    1.1135    3.5328 H   0  0  0  0  0  0  0  0  0  0  0  0
   -4.6729    1.9590   -0.6855 H   0  0  0  0  0  0  0  0  0  0  0  0
    2.9178    5.5012   -2.2244 H   0  0  0  0  0  0  0  0  0  0  0  0
   -1.1942    1.2423    3.7271 H   0  0  0  0  0  0  0  0  0  0  0  0
   -1.1632    2.1095   -0.7710 H   0  0  0  0  0  0  0  0  0  0  0  0
   -1.9812   -0.0962   -3.3682 H   0  0  0  0  0  0  0  0  0  0  0  0
    3.1531    4.5380   -3.7184 H   0  0  0  0  0  0  0  0  0  0  0  0
   -4.8897   -1.4806   -3.1498 H   0  0  0  0  0  0  0  0  0  0  0  0
   -6.5098    1.1017    2.2573 H   0  0  0  0  0  0  0  0  0  0  0  0
  1 16  1  0  0  0  0
  1 17  1  0  0  0  0
  2 15  1  0  0  0  0
  2 54  1  0  0  0  0
  3 20  1  0  0  0  0
  3 55  1  0  0  0  0
  4 23  1  0  0  0  0
  4 58  1  0  0  0  0
  5 24  1  0  0  0  0
  5 60  1  0  0  0  0
  6 32  1  0  0  0  0
  6 64  1  0  0  0  0
  7 34  1  0  0  0  0
  7 65  1  0  0  0  0
  8 35  1  0  0  0  0
  8 66  1  0  0  0  0
  9 36  1  0  0  0  0
  9 67  1  0  0  0  0
 10 37  1  0  0  0  0
 10 68  1  0  0  0  0
 11 39  1  0  0  0  0
 11 69  1  0  0  0  0
 12 42  1  0  0  0  0
 12 70  1  0  0  0  0
 13 14  1  0  0  0  0
 13 20  1  0  0  0  0
 13 21  1  0  0  0  0
 13 43  1  0  0  0  0
 14 17  1  0  0  0  0
 14 23  2  0  0  0  0
 15 16  1  0  0  0  0
 15 18  1  0  0  0  0
 15 44  1  0  0  0  0
 16 25  1  0  0  0  0
 16 45  1  0  0  0  0
 17 19  2  0  0  0  0
 18 19  1  0  0  0  0
 18 46  1  0  0  0  0
 18 47  1  0  0  0  0
 19 24  1  0  0  0  0
 20 22  1  0  0  0  0
 20 48  1  0  0  0  0
 21 28  2  0  0  0  0
 21 29  1  0  0  0  0
 22 27  1  0  0  0  0
 22 49  1  0  0  0  0
 22 50  1  0  0  0  0
 23 26  1  0  0  0  0
 24 26  2  0  0  0  0
 25 30  2  0  0  0  0
 25 31  1  0  0  0  0
 26 51  1  0  0  0  0
 27 34  2  0  0  0  0
 27 35  1  0  0  0  0
 28 32  1  0  0  0  0
 28 52  1  0  0  0  0
 29 33  2  0  0  0  0
 29 53  1  0  0  0  0
 30 36  1  0  0  0  0
 30 56  1  0  0  0  0
 31 38  2  0  0  0  0
 31 57  1  0  0  0  0
 32 37  2  0  0  0  0
 33 37  1  0  0  0  0
 33 59  1  0  0  0  0
 34 40  1  0  0  0  0
 35 41  2  0  0  0  0
 36 39  2  0  0  0  0
 38 39  1  0  0  0  0
 38 61  1  0  0  0  0
 40 42  2  0  0  0  0
 40 62  1  0  0  0  0
 41 42  1  0  0  0  0
 41 63  1  0  0  0  0
M  END
> <PUBCHEM_COMPOUND_CID>
16203168

> <PUBCHEM_CONFORMER_RMSD>
1

> <PUBCHEM_CONFORMER_DIVERSEORDER>
5
26
113
73
53
64
109
81
45
80
4
83
43
116
32
60
110
97
23
6
72
71
49
29
107
48
59
115
119
88
66
7
61
118
30
79
91
2
62
111
16
50
36
54
52
94
51
31
98
108
8
63
21
102
37
35
117
13
105
68
100
95
96
106
112
3
47
75
85
77
25
56
17
58
120
103
99
46
90
20
84
67
55
39
70
78
27
76
33
82
65
19
101
22
86
41
18
28
92
89
74
24
12
87
10
104
38
15
93
34
14
42
9
114
1
11
69
40
57
44

> <PUBCHEM_MMFF94_PARTIAL_CHARGES>
62
1 -0.36
10 -0.53
11 -0.53
12 -0.53
13 0.29
14 -0.14
15 0.28
16 0.42
17 0.08
18 0.14
19 -0.14
2 -0.68
20 0.28
21 -0.14
22 0.14
23 0.08
24 0.08
25 -0.14
26 -0.15
27 -0.14
28 -0.15
29 -0.15
3 -0.68
30 -0.15
31 -0.15
32 0.08
33 -0.15
34 0.08
35 0.08
36 0.08
37 0.08
38 -0.15
39 0.08
4 -0.53
40 -0.15
41 -0.15
42 0.08
5 -0.53
51 0.15
52 0.15
53 0.15
54 0.4
55 0.4
56 0.15
57 0.15
58 0.45
59 0.15
6 -0.53
60 0.45
61 0.15
62 0.15
63 0.15
64 0.45
65 0.45
66 0.45
67 0.45
68 0.45
69 0.45
7 -0.53
70 0.45
8 -0.53
9 -0.53

> <PUBCHEM_EFFECTIVE_ROTOR_COUNT>
6.8

> <PUBCHEM_PHARMACOPHORE_FEATURES>
19
1 1 acceptor
1 10 donor
1 11 donor
1 12 donor
1 2 acceptor
1 2 donor
1 3 acceptor
1 3 donor
1 4 donor
1 5 donor
1 6 donor
1 7 donor
1 8 donor
1 9 donor
6 1 15 16 17 18 19 rings
6 14 17 19 23 24 26 rings
6 21 28 29 32 33 37 rings
6 25 30 31 36 38 39 rings
6 27 34 35 40 41 42 rings

> <PUBCHEM_HEAVY_ATOM_COUNT>
42

> <PUBCHEM_ATOM_DEF_STEREO_COUNT>
4

> <PUBCHEM_ATOM_UDEF_STEREO_COUNT>
0

> <PUBCHEM_BOND_DEF_STEREO_COUNT>
0

> <PUBCHEM_BOND_UDEF_STEREO_COUNT>
0

> <PUBCHEM_ISOTOPIC_ATOM_COUNT>
0

> <PUBCHEM_COMPONENT_COUNT>
1

> <PUBCHEM_CACTVS_TAUTO_COUNT>
994

> <PUBCHEM_CONFORMER_ID>
00F73DA000000005

> <PUBCHEM_MMFF94_ENERGY>
139.8912

> <PUBCHEM_FEATURE_SELFOVERLAP>
96.461

> <PUBCHEM_SHAPE_FINGERPRINT>
10190206 1 17908695134376254780
10653451 467 15454214104632992529
11421498 54 17764297354130738867
11513181 2 17604159189874007982
11578080 2 16155716434073097971
12156800 1 17604415319931472197
12788726 201 17753886117487709021
133893 2 18060135388932046190
140371 6 18339935805223859570
14295345 954 18124886917430844885
14400156 260 17823122468643730915
15324884 4 17836364122271350424
16993438 75 16974506525712411342
20739085 24 18340204206425109562
20764821 26 18040711463997960559
21304303 282 17691106159890056376
21583282 1 18051383418520593390
244849 19 16056616304204579704
24893989 43 16447589308528434239
3380486 145 18126579040034225104
338550 245 18335422391643027931
3493558 16 18198925624804165398
469060 322 18056220160990517990
50150288 127 17607775380400774273
5080951 261 17395060781827855018

> <PUBCHEM_SHAPE_MULTIPOLES>
793.91
9.13
6.19
3.45
5.53
0.4
-1.04
0.18
2.85
-3.62
-3.41
1.12
-2.47
-6.48

> <PUBCHEM_SHAPE_SELFOVERLAP>
1767.299

> <PUBCHEM_SHAPE_VOLUME>
418.8

> <PUBCHEM_COORDINATE_TYPE>
2
5
10

$$$$

