440987
  -OEChem-07051212513D

 21 22  0     0  0  0  0  0  0999 V2000
    2.8692   -1.4348    0.0002 O   0  0  0  0  0  0  0  0  0  0  0  0
    0.5766   -1.3975    0.0000 N   0  0  0  0  0  0  0  0  0  0  0  0
   -0.6061    0.7122    0.0003 C   0  0  0  0  0  0  0  0  0  0  0  0
   -0.6337   -0.6849    0.0001 C   0  0  0  0  0  0  0  0  0  0  0  0
    1.8386    0.7065    0.0001 C   0  0  0  0  0  0  0  0  0  0  0  0
    0.6859    1.3939    0.0002 C   0  0  0  0  0  0  0  0  0  0  0  0
    1.8192   -0.7937    0.0002 C   0  0  0  0  0  0  0  0  0  0  0  0
   -1.8103    1.4227    0.0003 C   0  0  0  0  0  0  0  0  0  0  0  0
   -1.8478   -1.3743   -0.0003 C   0  0  0  0  0  0  0  0  0  0  0  0
    3.1796    1.3731   -0.0008 C   0  0  0  0  0  0  0  0  0  0  0  0
   -3.0263    0.7361    0.0000 C   0  0  0  0  0  0  0  0  0  0  0  0
   -3.0448   -0.6591   -0.0004 C   0  0  0  0  0  0  0  0  0  0  0  0
    0.6844    2.4795   -0.0001 H   0  0  0  0  0  0  0  0  0  0  0  0
    0.5310   -2.4126   -0.0001 H   0  0  0  0  0  0  0  0  0  0  0  0
   -1.8163    2.5098    0.0005 H   0  0  0  0  0  0  0  0  0  0  0  0
   -1.8732   -2.4606   -0.0006 H   0  0  0  0  0  0  0  0  0  0  0  0
    3.0941    2.4650   -0.0013 H   0  0  0  0  0  0  0  0  0  0  0  0
    3.7495    1.0845   -0.8899 H   0  0  0  0  0  0  0  0  0  0  0  0
    3.7503    1.0853    0.8882 H   0  0  0  0  0  0  0  0  0  0  0  0
   -3.9608    1.2900   -0.0001 H   0  0  0  0  0  0  0  0  0  0  0  0
   -3.9932   -1.1885   -0.0008 H   0  0  0  0  0  0  0  0  0  0  0  0
  1  7  2  0  0  0  0
  2  4  1  0  0  0  0
  2  7  1  0  0  0  0
  2 14  1  0  0  0  0
  3  4  1  0  0  0  0
  3  6  1  0  0  0  0
  3  8  2  0  0  0  0
  4  9  2  0  0  0  0
  5  6  2  0  0  0  0
  5  7  1  0  0  0  0
  5 10  1  0  0  0  0
  6 13  1  0  0  0  0
  8 11  1  0  0  0  0
  8 15  1  0  0  0  0
  9 12  1  0  0  0  0
  9 16  1  0  0  0  0
 10 17  1  0  0  0  0
 10 18  1  0  0  0  0
 10 19  1  0  0  0  0
 11 12  2  0  0  0  0
 11 20  1  0  0  0  0
 12 21  1  0  0  0  0
M  END
> <PUBCHEM_COMPOUND_CID>
440987

> <PUBCHEM_CONFORMER_RMSD>
0.4

> <PUBCHEM_CONFORMER_DIVERSEORDER>
1

> <PUBCHEM_MMFF94_PARTIAL_CHARGES>
18
1 -0.57
10 0.14
11 -0.15
12 -0.15
13 0.15
14 0.37
15 0.15
16 0.15
2 -0.55
20 0.15
21 0.15
3 0.03
4 0.12
5 -0.12
6 -0.18
7 0.62
8 -0.15
9 -0.15

> <PUBCHEM_EFFECTIVE_ROTOR_COUNT>
0

> <PUBCHEM_PHARMACOPHORE_FEATURES>
4
1 1 acceptor
1 2 donor
6 2 3 4 5 6 7 rings
6 3 4 8 9 11 12 rings

> <PUBCHEM_HEAVY_ATOM_COUNT>
12

> <PUBCHEM_ATOM_DEF_STEREO_COUNT>
0

> <PUBCHEM_ATOM_UDEF_STEREO_COUNT>
0

> <PUBCHEM_BOND_DEF_STEREO_COUNT>
0

> <PUBCHEM_BOND_UDEF_STEREO_COUNT>
0

> <PUBCHEM_ISOTOPIC_ATOM_COUNT>
0

> <PUBCHEM_COMPONENT_COUNT>
1

> <PUBCHEM_CACTVS_TAUTO_COUNT>
2

> <PUBCHEM_CONFORMER_ID>
0006BA9B00000001

> <PUBCHEM_MMFF94_ENERGY>
28.7806

> <PUBCHEM_FEATURE_SELFOVERLAP>
20.323

> <PUBCHEM_SHAPE_FINGERPRINT>
10608611 8 18411422821055681357
10967382 1 18338798909783117541
11471102 20 18410860966814377069
12897270 3 18338234864660651501
12932764 1 17458912539332887353
13380535 21 18338785749998054352
13380535 76 18340208484022391754
14144814 61 18410292505974842305
14325111 11 18410573985230845249
15219456 202 18411136939410421737
15536298 74 18334012796414096756
15775835 57 18335132068722437881
16945 1 18266458698412744709
17844478 74 18059564794142631121
193761 8 15528271726973159552
19973954 147 18410854369296249825
20201158 50 18339645542389756251
20645477 70 18409172138381788887
20871998 184 18115301155884082303
21501502 16 18409730664043751497
2334 1 18410855442964123360
23402655 69 18335715953079735421
23463225 33 18413110580268084488
23552423 10 18272087188524128767
23559900 14 18191024706942399062
2748010 2 18411136943705363220
369184 2 18408323285176486769
5084963 1 18261395589137628515
528886 8 18338521845774795281
53812653 166 18188776037447638368
7364860 26 18334012813572983894

> <PUBCHEM_SHAPE_MULTIPOLES>
236.1
4.9
1.79
0.6
0.43
0.09
0
-0.31
0
0.36
0
-0.03
-0.02
0

> <PUBCHEM_SHAPE_SELFOVERLAP>
512.664

> <PUBCHEM_SHAPE_VOLUME>
129.2

> <PUBCHEM_COORDINATE_TYPE>
2
5
10

$$$$

