46173716
  -OEChem-07051212463D

 45 46  0     1  0  0  0  0  0999 V2000
    1.8540    0.3688    1.0785 O   0  0  0  0  0  0  0  0  0  0  0  0
    0.7071   -1.0892   -0.3606 O   0  0  0  0  0  0  0  0  0  0  0  0
   -1.7121    0.3270   -0.6181 O   0  0  0  0  0  0  0  0  0  0  0  0
   -1.7508   -1.9038   -1.3519 O   0  0  0  0  0  0  0  0  0  0  0  0
    3.0092   -1.5128   -1.7717 O   0  0  0  0  0  0  0  0  0  0  0  0
   -2.7753   -0.8192    1.9670 O   0  0  0  0  0  0  0  0  0  0  0  0
    3.9707    1.4216   -1.5878 O   0  0  0  0  0  0  0  0  0  0  0  0
   -4.5210   -1.0302   -1.1585 O   0  0  0  0  0  0  0  0  0  0  0  0
    3.5812   -2.0009    1.6386 O   0  0  0  0  0  0  0  0  0  0  0  0
    1.1308    3.0570    1.4454 O   0  0  0  0  0  0  0  0  0  0  0  0
   -2.2602    3.0272   -0.2372 O   0  0  0  0  0  0  0  0  0  0  0  0
    1.9328   -0.8628    0.3372 C   0  0  1  0  0  0  0  0  0  0  0  0
   -1.6767   -1.0497   -0.2075 C   0  0  2  0  0  0  0  0  0  0  0  0
    3.0559   -0.6302   -0.6684 C   0  0  2  0  0  0  0  0  0  0  0  0
   -2.9426   -1.2599    0.6262 C   0  0  2  0  0  0  0  0  0  0  0  0
    2.8071    0.8101   -1.0627 C   0  0  1  0  0  0  0  0  0  0  0  0
    2.4281    1.4241    0.2803 C   0  0  1  0  0  0  0  0  0  0  0  0
   -3.9374   -0.3396   -0.0566 C   0  0  1  0  0  0  0  0  0  0  0  0
   -3.0701    0.8055   -0.5770 C   0  0  1  0  0  0  0  0  0  0  0  0
   -0.3707   -1.3113    0.5316 C   0  0  0  0  0  0  0  0  0  0  0  0
    2.2105   -2.0242    1.2787 C   0  0  0  0  0  0  0  0  0  0  0  0
    1.4285    2.5603    0.1510 C   0  0  0  0  0  0  0  0  0  0  0  0
   -3.0992    2.0323    0.3235 C   0  0  0  0  0  0  0  0  0  0  0  0
    4.0583   -0.6981   -0.2305 H   0  0  0  0  0  0  0  0  0  0  0  0
   -3.2606   -2.3081    0.6323 H   0  0  0  0  0  0  0  0  0  0  0  0
    2.0100    0.8892   -1.8105 H   0  0  0  0  0  0  0  0  0  0  0  0
    3.3094    1.7814    0.8272 H   0  0  0  0  0  0  0  0  0  0  0  0
   -4.7480   -0.0006    0.5964 H   0  0  0  0  0  0  0  0  0  0  0  0
   -3.3348    1.0926   -1.6012 H   0  0  0  0  0  0  0  0  0  0  0  0
   -0.3499   -2.3541    0.8672 H   0  0  0  0  0  0  0  0  0  0  0  0
   -0.3058   -0.6420    1.3967 H   0  0  0  0  0  0  0  0  0  0  0  0
    2.0018   -2.9864    0.7987 H   0  0  0  0  0  0  0  0  0  0  0  0
    1.6250   -1.9533    2.2012 H   0  0  0  0  0  0  0  0  0  0  0  0
    0.4928    2.2070   -0.2928 H   0  0  0  0  0  0  0  0  0  0  0  0
    1.8337    3.3750   -0.4568 H   0  0  0  0  0  0  0  0  0  0  0  0
   -2.7161    1.8040    1.3229 H   0  0  0  0  0  0  0  0  0  0  0  0
   -4.1138    2.4336    0.4068 H   0  0  0  0  0  0  0  0  0  0  0  0
   -0.8509   -2.0141   -1.7025 H   0  0  0  0  0  0  0  0  0  0  0  0
    3.0986   -2.4173   -1.4266 H   0  0  0  0  0  0  0  0  0  0  0  0
   -3.6245   -0.9436    2.4242 H   0  0  0  0  0  0  0  0  0  0  0  0
    4.6832    1.3455   -0.9307 H   0  0  0  0  0  0  0  0  0  0  0  0
   -5.1205   -0.4089   -1.6061 H   0  0  0  0  0  0  0  0  0  0  0  0
    3.7347   -2.7546    2.2335 H   0  0  0  0  0  0  0  0  0  0  0  0
    0.4830    3.7737    1.3349 H   0  0  0  0  0  0  0  0  0  0  0  0
   -2.2903    3.7963    0.3570 H   0  0  0  0  0  0  0  0  0  0  0  0
  1 12  1  0  0  0  0
  1 17  1  0  0  0  0
  2 12  1  0  0  0  0
  2 20  1  0  0  0  0
  3 13  1  0  0  0  0
  3 19  1  0  0  0  0
  4 13  1  0  0  0  0
  4 38  1  0  0  0  0
  5 14  1  0  0  0  0
  5 39  1  0  0  0  0
  6 15  1  0  0  0  0
  6 40  1  0  0  0  0
  7 16  1  0  0  0  0
  7 41  1  0  0  0  0
  8 18  1  0  0  0  0
  8 42  1  0  0  0  0
  9 21  1  0  0  0  0
  9 43  1  0  0  0  0
 10 22  1  0  0  0  0
 10 44  1  0  0  0  0
 11 23  1  0  0  0  0
 11 45  1  0  0  0  0
 12 14  1  0  0  0  0
 12 21  1  0  0  0  0
 13 15  1  0  0  0  0
 13 20  1  0  0  0  0
 14 16  1  0  0  0  0
 14 24  1  0  0  0  0
 15 18  1  0  0  0  0
 15 25  1  0  0  0  0
 16 17  1  0  0  0  0
 16 26  1  0  0  0  0
 17 22  1  0  0  0  0
 17 27  1  0  0  0  0
 18 19  1  0  0  0  0
 18 28  1  0  0  0  0
 19 23  1  0  0  0  0
 19 29  1  0  0  0  0
 20 30  1  0  0  0  0
 20 31  1  0  0  0  0
 21 32  1  0  0  0  0
 21 33  1  0  0  0  0
 22 34  1  0  0  0  0
 22 35  1  0  0  0  0
 23 36  1  0  0  0  0
 23 37  1  0  0  0  0
M  END
> <PUBCHEM_COMPOUND_CID>
46173716

> <PUBCHEM_CONFORMER_RMSD>
0.8

> <PUBCHEM_CONFORMER_DIVERSEORDER>
1
56
34
75
123
151
177
164
133
108
147
10
113
29
145
126
163
77
137
13
132
160
94
37
14
92
178
107
170
112
141
78
166
61
157
42
79
154
17
148
111
57
139
101
31
80
149
73
168
67
181
136
182
109
47
46
171
105
62
12
140
175
150
25
144
55
128
5
179
115
45
172
183
85
93
82
66
20
59
63
41
152
8
161
40
138
162
102
119
86
18
180
54
39
121
16
51
131
71
43
117
72
19
134
176
65
158
98
70
110
11
167
96
124
99
184
21
118
130
127
129
159
142
26
135
174
53
38
114
173
3
146
100
83
95
116
48
30
87
27
120
9
68
52
143
36
35
155
153
6
24
156
49
81
84
125
32
169
15
122
60
4
28
89
22
165
88
7
97
74
91
106
104
44
103
76
58
23
50
33
69
64
2
90

> <PUBCHEM_MMFF94_PARTIAL_CHARGES>
31
1 -0.56
10 -0.68
11 -0.68
12 0.56
13 0.56
14 0.28
15 0.28
16 0.28
17 0.28
18 0.28
19 0.28
2 -0.56
20 0.28
21 0.28
22 0.28
23 0.28
3 -0.56
38 0.4
39 0.4
4 -0.68
40 0.4
41 0.4
42 0.4
43 0.4
44 0.4
45 0.4
5 -0.68
6 -0.68
7 -0.68
8 -0.68
9 -0.68

> <PUBCHEM_EFFECTIVE_ROTOR_COUNT>
8

> <PUBCHEM_PHARMACOPHORE_FEATURES>
21
1 1 acceptor
1 10 acceptor
1 10 donor
1 11 acceptor
1 11 donor
1 2 acceptor
1 3 acceptor
1 4 acceptor
1 4 donor
1 5 acceptor
1 5 donor
1 6 acceptor
1 6 donor
1 7 acceptor
1 7 donor
1 8 acceptor
1 8 donor
1 9 acceptor
1 9 donor
5 1 12 14 16 17 rings
5 3 13 15 18 19 rings

> <PUBCHEM_HEAVY_ATOM_COUNT>
23

> <PUBCHEM_ATOM_DEF_STEREO_COUNT>
7

> <PUBCHEM_ATOM_UDEF_STEREO_COUNT>
1

> <PUBCHEM_BOND_DEF_STEREO_COUNT>
0

> <PUBCHEM_BOND_UDEF_STEREO_COUNT>
0

> <PUBCHEM_ISOTOPIC_ATOM_COUNT>
0

> <PUBCHEM_COMPONENT_COUNT>
1

> <PUBCHEM_CACTVS_TAUTO_COUNT>
1

> <PUBCHEM_CONFORMER_ID>
02C08E1400000001

> <PUBCHEM_MMFF94_ENERGY>
72.525

> <PUBCHEM_FEATURE_SELFOVERLAP>
106.676

> <PUBCHEM_SHAPE_FINGERPRINT>
10366900 7 18200027335634018691
10498660 4 18197500627795968381
10759866 29 18201708596435114428
11715629 250 18187649033538735652
12035759 4 18125421258843483942
12633257 1 18196090169294993785
128993 33 18338793420862606949
13140716 1 18267026235380825512
13224815 77 17988641852906994671
13533116 47 17917998308522617243
13764800 53 17846210008575029939
14250199 8 18189332381698939253
14787075 74 17555720024501740835
15238133 3 18055070118987744880
15442244 35 18199474444341199194
15635459 17 18334292028880114357
1813 80 17415290700430021154
18981168 100 17417829360328047871
19078846 21 18268997655677046962
192875 21 18265918975948376343
20233049 118 18409445916829547116
20559304 39 18341061765069606210
21501502 16 18342459287313935049
21864079 5 18270390706723361757
221357 26 18334286574387667069
23419403 2 4860050203986792854
23557571 272 16515698692932520539
23559900 14 17632866321377195971
238 59 18337957761928863171
3060560 45 17895473627199965270
312423 11 18341611538148006091
3286 77 18271540765779215075
474 4 17631724951066355228
5895379 119 18116152349687882624
7097593 13 17984716759483844363
81228 2 17549832526408729418

> <PUBCHEM_SHAPE_MULTIPOLES>
408.77
7.55
2.98
1.49
2.56
2.01
-0.07
-0.57
1.39
-0.6
-0.71
-0.72
-0.39
-0.59

> <PUBCHEM_SHAPE_SELFOVERLAP>
846.177

> <PUBCHEM_SHAPE_VOLUME>
234.1

> <PUBCHEM_COORDINATE_TYPE>
2
5
10

$$$$

