612239
  -OEChem-07051213113D

 24 26  0     0  0  0  0  0  0999 V2000
    1.7615    1.5386    0.0007 O   0  0  0  0  0  0  0  0  0  0  0  0
   -3.0403    1.5819   -0.0003 O   0  0  0  0  0  0  0  0  0  0  0  0
   -0.8799   -2.5387    0.0001 O   0  0  0  0  0  0  0  0  0  0  0  0
    1.7414   -2.5343    0.0000 O   0  0  0  0  0  0  0  0  0  0  0  0
    0.4711   -0.5232    0.0001 C   0  0  0  0  0  0  0  0  0  0  0  0
   -1.9386   -0.3903    0.0000 C   0  0  0  0  0  0  0  0  0  0  0  0
    0.5590    0.8711    0.0002 C   0  0  0  0  0  0  0  0  0  0  0  0
   -0.7721   -1.1768    0.0002 C   0  0  0  0  0  0  0  0  0  0  0  0
   -1.8103    0.9946   -0.0002 C   0  0  0  0  0  0  0  0  0  0  0  0
   -0.5903    1.6690    0.0000 C   0  0  0  0  0  0  0  0  0  0  0  0
    1.7153   -1.3112   -0.0001 C   0  0  0  0  0  0  0  0  0  0  0  0
   -3.3351   -0.6481    0.0000 C   0  0  0  0  0  0  0  0  0  0  0  0
    2.9305    0.7965   -0.0001 C   0  0  0  0  0  0  0  0  0  0  0  0
    2.9745   -0.5432   -0.0006 C   0  0  0  0  0  0  0  0  0  0  0  0
   -3.9564    0.5790   -0.0001 C   0  0  0  0  0  0  0  0  0  0  0  0
    4.1696    1.6353   -0.0001 C   0  0  0  0  0  0  0  0  0  0  0  0
   -0.5400    2.7518    0.0001 H   0  0  0  0  0  0  0  0  0  0  0  0
   -3.8281   -1.6099    0.0001 H   0  0  0  0  0  0  0  0  0  0  0  0
    3.9077   -1.0944   -0.0010 H   0  0  0  0  0  0  0  0  0  0  0  0
   -4.9902    0.8919   -0.0001 H   0  0  0  0  0  0  0  0  0  0  0  0
    4.1925    2.2750    0.8881 H   0  0  0  0  0  0  0  0  0  0  0  0
    4.1920    2.2757   -0.8877 H   0  0  0  0  0  0  0  0  0  0  0  0
    5.0807    1.0279   -0.0006 H   0  0  0  0  0  0  0  0  0  0  0  0
   -0.0026   -2.9507    0.0004 H   0  0  0  0  0  0  0  0  0  0  0  0
  1  7  1  0  0  0  0
  1 13  1  0  0  0  0
  2  9  1  0  0  0  0
  2 15  1  0  0  0  0
  3  8  1  0  0  0  0
  3 24  1  0  0  0  0
  4 11  2  0  0  0  0
  5  7  2  0  0  0  0
  5  8  1  0  0  0  0
  5 11  1  0  0  0  0
  6  8  2  0  0  0  0
  6  9  1  0  0  0  0
  6 12  1  0  0  0  0
  7 10  1  0  0  0  0
  9 10  2  0  0  0  0
 10 17  1  0  0  0  0
 11 14  1  0  0  0  0
 12 15  2  0  0  0  0
 12 18  1  0  0  0  0
 13 14  2  0  0  0  0
 13 16  1  0  0  0  0
 14 19  1  0  0  0  0
 15 20  1  0  0  0  0
 16 21  1  0  0  0  0
 16 22  1  0  0  0  0
 16 23  1  0  0  0  0
M  END
> <PUBCHEM_COMPOUND_CID>
612239

> <PUBCHEM_CONFORMER_RMSD>
0.4

> <PUBCHEM_CONFORMER_DIVERSEORDER>
1

> <PUBCHEM_MMFF94_PARTIAL_CHARGES>
20
1 -0.16
10 -0.15
11 0.47
12 -0.15
13 -0.06
14 -0.14
15 -0.01
16 0.14
17 0.15
18 0.15
19 0.15
2 -0.28
20 0.15
24 0.45
3 -0.53
4 -0.57
5 0.09
7 0.08
8 0.08
9 0.14

> <PUBCHEM_EFFECTIVE_ROTOR_COUNT>
0

> <PUBCHEM_PHARMACOPHORE_FEATURES>
7
1 1 acceptor
1 2 acceptor
1 3 donor
1 4 acceptor
5 2 6 9 12 15 rings
6 1 5 7 11 13 14 rings
6 5 6 7 8 9 10 rings

> <PUBCHEM_HEAVY_ATOM_COUNT>
16

> <PUBCHEM_ATOM_DEF_STEREO_COUNT>
0

> <PUBCHEM_ATOM_UDEF_STEREO_COUNT>
0

> <PUBCHEM_BOND_DEF_STEREO_COUNT>
0

> <PUBCHEM_BOND_UDEF_STEREO_COUNT>
0

> <PUBCHEM_ISOTOPIC_ATOM_COUNT>
0

> <PUBCHEM_COMPONENT_COUNT>
1

> <PUBCHEM_CACTVS_TAUTO_COUNT>
14

> <PUBCHEM_CONFORMER_ID>
0009578F00000001

> <PUBCHEM_MMFF94_ENERGY>
34.9344

> <PUBCHEM_FEATURE_SELFOVERLAP>
35.652

> <PUBCHEM_SHAPE_FINGERPRINT>
10411042 1 16825307226425756487
10608611 8 18340490066152031045
10967382 1 18410856572524697956
10980938 120 18411419526947211922
11132069 177 18411423869296506168
11471102 20 18410579499926558029
11543360 7 15647060308969771936
11680986 33 18341321266904245458
12382932 28 18410292488810732522
13140716 1 17978786805612107601
13221675 6 18410292488710453524
13380535 76 18411702058517733762
13897977 150 18411140268210614197
14144814 61 18411136948100706681
14325111 11 18410855481750977153
14576447 43 18043550330180644607
14897335 6 18410296886967993710
15196674 1 18410573985156725893
15219456 202 18413106190753557145
15309172 13 18409439306663862587
15442244 35 18049160261131336338
15536298 74 18334294301144407150
15775835 57 18335417954482809989
16945 1 18410856516700698597
18186145 218 18335978787133431533
193761 8 17545883724290499553
200 152 18186811244976589597
20510252 161 18260826003544637857
20588541 1 18411135805539088104
20645477 70 18337114587393559311
21267235 1 18410284839374082606
21501502 16 18410014376724849147
2334 1 18338517542302057993
23366157 5 18059570360510151274
23402539 116 18334585594242452349
23402655 69 18334584563909360669
23463225 33 18340770445785051873
23559900 14 18260824844800311828
2748010 2 18340205314172951637
3312278 4 18336542733503428289
335352 9 17834395996652622109
449060 62 18335136505260046416
5104073 3 18411136943715946017
528886 8 18337958891763731552
53812653 166 18334579014342083208
69090 78 18408608032786453711
7364860 26 18263081166623469238
9709674 26 18409725149385339062

> <PUBCHEM_SHAPE_MULTIPOLES>
305.8
6.29
2.28
0.59
0.25
0.94
0
-2.33
0
0.63
0
0
-0.01
0

> <PUBCHEM_SHAPE_SELFOVERLAP>
692.793

> <PUBCHEM_SHAPE_VOLUME>
161.6

> <PUBCHEM_COORDINATE_TYPE>
2
5
10

$$$$

