4549
  -OEChem-06261200123D

 38 39  0     0  0  0  0  0  0999 V2000
    2.9533    3.1672    0.5629 O   0  0  0  0  0  0  0  0  0  0  0  0
    1.0227    2.7562   -0.5642 O   0  0  0  0  0  0  0  0  0  0  0  0
    6.0693   -2.1328    0.0189 O   0  5  0  0  0  0  0  0  0  0  0  0
    6.5083    0.0222   -0.0158 O   0  0  0  0  0  0  0  0  0  0  0  0
    0.1841    0.1639   -0.0192 N   0  0  0  0  0  0  0  0  0  0  0  0
    5.6980   -0.9350   -0.0002 N   0  3  0  0  0  0  0  0  0  0  0  0
   -2.2230   -0.2570   -0.0068 C   0  0  0  0  0  0  0  0  0  0  0  0
   -0.8243   -0.8682   -0.0030 C   0  0  0  0  0  0  0  0  0  0  0  0
   -3.3287   -1.3181    0.0049 C   0  0  0  0  0  0  0  0  0  0  0  0
   -4.7000   -0.6911    0.0143 C   0  0  0  0  0  0  0  0  0  0  0  0
    1.5466   -0.0910   -0.0150 C   0  0  0  0  0  0  0  0  0  0  0  0
    2.4970    0.9489   -0.0311 C   0  0  0  0  0  0  0  0  0  0  0  0
    2.0155   -1.4184    0.0059 C   0  0  0  0  0  0  0  0  0  0  0  0
   -5.3099   -0.4050    1.2265 C   0  0  0  0  0  0  0  0  0  0  0  0
   -5.3292   -0.4110   -1.1894 C   0  0  0  0  0  0  0  0  0  0  0  0
    3.8639    0.6709   -0.0264 C   0  0  0  0  0  0  0  0  0  0  0  0
    4.3067   -0.6516   -0.0053 C   0  0  0  0  0  0  0  0  0  0  0  0
    3.3825   -1.6962    0.0108 C   0  0  0  0  0  0  0  0  0  0  0  0
   -6.5788    0.1746    1.2352 C   0  0  0  0  0  0  0  0  0  0  0  0
   -6.5978    0.1687   -1.1808 C   0  0  0  0  0  0  0  0  0  0  0  0
   -7.2226    0.4615    0.0316 C   0  0  0  0  0  0  0  0  0  0  0  0
    2.0662    2.3412   -0.0539 C   0  0  0  0  0  0  0  0  0  0  0  0
   -2.3363    0.3862   -0.8897 H   0  0  0  0  0  0  0  0  0  0  0  0
   -2.3327    0.4027    0.8644 H   0  0  0  0  0  0  0  0  0  0  0  0
   -0.7186   -1.5124   -0.8842 H   0  0  0  0  0  0  0  0  0  0  0  0
   -0.7144   -1.4894    0.8941 H   0  0  0  0  0  0  0  0  0  0  0  0
   -3.2291   -1.9744   -0.8691 H   0  0  0  0  0  0  0  0  0  0  0  0
   -3.2157   -1.9691    0.8814 H   0  0  0  0  0  0  0  0  0  0  0  0
   -0.1222    1.1297   -0.0239 H   0  0  0  0  0  0  0  0  0  0  0  0
    1.3347   -2.2653    0.0188 H   0  0  0  0  0  0  0  0  0  0  0  0
   -4.8158   -0.6229    2.1690 H   0  0  0  0  0  0  0  0  0  0  0  0
   -4.8502   -0.6337   -2.1386 H   0  0  0  0  0  0  0  0  0  0  0  0
    4.5810    1.4880   -0.0552 H   0  0  0  0  0  0  0  0  0  0  0  0
    3.6909   -2.7385    0.0273 H   0  0  0  0  0  0  0  0  0  0  0  0
   -7.0650    0.4031    2.1791 H   0  0  0  0  0  0  0  0  0  0  0  0
   -7.0991    0.3926   -2.1178 H   0  0  0  0  0  0  0  0  0  0  0  0
   -8.2103    0.9131    0.0383 H   0  0  0  0  0  0  0  0  0  0  0  0
    2.6563    4.1020    0.5436 H   0  0  0  0  0  0  0  0  0  0  0  0
  1 22  1  0  0  0  0
  1 38  1  0  0  0  0
  2 22  2  0  0  0  0
  3  6  1  0  0  0  0
  4  6  2  0  0  0  0
  5  8  1  0  0  0  0
  5 11  1  0  0  0  0
  5 29  1  0  0  0  0
  6 17  1  0  0  0  0
  7  8  1  0  0  0  0
  7  9  1  0  0  0  0
  7 23  1  0  0  0  0
  7 24  1  0  0  0  0
  8 25  1  0  0  0  0
  8 26  1  0  0  0  0
  9 10  1  0  0  0  0
  9 27  1  0  0  0  0
  9 28  1  0  0  0  0
 10 14  2  0  0  0  0
 10 15  1  0  0  0  0
 11 12  2  0  0  0  0
 11 13  1  0  0  0  0
 12 16  1  0  0  0  0
 12 22  1  0  0  0  0
 13 18  2  0  0  0  0
 13 30  1  0  0  0  0
 14 19  1  0  0  0  0
 14 31  1  0  0  0  0
 15 20  2  0  0  0  0
 15 32  1  0  0  0  0
 16 17  2  0  0  0  0
 16 33  1  0  0  0  0
 17 18  1  0  0  0  0
 18 34  1  0  0  0  0
 19 21  2  0  0  0  0
 19 35  1  0  0  0  0
 20 21  1  0  0  0  0
 20 36  1  0  0  0  0
 21 37  1  0  0  0  0
M  CHG  2   3  -1   6   1
M  END
> <PUBCHEM_COMPOUND_CID>
4549

> <PUBCHEM_CONFORMER_RMSD>
0.8

> <PUBCHEM_CONFORMER_DIVERSEORDER>
1
19
30
26
38
31
23
3
17
8
35
7
25
36
5
21
39
12
27
24
6
28
14
34
16
37
22
11
20
4
32
29
33
10
2
15
18
9
13

> <PUBCHEM_MMFF94_PARTIAL_CHARGES>
31
1 -0.65
10 -0.14
11 0.1
12 0.09
13 -0.15
14 -0.15
15 -0.15
16 -0.15
17 0.13
18 -0.15
19 -0.15
2 -0.57
20 -0.15
21 -0.15
22 0.63
29 0.4
3 -0.52
30 0.15
31 0.15
32 0.15
33 0.15
34 0.15
35 0.15
36 0.15
37 0.15
38 0.5
4 -0.52
5 -0.87
6 0.91
8 0.37
9 0.14

> <PUBCHEM_EFFECTIVE_ROTOR_COUNT>
7

> <PUBCHEM_PHARMACOPHORE_FEATURES>
10
1 1 acceptor
1 2 acceptor
1 3 acceptor
1 3 anion
1 4 acceptor
1 5 cation
1 5 donor
3 1 2 22 anion
6 10 14 15 19 20 21 rings
6 11 12 13 16 17 18 rings

> <PUBCHEM_HEAVY_ATOM_COUNT>
22

> <PUBCHEM_ATOM_DEF_STEREO_COUNT>
0

> <PUBCHEM_ATOM_UDEF_STEREO_COUNT>
0

> <PUBCHEM_BOND_DEF_STEREO_COUNT>
0

> <PUBCHEM_BOND_UDEF_STEREO_COUNT>
0

> <PUBCHEM_ISOTOPIC_ATOM_COUNT>
0

> <PUBCHEM_COMPONENT_COUNT>
1

> <PUBCHEM_CACTVS_TAUTO_COUNT>
2

> <PUBCHEM_CONFORMER_ID>
000011C500000001

> <PUBCHEM_MMFF94_ENERGY>
71.9349

> <PUBCHEM_FEATURE_SELFOVERLAP>
50.881

> <PUBCHEM_SHAPE_FINGERPRINT>
10411042 1 18266177430697348654
10688039 33 18059856198794015468
11089746 13 17603305938542677067
11315181 36 15213021540697699643
11405975 8 18339641136202060963
11545043 162 17417804012058794891
12166972 35 18113057138144988361
12236239 1 17748829600713208839
12616971 3 18040989623507591897
13167372 99 18187641427716384609
13590594 115 18411133671083566121
14170010 4 18409732842119892776
14341114 176 18343016675406183293
14933364 13 18060416915764842855
15183329 4 18411423929716075155
15348495 7 18059287657262198947
15419008 47 17775570853599704573
15537594 2 11600005427839768793
17844677 252 18412538800463334757
19489759 90 15791730811385863043
20612939 158 18409449150776552921
21033648 29 17703804595972932293
21033650 10 15793105183323710203
21267235 1 18411131481203522214
21792934 111 18337966653534715144
21792961 116 18058738030387357662
221357 26 18342462564163121989
22224240 67 17240491312466473382
23559900 14 18339646646433780419
29717793 49 17749103396362078598
3178227 256 18273207603863593762
335352 9 18410573972625622582
350125 39 18411417310586286412
4073 2 18059289838462546315
5104073 3 18268713814168315931

> <PUBCHEM_SHAPE_MULTIPOLES>
419.31
19.37
2.18
0.9
16.36
1.74
-0.02
-3.19
-0.32
-3.78
-0.04
1.67
0.04
0.1

> <PUBCHEM_SHAPE_SELFOVERLAP>
889.591

> <PUBCHEM_SHAPE_VOLUME>
233.6

> <PUBCHEM_COORDINATE_TYPE>
2
5
10

$$$$

