12125
  -OEChem-06261206343D

 18 18  0     0  0  0  0  0  0999 V2000
   -3.5281   -0.3107   -0.4399 O   0  5  0  0  0  0  0  0  0  0  0  0
   -2.3229   -2.0099    0.2525 O   0  0  0  0  0  0  0  0  0  0  0  0
   -2.4364   -0.8003   -0.0617 N   0  3  0  0  0  0  0  0  0  0  0  0
    3.7966   -1.1336   -1.0549 N   0  0  0  0  0  0  0  0  0  0  0  0
    1.0511    0.3446    0.5055 C   0  0  0  0  0  0  0  0  0  0  0  0
   -0.0703   -0.4815    0.4313 C   0  0  0  0  0  0  0  0  0  0  0  0
   -1.2943    0.0400    0.0125 C   0  0  0  0  0  0  0  0  0  0  0  0
    0.9486    1.6923    0.1607 C   0  0  0  0  0  0  0  0  0  0  0  0
    2.3604   -0.2128    0.9523 C   0  0  0  0  0  0  0  0  0  0  0  0
   -1.3968    1.3876   -0.3323 C   0  0  0  0  0  0  0  0  0  0  0  0
   -0.2753    2.2138   -0.2583 C   0  0  0  0  0  0  0  0  0  0  0  0
    3.1674   -0.7295   -0.1677 C   0  0  0  0  0  0  0  0  0  0  0  0
    0.0335   -1.5295    0.7036 H   0  0  0  0  0  0  0  0  0  0  0  0
    1.8149    2.3466    0.2126 H   0  0  0  0  0  0  0  0  0  0  0  0
    2.1947   -1.0125    1.6852 H   0  0  0  0  0  0  0  0  0  0  0  0
    2.9287    0.5575    1.4889 H   0  0  0  0  0  0  0  0  0  0  0  0
   -2.3337    1.8286   -0.6628 H   0  0  0  0  0  0  0  0  0  0  0  0
   -0.3547    3.2632   -0.5271 H   0  0  0  0  0  0  0  0  0  0  0  0
  1  3  1  0  0  0  0
  2  3  2  0  0  0  0
  3  7  1  0  0  0  0
  4 12  3  0  0  0  0
  5  6  2  0  0  0  0
  5  8  1  0  0  0  0
  5  9  1  0  0  0  0
  6  7  1  0  0  0  0
  6 13  1  0  0  0  0
  7 10  2  0  0  0  0
  8 11  2  0  0  0  0
  8 14  1  0  0  0  0
  9 12  1  0  0  0  0
  9 15  1  0  0  0  0
  9 16  1  0  0  0  0
 10 11  1  0  0  0  0
 10 17  1  0  0  0  0
 11 18  1  0  0  0  0
M  CHG  2   1  -1   3   1
M  END
> <PUBCHEM_COMPOUND_CID>
12125

> <PUBCHEM_CONFORMER_RMSD>
0.6

> <PUBCHEM_CONFORMER_DIVERSEORDER>
1
4
3
2

> <PUBCHEM_MMFF94_PARTIAL_CHARGES>
16
1 -0.52
10 -0.15
11 -0.15
12 0.36
13 0.15
14 0.15
17 0.15
18 0.15
2 -0.52
3 0.91
4 -0.56
5 -0.14
6 -0.15
7 0.13
8 -0.15
9 0.34

> <PUBCHEM_EFFECTIVE_ROTOR_COUNT>
2

> <PUBCHEM_PHARMACOPHORE_FEATURES>
5
1 1 acceptor
1 1 anion
1 2 acceptor
1 4 acceptor
6 5 6 7 8 10 11 rings

> <PUBCHEM_HEAVY_ATOM_COUNT>
12

> <PUBCHEM_ATOM_DEF_STEREO_COUNT>
0

> <PUBCHEM_ATOM_UDEF_STEREO_COUNT>
0

> <PUBCHEM_BOND_DEF_STEREO_COUNT>
0

> <PUBCHEM_BOND_UDEF_STEREO_COUNT>
0

> <PUBCHEM_ISOTOPIC_ATOM_COUNT>
0

> <PUBCHEM_COMPONENT_COUNT>
1

> <PUBCHEM_CACTVS_TAUTO_COUNT>
1

> <PUBCHEM_CONFORMER_ID>
00002F5D00000001

> <PUBCHEM_MMFF94_ENERGY>
29.3121

> <PUBCHEM_FEATURE_SELFOVERLAP>
25.453

> <PUBCHEM_SHAPE_FINGERPRINT>
10353120 184 18273221901724981297
10465860 71 18342448257969690596
11127187 94 18341612671734146198
11206711 2 18201730599209583197
12032990 46 18411698764409667099
12138202 97 18053950833320131788
12716758 59 18121786298712969696
14128692 85 18342453725299820092
14252887 29 18335702676597273666
161256 15 18339088085932063376
16945 1 18270131243237973113
17990270 104 18124600777712572323
20281407 28 18334856125763844314
20645477 70 18051985723180537975
20711985 344 18267307710294284368
20871998 22 18409732815975341280
20871999 31 18341611576586284876
21061003 4 16877943892893746354
22213442 358 18338233765475947916
228727 97 17775000236770410912
23552423 10 18059298647424249345
23557571 272 18335143137507352472
23559900 14 18264496268685912010
2748010 2 18198354965500147737
449060 23 18408044004653913694
7364860 26 18119249458931400280
8030462 33 17703790374956134064
81228 2 18340490083305578768

> <PUBCHEM_SHAPE_MULTIPOLES>
225.25
5.1
1.95
0.82
1.69
0.6
-0.01
-3.03
-1.24
-0.72
-0.13
0.51
-0.08
0.44

> <PUBCHEM_SHAPE_SELFOVERLAP>
468.922

> <PUBCHEM_SHAPE_VOLUME>
126.5

> <PUBCHEM_COORDINATE_TYPE>
2
5
10

$$$$

