586338
  -OEChem-06241222463D

 44 45  0     1  0  0  0  0  0999 V2000
    1.8152    0.8660    0.0982 O   0  0  0  0  0  0  0  0  0  0  0  0
    2.5786   -1.3711    0.6225 O   0  0  0  0  0  0  0  0  0  0  0  0
   -1.4997    3.5144    0.4767 O   0  0  0  0  0  0  0  0  0  0  0  0
    1.8972   -2.3746    2.5388 O   0  0  0  0  0  0  0  0  0  0  0  0
   -4.3257   -1.8291   -1.0559 O   0  0  0  0  0  0  0  0  0  0  0  0
    3.4143   -0.2198   -1.2951 C   0  0  0  0  0  0  0  0  0  0  0  0
    2.2092   -0.4160   -0.3887 C   0  0  2  0  0  0  0  0  0  0  0  0
    3.0557    0.7363   -2.4484 C   0  0  0  0  0  0  0  0  0  0  0  0
    4.5844    0.3806   -0.4931 C   0  0  0  0  0  0  0  0  0  0  0  0
    3.8548   -1.5725   -1.8856 C   0  0  0  0  0  0  0  0  0  0  0  0
    0.9706    0.7634    1.1802 C   0  0  0  0  0  0  0  0  0  0  0  0
    0.1370    1.9819    1.4156 C   0  0  0  0  0  0  0  0  0  0  0  0
   -0.7373    2.3380    0.2049 C   0  0  1  0  0  0  0  0  0  0  0  0
    0.9018   -0.3221    1.9611 C   0  0  0  0  0  0  0  0  0  0  0  0
    1.8167   -1.4498    1.7396 C   0  0  0  0  0  0  0  0  0  0  0  0
   -1.6995    1.2205   -0.1330 C   0  0  0  0  0  0  0  0  0  0  0  0
   -1.6696    0.6632   -1.3994 C   0  0  0  0  0  0  0  0  0  0  0  0
   -2.5887    0.7798    0.8318 C   0  0  0  0  0  0  0  0  0  0  0  0
   -2.5569   -0.3670   -1.7111 C   0  0  0  0  0  0  0  0  0  0  0  0
   -3.4760   -0.2505    0.5202 C   0  0  0  0  0  0  0  0  0  0  0  0
   -3.4601   -0.8240   -0.7513 C   0  0  0  0  0  0  0  0  0  0  0  0
   -5.2221   -2.2479   -0.0279 C   0  0  0  0  0  0  0  0  0  0  0  0
    1.3761   -0.8447   -0.9639 H   0  0  0  0  0  0  0  0  0  0  0  0
    2.7968    1.7369   -2.0850 H   0  0  0  0  0  0  0  0  0  0  0  0
    3.8979    0.8502   -3.1406 H   0  0  0  0  0  0  0  0  0  0  0  0
    2.2032    0.3573   -3.0234 H   0  0  0  0  0  0  0  0  0  0  0  0
    4.8897   -0.2716    0.3324 H   0  0  0  0  0  0  0  0  0  0  0  0
    4.3299    1.3591   -0.0712 H   0  0  0  0  0  0  0  0  0  0  0  0
    5.4618    0.5233   -1.1349 H   0  0  0  0  0  0  0  0  0  0  0  0
    3.0340   -2.0496   -2.4329 H   0  0  0  0  0  0  0  0  0  0  0  0
    4.6874   -1.4419   -2.5866 H   0  0  0  0  0  0  0  0  0  0  0  0
    4.1919   -2.2688   -1.1101 H   0  0  0  0  0  0  0  0  0  0  0  0
   -0.4708    1.8858    2.3244 H   0  0  0  0  0  0  0  0  0  0  0  0
    0.8054    2.8282    1.6250 H   0  0  0  0  0  0  0  0  0  0  0  0
   -0.1031    2.5686   -0.6602 H   0  0  0  0  0  0  0  0  0  0  0  0
    0.2323   -0.3764    2.8120 H   0  0  0  0  0  0  0  0  0  0  0  0
   -0.9695    1.0090   -2.1542 H   0  0  0  0  0  0  0  0  0  0  0  0
   -2.6242    1.2229    1.8224 H   0  0  0  0  0  0  0  0  0  0  0  0
   -0.8728    4.2238    0.6987 H   0  0  0  0  0  0  0  0  0  0  0  0
   -2.5392   -0.8102   -2.7030 H   0  0  0  0  0  0  0  0  0  0  0  0
   -4.1523   -0.5551    1.3116 H   0  0  0  0  0  0  0  0  0  0  0  0
   -4.6839   -2.6651    0.8299 H   0  0  0  0  0  0  0  0  0  0  0  0
   -5.8359   -3.0541   -0.4430 H   0  0  0  0  0  0  0  0  0  0  0  0
   -5.9056   -1.4428    0.2625 H   0  0  0  0  0  0  0  0  0  0  0  0
  1  7  1  0  0  0  0
  1 11  1  0  0  0  0
  2  7  1  0  0  0  0
  2 15  1  0  0  0  0
  3 13  1  0  0  0  0
  3 39  1  0  0  0  0
  4 15  2  0  0  0  0
  5 21  1  0  0  0  0
  5 22  1  0  0  0  0
  6  7  1  0  0  0  0
  6  8  1  0  0  0  0
  6  9  1  0  0  0  0
  6 10  1  0  0  0  0
  7 23  1  0  0  0  0
  8 24  1  0  0  0  0
  8 25  1  0  0  0  0
  8 26  1  0  0  0  0
  9 27  1  0  0  0  0
  9 28  1  0  0  0  0
  9 29  1  0  0  0  0
 10 30  1  0  0  0  0
 10 31  1  0  0  0  0
 10 32  1  0  0  0  0
 11 12  1  0  0  0  0
 11 14  2  0  0  0  0
 12 13  1  0  0  0  0
 12 33  1  0  0  0  0
 12 34  1  0  0  0  0
 13 16  1  0  0  0  0
 13 35  1  0  0  0  0
 14 15  1  0  0  0  0
 14 36  1  0  0  0  0
 16 17  2  0  0  0  0
 16 18  1  0  0  0  0
 17 19  1  0  0  0  0
 17 37  1  0  0  0  0
 18 20  2  0  0  0  0
 18 38  1  0  0  0  0
 19 21  2  0  0  0  0
 19 40  1  0  0  0  0
 20 21  1  0  0  0  0
 20 41  1  0  0  0  0
 22 42  1  0  0  0  0
 22 43  1  0  0  0  0
 22 44  1  0  0  0  0
M  END
> <PUBCHEM_COMPOUND_CID>
586338

> <PUBCHEM_CONFORMER_RMSD>
0.8

> <PUBCHEM_CONFORMER_DIVERSEORDER>
24
51
57
87
58
42
82
52
110
2
89
43
55
113
105
44
94
91
114
38
18
102
109
120
45
17
117
67
31
48
98
116
90
101
97
47
3
104
16
115
69
95
73
92
112
21
35
65
81
37
119
85
53
111
34
56
19
72
32
99
26
86
121
30
7
106
61
78
49
13
11
76
39
15
25
27
77
68
8
80
74
10
5
88
70
71
100
75
28
64
14
22
46
118
59
50
23
66
41
103
9
33
62
6
1
84
79
29
93
40
83
107
4
122
12
20
60
54
63
108
36
96

> <PUBCHEM_MMFF94_PARTIAL_CHARGES>
24
1 -0.36
11 -0.06
12 0.14
13 0.42
14 -0.14
15 0.71
16 -0.14
17 -0.15
18 -0.15
19 -0.15
2 -0.43
20 -0.15
21 0.08
22 0.28
3 -0.68
36 0.15
37 0.15
38 0.15
39 0.4
4 -0.57
40 0.15
41 0.15
5 -0.36
7 0.56

> <PUBCHEM_EFFECTIVE_ROTOR_COUNT>
5.6

> <PUBCHEM_PHARMACOPHORE_FEATURES>
8
1 1 acceptor
1 3 acceptor
1 3 donor
1 4 acceptor
1 5 acceptor
4 6 8 9 10 hydrophobe
6 1 2 7 11 14 15 rings
6 16 17 18 19 20 21 rings

> <PUBCHEM_HEAVY_ATOM_COUNT>
22

> <PUBCHEM_ATOM_DEF_STEREO_COUNT>
0

> <PUBCHEM_ATOM_UDEF_STEREO_COUNT>
2

> <PUBCHEM_BOND_DEF_STEREO_COUNT>
0

> <PUBCHEM_BOND_UDEF_STEREO_COUNT>
0

> <PUBCHEM_ISOTOPIC_ATOM_COUNT>
0

> <PUBCHEM_COMPONENT_COUNT>
1

> <PUBCHEM_CACTVS_TAUTO_COUNT>
1

> <PUBCHEM_CONFORMER_ID>
0008F26200000018

> <PUBCHEM_MMFF94_ENERGY>
66.6166

> <PUBCHEM_FEATURE_SELFOVERLAP>
40.594

> <PUBCHEM_SHAPE_FINGERPRINT>
10165383 225 11452215929164371725
11069576 57 17986417622299439995
11140007 195 16878215394956402147
11578080 2 17912959285181854388
11725454 13 14404903527389698452
12160290 23 17680728200184566673
12202030 40 16805900596432876520
12363563 72 17972915594013781495
12553582 1 18334869290107696831
12596599 1 18040438776471694467
12633257 1 13984657027995886463
12670546 177 16128101044685195807
12714826 92 17895477041393172353
12788726 201 18267302209074499449
13009979 54 18055650652738165298
13103583 49 14345782838714788391
13464513 79 18041563516209807223
14115302 16 17839770357976262337
14251740 57 17461724987647110855
14251764 30 18040702654624904999
14251764 38 14117798016052839670
15061688 2 11887677247409775021
15342816 4 18338811026223586763
15664445 248 17987807280753731397
16752209 62 17972890429880054617
17349148 13 17703509995486305960
17492 54 16271354180773362895
1813 80 18187644657304827229
192875 21 16845577513230391532
19752476 56 13972870332013039239
19784866 135 17386557093502480139
20645476 183 17762047044681306449
20645477 70 17973746687797891797
20715895 44 8357444486986398987
20723712 36 7204502125347696096
21731516 1 18334870436589573969
23419403 2 17622976050786352641
23466295 7 16376871253801113654
23557571 272 17823998920316879344
23598288 3 18194411210554424125
23598291 2 17554319607269885408
238 59 16415477142855913230
474 4 11383846956303859397
5895379 119 15767007235124181957
633830 44 17700945951413213692
6669772 16 17983026548799345184
7970288 3 18187927236041407839
8509985 295 4822950044260168691

> <PUBCHEM_SHAPE_MULTIPOLES>
423.4
8.49
2.6
2.25
3.04
1.23
-0.47
-5.99
3.35
1.67
-0.49
-1.95
-0.9
-0.52

> <PUBCHEM_SHAPE_SELFOVERLAP>
887.528

> <PUBCHEM_SHAPE_VOLUME>
240

> <PUBCHEM_COORDINATE_TYPE>
2
5
10

$$$$

