439447
  -OEChem-07051212453D

 31 30  0     1  0  0  0  0  0999 V2000
   -2.5371    1.8469   -0.5959 O   0  0  0  0  0  0  0  0  0  0  0  0
   -1.3731    1.8698    1.3871 O   0  0  0  0  0  0  0  0  0  0  0  0
    2.2471    0.2906   -1.3675 O   0  0  0  0  0  0  0  0  0  0  0  0
    0.6711    0.3547    0.3410 N   0  0  0  0  0  0  0  0  0  0  0  0
    4.2766   -0.1908    0.3556 N   0  3  0  0  0  0  0  0  0  0  0  0
    5.2737   -0.2981   -0.0623 N   0  0  0  0  0  0  0  0  0  0  0  0
   -1.1338   -0.6849   -0.9720 C   0  0  0  0  0  0  0  0  0  0  0  0
   -0.4862    0.6147   -0.4782 C   0  0  1  0  0  0  0  0  0  0  0  0
   -1.7078   -1.5574    0.1523 C   0  0  0  0  0  0  0  0  0  0  0  0
   -2.2873   -2.8599   -0.4016 C   0  0  0  0  0  0  0  0  0  0  0  0
   -1.5007    1.5093    0.2215 C   0  0  0  0  0  0  0  0  0  0  0  0
   -2.8243   -3.7478    0.7099 C   0  0  0  0  0  0  0  0  0  0  0  0
    1.9510    0.2134   -0.1780 C   0  0  0  0  0  0  0  0  0  0  0  0
    2.9686   -0.0502    0.9035 C   0  0  0  0  0  0  0  0  0  0  0  0
   -3.5378    2.6898   -0.0153 C   0  0  0  0  0  0  0  0  0  0  0  0
   -1.9364   -0.4508   -1.6826 H   0  0  0  0  0  0  0  0  0  0  0  0
   -0.3873   -1.2671   -1.5278 H   0  0  0  0  0  0  0  0  0  0  0  0
   -0.1383    1.1804   -1.3524 H   0  0  0  0  0  0  0  0  0  0  0  0
   -2.4923   -1.0115    0.6892 H   0  0  0  0  0  0  0  0  0  0  0  0
   -0.9218   -1.7938    0.8792 H   0  0  0  0  0  0  0  0  0  0  0  0
   -1.5144   -3.4068   -0.9541 H   0  0  0  0  0  0  0  0  0  0  0  0
   -3.0953   -2.6369   -1.1079 H   0  0  0  0  0  0  0  0  0  0  0  0
    0.5336    0.2603    1.3434 H   0  0  0  0  0  0  0  0  0  0  0  0
   -3.2348   -4.6721    0.2916 H   0  0  0  0  0  0  0  0  0  0  0  0
   -3.6211   -3.2425    1.2648 H   0  0  0  0  0  0  0  0  0  0  0  0
   -2.0314   -4.0169    1.4150 H   0  0  0  0  0  0  0  0  0  0  0  0
    2.7033   -0.9701    1.4342 H   0  0  0  0  0  0  0  0  0  0  0  0
    2.9668    0.7826    1.6139 H   0  0  0  0  0  0  0  0  0  0  0  0
   -4.3020    2.8816   -0.7733 H   0  0  0  0  0  0  0  0  0  0  0  0
   -3.0986    3.6442    0.2903 H   0  0  0  0  0  0  0  0  0  0  0  0
   -4.0066    2.1884    0.8368 H   0  0  0  0  0  0  0  0  0  0  0  0
  1 11  1  0  0  0  0
  1 15  1  0  0  0  0
  2 11  2  0  0  0  0
  3 13  2  0  0  0  0
  4  8  1  0  0  0  0
  4 13  1  0  0  0  0
  4 23  1  0  0  0  0
  5  6  3  0  0  0  0
  5 14  1  0  0  0  0
  7  8  1  0  0  0  0
  7  9  1  0  0  0  0
  7 16  1  0  0  0  0
  7 17  1  0  0  0  0
  8 11  1  0  0  0  0
  8 18  1  0  0  0  0
  9 10  1  0  0  0  0
  9 19  1  0  0  0  0
  9 20  1  0  0  0  0
 10 12  1  0  0  0  0
 10 21  1  0  0  0  0
 10 22  1  0  0  0  0
 12 24  1  0  0  0  0
 12 25  1  0  0  0  0
 12 26  1  0  0  0  0
 13 14  1  0  0  0  0
 14 27  1  0  0  0  0
 14 28  1  0  0  0  0
 15 29  1  0  0  0  0
 15 30  1  0  0  0  0
 15 31  1  0  0  0  0
M  CHG  1   5   1
M  END
> <PUBCHEM_COMPOUND_CID>
439447

> <PUBCHEM_CONFORMER_RMSD>
0.8

> <PUBCHEM_CONFORMER_DIVERSEORDER>
1
42
24
20
48
47
43
26
10
51
38
19
11
40
39
14
27
36
41
46
22
34
28
49
4
25
32
44
30
31
8
5
29
37
52
45
23
15
9
35
3
12
21
50
33
2
16
18
17
13
6
7

> <PUBCHEM_MMFF94_PARTIAL_CHARGES>
12
1 -0.43
11 0.66
13 0.57
14 0.33
15 0.28
2 -0.57
23 0.37
3 -0.57
4 -0.73
5 1.23
6 -0.49
8 0.36

> <PUBCHEM_EFFECTIVE_ROTOR_COUNT>
8

> <PUBCHEM_PHARMACOPHORE_FEATURES>
4
1 12 hydrophobe
1 2 acceptor
1 3 acceptor
1 4 donor

> <PUBCHEM_HEAVY_ATOM_COUNT>
15

> <PUBCHEM_ATOM_DEF_STEREO_COUNT>
1

> <PUBCHEM_ATOM_UDEF_STEREO_COUNT>
0

> <PUBCHEM_BOND_DEF_STEREO_COUNT>
0

> <PUBCHEM_BOND_UDEF_STEREO_COUNT>
0

> <PUBCHEM_ISOTOPIC_ATOM_COUNT>
0

> <PUBCHEM_COMPONENT_COUNT>
1

> <PUBCHEM_CACTVS_TAUTO_COUNT>
2

> <PUBCHEM_CONFORMER_ID>
0006B49700000001

> <PUBCHEM_MMFF94_ENERGY>
15.0015

> <PUBCHEM_FEATURE_SELFOVERLAP>
20.297

> <PUBCHEM_SHAPE_FINGERPRINT>
11357001 24 18411135801581971267
124424 183 17458915945869726632
12500047 106 18337961198256225312
12532896 13 18263926716723925421
13052359 8 18412825798604496799
136203 1 18410294679597526811
14178342 30 18270419247160904130
15885798 251 18194678164510782331
20097449 115 17977665312537006035
20645476 183 18339648952720617221
20871998 22 17905893574210464507
21426921 1 18411699855362761862
22224240 67 18262232339842768601
23402539 116 17968956312503307244
23532345 11 18338816532392817848
23557571 272 18259983760621045460
23598288 3 18335697196160812948
23598291 2 17917140611989955910
266924 1 17843102732658886020
3071541 236 18337115656592339877
3086196 2 18338805507143197002
3759504 43 18339647857704462325
77188 2 17979355253466422415
81228 2 18336542729614532275
88987 49 18339067255382570932

> <PUBCHEM_SHAPE_MULTIPOLES>
276.14
7.26
3.56
1.02
10.95
1.96
0
1.27
-0.54
-7.16
-0.66
0.03
-0.06
0.15

> <PUBCHEM_SHAPE_SELFOVERLAP>
524.093

> <PUBCHEM_SHAPE_VOLUME>
169.2

> <PUBCHEM_COORDINATE_TYPE>
2
5
10

$$$$

