442342
  -OEChem-07051212572D

 33 34  0     0  0  0  0  0  0999 V2000
    3.4030    0.5950    0.0000 O   0  0  0  0  0  0  0  0  0  0  0  0
    2.5369   -0.9050    0.0000 O   0  0  0  0  0  0  0  0  0  0  0  0
    8.5991    3.5950    0.0000 O   0  0  0  0  0  0  0  0  0  0  0  0
    4.2690   -3.9050    0.0000 O   0  0  0  0  0  0  0  0  0  0  0  0
    5.1350    1.5950    0.0000 C   0  0  0  0  0  0  0  0  0  0  0  0
    5.1350    0.5950    0.0000 C   0  0  0  0  0  0  0  0  0  0  0  0
    6.0010    2.0950    0.0000 C   0  0  0  0  0  0  0  0  0  0  0  0
    4.2690    0.0950    0.0000 C   0  0  0  0  0  0  0  0  0  0  0  0
    4.2690   -0.9050    0.0000 C   0  0  0  0  0  0  0  0  0  0  0  0
    6.8671    1.5950    0.0000 C   0  0  0  0  0  0  0  0  0  0  0  0
    6.0010    3.0950    0.0000 C   0  0  0  0  0  0  0  0  0  0  0  0
    3.4030   -1.4050    0.0000 C   0  0  0  0  0  0  0  0  0  0  0  0
    5.1350   -1.4050    0.0000 C   0  0  0  0  0  0  0  0  0  0  0  0
    7.7331    2.0950    0.0000 C   0  0  0  0  0  0  0  0  0  0  0  0
    6.8671    3.5950    0.0000 C   0  0  0  0  0  0  0  0  0  0  0  0
    7.7331    3.0950    0.0000 C   0  0  0  0  0  0  0  0  0  0  0  0
    3.4030   -2.4050    0.0000 C   0  0  0  0  0  0  0  0  0  0  0  0
    5.1350   -2.4050    0.0000 C   0  0  0  0  0  0  0  0  0  0  0  0
    4.2690   -2.9050    0.0000 C   0  0  0  0  0  0  0  0  0  0  0  0
    4.9230    2.1776    0.0000 H   0  0  0  0  0  0  0  0  0  0  0  0
    4.5244    1.4873    0.0000 H   0  0  0  0  0  0  0  0  0  0  0  0
    5.3471    0.0124    0.0000 H   0  0  0  0  0  0  0  0  0  0  0  0
    5.7456    0.7027    0.0000 H   0  0  0  0  0  0  0  0  0  0  0  0
    6.8671    0.9750    0.0000 H   0  0  0  0  0  0  0  0  0  0  0  0
    5.4641    3.4050    0.0000 H   0  0  0  0  0  0  0  0  0  0  0  0
    5.6720   -1.0950    0.0000 H   0  0  0  0  0  0  0  0  0  0  0  0
    8.2700    1.7850    0.0000 H   0  0  0  0  0  0  0  0  0  0  0  0
    6.8671    4.2150    0.0000 H   0  0  0  0  0  0  0  0  0  0  0  0
    2.8660   -2.7150    0.0000 H   0  0  0  0  0  0  0  0  0  0  0  0
    5.6720   -2.7150    0.0000 H   0  0  0  0  0  0  0  0  0  0  0  0
    2.0000   -1.2150    0.0000 H   0  0  0  0  0  0  0  0  0  0  0  0
    8.5991    4.2150    0.0000 H   0  0  0  0  0  0  0  0  0  0  0  0
    4.8059   -4.2150    0.0000 H   0  0  0  0  0  0  0  0  0  0  0  0
  1  8  2  0  0  0  0
  2 12  1  0  0  0  0
  2 31  1  0  0  0  0
  3 16  1  0  0  0  0
  3 32  1  0  0  0  0
  4 19  1  0  0  0  0
  4 33  1  0  0  0  0
  5  6  1  0  0  0  0
  5  7  1  0  0  0  0
  5 20  1  0  0  0  0
  5 21  1  0  0  0  0
  6  8  1  0  0  0  0
  6 22  1  0  0  0  0
  6 23  1  0  0  0  0
  7 10  2  0  0  0  0
  7 11  1  0  0  0  0
  8  9  1  0  0  0  0
  9 12  2  0  0  0  0
  9 13  1  0  0  0  0
 10 14  1  0  0  0  0
 10 24  1  0  0  0  0
 11 15  2  0  0  0  0
 11 25  1  0  0  0  0
 12 17  1  0  0  0  0
 13 18  2  0  0  0  0
 13 26  1  0  0  0  0
 14 16  2  0  0  0  0
 14 27  1  0  0  0  0
 15 16  1  0  0  0  0
 15 28  1  0  0  0  0
 17 19  2  0  0  0  0
 17 29  1  0  0  0  0
 18 19  1  0  0  0  0
 18 30  1  0  0  0  0
M  END
> <PUBCHEM_COMPOUND_CID>
442342

> <PUBCHEM_COMPOUND_CANONICALIZED>
1

> <PUBCHEM_CACTVS_COMPLEXITY>
297

> <PUBCHEM_CACTVS_HBOND_ACCEPTOR>
4

> <PUBCHEM_CACTVS_HBOND_DONOR>
3

> <PUBCHEM_CACTVS_ROTATABLE_BOND>
4

> <PUBCHEM_CACTVS_SUBSKEYS>
AAADccBwOAAAAAAAAAAAAAAAAAAAAAAAAAAwYAAAAAAAAAABQAAAGgAACAAADASAmAAwBoAAAgCIAqBSAAACAAAkIAAIiAEGCMgIJzaCFRKAcUAl4BUImYeI7OTOIAAACAAIAABAAAAQABAAAAAAAAAAAA==

> <PUBCHEM_IUPAC_OPENEYE_NAME>
1-(2,4-dihydroxyphenyl)-3-(4-hydroxyphenyl)propan-1-one

> <PUBCHEM_IUPAC_CAS_NAME>
1-(2,4-dihydroxyphenyl)-3-(4-hydroxyphenyl)-1-propanone

> <PUBCHEM_IUPAC_NAME>
1-(2,4-dihydroxyphenyl)-3-(4-hydroxyphenyl)propan-1-one

> <PUBCHEM_IUPAC_SYSTEMATIC_NAME>
1-[2,4-bis(oxidanyl)phenyl]-3-(4-hydroxyphenyl)propan-1-one

> <PUBCHEM_IUPAC_TRADITIONAL_NAME>
1-(2,4-dihydroxyphenyl)-3-(4-hydroxyphenyl)propan-1-one

> <PUBCHEM_IUPAC_INCHI>
InChI=1S/C15H14O4/c16-11-4-1-10(2-5-11)3-8-14(18)13-7-6-12(17)9-15(13)19/h1-2,4-7,9,16-17,19H,3,8H2

> <PUBCHEM_IUPAC_INCHIKEY>
UDGKKUWYNITJRX-UHFFFAOYSA-N

> <PUBCHEM_XLOGP3_AA>
3

> <PUBCHEM_EXACT_MASS>
258.089209

> <PUBCHEM_MOLECULAR_FORMULA>
C15H14O4

> <PUBCHEM_MOLECULAR_WEIGHT>
258.26926

> <PUBCHEM_OPENEYE_CAN_SMILES>
C1=CC(=CC=C1CCC(=O)C2=C(C=C(C=C2)O)O)O

> <PUBCHEM_OPENEYE_ISO_SMILES>
C1=CC(=CC=C1CCC(=O)C2=C(C=C(C=C2)O)O)O

> <PUBCHEM_CACTVS_TPSA>
77.8

> <PUBCHEM_MONOISOTOPIC_WEIGHT>
258.089209

> <PUBCHEM_TOTAL_CHARGE>
0

> <PUBCHEM_HEAVY_ATOM_COUNT>
19

> <PUBCHEM_ATOM_DEF_STEREO_COUNT>
0

> <PUBCHEM_ATOM_UDEF_STEREO_COUNT>
0

> <PUBCHEM_BOND_DEF_STEREO_COUNT>
0

> <PUBCHEM_BOND_UDEF_STEREO_COUNT>
0

> <PUBCHEM_ISOTOPIC_ATOM_COUNT>
0

> <PUBCHEM_COMPONENT_COUNT>
1

> <PUBCHEM_CACTVS_TAUTO_COUNT>
42

> <PUBCHEM_COORDINATE_TYPE>
1
5
255

> <PUBCHEM_BONDANNOTATIONS>
10  14  8
11  15  8
12  17  8
13  18  8
14  16  8
15  16  8
17  19  8
18  19  8
7  10  8
7  11  8
9  12  8
9  13  8

$$$$

