158280
  -OEChem-07051212572D

 32 34  0     1  0  0  0  0  0999 V2000
    6.8671   -0.2673    0.0000 O   0  0  0  0  0  0  0  0  0  0  0  0
   10.3972   -0.2915    0.0000 O   0  0  0  0  0  0  0  0  0  0  0  0
    2.5369   -1.7673    0.0000 O   0  0  0  0  0  0  0  0  0  0  0  0
    6.0010    0.2327    0.0000 C   0  0  1  0  0  0  0  0  0  0  0  0
    6.0010    1.2327    0.0000 C   0  0  0  0  0  0  0  0  0  0  0  0
    6.8671    1.7327    0.0000 C   0  0  0  0  0  0  0  0  0  0  0  0
    7.7331    1.2327    0.0000 C   0  0  0  0  0  0  0  0  0  0  0  0
    5.1350   -0.2673    0.0000 C   0  0  0  0  0  0  0  0  0  0  0  0
    7.7331    0.2327    0.0000 C   0  0  0  0  0  0  0  0  0  0  0  0
    8.6270    1.7673    0.0000 C   0  0  0  0  0  0  0  0  0  0  0  0
    8.6270   -0.3020    0.0000 C   0  0  0  0  0  0  0  0  0  0  0  0
    4.2690    0.2327    0.0000 C   0  0  0  0  0  0  0  0  0  0  0  0
    5.1350   -1.2673    0.0000 C   0  0  0  0  0  0  0  0  0  0  0  0
    9.5331    1.2535    0.0000 C   0  0  0  0  0  0  0  0  0  0  0  0
    9.5331    0.2119    0.0000 C   0  0  0  0  0  0  0  0  0  0  0  0
    3.4030   -0.2673    0.0000 C   0  0  0  0  0  0  0  0  0  0  0  0
    4.2690   -1.7673    0.0000 C   0  0  0  0  0  0  0  0  0  0  0  0
    3.4030   -1.2673    0.0000 C   0  0  0  0  0  0  0  0  0  0  0  0
    5.4641    0.5427    0.0000 H   0  0  0  0  0  0  0  0  0  0  0  0
    5.7890    1.8153    0.0000 H   0  0  0  0  0  0  0  0  0  0  0  0
    5.3905    1.1250    0.0000 H   0  0  0  0  0  0  0  0  0  0  0  0
    7.2656    2.2076    0.0000 H   0  0  0  0  0  0  0  0  0  0  0  0
    6.4685    2.2076    0.0000 H   0  0  0  0  0  0  0  0  0  0  0  0
    8.6199    2.3873    0.0000 H   0  0  0  0  0  0  0  0  0  0  0  0
    8.6199   -0.9220    0.0000 H   0  0  0  0  0  0  0  0  0  0  0  0
    4.2690    0.8527    0.0000 H   0  0  0  0  0  0  0  0  0  0  0  0
    5.6720   -1.5773    0.0000 H   0  0  0  0  0  0  0  0  0  0  0  0
   10.0688    1.5656    0.0000 H   0  0  0  0  0  0  0  0  0  0  0  0
    2.8660    0.0427    0.0000 H   0  0  0  0  0  0  0  0  0  0  0  0
    4.2690   -2.3873    0.0000 H   0  0  0  0  0  0  0  0  0  0  0  0
   10.9353    0.0164    0.0000 H   0  0  0  0  0  0  0  0  0  0  0  0
    2.0000   -1.4573    0.0000 H   0  0  0  0  0  0  0  0  0  0  0  0
  1  4  1  0  0  0  0
  1  9  1  0  0  0  0
  2 15  1  0  0  0  0
  2 31  1  0  0  0  0
  3 18  1  0  0  0  0
  3 32  1  0  0  0  0
  4  5  1  0  0  0  0
  4  8  1  6  0  0  0
  4 19  1  0  0  0  0
  5  6  1  0  0  0  0
  5 20  1  0  0  0  0
  5 21  1  0  0  0  0
  6  7  1  0  0  0  0
  6 22  1  0  0  0  0
  6 23  1  0  0  0  0
  7  9  2  0  0  0  0
  7 10  1  0  0  0  0
  8 12  2  0  0  0  0
  8 13  1  0  0  0  0
  9 11  1  0  0  0  0
 10 14  2  0  0  0  0
 10 24  1  0  0  0  0
 11 15  2  0  0  0  0
 11 25  1  0  0  0  0
 12 16  1  0  0  0  0
 12 26  1  0  0  0  0
 13 17  2  0  0  0  0
 13 27  1  0  0  0  0
 14 15  1  0  0  0  0
 14 28  1  0  0  0  0
 16 18  2  0  0  0  0
 16 29  1  0  0  0  0
 17 18  1  0  0  0  0
 17 30  1  0  0  0  0
M  END
> <PUBCHEM_COMPOUND_CID>
158280

> <PUBCHEM_COMPOUND_CANONICALIZED>
1

> <PUBCHEM_CACTVS_COMPLEXITY>
273

> <PUBCHEM_CACTVS_HBOND_ACCEPTOR>
3

> <PUBCHEM_CACTVS_HBOND_DONOR>
2

> <PUBCHEM_CACTVS_ROTATABLE_BOND>
1

> <PUBCHEM_CACTVS_SUBSKEYS>
AAADccBwMAAAAAAAAAAAAAAAAAAAAAAAAAA0YIAAAAAAAACRQAAAGgAACAAADBSgmAIwBoAABgCAAiBCAAACCAAgIAAIiAAGCIgMJyKGMRqCeCClwBUIuAeA4OwOIAAACAAIAABAAAAQABAAAAAAAAAAAA==

> <PUBCHEM_IUPAC_OPENEYE_NAME>
(2S)-2-(4-hydroxyphenyl)chroman-7-ol

> <PUBCHEM_IUPAC_CAS_NAME>
(2S)-2-(4-hydroxyphenyl)-3,4-dihydro-2H-1-benzopyran-7-ol

> <PUBCHEM_IUPAC_NAME>
(2S)-2-(4-hydroxyphenyl)-3,4-dihydro-2H-chromen-7-ol

> <PUBCHEM_IUPAC_SYSTEMATIC_NAME>
(2S)-2-(4-hydroxyphenyl)-3,4-dihydro-2H-chromen-7-ol

> <PUBCHEM_IUPAC_TRADITIONAL_NAME>
(2S)-2-(4-hydroxyphenyl)chroman-7-ol

> <PUBCHEM_IUPAC_INCHI>
InChI=1S/C15H14O3/c16-12-5-1-10(2-6-12)14-8-4-11-3-7-13(17)9-15(11)18-14/h1-3,5-7,9,14,16-17H,4,8H2/t14-/m0/s1

> <PUBCHEM_IUPAC_INCHIKEY>
YXMLGIGHGPSEKA-AWEZNQCLSA-N

> <PUBCHEM_XLOGP3_AA>
3.1

> <PUBCHEM_EXACT_MASS>
242.094294

> <PUBCHEM_MOLECULAR_FORMULA>
C15H14O3

> <PUBCHEM_MOLECULAR_WEIGHT>
242.26986

> <PUBCHEM_OPENEYE_CAN_SMILES>
C1CC2=C(C=C(C=C2)O)OC1C3=CC=C(C=C3)O

> <PUBCHEM_OPENEYE_ISO_SMILES>
C1CC2=C(C=C(C=C2)O)O[C@@H]1C3=CC=C(C=C3)O

> <PUBCHEM_CACTVS_TPSA>
49.7

> <PUBCHEM_MONOISOTOPIC_WEIGHT>
242.094294

> <PUBCHEM_TOTAL_CHARGE>
0

> <PUBCHEM_HEAVY_ATOM_COUNT>
18

> <PUBCHEM_ATOM_DEF_STEREO_COUNT>
1

> <PUBCHEM_ATOM_UDEF_STEREO_COUNT>
0

> <PUBCHEM_BOND_DEF_STEREO_COUNT>
0

> <PUBCHEM_BOND_UDEF_STEREO_COUNT>
0

> <PUBCHEM_ISOTOPIC_ATOM_COUNT>
0

> <PUBCHEM_COMPONENT_COUNT>
1

> <PUBCHEM_CACTVS_TAUTO_COUNT>
6

> <PUBCHEM_COORDINATE_TYPE>
1
5
255

> <PUBCHEM_BONDANNOTATIONS>
10  14  8
11  15  8
12  16  8
13  17  8
14  15  8
16  18  8
17  18  8
4  8  6
7  10  8
7  9  8
8  12  8
8  13  8
9  11  8

$$$$

