17395534
  -OEChem-06241222502D

 41 43  0     0  0  0  0  0  0999 V2000
    5.7132   -1.5802    0.0000 S   0  0  0  0  0  0  0  0  0  0  0  0
    2.7688    2.5694    0.0000 O   0  0  0  0  0  0  0  0  0  0  0  0
    5.5267    0.2469    0.0000 O   0  0  0  0  0  0  0  0  0  0  0  0
    4.3511    1.8649    0.0000 N   0  0  0  0  0  0  0  0  0  0  0  0
    4.1254   -0.7712    0.0000 N   0  0  0  0  0  0  0  0  0  0  0  0
    4.4042   -2.5313    0.0000 N   0  0  0  0  0  0  0  0  0  0  0  0
    6.0793   -5.6190    0.0000 N   0  0  0  0  0  0  0  0  0  0  0  0
    4.1701    3.5875    0.0000 C   0  0  0  0  0  0  0  0  0  0  0  0
    3.5823    4.3965    0.0000 C   0  0  0  0  0  0  0  0  0  0  0  0
    3.9444    0.9514    0.0000 C   0  0  0  0  0  0  0  0  0  0  0  0
    3.7634    2.6739    0.0000 C   0  0  0  0  0  0  0  0  0  0  0  0
    3.9890    5.3100    0.0000 C   0  0  0  0  0  0  0  0  0  0  0  0
    2.5878    4.2920    0.0000 C   0  0  0  0  0  0  0  0  0  0  0  0
    4.5322    0.1424    0.0000 C   0  0  0  0  0  0  0  0  0  0  0  0
    5.2132   -3.1190    0.0000 C   0  0  0  0  0  0  0  0  0  0  0  0
    4.7132   -1.5802    0.0000 C   0  0  0  0  0  0  0  0  0  0  0  0
    5.2132   -4.1190    0.0000 C   0  0  0  0  0  0  0  0  0  0  0  0
    3.4013    6.1190    0.0000 C   0  0  0  0  0  0  0  0  0  0  0  0
    2.0000    5.1010    0.0000 C   0  0  0  0  0  0  0  0  0  0  0  0
    6.0223   -2.5313    0.0000 C   0  0  0  0  0  0  0  0  0  0  0  0
    2.4067    6.0145    0.0000 C   0  0  0  0  0  0  0  0  0  0  0  0
    4.3472   -4.6190    0.0000 C   0  0  0  0  0  0  0  0  0  0  0  0
    6.0793   -4.6190    0.0000 C   0  0  0  0  0  0  0  0  0  0  0  0
    4.3472   -5.6190    0.0000 C   0  0  0  0  0  0  0  0  0  0  0  0
    5.2132   -6.1190    0.0000 C   0  0  0  0  0  0  0  0  0  0  0  0
    4.6841    3.2408    0.0000 H   0  0  0  0  0  0  0  0  0  0  0  0
    4.6008    4.0335    0.0000 H   0  0  0  0  0  0  0  0  0  0  0  0
    3.4304    1.2981    0.0000 H   0  0  0  0  0  0  0  0  0  0  0  0
    3.5137    0.5054    0.0000 H   0  0  0  0  0  0  0  0  0  0  0  0
    4.9677    1.9297    0.0000 H   0  0  0  0  0  0  0  0  0  0  0  0
    4.6056    5.3748    0.0000 H   0  0  0  0  0  0  0  0  0  0  0  0
    2.3356    3.7256    0.0000 H   0  0  0  0  0  0  0  0  0  0  0  0
    3.5088   -0.8360    0.0000 H   0  0  0  0  0  0  0  0  0  0  0  0
    3.6534    6.6854    0.0000 H   0  0  0  0  0  0  0  0  0  0  0  0
    1.3834    5.0362    0.0000 H   0  0  0  0  0  0  0  0  0  0  0  0
    6.6119   -2.7229    0.0000 H   0  0  0  0  0  0  0  0  0  0  0  0
    2.0423    6.5161    0.0000 H   0  0  0  0  0  0  0  0  0  0  0  0
    3.8103   -4.3090    0.0000 H   0  0  0  0  0  0  0  0  0  0  0  0
    6.6162   -4.3090    0.0000 H   0  0  0  0  0  0  0  0  0  0  0  0
    3.8103   -5.9290    0.0000 H   0  0  0  0  0  0  0  0  0  0  0  0
    5.2132   -6.7390    0.0000 H   0  0  0  0  0  0  0  0  0  0  0  0
  1 16  1  0  0  0  0
  1 20  1  0  0  0  0
  2 11  2  0  0  0  0
  3 14  2  0  0  0  0
  4 10  1  0  0  0  0
  4 11  1  0  0  0  0
  4 30  1  0  0  0  0
  5 14  1  0  0  0  0
  5 16  1  0  0  0  0
  5 33  1  0  0  0  0
  6 15  1  0  0  0  0
  6 16  2  0  0  0  0
  7 23  1  0  0  0  0
  7 25  2  0  0  0  0
  8  9  1  0  0  0  0
  8 11  1  0  0  0  0
  8 26  1  0  0  0  0
  8 27  1  0  0  0  0
  9 12  2  0  0  0  0
  9 13  1  0  0  0  0
 10 14  1  0  0  0  0
 10 28  1  0  0  0  0
 10 29  1  0  0  0  0
 12 18  1  0  0  0  0
 12 31  1  0  0  0  0
 13 19  2  0  0  0  0
 13 32  1  0  0  0  0
 15 17  1  0  0  0  0
 15 20  2  0  0  0  0
 17 22  1  0  0  0  0
 17 23  2  0  0  0  0
 18 21  2  0  0  0  0
 18 34  1  0  0  0  0
 19 21  1  0  0  0  0
 19 35  1  0  0  0  0
 20 36  1  0  0  0  0
 21 37  1  0  0  0  0
 22 24  2  0  0  0  0
 22 38  1  0  0  0  0
 23 39  1  0  0  0  0
 24 25  1  0  0  0  0
 24 40  1  0  0  0  0
 25 41  1  0  0  0  0
M  END
> <PUBCHEM_COMPOUND_CID>
17395534

> <PUBCHEM_COMPOUND_CANONICALIZED>
1

> <PUBCHEM_CACTVS_COMPLEXITY>
456

> <PUBCHEM_CACTVS_HBOND_ACCEPTOR>
5

> <PUBCHEM_CACTVS_HBOND_DONOR>
2

> <PUBCHEM_CACTVS_ROTATABLE_BOND>
6

> <PUBCHEM_CACTVS_SUBSKEYS>
AAADceB7sABAAAAAAAAAAAAAAAAAAWAAAAA8QAAAAAAAAAAB8AAAHgQQAAAADAjF3gS9kZLIEAisAzV3dACC8KlxCjkJ2LW4ZJiIYPLg3bGUIAholwLIyCcYiICOAAAAAAAAAAAAAAAAAAAAAAAAAAAAAA==

> <PUBCHEM_IUPAC_OPENEYE_NAME>
N-[2-oxo-2-[[4-(3-pyridyl)thiazol-2-yl]amino]ethyl]-2-phenyl-acetamide

> <PUBCHEM_IUPAC_CAS_NAME>
N-[2-oxo-2-[[4-(3-pyridinyl)-2-thiazolyl]amino]ethyl]-2-phenylacetamide

> <PUBCHEM_IUPAC_NAME>
N-[2-oxo-2-[(4-pyridin-3-yl-1,3-thiazol-2-yl)amino]ethyl]-2-phenylacetamide

> <PUBCHEM_IUPAC_SYSTEMATIC_NAME>
N-[2-oxidanylidene-2-[(4-pyridin-3-yl-1,3-thiazol-2-yl)amino]ethyl]-2-phenyl-ethanamide

> <PUBCHEM_IUPAC_TRADITIONAL_NAME>
N-[2-keto-2-[[4-(3-pyridyl)thiazol-2-yl]amino]ethyl]-2-phenyl-acetamide

> <PUBCHEM_IUPAC_INCHI>
InChI=1S/C18H16N4O2S/c23-16(9-13-5-2-1-3-6-13)20-11-17(24)22-18-21-15(12-25-18)14-7-4-8-19-10-14/h1-8,10,12H,9,11H2,(H,20,23)(H,21,22,24)

> <PUBCHEM_IUPAC_INCHIKEY>
CSGDFVWWRGBKEJ-UHFFFAOYSA-N

> <PUBCHEM_XLOGP3_AA>
2

> <PUBCHEM_EXACT_MASS>
352.099397

> <PUBCHEM_MOLECULAR_FORMULA>
C18H16N4O2S

> <PUBCHEM_MOLECULAR_WEIGHT>
352.41024

> <PUBCHEM_OPENEYE_CAN_SMILES>
C1=CC=C(C=C1)CC(=O)NCC(=O)NC2=NC(=CS2)C3=CN=CC=C3

> <PUBCHEM_OPENEYE_ISO_SMILES>
C1=CC=C(C=C1)CC(=O)NCC(=O)NC2=NC(=CS2)C3=CN=CC=C3

> <PUBCHEM_CACTVS_TPSA>
112

> <PUBCHEM_MONOISOTOPIC_WEIGHT>
352.099397

> <PUBCHEM_TOTAL_CHARGE>
0

> <PUBCHEM_HEAVY_ATOM_COUNT>
25

> <PUBCHEM_ATOM_DEF_STEREO_COUNT>
0

> <PUBCHEM_ATOM_UDEF_STEREO_COUNT>
0

> <PUBCHEM_BOND_DEF_STEREO_COUNT>
0

> <PUBCHEM_BOND_UDEF_STEREO_COUNT>
0

> <PUBCHEM_ISOTOPIC_ATOM_COUNT>
0

> <PUBCHEM_COMPONENT_COUNT>
1

> <PUBCHEM_CACTVS_TAUTO_COUNT>
10

> <PUBCHEM_COORDINATE_TYPE>
1
5
255

> <PUBCHEM_BONDANNOTATIONS>
1  16  8
1  20  8
12  18  8
13  19  8
15  20  8
17  22  8
17  23  8
18  21  8
19  21  8
22  24  8
24  25  8
6  15  8
6  16  8
7  23  8
7  25  8
9  12  8
9  13  8

$$$$

