17395798
  -OEChem-06241222522D

 41 44  0     1  0  0  0  0  0999 V2000
    6.6660   -0.4903    0.0000 S   0  0  0  0  0  0  0  0  0  0  0  0
    4.6769   -0.6994    0.0000 O   0  0  0  0  0  0  0  0  0  0  0  0
    8.3296   -1.1289    0.0000 O   0  0  0  0  0  0  0  0  0  0  0  0
   12.7874   -0.9175    0.0000 O   0  0  0  0  0  0  0  0  0  0  0  0
   12.7874   -2.5269    0.0000 O   0  0  0  0  0  0  0  0  0  0  0  0
    4.4958    1.0232    0.0000 N   0  0  0  0  0  0  0  0  0  0  0  0
    8.1605    0.4802    0.0000 N   0  0  0  0  0  0  0  0  0  0  0  0
    9.1386    0.2723    0.0000 N   0  0  0  0  0  0  0  0  0  0  0  0
    2.9136    1.7277    0.0000 C   0  0  0  0  0  0  0  0  0  0  0  0
    2.8090    2.7222    0.0000 C   0  0  0  0  0  0  0  0  0  0  0  0
    2.0000    2.1344    0.0000 C   0  0  0  0  0  0  0  0  0  0  0  0
    3.5013    0.9187    0.0000 C   0  0  3  0  0  0  0  0  0  0  0  0
    3.0946    0.0051    0.0000 C   0  0  0  0  0  0  0  0  0  0  0  0
    5.0836    0.2142    0.0000 C   0  0  0  0  0  0  0  0  0  0  0  0
    6.0782    0.3187    0.0000 C   0  0  0  0  0  0  0  0  0  0  0  0
   10.1092   -1.2222    0.0000 C   0  0  0  0  0  0  0  0  0  0  0  0
   11.8412   -1.2222    0.0000 C   0  0  0  0  0  0  0  0  0  0  0  0
    7.6605   -0.3858    0.0000 C   0  0  0  0  0  0  0  0  0  0  0  0
   11.8412   -2.2222    0.0000 C   0  0  0  0  0  0  0  0  0  0  0  0
   10.9752   -0.7222    0.0000 C   0  0  0  0  0  0  0  0  0  0  0  0
    9.2431   -0.7222    0.0000 C   0  0  0  0  0  0  0  0  0  0  0  0
   10.1092   -2.2222    0.0000 C   0  0  0  0  0  0  0  0  0  0  0  0
   10.9752   -2.7222    0.0000 C   0  0  0  0  0  0  0  0  0  0  0  0
   13.3710   -1.7222    0.0000 C   0  0  0  0  0  0  0  0  0  0  0  0
    2.5234    1.2458    0.0000 H   0  0  0  0  0  0  0  0  0  0  0  0
    1.5540    2.5651    0.0000 H   0  0  0  0  0  0  0  0  0  0  0  0
    1.6533    1.6204    0.0000 H   0  0  0  0  0  0  0  0  0  0  0  0
    3.4050    2.8931    0.0000 H   0  0  0  0  0  0  0  0  0  0  0  0
    2.5372    3.2794    0.0000 H   0  0  0  0  0  0  0  0  0  0  0  0
    3.7535    1.4851    0.0000 H   0  0  0  0  0  0  0  0  0  0  0  0
    2.5282    0.2573    0.0000 H   0  0  0  0  0  0  0  0  0  0  0  0
    2.8424   -0.5613    0.0000 H   0  0  0  0  0  0  0  0  0  0  0  0
    3.6610   -0.2471    0.0000 H   0  0  0  0  0  0  0  0  0  0  0  0
    4.7480    1.5896    0.0000 H   0  0  0  0  0  0  0  0  0  0  0  0
    6.6354    0.5905    0.0000 H   0  0  0  0  0  0  0  0  0  0  0  0
    5.9073    0.9147    0.0000 H   0  0  0  0  0  0  0  0  0  0  0  0
   10.9752   -0.1022    0.0000 H   0  0  0  0  0  0  0  0  0  0  0  0
    9.5722   -2.5322    0.0000 H   0  0  0  0  0  0  0  0  0  0  0  0
   10.9752   -3.3422    0.0000 H   0  0  0  0  0  0  0  0  0  0  0  0
   13.8319   -2.1369    0.0000 H   0  0  0  0  0  0  0  0  0  0  0  0
   13.8319   -1.3075    0.0000 H   0  0  0  0  0  0  0  0  0  0  0  0
  1 15  1  0  0  0  0
  1 18  1  0  0  0  0
  2 14  2  0  0  0  0
  3 18  1  0  0  0  0
  3 21  1  0  0  0  0
  4 17  1  0  0  0  0
  4 24  1  0  0  0  0
  5 19  1  0  0  0  0
  5 24  1  0  0  0  0
  6 12  1  0  0  0  0
  6 14  1  0  0  0  0
  6 34  1  0  0  0  0
  7  8  1  0  0  0  0
  7 18  2  0  0  0  0
  8 21  2  0  0  0  0
  9 10  1  0  0  0  0
  9 11  1  0  0  0  0
  9 12  1  0  0  0  0
  9 25  1  0  0  0  0
 10 11  1  0  0  0  0
 10 28  1  0  0  0  0
 10 29  1  0  0  0  0
 11 26  1  0  0  0  0
 11 27  1  0  0  0  0
 12 13  1  0  0  0  0
 12 30  1  0  0  0  0
 13 31  1  0  0  0  0
 13 32  1  0  0  0  0
 13 33  1  0  0  0  0
 14 15  1  0  0  0  0
 15 35  1  0  0  0  0
 15 36  1  0  0  0  0
 16 20  2  0  0  0  0
 16 21  1  0  0  0  0
 16 22  1  0  0  0  0
 17 19  2  0  0  0  0
 17 20  1  0  0  0  0
 19 23  1  0  0  0  0
 20 37  1  0  0  0  0
 22 23  2  0  0  0  0
 22 38  1  0  0  0  0
 23 39  1  0  0  0  0
 24 40  1  0  0  0  0
 24 41  1  0  0  0  0
M  END
> <PUBCHEM_COMPOUND_CID>
17395798

> <PUBCHEM_COMPOUND_CANONICALIZED>
1

> <PUBCHEM_CACTVS_COMPLEXITY>
465

> <PUBCHEM_CACTVS_HBOND_ACCEPTOR>
7

> <PUBCHEM_CACTVS_HBOND_DONOR>
1

> <PUBCHEM_CACTVS_ROTATABLE_BOND>
6

> <PUBCHEM_CACTVS_SUBSKEYS>
AAADceB7OABAAAAAAAAAAAAAGAAAAWJAAAAwAAAAAAAAAEgBwAAAHgQYAAAADSzF2geyDoLABEiqAiFyEACSCABsIBAaiKEujNgdJrKEtRusMSJk3hGOqYf6/DzOIAABAAAAQABAAAIAAACAAAAAAAAAAA==

> <PUBCHEM_IUPAC_OPENEYE_NAME>
2-[[5-(1,3-benzodioxol-5-yl)-1,3,4-oxadiazol-2-yl]sulfanyl]-N-(1-cyclopropylethyl)acetamide

> <PUBCHEM_IUPAC_CAS_NAME>
2-[[5-(1,3-benzodioxol-5-yl)-1,3,4-oxadiazol-2-yl]thio]-N-(1-cyclopropylethyl)acetamide

> <PUBCHEM_IUPAC_NAME>
2-[[5-(1,3-benzodioxol-5-yl)-1,3,4-oxadiazol-2-yl]sulfanyl]-N-(1-cyclopropylethyl)acetamide

> <PUBCHEM_IUPAC_SYSTEMATIC_NAME>
2-[[5-(1,3-benzodioxol-5-yl)-1,3,4-oxadiazol-2-yl]sulfanyl]-N-(1-cyclopropylethyl)ethanamide

> <PUBCHEM_IUPAC_TRADITIONAL_NAME>
2-[[5-(1,3-benzodioxol-5-yl)-1,3,4-oxadiazol-2-yl]thio]-N-(1-cyclopropylethyl)acetamide

> <PUBCHEM_IUPAC_INCHI>
InChI=1S/C16H17N3O4S/c1-9(10-2-3-10)17-14(20)7-24-16-19-18-15(23-16)11-4-5-12-13(6-11)22-8-21-12/h4-6,9-10H,2-3,7-8H2,1H3,(H,17,20)

> <PUBCHEM_IUPAC_INCHIKEY>
XURZSSXPPFFBEW-UHFFFAOYSA-N

> <PUBCHEM_XLOGP3_AA>
2.6

> <PUBCHEM_EXACT_MASS>
347.093977

> <PUBCHEM_MOLECULAR_FORMULA>
C16H17N3O4S

> <PUBCHEM_MOLECULAR_WEIGHT>
347.38888

> <PUBCHEM_OPENEYE_CAN_SMILES>
CC(C1CC1)NC(=O)CSC2=NN=C(O2)C3=CC4=C(C=C3)OCO4

> <PUBCHEM_OPENEYE_ISO_SMILES>
CC(C1CC1)NC(=O)CSC2=NN=C(O2)C3=CC4=C(C=C3)OCO4

> <PUBCHEM_CACTVS_TPSA>
112

> <PUBCHEM_MONOISOTOPIC_WEIGHT>
347.093977

> <PUBCHEM_TOTAL_CHARGE>
0

> <PUBCHEM_HEAVY_ATOM_COUNT>
24

> <PUBCHEM_ATOM_DEF_STEREO_COUNT>
0

> <PUBCHEM_ATOM_UDEF_STEREO_COUNT>
1

> <PUBCHEM_BOND_DEF_STEREO_COUNT>
0

> <PUBCHEM_BOND_UDEF_STEREO_COUNT>
0

> <PUBCHEM_ISOTOPIC_ATOM_COUNT>
0

> <PUBCHEM_COMPONENT_COUNT>
1

> <PUBCHEM_CACTVS_TAUTO_COUNT>
2

> <PUBCHEM_COORDINATE_TYPE>
1
5
255

> <PUBCHEM_BONDANNOTATIONS>
12  13  3
16  20  8
16  22  8
17  19  8
17  20  8
19  23  8
22  23  8
3  18  8
3  21  8
7  18  8
7  8  8
8  21  8

$$$$

