46174006
  -OEChem-07051213113D

 61 60  0     1  0  0  0  0  0999 V2000
    4.3253    1.3980   -0.7389 P   0  0  0  0  0  0  0  0  0  0  0  0
    0.5708   -3.0046   -1.5661 O   0  0  0  0  0  0  0  0  0  0  0  0
   -0.1285    0.4895    1.8475 O   0  0  0  0  0  0  0  0  0  0  0  0
   -1.8765    3.2004    0.4512 O   0  0  0  0  0  0  0  0  0  0  0  0
   -0.6230    4.8774    1.3208 O   0  0  0  0  0  0  0  0  0  0  0  0
    4.9744    0.3854    0.3334 O   0  0  0  0  0  0  0  0  0  0  0  0
    3.1053    0.5581   -1.3736 O   0  0  0  0  0  0  0  0  0  0  0  0
    5.2725    2.0110   -1.7139 O   0  0  0  0  0  0  0  0  0  0  0  0
    0.0463   -1.8624    0.3833 N   0  0  0  0  0  0  0  0  0  0  0  0
    0.1272    1.6512   -0.1450 N   0  0  0  0  0  0  0  0  0  0  0  0
    0.7519   -5.3281   -0.1244 N   0  0  0  0  0  0  0  0  0  0  0  0
   -4.8381    0.0024   -0.2610 N   0  0  0  0  0  0  0  0  0  0  0  0
   -6.6412    1.0840   -1.2361 N   0  0  0  0  0  0  0  0  0  0  0  0
   -7.0168   -1.0005   -0.3942 N   0  0  0  0  0  0  0  0  0  0  0  0
   -0.4963   -0.6842   -0.2419 C   0  0  1  0  0  0  0  0  0  0  0  0
   -1.9983   -0.8230   -0.5204 C   0  0  0  0  0  0  0  0  0  0  0  0
    1.0502   -4.0682    0.5608 C   0  0  1  0  0  0  0  0  0  0  0  0
    2.5569   -3.9529    0.8920 C   0  0  0  0  0  0  0  0  0  0  0  0
   -2.8525   -1.0228    0.7407 C   0  0  0  0  0  0  0  0  0  0  0  0
    0.5425   -2.9415   -0.3382 C   0  0  0  0  0  0  0  0  0  0  0  0
   -0.1609    0.5297    0.6193 C   0  0  0  0  0  0  0  0  0  0  0  0
    2.9308   -2.6794    1.6589 C   0  0  0  0  0  0  0  0  0  0  0  0
    3.4268   -4.0746   -0.3630 C   0  0  0  0  0  0  0  0  0  0  0  0
   -4.3338   -1.1935    0.4162 C   0  0  0  0  0  0  0  0  0  0  0  0
    0.5046    2.9188    0.4360 C   0  0  1  0  0  0  0  0  0  0  0  0
    1.3776    3.6507   -0.5356 C   0  0  0  0  0  0  0  0  0  0  0  0
   -0.6963    3.7844    0.7720 C   0  0  0  0  0  0  0  0  0  0  0  0
    2.7097    3.5029   -0.5905 C   0  0  0  0  0  0  0  0  0  0  0  0
    3.4802    2.5938    0.3075 C   0  0  0  0  0  0  0  0  0  0  0  0
   -6.0906   -0.0017   -0.5968 C   0  0  0  0  0  0  0  0  0  0  0  0
    0.0115   -0.5693   -1.2084 H   0  0  0  0  0  0  0  0  0  0  0  0
   -2.1621   -1.6712   -1.1972 H   0  0  0  0  0  0  0  0  0  0  0  0
   -2.3367    0.0763   -1.0496 H   0  0  0  0  0  0  0  0  0  0  0  0
    0.4821   -4.0579    1.4994 H   0  0  0  0  0  0  0  0  0  0  0  0
    2.8133   -4.7989    1.5452 H   0  0  0  0  0  0  0  0  0  0  0  0
    0.0489   -1.9050    1.3986 H   0  0  0  0  0  0  0  0  0  0  0  0
   -2.5113   -1.9080    1.2895 H   0  0  0  0  0  0  0  0  0  0  0  0
   -2.7345   -0.1608    1.4075 H   0  0  0  0  0  0  0  0  0  0  0  0
    2.8052   -1.7834    1.0424 H   0  0  0  0  0  0  0  0  0  0  0  0
    3.2504   -5.0143   -0.8954 H   0  0  0  0  0  0  0  0  0  0  0  0
    4.4885   -4.0557   -0.0916 H   0  0  0  0  0  0  0  0  0  0  0  0
    3.2544   -3.2467   -1.0584 H   0  0  0  0  0  0  0  0  0  0  0  0
    2.3108   -2.5708    2.5547 H   0  0  0  0  0  0  0  0  0  0  0  0
    3.9775   -2.7163    1.9796 H   0  0  0  0  0  0  0  0  0  0  0  0
   -4.8773   -1.3561    1.3548 H   0  0  0  0  0  0  0  0  0  0  0  0
   -4.4624   -2.0787   -0.2186 H   0  0  0  0  0  0  0  0  0  0  0  0
    0.0123    1.6008   -1.1537 H   0  0  0  0  0  0  0  0  0  0  0  0
    1.0673   -6.1105    0.4478 H   0  0  0  0  0  0  0  0  0  0  0  0
   -0.2576   -5.4349   -0.2193 H   0  0  0  0  0  0  0  0  0  0  0  0
    0.9893    2.7342    1.4000 H   0  0  0  0  0  0  0  0  0  0  0  0
    0.9080    4.3296   -1.2441 H   0  0  0  0  0  0  0  0  0  0  0  0
    3.2670    4.0768   -1.3259 H   0  0  0  0  0  0  0  0  0  0  0  0
    2.8832    2.0452    1.0367 H   0  0  0  0  0  0  0  0  0  0  0  0
    4.2235    3.1746    0.8633 H   0  0  0  0  0  0  0  0  0  0  0  0
   -2.6424    3.7617    0.6973 H   0  0  0  0  0  0  0  0  0  0  0  0
   -7.9773   -0.8925   -0.7020 H   0  0  0  0  0  0  0  0  0  0  0  0
   -6.7803   -1.8728    0.0648 H   0  0  0  0  0  0  0  0  0  0  0  0
   -7.6183    1.1007   -1.5070 H   0  0  0  0  0  0  0  0  0  0  0  0
   -6.0823    1.9014   -1.4553 H   0  0  0  0  0  0  0  0  0  0  0  0
    5.5218   -0.3629    0.0131 H   0  0  0  0  0  0  0  0  0  0  0  0
    3.3004   -0.1573   -2.0155 H   0  0  0  0  0  0  0  0  0  0  0  0
  1  6  1  0  0  0  0
  1  7  1  0  0  0  0
  1  8  2  0  0  0  0
  1 29  1  0  0  0  0
  2 20  2  0  0  0  0
  3 21  2  0  0  0  0
  4 27  1  0  0  0  0
  4 55  1  0  0  0  0
  5 27  2  0  0  0  0
  6 60  1  0  0  0  0
  7 61  1  0  0  0  0
  9 15  1  0  0  0  0
  9 20  1  0  0  0  0
  9 36  1  0  0  0  0
 10 21  1  0  0  0  0
 10 25  1  0  0  0  0
 10 47  1  0  0  0  0
 11 17  1  0  0  0  0
 11 48  1  0  0  0  0
 11 49  1  0  0  0  0
 12 24  1  0  0  0  0
 12 30  2  0  0  0  0
 13 30  1  0  0  0  0
 13 58  1  0  0  0  0
 13 59  1  0  0  0  0
 14 30  1  0  0  0  0
 14 56  1  0  0  0  0
 14 57  1  0  0  0  0
 15 16  1  0  0  0  0
 15 21  1  0  0  0  0
 15 31  1  0  0  0  0
 16 19  1  0  0  0  0
 16 32  1  0  0  0  0
 16 33  1  0  0  0  0
 17 18  1  0  0  0  0
 17 20  1  0  0  0  0
 17 34  1  0  0  0  0
 18 22  1  0  0  0  0
 18 23  1  0  0  0  0
 18 35  1  0  0  0  0
 19 24  1  0  0  0  0
 19 37  1  0  0  0  0
 19 38  1  0  0  0  0
 22 39  1  0  0  0  0
 22 43  1  0  0  0  0
 22 44  1  0  0  0  0
 23 40  1  0  0  0  0
 23 41  1  0  0  0  0
 23 42  1  0  0  0  0
 24 45  1  0  0  0  0
 24 46  1  0  0  0  0
 25 26  1  0  0  0  0
 25 27  1  0  0  0  0
 25 50  1  0  0  0  0
 26 28  2  0  0  0  0
 26 51  1  0  0  0  0
 28 29  1  0  0  0  0
 28 52  1  0  0  0  0
 29 53  1  0  0  0  0
 29 54  1  0  0  0  0
M  END
> <PUBCHEM_COMPOUND_CID>
46174006

> <PUBCHEM_CONFORMER_RMSD>
1.2

> <PUBCHEM_CONFORMER_DIVERSEORDER>
1
62
125
147
90
70
17
106
120
163
158
86
135
76
83
35
59
109
68
159
65
6
15
61
78
164
113
146
91
137
63
51
171
69
139
16
173
154
103
110
96
170
143
140
56
98
10
85
32
133
26
53
118
22
57
153
136
39
150
105
47
100
148
36
43
5
121
126
82
95
88
79
134
25
20
122
13
23
138
46
75
93
104
160
71
38
161
9
111
152
130
12
42
112
52
89
141
50
168
80
116
33
132
128
7
124
14
162
101
77
99
119
102
115
149
4
144
37
11
167
165
19
24
58
64
34
21
92
123
172
108
94
66
72
45
49
55
107
156
30
81
114
169
8
27
67
48
29
155
84
127
151
41
2
54
87
157
117
73
174
44
3
18
60
166
129
142
145
40
31
28
131
97
74

> <PUBCHEM_MMFF94_PARTIAL_CHARGES>
38
1 1.24
10 -0.73
11 -0.99
12 -0.7
13 -0.85
14 -0.85
15 0.36
17 0.33
2 -0.57
20 0.57
21 0.57
24 0.25
25 0.5
26 -0.29
27 0.66
28 -0.29
29 0.14
3 -0.57
30 0.55
36 0.37
4 -0.65
47 0.37
48 0.36
49 0.36
5 -0.57
51 0.15
52 0.15
55 0.5
56 0.4
57 0.4
58 0.4
59 0.4
6 -0.77
60 0.5
61 0.5
7 -0.77
8 -0.7
9 -0.73

> <PUBCHEM_EFFECTIVE_ROTOR_COUNT>
15

> <PUBCHEM_PHARMACOPHORE_FEATURES>
17
1 10 donor
1 11 cation
1 11 donor
1 13 donor
1 14 donor
1 2 acceptor
1 3 acceptor
1 4 acceptor
1 5 acceptor
1 6 acceptor
1 7 acceptor
1 8 acceptor
1 9 donor
3 18 22 23 hydrophobe
3 4 5 27 anion
4 1 6 7 8 anion
4 12 13 14 30 cation

> <PUBCHEM_HEAVY_ATOM_COUNT>
30

> <PUBCHEM_ATOM_DEF_STEREO_COUNT>
2

> <PUBCHEM_ATOM_UDEF_STEREO_COUNT>
1

> <PUBCHEM_BOND_DEF_STEREO_COUNT>
1

> <PUBCHEM_BOND_UDEF_STEREO_COUNT>
0

> <PUBCHEM_ISOTOPIC_ATOM_COUNT>
0

> <PUBCHEM_COMPONENT_COUNT>
1

> <PUBCHEM_CACTVS_TAUTO_COUNT>
8

> <PUBCHEM_CONFORMER_ID>
02C08F3600000001

> <PUBCHEM_MMFF94_ENERGY>
18.678

> <PUBCHEM_FEATURE_SELFOVERLAP>
86.416

> <PUBCHEM_SHAPE_FINGERPRINT>
10675989 125 18410851023712639196
1100329 8 18194683653641938810
12440605 4 18120071008976601417
12788726 201 18335970996495929224
13911987 19 18269538464889590748
140371 6 18194967580839890275
14117953 113 18411420609986001918
14150023 79 18342742867347418807
14790565 3 18124597479304308967
15815584 197 18267564867683311703
15927050 60 17831839610907586956
3298306 158 18340765919027009823
373842 8 18267595786709484441
38695281 34 18340207362930614459
5265222 85 17912633619064836268
5385378 56 18410569553615834969
9925002 15 17691110952550988253

> <PUBCHEM_SHAPE_MULTIPOLES>
550.26
10.94
7.61
1.27
19.03
2.56
0.06
-1.47
-4.23
-7.37
1.18
-0.58
-0.09
-1.31

> <PUBCHEM_SHAPE_SELFOVERLAP>
1065.707

> <PUBCHEM_SHAPE_VOLUME>
333.1

> <PUBCHEM_COORDINATE_TYPE>
2
5
10

$$$$

