156088
  -OEChem-07051213113D

 62 63  0     1  0  0  0  0  0999 V2000
    0.9421   -0.0063   -0.0587 O   0  0  0  0  0  0  0  0  0  0  0  0
   -2.6897    2.0064    1.7249 O   0  0  0  0  0  0  0  0  0  0  0  0
   -1.7327    0.8281   -2.3949 O   0  0  0  0  0  0  0  0  0  0  0  0
    2.9328   -0.7841   -1.0627 O   0  0  0  0  0  0  0  0  0  0  0  0
   -3.0017   -2.2094    0.4250 O   0  0  0  0  0  0  0  0  0  0  0  0
   -3.3729   -0.0037   -0.2311 N   0  0  0  0  0  0  0  0  0  0  0  0
    1.6145    2.7501   -0.3726 N   0  0  0  0  0  0  0  0  0  0  0  0
    0.3111   -2.6649    0.7902 N   0  0  0  0  0  0  0  0  0  0  0  0
    6.0882    0.3697    0.4479 N   0  0  0  0  0  0  0  0  0  0  0  0
   -5.4866   -3.0526   -0.0103 N   0  0  0  0  0  0  0  0  0  0  0  0
    0.2766    0.7765   -1.0504 C   0  0  1  0  0  0  0  0  0  0  0  0
   -2.0202    0.4545    0.0064 C   0  0  1  0  0  0  0  0  0  0  0  0
   -1.1451    0.2275   -1.2409 C   0  0  1  0  0  0  0  0  0  0  0  0
    0.2575    2.2532   -0.6121 C   0  0  1  0  0  0  0  0  0  0  0  0
   -2.0150    1.9195    0.4691 C   0  0  2  0  0  0  0  0  0  0  0  0
   -0.5892    2.4517    0.6487 C   0  0  0  0  0  0  0  0  0  0  0  0
    1.6056   -1.1182   -0.6391 C   0  0  1  0  0  0  0  0  0  0  0  0
    1.6528   -2.2980    0.3429 C   0  0  1  0  0  0  0  0  0  0  0  0
    2.5573   -1.9747    1.5349 C   0  0  0  0  0  0  0  0  0  0  0  0
    3.7963   -0.3991    0.0133 C   0  0  1  0  0  0  0  0  0  0  0  0
    3.9296   -1.5299    1.0352 C   0  0  0  0  0  0  0  0  0  0  0  0
   -4.3062    1.0072   -0.7313 C   0  0  0  0  0  0  0  0  0  0  0  0
   -3.7655   -1.3361    0.0040 C   0  0  0  0  0  0  0  0  0  0  0  0
    5.1504   -0.0439   -0.5865 C   0  0  0  0  0  0  0  0  0  0  0  0
   -3.1534    3.3247    1.9710 C   0  0  0  0  0  0  0  0  0  0  0  0
   -5.2223   -1.6472   -0.2967 C   0  0  0  0  0  0  0  0  0  0  0  0
    7.3859    0.6991   -0.1263 C   0  0  0  0  0  0  0  0  0  0  0  0
    0.8246    0.7320   -2.0029 H   0  0  0  0  0  0  0  0  0  0  0  0
   -1.6147   -0.1603    0.8213 H   0  0  0  0  0  0  0  0  0  0  0  0
   -1.1128   -0.8501   -1.4391 H   0  0  0  0  0  0  0  0  0  0  0  0
   -0.1796    2.8528   -1.4208 H   0  0  0  0  0  0  0  0  0  0  0  0
   -2.4935    2.5752   -0.2672 H   0  0  0  0  0  0  0  0  0  0  0  0
   -0.6121    3.5184    0.9025 H   0  0  0  0  0  0  0  0  0  0  0  0
   -0.1230    1.9573    1.5124 H   0  0  0  0  0  0  0  0  0  0  0  0
    1.0743   -1.4617   -1.5361 H   0  0  0  0  0  0  0  0  0  0  0  0
    2.0902   -3.1592   -0.1796 H   0  0  0  0  0  0  0  0  0  0  0  0
    2.1167   -1.1781    2.1483 H   0  0  0  0  0  0  0  0  0  0  0  0
    2.6688   -2.8528    2.1824 H   0  0  0  0  0  0  0  0  0  0  0  0
    1.5825    3.7451   -0.1547 H   0  0  0  0  0  0  0  0  0  0  0  0
    2.1678    2.6580   -1.2234 H   0  0  0  0  0  0  0  0  0  0  0  0
    3.3771    0.4914    0.4986 H   0  0  0  0  0  0  0  0  0  0  0  0
    4.4224   -2.3933    0.5695 H   0  0  0  0  0  0  0  0  0  0  0  0
    4.5401   -1.2261    1.8924 H   0  0  0  0  0  0  0  0  0  0  0  0
   -1.1654    0.6182   -3.1562 H   0  0  0  0  0  0  0  0  0  0  0  0
   -4.6615    1.6178    0.1021 H   0  0  0  0  0  0  0  0  0  0  0  0
   -5.1907    0.5712   -1.1961 H   0  0  0  0  0  0  0  0  0  0  0  0
   -3.8513    1.6295   -1.5045 H   0  0  0  0  0  0  0  0  0  0  0  0
    5.5416   -0.9088   -1.1382 H   0  0  0  0  0  0  0  0  0  0  0  0
    5.0133    0.7556   -1.3262 H   0  0  0  0  0  0  0  0  0  0  0  0
   -0.2595   -2.9264   -0.0126 H   0  0  0  0  0  0  0  0  0  0  0  0
    0.3617   -3.4872    1.3899 H   0  0  0  0  0  0  0  0  0  0  0  0
   -2.3245    4.0171    2.1372 H   0  0  0  0  0  0  0  0  0  0  0  0
   -3.7914    3.6838    1.1575 H   0  0  0  0  0  0  0  0  0  0  0  0
   -3.7544    3.3030    2.8849 H   0  0  0  0  0  0  0  0  0  0  0  0
   -5.4176   -1.4834   -1.3601 H   0  0  0  0  0  0  0  0  0  0  0  0
   -5.8754   -1.0171    0.3143 H   0  0  0  0  0  0  0  0  0  0  0  0
    5.7194    1.1830    0.9400 H   0  0  0  0  0  0  0  0  0  0  0  0
   -6.4642   -3.2589   -0.2126 H   0  0  0  0  0  0  0  0  0  0  0  0
   -5.3627   -3.2266    0.9866 H   0  0  0  0  0  0  0  0  0  0  0  0
    8.0718    0.9985    0.6722 H   0  0  0  0  0  0  0  0  0  0  0  0
    7.3122    1.5297   -0.8359 H   0  0  0  0  0  0  0  0  0  0  0  0
    7.8272   -0.1663   -0.6313 H   0  0  0  0  0  0  0  0  0  0  0  0
  1 11  1  0  0  0  0
  1 17  1  0  0  0  0
  2 15  1  0  0  0  0
  2 25  1  0  0  0  0
  3 13  1  0  0  0  0
  3 44  1  0  0  0  0
  4 17  1  0  0  0  0
  4 20  1  0  0  0  0
  5 23  2  0  0  0  0
  6 12  1  0  0  0  0
  6 22  1  0  0  0  0
  6 23  1  0  0  0  0
  7 14  1  0  0  0  0
  7 39  1  0  0  0  0
  7 40  1  0  0  0  0
  8 18  1  0  0  0  0
  8 50  1  0  0  0  0
  8 51  1  0  0  0  0
  9 24  1  0  0  0  0
  9 27  1  0  0  0  0
  9 57  1  0  0  0  0
 10 26  1  0  0  0  0
 10 58  1  0  0  0  0
 10 59  1  0  0  0  0
 11 13  1  0  0  0  0
 11 14  1  0  0  0  0
 11 28  1  0  0  0  0
 12 13  1  0  0  0  0
 12 15  1  0  0  0  0
 12 29  1  0  0  0  0
 13 30  1  0  0  0  0
 14 16  1  0  0  0  0
 14 31  1  0  0  0  0
 15 16  1  0  0  0  0
 15 32  1  0  0  0  0
 16 33  1  0  0  0  0
 16 34  1  0  0  0  0
 17 18  1  0  0  0  0
 17 35  1  0  0  0  0
 18 19  1  0  0  0  0
 18 36  1  0  0  0  0
 19 21  1  0  0  0  0
 19 37  1  0  0  0  0
 19 38  1  0  0  0  0
 20 21  1  0  0  0  0
 20 24  1  0  0  0  0
 20 41  1  0  0  0  0
 21 42  1  0  0  0  0
 21 43  1  0  0  0  0
 22 45  1  0  0  0  0
 22 46  1  0  0  0  0
 22 47  1  0  0  0  0
 23 26  1  0  0  0  0
 24 48  1  0  0  0  0
 24 49  1  0  0  0  0
 25 52  1  0  0  0  0
 25 53  1  0  0  0  0
 25 54  1  0  0  0  0
 26 55  1  0  0  0  0
 26 56  1  0  0  0  0
 27 60  1  0  0  0  0
 27 61  1  0  0  0  0
 27 62  1  0  0  0  0
M  END
> <PUBCHEM_COMPOUND_CID>
156088

> <PUBCHEM_CONFORMER_RMSD>
1

> <PUBCHEM_CONFORMER_DIVERSEORDER>
1
15
11
14
20
3
13
8
17
12
16
6
19
10
4
7
5
18
9
2

> <PUBCHEM_MMFF94_PARTIAL_CHARGES>
32
1 -0.56
10 -0.99
11 0.28
12 0.3
13 0.28
14 0.27
15 0.28
17 0.56
18 0.27
2 -0.56
20 0.28
22 0.3
23 0.57
24 0.27
25 0.28
26 0.33
27 0.27
3 -0.68
39 0.36
4 -0.56
40 0.36
44 0.4
5 -0.57
50 0.36
51 0.36
57 0.36
58 0.36
59 0.36
6 -0.66
7 -0.99
8 -0.99
9 -0.9

> <PUBCHEM_EFFECTIVE_ROTOR_COUNT>
10.4

> <PUBCHEM_PHARMACOPHORE_FEATURES>
16
1 1 acceptor
1 10 cation
1 10 donor
1 2 acceptor
1 3 acceptor
1 3 donor
1 4 acceptor
1 5 acceptor
1 7 cation
1 7 donor
1 8 cation
1 8 donor
1 9 cation
1 9 donor
6 11 12 13 14 15 16 rings
6 4 17 18 19 20 21 rings

> <PUBCHEM_HEAVY_ATOM_COUNT>
27

> <PUBCHEM_ATOM_DEF_STEREO_COUNT>
8

> <PUBCHEM_ATOM_UDEF_STEREO_COUNT>
0

> <PUBCHEM_BOND_DEF_STEREO_COUNT>
0

> <PUBCHEM_BOND_UDEF_STEREO_COUNT>
0

> <PUBCHEM_ISOTOPIC_ATOM_COUNT>
0

> <PUBCHEM_COMPONENT_COUNT>
1

> <PUBCHEM_CACTVS_TAUTO_COUNT>
1

> <PUBCHEM_CONFORMER_ID>
000261B800000001

> <PUBCHEM_MMFF94_ENERGY>
59.2442

> <PUBCHEM_FEATURE_SELFOVERLAP>
81.228

> <PUBCHEM_SHAPE_FINGERPRINT>
10366900 7 17822869661602958659
10906281 52 17969783175987275661
1100329 8 18196653986742209458
11578080 2 17559129876141829428
12553582 1 18197485440738939973
12633257 1 17904485456086611858
12788726 201 18333732438076473747
13032168 30 18413103987388050411
13224815 77 18268152135704178358
13631057 29 18410857633524317715
14068700 675 18337392621985355995
14178342 30 18263641938754086907
14341114 328 18339079410409011192
14787075 74 18130790032150856750
15927050 60 17544194879347760436
20028762 73 18189616046872536550
20511986 3 17916881229876609391
20681651 13 18128546044402440371
21033648 29 16371298842797650667
21421861 104 18265029398454375377
23559900 14 18340780251892019821
23566358 27 17977938322143985678
3380486 145 17845929761769607893
34934 24 18340491191559770981
392239 28 18410289186355467520
463206 1 18048597019753901551
469060 322 17989202663998494324
5081480 168 13984956104112495864
5104073 3 18188776179645575162
5486654 2 18343582932764042990
6913067 236 17346605162245239732

> <PUBCHEM_SHAPE_MULTIPOLES>
501.4
12.27
3.5
1.42
13.17
0.33
0.06
-2.99
0.4
-3.61
1.49
-0.59
0.6
-1.61

> <PUBCHEM_SHAPE_SELFOVERLAP>
1006.494

> <PUBCHEM_SHAPE_VOLUME>
292.7

> <PUBCHEM_COORDINATE_TYPE>
2
5
10

$$$$

