442931
  -OEChem-07051213003D

 41 43  0     1  0  0  0  0  0999 V2000
    1.9969    1.2112   -0.1423 O   0  0  0  0  0  0  0  0  0  0  0  0
    3.8818   -0.0566    1.5043 O   0  0  0  0  0  0  0  0  0  0  0  0
   -0.7665   -2.5524   -0.3875 O   0  0  0  0  0  0  0  0  0  0  0  0
   -5.4639   -0.5879    0.0280 O   0  0  0  0  0  0  0  0  0  0  0  0
   -0.3873    1.5361    0.0031 N   0  3  0  0  0  0  0  0  0  0  0  0
    2.7483    0.0595   -0.6086 C   0  0  2  0  0  0  0  0  0  0  0  0
    1.9230   -1.2104   -0.3446 C   0  0  0  0  0  0  0  0  0  0  0  0
    4.0963    0.0340    0.0928 C   0  0  0  0  0  0  0  0  0  0  0  0
    0.5765   -0.6051   -0.2736 C   0  0  0  0  0  0  0  0  0  0  0  0
    0.6870    0.7598   -0.1368 C   0  0  0  0  0  0  0  0  0  0  0  0
   -0.6679   -1.2006   -0.2676 C   0  0  0  0  0  0  0  0  0  0  0  0
    4.8913    1.3112   -0.1907 C   0  0  0  0  0  0  0  0  0  0  0  0
    4.9039   -1.1971   -0.3232 C   0  0  0  0  0  0  0  0  0  0  0  0
   -1.6346    1.0216    0.0075 C   0  0  0  0  0  0  0  0  0  0  0  0
   -1.8020   -0.3835   -0.1311 C   0  0  0  0  0  0  0  0  0  0  0  0
   -0.1535    2.9765    0.1485 C   0  0  0  0  0  0  0  0  0  0  0  0
   -3.1028   -0.9084   -0.1212 C   0  0  0  0  0  0  0  0  0  0  0  0
   -2.7456    1.8581    0.1492 C   0  0  0  0  0  0  0  0  0  0  0  0
   -4.2068   -0.0641    0.0203 C   0  0  0  0  0  0  0  0  0  0  0  0
   -4.0284    1.3128    0.1549 C   0  0  0  0  0  0  0  0  0  0  0  0
   -0.7457   -3.3149    0.8185 C   0  0  0  0  0  0  0  0  0  0  0  0
    2.8872    0.1890   -1.6921 H   0  0  0  0  0  0  0  0  0  0  0  0
    2.1555   -1.6911    0.6107 H   0  0  0  0  0  0  0  0  0  0  0  0
    2.0278   -1.9334   -1.1586 H   0  0  0  0  0  0  0  0  0  0  0  0
    5.8645    1.2850    0.3135 H   0  0  0  0  0  0  0  0  0  0  0  0
    5.0643    1.4480   -1.2631 H   0  0  0  0  0  0  0  0  0  0  0  0
    4.3748    2.1966    0.1964 H   0  0  0  0  0  0  0  0  0  0  0  0
    4.4284   -2.1294   -0.0008 H   0  0  0  0  0  0  0  0  0  0  0  0
    5.8925   -1.1899    0.1513 H   0  0  0  0  0  0  0  0  0  0  0  0
    5.0495   -1.2342   -1.4079 H   0  0  0  0  0  0  0  0  0  0  0  0
    4.7506   -0.0674    1.9412 H   0  0  0  0  0  0  0  0  0  0  0  0
    0.9094    3.2248    0.1278 H   0  0  0  0  0  0  0  0  0  0  0  0
   -0.6401    3.4904   -0.6856 H   0  0  0  0  0  0  0  0  0  0  0  0
   -0.5590    3.2959    1.1130 H   0  0  0  0  0  0  0  0  0  0  0  0
   -3.2680   -1.9784   -0.2287 H   0  0  0  0  0  0  0  0  0  0  0  0
   -2.6620    2.9345    0.2576 H   0  0  0  0  0  0  0  0  0  0  0  0
   -4.8892    1.9671    0.2652 H   0  0  0  0  0  0  0  0  0  0  0  0
   -0.9010   -4.3660    0.5603 H   0  0  0  0  0  0  0  0  0  0  0  0
   -1.5461   -2.9999    1.4954 H   0  0  0  0  0  0  0  0  0  0  0  0
    0.2238   -3.2180    1.3166 H   0  0  0  0  0  0  0  0  0  0  0  0
   -5.4051   -1.5533   -0.0746 H   0  0  0  0  0  0  0  0  0  0  0  0
  1  6  1  0  0  0  0
  1 10  1  0  0  0  0
  2  8  1  0  0  0  0
  2 31  1  0  0  0  0
  3 11  1  0  0  0  0
  3 21  1  0  0  0  0
  4 19  1  0  0  0  0
  4 41  1  0  0  0  0
  5 10  2  0  0  0  0
  5 14  1  0  0  0  0
  5 16  1  0  0  0  0
  6  7  1  0  0  0  0
  6  8  1  0  0  0  0
  6 22  1  0  0  0  0
  7  9  1  0  0  0  0
  7 23  1  0  0  0  0
  7 24  1  0  0  0  0
  8 12  1  0  0  0  0
  8 13  1  0  0  0  0
  9 10  1  0  0  0  0
  9 11  2  0  0  0  0
 11 15  1  0  0  0  0
 12 25  1  0  0  0  0
 12 26  1  0  0  0  0
 12 27  1  0  0  0  0
 13 28  1  0  0  0  0
 13 29  1  0  0  0  0
 13 30  1  0  0  0  0
 14 15  2  0  0  0  0
 14 18  1  0  0  0  0
 15 17  1  0  0  0  0
 16 32  1  0  0  0  0
 16 33  1  0  0  0  0
 16 34  1  0  0  0  0
 17 19  2  0  0  0  0
 17 35  1  0  0  0  0
 18 20  2  0  0  0  0
 18 36  1  0  0  0  0
 19 20  1  0  0  0  0
 20 37  1  0  0  0  0
 21 38  1  0  0  0  0
 21 39  1  0  0  0  0
 21 40  1  0  0  0  0
M  CHG  1   5   1
M  END
> <PUBCHEM_COMPOUND_CID>
442931

> <PUBCHEM_CONFORMER_RMSD>
0.6

> <PUBCHEM_CONFORMER_DIVERSEORDER>
1
6
3
4
2
5

> <PUBCHEM_MMFF94_PARTIAL_CHARGES>
23
1 -0.36
10 0.44
11 0.08
14 0.36
16 0.49
17 -0.15
18 -0.15
19 0.08
2 -0.68
20 -0.15
21 0.28
3 -0.36
31 0.4
35 0.15
36 0.15
37 0.15
4 -0.53
41 0.45
5 -0.21
6 0.28
7 0.14
8 0.28
9 -0.14

> <PUBCHEM_EFFECTIVE_ROTOR_COUNT>
2.6

> <PUBCHEM_PHARMACOPHORE_FEATURES>
8
1 2 acceptor
1 2 donor
1 3 acceptor
1 4 donor
3 8 12 13 hydrophobe
5 1 6 7 9 10 rings
6 14 15 17 18 19 20 rings
6 5 9 10 11 14 15 rings

> <PUBCHEM_HEAVY_ATOM_COUNT>
21

> <PUBCHEM_ATOM_DEF_STEREO_COUNT>
1

> <PUBCHEM_ATOM_UDEF_STEREO_COUNT>
0

> <PUBCHEM_BOND_DEF_STEREO_COUNT>
0

> <PUBCHEM_BOND_UDEF_STEREO_COUNT>
0

> <PUBCHEM_ISOTOPIC_ATOM_COUNT>
0

> <PUBCHEM_COMPONENT_COUNT>
1

> <PUBCHEM_CACTVS_TAUTO_COUNT>
3

> <PUBCHEM_CONFORMER_ID>
0006C23300000001

> <PUBCHEM_MMFF94_ENERGY>
84.8093

> <PUBCHEM_FEATURE_SELFOVERLAP>
40.732

> <PUBCHEM_SHAPE_FINGERPRINT>
10411042 1 17617657653146035358
10906281 52 18263060172295753837
10967382 1 18410008849349898087
1100329 8 18266457616529418107
11132069 177 18335138721674232701
11578080 2 16662905600089005179
11680986 33 18048600317797791345
12035758 1 18338510833858509051
12236239 1 17917992793562542996
12390115 104 18115007714785827369
12403259 226 18263928915926976940
12403814 3 17704077282681644837
12592029 89 18271242823839973819
13140716 1 18049438145747639123
13380535 76 18408319995015643726
13583140 156 16917062222538545105
13862211 1 18409733954363571567
14115302 16 18201710718043223558
14787075 74 18261114049847340401
14790565 3 18411129251525249485
15042514 8 18339919295490756379
15196674 1 18409165540837086396
15209289 33 18335140882258897953
15209294 21 17677318524447786145
15536298 74 18188488102629000918
16752209 62 18341333383143702124
16945 1 18265889168759245671
17349148 13 18410013242858705980
1813 80 17274820316053440438
19591789 44 18410856594015378191
200 152 18040156219115563669
20028762 73 18115588124488611223
20510252 161 18261672674631817736
21029758 11 18333733490069329689
21029758 27 18271801290042736029
21267235 1 18410002247716184295
21421861 104 17768525346091347041
2334 1 18409726283520001077
23366157 5 17769365363921471499
23402539 116 18333739013296643207
23557571 272 18114452439954359620
23558518 356 17553482479399310626
23559900 14 18261390083712306606
2748010 2 18336817714679400647
3178227 256 18341036434154322003
335352 9 18410291402173444381
34934 24 18264492969924175365
350125 39 18194680608431115014
4072396 5 18270695275923767915
4340502 62 16702300157130293123
43471831 8 18269838786161904843
474229 33 18410011035578123903
5104073 3 18408884066176803160
54173680 148 18196086638636827499
6138700 20 18339076128801276518
69090 78 18335140890495619166
7364860 26 17975413838761293615
9709674 26 18334569144924202446

> <PUBCHEM_SHAPE_MULTIPOLES>
403.71
9.28
2.72
0.76
2.84
0.7
-0.13
-0.66
-0.26
-0.81
-0.38
0.39
0.13
0.01

> <PUBCHEM_SHAPE_SELFOVERLAP>
884.899

> <PUBCHEM_SHAPE_VOLUME>
221.7

> <PUBCHEM_COORDINATE_TYPE>
2
5
10

$$$$

