17396106
  -OEChem-06241222542D

 54 57  0     0  0  0  0  0  0999 V2000
    5.0132   -0.4113    0.0000 S   0  0  0  0  0  0  0  0  0  0  0  0
    4.5132    0.4547    0.0000 O   0  0  0  0  0  0  0  0  0  0  0  0
    5.5132   -1.2773    0.0000 O   0  0  0  0  0  0  0  0  0  0  0  0
    8.4773    1.5887    0.0000 O   0  0  0  0  0  0  0  0  0  0  0  0
    8.4773   -1.4113    0.0000 O   0  0  0  0  0  0  0  0  0  0  0  0
   12.8876   -0.1066    0.0000 O   0  0  0  0  0  0  0  0  0  0  0  0
   12.8876   -1.7160    0.0000 O   0  0  0  0  0  0  0  0  0  0  0  0
    4.1472   -0.9113    0.0000 N   0  0  0  0  0  0  0  0  0  0  0  0
    9.3433    0.0887    0.0000 N   0  0  0  0  0  0  0  0  0  0  0  0
    3.3209   -0.3480    0.0000 C   0  0  0  0  0  0  0  0  0  0  0  0
    4.2219   -1.9085    0.0000 C   0  0  0  0  0  0  0  0  0  0  0  0
    2.3653   -0.6427    0.0000 C   0  0  0  0  0  0  0  0  0  0  0  0
    3.4888   -2.5887    0.0000 C   0  0  0  0  0  0  0  0  0  0  0  0
    2.0000   -1.5736    0.0000 C   0  0  0  0  0  0  0  0  0  0  0  0
    2.5000   -2.4396    0.0000 C   0  0  0  0  0  0  0  0  0  0  0  0
    5.8792    0.0887    0.0000 C   0  0  0  0  0  0  0  0  0  0  0  0
    6.7452   -0.4113    0.0000 C   0  0  0  0  0  0  0  0  0  0  0  0
    5.8792    1.0887    0.0000 C   0  0  0  0  0  0  0  0  0  0  0  0
    7.6112    0.0887    0.0000 C   0  0  0  0  0  0  0  0  0  0  0  0
    6.7452    1.5887    0.0000 C   0  0  0  0  0  0  0  0  0  0  0  0
    7.6112    1.0887    0.0000 C   0  0  0  0  0  0  0  0  0  0  0  0
    8.4773   -0.4113    0.0000 C   0  0  0  0  0  0  0  0  0  0  0  0
   10.2093   -0.4113    0.0000 C   0  0  0  0  0  0  0  0  0  0  0  0
   11.0754    0.0887    0.0000 C   0  0  0  0  0  0  0  0  0  0  0  0
   11.9414   -0.4113    0.0000 C   0  0  0  0  0  0  0  0  0  0  0  0
   11.9414   -1.4113    0.0000 C   0  0  0  0  0  0  0  0  0  0  0  0
   10.2093   -1.4113    0.0000 C   0  0  0  0  0  0  0  0  0  0  0  0
   11.0754   -1.9113    0.0000 C   0  0  0  0  0  0  0  0  0  0  0  0
    8.4773    2.5887    0.0000 C   0  0  0  0  0  0  0  0  0  0  0  0
   13.4712   -0.9113    0.0000 C   0  0  0  0  0  0  0  0  0  0  0  0
    4.5319   -2.4454    0.0000 H   0  0  0  0  0  0  0  0  0  0  0  0
    4.8143   -1.7258    0.0000 H   0  0  0  0  0  0  0  0  0  0  0  0
    3.7754    0.0737    0.0000 H   0  0  0  0  0  0  0  0  0  0  0  0
    3.0109    0.1889    0.0000 H   0  0  0  0  0  0  0  0  0  0  0  0
    3.2623   -3.1658    0.0000 H   0  0  0  0  0  0  0  0  0  0  0  0
    4.0011   -2.9380    0.0000 H   0  0  0  0  0  0  0  0  0  0  0  0
    2.3190   -0.0245    0.0000 H   0  0  0  0  0  0  0  0  0  0  0  0
    1.7523   -0.5503    0.0000 H   0  0  0  0  0  0  0  0  0  0  0  0
    1.9075   -2.6224    0.0000 H   0  0  0  0  0  0  0  0  0  0  0  0
    2.5463   -3.0579    0.0000 H   0  0  0  0  0  0  0  0  0  0  0  0
    1.4877   -1.2244    0.0000 H   0  0  0  0  0  0  0  0  0  0  0  0
    1.5455   -1.9953    0.0000 H   0  0  0  0  0  0  0  0  0  0  0  0
    6.7452   -1.0313    0.0000 H   0  0  0  0  0  0  0  0  0  0  0  0
    5.3423    1.3987    0.0000 H   0  0  0  0  0  0  0  0  0  0  0  0
    6.7452    2.2087    0.0000 H   0  0  0  0  0  0  0  0  0  0  0  0
    9.3433    0.7087    0.0000 H   0  0  0  0  0  0  0  0  0  0  0  0
   11.0754    0.7087    0.0000 H   0  0  0  0  0  0  0  0  0  0  0  0
    9.6724   -1.7213    0.0000 H   0  0  0  0  0  0  0  0  0  0  0  0
   11.0754   -2.5313    0.0000 H   0  0  0  0  0  0  0  0  0  0  0  0
    9.0973    2.5887    0.0000 H   0  0  0  0  0  0  0  0  0  0  0  0
    8.4773    3.2087    0.0000 H   0  0  0  0  0  0  0  0  0  0  0  0
    7.8573    2.5887    0.0000 H   0  0  0  0  0  0  0  0  0  0  0  0
   13.9321   -1.3260    0.0000 H   0  0  0  0  0  0  0  0  0  0  0  0
   13.9321   -0.4966    0.0000 H   0  0  0  0  0  0  0  0  0  0  0  0
  1  2  2  0  0  0  0
  1  3  2  0  0  0  0
  1  8  1  0  0  0  0
  1 16  1  0  0  0  0
  4 21  1  0  0  0  0
  4 29  1  0  0  0  0
  5 22  2  0  0  0  0
  6 25  1  0  0  0  0
  6 30  1  0  0  0  0
  7 26  1  0  0  0  0
  7 30  1  0  0  0  0
  8 10  1  0  0  0  0
  8 11  1  0  0  0  0
  9 22  1  0  0  0  0
  9 23  1  0  0  0  0
  9 46  1  0  0  0  0
 10 12  1  0  0  0  0
 10 33  1  0  0  0  0
 10 34  1  0  0  0  0
 11 13  1  0  0  0  0
 11 31  1  0  0  0  0
 11 32  1  0  0  0  0
 12 14  1  0  0  0  0
 12 37  1  0  0  0  0
 12 38  1  0  0  0  0
 13 15  1  0  0  0  0
 13 35  1  0  0  0  0
 13 36  1  0  0  0  0
 14 15  1  0  0  0  0
 14 41  1  0  0  0  0
 14 42  1  0  0  0  0
 15 39  1  0  0  0  0
 15 40  1  0  0  0  0
 16 17  2  0  0  0  0
 16 18  1  0  0  0  0
 17 19  1  0  0  0  0
 17 43  1  0  0  0  0
 18 20  2  0  0  0  0
 18 44  1  0  0  0  0
 19 21  2  0  0  0  0
 19 22  1  0  0  0  0
 20 21  1  0  0  0  0
 20 45  1  0  0  0  0
 23 24  2  0  0  0  0
 23 27  1  0  0  0  0
 24 25  1  0  0  0  0
 24 47  1  0  0  0  0
 25 26  2  0  0  0  0
 26 28  1  0  0  0  0
 27 28  2  0  0  0  0
 27 48  1  0  0  0  0
 28 49  1  0  0  0  0
 29 50  1  0  0  0  0
 29 51  1  0  0  0  0
 29 52  1  0  0  0  0
 30 53  1  0  0  0  0
 30 54  1  0  0  0  0
M  END
> <PUBCHEM_COMPOUND_CID>
17396106

> <PUBCHEM_COMPOUND_CANONICALIZED>
1

> <PUBCHEM_CACTVS_COMPLEXITY>
688

> <PUBCHEM_CACTVS_HBOND_ACCEPTOR>
7

> <PUBCHEM_CACTVS_HBOND_DONOR>
1

> <PUBCHEM_CACTVS_ROTATABLE_BOND>
5

> <PUBCHEM_CACTVS_SUBSKEYS>
AAADceB7OABAAAAAAAAAAAAAAAAAASAAAAAwYAAABYAAAEgBQAAAHgQQQAAADAzB2Acyz4LABAKIAiVSUHDCCBAlIgAIiBkO7MgdJjbEtZukMWpm9BnO6Ye42COOAMAAggAIQAABgAEEABCAAAAAAAAAAA==

> <PUBCHEM_IUPAC_OPENEYE_NAME>
5-(azepan-1-ylsulfonyl)-N-(1,3-benzodioxol-5-yl)-2-methoxy-benzamide

> <PUBCHEM_IUPAC_CAS_NAME>
5-(1-azepanylsulfonyl)-N-(1,3-benzodioxol-5-yl)-2-methoxybenzamide

> <PUBCHEM_IUPAC_NAME>
5-(azepan-1-ylsulfonyl)-N-(1,3-benzodioxol-5-yl)-2-methoxybenzamide

> <PUBCHEM_IUPAC_SYSTEMATIC_NAME>
5-(azepan-1-ylsulfonyl)-N-(1,3-benzodioxol-5-yl)-2-methoxy-benzamide

> <PUBCHEM_IUPAC_TRADITIONAL_NAME>
5-(azepan-1-ylsulfonyl)-N-(1,3-benzodioxol-5-yl)-2-methoxy-benzamide

> <PUBCHEM_IUPAC_INCHI>
InChI=1S/C21H24N2O6S/c1-27-18-9-7-16(30(25,26)23-10-4-2-3-5-11-23)13-17(18)21(24)22-15-6-8-19-20(12-15)29-14-28-19/h6-9,12-13H,2-5,10-11,14H2,1H3,(H,22,24)

> <PUBCHEM_IUPAC_INCHIKEY>
HRFNAXKYJXHOCU-UHFFFAOYSA-N

> <PUBCHEM_XLOGP3_AA>
2.9

> <PUBCHEM_EXACT_MASS>
432.135507

> <PUBCHEM_MOLECULAR_FORMULA>
C21H24N2O6S

> <PUBCHEM_MOLECULAR_WEIGHT>
432.49006

> <PUBCHEM_OPENEYE_CAN_SMILES>
COC1=C(C=C(C=C1)S(=O)(=O)N2CCCCCC2)C(=O)NC3=CC4=C(C=C3)OCO4

> <PUBCHEM_OPENEYE_ISO_SMILES>
COC1=C(C=C(C=C1)S(=O)(=O)N2CCCCCC2)C(=O)NC3=CC4=C(C=C3)OCO4

> <PUBCHEM_CACTVS_TPSA>
103

> <PUBCHEM_MONOISOTOPIC_WEIGHT>
432.135507

> <PUBCHEM_TOTAL_CHARGE>
0

> <PUBCHEM_HEAVY_ATOM_COUNT>
30

> <PUBCHEM_ATOM_DEF_STEREO_COUNT>
0

> <PUBCHEM_ATOM_UDEF_STEREO_COUNT>
0

> <PUBCHEM_BOND_DEF_STEREO_COUNT>
0

> <PUBCHEM_BOND_UDEF_STEREO_COUNT>
0

> <PUBCHEM_ISOTOPIC_ATOM_COUNT>
0

> <PUBCHEM_COMPONENT_COUNT>
1

> <PUBCHEM_CACTVS_TAUTO_COUNT>
2

> <PUBCHEM_COORDINATE_TYPE>
1
5
255

> <PUBCHEM_BONDANNOTATIONS>
16  17  8
16  18  8
17  19  8
18  20  8
19  21  8
20  21  8
23  24  8
23  27  8
24  25  8
25  26  8
26  28  8
27  28  8

$$$$

