5318997
  -OEChem-07051213102D

 88 92  0     1  0  0  0  0  0999 V2000
   11.5923    1.6586    0.0000 O   0  0  0  0  0  0  0  0  0  0  0  0
    5.4641   -1.8722    0.0000 O   0  0  0  0  0  0  0  0  0  0  0  0
    9.8602    1.6519    0.0000 O   0  0  0  0  0  0  0  0  0  0  0  0
    4.5981   -0.3722    0.0000 O   0  0  0  0  0  0  0  0  0  0  0  0
   11.6039   -1.3414    0.0000 O   0  0  0  0  0  0  0  0  0  0  0  0
   13.3320   -0.3347    0.0000 O   0  0  0  0  0  0  0  0  0  0  0  0
    9.8680   -0.3481    0.0000 O   0  0  0  0  0  0  0  0  0  0  0  0
    2.8660   -3.3722    0.0000 O   0  0  0  0  0  0  0  0  0  0  0  0
    4.5981   -4.3722    0.0000 O   0  0  0  0  0  0  0  0  0  0  0  0
    2.8660   -1.3722    0.0000 O   0  0  0  0  0  0  0  0  0  0  0  0
   13.3205    2.6652    0.0000 O   0  0  0  0  0  0  0  0  0  0  0  0
    6.3301    1.6278    0.0000 O   0  0  0  0  0  0  0  0  0  0  0  0
    8.0785   -1.4068    0.0000 O   0  0  0  0  0  0  0  0  0  0  0  0
    6.3301   -1.3722    0.0000 O   0  0  0  0  0  0  0  0  0  0  0  0
    2.0000    3.1278    0.0000 O   0  0  0  0  0  0  0  0  0  0  0  0
   11.6000   -0.3414    0.0000 C   0  0  1  0  0  0  0  0  0  0  0  0
   12.4641    0.1619    0.0000 C   0  0  1  0  0  0  0  0  0  0  0  0
   10.7321    0.1553    0.0000 C   0  0  2  0  0  0  0  0  0  0  0  0
   12.4602    1.1619    0.0000 C   0  0  1  0  0  0  0  0  0  0  0  0
    3.7320   -2.8722    0.0000 C   0  0  2  0  0  0  0  0  0  0  0  0
    4.5981   -3.3722    0.0000 C   0  0  2  0  0  0  0  0  0  0  0  0
   10.7282    1.1553    0.0000 C   0  0  1  0  0  0  0  0  0  0  0  0
    3.7320   -1.8722    0.0000 C   0  0  2  0  0  0  0  0  0  0  0  0
    5.4641   -2.8722    0.0000 C   0  0  2  0  0  0  0  0  0  0  0  0
    4.5981   -1.3722    0.0000 C   0  0  1  0  0  0  0  0  0  0  0  0
   13.3243    1.6653    0.0000 C   0  0  0  0  0  0  0  0  0  0  0  0
    6.3301   -3.3722    0.0000 C   0  0  0  0  0  0  0  0  0  0  0  0
    8.9962    1.1486    0.0000 C   0  0  0  0  0  0  0  0  0  0  0  0
    8.0901    1.6624    0.0000 C   0  0  0  0  0  0  0  0  0  0  0  0
    5.4641    0.1278    0.0000 C   0  0  0  0  0  0  0  0  0  0  0  0
    7.1962    1.1278    0.0000 C   0  0  0  0  0  0  0  0  0  0  0  0
    7.1962    0.1278    0.0000 C   0  0  0  0  0  0  0  0  0  0  0  0
    6.3301   -0.3722    0.0000 C   0  0  0  0  0  0  0  0  0  0  0  0
    5.4641    1.1278    0.0000 C   0  0  0  0  0  0  0  0  0  0  0  0
    8.9962    0.1069    0.0000 C   0  0  0  0  0  0  0  0  0  0  0  0
    8.0901   -0.4069    0.0000 C   0  0  0  0  0  0  0  0  0  0  0  0
    8.0785    2.6624    0.0000 C   0  0  0  0  0  0  0  0  0  0  0  0
    4.5981    1.6278    0.0000 C   0  0  0  0  0  0  0  0  0  0  0  0
    8.9387    3.1723    0.0000 C   0  0  0  0  0  0  0  0  0  0  0  0
    3.7320    1.1278    0.0000 C   0  0  0  0  0  0  0  0  0  0  0  0
    4.5981    2.6278    0.0000 C   0  0  0  0  0  0  0  0  0  0  0  0
    8.9271    4.1723    0.0000 C   0  0  0  0  0  0  0  0  0  0  0  0
    2.8660    1.6278    0.0000 C   0  0  0  0  0  0  0  0  0  0  0  0
    3.7320    3.1278    0.0000 C   0  0  0  0  0  0  0  0  0  0  0  0
    2.8660    2.6278    0.0000 C   0  0  0  0  0  0  0  0  0  0  0  0
    9.7873    4.6822    0.0000 C   0  0  0  0  0  0  0  0  0  0  0  0
    8.0554    4.6622    0.0000 C   0  0  0  0  0  0  0  0  0  0  0  0
    2.0000    4.1278    0.0000 C   0  0  0  0  0  0  0  0  0  0  0  0
   12.1381   -0.6493    0.0000 H   0  0  0  0  0  0  0  0  0  0  0  0
   12.4665   -0.4581    0.0000 H   0  0  0  0  0  0  0  0  0  0  0  0
   10.7344   -0.4647    0.0000 H   0  0  0  0  0  0  0  0  0  0  0  0
   12.4578    1.7819    0.0000 H   0  0  0  0  0  0  0  0  0  0  0  0
    3.7320   -3.4922    0.0000 H   0  0  0  0  0  0  0  0  0  0  0  0
    5.1350   -3.6822    0.0000 H   0  0  0  0  0  0  0  0  0  0  0  0
   10.1925    0.8432    0.0000 H   0  0  0  0  0  0  0  0  0  0  0  0
    3.7320   -1.2522    0.0000 H   0  0  0  0  0  0  0  0  0  0  0  0
    6.0010   -2.5622    0.0000 H   0  0  0  0  0  0  0  0  0  0  0  0
    4.0611   -1.0622    0.0000 H   0  0  0  0  0  0  0  0  0  0  0  0
   13.5386    1.0835    0.0000 H   0  0  0  0  0  0  0  0  0  0  0  0
   13.9345    1.7753    0.0000 H   0  0  0  0  0  0  0  0  0  0  0  0
    6.0201   -3.9092    0.0000 H   0  0  0  0  0  0  0  0  0  0  0  0
    6.8671   -3.6822    0.0000 H   0  0  0  0  0  0  0  0  0  0  0  0
    6.6401   -2.8353    0.0000 H   0  0  0  0  0  0  0  0  0  0  0  0
   12.1420   -1.6493    0.0000 H   0  0  0  0  0  0  0  0  0  0  0  0
   13.8678   -0.0227    0.0000 H   0  0  0  0  0  0  0  0  0  0  0  0
    9.8704   -0.9681    0.0000 H   0  0  0  0  0  0  0  0  0  0  0  0
    2.8660   -3.9922    0.0000 H   0  0  0  0  0  0  0  0  0  0  0  0
    5.1350   -4.6822    0.0000 H   0  0  0  0  0  0  0  0  0  0  0  0
    2.3291   -1.6822    0.0000 H   0  0  0  0  0  0  0  0  0  0  0  0
    9.5319   -0.2051    0.0000 H   0  0  0  0  0  0  0  0  0  0  0  0
    7.8598    3.2425    0.0000 H   0  0  0  0  0  0  0  0  0  0  0  0
    7.4692    2.5476    0.0000 H   0  0  0  0  0  0  0  0  0  0  0  0
   13.8562    2.9773    0.0000 H   0  0  0  0  0  0  0  0  0  0  0  0
    9.4792    2.8686    0.0000 H   0  0  0  0  0  0  0  0  0  0  0  0
    8.6118   -1.7230    0.0000 H   0  0  0  0  0  0  0  0  0  0  0  0
    3.7320    0.5078    0.0000 H   0  0  0  0  0  0  0  0  0  0  0  0
    5.1350    2.9378    0.0000 H   0  0  0  0  0  0  0  0  0  0  0  0
    2.3291    1.3178    0.0000 H   0  0  0  0  0  0  0  0  0  0  0  0
    3.7320    3.7478    0.0000 H   0  0  0  0  0  0  0  0  0  0  0  0
    8.3592    5.2027    0.0000 H   0  0  0  0  0  0  0  0  0  0  0  0
    7.5149    4.9660    0.0000 H   0  0  0  0  0  0  0  0  0  0  0  0
    7.7516    4.1217    0.0000 H   0  0  0  0  0  0  0  0  0  0  0  0
   10.1035    4.1489    0.0000 H   0  0  0  0  0  0  0  0  0  0  0  0
   10.3207    4.9984    0.0000 H   0  0  0  0  0  0  0  0  0  0  0  0
    9.4712    5.2156    0.0000 H   0  0  0  0  0  0  0  0  0  0  0  0
    2.6200    4.1278    0.0000 H   0  0  0  0  0  0  0  0  0  0  0  0
    2.0000    4.7478    0.0000 H   0  0  0  0  0  0  0  0  0  0  0  0
    1.3800    4.1278    0.0000 H   0  0  0  0  0  0  0  0  0  0  0  0
  1 19  1  0  0  0  0
  1 22  1  0  0  0  0
  2 24  1  0  0  0  0
  2 25  1  0  0  0  0
 22  3  1  6  0  0  0
  3 28  1  0  0  0  0
 25  4  1  6  0  0  0
  4 30  1  0  0  0  0
 16  5  1  6  0  0  0
  5 64  1  0  0  0  0
 17  6  1  1  0  0  0
  6 65  1  0  0  0  0
 18  7  1  1  0  0  0
  7 66  1  0  0  0  0
 20  8  1  1  0  0  0
  8 67  1  0  0  0  0
 21  9  1  6  0  0  0
  9 68  1  0  0  0  0
 23 10  1  1  0  0  0
 10 69  1  0  0  0  0
 11 26  1  0  0  0  0
 11 73  1  0  0  0  0
 12 31  1  0  0  0  0
 12 34  1  0  0  0  0
 13 36  1  0  0  0  0
 13 75  1  0  0  0  0
 14 33  2  0  0  0  0
 15 45  1  0  0  0  0
 15 48  1  0  0  0  0
 16 17  1  0  0  0  0
 16 18  1  0  0  0  0
 16 49  1  0  0  0  0
 17 19  1  0  0  0  0
 17 50  1  0  0  0  0
 18 22  1  0  0  0  0
 18 51  1  0  0  0  0
 19 26  1  6  0  0  0
 19 52  1  0  0  0  0
 20 21  1  0  0  0  0
 20 23  1  0  0  0  0
 20 53  1  0  0  0  0
 21 24  1  0  0  0  0
 21 54  1  0  0  0  0
 22 55  1  0  0  0  0
 23 25  1  0  0  0  0
 23 56  1  0  0  0  0
 24 27  1  1  0  0  0
 24 57  1  0  0  0  0
 25 58  1  0  0  0  0
 26 59  1  0  0  0  0
 26 60  1  0  0  0  0
 27 61  1  0  0  0  0
 27 62  1  0  0  0  0
 27 63  1  0  0  0  0
 28 29  2  0  0  0  0
 28 35  1  0  0  0  0
 29 31  1  0  0  0  0
 29 37  1  0  0  0  0
 30 33  1  0  0  0  0
 30 34  2  0  0  0  0
 31 32  2  0  0  0  0
 32 33  1  0  0  0  0
 32 36  1  0  0  0  0
 34 38  1  0  0  0  0
 35 36  2  0  0  0  0
 35 70  1  0  0  0  0
 37 39  1  0  0  0  0
 37 71  1  0  0  0  0
 37 72  1  0  0  0  0
 38 40  2  0  0  0  0
 38 41  1  0  0  0  0
 39 42  2  0  0  0  0
 39 74  1  0  0  0  0
 40 43  1  0  0  0  0
 40 76  1  0  0  0  0
 41 44  2  0  0  0  0
 41 77  1  0  0  0  0
 42 46  1  0  0  0  0
 42 47  1  0  0  0  0
 43 45  2  0  0  0  0
 43 78  1  0  0  0  0
 44 45  1  0  0  0  0
 44 79  1  0  0  0  0
 46 83  1  0  0  0  0
 46 84  1  0  0  0  0
 46 85  1  0  0  0  0
 47 80  1  0  0  0  0
 47 81  1  0  0  0  0
 47 82  1  0  0  0  0
 48 86  1  0  0  0  0
 48 87  1  0  0  0  0
 48 88  1  0  0  0  0
M  END
> <PUBCHEM_COMPOUND_CID>
5318997

> <PUBCHEM_COMPOUND_CANONICALIZED>
1

> <PUBCHEM_CACTVS_COMPLEXITY>
1170

> <PUBCHEM_CACTVS_HBOND_ACCEPTOR>
15

> <PUBCHEM_CACTVS_HBOND_DONOR>
8

> <PUBCHEM_CACTVS_ROTATABLE_BOND>
9

> <PUBCHEM_CACTVS_SUBSKEYS>
AAADcfB8PAAAAAAAAAAAAAAAAAAAAAAAAAA0aIECAAAAAACBQAAAGgAACAAADBSwmAMyDoAABgCIAqBSAAICCAAkIAAIiAFGCMgdNzaGNR6ieWCl4BUPuQfI7PzOIAACCAAIAABAAAQQABAAAAAAAAAAAA==

> <PUBCHEM_IUPAC_OPENEYE_NAME>
5-hydroxy-2-(4-methoxyphenyl)-8-(3-methylbut-2-enyl)-7-[(2S,3R,4S,5S,6R)-3,4,5-trihydroxy-6-(hydroxymethyl)tetrahydropyran-2-yl]oxy-3-[(2S,3R,4R,5R,6S)-3,4,5-trihydroxy-6-methyl-tetrahydropyran-2-yl]oxy-chromen-4-one

> <PUBCHEM_IUPAC_CAS_NAME>
5-hydroxy-2-(4-methoxyphenyl)-8-(3-methylbut-2-enyl)-7-[[(2S,3R,4S,5S,6R)-3,4,5-trihydroxy-6-(hydroxymethyl)-2-oxanyl]oxy]-3-[[(2S,3R,4R,5R,6S)-3,4,5-trihydroxy-6-methyl-2-oxanyl]oxy]-1-benzopyran-4-one

> <PUBCHEM_IUPAC_NAME>
5-hydroxy-2-(4-methoxyphenyl)-8-(3-methylbut-2-enyl)-7-[(2S,3R,4S,5S,6R)-3,4,5-trihydroxy-6-(hydroxymethyl)oxan-2-yl]oxy-3-[(2S,3R,4R,5R,6S)-3,4,5-trihydroxy-6-methyloxan-2-yl]oxychromen-4-one

> <PUBCHEM_IUPAC_SYSTEMATIC_NAME>
7-[(2S,3R,4S,5S,6R)-6-(hydroxymethyl)-3,4,5-tris(oxidanyl)oxan-2-yl]oxy-2-(4-methoxyphenyl)-8-(3-methylbut-2-enyl)-3-[(2S,3R,4R,5R,6S)-6-methyl-3,4,5-tris(oxidanyl)oxan-2-yl]oxy-5-oxidanyl-chromen-4-one

> <PUBCHEM_IUPAC_TRADITIONAL_NAME>
5-hydroxy-2-(4-methoxyphenyl)-8-(3-methylbut-2-enyl)-7-[(2S,3R,4S,5S,6R)-3,4,5-trihydroxy-6-methylol-tetrahydropyran-2-yl]oxy-3-[(2S,3R,4R,5R,6S)-3,4,5-trihydroxy-6-methyl-tetrahydropyran-2-yl]oxy-chromone

> <PUBCHEM_IUPAC_INCHI>
InChI=1S/C33H40O15/c1-13(2)5-10-17-19(45-33-28(42)26(40)23(37)20(12-34)46-33)11-18(35)21-24(38)31(48-32-27(41)25(39)22(36)14(3)44-32)29(47-30(17)21)15-6-8-16(43-4)9-7-15/h5-9,11,14,20,22-23,25-28,32-37,39-42H,10,12H2,1-4H3/t14-,20+,22-,23+,25+,26-,27+,28+,32-,33+/m0/s1

> <PUBCHEM_IUPAC_INCHIKEY>
TZJALUIVHRYQQB-XLRXWWTNSA-N

> <PUBCHEM_XLOGP3_AA>
1.7

> <PUBCHEM_EXACT_MASS>
676.236721

> <PUBCHEM_MOLECULAR_FORMULA>
C33H40O15

> <PUBCHEM_MOLECULAR_WEIGHT>
676.6617

> <PUBCHEM_OPENEYE_CAN_SMILES>
CC1C(C(C(C(O1)OC2=C(OC3=C(C2=O)C(=CC(=C3CC=C(C)C)OC4C(C(C(C(O4)CO)O)O)O)O)C5=CC=C(C=C5)OC)O)O)O

> <PUBCHEM_OPENEYE_ISO_SMILES>
C[C@H]1[C@@H]([C@H]([C@H]([C@@H](O1)OC2=C(OC3=C(C2=O)C(=CC(=C3CC=C(C)C)O[C@H]4[C@@H]([C@H]([C@@H]([C@H](O4)CO)O)O)O)O)C5=CC=C(C=C5)OC)O)O)O

> <PUBCHEM_CACTVS_TPSA>
234

> <PUBCHEM_MONOISOTOPIC_WEIGHT>
676.236721

> <PUBCHEM_TOTAL_CHARGE>
0

> <PUBCHEM_HEAVY_ATOM_COUNT>
48

> <PUBCHEM_ATOM_DEF_STEREO_COUNT>
10

> <PUBCHEM_ATOM_UDEF_STEREO_COUNT>
0

> <PUBCHEM_BOND_DEF_STEREO_COUNT>
0

> <PUBCHEM_BOND_UDEF_STEREO_COUNT>
0

> <PUBCHEM_ISOTOPIC_ATOM_COUNT>
0

> <PUBCHEM_COMPONENT_COUNT>
1

> <PUBCHEM_CACTVS_TAUTO_COUNT>
5

> <PUBCHEM_COORDINATE_TYPE>
1
5
255

> <PUBCHEM_BONDANNOTATIONS>
23  10  5
12  31  8
12  34  8
19  26  6
24  27  5
28  29  8
28  35  8
29  31  8
22  3  6
30  33  8
30  34  8
31  32  8
32  33  8
32  36  8
35  36  8
38  40  8
38  41  8
25  4  6
40  43  8
41  44  8
43  45  8
44  45  8
16  5  6
17  6  5
18  7  5
20  8  5
21  9  6

$$$$

