13969536
  -OEChem-07051213113D

 52 54  0     1  0  0  0  0  0999 V2000
   -1.0500    0.6649    0.1975 C   0  0  1  0  0  0  0  0  0  0  0  0
   -1.8996   -0.5738   -0.2672 C   0  0  2  0  0  0  0  0  0  0  0  0
    0.4180    0.4666   -0.3854 C   0  0  2  0  0  0  0  0  0  0  0  0
   -3.4658   -0.4541   -0.1786 C   0  0  0  0  0  0  0  0  0  0  0  0
   -1.6572    1.9623   -0.3938 C   0  0  0  0  0  0  0  0  0  0  0  0
   -1.3230   -1.8686    0.3469 C   0  0  0  0  0  0  0  0  0  0  0  0
    0.9473   -0.9535   -0.2224 C   0  0  0  0  0  0  0  0  0  0  0  0
   -3.9170    0.9175   -0.7369 C   0  0  0  0  0  0  0  0  0  0  0  0
    1.4298    1.5061    0.1513 C   0  0  0  0  0  0  0  0  0  0  0  0
   -3.1556    2.0979   -0.1477 C   0  0  0  0  0  0  0  0  0  0  0  0
   -0.9924    0.8004    1.7406 C   0  0  0  0  0  0  0  0  0  0  0  0
    3.3695   -0.1552   -0.0077 C   0  0  1  0  0  0  0  0  0  0  0  0
    2.3921   -1.1899   -0.6010 C   0  0  0  0  0  0  0  0  0  0  0  0
    0.1607   -1.9790    0.1484 C   0  0  0  0  0  0  0  0  0  0  0  0
    2.8588    1.2629   -0.3393 C   0  0  0  0  0  0  0  0  0  0  0  0
   -4.0604   -0.6594    1.2291 C   0  0  0  0  0  0  0  0  0  0  0  0
   -4.1109   -1.5433   -1.0770 C   0  0  0  0  0  0  0  0  0  0  0  0
    3.5236   -0.3589    1.5103 C   0  0  0  0  0  0  0  0  0  0  0  0
    4.7306   -0.3426   -0.6340 C   0  0  0  0  0  0  0  0  0  0  0  0
    5.8016    0.3996   -0.3331 C   0  0  0  0  0  0  0  0  0  0  0  0
   -1.7043   -0.6482   -1.3513 H   0  0  0  0  0  0  0  0  0  0  0  0
    0.3605    0.6236   -1.4737 H   0  0  0  0  0  0  0  0  0  0  0  0
   -1.4847    1.9887   -1.4779 H   0  0  0  0  0  0  0  0  0  0  0  0
   -1.1543    2.8462    0.0163 H   0  0  0  0  0  0  0  0  0  0  0  0
   -1.7836   -2.7395   -0.1314 H   0  0  0  0  0  0  0  0  0  0  0  0
   -1.5365   -1.9415    1.4179 H   0  0  0  0  0  0  0  0  0  0  0  0
   -4.9915    1.0627   -0.5665 H   0  0  0  0  0  0  0  0  0  0  0  0
   -3.7785    0.9318   -1.8268 H   0  0  0  0  0  0  0  0  0  0  0  0
    1.4493    1.5119    1.2453 H   0  0  0  0  0  0  0  0  0  0  0  0
    1.1260    2.5124   -0.1593 H   0  0  0  0  0  0  0  0  0  0  0  0
   -3.3645    2.1998    0.9221 H   0  0  0  0  0  0  0  0  0  0  0  0
   -3.5113    3.0220   -0.6192 H   0  0  0  0  0  0  0  0  0  0  0  0
   -0.5450    1.7549    2.0399 H   0  0  0  0  0  0  0  0  0  0  0  0
   -1.9746    0.7857    2.2061 H   0  0  0  0  0  0  0  0  0  0  0  0
   -0.4008    0.0064    2.2067 H   0  0  0  0  0  0  0  0  0  0  0  0
    2.7075   -2.2033   -0.3171 H   0  0  0  0  0  0  0  0  0  0  0  0
    2.4423   -1.1549   -1.6992 H   0  0  0  0  0  0  0  0  0  0  0  0
    0.5841   -2.9749    0.2511 H   0  0  0  0  0  0  0  0  0  0  0  0
    2.8871    1.4282   -1.4254 H   0  0  0  0  0  0  0  0  0  0  0  0
    3.5062    2.0292    0.1058 H   0  0  0  0  0  0  0  0  0  0  0  0
   -3.7260   -1.5965    1.6835 H   0  0  0  0  0  0  0  0  0  0  0  0
   -3.8344    0.1556    1.9157 H   0  0  0  0  0  0  0  0  0  0  0  0
   -5.1556   -0.7088    1.1794 H   0  0  0  0  0  0  0  0  0  0  0  0
   -5.1969   -1.4068   -1.1438 H   0  0  0  0  0  0  0  0  0  0  0  0
   -3.7150   -1.5059   -2.0981 H   0  0  0  0  0  0  0  0  0  0  0  0
   -3.9361   -2.5503   -0.6847 H   0  0  0  0  0  0  0  0  0  0  0  0
    4.0066   -1.3176    1.7364 H   0  0  0  0  0  0  0  0  0  0  0  0
    4.1221    0.4333    1.9747 H   0  0  0  0  0  0  0  0  0  0  0  0
    2.5560   -0.3654    2.0232 H   0  0  0  0  0  0  0  0  0  0  0  0
    4.8562   -1.1310   -1.3729 H   0  0  0  0  0  0  0  0  0  0  0  0
    6.7512    0.2075   -0.8215 H   0  0  0  0  0  0  0  0  0  0  0  0
    5.7663    1.2046    0.3917 H   0  0  0  0  0  0  0  0  0  0  0  0
  1  2  1  0  0  0  0
  1  3  1  0  0  0  0
  1  5  1  0  0  0  0
  1 11  1  0  0  0  0
  2  4  1  0  0  0  0
  2  6  1  0  0  0  0
  2 21  1  0  0  0  0
  3  7  1  0  0  0  0
  3  9  1  0  0  0  0
  3 22  1  0  0  0  0
  4  8  1  0  0  0  0
  4 16  1  0  0  0  0
  4 17  1  0  0  0  0
  5 10  1  0  0  0  0
  5 23  1  0  0  0  0
  5 24  1  0  0  0  0
  6 14  1  0  0  0  0
  6 25  1  0  0  0  0
  6 26  1  0  0  0  0
  7 13  1  0  0  0  0
  7 14  2  0  0  0  0
  8 10  1  0  0  0  0
  8 27  1  0  0  0  0
  8 28  1  0  0  0  0
  9 15  1  0  0  0  0
  9 29  1  0  0  0  0
  9 30  1  0  0  0  0
 10 31  1  0  0  0  0
 10 32  1  0  0  0  0
 11 33  1  0  0  0  0
 11 34  1  0  0  0  0
 11 35  1  0  0  0  0
 12 13  1  0  0  0  0
 12 15  1  0  0  0  0
 12 18  1  0  0  0  0
 12 19  1  0  0  0  0
 13 36  1  0  0  0  0
 13 37  1  0  0  0  0
 14 38  1  0  0  0  0
 15 39  1  0  0  0  0
 15 40  1  0  0  0  0
 16 41  1  0  0  0  0
 16 42  1  0  0  0  0
 16 43  1  0  0  0  0
 17 44  1  0  0  0  0
 17 45  1  0  0  0  0
 17 46  1  0  0  0  0
 18 47  1  0  0  0  0
 18 48  1  0  0  0  0
 18 49  1  0  0  0  0
 19 20  2  0  0  0  0
 19 50  1  0  0  0  0
 20 51  1  0  0  0  0
 20 52  1  0  0  0  0
M  END
> <PUBCHEM_COMPOUND_CID>
13969536

> <PUBCHEM_CONFORMER_RMSD>
0.6

> <PUBCHEM_CONFORMER_DIVERSEORDER>
2
1

> <PUBCHEM_MMFF94_PARTIAL_CHARGES>
12
12 0.14
13 0.14
14 -0.29
19 -0.29
20 -0.3
3 0.14
38 0.15
50 0.15
51 0.15
52 0.15
6 0.14
7 -0.28

> <PUBCHEM_EFFECTIVE_ROTOR_COUNT>
2.8

> <PUBCHEM_PHARMACOPHORE_FEATURES>
5
1 20 hydrophobe
3 4 16 17 hydrophobe
6 1 2 3 6 7 14 rings
6 1 2 4 5 8 10 rings
6 3 7 9 12 13 15 rings

> <PUBCHEM_HEAVY_ATOM_COUNT>
20

> <PUBCHEM_ATOM_DEF_STEREO_COUNT>
4

> <PUBCHEM_ATOM_UDEF_STEREO_COUNT>
0

> <PUBCHEM_BOND_DEF_STEREO_COUNT>
0

> <PUBCHEM_BOND_UDEF_STEREO_COUNT>
0

> <PUBCHEM_ISOTOPIC_ATOM_COUNT>
0

> <PUBCHEM_COMPONENT_COUNT>
1

> <PUBCHEM_CACTVS_TAUTO_COUNT>
1

> <PUBCHEM_CONFORMER_ID>
00D5288000000002

> <PUBCHEM_MMFF94_ENERGY>
67.9165

> <PUBCHEM_FEATURE_SELFOVERLAP>
25.404

> <PUBCHEM_SHAPE_FINGERPRINT>
10062212 137 18270690860607664867
10366900 7 18411703149265418882
10498660 4 18339359768546726620
10646746 165 18341333378801476572
10759866 29 18060419144789715410
11132069 177 18259992569314126347
11315181 36 17967529082803037216
12011746 2 18410855464892601870
12236239 1 17703791423334400790
12390115 104 18189880084350012121
12403259 226 18335709290889314961
12403259 415 18333455330628030296
12403260 363 18412271613972522916
12403814 3 18411696587256659561
12592029 89 18272369814747494523
12788726 201 18337675346428863401
13140716 1 18195237815565102787
13224815 77 18114186332307135371
13288520 33 18407758131614731485
13583140 156 16773799164769664203
13862211 1 18410579470252391390
14787075 74 18187932716091687370
15196674 1 18411418457780001598
16752209 62 18410863148330884642
16945 1 18411139121523067315
17349148 13 18408325484226207046
17804303 29 18410855443085735020
18186145 218 17894632556185506458
200 152 17749109988941601524
20510252 161 18334572473127964520
21033648 29 17386021584532976512
21267235 1 18410847733598385263
23402539 116 18411142428389162951
23402655 69 18335985366896728613
23493267 7 17847066579878241065
23557571 272 17967527969710214559
23559900 14 18261118430867307624
2748010 2 18193552504821090255
296302 2 16773794813999383258
34934 24 18270403931333932429
350125 39 18411130325277376105
5104073 3 18340487871676561392
69090 78 18259988149734971094
9709674 26 18409161112915981318

> <PUBCHEM_SHAPE_MULTIPOLES>
411.59
9.5
2.01
1.13
6.93
0.14
0.41
-0.03
-1.26
-1.37
-0.16
-0.24
-0.05
-0.03

> <PUBCHEM_SHAPE_SELFOVERLAP>
855.704

> <PUBCHEM_SHAPE_VOLUME>
232.2

> <PUBCHEM_COORDINATE_TYPE>
2
5
10

$$$$

