443294
  -OEChem-07051213013D

 58 61  0     1  0  0  0  0  0999 V2000
   -3.3560    3.0305   -1.0965 S   0  0  0  0  0  0  0  0  0  0  0  0
    2.1491    0.0307    0.0412 O   0  0  0  0  0  0  0  0  0  0  0  0
    1.2387    1.9042    1.0917 O   0  0  0  0  0  0  0  0  0  0  0  0
    5.9635    1.5090    0.4111 O   0  0  0  0  0  0  0  0  0  0  0  0
    3.6446    3.3115    0.6268 O   0  0  0  0  0  0  0  0  0  0  0  0
    5.4008   -0.5971   -1.5115 O   0  0  0  0  0  0  0  0  0  0  0  0
    3.6043   -2.5903   -1.7862 O   0  0  0  0  0  0  0  0  0  0  0  0
    2.0130   -2.5114   -0.1560 O   0  0  0  0  0  0  0  0  0  0  0  0
   -4.0705    0.7704   -0.0800 N   0  0  0  0  0  0  0  0  0  0  0  0
   -5.7545    1.9073   -1.2838 N   0  0  0  0  0  0  0  0  0  0  0  0
   -1.1899   -4.6667    0.8664 N   0  0  0  0  0  0  0  0  0  0  0  0
    4.7022    1.3198   -0.2319 C   0  0  2  0  0  0  0  0  0  0  0  0
    3.5893    1.8853    0.6510 C   0  0  2  0  0  0  0  0  0  0  0  0
    4.5150   -0.1781   -0.4746 C   0  0  1  0  0  0  0  0  0  0  0  0
    2.2114    1.4504    0.1512 C   0  0  1  0  0  0  0  0  0  0  0  0
    3.0841   -0.4813   -0.9014 C   0  0  1  0  0  0  0  0  0  0  0  0
   -0.0668    1.5998    0.8182 C   0  0  0  0  0  0  0  0  0  0  0  0
    2.8204   -1.9522   -0.8831 C   0  0  0  0  0  0  0  0  0  0  0  0
   -0.6098    0.4130    1.2959 C   0  0  0  0  0  0  0  0  0  0  0  0
   -0.8343    2.4881    0.0618 C   0  0  0  0  0  0  0  0  0  0  0  0
   -1.9416    0.0837    1.0270 C   0  0  0  0  0  0  0  0  0  0  0  0
   -2.1712    2.1511   -0.2043 C   0  0  0  0  0  0  0  0  0  0  0  0
   -2.7406    0.9633    0.2646 C   0  0  0  0  0  0  0  0  0  0  0  0
   -2.5023   -1.2017    1.5537 C   0  0  0  0  0  0  0  0  0  0  0  0
    0.2412   -0.5167    2.1041 C   0  0  0  0  0  0  0  0  0  0  0  0
   -0.2209    3.7580   -0.4380 C   0  0  0  0  0  0  0  0  0  0  0  0
   -2.0328   -2.4250    0.7976 C   0  0  0  0  0  0  0  0  0  0  0  0
   -4.4930    1.7899   -0.7908 C   0  0  0  0  0  0  0  0  0  0  0  0
   -2.0153   -2.4216   -0.5798 C   0  0  0  0  0  0  0  0  0  0  0  0
   -1.6215   -3.5423    1.4806 C   0  0  0  0  0  0  0  0  0  0  0  0
   -1.5778   -3.5600   -1.2477 C   0  0  0  0  0  0  0  0  0  0  0  0
   -6.7995    0.9244   -1.0920 C   0  0  0  0  0  0  0  0  0  0  0  0
   -1.1792   -4.6461   -0.4853 C   0  0  0  0  0  0  0  0  0  0  0  0
    4.7519    1.8711   -1.1792 H   0  0  0  0  0  0  0  0  0  0  0  0
    3.7326    1.5750    1.6935 H   0  0  0  0  0  0  0  0  0  0  0  0
    4.7849   -0.7386    0.4289 H   0  0  0  0  0  0  0  0  0  0  0  0
    1.9989    1.9078   -0.8241 H   0  0  0  0  0  0  0  0  0  0  0  0
    2.8431   -0.1039   -1.9029 H   0  0  0  0  0  0  0  0  0  0  0  0
    6.6460    1.1319   -0.1702 H   0  0  0  0  0  0  0  0  0  0  0  0
    4.5333    3.5723    0.9233 H   0  0  0  0  0  0  0  0  0  0  0  0
    5.1719   -0.1072   -2.3198 H   0  0  0  0  0  0  0  0  0  0  0  0
   -3.5987   -1.1897    1.4888 H   0  0  0  0  0  0  0  0  0  0  0  0
   -2.3013   -1.2933    2.6277 H   0  0  0  0  0  0  0  0  0  0  0  0
   -0.2602   -0.8004    3.0349 H   0  0  0  0  0  0  0  0  0  0  0  0
    0.4873   -1.4177    1.5410 H   0  0  0  0  0  0  0  0  0  0  0  0
    1.1807   -0.0631    2.4352 H   0  0  0  0  0  0  0  0  0  0  0  0
   -0.9689    4.5332   -0.6278 H   0  0  0  0  0  0  0  0  0  0  0  0
    0.4729    4.1822    0.2958 H   0  0  0  0  0  0  0  0  0  0  0  0
    0.3213    3.5717   -1.3703 H   0  0  0  0  0  0  0  0  0  0  0  0
    3.4468   -3.5585   -1.7886 H   0  0  0  0  0  0  0  0  0  0  0  0
   -2.3440   -1.5683   -1.1637 H   0  0  0  0  0  0  0  0  0  0  0  0
   -1.6188   -3.5875    2.5644 H   0  0  0  0  0  0  0  0  0  0  0  0
   -6.0042    2.7295   -1.8268 H   0  0  0  0  0  0  0  0  0  0  0  0
   -1.5521   -3.5970   -2.3307 H   0  0  0  0  0  0  0  0  0  0  0  0
   -7.7165    1.2559   -1.5883 H   0  0  0  0  0  0  0  0  0  0  0  0
   -6.5089   -0.0398   -1.5209 H   0  0  0  0  0  0  0  0  0  0  0  0
   -7.0167    0.7916   -0.0274 H   0  0  0  0  0  0  0  0  0  0  0  0
   -0.8298   -5.5581   -0.9582 H   0  0  0  0  0  0  0  0  0  0  0  0
  1 22  1  0  0  0  0
  1 28  1  0  0  0  0
  2 15  1  0  0  0  0
  2 16  1  0  0  0  0
  3 15  1  0  0  0  0
  3 17  1  0  0  0  0
  4 12  1  0  0  0  0
  4 39  1  0  0  0  0
  5 13  1  0  0  0  0
  5 40  1  0  0  0  0
  6 14  1  0  0  0  0
  6 41  1  0  0  0  0
  7 18  1  0  0  0  0
  7 50  1  0  0  0  0
  8 18  2  0  0  0  0
  9 23  1  0  0  0  0
  9 28  2  0  0  0  0
 10 28  1  0  0  0  0
 10 32  1  0  0  0  0
 10 53  1  0  0  0  0
 11 30  1  0  0  0  0
 11 33  2  0  0  0  0
 12 13  1  0  0  0  0
 12 14  1  0  0  0  0
 12 34  1  0  0  0  0
 13 15  1  0  0  0  0
 13 35  1  0  0  0  0
 14 16  1  0  0  0  0
 14 36  1  0  0  0  0
 15 37  1  0  0  0  0
 16 18  1  0  0  0  0
 16 38  1  0  0  0  0
 17 19  1  0  0  0  0
 17 20  2  0  0  0  0
 19 21  2  0  0  0  0
 19 25  1  0  0  0  0
 20 22  1  0  0  0  0
 20 26  1  0  0  0  0
 21 23  1  0  0  0  0
 21 24  1  0  0  0  0
 22 23  2  0  0  0  0
 24 27  1  0  0  0  0
 24 42  1  0  0  0  0
 24 43  1  0  0  0  0
 25 44  1  0  0  0  0
 25 45  1  0  0  0  0
 25 46  1  0  0  0  0
 26 47  1  0  0  0  0
 26 48  1  0  0  0  0
 26 49  1  0  0  0  0
 27 29  1  0  0  0  0
 27 30  2  0  0  0  0
 29 31  2  0  0  0  0
 29 51  1  0  0  0  0
 30 52  1  0  0  0  0
 31 33  1  0  0  0  0
 31 54  1  0  0  0  0
 32 55  1  0  0  0  0
 32 56  1  0  0  0  0
 32 57  1  0  0  0  0
 33 58  1  0  0  0  0
M  END
> <PUBCHEM_COMPOUND_CID>
443294

> <PUBCHEM_CONFORMER_RMSD>
1

> <PUBCHEM_CONFORMER_DIVERSEORDER>
1
41
23
59
81
80
92
20
27
60
100
71
28
8
98
38
88
85
101
72
89
29
34
90
40
73
76
5
57
79
37
74
16
65
50
30
93
95
18
54
19
6
44
67
82
102
51
78
36
12
35
25
2
10
68
15
91
83
9
77
32
86
47
14
53
17
63
31
61
46
52
56
4
45
7
43
49
69
84
11
66
64
87
24
33
70
21
62
26
22
13
42
75
39
96
97
99
55
3
48
58
94

> <PUBCHEM_MMFF94_PARTIAL_CHARGES>
42
1 -0.08
10 -0.85
11 -0.62
12 0.28
13 0.28
14 0.28
15 0.56
16 0.34
17 0.08
18 0.66
19 -0.14
2 -0.56
20 -0.14
21 -0.14
22 0.04
23 0.23
24 0.29
25 0.14
26 0.14
27 -0.14
28 0.46
29 -0.15
3 -0.36
30 0.16
31 -0.15
32 0.37
33 0.16
39 0.4
4 -0.68
40 0.4
41 0.4
5 -0.68
50 0.5
51 0.15
52 0.15
53 0.4
54 0.15
58 0.15
6 -0.68
7 -0.65
8 -0.57
9 -0.57

> <PUBCHEM_EFFECTIVE_ROTOR_COUNT>
7.2

> <PUBCHEM_PHARMACOPHORE_FEATURES>
18
1 10 donor
1 11 acceptor
1 2 acceptor
1 3 acceptor
1 4 acceptor
1 4 donor
1 5 acceptor
1 5 donor
1 6 acceptor
1 6 donor
1 7 acceptor
1 8 acceptor
3 7 8 18 anion
3 9 10 28 cation
5 1 9 22 23 28 rings
6 11 27 29 30 31 33 rings
6 17 19 20 21 22 23 rings
6 2 12 13 14 15 16 rings

> <PUBCHEM_HEAVY_ATOM_COUNT>
33

> <PUBCHEM_ATOM_DEF_STEREO_COUNT>
5

> <PUBCHEM_ATOM_UDEF_STEREO_COUNT>
0

> <PUBCHEM_BOND_DEF_STEREO_COUNT>
0

> <PUBCHEM_BOND_UDEF_STEREO_COUNT>
0

> <PUBCHEM_ISOTOPIC_ATOM_COUNT>
0

> <PUBCHEM_COMPONENT_COUNT>
1

> <PUBCHEM_CACTVS_TAUTO_COUNT>
2

> <PUBCHEM_CONFORMER_ID>
0006C39E00000001

> <PUBCHEM_MMFF94_ENERGY>
97.8876

> <PUBCHEM_FEATURE_SELFOVERLAP>
91.543

> <PUBCHEM_SHAPE_FINGERPRINT>
10653451 467 18268977706266724683
10675989 125 17977668932767604000
107951 10 17775277296753110147
11135609 187 18335986471326290073
11370993 70 18340204205981789982
11488393 25 18124031497705610803
12156800 1 16304923477539688727
13257819 37 18272365399990508375
1361 2 18409452522468370373
14674994 50 17387135269516081567
14725015 67 18122914388805291418
15484559 13 18056216871715040615
15968369 26 17910420577483811643
17980427 23 17415848994391162260
19315092 285 14057854970020860934
19319366 153 17417823875850055241
19930381 70 17977664534857547935
20775438 99 18043278819048194815
21344244 181 18334295379429261447
22182313 1 18342725322104854161
23516275 137 17096067170128674055
23559900 14 18410007733149628752
238 59 18120937475668189967
3298306 158 18124878121178813463
3380486 145 18122046629455367761
340366 18 18130499747943385197
4015057 19 17748826306536674784
4403749 210 17899712163469731024
463206 1 18264483997030592752
508706 21 18338233752723233190
550186 72 17835237840192520636
6669772 16 18410582815905151947
9709674 26 18336820991924388288

> <PUBCHEM_SHAPE_MULTIPOLES>
626.95
10.64
5.73
1.51
1.82
5.46
-0.19
-6.65
4.93
-2.5
0.54
-0.18
0.66
2.53

> <PUBCHEM_SHAPE_SELFOVERLAP>
1351.949

> <PUBCHEM_SHAPE_VOLUME>
348.6

> <PUBCHEM_COORDINATE_TYPE>
2
5
10

$$$$

