17395294
  -OEChem-06241222493D

 41 43  0     1  0  0  0  0  0999 V2000
    2.7569    2.3610   -0.5192 O   0  0  0  0  0  0  0  0  0  0  0  0
    4.8851    1.9287    0.5257 O   0  0  0  0  0  0  0  0  0  0  0  0
   -0.6903   -1.8666    1.3370 O   0  0  0  0  0  0  0  0  0  0  0  0
   -3.5456    0.8264   -1.9138 O   0  0  0  0  0  0  0  0  0  0  0  0
    1.4650   -2.3240   -0.2786 N   0  0  0  0  0  0  0  0  0  0  0  0
   -1.7412   -0.7688   -0.4511 N   0  0  0  0  0  0  0  0  0  0  0  0
    0.1855   -2.1456   -0.8903 C   0  0  2  0  0  0  0  0  0  0  0  0
    2.3635   -1.2576   -0.0576 C   0  0  0  0  0  0  0  0  0  0  0  0
   -0.7853   -1.5869    0.1452 C   0  0  0  0  0  0  0  0  0  0  0  0
    2.9232    1.0463   -0.2097 C   0  0  0  0  0  0  0  0  0  0  0  0
   -0.3155   -3.4765   -1.4333 C   0  0  0  0  0  0  0  0  0  0  0  0
    2.0120    0.0374   -0.4460 C   0  0  0  0  0  0  0  0  0  0  0  0
    4.1384    0.7994    0.3869 C   0  0  0  0  0  0  0  0  0  0  0  0
    3.6051   -1.5098    0.5519 C   0  0  0  0  0  0  0  0  0  0  0  0
    4.5098   -0.4700    0.7800 C   0  0  0  0  0  0  0  0  0  0  0  0
   -2.8012   -0.0763    0.1813 C   0  0  0  0  0  0  0  0  0  0  0  0
    4.0035    2.9141   -0.0499 C   0  0  0  0  0  0  0  0  0  0  0  0
   -3.6826    0.7080   -0.5629 C   0  0  0  0  0  0  0  0  0  0  0  0
   -2.9596   -0.1838    1.5630 C   0  0  0  0  0  0  0  0  0  0  0  0
   -4.7225    1.3846    0.0748 C   0  0  0  0  0  0  0  0  0  0  0  0
   -3.9995    0.4930    2.2005 C   0  0  0  0  0  0  0  0  0  0  0  0
   -4.8808    1.2772    1.4565 C   0  0  0  0  0  0  0  0  0  0  0  0
   -2.7239    1.8897   -2.3905 C   0  0  0  0  0  0  0  0  0  0  0  0
    0.2558   -1.4776   -1.7569 H   0  0  0  0  0  0  0  0  0  0  0  0
    1.7235   -3.2328    0.0903 H   0  0  0  0  0  0  0  0  0  0  0  0
   -1.2894   -3.3593   -1.9208 H   0  0  0  0  0  0  0  0  0  0  0  0
    0.3859   -3.8919   -2.1651 H   0  0  0  0  0  0  0  0  0  0  0  0
   -0.4372   -4.2143   -0.6316 H   0  0  0  0  0  0  0  0  0  0  0  0
    1.0707    0.2945   -0.9149 H   0  0  0  0  0  0  0  0  0  0  0  0
    3.8743   -2.5198    0.8524 H   0  0  0  0  0  0  0  0  0  0  0  0
    5.4682   -0.6603    1.2493 H   0  0  0  0  0  0  0  0  0  0  0  0
   -1.6958   -0.6469   -1.4603 H   0  0  0  0  0  0  0  0  0  0  0  0
    3.7862    3.6759    0.7077 H   0  0  0  0  0  0  0  0  0  0  0  0
    4.5147    3.3924   -0.8933 H   0  0  0  0  0  0  0  0  0  0  0  0
   -2.3222   -0.7672    2.2113 H   0  0  0  0  0  0  0  0  0  0  0  0
   -5.4137    1.9968   -0.4982 H   0  0  0  0  0  0  0  0  0  0  0  0
   -4.1238    0.4106    3.2764 H   0  0  0  0  0  0  0  0  0  0  0  0
   -5.6904    1.8041    1.9530 H   0  0  0  0  0  0  0  0  0  0  0  0
   -2.6815    1.8270   -3.4813 H   0  0  0  0  0  0  0  0  0  0  0  0
   -1.7065    1.8038   -1.9959 H   0  0  0  0  0  0  0  0  0  0  0  0
   -3.1529    2.8575   -2.1124 H   0  0  0  0  0  0  0  0  0  0  0  0
  1 10  1  0  0  0  0
  1 17  1  0  0  0  0
  2 13  1  0  0  0  0
  2 17  1  0  0  0  0
  3  9  2  0  0  0  0
  4 18  1  0  0  0  0
  4 23  1  0  0  0  0
  5  7  1  0  0  0  0
  5  8  1  0  0  0  0
  5 25  1  0  0  0  0
  6  9  1  0  0  0  0
  6 16  1  0  0  0  0
  6 32  1  0  0  0  0
  7  9  1  0  0  0  0
  7 11  1  0  0  0  0
  7 24  1  0  0  0  0
  8 12  2  0  0  0  0
  8 14  1  0  0  0  0
 10 12  1  0  0  0  0
 10 13  2  0  0  0  0
 11 26  1  0  0  0  0
 11 27  1  0  0  0  0
 11 28  1  0  0  0  0
 12 29  1  0  0  0  0
 13 15  1  0  0  0  0
 14 15  2  0  0  0  0
 14 30  1  0  0  0  0
 15 31  1  0  0  0  0
 16 18  1  0  0  0  0
 16 19  2  0  0  0  0
 17 33  1  0  0  0  0
 17 34  1  0  0  0  0
 18 20  2  0  0  0  0
 19 21  1  0  0  0  0
 19 35  1  0  0  0  0
 20 22  1  0  0  0  0
 20 36  1  0  0  0  0
 21 22  2  0  0  0  0
 21 37  1  0  0  0  0
 22 38  1  0  0  0  0
 23 39  1  0  0  0  0
 23 40  1  0  0  0  0
 23 41  1  0  0  0  0
M  END
> <PUBCHEM_COMPOUND_CID>
17395294

> <PUBCHEM_CONFORMER_RMSD>
0.8

> <PUBCHEM_CONFORMER_DIVERSEORDER>
1
91
163
167
267
15
231
229
129
93
114
75
122
29
21
194
253
149
117
95
32
226
7
261
90
112
109
176
199
192
214
87
25
142
16
61
188
14
92
52
222
161
3
249
60
44
99
22
119
225
246
9
219
72
11
166
124
204
37
252
100
108
103
202
173
164
210
101
50
190
38
57
48
205
106
154
254
136
183
203
96
71
120
157
113
28
158
20
179
265
258
201
12
104
140
40
168
86
170
150
255
79
98
180
243
239
184
74
121
162
228
8
115
177
53
207
144
264
19
35
216
102
171
191
97
46
84
130
221
47
153
33
256
83
240
132
23
118
175
260
135
13
116
80
169
31
238
54
160
156
67
94
193
187
206
200
45
63
230
64
208
133
174
146
125
159
107
212
233
56
34
82
88
55
266
248
81
195
126
185
51
259
131
41
69
85
27
172
134
58
237
78
152
186
236
105
223
36
217
151
62
89
26
247
111
198
262
73
68
224
5
4
182
165
66
147
215
59
235
209
181
139
49
251
6
244
127
77
138
10
145
137
196
141
30
128
76
213
263
70
241
65
218
245
220
232
39
234
123
143
242
18
110
227
178
250
155
2
211
189
43
197
257
24
148
42
17

> <PUBCHEM_MMFF94_PARTIAL_CHARGES>
31
1 -0.36
10 0.08
12 -0.15
13 0.08
14 -0.15
15 -0.15
16 0.12
17 0.56
18 0.08
19 -0.15
2 -0.36
20 -0.15
21 -0.15
22 -0.15
23 0.28
25 0.4
29 0.15
3 -0.57
30 0.15
31 0.15
32 0.37
35 0.15
36 0.15
37 0.15
38 0.15
4 -0.36
5 -0.87
6 -0.55
7 0.43
8 0.1
9 0.57

> <PUBCHEM_EFFECTIVE_ROTOR_COUNT>
6.6

> <PUBCHEM_PHARMACOPHORE_FEATURES>
10
1 1 acceptor
1 2 acceptor
1 3 acceptor
1 4 acceptor
1 5 cation
1 5 donor
1 6 donor
5 1 2 10 13 17 rings
6 16 18 19 20 21 22 rings
6 8 10 12 13 14 15 rings

> <PUBCHEM_HEAVY_ATOM_COUNT>
23

> <PUBCHEM_ATOM_DEF_STEREO_COUNT>
0

> <PUBCHEM_ATOM_UDEF_STEREO_COUNT>
1

> <PUBCHEM_BOND_DEF_STEREO_COUNT>
0

> <PUBCHEM_BOND_UDEF_STEREO_COUNT>
0

> <PUBCHEM_ISOTOPIC_ATOM_COUNT>
0

> <PUBCHEM_COMPONENT_COUNT>
1

> <PUBCHEM_CACTVS_TAUTO_COUNT>
2

> <PUBCHEM_CONFORMER_ID>
01096E5E00000001

> <PUBCHEM_MMFF94_ENERGY>
84.9282

> <PUBCHEM_FEATURE_SELFOVERLAP>
50.899

> <PUBCHEM_SHAPE_FINGERPRINT>
10928967 22 11455893563610340032
11049842 53 14276810676579267519
11640471 11 17749389290717978151
12128747 34 16771281446340602922
12633257 1 18202010914977621250
12788726 201 17826247193578000735
12892183 10 16988847193701348506
13103583 49 13326576301820470301
13134695 92 17979354492830781430
13402501 40 18059584649571212925
13583140 156 17846224400699442971
14251764 75 18264194821278410088
14576447 43 9655581812224468970
15188451 53 15410607035461448185
15342168 16 18259977202327141267
17810953 82 18336256933521323264
17974551 9 16340905128881128595
1813 80 16740005941263292999
20291156 8 10663825165263281762
20715895 44 18191869131228979129
21033648 144 18412549799025364598
21033648 29 17632019735935771229
21033650 10 15864334862053865314
21475661 188 18059303174346133853
21591340 35 15830333835023102389
21864079 5 18187637072192193953
22849339 104 14490769957282300797
2838139 119 16227191184696627992
312425 83 15357966837976537264
474 4 18260827150369334419
4921388 177 14129060296808186015
5081480 168 17462268450758189662
5104073 3 18341901732330107250
5252454 2 18267016159683324716
6328613 192 18335134247289144032
633830 44 17894904174307328999
636775 72 17327458018254068888
960060 61 8286193920948861091

> <PUBCHEM_SHAPE_MULTIPOLES>
439.89
10.93
3.19
1.72
0.27
0.95
-0.27
-7.99
3.11
-2.54
-1.15
2.63
-0.32
0.12

> <PUBCHEM_SHAPE_SELFOVERLAP>
949.895

> <PUBCHEM_SHAPE_VOLUME>
241.6

> <PUBCHEM_COORDINATE_TYPE>
2
5
10

$$$$

