5281362
  -OEChem-07051212562D

 94105  0     1  0  0  0  0  0999 V2000
    7.4184   -0.4000    0.0000 O   0  0  0  0  0  0  0  0  0  0  0  0
    5.2783   -0.5424    0.0000 O   0  0  0  0  0  0  0  0  0  0  0  0
    7.6522   -0.9131    0.0000 N   0  0  3  0  0  0  0  0  0  0  0  0
    6.1920    1.0872    0.0000 N   0  0  3  0  0  0  0  0  0  0  0  0
   10.6402    0.6544    0.0000 N   0  3  1  0  0  0  0  0  0  0  0  0
    2.8294    0.1340    0.0000 N   0  3  1  0  0  0  0  0  0  0  0  0
    7.0363    0.5738    0.0000 C   0  0  1  0  0  0  0  0  0  0  0  0
    6.8051   -0.3930    0.0000 C   0  0  1  0  0  0  0  0  0  0  0  0
    8.4098   -0.2695    0.0000 C   0  0  2  0  0  0  0  0  0  0  0  0
    5.4416    0.4442    0.0000 C   0  0  2  0  0  0  0  0  0  0  0  0
    8.0271    0.6544    0.0000 C   0  0  2  0  0  0  0  0  0  0  0  0
    5.8198   -0.4688    0.0000 C   0  0  2  0  0  0  0  0  0  0  0  0
    9.3337   -0.6522    0.0000 C   0  0  2  0  0  0  0  0  0  0  0  0
    4.4233    0.5942    0.0000 C   0  0  2  0  0  0  0  0  0  0  0  0
   10.2576   -0.2695    0.0000 C   0  0  2  0  0  0  0  0  0  0  0  0
    3.7904   -0.2175    0.0000 C   0  0  2  0  0  0  0  0  0  0  0  0
    8.4098    1.5783    0.0000 C   0  0  1  0  0  0  0  0  0  0  0  0
    5.2058   -1.2950    0.0000 C   0  0  1  0  0  0  0  0  0  0  0  0
    7.4094    1.5298    0.0000 C   0  0  0  0  0  0  0  0  0  0  0  0
    4.1843   -1.1685    0.0000 C   0  0  0  0  0  0  0  0  0  0  0  0
   10.2749   -0.9952    0.0000 C   0  0  0  0  0  0  0  0  0  0  0  0
    3.8481    1.4405    0.0000 C   0  0  0  0  0  0  0  0  0  0  0  0
    9.1326   -1.6346    0.0000 C   0  0  0  0  0  0  0  0  0  0  0  0
    4.5859    1.5763    0.0000 C   0  0  0  0  0  0  0  0  0  0  0  0
   10.9833   -0.2868    0.0000 C   0  0  0  0  0  0  0  0  0  0  0  0
    2.8650    1.1566    0.0000 C   0  0  0  0  0  0  0  0  0  0  0  0
    8.1416   -1.7884    0.0000 C   0  0  0  0  0  0  0  0  0  0  0  0
    5.5448    1.8436    0.0000 C   0  0  0  0  0  0  0  0  0  0  0  0
   10.2576    1.5783    0.0000 C   0  0  0  0  0  0  0  0  0  0  0  0
    3.8252    0.0677    0.0000 C   0  0  0  0  0  0  0  0  0  0  0  0
    9.3337    1.9610    0.0000 C   0  0  0  0  0  0  0  0  0  0  0  0
    4.6804   -0.4466    0.0000 C   0  0  0  0  0  0  0  0  0  0  0  0
   11.0229    1.5783    0.0000 C   0  0  0  0  0  0  0  0  0  0  0  0
    2.0000   -0.4246    0.0000 C   0  0  0  0  0  0  0  0  0  0  0  0
    9.7999   -2.4382    0.0000 C   0  0  0  0  0  0  0  0  0  0  0  0
    3.8342    2.2906    0.0000 C   0  0  0  0  0  0  0  0  0  0  0  0
    7.7493   -2.7564    0.0000 C   0  0  0  0  0  0  0  0  0  0  0  0
    5.8185    2.8438    0.0000 C   0  0  0  0  0  0  0  0  0  0  0  0
    9.3337    2.9610    0.0000 C   0  0  0  0  0  0  0  0  0  0  0  0
    5.3829    0.2651    0.0000 C   0  0  0  0  0  0  0  0  0  0  0  0
    9.4300   -3.4151    0.0000 C   0  0  0  0  0  0  0  0  0  0  0  0
    4.0848    3.2968    0.0000 C   0  0  0  0  0  0  0  0  0  0  0  0
    8.3978   -3.5752    0.0000 C   0  0  0  0  0  0  0  0  0  0  0  0
    5.0836    3.5752    0.0000 C   0  0  0  0  0  0  0  0  0  0  0  0
    8.4677    3.4610    0.0000 C   0  0  0  0  0  0  0  0  0  0  0  0
    6.3505    0.0127    0.0000 C   0  0  0  0  0  0  0  0  0  0  0  0
    7.5895   -0.0716    0.0000 H   0  0  0  0  0  0  0  0  0  0  0  0
    7.5904   -0.0677    0.0000 H   0  0  0  0  0  0  0  0  0  0  0  0
    7.8432    1.4842    0.0000 H   0  0  0  0  0  0  0  0  0  0  0  0
    6.1451   -1.2541    0.0000 H   0  0  0  0  0  0  0  0  0  0  0  0
   10.8843   -0.8437    0.0000 H   0  0  0  0  0  0  0  0  0  0  0  0
    3.2678   -0.8879    0.0000 H   0  0  0  0  0  0  0  0  0  0  0  0
    7.8088    2.1793    0.0000 H   0  0  0  0  0  0  0  0  0  0  0  0
    5.1699   -2.1442    0.0000 H   0  0  0  0  0  0  0  0  0  0  0  0
    7.1863    2.1083    0.0000 H   0  0  0  0  0  0  0  0  0  0  0  0
    6.9303    1.1362    0.0000 H   0  0  0  0  0  0  0  0  0  0  0  0
    3.5794   -1.3043    0.0000 H   0  0  0  0  0  0  0  0  0  0  0  0
    4.2146   -1.7878    0.0000 H   0  0  0  0  0  0  0  0  0  0  0  0
    9.9805   -1.5408    0.0000 H   0  0  0  0  0  0  0  0  0  0  0  0
   10.7722   -1.3655    0.0000 H   0  0  0  0  0  0  0  0  0  0  0  0
    4.3946    1.7332    0.0000 H   0  0  0  0  0  0  0  0  0  0  0  0
    3.6144    2.0148    0.0000 H   0  0  0  0  0  0  0  0  0  0  0  0
   11.3536   -0.7841    0.0000 H   0  0  0  0  0  0  0  0  0  0  0  0
   11.5289    0.0076    0.0000 H   0  0  0  0  0  0  0  0  0  0  0  0
    2.7565    1.7670    0.0000 H   0  0  0  0  0  0  0  0  0  0  0  0
    2.2465    1.1129    0.0000 H   0  0  0  0  0  0  0  0  0  0  0  0
   10.8723    1.6592    0.0000 H   0  0  0  0  0  0  0  0  0  0  0  0
   10.3385    2.1930    0.0000 H   0  0  0  0  0  0  0  0  0  0  0  0
    4.3134    0.4498    0.0000 H   0  0  0  0  0  0  0  0  0  0  0  0
    3.6396   -0.5239    0.0000 H   0  0  0  0  0  0  0  0  0  0  0  0
    7.0853   -0.9229    0.0000 H   0  0  0  0  0  0  0  0  0  0  0  0
    4.8074   -0.9458    0.0000 H   0  0  0  0  0  0  0  0  0  0  0  0
   11.5957    1.3410    0.0000 H   0  0  0  0  0  0  0  0  0  0  0  0
   11.2602    2.1511    0.0000 H   0  0  0  0  0  0  0  0  0  0  0  0
   10.4501    1.8155    0.0000 H   0  0  0  0  0  0  0  0  0  0  0  0
    1.6537    0.0896    0.0000 H   0  0  0  0  0  0  0  0  0  0  0  0
    1.4857   -0.7710    0.0000 H   0  0  0  0  0  0  0  0  0  0  0  0
    2.3463   -0.9389    0.0000 H   0  0  0  0  0  0  0  0  0  0  0  0
   10.4114   -2.3360    0.0000 H   0  0  0  0  0  0  0  0  0  0  0  0
    3.2390    2.1173    0.0000 H   0  0  0  0  0  0  0  0  0  0  0  0
    7.1356   -2.8444    0.0000 H   0  0  0  0  0  0  0  0  0  0  0  0
    6.4176    3.0033    0.0000 H   0  0  0  0  0  0  0  0  0  0  0  0
    9.8706    3.2710    0.0000 H   0  0  0  0  0  0  0  0  0  0  0  0
    5.1172    0.8253    0.0000 H   0  0  0  0  0  0  0  0  0  0  0  0
    9.8206   -3.8966    0.0000 H   0  0  0  0  0  0  0  0  0  0  0  0
    3.6403    3.7291    0.0000 H   0  0  0  0  0  0  0  0  0  0  0  0
    8.1716   -4.1525    0.0000 H   0  0  0  0  0  0  0  0  0  0  0  0
    5.2404    4.1751    0.0000 H   0  0  0  0  0  0  0  0  0  0  0  0
    8.7777    3.9979    0.0000 H   0  0  0  0  0  0  0  0  0  0  0  0
    7.9307    3.7710    0.0000 H   0  0  0  0  0  0  0  0  0  0  0  0
    8.1577    2.9240    0.0000 H   0  0  0  0  0  0  0  0  0  0  0  0
    6.1939   -0.5872    0.0000 H   0  0  0  0  0  0  0  0  0  0  0  0
    6.9504   -0.1439    0.0000 H   0  0  0  0  0  0  0  0  0  0  0  0
    6.5070    0.6126    0.0000 H   0  0  0  0  0  0  0  0  0  0  0  0
  9  1  1  6  0  0  0
  1 71  1  0  0  0  0
 10  2  1  6  0  0  0
  2 72  1  0  0  0  0
  3  8  1  0  0  0  0
  3  9  1  0  0  0  0
  3 27  1  0  0  0  0
  4  7  1  0  0  0  0
  4 10  1  0  0  0  0
  4 28  1  0  0  0  0
  5 15  1  0  0  0  0
  5 25  1  0  0  0  0
  5 29  1  0  0  0  0
  5 33  1  1  0  0  0
  6 16  1  0  0  0  0
  6 26  1  0  0  0  0
  6 30  1  0  0  0  0
  6 34  1  6  0  0  0
  7  8  1  0  0  0  0
  7 11  1  0  0  0  0
  7 47  1  1  0  0  0
  8 12  1  0  0  0  0
  8 48  1  1  0  0  0
  9 11  1  0  0  0  0
  9 13  1  0  0  0  0
 10 12  1  0  0  0  0
 10 14  1  0  0  0  0
 11 17  1  0  0  0  0
 11 49  1  6  0  0  0
 12 18  1  0  0  0  0
 12 50  1  6  0  0  0
 13 15  1  0  0  0  0
 13 21  1  6  0  0  0
 13 23  1  0  0  0  0
 14 16  1  0  0  0  0
 14 22  1  6  0  0  0
 14 24  1  0  0  0  0
 15 19  1  0  0  0  0
 15 51  1  1  0  0  0
 16 20  1  0  0  0  0
 16 52  1  1  0  0  0
 17 19  1  0  0  0  0
 17 31  1  0  0  0  0
 17 53  1  6  0  0  0
 18 20  1  0  0  0  0
 18 32  1  0  0  0  0
 18 54  1  6  0  0  0
 19 55  1  0  0  0  0
 19 56  1  0  0  0  0
 20 57  1  0  0  0  0
 20 58  1  0  0  0  0
 21 25  1  0  0  0  0
 21 59  1  0  0  0  0
 21 60  1  0  0  0  0
 22 26  1  0  0  0  0
 22 61  1  0  0  0  0
 22 62  1  0  0  0  0
 23 27  1  0  0  0  0
 23 35  2  0  0  0  0
 24 28  1  0  0  0  0
 24 36  2  0  0  0  0
 25 63  1  0  0  0  0
 25 64  1  0  0  0  0
 26 65  1  0  0  0  0
 26 66  1  0  0  0  0
 27 37  2  0  0  0  0
 28 38  2  0  0  0  0
 29 31  1  0  0  0  0
 29 67  1  0  0  0  0
 29 68  1  0  0  0  0
 30 32  1  0  0  0  0
 30 69  1  0  0  0  0
 30 70  1  0  0  0  0
 31 39  2  0  0  0  0
 32 40  2  0  0  0  0
 33 73  1  0  0  0  0
 33 74  1  0  0  0  0
 33 75  1  0  0  0  0
 34 76  1  0  0  0  0
 34 77  1  0  0  0  0
 34 78  1  0  0  0  0
 35 41  1  0  0  0  0
 35 79  1  0  0  0  0
 36 42  1  0  0  0  0
 36 80  1  0  0  0  0
 37 43  1  0  0  0  0
 37 81  1  0  0  0  0
 38 44  1  0  0  0  0
 38 82  1  0  0  0  0
 39 45  1  0  0  0  0
 39 83  1  0  0  0  0
 40 46  1  0  0  0  0
 40 84  1  0  0  0  0
 41 43  2  0  0  0  0
 41 85  1  0  0  0  0
 42 44  2  0  0  0  0
 42 86  1  0  0  0  0
 43 87  1  0  0  0  0
 44 88  1  0  0  0  0
 45 89  1  0  0  0  0
 45 90  1  0  0  0  0
 45 91  1  0  0  0  0
 46 92  1  0  0  0  0
 46 93  1  0  0  0  0
 46 94  1  0  0  0  0
M  CHG  2   5   1   6   1
M  END
> <PUBCHEM_COMPOUND_CID>
5281362

> <PUBCHEM_COMPOUND_CANONICALIZED>
1

> <PUBCHEM_CACTVS_COMPLEXITY>
1400

> <PUBCHEM_CACTVS_HBOND_ACCEPTOR>
4

> <PUBCHEM_CACTVS_HBOND_DONOR>
2

> <PUBCHEM_CACTVS_ROTATABLE_BOND>
0

> <PUBCHEM_CACTVS_SUBSKEYS>
AAADcfB/sAAAAAAAAAAAAAAAAAAAAWLFixY8eMGCAAAWLFgBQAAAHgAACAAADyzBmAQywIMAAgCAAiRCQACCAAAhAgAIiAAIZIgIYCLA0ZGUYAhmwAHIyAew0PMPgAAAAAACAACQAAaECDQAAAAAAAAAAA==

> <PUBCHEM_IUPAC_INCHI>
InChI=1S/C40H48N4O2/c1-5-23-21-43(3)17-15-37-27-11-7-10-14-30(27)42-36-34-26-20-32-38(16-18-44(32,4)22-24(26)6-2)28-12-8-9-13-29(28)41(40(34,38)46)35(36)33(39(37,42)45)25(23)19-31(37)43/h5-14,25-26,31-36,45-46H,15-22H2,1-4H3/q+2/b23-5-,24-6-/t25-,26-,31-,32-,33+,34+,35+,36+,37+,38+,39+,40+,43-,44-/m0/s1

> <PUBCHEM_IUPAC_INCHIKEY>
HVWCEUHZKLPKRE-VBHUBWESSA-N

> <PUBCHEM_XLOGP3_AA>
3.7

> <PUBCHEM_EXACT_MASS>
616.377727

> <PUBCHEM_MOLECULAR_FORMULA>
C40H48N4O2+2

> <PUBCHEM_MOLECULAR_WEIGHT>
616.83472

> <PUBCHEM_OPENEYE_CAN_SMILES>
CC=C1C[N+]2(CCC34C2CC1C5C3(N(C6C5N7C8=CC=CC=C8C91C7(C6C2CC9[N+](CC1)(CC2=CC)C)O)C1=CC=CC=C41)O)C

> <PUBCHEM_OPENEYE_ISO_SMILES>
C/C=C/1\[C@H]2[C@H]3[C@@]4(N(C5=CC=CC=C5[C@]46[C@H](C2)[N@+](C1)(CC6)C)[C@H]7[C@@H]3N8[C@]9([C@@H]7[C@@H]1/C(=C\C)/C[N@+]2([C@H]([C@]9(C3=CC=CC=C83)CC2)C1)C)O)O

> <PUBCHEM_CACTVS_TPSA>
46.9

> <PUBCHEM_MONOISOTOPIC_WEIGHT>
616.377727

> <PUBCHEM_TOTAL_CHARGE>
2

> <PUBCHEM_HEAVY_ATOM_COUNT>
46

> <PUBCHEM_ATOM_DEF_STEREO_COUNT>
14

> <PUBCHEM_ATOM_UDEF_STEREO_COUNT>
0

> <PUBCHEM_BOND_DEF_STEREO_COUNT>
2

> <PUBCHEM_BOND_UDEF_STEREO_COUNT>
0

> <PUBCHEM_ISOTOPIC_ATOM_COUNT>
0

> <PUBCHEM_COMPONENT_COUNT>
1

> <PUBCHEM_CACTVS_TAUTO_COUNT>
1

> <PUBCHEM_COORDINATE_TYPE>
1
5
255

> <PUBCHEM_BONDANNOTATIONS>
9  1  6
11  49  6
12  50  6
13  21  6
14  22  6
15  51  5
16  52  5
17  53  6
18  54  6
10  2  6
23  27  8
23  35  8
24  28  8
24  36  8
27  37  8
28  38  8
35  41  8
36  42  8
37  43  8
38  44  8
41  43  8
42  44  8
5  33  5
6  34  6
7  47  5
8  48  5

$$$$

