8880
  -OEChem-06261203122D

 16 15  0     0  0  0  0  0  0999 V2000
    2.5369    0.0600    0.0000 O   0  0  0  0  0  0  0  0  0  0  0  0
    6.0010    1.0600    0.0000 O   0  0  0  0  0  0  0  0  0  0  0  0
    5.1350   -0.4400    0.0000 N   0  0  0  0  0  0  0  0  0  0  0  0
    4.2690    0.0600    0.0000 C   0  0  0  0  0  0  0  0  0  0  0  0
    3.4030   -0.4400    0.0000 C   0  0  0  0  0  0  0  0  0  0  0  0
    6.0010    0.0600    0.0000 C   0  0  0  0  0  0  0  0  0  0  0  0
    6.8671   -0.4400    0.0000 C   0  0  0  0  0  0  0  0  0  0  0  0
    4.6675    0.5349    0.0000 H   0  0  0  0  0  0  0  0  0  0  0  0
    3.8705    0.5349    0.0000 H   0  0  0  0  0  0  0  0  0  0  0  0
    3.0044   -0.9149    0.0000 H   0  0  0  0  0  0  0  0  0  0  0  0
    3.8015   -0.9149    0.0000 H   0  0  0  0  0  0  0  0  0  0  0  0
    5.1350   -1.0600    0.0000 H   0  0  0  0  0  0  0  0  0  0  0  0
    6.5571   -0.9769    0.0000 H   0  0  0  0  0  0  0  0  0  0  0  0
    7.4040   -0.7500    0.0000 H   0  0  0  0  0  0  0  0  0  0  0  0
    7.1771    0.0969    0.0000 H   0  0  0  0  0  0  0  0  0  0  0  0
    2.0000   -0.2500    0.0000 H   0  0  0  0  0  0  0  0  0  0  0  0
  1  5  1  0  0  0  0
  1 16  1  0  0  0  0
  2  6  2  0  0  0  0
  3  4  1  0  0  0  0
  3  6  1  0  0  0  0
  3 12  1  0  0  0  0
  4  5  1  0  0  0  0
  4  8  1  0  0  0  0
  4  9  1  0  0  0  0
  5 10  1  0  0  0  0
  5 11  1  0  0  0  0
  6  7  1  0  0  0  0
  7 13  1  0  0  0  0
  7 14  1  0  0  0  0
  7 15  1  0  0  0  0
M  END
> <PUBCHEM_COMPOUND_CID>
8880

> <PUBCHEM_COMPOUND_CANONICALIZED>
1

> <PUBCHEM_CACTVS_COMPLEXITY>
62.7

> <PUBCHEM_CACTVS_HBOND_ACCEPTOR>
2

> <PUBCHEM_CACTVS_HBOND_DONOR>
2

> <PUBCHEM_CACTVS_ROTATABLE_BOND>
2

> <PUBCHEM_CACTVS_SUBSKEYS>
AAADccBiMAAAAAAAAAAAAAAAAAAAAAAAAAAAAAAAAAAAAAAAAAAAHgAQCAAAAADhgAYCAALAAgAIAAEQEAAAAAAAAAAAAIAIAAACEAAAAAAAAAAAFgCQAAAAAAAAAAAAAAAAAAAAAAAAAAAAAAAAAAAAAA==

> <PUBCHEM_IUPAC_OPENEYE_NAME>
N-(2-hydroxyethyl)acetamide

> <PUBCHEM_IUPAC_CAS_NAME>
N-(2-hydroxyethyl)acetamide

> <PUBCHEM_IUPAC_NAME>
N-(2-hydroxyethyl)acetamide

> <PUBCHEM_IUPAC_SYSTEMATIC_NAME>
N-(2-hydroxyethyl)ethanamide

> <PUBCHEM_IUPAC_TRADITIONAL_NAME>
N-(2-hydroxyethyl)acetamide

> <PUBCHEM_IUPAC_INCHI>
InChI=1S/C4H9NO2/c1-4(7)5-2-3-6/h6H,2-3H2,1H3,(H,5,7)

> <PUBCHEM_IUPAC_INCHIKEY>
PVCJKHHOXFKFRP-UHFFFAOYSA-N

> <PUBCHEM_XLOGP3_AA>
-1.1

> <PUBCHEM_EXACT_MASS>
103.063329

> <PUBCHEM_MOLECULAR_FORMULA>
C4H9NO2

> <PUBCHEM_MOLECULAR_WEIGHT>
103.11976

> <PUBCHEM_OPENEYE_CAN_SMILES>
CC(=O)NCCO

> <PUBCHEM_OPENEYE_ISO_SMILES>
CC(=O)NCCO

> <PUBCHEM_CACTVS_TPSA>
49.3

> <PUBCHEM_MONOISOTOPIC_WEIGHT>
103.063329

> <PUBCHEM_TOTAL_CHARGE>
0

> <PUBCHEM_HEAVY_ATOM_COUNT>
7

> <PUBCHEM_ATOM_DEF_STEREO_COUNT>
0

> <PUBCHEM_ATOM_UDEF_STEREO_COUNT>
0

> <PUBCHEM_BOND_DEF_STEREO_COUNT>
0

> <PUBCHEM_BOND_UDEF_STEREO_COUNT>
0

> <PUBCHEM_ISOTOPIC_ATOM_COUNT>
0

> <PUBCHEM_COMPONENT_COUNT>
1

> <PUBCHEM_CACTVS_TAUTO_COUNT>
2

> <PUBCHEM_COORDINATE_TYPE>
1
5
255

$$$$

