14420
  -OEChem-06241222433D

 47 48  0     0  0  0  0  0  0999 V2000
   -2.9925    0.5724   -0.4185 O   0  0  0  0  0  0  0  0  0  0  0  0
    3.3186    0.0131   -0.9610 O   0  0  0  0  0  0  0  0  0  0  0  0
   -2.0383    1.7112   -2.1940 O   0  0  0  0  0  0  0  0  0  0  0  0
    2.8616   -1.4860    0.7429 O   0  0  0  0  0  0  0  0  0  0  0  0
    0.5659    2.3521    1.3901 N   0  0  0  0  0  0  0  0  0  0  0  0
    0.2030    0.1599   -0.3647 C   0  0  0  0  0  0  0  0  0  0  0  0
   -0.8237    1.2879   -0.2031 C   0  0  0  0  0  0  0  0  0  0  0  0
    1.5101    0.4284    0.3876 C   0  0  0  0  0  0  0  0  0  0  0  0
   -0.3917   -1.1424    0.0898 C   0  0  0  0  0  0  0  0  0  0  0  0
   -0.6128    2.3067    0.6613 C   0  0  0  0  0  0  0  0  0  0  0  0
    1.6264    1.4738    1.2370 C   0  0  0  0  0  0  0  0  0  0  0  0
   -2.0074    1.2305   -1.0761 C   0  0  0  0  0  0  0  0  0  0  0  0
    2.6341   -0.4775    0.1003 C   0  0  0  0  0  0  0  0  0  0  0  0
   -1.5671    3.4392    0.9283 C   0  0  0  0  0  0  0  0  0  0  0  0
    2.8423    1.7962    2.0627 C   0  0  0  0  0  0  0  0  0  0  0  0
   -0.2606   -1.5310    1.4176 C   0  0  0  0  0  0  0  0  0  0  0  0
   -1.0669   -1.9448   -0.8220 C   0  0  0  0  0  0  0  0  0  0  0  0
   -0.8130   -2.7401    1.8400 C   0  0  0  0  0  0  0  0  0  0  0  0
   -1.6194   -3.1540   -0.3995 C   0  0  0  0  0  0  0  0  0  0  0  0
   -1.4924   -3.5516    0.9315 C   0  0  0  0  0  0  0  0  0  0  0  0
   -4.2186    0.4334   -1.1439 C   0  0  0  0  0  0  0  0  0  0  0  0
    4.4500   -0.7646   -1.3656 C   0  0  0  0  0  0  0  0  0  0  0  0
   -5.2160   -0.3170   -0.2871 C   0  0  0  0  0  0  0  0  0  0  0  0
    5.1085   -0.0960   -2.5535 C   0  0  0  0  0  0  0  0  0  0  0  0
    0.4617    0.0972   -1.4319 H   0  0  0  0  0  0  0  0  0  0  0  0
    0.6879    3.1255    2.0343 H   0  0  0  0  0  0  0  0  0  0  0  0
   -1.0964    4.3964    0.6801 H   0  0  0  0  0  0  0  0  0  0  0  0
   -1.8468    3.4561    1.9872 H   0  0  0  0  0  0  0  0  0  0  0  0
   -2.4901    3.3648    0.3463 H   0  0  0  0  0  0  0  0  0  0  0  0
    3.2311    2.7841    1.7933 H   0  0  0  0  0  0  0  0  0  0  0  0
    3.6529    1.0744    1.9282 H   0  0  0  0  0  0  0  0  0  0  0  0
    2.5844    1.8052    3.1272 H   0  0  0  0  0  0  0  0  0  0  0  0
    0.2335   -0.9182    2.1649 H   0  0  0  0  0  0  0  0  0  0  0  0
   -1.1712   -1.6484   -1.8621 H   0  0  0  0  0  0  0  0  0  0  0  0
   -0.7203   -3.0470    2.8778 H   0  0  0  0  0  0  0  0  0  0  0  0
   -2.1489   -3.7855   -1.1067 H   0  0  0  0  0  0  0  0  0  0  0  0
   -1.9241   -4.4922    1.2607 H   0  0  0  0  0  0  0  0  0  0  0  0
   -4.6130    1.4260   -1.3883 H   0  0  0  0  0  0  0  0  0  0  0  0
   -4.0338   -0.1229   -2.0698 H   0  0  0  0  0  0  0  0  0  0  0  0
    5.1628   -0.8312   -0.5360 H   0  0  0  0  0  0  0  0  0  0  0  0
    4.1202   -1.7720   -1.6434 H   0  0  0  0  0  0  0  0  0  0  0  0
   -6.1669   -0.4423   -0.8123 H   0  0  0  0  0  0  0  0  0  0  0  0
   -4.8267   -1.3048   -0.0192 H   0  0  0  0  0  0  0  0  0  0  0  0
   -5.3972    0.2181    0.6509 H   0  0  0  0  0  0  0  0  0  0  0  0
    5.9795   -0.6655   -2.8898 H   0  0  0  0  0  0  0  0  0  0  0  0
    4.4020   -0.0058   -3.3853 H   0  0  0  0  0  0  0  0  0  0  0  0
    5.4276    0.9194   -2.2961 H   0  0  0  0  0  0  0  0  0  0  0  0
  1 12  1  0  0  0  0
  1 21  1  0  0  0  0
  2 13  1  0  0  0  0
  2 22  1  0  0  0  0
  3 12  2  0  0  0  0
  4 13  2  0  0  0  0
  5 10  1  0  0  0  0
  5 11  1  0  0  0  0
  5 26  1  0  0  0  0
  6  7  1  0  0  0  0
  6  8  1  0  0  0  0
  6  9  1  0  0  0  0
  6 25  1  0  0  0  0
  7 10  2  0  0  0  0
  7 12  1  0  0  0  0
  8 11  2  0  0  0  0
  8 13  1  0  0  0  0
  9 16  2  0  0  0  0
  9 17  1  0  0  0  0
 10 14  1  0  0  0  0
 11 15  1  0  0  0  0
 14 27  1  0  0  0  0
 14 28  1  0  0  0  0
 14 29  1  0  0  0  0
 15 30  1  0  0  0  0
 15 31  1  0  0  0  0
 15 32  1  0  0  0  0
 16 18  1  0  0  0  0
 16 33  1  0  0  0  0
 17 19  2  0  0  0  0
 17 34  1  0  0  0  0
 18 20  2  0  0  0  0
 18 35  1  0  0  0  0
 19 20  1  0  0  0  0
 19 36  1  0  0  0  0
 20 37  1  0  0  0  0
 21 23  1  0  0  0  0
 21 38  1  0  0  0  0
 21 39  1  0  0  0  0
 22 24  1  0  0  0  0
 22 40  1  0  0  0  0
 22 41  1  0  0  0  0
 23 42  1  0  0  0  0
 23 43  1  0  0  0  0
 23 44  1  0  0  0  0
 24 45  1  0  0  0  0
 24 46  1  0  0  0  0
 24 47  1  0  0  0  0
M  END
> <PUBCHEM_COMPOUND_CID>
14420

> <PUBCHEM_CONFORMER_RMSD>
0.8

> <PUBCHEM_CONFORMER_DIVERSEORDER>
1
31
15
30
10
23
21
25
7
20
29
26
28
3
9
12
11
8
6
24
17
27
16
14
4
22
19
5
13
2
18

> <PUBCHEM_MMFF94_PARTIAL_CHARGES>
28
1 -0.43
10 -0.04
11 -0.04
12 0.71
13 0.71
14 0.14
15 0.14
16 -0.15
17 -0.15
18 -0.15
19 -0.15
2 -0.43
20 -0.15
21 0.28
22 0.28
26 0.4
3 -0.57
33 0.15
34 0.15
35 0.15
36 0.15
37 0.15
4 -0.57
5 -0.6
6 0.42
7 -0.12
8 -0.12
9 -0.14

> <PUBCHEM_EFFECTIVE_ROTOR_COUNT>
7.4

> <PUBCHEM_PHARMACOPHORE_FEATURES>
6
1 3 acceptor
1 4 acceptor
1 5 cation
1 5 donor
6 5 6 7 8 10 11 rings
6 9 16 17 18 19 20 rings

> <PUBCHEM_HEAVY_ATOM_COUNT>
24

> <PUBCHEM_ATOM_DEF_STEREO_COUNT>
0

> <PUBCHEM_ATOM_UDEF_STEREO_COUNT>
0

> <PUBCHEM_BOND_DEF_STEREO_COUNT>
0

> <PUBCHEM_BOND_UDEF_STEREO_COUNT>
0

> <PUBCHEM_ISOTOPIC_ATOM_COUNT>
0

> <PUBCHEM_COMPONENT_COUNT>
1

> <PUBCHEM_CACTVS_TAUTO_COUNT>
2

> <PUBCHEM_CONFORMER_ID>
0000385400000001

> <PUBCHEM_MMFF94_ENERGY>
59.1319

> <PUBCHEM_FEATURE_SELFOVERLAP>
30.446

> <PUBCHEM_SHAPE_FINGERPRINT>
10076449 9 18265029380631284950
10906281 52 18118419353448893264
11578080 2 17972025951393943312
11680986 33 18116717309321884385
12035758 1 18335704892890134323
12714826 92 18266718239535177030
12788726 201 18335132154732560042
13140716 1 18264789682743343082
13149001 5 18337114475260361268
133893 2 17338439320844515179
13544592 271 17755612376302443368
14022347 108 18410863130998086936
14787075 74 18341612646413118495
15209289 33 18261670484446182577
16752209 62 18265051508413245426
16945 1 18042703843069805596
17492 54 18202843266633267375
18915476 22 17387697107257381008
19591789 44 18340785813748164979
20600515 1 18056217785841961260
20691752 17 18057911081436202679
21421861 104 17763462112568452249
22182313 1 18116996572669869490
22393880 68 18121251794976771231
22907989 373 17975092635858867276
23419403 2 17970331634214092288
23557571 272 18266460897926708168
23559900 14 18409451346021799380
2748010 2 18117284657622282714
394222 165 17273142516405343011
56616090 284 18261103123550799190
5845 1 15816544928249067872
81228 2 17912664414169797051

> <PUBCHEM_SHAPE_MULTIPOLES>
465.45
7.17
3.81
1.99
2.73
0.81
0.32
0.44
5.04
-2.38
-1.84
1.52
-0.19
1.56

> <PUBCHEM_SHAPE_SELFOVERLAP>
977.188

> <PUBCHEM_SHAPE_VOLUME>
262.4

> <PUBCHEM_COORDINATE_TYPE>
2
5
10

$$$$

