5354212
  -OEChem-07051213073D

 54 57  0     1  0  0  0  0  0999 V2000
    0.0960    2.2456   -0.6620 O   0  0  0  0  0  0  0  0  0  0  0  0
    6.2859    0.7995    1.1459 O   0  0  0  0  0  0  0  0  0  0  0  0
   -4.9759    1.2287   -0.4534 O   0  0  0  0  0  0  0  0  0  0  0  0
   -3.9829    1.7331    1.5712 O   0  0  0  0  0  0  0  0  0  0  0  0
   -0.9233   -1.5803    0.2525 C   0  0  1  0  0  0  0  0  0  0  0  0
    0.4629   -1.3205   -0.3530 C   0  0  1  0  0  0  0  0  0  0  0  0
   -1.9678   -0.5407   -0.2088 C   0  0  2  0  0  0  0  0  0  0  0  0
    0.9633    0.0832    0.1064 C   0  0  1  0  0  0  0  0  0  0  0  0
    2.4018    0.4320   -0.4307 C   0  0  2  0  0  0  0  0  0  0  0  0
   -1.6006   -2.9207   -0.0162 C   0  0  0  0  0  0  0  0  0  0  0  0
   -1.5361    0.8231    0.3366 C   0  0  0  0  0  0  0  0  0  0  0  0
    1.4663   -2.4006    0.0684 C   0  0  0  0  0  0  0  0  0  0  0  0
   -0.1295    1.1479   -0.1549 C   0  0  0  0  0  0  0  0  0  0  0  0
   -3.2168   -1.1741    0.3746 C   0  0  0  0  0  0  0  0  0  0  0  0
    3.3475   -0.7471   -0.1469 C   0  0  0  0  0  0  0  0  0  0  0  0
   -3.0448   -2.6767    0.4423 C   0  0  0  0  0  0  0  0  0  0  0  0
    2.8460   -2.1241   -0.5118 C   0  0  0  0  0  0  0  0  0  0  0  0
    2.9157    1.7004    0.3137 C   0  0  0  0  0  0  0  0  0  0  0  0
   -2.1652   -0.4446   -1.7407 C   0  0  0  0  0  0  0  0  0  0  0  0
    2.4115    0.6834   -1.9557 C   0  0  0  0  0  0  0  0  0  0  0  0
    4.4129    1.9282    0.1732 C   0  0  0  0  0  0  0  0  0  0  0  0
    4.5799   -0.6178    0.3730 C   0  0  0  0  0  0  0  0  0  0  0  0
   -4.2945   -0.5320    0.8413 C   0  0  0  0  0  0  0  0  0  0  0  0
    5.1721    0.7134    0.6330 C   0  0  0  0  0  0  0  0  0  0  0  0
   -4.3807    0.9380    0.7347 C   0  0  0  0  0  0  0  0  0  0  0  0
   -5.1437    2.6226   -0.7326 C   0  0  0  0  0  0  0  0  0  0  0  0
   -0.8113   -1.5078    1.3485 H   0  0  0  0  0  0  0  0  0  0  0  0
    0.3828   -1.3470   -1.4454 H   0  0  0  0  0  0  0  0  0  0  0  0
    1.0389    0.0485    1.2055 H   0  0  0  0  0  0  0  0  0  0  0  0
   -1.1429   -3.7410    0.5459 H   0  0  0  0  0  0  0  0  0  0  0  0
   -1.5650   -3.1869   -1.0785 H   0  0  0  0  0  0  0  0  0  0  0  0
   -1.5211    0.8570    1.4315 H   0  0  0  0  0  0  0  0  0  0  0  0
   -2.1639    1.6329   -0.0447 H   0  0  0  0  0  0  0  0  0  0  0  0
    1.1322   -3.3849   -0.2794 H   0  0  0  0  0  0  0  0  0  0  0  0
    1.5280   -2.4535    1.1632 H   0  0  0  0  0  0  0  0  0  0  0  0
   -3.1794   -3.0273    1.4716 H   0  0  0  0  0  0  0  0  0  0  0  0
   -3.7507   -3.1985   -0.2111 H   0  0  0  0  0  0  0  0  0  0  0  0
    2.8097   -2.2123   -1.6046 H   0  0  0  0  0  0  0  0  0  0  0  0
    3.5343   -2.9046   -0.1648 H   0  0  0  0  0  0  0  0  0  0  0  0
    2.6848    1.6136    1.3848 H   0  0  0  0  0  0  0  0  0  0  0  0
    2.4029    2.6010   -0.0394 H   0  0  0  0  0  0  0  0  0  0  0  0
   -1.2623   -0.1046   -2.2576 H   0  0  0  0  0  0  0  0  0  0  0  0
   -2.4528   -1.4016   -2.1895 H   0  0  0  0  0  0  0  0  0  0  0  0
   -2.9564    0.2718   -1.9893 H   0  0  0  0  0  0  0  0  0  0  0  0
    3.4340    0.7780   -2.3401 H   0  0  0  0  0  0  0  0  0  0  0  0
    1.9389   -0.1312   -2.5134 H   0  0  0  0  0  0  0  0  0  0  0  0
    1.8885    1.6062   -2.2232 H   0  0  0  0  0  0  0  0  0  0  0  0
    4.7065    2.7786    0.7987 H   0  0  0  0  0  0  0  0  0  0  0  0
    4.6961    2.1515   -0.8602 H   0  0  0  0  0  0  0  0  0  0  0  0
    5.2123   -1.4773    0.5690 H   0  0  0  0  0  0  0  0  0  0  0  0
   -5.1395   -1.0555    1.2724 H   0  0  0  0  0  0  0  0  0  0  0  0
   -5.6410    2.7173   -1.7015 H   0  0  0  0  0  0  0  0  0  0  0  0
   -4.1696    3.1176   -0.7881 H   0  0  0  0  0  0  0  0  0  0  0  0
   -5.7720    3.0896    0.0320 H   0  0  0  0  0  0  0  0  0  0  0  0
  1 13  2  0  0  0  0
  2 24  2  0  0  0  0
  3 25  1  0  0  0  0
  3 26  1  0  0  0  0
  4 25  2  0  0  0  0
  5  6  1  0  0  0  0
  5  7  1  0  0  0  0
  5 10  1  0  0  0  0
  5 27  1  0  0  0  0
  6  8  1  0  0  0  0
  6 12  1  0  0  0  0
  6 28  1  0  0  0  0
  7 11  1  0  0  0  0
  7 14  1  0  0  0  0
  7 19  1  0  0  0  0
  8  9  1  0  0  0  0
  8 13  1  0  0  0  0
  8 29  1  0  0  0  0
  9 15  1  0  0  0  0
  9 18  1  0  0  0  0
  9 20  1  0  0  0  0
 10 16  1  0  0  0  0
 10 30  1  0  0  0  0
 10 31  1  0  0  0  0
 11 13  1  0  0  0  0
 11 32  1  0  0  0  0
 11 33  1  0  0  0  0
 12 17  1  0  0  0  0
 12 34  1  0  0  0  0
 12 35  1  0  0  0  0
 14 16  1  0  0  0  0
 14 23  2  0  0  0  0
 15 17  1  0  0  0  0
 15 22  2  0  0  0  0
 16 36  1  0  0  0  0
 16 37  1  0  0  0  0
 17 38  1  0  0  0  0
 17 39  1  0  0  0  0
 18 21  1  0  0  0  0
 18 40  1  0  0  0  0
 18 41  1  0  0  0  0
 19 42  1  0  0  0  0
 19 43  1  0  0  0  0
 19 44  1  0  0  0  0
 20 45  1  0  0  0  0
 20 46  1  0  0  0  0
 20 47  1  0  0  0  0
 21 24  1  0  0  0  0
 21 48  1  0  0  0  0
 21 49  1  0  0  0  0
 22 24  1  0  0  0  0
 22 50  1  0  0  0  0
 23 25  1  0  0  0  0
 23 51  1  0  0  0  0
 26 52  1  0  0  0  0
 26 53  1  0  0  0  0
 26 54  1  0  0  0  0
M  END
> <PUBCHEM_COMPOUND_CID>
5354212

> <PUBCHEM_CONFORMER_RMSD>
0.8

> <PUBCHEM_CONFORMER_DIVERSEORDER>
1
2

> <PUBCHEM_MMFF94_PARTIAL_CHARGES>
21
1 -0.57
11 0.06
13 0.45
14 -0.28
15 -0.28
16 0.14
17 0.14
2 -0.57
21 0.06
22 -0.14
23 -0.14
24 0.49
25 0.71
26 0.28
3 -0.43
4 -0.57
50 0.15
51 0.15
7 0.14
8 0.06
9 0.14

> <PUBCHEM_EFFECTIVE_ROTOR_COUNT>
3.4

> <PUBCHEM_PHARMACOPHORE_FEATURES>
7
1 1 acceptor
1 2 acceptor
1 4 acceptor
5 5 7 10 14 16 rings
6 5 6 7 8 11 13 rings
6 6 8 9 12 15 17 rings
6 9 15 18 21 22 24 rings

> <PUBCHEM_HEAVY_ATOM_COUNT>
26

> <PUBCHEM_ATOM_DEF_STEREO_COUNT>
5

> <PUBCHEM_ATOM_UDEF_STEREO_COUNT>
0

> <PUBCHEM_BOND_DEF_STEREO_COUNT>
1

> <PUBCHEM_BOND_UDEF_STEREO_COUNT>
0

> <PUBCHEM_ISOTOPIC_ATOM_COUNT>
0

> <PUBCHEM_COMPONENT_COUNT>
1

> <PUBCHEM_CACTVS_TAUTO_COUNT>
15

> <PUBCHEM_CONFORMER_ID>
0051B2E400000001

> <PUBCHEM_MMFF94_ENERGY>
81.244

> <PUBCHEM_FEATURE_SELFOVERLAP>
35.618

> <PUBCHEM_SHAPE_FINGERPRINT>
10 15 18272929388687802992
10906281 52 18129365056717917852
1100329 8 17113819051055725378
11089746 13 17240490203953175120
12107183 9 18197788889074578610
12236239 1 17894917373290254157
12403259 118 17917703609240952861
12403260 363 18122913031843708134
12403814 3 17561084670556142943
12422481 6 18201443609753249044
12633257 1 16773794762401838122
12788726 201 17241038924410965624
13140716 1 18339924788595120312
13224815 77 18410571743526942182
13583140 156 18114464461863005611
13675066 3 18272643550224538947
14178342 30 18339920394495585722
14466204 15 18410576162985135992
14790565 3 17981034224997604924
15163728 17 15648156660018148219
15196674 1 18410291385247074658
15375358 24 18186795876813523054
15788980 27 16702311113380835590
1601671 61 18410008832307250352
16945 1 18196078946614105567
17349148 13 17988646234111168686
17980427 23 18129100031323624292
1813 80 17203888557149517198
20511986 3 18188508941715128491
20715895 44 18268996551860201093
21033648 144 18337674217310744237
21033648 29 17773872177033458901
21267235 1 18339632335402926386
21279426 13 18335132129279352094
21304253 335 18341044207016421037
21421861 104 17988372588902323298
21452121 103 18409450314775980778
21859007 373 17701551837653838829
22182313 1 17987241225232304812
23227448 37 18408604751568667711
23402539 116 18334583395493301806
23559900 14 18260258686099937286
335352 9 18339079401719109806
34934 24 18410860983593572843
350125 39 18411978092445918836
3633792 109 18265060300755015541
3680242 22 18342740758343968578
4340502 62 18410004473047151321
5104073 3 18412539929159305626
7064713 232 18409168775464249664
7226269 152 18259703393482582232
7495541 125 12607405468988193628
9709674 26 18334849515698821862

> <PUBCHEM_SHAPE_MULTIPOLES>
511.59
11.27
2.93
1.15
3.06
0.7
0.31
-5.72
-2.84
-1.84
0.04
-0.14
-0.29
0.54

> <PUBCHEM_SHAPE_SELFOVERLAP>
1104.033

> <PUBCHEM_SHAPE_VOLUME>
278.8

> <PUBCHEM_COORDINATE_TYPE>
2
5
10

$$$$

