4585
  -OEChem-07051212533D

 42 45  0     0  0  0  0  0  0999 V2000
    0.6889    3.4660   -0.0262 S   0  0  0  0  0  0  0  0  0  0  0  0
   -1.4223   -1.0249    0.0386 N   0  0  0  0  0  0  0  0  0  0  0  0
   -4.2017   -1.6546    0.0041 N   0  0  0  0  0  0  0  0  0  0  0  0
    0.8816   -1.2381    0.0296 N   0  0  0  0  0  0  0  0  0  0  0  0
    2.3593    1.4601   -0.0162 N   0  0  0  0  0  0  0  0  0  0  0  0
   -2.1076   -1.3676    1.2841 C   0  0  0  0  0  0  0  0  0  0  0  0
   -2.0300   -1.5757   -1.1723 C   0  0  0  0  0  0  0  0  0  0  0  0
   -3.5933   -1.0174    1.1809 C   0  0  0  0  0  0  0  0  0  0  0  0
   -3.5173   -1.2212   -1.2225 C   0  0  0  0  0  0  0  0  0  0  0  0
   -0.2118   -0.3954    0.0235 C   0  0  0  0  0  0  0  0  0  0  0  0
   -0.1553    0.9554    0.0046 C   0  0  0  0  0  0  0  0  0  0  0  0
   -5.6291   -1.3455   -0.0672 C   0  0  0  0  0  0  0  0  0  0  0  0
    1.1135    1.7346   -0.0107 C   0  0  0  0  0  0  0  0  0  0  0  0
    2.2692   -1.0443    0.0146 C   0  0  0  0  0  0  0  0  0  0  0  0
   -1.3092    1.8468   -0.0021 C   0  0  0  0  0  0  0  0  0  0  0  0
    2.9308    0.1877   -0.0078 C   0  0  0  0  0  0  0  0  0  0  0  0
   -1.0161    3.1525   -0.0176 C   0  0  0  0  0  0  0  0  0  0  0  0
    3.0573   -2.2235    0.0216 C   0  0  0  0  0  0  0  0  0  0  0  0
    4.3441    0.1989   -0.0222 C   0  0  0  0  0  0  0  0  0  0  0  0
   -1.9997    4.2701   -0.0287 C   0  0  0  0  0  0  0  0  0  0  0  0
    4.4503   -2.1923    0.0071 C   0  0  0  0  0  0  0  0  0  0  0  0
    5.0984   -0.9718   -0.0153 C   0  0  0  0  0  0  0  0  0  0  0  0
   -1.6708   -0.8292    2.1343 H   0  0  0  0  0  0  0  0  0  0  0  0
   -1.9810   -2.4393    1.4825 H   0  0  0  0  0  0  0  0  0  0  0  0
   -1.8961   -2.6646   -1.1811 H   0  0  0  0  0  0  0  0  0  0  0  0
   -1.5382   -1.1822   -2.0706 H   0  0  0  0  0  0  0  0  0  0  0  0
   -4.0905   -1.3716    2.0921 H   0  0  0  0  0  0  0  0  0  0  0  0
   -3.7239    0.0712    1.1456 H   0  0  0  0  0  0  0  0  0  0  0  0
   -3.6364   -0.1401   -1.3719 H   0  0  0  0  0  0  0  0  0  0  0  0
   -3.9598   -1.7209   -2.0927 H   0  0  0  0  0  0  0  0  0  0  0  0
   -6.0903   -1.8547   -0.9207 H   0  0  0  0  0  0  0  0  0  0  0  0
   -5.8166   -0.2700   -0.1648 H   0  0  0  0  0  0  0  0  0  0  0  0
   -6.1457   -1.7057    0.8294 H   0  0  0  0  0  0  0  0  0  0  0  0
    0.6012   -2.2152    0.0482 H   0  0  0  0  0  0  0  0  0  0  0  0
   -2.3265    1.4848   -0.0037 H   0  0  0  0  0  0  0  0  0  0  0  0
    2.5711   -3.1987    0.0387 H   0  0  0  0  0  0  0  0  0  0  0  0
    4.8735    1.1512   -0.0394 H   0  0  0  0  0  0  0  0  0  0  0  0
   -1.8713    4.9078    0.8522 H   0  0  0  0  0  0  0  0  0  0  0  0
   -3.0301    3.8986   -0.0220 H   0  0  0  0  0  0  0  0  0  0  0  0
   -1.8754    4.8867   -0.9250 H   0  0  0  0  0  0  0  0  0  0  0  0
    5.0182   -3.1173    0.0130 H   0  0  0  0  0  0  0  0  0  0  0  0
    6.1826   -0.9241   -0.0269 H   0  0  0  0  0  0  0  0  0  0  0  0
  1 13  1  0  0  0  0
  1 17  1  0  0  0  0
  2  6  1  0  0  0  0
  2  7  1  0  0  0  0
  2 10  1  0  0  0  0
  3  8  1  0  0  0  0
  3  9  1  0  0  0  0
  3 12  1  0  0  0  0
  4 10  1  0  0  0  0
  4 14  1  0  0  0  0
  4 34  1  0  0  0  0
  5 13  2  0  0  0  0
  5 16  1  0  0  0  0
  6  8  1  0  0  0  0
  6 23  1  0  0  0  0
  6 24  1  0  0  0  0
  7  9  1  0  0  0  0
  7 25  1  0  0  0  0
  7 26  1  0  0  0  0
  8 27  1  0  0  0  0
  8 28  1  0  0  0  0
  9 29  1  0  0  0  0
  9 30  1  0  0  0  0
 10 11  2  0  0  0  0
 11 13  1  0  0  0  0
 11 15  1  0  0  0  0
 12 31  1  0  0  0  0
 12 32  1  0  0  0  0
 12 33  1  0  0  0  0
 14 16  1  0  0  0  0
 14 18  2  0  0  0  0
 15 17  2  0  0  0  0
 15 35  1  0  0  0  0
 16 19  2  0  0  0  0
 17 20  1  0  0  0  0
 18 21  1  0  0  0  0
 18 36  1  0  0  0  0
 19 22  1  0  0  0  0
 19 37  1  0  0  0  0
 20 38  1  0  0  0  0
 20 39  1  0  0  0  0
 20 40  1  0  0  0  0
 21 22  2  0  0  0  0
 21 41  1  0  0  0  0
 22 42  1  0  0  0  0
M  END
> <PUBCHEM_COMPOUND_CID>
4585

> <PUBCHEM_CONFORMER_RMSD>
0.6

> <PUBCHEM_CONFORMER_DIVERSEORDER>
1
2
3
4

> <PUBCHEM_MMFF94_PARTIAL_CHARGES>
28
1 -0.24
10 0.2
11 0.01
12 0.27
13 0.58
14 0.1
15 -0.15
16 0.18
17 -0.04
18 -0.15
19 -0.15
2 -0.84
20 0.14
21 -0.15
22 -0.15
3 -0.81
34 0.4
35 0.15
36 0.15
37 0.15
4 -0.6
41 0.15
42 0.15
5 -0.63
6 0.37
7 0.37
8 0.27
9 0.27

> <PUBCHEM_EFFECTIVE_ROTOR_COUNT>
2.4

> <PUBCHEM_PHARMACOPHORE_FEATURES>
9
1 2 cation
1 3 cation
1 4 cation
1 4 donor
1 5 acceptor
5 1 11 13 15 17 rings
6 14 16 18 19 21 22 rings
6 2 3 6 7 8 9 rings
7 4 5 10 11 13 14 16 rings

> <PUBCHEM_HEAVY_ATOM_COUNT>
22

> <PUBCHEM_ATOM_DEF_STEREO_COUNT>
0

> <PUBCHEM_ATOM_UDEF_STEREO_COUNT>
0

> <PUBCHEM_BOND_DEF_STEREO_COUNT>
0

> <PUBCHEM_BOND_UDEF_STEREO_COUNT>
0

> <PUBCHEM_ISOTOPIC_ATOM_COUNT>
0

> <PUBCHEM_COMPONENT_COUNT>
1

> <PUBCHEM_CACTVS_TAUTO_COUNT>
3

> <PUBCHEM_CONFORMER_ID>
000011E900000001

> <PUBCHEM_MMFF94_ENERGY>
83.0994

> <PUBCHEM_FEATURE_SELFOVERLAP>
45.75

> <PUBCHEM_SHAPE_FINGERPRINT>
10411042 1 18410855460154879843
104564 63 18410574028148811284
10616163 171 18265333000865464710
10688039 33 18272931618092340573
10967382 1 18194682566741088040
1100329 8 18267019634206618929
11045515 52 18271813406113453061
11265709 11 18410011026808568404
11578080 2 17531834396739428001
116883 192 18410293631193074220
12236239 1 17749667398862555643
12293681 4 18272363157548296171
12422481 6 17970889267393601467
12553582 1 18337670824197130110
12788726 201 18342462581374562026
13004483 165 18337120028558051242
13009979 54 17677605368144445091
13052359 8 18051981620864141597
13134695 92 18266459811147053741
13140716 1 18195253449841827914
13544653 18 18342172258876114302
138480 1 15168265244561230092
14178342 30 18125174959664940418
14790565 3 17619338814893669524
14866123 147 18124312972054469867
15042514 8 18194400223985843792
15885798 251 18410572872944890571
15927050 60 17619065474552790843
16087824 20 18266740371887314405
17138139 8 17541989615589747749
17357779 13 18341343231224156852
17492 89 18266742579120657274
17980427 23 17458332040834152617
1813 80 18261096465992846158
18335252 114 18338250289175238559
18785283 64 17768527192869462685
200 152 18335143085176648878
20642791 13 18339924917475768208
20645477 70 18127135177610345859
21029758 11 18412826867450083795
21041028 32 18411696578324015485
21267235 1 18409724080597988750
21279426 13 18342747346892307253
21307412 95 17104516040846764438
21478907 32 18410857689496094565
21524375 3 17476635855150651960
21641784 216 18130207325421961740
221357 26 18342470214312129767
22182313 1 18266766634741547012
23175994 123 18343300336653155335
23402539 116 18408044030445082855
23557571 272 18261385715614677934
23558518 356 18127965515237755002
23559900 14 18268713805261577450
23598288 3 18193286405743085158
25147074 1 18058444478104775318
2748010 2 18336837467524294444
283562 15 18342458187612663370
2871803 45 18343301474919897538
3091708 16 9424880087049988160
3421961 26 18265615390116230561
350125 39 18408882949849536192
352729 6 17903076969017499060
46194498 28 17488468464381380423
5104073 3 18265061413336038834
5309563 4 18339356375064075059
6443956 14 18341050696717344740
68521 5 18411417349330240581
7164475 11 18411978104977425492
81228 2 18343026622292283448
9709674 26 17974008650574893126

> <PUBCHEM_SHAPE_MULTIPOLES>
436.68
9.17
4.19
0.88
0.85
5.58
0.02
-8.1
-0.07
-1.83
-0.1
-0.77
-0.37
-0.07

> <PUBCHEM_SHAPE_SELFOVERLAP>
932.707

> <PUBCHEM_SHAPE_VOLUME>
243.5

> <PUBCHEM_COORDINATE_TYPE>
2
5
10

$$$$

