5875
  -OEChem-07051212533D

 57 60  0     1  0  0  0  0  0999 V2000
    3.4058   -2.9509   -0.7147 F   0  0  0  0  0  0  0  0  0  0  0  0
   -3.0955   -0.2820    1.9862 O   0  0  0  0  0  0  0  0  0  0  0  0
    0.0685    2.2978   -1.3172 O   0  0  0  0  0  0  0  0  0  0  0  0
   -5.4065   -0.2137   -0.2738 O   0  0  0  0  0  0  0  0  0  0  0  0
   -4.7558    2.6380   -0.3768 O   0  0  0  0  0  0  0  0  0  0  0  0
    6.0535    0.3469    1.7687 O   0  0  0  0  0  0  0  0  0  0  0  0
   -1.9396    0.2027   -0.1566 C   0  0  1  0  0  0  0  0  0  0  0  0
   -0.9664   -0.9842    0.0173 C   0  0  2  0  0  0  0  0  0  0  0  0
    0.4057   -0.7674   -0.6427 C   0  0  1  0  0  0  0  0  0  0  0  0
    1.0847    0.4901    0.0047 C   0  0  2  0  0  0  0  0  0  0  0  0
   -3.1864   -0.3874    0.5707 C   0  0  1  0  0  0  0  0  0  0  0  0
   -1.7958   -2.1995   -0.3953 C   0  0  0  0  0  0  0  0  0  0  0  0
   -1.2841    1.4371    0.4975 C   0  0  0  0  0  0  0  0  0  0  0  0
   -3.2352   -1.8666    0.0773 C   0  0  1  0  0  0  0  0  0  0  0  0
    0.1426    1.7367   -0.0134 C   0  0  2  0  0  0  0  0  0  0  0  0
    2.5601    0.7177   -0.5145 C   0  0  1  0  0  0  0  0  0  0  0  0
    1.2844   -2.0184   -0.4737 C   0  0  0  0  0  0  0  0  0  0  0  0
   -2.2793    0.4989   -1.6435 C   0  0  0  0  0  0  0  0  0  0  0  0
    2.7044   -1.8096   -0.9786 C   0  0  1  0  0  0  0  0  0  0  0  0
    3.3214   -0.6007   -0.3211 C   0  0  0  0  0  0  0  0  0  0  0  0
   -4.4635    0.3426    0.2869 C   0  0  0  0  0  0  0  0  0  0  0  0
   -3.7455   -2.8697    1.1077 C   0  0  0  0  0  0  0  0  0  0  0  0
    2.6423    1.1112   -2.0063 C   0  0  0  0  0  0  0  0  0  0  0  0
    3.2132    1.8517    0.2618 C   0  0  0  0  0  0  0  0  0  0  0  0
    4.4393   -0.7105    0.4141 C   0  0  0  0  0  0  0  0  0  0  0  0
   -4.5206    1.7899    0.7273 C   0  0  0  0  0  0  0  0  0  0  0  0
    4.3245    1.7458    0.9965 C   0  0  0  0  0  0  0  0  0  0  0  0
    5.0237    0.4536    1.1114 C   0  0  0  0  0  0  0  0  0  0  0  0
   -0.7698   -1.1099    1.0954 H   0  0  0  0  0  0  0  0  0  0  0  0
    0.2766   -0.6013   -1.7170 H   0  0  0  0  0  0  0  0  0  0  0  0
    1.1842    0.2450    1.0767 H   0  0  0  0  0  0  0  0  0  0  0  0
   -1.7770   -2.3351   -1.4832 H   0  0  0  0  0  0  0  0  0  0  0  0
   -1.4108   -3.1202    0.0558 H   0  0  0  0  0  0  0  0  0  0  0  0
   -1.2249    1.3004    1.5839 H   0  0  0  0  0  0  0  0  0  0  0  0
   -1.8869    2.3301    0.3098 H   0  0  0  0  0  0  0  0  0  0  0  0
   -3.8770   -1.9635   -0.8080 H   0  0  0  0  0  0  0  0  0  0  0  0
    0.5626    2.5124    0.6366 H   0  0  0  0  0  0  0  0  0  0  0  0
    0.8456   -2.8683   -1.0103 H   0  0  0  0  0  0  0  0  0  0  0  0
    1.3178   -2.3197    0.5821 H   0  0  0  0  0  0  0  0  0  0  0  0
   -1.3920    0.6042   -2.2707 H   0  0  0  0  0  0  0  0  0  0  0  0
   -2.8841   -0.2882   -2.1044 H   0  0  0  0  0  0  0  0  0  0  0  0
   -2.8440    1.4314   -1.7395 H   0  0  0  0  0  0  0  0  0  0  0  0
    2.7098   -1.6900   -2.0667 H   0  0  0  0  0  0  0  0  0  0  0  0
   -3.0965   -2.9106    1.9886 H   0  0  0  0  0  0  0  0  0  0  0  0
   -4.7591   -2.6154    1.4333 H   0  0  0  0  0  0  0  0  0  0  0  0
   -3.7779   -3.8759    0.6759 H   0  0  0  0  0  0  0  0  0  0  0  0
    3.6715    1.0284   -2.3801 H   0  0  0  0  0  0  0  0  0  0  0  0
    2.0183    0.4773   -2.6434 H   0  0  0  0  0  0  0  0  0  0  0  0
    2.3382    2.1490   -2.1811 H   0  0  0  0  0  0  0  0  0  0  0  0
   -3.8730   -0.7056    2.3871 H   0  0  0  0  0  0  0  0  0  0  0  0
    2.7571    2.8368    0.1933 H   0  0  0  0  0  0  0  0  0  0  0  0
   -0.4736    3.1032   -1.2643 H   0  0  0  0  0  0  0  0  0  0  0  0
    4.9520   -1.6579    0.5414 H   0  0  0  0  0  0  0  0  0  0  0  0
   -3.6462    2.1212    1.2807 H   0  0  0  0  0  0  0  0  0  0  0  0
   -5.3629    1.8858    1.4223 H   0  0  0  0  0  0  0  0  0  0  0  0
    4.7432    2.6017    1.5130 H   0  0  0  0  0  0  0  0  0  0  0  0
   -5.6280    2.4103   -0.7418 H   0  0  0  0  0  0  0  0  0  0  0  0
  1 19  1  0  0  0  0
  2 11  1  0  0  0  0
  2 50  1  0  0  0  0
  3 15  1  0  0  0  0
  3 52  1  0  0  0  0
  4 21  2  0  0  0  0
  5 26  1  0  0  0  0
  5 57  1  0  0  0  0
  6 28  2  0  0  0  0
  7  8  1  0  0  0  0
  7 11  1  0  0  0  0
  7 13  1  0  0  0  0
  7 18  1  0  0  0  0
  8  9  1  0  0  0  0
  8 12  1  0  0  0  0
  8 29  1  0  0  0  0
  9 10  1  0  0  0  0
  9 17  1  0  0  0  0
  9 30  1  0  0  0  0
 10 15  1  0  0  0  0
 10 16  1  0  0  0  0
 10 31  1  0  0  0  0
 11 14  1  0  0  0  0
 11 21  1  0  0  0  0
 12 14  1  0  0  0  0
 12 32  1  0  0  0  0
 12 33  1  0  0  0  0
 13 15  1  0  0  0  0
 13 34  1  0  0  0  0
 13 35  1  0  0  0  0
 14 22  1  0  0  0  0
 14 36  1  0  0  0  0
 15 37  1  0  0  0  0
 16 20  1  0  0  0  0
 16 23  1  0  0  0  0
 16 24  1  0  0  0  0
 17 19  1  0  0  0  0
 17 38  1  0  0  0  0
 17 39  1  0  0  0  0
 18 40  1  0  0  0  0
 18 41  1  0  0  0  0
 18 42  1  0  0  0  0
 19 20  1  0  0  0  0
 19 43  1  0  0  0  0
 20 25  2  0  0  0  0
 21 26  1  0  0  0  0
 22 44  1  0  0  0  0
 22 45  1  0  0  0  0
 22 46  1  0  0  0  0
 23 47  1  0  0  0  0
 23 48  1  0  0  0  0
 23 49  1  0  0  0  0
 24 27  2  0  0  0  0
 24 51  1  0  0  0  0
 25 28  1  0  0  0  0
 25 53  1  0  0  0  0
 26 54  1  0  0  0  0
 26 55  1  0  0  0  0
 27 28  1  0  0  0  0
 27 56  1  0  0  0  0
M  END
> <PUBCHEM_COMPOUND_CID>
5875

> <PUBCHEM_CONFORMER_RMSD>
0.8

> <PUBCHEM_CONFORMER_DIVERSEORDER>
2
1

> <PUBCHEM_MMFF94_PARTIAL_CHARGES>
23
1 -0.34
11 0.34
15 0.28
16 0.28
19 0.48
2 -0.68
20 -0.28
21 0.45
24 -0.29
25 -0.14
26 0.34
27 -0.14
28 0.54
3 -0.68
4 -0.57
5 -0.68
50 0.4
51 0.15
52 0.4
53 0.15
56 0.15
57 0.4
6 -0.57

> <PUBCHEM_EFFECTIVE_ROTOR_COUNT>
3.4

> <PUBCHEM_PHARMACOPHORE_FEATURES>
12
1 2 acceptor
1 2 donor
1 3 acceptor
1 3 donor
1 4 acceptor
1 5 acceptor
1 5 donor
1 6 acceptor
5 7 8 11 12 14 rings
6 16 20 24 25 27 28 rings
6 7 8 9 10 13 15 rings
6 9 10 16 17 19 20 rings

> <PUBCHEM_HEAVY_ATOM_COUNT>
28

> <PUBCHEM_ATOM_DEF_STEREO_COUNT>
9

> <PUBCHEM_ATOM_UDEF_STEREO_COUNT>
0

> <PUBCHEM_BOND_DEF_STEREO_COUNT>
0

> <PUBCHEM_BOND_UDEF_STEREO_COUNT>
0

> <PUBCHEM_ISOTOPIC_ATOM_COUNT>
0

> <PUBCHEM_COMPONENT_COUNT>
1

> <PUBCHEM_CACTVS_TAUTO_COUNT>
3

> <PUBCHEM_CONFORMER_ID>
000016F300000002

> <PUBCHEM_MMFF94_ENERGY>
96.1397

> <PUBCHEM_FEATURE_SELFOVERLAP>
60.992

> <PUBCHEM_SHAPE_FINGERPRINT>
10906281 52 18200860808830302700
1100329 8 16538484245856467879
11112241 14 17242195494647464368
11132069 177 18410569574246606854
11370993 70 18333450945402818531
11405975 8 18130785650756544889
11961588 58 5617241655354959224
12035758 1 18272077328176133337
12403814 3 17918276433250218037
12422481 6 18411145753274176594
12553582 1 18266722632653406429
12633257 1 17703792487805905650
13140716 1 18410854399356252874
13224815 77 18337944602281112486
13583140 156 17822013060387691161
13675066 3 18411694387537097675
14178342 30 18338515235809668086
14223421 5 18335702780082592366
14790565 3 17978222769528553436
15196674 1 18408882902003372710
15375358 24 18407477769198028629
15788980 27 17203615856358397109
15840311 113 17825375535246447985
17349148 13 18272369716195114330
1813 80 17274819168838074196
20511986 3 17968112939987277479
20715895 44 18267306611189182569
21033648 29 17986673873386350037
21421861 104 17987525973480854498
21452121 103 18334017228651716682
21756936 100 17462017458104089456
21859007 373 17700707417245735349
22182313 1 18199475543874036924
23559900 14 18337942515191160430
2838139 119 14635147877155019058
335352 9 18265889353242698095
34934 24 18333735723235786015
3633792 109 18188779473943649309
3680242 22 18270963573735281418
392239 28 17532373063227150482
394222 165 17342642372210591276
4340502 62 17894912906070618026
460360 51 18338498816397472681
5104073 3 18336258033275590139
9709674 26 18335695078837153951

> <PUBCHEM_SHAPE_MULTIPOLES>
539.61
11.14
2.82
1.38
1.71
0.77
0.06
-1.55
-4.13
-1.14
0.19
0.63
-0.2
0.98

> <PUBCHEM_SHAPE_SELFOVERLAP>
1167.548

> <PUBCHEM_SHAPE_VOLUME>
297.2

> <PUBCHEM_COORDINATE_TYPE>
2
5
10

$$$$

