6105
  -OEChem-06261201072D

 24 24  0     1  0  0  0  0  0999 V2000
    2.5369    1.0000    0.0000 S   0  0  0  0  0  0  0  0  0  0  0  0
    4.2690    1.0000    0.0000 O   0  0  0  0  0  0  0  0  0  0  0  0
    6.0010   -1.0000    0.0000 O   0  0  0  0  0  0  0  0  0  0  0  0
    4.2690   -2.0000    0.0000 O   0  0  0  0  0  0  0  0  0  0  0  0
    2.5369   -1.0000    0.0000 O   0  0  0  0  0  0  0  0  0  0  0  0
    6.0010    2.0000    0.0000 O   0  0  0  0  0  0  0  0  0  0  0  0
    5.1350   -0.5000    0.0000 C   0  0  3  0  0  0  0  0  0  0  0  0
    4.2690   -1.0000    0.0000 C   0  0  1  0  0  0  0  0  0  0  0  0
    5.1350    0.5000    0.0000 C   0  0  1  0  0  0  0  0  0  0  0  0
    3.4030   -0.5000    0.0000 C   0  0  2  0  0  0  0  0  0  0  0  0
    3.4030    0.5000    0.0000 C   0  0  3  0  0  0  0  0  0  0  0  0
    6.0010    1.0000    0.0000 C   0  0  0  0  0  0  0  0  0  0  0  0
    5.1350   -1.1200    0.0000 H   0  0  0  0  0  0  0  0  0  0  0  0
    4.8059   -1.3100    0.0000 H   0  0  0  0  0  0  0  0  0  0  0  0
    5.1350    1.1200    0.0000 H   0  0  0  0  0  0  0  0  0  0  0  0
    3.4030   -1.1200    0.0000 H   0  0  0  0  0  0  0  0  0  0  0  0
    3.9399    0.1900    0.0000 H   0  0  0  0  0  0  0  0  0  0  0  0
    6.2131    0.4174    0.0000 H   0  0  0  0  0  0  0  0  0  0  0  0
    6.6116    1.1077    0.0000 H   0  0  0  0  0  0  0  0  0  0  0  0
    6.5380   -0.6900    0.0000 H   0  0  0  0  0  0  0  0  0  0  0  0
    3.7321   -2.3100    0.0000 H   0  0  0  0  0  0  0  0  0  0  0  0
    2.0000   -0.6900    0.0000 H   0  0  0  0  0  0  0  0  0  0  0  0
    2.5369    1.6200    0.0000 H   0  0  0  0  0  0  0  0  0  0  0  0
    6.5380    2.3100    0.0000 H   0  0  0  0  0  0  0  0  0  0  0  0
  1 11  1  0  0  0  0
  1 23  1  0  0  0  0
  2  9  1  0  0  0  0
  2 11  1  0  0  0  0
  3  7  1  0  0  0  0
  3 20  1  0  0  0  0
  4  8  1  0  0  0  0
  4 21  1  0  0  0  0
  5 10  1  0  0  0  0
  5 22  1  0  0  0  0
  6 12  1  0  0  0  0
  6 24  1  0  0  0  0
  7  8  1  0  0  0  0
  7  9  1  0  0  0  0
  7 13  1  0  0  0  0
  8 10  1  0  0  0  0
  8 14  1  0  0  0  0
  9 12  1  0  0  0  0
  9 15  1  0  0  0  0
 10 11  1  0  0  0  0
 10 16  1  0  0  0  0
 11 17  1  0  0  0  0
 12 18  1  0  0  0  0
 12 19  1  0  0  0  0
M  END
> <PUBCHEM_COMPOUND_CID>
6105

> <PUBCHEM_COMPOUND_CANONICALIZED>
1

> <PUBCHEM_CACTVS_COMPLEXITY>
155

> <PUBCHEM_CACTVS_HBOND_ACCEPTOR>
6

> <PUBCHEM_CACTVS_HBOND_DONOR>
5

> <PUBCHEM_CACTVS_ROTATABLE_BOND>
1

> <PUBCHEM_CACTVS_SUBSKEYS>
AAADccBgOABAAAAAAAAAAAAAAAAAAAAAAAAkAAAAAAAAAAAAAAAAGgQACAAACBSkwAKAAAAABgQAAAAAAAAAAAAAAAAAAAAAAAABEAIAAAACQAAFAAADAAHAYAQAAAAAAAAAAAAAAAAAAAAAAAAAAAAAAA==

> <PUBCHEM_IUPAC_OPENEYE_NAME>
(2R,4S,5R)-2-(hydroxymethyl)-6-sulfanyl-tetrahydropyran-3,4,5-triol

> <PUBCHEM_IUPAC_CAS_NAME>
(2R,4S,5R)-2-(hydroxymethyl)-6-mercaptooxane-3,4,5-triol

> <PUBCHEM_IUPAC_NAME>
(2R,4S,5R)-2-(hydroxymethyl)-6-sulfanyloxane-3,4,5-triol

> <PUBCHEM_IUPAC_SYSTEMATIC_NAME>
(2R,4S,5R)-2-(hydroxymethyl)-6-sulfanyl-oxane-3,4,5-triol

> <PUBCHEM_IUPAC_TRADITIONAL_NAME>
(3R,4S,6R)-2-mercapto-6-methylol-tetrahydropyran-3,4,5-triol

> <PUBCHEM_IUPAC_INCHI>
InChI=1S/C6H12O5S/c7-1-2-3(8)4(9)5(10)6(12)11-2/h2-10,12H,1H2/t2-,3?,4+,5-,6?/m1/s1

> <PUBCHEM_IUPAC_INCHIKEY>
JUSMHIGDXPKSID-ZDIXECSYSA-N

> <PUBCHEM_XLOGP3_AA>
-1.6

> <PUBCHEM_EXACT_MASS>
196.040544

> <PUBCHEM_MOLECULAR_FORMULA>
C6H12O5S

> <PUBCHEM_MOLECULAR_WEIGHT>
196.22148

> <PUBCHEM_OPENEYE_CAN_SMILES>
C(C1C(C(C(C(O1)S)O)O)O)O

> <PUBCHEM_OPENEYE_ISO_SMILES>
C([C@@H]1C([C@@H]([C@H](C(O1)S)O)O)O)O

> <PUBCHEM_CACTVS_TPSA>
91.2

> <PUBCHEM_MONOISOTOPIC_WEIGHT>
196.040544

> <PUBCHEM_TOTAL_CHARGE>
0

> <PUBCHEM_HEAVY_ATOM_COUNT>
12

> <PUBCHEM_ATOM_DEF_STEREO_COUNT>
3

> <PUBCHEM_ATOM_UDEF_STEREO_COUNT>
0

> <PUBCHEM_BOND_DEF_STEREO_COUNT>
0

> <PUBCHEM_BOND_UDEF_STEREO_COUNT>
0

> <PUBCHEM_ISOTOPIC_ATOM_COUNT>
0

> <PUBCHEM_COMPONENT_COUNT>
1

> <PUBCHEM_CACTVS_TAUTO_COUNT>
1

> <PUBCHEM_COORDINATE_TYPE>
1
5
255

> <PUBCHEM_BONDANNOTATIONS>
8  4  3
10  5  3
9  12  3

$$$$

