439458
  -OEChem-07051212453D

 25 26  0     1  0  0  0  0  0999 V2000
   -1.8670   -1.7510   -1.2301 O   0  0  0  0  0  0  0  0  0  0  0  0
   -4.0566   -1.3220    0.2104 O   0  0  0  0  0  0  0  0  0  0  0  0
    0.5408    3.0872   -0.1796 O   0  0  0  0  0  0  0  0  0  0  0  0
    3.0641   -2.1578    0.1826 O   0  0  0  0  0  0  0  0  0  0  0  0
    4.3264   -0.2550    0.0551 O   0  0  0  0  0  0  0  0  0  0  0  0
    0.8140   -0.9081    0.0939 N   0  0  0  0  0  0  0  0  0  0  0  0
   -1.6331   -1.2720    0.0980 C   0  0  1  0  0  0  0  0  0  0  0  0
   -0.4405   -0.3411    0.0521 C   0  0  0  0  0  0  0  0  0  0  0  0
   -2.9113   -0.5880    0.6331 C   0  0  1  0  0  0  0  0  0  0  0  0
   -0.6175    0.9966   -0.0310 C   0  0  0  0  0  0  0  0  0  0  0  0
   -3.0278    0.8530    0.2128 C   0  0  0  0  0  0  0  0  0  0  0  0
   -1.9419    1.5772   -0.0961 C   0  0  0  0  0  0  0  0  0  0  0  0
    0.6088    1.8650   -0.0941 C   0  0  0  0  0  0  0  0  0  0  0  0
    1.9518   -0.1485    0.0455 C   0  0  0  0  0  0  0  0  0  0  0  0
    1.9403    1.1881   -0.0452 C   0  0  0  0  0  0  0  0  0  0  0  0
    3.2495   -0.8237    0.0926 C   0  0  0  0  0  0  0  0  0  0  0  0
   -1.4211   -2.1515    0.7170 H   0  0  0  0  0  0  0  0  0  0  0  0
   -2.8964   -0.6114    1.7302 H   0  0  0  0  0  0  0  0  0  0  0  0
   -4.0075    1.3210    0.1977 H   0  0  0  0  0  0  0  0  0  0  0  0
   -2.0466    2.6193   -0.3778 H   0  0  0  0  0  0  0  0  0  0  0  0
    0.8943   -1.9155    0.1542 H   0  0  0  0  0  0  0  0  0  0  0  0
    2.8264    1.8096   -0.0862 H   0  0  0  0  0  0  0  0  0  0  0  0
   -2.1499   -0.9992   -1.7782 H   0  0  0  0  0  0  0  0  0  0  0  0
   -4.8416   -0.8977    0.5974 H   0  0  0  0  0  0  0  0  0  0  0  0
    3.9140   -2.6467    0.2164 H   0  0  0  0  0  0  0  0  0  0  0  0
  1  7  1  0  0  0  0
  1 23  1  0  0  0  0
  2  9  1  0  0  0  0
  2 24  1  0  0  0  0
  3 13  2  0  0  0  0
  4 16  1  0  0  0  0
  4 25  1  0  0  0  0
  5 16  2  0  0  0  0
  6  8  1  0  0  0  0
  6 14  1  0  0  0  0
  6 21  1  0  0  0  0
  7  8  1  0  0  0  0
  7  9  1  0  0  0  0
  7 17  1  0  0  0  0
  8 10  2  0  0  0  0
  9 11  1  0  0  0  0
  9 18  1  0  0  0  0
 10 12  1  0  0  0  0
 10 13  1  0  0  0  0
 11 12  2  0  0  0  0
 11 19  1  0  0  0  0
 12 20  1  0  0  0  0
 13 15  1  0  0  0  0
 14 15  2  0  0  0  0
 14 16  1  0  0  0  0
 15 22  1  0  0  0  0
M  END
> <PUBCHEM_COMPOUND_CID>
439458

> <PUBCHEM_CONFORMER_RMSD>
0.6

> <PUBCHEM_CONFORMER_DIVERSEORDER>
3
1
2
4

> <PUBCHEM_MMFF94_PARTIAL_CHARGES>
23
1 -0.68
10 0.01
11 -0.29
12 -0.15
13 0.54
14 0.11
15 -0.14
16 0.71
19 0.15
2 -0.68
20 0.15
21 0.4
22 0.15
23 0.4
24 0.4
25 0.5
3 -0.57
4 -0.65
5 -0.57
6 -0.6
7 0.42
8 -0.04
9 0.42

> <PUBCHEM_EFFECTIVE_ROTOR_COUNT>
1.4

> <PUBCHEM_PHARMACOPHORE_FEATURES>
12
1 1 acceptor
1 1 donor
1 2 acceptor
1 2 donor
1 3 acceptor
1 4 acceptor
1 5 acceptor
1 6 cation
1 6 donor
3 4 5 16 anion
6 6 8 10 13 14 15 rings
6 7 8 9 10 11 12 rings

> <PUBCHEM_HEAVY_ATOM_COUNT>
16

> <PUBCHEM_ATOM_DEF_STEREO_COUNT>
0

> <PUBCHEM_ATOM_UDEF_STEREO_COUNT>
2

> <PUBCHEM_BOND_DEF_STEREO_COUNT>
0

> <PUBCHEM_BOND_UDEF_STEREO_COUNT>
0

> <PUBCHEM_ISOTOPIC_ATOM_COUNT>
0

> <PUBCHEM_COMPONENT_COUNT>
1

> <PUBCHEM_CACTVS_TAUTO_COUNT>
3

> <PUBCHEM_CONFORMER_ID>
0006B4A200000003

> <PUBCHEM_MMFF94_ENERGY>
39.4584

> <PUBCHEM_FEATURE_SELFOVERLAP>
60.985

> <PUBCHEM_SHAPE_FINGERPRINT>
10618630 7 18342173423044282058
10967382 1 18267302023783873616
10989021 7 18339643339050629209
11132069 177 18337115656676736104
11769659 78 18409730647095977987
12032990 46 18411131472080668738
12251169 10 18260546697315063907
12553582 1 18410580565421663518
13140716 1 18338802320230042936
13221675 6 18412543223404118818
14115302 16 17560791092177111823
14144814 61 18410292536076653602
15196674 1 18411698807079583296
15279308 51 18261679168674662109
15375462 189 18131067181657423562
15442244 35 18409726261929366913
15536298 74 18262235517516927104
16945 1 18195529181793298125
17804303 29 18261387862433609504
193761 8 17907294356213521962
200 152 18113628876297361303
20510252 161 18045504368111430776
20559304 39 18339357448836982264
20645477 70 18126855893679061211
20871998 184 18261394515327206844
20871998 22 18335974359159331862
21029758 27 18343010078014604797
21267235 1 18411125935873358786
21296965 67 18411136948026840616
21501502 16 18339071597573615477
21501925 9 18411423882044069696
221490 88 18198898107180535635
22213442 358 18410856555497985008
22445834 79 18264483992877959297
232386 152 18411411800353800748
2334 1 18411420574998489768
23402539 116 18188220908713799229
23463225 33 18411696616804498366
23552423 10 18122906426015104365
23557571 272 18261383477941777086
2748010 2 18410583898068164028
34934 24 18341339993056250752
427121 178 15796759049257144897
5104073 3 18411136960927496232
6992083 37 18261944232660618377
7364860 26 18192712250378315456
81228 2 18196924698604658144
8809292 202 18130500834464369083

> <PUBCHEM_SHAPE_MULTIPOLES>
294.94
6.04
2.4
0.69
1.69
1.03
-0.07
-2.83
0.56
0.11
-0.22
-0.24
-0.14
-0.19

> <PUBCHEM_SHAPE_SELFOVERLAP>
639.136

> <PUBCHEM_SHAPE_VOLUME>
158.9

> <PUBCHEM_COORDINATE_TYPE>
2
5
10

$$$$

