553
  -OEChem-07051212503D

 23 22  0     1  0  0  0  0  0999 V2000
   -0.4992    0.5963   -1.4578 O   0  0  0  0  0  0  0  0  0  0  0  0
    1.8787    1.5231   -0.1074 O   0  0  0  0  0  0  0  0  0  0  0  0
   -4.3749    0.9987   -0.0392 O   0  0  0  0  0  0  0  0  0  0  0  0
   -3.1254    0.0861    1.6221 O   0  0  0  0  0  0  0  0  0  0  0  0
    4.2803    0.8845    0.3127 O   0  0  0  0  0  0  0  0  0  0  0  0
    3.7208   -1.3409    0.3255 O   0  0  0  0  0  0  0  0  0  0  0  0
   -0.4515   -0.2012   -0.2775 C   0  0  1  0  0  0  0  0  0  0  0  0
   -1.5127   -1.3092   -0.3580 C   0  0  0  0  0  0  0  0  0  0  0  0
    0.9659   -0.7443   -0.0663 C   0  0  0  0  0  0  0  0  0  0  0  0
   -2.9202   -0.7764   -0.6474 C   0  0  0  0  0  0  0  0  0  0  0  0
    2.0438    0.3173   -0.0014 C   0  0  0  0  0  0  0  0  0  0  0  0
   -3.4511    0.1267    0.4439 C   0  0  0  0  0  0  0  0  0  0  0  0
    3.4455   -0.1606    0.2507 C   0  0  0  0  0  0  0  0  0  0  0  0
   -0.6916    0.4662    0.5585 H   0  0  0  0  0  0  0  0  0  0  0  0
   -1.5125   -1.8851    0.5751 H   0  0  0  0  0  0  0  0  0  0  0  0
   -1.2481   -2.0003   -1.1681 H   0  0  0  0  0  0  0  0  0  0  0  0
    1.2252   -1.4021   -0.9047 H   0  0  0  0  0  0  0  0  0  0  0  0
    0.9995   -1.3249    0.8623 H   0  0  0  0  0  0  0  0  0  0  0  0
   -2.9224   -0.2289   -1.5965 H   0  0  0  0  0  0  0  0  0  0  0  0
   -3.6170   -1.6164   -0.7448 H   0  0  0  0  0  0  0  0  0  0  0  0
    0.0775    1.3667   -1.3226 H   0  0  0  0  0  0  0  0  0  0  0  0
   -4.7310    1.5809    0.6655 H   0  0  0  0  0  0  0  0  0  0  0  0
    5.2113    0.6090    0.4529 H   0  0  0  0  0  0  0  0  0  0  0  0
  1  7  1  0  0  0  0
  1 21  1  0  0  0  0
  2 11  2  0  0  0  0
  3 12  1  0  0  0  0
  3 22  1  0  0  0  0
  4 12  2  0  0  0  0
  5 13  1  0  0  0  0
  5 23  1  0  0  0  0
  6 13  2  0  0  0  0
  7  8  1  0  0  0  0
  7  9  1  0  0  0  0
  7 14  1  0  0  0  0
  8 10  1  0  0  0  0
  8 15  1  0  0  0  0
  8 16  1  0  0  0  0
  9 11  1  0  0  0  0
  9 17  1  0  0  0  0
  9 18  1  0  0  0  0
 10 12  1  0  0  0  0
 10 19  1  0  0  0  0
 10 20  1  0  0  0  0
 11 13  1  0  0  0  0
M  END
> <PUBCHEM_COMPOUND_CID>
553

> <PUBCHEM_CONFORMER_RMSD>
0.6

> <PUBCHEM_CONFORMER_DIVERSEORDER>
2
173
144
8
197
185
134
189
40
167
141
5
178
3
10
38
142
159
72
195
169
89
160
138
161
94
126
172
28
97
192
137
180
9
177
63
166
33
194
152
49
96
103
196
34
191
23
187
20
155
67
18
135
30
133
114
120
29
184
188
39
100
110
147
46
175
158
104
123
14
129
163
17
124
92
153
73
59
115
139
116
91
150
76
148
105
75
64
25
87
70
131
117
42
128
80
24
140
119
19
16
95
130
181
186
183
190
118
145
108
86
55
165
43
156
98
93
157
6
102
54
77
74
83
168
193
162
149
51
176
52
198
154
151
36
99
112
121
56
57
182
146
127
174
88
13
45
26
37
11
122
12
107
44
7
179
171
164
4
143
170
35
125
65
50
48
69
15
41
21
61
32
101
113
109
68
27
58
84
85
62
1
106
82
79
60
22
71
81
78
47
66
53
132
136
90
111
31

> <PUBCHEM_MMFF94_PARTIAL_CHARGES>
15
1 -0.68
10 0.06
11 0.51
12 0.66
13 0.72
2 -0.57
21 0.4
22 0.5
23 0.5
3 -0.65
4 -0.57
5 -0.65
6 -0.57
7 0.28
9 0.06

> <PUBCHEM_EFFECTIVE_ROTOR_COUNT>
6

> <PUBCHEM_PHARMACOPHORE_FEATURES>
9
1 1 acceptor
1 1 donor
1 2 acceptor
1 3 acceptor
1 4 acceptor
1 5 acceptor
1 6 acceptor
3 3 4 12 anion
3 5 6 13 anion

> <PUBCHEM_HEAVY_ATOM_COUNT>
13

> <PUBCHEM_ATOM_DEF_STEREO_COUNT>
0

> <PUBCHEM_ATOM_UDEF_STEREO_COUNT>
1

> <PUBCHEM_BOND_DEF_STEREO_COUNT>
0

> <PUBCHEM_BOND_UDEF_STEREO_COUNT>
0

> <PUBCHEM_ISOTOPIC_ATOM_COUNT>
0

> <PUBCHEM_COMPONENT_COUNT>
1

> <PUBCHEM_CACTVS_TAUTO_COUNT>
2

> <PUBCHEM_CONFORMER_ID>
0000022900000002

> <PUBCHEM_MMFF94_ENERGY>
16.0771

> <PUBCHEM_FEATURE_SELFOVERLAP>
45.8

> <PUBCHEM_SHAPE_FINGERPRINT>
12162725 195 17822007575804098649
12251169 10 18411981330001979407
124424 183 16515686641206737354
12932764 1 17417829313125761038
13675066 3 18273493472607256217
14144814 61 18335422352634894074
14445660 50 18339361868574536286
17844478 74 17703795833611705908
18342897 14 18410294705330485040
18511873 20 18334858315986019275
20279233 1 16415208857660620635
20281407 28 17275386516627048474
20281475 54 18201722821340496438
20339313 130 17275098419048047292
20645477 70 18200048338125024502
20871999 31 9078835135416316499
21061003 4 16559032666844477191
21293036 1 5978385010772483719
22169311 14 17774997982028625001
22485316 2 15052018948222612120
23402539 116 17095250211666769341
23557571 272 14779539046548813073
528716 315 10231757786367961499
53428517 58 8358251544967092042

> <PUBCHEM_SHAPE_MULTIPOLES>
232.32
8.21
1.23
0.96
0.81
0.05
-0.05
-1.31
-1.7
0.24
0.06
-0.66
-0.08
-0.37

> <PUBCHEM_SHAPE_SELFOVERLAP>
451.308

> <PUBCHEM_SHAPE_VOLUME>
138.5

> <PUBCHEM_COORDINATE_TYPE>
2
5
10

$$$$

