5282152
  -OEChem-07051213032D

 72 76  0     1  0  0  0  0  0999 V2000
   12.1254    0.8990    0.0000 O   0  0  0  0  0  0  0  0  0  0  0  0
   11.2690   -1.6044    0.0000 O   0  0  0  0  0  0  0  0  0  0  0  0
   13.8574    0.9056    0.0000 O   0  0  0  0  0  0  0  0  0  0  0  0
   13.8613   -0.0944    0.0000 O   0  0  0  0  0  0  0  0  0  0  0  0
   10.3972   -0.1077    0.0000 O   0  0  0  0  0  0  0  0  0  0  0  0
   13.8690   -2.0944    0.0000 O   0  0  0  0  0  0  0  0  0  0  0  0
   12.1177    2.8989    0.0000 O   0  0  0  0  0  0  0  0  0  0  0  0
   13.8458    3.9056    0.0000 O   0  0  0  0  0  0  0  0  0  0  0  0
   15.5817    2.9123    0.0000 O   0  0  0  0  0  0  0  0  0  0  0  0
   13.0087   -3.5977    0.0000 O   0  0  0  0  0  0  0  0  0  0  0  0
    6.8671   -0.1319    0.0000 O   0  0  0  0  0  0  0  0  0  0  0  0
    8.6155   -3.1665    0.0000 O   0  0  0  0  0  0  0  0  0  0  0  0
    6.8671   -3.1319    0.0000 O   0  0  0  0  0  0  0  0  0  0  0  0
    4.2690    2.3681    0.0000 O   0  0  0  0  0  0  0  0  0  0  0  0
    2.5369    1.3681    0.0000 O   0  0  0  0  0  0  0  0  0  0  0  0
   12.1292   -0.1010    0.0000 C   0  0  2  0  0  0  0  0  0  0  0  0
   12.9972   -0.5977    0.0000 C   0  0  2  0  0  0  0  0  0  0  0  0
   13.0010   -1.5977    0.0000 C   0  0  1  0  0  0  0  0  0  0  0  0
   12.9895    1.4023    0.0000 C   0  0  2  0  0  0  0  0  0  0  0  0
   12.9856    2.4023    0.0000 C   0  0  1  0  0  0  0  0  0  0  0  0
   11.2651   -0.6044    0.0000 C   0  0  1  0  0  0  0  0  0  0  0  0
   12.1369   -2.1010    0.0000 C   0  0  1  0  0  0  0  0  0  0  0  0
   13.8497    2.9056    0.0000 C   0  0  1  0  0  0  0  0  0  0  0  0
   14.7176    2.4090    0.0000 C   0  0  2  0  0  0  0  0  0  0  0  0
   14.7215    1.4090    0.0000 C   0  0  2  0  0  0  0  0  0  0  0  0
   12.1408   -3.1010    0.0000 C   0  0  0  0  0  0  0  0  0  0  0  0
   15.5894    0.9123    0.0000 C   0  0  0  0  0  0  0  0  0  0  0  0
    9.5331   -0.6111    0.0000 C   0  0  0  0  0  0  0  0  0  0  0  0
    8.6270   -0.0972    0.0000 C   0  0  0  0  0  0  0  0  0  0  0  0
    9.5331   -1.6527    0.0000 C   0  0  0  0  0  0  0  0  0  0  0  0
    7.7331   -0.6319    0.0000 C   0  0  0  0  0  0  0  0  0  0  0  0
    8.6270   -2.1665    0.0000 C   0  0  0  0  0  0  0  0  0  0  0  0
    7.7331   -1.6319    0.0000 C   0  0  0  0  0  0  0  0  0  0  0  0
    6.8671   -2.1319    0.0000 C   0  0  0  0  0  0  0  0  0  0  0  0
    6.0010   -0.6319    0.0000 C   0  0  0  0  0  0  0  0  0  0  0  0
    6.0010   -1.6319    0.0000 C   0  0  0  0  0  0  0  0  0  0  0  0
    5.1350   -0.1319    0.0000 C   0  0  0  0  0  0  0  0  0  0  0  0
    5.1350    0.8681    0.0000 C   0  0  0  0  0  0  0  0  0  0  0  0
    4.2690   -0.6319    0.0000 C   0  0  0  0  0  0  0  0  0  0  0  0
    4.2690    1.3681    0.0000 C   0  0  0  0  0  0  0  0  0  0  0  0
    3.4030   -0.1319    0.0000 C   0  0  0  0  0  0  0  0  0  0  0  0
    3.4030    0.8681    0.0000 C   0  0  0  0  0  0  0  0  0  0  0  0
   12.6650    0.2110    0.0000 H   0  0  0  0  0  0  0  0  0  0  0  0
   13.5353   -0.9056    0.0000 H   0  0  0  0  0  0  0  0  0  0  0  0
   13.0034   -2.2177    0.0000 H   0  0  0  0  0  0  0  0  0  0  0  0
   12.9919    0.7823    0.0000 H   0  0  0  0  0  0  0  0  0  0  0  0
   12.4499    2.0902    0.0000 H   0  0  0  0  0  0  0  0  0  0  0  0
   10.7294   -0.9164    0.0000 H   0  0  0  0  0  0  0  0  0  0  0  0
   11.6012   -2.4131    0.0000 H   0  0  0  0  0  0  0  0  0  0  0  0
   14.3854    3.2177    0.0000 H   0  0  0  0  0  0  0  0  0  0  0  0
   15.2558    2.1010    0.0000 H   0  0  0  0  0  0  0  0  0  0  0  0
   14.7239    0.7890    0.0000 H   0  0  0  0  0  0  0  0  0  0  0  0
   11.5298   -2.9957    0.0000 H   0  0  0  0  0  0  0  0  0  0  0  0
   11.9310   -3.6844    0.0000 H   0  0  0  0  0  0  0  0  0  0  0  0
   15.2815    0.3742    0.0000 H   0  0  0  0  0  0  0  0  0  0  0  0
   16.1276    0.6044    0.0000 H   0  0  0  0  0  0  0  0  0  0  0  0
   15.8974    1.4504    0.0000 H   0  0  0  0  0  0  0  0  0  0  0  0
   14.3994   -0.4023    0.0000 H   0  0  0  0  0  0  0  0  0  0  0  0
   14.4047   -1.7823    0.0000 H   0  0  0  0  0  0  0  0  0  0  0  0
   12.1153    3.5189    0.0000 H   0  0  0  0  0  0  0  0  0  0  0  0
   14.3816    4.2177    0.0000 H   0  0  0  0  0  0  0  0  0  0  0  0
   16.1199    2.6044    0.0000 H   0  0  0  0  0  0  0  0  0  0  0  0
   13.0111   -4.2177    0.0000 H   0  0  0  0  0  0  0  0  0  0  0  0
    8.6199    0.5228    0.0000 H   0  0  0  0  0  0  0  0  0  0  0  0
   10.0688   -1.9648    0.0000 H   0  0  0  0  0  0  0  0  0  0  0  0
    5.4641   -1.9419    0.0000 H   0  0  0  0  0  0  0  0  0  0  0  0
    9.1488   -3.4826    0.0000 H   0  0  0  0  0  0  0  0  0  0  0  0
    5.6720    1.1781    0.0000 H   0  0  0  0  0  0  0  0  0  0  0  0
    4.2690   -1.2519    0.0000 H   0  0  0  0  0  0  0  0  0  0  0  0
    2.8660   -0.4419    0.0000 H   0  0  0  0  0  0  0  0  0  0  0  0
    3.7320    2.6781    0.0000 H   0  0  0  0  0  0  0  0  0  0  0  0
    2.0000    1.0581    0.0000 H   0  0  0  0  0  0  0  0  0  0  0  0
 16  1  1  6  0  0  0
 19  1  1  1  0  0  0
  2 21  1  0  0  0  0
  2 22  1  0  0  0  0
  3 19  1  0  0  0  0
  3 25  1  0  0  0  0
 17  4  1  1  0  0  0
  4 58  1  0  0  0  0
 21  5  1  1  0  0  0
  5 28  1  0  0  0  0
 18  6  1  6  0  0  0
  6 59  1  0  0  0  0
 20  7  1  6  0  0  0
  7 60  1  0  0  0  0
 23  8  1  6  0  0  0
  8 61  1  0  0  0  0
 24  9  1  1  0  0  0
  9 62  1  0  0  0  0
 10 26  1  0  0  0  0
 10 63  1  0  0  0  0
 11 31  1  0  0  0  0
 11 35  1  0  0  0  0
 12 32  1  0  0  0  0
 12 67  1  0  0  0  0
 13 34  2  0  0  0  0
 14 40  1  0  0  0  0
 14 71  1  0  0  0  0
 15 42  1  0  0  0  0
 15 72  1  0  0  0  0
 16 17  1  0  0  0  0
 16 21  1  0  0  0  0
 16 43  1  0  0  0  0
 17 18  1  0  0  0  0
 17 44  1  0  0  0  0
 18 22  1  0  0  0  0
 18 45  1  0  0  0  0
 19 20  1  0  0  0  0
 19 46  1  0  0  0  0
 20 23  1  0  0  0  0
 20 47  1  0  0  0  0
 21 48  1  0  0  0  0
 22 26  1  1  0  0  0
 22 49  1  0  0  0  0
 23 24  1  0  0  0  0
 23 50  1  0  0  0  0
 24 25  1  0  0  0  0
 24 51  1  0  0  0  0
 25 27  1  6  0  0  0
 25 52  1  0  0  0  0
 26 53  1  0  0  0  0
 26 54  1  0  0  0  0
 27 55  1  0  0  0  0
 27 56  1  0  0  0  0
 27 57  1  0  0  0  0
 28 29  1  0  0  0  0
 28 30  2  0  0  0  0
 29 31  2  0  0  0  0
 29 64  1  0  0  0  0
 30 32  1  0  0  0  0
 30 65  1  0  0  0  0
 31 33  1  0  0  0  0
 32 33  2  0  0  0  0
 33 34  1  0  0  0  0
 34 36  1  0  0  0  0
 35 36  2  0  0  0  0
 35 37  1  0  0  0  0
 36 66  1  0  0  0  0
 37 38  2  0  0  0  0
 37 39  1  0  0  0  0
 38 40  1  0  0  0  0
 38 68  1  0  0  0  0
 39 41  2  0  0  0  0
 39 69  1  0  0  0  0
 40 42  2  0  0  0  0
 41 42  1  0  0  0  0
 41 70  1  0  0  0  0
M  END
> <PUBCHEM_COMPOUND_CID>
5282152

> <PUBCHEM_COMPOUND_CANONICALIZED>
1

> <PUBCHEM_CACTVS_COMPLEXITY>
979

> <PUBCHEM_CACTVS_HBOND_ACCEPTOR>
15

> <PUBCHEM_CACTVS_HBOND_DONOR>
9

> <PUBCHEM_CACTVS_ROTATABLE_BOND>
6

> <PUBCHEM_CACTVS_SUBSKEYS>
AAADceB4PAAAAAAAAAAAAAAAAAAAAAAAAAA0aIECAAAAAACBQAAAGgAACAAADBSwmAMyDoAABgCIAqBSAAACCAAkIAAIiAEGiMgdNzaGNRqieWGl4BUPuQfI7LzOIAABCAAIQABAAAIQABCAAAAAAAAAAA==

> <PUBCHEM_IUPAC_OPENEYE_NAME>
7-[(2S,3R,4S,5S,6R)-4,5-dihydroxy-6-(hydroxymethyl)-3-[(2S,3R,4R,5R,6S)-3,4,5-trihydroxy-6-methyl-tetrahydropyran-2-yl]oxy-tetrahydropyran-2-yl]oxy-2-(3,4-dihydroxyphenyl)-5-hydroxy-chromen-4-one

> <PUBCHEM_IUPAC_CAS_NAME>
7-[[(2S,3R,4S,5S,6R)-4,5-dihydroxy-6-(hydroxymethyl)-3-[[(2S,3R,4R,5R,6S)-3,4,5-trihydroxy-6-methyl-2-oxanyl]oxy]-2-oxanyl]oxy]-2-(3,4-dihydroxyphenyl)-5-hydroxy-1-benzopyran-4-one

> <PUBCHEM_IUPAC_NAME>
7-[(2S,3R,4S,5S,6R)-4,5-dihydroxy-6-(hydroxymethyl)-3-[(2S,3R,4R,5R,6S)-3,4,5-trihydroxy-6-methyloxan-2-yl]oxyoxan-2-yl]oxy-2-(3,4-dihydroxyphenyl)-5-hydroxychromen-4-one

> <PUBCHEM_IUPAC_SYSTEMATIC_NAME>
2-[3,4-bis(oxidanyl)phenyl]-7-[(2S,3R,4S,5S,6R)-6-(hydroxymethyl)-3-[(2S,3R,4R,5R,6S)-6-methyl-3,4,5-tris(oxidanyl)oxan-2-yl]oxy-4,5-bis(oxidanyl)oxan-2-yl]oxy-5-oxidanyl-chromen-4-one

> <PUBCHEM_IUPAC_TRADITIONAL_NAME>
7-[(2S,3R,4S,5S,6R)-4,5-dihydroxy-6-methylol-3-[(2S,3R,4R,5R,6S)-3,4,5-trihydroxy-6-methyl-tetrahydropyran-2-yl]oxy-tetrahydropyran-2-yl]oxy-2-(3,4-dihydroxyphenyl)-5-hydroxy-chromone

> <PUBCHEM_IUPAC_INCHI>
InChI=1S/C27H30O15/c1-9-20(33)22(35)24(37)26(38-9)42-25-23(36)21(34)18(8-28)41-27(25)39-11-5-14(31)19-15(32)7-16(40-17(19)6-11)10-2-3-12(29)13(30)4-10/h2-7,9,18,20-31,33-37H,8H2,1H3/t9-,18+,20-,21+,22+,23-,24+,25+,26-,27+/m0/s1

> <PUBCHEM_IUPAC_INCHIKEY>
SHPPXMGVUDNKLV-KMFFXDMSSA-N

> <PUBCHEM_XLOGP3_AA>
-0.6

> <PUBCHEM_EXACT_MASS>
594.15847

> <PUBCHEM_MOLECULAR_FORMULA>
C27H30O15

> <PUBCHEM_MOLECULAR_WEIGHT>
594.5181

> <PUBCHEM_OPENEYE_CAN_SMILES>
CC1C(C(C(C(O1)OC2C(C(C(OC2OC3=CC(=C4C(=C3)OC(=CC4=O)C5=CC(=C(C=C5)O)O)O)CO)O)O)O)O)O

> <PUBCHEM_OPENEYE_ISO_SMILES>
C[C@H]1[C@@H]([C@H]([C@H]([C@@H](O1)O[C@@H]2[C@H]([C@@H]([C@H](O[C@H]2OC3=CC(=C4C(=C3)OC(=CC4=O)C5=CC(=C(C=C5)O)O)O)CO)O)O)O)O)O

> <PUBCHEM_CACTVS_TPSA>
245

> <PUBCHEM_MONOISOTOPIC_WEIGHT>
594.15847

> <PUBCHEM_TOTAL_CHARGE>
0

> <PUBCHEM_HEAVY_ATOM_COUNT>
42

> <PUBCHEM_ATOM_DEF_STEREO_COUNT>
10

> <PUBCHEM_ATOM_UDEF_STEREO_COUNT>
0

> <PUBCHEM_BOND_DEF_STEREO_COUNT>
0

> <PUBCHEM_BOND_UDEF_STEREO_COUNT>
0

> <PUBCHEM_ISOTOPIC_ATOM_COUNT>
0

> <PUBCHEM_COMPONENT_COUNT>
1

> <PUBCHEM_CACTVS_TAUTO_COUNT>
68

> <PUBCHEM_COORDINATE_TYPE>
1
5
255

> <PUBCHEM_BONDANNOTATIONS>
16  1  6
19  1  5
11  31  8
11  35  8
22  26  5
25  27  6
28  29  8
28  30  8
29  31  8
30  32  8
31  33  8
32  33  8
33  34  8
34  36  8
35  36  8
37  38  8
37  39  8
38  40  8
39  41  8
17  4  5
40  42  8
41  42  8
21  5  5
18  6  6
20  7  6
23  8  6
24  9  5

$$$$

