229455
  -OEChem-07051212542D

 64 68  0     1  0  0  0  0  0999 V2000
    8.6500    0.0695    0.0000 O   0  0  0  0  0  0  0  0  0  0  0  0
    2.0000   -4.2381    0.0000 O   0  0  0  0  0  0  0  0  0  0  0  0
   10.2963   -0.4686    0.0000 O   0  0  0  0  0  0  0  0  0  0  0  0
    7.3931   -2.1858    0.0000 C   0  0  2  0  0  0  0  0  0  0  0  0
    7.3931   -1.1858    0.0000 C   0  0  2  0  0  0  0  0  0  0  0  0
    6.5271   -2.6858    0.0000 C   0  0  1  0  0  0  0  0  0  0  0  0
    5.6610   -2.1858    0.0000 C   0  0  2  0  0  0  0  0  0  0  0  0
    6.5271   -0.6858    0.0000 C   0  0  0  0  0  0  0  0  0  0  0  0
    8.3393   -0.8811    0.0000 C   0  0  2  0  0  0  0  0  0  0  0  0
    8.3393   -2.4905    0.0000 C   0  0  0  0  0  0  0  0  0  0  0  0
    5.6610   -1.1858    0.0000 C   0  0  0  0  0  0  0  0  0  0  0  0
    4.7510   -2.6926    0.0000 C   0  0  2  0  0  0  0  0  0  0  0  0
    8.9229   -1.6858    0.0000 C   0  0  0  0  0  0  0  0  0  0  0  0
    6.5431   -3.7273    0.0000 C   0  0  0  0  0  0  0  0  0  0  0  0
    7.3931   -0.1858    0.0000 C   0  0  0  0  0  0  0  0  0  0  0  0
    5.6451   -4.2551    0.0000 C   0  0  0  0  0  0  0  0  0  0  0  0
    4.7430   -3.7342    0.0000 C   0  0  0  0  0  0  0  0  0  0  0  0
    3.8242   -2.1286    0.0000 C   0  0  0  0  0  0  0  0  0  0  0  0
    2.8763   -2.6565    0.0000 C   0  0  0  0  0  0  0  0  0  0  0  0
    3.8076   -4.2840    0.0000 C   0  0  0  0  0  0  0  0  0  0  0  0
    2.8680   -3.7415    0.0000 C   0  0  0  0  0  0  0  0  0  0  0  0
    9.6285    0.2757    0.0000 C   0  0  0  0  0  0  0  0  0  0  0  0
    9.9391    1.2262    0.0000 C   0  0  0  0  0  0  0  0  0  0  0  0
   10.9176    1.4324    0.0000 C   0  0  0  0  0  0  0  0  0  0  0  0
   11.2283    2.3829    0.0000 C   0  0  0  0  0  0  0  0  0  0  0  0
   12.2068    2.5892    0.0000 C   0  0  0  0  0  0  0  0  0  0  0  0
   10.5605    3.1272    0.0000 C   0  0  0  0  0  0  0  0  0  0  0  0
   12.5175    3.5397    0.0000 C   0  0  0  0  0  0  0  0  0  0  0  0
   10.8711    4.0778    0.0000 C   0  0  0  0  0  0  0  0  0  0  0  0
   11.8496    4.2840    0.0000 C   0  0  0  0  0  0  0  0  0  0  0  0
    7.4830   -3.0310    0.0000 H   0  0  0  0  0  0  0  0  0  0  0  0
    7.2664   -3.1051    0.0000 H   0  0  0  0  0  0  0  0  0  0  0  0
    6.3972   -1.7608    0.0000 H   0  0  0  0  0  0  0  0  0  0  0  0
    6.9256   -0.2109    0.0000 H   0  0  0  0  0  0  0  0  0  0  0  0
    6.1285   -0.2109    0.0000 H   0  0  0  0  0  0  0  0  0  0  0  0
    7.9018   -0.4417    0.0000 H   0  0  0  0  0  0  0  0  0  0  0  0
    8.0883   -3.0574    0.0000 H   0  0  0  0  0  0  0  0  0  0  0  0
    8.8767   -2.7998    0.0000 H   0  0  0  0  0  0  0  0  0  0  0  0
    5.4490   -0.6032    0.0000 H   0  0  0  0  0  0  0  0  0  0  0  0
    5.0504   -1.2935    0.0000 H   0  0  0  0  0  0  0  0  0  0  0  0
    4.7674   -1.8428    0.0000 H   0  0  0  0  0  0  0  0  0  0  0  0
    9.3838   -2.1005    0.0000 H   0  0  0  0  0  0  0  0  0  0  0  0
    9.3838   -1.2711    0.0000 H   0  0  0  0  0  0  0  0  0  0  0  0
    6.7612   -4.3077    0.0000 H   0  0  0  0  0  0  0  0  0  0  0  0
    7.1523   -3.6118    0.0000 H   0  0  0  0  0  0  0  0  0  0  0  0
    8.0131   -0.1858    0.0000 H   0  0  0  0  0  0  0  0  0  0  0  0
    7.3931    0.4342    0.0000 H   0  0  0  0  0  0  0  0  0  0  0  0
    6.7731   -0.1858    0.0000 H   0  0  0  0  0  0  0  0  0  0  0  0
    5.2478   -4.7310    0.0000 H   0  0  0  0  0  0  0  0  0  0  0  0
    6.0460   -4.7280    0.0000 H   0  0  0  0  0  0  0  0  0  0  0  0
    4.2324   -1.6619    0.0000 H   0  0  0  0  0  0  0  0  0  0  0  0
    3.4343   -1.6465    0.0000 H   0  0  0  0  0  0  0  0  0  0  0  0
    2.6718   -2.0712    0.0000 H   0  0  0  0  0  0  0  0  0  0  0  0
    2.2647   -2.7579    0.0000 H   0  0  0  0  0  0  0  0  0  0  0  0
    3.8100   -4.9040    0.0000 H   0  0  0  0  0  0  0  0  0  0  0  0
    9.9186    1.8458    0.0000 H   0  0  0  0  0  0  0  0  0  0  0  0
    9.3253    1.3135    0.0000 H   0  0  0  0  0  0  0  0  0  0  0  0
   10.9382    0.8128    0.0000 H   0  0  0  0  0  0  0  0  0  0  0  0
   11.5315    1.3451    0.0000 H   0  0  0  0  0  0  0  0  0  0  0  0
   12.6209    2.1277    0.0000 H   0  0  0  0  0  0  0  0  0  0  0  0
    9.9538    2.9994    0.0000 H   0  0  0  0  0  0  0  0  0  0  0  0
   13.1241    3.6675    0.0000 H   0  0  0  0  0  0  0  0  0  0  0  0
   10.4571    4.5392    0.0000 H   0  0  0  0  0  0  0  0  0  0  0  0
   12.0422    4.8733    0.0000 H   0  0  0  0  0  0  0  0  0  0  0  0
  9  1  1  1  0  0  0
  1 22  1  0  0  0  0
  2 21  2  0  0  0  0
  3 22  2  0  0  0  0
  4  5  1  0  0  0  0
  4  6  1  0  0  0  0
  4 10  1  0  0  0  0
  4 31  1  6  0  0  0
  5  8  1  0  0  0  0
  5  9  1  0  0  0  0
  5 15  1  1  0  0  0
  6  7  1  0  0  0  0
  6 14  1  0  0  0  0
  6 32  1  1  0  0  0
  7 11  1  0  0  0  0
  7 12  1  0  0  0  0
  7 33  1  6  0  0  0
  8 11  1  0  0  0  0
  8 34  1  0  0  0  0
  8 35  1  0  0  0  0
  9 13  1  0  0  0  0
  9 36  1  0  0  0  0
 10 13  1  0  0  0  0
 10 37  1  0  0  0  0
 10 38  1  0  0  0  0
 11 39  1  0  0  0  0
 11 40  1  0  0  0  0
 12 17  1  0  0  0  0
 12 18  1  0  0  0  0
 12 41  1  1  0  0  0
 13 42  1  0  0  0  0
 13 43  1  0  0  0  0
 14 16  1  0  0  0  0
 14 44  1  0  0  0  0
 14 45  1  0  0  0  0
 15 46  1  0  0  0  0
 15 47  1  0  0  0  0
 15 48  1  0  0  0  0
 16 17  1  0  0  0  0
 16 49  1  0  0  0  0
 16 50  1  0  0  0  0
 17 20  2  0  0  0  0
 18 19  1  0  0  0  0
 18 51  1  0  0  0  0
 18 52  1  0  0  0  0
 19 21  1  0  0  0  0
 19 53  1  0  0  0  0
 19 54  1  0  0  0  0
 20 21  1  0  0  0  0
 20 55  1  0  0  0  0
 22 23  1  0  0  0  0
 23 24  1  0  0  0  0
 23 56  1  0  0  0  0
 23 57  1  0  0  0  0
 24 25  1  0  0  0  0
 24 58  1  0  0  0  0
 24 59  1  0  0  0  0
 25 26  2  0  0  0  0
 25 27  1  0  0  0  0
 26 28  1  0  0  0  0
 26 60  1  0  0  0  0
 27 29  2  0  0  0  0
 27 61  1  0  0  0  0
 28 30  2  0  0  0  0
 28 62  1  0  0  0  0
 29 30  1  0  0  0  0
 29 63  1  0  0  0  0
 30 64  1  0  0  0  0
M  END
> <PUBCHEM_COMPOUND_CID>
229455

> <PUBCHEM_COMPOUND_CANONICALIZED>
1

> <PUBCHEM_CACTVS_COMPLEXITY>
703

> <PUBCHEM_CACTVS_HBOND_ACCEPTOR>
3

> <PUBCHEM_CACTVS_HBOND_DONOR>
0

> <PUBCHEM_CACTVS_ROTATABLE_BOND>
5

> <PUBCHEM_CACTVS_SUBSKEYS>
AAADcfB4MAAAAAAAAAAAAAAAAAAAAYAAAAAwYMEAAAAAAGDBAAAAGgAAAAAADxSgmAIyCIAABACIAqDSCAACAAAgAAAIiAEAAMgIIDKAERCCIAAkgAAIiQeIyPCPgAAAAAAAAACAAAQAACAAAIAADAAAAA==

> <PUBCHEM_IUPAC_OPENEYE_NAME>
[(8R,9S,10R,13S,14S,17S)-13-methyl-3-oxo-2,6,7,8,9,10,11,12,14,15,16,17-dodecahydro-1H-cyclopenta[a]phenanthren-17-yl] 3-phenylpropanoate

> <PUBCHEM_IUPAC_CAS_NAME>
3-phenylpropanoic acid [(8R,9S,10R,13S,14S,17S)-13-methyl-3-oxo-2,6,7,8,9,10,11,12,14,15,16,17-dodecahydro-1H-cyclopenta[a]phenanthren-17-yl] ester

> <PUBCHEM_IUPAC_NAME>
[(8R,9S,10R,13S,14S,17S)-13-methyl-3-oxo-2,6,7,8,9,10,11,12,14,15,16,17-dodecahydro-1H-cyclopenta[a]phenanthren-17-yl] 3-phenylpropanoate

> <PUBCHEM_IUPAC_SYSTEMATIC_NAME>
[(8R,9S,10R,13S,14S,17S)-13-methyl-3-oxidanylidene-2,6,7,8,9,10,11,12,14,15,16,17-dodecahydro-1H-cyclopenta[a]phenanthren-17-yl] 3-phenylpropanoate

> <PUBCHEM_IUPAC_TRADITIONAL_NAME>
3-phenylpropionic acid [(8R,9S,10R,13S,14S,17S)-3-keto-13-methyl-2,6,7,8,9,10,11,12,14,15,16,17-dodecahydro-1H-cyclopenta[a]phenanthren-17-yl] ester

> <PUBCHEM_IUPAC_INCHI>
InChI=1S/C27H34O3/c1-27-16-15-22-21-11-9-20(28)17-19(21)8-10-23(22)24(27)12-13-25(27)30-26(29)14-7-18-5-3-2-4-6-18/h2-6,17,21-25H,7-16H2,1H3/t21-,22+,23+,24-,25-,27-/m0/s1

> <PUBCHEM_IUPAC_INCHIKEY>
UBWXUGDQUBIEIZ-QNTYDACNSA-N

> <PUBCHEM_XLOGP3>
5.1

> <PUBCHEM_EXACT_MASS>
406.250795

> <PUBCHEM_MOLECULAR_FORMULA>
C27H34O3

> <PUBCHEM_MOLECULAR_WEIGHT>
406.55706

> <PUBCHEM_OPENEYE_CAN_SMILES>
CC12CCC3C(C1CCC2OC(=O)CCC4=CC=CC=C4)CCC5=CC(=O)CCC35

> <PUBCHEM_OPENEYE_ISO_SMILES>
C[C@]12CC[C@H]3[C@H]([C@@H]1CC[C@@H]2OC(=O)CCC4=CC=CC=C4)CCC5=CC(=O)CC[C@H]35

> <PUBCHEM_CACTVS_TPSA>
43.4

> <PUBCHEM_MONOISOTOPIC_WEIGHT>
406.250795

> <PUBCHEM_TOTAL_CHARGE>
0

> <PUBCHEM_HEAVY_ATOM_COUNT>
30

> <PUBCHEM_ATOM_DEF_STEREO_COUNT>
6

> <PUBCHEM_ATOM_UDEF_STEREO_COUNT>
0

> <PUBCHEM_BOND_DEF_STEREO_COUNT>
0

> <PUBCHEM_BOND_UDEF_STEREO_COUNT>
0

> <PUBCHEM_ISOTOPIC_ATOM_COUNT>
0

> <PUBCHEM_COMPONENT_COUNT>
1

> <PUBCHEM_CACTVS_TAUTO_COUNT>
8

> <PUBCHEM_COORDINATE_TYPE>
1
5
255

> <PUBCHEM_BONDANNOTATIONS>
9  1  5
12  41  5
25  26  8
25  27  8
26  28  8
27  29  8
28  30  8
29  30  8
4  31  6
5  15  5
6  32  5
7  33  6

$$$$

