46173775
  -OEChem-07051212552D

105105  0     1  0  0  0  0  0999 V2000
   12.3966    4.2009    0.0000 O   0  0  0  0  0  0  0  0  0  0  0  0
   11.6278    1.6694    0.0000 O   0  0  0  0  0  0  0  0  0  0  0  0
   13.2547   -1.9848    0.0000 O   0  0  0  0  0  0  0  0  0  0  0  0
   12.7116   -7.1525    0.0000 O   0  0  0  0  0  0  0  0  0  0  0  0
   13.0250  -10.5184    0.0000 O   0  0  0  0  0  0  0  0  0  0  0  0
   14.7851  -10.2397    0.0000 O   0  0  0  0  0  0  0  0  0  0  0  0
   10.4076    4.4100    0.0000 C   0  0  0  0  0  0  0  0  0  0  0  0
    9.4130    4.5145    0.0000 C   0  0  0  0  0  0  0  0  0  0  0  0
   10.8143    3.4964    0.0000 C   0  0  0  0  0  0  0  0  0  0  0  0
    9.0063    5.4281    0.0000 C   0  0  0  0  0  0  0  0  0  0  0  0
   11.8088    3.3919    0.0000 C   0  0  2  0  0  0  0  0  0  0  0  0
    8.0118    5.5326    0.0000 C   0  0  0  0  0  0  0  0  0  0  0  0
    7.6050    6.4462    0.0000 C   0  0  0  0  0  0  0  0  0  0  0  0
   12.2155    2.4784    0.0000 C   0  0  1  0  0  0  0  0  0  0  0  0
    6.6105    6.5507    0.0000 C   0  0  0  0  0  0  0  0  0  0  0  0
    6.2038    7.4642    0.0000 C   0  0  0  0  0  0  0  0  0  0  0  0
   14.0682   -3.8119    0.0000 C   0  0  0  0  0  0  0  0  0  0  0  0
   14.4749   -4.7255    0.0000 C   0  0  0  0  0  0  0  0  0  0  0  0
   14.6560   -3.0029    0.0000 C   0  0  0  0  0  0  0  0  0  0  0  0
   13.2101    2.3738    0.0000 C   0  0  0  0  0  0  0  0  0  0  0  0
   13.8871   -5.5345    0.0000 C   0  0  0  0  0  0  0  0  0  0  0  0
    5.2092    7.5688    0.0000 C   0  0  0  0  0  0  0  0  0  0  0  0
   14.2492   -2.0894    0.0000 C   0  0  2  0  0  0  0  0  0  0  0  0
   14.2939   -6.4480    0.0000 C   0  0  0  0  0  0  0  0  0  0  0  0
    4.8025    8.4823    0.0000 C   0  0  0  0  0  0  0  0  0  0  0  0
   13.7061   -7.2570    0.0000 C   0  0  2  0  0  0  0  0  0  0  0  0
   14.8370   -1.2803    0.0000 C   0  0  0  0  0  0  0  0  0  0  0  0
   13.6168    1.4603    0.0000 C   0  0  0  0  0  0  0  0  0  0  0  0
    3.8080    8.5868    0.0000 C   0  0  0  0  0  0  0  0  0  0  0  0
   14.1128   -8.1706    0.0000 C   0  0  0  0  0  0  0  0  0  0  0  0
   14.4303   -0.3668    0.0000 C   0  0  0  0  0  0  0  0  0  0  0  0
    3.4013    9.5004    0.0000 C   0  0  0  0  0  0  0  0  0  0  0  0
   14.6113    1.3558    0.0000 C   0  0  0  0  0  0  0  0  0  0  0  0
   13.5250   -8.9796    0.0000 C   0  0  0  0  0  0  0  0  0  0  0  0
   15.0181    0.4422    0.0000 C   0  0  0  0  0  0  0  0  0  0  0  0
    2.4067    9.6049    0.0000 C   0  0  0  0  0  0  0  0  0  0  0  0
   12.5250   -8.9796    0.0000 C   0  0  0  0  0  0  0  0  0  0  0  0
   12.2160   -9.9307    0.0000 C   0  0  2  0  0  0  0  0  0  0  0  0
   13.8341   -9.9307    0.0000 C   0  0  0  0  0  0  0  0  0  0  0  0
    2.0000   10.5184    0.0000 C   0  0  0  0  0  0  0  0  0  0  0  0
   11.2650  -10.2397    0.0000 C   0  0  0  0  0  0  0  0  0  0  0  0
   11.0091    4.5600    0.0000 H   0  0  0  0  0  0  0  0  0  0  0  0
   10.3643    5.0285    0.0000 H   0  0  0  0  0  0  0  0  0  0  0  0
    8.8114    4.3645    0.0000 H   0  0  0  0  0  0  0  0  0  0  0  0
    9.4563    3.8960    0.0000 H   0  0  0  0  0  0  0  0  0  0  0  0
   10.2127    3.3465    0.0000 H   0  0  0  0  0  0  0  0  0  0  0  0
   10.8575    2.8780    0.0000 H   0  0  0  0  0  0  0  0  0  0  0  0
    9.6079    5.5781    0.0000 H   0  0  0  0  0  0  0  0  0  0  0  0
    8.9630    6.0466    0.0000 H   0  0  0  0  0  0  0  0  0  0  0  0
   12.4254    3.3271    0.0000 H   0  0  0  0  0  0  0  0  0  0  0  0
    7.4102    5.3826    0.0000 H   0  0  0  0  0  0  0  0  0  0  0  0
    8.0550    4.9141    0.0000 H   0  0  0  0  0  0  0  0  0  0  0  0
    8.2066    6.5961    0.0000 H   0  0  0  0  0  0  0  0  0  0  0  0
    7.5618    7.0646    0.0000 H   0  0  0  0  0  0  0  0  0  0  0  0
   12.4677    1.9120    0.0000 H   0  0  0  0  0  0  0  0  0  0  0  0
    6.0089    6.4007    0.0000 H   0  0  0  0  0  0  0  0  0  0  0  0
    6.6538    5.9322    0.0000 H   0  0  0  0  0  0  0  0  0  0  0  0
    6.8054    7.6142    0.0000 H   0  0  0  0  0  0  0  0  0  0  0  0
    6.1605    8.0827    0.0000 H   0  0  0  0  0  0  0  0  0  0  0  0
   13.6375   -3.3659    0.0000 H   0  0  0  0  0  0  0  0  0  0  0  0
   13.5542   -4.1586    0.0000 H   0  0  0  0  0  0  0  0  0  0  0  0
   14.9056   -5.1714    0.0000 H   0  0  0  0  0  0  0  0  0  0  0  0
   14.9889   -4.3788    0.0000 H   0  0  0  0  0  0  0  0  0  0  0  0
   15.0867   -3.4489    0.0000 H   0  0  0  0  0  0  0  0  0  0  0  0
   15.1700   -2.6562    0.0000 H   0  0  0  0  0  0  0  0  0  0  0  0
   13.4564   -5.0885    0.0000 H   0  0  0  0  0  0  0  0  0  0  0  0
   13.3731   -5.8812    0.0000 H   0  0  0  0  0  0  0  0  0  0  0  0
   13.8117    2.5238    0.0000 H   0  0  0  0  0  0  0  0  0  0  0  0
   13.1668    2.9923    0.0000 H   0  0  0  0  0  0  0  0  0  0  0  0
    4.6077    7.4188    0.0000 H   0  0  0  0  0  0  0  0  0  0  0  0
    5.2525    6.9503    0.0000 H   0  0  0  0  0  0  0  0  0  0  0  0
   13.9971   -1.5230    0.0000 H   0  0  0  0  0  0  0  0  0  0  0  0
   14.7246   -6.8940    0.0000 H   0  0  0  0  0  0  0  0  0  0  0  0
   14.8079   -6.1013    0.0000 H   0  0  0  0  0  0  0  0  0  0  0  0
    5.4041    8.6323    0.0000 H   0  0  0  0  0  0  0  0  0  0  0  0
    4.7593    9.1008    0.0000 H   0  0  0  0  0  0  0  0  0  0  0  0
   13.3417   -7.7586    0.0000 H   0  0  0  0  0  0  0  0  0  0  0  0
   15.2677   -1.7263    0.0000 H   0  0  0  0  0  0  0  0  0  0  0  0
   15.3510   -0.9336    0.0000 H   0  0  0  0  0  0  0  0  0  0  0  0
   13.0152    1.3103    0.0000 H   0  0  0  0  0  0  0  0  0  0  0  0
   13.6601    0.8418    0.0000 H   0  0  0  0  0  0  0  0  0  0  0  0
    3.2064    8.4368    0.0000 H   0  0  0  0  0  0  0  0  0  0  0  0
    3.8512    7.9683    0.0000 H   0  0  0  0  0  0  0  0  0  0  0  0
   14.5435   -8.6166    0.0000 H   0  0  0  0  0  0  0  0  0  0  0  0
   14.6268   -7.8239    0.0000 H   0  0  0  0  0  0  0  0  0  0  0  0
   13.9996    0.0792    0.0000 H   0  0  0  0  0  0  0  0  0  0  0  0
   13.9163   -0.7135    0.0000 H   0  0  0  0  0  0  0  0  0  0  0  0
    4.0028    9.6504    0.0000 H   0  0  0  0  0  0  0  0  0  0  0  0
    3.3580   10.1189    0.0000 H   0  0  0  0  0  0  0  0  0  0  0  0
   14.9758    1.8574    0.0000 H   0  0  0  0  0  0  0  0  0  0  0  0
   12.1444    4.7673    0.0000 H   0  0  0  0  0  0  0  0  0  0  0  0
   15.6347    0.3774    0.0000 H   0  0  0  0  0  0  0  0  0  0  0  0
   11.0112    1.7342    0.0000 H   0  0  0  0  0  0  0  0  0  0  0  0
    1.8052    9.4549    0.0000 H   0  0  0  0  0  0  0  0  0  0  0  0
    2.4500    8.9864    0.0000 H   0  0  0  0  0  0  0  0  0  0  0  0
   13.0025   -1.4184    0.0000 H   0  0  0  0  0  0  0  0  0  0  0  0
   12.1606   -8.4780    0.0000 H   0  0  0  0  0  0  0  0  0  0  0  0
   12.1190  -10.5430    0.0000 H   0  0  0  0  0  0  0  0  0  0  0  0
   12.4594   -6.5861    0.0000 H   0  0  0  0  0  0  0  0  0  0  0  0
    2.5664   10.7706    0.0000 H   0  0  0  0  0  0  0  0  0  0  0  0
    1.7478   11.0848    0.0000 H   0  0  0  0  0  0  0  0  0  0  0  0
    1.4336   10.2663    0.0000 H   0  0  0  0  0  0  0  0  0  0  0  0
   11.0734   -9.6500    0.0000 H   0  0  0  0  0  0  0  0  0  0  0  0
   10.6753  -10.4313    0.0000 H   0  0  0  0  0  0  0  0  0  0  0  0
   11.4566  -10.8293    0.0000 H   0  0  0  0  0  0  0  0  0  0  0  0
 11  1  1  1  0  0  0
  1 91  1  0  0  0  0
 14  2  1  1  0  0  0
  2 93  1  0  0  0  0
 23  3  1  1  0  0  0
  3 96  1  0  0  0  0
 26  4  1  6  0  0  0
  4 99  1  0  0  0  0
  5 38  1  0  0  0  0
  5 39  1  0  0  0  0
  6 39  2  0  0  0  0
  7  8  1  0  0  0  0
  7  9  1  0  0  0  0
  7 42  1  0  0  0  0
  7 43  1  0  0  0  0
  8 10  1  0  0  0  0
  8 44  1  0  0  0  0
  8 45  1  0  0  0  0
  9 11  1  0  0  0  0
  9 46  1  0  0  0  0
  9 47  1  0  0  0  0
 10 12  1  0  0  0  0
 10 48  1  0  0  0  0
 10 49  1  0  0  0  0
 11 14  1  0  0  0  0
 11 50  1  0  0  0  0
 12 13  1  0  0  0  0
 12 51  1  0  0  0  0
 12 52  1  0  0  0  0
 13 15  1  0  0  0  0
 13 53  1  0  0  0  0
 13 54  1  0  0  0  0
 14 20  1  0  0  0  0
 14 55  1  0  0  0  0
 15 16  1  0  0  0  0
 15 56  1  0  0  0  0
 15 57  1  0  0  0  0
 16 22  1  0  0  0  0
 16 58  1  0  0  0  0
 16 59  1  0  0  0  0
 17 18  1  0  0  0  0
 17 19  1  0  0  0  0
 17 60  1  0  0  0  0
 17 61  1  0  0  0  0
 18 21  1  0  0  0  0
 18 62  1  0  0  0  0
 18 63  1  0  0  0  0
 19 23  1  0  0  0  0
 19 64  1  0  0  0  0
 19 65  1  0  0  0  0
 20 28  1  0  0  0  0
 20 68  1  0  0  0  0
 20 69  1  0  0  0  0
 21 24  1  0  0  0  0
 21 66  1  0  0  0  0
 21 67  1  0  0  0  0
 22 25  1  0  0  0  0
 22 70  1  0  0  0  0
 22 71  1  0  0  0  0
 23 27  1  0  0  0  0
 23 72  1  0  0  0  0
 24 26  1  0  0  0  0
 24 73  1  0  0  0  0
 24 74  1  0  0  0  0
 25 29  1  0  0  0  0
 25 75  1  0  0  0  0
 25 76  1  0  0  0  0
 26 30  1  0  0  0  0
 26 77  1  0  0  0  0
 27 31  1  0  0  0  0
 27 78  1  0  0  0  0
 27 79  1  0  0  0  0
 28 33  1  0  0  0  0
 28 80  1  0  0  0  0
 28 81  1  0  0  0  0
 29 32  1  0  0  0  0
 29 82  1  0  0  0  0
 29 83  1  0  0  0  0
 30 34  1  0  0  0  0
 30 84  1  0  0  0  0
 30 85  1  0  0  0  0
 31 35  1  0  0  0  0
 31 86  1  0  0  0  0
 31 87  1  0  0  0  0
 32 36  1  0  0  0  0
 32 88  1  0  0  0  0
 32 89  1  0  0  0  0
 33 35  2  0  0  0  0
 33 90  1  0  0  0  0
 34 37  2  0  0  0  0
 34 39  1  0  0  0  0
 35 92  1  0  0  0  0
 36 40  1  0  0  0  0
 36 94  1  0  0  0  0
 36 95  1  0  0  0  0
 37 38  1  0  0  0  0
 37 97  1  0  0  0  0
 38 41  1  1  0  0  0
 38 98  1  0  0  0  0
 40100  1  0  0  0  0
 40101  1  0  0  0  0
 40102  1  0  0  0  0
 41103  1  0  0  0  0
 41104  1  0  0  0  0
 41105  1  0  0  0  0
M  END
> <PUBCHEM_COMPOUND_CID>
46173775

> <PUBCHEM_COMPOUND_CANONICALIZED>
1

> <PUBCHEM_CACTVS_COMPLEXITY>
690

> <PUBCHEM_CACTVS_HBOND_ACCEPTOR>
6

> <PUBCHEM_CACTVS_HBOND_DONOR>
4

> <PUBCHEM_CACTVS_ROTATABLE_BOND>
28

> <PUBCHEM_CACTVS_SUBSKEYS>
AAADcfB8OAAAAAAAAAAAAAAAAAAAAQAAAAAAAAAAAAAAAAAAAAAAGgAACAAADBSggAICCAAABgCIAiDSCAAAAAAgAAAICAEAAEgBFBIAIQACUAAEwAAJIYPKyKCAAAAAAAAAAAAAAAAAAAAAAAAAAAAAAA==

> <PUBCHEM_IUPAC_OPENEYE_NAME>
(2S)-2-methyl-4-[(Z,2R,8R,15R,16R)-2,8,15,16-tetrahydroxytriacont-11-enyl]-2H-furan-5-one

> <PUBCHEM_IUPAC_CAS_NAME>
(2S)-2-methyl-4-[(Z,2R,8R,15R,16R)-2,8,15,16-tetrahydroxytriacont-11-enyl]-2H-furan-5-one

> <PUBCHEM_IUPAC_NAME>
(2S)-2-methyl-4-[(Z,2R,8R,15R,16R)-2,8,15,16-tetrahydroxytriacont-11-enyl]-2H-furan-5-one

> <PUBCHEM_IUPAC_SYSTEMATIC_NAME>
(2S)-2-methyl-4-[(Z,2R,8R,15R,16R)-2,8,15,16-tetrakis(oxidanyl)triacont-11-enyl]-2H-furan-5-one

> <PUBCHEM_IUPAC_TRADITIONAL_NAME>
(2S)-2-methyl-4-[(Z,2R,8R,15R,16R)-2,8,15,16-tetrahydroxytriacont-11-enyl]-2H-furan-5-one

> <PUBCHEM_IUPAC_INCHI>
InChI=1S/C35H64O6/c1-3-4-5-6-7-8-9-10-11-12-13-20-25-33(38)34(39)26-21-15-14-17-22-31(36)23-18-16-19-24-32(37)28-30-27-29(2)41-35(30)40/h14-15,27,29,31-34,36-39H,3-13,16-26,28H2,1-2H3/b15-14-/t29-,31-,32+,33+,34+/m0/s1

> <PUBCHEM_IUPAC_INCHIKEY>
QPTTZJGEMWSFBF-PWGGRABESA-N

> <PUBCHEM_XLOGP3_AA>
9.5

> <PUBCHEM_EXACT_MASS>
580.47029

> <PUBCHEM_MOLECULAR_FORMULA>
C35H64O6

> <PUBCHEM_MOLECULAR_WEIGHT>
580.87906

> <PUBCHEM_OPENEYE_CAN_SMILES>
CCCCCCCCCCCCCCC(C(CCC=CCCC(CCCCCC(CC1=CC(OC1=O)C)O)O)O)O

> <PUBCHEM_OPENEYE_ISO_SMILES>
CCCCCCCCCCCCCC[C@H]([C@@H](CC/C=C\CC[C@@H](CCCCC[C@H](CC1=C[C@@H](OC1=O)C)O)O)O)O

> <PUBCHEM_CACTVS_TPSA>
107

> <PUBCHEM_MONOISOTOPIC_WEIGHT>
580.47029

> <PUBCHEM_TOTAL_CHARGE>
0

> <PUBCHEM_HEAVY_ATOM_COUNT>
41

> <PUBCHEM_ATOM_DEF_STEREO_COUNT>
5

> <PUBCHEM_ATOM_UDEF_STEREO_COUNT>
0

> <PUBCHEM_BOND_DEF_STEREO_COUNT>
1

> <PUBCHEM_BOND_UDEF_STEREO_COUNT>
0

> <PUBCHEM_ISOTOPIC_ATOM_COUNT>
0

> <PUBCHEM_COMPONENT_COUNT>
1

> <PUBCHEM_CACTVS_TAUTO_COUNT>
1

> <PUBCHEM_COORDINATE_TYPE>
1
5
255

> <PUBCHEM_BONDANNOTATIONS>
11  1  5
14  2  5
23  3  5
38  41  5
26  4  6

$$$$

