13922
  -OEChem-06241222402D

 65 64  0     0  0  0  0  0  0999 V2000
   10.1060    0.8660    0.0000 S   0  0  0  0  0  0  0  0  0  0  0  0
    1.4030    5.4860    0.0000 O   0  0  0  0  0  0  0  0  0  0  0  0
    8.8070    7.3520    0.0000 O   0  0  0  0  0  0  0  0  0  0  0  0
   10.9720    1.3660    0.0000 O   0  0  0  0  0  0  0  0  0  0  0  0
    9.2400    0.3660    0.0000 O   0  0  0  0  0  0  0  0  0  0  0  0
    9.6060    1.7320    0.0000 O   0  0  0  0  0  0  0  0  0  0  0  0
   10.6060    0.0000    0.0000 O   0  0  0  0  0  0  0  0  0  0  0  0
    3.1350    8.4860    0.0000 N   0  0  0  0  0  0  0  0  0  0  0  0
   10.5390   10.3521    0.0000 N   0  0  0  0  0  0  0  0  0  0  0  0
    4.0010    9.9860    0.0000 N   0  0  0  0  0  0  0  0  0  0  0  0
    4.8671    8.4860    0.0000 N   0  0  0  0  0  0  0  0  0  0  0  0
   11.4050   11.8521    0.0000 N   0  0  0  0  0  0  0  0  0  0  0  0
   12.2711   10.3521    0.0000 N   0  0  0  0  0  0  0  0  0  0  0  0
    2.2690    6.9860    0.0000 C   0  0  0  0  0  0  0  0  0  0  0  0
    9.6730    8.8520    0.0000 C   0  0  0  0  0  0  0  0  0  0  0  0
    2.2690    5.9860    0.0000 C   0  0  0  0  0  0  0  0  0  0  0  0
    9.6730    7.8520    0.0000 C   0  0  0  0  0  0  0  0  0  0  0  0
    3.1350    7.4860    0.0000 C   0  0  0  0  0  0  0  0  0  0  0  0
   10.5390    9.3520    0.0000 C   0  0  0  0  0  0  0  0  0  0  0  0
    8.8070    6.3520    0.0000 C   0  0  0  0  0  0  0  0  0  0  0  0
    1.4030    4.4860    0.0000 C   0  0  0  0  0  0  0  0  0  0  0  0
    7.9409    5.8520    0.0000 C   0  0  0  0  0  0  0  0  0  0  0  0
    0.5369    3.9860    0.0000 C   0  0  0  0  0  0  0  0  0  0  0  0
    9.6730    5.8520    0.0000 C   0  0  0  0  0  0  0  0  0  0  0  0
    2.2690    3.9860    0.0000 C   0  0  0  0  0  0  0  0  0  0  0  0
    7.9409    4.8520    0.0000 C   0  0  0  0  0  0  0  0  0  0  0  0
    0.5369    2.9860    0.0000 C   0  0  0  0  0  0  0  0  0  0  0  0
    9.6730    4.8520    0.0000 C   0  0  0  0  0  0  0  0  0  0  0  0
    2.2690    2.9860    0.0000 C   0  0  0  0  0  0  0  0  0  0  0  0
    8.8070    4.3520    0.0000 C   0  0  0  0  0  0  0  0  0  0  0  0
    1.4030    2.4860    0.0000 C   0  0  0  0  0  0  0  0  0  0  0  0
    4.0010    8.9860    0.0000 C   0  0  0  0  0  0  0  0  0  0  0  0
   11.4050   10.8521    0.0000 C   0  0  0  0  0  0  0  0  0  0  0  0
    9.4609    9.4347    0.0000 H   0  0  0  0  0  0  0  0  0  0  0  0
    9.0624    8.7444    0.0000 H   0  0  0  0  0  0  0  0  0  0  0  0
    2.0569    7.5686    0.0000 H   0  0  0  0  0  0  0  0  0  0  0  0
    1.6584    6.8784    0.0000 H   0  0  0  0  0  0  0  0  0  0  0  0
    9.8850    7.2694    0.0000 H   0  0  0  0  0  0  0  0  0  0  0  0
   10.2836    7.9597    0.0000 H   0  0  0  0  0  0  0  0  0  0  0  0
    2.4810    5.4034    0.0000 H   0  0  0  0  0  0  0  0  0  0  0  0
    2.8796    6.0937    0.0000 H   0  0  0  0  0  0  0  0  0  0  0  0
   10.7511    8.7694    0.0000 H   0  0  0  0  0  0  0  0  0  0  0  0
   11.1496    9.4597    0.0000 H   0  0  0  0  0  0  0  0  0  0  0  0
    3.3471    6.9034    0.0000 H   0  0  0  0  0  0  0  0  0  0  0  0
    3.7456    7.5937    0.0000 H   0  0  0  0  0  0  0  0  0  0  0  0
    7.4040    6.1620    0.0000 H   0  0  0  0  0  0  0  0  0  0  0  0
    0.0000    4.2960    0.0000 H   0  0  0  0  0  0  0  0  0  0  0  0
   10.2099    6.1620    0.0000 H   0  0  0  0  0  0  0  0  0  0  0  0
    2.8059    4.2960    0.0000 H   0  0  0  0  0  0  0  0  0  0  0  0
    7.4040    4.5420    0.0000 H   0  0  0  0  0  0  0  0  0  0  0  0
    0.0000    2.6760    0.0000 H   0  0  0  0  0  0  0  0  0  0  0  0
   10.2099    4.5420    0.0000 H   0  0  0  0  0  0  0  0  0  0  0  0
    2.8059    2.6760    0.0000 H   0  0  0  0  0  0  0  0  0  0  0  0
    8.8070    3.7320    0.0000 H   0  0  0  0  0  0  0  0  0  0  0  0
    1.4030    1.8660    0.0000 H   0  0  0  0  0  0  0  0  0  0  0  0
    5.4040    8.7960    0.0000 H   0  0  0  0  0  0  0  0  0  0  0  0
    4.8671    7.8660    0.0000 H   0  0  0  0  0  0  0  0  0  0  0  0
    4.5380   10.2960    0.0000 H   0  0  0  0  0  0  0  0  0  0  0  0
    3.4641   10.2960    0.0000 H   0  0  0  0  0  0  0  0  0  0  0  0
   12.8080   10.6621    0.0000 H   0  0  0  0  0  0  0  0  0  0  0  0
   12.2711    9.7320    0.0000 H   0  0  0  0  0  0  0  0  0  0  0  0
   11.9420   12.1621    0.0000 H   0  0  0  0  0  0  0  0  0  0  0  0
   10.8681   12.1621    0.0000 H   0  0  0  0  0  0  0  0  0  0  0  0
   11.5090    1.0560    0.0000 H   0  0  0  0  0  0  0  0  0  0  0  0
    8.7030    0.6760    0.0000 H   0  0  0  0  0  0  0  0  0  0  0  0
  1  4  1  0  0  0  0
  1  5  1  0  0  0  0
  1  6  2  0  0  0  0
  1  7  2  0  0  0  0
  2 16  1  0  0  0  0
  2 21  1  0  0  0  0
  3 17  1  0  0  0  0
  3 20  1  0  0  0  0
  4 64  1  0  0  0  0
  5 65  1  0  0  0  0
  8 18  1  0  0  0  0
  8 32  2  0  0  0  0
  9 19  1  0  0  0  0
  9 33  2  0  0  0  0
 10 32  1  0  0  0  0
 10 58  1  0  0  0  0
 10 59  1  0  0  0  0
 11 32  1  0  0  0  0
 11 56  1  0  0  0  0
 11 57  1  0  0  0  0
 12 33  1  0  0  0  0
 12 62  1  0  0  0  0
 12 63  1  0  0  0  0
 13 33  1  0  0  0  0
 13 60  1  0  0  0  0
 13 61  1  0  0  0  0
 14 16  1  0  0  0  0
 14 18  1  0  0  0  0
 14 36  1  0  0  0  0
 14 37  1  0  0  0  0
 15 17  1  0  0  0  0
 15 19  1  0  0  0  0
 15 34  1  0  0  0  0
 15 35  1  0  0  0  0
 16 40  1  0  0  0  0
 16 41  1  0  0  0  0
 17 38  1  0  0  0  0
 17 39  1  0  0  0  0
 18 44  1  0  0  0  0
 18 45  1  0  0  0  0
 19 42  1  0  0  0  0
 19 43  1  0  0  0  0
 20 22  2  0  0  0  0
 20 24  1  0  0  0  0
 21 23  2  0  0  0  0
 21 25  1  0  0  0  0
 22 26  1  0  0  0  0
 22 46  1  0  0  0  0
 23 27  1  0  0  0  0
 23 47  1  0  0  0  0
 24 28  2  0  0  0  0
 24 48  1  0  0  0  0
 25 29  2  0  0  0  0
 25 49  1  0  0  0  0
 26 30  2  0  0  0  0
 26 50  1  0  0  0  0
 27 31  2  0  0  0  0
 27 51  1  0  0  0  0
 28 30  1  0  0  0  0
 28 52  1  0  0  0  0
 29 31  1  0  0  0  0
 29 53  1  0  0  0  0
 30 54  1  0  0  0  0
 31 55  1  0  0  0  0
M  END
> <PUBCHEM_COMPOUND_CID>
13922

> <PUBCHEM_COMPOUND_CANONICALIZED>
1

> <PUBCHEM_CACTVS_COMPLEXITY>
254

> <PUBCHEM_CACTVS_HBOND_ACCEPTOR>
8

> <PUBCHEM_CACTVS_HBOND_DONOR>
6

> <PUBCHEM_CACTVS_ROTATABLE_BOND>
10

> <PUBCHEM_CACTVS_SUBSKEYS>
AAADcfB7uABAAAAAAAAAAAAAAAAAAAAAAAAwYAAAAAAAAAABQAAAHgAQCAAACAThkAYxBoJABICgACBCJDACCAEgIAAIiAAGCIgMJiKEMRqCOCCmwBEIqAeAQAAAAAAAAAAAAAAAAAAAAAAAAAAAAAAAAA==

> <PUBCHEM_IUPAC_OPENEYE_NAME>
2-(3-phenoxypropyl)guanidine; sulfuric acid

> <PUBCHEM_IUPAC_CAS_NAME>
2-(3-phenoxypropyl)guanidine; sulfuric acid

> <PUBCHEM_IUPAC_NAME>
2-(3-phenoxypropyl)guanidine; sulfuric acid

> <PUBCHEM_IUPAC_SYSTEMATIC_NAME>
2-(3-phenoxypropyl)guanidine; sulfuric acid

> <PUBCHEM_IUPAC_TRADITIONAL_NAME>
2-(3-phenoxypropyl)guanidine; sulfuric acid

> <PUBCHEM_IUPAC_INCHI>
InChI=1S/2C10H15N3O.H2O4S/c2*11-10(12)13-7-4-8-14-9-5-2-1-3-6-9;1-5(2,3)4/h2*1-3,5-6H,4,7-8H2,(H4,11,12,13);(H2,1,2,3,4)

> <PUBCHEM_IUPAC_INCHIKEY>
CXDPVKRPWPEWCT-UHFFFAOYSA-N

> <PUBCHEM_EXACT_MASS>
484.210404

> <PUBCHEM_MOLECULAR_FORMULA>
C20H32N6O6S

> <PUBCHEM_MOLECULAR_WEIGHT>
484.56968

> <PUBCHEM_OPENEYE_CAN_SMILES>
C1=CC=C(C=C1)OCCCN=C(N)N.C1=CC=C(C=C1)OCCCN=C(N)N.OS(=O)(=O)O

> <PUBCHEM_OPENEYE_ISO_SMILES>
C1=CC=C(C=C1)OCCCN=C(N)N.C1=CC=C(C=C1)OCCCN=C(N)N.OS(=O)(=O)O

> <PUBCHEM_CACTVS_TPSA>
230

> <PUBCHEM_MONOISOTOPIC_WEIGHT>
484.210404

> <PUBCHEM_TOTAL_CHARGE>
0

> <PUBCHEM_HEAVY_ATOM_COUNT>
33

> <PUBCHEM_ATOM_DEF_STEREO_COUNT>
0

> <PUBCHEM_ATOM_UDEF_STEREO_COUNT>
0

> <PUBCHEM_BOND_DEF_STEREO_COUNT>
0

> <PUBCHEM_BOND_UDEF_STEREO_COUNT>
0

> <PUBCHEM_ISOTOPIC_ATOM_COUNT>
0

> <PUBCHEM_COMPONENT_COUNT>
3

> <PUBCHEM_CACTVS_TAUTO_COUNT>
3

> <PUBCHEM_COORDINATE_TYPE>
1
5
255

> <PUBCHEM_BONDANNOTATIONS>
20  22  8
20  24  8
21  23  8
21  25  8
22  26  8
23  27  8
24  28  8
25  29  8
26  30  8
27  31  8
28  30  8
29  31  8

$$$$

