12858
  -OEChem-06261207273D

 25 26  0     0  0  0  0  0  0999 V2000
    2.9893    1.1463    0.1584 O   0  0  0  0  0  0  0  0  0  0  0  0
   -0.8139   -2.2317   -0.3185 O   0  0  0  0  0  0  0  0  0  0  0  0
   -2.0984   -0.2850   -0.0641 C   0  0  0  0  0  0  0  0  0  0  0  0
   -0.8368   -1.0007   -0.1670 C   0  0  0  0  0  0  0  0  0  0  0  0
    2.9351   -0.1709   -0.0018 C   0  0  0  0  0  0  0  0  0  0  0  0
   -2.1832    1.0428   -0.4829 C   0  0  0  0  0  0  0  0  0  0  0  0
   -3.2239   -0.9263    0.4532 C   0  0  0  0  0  0  0  0  0  0  0  0
    0.4441   -0.2223   -0.0543 C   0  0  0  0  0  0  0  0  0  0  0  0
    1.6300   -0.8455   -0.1163 C   0  0  0  0  0  0  0  0  0  0  0  0
   -3.3936    1.7292   -0.3845 C   0  0  0  0  0  0  0  0  0  0  0  0
   -4.4343   -0.2401    0.5513 C   0  0  0  0  0  0  0  0  0  0  0  0
    4.1275   -0.7811   -0.0431 C   0  0  0  0  0  0  0  0  0  0  0  0
   -4.5192    1.0876    0.1325 C   0  0  0  0  0  0  0  0  0  0  0  0
    5.0597    0.2729    0.1090 C   0  0  0  0  0  0  0  0  0  0  0  0
    4.3176    1.4248    0.2279 C   0  0  0  0  0  0  0  0  0  0  0  0
   -1.3426    1.5694   -0.9245 H   0  0  0  0  0  0  0  0  0  0  0  0
   -3.1769   -1.9591    0.7888 H   0  0  0  0  0  0  0  0  0  0  0  0
    0.3983    0.8454    0.1250 H   0  0  0  0  0  0  0  0  0  0  0  0
    1.6710   -1.9214   -0.2698 H   0  0  0  0  0  0  0  0  0  0  0  0
    4.3422   -1.8334   -0.1637 H   0  0  0  0  0  0  0  0  0  0  0  0
   -3.4624    2.7605   -0.7180 H   0  0  0  0  0  0  0  0  0  0  0  0
   -5.3106   -0.7392    0.9545 H   0  0  0  0  0  0  0  0  0  0  0  0
   -5.4620    1.6215    0.2073 H   0  0  0  0  0  0  0  0  0  0  0  0
    6.1376    0.2021    0.1296 H   0  0  0  0  0  0  0  0  0  0  0  0
    4.5704    2.4668    0.3604 H   0  0  0  0  0  0  0  0  0  0  0  0
  1  5  1  0  0  0  0
  1 15  1  0  0  0  0
  2  4  2  0  0  0  0
  3  4  1  0  0  0  0
  3  6  2  0  0  0  0
  3  7  1  0  0  0  0
  4  8  1  0  0  0  0
  5  9  1  0  0  0  0
  5 12  2  0  0  0  0
  6 10  1  0  0  0  0
  6 16  1  0  0  0  0
  7 11  2  0  0  0  0
  7 17  1  0  0  0  0
  8  9  2  0  0  0  0
  8 18  1  0  0  0  0
  9 19  1  0  0  0  0
 10 13  2  0  0  0  0
 10 21  1  0  0  0  0
 11 13  1  0  0  0  0
 11 22  1  0  0  0  0
 12 14  1  0  0  0  0
 12 20  1  0  0  0  0
 13 23  1  0  0  0  0
 14 15  2  0  0  0  0
 14 24  1  0  0  0  0
 15 25  1  0  0  0  0
M  END
> <PUBCHEM_COMPOUND_CID>
12858

> <PUBCHEM_CONFORMER_RMSD>
0.6

> <PUBCHEM_CONFORMER_DIVERSEORDER>
1
6
12
11
9
7
13
8
4
3
5
10
2

> <PUBCHEM_MMFF94_PARTIAL_CHARGES>
25
1 -0.28
10 -0.15
11 -0.15
12 -0.15
13 -0.15
14 -0.15
15 -0.01
16 0.15
17 0.15
18 0.15
19 0.15
2 -0.57
20 0.15
21 0.15
22 0.15
23 0.15
24 0.15
25 0.15
3 0.09
4 0.47
5 0.09
6 -0.15
7 -0.15
8 -0.14
9 -0.11

> <PUBCHEM_EFFECTIVE_ROTOR_COUNT>
3

> <PUBCHEM_PHARMACOPHORE_FEATURES>
4
1 1 acceptor
1 2 acceptor
5 1 5 12 14 15 rings
6 3 6 7 10 11 13 rings

> <PUBCHEM_HEAVY_ATOM_COUNT>
15

> <PUBCHEM_ATOM_DEF_STEREO_COUNT>
0

> <PUBCHEM_ATOM_UDEF_STEREO_COUNT>
0

> <PUBCHEM_BOND_DEF_STEREO_COUNT>
0

> <PUBCHEM_BOND_UDEF_STEREO_COUNT>
1

> <PUBCHEM_ISOTOPIC_ATOM_COUNT>
0

> <PUBCHEM_COMPONENT_COUNT>
1

> <PUBCHEM_CACTVS_TAUTO_COUNT>
1

> <PUBCHEM_CONFORMER_ID>
0000323A00000001

> <PUBCHEM_MMFF94_ENERGY>
38.8887

> <PUBCHEM_FEATURE_SELFOVERLAP>
20.297

> <PUBCHEM_SHAPE_FINGERPRINT>
11046707 91 9439402432371005269
11132069 177 18131345341320340565
12107183 9 17552369082078924824
122479 349 18412823564620304538
12596602 18 16486969566305593312
13081056 2 18409728469442193756
13214271 11 18412825790035622391
13533116 47 17417821694080710091
13675066 3 18271802419513360298
13897977 58 18343298141539680381
14123255 52 18410859871170740890
14252887 29 13901912237023569802
15196674 1 18411138034753981588
15501527 16 18408603643477700232
18186145 218 18114170982168086870
19433438 28 18343581836993358152
20432913 95 14117802431178784744
20645477 56 18408886213644483182
20645477 70 17168412853403374134
212847 35 18411136944401909680
21652331 79 18413109458991872652
22854114 59 18413106169067639667
23402539 116 18259992569261268693
23402655 69 18040716970082581180
23559900 14 18187081797857163374
27216 239 18342173371683899329
2916195 48 18187374194550417304
351380 180 18412827988346812217
3545911 37 18334573534443588322
42 15 17988925587126186770
4214541 1 18411138030516724778
5104073 3 18413109463566097394
633830 44 18041557074085729215
6430166 295 18410015446514519242
69090 78 18335141972753706639
77779 3 18412544310278647578
90127 26 18343010091321298602

> <PUBCHEM_SHAPE_MULTIPOLES>
296.95
11.1
1.66
0.68
5.1
0.01
-0.01
-3.53
-1.27
-0.53
0.12
-0.19
-0.01
0.45

> <PUBCHEM_SHAPE_SELFOVERLAP>
641.261

> <PUBCHEM_SHAPE_VOLUME>
163.9

> <PUBCHEM_COORDINATE_TYPE>
2
5
10

$$$$

