6086
  -OEChem-06261201063D

 45 47  0     1  0  0  0  0  0999 V2000
    3.5483    1.4864   -1.3347 O   0  0  0  0  0  0  0  0  0  0  0  0
    4.0119    0.7302    1.2957 O   0  0  0  0  0  0  0  0  0  0  0  0
   -2.1589   -0.2139   -0.5635 N   0  0  1  0  0  0  0  0  0  0  0  0
   -1.0064   -2.2474   -0.1238 C   0  0  2  0  0  0  0  0  0  0  0  0
   -0.4025   -1.5316   -1.3588 C   0  0  1  0  0  0  0  0  0  0  0  0
   -2.2886   -1.4608    0.1939 C   0  0  0  0  0  0  0  0  0  0  0  0
   -1.5055   -0.5860   -1.8222 C   0  0  0  0  0  0  0  0  0  0  0  0
    0.0506   -2.2334    0.9984 C   0  0  0  0  0  0  0  0  0  0  0  0
    0.8033   -0.8379   -0.7919 C   0  0  0  0  0  0  0  0  0  0  0  0
    1.0400   -1.2183    0.5299 C   0  0  0  0  0  0  0  0  0  0  0  0
   -3.4371    0.4487   -0.7732 C   0  0  0  0  0  0  0  0  0  0  0  0
    1.6406    0.0655   -1.4306 C   0  0  0  0  0  0  0  0  0  0  0  0
    2.1134   -0.7040    1.2411 C   0  0  0  0  0  0  0  0  0  0  0  0
   -4.0559    0.8443    0.5664 C   0  0  0  0  0  0  0  0  0  0  0  0
    2.7200    0.5947   -0.7202 C   0  0  0  0  0  0  0  0  0  0  0  0
    2.9544    0.2130    0.6083 C   0  0  0  0  0  0  0  0  0  0  0  0
   -5.3913    1.5621    0.3677 C   0  0  0  0  0  0  0  0  0  0  0  0
   -6.0308    1.9277    1.6977 C   0  0  0  0  0  0  0  0  0  0  0  0
    3.2101    2.8668   -1.2221 C   0  0  0  0  0  0  0  0  0  0  0  0
    4.1843    0.2938    2.6420 C   0  0  0  0  0  0  0  0  0  0  0  0
   -1.2859   -3.2814   -0.3619 H   0  0  0  0  0  0  0  0  0  0  0  0
   -0.0987   -2.2418   -2.1350 H   0  0  0  0  0  0  0  0  0  0  0  0
   -3.1529   -2.0451   -0.1491 H   0  0  0  0  0  0  0  0  0  0  0  0
   -2.3993   -1.2859    1.2685 H   0  0  0  0  0  0  0  0  0  0  0  0
   -1.1256    0.2902   -2.3571 H   0  0  0  0  0  0  0  0  0  0  0  0
   -2.1985   -1.1252   -2.4813 H   0  0  0  0  0  0  0  0  0  0  0  0
    0.5426   -3.2101    1.0656 H   0  0  0  0  0  0  0  0  0  0  0  0
   -0.3706   -1.9761    1.9744 H   0  0  0  0  0  0  0  0  0  0  0  0
   -4.1322   -0.1907   -1.3328 H   0  0  0  0  0  0  0  0  0  0  0  0
   -3.2808    1.3557   -1.3705 H   0  0  0  0  0  0  0  0  0  0  0  0
    1.4614    0.3543   -2.4616 H   0  0  0  0  0  0  0  0  0  0  0  0
    2.2410   -1.0519    2.2592 H   0  0  0  0  0  0  0  0  0  0  0  0
   -3.3679    1.4963    1.1194 H   0  0  0  0  0  0  0  0  0  0  0  0
   -4.2407   -0.0376    1.1903 H   0  0  0  0  0  0  0  0  0  0  0  0
   -6.0794    0.9212   -0.1959 H   0  0  0  0  0  0  0  0  0  0  0  0
   -5.2398    2.4736   -0.2221 H   0  0  0  0  0  0  0  0  0  0  0  0
   -6.9821    2.4429    1.5318 H   0  0  0  0  0  0  0  0  0  0  0  0
   -6.2292    1.0336    2.2973 H   0  0  0  0  0  0  0  0  0  0  0  0
   -5.3809    2.5923    2.2759 H   0  0  0  0  0  0  0  0  0  0  0  0
    2.2334    3.0606   -1.6768 H   0  0  0  0  0  0  0  0  0  0  0  0
    3.9659    3.4497   -1.7556 H   0  0  0  0  0  0  0  0  0  0  0  0
    3.2044    3.1784   -0.1728 H   0  0  0  0  0  0  0  0  0  0  0  0
    3.3382    0.5862    3.2731 H   0  0  0  0  0  0  0  0  0  0  0  0
    5.0669    0.8079    3.0368 H   0  0  0  0  0  0  0  0  0  0  0  0
    4.3928   -0.7802    2.6948 H   0  0  0  0  0  0  0  0  0  0  0  0
  1 15  1  0  0  0  0
  1 19  1  0  0  0  0
  2 16  1  0  0  0  0
  2 20  1  0  0  0  0
  3  6  1  0  0  0  0
  3  7  1  0  0  0  0
  3 11  1  0  0  0  0
  4  5  1  0  0  0  0
  4  6  1  0  0  0  0
  4  8  1  0  0  0  0
  4 21  1  0  0  0  0
  5  7  1  0  0  0  0
  5  9  1  0  0  0  0
  5 22  1  0  0  0  0
  6 23  1  0  0  0  0
  6 24  1  0  0  0  0
  7 25  1  0  0  0  0
  7 26  1  0  0  0  0
  8 10  1  0  0  0  0
  8 27  1  0  0  0  0
  8 28  1  0  0  0  0
  9 10  1  0  0  0  0
  9 12  2  0  0  0  0
 10 13  2  0  0  0  0
 11 14  1  0  0  0  0
 11 29  1  0  0  0  0
 11 30  1  0  0  0  0
 12 15  1  0  0  0  0
 12 31  1  0  0  0  0
 13 16  1  0  0  0  0
 13 32  1  0  0  0  0
 14 17  1  0  0  0  0
 14 33  1  0  0  0  0
 14 34  1  0  0  0  0
 15 16  2  0  0  0  0
 17 18  1  0  0  0  0
 17 35  1  0  0  0  0
 17 36  1  0  0  0  0
 18 37  1  0  0  0  0
 18 38  1  0  0  0  0
 18 39  1  0  0  0  0
 19 40  1  0  0  0  0
 19 41  1  0  0  0  0
 19 42  1  0  0  0  0
 20 43  1  0  0  0  0
 20 44  1  0  0  0  0
 20 45  1  0  0  0  0
M  END
> <PUBCHEM_COMPOUND_CID>
6086

> <PUBCHEM_CONFORMER_RMSD>
0.8

> <PUBCHEM_CONFORMER_DIVERSEORDER>
5
14
9
28
2
7
30
16
32
18
20
34
11
17
12
27
33
13
21
31
26
3
24
10
15
6
19
22
29
4
8
23
1
25

> <PUBCHEM_MMFF94_PARTIAL_CHARGES>
18
1 -0.36
10 -0.14
11 0.27
12 -0.15
13 -0.15
15 0.08
16 0.08
19 0.28
2 -0.36
20 0.28
3 -0.81
31 0.15
32 0.15
5 0.14
6 0.27
7 0.27
8 0.14
9 -0.14

> <PUBCHEM_EFFECTIVE_ROTOR_COUNT>
5.8

> <PUBCHEM_PHARMACOPHORE_FEATURES>
7
1 1 acceptor
1 18 hydrophobe
1 2 acceptor
1 3 cation
5 3 4 5 6 7 rings
5 4 5 8 9 10 rings
6 9 10 12 13 15 16 rings

> <PUBCHEM_HEAVY_ATOM_COUNT>
20

> <PUBCHEM_ATOM_DEF_STEREO_COUNT>
0

> <PUBCHEM_ATOM_UDEF_STEREO_COUNT>
2

> <PUBCHEM_BOND_DEF_STEREO_COUNT>
0

> <PUBCHEM_BOND_UDEF_STEREO_COUNT>
0

> <PUBCHEM_ISOTOPIC_ATOM_COUNT>
0

> <PUBCHEM_COMPONENT_COUNT>
1

> <PUBCHEM_CACTVS_TAUTO_COUNT>
1

> <PUBCHEM_CONFORMER_ID>
000017C600000005

> <PUBCHEM_MMFF94_ENERGY>
67.4878

> <PUBCHEM_FEATURE_SELFOVERLAP>
36.123

> <PUBCHEM_SHAPE_FINGERPRINT>
10042902 136 12535335840177940521
10498660 4 17240484745323892665
10756046 5 5256141132639228954
11796584 16 11239998941264305321
12390115 104 17342643475948588852
12403259 118 18271814536048820409
12633257 1 17775570840350188185
12788726 201 17977952276329564159
12892183 10 16200433580753721877
13103583 49 15553610775874138969
13140716 1 17416987049028350690
13257819 101 16444209525348249800
13583140 156 16486711245824103263
13955234 65 17752193157855952647
13965767 371 18262810699320754173
1420 369 12319446693710129633
14251740 57 13542164101089281161
14251764 30 15194449809524324314
14251764 38 17461747007189959921
14251764 75 18197198279426938093
14341114 328 18272645745353857833
14739800 52 17905622008056278136
14848178 5 13110668429648989281
14950920 106 16988564615187503673
15003188 33 4967344456633522809
15061688 2 17458638795255300114
15163728 17 17386574540102936800
15210252 30 17022903497151792033
15238133 3 18407760335207663720
15342168 16 18410848885271931109
15342816 4 10015864275474854564
15475509 8 18341603872369478102
17134984 74 8141496000596273281
1798214 20 8430311321175544865
18222031 100 11312048851463309417
193927 3 11383820602643188609
20567600 234 18131062745869180113
20723712 36 18272100413218972258
21756936 100 18197770012592903756
21864079 5 18267580208831680868
22849341 161 18059868311234396608
23557571 272 17024040245734547094
23559900 14 18261661670899238518
2748010 2 17124563328981502622
2838139 119 16734981963603398352
3009799 131 16008740351796734692
3472631 163 17458641007543467145
38570 142 17773010026620394012
427121 178 18270104834032644283
4463277 69 11167646665188210723
474 4 18337664308916222005
5104073 3 17845658036510440872
633830 44 18411978040030852374
76465 3 9367352496339011005
7808743 9 18337663114514705437
960060 61 6771858555178441849

> <PUBCHEM_SHAPE_MULTIPOLES>
394.87
9.94
2.44
2
11.88
0.41
-0.57
9.63
-5.16
0.31
0.19
-1.56
0.43
-1.87

> <PUBCHEM_SHAPE_SELFOVERLAP>
833.475

> <PUBCHEM_SHAPE_VOLUME>
228.1

> <PUBCHEM_COORDINATE_TYPE>
2
5
10

$$$$

