17396528
  -OEChem-06241222573D

 41 43  0     0  0  0  0  0  0999 V2000
    0.2797    0.6043    0.7887 O   0  0  0  0  0  0  0  0  0  0  0  0
   -4.6515   -0.6963   -1.3442 O   0  0  0  0  0  0  0  0  0  0  0  0
   -5.9136    0.5683    0.2730 O   0  0  0  0  0  0  0  0  0  0  0  0
    6.0442    1.6209   -0.0723 O   0  0  0  0  0  0  0  0  0  0  0  0
    2.0471   -4.1043   -0.1109 O   0  0  0  0  0  0  0  0  0  0  0  0
    0.8896   -2.1091    0.3748 N   0  0  0  0  0  0  0  0  0  0  0  0
   -1.8758    1.2682    0.0341 C   0  0  0  0  0  0  0  0  0  0  0  0
   -0.4051    1.4883   -0.0898 C   0  0  0  0  0  0  0  0  0  0  0  0
   -3.8695    0.1635   -0.6358 C   0  0  0  0  0  0  0  0  0  0  0  0
   -4.5903    0.8857    0.2875 C   0  0  0  0  0  0  0  0  0  0  0  0
   -2.5084    0.3318   -0.7871 C   0  0  0  0  0  0  0  0  0  0  0  0
    1.5444    0.2261    0.4218 C   0  0  0  0  0  0  0  0  0  0  0  0
   -2.6123    2.0061    0.9775 C   0  0  0  0  0  0  0  0  0  0  0  0
    1.8591   -1.1168    0.2134 C   0  0  0  0  0  0  0  0  0  0  0  0
   -3.9899    1.8161    1.1105 C   0  0  0  0  0  0  0  0  0  0  0  0
    2.5242    1.2055    0.2576 C   0  0  0  0  0  0  0  0  0  0  0  0
    3.8181    0.8421   -0.1154 C   0  0  0  0  0  0  0  0  0  0  0  0
   -5.9451   -0.4348   -0.7626 C   0  0  0  0  0  0  0  0  0  0  0  0
    3.1532   -1.4801   -0.1594 C   0  0  0  0  0  0  0  0  0  0  0  0
    4.1328   -0.5007   -0.3239 C   0  0  0  0  0  0  0  0  0  0  0  0
    4.8396    1.8629   -0.2868 C   0  0  0  0  0  0  0  0  0  0  0  0
    1.0331   -3.4920    0.2084 C   0  0  0  0  0  0  0  0  0  0  0  0
    4.4545    3.2678   -0.7374 C   0  0  0  0  0  0  0  0  0  0  0  0
   -0.2578   -4.2235    0.4783 C   0  0  0  0  0  0  0  0  0  0  0  0
   -0.0950    1.3333   -1.1324 H   0  0  0  0  0  0  0  0  0  0  0  0
   -0.1531    2.5237    0.1709 H   0  0  0  0  0  0  0  0  0  0  0  0
   -1.9539   -0.2472   -1.5178 H   0  0  0  0  0  0  0  0  0  0  0  0
   -2.1149    2.7322    1.6160 H   0  0  0  0  0  0  0  0  0  0  0  0
   -4.5613    2.3828    1.8368 H   0  0  0  0  0  0  0  0  0  0  0  0
    2.2732    2.2463    0.4452 H   0  0  0  0  0  0  0  0  0  0  0  0
   -6.3332   -1.3671   -0.3364 H   0  0  0  0  0  0  0  0  0  0  0  0
   -6.6248   -0.1002   -1.5548 H   0  0  0  0  0  0  0  0  0  0  0  0
    3.4767   -2.4950   -0.3408 H   0  0  0  0  0  0  0  0  0  0  0  0
    5.1350   -0.8011   -0.6188 H   0  0  0  0  0  0  0  0  0  0  0  0
   -0.0316   -1.7714    0.6466 H   0  0  0  0  0  0  0  0  0  0  0  0
    5.2874    3.7037   -1.2972 H   0  0  0  0  0  0  0  0  0  0  0  0
    3.5897    3.2382   -1.4058 H   0  0  0  0  0  0  0  0  0  0  0  0
    4.2382    3.8861    0.1372 H   0  0  0  0  0  0  0  0  0  0  0  0
   -0.1277   -5.2910    0.2797 H   0  0  0  0  0  0  0  0  0  0  0  0
   -0.5459   -4.0878    1.5244 H   0  0  0  0  0  0  0  0  0  0  0  0
   -1.0481   -3.8369   -0.1716 H   0  0  0  0  0  0  0  0  0  0  0  0
  1  8  1  0  0  0  0
  1 12  1  0  0  0  0
  2  9  1  0  0  0  0
  2 18  1  0  0  0  0
  3 10  1  0  0  0  0
  3 18  1  0  0  0  0
  4 21  2  0  0  0  0
  5 22  2  0  0  0  0
  6 14  1  0  0  0  0
  6 22  1  0  0  0  0
  6 35  1  0  0  0  0
  7  8  1  0  0  0  0
  7 11  2  0  0  0  0
  7 13  1  0  0  0  0
  8 25  1  0  0  0  0
  8 26  1  0  0  0  0
  9 10  2  0  0  0  0
  9 11  1  0  0  0  0
 10 15  1  0  0  0  0
 11 27  1  0  0  0  0
 12 14  2  0  0  0  0
 12 16  1  0  0  0  0
 13 15  2  0  0  0  0
 13 28  1  0  0  0  0
 14 19  1  0  0  0  0
 15 29  1  0  0  0  0
 16 17  2  0  0  0  0
 16 30  1  0  0  0  0
 17 20  1  0  0  0  0
 17 21  1  0  0  0  0
 18 31  1  0  0  0  0
 18 32  1  0  0  0  0
 19 20  2  0  0  0  0
 19 33  1  0  0  0  0
 20 34  1  0  0  0  0
 21 23  1  0  0  0  0
 22 24  1  0  0  0  0
 23 36  1  0  0  0  0
 23 37  1  0  0  0  0
 23 38  1  0  0  0  0
 24 39  1  0  0  0  0
 24 40  1  0  0  0  0
 24 41  1  0  0  0  0
M  END
> <PUBCHEM_COMPOUND_CID>
17396528

> <PUBCHEM_CONFORMER_RMSD>
0.8

> <PUBCHEM_CONFORMER_DIVERSEORDER>
1
60
135
79
27
136
107
46
189
197
48
33
66
70
68
178
154
92
84
205
72
62
148
203
75
173
170
16
67
122
209
198
163
104
143
85
146
177
160
11
50
55
195
186
190
191
40
118
82
57
43
147
52
201
152
19
74
140
162
181
150
139
123
25
200
132
106
174
80
32
167
56
83
120
103
185
49
183
129
187
115
4
110
161
38
97
42
21
210
95
156
93
121
65
168
172
90
208
171
155
179
196
91
23
159
71
169
141
109
211
28
130
207
6
105
202
126
44
158
127
164
96
137
204
188
151
18
192
206
193
94
78
24
41
149
102
184
116
133
30
194
113
20
5
69
117
53
145
64
58
3
134
144
182
108
114
14
111
88
175
17
31
166
22
76
45
59
86
99
81
142
124
13
131
165
35
39
63
112
47
153
125
98
26
138
73
8
100
12
157
61
9
119
15
37
10
54
77
89
128
7
87
101
180
2
199
34
51
176
36
29

> <PUBCHEM_MMFF94_PARTIAL_CHARGES>
31
1 -0.36
10 0.08
11 -0.15
12 0.08
13 -0.15
14 0.12
15 -0.15
16 -0.15
17 0.09
18 0.56
19 -0.15
2 -0.36
20 -0.15
21 0.42
22 0.57
23 0.06
24 0.06
27 0.15
28 0.15
29 0.15
3 -0.36
30 0.15
33 0.15
34 0.15
35 0.37
4 -0.57
5 -0.57
6 -0.55
7 -0.14
8 0.42
9 0.08

> <PUBCHEM_EFFECTIVE_ROTOR_COUNT>
6.6

> <PUBCHEM_PHARMACOPHORE_FEATURES>
9
1 1 acceptor
1 2 acceptor
1 3 acceptor
1 4 acceptor
1 5 acceptor
1 6 donor
5 2 3 9 10 18 rings
6 12 14 16 17 19 20 rings
6 7 9 10 11 13 15 rings

> <PUBCHEM_HEAVY_ATOM_COUNT>
24

> <PUBCHEM_ATOM_DEF_STEREO_COUNT>
0

> <PUBCHEM_ATOM_UDEF_STEREO_COUNT>
0

> <PUBCHEM_BOND_DEF_STEREO_COUNT>
0

> <PUBCHEM_BOND_UDEF_STEREO_COUNT>
0

> <PUBCHEM_ISOTOPIC_ATOM_COUNT>
0

> <PUBCHEM_COMPONENT_COUNT>
1

> <PUBCHEM_CACTVS_TAUTO_COUNT>
9

> <PUBCHEM_CONFORMER_ID>
0109733000000001

> <PUBCHEM_MMFF94_ENERGY>
76.7523

> <PUBCHEM_FEATURE_SELFOVERLAP>
45.824

> <PUBCHEM_SHAPE_FINGERPRINT>
10090160 65 18413672404803287964
10595046 47 18333448737747910977
11135609 187 18340493283610140821
12107183 9 17469314203274582065
12166972 35 10952044555136375767
12236239 1 18187362142677336749
12730499 353 18341322353462178874
12788726 201 17385999624592227329
13167823 11 18188208814138712333
13533116 47 18261961859913068403
13583140 156 17060341778010039904
1361 2 18341048536380735572
13631057 29 18189621549468544303
13692114 37 18116166471704037670
138480 1 17834956751878255042
14341114 328 18259985993935389637
14528608 73 18410008827748987284
14787075 74 18260267430046592841
14790565 3 18410569557077689892
15250474 111 18261403299073793455
15537594 2 18041000627176952511
16993438 75 18127968603673461875
17138139 8 17897747382839228719
19319366 153 18335710433266310926
19427546 62 18341046337573556448
20028762 73 18261396702067616382
20645477 70 18200034074137110251
21033650 10 17533744257634054776
21054139 6 18334863787774315574
21344244 181 17895177897306408038
2255824 54 18338515373665372506
23516275 137 17241861294964146671
235170 7 17774733064330182487
23559900 14 17980206609925156969
23566358 27 18192425488117248959
23569917 315 18410854352755639186
239999 70 18188204424624315462
4325135 7 18335139778125820668
469060 322 16271096895153138311
474 4 18341327821304037280
5312544 6 18410292536076588550
5486654 2 18338514145167855164

> <PUBCHEM_SHAPE_MULTIPOLES>
459.58
12.8
4.19
0.91
6.76
5.51
-0.03
-7.75
-2.4
-4.09
0.41
0.78
-0.18
-1.34

> <PUBCHEM_SHAPE_SELFOVERLAP>
996.294

> <PUBCHEM_SHAPE_VOLUME>
251.7

> <PUBCHEM_COORDINATE_TYPE>
2
5
10

$$$$

