17396395
  -OEChem-06241222562D

 44 47  0     1  0  0  0  0  0999 V2000
    5.7567    0.9715    0.0000 S   0  0  0  0  0  0  0  0  0  0  0  0
    8.3548    3.4715    0.0000 O   0  0  0  0  0  0  0  0  0  0  0  0
    4.7861   -0.5230    0.0000 N   0  0  0  0  0  0  0  0  0  0  0  0
    8.3548    0.4715    0.0000 N   0  0  0  0  0  0  0  0  0  0  0  0
    7.4888    1.9715    0.0000 N   0  0  0  0  0  0  0  0  0  0  0  0
    3.9771    0.8783    0.0000 N   0  0  0  0  0  0  0  0  0  0  0  0
    6.6227    0.4715    0.0000 C   0  0  3  0  0  0  0  0  0  0  0  0
    7.4888    0.9715    0.0000 C   0  0  0  0  0  0  0  0  0  0  0  0
    3.8080   -0.7309    0.0000 C   0  0  0  0  0  0  0  0  0  0  0  0
    4.8907    0.4715    0.0000 C   0  0  0  0  0  0  0  0  0  0  0  0
    9.2208    0.9715    0.0000 C   0  0  0  0  0  0  0  0  0  0  0  0
    6.6227   -0.5285    0.0000 C   0  0  0  0  0  0  0  0  0  0  0  0
    9.2208    1.9715    0.0000 C   0  0  0  0  0  0  0  0  0  0  0  0
    3.4013   -1.6444    0.0000 C   0  0  0  0  0  0  0  0  0  0  0  0
    3.3080    0.1351    0.0000 C   0  0  0  0  0  0  0  0  0  0  0  0
    5.5293   -1.1921    0.0000 C   0  0  0  0  0  0  0  0  0  0  0  0
    8.3548    2.4715    0.0000 C   0  0  0  0  0  0  0  0  0  0  0  0
   10.1147    0.4369    0.0000 C   0  0  0  0  0  0  0  0  0  0  0  0
   10.1147    2.5062    0.0000 C   0  0  0  0  0  0  0  0  0  0  0  0
    2.4067   -1.7490    0.0000 C   0  0  0  0  0  0  0  0  0  0  0  0
    3.9890   -2.4535    0.0000 C   0  0  0  0  0  0  0  0  0  0  0  0
   11.0208    0.9507    0.0000 C   0  0  0  0  0  0  0  0  0  0  0  0
   11.0208    1.9924    0.0000 C   0  0  0  0  0  0  0  0  0  0  0  0
    2.0000   -2.6625    0.0000 C   0  0  0  0  0  0  0  0  0  0  0  0
    3.5823   -3.3670    0.0000 C   0  0  0  0  0  0  0  0  0  0  0  0
    2.5878   -3.4715    0.0000 C   0  0  0  0  0  0  0  0  0  0  0  0
    6.0858    0.1615    0.0000 H   0  0  0  0  0  0  0  0  0  0  0  0
    8.3548   -0.1485    0.0000 H   0  0  0  0  0  0  0  0  0  0  0  0
    6.0027   -0.5285    0.0000 H   0  0  0  0  0  0  0  0  0  0  0  0
    6.6227   -1.1485    0.0000 H   0  0  0  0  0  0  0  0  0  0  0  0
    7.2427   -0.5285    0.0000 H   0  0  0  0  0  0  0  0  0  0  0  0
    2.6914    0.1999    0.0000 H   0  0  0  0  0  0  0  0  0  0  0  0
    5.1144   -1.6529    0.0000 H   0  0  0  0  0  0  0  0  0  0  0  0
    5.9900   -1.6070    0.0000 H   0  0  0  0  0  0  0  0  0  0  0  0
    5.9441   -0.7314    0.0000 H   0  0  0  0  0  0  0  0  0  0  0  0
   10.1076   -0.1831    0.0000 H   0  0  0  0  0  0  0  0  0  0  0  0
   10.1076    3.1262    0.0000 H   0  0  0  0  0  0  0  0  0  0  0  0
    2.0423   -1.2474    0.0000 H   0  0  0  0  0  0  0  0  0  0  0  0
    4.6056   -2.3886    0.0000 H   0  0  0  0  0  0  0  0  0  0  0  0
   11.5565    0.6387    0.0000 H   0  0  0  0  0  0  0  0  0  0  0  0
   11.5565    2.3044    0.0000 H   0  0  0  0  0  0  0  0  0  0  0  0
    1.3834   -2.7273    0.0000 H   0  0  0  0  0  0  0  0  0  0  0  0
    3.9467   -3.8686    0.0000 H   0  0  0  0  0  0  0  0  0  0  0  0
    2.3356   -4.0379    0.0000 H   0  0  0  0  0  0  0  0  0  0  0  0
  1  7  1  0  0  0  0
  1 10  1  0  0  0  0
  2 17  2  0  0  0  0
  3  9  1  0  0  0  0
  3 10  1  0  0  0  0
  3 16  1  0  0  0  0
  4  8  1  0  0  0  0
  4 11  1  0  0  0  0
  4 28  1  0  0  0  0
  5  8  2  0  0  0  0
  5 17  1  0  0  0  0
  6 10  2  0  0  0  0
  6 15  1  0  0  0  0
  7  8  1  0  0  0  0
  7 12  1  0  0  0  0
  7 27  1  0  0  0  0
  9 14  1  0  0  0  0
  9 15  2  0  0  0  0
 11 13  1  0  0  0  0
 11 18  2  0  0  0  0
 12 29  1  0  0  0  0
 12 30  1  0  0  0  0
 12 31  1  0  0  0  0
 13 17  1  0  0  0  0
 13 19  2  0  0  0  0
 14 20  2  0  0  0  0
 14 21  1  0  0  0  0
 15 32  1  0  0  0  0
 16 33  1  0  0  0  0
 16 34  1  0  0  0  0
 16 35  1  0  0  0  0
 18 22  1  0  0  0  0
 18 36  1  0  0  0  0
 19 23  1  0  0  0  0
 19 37  1  0  0  0  0
 20 24  1  0  0  0  0
 20 38  1  0  0  0  0
 21 25  2  0  0  0  0
 21 39  1  0  0  0  0
 22 23  2  0  0  0  0
 22 40  1  0  0  0  0
 23 41  1  0  0  0  0
 24 26  2  0  0  0  0
 24 42  1  0  0  0  0
 25 26  1  0  0  0  0
 25 43  1  0  0  0  0
 26 44  1  0  0  0  0
M  END
> <PUBCHEM_COMPOUND_CID>
17396395

> <PUBCHEM_COMPOUND_CANONICALIZED>
1

> <PUBCHEM_CACTVS_COMPLEXITY>
548

> <PUBCHEM_CACTVS_HBOND_ACCEPTOR>
3

> <PUBCHEM_CACTVS_HBOND_DONOR>
1

> <PUBCHEM_CACTVS_ROTATABLE_BOND>
4

> <PUBCHEM_CACTVS_SUBSKEYS>
AAADceB7oABAAAAAAAAAAAAAAAAAAWAAAAAwYIAAAAAAAACB0AAAHgQQAAAADAjF3gS/0JfMEAioAzd3dACC0C11ErAJ2CE4dNiIaLrA3ZGUIYhokALIyecYiICOAAAAAAACAAAAAAAAAAQAAAAAAAAAAA==

> <PUBCHEM_IUPAC_OPENEYE_NAME>
2-[1-(1-methyl-5-phenyl-imidazol-2-yl)sulfanylethyl]-1H-quinazolin-4-one

> <PUBCHEM_IUPAC_CAS_NAME>
2-[1-[(1-methyl-5-phenyl-2-imidazolyl)thio]ethyl]-1H-quinazolin-4-one

> <PUBCHEM_IUPAC_NAME>
2-[1-(1-methyl-5-phenylimidazol-2-yl)sulfanylethyl]-1H-quinazolin-4-one

> <PUBCHEM_IUPAC_SYSTEMATIC_NAME>
2-[1-(1-methyl-5-phenyl-imidazol-2-yl)sulfanylethyl]-1H-quinazolin-4-one

> <PUBCHEM_IUPAC_TRADITIONAL_NAME>
2-[1-[(1-methyl-5-phenyl-imidazol-2-yl)thio]ethyl]-1H-quinazolin-4-one

> <PUBCHEM_IUPAC_INCHI>
InChI=1S/C20H18N4OS/c1-13(18-22-16-11-7-6-10-15(16)19(25)23-18)26-20-21-12-17(24(20)2)14-8-4-3-5-9-14/h3-13H,1-2H3,(H,22,23,25)

> <PUBCHEM_IUPAC_INCHIKEY>
REEAVEQNMUQIJA-UHFFFAOYSA-N

> <PUBCHEM_XLOGP3_AA>
3.4

> <PUBCHEM_EXACT_MASS>
362.120132

> <PUBCHEM_MOLECULAR_FORMULA>
C20H18N4OS

> <PUBCHEM_MOLECULAR_WEIGHT>
362.44812

> <PUBCHEM_OPENEYE_CAN_SMILES>
CC(C1=NC(=O)C2=CC=CC=C2N1)SC3=NC=C(N3C)C4=CC=CC=C4

> <PUBCHEM_OPENEYE_ISO_SMILES>
CC(C1=NC(=O)C2=CC=CC=C2N1)SC3=NC=C(N3C)C4=CC=CC=C4

> <PUBCHEM_CACTVS_TPSA>
84.6

> <PUBCHEM_MONOISOTOPIC_WEIGHT>
362.120132

> <PUBCHEM_TOTAL_CHARGE>
0

> <PUBCHEM_HEAVY_ATOM_COUNT>
26

> <PUBCHEM_ATOM_DEF_STEREO_COUNT>
0

> <PUBCHEM_ATOM_UDEF_STEREO_COUNT>
1

> <PUBCHEM_BOND_DEF_STEREO_COUNT>
0

> <PUBCHEM_BOND_UDEF_STEREO_COUNT>
0

> <PUBCHEM_ISOTOPIC_ATOM_COUNT>
0

> <PUBCHEM_COMPONENT_COUNT>
1

> <PUBCHEM_CACTVS_TAUTO_COUNT>
10

> <PUBCHEM_COORDINATE_TYPE>
1
5
255

> <PUBCHEM_BONDANNOTATIONS>
11  13  8
11  18  8
13  17  8
13  19  8
14  20  8
14  21  8
18  22  8
19  23  8
20  24  8
21  25  8
22  23  8
24  26  8
25  26  8
3  10  8
3  9  8
4  11  8
4  8  8
5  17  8
5  8  8
6  10  8
6  15  8
7  12  3
9  15  8

$$$$

