79591
  -OEChem-07051213013D

 25 25  0     0  0  0  0  0  0999 V2000
    1.6308   -1.2691    0.2610 O   0  0  0  0  0  0  0  0  0  0  0  0
    2.4244    0.7875   -0.4672 N   0  0  0  0  0  0  0  0  0  0  0  0
    0.3082    0.0006   -1.3208 C   0  0  0  0  0  0  0  0  0  0  0  0
   -0.9933    0.0382   -0.5934 C   0  0  0  0  0  0  0  0  0  0  0  0
    1.5090   -0.2545   -0.4206 C   0  0  0  0  0  0  0  0  0  0  0  0
    3.6463    0.7844    0.3024 C   0  0  0  0  0  0  0  0  0  0  0  0
   -1.7293   -1.1340   -0.4199 C   0  0  0  0  0  0  0  0  0  0  0  0
   -1.4744    1.2453   -0.0863 C   0  0  0  0  0  0  0  0  0  0  0  0
    3.7439   -0.4877    1.1224 C   0  0  0  0  0  0  0  0  0  0  0  0
   -2.9465   -1.0991    0.2606 C   0  0  0  0  0  0  0  0  0  0  0  0
   -2.6916    1.2801    0.5943 C   0  0  0  0  0  0  0  0  0  0  0  0
   -3.4275    0.1079    0.7677 C   0  0  0  0  0  0  0  0  0  0  0  0
    0.2980   -0.7972   -2.0751 H   0  0  0  0  0  0  0  0  0  0  0  0
    0.4351    0.9281   -1.8930 H   0  0  0  0  0  0  0  0  0  0  0  0
    4.4834    0.8692   -0.3968 H   0  0  0  0  0  0  0  0  0  0  0  0
    3.6398    1.6694    0.9456 H   0  0  0  0  0  0  0  0  0  0  0  0
    2.2445    1.5947   -1.0563 H   0  0  0  0  0  0  0  0  0  0  0  0
   -1.3647   -2.0812   -0.8084 H   0  0  0  0  0  0  0  0  0  0  0  0
   -0.9093    2.1649   -0.2132 H   0  0  0  0  0  0  0  0  0  0  0  0
    2.9688   -0.5697    1.8917 H   0  0  0  0  0  0  0  0  0  0  0  0
    3.8358   -1.3925    0.5122 H   0  0  0  0  0  0  0  0  0  0  0  0
    4.6852   -0.4418    1.6866 H   0  0  0  0  0  0  0  0  0  0  0  0
   -3.5193   -2.0118    0.3962 H   0  0  0  0  0  0  0  0  0  0  0  0
   -3.0661    2.2198    0.9898 H   0  0  0  0  0  0  0  0  0  0  0  0
   -4.3750    0.1351    1.2978 H   0  0  0  0  0  0  0  0  0  0  0  0
  1  5  2  0  0  0  0
  2  5  1  0  0  0  0
  2  6  1  0  0  0  0
  2 17  1  0  0  0  0
  3  4  1  0  0  0  0
  3  5  1  0  0  0  0
  3 13  1  0  0  0  0
  3 14  1  0  0  0  0
  4  7  2  0  0  0  0
  4  8  1  0  0  0  0
  6  9  1  0  0  0  0
  6 15  1  0  0  0  0
  6 16  1  0  0  0  0
  7 10  1  0  0  0  0
  7 18  1  0  0  0  0
  8 11  2  0  0  0  0
  8 19  1  0  0  0  0
  9 20  1  0  0  0  0
  9 21  1  0  0  0  0
  9 22  1  0  0  0  0
 10 12  2  0  0  0  0
 10 23  1  0  0  0  0
 11 12  1  0  0  0  0
 11 24  1  0  0  0  0
 12 25  1  0  0  0  0
M  END
> <PUBCHEM_COMPOUND_CID>
79591

> <PUBCHEM_CONFORMER_RMSD>
0.6

> <PUBCHEM_CONFORMER_DIVERSEORDER>
2
1
3
4

> <PUBCHEM_MMFF94_PARTIAL_CHARGES>
17
1 -0.57
10 -0.15
11 -0.15
12 -0.15
17 0.37
18 0.15
19 0.15
2 -0.73
23 0.15
24 0.15
25 0.15
3 0.2
4 -0.14
5 0.57
6 0.3
7 -0.15
8 -0.15

> <PUBCHEM_EFFECTIVE_ROTOR_COUNT>
4

> <PUBCHEM_PHARMACOPHORE_FEATURES>
3
1 1 acceptor
1 2 donor
6 4 7 8 10 11 12 rings

> <PUBCHEM_HEAVY_ATOM_COUNT>
12

> <PUBCHEM_ATOM_DEF_STEREO_COUNT>
0

> <PUBCHEM_ATOM_UDEF_STEREO_COUNT>
0

> <PUBCHEM_BOND_DEF_STEREO_COUNT>
0

> <PUBCHEM_BOND_UDEF_STEREO_COUNT>
0

> <PUBCHEM_ISOTOPIC_ATOM_COUNT>
0

> <PUBCHEM_COMPONENT_COUNT>
1

> <PUBCHEM_CACTVS_TAUTO_COUNT>
2

> <PUBCHEM_CONFORMER_ID>
000136E700000002

> <PUBCHEM_MMFF94_ENERGY>
31.8676

> <PUBCHEM_FEATURE_SELFOVERLAP>
15.223

> <PUBCHEM_SHAPE_FINGERPRINT>
10857977 72 18187636986482485613
11031198 65 14996273738738164604
11127187 94 11671779360519993609
11132069 177 18186516601181762733
12251169 10 18412262839412242428
12382932 28 18409727382767943153
12696612 119 18411415090325460924
12932764 1 17989487446046982980
13693222 15 17846784000778469264
13764800 53 17458617939067989313
14144814 61 18413108363938339708
14250199 8 7276533335190937618
15219456 202 17603854650246963166
15775835 57 18261107478294001274
17846911 113 17894350003441198769
18186145 218 14562525155293574356
200 152 18340783550231685655
20201158 50 13110968625559896329
20281407 28 15913330203930627370
20361792 2 15769772459433474270
20528008 55 18408045113103505797
20645464 45 17749103409278544423
20645476 183 7420947543612234245
20653085 51 6483352227156363879
20671657 53 12679464205361016718
20871998 184 17968086466136302791
20871999 31 8934707890934951777
21061003 4 16056878035316441797
21119208 17 8790889574897650945
22445834 79 18202003269434810667
23402539 116 18186810158492295175
23403322 49 13470419889160556232
25 1 13912314681794418526
369184 2 18412822512717008661
7364860 26 17970059152883582126
90316 7 18343300400772222925

> <PUBCHEM_SHAPE_MULTIPOLES>
236.1
6.68
1.32
1.04
3.66
0.05
-0.05
0.44
2.62
-0.55
0.09
0.25
-0.04
-0.33

> <PUBCHEM_SHAPE_SELFOVERLAP>
479.895

> <PUBCHEM_SHAPE_VOLUME>
137.3

> <PUBCHEM_COORDINATE_TYPE>
2
5
10

$$$$

