443632
  -OEChem-07051213022D

 61 67  0     1  0  0  0  0  0999 V2000
    8.1486   -2.0891    0.0000 O   0  0  0  0  0  0  0  0  0  0  0  0
    9.0204   -0.5925    0.0000 O   0  0  0  0  0  0  0  0  0  0  0  0
    6.3675    5.2242    0.0000 O   0  0  0  0  0  0  0  0  0  0  0  0
    2.8602   -5.2159    0.0000 O   0  0  0  0  0  0  0  0  0  0  0  0
    2.0000   -3.7125    0.0000 O   0  0  0  0  0  0  0  0  0  0  0  0
    4.6224   -1.0650    0.0000 N   0  0  0  0  0  0  0  0  0  0  0  0
    2.8383   -2.1134    0.0000 N   0  0  0  0  0  0  0  0  0  0  0  0
    6.3573    2.0544    0.0000 N   0  0  0  0  0  0  0  0  0  0  0  0
    8.2322    0.9911    0.0000 N   0  0  0  0  0  0  0  0  0  0  0  0
    4.6224    0.9350    0.0000 C   0  0  3  0  0  0  0  0  0  0  0  0
    5.4884    0.4350    0.0000 C   0  0  0  0  0  0  0  0  0  0  0  0
    3.7564    0.4350    0.0000 C   0  0  0  0  0  0  0  0  0  0  0  0
    3.7564   -0.5650    0.0000 C   0  0  0  0  0  0  0  0  0  0  0  0
    5.4884   -0.5650    0.0000 C   0  0  0  0  0  0  0  0  0  0  0  0
    2.8464   -1.0718    0.0000 C   0  0  0  0  0  0  0  0  0  0  0  0
    4.6384   -2.1065    0.0000 C   0  0  0  0  0  0  0  0  0  0  0  0
    6.3824    0.9697    0.0000 C   0  0  0  0  0  0  0  0  0  0  0  0
    4.6224    1.9350    0.0000 C   0  0  0  0  0  0  0  0  0  0  0  0
    3.7404   -2.6343    0.0000 C   0  0  0  0  0  0  0  0  0  0  0  0
    6.3824   -1.0996    0.0000 C   0  0  0  0  0  0  0  0  0  0  0  0
    2.8981    0.9319    0.0000 C   0  0  0  0  0  0  0  0  0  0  0  0
    7.2884    0.4558    0.0000 C   0  0  0  0  0  0  0  0  0  0  0  0
    7.2884   -0.5858    0.0000 C   0  0  0  0  0  0  0  0  0  0  0  0
    2.0070   -0.5436    0.0000 C   0  0  0  0  0  0  0  0  0  0  0  0
    2.0327    0.4478    0.0000 C   0  0  0  0  0  0  0  0  0  0  0  0
    5.5904   -2.6271    0.0000 C   0  0  0  0  0  0  0  0  0  0  0  0
    3.7320   -3.7192    0.0000 C   0  0  0  0  0  0  0  0  0  0  0  0
    7.2884    2.6113    0.0000 C   0  0  0  0  0  0  0  0  0  0  0  0
    8.2322    2.0761    0.0000 C   0  0  0  0  0  0  0  0  0  0  0  0
    5.6071   -3.7120    0.0000 C   0  0  0  0  0  0  0  0  0  0  0  0
    4.6717   -4.2617    0.0000 C   0  0  0  0  0  0  0  0  0  0  0  0
    7.2623    3.7412    0.0000 C   0  0  0  0  0  0  0  0  0  0  0  0
    8.1525   -1.0891    0.0000 C   0  0  0  0  0  0  0  0  0  0  0  0
    6.3868    4.2244    0.0000 C   0  0  3  0  0  0  0  0  0  0  0  0
    9.2153    2.6336    0.0000 C   0  0  0  0  0  0  0  0  0  0  0  0
    2.8641   -4.2159    0.0000 C   0  0  0  0  0  0  0  0  0  0  0  0
    8.2322    4.3213    0.0000 C   0  0  0  0  0  0  0  0  0  0  0  0
    9.2153    3.7638    0.0000 C   0  0  0  0  0  0  0  0  0  0  0  0
    5.5306    3.7078    0.0000 C   0  0  0  0  0  0  0  0  0  0  0  0
    5.1593    1.2450    0.0000 H   0  0  0  0  0  0  0  0  0  0  0  0
    5.2424    1.9350    0.0000 H   0  0  0  0  0  0  0  0  0  0  0  0
    4.6224    2.5550    0.0000 H   0  0  0  0  0  0  0  0  0  0  0  0
    4.0024    1.9350    0.0000 H   0  0  0  0  0  0  0  0  0  0  0  0
    6.3752   -1.7196    0.0000 H   0  0  0  0  0  0  0  0  0  0  0  0
    2.9027    1.5519    0.0000 H   0  0  0  0  0  0  0  0  0  0  0  0
    2.3002   -2.4214    0.0000 H   0  0  0  0  0  0  0  0  0  0  0  0
    1.4605   -0.8363    0.0000 H   0  0  0  0  0  0  0  0  0  0  0  0
    1.5019    0.7683    0.0000 H   0  0  0  0  0  0  0  0  0  0  0  0
    6.1212   -2.3068    0.0000 H   0  0  0  0  0  0  0  0  0  0  0  0
    6.1476   -4.0158    0.0000 H   0  0  0  0  0  0  0  0  0  0  0  0
    4.6741   -4.8817    0.0000 H   0  0  0  0  0  0  0  0  0  0  0  0
    5.8440    4.5240    0.0000 H   0  0  0  0  0  0  0  0  0  0  0  0
    9.7510    2.3215    0.0000 H   0  0  0  0  0  0  0  0  0  0  0  0
    8.2250    4.9412    0.0000 H   0  0  0  0  0  0  0  0  0  0  0  0
    9.7510    4.0758    0.0000 H   0  0  0  0  0  0  0  0  0  0  0  0
    5.2103    4.2386    0.0000 H   0  0  0  0  0  0  0  0  0  0  0  0
    4.9997    3.3875    0.0000 H   0  0  0  0  0  0  0  0  0  0  0  0
    5.8508    3.1769    0.0000 H   0  0  0  0  0  0  0  0  0  0  0  0
    8.6844   -2.4012    0.0000 H   0  0  0  0  0  0  0  0  0  0  0  0
    5.8247    5.5238    0.0000 H   0  0  0  0  0  0  0  0  0  0  0  0
    2.3221   -5.5238    0.0000 H   0  0  0  0  0  0  0  0  0  0  0  0
  1 33  1  0  0  0  0
  1 59  1  0  0  0  0
  2 33  2  0  0  0  0
  3 34  1  0  0  0  0
  3 60  1  0  0  0  0
  4 36  1  0  0  0  0
  4 61  1  0  0  0  0
  5 36  2  0  0  0  0
  6 13  1  0  0  0  0
  6 14  1  0  0  0  0
  6 16  1  0  0  0  0
  7 15  1  0  0  0  0
  7 19  1  0  0  0  0
  7 46  1  0  0  0  0
  8 17  2  0  0  0  0
  8 28  1  0  0  0  0
  9 22  2  0  0  0  0
  9 29  1  0  0  0  0
 10 11  1  0  0  0  0
 10 12  1  0  0  0  0
 10 18  1  0  0  0  0
 10 40  1  0  0  0  0
 11 14  2  0  0  0  0
 11 17  1  0  0  0  0
 12 13  2  0  0  0  0
 12 21  1  0  0  0  0
 13 15  1  0  0  0  0
 14 20  1  0  0  0  0
 15 24  2  0  0  0  0
 16 19  1  0  0  0  0
 16 26  2  0  0  0  0
 17 22  1  0  0  0  0
 18 41  1  0  0  0  0
 18 42  1  0  0  0  0
 18 43  1  0  0  0  0
 19 27  2  0  0  0  0
 20 23  2  0  0  0  0
 20 44  1  0  0  0  0
 21 25  2  0  0  0  0
 21 45  1  0  0  0  0
 22 23  1  0  0  0  0
 23 33  1  0  0  0  0
 24 25  1  0  0  0  0
 24 47  1  0  0  0  0
 25 48  1  0  0  0  0
 26 30  1  0  0  0  0
 26 49  1  0  0  0  0
 27 31  1  0  0  0  0
 27 36  1  0  0  0  0
 28 29  1  0  0  0  0
 28 32  2  0  0  0  0
 29 35  2  0  0  0  0
 30 31  2  0  0  0  0
 30 50  1  0  0  0  0
 31 51  1  0  0  0  0
 32 34  1  0  0  0  0
 32 37  1  0  0  0  0
 34 39  1  0  0  0  0
 34 52  1  0  0  0  0
 35 38  1  0  0  0  0
 35 53  1  0  0  0  0
 37 38  2  0  0  0  0
 37 54  1  0  0  0  0
 38 55  1  0  0  0  0
 39 56  1  0  0  0  0
 39 57  1  0  0  0  0
 39 58  1  0  0  0  0
M  END
> <PUBCHEM_COMPOUND_CID>
443632

> <PUBCHEM_COMPOUND_CANONICALIZED>
1

> <PUBCHEM_CACTVS_COMPLEXITY>
981

> <PUBCHEM_CACTVS_HBOND_ACCEPTOR>
9

> <PUBCHEM_CACTVS_HBOND_DONOR>
4

> <PUBCHEM_CACTVS_ROTATABLE_BOND>
3

> <PUBCHEM_CACTVS_SUBSKEYS>
AAADceB7uAAAAAAAAAAAAAAAAAAAAAAAAAA8ePGCAAAAAACx/AAAHgAQCAAADRyhngIyyLPIEgCoAyTyTACCgCQlEiAImCEwfNgIdvrA1dGUdYhm0AHI2ce8yPCOwACAQAQCACCAAQCACAQAQAAAAAAAAA==

> <PUBCHEM_IUPAC_INCHI>
InChI=1S/C30H22N4O5/c1-13-15-6-3-10-20-28(15)34(21-11-5-8-17(29(36)37)25(21)32-20)22-12-18(30(38)39)26-27(23(13)22)33-24-16(14(2)35)7-4-9-19(24)31-26/h3-14,32,35H,1-2H3,(H,36,37)(H,38,39)

> <PUBCHEM_IUPAC_INCHIKEY>
WTSDJSFJEHPIOD-UHFFFAOYSA-N

> <PUBCHEM_XLOGP3_AA>
4.2

> <PUBCHEM_EXACT_MASS>
518.15902

> <PUBCHEM_MOLECULAR_FORMULA>
C30H22N4O5

> <PUBCHEM_MOLECULAR_WEIGHT>
518.51948

> <PUBCHEM_OPENEYE_CAN_SMILES>
CC1C2=C3C(=CC=C2)NC4=C(C=CC=C4N3C5=C1C6=NC7=C(C=CC=C7N=C6C(=C5)C(=O)O)C(C)O)C(=O)O

> <PUBCHEM_OPENEYE_ISO_SMILES>
CC1C2=C3C(=CC=C2)NC4=C(C=CC=C4N3C5=C1C6=NC7=C(C=CC=C7N=C6C(=C5)C(=O)O)C(C)O)C(=O)O

> <PUBCHEM_CACTVS_TPSA>
136

> <PUBCHEM_MONOISOTOPIC_WEIGHT>
518.15902

> <PUBCHEM_TOTAL_CHARGE>
0

> <PUBCHEM_HEAVY_ATOM_COUNT>
39

> <PUBCHEM_ATOM_DEF_STEREO_COUNT>
0

> <PUBCHEM_ATOM_UDEF_STEREO_COUNT>
2

> <PUBCHEM_BOND_DEF_STEREO_COUNT>
0

> <PUBCHEM_BOND_UDEF_STEREO_COUNT>
0

> <PUBCHEM_ISOTOPIC_ATOM_COUNT>
0

> <PUBCHEM_COMPONENT_COUNT>
1

> <PUBCHEM_CACTVS_TAUTO_COUNT>
12

> <PUBCHEM_COORDINATE_TYPE>
1
5
255

> <PUBCHEM_BONDANNOTATIONS>
10  18  3
11  14  8
11  17  8
12  13  8
12  21  8
13  15  8
14  20  8
15  24  8
16  19  8
16  26  8
17  22  8
19  27  8
20  23  8
21  25  8
22  23  8
24  25  8
26  30  8
27  31  8
28  29  8
28  32  8
29  35  8
34  3  3
30  31  8
32  37  8
35  38  8
37  38  8
8  17  8
8  28  8
9  22  8
9  29  8

$$$$

