47205294
  -OEChem-06241222582D

 33 34  0     0  0  0  0  0  0999 V2000
    4.2690    1.0453    0.0000 O   0  0  0  0  0  0  0  0  0  0  0  0
    2.5369   -1.9547    0.0000 O   0  0  0  0  0  0  0  0  0  0  0  0
    6.0010    1.0453    0.0000 N   0  0  0  0  0  0  0  0  0  0  0  0
    6.9716    3.5398    0.0000 N   0  0  0  0  0  0  0  0  0  0  0  0
    7.9497    3.7477    0.0000 N   0  0  0  0  0  0  0  0  0  0  0  0
    4.2690   -0.9547    0.0000 C   0  0  0  0  0  0  0  0  0  0  0  0
    5.1350   -0.4547    0.0000 C   0  0  0  0  0  0  0  0  0  0  0  0
    4.2690   -1.9547    0.0000 C   0  0  0  0  0  0  0  0  0  0  0  0
    5.1350    0.5453    0.0000 C   0  0  0  0  0  0  0  0  0  0  0  0
    6.0010    2.0453    0.0000 C   0  0  0  0  0  0  0  0  0  0  0  0
    3.4030   -2.4547    0.0000 C   0  0  0  0  0  0  0  0  0  0  0  0
    6.8671    2.5453    0.0000 C   0  0  0  0  0  0  0  0  0  0  0  0
    5.1350   -2.4547    0.0000 C   0  0  0  0  0  0  0  0  0  0  0  0
    3.4030   -3.4547    0.0000 C   0  0  0  0  0  0  0  0  0  0  0  0
    5.1350   -3.4547    0.0000 C   0  0  0  0  0  0  0  0  0  0  0  0
    7.7806    2.1386    0.0000 C   0  0  0  0  0  0  0  0  0  0  0  0
    4.2690   -3.9547    0.0000 C   0  0  0  0  0  0  0  0  0  0  0  0
    8.4497    2.8817    0.0000 C   0  0  0  0  0  0  0  0  0  0  0  0
    4.0569   -0.3721    0.0000 H   0  0  0  0  0  0  0  0  0  0  0  0
    3.6584   -1.0623    0.0000 H   0  0  0  0  0  0  0  0  0  0  0  0
    5.3471   -1.0373    0.0000 H   0  0  0  0  0  0  0  0  0  0  0  0
    5.7456   -0.3470    0.0000 H   0  0  0  0  0  0  0  0  0  0  0  0
    5.7890    2.6279    0.0000 H   0  0  0  0  0  0  0  0  0  0  0  0
    5.3905    1.9376    0.0000 H   0  0  0  0  0  0  0  0  0  0  0  0
    6.5380    0.7353    0.0000 H   0  0  0  0  0  0  0  0  0  0  0  0
    5.6720   -2.1447    0.0000 H   0  0  0  0  0  0  0  0  0  0  0  0
    2.8660   -3.7647    0.0000 H   0  0  0  0  0  0  0  0  0  0  0  0
    5.6720   -3.7647    0.0000 H   0  0  0  0  0  0  0  0  0  0  0  0
    7.9095    1.5321    0.0000 H   0  0  0  0  0  0  0  0  0  0  0  0
    4.2690   -4.5747    0.0000 H   0  0  0  0  0  0  0  0  0  0  0  0
    6.5108    3.9547    0.0000 H   0  0  0  0  0  0  0  0  0  0  0  0
    9.0663    2.8169    0.0000 H   0  0  0  0  0  0  0  0  0  0  0  0
    2.0000   -2.2647    0.0000 H   0  0  0  0  0  0  0  0  0  0  0  0
  1  9  2  0  0  0  0
  2 11  1  0  0  0  0
  2 33  1  0  0  0  0
  3  9  1  0  0  0  0
  3 10  1  0  0  0  0
  3 25  1  0  0  0  0
  4  5  1  0  0  0  0
  4 12  1  0  0  0  0
  4 31  1  0  0  0  0
  5 18  2  0  0  0  0
  6  7  1  0  0  0  0
  6  8  1  0  0  0  0
  6 19  1  0  0  0  0
  6 20  1  0  0  0  0
  7  9  1  0  0  0  0
  7 21  1  0  0  0  0
  7 22  1  0  0  0  0
  8 11  1  0  0  0  0
  8 13  2  0  0  0  0
 10 12  1  0  0  0  0
 10 23  1  0  0  0  0
 10 24  1  0  0  0  0
 11 14  2  0  0  0  0
 12 16  2  0  0  0  0
 13 15  1  0  0  0  0
 13 26  1  0  0  0  0
 14 17  1  0  0  0  0
 14 27  1  0  0  0  0
 15 17  2  0  0  0  0
 15 28  1  0  0  0  0
 16 18  1  0  0  0  0
 16 29  1  0  0  0  0
 17 30  1  0  0  0  0
 18 32  1  0  0  0  0
M  END
> <PUBCHEM_COMPOUND_CID>
47205294

> <PUBCHEM_COMPOUND_CANONICALIZED>
1

> <PUBCHEM_CACTVS_COMPLEXITY>
273

> <PUBCHEM_CACTVS_HBOND_ACCEPTOR>
3

> <PUBCHEM_CACTVS_HBOND_DONOR>
3

> <PUBCHEM_CACTVS_ROTATABLE_BOND>
5

> <PUBCHEM_CACTVS_SUBSKEYS>
AAADccBzMAAAAAAAAAAAAAAAAAAAAWAAAAAwAAAAAAAAAAABwAAAHgAYCAAADAzBngQ8hpLjAgCqAzV3UACSBAAgogAYuaE+bJgIZrKC0dOU9Ahk3hGI2AeY3KLOAAAAAAAIAAAAAAAAABAAAAAAAAAAAA==

> <PUBCHEM_IUPAC_OPENEYE_NAME>
3-(2-hydroxyphenyl)-N-(1H-pyrazol-5-ylmethyl)propanamide

> <PUBCHEM_IUPAC_CAS_NAME>
3-(2-hydroxyphenyl)-N-(1H-pyrazol-5-ylmethyl)propanamide

> <PUBCHEM_IUPAC_NAME>
3-(2-hydroxyphenyl)-N-(1H-pyrazol-5-ylmethyl)propanamide

> <PUBCHEM_IUPAC_SYSTEMATIC_NAME>
3-(2-hydroxyphenyl)-N-(1H-pyrazol-5-ylmethyl)propanamide

> <PUBCHEM_IUPAC_TRADITIONAL_NAME>
3-(2-hydroxyphenyl)-N-(1H-pyrazol-5-ylmethyl)propionamide

> <PUBCHEM_IUPAC_INCHI>
InChI=1S/C13H15N3O2/c17-12-4-2-1-3-10(12)5-6-13(18)14-9-11-7-8-15-16-11/h1-4,7-8,17H,5-6,9H2,(H,14,18)(H,15,16)

> <PUBCHEM_IUPAC_INCHIKEY>
AWPBREDQLFQJAP-UHFFFAOYSA-N

> <PUBCHEM_XLOGP3_AA>
0.9

> <PUBCHEM_EXACT_MASS>
245.116427

> <PUBCHEM_MOLECULAR_FORMULA>
C13H15N3O2

> <PUBCHEM_MOLECULAR_WEIGHT>
245.2771

> <PUBCHEM_OPENEYE_CAN_SMILES>
C1=CC=C(C(=C1)CCC(=O)NCC2=CC=NN2)O

> <PUBCHEM_OPENEYE_ISO_SMILES>
C1=CC=C(C(=C1)CCC(=O)NCC2=CC=NN2)O

> <PUBCHEM_CACTVS_TPSA>
78

> <PUBCHEM_MONOISOTOPIC_WEIGHT>
245.116427

> <PUBCHEM_TOTAL_CHARGE>
0

> <PUBCHEM_HEAVY_ATOM_COUNT>
18

> <PUBCHEM_ATOM_DEF_STEREO_COUNT>
0

> <PUBCHEM_ATOM_UDEF_STEREO_COUNT>
0

> <PUBCHEM_BOND_DEF_STEREO_COUNT>
0

> <PUBCHEM_BOND_UDEF_STEREO_COUNT>
0

> <PUBCHEM_ISOTOPIC_ATOM_COUNT>
0

> <PUBCHEM_COMPONENT_COUNT>
1

> <PUBCHEM_CACTVS_TAUTO_COUNT>
12

> <PUBCHEM_COORDINATE_TYPE>
1
5
255

> <PUBCHEM_BONDANNOTATIONS>
11  14  8
12  16  8
13  15  8
14  17  8
15  17  8
16  18  8
4  12  8
4  5  8
5  18  8
8  11  8
8  13  8

$$$$

