11954120
  -OEChem-07051213063D

 68 72  0     1  0  0  0  0  0999 V2000
    8.2346   -1.0716    0.5686 S   0  0  0  0  0  0  0  0  0  0  0  0
    6.6005   -1.0696    0.6826 O   0  0  0  0  0  0  0  0  0  0  0  0
    8.6542   -2.5427    1.1352 O   0  0  0  0  0  0  0  0  0  0  0  0
   -3.9696    1.7934    0.1084 O   0  0  0  0  0  0  0  0  0  0  0  0
    8.5796   -1.0313   -0.8403 O   0  0  0  0  0  0  0  0  0  0  0  0
    8.7674   -0.0744    1.4783 O   0  0  0  0  0  0  0  0  0  0  0  0
   -4.4350   -0.4630   -0.2589 O   0  0  0  0  0  0  0  0  0  0  0  0
   -6.5476    2.1259    1.2165 O   0  0  0  0  0  0  0  0  0  0  0  0
   -8.4727    0.1613    0.1638 O   0  0  0  0  0  0  0  0  0  0  0  0
   -7.3823   -2.5211    0.4158 O   0  0  0  0  0  0  0  0  0  0  0  0
   -5.2353   -3.8731   -0.4997 O   0  0  0  0  0  0  0  0  0  0  0  0
   -3.8204   -2.5102   -1.6558 O   0  0  0  0  0  0  0  0  0  0  0  0
    4.3336   -0.1866    0.2792 C   0  0  1  0  0  0  0  0  0  0  0  0
    3.8601    0.8723   -0.7366 C   0  0  2  0  0  0  0  0  0  0  0  0
    2.3396    0.8836   -0.8917 C   0  0  1  0  0  0  0  0  0  0  0  0
    1.7005    1.2415    0.4844 C   0  0  2  0  0  0  0  0  0  0  0  0
    5.8564    0.0101    0.1521 C   0  0  2  0  0  0  0  0  0  0  0  0
    3.7490    0.1729    1.6506 C   0  0  0  0  0  0  0  0  0  0  0  0
    4.7345    0.6079   -1.9591 C   0  0  0  0  0  0  0  0  0  0  0  0
    2.2139    0.2972    1.6048 C   0  0  0  0  0  0  0  0  0  0  0  0
    6.0859    0.1727   -1.3633 C   0  0  0  0  0  0  0  0  0  0  0  0
    1.8632    1.8923   -1.9385 C   0  0  0  0  0  0  0  0  0  0  0  0
    3.9476   -1.6457   -0.0750 C   0  0  0  0  0  0  0  0  0  0  0  0
    0.1820    1.3524    0.3770 C   0  0  0  0  0  0  0  0  0  0  0  0
    0.3581    1.7517   -2.1455 C   0  0  0  0  0  0  0  0  0  0  0  0
   -0.4302    1.6354   -0.8638 C   0  0  0  0  0  0  0  0  0  0  0  0
   -0.6363    1.2659    1.5173 C   0  0  0  0  0  0  0  0  0  0  0  0
   -1.8279    1.7689   -0.9410 C   0  0  0  0  0  0  0  0  0  0  0  0
   -2.0226    1.4099    1.4279 C   0  0  0  0  0  0  0  0  0  0  0  0
   -2.6192    1.6565    0.1983 C   0  0  0  0  0  0  0  0  0  0  0  0
   -4.7646    0.6828    0.5221 C   0  0  2  0  0  0  0  0  0  0  0  0
   -6.2343    1.0556    0.3254 C   0  0  1  0  0  0  0  0  0  0  0  0
   -7.1509   -0.1326    0.6183 C   0  0  2  0  0  0  0  0  0  0  0  0
   -6.6738   -1.3954   -0.0998 C   0  0  1  0  0  0  0  0  0  0  0  0
   -5.1822   -1.6123    0.1229 C   0  0  1  0  0  0  0  0  0  0  0  0
   -4.6560   -2.6802   -0.7805 C   0  0  0  0  0  0  0  0  0  0  0  0
    4.1506    1.8696   -0.3655 H   0  0  0  0  0  0  0  0  0  0  0  0
    1.9961   -0.1089   -1.2105 H   0  0  0  0  0  0  0  0  0  0  0  0
    2.0401    2.2534    0.7551 H   0  0  0  0  0  0  0  0  0  0  0  0
    6.1625    0.9306    0.6669 H   0  0  0  0  0  0  0  0  0  0  0  0
    4.1625    1.1303    1.9938 H   0  0  0  0  0  0  0  0  0  0  0  0
    4.0363   -0.5723    2.4021 H   0  0  0  0  0  0  0  0  0  0  0  0
    4.3171   -0.1868   -2.5876 H   0  0  0  0  0  0  0  0  0  0  0  0
    4.8454    1.5001   -2.5837 H   0  0  0  0  0  0  0  0  0  0  0  0
    1.7613   -0.6951    1.4895 H   0  0  0  0  0  0  0  0  0  0  0  0
    1.8937    0.6654    2.5863 H   0  0  0  0  0  0  0  0  0  0  0  0
    6.8550    0.9278   -1.5593 H   0  0  0  0  0  0  0  0  0  0  0  0
    6.3957   -0.7584   -1.8489 H   0  0  0  0  0  0  0  0  0  0  0  0
    2.1020    2.9132   -1.6135 H   0  0  0  0  0  0  0  0  0  0  0  0
    2.3678    1.7373   -2.8986 H   0  0  0  0  0  0  0  0  0  0  0  0
    4.3652   -1.9683   -1.0338 H   0  0  0  0  0  0  0  0  0  0  0  0
    2.8663   -1.7954   -0.1326 H   0  0  0  0  0  0  0  0  0  0  0  0
    4.3219   -2.3388    0.6876 H   0  0  0  0  0  0  0  0  0  0  0  0
    0.0024    2.6132   -2.7235 H   0  0  0  0  0  0  0  0  0  0  0  0
    0.1625    0.8517   -2.7427 H   0  0  0  0  0  0  0  0  0  0  0  0
   -0.2119    1.0959    2.5022 H   0  0  0  0  0  0  0  0  0  0  0  0
   -2.3004    1.9642   -1.9016 H   0  0  0  0  0  0  0  0  0  0  0  0
   -2.6150    1.3459    2.3363 H   0  0  0  0  0  0  0  0  0  0  0  0
    8.2227   -2.8071    1.9814 H   0  0  0  0  0  0  0  0  0  0  0  0
   -4.5781    0.4796    1.5851 H   0  0  0  0  0  0  0  0  0  0  0  0
   -6.4014    1.4258   -0.6937 H   0  0  0  0  0  0  0  0  0  0  0  0
   -7.2251   -0.2969    1.7006 H   0  0  0  0  0  0  0  0  0  0  0  0
   -6.9079   -1.3268   -1.1694 H   0  0  0  0  0  0  0  0  0  0  0  0
   -4.9355   -1.8870    1.1560 H   0  0  0  0  0  0  0  0  0  0  0  0
   -7.4900    2.3353    1.0983 H   0  0  0  0  0  0  0  0  0  0  0  0
   -9.0260   -0.6149    0.3564 H   0  0  0  0  0  0  0  0  0  0  0  0
   -7.1833   -2.5938    1.3649 H   0  0  0  0  0  0  0  0  0  0  0  0
   -4.9038   -4.5880   -1.0840 H   0  0  0  0  0  0  0  0  0  0  0  0
  1  2  1  0  0  0  0
  1  3  1  0  0  0  0
  1  5  2  0  0  0  0
  1  6  2  0  0  0  0
  2 17  1  0  0  0  0
  3 59  1  0  0  0  0
  4 30  1  0  0  0  0
  4 31  1  0  0  0  0
  7 31  1  0  0  0  0
  7 35  1  0  0  0  0
  8 32  1  0  0  0  0
  8 65  1  0  0  0  0
  9 33  1  0  0  0  0
  9 66  1  0  0  0  0
 10 34  1  0  0  0  0
 10 67  1  0  0  0  0
 11 36  1  0  0  0  0
 11 68  1  0  0  0  0
 12 36  2  0  0  0  0
 13 14  1  0  0  0  0
 13 17  1  0  0  0  0
 13 18  1  0  0  0  0
 13 23  1  0  0  0  0
 14 15  1  0  0  0  0
 14 19  1  0  0  0  0
 14 37  1  0  0  0  0
 15 16  1  0  0  0  0
 15 22  1  0  0  0  0
 15 38  1  0  0  0  0
 16 20  1  0  0  0  0
 16 24  1  0  0  0  0
 16 39  1  0  0  0  0
 17 21  1  0  0  0  0
 17 40  1  0  0  0  0
 18 20  1  0  0  0  0
 18 41  1  0  0  0  0
 18 42  1  0  0  0  0
 19 21  1  0  0  0  0
 19 43  1  0  0  0  0
 19 44  1  0  0  0  0
 20 45  1  0  0  0  0
 20 46  1  0  0  0  0
 21 47  1  0  0  0  0
 21 48  1  0  0  0  0
 22 25  1  0  0  0  0
 22 49  1  0  0  0  0
 22 50  1  0  0  0  0
 23 51  1  0  0  0  0
 23 52  1  0  0  0  0
 23 53  1  0  0  0  0
 24 26  2  0  0  0  0
 24 27  1  0  0  0  0
 25 26  1  0  0  0  0
 25 54  1  0  0  0  0
 25 55  1  0  0  0  0
 26 28  1  0  0  0  0
 27 29  2  0  0  0  0
 27 56  1  0  0  0  0
 28 30  2  0  0  0  0
 28 57  1  0  0  0  0
 29 30  1  0  0  0  0
 29 58  1  0  0  0  0
 31 32  1  0  0  0  0
 31 60  1  0  0  0  0
 32 33  1  0  0  0  0
 32 61  1  0  0  0  0
 33 34  1  0  0  0  0
 33 62  1  0  0  0  0
 34 35  1  0  0  0  0
 34 63  1  0  0  0  0
 35 36  1  0  0  0  0
 35 64  1  0  0  0  0
M  END
> <PUBCHEM_COMPOUND_CID>
11954120

> <PUBCHEM_CONFORMER_RMSD>
1

> <PUBCHEM_CONFORMER_DIVERSEORDER>
1
24
44
7
5
37
13
18
28
52
41
43
16
22
34
23
45
25
53
26
19
38
35
50
48
10
15
47
20
3
12
39
17
30
31
36
21
4
33
14
27
42
6
11
46
2
40
9
32
49
54
8
51
29

> <PUBCHEM_MMFF94_PARTIAL_CHARGES>
35
1 1.67
10 -0.68
11 -0.65
12 -0.57
16 0.14
17 0.28
2 -0.46
24 -0.14
25 0.14
26 -0.14
27 -0.15
28 -0.15
29 -0.15
3 -0.68
30 0.08
31 0.56
32 0.28
33 0.28
34 0.28
35 0.34
36 0.66
4 -0.36
5 -0.65
56 0.15
57 0.15
58 0.15
59 0.5
6 -0.65
65 0.4
66 0.4
67 0.4
68 0.5
7 -0.56
8 -0.68
9 -0.68

> <PUBCHEM_EFFECTIVE_ROTOR_COUNT>
7.6

> <PUBCHEM_PHARMACOPHORE_FEATURES>
20
1 10 acceptor
1 10 donor
1 11 acceptor
1 12 acceptor
1 3 acceptor
1 4 acceptor
1 5 acceptor
1 6 acceptor
1 7 acceptor
1 8 acceptor
1 8 donor
1 9 acceptor
1 9 donor
3 11 12 36 anion
4 1 3 5 6 anion
5 13 14 17 19 21 rings
6 13 14 15 16 18 20 rings
6 15 16 22 24 25 26 rings
6 24 26 27 28 29 30 rings
6 7 31 32 33 34 35 rings

> <PUBCHEM_HEAVY_ATOM_COUNT>
36

> <PUBCHEM_ATOM_DEF_STEREO_COUNT>
10

> <PUBCHEM_ATOM_UDEF_STEREO_COUNT>
0

> <PUBCHEM_BOND_DEF_STEREO_COUNT>
0

> <PUBCHEM_BOND_UDEF_STEREO_COUNT>
0

> <PUBCHEM_ISOTOPIC_ATOM_COUNT>
0

> <PUBCHEM_COMPONENT_COUNT>
1

> <PUBCHEM_CACTVS_TAUTO_COUNT>
1

> <PUBCHEM_CONFORMER_ID>
00B667C800000001

> <PUBCHEM_MMFF94_ENERGY>
111.8583

> <PUBCHEM_FEATURE_SELFOVERLAP>
101.778

> <PUBCHEM_SHAPE_FINGERPRINT>
10 15 16298107596938362696
10190206 1 13326579587533807750
10299344 5 18343298171767825708
11135609 99 18261393330227553788
11135926 11 18341619252120344447
11524674 6 17167861959670637343
117089 54 16663430346888727470
11796584 16 18260539031199386957
11991303 11 14620502386093529513
12643181 29 18333453149396151083
13540713 4 15287022091155346833
13690498 29 17846505846191742085
13782708 43 18411706495888681896
13811026 1 17894911823538451302
13914758 101 10447929482335301168
13974486 27 17394437448043490543
14068700 675 18412261726963699456
14739800 52 9367071004419912397
14931854 50 15626224654313544048
15183329 4 16773799182023510025
15198563 99 15267350655681554167
15289351 153 9223238429845562412
15297060 5 18186237346767227819
15320294 125 18410575063974798519
15352257 5 18334012812987713799
18603816 31 18410579466063120395
18608769 82 18187368722809574042
19611394 137 17313105241743600000
20105231 36 16732699468196161316
2026 5 17773038786212375930
208703 8 18130791118545590911
20982279 24 16589125265727442334
21792938 703 17631165286778635995
23516275 137 18124006161224468931
23522609 53 17984387898370866661
23559900 14 18043252350008943425
23576562 1 14476099091875116255
3004659 81 18271805684094869033
3178227 256 16225767420080436368
335352 9 16630516368122543984
3383291 50 17749384825096982263
3418910 222 17749100076949576032
397830 11 17895766097055888616
4098825 35 11311783882009338568
445580 37 10519987071170686292
46194498 28 13614227153755874485
4625314 4 18410576193218952128
54039377 194 18131347489062659299
559249 180 18411697674284389965
5969126 39 17489873773280669436
6009941 240 17676765470320840369
6081469 158 14189574157279508328
6691757 9 18188203295886712593
9953998 17 18113622300037994129
9962374 69 17989204846691050596
999808 66 17530686515674896422

> <PUBCHEM_SHAPE_MULTIPOLES>
680.15
26.1
2.8
1.67
10.58
2.17
0.28
17.18
-4.67
-4.01
0.7
1.53
-0.49
-2.75

> <PUBCHEM_SHAPE_SELFOVERLAP>
1456.207

> <PUBCHEM_SHAPE_VOLUME>
378.3

> <PUBCHEM_COORDINATE_TYPE>
2
5
10

$$$$

