8560
  -OEChem-06261202542D

 32 32  0     0  0  0  0  0  0999 V2000
    4.5981   -1.5000    0.0000 O   0  0  0  0  0  0  0  0  0  0  0  0
    8.0622    0.5000    0.0000 O   0  0  0  0  0  0  0  0  0  0  0  0
    5.4641    0.0000    0.0000 O   0  0  0  0  0  0  0  0  0  0  0  0
    6.3301    0.5000    0.0000 O   0  0  0  0  0  0  0  0  0  0  0  0
    7.1962   -1.0000    0.0000 C   0  0  0  0  0  0  0  0  0  0  0  0
    6.3301   -1.5000    0.0000 C   0  0  0  0  0  0  0  0  0  0  0  0
    6.3301   -2.5000    0.0000 C   0  0  0  0  0  0  0  0  0  0  0  0
    8.0622   -1.5000    0.0000 C   0  0  0  0  0  0  0  0  0  0  0  0
    7.1962   -3.0000    0.0000 C   0  0  0  0  0  0  0  0  0  0  0  0
    8.0622   -2.5000    0.0000 C   0  0  0  0  0  0  0  0  0  0  0  0
    5.4641   -1.0000    0.0000 C   0  0  0  0  0  0  0  0  0  0  0  0
    7.1962    0.0000    0.0000 C   0  0  0  0  0  0  0  0  0  0  0  0
    8.0622    1.5000    0.0000 C   0  0  0  0  0  0  0  0  0  0  0  0
    3.7320   -1.0000    0.0000 C   0  0  0  0  0  0  0  0  0  0  0  0
    8.9282    2.0000    0.0000 C   0  0  0  0  0  0  0  0  0  0  0  0
    2.8660   -1.5000    0.0000 C   0  0  0  0  0  0  0  0  0  0  0  0
    2.0000   -1.0000    0.0000 C   0  0  0  0  0  0  0  0  0  0  0  0
    8.9282    3.0000    0.0000 C   0  0  0  0  0  0  0  0  0  0  0  0
    8.5991   -1.1900    0.0000 H   0  0  0  0  0  0  0  0  0  0  0  0
    5.7932   -2.8100    0.0000 H   0  0  0  0  0  0  0  0  0  0  0  0
    7.1962   -3.6200    0.0000 H   0  0  0  0  0  0  0  0  0  0  0  0
    8.5991   -2.8100    0.0000 H   0  0  0  0  0  0  0  0  0  0  0  0
    4.1306   -0.5251    0.0000 H   0  0  0  0  0  0  0  0  0  0  0  0
    3.3335   -0.5251    0.0000 H   0  0  0  0  0  0  0  0  0  0  0  0
    7.8501    2.0826    0.0000 H   0  0  0  0  0  0  0  0  0  0  0  0
    7.4516    1.3923    0.0000 H   0  0  0  0  0  0  0  0  0  0  0  0
    2.8660   -2.1200    0.0000 H   0  0  0  0  0  0  0  0  0  0  0  0
    9.4651    1.6900    0.0000 H   0  0  0  0  0  0  0  0  0  0  0  0
    2.0000   -0.3800    0.0000 H   0  0  0  0  0  0  0  0  0  0  0  0
    1.4631   -1.3100    0.0000 H   0  0  0  0  0  0  0  0  0  0  0  0
    9.4651    3.3100    0.0000 H   0  0  0  0  0  0  0  0  0  0  0  0
    8.3913    3.3100    0.0000 H   0  0  0  0  0  0  0  0  0  0  0  0
  1 11  1  0  0  0  0
  1 14  1  0  0  0  0
  2 12  1  0  0  0  0
  2 13  1  0  0  0  0
  3 11  2  0  0  0  0
  4 12  2  0  0  0  0
  5  6  1  0  0  0  0
  5  8  2  0  0  0  0
  5 12  1  0  0  0  0
  6  7  2  0  0  0  0
  6 11  1  0  0  0  0
  7  9  1  0  0  0  0
  7 20  1  0  0  0  0
  8 10  1  0  0  0  0
  8 19  1  0  0  0  0
  9 10  2  0  0  0  0
  9 21  1  0  0  0  0
 10 22  1  0  0  0  0
 13 15  1  0  0  0  0
 13 25  1  0  0  0  0
 13 26  1  0  0  0  0
 14 16  1  0  0  0  0
 14 23  1  0  0  0  0
 14 24  1  0  0  0  0
 15 18  2  0  0  0  0
 15 28  1  0  0  0  0
 16 17  2  0  0  0  0
 16 27  1  0  0  0  0
 17 29  1  0  0  0  0
 17 30  1  0  0  0  0
 18 31  1  0  0  0  0
 18 32  1  0  0  0  0
M  END
> <PUBCHEM_COMPOUND_CID>
8560

> <PUBCHEM_COMPOUND_CANONICALIZED>
1

> <PUBCHEM_CACTVS_COMPLEXITY>
290

> <PUBCHEM_CACTVS_HBOND_ACCEPTOR>
4

> <PUBCHEM_CACTVS_HBOND_DONOR>
0

> <PUBCHEM_CACTVS_ROTATABLE_BOND>
8

> <PUBCHEM_CACTVS_SUBSKEYS>
AAADccBwOAAAAAAAAAAAAAAAAAAAAAAAAAAwAAAAAAAAAAABAAAAGgAAAAAADACgmAIwCIAABACIAiDSCAACAAAkAAAIiAEACMgIJjKANRiCMQAkwAEIqYfLyKCOgAAAAAAQAAAAAAAAACAAAAAAAAAAAA==

> <PUBCHEM_IUPAC_OPENEYE_NAME>
diallyl benzene-1,2-dicarboxylate

> <PUBCHEM_IUPAC_CAS_NAME>
benzene-1,2-dicarboxylic acid bis(prop-2-enyl) ester

> <PUBCHEM_IUPAC_NAME>
bis(prop-2-enyl) benzene-1,2-dicarboxylate

> <PUBCHEM_IUPAC_SYSTEMATIC_NAME>
bis(prop-2-enyl) benzene-1,2-dicarboxylate

> <PUBCHEM_IUPAC_TRADITIONAL_NAME>
benzene-1,2-dicarboxylic acid diallyl ester

> <PUBCHEM_IUPAC_INCHI>
InChI=1S/C14H14O4/c1-3-9-17-13(15)11-7-5-6-8-12(11)14(16)18-10-4-2/h3-8H,1-2,9-10H2

> <PUBCHEM_IUPAC_INCHIKEY>
QUDWYFHPNIMBFC-UHFFFAOYSA-N

> <PUBCHEM_XLOGP3>
3.2

> <PUBCHEM_EXACT_MASS>
246.089209

> <PUBCHEM_MOLECULAR_FORMULA>
C14H14O4

> <PUBCHEM_MOLECULAR_WEIGHT>
246.25856

> <PUBCHEM_OPENEYE_CAN_SMILES>
C=CCOC(=O)C1=CC=CC=C1C(=O)OCC=C

> <PUBCHEM_OPENEYE_ISO_SMILES>
C=CCOC(=O)C1=CC=CC=C1C(=O)OCC=C

> <PUBCHEM_CACTVS_TPSA>
52.6

> <PUBCHEM_MONOISOTOPIC_WEIGHT>
246.089209

> <PUBCHEM_TOTAL_CHARGE>
0

> <PUBCHEM_HEAVY_ATOM_COUNT>
18

> <PUBCHEM_ATOM_DEF_STEREO_COUNT>
0

> <PUBCHEM_ATOM_UDEF_STEREO_COUNT>
0

> <PUBCHEM_BOND_DEF_STEREO_COUNT>
0

> <PUBCHEM_BOND_UDEF_STEREO_COUNT>
0

> <PUBCHEM_ISOTOPIC_ATOM_COUNT>
0

> <PUBCHEM_COMPONENT_COUNT>
1

> <PUBCHEM_CACTVS_TAUTO_COUNT>
1

> <PUBCHEM_COORDINATE_TYPE>
1
5
255

> <PUBCHEM_BONDANNOTATIONS>
5  6  8
5  8  8
6  7  8
7  9  8
8  10  8
9  10  8

$$$$

