94686
  -OEChem-07051213123D

 49 51  0     0  0  0  0  0  0999 V2000
   -0.1725    1.1377   -2.3956 Cl  0  0  0  0  0  0  0  0  0  0  0  0
   -0.3631    4.8027    1.6175 Cl  0  0  0  0  0  0  0  0  0  0  0  0
    0.9568   -1.0395    1.1876 O   0  0  0  0  0  0  0  0  0  0  0  0
    2.8126    0.5399   -2.3302 O   0  0  0  0  0  0  0  0  0  0  0  0
   -1.1569    0.5474    1.5047 O   0  0  0  0  0  0  0  0  0  0  0  0
    2.7647   -2.5270    0.9801 N   0  0  0  0  0  0  0  0  0  0  0  0
    3.8878   -2.7476    0.2757 N   0  0  0  0  0  0  0  0  0  0  0  0
    2.8169   -0.8556   -0.4251 C   0  0  0  0  0  0  0  0  0  0  0  0
    2.1055   -1.4128    0.5893 C   0  0  0  0  0  0  0  0  0  0  0  0
    3.9143   -1.7235   -0.5811 C   0  0  0  0  0  0  0  0  0  0  0  0
    2.4900    0.3396   -1.1433 C   0  0  0  0  0  0  0  0  0  0  0  0
    1.7345    1.4534   -0.4892 C   0  0  0  0  0  0  0  0  0  0  0  0
    5.0240   -1.6129   -1.5442 C   0  0  0  0  0  0  0  0  0  0  0  0
   -0.2692   -1.5213    0.6693 C   0  0  0  0  0  0  0  0  0  0  0  0
    2.3936   -3.4506    2.0270 C   0  0  0  0  0  0  0  0  0  0  0  0
    0.5255    1.8753   -0.9903 C   0  0  0  0  0  0  0  0  0  0  0  0
   -0.1393    2.9174   -0.3439 C   0  0  0  0  0  0  0  0  0  0  0  0
    2.3169    2.0167    0.6249 C   0  0  0  0  0  0  0  0  0  0  0  0
   -1.4042   -0.5146    0.8986 C   0  0  0  0  0  0  0  0  0  0  0  0
   -2.7435   -0.8074    0.4130 C   0  0  0  0  0  0  0  0  0  0  0  0
    0.4240    3.5091    0.7867 C   0  0  0  0  0  0  0  0  0  0  0  0
    1.6522    3.0587    1.2710 C   0  0  0  0  0  0  0  0  0  0  0  0
   -1.4598    3.4048   -0.8594 C   0  0  0  0  0  0  0  0  0  0  0  0
   -2.9954   -2.0024   -0.2605 C   0  0  0  0  0  0  0  0  0  0  0  0
   -3.7760    0.1070    0.6213 C   0  0  0  0  0  0  0  0  0  0  0  0
   -5.3127   -1.3689   -0.5176 C   0  0  0  0  0  0  0  0  0  0  0  0
   -4.2800   -2.2832   -0.7260 C   0  0  0  0  0  0  0  0  0  0  0  0
   -5.0607   -0.1736    0.1559 C   0  0  0  0  0  0  0  0  0  0  0  0
   -6.6862   -1.6689   -1.0161 C   0  0  0  0  0  0  0  0  0  0  0  0
    5.8169   -2.3397   -1.3374 H   0  0  0  0  0  0  0  0  0  0  0  0
    4.6651   -1.7895   -2.5633 H   0  0  0  0  0  0  0  0  0  0  0  0
    5.4722   -0.6147   -1.5057 H   0  0  0  0  0  0  0  0  0  0  0  0
   -0.1759   -1.6938   -0.4096 H   0  0  0  0  0  0  0  0  0  0  0  0
   -0.5132   -2.4559    1.1847 H   0  0  0  0  0  0  0  0  0  0  0  0
    1.8309   -2.9194    2.7983 H   0  0  0  0  0  0  0  0  0  0  0  0
    1.7826   -4.2390    1.5811 H   0  0  0  0  0  0  0  0  0  0  0  0
    3.3008   -3.8737    2.4666 H   0  0  0  0  0  0  0  0  0  0  0  0
    3.2759    1.6804    1.0075 H   0  0  0  0  0  0  0  0  0  0  0  0
    2.1056    3.5101    2.1499 H   0  0  0  0  0  0  0  0  0  0  0  0
   -1.4728    3.4504   -1.9535 H   0  0  0  0  0  0  0  0  0  0  0  0
   -2.2614    2.7403   -0.5222 H   0  0  0  0  0  0  0  0  0  0  0  0
   -1.7098    4.4225   -0.5498 H   0  0  0  0  0  0  0  0  0  0  0  0
   -2.2240   -2.7439   -0.4427 H   0  0  0  0  0  0  0  0  0  0  0  0
   -3.6048    1.0445    1.1437 H   0  0  0  0  0  0  0  0  0  0  0  0
   -4.4649   -3.2185   -1.2476 H   0  0  0  0  0  0  0  0  0  0  0  0
   -5.8573    0.5459    0.3256 H   0  0  0  0  0  0  0  0  0  0  0  0
   -7.2220   -0.7495   -1.2755 H   0  0  0  0  0  0  0  0  0  0  0  0
   -6.6522   -2.2856   -1.9207 H   0  0  0  0  0  0  0  0  0  0  0  0
   -7.2559   -2.2024   -0.2488 H   0  0  0  0  0  0  0  0  0  0  0  0
  1 16  1  0  0  0  0
  2 21  1  0  0  0  0
  3  9  1  0  0  0  0
  3 14  1  0  0  0  0
  4 11  2  0  0  0  0
  5 19  2  0  0  0  0
  6  7  1  0  0  0  0
  6  9  1  0  0  0  0
  6 15  1  0  0  0  0
  7 10  2  0  0  0  0
  8  9  2  0  0  0  0
  8 10  1  0  0  0  0
  8 11  1  0  0  0  0
 10 13  1  0  0  0  0
 11 12  1  0  0  0  0
 12 16  2  0  0  0  0
 12 18  1  0  0  0  0
 13 30  1  0  0  0  0
 13 31  1  0  0  0  0
 13 32  1  0  0  0  0
 14 19  1  0  0  0  0
 14 33  1  0  0  0  0
 14 34  1  0  0  0  0
 15 35  1  0  0  0  0
 15 36  1  0  0  0  0
 15 37  1  0  0  0  0
 16 17  1  0  0  0  0
 17 21  2  0  0  0  0
 17 23  1  0  0  0  0
 18 22  2  0  0  0  0
 18 38  1  0  0  0  0
 19 20  1  0  0  0  0
 20 24  2  0  0  0  0
 20 25  1  0  0  0  0
 21 22  1  0  0  0  0
 22 39  1  0  0  0  0
 23 40  1  0  0  0  0
 23 41  1  0  0  0  0
 23 42  1  0  0  0  0
 24 27  1  0  0  0  0
 24 43  1  0  0  0  0
 25 28  2  0  0  0  0
 25 44  1  0  0  0  0
 26 27  2  0  0  0  0
 26 28  1  0  0  0  0
 26 29  1  0  0  0  0
 27 45  1  0  0  0  0
 28 46  1  0  0  0  0
 29 47  1  0  0  0  0
 29 48  1  0  0  0  0
 29 49  1  0  0  0  0
M  END
> <PUBCHEM_COMPOUND_CID>
94686

> <PUBCHEM_CONFORMER_RMSD>
1

> <PUBCHEM_CONFORMER_DIVERSEORDER>
2
166
219
218
22
215
27
203
99
211
249
139
247
197
233
209
257
52
259
216
86
78
57
183
213
130
223
19
168
204
115
61
179
111
85
150
160
143
188
16
154
190
129
51
48
147
182
15
64
107
158
163
220
45
226
47
13
225
32
173
11
180
161
207
176
8
29
240
126
232
248
151
199
41
91
250
189
38
49
36
227
12
170
258
186
33
234
40
98
201
63
79
196
244
20
113
251
171
69
9
21
138
253
243
44
35
254
125
109
81
206
135
222
82
72
200
77
212
172
144
100
175
18
84
195
10
184
134
90
43
198
133
235
59
83
80
145
159
156
246
6
4
121
89
117
102
67
149
165
92
122
252
3
14
88
7
202
224
104
140
169
94
214
73
56
97
71
131
230
55
25
141
23
157
185
74
95
50
148
155
112
187
68
193
236
116
231
191
58
17
5
60
93
1
62
208
114
241
194
24
26
174
237
108
167
132
137
30
119
106
103
54
87
53
65
152
124
164
205
239
260
96
245
118
153
181
31
76
192
70
28
146
46
105
228
75
42
101
238
256
110
242
39
221
162
136
34
255
177
37
229
127
178
217
123
210
66
120
142
128

> <PUBCHEM_MMFF94_PARTIAL_CHARGES>
35
1 -0.18
10 0.11
11 0.57
12 0.09
13 0.18
14 0.34
15 0.26
16 0.18
17 -0.14
18 -0.15
19 0.42
2 -0.18
20 0.09
21 0.18
22 -0.15
23 0.14
24 -0.15
25 -0.15
26 -0.14
27 -0.15
28 -0.15
29 0.14
3 -0.34
38 0.15
39 0.15
4 -0.57
43 0.15
44 0.15
45 0.15
46 0.15
5 -0.57
6 0.31
7 -0.71
8 -0.09
9 -0.09

> <PUBCHEM_EFFECTIVE_ROTOR_COUNT>
6

> <PUBCHEM_PHARMACOPHORE_FEATURES>
7
1 3 acceptor
1 4 acceptor
1 5 acceptor
1 7 acceptor
5 6 7 8 9 10 rings
6 12 16 17 18 21 22 rings
6 20 24 25 26 27 28 rings

> <PUBCHEM_HEAVY_ATOM_COUNT>
29

> <PUBCHEM_ATOM_DEF_STEREO_COUNT>
0

> <PUBCHEM_ATOM_UDEF_STEREO_COUNT>
0

> <PUBCHEM_BOND_DEF_STEREO_COUNT>
0

> <PUBCHEM_BOND_UDEF_STEREO_COUNT>
0

> <PUBCHEM_ISOTOPIC_ATOM_COUNT>
0

> <PUBCHEM_COMPONENT_COUNT>
1

> <PUBCHEM_CACTVS_TAUTO_COUNT>
2

> <PUBCHEM_CONFORMER_ID>
000171DE00000002

> <PUBCHEM_MMFF94_ENERGY>
82.4042

> <PUBCHEM_FEATURE_SELFOVERLAP>
35.529

> <PUBCHEM_SHAPE_FINGERPRINT>
10622 236 17556590060116728858
11115154 58 18408318909084996753
11135609 149 18123504676732136551
11370993 70 17544202575644441665
114674 6 18269280053844749641
11578080 2 18189353401174382968
12788726 201 18195800988840908178
13533116 47 18265333911715023239
13540713 5 17770492355652061634
13631057 29 18340200912506713182
14068700 675 18341330085104814702
14681490 219 18411134723244506260
14787075 74 18410845544040562844
15210252 30 17346312644433319229
15420108 30 17684391472417021722
18681886 176 18187649076547268886
20626108 58 18040999518722176447
20775438 99 17546500692971010367
20775530 9 18412542145741763601
221357 26 18201726158846467023
22149856 69 17621303656217866499
23419403 2 17339897024550787224
23559900 14 18263649468185464123
238 59 17980183202332554618
25147074 1 17628624556548200698
345986 75 18270688695775602699
463206 1 18340478985215691107
513532 50 18115304462808102276
6443956 14 18339925904901787697
7164475 11 18126568066213916706
7471813 234 18341897441267673450
9981440 41 17255410319022952641

> <PUBCHEM_SHAPE_MULTIPOLES>
572.98
9.69
5.17
1.81
13.91
4.94
0.39
-10.47
3.24
-2.62
-2.31
-1.13
0.2
-0.68

> <PUBCHEM_SHAPE_SELFOVERLAP>
1226.591

> <PUBCHEM_SHAPE_VOLUME>
321.6

> <PUBCHEM_COORDINATE_TYPE>
2
5
10

$$$$

