5053
  -OEChem-06261200293D

 51 53  0     1  0  0  0  0  0999 V2000
    1.3288    1.7057   -0.3226 O   0  0  0  0  0  0  0  0  0  0  0  0
    3.1753    2.9950    0.2032 O   0  0  0  0  0  0  0  0  0  0  0  0
   -2.9872    2.1582   -1.0675 O   0  0  0  0  0  0  0  0  0  0  0  0
    4.4652    0.2009    0.3765 C   0  0  0  0  0  0  0  0  0  0  0  0
    3.1927   -0.5160    0.0793 C   0  0  1  0  0  0  0  0  0  0  0  0
    3.4718    0.7918   -0.5805 C   0  0  1  0  0  0  0  0  0  0  0  0
    4.6006    0.7930    1.7391 C   0  0  0  0  0  0  0  0  0  0  0  0
    5.7565   -0.2867   -0.1915 C   0  0  0  0  0  0  0  0  0  0  0  0
    3.2152   -1.7303   -0.7584 C   0  0  0  0  0  0  0  0  0  0  0  0
    2.6595    1.9577   -0.1877 C   0  0  0  0  0  0  0  0  0  0  0  0
    3.4271   -3.0001   -0.3631 C   0  0  0  0  0  0  0  0  0  0  0  0
    3.4177   -4.1341   -1.3502 C   0  0  0  0  0  0  0  0  0  0  0  0
    3.6865   -3.3994    1.0620 C   0  0  0  0  0  0  0  0  0  0  0  0
    0.4601    2.7845    0.0374 C   0  0  0  0  0  0  0  0  0  0  0  0
   -0.9765    2.4243   -0.1400 C   0  0  0  0  0  0  0  0  0  0  0  0
   -1.8148    1.8400    0.8235 C   0  0  0  0  0  0  0  0  0  0  0  0
   -1.7192    2.6022   -1.2709 C   0  0  0  0  0  0  0  0  0  0  0  0
   -3.0371    1.6958    0.2094 C   0  0  0  0  0  0  0  0  0  0  0  0
   -4.3298    1.1585    0.6564 C   0  0  0  0  0  0  0  0  0  0  0  0
   -4.5071   -0.3357    0.4021 C   0  0  0  0  0  0  0  0  0  0  0  0
   -4.1090   -1.2259    1.3758 C   0  0  0  0  0  0  0  0  0  0  0  0
   -5.0588   -0.7441   -0.7928 C   0  0  0  0  0  0  0  0  0  0  0  0
   -4.2706   -2.5918    1.1432 C   0  0  0  0  0  0  0  0  0  0  0  0
   -5.2205   -2.1098   -1.0253 C   0  0  0  0  0  0  0  0  0  0  0  0
   -4.8263   -3.0337   -0.0573 C   0  0  0  0  0  0  0  0  0  0  0  0
    2.4256   -0.5374    0.8476 H   0  0  0  0  0  0  0  0  0  0  0  0
    3.7470    0.7936   -1.6312 H   0  0  0  0  0  0  0  0  0  0  0  0
    3.6386    1.0516    2.1954 H   0  0  0  0  0  0  0  0  0  0  0  0
    5.0906    0.0826    2.4145 H   0  0  0  0  0  0  0  0  0  0  0  0
    5.2133    1.7005    1.7078 H   0  0  0  0  0  0  0  0  0  0  0  0
    6.1380   -1.1334    0.3894 H   0  0  0  0  0  0  0  0  0  0  0  0
    5.6756   -0.6054   -1.2365 H   0  0  0  0  0  0  0  0  0  0  0  0
    6.5105    0.5079   -0.1599 H   0  0  0  0  0  0  0  0  0  0  0  0
    3.0241   -1.5627   -1.8175 H   0  0  0  0  0  0  0  0  0  0  0  0
    3.2262   -3.7943   -2.3734 H   0  0  0  0  0  0  0  0  0  0  0  0
    2.6385   -4.8576   -1.0888 H   0  0  0  0  0  0  0  0  0  0  0  0
    4.3848   -4.6475   -1.3463 H   0  0  0  0  0  0  0  0  0  0  0  0
    3.6841   -2.5488    1.7497 H   0  0  0  0  0  0  0  0  0  0  0  0
    4.6634   -3.8870    1.1449 H   0  0  0  0  0  0  0  0  0  0  0  0
    2.9186   -4.1016    1.4030 H   0  0  0  0  0  0  0  0  0  0  0  0
    0.6977    3.6576   -0.5836 H   0  0  0  0  0  0  0  0  0  0  0  0
    0.6407    3.0532    1.0859 H   0  0  0  0  0  0  0  0  0  0  0  0
   -1.5704    1.5554    1.8371 H   0  0  0  0  0  0  0  0  0  0  0  0
   -1.5174    3.0052   -2.2528 H   0  0  0  0  0  0  0  0  0  0  0  0
   -5.1512    1.7031    0.1718 H   0  0  0  0  0  0  0  0  0  0  0  0
   -4.4602    1.3543    1.7293 H   0  0  0  0  0  0  0  0  0  0  0  0
   -3.6744   -0.8892    2.3121 H   0  0  0  0  0  0  0  0  0  0  0  0
   -5.3662   -0.0306   -1.5512 H   0  0  0  0  0  0  0  0  0  0  0  0
   -3.9632   -3.3111    1.8966 H   0  0  0  0  0  0  0  0  0  0  0  0
   -5.6527   -2.4541   -1.9604 H   0  0  0  0  0  0  0  0  0  0  0  0
   -4.9519   -4.0972   -0.2387 H   0  0  0  0  0  0  0  0  0  0  0  0
  1 10  1  0  0  0  0
  1 14  1  0  0  0  0
  2 10  2  0  0  0  0
  3 17  1  0  0  0  0
  3 18  1  0  0  0  0
  4  5  1  0  0  0  0
  4  6  1  0  0  0  0
  4  7  1  0  0  0  0
  4  8  1  0  0  0  0
  5  6  1  0  0  0  0
  5  9  1  0  0  0  0
  5 26  1  0  0  0  0
  6 10  1  0  0  0  0
  6 27  1  0  0  0  0
  7 28  1  0  0  0  0
  7 29  1  0  0  0  0
  7 30  1  0  0  0  0
  8 31  1  0  0  0  0
  8 32  1  0  0  0  0
  8 33  1  0  0  0  0
  9 11  2  0  0  0  0
  9 34  1  0  0  0  0
 11 12  1  0  0  0  0
 11 13  1  0  0  0  0
 12 35  1  0  0  0  0
 12 36  1  0  0  0  0
 12 37  1  0  0  0  0
 13 38  1  0  0  0  0
 13 39  1  0  0  0  0
 13 40  1  0  0  0  0
 14 15  1  0  0  0  0
 14 41  1  0  0  0  0
 14 42  1  0  0  0  0
 15 16  1  0  0  0  0
 15 17  2  0  0  0  0
 16 18  2  0  0  0  0
 16 43  1  0  0  0  0
 17 44  1  0  0  0  0
 18 19  1  0  0  0  0
 19 20  1  0  0  0  0
 19 45  1  0  0  0  0
 19 46  1  0  0  0  0
 20 21  2  0  0  0  0
 20 22  1  0  0  0  0
 21 23  1  0  0  0  0
 21 47  1  0  0  0  0
 22 24  2  0  0  0  0
 22 48  1  0  0  0  0
 23 25  2  0  0  0  0
 23 49  1  0  0  0  0
 24 25  1  0  0  0  0
 24 50  1  0  0  0  0
 25 51  1  0  0  0  0
M  END
> <PUBCHEM_COMPOUND_CID>
5053

> <PUBCHEM_CONFORMER_RMSD>
1.4

> <PUBCHEM_CONFORMER_DIVERSEORDER>
3
56
23
71
51
80
5
41
48
29
15
6
78
44
1
35
68
36
63
18
21
42
30
87
85
60
49
65
37
13
73
54
26
46
11
91
32
40
24
77
50
17
75
9
10
38
89
47
84
7
52
25
69
2
61
14
19
53
67
76
55
45
83
4
66
86
8
31
12
39
90
33
28
34
27
64
57
59
22
16
72
81
20
62
79
58
43
74
88
70
82

> <PUBCHEM_MMFF94_PARTIAL_CHARGES>
35
1 -0.43
10 0.72
11 -0.28
12 0.14
13 0.14
14 0.46
15 -0.18
16 -0.15
17 -0.01
18 -0.04
19 0.32
2 -0.57
20 -0.14
21 -0.15
22 -0.15
23 -0.15
24 -0.15
25 -0.15
26 0.1
27 0.1
3 -0.28
34 0.15
4 -0.19
43 0.15
44 0.15
47 0.15
48 0.15
49 0.15
5 -0.06
50 0.15
51 0.15
6 -0.1
7 0.09
8 0.09
9 -0.19

> <PUBCHEM_EFFECTIVE_ROTOR_COUNT>
7.6

> <PUBCHEM_PHARMACOPHORE_FEATURES>
6
1 2 acceptor
1 3 acceptor
3 11 12 13 hydrophobe
3 4 7 8 hydrophobe
5 3 15 16 17 18 rings
6 20 21 22 23 24 25 rings

> <PUBCHEM_HEAVY_ATOM_COUNT>
25

> <PUBCHEM_ATOM_DEF_STEREO_COUNT>
0

> <PUBCHEM_ATOM_UDEF_STEREO_COUNT>
2

> <PUBCHEM_BOND_DEF_STEREO_COUNT>
0

> <PUBCHEM_BOND_UDEF_STEREO_COUNT>
0

> <PUBCHEM_ISOTOPIC_ATOM_COUNT>
0

> <PUBCHEM_COMPONENT_COUNT>
1

> <PUBCHEM_CACTVS_TAUTO_COUNT>
1

> <PUBCHEM_CONFORMER_ID>
000013BD00000003

> <PUBCHEM_MMFF94_ENERGY>
44.7686

> <PUBCHEM_FEATURE_SELFOVERLAP>
30.446

> <PUBCHEM_SHAPE_FINGERPRINT>
10254770 206 17480036623183323163
108634 29 18059564781199921938
10928967 22 17981308299217858082
11070050 100 14490459872736855236
11136131 41 18270971146554025378
11963148 33 18269843172162699890
12596602 18 16733263452297794785
13255334 9 18339918320099883988
1361 87 17902222644198488598
14428016 347 18187944849823335359
14681488 357 18115290302317265278
14848178 5 18267590117795960257
14950920 106 17167858660349841849
15163728 17 12031246034479571065
15250474 111 18408882910899242997
15352361 1 18412261701557255753
17857418 61 18341898467648767193
19315092 285 17387697098846781731
20028762 73 18334859360127588310
20775530 9 18341320193040829171
21315759 227 18343310253241921206
23379529 103 17903628928371500494
23424784 1240 18411688902890689387
23572383 38 18342465802953506771
25222932 49 18260832588019133662
312425 54 18041275560396531217
316301 35 18268431424722214826
3246872 21 17902797353709536543
325973 47 16826711783246703091
437795 163 18271802489172490050
444735 86 18342464728837532842
463206 1 18268423534645577227
508706 21 17988637544970414003
54324442 115 16604053600795729807
6431902 208 18411418375996463183
6433294 58 18338795619833128027

> <PUBCHEM_SHAPE_MULTIPOLES>
496.88
14.39
5.09
1.27
3.43
2.9
0.15
9.25
0.97
-1.26
-0.84
0.1
0.39
1.13

> <PUBCHEM_SHAPE_SELFOVERLAP>
1051.244

> <PUBCHEM_SHAPE_VOLUME>
282.6

> <PUBCHEM_COORDINATE_TYPE>
2
5
10

$$$$

