443054
  -OEChem-07051213013D

 22 23  0     0  0  0  0  0  0999 V2000
   -3.1736    0.5355   -0.4955 S   0  0  0  0  0  0  0  0  0  0  0  0
   -0.4459   -3.1456    0.1265 O   0  0  0  0  0  0  0  0  0  0  0  0
   -0.6510    1.4059   -0.3178 N   0  0  0  0  0  0  0  0  0  0  0  0
    0.6651   -0.3702   -0.0169 C   0  0  0  0  0  0  0  0  0  0  0  0
    0.6595    1.0202   -0.1470 C   0  0  0  0  0  0  0  0  0  0  0  0
   -0.6864   -0.8043   -0.1158 C   0  0  0  0  0  0  0  0  0  0  0  0
   -1.4717    0.3103   -0.3000 C   0  0  0  0  0  0  0  0  0  0  0  0
    1.8965   -1.0288    0.1713 C   0  0  0  0  0  0  0  0  0  0  0  0
    1.8285    1.7880   -0.0983 C   0  0  0  0  0  0  0  0  0  0  0  0
    3.0738   -0.2738    0.2221 C   0  0  0  0  0  0  0  0  0  0  0  0
    3.0381    1.1129    0.0892 C   0  0  0  0  0  0  0  0  0  0  0  0
   -1.1765   -2.1532   -0.0407 C   0  0  0  0  0  0  0  0  0  0  0  0
   -3.5567    1.6029    0.9229 C   0  0  0  0  0  0  0  0  0  0  0  0
   -0.9604    2.3597   -0.4425 H   0  0  0  0  0  0  0  0  0  0  0  0
    1.9508   -2.1081    0.2774 H   0  0  0  0  0  0  0  0  0  0  0  0
    1.8016    2.8676   -0.2016 H   0  0  0  0  0  0  0  0  0  0  0  0
    4.0265   -0.7763    0.3670 H   0  0  0  0  0  0  0  0  0  0  0  0
    3.9647    1.6798    0.1318 H   0  0  0  0  0  0  0  0  0  0  0  0
   -2.2649   -2.2982   -0.1384 H   0  0  0  0  0  0  0  0  0  0  0  0
   -3.2282    1.1327    1.8538 H   0  0  0  0  0  0  0  0  0  0  0  0
   -4.6377    1.7573    0.9722 H   0  0  0  0  0  0  0  0  0  0  0  0
   -3.0719    2.5770    0.8161 H   0  0  0  0  0  0  0  0  0  0  0  0
  1  7  1  0  0  0  0
  1 13  1  0  0  0  0
  2 12  2  0  0  0  0
  3  5  1  0  0  0  0
  3  7  1  0  0  0  0
  3 14  1  0  0  0  0
  4  5  1  0  0  0  0
  4  6  1  0  0  0  0
  4  8  2  0  0  0  0
  5  9  2  0  0  0  0
  6  7  2  0  0  0  0
  6 12  1  0  0  0  0
  8 10  1  0  0  0  0
  8 15  1  0  0  0  0
  9 11  1  0  0  0  0
  9 16  1  0  0  0  0
 10 11  2  0  0  0  0
 10 17  1  0  0  0  0
 11 18  1  0  0  0  0
 12 19  1  0  0  0  0
 13 20  1  0  0  0  0
 13 21  1  0  0  0  0
 13 22  1  0  0  0  0
M  END
> <PUBCHEM_COMPOUND_CID>
443054

> <PUBCHEM_CONFORMER_RMSD>
0.6

> <PUBCHEM_CONFORMER_DIVERSEORDER>
2
3
1
4

> <PUBCHEM_MMFF94_PARTIAL_CHARGES>
18
1 -0.29
10 -0.15
11 -0.15
12 0.6
13 0.23
14 0.27
15 0.15
16 0.15
17 0.15
18 0.15
19 0.06
2 -0.57
3 0.03
5 -0.15
6 -0.09
7 -0.1
8 -0.15
9 -0.15

> <PUBCHEM_EFFECTIVE_ROTOR_COUNT>
2

> <PUBCHEM_PHARMACOPHORE_FEATURES>
6
1 13 hydrophobe
1 2 acceptor
1 3 cation
1 3 donor
5 3 4 5 6 7 rings
6 4 5 8 9 10 11 rings

> <PUBCHEM_HEAVY_ATOM_COUNT>
13

> <PUBCHEM_ATOM_DEF_STEREO_COUNT>
0

> <PUBCHEM_ATOM_UDEF_STEREO_COUNT>
0

> <PUBCHEM_BOND_DEF_STEREO_COUNT>
0

> <PUBCHEM_BOND_UDEF_STEREO_COUNT>
0

> <PUBCHEM_ISOTOPIC_ATOM_COUNT>
0

> <PUBCHEM_COMPONENT_COUNT>
1

> <PUBCHEM_CACTVS_TAUTO_COUNT>
3

> <PUBCHEM_CONFORMER_ID>
0006C2AE00000002

> <PUBCHEM_MMFF94_ENERGY>
20.7166

> <PUBCHEM_FEATURE_SELFOVERLAP>
30.537

> <PUBCHEM_SHAPE_FINGERPRINT>
10219947 1 18342175630552055173
10465860 228 17973152126569121857
10967382 1 18339646736343204758
12423570 1 17774449286792402724
12491281 212 18411132507104587641
13380535 21 18340760443112220172
13380535 76 18408328765370335230
14325111 11 18410295817574176909
15309172 13 18412824720166863321
15502708 68 18266740371200550689
15906896 17 18187649033818635823
16945 1 18341058466634988468
17844478 74 17632294618227658605
18186145 218 18335702792577318605
193761 8 17979920401884118501
201361 129 18045210802922925737
20510252 161 18189614939123251995
20511035 2 18188498947700842212
20645477 70 18127986406380416199
20871998 184 18117836599274331487
21501502 16 18268716008885670676
21524375 3 18260268572882381549
2334 1 18268433438370676103
23552423 10 17985834726833302684
23559900 14 18334851681454186892
2748010 2 18412824651109841551
305870 269 18265048227200844401
528886 8 18410864260590101872
6333449 129 18339647728491212647
7364860 26 17903356245007805967
81228 2 17982176621472332963

> <PUBCHEM_SHAPE_MULTIPOLES>
260.53
5
2.47
0.72
1.23
1.78
0.04
-2.49
0.65
0.48
0.18
0.32
-0.13
-0.37

> <PUBCHEM_SHAPE_SELFOVERLAP>
551.237

> <PUBCHEM_SHAPE_VOLUME>
149

> <PUBCHEM_COORDINATE_TYPE>
2
5
10

$$$$

