585231
  -OEChem-06241222453D

 45 48  0     0  0  0  0  0  0999 V2000
   -0.9715    0.2727    0.0899 O   0  0  0  0  0  0  0  0  0  0  0  0
   -2.6411    1.7343   -0.5529 O   0  0  0  0  0  0  0  0  0  0  0  0
    1.3874    0.5068   -0.2065 C   0  0  0  0  0  0  0  0  0  0  0  0
    3.0209   -0.3278    1.5427 C   0  0  0  0  0  0  0  0  0  0  0  0
    2.8478   -1.5110   -0.6756 C   0  0  0  0  0  0  0  0  0  0  0  0
    3.8838    0.7829   -0.5484 C   0  0  0  0  0  0  0  0  0  0  0  0
    1.6401    0.3088    1.3070 C   0  0  0  0  0  0  0  0  0  0  0  0
    1.4674   -0.8710   -0.9053 C   0  0  0  0  0  0  0  0  0  0  0  0
    2.5006    1.4164   -0.7786 C   0  0  0  0  0  0  0  0  0  0  0  0
    3.0772   -1.6914    0.8341 C   0  0  0  0  0  0  0  0  0  0  0  0
    4.1079    0.5910    0.9608 C   0  0  0  0  0  0  0  0  0  0  0  0
    3.9358   -0.5862   -1.2465 C   0  0  0  0  0  0  0  0  0  0  0  0
    0.0130    1.1404   -0.4372 C   0  0  0  0  0  0  0  0  0  0  0  0
   -3.1984   -0.3233    0.5655 C   0  0  0  0  0  0  0  0  0  0  0  0
   -2.2714    0.6902   -0.0331 C   0  0  0  0  0  0  0  0  0  0  0  0
   -3.6521   -1.3249   -0.5024 C   0  0  0  0  0  0  0  0  0  0  0  0
   -4.4687    0.3493    1.0883 C   0  0  0  0  0  0  0  0  0  0  0  0
   -5.1763   -1.2778   -0.4970 C   0  0  0  0  0  0  0  0  0  0  0  0
   -5.5025    0.1207   -0.0049 C   0  0  0  0  0  0  0  0  0  0  0  0
    3.1873   -0.4623    2.6173 H   0  0  0  0  0  0  0  0  0  0  0  0
    2.8914   -2.4851   -1.1754 H   0  0  0  0  0  0  0  0  0  0  0  0
    4.6622    1.4365   -0.9577 H   0  0  0  0  0  0  0  0  0  0  0  0
    1.5849    1.2724    1.8299 H   0  0  0  0  0  0  0  0  0  0  0  0
    0.8699   -0.3343    1.7510 H   0  0  0  0  0  0  0  0  0  0  0  0
    1.2873   -0.7609   -1.9825 H   0  0  0  0  0  0  0  0  0  0  0  0
    0.6928   -1.5486   -0.5247 H   0  0  0  0  0  0  0  0  0  0  0  0
    2.3437    1.5780   -1.8529 H   0  0  0  0  0  0  0  0  0  0  0  0
    2.4646    2.4050   -0.3029 H   0  0  0  0  0  0  0  0  0  0  0  0
    2.3163   -2.3624    1.2514 H   0  0  0  0  0  0  0  0  0  0  0  0
    4.0506   -2.1652    1.0109 H   0  0  0  0  0  0  0  0  0  0  0  0
    4.0888    1.5629    1.4690 H   0  0  0  0  0  0  0  0  0  0  0  0
    5.0997    0.1577    1.1398 H   0  0  0  0  0  0  0  0  0  0  0  0
    3.7927   -0.4618   -2.3269 H   0  0  0  0  0  0  0  0  0  0  0  0
    4.9244   -1.0405   -1.1067 H   0  0  0  0  0  0  0  0  0  0  0  0
   -0.1641    1.2877   -1.5098 H   0  0  0  0  0  0  0  0  0  0  0  0
   -0.0480    2.1142    0.0645 H   0  0  0  0  0  0  0  0  0  0  0  0
   -2.6857   -0.8196    1.3980 H   0  0  0  0  0  0  0  0  0  0  0  0
   -3.2956   -2.3362   -0.2786 H   0  0  0  0  0  0  0  0  0  0  0  0
   -3.2715   -1.0609   -1.4965 H   0  0  0  0  0  0  0  0  0  0  0  0
   -4.3543    1.4111    1.3281 H   0  0  0  0  0  0  0  0  0  0  0  0
   -4.7967   -0.1591    2.0039 H   0  0  0  0  0  0  0  0  0  0  0  0
   -5.5700   -2.0243    0.2032 H   0  0  0  0  0  0  0  0  0  0  0  0
   -5.6010   -1.4833   -1.4838 H   0  0  0  0  0  0  0  0  0  0  0  0
   -5.3740    0.8497   -0.8133 H   0  0  0  0  0  0  0  0  0  0  0  0
   -6.5269    0.2008    0.3699 H   0  0  0  0  0  0  0  0  0  0  0  0
  1 13  1  0  0  0  0
  1 15  1  0  0  0  0
  2 15  2  0  0  0  0
  3  7  1  0  0  0  0
  3  8  1  0  0  0  0
  3  9  1  0  0  0  0
  3 13  1  0  0  0  0
  4  7  1  0  0  0  0
  4 10  1  0  0  0  0
  4 11  1  0  0  0  0
  4 20  1  0  0  0  0
  5  8  1  0  0  0  0
  5 10  1  0  0  0  0
  5 12  1  0  0  0  0
  5 21  1  0  0  0  0
  6  9  1  0  0  0  0
  6 11  1  0  0  0  0
  6 12  1  0  0  0  0
  6 22  1  0  0  0  0
  7 23  1  0  0  0  0
  7 24  1  0  0  0  0
  8 25  1  0  0  0  0
  8 26  1  0  0  0  0
  9 27  1  0  0  0  0
  9 28  1  0  0  0  0
 10 29  1  0  0  0  0
 10 30  1  0  0  0  0
 11 31  1  0  0  0  0
 11 32  1  0  0  0  0
 12 33  1  0  0  0  0
 12 34  1  0  0  0  0
 13 35  1  0  0  0  0
 13 36  1  0  0  0  0
 14 15  1  0  0  0  0
 14 16  1  0  0  0  0
 14 17  1  0  0  0  0
 14 37  1  0  0  0  0
 16 18  1  0  0  0  0
 16 38  1  0  0  0  0
 16 39  1  0  0  0  0
 17 19  1  0  0  0  0
 17 40  1  0  0  0  0
 17 41  1  0  0  0  0
 18 19  1  0  0  0  0
 18 42  1  0  0  0  0
 18 43  1  0  0  0  0
 19 44  1  0  0  0  0
 19 45  1  0  0  0  0
M  END
> <PUBCHEM_COMPOUND_CID>
585231

> <PUBCHEM_CONFORMER_RMSD>
0.8

> <PUBCHEM_CONFORMER_DIVERSEORDER>
1
8
11
2
6
10
9
4
5
12
7
3

> <PUBCHEM_MMFF94_PARTIAL_CHARGES>
5
1 -0.43
13 0.28
14 0.06
15 0.66
2 -0.57

> <PUBCHEM_EFFECTIVE_ROTOR_COUNT>
6.2

> <PUBCHEM_PHARMACOPHORE_FEATURES>
6
1 2 acceptor
5 14 16 17 18 19 rings
6 3 4 5 7 8 10 rings
6 3 4 6 7 9 11 rings
6 3 5 6 8 9 12 rings
6 4 5 6 10 11 12 rings

> <PUBCHEM_HEAVY_ATOM_COUNT>
19

> <PUBCHEM_ATOM_DEF_STEREO_COUNT>
0

> <PUBCHEM_ATOM_UDEF_STEREO_COUNT>
0

> <PUBCHEM_BOND_DEF_STEREO_COUNT>
0

> <PUBCHEM_BOND_UDEF_STEREO_COUNT>
0

> <PUBCHEM_ISOTOPIC_ATOM_COUNT>
0

> <PUBCHEM_COMPONENT_COUNT>
1

> <PUBCHEM_CACTVS_TAUTO_COUNT>
1

> <PUBCHEM_CONFORMER_ID>
0008EE0F00000001

> <PUBCHEM_MMFF94_ENERGY>
40.293

> <PUBCHEM_FEATURE_SELFOVERLAP>
42.963

> <PUBCHEM_SHAPE_FINGERPRINT>
10366900 7 18336826398955599705
10447042 23 17632589231382408666
10646746 165 10087642597859634414
11552529 35 15358551718143547271
12107183 9 17612016480121826995
12553582 1 18273208690790622713
12596602 18 16443344248135494099
128620 24 16630525124653479639
12916748 109 11024107655491149471
13167823 11 18334855009314946999
13224815 77 18260271853915415015
13296908 3 18339082691199633196
13464513 79 18409445886880703668
13533116 47 17561088037794659459
13583140 156 17386019398331526537
13675066 3 14779546798875105185
14252887 29 18411979178524083504
14289901 80 18410290332684590705
14341114 176 16877655739052986579
15183329 4 18343310284482871365
15788980 27 17775289378300609455
15880784 105 17603584110568542323
16752209 62 17845668039895467673
17844677 252 16877937226967457433
1813 80 18060413612893015581
18186145 218 8286201643073160008
18222031 100 18187087217968474629
19862831 5 16056883533175280289
200 152 17775008973003032981
20261772 1 17821731594043451231
20279233 1 13614518567039189065
20281475 54 18408885152829778505
20645477 70 15123514739284978816
21033648 29 14057000576756471155
21250096 35 18412546500896682249
212847 35 8070031073020579306
21503847 285 15140962842193339082
221357 26 12103851155090262319
22224240 67 18339090289882984032
22646028 1 18343022194460004233
22646028 28 18059861679203387651
22854114 59 17240484697730903995
23402539 116 18201444666346885021
23402655 69 10087632706840011216
23557571 272 18411423937752537600
23559900 14 18113330929403671757
239999 70 18259979362743287686
26918003 58 17458064884808953563
2871803 45 18130786776001072535
300161 21 18408608050293409449
3004659 81 18343300362306615975
312423 11 17703501207208037220
4214541 1 18260542360020704089
474 4 17130695073095381852
4990 188 12391516394849089985
5104073 3 18187359952560228867
5374978 207 18343585139997398905
542803 24 5833994957938271339
960060 61 17632857520951978111
9709674 26 18343858918345352851

> <PUBCHEM_SHAPE_MULTIPOLES>
379.27
11.38
1.54
1.25
13.03
0.22
0.27
1.84
0.31
-0.23
-0.26
-1
0.06
-0.27

> <PUBCHEM_SHAPE_SELFOVERLAP>
816.167

> <PUBCHEM_SHAPE_VOLUME>
204.2

> <PUBCHEM_COORDINATE_TYPE>
2
5
10

$$$$

