37455
  -OEChem-07051213062D

 33 38  0     1  0  0  0  0  0999 V2000
    3.8084    3.5927    0.0000 O   0  0  0  0  0  0  0  0  0  0  0  0
    3.8001    2.5506    0.0000 C   0  0  3  0  0  0  0  0  0  0  0  0
    2.9021    3.0784    0.0000 C   0  0  3  0  0  0  0  0  0  0  0  0
    3.7841    1.5091    0.0000 C   0  0  0  0  0  0  0  0  0  0  0  0
    2.9180    1.0091    0.0000 C   0  0  0  0  0  0  0  0  0  0  0  0
    2.0000    2.5576    0.0000 C   0  0  0  0  0  0  0  0  0  0  0  0
    2.9180    0.0091    0.0000 C   0  0  0  0  0  0  0  0  0  0  0  0
    3.7841   -0.4909    0.0000 C   0  0  0  0  0  0  0  0  0  0  0  0
    4.6501    1.0091    0.0000 C   0  0  0  0  0  0  0  0  0  0  0  0
    2.0080    1.5160    0.0000 C   0  0  0  0  0  0  0  0  0  0  0  0
    4.6501    0.0091    0.0000 C   0  0  0  0  0  0  0  0  0  0  0  0
    3.8001   -1.5324    0.0000 C   0  0  0  0  0  0  0  0  0  0  0  0
    2.0080   -0.4977    0.0000 C   0  0  0  0  0  0  0  0  0  0  0  0
    2.9021   -2.0601    0.0000 C   0  0  0  0  0  0  0  0  0  0  0  0
    4.6772   -1.9951    0.0000 C   0  0  0  0  0  0  0  0  0  0  0  0
    5.5095   -0.4856    0.0000 C   0  0  0  0  0  0  0  0  0  0  0  0
    2.0000   -1.5393    0.0000 C   0  0  0  0  0  0  0  0  0  0  0  0
    5.5230   -1.4772    0.0000 C   0  0  0  0  0  0  0  0  0  0  0  0
    2.9282   -3.1016    0.0000 C   0  0  0  0  0  0  0  0  0  0  0  0
    4.7274   -3.0357    0.0000 C   0  0  0  0  0  0  0  0  0  0  0  0
    3.8470   -3.5927    0.0000 C   0  0  0  0  0  0  0  0  0  0  0  0
    4.4201    2.5434    0.0000 H   0  0  0  0  0  0  0  0  0  0  0  0
    2.5941    3.6165    0.0000 H   0  0  0  0  0  0  0  0  0  0  0  0
    1.4619    2.8655    0.0000 H   0  0  0  0  0  0  0  0  0  0  0  0
    5.1870    1.3191    0.0000 H   0  0  0  0  0  0  0  0  0  0  0  0
    1.4747    1.1998    0.0000 H   0  0  0  0  0  0  0  0  0  0  0  0
    1.4747   -0.1815    0.0000 H   0  0  0  0  0  0  0  0  0  0  0  0
    6.0442   -0.1717    0.0000 H   0  0  0  0  0  0  0  0  0  0  0  0
    1.4619   -1.8472    0.0000 H   0  0  0  0  0  0  0  0  0  0  0  0
    6.0659   -1.7766    0.0000 H   0  0  0  0  0  0  0  0  0  0  0  0
    2.4004   -3.4270    0.0000 H   0  0  0  0  0  0  0  0  0  0  0  0
    5.2775   -3.3216    0.0000 H   0  0  0  0  0  0  0  0  0  0  0  0
    3.8696   -4.2123    0.0000 H   0  0  0  0  0  0  0  0  0  0  0  0
  1  2  1  0  0  0  0
  1  3  1  0  0  0  0
  2  3  1  0  0  0  0
  2  4  1  0  0  0  0
  2 22  1  0  0  0  0
  3  6  1  0  0  0  0
  3 23  1  0  0  0  0
  4  5  2  0  0  0  0
  4  9  1  0  0  0  0
  5  7  1  0  0  0  0
  5 10  1  0  0  0  0
  6 10  2  0  0  0  0
  6 24  1  0  0  0  0
  7  8  2  0  0  0  0
  7 13  1  0  0  0  0
  8 11  1  0  0  0  0
  8 12  1  0  0  0  0
  9 11  2  0  0  0  0
  9 25  1  0  0  0  0
 10 26  1  0  0  0  0
 11 16  1  0  0  0  0
 12 14  1  0  0  0  0
 12 15  2  0  0  0  0
 13 17  2  0  0  0  0
 13 27  1  0  0  0  0
 14 17  1  0  0  0  0
 14 19  2  0  0  0  0
 15 18  1  0  0  0  0
 15 20  1  0  0  0  0
 16 18  2  0  0  0  0
 16 28  1  0  0  0  0
 17 29  1  0  0  0  0
 18 30  1  0  0  0  0
 19 21  1  0  0  0  0
 19 31  1  0  0  0  0
 20 21  2  0  0  0  0
 20 32  1  0  0  0  0
 21 33  1  0  0  0  0
M  END
> <PUBCHEM_COMPOUND_CID>
37455

> <PUBCHEM_COMPOUND_CANONICALIZED>
1

> <PUBCHEM_CACTVS_COMPLEXITY>
482

> <PUBCHEM_CACTVS_HBOND_ACCEPTOR>
1

> <PUBCHEM_CACTVS_HBOND_DONOR>
0

> <PUBCHEM_CACTVS_ROTATABLE_BOND>
0

> <PUBCHEM_CACTVS_SUBSKEYS>
AAADccB4IAAAAAAAAAAAAAAAEgAAAAAAAAAwYMGCBAAAAADBVAAAGgAAAAAADBSgmAIwAMAABACAAiBCAAACAAAgAAAIiAAACIgIJiKAMRiCMAAkwAEIqAeAwPAOwAACAAAQAACAAAQAACAAAAAAAAAAAA==

> <PUBCHEM_IUPAC_INCHI>
InChI=1S/C20H12O/c1-2-11-4-5-13-10-16-14(8-9-17-20(16)21-17)15-7-6-12(3-1)18(11)19(13)15/h1-10,17,20H

> <PUBCHEM_IUPAC_INCHIKEY>
OLLMQFHYRYHKTD-UHFFFAOYSA-N

> <PUBCHEM_XLOGP3_AA>
4.9

> <PUBCHEM_EXACT_MASS>
268.088815

> <PUBCHEM_MOLECULAR_FORMULA>
C20H12O

> <PUBCHEM_MOLECULAR_WEIGHT>
268.30868

> <PUBCHEM_OPENEYE_CAN_SMILES>
C1=CC2=C3C(=C1)C=CC4=C3C(=CC5=C4C=CC6C5O6)C=C2

> <PUBCHEM_OPENEYE_ISO_SMILES>
C1=CC2=C3C(=C1)C=CC4=C3C(=CC5=C4C=CC6C5O6)C=C2

> <PUBCHEM_CACTVS_TPSA>
12.5

> <PUBCHEM_MONOISOTOPIC_WEIGHT>
268.088815

> <PUBCHEM_TOTAL_CHARGE>
0

> <PUBCHEM_HEAVY_ATOM_COUNT>
21

> <PUBCHEM_ATOM_DEF_STEREO_COUNT>
0

> <PUBCHEM_ATOM_UDEF_STEREO_COUNT>
2

> <PUBCHEM_BOND_DEF_STEREO_COUNT>
0

> <PUBCHEM_BOND_UDEF_STEREO_COUNT>
0

> <PUBCHEM_ISOTOPIC_ATOM_COUNT>
0

> <PUBCHEM_COMPONENT_COUNT>
1

> <PUBCHEM_CACTVS_TAUTO_COUNT>
1

> <PUBCHEM_COORDINATE_TYPE>
1
5
255

> <PUBCHEM_BONDANNOTATIONS>
2  1  3
11  16  8
12  14  8
12  15  8
13  17  8
14  17  8
14  19  8
15  18  8
15  20  8
16  18  8
19  21  8
20  21  8
3  6  3
4  5  8
4  9  8
5  7  8
7  13  8
7  8  8
8  11  8
8  12  8
9  11  8

$$$$

