30652
  -OEChem-07051213112D

 29 30  0     0  0  0  0  0  0999 V2000
    4.2690   -2.5000    0.0000 Br  0  0  0  0  0  0  0  0  0  0  0  0
    7.7331   -2.5000    0.0000 Br  0  0  0  0  0  0  0  0  0  0  0  0
    7.7331    2.5000    0.0000 Br  0  0  0  0  0  0  0  0  0  0  0  0
    4.2690    2.5000    0.0000 Br  0  0  0  0  0  0  0  0  0  0  0  0
    3.4030   -1.0000    0.0000 P   0  0  0  0  0  0  0  0  0  0  0  0
    4.2690   -0.5000    0.0000 O   0  0  0  0  0  0  0  0  0  0  0  0
    7.7331    0.5000    0.0000 O   0  0  0  0  0  0  0  0  0  0  0  0
    2.5369   -1.5000    0.0000 O   0  0  0  0  0  0  0  0  0  0  0  0
    2.9030   -0.1340    0.0000 O   0  0  0  0  0  0  0  0  0  0  0  0
    3.9030   -1.8660    0.0000 O   0  0  0  0  0  0  0  0  0  0  0  0
    6.0010   -0.5000    0.0000 C   0  0  0  0  0  0  0  0  0  0  0  0
    6.0010    0.5000    0.0000 C   0  0  0  0  0  0  0  0  0  0  0  0
    5.1350   -1.0000    0.0000 C   0  0  0  0  0  0  0  0  0  0  0  0
    6.8671   -1.0000    0.0000 C   0  0  0  0  0  0  0  0  0  0  0  0
    6.8671    1.0000    0.0000 C   0  0  0  0  0  0  0  0  0  0  0  0
    5.1350    1.0000    0.0000 C   0  0  0  0  0  0  0  0  0  0  0  0
    5.1350   -2.0000    0.0000 C   0  0  0  0  0  0  0  0  0  0  0  0
    6.8671   -2.0000    0.0000 C   0  0  0  0  0  0  0  0  0  0  0  0
    6.0010   -2.5000    0.0000 C   0  0  0  0  0  0  0  0  0  0  0  0
    6.8671    2.0000    0.0000 C   0  0  0  0  0  0  0  0  0  0  0  0
    5.1350    2.0000    0.0000 C   0  0  0  0  0  0  0  0  0  0  0  0
    6.0010    2.5000    0.0000 C   0  0  0  0  0  0  0  0  0  0  0  0
    7.4040   -0.6900    0.0000 H   0  0  0  0  0  0  0  0  0  0  0  0
    4.5981    0.6900    0.0000 H   0  0  0  0  0  0  0  0  0  0  0  0
    6.0010   -3.1200    0.0000 H   0  0  0  0  0  0  0  0  0  0  0  0
    6.0010    3.1200    0.0000 H   0  0  0  0  0  0  0  0  0  0  0  0
    8.2700    0.8100    0.0000 H   0  0  0  0  0  0  0  0  0  0  0  0
    2.0000   -1.1900    0.0000 H   0  0  0  0  0  0  0  0  0  0  0  0
    2.2830   -0.1340    0.0000 H   0  0  0  0  0  0  0  0  0  0  0  0
  1 17  1  0  0  0  0
  2 18  1  0  0  0  0
  3 20  1  0  0  0  0
  4 21  1  0  0  0  0
  5  6  1  0  0  0  0
  5  8  1  0  0  0  0
  5  9  1  0  0  0  0
  5 10  2  0  0  0  0
  6 13  1  0  0  0  0
  7 15  1  0  0  0  0
  7 27  1  0  0  0  0
  8 28  1  0  0  0  0
  9 29  1  0  0  0  0
 11 12  1  0  0  0  0
 11 13  2  0  0  0  0
 11 14  1  0  0  0  0
 12 15  2  0  0  0  0
 12 16  1  0  0  0  0
 13 17  1  0  0  0  0
 14 18  2  0  0  0  0
 14 23  1  0  0  0  0
 15 20  1  0  0  0  0
 16 21  2  0  0  0  0
 16 24  1  0  0  0  0
 17 19  2  0  0  0  0
 18 19  1  0  0  0  0
 19 25  1  0  0  0  0
 20 22  2  0  0  0  0
 21 22  1  0  0  0  0
 22 26  1  0  0  0  0
M  END
> <PUBCHEM_COMPOUND_CID>
30652

> <PUBCHEM_COMPOUND_CANONICALIZED>
1

> <PUBCHEM_CACTVS_COMPLEXITY>
436

> <PUBCHEM_CACTVS_HBOND_ACCEPTOR>
5

> <PUBCHEM_CACTVS_HBOND_DONOR>
3

> <PUBCHEM_CACTVS_ROTATABLE_BOND>
3

> <PUBCHEM_CACTVS_SUBSKEYS>
AAADcYBwOAIAHAAAAAAAAAAAAAAAAAAAAAAwYAAAAAAAAAABQAAAGgBACCABrASAmAAwBoAAAxCAQiBCAIACAAAgIAQAiAAECKgIJiKCERKAcAAkwBEImhfAwOAOgBAAEAAoBAAAIAAgAFAIAAAAAAAAAA==

> <PUBCHEM_IUPAC_OPENEYE_NAME>
[2,4-dibromo-6-(3,5-dibromo-2-hydroxy-phenyl)phenyl] dihydrogen phosphate

> <PUBCHEM_IUPAC_CAS_NAME>
[2,4-dibromo-6-(3,5-dibromo-2-hydroxyphenyl)phenyl] dihydrogen phosphate

> <PUBCHEM_IUPAC_NAME>
[2,4-dibromo-6-(3,5-dibromo-2-hydroxyphenyl)phenyl] dihydrogen phosphate

> <PUBCHEM_IUPAC_SYSTEMATIC_NAME>
[2-[3,5-bis(bromanyl)-2-oxidanyl-phenyl]-4,6-bis(bromanyl)phenyl] dihydrogen phosphate

> <PUBCHEM_IUPAC_TRADITIONAL_NAME>
[2,4-dibromo-6-(3,5-dibromo-2-hydroxy-phenyl)phenyl] dihydrogen phosphate

> <PUBCHEM_IUPAC_INCHI>
InChI=1S/C12H7Br4O5P/c13-5-1-7(11(17)9(15)3-5)8-2-6(14)4-10(16)12(8)21-22(18,19)20/h1-4,17H,(H2,18,19,20)

> <PUBCHEM_IUPAC_INCHIKEY>
MMYHZEDBTMXYAF-UHFFFAOYSA-N

> <PUBCHEM_XLOGP3_AA>
4.3

> <PUBCHEM_EXACT_MASS>
581.672365

> <PUBCHEM_MOLECULAR_FORMULA>
C12H7Br4O5P

> <PUBCHEM_MOLECULAR_WEIGHT>
581.770742

> <PUBCHEM_OPENEYE_CAN_SMILES>
C1=C(C=C(C(=C1Br)O)C2=CC(=CC(=C2OP(=O)(O)O)Br)Br)Br

> <PUBCHEM_OPENEYE_ISO_SMILES>
C1=C(C=C(C(=C1Br)O)C2=CC(=CC(=C2OP(=O)(O)O)Br)Br)Br

> <PUBCHEM_CACTVS_TPSA>
87

> <PUBCHEM_MONOISOTOPIC_WEIGHT>
577.676458

> <PUBCHEM_TOTAL_CHARGE>
0

> <PUBCHEM_HEAVY_ATOM_COUNT>
22

> <PUBCHEM_ATOM_DEF_STEREO_COUNT>
0

> <PUBCHEM_ATOM_UDEF_STEREO_COUNT>
0

> <PUBCHEM_BOND_DEF_STEREO_COUNT>
0

> <PUBCHEM_BOND_UDEF_STEREO_COUNT>
0

> <PUBCHEM_ISOTOPIC_ATOM_COUNT>
0

> <PUBCHEM_COMPONENT_COUNT>
1

> <PUBCHEM_CACTVS_TAUTO_COUNT>
3

> <PUBCHEM_COORDINATE_TYPE>
1
5
255

> <PUBCHEM_BONDANNOTATIONS>
11  13  8
11  14  8
12  15  8
12  16  8
13  17  8
14  18  8
15  20  8
16  21  8
17  19  8
18  19  8
20  22  8
21  22  8

$$$$

