5281033
  -OEChem-07051212532D

 73 77  0     0  0  0  0  0  0999 V2000
    2.0948    0.7743    0.0000 S   0  0  0  0  0  0  0  0  0  0  0  0
    1.1482   12.0876    0.0000 O   0  0  0  0  0  0  0  0  0  0  0  0
    1.5947    9.5554    0.0000 O   0  0  0  0  0  0  0  0  0  0  0  0
    1.1482   15.0876    0.0000 O   0  0  0  0  0  0  0  0  0  0  0  0
    2.6207    6.7364    0.0000 O   0  0  0  0  0  0  0  0  0  0  0  0
    0.2822   13.5876    0.0000 O   0  0  0  0  0  0  0  0  0  0  0  0
    1.2939    7.8498    0.0000 O   0  0  0  0  0  0  0  0  0  0  0  0
    5.6634    1.7688    0.0000 N   0  0  0  0  0  0  0  0  0  0  0  0
    4.7974    3.2688    0.0000 N   0  0  0  0  0  0  0  0  0  0  0  0
    2.8802   11.0876    0.0000 C   0  0  0  0  0  0  0  0  0  0  0  0
    2.8802   12.0876    0.0000 C   0  0  0  0  0  0  0  0  0  0  0  0
    3.2223   10.1479    0.0000 C   0  0  0  0  0  0  0  0  0  0  0  0
    3.7463   12.5876    0.0000 C   0  0  0  0  0  0  0  0  0  0  0  0
    4.2071    9.9743    0.0000 C   0  0  0  0  0  0  0  0  0  0  0  0
    3.7463   13.5876    0.0000 C   0  0  0  0  0  0  0  0  0  0  0  0
    4.5491    9.0346    0.0000 C   0  0  0  0  0  0  0  0  0  0  0  0
    2.0142   12.5876    0.0000 C   0  0  0  0  0  0  0  0  0  0  0  0
    2.5795    9.3819    0.0000 C   0  0  0  0  0  0  0  0  0  0  0  0
    6.5294    2.2688    0.0000 C   0  0  0  0  0  0  0  0  0  0  0  0
    6.5294    3.2688    0.0000 C   0  0  0  0  0  0  0  0  0  0  0  0
    2.0142   13.5876    0.0000 C   0  0  0  0  0  0  0  0  0  0  0  0
    2.9215    8.4422    0.0000 C   0  0  0  0  0  0  0  0  0  0  0  0
    2.8802   14.0876    0.0000 C   0  0  0  0  0  0  0  0  0  0  0  0
    3.9063    8.2685    0.0000 C   0  0  0  0  0  0  0  0  0  0  0  0
    5.6634    3.7688    0.0000 C   0  0  0  0  0  0  0  0  0  0  0  0
    4.6402   12.0529    0.0000 C   0  0  0  0  0  0  0  0  0  0  0  0
    4.8642   10.7824    0.0000 C   0  0  0  0  0  0  0  0  0  0  0  0
    4.6402   14.1223    0.0000 C   0  0  0  0  0  0  0  0  0  0  0  0
    5.5720    8.8379    0.0000 C   0  0  0  0  0  0  0  0  0  0  0  0
    4.7974    2.2688    0.0000 C   0  0  0  0  0  0  0  0  0  0  0  0
    5.5463   12.5668    0.0000 C   0  0  0  0  0  0  0  0  0  0  0  0
    5.8914   10.6095    0.0000 C   0  0  0  0  0  0  0  0  0  0  0  0
    6.2477    9.6306    0.0000 C   0  0  0  0  0  0  0  0  0  0  0  0
    5.5463   13.6084    0.0000 C   0  0  0  0  0  0  0  0  0  0  0  0
    5.6634    0.7688    0.0000 C   0  0  0  0  0  0  0  0  0  0  0  0
    1.1482   14.0876    0.0000 C   0  0  0  0  0  0  0  0  0  0  0  0
    2.2787    7.6761    0.0000 C   0  0  0  0  0  0  0  0  0  0  0  0
    3.9313    1.7688    0.0000 C   0  0  0  0  0  0  0  0  0  0  0  0
    3.0653    2.2688    0.0000 C   0  0  0  0  0  0  0  0  0  0  0  0
    2.1993    1.7688    0.0000 C   0  0  0  0  0  0  0  0  0  0  0  0
    1.2857    2.1756    0.0000 C   0  0  0  0  0  0  0  0  0  0  0  0
    0.6166    1.4324    0.0000 C   0  0  0  0  0  0  0  0  0  0  0  0
    1.1166    0.5664    0.0000 C   0  0  0  0  0  0  0  0  0  0  0  0
    2.3110   11.3332    0.0000 H   0  0  0  0  0  0  0  0  0  0  0  0
    3.4908   11.1953    0.0000 H   0  0  0  0  0  0  0  0  0  0  0  0
    6.7415    1.6862    0.0000 H   0  0  0  0  0  0  0  0  0  0  0  0
    7.1400    2.3765    0.0000 H   0  0  0  0  0  0  0  0  0  0  0  0
    7.1400    3.1612    0.0000 H   0  0  0  0  0  0  0  0  0  0  0  0
    6.7415    3.8514    0.0000 H   0  0  0  0  0  0  0  0  0  0  0  0
    4.1184    7.6859    0.0000 H   0  0  0  0  0  0  0  0  0  0  0  0
    2.8802   14.7076    0.0000 H   0  0  0  0  0  0  0  0  0  0  0  0
    6.0619    4.2438    0.0000 H   0  0  0  0  0  0  0  0  0  0  0  0
    5.2648    4.2438    0.0000 H   0  0  0  0  0  0  0  0  0  0  0  0
    4.6330   11.4330    0.0000 H   0  0  0  0  0  0  0  0  0  0  0  0
    4.6455   11.3625    0.0000 H   0  0  0  0  0  0  0  0  0  0  0  0
    5.7773    8.2529    0.0000 H   0  0  0  0  0  0  0  0  0  0  0  0
    4.6330   14.7422    0.0000 H   0  0  0  0  0  0  0  0  0  0  0  0
    6.0820   12.2547    0.0000 H   0  0  0  0  0  0  0  0  0  0  0  0
    6.2881   11.0859    0.0000 H   0  0  0  0  0  0  0  0  0  0  0  0
    6.0820   13.9205    0.0000 H   0  0  0  0  0  0  0  0  0  0  0  0
    6.8578    9.5206    0.0000 H   0  0  0  0  0  0  0  0  0  0  0  0
    5.0434    0.7688    0.0000 H   0  0  0  0  0  0  0  0  0  0  0  0
    5.6634    0.1488    0.0000 H   0  0  0  0  0  0  0  0  0  0  0  0
    6.2834    0.7688    0.0000 H   0  0  0  0  0  0  0  0  0  0  0  0
    0.6113   12.3976    0.0000 H   0  0  0  0  0  0  0  0  0  0  0  0
    1.1962    9.0805    0.0000 H   0  0  0  0  0  0  0  0  0  0  0  0
    3.9313    1.1488    0.0000 H   0  0  0  0  0  0  0  0  0  0  0  0
    3.0653    2.8888    0.0000 H   0  0  0  0  0  0  0  0  0  0  0  0
    0.6113   15.3976    0.0000 H   0  0  0  0  0  0  0  0  0  0  0  0
    2.2222    6.2615    0.0000 H   0  0  0  0  0  0  0  0  0  0  0  0
    1.1568    2.7820    0.0000 H   0  0  0  0  0  0  0  0  0  0  0  0
    0.0000    1.4972    0.0000 H   0  0  0  0  0  0  0  0  0  0  0  0
    0.8644    0.0000    0.0000 H   0  0  0  0  0  0  0  0  0  0  0  0
  1 40  1  0  0  0  0
  1 43  1  0  0  0  0
  2 17  1  0  0  0  0
  2 65  1  0  0  0  0
  3 18  1  0  0  0  0
  3 66  1  0  0  0  0
  4 36  1  0  0  0  0
  4 69  1  0  0  0  0
  5 37  1  0  0  0  0
  5 70  1  0  0  0  0
  6 36  2  0  0  0  0
  7 37  2  0  0  0  0
  8 19  1  0  0  0  0
  8 30  1  0  0  0  0
  8 35  1  0  0  0  0
  9 25  1  0  0  0  0
  9 30  2  0  0  0  0
 10 11  1  0  0  0  0
 10 12  1  0  0  0  0
 10 44  1  0  0  0  0
 10 45  1  0  0  0  0
 11 13  1  0  0  0  0
 11 17  2  0  0  0  0
 12 14  1  0  0  0  0
 12 18  2  0  0  0  0
 13 15  1  0  0  0  0
 13 26  2  0  0  0  0
 14 16  1  0  0  0  0
 14 27  2  0  0  0  0
 15 23  1  0  0  0  0
 15 28  2  0  0  0  0
 16 24  1  0  0  0  0
 16 29  2  0  0  0  0
 17 21  1  0  0  0  0
 18 22  1  0  0  0  0
 19 20  1  0  0  0  0
 19 46  1  0  0  0  0
 19 47  1  0  0  0  0
 20 25  1  0  0  0  0
 20 48  1  0  0  0  0
 20 49  1  0  0  0  0
 21 23  2  0  0  0  0
 21 36  1  0  0  0  0
 22 24  2  0  0  0  0
 22 37  1  0  0  0  0
 23 51  1  0  0  0  0
 24 50  1  0  0  0  0
 25 52  1  0  0  0  0
 25 53  1  0  0  0  0
 26 31  1  0  0  0  0
 26 54  1  0  0  0  0
 27 32  1  0  0  0  0
 27 55  1  0  0  0  0
 28 34  1  0  0  0  0
 28 57  1  0  0  0  0
 29 33  1  0  0  0  0
 29 56  1  0  0  0  0
 30 38  1  0  0  0  0
 31 34  2  0  0  0  0
 31 58  1  0  0  0  0
 32 33  2  0  0  0  0
 32 59  1  0  0  0  0
 33 61  1  0  0  0  0
 34 60  1  0  0  0  0
 35 62  1  0  0  0  0
 35 63  1  0  0  0  0
 35 64  1  0  0  0  0
 38 39  2  0  0  0  0
 38 67  1  0  0  0  0
 39 40  1  0  0  0  0
 39 68  1  0  0  0  0
 40 41  2  0  0  0  0
 41 42  1  0  0  0  0
 41 71  1  0  0  0  0
 42 43  2  0  0  0  0
 42 72  1  0  0  0  0
 43 73  1  0  0  0  0
M  END
> <PUBCHEM_COMPOUND_CID>
5281033

> <PUBCHEM_COMPOUND_CANONICALIZED>
1

> <PUBCHEM_CACTVS_COMPLEXITY>
816

> <PUBCHEM_CACTVS_HBOND_ACCEPTOR>
8

> <PUBCHEM_CACTVS_HBOND_DONOR>
4

> <PUBCHEM_CACTVS_ROTATABLE_BOND>
6

> <PUBCHEM_CACTVS_SUBSKEYS>
AAADceB/OABAAAAAAAAAAAAAAAAAASAAAAAwYMGCAAAAAADB1AAAHgQACAAADATF2ASzD8MAAgisAiLyLACDAIEkKBBJiBkcCNgIJzaiXRKEcUAl4BGomYeI6PSO4AADAAAYAADAAAYAADAAAAAAAAAAAA==

> <PUBCHEM_IUPAC_OPENEYE_NAME>
4-[(3-carboxy-2-hydroxy-1-naphthyl)methyl]-3-hydroxy-naphthalene-2-carboxylic acid; 1-methyl-2-[(E)-2-(2-thienyl)vinyl]-5,6-dihydro-4H-pyrimidine

> <PUBCHEM_IUPAC_CAS_NAME>
4-[(3-carboxy-2-hydroxy-1-naphthalenyl)methyl]-3-hydroxy-2-naphthalenecarboxylic acid; 1-methyl-2-[(E)-2-thiophen-2-ylethenyl]-5,6-dihydro-4H-pyrimidine

> <PUBCHEM_IUPAC_NAME>
4-[(3-carboxy-2-hydroxynaphthalen-1-yl)methyl]-3-hydroxynaphthalene-2-carboxylic acid; 1-methyl-2-[(E)-2-thiophen-2-ylethenyl]-5,6-dihydro-4H-pyrimidine

> <PUBCHEM_IUPAC_SYSTEMATIC_NAME>
4-[(3-carboxy-2-oxidanyl-naphthalen-1-yl)methyl]-3-oxidanyl-naphthalene-2-carboxylic acid; 1-methyl-2-[(E)-2-thiophen-2-ylethenyl]-5,6-dihydro-4H-pyrimidine

> <PUBCHEM_IUPAC_TRADITIONAL_NAME>
4-[(3-carboxy-2-hydroxy-1-naphthyl)methyl]-3-hydroxy-2-naphthoic acid; 1-methyl-2-[(E)-2-(2-thienyl)vinyl]-5,6-dihydro-4H-pyrimidine

> <PUBCHEM_IUPAC_INCHI>
InChI=1S/C23H16O6.C11H14N2S/c24-20-16(14-7-3-1-5-12(14)9-18(20)22(26)27)11-17-15-8-4-2-6-13(15)10-19(21(17)25)23(28)29;1-13-8-3-7-12-11(13)6-5-10-4-2-9-14-10/h1-10,24-25H,11H2,(H,26,27)(H,28,29);2,4-6,9H,3,7-8H2,1H3/b;6-5+

> <PUBCHEM_IUPAC_INCHIKEY>
AQXXZDYPVDOQEE-MXDQRGINSA-N

> <PUBCHEM_EXACT_MASS>
594.182458

> <PUBCHEM_MOLECULAR_FORMULA>
C34H30N2O6S

> <PUBCHEM_MOLECULAR_WEIGHT>
594.6768

> <PUBCHEM_OPENEYE_CAN_SMILES>
CN1CCCN=C1C=CC2=CC=CS2.C1=CC=C2C(=C1)C=C(C(=C2CC3=C(C(=CC4=CC=CC=C43)C(=O)O)O)O)C(=O)O

> <PUBCHEM_OPENEYE_ISO_SMILES>
CN1CCCN=C1/C=C/C2=CC=CS2.C1=CC=C2C(=C1)C=C(C(=C2CC3=C(C(=CC4=CC=CC=C43)C(=O)O)O)O)C(=O)O

> <PUBCHEM_CACTVS_TPSA>
159

> <PUBCHEM_MONOISOTOPIC_WEIGHT>
594.182458

> <PUBCHEM_TOTAL_CHARGE>
0

> <PUBCHEM_HEAVY_ATOM_COUNT>
43

> <PUBCHEM_ATOM_DEF_STEREO_COUNT>
0

> <PUBCHEM_ATOM_UDEF_STEREO_COUNT>
0

> <PUBCHEM_BOND_DEF_STEREO_COUNT>
1

> <PUBCHEM_BOND_UDEF_STEREO_COUNT>
0

> <PUBCHEM_ISOTOPIC_ATOM_COUNT>
0

> <PUBCHEM_COMPONENT_COUNT>
2

> <PUBCHEM_CACTVS_TAUTO_COUNT>
9

> <PUBCHEM_COORDINATE_TYPE>
1
5
255

> <PUBCHEM_BONDANNOTATIONS>
1  40  8
1  43  8
11  13  8
11  17  8
12  14  8
12  18  8
13  15  8
13  26  8
14  16  8
14  27  8
15  23  8
15  28  8
16  24  8
16  29  8
17  21  8
18  22  8
21  23  8
22  24  8
26  31  8
27  32  8
28  34  8
29  33  8
31  34  8
32  33  8
40  41  8
41  42  8
42  43  8

$$$$

