443785
  -OEChem-07051213033D

 44 47  0     0  0  0  0  0  0999 V2000
   -0.4457    2.1708   -0.1413 O   0  0  0  0  0  0  0  0  0  0  0  0
    2.0279    2.2954   -0.0816 O   0  0  0  0  0  0  0  0  0  0  0  0
    4.5501    2.6274   -0.0333 O   0  0  0  0  0  0  0  0  0  0  0  0
   -4.9115   -2.3949   -0.1029 O   0  0  0  0  0  0  0  0  0  0  0  0
    7.2467   -1.2593    0.1556 O   0  0  0  0  0  0  0  0  0  0  0  0
   -5.7501    0.6306    1.0506 O   0  0  0  0  0  0  0  0  0  0  0  0
   -5.8713    0.6368   -1.2481 O   0  0  0  0  0  0  0  0  0  0  0  0
    1.0543   -1.1732    0.0070 C   0  0  0  0  0  0  0  0  0  0  0  0
    2.3943   -1.8544    0.0628 C   0  0  0  0  0  0  0  0  0  0  0  0
    0.9221    0.2157   -0.0416 C   0  0  0  0  0  0  0  0  0  0  0  0
   -1.5080    0.0172   -0.0954 C   0  0  0  0  0  0  0  0  0  0  0  0
    3.5888   -0.9407    0.0600 C   0  0  0  0  0  0  0  0  0  0  0  0
   -1.3858   -1.3890   -0.0467 C   0  0  0  0  0  0  0  0  0  0  0  0
   -0.3475    0.8078   -0.0925 C   0  0  0  0  0  0  0  0  0  0  0  0
    3.4659    0.4518    0.0120 C   0  0  0  0  0  0  0  0  0  0  0  0
   -0.1056   -1.9646    0.0042 C   0  0  0  0  0  0  0  0  0  0  0  0
    2.1261    1.0754   -0.0404 C   0  0  0  0  0  0  0  0  0  0  0  0
   -2.7881    0.5938   -0.1464 C   0  0  0  0  0  0  0  0  0  0  0  0
   -2.5463   -2.1805   -0.0503 C   0  0  0  0  0  0  0  0  0  0  0  0
   -3.9308   -0.2067   -0.1491 C   0  0  0  0  0  0  0  0  0  0  0  0
    4.8730   -1.5054    0.1084 C   0  0  0  0  0  0  0  0  0  0  0  0
    4.6063    1.2658    0.0125 C   0  0  0  0  0  0  0  0  0  0  0  0
   -3.8100   -1.5919   -0.1014 C   0  0  0  0  0  0  0  0  0  0  0  0
   -3.0195    2.0768   -0.2006 C   0  0  0  0  0  0  0  0  0  0  0  0
    6.0089   -0.6956    0.1090 C   0  0  0  0  0  0  0  0  0  0  0  0
    5.8750    0.6892    0.0612 C   0  0  0  0  0  0  0  0  0  0  0  0
   -5.2640    0.3879   -0.2024 C   0  0  0  0  0  0  0  0  0  0  0  0
   -7.0551    1.2138    1.1306 C   0  0  0  0  0  0  0  0  0  0  0  0
    2.4739   -2.5234   -0.8037 H   0  0  0  0  0  0  0  0  0  0  0  0
    2.4310   -2.4619    0.9763 H   0  0  0  0  0  0  0  0  0  0  0  0
   -0.0036   -3.0487    0.0421 H   0  0  0  0  0  0  0  0  0  0  0  0
   -2.4677   -3.2657   -0.0130 H   0  0  0  0  0  0  0  0  0  0  0  0
    4.9870   -2.5868    0.1460 H   0  0  0  0  0  0  0  0  0  0  0  0
   -2.6217    2.5604    0.6984 H   0  0  0  0  0  0  0  0  0  0  0  0
   -2.5744    2.5017   -1.1071 H   0  0  0  0  0  0  0  0  0  0  0  0
   -4.0669    2.3864   -0.2387 H   0  0  0  0  0  0  0  0  0  0  0  0
    6.7632    1.3167    0.0616 H   0  0  0  0  0  0  0  0  0  0  0  0
    0.3516    2.5543   -0.5376 H   0  0  0  0  0  0  0  0  0  0  0  0
    5.4507    2.9938   -0.0239 H   0  0  0  0  0  0  0  0  0  0  0  0
   -5.7238   -1.8648   -0.1361 H   0  0  0  0  0  0  0  0  0  0  0  0
    7.9160   -0.5535    0.1486 H   0  0  0  0  0  0  0  0  0  0  0  0
   -7.7940    0.5483    0.6747 H   0  0  0  0  0  0  0  0  0  0  0  0
   -7.0613    2.1921    0.6409 H   0  0  0  0  0  0  0  0  0  0  0  0
   -7.3045    1.3468    2.1866 H   0  0  0  0  0  0  0  0  0  0  0  0
  1 14  1  0  0  0  0
  1 38  1  0  0  0  0
  2 17  2  0  0  0  0
  3 22  1  0  0  0  0
  3 39  1  0  0  0  0
  4 23  1  0  0  0  0
  4 40  1  0  0  0  0
  5 25  1  0  0  0  0
  5 41  1  0  0  0  0
  6 27  1  0  0  0  0
  6 28  1  0  0  0  0
  7 27  2  0  0  0  0
  8  9  1  0  0  0  0
  8 10  2  0  0  0  0
  8 16  1  0  0  0  0
  9 12  1  0  0  0  0
  9 29  1  0  0  0  0
  9 30  1  0  0  0  0
 10 14  1  0  0  0  0
 10 17  1  0  0  0  0
 11 13  1  0  0  0  0
 11 14  2  0  0  0  0
 11 18  1  0  0  0  0
 12 15  2  0  0  0  0
 12 21  1  0  0  0  0
 13 16  2  0  0  0  0
 13 19  1  0  0  0  0
 15 17  1  0  0  0  0
 15 22  1  0  0  0  0
 16 31  1  0  0  0  0
 18 20  2  0  0  0  0
 18 24  1  0  0  0  0
 19 23  2  0  0  0  0
 19 32  1  0  0  0  0
 20 23  1  0  0  0  0
 20 27  1  0  0  0  0
 21 25  2  0  0  0  0
 21 33  1  0  0  0  0
 22 26  2  0  0  0  0
 24 34  1  0  0  0  0
 24 35  1  0  0  0  0
 24 36  1  0  0  0  0
 25 26  1  0  0  0  0
 26 37  1  0  0  0  0
 28 42  1  0  0  0  0
 28 43  1  0  0  0  0
 28 44  1  0  0  0  0
M  END
> <PUBCHEM_COMPOUND_CID>
443785

> <PUBCHEM_CONFORMER_RMSD>
0.6

> <PUBCHEM_CONFORMER_DIVERSEORDER>
2
1

> <PUBCHEM_MMFF94_PARTIAL_CHARGES>
34
1 -0.53
10 0.09
12 -0.14
14 0.08
15 0.09
16 -0.15
17 0.4
18 -0.14
19 -0.15
2 -0.57
20 0.09
21 -0.15
22 0.08
23 0.08
24 0.14
25 0.08
26 -0.15
27 0.63
28 0.28
3 -0.53
31 0.15
32 0.15
33 0.15
37 0.15
38 0.45
39 0.45
4 -0.53
40 0.45
41 0.45
5 -0.53
6 -0.43
7 -0.57
8 -0.14
9 0.29

> <PUBCHEM_EFFECTIVE_ROTOR_COUNT>
2.2

> <PUBCHEM_PHARMACOPHORE_FEATURES>
10
1 1 donor
1 2 acceptor
1 3 donor
1 4 donor
1 5 donor
1 7 acceptor
6 11 13 18 19 20 23 rings
6 12 15 21 22 25 26 rings
6 8 10 11 13 14 16 rings
6 8 9 10 12 15 17 rings

> <PUBCHEM_HEAVY_ATOM_COUNT>
28

> <PUBCHEM_ATOM_DEF_STEREO_COUNT>
0

> <PUBCHEM_ATOM_UDEF_STEREO_COUNT>
0

> <PUBCHEM_BOND_DEF_STEREO_COUNT>
0

> <PUBCHEM_BOND_UDEF_STEREO_COUNT>
0

> <PUBCHEM_ISOTOPIC_ATOM_COUNT>
0

> <PUBCHEM_COMPONENT_COUNT>
1

> <PUBCHEM_CACTVS_TAUTO_COUNT>
996

> <PUBCHEM_CONFORMER_ID>
0006C58900000002

> <PUBCHEM_MMFF94_ENERGY>
106.0364

> <PUBCHEM_FEATURE_SELFOVERLAP>
50.81

> <PUBCHEM_SHAPE_FINGERPRINT>
10 15 18131628976233214297
10835480 77 18336835173669295816
10906281 52 18337373998574786887
11089746 13 17385447613397983169
11578080 2 17169851972373991650
12166972 35 17988922263127656684
12236239 1 17967816041561395845
12403259 415 18202291315685247084
12788726 201 17458335394792446905
12838862 33 18339943582997506636
13140716 1 18411415068882168971
13402501 40 18411702088450382758
14251764 18 18335700525446314379
14341114 176 18413386544569899181
14790565 3 18410571760368954333
15183329 4 18412549820484382943
15196674 1 18411139095568575806
16087824 20 18267584783568502133
1813 80 17060342898600469196
18681886 176 18335990788042183530
19141452 34 18409449159044727871
21033648 29 17676786300648410426
21130935 74 18334014965320607058
21236236 1 18336828602875546687
21267235 1 18411976988370343718
21279426 13 18411702084313814150
21421861 104 18058741311367916802
23402539 116 18335145267130630015
23522609 53 18197467723788633684
23559900 14 18336554806656828736
2838139 119 18409173229255846869
3004659 81 18272373066712645408
335352 9 18410856563950633551
350125 39 18411136935337266892
3545911 37 18411982476731802191
3633792 109 18339090380193595125
3680242 22 18272378589703342426
4073 2 18131346367786252818
4093350 32 16878499158591909175
4214541 1 18411139147345501740
4340502 62 16774076293176356706
5104073 3 18340208496596174979
7226269 152 17967812791046990113

> <PUBCHEM_SHAPE_MULTIPOLES>
535.14
16.31
2.51
0.72
0.05
0.09
-0.03
1.42
-1.89
-0.07
0.04
0.77
0.09
-0.45

> <PUBCHEM_SHAPE_SELFOVERLAP>
1215.45

> <PUBCHEM_SHAPE_VOLUME>
278.9

> <PUBCHEM_COORDINATE_TYPE>
2
5
10

$$$$

