160433
  -OEChem-07051212502D

 38 40  0     1  0  0  0  0  0999 V2000
    5.2686    0.2369    0.0000 O   0  0  0  0  0  0  0  0  0  0  0  0
    7.6146   -0.8550    0.0000 O   0  0  0  0  0  0  0  0  0  0  0  0
    7.6183    1.3206    0.0000 O   0  0  0  0  0  0  0  0  0  0  0  0
    6.2208    2.7384    0.0000 O   0  0  0  0  0  0  0  0  0  0  0  0
    5.5443   -1.5237    0.0000 N   0  0  0  0  0  0  0  0  0  0  0  0
    5.5443   -3.1332    0.0000 N   0  0  0  0  0  0  0  0  0  0  0  0
    5.8550   -0.5732    0.0000 C   0  0  2  0  0  0  0  0  0  0  0  0
    6.8066   -0.2658    0.0000 C   0  0  1  0  0  0  0  0  0  0  0  0
    6.8083    0.7342    0.0000 C   0  0  1  0  0  0  0  0  0  0  0  0
    5.8578    1.0449    0.0000 C   0  0  1  0  0  0  0  0  0  0  0  0
    5.5504    1.9964    0.0000 C   0  0  0  0  0  0  0  0  0  0  0  0
    4.5981   -1.8284    0.0000 C   0  0  0  0  0  0  0  0  0  0  0  0
    6.1279   -2.3284    0.0000 C   0  0  0  0  0  0  0  0  0  0  0  0
    4.5981   -2.8284    0.0000 C   0  0  0  0  0  0  0  0  0  0  0  0
    3.7320   -1.3284    0.0000 C   0  0  0  0  0  0  0  0  0  0  0  0
    2.8660   -1.8284    0.0000 C   0  0  0  0  0  0  0  0  0  0  0  0
    3.7320   -3.3284    0.0000 C   0  0  0  0  0  0  0  0  0  0  0  0
    2.8660   -2.8284    0.0000 C   0  0  0  0  0  0  0  0  0  0  0  0
    2.0000   -1.3284    0.0000 C   0  0  0  0  0  0  0  0  0  0  0  0
    2.0000   -3.3284    0.0000 C   0  0  0  0  0  0  0  0  0  0  0  0
    6.2926   -1.0123    0.0000 H   0  0  0  0  0  0  0  0  0  0  0  0
    7.3595    0.0147    0.0000 H   0  0  0  0  0  0  0  0  0  0  0  0
    6.7124    1.3467    0.0000 H   0  0  0  0  0  0  0  0  0  0  0  0
    5.2456    1.1429    0.0000 H   0  0  0  0  0  0  0  0  0  0  0  0
    5.1695    2.4857    0.0000 H   0  0  0  0  0  0  0  0  0  0  0  0
    5.0025    1.7063    0.0000 H   0  0  0  0  0  0  0  0  0  0  0  0
    6.7479   -2.3284    0.0000 H   0  0  0  0  0  0  0  0  0  0  0  0
    8.1814   -0.6038    0.0000 H   0  0  0  0  0  0  0  0  0  0  0  0
    8.1843    1.0674    0.0000 H   0  0  0  0  0  0  0  0  0  0  0  0
    3.7320   -0.7084    0.0000 H   0  0  0  0  0  0  0  0  0  0  0  0
    3.7320   -3.9484    0.0000 H   0  0  0  0  0  0  0  0  0  0  0  0
    6.0302    3.3284    0.0000 H   0  0  0  0  0  0  0  0  0  0  0  0
    2.3100   -0.7915    0.0000 H   0  0  0  0  0  0  0  0  0  0  0  0
    1.4631   -1.0184    0.0000 H   0  0  0  0  0  0  0  0  0  0  0  0
    1.6900   -1.8654    0.0000 H   0  0  0  0  0  0  0  0  0  0  0  0
    1.6900   -2.7915    0.0000 H   0  0  0  0  0  0  0  0  0  0  0  0
    1.4631   -3.6384    0.0000 H   0  0  0  0  0  0  0  0  0  0  0  0
    2.3100   -3.8654    0.0000 H   0  0  0  0  0  0  0  0  0  0  0  0
  1  7  1  0  0  0  0
  1 10  1  0  0  0  0
  8  2  1  1  0  0  0
  2 28  1  0  0  0  0
  9  3  1  1  0  0  0
  3 29  1  0  0  0  0
  4 11  1  0  0  0  0
  4 32  1  0  0  0  0
  7  5  1  1  0  0  0
  5 12  1  0  0  0  0
  5 13  1  0  0  0  0
  6 13  2  0  0  0  0
  6 14  1  0  0  0  0
  7  8  1  0  0  0  0
  7 21  1  0  0  0  0
  8  9  1  0  0  0  0
  8 22  1  0  0  0  0
  9 10  1  0  0  0  0
  9 23  1  0  0  0  0
 10 11  1  6  0  0  0
 10 24  1  0  0  0  0
 11 25  1  0  0  0  0
 11 26  1  0  0  0  0
 12 14  2  0  0  0  0
 12 15  1  0  0  0  0
 13 27  1  0  0  0  0
 14 17  1  0  0  0  0
 15 16  2  0  0  0  0
 15 30  1  0  0  0  0
 16 18  1  0  0  0  0
 16 19  1  0  0  0  0
 17 18  2  0  0  0  0
 17 31  1  0  0  0  0
 18 20  1  0  0  0  0
 19 33  1  0  0  0  0
 19 34  1  0  0  0  0
 19 35  1  0  0  0  0
 20 36  1  0  0  0  0
 20 37  1  0  0  0  0
 20 38  1  0  0  0  0
M  END
> <PUBCHEM_COMPOUND_CID>
160433

> <PUBCHEM_COMPOUND_CANONICALIZED>
1

> <PUBCHEM_CACTVS_COMPLEXITY>
356

> <PUBCHEM_CACTVS_HBOND_ACCEPTOR>
5

> <PUBCHEM_CACTVS_HBOND_DONOR>
3

> <PUBCHEM_CACTVS_ROTATABLE_BOND>
2

> <PUBCHEM_CACTVS_SUBSKEYS>
AAADceBzOAAAAAAAAAAAAAAAAAAAAWJAAAAwAAAAAAAAAFgB8AAAHgAACAAADBzhngY30LcMFgCgAyRjZACCgC0xEqAB2CA4dJiLeKLAmZGeYAhvgALbyCfwsIIOiAAAQAAQACAQAACAACAAQAAAAAAAAA==

> <PUBCHEM_IUPAC_OPENEYE_NAME>
(2S,3R,4S,5R)-2-(5,6-dimethylbenzimidazol-1-yl)-5-(hydroxymethyl)tetrahydrofuran-3,4-diol

> <PUBCHEM_IUPAC_CAS_NAME>
(2S,3R,4S,5R)-2-(5,6-dimethyl-1-benzimidazolyl)-5-(hydroxymethyl)oxolane-3,4-diol

> <PUBCHEM_IUPAC_NAME>
(2S,3R,4S,5R)-2-(5,6-dimethylbenzimidazol-1-yl)-5-(hydroxymethyl)oxolane-3,4-diol

> <PUBCHEM_IUPAC_SYSTEMATIC_NAME>
(2S,3R,4S,5R)-2-(5,6-dimethylbenzimidazol-1-yl)-5-(hydroxymethyl)oxolane-3,4-diol

> <PUBCHEM_IUPAC_TRADITIONAL_NAME>
(2S,3R,4S,5R)-2-(5,6-dimethylbenzimidazol-1-yl)-5-methylol-tetrahydrofuran-3,4-diol

> <PUBCHEM_IUPAC_INCHI>
InChI=1S/C14H18N2O4/c1-7-3-9-10(4-8(7)2)16(6-15-9)14-13(19)12(18)11(5-17)20-14/h3-4,6,11-14,17-19H,5H2,1-2H3/t11-,12-,13-,14+/m1/s1

> <PUBCHEM_IUPAC_INCHIKEY>
HLRUKOJSWOKCPP-SYQHCUMBSA-N

> <PUBCHEM_XLOGP3_AA>
0.6

> <PUBCHEM_EXACT_MASS>
278.126657

> <PUBCHEM_MOLECULAR_FORMULA>
C14H18N2O4

> <PUBCHEM_MOLECULAR_WEIGHT>
278.30372

> <PUBCHEM_OPENEYE_CAN_SMILES>
CC1=CC2=C(C=C1C)N(C=N2)C3C(C(C(O3)CO)O)O

> <PUBCHEM_OPENEYE_ISO_SMILES>
CC1=CC2=C(C=C1C)N(C=N2)[C@@H]3[C@@H]([C@@H]([C@H](O3)CO)O)O

> <PUBCHEM_CACTVS_TPSA>
87.7

> <PUBCHEM_MONOISOTOPIC_WEIGHT>
278.126657

> <PUBCHEM_TOTAL_CHARGE>
0

> <PUBCHEM_HEAVY_ATOM_COUNT>
20

> <PUBCHEM_ATOM_DEF_STEREO_COUNT>
4

> <PUBCHEM_ATOM_UDEF_STEREO_COUNT>
0

> <PUBCHEM_BOND_DEF_STEREO_COUNT>
0

> <PUBCHEM_BOND_UDEF_STEREO_COUNT>
0

> <PUBCHEM_ISOTOPIC_ATOM_COUNT>
0

> <PUBCHEM_COMPONENT_COUNT>
1

> <PUBCHEM_CACTVS_TAUTO_COUNT>
1

> <PUBCHEM_COORDINATE_TYPE>
1
5
255

> <PUBCHEM_BONDANNOTATIONS>
10  11  6
12  14  8
12  15  8
14  17  8
15  16  8
16  18  8
17  18  8
8  2  5
9  3  5
5  12  8
5  13  8
7  5  5
6  13  8
6  14  8

$$$$

