6876
  -OEChem-06261201333D

 28 28  0     0  0  0  0  0  0999 V2000
    1.9745   -0.1543    0.0663 O   0  0  0  0  0  0  0  0  0  0  0  0
   -1.9940   -0.8610   -0.6607 O   0  0  0  0  0  0  0  0  0  0  0  0
    4.6743    0.5750    0.2631 O   0  0  0  0  0  0  0  0  0  0  0  0
    0.6106   -1.3328   -1.3655 O   0  0  0  0  0  0  0  0  0  0  0  0
   -1.9239   -1.3783    1.6213 O   0  0  0  0  0  0  0  0  0  0  0  0
   -0.1742    0.6674   -0.3320 C   0  0  0  0  0  0  0  0  0  0  0  0
   -1.5409    0.3902   -0.3656 C   0  0  0  0  0  0  0  0  0  0  0  0
    0.2690    1.9550   -0.0294 C   0  0  0  0  0  0  0  0  0  0  0  0
    0.8065   -0.3724   -0.6107 C   0  0  0  0  0  0  0  0  0  0  0  0
   -2.4642    1.4007   -0.0968 C   0  0  0  0  0  0  0  0  0  0  0  0
    3.0210   -1.1117   -0.1273 C   0  0  0  0  0  0  0  0  0  0  0  0
   -0.6545    2.9653    0.2393 C   0  0  0  0  0  0  0  0  0  0  0  0
   -2.0211    2.6882    0.2057 C   0  0  0  0  0  0  0  0  0  0  0  0
    4.2252   -0.7024    0.6987 C   0  0  0  0  0  0  0  0  0  0  0  0
   -2.1543   -1.6903    0.4606 C   0  0  0  0  0  0  0  0  0  0  0  0
   -2.6541   -3.0384    0.0329 C   0  0  0  0  0  0  0  0  0  0  0  0
    1.3261    2.2070   -0.0087 H   0  0  0  0  0  0  0  0  0  0  0  0
    2.6724   -2.1017    0.1859 H   0  0  0  0  0  0  0  0  0  0  0  0
    3.2832   -1.1316   -1.1913 H   0  0  0  0  0  0  0  0  0  0  0  0
   -3.5305    1.1927   -0.1223 H   0  0  0  0  0  0  0  0  0  0  0  0
   -0.3098    3.9687    0.4717 H   0  0  0  0  0  0  0  0  0  0  0  0
   -2.7400    3.4752    0.4139 H   0  0  0  0  0  0  0  0  0  0  0  0
    5.0438   -1.4206    0.5969 H   0  0  0  0  0  0  0  0  0  0  0  0
    3.9585   -0.6116    1.7559 H   0  0  0  0  0  0  0  0  0  0  0  0
   -3.6216   -2.9328   -0.4638 H   0  0  0  0  0  0  0  0  0  0  0  0
   -2.7808   -3.6746    0.9135 H   0  0  0  0  0  0  0  0  0  0  0  0
   -1.9266   -3.5062   -0.6349 H   0  0  0  0  0  0  0  0  0  0  0  0
    4.9294    0.4931   -0.6716 H   0  0  0  0  0  0  0  0  0  0  0  0
  1  9  1  0  0  0  0
  1 11  1  0  0  0  0
  2  7  1  0  0  0  0
  2 15  1  0  0  0  0
  3 14  1  0  0  0  0
  3 28  1  0  0  0  0
  4  9  2  0  0  0  0
  5 15  2  0  0  0  0
  6  7  1  0  0  0  0
  6  8  2  0  0  0  0
  6  9  1  0  0  0  0
  7 10  2  0  0  0  0
  8 12  1  0  0  0  0
  8 17  1  0  0  0  0
 10 13  1  0  0  0  0
 10 20  1  0  0  0  0
 11 14  1  0  0  0  0
 11 18  1  0  0  0  0
 11 19  1  0  0  0  0
 12 13  2  0  0  0  0
 12 21  1  0  0  0  0
 13 22  1  0  0  0  0
 14 23  1  0  0  0  0
 14 24  1  0  0  0  0
 15 16  1  0  0  0  0
 16 25  1  0  0  0  0
 16 26  1  0  0  0  0
 16 27  1  0  0  0  0
M  END
> <PUBCHEM_COMPOUND_CID>
6876

> <PUBCHEM_CONFORMER_RMSD>
0.8

> <PUBCHEM_CONFORMER_DIVERSEORDER>
1
53
74
69
64
71
39
4
10
59
50
68
41
79
84
78
7
56
5
66
40
96
62
87
31
101
35
97
92
58
11
99
21
44
89
93
3
83
52
9
65
106
102
46
28
103
27
14
43
32
47
104
6
2
13
91
105
33
98
73
25
60
30
49
24
26
76
81
48
100
75
19
16
23
55
77
95
57
70
15
29
38
37
85
67
12
42
17
22
88
61
72
86
18
36
82
45
8
34
80
20
94
54
63
90
51

> <PUBCHEM_MMFF94_PARTIAL_CHARGES>
21
1 -0.43
10 -0.15
11 0.28
12 -0.15
13 -0.15
14 0.28
15 0.66
16 0.06
17 0.15
2 -0.23
20 0.15
21 0.15
22 0.15
28 0.4
3 -0.68
4 -0.57
5 -0.57
6 0.09
7 0.08
8 -0.15
9 0.63

> <PUBCHEM_EFFECTIVE_ROTOR_COUNT>
6

> <PUBCHEM_PHARMACOPHORE_FEATURES>
5
1 3 acceptor
1 3 donor
1 4 acceptor
1 5 acceptor
6 6 7 8 10 12 13 rings

> <PUBCHEM_HEAVY_ATOM_COUNT>
16

> <PUBCHEM_ATOM_DEF_STEREO_COUNT>
0

> <PUBCHEM_ATOM_UDEF_STEREO_COUNT>
0

> <PUBCHEM_BOND_DEF_STEREO_COUNT>
0

> <PUBCHEM_BOND_UDEF_STEREO_COUNT>
0

> <PUBCHEM_ISOTOPIC_ATOM_COUNT>
0

> <PUBCHEM_COMPONENT_COUNT>
1

> <PUBCHEM_CACTVS_TAUTO_COUNT>
1

> <PUBCHEM_CONFORMER_ID>
00001ADC00000001

> <PUBCHEM_MMFF94_ENERGY>
43.8268

> <PUBCHEM_FEATURE_SELFOVERLAP>
25.371

> <PUBCHEM_SHAPE_FINGERPRINT>
10906281 52 18334846230423101093
11265709 11 18266739087053276131
11357001 24 18413387661245325219
11680986 33 18192447285303408737
12553582 1 18194944280283600351
13140716 1 18335699399569115409
13380535 76 18046070616351425668
14787075 74 17841714007082266610
15490181 7 17328581138471876381
16945 1 18337659940486271133
17841504 4 18124031222194518571
20510252 161 18117841225012125017
20871998 184 18260267468669461999
21339142 51 18411708694194830964
21501502 16 18268982099289825909
21524375 3 17612323247760425820
21650355 55 18411422803854245539
2306618 200 17749113313415340754
23402539 116 18335714883326728597
23419403 2 17910702893767626301
23557571 272 18260539048510988596
23559900 14 18264775540159854894
23728640 28 18268717292838773739
257057 1 18194684765801318823
2748010 2 18262244300382331645
3071541 236 18270118066409924389
43471831 8 17765148767404716587
6049 1 17895740916131773142
7097593 13 17912097341385577090
81228 2 18266723839787090773
9709674 26 18190181372395890310

> <PUBCHEM_SHAPE_MULTIPOLES>
299.93
5.84
3.31
0.93
9.17
0.3
0.08
-1.55
1.24
-3.52
0.38
-0.11
-0.35
0.25

> <PUBCHEM_SHAPE_SELFOVERLAP>
618.832

> <PUBCHEM_SHAPE_VOLUME>
170.3

> <PUBCHEM_COORDINATE_TYPE>
2
5
10

$$$$

