5281707
  -OEChem-07051212593D

 28 31  0     0  0  0  0  0  0999 V2000
    0.7057    1.3964   -0.0003 O   0  0  0  0  0  0  0  0  0  0  0  0
   -1.6776   -1.9204    0.0003 O   0  0  0  0  0  0  0  0  0  0  0  0
    0.2478   -3.1990   -0.0002 O   0  0  0  0  0  0  0  0  0  0  0  0
    5.5353    1.4404    0.0004 O   0  0  0  0  0  0  0  0  0  0  0  0
   -5.7287    0.6583    0.0007 O   0  0  0  0  0  0  0  0  0  0  0  0
    0.4932   -0.8547   -0.0002 C   0  0  0  0  0  0  0  0  0  0  0  0
   -0.1540    0.3549   -0.0003 C   0  0  0  0  0  0  0  0  0  0  0  0
    1.8785   -0.5523   -0.0001 C   0  0  0  0  0  0  0  0  0  0  0  0
   -1.5763    0.5411   -0.0003 C   0  0  0  0  0  0  0  0  0  0  0  0
    1.9570    0.8432   -0.0001 C   0  0  0  0  0  0  0  0  0  0  0  0
   -2.3278   -0.6445   -0.0001 C   0  0  0  0  0  0  0  0  0  0  0  0
   -0.2652   -2.0862   -0.0002 C   0  0  0  0  0  0  0  0  0  0  0  0
    3.0766   -1.2887    0.0001 C   0  0  0  0  0  0  0  0  0  0  0  0
   -2.2306    1.7691   -0.0004 C   0  0  0  0  0  0  0  0  0  0  0  0
    3.1549    1.5561    0.0001 C   0  0  0  0  0  0  0  0  0  0  0  0
   -3.7184   -0.6252    0.0002 C   0  0  0  0  0  0  0  0  0  0  0  0
    4.2950   -0.5959    0.0002 C   0  0  0  0  0  0  0  0  0  0  0  0
    4.3308    0.8004    0.0002 C   0  0  0  0  0  0  0  0  0  0  0  0
   -3.6286    1.7983   -0.0001 C   0  0  0  0  0  0  0  0  0  0  0  0
   -4.3676    0.6086    0.0002 C   0  0  0  0  0  0  0  0  0  0  0  0
    3.0686   -2.3745    0.0001 H   0  0  0  0  0  0  0  0  0  0  0  0
   -1.6768    2.7035   -0.0006 H   0  0  0  0  0  0  0  0  0  0  0  0
    3.1643    2.6402    0.0000 H   0  0  0  0  0  0  0  0  0  0  0  0
   -4.2867   -1.5502    0.0006 H   0  0  0  0  0  0  0  0  0  0  0  0
    5.2238   -1.1620    0.0003 H   0  0  0  0  0  0  0  0  0  0  0  0
   -4.1352    2.7604   -0.0001 H   0  0  0  0  0  0  0  0  0  0  0  0
    5.3818    2.4009    0.0004 H   0  0  0  0  0  0  0  0  0  0  0  0
   -6.0100    1.5894    0.0006 H   0  0  0  0  0  0  0  0  0  0  0  0
  1  7  1  0  0  0  0
  1 10  1  0  0  0  0
  2 11  1  0  0  0  0
  2 12  1  0  0  0  0
  3 12  2  0  0  0  0
  4 18  1  0  0  0  0
  4 27  1  0  0  0  0
  5 20  1  0  0  0  0
  5 28  1  0  0  0  0
  6  7  2  0  0  0  0
  6  8  1  0  0  0  0
  6 12  1  0  0  0  0
  7  9  1  0  0  0  0
  8 10  2  0  0  0  0
  8 13  1  0  0  0  0
  9 11  2  0  0  0  0
  9 14  1  0  0  0  0
 10 15  1  0  0  0  0
 11 16  1  0  0  0  0
 13 17  2  0  0  0  0
 13 21  1  0  0  0  0
 14 19  2  0  0  0  0
 14 22  1  0  0  0  0
 15 18  2  0  0  0  0
 15 23  1  0  0  0  0
 16 20  2  0  0  0  0
 16 24  1  0  0  0  0
 17 18  1  0  0  0  0
 17 25  1  0  0  0  0
 19 20  1  0  0  0  0
 19 26  1  0  0  0  0
M  END
> <PUBCHEM_COMPOUND_CID>
5281707

> <PUBCHEM_CONFORMER_RMSD>
0.6

> <PUBCHEM_CONFORMER_DIVERSEORDER>
1

> <PUBCHEM_MMFF94_PARTIAL_CHARGES>
27
1 -0.28
10 0.14
11 0.08
12 0.81
13 -0.15
14 -0.15
15 -0.15
16 -0.15
17 -0.15
18 0.08
19 -0.15
2 -0.23
20 0.08
21 0.15
22 0.15
23 0.15
24 0.15
25 0.15
26 0.15
27 0.45
28 0.45
3 -0.57
4 -0.53
5 -0.53
6 -0.09
7 0.09
9 0.05

> <PUBCHEM_EFFECTIVE_ROTOR_COUNT>
0

> <PUBCHEM_PHARMACOPHORE_FEATURES>
8
1 1 acceptor
1 3 acceptor
1 4 donor
1 5 donor
5 1 6 7 8 10 rings
6 2 6 7 9 11 12 rings
6 8 10 13 15 17 18 rings
6 9 11 14 16 19 20 rings

> <PUBCHEM_HEAVY_ATOM_COUNT>
20

> <PUBCHEM_ATOM_DEF_STEREO_COUNT>
0

> <PUBCHEM_ATOM_UDEF_STEREO_COUNT>
0

> <PUBCHEM_BOND_DEF_STEREO_COUNT>
0

> <PUBCHEM_BOND_UDEF_STEREO_COUNT>
0

> <PUBCHEM_ISOTOPIC_ATOM_COUNT>
0

> <PUBCHEM_COMPONENT_COUNT>
1

> <PUBCHEM_CACTVS_TAUTO_COUNT>
10

> <PUBCHEM_CONFORMER_ID>
005097AB00000001

> <PUBCHEM_MMFF94_ENERGY>
54.382

> <PUBCHEM_FEATURE_SELFOVERLAP>
40.824

> <PUBCHEM_SHAPE_FINGERPRINT>
10608611 8 18336267834448805784
10967382 1 18410575123344197318
11471102 20 18410013268591586332
11578080 2 4821285331878959552
12107183 9 17689999363353817960
12236239 1 17846782880087495104
12390115 104 18188473792051561537
12403259 415 18200313346012187933
12500047 106 18336268934023438266
12592029 89 18341612676061171427
13140716 1 18411704270251720755
13380535 76 18412543240953357059
138480 1 17618223248656684679
14790565 3 18410004463988484865
15042514 8 18124309411542905619
15196674 1 18410573989478274823
15536298 74 18335138726116789110
16945 1 18122624959707326022
18186145 218 18335133245654207852
19591789 44 18339080513730484758
200 152 18040439897589877581
20510252 161 18333447659689715736
20645477 56 18411419471239536392
20645477 70 18188207723058906982
21267235 1 18410566322951082475
21524375 3 18408322198396987999
23366157 5 17914327133064378034
23402539 116 18334583403698244669
23402655 69 18259705600979220780
23558518 356 17696476183053251552
23559900 14 18260828211858999350
2748010 2 18411412912565752822
293599 30 18411135823019663620
3004659 81 18342169021473132198
335352 9 18410574003217764926
34934 24 18411142394694133946
350125 39 18411135805797999177
3545911 37 18410009931771567708
4214541 1 18410575089000556032
474 4 17489019341466926060
474229 33 18411136922710717403
495365 180 17313397695025717546
5104073 3 18411699897943248586
6138700 20 18194115455402856670
633830 44 18261111940775617094
69090 78 18409451375253003710
7364860 26 18192149519336337919
9709674 26 18408879616554169822

> <PUBCHEM_SHAPE_MULTIPOLES>
382.24
9.8
2.33
0.59
0.11
1.19
0
-4.36
0
-0.13
0
0
-0.01
0

> <PUBCHEM_SHAPE_SELFOVERLAP>
880.369

> <PUBCHEM_SHAPE_VOLUME>
198.1

> <PUBCHEM_COORDINATE_TYPE>
2
5
10

$$$$

