5526
  -OEChem-07051213033D

 26 26  0     0  0  0  0  0  0999 V2000
   -3.4569   -0.5686   -0.6659 O   0  0  0  0  0  0  0  0  0  0  0  0
   -2.9214    0.9529    0.9238 O   0  0  0  0  0  0  0  0  0  0  0  0
    4.0091    0.7180    0.1620 N   0  0  0  0  0  0  0  0  0  0  0  0
    1.7348   -0.2028    0.2753 C   0  0  0  0  0  0  0  0  0  0  0  0
    1.1516    0.9610   -0.5373 C   0  0  0  0  0  0  0  0  0  0  0  0
    0.8975   -1.4749    0.0862 C   0  0  0  0  0  0  0  0  0  0  0  0
   -1.1495   -0.0714   -0.3882 C   0  0  0  0  0  0  0  0  0  0  0  0
   -0.3197    1.1991   -0.2043 C   0  0  0  0  0  0  0  0  0  0  0  0
   -0.5741   -1.2364    0.4176 C   0  0  0  0  0  0  0  0  0  0  0  0
    3.1914   -0.4535   -0.1110 C   0  0  0  0  0  0  0  0  0  0  0  0
   -2.5628    0.1765    0.0416 C   0  0  0  0  0  0  0  0  0  0  0  0
    1.6953    0.0678    1.3403 H   0  0  0  0  0  0  0  0  0  0  0  0
    1.2478    0.7535   -1.6109 H   0  0  0  0  0  0  0  0  0  0  0  0
    1.7021    1.8885   -0.3424 H   0  0  0  0  0  0  0  0  0  0  0  0
    1.2855   -2.2769    0.7255 H   0  0  0  0  0  0  0  0  0  0  0  0
    0.9811   -1.8265   -0.9501 H   0  0  0  0  0  0  0  0  0  0  0  0
   -1.1528   -0.3238   -1.4568 H   0  0  0  0  0  0  0  0  0  0  0  0
   -0.3946    1.5605    0.8298 H   0  0  0  0  0  0  0  0  0  0  0  0
   -0.7148    2.0008   -0.8404 H   0  0  0  0  0  0  0  0  0  0  0  0
   -1.1453   -2.1512    0.2174 H   0  0  0  0  0  0  0  0  0  0  0  0
   -0.6774   -1.0388    1.4928 H   0  0  0  0  0  0  0  0  0  0  0  0
    3.2697   -0.7060   -1.1745 H   0  0  0  0  0  0  0  0  0  0  0  0
    3.5885   -1.3035    0.4556 H   0  0  0  0  0  0  0  0  0  0  0  0
    4.9839    0.5083   -0.0487 H   0  0  0  0  0  0  0  0  0  0  0  0
    3.9729    0.9403    1.1560 H   0  0  0  0  0  0  0  0  0  0  0  0
   -4.3796   -0.4001   -0.3784 H   0  0  0  0  0  0  0  0  0  0  0  0
  1 11  1  0  0  0  0
  1 26  1  0  0  0  0
  2 11  2  0  0  0  0
  3 10  1  0  0  0  0
  3 24  1  0  0  0  0
  3 25  1  0  0  0  0
  4  5  1  0  0  0  0
  4  6  1  0  0  0  0
  4 10  1  0  0  0  0
  4 12  1  0  0  0  0
  5  8  1  0  0  0  0
  5 13  1  0  0  0  0
  5 14  1  0  0  0  0
  6  9  1  0  0  0  0
  6 15  1  0  0  0  0
  6 16  1  0  0  0  0
  7  8  1  0  0  0  0
  7  9  1  0  0  0  0
  7 11  1  0  0  0  0
  7 17  1  0  0  0  0
  8 18  1  0  0  0  0
  8 19  1  0  0  0  0
  9 20  1  0  0  0  0
  9 21  1  0  0  0  0
 10 22  1  0  0  0  0
 10 23  1  0  0  0  0
M  END
> <PUBCHEM_COMPOUND_CID>
5526

> <PUBCHEM_CONFORMER_RMSD>
0.6

> <PUBCHEM_CONFORMER_DIVERSEORDER>
1
10
16
7
11
2
15
9
5
17
8
13
14
4
12
18
3
6

> <PUBCHEM_MMFF94_PARTIAL_CHARGES>
9
1 -0.65
10 0.27
11 0.66
2 -0.57
24 0.36
25 0.36
26 0.5
3 -0.99
7 0.06

> <PUBCHEM_EFFECTIVE_ROTOR_COUNT>
3.2

> <PUBCHEM_PHARMACOPHORE_FEATURES>
6
1 1 acceptor
1 2 acceptor
1 3 cation
1 3 donor
3 1 2 11 anion
6 4 5 6 7 8 9 rings

> <PUBCHEM_HEAVY_ATOM_COUNT>
11

> <PUBCHEM_ATOM_DEF_STEREO_COUNT>
0

> <PUBCHEM_ATOM_UDEF_STEREO_COUNT>
0

> <PUBCHEM_BOND_DEF_STEREO_COUNT>
0

> <PUBCHEM_BOND_UDEF_STEREO_COUNT>
0

> <PUBCHEM_ISOTOPIC_ATOM_COUNT>
0

> <PUBCHEM_COMPONENT_COUNT>
1

> <PUBCHEM_CACTVS_TAUTO_COUNT>
1

> <PUBCHEM_CONFORMER_ID>
0000159600000001

> <PUBCHEM_MMFF94_ENERGY>
9.0857

> <PUBCHEM_FEATURE_SELFOVERLAP>
30.506

> <PUBCHEM_SHAPE_FINGERPRINT>
10219947 1 18202002140069128902
11062470 55 18040434386772160524
12032990 46 18342450452434585186
13380535 76 18341613698521960658
14325111 11 18409730681392412742
14993402 34 18413392016347522566
15310529 11 15864068814383189142
15775835 57 18187641453069229545
16945 1 17988918985407908030
19026448 4 16443065006340927222
193761 8 17621314641640590246
20201158 50 18202846564777935667
21293036 1 18271813401560035622
23235685 24 18341899592919272322
23402539 116 18260278433715648406
23402655 69 18126025956000725613
2748010 2 18054782884533749726
29004967 10 17774715463142746217
5084963 1 18411424994577736261
528886 8 18412831274075934538

> <PUBCHEM_SHAPE_MULTIPOLES>
209.66
5.54
1.34
0.76
1.07
0.15
-0.02
-0.66
-0.19
0.13
-0.03
-0.27
-0.04
-0.24

> <PUBCHEM_SHAPE_SELFOVERLAP>
412.313

> <PUBCHEM_SHAPE_VOLUME>
124.3

> <PUBCHEM_COORDINATE_TYPE>
2
5
10

$$$$

