854081
  -OEChem-06241222473D

 32 33  0     0  0  0  0  0  0999 V2000
    5.4891   -0.7779    0.4154 O   0  0  0  0  0  0  0  0  0  0  0  0
   -2.1018    0.9799   -0.2039 N   0  0  0  0  0  0  0  0  0  0  0  0
   -4.4831    0.9670   -0.2312 N   0  0  0  0  0  0  0  0  0  0  0  0
   -5.6747   -1.0965    0.1281 N   0  0  0  0  0  0  0  0  0  0  0  0
    0.3159    1.3906   -0.1901 C   0  0  0  0  0  0  0  0  0  0  0  0
   -0.8077    0.3509   -0.0739 C   0  0  0  0  0  0  0  0  0  0  0  0
    1.6830    0.8172   -0.0301 C   0  0  0  0  0  0  0  0  0  0  0  0
    2.2654    0.7449    1.2353 C   0  0  0  0  0  0  0  0  0  0  0  0
    2.3797    0.3536   -1.1461 C   0  0  0  0  0  0  0  0  0  0  0  0
    3.5446    0.2091    1.3846 C   0  0  0  0  0  0  0  0  0  0  0  0
    3.6588   -0.1822   -0.9967 C   0  0  0  0  0  0  0  0  0  0  0  0
    4.2413   -0.2544    0.2686 C   0  0  0  0  0  0  0  0  0  0  0  0
   -3.3021    0.2972   -0.0942 C   0  0  0  0  0  0  0  0  0  0  0  0
   -3.2681   -1.0744    0.1556 C   0  0  0  0  0  0  0  0  0  0  0  0
   -4.4843   -1.7184    0.2566 C   0  0  0  0  0  0  0  0  0  0  0  0
   -5.6016    0.2267   -0.1111 C   0  0  0  0  0  0  0  0  0  0  0  0
    6.1455   -1.2333   -0.7668 C   0  0  0  0  0  0  0  0  0  0  0  0
    0.2427    1.9026   -1.1595 H   0  0  0  0  0  0  0  0  0  0  0  0
    0.1619    2.1823    0.5561 H   0  0  0  0  0  0  0  0  0  0  0  0
   -0.6746   -0.4084   -0.8546 H   0  0  0  0  0  0  0  0  0  0  0  0
   -0.7239   -0.1452    0.9014 H   0  0  0  0  0  0  0  0  0  0  0  0
    1.7321    1.1008    2.1129 H   0  0  0  0  0  0  0  0  0  0  0  0
    1.9350    0.4031   -2.1366 H   0  0  0  0  0  0  0  0  0  0  0  0
   -2.1566    1.9750   -0.3889 H   0  0  0  0  0  0  0  0  0  0  0  0
    3.9930    0.1547    2.3729 H   0  0  0  0  0  0  0  0  0  0  0  0
    4.1433   -0.5242   -1.9048 H   0  0  0  0  0  0  0  0  0  0  0  0
   -2.3580   -1.6496    0.2696 H   0  0  0  0  0  0  0  0  0  0  0  0
   -4.5373   -2.7847    0.4488 H   0  0  0  0  0  0  0  0  0  0  0  0
   -6.5428    0.7516   -0.2188 H   0  0  0  0  0  0  0  0  0  0  0  0
    6.3261   -0.4119   -1.4685 H   0  0  0  0  0  0  0  0  0  0  0  0
    5.6056   -2.0652   -1.2318 H   0  0  0  0  0  0  0  0  0  0  0  0
    7.1255   -1.6172   -0.4650 H   0  0  0  0  0  0  0  0  0  0  0  0
  1 12  1  0  0  0  0
  1 17  1  0  0  0  0
  2  6  1  0  0  0  0
  2 13  1  0  0  0  0
  2 24  1  0  0  0  0
  3 13  2  0  0  0  0
  3 16  1  0  0  0  0
  4 15  1  0  0  0  0
  4 16  2  0  0  0  0
  5  6  1  0  0  0  0
  5  7  1  0  0  0  0
  5 18  1  0  0  0  0
  5 19  1  0  0  0  0
  6 20  1  0  0  0  0
  6 21  1  0  0  0  0
  7  8  2  0  0  0  0
  7  9  1  0  0  0  0
  8 10  1  0  0  0  0
  8 22  1  0  0  0  0
  9 11  2  0  0  0  0
  9 23  1  0  0  0  0
 10 12  2  0  0  0  0
 10 25  1  0  0  0  0
 11 12  1  0  0  0  0
 11 26  1  0  0  0  0
 13 14  1  0  0  0  0
 14 15  2  0  0  0  0
 14 27  1  0  0  0  0
 15 28  1  0  0  0  0
 16 29  1  0  0  0  0
 17 30  1  0  0  0  0
 17 31  1  0  0  0  0
 17 32  1  0  0  0  0
M  END
> <PUBCHEM_COMPOUND_CID>
854081

> <PUBCHEM_CONFORMER_RMSD>
0.6

> <PUBCHEM_CONFORMER_DIVERSEORDER>
1
28
21
33
15
46
74
2
63
65
81
62
16
45
75
37
76
67
39
66
26
20
69
22
52
12
34
14
25
48
73
8
54
64
35
61
19
29
58
24
49
27
13
72
56
47
80
55
7
17
6
50
9
51
84
79
44
82
36
41
5
71
59
60
43
78
3
11
23
83
53
57
70
38
30
42
40
18
4
68
31
10
77
32

> <PUBCHEM_MMFF94_PARTIAL_CHARGES>
25
1 -0.36
10 -0.15
11 -0.15
12 0.08
13 0.41
14 -0.15
15 0.16
16 0.47
17 0.28
2 -0.87
22 0.15
23 0.15
24 0.4
25 0.15
26 0.15
27 0.15
28 0.15
29 0.15
3 -0.62
4 -0.62
5 0.14
6 0.37
7 -0.14
8 -0.15
9 -0.15

> <PUBCHEM_EFFECTIVE_ROTOR_COUNT>
5

> <PUBCHEM_PHARMACOPHORE_FEATURES>
6
1 1 acceptor
1 2 donor
3 2 3 13 cation
3 3 4 16 cation
6 3 4 13 14 15 16 rings
6 7 8 9 10 11 12 rings

> <PUBCHEM_HEAVY_ATOM_COUNT>
17

> <PUBCHEM_ATOM_DEF_STEREO_COUNT>
0

> <PUBCHEM_ATOM_UDEF_STEREO_COUNT>
0

> <PUBCHEM_BOND_DEF_STEREO_COUNT>
0

> <PUBCHEM_BOND_UDEF_STEREO_COUNT>
0

> <PUBCHEM_ISOTOPIC_ATOM_COUNT>
0

> <PUBCHEM_COMPONENT_COUNT>
1

> <PUBCHEM_CACTVS_TAUTO_COUNT>
3

> <PUBCHEM_CONFORMER_ID>
000D084100000001

> <PUBCHEM_MMFF94_ENERGY>
57.2748

> <PUBCHEM_FEATURE_SELFOVERLAP>
30.576

> <PUBCHEM_SHAPE_FINGERPRINT>
10688039 33 17022619797244956352
11128504 68 16845569799036266836
11545043 162 18260551125790349809
11796584 16 18410574019759525110
12236239 1 17632577166924860260
12507557 5 5473135241739189659
12596602 18 14562537262258126111
12633257 1 16009037163547822868
12714333 28 12535624973175960036
13167823 11 17988925539891914099
13288520 33 18413669115248404645
13668630 136 17847058878722726387
13675066 3 17967255273847233549
1420 363 18040995150618850878
14251731 8 18272654562736970293
14251752 14 17489034846082261989
14252887 29 16733256928643431148
14341114 176 17675926482544673352
14386348 63 18259702306728748727
14455015 7 18113616802743423838
14576447 43 17418379108142740696
14848160 23 18040156210330359251
15188451 53 17604158013200239447
15348495 7 17531251608600922323
15475509 35 18265629843763136618
15880784 105 17676491584218888891
17834072 33 17703789215167465892
17844677 252 18408318878503767681
19489759 90 18040999562114928705
200 152 16558752333975996372
20374829 77 18413671309691823765
21267235 1 18201433654567657339
212847 35 9367352518077611140
221357 26 14476968882354727807
22224240 67 16153718622183094478
22646028 1 17988646276797143005
2297311 6 18341610434441566397
23016692 55 18343016705433803886
23035841 295 18273215322083068818
23402539 116 17989209265094105461
23402655 69 14045744828698563032
23559900 14 18339647724697931529
239999 70 18408604747737709610
26918003 58 17458063763706314755
2916195 48 9871458808040122214
29717793 49 17846495950380876150
3004659 81 17989207036085128428
3060560 45 15051733088759486752
33382 64 18262514914135784786
351380 3 17846501434716606779
42 15 18040152907432027721
4214541 1 18413390951755133485
465052 167 17968094248917404990
5104073 3 18263637386542454017
5281201 14 13470417698431738178
542803 24 14117803526732912261
559249 180 18343023311552570735
5924683 9 16878798076248350279
7495541 125 18261111851182995432
960060 61 16845573110572057428

> <PUBCHEM_SHAPE_MULTIPOLES>
329.04
15.2
1.35
1.02
3.93
0.26
0.11
6.52
-0.32
0.65
0
-1.23
-0.06
0.78

> <PUBCHEM_SHAPE_SELFOVERLAP>
689.867

> <PUBCHEM_SHAPE_VOLUME>
184.1

> <PUBCHEM_COORDINATE_TYPE>
2
5
10

$$$$

