46173999
  -OEChem-07051213113D

 48 51  0     1  0  0  0  0  0999 V2000
    1.0405    1.6025    0.7040 O   0  0  0  0  0  0  0  0  0  0  0  0
   -1.0424   -1.6042    0.7021 O   0  0  0  0  0  0  0  0  0  0  0  0
   -5.8256    1.9769    1.0343 O   0  0  0  0  0  0  0  0  0  0  0  0
    5.8267   -1.9767    1.0325 O   0  0  0  0  0  0  0  0  0  0  0  0
   -7.0247    0.0083   -0.5190 O   0  0  0  0  0  0  0  0  0  0  0  0
    7.0245   -0.0065   -0.5196 O   0  0  0  0  0  0  0  0  0  0  0  0
   -0.6212    0.4226   -0.4994 C   0  0  1  0  0  0  0  0  0  0  0  0
    0.6223   -0.4248   -0.4982 C   0  0  1  0  0  0  0  0  0  0  0  0
   -1.4780   -0.2335    0.5916 C   0  0  1  0  0  0  0  0  0  0  0  0
    1.4781    0.2325    0.5931 C   0  0  1  0  0  0  0  0  0  0  0  0
    0.1002   -1.7990   -0.1426 C   0  0  0  0  0  0  0  0  0  0  0  0
   -0.0995    1.7971   -0.1446 C   0  0  0  0  0  0  0  0  0  0  0  0
   -2.9577   -0.1667    0.2980 C   0  0  0  0  0  0  0  0  0  0  0  0
    2.9577    0.1664    0.2989 C   0  0  0  0  0  0  0  0  0  0  0  0
   -3.7229    0.8829    0.8062 C   0  0  0  0  0  0  0  0  0  0  0  0
    3.7235   -0.8834    0.8061 C   0  0  0  0  0  0  0  0  0  0  0  0
    3.5585    1.1547   -0.4809 C   0  0  0  0  0  0  0  0  0  0  0  0
   -3.5591   -1.1541   -0.4824 C   0  0  0  0  0  0  0  0  0  0  0  0
   -5.0896    0.9452    0.5341 C   0  0  0  0  0  0  0  0  0  0  0  0
    5.0901   -0.9451    0.5334 C   0  0  0  0  0  0  0  0  0  0  0  0
    4.9252    1.0931   -0.7533 C   0  0  0  0  0  0  0  0  0  0  0  0
   -4.9259   -1.0919   -0.7543 C   0  0  0  0  0  0  0  0  0  0  0  0
    5.6910    0.0432   -0.2463 C   0  0  0  0  0  0  0  0  0  0  0  0
   -5.6911   -0.0421   -0.2461 C   0  0  0  0  0  0  0  0  0  0  0  0
   -7.5616   -1.0397   -1.3239 C   0  0  0  0  0  0  0  0  0  0  0  0
    7.5607    1.0424   -1.3239 C   0  0  0  0  0  0  0  0  0  0  0  0
   -1.1308    0.4175   -1.4696 H   0  0  0  0  0  0  0  0  0  0  0  0
    1.1330   -0.4210   -1.4679 H   0  0  0  0  0  0  0  0  0  0  0  0
   -1.2915    0.2152    1.5758 H   0  0  0  0  0  0  0  0  0  0  0  0
    1.2922   -0.2168    1.5771 H   0  0  0  0  0  0  0  0  0  0  0  0
   -0.8342    2.4261    0.3657 H   0  0  0  0  0  0  0  0  0  0  0  0
    0.2460    2.3255   -1.0398 H   0  0  0  0  0  0  0  0  0  0  0  0
    0.8338   -2.4269    0.3706 H   0  0  0  0  0  0  0  0  0  0  0  0
   -0.2423   -2.3290   -1.0380 H   0  0  0  0  0  0  0  0  0  0  0  0
    3.2535   -1.6541    1.4123 H   0  0  0  0  0  0  0  0  0  0  0  0
   -3.2524    1.6530    1.4128 H   0  0  0  0  0  0  0  0  0  0  0  0
   -2.9812   -1.9752   -0.8975 H   0  0  0  0  0  0  0  0  0  0  0  0
    2.9802    1.9759   -0.8951 H   0  0  0  0  0  0  0  0  0  0  0  0
    5.3233    1.8934   -1.3675 H   0  0  0  0  0  0  0  0  0  0  0  0
   -5.3245   -1.8916   -1.3689 H   0  0  0  0  0  0  0  0  0  0  0  0
   -5.2431    2.5623    1.5481 H   0  0  0  0  0  0  0  0  0  0  0  0
    5.2446   -2.5628    1.5460 H   0  0  0  0  0  0  0  0  0  0  0  0
   -7.1280   -1.0385   -2.3298 H   0  0  0  0  0  0  0  0  0  0  0  0
   -7.4703   -2.0139   -0.8316 H   0  0  0  0  0  0  0  0  0  0  0  0
   -8.6322   -0.8412   -1.4392 H   0  0  0  0  0  0  0  0  0  0  0  0
    7.1269    1.0418   -2.3296 H   0  0  0  0  0  0  0  0  0  0  0  0
    7.4692    2.0162   -0.8307 H   0  0  0  0  0  0  0  0  0  0  0  0
    8.6314    0.8444   -1.4397 H   0  0  0  0  0  0  0  0  0  0  0  0
  1 10  1  0  0  0  0
  1 12  1  0  0  0  0
  2  9  1  0  0  0  0
  2 11  1  0  0  0  0
  3 19  1  0  0  0  0
  3 41  1  0  0  0  0
  4 20  1  0  0  0  0
  4 42  1  0  0  0  0
  5 24  1  0  0  0  0
  5 25  1  0  0  0  0
  6 23  1  0  0  0  0
  6 26  1  0  0  0  0
  7  8  1  0  0  0  0
  7  9  1  0  0  0  0
  7 12  1  0  0  0  0
  7 27  1  0  0  0  0
  8 10  1  0  0  0  0
  8 11  1  0  0  0  0
  8 28  1  0  0  0  0
  9 13  1  0  0  0  0
  9 29  1  0  0  0  0
 10 14  1  0  0  0  0
 10 30  1  0  0  0  0
 11 33  1  0  0  0  0
 11 34  1  0  0  0  0
 12 31  1  0  0  0  0
 12 32  1  0  0  0  0
 13 15  2  0  0  0  0
 13 18  1  0  0  0  0
 14 16  2  0  0  0  0
 14 17  1  0  0  0  0
 15 19  1  0  0  0  0
 15 36  1  0  0  0  0
 16 20  1  0  0  0  0
 16 35  1  0  0  0  0
 17 21  2  0  0  0  0
 17 38  1  0  0  0  0
 18 22  2  0  0  0  0
 18 37  1  0  0  0  0
 19 24  2  0  0  0  0
 20 23  2  0  0  0  0
 21 23  1  0  0  0  0
 21 39  1  0  0  0  0
 22 24  1  0  0  0  0
 22 40  1  0  0  0  0
 25 43  1  0  0  0  0
 25 44  1  0  0  0  0
 25 45  1  0  0  0  0
 26 46  1  0  0  0  0
 26 47  1  0  0  0  0
 26 48  1  0  0  0  0
M  END
> <PUBCHEM_COMPOUND_CID>
46173999

> <PUBCHEM_CONFORMER_RMSD>
0.8

> <PUBCHEM_CONFORMER_DIVERSEORDER>
1
3
8
13
11
18
6
5
16
10
7
12
15
14
2
9
19
17
4

> <PUBCHEM_MMFF94_PARTIAL_CHARGES>
32
1 -0.56
10 0.42
11 0.28
12 0.28
13 -0.14
14 -0.14
15 -0.15
16 -0.15
17 -0.15
18 -0.15
19 0.08
2 -0.56
20 0.08
21 -0.15
22 -0.15
23 0.08
24 0.08
25 0.28
26 0.28
3 -0.53
35 0.15
36 0.15
37 0.15
38 0.15
39 0.15
4 -0.53
40 0.15
41 0.45
42 0.45
5 -0.36
6 -0.36
9 0.42

> <PUBCHEM_EFFECTIVE_ROTOR_COUNT>
5.2

> <PUBCHEM_PHARMACOPHORE_FEATURES>
10
1 1 acceptor
1 2 acceptor
1 3 donor
1 4 donor
1 5 acceptor
1 6 acceptor
5 1 7 8 10 12 rings
5 2 7 8 9 11 rings
6 13 15 18 19 22 24 rings
6 14 16 17 20 21 23 rings

> <PUBCHEM_HEAVY_ATOM_COUNT>
26

> <PUBCHEM_ATOM_DEF_STEREO_COUNT>
4

> <PUBCHEM_ATOM_UDEF_STEREO_COUNT>
0

> <PUBCHEM_BOND_DEF_STEREO_COUNT>
0

> <PUBCHEM_BOND_UDEF_STEREO_COUNT>
0

> <PUBCHEM_ISOTOPIC_ATOM_COUNT>
0

> <PUBCHEM_COMPONENT_COUNT>
1

> <PUBCHEM_CACTVS_TAUTO_COUNT>
5

> <PUBCHEM_CONFORMER_ID>
02C08F2F00000001

> <PUBCHEM_MMFF94_ENERGY>
96.8366

> <PUBCHEM_FEATURE_SELFOVERLAP>
51.224

> <PUBCHEM_SHAPE_FINGERPRINT>
10299344 5 18410855473160912702
10835480 77 18059008368408439492
10906281 52 18339626919501530442
11315181 36 18342172242318457977
11524674 6 16008751299146282695
11719270 70 17676769854949816582
11963148 33 18113626659541564279
12011746 2 18410856542459920386
12166972 35 18113621149509401585
12236239 1 18410574002331320576
12516196 113 18259989266663838448
12788726 201 18188480385079452032
12838862 33 18272381832841409244
13533116 47 18272091638970370258
13862211 1 18408608075751996483
14068700 675 18113056030481717497
14251764 18 18410575084663078953
14856354 85 18333447617483646583
15048467 5 16630528414471860406
15183329 4 18410855464423129099
15276724 80 18202847668780178012
1577012 14 18409727391526799921
17093844 174 14476960078447041973
18681886 176 17967822613341322473
19489759 90 16877939451791957067
20567600 75 16630250302644797403
21033648 29 16702036235653474053
21150785 3 18410575058893275423
21236236 1 18271809076934715637
21267235 1 18187364290978071099
22956985 138 17534330434649275222
23081809 10 18410855481613561017
23402539 116 18260551129948160157
23522609 53 18267279058805582952
23559900 14 18115876204370025496
23569917 315 18408038524482587351
23576562 1 18193837037640507932
29717793 49 18334005100133422044
3004659 81 18411134741231165480
335352 9 18410856529575018926
34797466 226 16443063850725952792
350125 39 18412825815531645520
4017518 198 17676198062444924822
4073 2 17631726068011300162
4340502 62 15411177737836145944
6328613 192 18342171133631800876

> <PUBCHEM_SHAPE_MULTIPOLES>
499.85
20.19
1.7
1.05
0
0
-0.08
-0.01
-5.44
0
0.23
0
0
-2.3

> <PUBCHEM_SHAPE_SELFOVERLAP>
1094.246

> <PUBCHEM_SHAPE_VOLUME>
274.4

> <PUBCHEM_COORDINATE_TYPE>
2
5
10

$$$$

