5477
  -OEChem-06261200422D

 52 55  0     0  0  0  0  0  0999 V2000
    6.2619   -4.3859    0.0000 S   0  0  0  0  0  0  0  0  0  0  0  0
    9.4312    5.3859    0.0000 F   0  0  0  0  0  0  0  0  0  0  0  0
    8.8564    0.8395    0.0000 O   0  0  0  0  0  0  0  0  0  0  0  0
    5.6103   -0.7296    0.0000 N   0  0  0  0  0  0  0  0  0  0  0  0
    4.6783   -3.5812    0.0000 N   0  0  0  0  0  0  0  0  0  0  0  0
    4.6783   -5.1907    0.0000 N   0  0  0  0  0  0  0  0  0  0  0  0
    4.9889   -2.6307    0.0000 C   0  0  0  0  0  0  0  0  0  0  0  0
    5.9674   -2.4245    0.0000 C   0  0  0  0  0  0  0  0  0  0  0  0
    4.3211   -1.8864    0.0000 C   0  0  0  0  0  0  0  0  0  0  0  0
    6.2781   -1.4739    0.0000 C   0  0  0  0  0  0  0  0  0  0  0  0
    4.6318   -0.9359    0.0000 C   0  0  0  0  0  0  0  0  0  0  0  0
    5.9209    0.2209    0.0000 C   0  0  0  0  0  0  0  0  0  0  0  0
    3.7321   -3.8859    0.0000 C   0  0  0  0  0  0  0  0  0  0  0  0
    6.8994    0.4271    0.0000 C   0  0  0  0  0  0  0  0  0  0  0  0
    5.2619   -4.3859    0.0000 C   0  0  0  0  0  0  0  0  0  0  0  0
    3.7321   -4.8859    0.0000 C   0  0  0  0  0  0  0  0  0  0  0  0
    7.2101    1.3776    0.0000 C   0  0  0  0  0  0  0  0  0  0  0  0
    2.8660   -3.3859    0.0000 C   0  0  0  0  0  0  0  0  0  0  0  0
    2.8660   -5.3859    0.0000 C   0  0  0  0  0  0  0  0  0  0  0  0
    8.1886    1.5838    0.0000 C   0  0  0  0  0  0  0  0  0  0  0  0
    2.0000   -3.8859    0.0000 C   0  0  0  0  0  0  0  0  0  0  0  0
    2.0000   -4.8859    0.0000 C   0  0  0  0  0  0  0  0  0  0  0  0
    8.4993    2.5344    0.0000 C   0  0  0  0  0  0  0  0  0  0  0  0
    7.8314    3.2787    0.0000 C   0  0  0  0  0  0  0  0  0  0  0  0
    9.4778    2.7406    0.0000 C   0  0  0  0  0  0  0  0  0  0  0  0
    8.1421    4.2292    0.0000 C   0  0  0  0  0  0  0  0  0  0  0  0
    9.7884    3.6911    0.0000 C   0  0  0  0  0  0  0  0  0  0  0  0
    9.1206    4.4354    0.0000 C   0  0  0  0  0  0  0  0  0  0  0  0
    5.4030   -3.0921    0.0000 H   0  0  0  0  0  0  0  0  0  0  0  0
    5.9880   -3.0441    0.0000 H   0  0  0  0  0  0  0  0  0  0  0  0
    6.5813   -2.5118    0.0000 H   0  0  0  0  0  0  0  0  0  0  0  0
    3.7742   -1.5944    0.0000 H   0  0  0  0  0  0  0  0  0  0  0  0
    3.9385   -2.3743    0.0000 H   0  0  0  0  0  0  0  0  0  0  0  0
    6.8250   -1.7660    0.0000 H   0  0  0  0  0  0  0  0  0  0  0  0
    6.6607   -0.9860    0.0000 H   0  0  0  0  0  0  0  0  0  0  0  0
    4.6112   -0.3162    0.0000 H   0  0  0  0  0  0  0  0  0  0  0  0
    4.0179   -0.8485    0.0000 H   0  0  0  0  0  0  0  0  0  0  0  0
    5.9004    0.8405    0.0000 H   0  0  0  0  0  0  0  0  0  0  0  0
    5.3071    0.3082    0.0000 H   0  0  0  0  0  0  0  0  0  0  0  0
    6.9200   -0.1926    0.0000 H   0  0  0  0  0  0  0  0  0  0  0  0
    7.5132    0.3398    0.0000 H   0  0  0  0  0  0  0  0  0  0  0  0
    7.1895    1.9973    0.0000 H   0  0  0  0  0  0  0  0  0  0  0  0
    6.5963    1.4650    0.0000 H   0  0  0  0  0  0  0  0  0  0  0  0
    2.8660   -2.7659    0.0000 H   0  0  0  0  0  0  0  0  0  0  0  0
    2.8660   -6.0059    0.0000 H   0  0  0  0  0  0  0  0  0  0  0  0
    1.4631   -3.5759    0.0000 H   0  0  0  0  0  0  0  0  0  0  0  0
    6.5719   -4.9229    0.0000 H   0  0  0  0  0  0  0  0  0  0  0  0
    1.4631   -5.1959    0.0000 H   0  0  0  0  0  0  0  0  0  0  0  0
    7.2247    3.1508    0.0000 H   0  0  0  0  0  0  0  0  0  0  0  0
    9.8918    2.2791    0.0000 H   0  0  0  0  0  0  0  0  0  0  0  0
    7.7280    4.6907    0.0000 H   0  0  0  0  0  0  0  0  0  0  0  0
   10.3951    3.8190    0.0000 H   0  0  0  0  0  0  0  0  0  0  0  0
  1 15  1  0  0  0  0
  1 47  1  0  0  0  0
  2 28  1  0  0  0  0
  3 20  2  0  0  0  0
  4 10  1  0  0  0  0
  4 11  1  0  0  0  0
  4 12  1  0  0  0  0
  5  7  1  0  0  0  0
  5 13  1  0  0  0  0
  5 15  1  0  0  0  0
  6 15  2  0  0  0  0
  6 16  1  0  0  0  0
  7  8  1  0  0  0  0
  7  9  1  0  0  0  0
  7 29  1  0  0  0  0
  8 10  1  0  0  0  0
  8 30  1  0  0  0  0
  8 31  1  0  0  0  0
  9 11  1  0  0  0  0
  9 32  1  0  0  0  0
  9 33  1  0  0  0  0
 10 34  1  0  0  0  0
 10 35  1  0  0  0  0
 11 36  1  0  0  0  0
 11 37  1  0  0  0  0
 12 14  1  0  0  0  0
 12 38  1  0  0  0  0
 12 39  1  0  0  0  0
 13 16  1  0  0  0  0
 13 18  2  0  0  0  0
 14 17  1  0  0  0  0
 14 40  1  0  0  0  0
 14 41  1  0  0  0  0
 16 19  2  0  0  0  0
 17 20  1  0  0  0  0
 17 42  1  0  0  0  0
 17 43  1  0  0  0  0
 18 21  1  0  0  0  0
 18 44  1  0  0  0  0
 19 22  1  0  0  0  0
 19 45  1  0  0  0  0
 20 23  1  0  0  0  0
 21 22  2  0  0  0  0
 21 46  1  0  0  0  0
 22 48  1  0  0  0  0
 23 24  2  0  0  0  0
 23 25  1  0  0  0  0
 24 26  1  0  0  0  0
 24 49  1  0  0  0  0
 25 27  2  0  0  0  0
 25 50  1  0  0  0  0
 26 28  2  0  0  0  0
 26 51  1  0  0  0  0
 27 28  1  0  0  0  0
 27 52  1  0  0  0  0
M  END
> <PUBCHEM_COMPOUND_CID>
5477

> <PUBCHEM_COMPOUND_CANONICALIZED>
1

> <PUBCHEM_CACTVS_COMPLEXITY>
520

> <PUBCHEM_CACTVS_HBOND_ACCEPTOR>
5

> <PUBCHEM_CACTVS_HBOND_DONOR>
1

> <PUBCHEM_CACTVS_ROTATABLE_BOND>
6

> <PUBCHEM_CACTVS_SUBSKEYS>
AAADceB7IQBAAAAAAAAAAAAAAAAAAWAAAAA8YIAAAAAAAFgB9AAAHwQAAAAADCzBngwx0LcMEASoA6RyZAGC0C0lEqAJ2CE4dNiIaLLA3ZGUIQhogALIyacciICOAAAAAAAAACAAAAAAAAAAQAAAAAAAAA==

> <PUBCHEM_IUPAC_OPENEYE_NAME>
1-(4-fluorophenyl)-4-[4-(2-sulfanylbenzimidazol-1-yl)-1-piperidyl]butan-1-one

> <PUBCHEM_IUPAC_CAS_NAME>
1-(4-fluorophenyl)-4-[4-(2-mercapto-1-benzimidazolyl)-1-piperidinyl]-1-butanone

> <PUBCHEM_IUPAC_NAME>
1-(4-fluorophenyl)-4-[4-(2-sulfanylbenzimidazol-1-yl)piperidin-1-yl]butan-1-one

> <PUBCHEM_IUPAC_SYSTEMATIC_NAME>
1-(4-fluorophenyl)-4-[4-(2-sulfanylbenzimidazol-1-yl)piperidin-1-yl]butan-1-one

> <PUBCHEM_IUPAC_TRADITIONAL_NAME>
1-(4-fluorophenyl)-4-[4-(2-mercaptobenzimidazol-1-yl)piperidino]butan-1-one

> <PUBCHEM_IUPAC_INCHI>
InChI=1S/C22H24FN3OS/c23-17-9-7-16(8-10-17)21(27)6-3-13-25-14-11-18(12-15-25)26-20-5-2-1-4-19(20)24-22(26)28/h1-2,4-5,7-10,18H,3,6,11-15H2,(H,24,28)

> <PUBCHEM_IUPAC_INCHIKEY>
YDLQKLWVKKFPII-UHFFFAOYSA-N

> <PUBCHEM_XLOGP3_AA>
4.2

> <PUBCHEM_EXACT_MASS>
397.162412

> <PUBCHEM_MOLECULAR_FORMULA>
C22H24FN3OS

> <PUBCHEM_MOLECULAR_WEIGHT>
397.508863

> <PUBCHEM_OPENEYE_CAN_SMILES>
C1CN(CCC1N2C3=CC=CC=C3N=C2S)CCCC(=O)C4=CC=C(C=C4)F

> <PUBCHEM_OPENEYE_ISO_SMILES>
C1CN(CCC1N2C3=CC=CC=C3N=C2S)CCCC(=O)C4=CC=C(C=C4)F

> <PUBCHEM_CACTVS_TPSA>
39.1

> <PUBCHEM_MONOISOTOPIC_WEIGHT>
397.162412

> <PUBCHEM_TOTAL_CHARGE>
0

> <PUBCHEM_HEAVY_ATOM_COUNT>
28

> <PUBCHEM_ATOM_DEF_STEREO_COUNT>
0

> <PUBCHEM_ATOM_UDEF_STEREO_COUNT>
0

> <PUBCHEM_BOND_DEF_STEREO_COUNT>
0

> <PUBCHEM_BOND_UDEF_STEREO_COUNT>
0

> <PUBCHEM_ISOTOPIC_ATOM_COUNT>
0

> <PUBCHEM_COMPONENT_COUNT>
1

> <PUBCHEM_CACTVS_TAUTO_COUNT>
4

> <PUBCHEM_COORDINATE_TYPE>
1
5
255

> <PUBCHEM_BONDANNOTATIONS>
13  16  8
13  18  8
16  19  8
18  21  8
19  22  8
21  22  8
23  24  8
23  25  8
24  26  8
25  27  8
26  28  8
27  28  8
5  13  8
5  15  8
6  15  8
6  16  8

$$$$

