23724567
  -OEChem-07051213082D

 52 52  0     1  0  0  0  0  0999 V2000
    2.0000    0.9962    0.0000 O   0  0  0  0  0  0  0  0  0  0  0  0
    3.2412   -2.5678    0.0000 O   0  0  0  0  0  0  0  0  0  0  0  0
    6.5000    0.1302    0.0000 O   0  0  0  0  0  0  0  0  0  0  0  0
    3.3660    0.6302    0.0000 O   0  0  0  0  0  0  0  0  0  0  0  0
    3.5000    1.8623    0.0000 C   0  0  2  0  0  0  0  0  0  0  0  0
    2.5000    1.8623    0.0000 C   0  0  1  0  0  0  0  0  0  0  0  0
    4.0000    2.7283    0.0000 C   0  0  0  0  0  0  0  0  0  0  0  0
    5.0000    2.7283    0.0000 C   0  0  0  0  0  0  0  0  0  0  0  0
    3.5000   -1.6018    0.0000 C   0  0  1  0  0  0  0  0  0  0  0  0
    4.5000    1.8623    0.0000 C   0  0  0  0  0  0  0  0  0  0  0  0
    2.5000   -1.6018    0.0000 C   0  0  0  0  0  0  0  0  0  0  0  0
    2.0000    2.7283    0.0000 C   0  0  0  0  0  0  0  0  0  0  0  0
    2.0000   -0.7358    0.0000 C   0  0  0  0  0  0  0  0  0  0  0  0
    5.5000    1.8623    0.0000 C   0  0  0  0  0  0  0  0  0  0  0  0
    5.5000    0.1302    0.0000 C   0  0  2  0  0  0  0  0  0  0  0  0
    5.0000    0.9962    0.0000 C   0  0  0  0  0  0  0  0  0  0  0  0
    4.0000   -0.7358    0.0000 C   0  0  0  0  0  0  0  0  0  0  0  0
    2.5000    0.1302    0.0000 C   0  0  0  0  0  0  0  0  0  0  0  0
    4.2071   -2.3090    0.0000 C   0  0  0  0  0  0  0  0  0  0  0  0
    5.0000   -0.7358    0.0000 C   0  0  0  0  0  0  0  0  0  0  0  0
    4.0000    0.9962    0.0000 C   0  0  0  0  0  0  0  0  0  0  0  0
    7.0000   -0.7358    0.0000 C   0  0  0  0  0  0  0  0  0  0  0  0
    3.5000    1.2423    0.0000 H   0  0  0  0  0  0  0  0  0  0  0  0
    1.8800    1.8623    0.0000 H   0  0  0  0  0  0  0  0  0  0  0  0
    4.1077    3.3389    0.0000 H   0  0  0  0  0  0  0  0  0  0  0  0
    3.4174    2.9403    0.0000 H   0  0  0  0  0  0  0  0  0  0  0  0
    5.5826    2.9403    0.0000 H   0  0  0  0  0  0  0  0  0  0  0  0
    4.8923    3.3389    0.0000 H   0  0  0  0  0  0  0  0  0  0  0  0
    4.5000    1.2423    0.0000 H   0  0  0  0  0  0  0  0  0  0  0  0
    5.1200    1.8623    0.0000 H   0  0  0  0  0  0  0  0  0  0  0  0
    4.5000    2.4823    0.0000 H   0  0  0  0  0  0  0  0  0  0  0  0
    1.9174   -1.8139    0.0000 H   0  0  0  0  0  0  0  0  0  0  0  0
    2.6077   -2.2124    0.0000 H   0  0  0  0  0  0  0  0  0  0  0  0
    2.5369    3.0383    0.0000 H   0  0  0  0  0  0  0  0  0  0  0  0
    1.6900    3.2652    0.0000 H   0  0  0  0  0  0  0  0  0  0  0  0
    1.4631    2.4183    0.0000 H   0  0  0  0  0  0  0  0  0  0  0  0
    1.5250   -0.3373    0.0000 H   0  0  0  0  0  0  0  0  0  0  0  0
    1.5250   -1.1343    0.0000 H   0  0  0  0  0  0  0  0  0  0  0  0
    6.1200    1.8623    0.0000 H   0  0  0  0  0  0  0  0  0  0  0  0
    5.8100    0.6671    0.0000 H   0  0  0  0  0  0  0  0  0  0  0  0
    3.6900   -0.1989    0.0000 H   0  0  0  0  0  0  0  0  0  0  0  0
    3.7687   -2.7474    0.0000 H   0  0  0  0  0  0  0  0  0  0  0  0
    4.6455   -2.7474    0.0000 H   0  0  0  0  0  0  0  0  0  0  0  0
    4.6455   -1.8705    0.0000 H   0  0  0  0  0  0  0  0  0  0  0  0
    5.3100   -1.2728    0.0000 H   0  0  0  0  0  0  0  0  0  0  0  0
    4.0000    1.6162    0.0000 H   0  0  0  0  0  0  0  0  0  0  0  0
    3.3800    0.9962    0.0000 H   0  0  0  0  0  0  0  0  0  0  0  0
    4.0000    0.3762    0.0000 H   0  0  0  0  0  0  0  0  0  0  0  0
    2.6424   -2.7283    0.0000 H   0  0  0  0  0  0  0  0  0  0  0  0
    6.4631   -1.0458    0.0000 H   0  0  0  0  0  0  0  0  0  0  0  0
    7.3100   -1.2728    0.0000 H   0  0  0  0  0  0  0  0  0  0  0  0
    7.5369   -0.4258    0.0000 H   0  0  0  0  0  0  0  0  0  0  0  0
  1  6  1  0  0  0  0
  1 18  1  0  0  0  0
  9  2  1  1  0  0  0
  2 49  1  0  0  0  0
 15  3  1  1  0  0  0
  3 22  1  0  0  0  0
  4 18  2  0  0  0  0
  5  6  1  0  0  0  0
  5  7  1  0  0  0  0
  5 10  1  6  0  0  0
  5 23  1  0  0  0  0
  6 12  1  6  0  0  0
  6 24  1  0  0  0  0
  7  8  1  0  0  0  0
  7 25  1  0  0  0  0
  7 26  1  0  0  0  0
  8 14  1  0  0  0  0
  8 27  1  0  0  0  0
  8 28  1  0  0  0  0
  9 11  1  0  0  0  0
  9 17  1  0  0  0  0
  9 19  1  0  0  0  0
 10 29  1  0  0  0  0
 10 30  1  0  0  0  0
 10 31  1  0  0  0  0
 11 13  1  0  0  0  0
 11 32  1  0  0  0  0
 11 33  1  0  0  0  0
 12 34  1  0  0  0  0
 12 35  1  0  0  0  0
 12 36  1  0  0  0  0
 13 18  1  0  0  0  0
 13 37  1  0  0  0  0
 13 38  1  0  0  0  0
 14 16  2  0  0  0  0
 14 39  1  0  0  0  0
 15 16  1  0  0  0  0
 15 20  1  0  0  0  0
 15 40  1  0  0  0  0
 16 21  1  0  0  0  0
 17 20  2  0  0  0  0
 17 41  1  0  0  0  0
 19 42  1  0  0  0  0
 19 43  1  0  0  0  0
 19 44  1  0  0  0  0
 20 45  1  0  0  0  0
 21 46  1  0  0  0  0
 21 47  1  0  0  0  0
 21 48  1  0  0  0  0
 22 50  1  0  0  0  0
 22 51  1  0  0  0  0
 22 52  1  0  0  0  0
M  END
> <PUBCHEM_COMPOUND_CID>
23724567

> <PUBCHEM_COMPOUND_CANONICALIZED>
1

> <PUBCHEM_CACTVS_COMPLEXITY>
427

> <PUBCHEM_CACTVS_HBOND_ACCEPTOR>
4

> <PUBCHEM_CACTVS_HBOND_DONOR>
1

> <PUBCHEM_CACTVS_ROTATABLE_BOND>
1

> <PUBCHEM_CACTVS_SUBSKEYS>
AAADceB4OAAAAAAAAAAAAAAAAAAAAAAAAAAAAAAAAAAAAAAAAAAAGgAACAAADVSggAICCAAABgCIAiDSCAAAAAAgAAAICAEAAAgABBIAIQACUAAEgAAIMAPKAAAOAAAAAAAAAAAAAAAAAAAAAAAAAAAAAA==

> <PUBCHEM_IUPAC_OPENEYE_NAME>
(5S,6E,8S,9E,13S,14R)-5-hydroxy-8-methoxy-5,9,13,14-tetramethyl-1-oxacyclotetradeca-6,9-dien-2-one

> <PUBCHEM_IUPAC_CAS_NAME>
(5S,6E,8S,9E,13S,14R)-5-hydroxy-8-methoxy-5,9,13,14-tetramethyl-1-oxacyclotetradeca-6,9-dien-2-one

> <PUBCHEM_IUPAC_NAME>
(5S,6E,8S,9E,13S,14R)-5-hydroxy-8-methoxy-5,9,13,14-tetramethyl-1-oxacyclotetradeca-6,9-dien-2-one

> <PUBCHEM_IUPAC_SYSTEMATIC_NAME>
(5S,6E,8S,9E,13S,14R)-8-methoxy-5,9,13,14-tetramethyl-5-oxidanyl-1-oxacyclotetradeca-6,9-dien-2-one

> <PUBCHEM_IUPAC_TRADITIONAL_NAME>
(5S,6E,8S,9E,13S,14R)-5-hydroxy-8-methoxy-5,9,13,14-tetramethyl-1-oxacyclotetradeca-6,9-dien-2-one

> <PUBCHEM_IUPAC_INCHI>
InChI=1S/C18H30O4/c1-13-7-6-8-14(2)16(21-5)9-11-18(4,20)12-10-17(19)22-15(13)3/h8-9,11,13,15-16,20H,6-7,10,12H2,1-5H3/b11-9+,14-8+/t13-,15+,16-,18+/m0/s1

> <PUBCHEM_IUPAC_INCHIKEY>
XIHUXEHAQPSMTF-SIMDOIPESA-N

> <PUBCHEM_XLOGP3_AA>
2.6

> <PUBCHEM_EXACT_MASS>
310.214409

> <PUBCHEM_MOLECULAR_FORMULA>
C18H30O4

> <PUBCHEM_MOLECULAR_WEIGHT>
310.4284

> <PUBCHEM_OPENEYE_CAN_SMILES>
CC1CCC=C(C(C=CC(CCC(=O)OC1C)(C)O)OC)C

> <PUBCHEM_OPENEYE_ISO_SMILES>
C[C@H]1CC/C=C(/[C@H](/C=C/[C@@](CCC(=O)O[C@@H]1C)(C)O)OC)\C

> <PUBCHEM_CACTVS_TPSA>
55.8

> <PUBCHEM_MONOISOTOPIC_WEIGHT>
310.214409

> <PUBCHEM_TOTAL_CHARGE>
0

> <PUBCHEM_HEAVY_ATOM_COUNT>
22

> <PUBCHEM_ATOM_DEF_STEREO_COUNT>
4

> <PUBCHEM_ATOM_UDEF_STEREO_COUNT>
0

> <PUBCHEM_BOND_DEF_STEREO_COUNT>
2

> <PUBCHEM_BOND_UDEF_STEREO_COUNT>
0

> <PUBCHEM_ISOTOPIC_ATOM_COUNT>
0

> <PUBCHEM_COMPONENT_COUNT>
1

> <PUBCHEM_CACTVS_TAUTO_COUNT>
2

> <PUBCHEM_COORDINATE_TYPE>
1
5
255

> <PUBCHEM_BONDANNOTATIONS>
9  2  5
15  3  5
5  10  6
6  12  6

$$$$

