5489410
  -OEChem-07051213032D

 61 62  0     1  0  0  0  0  0999 V2000
    5.4107    0.0000    0.0000 Cl  0  0  0  0  0  0  0  0  0  0  0  0
    4.0010    5.9523    0.0000 S   0  0  0  0  0  0  0  0  0  0  0  0
   10.8352    5.4567    0.0000 S   0  0  0  0  0  0  0  0  0  0  0  0
    6.5810    8.1650    0.0000 O   0  0  0  0  0  0  0  0  0  0  0  0
    3.1350    9.4523    0.0000 O   0  0  0  0  0  0  0  0  0  0  0  0
    4.8671    9.4523    0.0000 O   0  0  0  0  0  0  0  0  0  0  0  0
    7.8082    6.9618    0.0000 O   0  0  0  0  0  0  0  0  0  0  0  0
    2.2690   10.9523    0.0000 O   0  0  0  0  0  0  0  0  0  0  0  0
    3.1350   12.4523    0.0000 O   0  0  0  0  0  0  0  0  0  0  0  0
    7.0258    4.0657    0.0000 O   0  0  0  0  0  0  0  0  0  0  0  0
    4.8671    7.4523    0.0000 N   0  0  0  0  0  0  0  0  0  0  0  0
    6.5810    5.7396    0.0000 N   0  0  0  0  0  0  0  0  0  0  0  0
    7.9923    4.3225    0.0000 N   0  0  0  0  0  0  0  0  0  0  0  0
    9.5798    6.4776    0.0000 N   0  0  0  0  0  0  0  0  0  0  0  0
   11.2093    7.1990    0.0000 N   0  0  0  0  0  0  0  0  0  0  0  0
    4.8671    6.4523    0.0000 C   0  0  1  0  0  0  0  0  0  0  0  0
    5.8753    6.4482    0.0000 C   0  0  1  0  0  0  0  0  0  0  0  0
    5.8753    7.4565    0.0000 C   0  0  0  0  0  0  0  0  0  0  0  0
    4.0010    7.9523    0.0000 C   0  0  0  0  0  0  0  0  0  0  0  0
    3.1350    7.4523    0.0000 C   0  0  0  0  0  0  0  0  0  0  0  0
    3.1350    6.4523    0.0000 C   0  0  0  0  0  0  0  0  0  0  0  0
    4.0010    8.9523    0.0000 C   0  0  0  0  0  0  0  0  0  0  0  0
    2.2690    7.9523    0.0000 C   0  0  0  0  0  0  0  0  0  0  0  0
    7.5474    5.9964    0.0000 C   0  0  0  0  0  0  0  0  0  0  0  0
    8.2531    5.2879    0.0000 C   0  0  0  0  0  0  0  0  0  0  0  0
    1.4030   12.4523    0.0000 C   0  0  0  0  0  0  0  0  0  0  0  0
    3.1350   10.4523    0.0000 C   0  0  0  0  0  0  0  0  0  0  0  0
    9.2196    5.5447    0.0000 C   0  0  0  0  0  0  0  0  0  0  0  0
    2.2690   11.9523    0.0000 C   0  0  0  0  0  0  0  0  0  0  0  0
    0.5369   12.9523    0.0000 C   0  0  0  0  0  0  0  0  0  0  0  0
    1.9030   13.3183    0.0000 C   0  0  0  0  0  0  0  0  0  0  0  0
    0.9030   11.5863    0.0000 C   0  0  0  0  0  0  0  0  0  0  0  0
    9.9954    4.9138    0.0000 C   0  0  0  0  0  0  0  0  0  0  0  0
   10.5784    6.4232    0.0000 C   0  0  0  0  0  0  0  0  0  0  0  0
    6.7650    3.1003    0.0000 C   0  0  0  0  0  0  0  0  0  0  0  0
    5.0854    5.6308    0.0000 H   0  0  0  0  0  0  0  0  0  0  0  0
    6.4484    6.6848    0.0000 H   0  0  0  0  0  0  0  0  0  0  0  0
    2.5244    6.5600    0.0000 H   0  0  0  0  0  0  0  0  0  0  0  0
    2.9230    5.8697    0.0000 H   0  0  0  0  0  0  0  0  0  0  0  0
    6.4193    5.1411    0.0000 H   0  0  0  0  0  0  0  0  0  0  0  0
    2.5790    8.4892    0.0000 H   0  0  0  0  0  0  0  0  0  0  0  0
    1.7320    8.2623    0.0000 H   0  0  0  0  0  0  0  0  0  0  0  0
    1.9590    7.4154    0.0000 H   0  0  0  0  0  0  0  0  0  0  0  0
    3.7456   10.3447    0.0000 H   0  0  0  0  0  0  0  0  0  0  0  0
    3.3471   11.0349    0.0000 H   0  0  0  0  0  0  0  0  0  0  0  0
    0.3660   11.8963    0.0000 H   0  0  0  0  0  0  0  0  0  0  0  0
    0.5930   11.0494    0.0000 H   0  0  0  0  0  0  0  0  0  0  0  0
    1.4399   11.2763    0.0000 H   0  0  0  0  0  0  0  0  0  0  0  0
    2.4399   13.0083    0.0000 H   0  0  0  0  0  0  0  0  0  0  0  0
    2.2130   13.8553    0.0000 H   0  0  0  0  0  0  0  0  0  0  0  0
    1.3660   13.6283    0.0000 H   0  0  0  0  0  0  0  0  0  0  0  0
    0.8469   13.4893    0.0000 H   0  0  0  0  0  0  0  0  0  0  0  0
    0.0000   13.2623    0.0000 H   0  0  0  0  0  0  0  0  0  0  0  0
    0.2269   12.4154    0.0000 H   0  0  0  0  0  0  0  0  0  0  0  0
    9.9617    4.2947    0.0000 H   0  0  0  0  0  0  0  0  0  0  0  0
    6.1665    3.2620    0.0000 H   0  0  0  0  0  0  0  0  0  0  0  0
    6.6033    2.5017    0.0000 H   0  0  0  0  0  0  0  0  0  0  0  0
    7.3636    2.9386    0.0000 H   0  0  0  0  0  0  0  0  0  0  0  0
   11.8214    7.1008    0.0000 H   0  0  0  0  0  0  0  0  0  0  0  0
   10.9883    7.7783    0.0000 H   0  0  0  0  0  0  0  0  0  0  0  0
    6.4107    0.0000    0.0000 H   0  0  0  0  0  0  0  0  0  0  0  0
  1 61  1  0  0  0  0
  2 16  1  0  0  0  0
  2 21  1  0  0  0  0
  3 33  1  0  0  0  0
  3 34  1  0  0  0  0
  4 18  2  0  0  0  0
  5 22  1  0  0  0  0
  5 27  1  0  0  0  0
  6 22  2  0  0  0  0
  7 24  2  0  0  0  0
  8 27  1  0  0  0  0
  8 29  1  0  0  0  0
  9 29  2  0  0  0  0
 10 13  1  0  0  0  0
 10 35  1  0  0  0  0
 11 16  1  0  0  0  0
 11 18  1  0  0  0  0
 11 19  1  0  0  0  0
 17 12  1  1  0  0  0
 12 24  1  0  0  0  0
 12 40  1  0  0  0  0
 13 25  2  0  0  0  0
 14 28  1  0  0  0  0
 14 34  2  0  0  0  0
 15 34  1  0  0  0  0
 15 59  1  0  0  0  0
 15 60  1  0  0  0  0
 16 17  1  0  0  0  0
 16 36  1  6  0  0  0
 17 18  1  0  0  0  0
 17 37  1  0  0  0  0
 19 20  2  0  0  0  0
 19 22  1  0  0  0  0
 20 21  1  0  0  0  0
 20 23  1  0  0  0  0
 21 38  1  0  0  0  0
 21 39  1  0  0  0  0
 23 41  1  0  0  0  0
 23 42  1  0  0  0  0
 23 43  1  0  0  0  0
 24 25  1  0  0  0  0
 25 28  1  0  0  0  0
 26 29  1  0  0  0  0
 26 30  1  0  0  0  0
 26 31  1  0  0  0  0
 26 32  1  0  0  0  0
 27 44  1  0  0  0  0
 27 45  1  0  0  0  0
 28 33  2  0  0  0  0
 30 52  1  0  0  0  0
 30 53  1  0  0  0  0
 30 54  1  0  0  0  0
 31 49  1  0  0  0  0
 31 50  1  0  0  0  0
 31 51  1  0  0  0  0
 32 46  1  0  0  0  0
 32 47  1  0  0  0  0
 32 48  1  0  0  0  0
 33 55  1  0  0  0  0
 35 56  1  0  0  0  0
 35 57  1  0  0  0  0
 35 58  1  0  0  0  0
M  END
> <PUBCHEM_COMPOUND_CID>
5489410

> <PUBCHEM_COMPOUND_CANONICALIZED>
1

> <PUBCHEM_CACTVS_COMPLEXITY>
933

> <PUBCHEM_CACTVS_HBOND_ACCEPTOR>
12

> <PUBCHEM_CACTVS_HBOND_DONOR>
3

> <PUBCHEM_CACTVS_ROTATABLE_BOND>
10

> <PUBCHEM_CACTVS_SUBSKEYS>
AAADceB7uABkAAAAAAAAAAAAAABYAWAAAAAgAAAAAAAQAAABgAAAHgQUAAAADijF1gejmRPYFAisAwXyfAAA8KlhCjkACJW4IFiSZJgg5CE1EAAAFgK0ISAAAAAAAAAAAAAAAAAAAAAAAAAAAAAAAAAAAA==

> <PUBCHEM_IUPAC_OPENEYE_NAME>
2,2-dimethylpropanoyloxymethyl (6R,7R)-7-[[(2Z)-2-(2-aminothiazol-4-yl)-2-methoxyimino-acetyl]amino]-3-methyl-8-oxo-5-thia-1-azabicyclo[4.2.0]oct-2-ene-2-carboxylate hydrochloride

> <PUBCHEM_IUPAC_CAS_NAME>
(6R,7R)-7-[[(2Z)-2-(2-amino-4-thiazolyl)-2-methoxyimino-1-oxoethyl]amino]-3-methyl-8-oxo-5-thia-1-azabicyclo[4.2.0]oct-2-ene-2-carboxylic acid (2,2-dimethyl-1-oxopropoxy)methyl ester hydrochloride

> <PUBCHEM_IUPAC_NAME>
2,2-dimethylpropanoyloxymethyl (6R,7R)-7-[[(2Z)-2-(2-amino-1,3-thiazol-4-yl)-2-methoxyiminoacetyl]amino]-3-methyl-8-oxo-5-thia-1-azabicyclo[4.2.0]oct-2-ene-2-carboxylate hydrochloride

> <PUBCHEM_IUPAC_SYSTEMATIC_NAME>
2,2-dimethylpropanoyloxymethyl (6R,7R)-7-[[(2Z)-2-(2-azanyl-1,3-thiazol-4-yl)-2-methoxyimino-ethanoyl]amino]-3-methyl-8-oxidanylidene-5-thia-1-azabicyclo[4.2.0]oct-2-ene-2-carboxylate hydrochloride

> <PUBCHEM_IUPAC_TRADITIONAL_NAME>
(6R,7R)-7-[[(2Z)-2-(2-aminothiazol-4-yl)-2-methyloximino-acetyl]amino]-8-keto-3-methyl-5-thia-1-azabicyclo[4.2.0]oct-2-ene-2-carboxylic acid pivaloyloxymethyl ester hydrochloride

> <PUBCHEM_IUPAC_INCHI>
InChI=1S/C20H25N5O7S2.ClH/c1-9-6-33-16-12(23-14(26)11(24-30-5)10-7-34-19(21)22-10)15(27)25(16)13(9)17(28)31-8-32-18(29)20(2,3)4;/h7,12,16H,6,8H2,1-5H3,(H2,21,22)(H,23,26);1H/b24-11-;/t12-,16-;/m1./s1

> <PUBCHEM_IUPAC_INCHIKEY>
XAAOHMIKXULDKJ-IZXJIOGHSA-N

> <PUBCHEM_EXACT_MASS>
547.096218

> <PUBCHEM_MOLECULAR_FORMULA>
C20H26ClN5O7S2

> <PUBCHEM_MOLECULAR_WEIGHT>
548.03274

> <PUBCHEM_OPENEYE_CAN_SMILES>
CC1=C(N2C(C(C2=O)NC(=O)C(=NOC)C3=CSC(=N3)N)SC1)C(=O)OCOC(=O)C(C)(C)C.Cl

> <PUBCHEM_OPENEYE_ISO_SMILES>
CC1=C(N2[C@@H]([C@@H](C2=O)NC(=O)/C(=N\OC)/C3=CSC(=N3)N)SC1)C(=O)OCOC(=O)C(C)(C)C.Cl

> <PUBCHEM_CACTVS_TPSA>
216

> <PUBCHEM_MONOISOTOPIC_WEIGHT>
547.096218

> <PUBCHEM_TOTAL_CHARGE>
0

> <PUBCHEM_HEAVY_ATOM_COUNT>
35

> <PUBCHEM_ATOM_DEF_STEREO_COUNT>
2

> <PUBCHEM_ATOM_UDEF_STEREO_COUNT>
0

> <PUBCHEM_BOND_DEF_STEREO_COUNT>
1

> <PUBCHEM_BOND_UDEF_STEREO_COUNT>
0

> <PUBCHEM_ISOTOPIC_ATOM_COUNT>
0

> <PUBCHEM_COMPONENT_COUNT>
2

> <PUBCHEM_CACTVS_TAUTO_COUNT>
14

> <PUBCHEM_COORDINATE_TYPE>
1
5
255

> <PUBCHEM_BONDANNOTATIONS>
17  12  5
14  28  8
14  34  8
16  36  6
28  33  8
3  33  8
3  34  8

$$$$

