6092
  -OEChem-06261201063D

 30 31  0     0  0  0  0  0  0999 V2000
    1.8946   -1.9544    0.3378 N   0  0  0  0  0  0  0  0  0  0  0  0
   -3.5376    0.1149   -0.3184 N   0  0  0  0  0  0  0  0  0  0  0  0
    0.1393   -0.8364   -0.4342 C   0  0  0  0  0  0  0  0  0  0  0  0
   -1.2161   -0.5244   -0.9316 C   0  0  0  0  0  0  0  0  0  0  0  0
    1.2077    0.0852   -0.2499 C   0  0  0  0  0  0  0  0  0  0  0  0
   -2.2002   -0.1606    0.1952 C   0  0  0  0  0  0  0  0  0  0  0  0
    2.2969   -0.6418    0.2352 C   0  0  0  0  0  0  0  0  0  0  0  0
    0.5922   -2.0819   -0.0646 C   0  0  0  0  0  0  0  0  0  0  0  0
    1.3530    1.4724   -0.4495 C   0  0  0  0  0  0  0  0  0  0  0  0
    3.5293   -0.0486    0.5316 C   0  0  0  0  0  0  0  0  0  0  0  0
   -4.4514    0.4459    0.7656 C   0  0  0  0  0  0  0  0  0  0  0  0
    2.5798    2.0795   -0.1573 C   0  0  0  0  0  0  0  0  0  0  0  0
    3.6499    1.3287    0.3257 C   0  0  0  0  0  0  0  0  0  0  0  0
   -5.8373    0.7214    0.2145 C   0  0  0  0  0  0  0  0  0  0  0  0
   -1.1664    0.3000   -1.6547 H   0  0  0  0  0  0  0  0  0  0  0  0
   -1.6071   -1.3877   -1.4868 H   0  0  0  0  0  0  0  0  0  0  0  0
   -1.8179    0.7143    0.7369 H   0  0  0  0  0  0  0  0  0  0  0  0
   -2.2429   -0.9922    0.9104 H   0  0  0  0  0  0  0  0  0  0  0  0
    0.1062   -3.0476   -0.0504 H   0  0  0  0  0  0  0  0  0  0  0  0
    2.4770   -2.7134    0.6632 H   0  0  0  0  0  0  0  0  0  0  0  0
   -3.4975    0.8842   -0.9864 H   0  0  0  0  0  0  0  0  0  0  0  0
    0.5288    2.0729   -0.8239 H   0  0  0  0  0  0  0  0  0  0  0  0
    4.3628   -0.6322    0.9076 H   0  0  0  0  0  0  0  0  0  0  0  0
   -4.5150   -0.3852    1.4775 H   0  0  0  0  0  0  0  0  0  0  0  0
   -4.1011    1.3309    1.3095 H   0  0  0  0  0  0  0  0  0  0  0  0
    2.6976    3.1492   -0.3090 H   0  0  0  0  0  0  0  0  0  0  0  0
    4.5939    1.8207    0.5462 H   0  0  0  0  0  0  0  0  0  0  0  0
   -5.8288    1.5695   -0.4787 H   0  0  0  0  0  0  0  0  0  0  0  0
   -6.2341   -0.1507   -0.3162 H   0  0  0  0  0  0  0  0  0  0  0  0
   -6.5274    0.9614    1.0298 H   0  0  0  0  0  0  0  0  0  0  0  0
  1  7  1  0  0  0  0
  1  8  1  0  0  0  0
  1 20  1  0  0  0  0
  2  6  1  0  0  0  0
  2 11  1  0  0  0  0
  2 21  1  0  0  0  0
  3  4  1  0  0  0  0
  3  5  1  0  0  0  0
  3  8  2  0  0  0  0
  4  6  1  0  0  0  0
  4 15  1  0  0  0  0
  4 16  1  0  0  0  0
  5  7  1  0  0  0  0
  5  9  2  0  0  0  0
  6 17  1  0  0  0  0
  6 18  1  0  0  0  0
  7 10  2  0  0  0  0
  8 19  1  0  0  0  0
  9 12  1  0  0  0  0
  9 22  1  0  0  0  0
 10 13  1  0  0  0  0
 10 23  1  0  0  0  0
 11 14  1  0  0  0  0
 11 24  1  0  0  0  0
 11 25  1  0  0  0  0
 12 13  2  0  0  0  0
 12 26  1  0  0  0  0
 13 27  1  0  0  0  0
 14 28  1  0  0  0  0
 14 29  1  0  0  0  0
 14 30  1  0  0  0  0
M  END
> <PUBCHEM_COMPOUND_CID>
6092

> <PUBCHEM_CONFORMER_RMSD>
0.6

> <PUBCHEM_CONFORMER_DIVERSEORDER>
1
26
21
31
8
29
5
3
22
30
23
10
18
25
17
13
12
20
28
15
24
9
14
7
6
2
4
16
19
27
11

> <PUBCHEM_MMFF94_PARTIAL_CHARGES>
19
1 0.03
10 -0.15
11 0.27
12 -0.15
13 -0.15
19 0.15
2 -0.9
20 0.27
21 0.36
22 0.15
23 0.15
26 0.15
27 0.15
3 -0.18
4 0.18
6 0.27
7 -0.15
8 -0.3
9 -0.15

> <PUBCHEM_EFFECTIVE_ROTOR_COUNT>
4

> <PUBCHEM_PHARMACOPHORE_FEATURES>
6
1 1 cation
1 1 donor
1 2 cation
1 2 donor
5 1 3 5 7 8 rings
6 5 7 9 10 12 13 rings

> <PUBCHEM_HEAVY_ATOM_COUNT>
14

> <PUBCHEM_ATOM_DEF_STEREO_COUNT>
0

> <PUBCHEM_ATOM_UDEF_STEREO_COUNT>
0

> <PUBCHEM_BOND_DEF_STEREO_COUNT>
0

> <PUBCHEM_BOND_UDEF_STEREO_COUNT>
0

> <PUBCHEM_ISOTOPIC_ATOM_COUNT>
0

> <PUBCHEM_COMPONENT_COUNT>
1

> <PUBCHEM_CACTVS_TAUTO_COUNT>
1

> <PUBCHEM_CONFORMER_ID>
000017CC00000001

> <PUBCHEM_MMFF94_ENERGY>
10.4182

> <PUBCHEM_FEATURE_SELFOVERLAP>
30.538

> <PUBCHEM_SHAPE_FINGERPRINT>
10354089 29 18410289216298905889
10465860 228 18335698360054809974
10498660 4 15358247316794499275
10980938 120 18411141337467489022
11471102 20 18411421725796348748
12251169 10 18343584040564775399
12346645 6 18335701667174463798
13167372 99 18189894409036687313
15342168 16 18199182901950883421
15775835 57 18187365389577238217
15906896 17 17899983724918227974
16945 1 18198925672655031702
18186145 218 18409172090867772494
19784866 9 18408887338672798473
20157964 124 18338239371109934853
20233049 118 17312823787940967177
20645477 70 18337674221674620895
212847 35 18113338604558001384
21524375 3 18262803956026894823
21637258 2 14620532137606106496
23402539 116 16298394551760489164
23402655 69 18187368688059250941
23557571 272 15069485725817872927
276578 36 18409166584788257438
2838139 119 15720824306921549792
293599 30 18340764828733194172
449060 62 18335137592161104833
474 4 18410854326489125257
633830 44 18335138635795862964
7364860 26 18261107530039726990
76465 3 8357722663053387756
8272917 22 18335979869750163143
9999458 23 18202843245306247294

> <PUBCHEM_SHAPE_MULTIPOLES>
278.15
9.02
1.91
0.8
15.53
0.2
-0.03
-4.19
2.1
-1.75
-0.03
0.13
0
-0.35

> <PUBCHEM_SHAPE_SELFOVERLAP>
583.697

> <PUBCHEM_SHAPE_VOLUME>
159

> <PUBCHEM_COORDINATE_TYPE>
2
5
10

$$$$

