440419
  -OEChem-07051212493D

 67 70  0     1  0  0  0  0  0999 V2000
    0.9111   -0.9668    1.3819 O   0  0  0  0  0  0  0  0  0  0  0  0
   -2.5898    2.8452    0.7509 O   0  0  0  0  0  0  0  0  0  0  0  0
   -5.0923   -2.0017    2.4254 O   0  0  0  0  0  0  0  0  0  0  0  0
    6.8797   -2.4423   -0.4354 O   0  0  0  0  0  0  0  0  0  0  0  0
    4.7636   -2.9565    0.2082 O   0  0  0  0  0  0  0  0  0  0  0  0
    1.1509    0.8335   -0.2816 C   0  0  1  0  0  0  0  0  0  0  0  0
   -0.0997    1.6177    0.1899 C   0  0  2  0  0  0  0  0  0  0  0  0
   -1.6189   -0.3288   -0.3584 C   0  0  1  0  0  0  0  0  0  0  0  0
   -1.3693    1.1999   -0.5587 C   0  0  1  0  0  0  0  0  0  0  0  0
   -2.9275   -0.8159   -1.1003 C   0  0  2  0  0  0  0  0  0  0  0  0
    2.2216    1.5368    0.5914 C   0  0  2  0  0  0  0  0  0  0  0  0
    0.9392   -0.6697   -0.0134 C   0  0  2  0  0  0  0  0  0  0  0  0
   -0.3580   -1.1825   -0.6725 C   0  0  0  0  0  0  0  0  0  0  0  0
    0.3561    3.0769    0.1116 C   0  0  0  0  0  0  0  0  0  0  0  0
   -4.1514    0.0383   -0.6169 C   0  0  2  0  0  0  0  0  0  0  0  0
    1.8475    3.0326    0.4924 C   0  0  0  0  0  0  0  0  0  0  0  0
   -2.6138    1.9434   -0.0838 C   0  0  0  0  0  0  0  0  0  0  0  0
   -3.2404   -2.3161   -0.8276 C   0  0  0  0  0  0  0  0  0  0  0  0
   -3.9086    1.5457   -0.7550 C   0  0  0  0  0  0  0  0  0  0  0  0
    1.4630    1.0239   -1.7931 C   0  0  0  0  0  0  0  0  0  0  0  0
    3.6749    1.2640    0.2316 C   0  0  2  0  0  0  0  0  0  0  0  0
   -4.5735   -0.2904    0.8316 C   0  0  0  0  0  0  0  0  0  0  0  0
   -2.7829   -0.6781   -2.6378 C   0  0  0  0  0  0  0  0  0  0  0  0
   -3.6233   -2.6143    0.6166 C   0  0  0  0  0  0  0  0  0  0  0  0
   -4.8232   -1.7792    1.0451 C   0  0  1  0  0  0  0  0  0  0  0  0
    3.9666   -0.2486    0.3102 C   0  0  0  0  0  0  0  0  0  0  0  0
    4.6019    2.0778    1.1407 C   0  0  0  0  0  0  0  0  0  0  0  0
    5.3902   -0.6241   -0.1062 C   0  0  0  0  0  0  0  0  0  0  0  0
    5.6064   -2.1206   -0.0867 C   0  0  0  0  0  0  0  0  0  0  0  0
   -0.2761    1.4199    1.2587 H   0  0  0  0  0  0  0  0  0  0  0  0
   -1.7983   -0.4655    0.7164 H   0  0  0  0  0  0  0  0  0  0  0  0
   -1.2554    1.4487   -1.6179 H   0  0  0  0  0  0  0  0  0  0  0  0
    2.0717    1.2436    1.6413 H   0  0  0  0  0  0  0  0  0  0  0  0
    1.6986   -1.3134   -0.4455 H   0  0  0  0  0  0  0  0  0  0  0  0
   -0.5270   -2.2065   -0.3203 H   0  0  0  0  0  0  0  0  0  0  0  0
   -0.2080   -1.2384   -1.7550 H   0  0  0  0  0  0  0  0  0  0  0  0
   -0.1976    3.7231    0.7993 H   0  0  0  0  0  0  0  0  0  0  0  0
    0.2284    3.4848   -0.8973 H   0  0  0  0  0  0  0  0  0  0  0  0
   -5.0130   -0.2083   -1.2543 H   0  0  0  0  0  0  0  0  0  0  0  0
    2.4335    3.5619   -0.2676 H   0  0  0  0  0  0  0  0  0  0  0  0
    2.0149    3.5376    1.4504 H   0  0  0  0  0  0  0  0  0  0  0  0
   -2.4008   -2.9546   -1.1224 H   0  0  0  0  0  0  0  0  0  0  0  0
   -4.0788   -2.6282   -1.4666 H   0  0  0  0  0  0  0  0  0  0  0  0
   -4.7321    2.1127   -0.3057 H   0  0  0  0  0  0  0  0  0  0  0  0
   -3.8518    1.8470   -1.8062 H   0  0  0  0  0  0  0  0  0  0  0  0
    1.7032    2.0606   -2.0478 H   0  0  0  0  0  0  0  0  0  0  0  0
    2.3168    0.4126   -2.1040 H   0  0  0  0  0  0  0  0  0  0  0  0
    0.6276    0.7307   -2.4346 H   0  0  0  0  0  0  0  0  0  0  0  0
    3.8744    1.5992   -0.7940 H   0  0  0  0  0  0  0  0  0  0  0  0
   -3.8263    0.0614    1.5540 H   0  0  0  0  0  0  0  0  0  0  0  0
   -5.4887    0.2622    1.0827 H   0  0  0  0  0  0  0  0  0  0  0  0
   -2.5299    0.3362   -2.9547 H   0  0  0  0  0  0  0  0  0  0  0  0
   -2.0127   -1.3491   -3.0315 H   0  0  0  0  0  0  0  0  0  0  0  0
   -3.7206   -0.9429   -3.1411 H   0  0  0  0  0  0  0  0  0  0  0  0
   -3.8656   -3.6788    0.7242 H   0  0  0  0  0  0  0  0  0  0  0  0
   -2.7766   -2.4416    1.2914 H   0  0  0  0  0  0  0  0  0  0  0  0
   -5.7080   -2.0938    0.4788 H   0  0  0  0  0  0  0  0  0  0  0  0
    0.1088   -0.5837    1.7705 H   0  0  0  0  0  0  0  0  0  0  0  0
    3.7305   -0.6529    1.3006 H   0  0  0  0  0  0  0  0  0  0  0  0
    3.3813   -0.7631   -0.4376 H   0  0  0  0  0  0  0  0  0  0  0  0
    4.4983    1.7700    2.1869 H   0  0  0  0  0  0  0  0  0  0  0  0
    5.6505    1.9524    0.8546 H   0  0  0  0  0  0  0  0  0  0  0  0
    4.3986    3.1511    1.0813 H   0  0  0  0  0  0  0  0  0  0  0  0
    5.5962   -0.2592   -1.1184 H   0  0  0  0  0  0  0  0  0  0  0  0
    6.1156   -0.1894    0.5885 H   0  0  0  0  0  0  0  0  0  0  0  0
   -5.8728   -1.4720    2.6619 H   0  0  0  0  0  0  0  0  0  0  0  0
    7.0285   -3.4119   -0.4215 H   0  0  0  0  0  0  0  0  0  0  0  0
  1 12  1  0  0  0  0
  1 58  1  0  0  0  0
  2 17  2  0  0  0  0
  3 25  1  0  0  0  0
  3 66  1  0  0  0  0
  4 29  1  0  0  0  0
  4 67  1  0  0  0  0
  5 29  2  0  0  0  0
  6  7  1  0  0  0  0
  6 11  1  0  0  0  0
  6 12  1  0  0  0  0
  6 20  1  0  0  0  0
  7  9  1  0  0  0  0
  7 14  1  0  0  0  0
  7 30  1  0  0  0  0
  8  9  1  0  0  0  0
  8 10  1  0  0  0  0
  8 13  1  0  0  0  0
  8 31  1  0  0  0  0
  9 17  1  0  0  0  0
  9 32  1  0  0  0  0
 10 15  1  0  0  0  0
 10 18  1  0  0  0  0
 10 23  1  0  0  0  0
 11 16  1  0  0  0  0
 11 21  1  0  0  0  0
 11 33  1  0  0  0  0
 12 13  1  0  0  0  0
 12 34  1  0  0  0  0
 13 35  1  0  0  0  0
 13 36  1  0  0  0  0
 14 16  1  0  0  0  0
 14 37  1  0  0  0  0
 14 38  1  0  0  0  0
 15 19  1  0  0  0  0
 15 22  1  0  0  0  0
 15 39  1  0  0  0  0
 16 40  1  0  0  0  0
 16 41  1  0  0  0  0
 17 19  1  0  0  0  0
 18 24  1  0  0  0  0
 18 42  1  0  0  0  0
 18 43  1  0  0  0  0
 19 44  1  0  0  0  0
 19 45  1  0  0  0  0
 20 46  1  0  0  0  0
 20 47  1  0  0  0  0
 20 48  1  0  0  0  0
 21 26  1  0  0  0  0
 21 27  1  0  0  0  0
 21 49  1  0  0  0  0
 22 25  1  0  0  0  0
 22 50  1  0  0  0  0
 22 51  1  0  0  0  0
 23 52  1  0  0  0  0
 23 53  1  0  0  0  0
 23 54  1  0  0  0  0
 24 25  1  0  0  0  0
 24 55  1  0  0  0  0
 24 56  1  0  0  0  0
 25 57  1  0  0  0  0
 26 28  1  0  0  0  0
 26 59  1  0  0  0  0
 26 60  1  0  0  0  0
 27 61  1  0  0  0  0
 27 62  1  0  0  0  0
 27 63  1  0  0  0  0
 28 29  1  0  0  0  0
 28 64  1  0  0  0  0
 28 65  1  0  0  0  0
M  END
> <PUBCHEM_COMPOUND_CID>
440419

> <PUBCHEM_CONFORMER_RMSD>
0.8

> <PUBCHEM_CONFORMER_DIVERSEORDER>
1
5
3
4
2

> <PUBCHEM_MMFF94_PARTIAL_CHARGES>
15
1 -0.68
12 0.28
17 0.45
19 0.06
2 -0.57
25 0.28
28 0.06
29 0.66
3 -0.68
4 -0.65
5 -0.57
58 0.4
66 0.4
67 0.5
9 0.06

> <PUBCHEM_EFFECTIVE_ROTOR_COUNT>
6

> <PUBCHEM_PHARMACOPHORE_FEATURES>
13
1 1 acceptor
1 1 donor
1 2 acceptor
1 27 hydrophobe
1 3 acceptor
1 3 donor
1 4 acceptor
1 5 acceptor
3 4 5 29 anion
5 6 7 11 14 16 rings
6 10 15 18 22 24 25 rings
6 6 7 8 9 12 13 rings
6 8 9 10 15 17 19 rings

> <PUBCHEM_HEAVY_ATOM_COUNT>
29

> <PUBCHEM_ATOM_DEF_STEREO_COUNT>
10

> <PUBCHEM_ATOM_UDEF_STEREO_COUNT>
0

> <PUBCHEM_BOND_DEF_STEREO_COUNT>
0

> <PUBCHEM_BOND_UDEF_STEREO_COUNT>
0

> <PUBCHEM_ISOTOPIC_ATOM_COUNT>
0

> <PUBCHEM_COMPONENT_COUNT>
1

> <PUBCHEM_CACTVS_TAUTO_COUNT>
3

> <PUBCHEM_CONFORMER_ID>
0006B86300000001

> <PUBCHEM_MMFF94_ENERGY>
101.0174

> <PUBCHEM_FEATURE_SELFOVERLAP>
66.154

> <PUBCHEM_SHAPE_FINGERPRINT>
10622 236 17244174572570188830
11135609 12 18272643537360781713
11578080 2 6483083881646848650
11796584 16 17917445219222990832
12107183 9 18188482596633915153
12422481 6 17821999939020210103
12633257 1 16588022377168323321
13009979 54 18201428177566957701
13140716 1 18335418031892688552
13224815 77 18127134070073409405
13383661 66 17129839674328637171
14341114 176 18411135809992505961
14420673 8 18265049309506365678
14790565 3 17325767479806174744
14866123 147 18046908461629231912
14955137 171 18409725166586177344
15042514 8 18337106886195697208
15064986 96 18042104562737880267
15081414 286 18337957775479007608
15196674 1 18408329878025541980
15209289 33 18271529680547576705
17349148 13 17418377956469279552
17492 89 18264214625356319830
17844677 252 18408040706424927022
18927931 339 18334574676319652055
19591789 44 18410016541710269070
21267235 1 18409165545147689596
21279426 13 18341058496573094212
21682296 61 18335136518150547982
221490 88 18339645542585233864
22393880 68 18059586822602669808
23559900 14 18335714849078201384
3004659 81 18271527606954046494
335352 9 18335708307452749893
4058900 60 17550676951339329117
4073 2 18411986845410134584
460360 51 18189881171108236524
5104073 3 18333454261703212096
5486654 36 18411695525698364505
56633871 153 18334573495673331895
7970288 3 18266460901921644679
8863177 126 18341325605016516842
9709674 26 18338524027903031132

> <PUBCHEM_SHAPE_MULTIPOLES>
567.46
12.43
3.57
1.48
10.9
0.26
-0.23
-9.56
2.44
1.86
0.67
-1.8
-0.45
1.42

> <PUBCHEM_SHAPE_SELFOVERLAP>
1195.027

> <PUBCHEM_SHAPE_VOLUME>
315.9

> <PUBCHEM_COORDINATE_TYPE>
2
5
10

$$$$

