80103
  -OEChem-07051212592D

 29 31  0     0  0  0  0  0  0999 V2000
    8.1962    0.8488    0.0000 O   0  0  0  0  0  0  0  0  0  0  0  0
    6.4144    1.8592    0.0000 O   0  0  0  0  0  0  0  0  0  0  0  0
    4.6660    1.8246    0.0000 O   0  0  0  0  0  0  0  0  0  0  0  0
    4.6660   -2.1754    0.0000 O   0  0  0  0  0  0  0  0  0  0  0  0
    5.5321    0.3246    0.0000 C   0  0  0  0  0  0  0  0  0  0  0  0
    5.5321   -0.6754    0.0000 C   0  0  0  0  0  0  0  0  0  0  0  0
    3.8000    0.3246    0.0000 C   0  0  0  0  0  0  0  0  0  0  0  0
    3.8000   -0.6754    0.0000 C   0  0  0  0  0  0  0  0  0  0  0  0
    4.6660    0.8246    0.0000 C   0  0  0  0  0  0  0  0  0  0  0  0
    4.6660   -1.1754    0.0000 C   0  0  0  0  0  0  0  0  0  0  0  0
    6.4260    0.8593    0.0000 C   0  0  0  0  0  0  0  0  0  0  0  0
    6.4260   -1.2100    0.0000 C   0  0  0  0  0  0  0  0  0  0  0  0
    7.3321    0.3454    0.0000 C   0  0  0  0  0  0  0  0  0  0  0  0
    2.9061    0.8593    0.0000 C   0  0  0  0  0  0  0  0  0  0  0  0
    2.9061   -1.2100    0.0000 C   0  0  0  0  0  0  0  0  0  0  0  0
    7.3321   -0.6962    0.0000 C   0  0  0  0  0  0  0  0  0  0  0  0
    2.0000    0.3454    0.0000 C   0  0  0  0  0  0  0  0  0  0  0  0
    2.0000   -0.6962    0.0000 C   0  0  0  0  0  0  0  0  0  0  0  0
    9.0641    0.3521    0.0000 C   0  0  0  0  0  0  0  0  0  0  0  0
    6.4188   -1.8300    0.0000 H   0  0  0  0  0  0  0  0  0  0  0  0
    2.9132    1.4792    0.0000 H   0  0  0  0  0  0  0  0  0  0  0  0
    2.9132   -1.8300    0.0000 H   0  0  0  0  0  0  0  0  0  0  0  0
    7.8678   -1.0083    0.0000 H   0  0  0  0  0  0  0  0  0  0  0  0
    1.4643    0.6575    0.0000 H   0  0  0  0  0  0  0  0  0  0  0  0
    1.4643   -1.0083    0.0000 H   0  0  0  0  0  0  0  0  0  0  0  0
    6.9478    2.1754    0.0000 H   0  0  0  0  0  0  0  0  0  0  0  0
    8.7562   -0.1860    0.0000 H   0  0  0  0  0  0  0  0  0  0  0  0
    9.6022    0.0442    0.0000 H   0  0  0  0  0  0  0  0  0  0  0  0
    9.3720    0.8902    0.0000 H   0  0  0  0  0  0  0  0  0  0  0  0
  1 13  1  0  0  0  0
  1 19  1  0  0  0  0
  2 11  1  0  0  0  0
  2 26  1  0  0  0  0
  3  9  2  0  0  0  0
  4 10  2  0  0  0  0
  5  6  2  0  0  0  0
  5  9  1  0  0  0  0
  5 11  1  0  0  0  0
  6 10  1  0  0  0  0
  6 12  1  0  0  0  0
  7  8  1  0  0  0  0
  7  9  1  0  0  0  0
  7 14  2  0  0  0  0
  8 10  1  0  0  0  0
  8 15  2  0  0  0  0
 11 13  2  0  0  0  0
 12 16  2  0  0  0  0
 12 20  1  0  0  0  0
 13 16  1  0  0  0  0
 14 17  1  0  0  0  0
 14 21  1  0  0  0  0
 15 18  1  0  0  0  0
 15 22  1  0  0  0  0
 16 23  1  0  0  0  0
 17 18  2  0  0  0  0
 17 24  1  0  0  0  0
 18 25  1  0  0  0  0
 19 27  1  0  0  0  0
 19 28  1  0  0  0  0
 19 29  1  0  0  0  0
M  END
> <PUBCHEM_COMPOUND_CID>
80103

> <PUBCHEM_COMPOUND_CANONICALIZED>
1

> <PUBCHEM_CACTVS_COMPLEXITY>
392

> <PUBCHEM_CACTVS_HBOND_ACCEPTOR>
4

> <PUBCHEM_CACTVS_HBOND_DONOR>
1

> <PUBCHEM_CACTVS_ROTATABLE_BOND>
1

> <PUBCHEM_CACTVS_SUBSKEYS>
AAADccBwOAAAAAAAAAAAAAAAAAAAAAAAAAAwYMAAAAAAAADBQAAAGgAACAAADASAmAIyBoAABgCIAqBSAAACCAAkIAAIiAEGiMgNJjaGNRqAcWMk4BELuYeLzPDOoAABAAAYQADAAAYAADCAAAAAAAAAAA==

> <PUBCHEM_IUPAC_OPENEYE_NAME>
1-hydroxy-2-methoxy-anthracene-9,10-dione

> <PUBCHEM_IUPAC_CAS_NAME>
1-hydroxy-2-methoxyanthracene-9,10-dione

> <PUBCHEM_IUPAC_NAME>
1-hydroxy-2-methoxyanthracene-9,10-dione

> <PUBCHEM_IUPAC_SYSTEMATIC_NAME>
2-methoxy-1-oxidanyl-anthracene-9,10-dione

> <PUBCHEM_IUPAC_TRADITIONAL_NAME>
1-hydroxy-2-methoxy-9,10-anthraquinone

> <PUBCHEM_IUPAC_INCHI>
InChI=1S/C15H10O4/c1-19-11-7-6-10-12(15(11)18)14(17)9-5-3-2-4-8(9)13(10)16/h2-7,18H,1H3

> <PUBCHEM_IUPAC_INCHIKEY>
BYQWRZGQEZAOPQ-UHFFFAOYSA-N

> <PUBCHEM_XLOGP3_AA>
3

> <PUBCHEM_EXACT_MASS>
254.057909

> <PUBCHEM_MOLECULAR_FORMULA>
C15H10O4

> <PUBCHEM_MOLECULAR_WEIGHT>
254.2375

> <PUBCHEM_OPENEYE_CAN_SMILES>
COC1=C(C2=C(C=C1)C(=O)C3=CC=CC=C3C2=O)O

> <PUBCHEM_OPENEYE_ISO_SMILES>
COC1=C(C2=C(C=C1)C(=O)C3=CC=CC=C3C2=O)O

> <PUBCHEM_CACTVS_TPSA>
63.6

> <PUBCHEM_MONOISOTOPIC_WEIGHT>
254.057909

> <PUBCHEM_TOTAL_CHARGE>
0

> <PUBCHEM_HEAVY_ATOM_COUNT>
19

> <PUBCHEM_ATOM_DEF_STEREO_COUNT>
0

> <PUBCHEM_ATOM_UDEF_STEREO_COUNT>
0

> <PUBCHEM_BOND_DEF_STEREO_COUNT>
0

> <PUBCHEM_BOND_UDEF_STEREO_COUNT>
0

> <PUBCHEM_ISOTOPIC_ATOM_COUNT>
0

> <PUBCHEM_COMPONENT_COUNT>
1

> <PUBCHEM_CACTVS_TAUTO_COUNT>
5

> <PUBCHEM_COORDINATE_TYPE>
1
5
255

> <PUBCHEM_BONDANNOTATIONS>
11  13  8
12  16  8
13  16  8
14  17  8
15  18  8
17  18  8
5  11  8
5  6  8
6  12  8
7  14  8
7  8  8
8  15  8

$$$$

