5321317
  -OEChem-07051213113D

 46 50  0     1  0  0  0  0  0999 V2000
    4.9471    1.2345   -0.4390 O   0  0  0  0  0  0  0  0  0  0  0  0
    6.1862   -0.7361    0.1752 O   0  0  0  0  0  0  0  0  0  0  0  0
   -4.4777   -2.1002   -0.3435 O   0  0  0  0  0  0  0  0  0  0  0  0
   -5.7581    0.2751    0.3136 O   0  0  0  0  0  0  0  0  0  0  0  0
    0.5740    1.4265   -0.0006 N   0  0  2  0  0  0  0  0  0  0  0  0
   -0.1017    0.1757   -0.4253 C   0  0  1  0  0  0  0  0  0  0  0  0
    0.5696   -0.9931    0.3381 C   0  0  0  0  0  0  0  0  0  0  0  0
   -0.1466    2.6131   -0.4697 C   0  0  0  0  0  0  0  0  0  0  0  0
    1.9669    1.4496   -0.4801 C   0  0  0  0  0  0  0  0  0  0  0  0
   -1.6139    0.1959   -0.2099 C   0  0  0  0  0  0  0  0  0  0  0  0
   -1.5039    2.6844    0.2250 C   0  0  0  0  0  0  0  0  0  0  0  0
    2.0787   -0.9568    0.2909 C   0  0  0  0  0  0  0  0  0  0  0  0
    2.7436    0.2275   -0.0718 C   0  0  0  0  0  0  0  0  0  0  0  0
   -2.2788    1.4031    0.0781 C   0  0  0  0  0  0  0  0  0  0  0  0
    4.1292    0.2015   -0.0908 C   0  0  0  0  0  0  0  0  0  0  0  0
   -2.3814   -0.9702   -0.3681 C   0  0  0  0  0  0  0  0  0  0  0  0
    2.8182   -2.1031    0.6566 C   0  0  0  0  0  0  0  0  0  0  0  0
   -3.6688    1.4136    0.2676 C   0  0  0  0  0  0  0  0  0  0  0  0
    4.8407   -0.9243    0.2573 C   0  0  0  0  0  0  0  0  0  0  0  0
   -3.7660   -0.9483   -0.1913 C   0  0  0  0  0  0  0  0  0  0  0  0
    4.2143   -2.0915    0.6389 C   0  0  0  0  0  0  0  0  0  0  0  0
   -4.4087    0.2415    0.1335 C   0  0  0  0  0  0  0  0  0  0  0  0
    6.2460    0.6338   -0.2677 C   0  0  0  0  0  0  0  0  0  0  0  0
   -4.9664   -2.3918   -1.6512 C   0  0  0  0  0  0  0  0  0  0  0  0
   -6.2423    0.0396    1.6345 C   0  0  0  0  0  0  0  0  0  0  0  0
    0.0511    0.0384   -1.5067 H   0  0  0  0  0  0  0  0  0  0  0  0
    0.2426   -1.9491   -0.0883 H   0  0  0  0  0  0  0  0  0  0  0  0
    0.2639   -0.9798    1.3933 H   0  0  0  0  0  0  0  0  0  0  0  0
   -0.2709    2.5928   -1.5609 H   0  0  0  0  0  0  0  0  0  0  0  0
    0.4102    3.5251   -0.2215 H   0  0  0  0  0  0  0  0  0  0  0  0
    2.4637    2.3315   -0.0567 H   0  0  0  0  0  0  0  0  0  0  0  0
    2.0023    1.5326   -1.5744 H   0  0  0  0  0  0  0  0  0  0  0  0
   -2.0739    3.5173   -0.2038 H   0  0  0  0  0  0  0  0  0  0  0  0
   -1.3684    2.8879    1.2948 H   0  0  0  0  0  0  0  0  0  0  0  0
   -1.9053   -1.9094   -0.6383 H   0  0  0  0  0  0  0  0  0  0  0  0
    2.2997   -3.0114    0.9546 H   0  0  0  0  0  0  0  0  0  0  0  0
   -4.1751    2.3445    0.5130 H   0  0  0  0  0  0  0  0  0  0  0  0
    4.7801   -2.9740    0.9152 H   0  0  0  0  0  0  0  0  0  0  0  0
    6.8081    1.2174    0.4704 H   0  0  0  0  0  0  0  0  0  0  0  0
    6.7788    0.6707   -1.2248 H   0  0  0  0  0  0  0  0  0  0  0  0
   -4.1356   -2.5029   -2.3551 H   0  0  0  0  0  0  0  0  0  0  0  0
   -5.6463   -1.6051   -1.9930 H   0  0  0  0  0  0  0  0  0  0  0  0
   -5.5171   -3.3354   -1.6085 H   0  0  0  0  0  0  0  0  0  0  0  0
   -5.9483   -0.9563    1.9807 H   0  0  0  0  0  0  0  0  0  0  0  0
   -7.3341    0.0946    1.6139 H   0  0  0  0  0  0  0  0  0  0  0  0
   -5.8659    0.8033    2.3225 H   0  0  0  0  0  0  0  0  0  0  0  0
  1 15  1  0  0  0  0
  1 23  1  0  0  0  0
  2 19  1  0  0  0  0
  2 23  1  0  0  0  0
  3 20  1  0  0  0  0
  3 24  1  0  0  0  0
  4 22  1  0  0  0  0
  4 25  1  0  0  0  0
  5  6  1  0  0  0  0
  5  8  1  0  0  0  0
  5  9  1  0  0  0  0
  6  7  1  0  0  0  0
  6 10  1  0  0  0  0
  6 26  1  0  0  0  0
  7 12  1  0  0  0  0
  7 27  1  0  0  0  0
  7 28  1  0  0  0  0
  8 11  1  0  0  0  0
  8 29  1  0  0  0  0
  8 30  1  0  0  0  0
  9 13  1  0  0  0  0
  9 31  1  0  0  0  0
  9 32  1  0  0  0  0
 10 14  1  0  0  0  0
 10 16  2  0  0  0  0
 11 14  1  0  0  0  0
 11 33  1  0  0  0  0
 11 34  1  0  0  0  0
 12 13  2  0  0  0  0
 12 17  1  0  0  0  0
 13 15  1  0  0  0  0
 14 18  2  0  0  0  0
 15 19  2  0  0  0  0
 16 20  1  0  0  0  0
 16 35  1  0  0  0  0
 17 21  2  0  0  0  0
 17 36  1  0  0  0  0
 18 22  1  0  0  0  0
 18 37  1  0  0  0  0
 19 21  1  0  0  0  0
 20 22  2  0  0  0  0
 21 38  1  0  0  0  0
 23 39  1  0  0  0  0
 23 40  1  0  0  0  0
 24 41  1  0  0  0  0
 24 42  1  0  0  0  0
 24 43  1  0  0  0  0
 25 44  1  0  0  0  0
 25 45  1  0  0  0  0
 25 46  1  0  0  0  0
M  END
> <PUBCHEM_COMPOUND_CID>
5321317

> <PUBCHEM_CONFORMER_RMSD>
0.6

> <PUBCHEM_CONFORMER_DIVERSEORDER>
1
3
2
5
6
4

> <PUBCHEM_MMFF94_PARTIAL_CHARGES>
29
1 -0.36
10 -0.14
11 0.14
12 -0.14
13 -0.14
14 -0.14
15 0.08
16 -0.15
17 -0.15
18 -0.15
19 0.08
2 -0.36
20 0.08
21 -0.15
22 0.08
23 0.56
24 0.28
25 0.28
3 -0.36
35 0.15
36 0.15
37 0.15
38 0.15
4 -0.36
5 -0.81
6 0.41
7 0.14
8 0.27
9 0.41

> <PUBCHEM_EFFECTIVE_ROTOR_COUNT>
3.4

> <PUBCHEM_PHARMACOPHORE_FEATURES>
10
1 1 acceptor
1 2 acceptor
1 3 acceptor
1 4 acceptor
1 5 cation
5 1 2 15 19 23 rings
6 10 14 16 18 20 22 rings
6 12 13 15 17 19 21 rings
6 5 6 7 9 12 13 rings
6 5 6 8 10 11 14 rings

> <PUBCHEM_HEAVY_ATOM_COUNT>
25

> <PUBCHEM_ATOM_DEF_STEREO_COUNT>
0

> <PUBCHEM_ATOM_UDEF_STEREO_COUNT>
1

> <PUBCHEM_BOND_DEF_STEREO_COUNT>
0

> <PUBCHEM_BOND_UDEF_STEREO_COUNT>
0

> <PUBCHEM_ISOTOPIC_ATOM_COUNT>
0

> <PUBCHEM_COMPONENT_COUNT>
1

> <PUBCHEM_CACTVS_TAUTO_COUNT>
1

> <PUBCHEM_CONFORMER_ID>
0051326500000001

> <PUBCHEM_MMFF94_ENERGY>
89.8353

> <PUBCHEM_FEATURE_SELFOVERLAP>
50.969

> <PUBCHEM_SHAPE_FINGERPRINT>
10090160 65 17846499231841625378
10595046 47 18411139134676780170
10906281 52 18339342115798486791
11045515 52 18060143154101718029
11135609 187 18058161718564403636
11524674 6 16298106484220009223
12107183 9 17547012287504087488
12166972 35 17561078108030731244
12236239 1 18261109655831909639
12516196 113 18407761421617851833
12553582 1 18341906194463393531
12596602 18 17531247210427745898
12788726 201 18339928237433014041
13167823 11 18411421747619591586
13862211 1 18341619204912406282
14251764 18 18260544516347266979
14341114 176 18412258471383153034
14341114 328 18410292540419087122
14767858 380 18271802364216739428
14787075 74 18272653433160519434
15196674 1 18341613784363024384
15250474 111 18339376226466526002
15537594 2 18411133636892054355
15927050 60 17687743836089014892
16110190 28 18335415773145767363
17349148 13 17775003509825653624
17492 89 18125443270219222754
17857418 61 18411985762376560831
1813 80 17346307249969894516
19377110 9 18342748446372273810
200 152 18272933829726015745
20028762 73 18408892836949186870
21267235 1 18341043121117727426
21315763 178 18411419501066768383
21623969 137 17988349429810902667
22950370 63 18409450280036375711
23402539 116 18408327670222201151
23522609 53 18192402261066708641
23559900 14 18338244764782263257
23622692 118 18042976376684456655
24771293 8 18265340513053915840
25147074 1 18262227804188108853
314194 84 18413108355243170147
335352 9 18409451384861141301
34797466 226 17531240652492972724
350125 39 18411135857110928816
4073 2 17988636368207585842
4214541 1 18339644554716394980
4325135 7 18341611534053096204
4340502 62 16630525133517955346
463206 1 18341048502195115987
5104073 3 18115304467466982427
7226269 152 17458338698139327057
7495541 125 17895200987144925688
9709674 26 18270392910490269866

> <PUBCHEM_SHAPE_MULTIPOLES>
486.03
14.61
2.55
0.93
2.11
0.23
0.01
-4.44
1.41
-0.88
-0.34
-1.14
-0.32
-1.8

> <PUBCHEM_SHAPE_SELFOVERLAP>
1081.947

> <PUBCHEM_SHAPE_VOLUME>
259.3

> <PUBCHEM_COORDINATE_TYPE>
2
5
10

$$$$

