23657859
  -OEChem-07051213153D

 44 44  0     1  0  0  0  0  0999 V2000
   -5.4784    0.1600    0.0737 P   0  0  0  0  0  0  0  0  0  0  0  0
   -1.4588   -1.2536   -0.0423 O   0  0  0  0  0  0  0  0  0  0  0  0
    1.9813    0.9063   -0.6266 O   0  0  0  0  0  0  0  0  0  0  0  0
   -0.4341    2.2656    0.1633 O   0  0  0  0  0  0  0  0  0  0  0  0
   -0.2707   -3.2517    0.0938 O   0  0  0  0  0  0  0  0  0  0  0  0
   -3.9336   -0.1664    0.4342 O   0  0  0  0  0  0  0  0  0  0  0  0
    3.1319   -2.6090   -1.4231 O   0  0  0  0  0  0  0  0  0  0  0  0
    4.4871    2.9561    0.9323 O   0  0  0  0  0  0  0  0  0  0  0  0
    4.5861    0.8813    0.0171 O   0  0  0  0  0  0  0  0  0  0  0  0
   -5.6060    1.7346    0.4195 O   0  0  0  0  0  0  0  0  0  0  0  0
   -5.5094    0.1305   -1.5428 O   0  0  0  0  0  0  0  0  0  0  0  0
   -6.4866   -0.7214    0.7511 O   0  0  0  0  0  0  0  0  0  0  0  0
    2.1596   -1.7781    0.5217 N   0  0  0  0  0  0  0  0  0  0  0  0
    0.9399    0.3071    0.1472 C   0  0  2  0  0  0  0  0  0  0  0  0
    0.9724   -1.2072   -0.0801 C   0  0  2  0  0  0  0  0  0  0  0  0
   -0.4009    0.9106   -0.2770 C   0  0  1  0  0  0  0  0  0  0  0  0
   -1.5643    0.1219    0.3294 C   0  0  1  0  0  0  0  0  0  0  0  0
   -0.2869   -1.8779    0.4796 C   0  0  1  0  0  0  0  0  0  0  0  0
   -2.9191    0.6201   -0.1635 C   0  0  0  0  0  0  0  0  0  0  0  0
    2.4734    2.0819   -0.0038 C   0  0  2  0  0  0  0  0  0  0  0  0
    3.1369   -2.4307   -0.2079 C   0  0  0  0  0  0  0  0  0  0  0  0
    2.2657    3.2422   -0.9613 C   0  0  0  0  0  0  0  0  0  0  0  0
    3.9420    1.8814    0.3061 C   0  0  0  0  0  0  0  0  0  0  0  0
    4.2727   -2.9035    0.6594 C   0  0  0  0  0  0  0  0  0  0  0  0
    1.1093    0.4868    1.2192 H   0  0  0  0  0  0  0  0  0  0  0  0
    1.0174   -1.3930   -1.1615 H   0  0  0  0  0  0  0  0  0  0  0  0
   -0.4594    0.9121   -1.3731 H   0  0  0  0  0  0  0  0  0  0  0  0
   -1.5554    0.1918    1.4256 H   0  0  0  0  0  0  0  0  0  0  0  0
   -0.3034   -1.8366    1.5764 H   0  0  0  0  0  0  0  0  0  0  0  0
   -2.9873    0.5128   -1.2512 H   0  0  0  0  0  0  0  0  0  0  0  0
   -3.0707    1.6693    0.1045 H   0  0  0  0  0  0  0  0  0  0  0  0
    2.2732   -1.6851    1.5273 H   0  0  0  0  0  0  0  0  0  0  0  0
   -1.1821    2.7025   -0.2769 H   0  0  0  0  0  0  0  0  0  0  0  0
    1.9789    2.3015    0.9503 H   0  0  0  0  0  0  0  0  0  0  0  0
   -0.8140   -3.7352    0.7390 H   0  0  0  0  0  0  0  0  0  0  0  0
    1.2347    3.3097   -1.3172 H   0  0  0  0  0  0  0  0  0  0  0  0
    2.5372    4.1953   -0.4962 H   0  0  0  0  0  0  0  0  0  0  0  0
    2.8914    3.1205   -1.8536 H   0  0  0  0  0  0  0  0  0  0  0  0
    4.9462   -3.5349    0.0734 H   0  0  0  0  0  0  0  0  0  0  0  0
    4.8280   -2.0411    1.0382 H   0  0  0  0  0  0  0  0  0  0  0  0
    3.8869   -3.4872    1.5001 H   0  0  0  0  0  0  0  0  0  0  0  0
    5.4405    2.8241    1.1216 H   0  0  0  0  0  0  0  0  0  0  0  0
   -6.4878    2.1613    0.3702 H   0  0  0  0  0  0  0  0  0  0  0  0
   -6.3694    0.2346   -2.0030 H   0  0  0  0  0  0  0  0  0  0  0  0
  1  6  1  0  0  0  0
  1 10  1  0  0  0  0
  1 11  1  0  0  0  0
  1 12  2  0  0  0  0
  2 17  1  0  0  0  0
  2 18  1  0  0  0  0
  3 14  1  0  0  0  0
  3 20  1  0  0  0  0
  4 16  1  0  0  0  0
  4 33  1  0  0  0  0
  5 18  1  0  0  0  0
  5 35  1  0  0  0  0
  6 19  1  0  0  0  0
  7 21  2  0  0  0  0
  8 23  1  0  0  0  0
  8 42  1  0  0  0  0
  9 23  2  0  0  0  0
 10 43  1  0  0  0  0
 11 44  1  0  0  0  0
 13 15  1  0  0  0  0
 13 21  1  0  0  0  0
 13 32  1  0  0  0  0
 14 15  1  0  0  0  0
 14 16  1  0  0  0  0
 14 25  1  0  0  0  0
 15 18  1  0  0  0  0
 15 26  1  0  0  0  0
 16 17  1  0  0  0  0
 16 27  1  0  0  0  0
 17 19  1  0  0  0  0
 17 28  1  0  0  0  0
 18 29  1  0  0  0  0
 19 30  1  0  0  0  0
 19 31  1  0  0  0  0
 20 22  1  0  0  0  0
 20 23  1  0  0  0  0
 20 34  1  0  0  0  0
 21 24  1  0  0  0  0
 22 36  1  0  0  0  0
 22 37  1  0  0  0  0
 22 38  1  0  0  0  0
 24 39  1  0  0  0  0
 24 40  1  0  0  0  0
 24 41  1  0  0  0  0
M  END
> <PUBCHEM_COMPOUND_CID>
23657859

> <PUBCHEM_CONFORMER_RMSD>
1

> <PUBCHEM_CONFORMER_DIVERSEORDER>
1
57
76
47
50
66
67
28
34
52
7
73
72
65
37
36
42
21
53
30
60
20
51
40
71
39
24
33
18
54
26
6
59
74
11
35
61
23
27
15
68
31
48
75
2
17
64
43
13
22
4
10
9
46
16
41
19
56
62
45
55
12
5
70
44
32
3
77
38
49
14
69
58
63
8
25
29

> <PUBCHEM_MMFF94_PARTIAL_CHARGES>
29
1 1.51
10 -0.77
11 -0.77
12 -0.7
13 -0.73
14 0.28
15 0.3
16 0.28
17 0.28
18 0.56
19 0.28
2 -0.56
20 0.34
21 0.57
23 0.66
24 0.06
3 -0.56
32 0.37
33 0.4
35 0.4
4 -0.68
42 0.5
43 0.5
44 0.5
5 -0.68
6 -0.55
7 -0.57
8 -0.65
9 -0.57

> <PUBCHEM_EFFECTIVE_ROTOR_COUNT>
9.2

> <PUBCHEM_PHARMACOPHORE_FEATURES>
16
1 10 acceptor
1 11 acceptor
1 12 acceptor
1 13 donor
1 2 acceptor
1 3 acceptor
1 4 acceptor
1 4 donor
1 5 acceptor
1 5 donor
1 7 acceptor
1 8 acceptor
1 9 acceptor
3 8 9 23 anion
4 1 10 11 12 anion
6 2 14 15 16 17 18 rings

> <PUBCHEM_HEAVY_ATOM_COUNT>
24

> <PUBCHEM_ATOM_DEF_STEREO_COUNT>
6

> <PUBCHEM_ATOM_UDEF_STEREO_COUNT>
0

> <PUBCHEM_BOND_DEF_STEREO_COUNT>
0

> <PUBCHEM_BOND_UDEF_STEREO_COUNT>
0

> <PUBCHEM_ISOTOPIC_ATOM_COUNT>
0

> <PUBCHEM_COMPONENT_COUNT>
1

> <PUBCHEM_CACTVS_TAUTO_COUNT>
2

> <PUBCHEM_CONFORMER_ID>
0168FD8300000001

> <PUBCHEM_MMFF94_ENERGY>
15.9436

> <PUBCHEM_FEATURE_SELFOVERLAP>
81.343

> <PUBCHEM_SHAPE_FINGERPRINT>
10411042 1 18123188171981436706
10967382 1 18411698781868922640
1100329 8 18412547634330867914
11680986 33 18342727503753223778
12236239 1 17894345571520206817
12616971 3 18113898299812240439
13073987 5 18409724063681539121
13140716 1 18412542119714023307
13533116 47 18260266348073563072
13955234 65 18409450271583409856
15081414 286 18413668011220828829
15196674 1 18411417341399630537
15475509 35 16845298288283755930
15927050 60 18337670789695506078
17844677 252 18338510950175968857
18785283 64 18342172267286622934
20028762 73 18188496886128012367
20554085 129 17823996558364558656
20612939 158 18410860992763483501
20645477 70 18412543232484644291
20739085 24 18270667783738301457
21033648 29 17203331152441863165
21452121 103 18411420613426355385
22182313 1 17917445262220117557
23419403 2 18058184975737562246
23559900 14 18410007724195118950
2748010 2 18270666602379598042
335352 9 18411417285638921956
3411729 13 18341614794049448496
350125 39 18339641260471288656
42630746 31 18410011030903095015
4340502 62 18337106770231190433
5104073 3 18340195376357159673
7364860 26 18407758149417021174

> <PUBCHEM_SHAPE_MULTIPOLES>
428.21
11.78
3.87
0.9
18.38
0.31
-0.2
-1.65
0.9
-6.29
-0.08
0.03
0.02
0.38

> <PUBCHEM_SHAPE_SELFOVERLAP>
845.663

> <PUBCHEM_SHAPE_VOLUME>
255.3

> <PUBCHEM_COORDINATE_TYPE>
2
5
10

$$$$

