2202
  -OEChem-07051212523D

 27 29  0     0  0  0  0  0  0999 V2000
    0.0000   -2.1825    0.0009 O   0  0  0  0  0  0  0  0  0  0  0  0
   -2.5534   -2.2811   -0.0004 O   0  0  0  0  0  0  0  0  0  0  0  0
    2.5532   -2.2810   -0.0001 O   0  0  0  0  0  0  0  0  0  0  0  0
    0.0000    1.9876    0.0020 C   0  0  0  0  0  0  0  0  0  0  0  0
   -1.2726    1.1862    0.0007 C   0  0  0  0  0  0  0  0  0  0  0  0
    1.2727    1.1861    0.0002 C   0  0  0  0  0  0  0  0  0  0  0  0
   -1.2773   -0.2127    0.0004 C   0  0  0  0  0  0  0  0  0  0  0  0
    1.2772   -0.2127    0.0005 C   0  0  0  0  0  0  0  0  0  0  0  0
    0.0000   -0.9580    0.0009 C   0  0  0  0  0  0  0  0  0  0  0  0
   -2.5004    1.8667    0.0003 C   0  0  0  0  0  0  0  0  0  0  0  0
    2.5004    1.8666   -0.0007 C   0  0  0  0  0  0  0  0  0  0  0  0
   -2.4874   -0.9189   -0.0004 C   0  0  0  0  0  0  0  0  0  0  0  0
    2.4874   -0.9189    0.0002 C   0  0  0  0  0  0  0  0  0  0  0  0
   -3.7056    1.1642   -0.0010 C   0  0  0  0  0  0  0  0  0  0  0  0
    3.7056    1.1641   -0.0014 C   0  0  0  0  0  0  0  0  0  0  0  0
   -3.6983   -0.2278   -0.0015 C   0  0  0  0  0  0  0  0  0  0  0  0
    3.6984   -0.2278   -0.0008 C   0  0  0  0  0  0  0  0  0  0  0  0
   -0.0002    2.6306   -0.8875 H   0  0  0  0  0  0  0  0  0  0  0  0
    0.0002    2.6272    0.8939 H   0  0  0  0  0  0  0  0  0  0  0  0
   -2.5221    2.9540    0.0007 H   0  0  0  0  0  0  0  0  0  0  0  0
    2.5221    2.9539   -0.0008 H   0  0  0  0  0  0  0  0  0  0  0  0
   -4.6482    1.7035   -0.0015 H   0  0  0  0  0  0  0  0  0  0  0  0
    4.6483    1.7034   -0.0022 H   0  0  0  0  0  0  0  0  0  0  0  0
   -4.6465   -0.7592   -0.0023 H   0  0  0  0  0  0  0  0  0  0  0  0
    4.6413   -0.7683   -0.0013 H   0  0  0  0  0  0  0  0  0  0  0  0
   -3.4838   -2.5636   -0.0010 H   0  0  0  0  0  0  0  0  0  0  0  0
    1.6659   -2.6693    0.0019 H   0  0  0  0  0  0  0  0  0  0  0  0
  1  9  2  0  0  0  0
  2 12  1  0  0  0  0
  2 26  1  0  0  0  0
  3 13  1  0  0  0  0
  3 27  1  0  0  0  0
  4  5  1  0  0  0  0
  4  6  1  0  0  0  0
  4 18  1  0  0  0  0
  4 19  1  0  0  0  0
  5  7  2  0  0  0  0
  5 10  1  0  0  0  0
  6  8  2  0  0  0  0
  6 11  1  0  0  0  0
  7  9  1  0  0  0  0
  7 12  1  0  0  0  0
  8  9  1  0  0  0  0
  8 13  1  0  0  0  0
 10 14  2  0  0  0  0
 10 20  1  0  0  0  0
 11 15  2  0  0  0  0
 11 21  1  0  0  0  0
 12 16  2  0  0  0  0
 13 17  2  0  0  0  0
 14 16  1  0  0  0  0
 14 22  1  0  0  0  0
 15 17  1  0  0  0  0
 15 23  1  0  0  0  0
 16 24  1  0  0  0  0
 17 25  1  0  0  0  0
M  END
> <PUBCHEM_COMPOUND_CID>
2202

> <PUBCHEM_CONFORMER_RMSD>
0.4

> <PUBCHEM_CONFORMER_DIVERSEORDER>
1

> <PUBCHEM_MMFF94_PARTIAL_CHARGES>
25
1 -0.57
10 -0.15
11 -0.15
12 0.08
13 0.08
14 -0.15
15 -0.15
16 -0.15
17 -0.15
2 -0.53
20 0.15
21 0.15
22 0.15
23 0.15
24 0.15
25 0.15
26 0.45
27 0.45
3 -0.53
4 0.29
5 -0.14
6 -0.14
7 0.09
8 0.09
9 0.4

> <PUBCHEM_EFFECTIVE_ROTOR_COUNT>
0.2

> <PUBCHEM_PHARMACOPHORE_FEATURES>
6
1 1 acceptor
1 2 donor
1 3 donor
6 4 5 6 7 8 9 rings
6 5 7 10 12 14 16 rings
6 6 8 11 13 15 17 rings

> <PUBCHEM_HEAVY_ATOM_COUNT>
17

> <PUBCHEM_ATOM_DEF_STEREO_COUNT>
0

> <PUBCHEM_ATOM_UDEF_STEREO_COUNT>
0

> <PUBCHEM_BOND_DEF_STEREO_COUNT>
0

> <PUBCHEM_BOND_UDEF_STEREO_COUNT>
0

> <PUBCHEM_ISOTOPIC_ATOM_COUNT>
0

> <PUBCHEM_COMPONENT_COUNT>
1

> <PUBCHEM_CACTVS_TAUTO_COUNT>
48

> <PUBCHEM_CONFORMER_ID>
0000089A00000001

> <PUBCHEM_MMFF94_ENERGY>
52.5338

> <PUBCHEM_FEATURE_SELFOVERLAP>
30.487

> <PUBCHEM_SHAPE_FINGERPRINT>
10062212 137 18411147917341770074
10608611 8 18410858758663441376
10616163 171 18337669719926369886
10967382 1 18410855490198233604
10980938 120 18411418410424474536
11132069 177 18410579474204337416
11471102 20 18410860979245754228
13140716 1 18410856606889724497
13221675 6 18410856563934769860
13380535 76 18410856559639919495
13897977 150 18410577296629512037
14144814 61 18410856572535384025
14325111 11 18410856559655951616
15196674 1 18410573989446561349
15219456 202 18411136956711727141
15442244 35 18266178524969347946
15536298 74 18334294288349253948
15775835 57 18410851062081878053
16945 1 18410575088958202117
17492 89 18411138034738897971
17804303 29 18337667628477516436
18186145 218 18334570291252935868
200 152 18113628863312453573
20510252 161 18261670355286116057
20645477 70 18336267941627712215
21267235 1 18410846668330399206
21501502 16 18410857659151430340
221490 88 18411972551479430874
2334 1 18410575054603615073
23366157 5 18059855091224773730
23402539 116 18335148557307446916
23463225 33 18412545439691613532
23559900 14 18334577979982601072
238 59 16045098142831369461
2748010 2 18410854356326919581
3312278 4 18408882910561678401
335352 9 18050568739837445629
34934 24 18410582781244505832
474 4 17202195214875261644
5104073 3 18410575088963373920
528886 8 18409735066374804017
53812653 166 18334580118291181032
69090 78 18409171025990215365
7364860 26 18335420214126198622
7832392 63 18409449206326252180
8809292 202 18343298150066382995
9709674 26 18409444782473261046

> <PUBCHEM_SHAPE_MULTIPOLES>
332.24
6.52
2.45
0.6
0
0.52
0
-0.55
0
0
0
0
-0.04
0

> <PUBCHEM_SHAPE_SELFOVERLAP>
750.47

> <PUBCHEM_SHAPE_VOLUME>
172

> <PUBCHEM_COORDINATE_TYPE>
2
5
10

$$$$

