21327
  -OEChem-07051212492D

 23 24  0     1  0  0  0  0  0999 V2000
    3.0000   -3.4330    0.0000 O   0  0  0  0  0  0  0  0  0  0  0  0
    3.3660   -1.0670    0.0000 O   0  0  0  0  0  0  0  0  0  0  0  0
    4.2320    3.4330    0.0000 O   0  5  0  0  0  0  0  0  0  0  0  0
    2.5000    3.4330    0.0000 O   0  0  0  0  0  0  0  0  0  0  0  0
    3.3660    2.9330    0.0000 N   0  3  0  0  0  0  0  0  0  0  0  0
    2.5000   -2.5670    0.0000 C   0  0  3  0  0  0  0  0  0  0  0  0
    2.0000   -3.4330    0.0000 C   0  0  0  0  0  0  0  0  0  0  0  0
    2.5000   -1.5670    0.0000 C   0  0  0  0  0  0  0  0  0  0  0  0
    3.3660   -0.0670    0.0000 C   0  0  0  0  0  0  0  0  0  0  0  0
    4.2320    0.4330    0.0000 C   0  0  0  0  0  0  0  0  0  0  0  0
    2.5000    0.4330    0.0000 C   0  0  0  0  0  0  0  0  0  0  0  0
    3.3660    1.9330    0.0000 C   0  0  0  0  0  0  0  0  0  0  0  0
    4.2320    1.4330    0.0000 C   0  0  0  0  0  0  0  0  0  0  0  0
    2.5000    1.4330    0.0000 C   0  0  0  0  0  0  0  0  0  0  0  0
    3.0989   -2.4065    0.0000 H   0  0  0  0  0  0  0  0  0  0  0  0
    1.4174   -3.2210    0.0000 H   0  0  0  0  0  0  0  0  0  0  0  0
    1.8923   -4.0436    0.0000 H   0  0  0  0  0  0  0  0  0  0  0  0
    2.2880   -0.9844    0.0000 H   0  0  0  0  0  0  0  0  0  0  0  0
    1.8894   -1.6746    0.0000 H   0  0  0  0  0  0  0  0  0  0  0  0
    4.7690    0.1230    0.0000 H   0  0  0  0  0  0  0  0  0  0  0  0
    1.9631    0.1230    0.0000 H   0  0  0  0  0  0  0  0  0  0  0  0
    4.7690    1.7430    0.0000 H   0  0  0  0  0  0  0  0  0  0  0  0
    1.9631    1.7430    0.0000 H   0  0  0  0  0  0  0  0  0  0  0  0
  1  6  1  0  0  0  0
  1  7  1  0  0  0  0
  2  8  1  0  0  0  0
  2  9  1  0  0  0  0
  3  5  1  0  0  0  0
  4  5  2  0  0  0  0
  5 12  1  0  0  0  0
  6  7  1  0  0  0  0
  6  8  1  0  0  0  0
  6 15  1  0  0  0  0
  7 16  1  0  0  0  0
  7 17  1  0  0  0  0
  8 18  1  0  0  0  0
  8 19  1  0  0  0  0
  9 10  2  0  0  0  0
  9 11  1  0  0  0  0
 10 13  1  0  0  0  0
 10 20  1  0  0  0  0
 11 14  2  0  0  0  0
 11 21  1  0  0  0  0
 12 13  2  0  0  0  0
 12 14  1  0  0  0  0
 13 22  1  0  0  0  0
 14 23  1  0  0  0  0
M  CHG  2   3  -1   5   1
M  END
> <PUBCHEM_COMPOUND_CID>
21327

> <PUBCHEM_COMPOUND_CANONICALIZED>
1

> <PUBCHEM_CACTVS_COMPLEXITY>
207

> <PUBCHEM_CACTVS_HBOND_ACCEPTOR>
4

> <PUBCHEM_CACTVS_HBOND_DONOR>
0

> <PUBCHEM_CACTVS_ROTATABLE_BOND>
3

> <PUBCHEM_CACTVS_SUBSKEYS>
AAADccByOAAAAAAAAAAAAAAAEgAAAAAAAAAwAAAAAAAAAAABAAAAHgAEAAAACByhkAIwxoAQRACBACRCQwCCCAAgIgAoiAAGbIoNJiKEsZuCOCDlwBEK6AewQAAAAEAAAAAAAAAAgAAAAAAAAAAAAAAAAA==

> <PUBCHEM_IUPAC_OPENEYE_NAME>
2-[(4-nitrophenoxy)methyl]oxirane

> <PUBCHEM_IUPAC_CAS_NAME>
2-[(4-nitrophenoxy)methyl]oxirane

> <PUBCHEM_IUPAC_NAME>
2-[(4-nitrophenoxy)methyl]oxirane

> <PUBCHEM_IUPAC_SYSTEMATIC_NAME>
2-[(4-nitrophenoxy)methyl]oxirane

> <PUBCHEM_IUPAC_TRADITIONAL_NAME>
2-[(4-nitrophenoxy)methyl]oxirane

> <PUBCHEM_IUPAC_INCHI>
InChI=1S/C9H9NO4/c11-10(12)7-1-3-8(4-2-7)13-5-9-6-14-9/h1-4,9H,5-6H2

> <PUBCHEM_IUPAC_INCHIKEY>
FPIGOBKNDYAZTP-UHFFFAOYSA-N

> <PUBCHEM_XLOGP3_AA>
1.4

> <PUBCHEM_EXACT_MASS>
195.053158

> <PUBCHEM_MOLECULAR_FORMULA>
C9H9NO4

> <PUBCHEM_MOLECULAR_WEIGHT>
195.17206

> <PUBCHEM_OPENEYE_CAN_SMILES>
C1C(O1)COC2=CC=C(C=C2)[N+](=O)[O-]

> <PUBCHEM_OPENEYE_ISO_SMILES>
C1C(O1)COC2=CC=C(C=C2)[N+](=O)[O-]

> <PUBCHEM_CACTVS_TPSA>
67.6

> <PUBCHEM_MONOISOTOPIC_WEIGHT>
195.053158

> <PUBCHEM_TOTAL_CHARGE>
0

> <PUBCHEM_HEAVY_ATOM_COUNT>
14

> <PUBCHEM_ATOM_DEF_STEREO_COUNT>
0

> <PUBCHEM_ATOM_UDEF_STEREO_COUNT>
1

> <PUBCHEM_BOND_DEF_STEREO_COUNT>
0

> <PUBCHEM_BOND_UDEF_STEREO_COUNT>
0

> <PUBCHEM_ISOTOPIC_ATOM_COUNT>
0

> <PUBCHEM_COMPONENT_COUNT>
1

> <PUBCHEM_CACTVS_TAUTO_COUNT>
1

> <PUBCHEM_COORDINATE_TYPE>
1
5
255

> <PUBCHEM_BONDANNOTATIONS>
10  13  8
11  14  8
12  13  8
12  14  8
6  8  3
9  10  8
9  11  8

$$$$

