443063
  -OEChem-07051213013D

 31 32  0     0  0  0  0  0  0999 V2000
    2.1849   -1.5372    2.5223 Cl  0  0  0  0  0  0  0  0  0  0  0  0
    2.0669   -0.6253   -2.8374 Cl  0  0  0  0  0  0  0  0  0  0  0  0
    5.3999    2.1813    0.3257 Cl  0  0  0  0  0  0  0  0  0  0  0  0
    1.2598   -1.9441   -0.2853 O   0  0  0  0  0  0  0  0  0  0  0  0
   -2.0952    2.2896   -0.7825 O   0  0  0  0  0  0  0  0  0  0  0  0
   -2.0857    2.0954    1.5111 O   0  0  0  0  0  0  0  0  0  0  0  0
   -4.9578   -1.2516   -0.0313 O   0  5  0  0  0  0  0  0  0  0  0  0
   -4.3529    0.8308    0.3102 O   0  0  0  0  0  0  0  0  0  0  0  0
   -4.0738   -0.3727    0.0990 N   0  3  0  0  0  0  0  0  0  0  0  0
   -0.0406   -1.5537   -0.1903 C   0  0  0  0  0  0  0  0  0  0  0  0
   -1.6847    0.1853    0.1416 C   0  0  0  0  0  0  0  0  0  0  0  0
   -2.7064   -0.7544    0.0040 C   0  0  0  0  0  0  0  0  0  0  0  0
   -0.3518   -0.2142    0.0444 C   0  0  0  0  0  0  0  0  0  0  0  0
   -1.0625   -2.4933   -0.3277 C   0  0  0  0  0  0  0  0  0  0  0  0
   -2.3953   -2.0937   -0.2306 C   0  0  0  0  0  0  0  0  0  0  0  0
    2.2357   -0.9722   -0.1414 C   0  0  0  0  0  0  0  0  0  0  0  0
    2.7398   -0.6987    1.1197 C   0  0  0  0  0  0  0  0  0  0  0  0
    2.6872   -0.2935   -1.2615 C   0  0  0  0  0  0  0  0  0  0  0  0
   -1.9710    1.5938    0.3873 C   0  0  0  0  0  0  0  0  0  0  0  0
    3.7225    0.2806    1.2646 C   0  0  0  0  0  0  0  0  0  0  0  0
    3.6699    0.6859   -1.1164 C   0  0  0  0  0  0  0  0  0  0  0  0
    4.1875    0.9728    0.1467 C   0  0  0  0  0  0  0  0  0  0  0  0
   -2.3766    3.6890   -0.6724 C   0  0  0  0  0  0  0  0  0  0  0  0
    0.3969    0.5631    0.1603 H   0  0  0  0  0  0  0  0  0  0  0  0
   -0.8253   -3.5378   -0.5106 H   0  0  0  0  0  0  0  0  0  0  0  0
   -3.1615   -2.8564   -0.3436 H   0  0  0  0  0  0  0  0  0  0  0  0
    4.1270    0.5056    2.2493 H   0  0  0  0  0  0  0  0  0  0  0  0
    4.0334    1.2269   -1.9875 H   0  0  0  0  0  0  0  0  0  0  0  0
   -3.3299    3.8431   -0.1582 H   0  0  0  0  0  0  0  0  0  0  0  0
   -2.4500    4.1019   -1.6818 H   0  0  0  0  0  0  0  0  0  0  0  0
   -1.5650    4.1958   -0.1421 H   0  0  0  0  0  0  0  0  0  0  0  0
  1 17  1  0  0  0  0
  2 18  1  0  0  0  0
  3 22  1  0  0  0  0
  4 10  1  0  0  0  0
  4 16  1  0  0  0  0
  5 19  1  0  0  0  0
  5 23  1  0  0  0  0
  6 19  2  0  0  0  0
  7  9  1  0  0  0  0
  8  9  2  0  0  0  0
  9 12  1  0  0  0  0
 10 13  2  0  0  0  0
 10 14  1  0  0  0  0
 11 12  2  0  0  0  0
 11 13  1  0  0  0  0
 11 19  1  0  0  0  0
 12 15  1  0  0  0  0
 13 24  1  0  0  0  0
 14 15  2  0  0  0  0
 14 25  1  0  0  0  0
 15 26  1  0  0  0  0
 16 17  2  0  0  0  0
 16 18  1  0  0  0  0
 17 20  1  0  0  0  0
 18 21  2  0  0  0  0
 20 22  2  0  0  0  0
 20 27  1  0  0  0  0
 21 22  1  0  0  0  0
 21 28  1  0  0  0  0
 23 29  1  0  0  0  0
 23 30  1  0  0  0  0
 23 31  1  0  0  0  0
M  CHG  2   7  -1   9   1
M  END
> <PUBCHEM_COMPOUND_CID>
443063

> <PUBCHEM_CONFORMER_RMSD>
0.8

> <PUBCHEM_CONFORMER_DIVERSEORDER>
1
8
10
6
9
2
7
5
4
3

> <PUBCHEM_MMFF94_PARTIAL_CHARGES>
28
1 -0.18
10 0.08
11 0.09
12 0.13
13 -0.15
14 -0.15
15 -0.15
16 0.08
17 0.18
18 0.18
19 0.63
2 -0.18
20 -0.15
21 -0.15
22 0.18
23 0.28
24 0.15
25 0.15
26 0.15
27 0.15
28 0.15
3 -0.18
4 -0.17
5 -0.43
6 -0.57
7 -0.52
8 -0.52
9 0.91

> <PUBCHEM_EFFECTIVE_ROTOR_COUNT>
5

> <PUBCHEM_PHARMACOPHORE_FEATURES>
7
1 4 acceptor
1 6 acceptor
1 7 acceptor
1 7 anion
1 8 acceptor
6 10 11 12 13 14 15 rings
6 16 17 18 20 21 22 rings

> <PUBCHEM_HEAVY_ATOM_COUNT>
23

> <PUBCHEM_ATOM_DEF_STEREO_COUNT>
0

> <PUBCHEM_ATOM_UDEF_STEREO_COUNT>
0

> <PUBCHEM_BOND_DEF_STEREO_COUNT>
0

> <PUBCHEM_BOND_UDEF_STEREO_COUNT>
0

> <PUBCHEM_ISOTOPIC_ATOM_COUNT>
0

> <PUBCHEM_COMPONENT_COUNT>
1

> <PUBCHEM_CACTVS_TAUTO_COUNT>
1

> <PUBCHEM_CONFORMER_ID>
0006C2B700000001

> <PUBCHEM_MMFF94_ENERGY>
85.1458

> <PUBCHEM_FEATURE_SELFOVERLAP>
35.605

> <PUBCHEM_SHAPE_FINGERPRINT>
10366900 7 16805319968283262770
10498660 4 18335416885141461289
10670039 82 18341317938948221836
10764073 3 16236199869910248346
11595378 159 18271814518256703432
11640471 11 18059853965537270742
11759241 127 17821731602416783181
12173636 292 18338799043386163573
12236239 1 18060143102878153298
12403814 3 17846788381988165391
12596602 18 17202487693679315384
13140716 1 18125438601130140801
13224815 77 18411136978197041677
13402501 40 18041563512400429224
13965767 371 17771344463682398932
14739800 52 18192168014325312936
14790565 3 17830729117407443153
14957384 54 18127423460527075664
15961568 22 18265892467585182676
18186145 218 17970339545264244092
18981168 100 18117840121083716710
20510252 161 18334293193058636761
20715895 44 17699025186304465069
20905425 154 17398944977574894076
22749437 52 18194691594388012309
23114952 82 17386268987571206902
23227448 37 18189618233115488476
23557571 272 18115579327709292870
23559900 14 18118686762238709143
238 59 16371019558597314700
3472631 163 18337110055817992076
350125 39 18192987334237967775
4340502 62 17060055926466871043
44802255 64 17248338317012438020
469060 322 18125136274420044451
474 4 17560798776200229746
7097593 13 17412761865781020450
7808743 9 18336830784544691000

> <PUBCHEM_SHAPE_MULTIPOLES>
444.61
9.06
3.02
1.73
1.12
2.2
-0.31
3.66
0.97
-2.06
-0.03
1.9
-0.49
-0.27

> <PUBCHEM_SHAPE_SELFOVERLAP>
936.729

> <PUBCHEM_SHAPE_VOLUME>
253

> <PUBCHEM_COORDINATE_TYPE>
2
5
10

$$$$

