6442821
  -OEChem-07051213152D

 77 80  0     1  0  0  0  0  0999 V2000
    4.2481   -0.5074    0.0000 O   0  0  0  0  0  0  0  0  0  0  0  0
    6.9196    0.0660    0.0000 O   0  0  0  0  0  0  0  0  0  0  0  0
    5.3542   -3.0792    0.0000 O   0  0  0  0  0  0  0  0  0  0  0  0
    6.7433    2.7775    0.0000 O   0  0  0  0  0  0  0  0  0  0  0  0
    2.5163   -1.6997    0.0000 O   0  0  0  0  0  0  0  0  0  0  0  0
    8.9457    3.6737    0.0000 O   0  0  0  0  0  0  0  0  0  0  0  0
    2.9715   -6.8241    0.0000 O   0  0  0  0  0  0  0  0  0  0  0  0
    5.1177    0.0660    0.0000 C   0  0  1  0  0  0  0  0  0  0  0  0
    6.0187   -0.3679    0.0000 C   0  0  2  0  0  0  0  0  0  0  0  0
    5.2564   -1.9986    0.0000 C   0  0  1  0  0  0  0  0  0  0  0  0
    4.3180   -1.5467    0.0000 C   0  0  2  0  0  0  0  0  0  0  0  0
    6.1125   -1.4053    0.0000 C   0  0  0  0  0  0  0  0  0  0  0  0
    4.8952    1.0410    0.0000 C   0  0  0  0  0  0  0  0  0  0  0  0
    7.1422    1.0410    0.0000 C   0  0  1  0  0  0  0  0  0  0  0  0
    6.5187    1.8228    0.0000 C   0  0  2  0  0  0  0  0  0  0  0  0
    5.5187    1.8228    0.0000 C   0  0  0  0  0  0  0  0  0  0  0  0
    3.4122   -2.1440    0.0000 C   0  0  2  0  0  0  0  0  0  0  0  0
    8.1229    1.0476    0.0000 C   0  0  0  0  0  0  0  0  0  0  0  0
    4.2167    0.4999    0.0000 C   0  0  0  0  0  0  0  0  0  0  0  0
    3.4849   -3.2266    0.0000 C   0  0  0  0  0  0  0  0  0  0  0  0
    8.5118    2.7727    0.0000 C   0  0  1  0  0  0  0  0  0  0  0  0
    4.4624   -3.6973    0.0000 C   0  0  1  0  0  0  0  0  0  0  0  0
    8.7313    1.8168    0.0000 C   0  0  0  0  0  0  0  0  0  0  0  0
    7.6287    3.1995    0.0000 C   0  0  1  0  0  0  0  0  0  0  0  0
    7.6314    4.1995    0.0000 C   0  0  0  0  0  0  0  0  0  0  0  0
    4.5410   -4.6942    0.0000 C   0  0  0  0  0  0  0  0  0  0  0  0
    9.4867    2.9953    0.0000 C   0  0  0  0  0  0  0  0  0  0  0  0
    6.7667    4.7018    0.0000 C   0  0  0  0  0  0  0  0  0  0  0  0
    3.7170   -5.2607    0.0000 C   0  0  0  0  0  0  0  0  0  0  0  0
    6.7694    5.7018    0.0000 C   0  0  0  0  0  0  0  0  0  0  0  0
    3.7955   -6.2576    0.0000 C   0  0  0  0  0  0  0  0  0  0  0  0
    2.8143   -4.8303    0.0000 C   0  0  0  0  0  0  0  0  0  0  0  0
    5.9047    6.2041    0.0000 C   0  0  0  0  0  0  0  0  0  0  0  0
    5.0374    5.7065    0.0000 C   0  0  0  0  0  0  0  0  0  0  0  0
    4.1727    6.2088    0.0000 C   0  0  0  0  0  0  0  0  0  0  0  0
    6.7580   -0.7872    0.0000 H   0  0  0  0  0  0  0  0  0  0  0  0
    6.0265   -2.3586    0.0000 H   0  0  0  0  0  0  0  0  0  0  0  0
    3.5564   -1.1691    0.0000 H   0  0  0  0  0  0  0  0  0  0  0  0
    6.3733   -1.9677    0.0000 H   0  0  0  0  0  0  0  0  0  0  0  0
    6.7113   -1.2446    0.0000 H   0  0  0  0  0  0  0  0  0  0  0  0
    4.5086    1.5257    0.0000 H   0  0  0  0  0  0  0  0  0  0  0  0
    4.3366    0.7720    0.0000 H   0  0  0  0  0  0  0  0  0  0  0  0
    7.6744    0.3782    0.0000 H   0  0  0  0  0  0  0  0  0  0  0  0
    5.9909    2.4891    0.0000 H   0  0  0  0  0  0  0  0  0  0  0  0
    5.6566    2.4272    0.0000 H   0  0  0  0  0  0  0  0  0  0  0  0
    4.9601    2.0918    0.0000 H   0  0  0  0  0  0  0  0  0  0  0  0
    3.3742   -1.5252    0.0000 H   0  0  0  0  0  0  0  0  0  0  0  0
    7.9885    0.4423    0.0000 H   0  0  0  0  0  0  0  0  0  0  0  0
    8.6828    0.7813    0.0000 H   0  0  0  0  0  0  0  0  0  0  0  0
    4.4857    1.0585    0.0000 H   0  0  0  0  0  0  0  0  0  0  0  0
    3.6581    0.7689    0.0000 H   0  0  0  0  0  0  0  0  0  0  0  0
    3.9477   -0.0587    0.0000 H   0  0  0  0  0  0  0  0  0  0  0  0
    2.8683   -3.1616    0.0000 H   0  0  0  0  0  0  0  0  0  0  0  0
    3.3154   -3.8229    0.0000 H   0  0  0  0  0  0  0  0  0  0  0  0
    5.0226   -3.9631    0.0000 H   0  0  0  0  0  0  0  0  0  0  0  0
    9.1194    1.3333    0.0000 H   0  0  0  0  0  0  0  0  0  0  0  0
    9.2893    2.0871    0.0000 H   0  0  0  0  0  0  0  0  0  0  0  0
    7.1049    3.5311    0.0000 H   0  0  0  0  0  0  0  0  0  0  0  0
    8.2417    4.0902    0.0000 H   0  0  0  0  0  0  0  0  0  0  0  0
    7.8450    4.7815    0.0000 H   0  0  0  0  0  0  0  0  0  0  0  0
    4.7982   -5.2584    0.0000 H   0  0  0  0  0  0  0  0  0  0  0  0
    5.1413   -4.5389    0.0000 H   0  0  0  0  0  0  0  0  0  0  0  0
    9.6247    2.3908    0.0000 H   0  0  0  0  0  0  0  0  0  0  0  0
   10.0912    3.1332    0.0000 H   0  0  0  0  0  0  0  0  0  0  0  0
    9.3488    3.5997    0.0000 H   0  0  0  0  0  0  0  0  0  0  0  0
    2.0000   -2.0430    0.0000 H   0  0  0  0  0  0  0  0  0  0  0  0
    9.5640    3.7200    0.0000 H   0  0  0  0  0  0  0  0  0  0  0  0
    6.1564    4.8111    0.0000 H   0  0  0  0  0  0  0  0  0  0  0  0
    6.5531    4.1198    0.0000 H   0  0  0  0  0  0  0  0  0  0  0  0
    7.3072    6.0104    0.0000 H   0  0  0  0  0  0  0  0  0  0  0  0
    4.3552   -6.5245    0.0000 H   0  0  0  0  0  0  0  0  0  0  0  0
    2.7656   -4.2122    0.0000 H   0  0  0  0  0  0  0  0  0  0  0  0
    2.3034   -5.1815    0.0000 H   0  0  0  0  0  0  0  0  0  0  0  0
    5.9064    6.8241    0.0000 H   0  0  0  0  0  0  0  0  0  0  0  0
    5.0357    5.0865    0.0000 H   0  0  0  0  0  0  0  0  0  0  0  0
    4.1744    6.8288    0.0000 H   0  0  0  0  0  0  0  0  0  0  0  0
    3.6349    5.9002    0.0000 H   0  0  0  0  0  0  0  0  0  0  0  0
  1  8  1  0  0  0  0
  1 11  1  0  0  0  0
  2  9  1  0  0  0  0
  2 14  1  0  0  0  0
  3 10  1  0  0  0  0
  3 22  1  0  0  0  0
  4 15  1  0  0  0  0
  4 24  1  0  0  0  0
 17  5  1  6  0  0  0
  5 66  1  0  0  0  0
 21  6  1  1  0  0  0
  6 67  1  0  0  0  0
  7 31  2  0  0  0  0
  8  9  1  0  0  0  0
  8 13  1  0  0  0  0
  8 19  1  1  0  0  0
  9 12  1  0  0  0  0
  9 36  1  6  0  0  0
 10 11  1  0  0  0  0
 10 12  1  0  0  0  0
 10 37  1  6  0  0  0
 11 17  1  0  0  0  0
 11 38  1  1  0  0  0
 12 39  1  0  0  0  0
 12 40  1  0  0  0  0
 13 16  1  0  0  0  0
 13 41  1  0  0  0  0
 13 42  1  0  0  0  0
 14 15  1  0  0  0  0
 14 18  1  0  0  0  0
 14 43  1  6  0  0  0
 15 16  1  0  0  0  0
 15 44  1  1  0  0  0
 16 45  1  0  0  0  0
 16 46  1  0  0  0  0
 17 20  1  0  0  0  0
 17 47  1  0  0  0  0
 18 23  1  0  0  0  0
 18 48  1  0  0  0  0
 18 49  1  0  0  0  0
 19 50  1  0  0  0  0
 19 51  1  0  0  0  0
 19 52  1  0  0  0  0
 20 22  1  0  0  0  0
 20 53  1  0  0  0  0
 20 54  1  0  0  0  0
 21 23  1  0  0  0  0
 21 24  1  0  0  0  0
 21 27  1  0  0  0  0
 22 26  1  6  0  0  0
 22 55  1  0  0  0  0
 23 56  1  0  0  0  0
 23 57  1  0  0  0  0
 24 25  1  6  0  0  0
 24 58  1  0  0  0  0
 25 28  1  0  0  0  0
 25 59  1  0  0  0  0
 25 60  1  0  0  0  0
 26 29  1  0  0  0  0
 26 61  1  0  0  0  0
 26 62  1  0  0  0  0
 27 63  1  0  0  0  0
 27 64  1  0  0  0  0
 27 65  1  0  0  0  0
 28 30  1  0  0  0  0
 28 68  1  0  0  0  0
 28 69  1  0  0  0  0
 29 31  1  0  0  0  0
 29 32  2  0  0  0  0
 30 33  2  0  0  0  0
 30 70  1  0  0  0  0
 31 71  1  0  0  0  0
 32 72  1  0  0  0  0
 32 73  1  0  0  0  0
 33 34  1  0  0  0  0
 33 74  1  0  0  0  0
 34 35  2  0  0  0  0
 34 75  1  0  0  0  0
 35 76  1  0  0  0  0
 35 77  1  0  0  0  0
M  END
> <PUBCHEM_COMPOUND_CID>
6442821

> <PUBCHEM_COMPOUND_CANONICALIZED>
1

> <PUBCHEM_CACTVS_COMPLEXITY>
811

> <PUBCHEM_CACTVS_HBOND_ACCEPTOR>
7

> <PUBCHEM_CACTVS_HBOND_DONOR>
2

> <PUBCHEM_CACTVS_ROTATABLE_BOND>
7

> <PUBCHEM_CACTVS_SUBSKEYS>
AAADcfB4OAAAAAAAAAAAAAAAAAAAAAAAAAAkSAAABIkAAACQAAAAGgAACAAADFSggAICAAAABgCIAihSgAAAAAAgAAAICAEAAEgJEBIAAQACQAAFwAALgIPK6PyOAAAAAAAAAAAAAAAAAAAAAAAAAAAAAA==

> <PUBCHEM_IUPAC_INCHI>
InChI=1S/C28H42O7/c1-5-6-7-8-9-24-27(3,31)12-10-21-22(33-24)11-13-28(4)25(34-21)16-23-26(35-28)20(30)15-19(32-23)14-18(2)17-29/h5-7,17,19-26,30-31H,1-2,8-16H2,3-4H3/b7-6-/t19-,20+,21-,22+,23-,24-,25+,26+,27+,28-/m1/s1

> <PUBCHEM_IUPAC_INCHIKEY>
HINDCSLBLBWIIV-HWFPZXRZSA-N

> <PUBCHEM_XLOGP3_AA>
3

> <PUBCHEM_EXACT_MASS>
490.293054

> <PUBCHEM_MOLECULAR_FORMULA>
C28H42O7

> <PUBCHEM_MOLECULAR_WEIGHT>
490.62888

> <PUBCHEM_OPENEYE_CAN_SMILES>
CC12CCC3C(CCC(C(O3)CCC=CC=C)(C)O)OC1CC4C(O2)C(CC(O4)CC(=C)C=O)O

> <PUBCHEM_OPENEYE_ISO_SMILES>
C[C@@]12CC[C@H]3[C@@H](CC[C@]([C@H](O3)CC/C=C\C=C)(C)O)O[C@H]1C[C@@H]4[C@@H](O2)[C@H](C[C@H](O4)CC(=C)C=O)O

> <PUBCHEM_CACTVS_TPSA>
94.4

> <PUBCHEM_MONOISOTOPIC_WEIGHT>
490.293054

> <PUBCHEM_TOTAL_CHARGE>
0

> <PUBCHEM_HEAVY_ATOM_COUNT>
35

> <PUBCHEM_ATOM_DEF_STEREO_COUNT>
10

> <PUBCHEM_ATOM_UDEF_STEREO_COUNT>
0

> <PUBCHEM_BOND_DEF_STEREO_COUNT>
1

> <PUBCHEM_BOND_UDEF_STEREO_COUNT>
0

> <PUBCHEM_ISOTOPIC_ATOM_COUNT>
0

> <PUBCHEM_COMPONENT_COUNT>
1

> <PUBCHEM_CACTVS_TAUTO_COUNT>
1

> <PUBCHEM_COORDINATE_TYPE>
1
5
255

> <PUBCHEM_BONDANNOTATIONS>
10  37  6
11  38  5
14  43  6
15  44  5
22  26  6
24  25  6
17  5  6
21  6  5
8  19  5
9  36  6

$$$$

