5281719
  -OEChem-07051212593D

 31 32  0     0  0  0  0  0  0999 V2000
    4.3595    1.6046   -0.2242 O   0  0  0  0  0  0  0  0  0  0  0  0
    3.2249   -3.0063    0.2643 O   0  0  0  0  0  0  0  0  0  0  0  0
    1.1205   -0.0358    0.0916 C   0  0  0  0  0  0  0  0  0  0  0  0
    2.0656    0.9673   -0.0500 C   0  0  0  0  0  0  0  0  0  0  0  0
   -0.3089    0.3200    0.1298 C   0  0  0  0  0  0  0  0  0  0  0  0
    1.4913   -1.3664    0.1979 C   0  0  0  0  0  0  0  0  0  0  0  0
    3.4187    0.6305   -0.0862 C   0  0  0  0  0  0  0  0  0  0  0  0
   -2.7435   -0.1854   -0.0637 C   0  0  0  0  0  0  0  0  0  0  0  0
   -1.3319   -0.5313   -0.1199 C   0  0  0  0  0  0  0  0  0  0  0  0
    2.8445   -1.7032    0.1618 C   0  0  0  0  0  0  0  0  0  0  0  0
    3.8081   -0.7048    0.0199 C   0  0  0  0  0  0  0  0  0  0  0  0
   -3.1582    0.9391    0.6498 C   0  0  0  0  0  0  0  0  0  0  0  0
   -3.6827   -0.9786   -0.7230 C   0  0  0  0  0  0  0  0  0  0  0  0
   -4.5121    1.2706    0.7037 C   0  0  0  0  0  0  0  0  0  0  0  0
   -5.0366   -0.6469   -0.6693 C   0  0  0  0  0  0  0  0  0  0  0  0
   -5.4513    0.4777    0.0440 C   0  0  0  0  0  0  0  0  0  0  0  0
    3.8921    2.9486   -0.3265 C   0  0  0  0  0  0  0  0  0  0  0  0
    1.7106    1.9894   -0.1305 H   0  0  0  0  0  0  0  0  0  0  0  0
   -0.5019    1.3626    0.3674 H   0  0  0  0  0  0  0  0  0  0  0  0
    0.7730   -2.1694    0.3320 H   0  0  0  0  0  0  0  0  0  0  0  0
   -1.1346   -1.5602   -0.4080 H   0  0  0  0  0  0  0  0  0  0  0  0
    4.8645   -0.9602   -0.0091 H   0  0  0  0  0  0  0  0  0  0  0  0
   -2.4680    1.5739    1.1975 H   0  0  0  0  0  0  0  0  0  0  0  0
   -3.3790   -1.8584   -1.2852 H   0  0  0  0  0  0  0  0  0  0  0  0
   -4.8363    2.1432    1.2634 H   0  0  0  0  0  0  0  0  0  0  0  0
   -5.7680   -1.2642   -1.1827 H   0  0  0  0  0  0  0  0  0  0  0  0
   -6.5055    0.7353    0.0870 H   0  0  0  0  0  0  0  0  0  0  0  0
    4.1953   -3.0558    0.2202 H   0  0  0  0  0  0  0  0  0  0  0  0
    3.3728    3.2651    0.5845 H   0  0  0  0  0  0  0  0  0  0  0  0
    3.2836    3.0963   -1.2252 H   0  0  0  0  0  0  0  0  0  0  0  0
    4.7737    3.5899   -0.4299 H   0  0  0  0  0  0  0  0  0  0  0  0
  1  7  1  0  0  0  0
  1 17  1  0  0  0  0
  2 10  1  0  0  0  0
  2 28  1  0  0  0  0
  3  4  1  0  0  0  0
  3  5  1  0  0  0  0
  3  6  2  0  0  0  0
  4  7  2  0  0  0  0
  4 18  1  0  0  0  0
  5  9  2  0  0  0  0
  5 19  1  0  0  0  0
  6 10  1  0  0  0  0
  6 20  1  0  0  0  0
  7 11  1  0  0  0  0
  8  9  1  0  0  0  0
  8 12  2  0  0  0  0
  8 13  1  0  0  0  0
  9 21  1  0  0  0  0
 10 11  2  0  0  0  0
 11 22  1  0  0  0  0
 12 14  1  0  0  0  0
 12 23  1  0  0  0  0
 13 15  2  0  0  0  0
 13 24  1  0  0  0  0
 14 16  2  0  0  0  0
 14 25  1  0  0  0  0
 15 16  1  0  0  0  0
 15 26  1  0  0  0  0
 16 27  1  0  0  0  0
 17 29  1  0  0  0  0
 17 30  1  0  0  0  0
 17 31  1  0  0  0  0
M  END
> <PUBCHEM_COMPOUND_CID>
5281719

> <PUBCHEM_CONFORMER_RMSD>
0.6

> <PUBCHEM_CONFORMER_DIVERSEORDER>
6
1
3
4
2
5

> <PUBCHEM_MMFF94_PARTIAL_CHARGES>
28
1 -0.36
10 0.08
11 -0.15
12 -0.15
13 -0.15
14 -0.15
15 -0.15
16 -0.15
17 0.28
18 0.15
19 0.15
2 -0.53
20 0.15
21 0.15
22 0.15
23 0.15
24 0.15
25 0.15
26 0.15
27 0.15
28 0.45
3 0.03
4 -0.15
5 -0.18
6 -0.15
7 0.08
8 0.03
9 -0.18

> <PUBCHEM_EFFECTIVE_ROTOR_COUNT>
3

> <PUBCHEM_PHARMACOPHORE_FEATURES>
4
1 1 acceptor
1 2 donor
6 3 4 6 7 10 11 rings
6 8 12 13 14 15 16 rings

> <PUBCHEM_HEAVY_ATOM_COUNT>
17

> <PUBCHEM_ATOM_DEF_STEREO_COUNT>
0

> <PUBCHEM_ATOM_UDEF_STEREO_COUNT>
0

> <PUBCHEM_BOND_DEF_STEREO_COUNT>
1

> <PUBCHEM_BOND_UDEF_STEREO_COUNT>
0

> <PUBCHEM_ISOTOPIC_ATOM_COUNT>
0

> <PUBCHEM_COMPONENT_COUNT>
1

> <PUBCHEM_CACTVS_TAUTO_COUNT>
3

> <PUBCHEM_CONFORMER_ID>
005097B700000006

> <PUBCHEM_MMFF94_ENERGY>
59.9857

> <PUBCHEM_FEATURE_SELFOVERLAP>
20.297

> <PUBCHEM_SHAPE_FINGERPRINT>
10595046 47 18335703815222334717
10616163 171 18260549970502773663
10912923 1 18186519917213013539
11471102 20 18413107260400763476
12107183 9 17758955213983932561
12236239 1 18040718082141526642
12616999 72 17022895753124991236
12730499 353 18271235041501476098
13167823 11 18334296487436072975
13533116 47 18335425677483082123
13631057 29 18046911472617902407
13675066 3 17918267675843601541
13760787 19 18259985946532630367
13955234 65 18413390947380909026
14528608 73 18336544919605008236
14774955 27 18129661872928043748
15196674 1 18409167727523910219
15239154 128 18409447003240345789
15242433 33 18334858316460870391
15250474 111 18188224134314191615
15342168 16 18058163921655292476
15375358 24 17917992750269868457
15442244 35 18192991740937307864
17834072 33 18408042896879256151
17844677 252 18339635733138353617
18186145 218 17632576080303441659
18335252 98 18270396084893140331
18681886 176 17967255295612207442
19026448 5 18260550043474311139
19422 9 18334015025196493091
200 152 18259990370934358039
20279233 1 16486975098550037491
20281475 54 18334585654604206727
20612939 158 18412542124224599092
20645477 70 18410293648478763310
21033648 29 17060066955884494557
21065198 48 18334574664004117497
21267235 1 18335693983446484927
2255824 54 18411418449216882434
22646028 1 18260553346399198223
23048698 100 18409165536832035731
23402539 116 17677061243491319317
23402655 69 18334295344504968551
23532345 1 18341890766819624920
23559900 14 18187932823503104882
239999 70 18260823817754437350
245318 6 17198530460609921956
268830 7 18341335578093763929
29717793 49 17967814985226229797
300161 21 18334583442743307593
3004659 81 18187082909583617518
34797466 226 16298944238913267001
3545911 37 18342172241848991973
4214541 1 18335421318043505017
42630746 31 18409451380254794262
474 4 18200029530299497036
5104073 3 18409729577902505107
522135 26 18412262869566853126
5281201 14 18130508642487735165
542803 24 18186518804700465085
543358 83 18335978748599915232
573450 72 17895481431366557731
6025842 7 18410857663715877990
633830 44 18272091638674925387
7164475 11 18263644137830421416
77779 3 18409729582197374043
8272917 22 18409163337809098462
90127 26 17917146208427547297
9709674 26 18410287042935249363
9841814 1 18058456568153150386
9971528 1 17989485238186029100

> <PUBCHEM_SHAPE_MULTIPOLES>
338.11
11.94
2.32
0.74
8.52
0.09
0.01
2.62
0.67
-3.87
-0.01
0.41
0.03
-1.22

> <PUBCHEM_SHAPE_SELFOVERLAP>
724.369

> <PUBCHEM_SHAPE_VOLUME>
188

> <PUBCHEM_COORDINATE_TYPE>
2
5
10

$$$$

