11003
  -OEChem-06261205133D

 28 27  0     0  0  0  0  0  0999 V2000
    5.1284   -0.8450   -0.6520 F   0  0  0  0  0  0  0  0  0  0  0  0
   -4.0860    1.2158   -0.3180 O   0  0  0  0  0  0  0  0  0  0  0  0
    1.1276    0.5171    0.0140 C   0  0  0  0  0  0  0  0  0  0  0  0
   -0.0809   -0.4110    0.1708 C   0  0  0  0  0  0  0  0  0  0  0  0
    2.4688   -0.1819    0.2470 C   0  0  0  0  0  0  0  0  0  0  0  0
   -1.4235    0.2981   -0.0373 C   0  0  0  0  0  0  0  0  0  0  0  0
    3.6354    0.7995    0.1108 C   0  0  0  0  0  0  0  0  0  0  0  0
   -2.6117   -0.6473    0.1404 C   0  0  0  0  0  0  0  0  0  0  0  0
    4.9734    0.1072    0.3057 C   0  0  0  0  0  0  0  0  0  0  0  0
   -3.9622    0.0180   -0.0672 C   0  0  0  0  0  0  0  0  0  0  0  0
   -5.1694   -0.8704    0.0858 C   0  0  0  0  0  0  0  0  0  0  0  0
    1.1159    0.9526   -0.9929 H   0  0  0  0  0  0  0  0  0  0  0  0
    1.0288    1.3512    0.7201 H   0  0  0  0  0  0  0  0  0  0  0  0
    0.0061   -1.2373   -0.5455 H   0  0  0  0  0  0  0  0  0  0  0  0
   -0.0619   -0.8569    1.1730 H   0  0  0  0  0  0  0  0  0  0  0  0
    2.5825   -0.9995   -0.4750 H   0  0  0  0  0  0  0  0  0  0  0  0
    2.4807   -0.6302    1.2477 H   0  0  0  0  0  0  0  0  0  0  0  0
   -1.5104    1.1311    0.6712 H   0  0  0  0  0  0  0  0  0  0  0  0
   -1.4521    0.7382   -1.0417 H   0  0  0  0  0  0  0  0  0  0  0  0
    3.5327    1.6078    0.8434 H   0  0  0  0  0  0  0  0  0  0  0  0
    3.6108    1.2493   -0.8886 H   0  0  0  0  0  0  0  0  0  0  0  0
   -2.5998   -1.0672    1.1526 H   0  0  0  0  0  0  0  0  0  0  0  0
   -2.5342   -1.4725   -0.5765 H   0  0  0  0  0  0  0  0  0  0  0  0
    5.7981    0.8188    0.2087 H   0  0  0  0  0  0  0  0  0  0  0  0
    5.0389   -0.3789    1.2834 H   0  0  0  0  0  0  0  0  0  0  0  0
   -5.1092   -1.6965   -0.6271 H   0  0  0  0  0  0  0  0  0  0  0  0
   -5.2132   -1.2556    1.1074 H   0  0  0  0  0  0  0  0  0  0  0  0
   -6.0781   -0.2968   -0.1171 H   0  0  0  0  0  0  0  0  0  0  0  0
  1  9  1  0  0  0  0
  2 10  2  0  0  0  0
  3  4  1  0  0  0  0
  3  5  1  0  0  0  0
  3 12  1  0  0  0  0
  3 13  1  0  0  0  0
  4  6  1  0  0  0  0
  4 14  1  0  0  0  0
  4 15  1  0  0  0  0
  5  7  1  0  0  0  0
  5 16  1  0  0  0  0
  5 17  1  0  0  0  0
  6  8  1  0  0  0  0
  6 18  1  0  0  0  0
  6 19  1  0  0  0  0
  7  9  1  0  0  0  0
  7 20  1  0  0  0  0
  7 21  1  0  0  0  0
  8 10  1  0  0  0  0
  8 22  1  0  0  0  0
  8 23  1  0  0  0  0
  9 24  1  0  0  0  0
  9 25  1  0  0  0  0
 10 11  1  0  0  0  0
 11 26  1  0  0  0  0
 11 27  1  0  0  0  0
 11 28  1  0  0  0  0
M  END
> <PUBCHEM_COMPOUND_CID>
11003

> <PUBCHEM_CONFORMER_RMSD>
0.8

> <PUBCHEM_CONFORMER_DIVERSEORDER>
1
68
31
149
6
153
16
157
9
30
158
150
131
77
34
123
76
11
124
26
151
20
89
28
155
3
146
114
97
27
57
8
134
147
12
33
36
43
152
47
154
21
51
122
93
4
79
136
17
81
107
156
18
78
25
145
40
37
24
127
137
50
103
142
2
46
58
120
106
96
74
138
44
109
5
110
139
55
91
148
70
95
35
112
73
63
90
132
56
72
39
64
86
15
88
87
100
111
75
54
38
121
113
45
22
84
14
62
61
144
29
13
67
141
41
66
69
119
105
98
53
83
10
108
128
71
49
104
94
7
126
92
115
52
117
19
32
129
143
48
101
102
42
80
23
82
99
135
85
116
118
133
130
60
140
59
125
65

> <PUBCHEM_MMFF94_PARTIAL_CHARGES>
6
1 -0.34
10 0.45
11 0.06
2 -0.57
8 0.06
9 0.34

> <PUBCHEM_EFFECTIVE_ROTOR_COUNT>
7

> <PUBCHEM_PHARMACOPHORE_FEATURES>
3
1 2 acceptor
3 3 5 7 hydrophobe
3 4 6 8 hydrophobe

> <PUBCHEM_HEAVY_ATOM_COUNT>
11

> <PUBCHEM_ATOM_DEF_STEREO_COUNT>
0

> <PUBCHEM_ATOM_UDEF_STEREO_COUNT>
0

> <PUBCHEM_BOND_DEF_STEREO_COUNT>
0

> <PUBCHEM_BOND_UDEF_STEREO_COUNT>
0

> <PUBCHEM_ISOTOPIC_ATOM_COUNT>
0

> <PUBCHEM_COMPONENT_COUNT>
1

> <PUBCHEM_CACTVS_TAUTO_COUNT>
3

> <PUBCHEM_CONFORMER_ID>
00002AFB00000001

> <PUBCHEM_MMFF94_ENERGY>
1.8999

> <PUBCHEM_FEATURE_SELFOVERLAP>
15.223

> <PUBCHEM_SHAPE_FINGERPRINT>
11062470 55 18413109450385802057
14123238 8 16056882424635835459
1420 363 18201433658430198971
15242439 84 18413107255863157698
15501527 16 18410291445756548457
17834072 33 18340768148119999436
17834076 25 16702021976403943498
20645477 70 18113895005187657678
20719005 15 18410856546754887698
20828058 21 18272091595149998985
22485316 2 17968099707351326534
23402539 116 4823213896827477169
300161 21 7565349708517426261
366044 4 18202003213711181178
42788 4 18412545405548016600
522135 26 16487258772971931800

> <PUBCHEM_SHAPE_MULTIPOLES>
213.23
12.72
0.97
0.65
2.59
0.09
0
-1.31
-0.61
-0.37
-0.05
0.17
-0.03
0.38

> <PUBCHEM_SHAPE_SELFOVERLAP>
384.904

> <PUBCHEM_SHAPE_VOLUME>
136.9

> <PUBCHEM_COORDINATE_TYPE>
2
5
10

$$$$

