442195
  -OEChem-07051212573D

 72 76  0     1  0  0  0  0  0999 V2000
    3.8360   -3.4145    0.4085 O   0  0  0  0  0  0  0  0  0  0  0  0
    6.2031   -2.5998   -0.7938 O   0  0  0  0  0  0  0  0  0  0  0  0
   -5.4790   -1.0649   -2.7163 O   0  0  0  0  0  0  0  0  0  0  0  0
   -7.1864   -2.0882   -0.7799 O   0  0  0  0  0  0  0  0  0  0  0  0
    2.3896    2.5423   -0.2047 N   0  0  1  0  0  0  0  0  0  0  0  0
   -1.9340    0.1617    2.1591 N   0  0  0  0  0  0  0  0  0  0  0  0
   -0.3433    1.7852    0.4887 C   0  0  2  0  0  0  0  0  0  0  0  0
   -0.0006    3.1800   -0.0731 C   0  0  2  0  0  0  0  0  0  0  0  0
    2.1551    1.2310    0.4477 C   0  0  1  0  0  0  0  0  0  0  0  0
    0.7317    0.7652    0.0709 C   0  0  0  0  0  0  0  0  0  0  0  0
    1.4478    3.5574    0.2823 C   0  0  0  0  0  0  0  0  0  0  0  0
   -1.7223    1.2928    0.0424 C   0  0  0  0  0  0  0  0  0  0  0  0
    3.7732    2.9836   -0.0098 C   0  0  0  0  0  0  0  0  0  0  0  0
   -0.9525    4.2656    0.4371 C   0  0  0  0  0  0  0  0  0  0  0  0
    3.2237    0.1949    0.0957 C   0  0  0  0  0  0  0  0  0  0  0  0
   -2.0769   -0.0440    0.7051 C   0  0  2  0  0  0  0  0  0  0  0  0
    4.7054    2.0521   -0.7804 C   0  0  0  0  0  0  0  0  0  0  0  0
    4.4497    0.6022   -0.4669 C   0  0  0  0  0  0  0  0  0  0  0  0
   -3.4502   -0.5657    0.3035 C   0  0  0  0  0  0  0  0  0  0  0  0
   -0.6585    5.6026   -0.2119 C   0  0  0  0  0  0  0  0  0  0  0  0
    3.0522   -1.1651    0.4039 C   0  0  0  0  0  0  0  0  0  0  0  0
   -2.3966   -1.0027    2.9069 C   0  0  0  0  0  0  0  0  0  0  0  0
    5.4353   -0.3478   -0.7759 C   0  0  0  0  0  0  0  0  0  0  0  0
   -4.3066   -1.1267    1.2725 C   0  0  0  0  0  0  0  0  0  0  0  0
   -3.9030   -1.1598    2.7242 C   0  0  0  0  0  0  0  0  0  0  0  0
    4.0435   -2.1023    0.1049 C   0  0  0  0  0  0  0  0  0  0  0  0
    5.2310   -1.6954   -0.4924 C   0  0  0  0  0  0  0  0  0  0  0  0
   -3.8600   -0.5751   -1.0397 C   0  0  0  0  0  0  0  0  0  0  0  0
   -5.5646   -1.6212    0.8978 C   0  0  0  0  0  0  0  0  0  0  0  0
   -5.1093   -1.0805   -1.4049 C   0  0  0  0  0  0  0  0  0  0  0  0
   -5.9636   -1.5970   -0.4363 C   0  0  0  0  0  0  0  0  0  0  0  0
    4.2512   -3.8541    1.7000 C   0  0  0  0  0  0  0  0  0  0  0  0
    6.1490   -3.2048   -2.0845 C   0  0  0  0  0  0  0  0  0  0  0  0
   -6.1700    0.0930   -3.1807 C   0  0  0  0  0  0  0  0  0  0  0  0
   -0.3100    1.8802    1.5819 H   0  0  0  0  0  0  0  0  0  0  0  0
   -0.0840    3.1350   -1.1690 H   0  0  0  0  0  0  0  0  0  0  0  0
    2.2076    1.3582    1.5394 H   0  0  0  0  0  0  0  0  0  0  0  0
    0.6737    0.5712   -1.0092 H   0  0  0  0  0  0  0  0  0  0  0  0
    0.5400   -0.1838    0.5745 H   0  0  0  0  0  0  0  0  0  0  0  0
    1.5560    3.7057    1.3651 H   0  0  0  0  0  0  0  0  0  0  0  0
    1.7027    4.5047   -0.2042 H   0  0  0  0  0  0  0  0  0  0  0  0
   -2.5022    2.0206    0.2922 H   0  0  0  0  0  0  0  0  0  0  0  0
   -1.7256    1.2039   -1.0503 H   0  0  0  0  0  0  0  0  0  0  0  0
    3.9185    3.9992   -0.3982 H   0  0  0  0  0  0  0  0  0  0  0  0
    4.0349    3.0028    1.0566 H   0  0  0  0  0  0  0  0  0  0  0  0
   -1.9890    4.0152    0.1948 H   0  0  0  0  0  0  0  0  0  0  0  0
   -0.8923    4.3594    1.5277 H   0  0  0  0  0  0  0  0  0  0  0  0
   -1.3780   -0.8265    0.3892 H   0  0  0  0  0  0  0  0  0  0  0  0
    4.5724    2.2004   -1.8597 H   0  0  0  0  0  0  0  0  0  0  0  0
    5.7422    2.3102   -0.5331 H   0  0  0  0  0  0  0  0  0  0  0  0
   -2.4712    0.9809    2.4451 H   0  0  0  0  0  0  0  0  0  0  0  0
    0.2591    6.0560    0.1737 H   0  0  0  0  0  0  0  0  0  0  0  0
   -0.5815    5.5172   -1.3006 H   0  0  0  0  0  0  0  0  0  0  0  0
   -1.4697    6.3054    0.0080 H   0  0  0  0  0  0  0  0  0  0  0  0
    2.1469   -1.5136    0.8933 H   0  0  0  0  0  0  0  0  0  0  0  0
   -1.8620   -1.9030    2.5789 H   0  0  0  0  0  0  0  0  0  0  0  0
   -2.1672   -0.8684    3.9695 H   0  0  0  0  0  0  0  0  0  0  0  0
    6.3698   -0.0297   -1.2328 H   0  0  0  0  0  0  0  0  0  0  0  0
   -4.4298   -0.3515    3.2472 H   0  0  0  0  0  0  0  0  0  0  0  0
   -4.2147   -2.1089    3.1763 H   0  0  0  0  0  0  0  0  0  0  0  0
   -3.2042   -0.1984   -1.8200 H   0  0  0  0  0  0  0  0  0  0  0  0
   -6.2275   -2.0301    1.6574 H   0  0  0  0  0  0  0  0  0  0  0  0
    3.7062   -3.3158    2.4819 H   0  0  0  0  0  0  0  0  0  0  0  0
    5.3291   -3.7124    1.8274 H   0  0  0  0  0  0  0  0  0  0  0  0
    4.0262   -4.9205    1.7876 H   0  0  0  0  0  0  0  0  0  0  0  0
    6.9860   -3.9030   -2.1709 H   0  0  0  0  0  0  0  0  0  0  0  0
    5.2147   -3.7610   -2.2103 H   0  0  0  0  0  0  0  0  0  0  0  0
    6.2434   -2.4459   -2.8676 H   0  0  0  0  0  0  0  0  0  0  0  0
   -7.6385   -2.4037    0.0214 H   0  0  0  0  0  0  0  0  0  0  0  0
   -7.1077    0.2285   -2.6327 H   0  0  0  0  0  0  0  0  0  0  0  0
   -6.4013   -0.0479   -4.2401 H   0  0  0  0  0  0  0  0  0  0  0  0
   -5.5410    0.9827   -3.0751 H   0  0  0  0  0  0  0  0  0  0  0  0
  1 26  1  0  0  0  0
  1 32  1  0  0  0  0
  2 27  1  0  0  0  0
  2 33  1  0  0  0  0
  3 30  1  0  0  0  0
  3 34  1  0  0  0  0
  4 31  1  0  0  0  0
  4 69  1  0  0  0  0
  5  9  1  0  0  0  0
  5 11  1  0  0  0  0
  5 13  1  0  0  0  0
  6 16  1  0  0  0  0
  6 22  1  0  0  0  0
  6 51  1  0  0  0  0
  7  8  1  0  0  0  0
  7 10  1  0  0  0  0
  7 12  1  0  0  0  0
  7 35  1  0  0  0  0
  8 11  1  0  0  0  0
  8 14  1  0  0  0  0
  8 36  1  0  0  0  0
  9 10  1  0  0  0  0
  9 15  1  0  0  0  0
  9 37  1  0  0  0  0
 10 38  1  0  0  0  0
 10 39  1  0  0  0  0
 11 40  1  0  0  0  0
 11 41  1  0  0  0  0
 12 16  1  0  0  0  0
 12 42  1  0  0  0  0
 12 43  1  0  0  0  0
 13 17  1  0  0  0  0
 13 44  1  0  0  0  0
 13 45  1  0  0  0  0
 14 20  1  0  0  0  0
 14 46  1  0  0  0  0
 14 47  1  0  0  0  0
 15 18  1  0  0  0  0
 15 21  2  0  0  0  0
 16 19  1  0  0  0  0
 16 48  1  0  0  0  0
 17 18  1  0  0  0  0
 17 49  1  0  0  0  0
 17 50  1  0  0  0  0
 18 23  2  0  0  0  0
 19 24  1  0  0  0  0
 19 28  2  0  0  0  0
 20 52  1  0  0  0  0
 20 53  1  0  0  0  0
 20 54  1  0  0  0  0
 21 26  1  0  0  0  0
 21 55  1  0  0  0  0
 22 25  1  0  0  0  0
 22 56  1  0  0  0  0
 22 57  1  0  0  0  0
 23 27  1  0  0  0  0
 23 58  1  0  0  0  0
 24 25  1  0  0  0  0
 24 29  2  0  0  0  0
 25 59  1  0  0  0  0
 25 60  1  0  0  0  0
 26 27  2  0  0  0  0
 28 30  1  0  0  0  0
 28 61  1  0  0  0  0
 29 31  1  0  0  0  0
 29 62  1  0  0  0  0
 30 31  2  0  0  0  0
 32 63  1  0  0  0  0
 32 64  1  0  0  0  0
 32 65  1  0  0  0  0
 33 66  1  0  0  0  0
 33 67  1  0  0  0  0
 33 68  1  0  0  0  0
 34 70  1  0  0  0  0
 34 71  1  0  0  0  0
 34 72  1  0  0  0  0
M  END
> <PUBCHEM_COMPOUND_CID>
442195

> <PUBCHEM_CONFORMER_RMSD>
1

> <PUBCHEM_CONFORMER_DIVERSEORDER>
1
3
2

> <PUBCHEM_MMFF94_PARTIAL_CHARGES>
34
1 -0.36
11 0.27
13 0.27
15 -0.14
16 0.41
17 0.14
18 -0.14
19 -0.14
2 -0.36
21 -0.15
22 0.27
23 -0.15
24 -0.14
25 0.14
26 0.08
27 0.08
28 -0.15
29 -0.15
3 -0.36
30 0.08
31 0.08
32 0.28
33 0.28
34 0.28
4 -0.53
5 -0.81
51 0.36
55 0.15
58 0.15
6 -0.9
61 0.15
62 0.15
69 0.45
9 0.41

> <PUBCHEM_EFFECTIVE_ROTOR_COUNT>
8

> <PUBCHEM_PHARMACOPHORE_FEATURES>
13
1 1 acceptor
1 2 acceptor
1 20 hydrophobe
1 3 acceptor
1 4 donor
1 5 cation
1 6 cation
1 6 donor
6 15 18 21 23 26 27 rings
6 19 24 28 29 30 31 rings
6 5 7 8 9 10 11 rings
6 5 9 13 15 17 18 rings
6 6 16 19 22 24 25 rings

> <PUBCHEM_HEAVY_ATOM_COUNT>
34

> <PUBCHEM_ATOM_DEF_STEREO_COUNT>
4

> <PUBCHEM_ATOM_UDEF_STEREO_COUNT>
0

> <PUBCHEM_BOND_DEF_STEREO_COUNT>
0

> <PUBCHEM_BOND_UDEF_STEREO_COUNT>
0

> <PUBCHEM_ISOTOPIC_ATOM_COUNT>
0

> <PUBCHEM_COMPONENT_COUNT>
1

> <PUBCHEM_CACTVS_TAUTO_COUNT>
9

> <PUBCHEM_CONFORMER_ID>
0006BF5300000001

> <PUBCHEM_MMFF94_ENERGY>
117.5322

> <PUBCHEM_FEATURE_SELFOVERLAP>
66.036

> <PUBCHEM_SHAPE_FINGERPRINT>
10319926 262 14418400097230021427
10429389 16 17917161584283860701
10622 236 18260550051768937675
11135926 11 18123734384410330224
11475781 23 17417548950614191365
117089 54 18044080483796241542
11991303 11 17839174456965707661
12107183 9 18190445229722805881
12166972 35 17968097452794046681
12236239 1 17532078415870624617
12342043 65 17629462113666774051
13533116 47 18260825947498585673
1361 2 18337955571564543019
1361 87 18130771361638293306
13690498 29 18194381498392514508
13782708 43 17630314235089019459
13911987 19 17911781497933377476
14931854 50 17917141814692432082
15320294 125 16877940500228240727
15361156 5 18196348507319700260
15721738 15 17845386590109014243
16628084 112 17841713216776837305
17349148 13 17386559155698712005
17492 89 18337385071865281996
19301676 85 17329425558922730335
19304144 158 16985458314366202756
19315092 285 17748829592313153128
20775530 9 18337944714387937280
21033650 10 15985100812617687697
21458453 9 6194270906498638285
21703447 108 18409738357074633816
23536364 44 18201728383534206293
23559900 14 17774718641397732065
23569914 152 17766308709259797487
24771750 20 17265800733918121901
25269216 80 15051432874872690875
314194 84 18336259042276139632
34797466 226 17131265736604065381
3729539 64 18343025480369117835
3882209 13 17482861217100128202
4015057 19 18340767023339760649
437795 70 18269572662078961501
44880168 125 17609202808276025154
46194498 28 17344620436077343189
4756261 7 7851277815000998981
50009960 94 18056488485869976442
504843 32 16896525286868761288
513202 73 18262509415738427951
5309563 4 18410567409899587914
613672 6 18342181037899888344

> <PUBCHEM_SHAPE_MULTIPOLES>
666.26
16.71
5.52
2.2
6.62
5.91
0.26
-17.91
8.98
-6.02
-0.33
4.08
-1.66
0.51

> <PUBCHEM_SHAPE_SELFOVERLAP>
1427.052

> <PUBCHEM_SHAPE_VOLUME>
368.2

> <PUBCHEM_COORDINATE_TYPE>
2
5
10

$$$$

