440987
  -OEChem-07051212512D

 21 22  0     0  0  0  0  0  0999 V2000
    2.0000   -0.7073    0.0000 O   0  0  0  0  0  0  0  0  0  0  0  0
    3.7320   -0.7073    0.0000 N   0  0  0  0  0  0  0  0  0  0  0  0
    4.5981    0.7927    0.0000 C   0  0  0  0  0  0  0  0  0  0  0  0
    4.5981   -0.2073    0.0000 C   0  0  0  0  0  0  0  0  0  0  0  0
    2.8660    0.7927    0.0000 C   0  0  0  0  0  0  0  0  0  0  0  0
    3.7320    1.2927    0.0000 C   0  0  0  0  0  0  0  0  0  0  0  0
    2.8660   -0.2073    0.0000 C   0  0  0  0  0  0  0  0  0  0  0  0
    5.4920    1.3273    0.0000 C   0  0  0  0  0  0  0  0  0  0  0  0
    5.4920   -0.7420    0.0000 C   0  0  0  0  0  0  0  0  0  0  0  0
    2.0000    1.2927    0.0000 C   0  0  0  0  0  0  0  0  0  0  0  0
    6.3981    0.8135    0.0000 C   0  0  0  0  0  0  0  0  0  0  0  0
    6.3981   -0.2281    0.0000 C   0  0  0  0  0  0  0  0  0  0  0  0
    3.7320    1.9127    0.0000 H   0  0  0  0  0  0  0  0  0  0  0  0
    3.7320   -1.3273    0.0000 H   0  0  0  0  0  0  0  0  0  0  0  0
    5.4848    1.9473    0.0000 H   0  0  0  0  0  0  0  0  0  0  0  0
    5.4848   -1.3620    0.0000 H   0  0  0  0  0  0  0  0  0  0  0  0
    2.3100    1.8296    0.0000 H   0  0  0  0  0  0  0  0  0  0  0  0
    1.4631    1.6027    0.0000 H   0  0  0  0  0  0  0  0  0  0  0  0
    1.6900    0.7557    0.0000 H   0  0  0  0  0  0  0  0  0  0  0  0
    6.9338    1.1256    0.0000 H   0  0  0  0  0  0  0  0  0  0  0  0
    6.9338   -0.5402    0.0000 H   0  0  0  0  0  0  0  0  0  0  0  0
  1  7  2  0  0  0  0
  2  4  1  0  0  0  0
  2  7  1  0  0  0  0
  2 14  1  0  0  0  0
  3  4  1  0  0  0  0
  3  6  1  0  0  0  0
  3  8  2  0  0  0  0
  4  9  2  0  0  0  0
  5  6  2  0  0  0  0
  5  7  1  0  0  0  0
  5 10  1  0  0  0  0
  6 13  1  0  0  0  0
  8 11  1  0  0  0  0
  8 15  1  0  0  0  0
  9 12  1  0  0  0  0
  9 16  1  0  0  0  0
 10 17  1  0  0  0  0
 10 18  1  0  0  0  0
 10 19  1  0  0  0  0
 11 12  2  0  0  0  0
 11 20  1  0  0  0  0
 12 21  1  0  0  0  0
M  END
> <PUBCHEM_COMPOUND_CID>
440987

> <PUBCHEM_COMPOUND_CANONICALIZED>
1

> <PUBCHEM_CACTVS_COMPLEXITY>
232

> <PUBCHEM_CACTVS_HBOND_ACCEPTOR>
1

> <PUBCHEM_CACTVS_HBOND_DONOR>
1

> <PUBCHEM_CACTVS_ROTATABLE_BOND>
0

> <PUBCHEM_CACTVS_SUBSKEYS>
AAADccByIAAAAAAAAAAAAAAAAAAAAAAAAAAwQAAAAAAAAACBAAAAHgAQAAAADAiBmAAywILAAACIAiVSUACCAAAhAgAIiAEAZMgIICLAkZGEIAhglADIyYcQgAAOAAAAAAACAAAAAAAAAAQAAAAAAAAAAA==

> <PUBCHEM_IUPAC_OPENEYE_NAME>
3-methyl-1H-quinolin-2-one

> <PUBCHEM_IUPAC_CAS_NAME>
3-methyl-1H-quinolin-2-one

> <PUBCHEM_IUPAC_NAME>
3-methyl-1H-quinolin-2-one

> <PUBCHEM_IUPAC_SYSTEMATIC_NAME>
3-methyl-1H-quinolin-2-one

> <PUBCHEM_IUPAC_TRADITIONAL_NAME>
3-methylcarbostyril

> <PUBCHEM_IUPAC_INCHI>
InChI=1S/C10H9NO/c1-7-6-8-4-2-3-5-9(8)11-10(7)12/h2-6H,1H3,(H,11,12)

> <PUBCHEM_IUPAC_INCHIKEY>
POYSUXIHCXBJPN-UHFFFAOYSA-N

> <PUBCHEM_XLOGP3_AA>
1.7

> <PUBCHEM_EXACT_MASS>
159.068414

> <PUBCHEM_MOLECULAR_FORMULA>
C10H9NO

> <PUBCHEM_MOLECULAR_WEIGHT>
159.18456

> <PUBCHEM_OPENEYE_CAN_SMILES>
CC1=CC2=CC=CC=C2NC1=O

> <PUBCHEM_OPENEYE_ISO_SMILES>
CC1=CC2=CC=CC=C2NC1=O

> <PUBCHEM_CACTVS_TPSA>
29.1

> <PUBCHEM_MONOISOTOPIC_WEIGHT>
159.068414

> <PUBCHEM_TOTAL_CHARGE>
0

> <PUBCHEM_HEAVY_ATOM_COUNT>
12

> <PUBCHEM_ATOM_DEF_STEREO_COUNT>
0

> <PUBCHEM_ATOM_UDEF_STEREO_COUNT>
0

> <PUBCHEM_BOND_DEF_STEREO_COUNT>
0

> <PUBCHEM_BOND_UDEF_STEREO_COUNT>
0

> <PUBCHEM_ISOTOPIC_ATOM_COUNT>
0

> <PUBCHEM_COMPONENT_COUNT>
1

> <PUBCHEM_CACTVS_TAUTO_COUNT>
2

> <PUBCHEM_COORDINATE_TYPE>
1
5
255

> <PUBCHEM_BONDANNOTATIONS>
11  12  8
2  4  8
2  7  8
3  4  8
3  6  8
3  8  8
4  9  8
5  6  8
5  7  8
8  11  8
9  12  8

$$$$

