9543396
  -OEChem-07051213083D

 16 15  0     0  0  0  0  0  0999 V2000
    0.7515    1.4004   -0.3826 F   0  0  0  0  0  0  0  0  0  0  0  0
   -3.0034    0.0548    1.2350 O   0  0  0  0  0  0  0  0  0  0  0  0
    2.8439   -0.3228   -1.1619 O   0  0  0  0  0  0  0  0  0  0  0  0
   -3.1638   -0.7613   -0.8882 O   0  0  0  0  0  0  0  0  0  0  0  0
    2.9968    0.4931    0.9632 O   0  0  0  0  0  0  0  0  0  0  0  0
   -0.2543    0.5238   -0.1586 C   0  0  0  0  0  0  0  0  0  0  0  0
    0.1200   -0.8156    0.2380 C   0  0  0  0  0  0  0  0  0  0  0  0
   -1.5279    0.9124   -0.3064 C   0  0  0  0  0  0  0  0  0  0  0  0
    1.3922   -1.2085    0.3871 C   0  0  0  0  0  0  0  0  0  0  0  0
   -2.6416   -0.0271   -0.0669 C   0  0  0  0  0  0  0  0  0  0  0  0
    2.4867   -0.2493    0.1414 C   0  0  0  0  0  0  0  0  0  0  0  0
   -0.6542   -1.5526    0.4279 H   0  0  0  0  0  0  0  0  0  0  0  0
   -1.7800    1.9231   -0.6048 H   0  0  0  0  0  0  0  0  0  0  0  0
    1.6532   -2.2166    0.6848 H   0  0  0  0  0  0  0  0  0  0  0  0
   -3.7432   -0.5528    1.4495 H   0  0  0  0  0  0  0  0  0  0  0  0
    3.5711    0.2988   -1.3791 H   0  0  0  0  0  0  0  0  0  0  0  0
  1  6  1  0  0  0  0
  2 10  1  0  0  0  0
  2 15  1  0  0  0  0
  3 11  1  0  0  0  0
  3 16  1  0  0  0  0
  4 10  2  0  0  0  0
  5 11  2  0  0  0  0
  6  7  1  0  0  0  0
  6  8  2  0  0  0  0
  7  9  2  0  0  0  0
  7 12  1  0  0  0  0
  8 10  1  0  0  0  0
  8 13  1  0  0  0  0
  9 11  1  0  0  0  0
  9 14  1  0  0  0  0
M  END
> <PUBCHEM_COMPOUND_CID>
9543396

> <PUBCHEM_CONFORMER_RMSD>
0.6

> <PUBCHEM_CONFORMER_DIVERSEORDER>
1
2

> <PUBCHEM_MMFF94_PARTIAL_CHARGES>
16
1 -0.15
10 0.71
11 0.71
12 0.15
13 0.15
14 0.15
15 0.5
16 0.5
2 -0.65
3 -0.65
4 -0.57
5 -0.57
6 0.15
7 -0.15
8 -0.14
9 -0.14

> <PUBCHEM_EFFECTIVE_ROTOR_COUNT>
3

> <PUBCHEM_PHARMACOPHORE_FEATURES>
6
1 2 acceptor
1 3 acceptor
1 4 acceptor
1 5 acceptor
3 2 4 10 anion
3 3 5 11 anion

> <PUBCHEM_HEAVY_ATOM_COUNT>
11

> <PUBCHEM_ATOM_DEF_STEREO_COUNT>
0

> <PUBCHEM_ATOM_UDEF_STEREO_COUNT>
0

> <PUBCHEM_BOND_DEF_STEREO_COUNT>
2

> <PUBCHEM_BOND_UDEF_STEREO_COUNT>
0

> <PUBCHEM_ISOTOPIC_ATOM_COUNT>
0

> <PUBCHEM_COMPONENT_COUNT>
1

> <PUBCHEM_CACTVS_TAUTO_COUNT>
1

> <PUBCHEM_CONFORMER_ID>
00919EE400000001

> <PUBCHEM_MMFF94_ENERGY>
31.5561

> <PUBCHEM_FEATURE_SELFOVERLAP>
30.557

> <PUBCHEM_SHAPE_FINGERPRINT>
10857977 72 18202005434061268153
11062470 55 15410896279427490991
12897270 3 18201440315175671063
12932764 1 18334857268019228259
14128692 85 18335140856346663061
14325111 11 18335707160469088816
16945 1 18272650138472249323
20201158 50 17918278666432849107
23552423 10 17700976805867541098
29004967 10 18201719591139649729
3248919 1 17418095459342839891

> <PUBCHEM_SHAPE_MULTIPOLES>
195.62
5.17
1.12
0.96
0.78
0.06
-0.02
-0.44
-0.04
-0.11
0.02
0.03
-0.05
-0.02

> <PUBCHEM_SHAPE_SELFOVERLAP>
391.941

> <PUBCHEM_SHAPE_VOLUME>
114

> <PUBCHEM_COORDINATE_TYPE>
2
5
10

$$$$

