108121
  -OEChem-07051213063D

 13 14  0     1  0  0  0  0  0999 V2000
    3.0535   -0.2958   -0.1727 Br  0  0  0  0  0  0  0  0  0  0  0  0
   -1.9387   -0.5945   -0.7045 O   0  0  0  0  0  0  0  0  0  0  0  0
   -1.0771   -1.0136    0.3639 C   0  0  2  0  0  0  0  0  0  0  0  0
   -1.6408    0.4021    0.2843 C   0  0  1  0  0  0  0  0  0  0  0  0
    0.3857   -1.1417    0.2065 C   0  0  0  0  0  0  0  0  0  0  0  0
   -0.6561    1.4766    0.0630 C   0  0  0  0  0  0  0  0  0  0  0  0
    1.2077   -0.0907    0.0161 C   0  0  0  0  0  0  0  0  0  0  0  0
    0.6658    1.2576   -0.0566 C   0  0  0  0  0  0  0  0  0  0  0  0
   -1.5054   -1.6781    1.1057 H   0  0  0  0  0  0  0  0  0  0  0  0
   -2.4365    0.6601    0.9739 H   0  0  0  0  0  0  0  0  0  0  0  0
    0.7899   -2.1492    0.2550 H   0  0  0  0  0  0  0  0  0  0  0  0
   -1.0321    2.4932   -0.0014 H   0  0  0  0  0  0  0  0  0  0  0  0
    1.3397    2.0929   -0.2165 H   0  0  0  0  0  0  0  0  0  0  0  0
  1  7  1  0  0  0  0
  2  3  1  0  0  0  0
  2  4  1  0  0  0  0
  3  4  1  0  0  0  0
  3  5  1  0  0  0  0
  3  9  1  0  0  0  0
  4  6  1  0  0  0  0
  4 10  1  0  0  0  0
  5  7  2  0  0  0  0
  5 11  1  0  0  0  0
  6  8  2  0  0  0  0
  6 12  1  0  0  0  0
  7  8  1  0  0  0  0
  8 13  1  0  0  0  0
M  END
> <PUBCHEM_COMPOUND_CID>
108121

> <PUBCHEM_CONFORMER_RMSD>
0.4

> <PUBCHEM_CONFORMER_DIVERSEORDER>
1
2
3
4

> <PUBCHEM_MMFF94_PARTIAL_CHARGES>
13
1 -0.11
10 0.1
11 0.15
12 0.15
13 0.15
2 -0.3
3 0.09
4 0.09
5 -0.19
6 -0.19
7 0.11
8 -0.15
9 0.1

> <PUBCHEM_EFFECTIVE_ROTOR_COUNT>
0.2

> <PUBCHEM_PHARMACOPHORE_FEATURES>
3
1 1 hydrophobe
1 2 acceptor
7 2 3 4 5 6 7 8 rings

> <PUBCHEM_HEAVY_ATOM_COUNT>
8

> <PUBCHEM_ATOM_DEF_STEREO_COUNT>
0

> <PUBCHEM_ATOM_UDEF_STEREO_COUNT>
2

> <PUBCHEM_BOND_DEF_STEREO_COUNT>
0

> <PUBCHEM_BOND_UDEF_STEREO_COUNT>
0

> <PUBCHEM_ISOTOPIC_ATOM_COUNT>
0

> <PUBCHEM_COMPONENT_COUNT>
1

> <PUBCHEM_CACTVS_TAUTO_COUNT>
1

> <PUBCHEM_CONFORMER_ID>
0001A65900000001

> <PUBCHEM_MMFF94_ENERGY>
14.2

> <PUBCHEM_FEATURE_SELFOVERLAP>
15.223

> <PUBCHEM_SHAPE_FINGERPRINT>
13024252 1 17988917903218528678
15310529 11 16056882433415622202
16714656 1 18410569617422925186
18185500 45 18411703205104995363
21040471 1 17978230787540813824
23552423 10 18200870686964738342
29004967 10 18410848833162520274
369184 2 18408323315299260706
5084963 1 18259705579678386130

> <PUBCHEM_SHAPE_MULTIPOLES>
164.71
3.23
1.45
0.7
2.37
0.26
-0.02
-0.41
-0.3
-0.29
0.05
-0.06
-0.05
-0.07

> <PUBCHEM_SHAPE_SELFOVERLAP>
329.518

> <PUBCHEM_SHAPE_VOLUME>
100.5

> <PUBCHEM_COORDINATE_TYPE>
2
5
10

$$$$

