8486
  -OEChem-07051213132D

 12 12  0     0  0  0  0  0  0999 V2000
    4.2208   -0.4197    0.0000 S   0  0  0  0  0  0  0  0  0  0  0  0
    6.7240    0.5282    0.0000 O   0  5  0  0  0  0  0  0  0  0  0  0
    6.1888   -1.1191    0.0000 O   0  0  0  0  0  0  0  0  0  0  0  0
    3.7208    1.1191    0.0000 N   0  0  0  0  0  0  0  0  0  0  0  0
    5.9809   -0.1410    0.0000 N   0  3  0  0  0  0  0  0  0  0  0  0
    2.4608   -0.1410    0.0000 N   0  0  0  0  0  0  0  0  0  0  0  0
    5.0298    0.1681    0.0000 C   0  0  0  0  0  0  0  0  0  0  0  0
    3.4118    0.1681    0.0000 C   0  0  0  0  0  0  0  0  0  0  0  0
    4.7208    1.1191    0.0000 C   0  0  0  0  0  0  0  0  0  0  0  0
    5.0852    1.6207    0.0000 H   0  0  0  0  0  0  0  0  0  0  0  0
    2.0000    0.2739    0.0000 H   0  0  0  0  0  0  0  0  0  0  0  0
    2.3318   -0.7474    0.0000 H   0  0  0  0  0  0  0  0  0  0  0  0
  1  7  1  0  0  0  0
  1  8  1  0  0  0  0
  2  5  1  0  0  0  0
  3  5  2  0  0  0  0
  4  8  2  0  0  0  0
  4  9  1  0  0  0  0
  5  7  1  0  0  0  0
  6  8  1  0  0  0  0
  6 11  1  0  0  0  0
  6 12  1  0  0  0  0
  7  9  2  0  0  0  0
  9 10  1  0  0  0  0
M  CHG  2   2  -1   5   1
M  END
> <PUBCHEM_COMPOUND_CID>
8486

> <PUBCHEM_COMPOUND_CANONICALIZED>
1

> <PUBCHEM_CACTVS_COMPLEXITY>
125

> <PUBCHEM_CACTVS_HBOND_ACCEPTOR>
5

> <PUBCHEM_CACTVS_HBOND_DONOR>
1

> <PUBCHEM_CACTVS_ROTATABLE_BOND>
0

> <PUBCHEM_CACTVS_SUBSKEYS>
AAADcQBDMABAAAAAAAAAAAAAAAAAAWAAAAAAAAAAAAAAAAABgAAAHAQUAAAAAADBQgQtkRJYUAilABAnZwAA8KlRGjlgQAwIMAKAQAAAAAAQAAAAAIIAACAAAAAAAAAAAAAAAAAAAAAAAAAAAAAAAAAAAA==

> <PUBCHEM_IUPAC_OPENEYE_NAME>
5-nitrothiazol-2-amine

> <PUBCHEM_IUPAC_CAS_NAME>
5-nitro-2-thiazolamine

> <PUBCHEM_IUPAC_NAME>
5-nitro-1,3-thiazol-2-amine

> <PUBCHEM_IUPAC_SYSTEMATIC_NAME>
5-nitro-1,3-thiazol-2-amine

> <PUBCHEM_IUPAC_TRADITIONAL_NAME>
(5-nitrothiazol-2-yl)amine

> <PUBCHEM_IUPAC_INCHI>
InChI=1S/C3H3N3O2S/c4-3-5-1-2(9-3)6(7)8/h1H,(H2,4,5)

> <PUBCHEM_IUPAC_INCHIKEY>
MIHADVKEHAFNPG-UHFFFAOYSA-N

> <PUBCHEM_XLOGP3>
0.8

> <PUBCHEM_EXACT_MASS>
144.994597

> <PUBCHEM_MOLECULAR_FORMULA>
C3H3N3O2S

> <PUBCHEM_MOLECULAR_WEIGHT>
145.13982

> <PUBCHEM_OPENEYE_CAN_SMILES>
C1=C(SC(=N1)N)[N+](=O)[O-]

> <PUBCHEM_OPENEYE_ISO_SMILES>
C1=C(SC(=N1)N)[N+](=O)[O-]

> <PUBCHEM_CACTVS_TPSA>
113

> <PUBCHEM_MONOISOTOPIC_WEIGHT>
144.994597

> <PUBCHEM_TOTAL_CHARGE>
0

> <PUBCHEM_HEAVY_ATOM_COUNT>
9

> <PUBCHEM_ATOM_DEF_STEREO_COUNT>
0

> <PUBCHEM_ATOM_UDEF_STEREO_COUNT>
0

> <PUBCHEM_BOND_DEF_STEREO_COUNT>
0

> <PUBCHEM_BOND_UDEF_STEREO_COUNT>
0

> <PUBCHEM_ISOTOPIC_ATOM_COUNT>
0

> <PUBCHEM_COMPONENT_COUNT>
1

> <PUBCHEM_CACTVS_TAUTO_COUNT>
2

> <PUBCHEM_COORDINATE_TYPE>
1
5
255

> <PUBCHEM_BONDANNOTATIONS>
1  7  8
1  8  8
4  8  8
4  9  8
7  9  8

$$$$

