442819
  -OEChem-07051212593D

 48 52  0     1  0  0  0  0  0999 V2000
   -5.3471   -1.1367   -0.3081 O   0  0  0  0  0  0  0  0  0  0  0  0
   -1.2226    1.0176    0.0049 O   0  0  0  0  0  0  0  0  0  0  0  0
    2.1209    2.4716    0.1861 O   0  0  0  0  0  0  0  0  0  0  0  0
    0.8019   -2.4958   -0.0165 O   0  0  0  0  0  0  0  0  0  0  0  0
    5.5614   -1.8373   -0.0992 O   0  0  0  0  0  0  0  0  0  0  0  0
    0.0338    3.3705    0.1374 O   0  0  0  0  0  0  0  0  0  0  0  0
    6.5482    0.7490    0.1270 O   0  0  0  0  0  0  0  0  0  0  0  0
   -4.2101    0.9995   -0.1093 C   0  0  0  0  0  0  0  0  0  0  0  0
   -3.2695   -0.1433   -0.1749 C   0  0  0  0  0  0  0  0  0  0  0  0
   -5.4994    0.2871   -0.5479 C   0  0  2  0  0  0  0  0  0  0  0  0
   -3.9892   -1.3244   -0.2633 C   0  0  0  0  0  0  0  0  0  0  0  0
   -1.8880   -0.1641   -0.1016 C   0  0  0  0  0  0  0  0  0  0  0  0
   -1.2401   -1.3922   -0.1285 C   0  0  0  0  0  0  0  0  0  0  0  0
   -6.7095    0.7774    0.1744 C   0  0  0  0  0  0  0  0  0  0  0  0
    0.9385   -0.0931    0.0001 C   0  0  0  0  0  0  0  0  0  0  0  0
   -3.3704   -2.5591   -0.2788 C   0  0  0  0  0  0  0  0  0  0  0  0
    0.2292   -1.4149   -0.0488 C   0  0  0  0  0  0  0  0  0  0  0  0
   -1.9755   -2.5907   -0.2152 C   0  0  0  0  0  0  0  0  0  0  0  0
    0.1618    1.0097    0.0352 C   0  0  0  0  0  0  0  0  0  0  0  0
    2.4086    0.0531    0.0250 C   0  0  0  0  0  0  0  0  0  0  0  0
    2.9463    1.3368    0.1269 C   0  0  0  0  0  0  0  0  0  0  0  0
   -7.0189    0.1050    1.4791 C   0  0  0  0  0  0  0  0  0  0  0  0
    0.7452    2.3705    0.1191 C   0  0  0  0  0  0  0  0  0  0  0  0
    3.3266   -1.0043   -0.0542 C   0  0  0  0  0  0  0  0  0  0  0  0
   -7.4763    1.7633   -0.3145 C   0  0  0  0  0  0  0  0  0  0  0  0
    4.3223    1.5844    0.1653 C   0  0  0  0  0  0  0  0  0  0  0  0
    4.7094   -0.7756   -0.0190 C   0  0  0  0  0  0  0  0  0  0  0  0
    5.2076    0.5180    0.0935 C   0  0  0  0  0  0  0  0  0  0  0  0
    5.9533   -2.4463    1.1287 C   0  0  0  0  0  0  0  0  0  0  0  0
    7.2018    0.9641   -1.1230 C   0  0  0  0  0  0  0  0  0  0  0  0
   -4.2614    1.3863    0.9142 H   0  0  0  0  0  0  0  0  0  0  0  0
   -3.9486    1.8105   -0.7955 H   0  0  0  0  0  0  0  0  0  0  0  0
   -5.6333    0.4022   -1.6337 H   0  0  0  0  0  0  0  0  0  0  0  0
   -3.9431   -3.4775   -0.3410 H   0  0  0  0  0  0  0  0  0  0  0  0
   -1.4747   -3.5553   -0.2307 H   0  0  0  0  0  0  0  0  0  0  0  0
   -7.3060   -0.9399    1.3234 H   0  0  0  0  0  0  0  0  0  0  0  0
   -6.1525    0.1369    2.1476 H   0  0  0  0  0  0  0  0  0  0  0  0
   -7.8482    0.5952    2.0009 H   0  0  0  0  0  0  0  0  0  0  0  0
    3.0052   -2.0351   -0.1530 H   0  0  0  0  0  0  0  0  0  0  0  0
   -8.3547    2.1131    0.2173 H   0  0  0  0  0  0  0  0  0  0  0  0
   -7.2405    2.2435   -1.2585 H   0  0  0  0  0  0  0  0  0  0  0  0
    4.6939    2.6023    0.2472 H   0  0  0  0  0  0  0  0  0  0  0  0
    6.6341   -3.2709    0.9004 H   0  0  0  0  0  0  0  0  0  0  0  0
    5.0806   -2.8481    1.6533 H   0  0  0  0  0  0  0  0  0  0  0  0
    6.4768   -1.7269    1.7664 H   0  0  0  0  0  0  0  0  0  0  0  0
    8.2658    1.1252   -0.9297 H   0  0  0  0  0  0  0  0  0  0  0  0
    6.7973    1.8521   -1.6189 H   0  0  0  0  0  0  0  0  0  0  0  0
    7.0922    0.0886   -1.7708 H   0  0  0  0  0  0  0  0  0  0  0  0
  1 10  1  0  0  0  0
  1 11  1  0  0  0  0
  2 12  1  0  0  0  0
  2 19  1  0  0  0  0
  3 21  1  0  0  0  0
  3 23  1  0  0  0  0
  4 17  2  0  0  0  0
  5 27  1  0  0  0  0
  5 29  1  0  0  0  0
  6 23  2  0  0  0  0
  7 28  1  0  0  0  0
  7 30  1  0  0  0  0
  8  9  1  0  0  0  0
  8 10  1  0  0  0  0
  8 31  1  0  0  0  0
  8 32  1  0  0  0  0
  9 11  2  0  0  0  0
  9 12  1  0  0  0  0
 10 14  1  0  0  0  0
 10 33  1  0  0  0  0
 11 16  1  0  0  0  0
 12 13  2  0  0  0  0
 13 17  1  0  0  0  0
 13 18  1  0  0  0  0
 14 22  1  0  0  0  0
 14 25  2  0  0  0  0
 15 17  1  0  0  0  0
 15 19  2  0  0  0  0
 15 20  1  0  0  0  0
 16 18  2  0  0  0  0
 16 34  1  0  0  0  0
 18 35  1  0  0  0  0
 19 23  1  0  0  0  0
 20 21  1  0  0  0  0
 20 24  2  0  0  0  0
 21 26  2  0  0  0  0
 22 36  1  0  0  0  0
 22 37  1  0  0  0  0
 22 38  1  0  0  0  0
 24 27  1  0  0  0  0
 24 39  1  0  0  0  0
 25 40  1  0  0  0  0
 25 41  1  0  0  0  0
 26 28  1  0  0  0  0
 26 42  1  0  0  0  0
 27 28  2  0  0  0  0
 29 43  1  0  0  0  0
 29 44  1  0  0  0  0
 29 45  1  0  0  0  0
 30 46  1  0  0  0  0
 30 47  1  0  0  0  0
 30 48  1  0  0  0  0
M  END
> <PUBCHEM_COMPOUND_CID>
442819

> <PUBCHEM_CONFORMER_RMSD>
0.8

> <PUBCHEM_CONFORMER_DIVERSEORDER>
1
2

> <PUBCHEM_MMFF94_PARTIAL_CHARGES>
36
1 -0.36
10 0.42
11 0.08
12 0.08
13 0.09
14 -0.28
15 -0.01
16 -0.15
17 0.47
18 -0.15
19 0.09
2 -0.16
20 0.03
21 0.08
22 0.14
23 0.71
24 -0.15
25 -0.3
26 -0.15
27 0.08
28 0.08
29 0.28
3 -0.23
30 0.28
34 0.15
35 0.15
39 0.15
4 -0.57
40 0.15
41 0.15
42 0.15
5 -0.36
6 -0.57
7 -0.36
8 0.14
9 -0.14

> <PUBCHEM_EFFECTIVE_ROTOR_COUNT>
3.6

> <PUBCHEM_PHARMACOPHORE_FEATURES>
11
1 1 acceptor
1 2 acceptor
1 4 acceptor
1 5 acceptor
1 6 acceptor
1 7 acceptor
5 1 8 9 10 11 rings
6 2 12 13 15 17 19 rings
6 20 21 24 26 27 28 rings
6 3 15 19 20 21 23 rings
6 9 11 12 13 16 18 rings

> <PUBCHEM_HEAVY_ATOM_COUNT>
30

> <PUBCHEM_ATOM_DEF_STEREO_COUNT>
1

> <PUBCHEM_ATOM_UDEF_STEREO_COUNT>
0

> <PUBCHEM_BOND_DEF_STEREO_COUNT>
0

> <PUBCHEM_BOND_UDEF_STEREO_COUNT>
0

> <PUBCHEM_ISOTOPIC_ATOM_COUNT>
0

> <PUBCHEM_COMPONENT_COUNT>
1

> <PUBCHEM_CACTVS_TAUTO_COUNT>
1

> <PUBCHEM_CONFORMER_ID>
0006C1C300000001

> <PUBCHEM_MMFF94_ENERGY>
120.1802

> <PUBCHEM_FEATURE_SELFOVERLAP>
56.008

> <PUBCHEM_SHAPE_FINGERPRINT>
10 15 18272929432423244907
10050765 1 18121219766577657253
10835480 77 18189624851755563288
10906281 52 18263346079678558023
11578080 2 17097512898563303816
12236239 1 18272653445724012091
12788726 201 18040711502357339272
12838862 33 18337690662245096248
13140716 1 18265893562827333137
13402501 40 18410576184190622117
13914758 101 15357966902295005723
14117953 113 18115025320389641102
14251764 18 18409449172335759495
14790565 3 18410289250532543801
14849402 71 18337386033442980705
15183329 4 18333448755037978329
15196674 1 18337956692482259887
15420108 30 17539394836418812377
1577012 14 18408889524832569167
16087824 20 18410291458467857645
17492 89 18122347869961582423
18681886 176 18114753633526735771
19611394 137 17986379007397533707
20642791 178 18058157337121865261
21033648 29 17604726460099798658
21130935 74 18334017168237903243
21133410 171 16964416977768688270
21267235 1 18339077203017574730
21279426 13 18339082691167926567
21298829 104 18260543476902423769
21792934 111 18337404836972703048
23559900 14 18262244317477557928
24771293 8 18117011996304196296
24893992 56 18411139148331757113
3004659 81 18272089418598936846
3178227 256 18341319051270385113
335352 9 18409450271936961021
350125 39 18411419527179671309
3680242 22 18412547634346237594
4017518 198 16950274101570514694
4073 2 18129942252751066210
4093350 32 16733538433458391087
4149490 64 17060338514383021370
4340502 62 16415763033227809530
5104073 3 18336830784328530675
6086070 43 17313106298437377915
6138700 20 18410856607074814598
6328613 192 18339357474570259188
7226269 152 17967530186472554153

> <PUBCHEM_SHAPE_MULTIPOLES>
576.3
18.63
2.91
0.79
4.38
0.11
0.11
-2.49
0.65
-0.81
0.12
0.1
0.06
-0.81

> <PUBCHEM_SHAPE_SELFOVERLAP>
1296.925

> <PUBCHEM_SHAPE_VOLUME>
304.3

> <PUBCHEM_COORDINATE_TYPE>
2
5
10

$$$$

