51091000
  -OEChem-06241223012D

 45 48  0     0  0  0  0  0  0999 V2000
    9.8744   -2.0742    0.0000 O   0  0  0  0  0  0  0  0  0  0  0  0
    6.3301    0.7306    0.0000 O   0  0  0  0  0  0  0  0  0  0  0  0
    2.8660    0.7306    0.0000 N   0  0  0  0  0  0  0  0  0  0  0  0
    5.4641   -0.7694    0.0000 N   0  0  0  0  0  0  0  0  0  0  0  0
    8.0622   -2.2694    0.0000 N   0  0  0  0  0  0  0  0  0  0  0  0
   10.4580   -1.2694    0.0000 N   0  0  0  0  0  0  0  0  0  0  0  0
    3.6750    1.3184    0.0000 C   0  0  0  0  0  0  0  0  0  0  0  0
    2.0570    1.3184    0.0000 C   0  0  0  0  0  0  0  0  0  0  0  0
    3.3660    2.2694    0.0000 C   0  0  0  0  0  0  0  0  0  0  0  0
    2.3660    2.2694    0.0000 C   0  0  0  0  0  0  0  0  0  0  0  0
    2.8660   -0.2694    0.0000 C   0  0  0  0  0  0  0  0  0  0  0  0
    3.7320   -0.7694    0.0000 C   0  0  0  0  0  0  0  0  0  0  0  0
    2.0000   -0.7694    0.0000 C   0  0  0  0  0  0  0  0  0  0  0  0
    4.5981   -0.2694    0.0000 C   0  0  0  0  0  0  0  0  0  0  0  0
    3.7320   -1.7694    0.0000 C   0  0  0  0  0  0  0  0  0  0  0  0
    2.0000   -1.7694    0.0000 C   0  0  0  0  0  0  0  0  0  0  0  0
    2.8660   -2.2694    0.0000 C   0  0  0  0  0  0  0  0  0  0  0  0
    6.3301   -0.2694    0.0000 C   0  0  0  0  0  0  0  0  0  0  0  0
    7.1962   -0.7694    0.0000 C   0  0  0  0  0  0  0  0  0  0  0  0
    8.9282   -0.7694    0.0000 C   0  0  0  0  0  0  0  0  0  0  0  0
    8.0622   -0.2694    0.0000 C   0  0  0  0  0  0  0  0  0  0  0  0
    8.9282   -1.7694    0.0000 C   0  0  0  0  0  0  0  0  0  0  0  0
    7.1962   -1.7694    0.0000 C   0  0  0  0  0  0  0  0  0  0  0  0
    9.8744   -0.4647    0.0000 C   0  0  0  0  0  0  0  0  0  0  0  0
   10.1851    0.4858    0.0000 C   0  0  0  0  0  0  0  0  0  0  0  0
    3.9850    0.7814    0.0000 H   0  0  0  0  0  0  0  0  0  0  0  0
    4.2414    1.5705    0.0000 H   0  0  0  0  0  0  0  0  0  0  0  0
    1.4906    1.5705    0.0000 H   0  0  0  0  0  0  0  0  0  0  0  0
    1.7470    0.7814    0.0000 H   0  0  0  0  0  0  0  0  0  0  0  0
    3.9725    2.3983    0.0000 H   0  0  0  0  0  0  0  0  0  0  0  0
    3.3012    2.8860    0.0000 H   0  0  0  0  0  0  0  0  0  0  0  0
    2.4308    2.8860    0.0000 H   0  0  0  0  0  0  0  0  0  0  0  0
    1.7596    2.3983    0.0000 H   0  0  0  0  0  0  0  0  0  0  0  0
    1.4631   -0.4594    0.0000 H   0  0  0  0  0  0  0  0  0  0  0  0
    4.9966    0.2055    0.0000 H   0  0  0  0  0  0  0  0  0  0  0  0
    4.1996    0.2055    0.0000 H   0  0  0  0  0  0  0  0  0  0  0  0
    4.2690   -2.0794    0.0000 H   0  0  0  0  0  0  0  0  0  0  0  0
    1.4631   -2.0794    0.0000 H   0  0  0  0  0  0  0  0  0  0  0  0
    2.8660   -2.8894    0.0000 H   0  0  0  0  0  0  0  0  0  0  0  0
    5.4641   -1.3894    0.0000 H   0  0  0  0  0  0  0  0  0  0  0  0
    8.0622    0.3506    0.0000 H   0  0  0  0  0  0  0  0  0  0  0  0
    6.6592   -2.0794    0.0000 H   0  0  0  0  0  0  0  0  0  0  0  0
   10.7744    0.2932    0.0000 H   0  0  0  0  0  0  0  0  0  0  0  0
   10.3777    1.0752    0.0000 H   0  0  0  0  0  0  0  0  0  0  0  0
    9.5958    0.6784    0.0000 H   0  0  0  0  0  0  0  0  0  0  0  0
  1  6  1  0  0  0  0
  1 22  1  0  0  0  0
  2 18  2  0  0  0  0
  3  7  1  0  0  0  0
  3  8  1  0  0  0  0
  3 11  1  0  0  0  0
  4 14  1  0  0  0  0
  4 18  1  0  0  0  0
  4 40  1  0  0  0  0
  5 22  1  0  0  0  0
  5 23  2  0  0  0  0
  6 24  2  0  0  0  0
  7  9  1  0  0  0  0
  7 26  1  0  0  0  0
  7 27  1  0  0  0  0
  8 10  1  0  0  0  0
  8 28  1  0  0  0  0
  8 29  1  0  0  0  0
  9 10  1  0  0  0  0
  9 30  1  0  0  0  0
  9 31  1  0  0  0  0
 10 32  1  0  0  0  0
 10 33  1  0  0  0  0
 11 12  1  0  0  0  0
 11 13  2  0  0  0  0
 12 14  1  0  0  0  0
 12 15  2  0  0  0  0
 13 16  1  0  0  0  0
 13 34  1  0  0  0  0
 14 35  1  0  0  0  0
 14 36  1  0  0  0  0
 15 17  1  0  0  0  0
 15 37  1  0  0  0  0
 16 17  2  0  0  0  0
 16 38  1  0  0  0  0
 17 39  1  0  0  0  0
 18 19  1  0  0  0  0
 19 21  2  0  0  0  0
 19 23  1  0  0  0  0
 20 21  1  0  0  0  0
 20 22  2  0  0  0  0
 20 24  1  0  0  0  0
 21 41  1  0  0  0  0
 23 42  1  0  0  0  0
 24 25  1  0  0  0  0
 25 43  1  0  0  0  0
 25 44  1  0  0  0  0
 25 45  1  0  0  0  0
M  END
> <PUBCHEM_COMPOUND_CID>
51091000

> <PUBCHEM_COMPOUND_CANONICALIZED>
1

> <PUBCHEM_CACTVS_COMPLEXITY>
468

> <PUBCHEM_CACTVS_HBOND_ACCEPTOR>
5

> <PUBCHEM_CACTVS_HBOND_DONOR>
1

> <PUBCHEM_CACTVS_ROTATABLE_BOND>
4

> <PUBCHEM_CACTVS_SUBSKEYS>
AAADceB7sAAAAAAAAAAAAAAAAAAAAWLAAAA8QAAAAAAAAFgB/AAAHgAUAAAADAjBngQ+xNPYEACpAzV3VgCCgCA1IiAo2KE8bNoIJvrA1dOENYhmxhnIyceYnwIeAAAAAAACAAAAAAAAAAQAAAAAAAAAAA==

> <PUBCHEM_IUPAC_OPENEYE_NAME>
3-methyl-N-[(2-pyrrolidin-1-ylphenyl)methyl]isoxazolo[5,4-b]pyridine-5-carboxamide

> <PUBCHEM_IUPAC_CAS_NAME>
3-methyl-N-[[2-(1-pyrrolidinyl)phenyl]methyl]-5-isoxazolo[5,4-b]pyridinecarboxamide

> <PUBCHEM_IUPAC_NAME>
3-methyl-N-[(2-pyrrolidin-1-ylphenyl)methyl]-[1,2]oxazolo[5,4-b]pyridine-5-carboxamide

> <PUBCHEM_IUPAC_SYSTEMATIC_NAME>
3-methyl-N-[(2-pyrrolidin-1-ylphenyl)methyl]-[1,2]oxazolo[5,4-b]pyridine-5-carboxamide

> <PUBCHEM_IUPAC_TRADITIONAL_NAME>
3-methyl-N-(2-pyrrolidinobenzyl)isoxazolo[5,4-b]pyridine-5-carboxamide

> <PUBCHEM_IUPAC_INCHI>
InChI=1S/C19H20N4O2/c1-13-16-10-15(12-21-19(16)25-22-13)18(24)20-11-14-6-2-3-7-17(14)23-8-4-5-9-23/h2-3,6-7,10,12H,4-5,8-9,11H2,1H3,(H,20,24)

> <PUBCHEM_IUPAC_INCHIKEY>
YLBDIIFGPJQTFP-UHFFFAOYSA-N

> <PUBCHEM_XLOGP3_AA>
2.8

> <PUBCHEM_EXACT_MASS>
336.158626

> <PUBCHEM_MOLECULAR_FORMULA>
C19H20N4O2

> <PUBCHEM_MOLECULAR_WEIGHT>
336.3877

> <PUBCHEM_OPENEYE_CAN_SMILES>
CC1=NOC2=NC=C(C=C12)C(=O)NCC3=CC=CC=C3N4CCCC4

> <PUBCHEM_OPENEYE_ISO_SMILES>
CC1=NOC2=NC=C(C=C12)C(=O)NCC3=CC=CC=C3N4CCCC4

> <PUBCHEM_CACTVS_TPSA>
71.3

> <PUBCHEM_MONOISOTOPIC_WEIGHT>
336.158626

> <PUBCHEM_TOTAL_CHARGE>
0

> <PUBCHEM_HEAVY_ATOM_COUNT>
25

> <PUBCHEM_ATOM_DEF_STEREO_COUNT>
0

> <PUBCHEM_ATOM_UDEF_STEREO_COUNT>
0

> <PUBCHEM_BOND_DEF_STEREO_COUNT>
0

> <PUBCHEM_BOND_UDEF_STEREO_COUNT>
0

> <PUBCHEM_ISOTOPIC_ATOM_COUNT>
0

> <PUBCHEM_COMPONENT_COUNT>
1

> <PUBCHEM_CACTVS_TAUTO_COUNT>
2

> <PUBCHEM_COORDINATE_TYPE>
1
5
255

> <PUBCHEM_BONDANNOTATIONS>
1  22  8
1  6  8
11  12  8
11  13  8
12  15  8
13  16  8
15  17  8
16  17  8
19  21  8
19  23  8
20  21  8
20  22  8
20  24  8
5  22  8
5  23  8
6  24  8

$$$$

