242127
  -OEChem-07051213062D

 52 55  0     1  0  0  0  0  0999 V2000
    3.3109   -2.6112    0.0000 F   0  0  0  0  0  0  0  0  0  0  0  0
    4.3109   -2.6074    0.0000 F   0  0  0  0  0  0  0  0  0  0  0  0
    9.1493    2.2460    0.0000 O   0  0  0  0  0  0  0  0  0  0  0  0
    2.0000   -1.6974    0.0000 O   0  0  0  0  0  0  0  0  0  0  0  0
    7.3931    1.3549    0.0000 C   0  0  1  0  0  0  0  0  0  0  0  0
    7.3931    0.3549    0.0000 C   0  0  2  0  0  0  0  0  0  0  0  0
    6.5271   -0.1451    0.0000 C   0  0  1  0  0  0  0  0  0  0  0  0
    5.6610    0.3549    0.0000 C   0  0  1  0  0  0  0  0  0  0  0  0
    8.3393    1.6596    0.0000 C   0  0  2  0  0  0  0  0  0  0  0  0
    6.5271    1.8549    0.0000 C   0  0  0  0  0  0  0  0  0  0  0  0
    4.7510   -0.1519    0.0000 C   0  0  2  0  0  0  0  0  0  0  0  0
    8.3393    0.0502    0.0000 C   0  0  0  0  0  0  0  0  0  0  0  0
    5.6610    1.3549    0.0000 C   0  0  0  0  0  0  0  0  0  0  0  0
    8.9229    0.8549    0.0000 C   0  0  0  0  0  0  0  0  0  0  0  0
    6.5431   -1.1866    0.0000 C   0  0  0  0  0  0  0  0  0  0  0  0
    7.3931    2.3549    0.0000 C   0  0  0  0  0  0  0  0  0  0  0  0
    4.7430   -1.1936    0.0000 C   0  0  0  0  0  0  0  0  0  0  0  0
    3.8242    0.4121    0.0000 C   0  0  0  0  0  0  0  0  0  0  0  0
    8.0319    2.6112    0.0000 C   0  0  0  0  0  0  0  0  0  0  0  0
    5.6451   -1.7144    0.0000 C   0  0  0  0  0  0  0  0  0  0  0  0
    4.7587    0.8480    0.0000 C   0  0  0  0  0  0  0  0  0  0  0  0
    3.8076   -1.7433    0.0000 C   0  0  0  0  0  0  0  0  0  0  0  0
    2.8763   -0.1158    0.0000 C   0  0  0  0  0  0  0  0  0  0  0  0
    2.8680   -1.2008    0.0000 C   0  0  0  0  0  0  0  0  0  0  0  0
    7.4830   -0.4903    0.0000 H   0  0  0  0  0  0  0  0  0  0  0  0
    7.2664   -0.5644    0.0000 H   0  0  0  0  0  0  0  0  0  0  0  0
    6.3972    0.7799    0.0000 H   0  0  0  0  0  0  0  0  0  0  0  0
    6.9256    2.3298    0.0000 H   0  0  0  0  0  0  0  0  0  0  0  0
    6.1285    2.3298    0.0000 H   0  0  0  0  0  0  0  0  0  0  0  0
    8.0883   -0.5167    0.0000 H   0  0  0  0  0  0  0  0  0  0  0  0
    8.8767   -0.2591    0.0000 H   0  0  0  0  0  0  0  0  0  0  0  0
    5.4490    1.9375    0.0000 H   0  0  0  0  0  0  0  0  0  0  0  0
    5.0504    1.2472    0.0000 H   0  0  0  0  0  0  0  0  0  0  0  0
    9.3838    0.4402    0.0000 H   0  0  0  0  0  0  0  0  0  0  0  0
    9.3838    1.2696    0.0000 H   0  0  0  0  0  0  0  0  0  0  0  0
    6.7612   -1.7670    0.0000 H   0  0  0  0  0  0  0  0  0  0  0  0
    7.1523   -1.0711    0.0000 H   0  0  0  0  0  0  0  0  0  0  0  0
    8.0131    2.3549    0.0000 H   0  0  0  0  0  0  0  0  0  0  0  0
    7.3931    2.9749    0.0000 H   0  0  0  0  0  0  0  0  0  0  0  0
    6.7731    2.3549    0.0000 H   0  0  0  0  0  0  0  0  0  0  0  0
    4.2324    0.8788    0.0000 H   0  0  0  0  0  0  0  0  0  0  0  0
    3.4343    0.8942    0.0000 H   0  0  0  0  0  0  0  0  0  0  0  0
    8.6219    2.8018    0.0000 H   0  0  0  0  0  0  0  0  0  0  0  0
    7.8414    3.2012    0.0000 H   0  0  0  0  0  0  0  0  0  0  0  0
    7.4420    2.4207    0.0000 H   0  0  0  0  0  0  0  0  0  0  0  0
    5.6475   -2.3344    0.0000 H   0  0  0  0  0  0  0  0  0  0  0  0
    5.3787    0.8432    0.0000 H   0  0  0  0  0  0  0  0  0  0  0  0
    4.7635    1.4680    0.0000 H   0  0  0  0  0  0  0  0  0  0  0  0
    4.1388    0.8528    0.0000 H   0  0  0  0  0  0  0  0  0  0  0  0
    9.7153    1.9929    0.0000 H   0  0  0  0  0  0  0  0  0  0  0  0
    2.6718    0.4695    0.0000 H   0  0  0  0  0  0  0  0  0  0  0  0
    2.2647   -0.2172    0.0000 H   0  0  0  0  0  0  0  0  0  0  0  0
  1 22  1  0  0  0  0
  2 22  1  0  0  0  0
  9  3  1  1  0  0  0
  3 50  1  0  0  0  0
  4 24  2  0  0  0  0
  5  6  1  0  0  0  0
  5  9  1  0  0  0  0
  5 10  1  0  0  0  0
  5 16  1  1  0  0  0
  6  7  1  0  0  0  0
  6 12  1  0  0  0  0
  6 25  1  6  0  0  0
  7  8  1  0  0  0  0
  7 15  1  0  0  0  0
  7 26  1  1  0  0  0
  8 11  1  0  0  0  0
  8 13  1  0  0  0  0
  8 27  1  6  0  0  0
  9 14  1  0  0  0  0
  9 19  1  0  0  0  0
 10 13  1  0  0  0  0
 10 28  1  0  0  0  0
 10 29  1  0  0  0  0
 11 17  1  0  0  0  0
 11 18  1  0  0  0  0
 11 21  1  1  0  0  0
 12 14  1  0  0  0  0
 12 30  1  0  0  0  0
 12 31  1  0  0  0  0
 13 32  1  0  0  0  0
 13 33  1  0  0  0  0
 14 34  1  0  0  0  0
 14 35  1  0  0  0  0
 15 20  1  0  0  0  0
 15 36  1  0  0  0  0
 15 37  1  0  0  0  0
 16 38  1  0  0  0  0
 16 39  1  0  0  0  0
 16 40  1  0  0  0  0
 17 20  2  0  0  0  0
 17 22  1  0  0  0  0
 18 23  1  0  0  0  0
 18 41  1  0  0  0  0
 18 42  1  0  0  0  0
 19 43  1  0  0  0  0
 19 44  1  0  0  0  0
 19 45  1  0  0  0  0
 20 46  1  0  0  0  0
 21 47  1  0  0  0  0
 21 48  1  0  0  0  0
 21 49  1  0  0  0  0
 22 24  1  0  0  0  0
 23 24  1  0  0  0  0
 23 51  1  0  0  0  0
 23 52  1  0  0  0  0
M  END
> <PUBCHEM_COMPOUND_CID>
242127

> <PUBCHEM_COMPOUND_CANONICALIZED>
1

> <PUBCHEM_CACTVS_COMPLEXITY>
627

> <PUBCHEM_CACTVS_HBOND_ACCEPTOR>
4

> <PUBCHEM_CACTVS_HBOND_DONOR>
1

> <PUBCHEM_CACTVS_ROTATABLE_BOND>
0

> <PUBCHEM_CACTVS_SUBSKEYS>
AAADceB4MYAAAAAAAAAAAAAAAAAAAYAAAAAwYIAAAAAAAGCAAAAAGwAACAAAD0SAgBACAAAAAgCIAqBSAAAAAAAgAAAACAEAAAgAABIAAAAAQAAEgAAIAAOIyPCPgAAAAAAAAACAAAQAACAAAYAADAAAAA==

> <PUBCHEM_IUPAC_OPENEYE_NAME>
(8R,9S,10R,13S,14S,17S)-4,4-difluoro-17-hydroxy-10,13,17-trimethyl-1,2,7,8,9,11,12,14,15,16-decahydrocyclopenta[a]phenanthren-3-one

> <PUBCHEM_IUPAC_CAS_NAME>
(8R,9S,10R,13S,14S,17S)-4,4-difluoro-17-hydroxy-10,13,17-trimethyl-1,2,7,8,9,11,12,14,15,16-decahydrocyclopenta[a]phenanthren-3-one

> <PUBCHEM_IUPAC_NAME>
(8R,9S,10R,13S,14S,17S)-4,4-difluoro-17-hydroxy-10,13,17-trimethyl-1,2,7,8,9,11,12,14,15,16-decahydrocyclopenta[a]phenanthren-3-one

> <PUBCHEM_IUPAC_SYSTEMATIC_NAME>
(8R,9S,10R,13S,14S,17S)-4,4-bis(fluoranyl)-10,13,17-trimethyl-17-oxidanyl-1,2,7,8,9,11,12,14,15,16-decahydrocyclopenta[a]phenanthren-3-one

> <PUBCHEM_IUPAC_TRADITIONAL_NAME>
(8R,9S,10R,13S,14S,17S)-4,4-difluoro-17-hydroxy-10,13,17-trimethyl-1,2,7,8,9,11,12,14,15,16-decahydrocyclopenta[a]phenanthren-3-one

> <PUBCHEM_IUPAC_INCHI>
InChI=1S/C20H28F2O2/c1-17-9-8-16(23)20(21,22)15(17)5-4-12-13(17)6-10-18(2)14(12)7-11-19(18,3)24/h5,12-14,24H,4,6-11H2,1-3H3/t12-,13+,14+,17-,18+,19+/m1/s1

> <PUBCHEM_IUPAC_INCHIKEY>
XRZWBBRIKOQLPC-TULRTYAESA-N

> <PUBCHEM_XLOGP3_AA>
3.9

> <PUBCHEM_EXACT_MASS>
338.205737

> <PUBCHEM_MOLECULAR_FORMULA>
C20H28F2O2

> <PUBCHEM_MOLECULAR_WEIGHT>
338.431926

> <PUBCHEM_OPENEYE_CAN_SMILES>
CC12CCC(=O)C(C1=CCC3C2CCC4(C3CCC4(C)O)C)(F)F

> <PUBCHEM_OPENEYE_ISO_SMILES>
C[C@]12CCC(=O)C(C1=CC[C@@H]3[C@@H]2CC[C@]4([C@H]3CC[C@]4(C)O)C)(F)F

> <PUBCHEM_CACTVS_TPSA>
37.3

> <PUBCHEM_MONOISOTOPIC_WEIGHT>
338.205737

> <PUBCHEM_TOTAL_CHARGE>
0

> <PUBCHEM_HEAVY_ATOM_COUNT>
24

> <PUBCHEM_ATOM_DEF_STEREO_COUNT>
6

> <PUBCHEM_ATOM_UDEF_STEREO_COUNT>
0

> <PUBCHEM_BOND_DEF_STEREO_COUNT>
0

> <PUBCHEM_BOND_UDEF_STEREO_COUNT>
0

> <PUBCHEM_ISOTOPIC_ATOM_COUNT>
0

> <PUBCHEM_COMPONENT_COUNT>
1

> <PUBCHEM_CACTVS_TAUTO_COUNT>
2

> <PUBCHEM_COORDINATE_TYPE>
1
5
255

> <PUBCHEM_BONDANNOTATIONS>
11  21  5
9  3  5
5  16  5
6  25  6
7  26  5
8  27  6

$$$$

