38354
  -OEChem-07051213153D

 37 41  0     1  0  0  0  0  0999 V2000
    1.8103   -2.9586   -0.3155 O   0  0  0  0  0  0  0  0  0  0  0  0
    1.0861   -2.0693    0.4836 C   0  0  1  0  0  0  0  0  0  0  0  0
    2.0688   -1.6946   -0.8540 C   0  0  1  0  0  0  0  0  0  0  0  0
   -0.0421   -1.0893    0.2579 C   0  0  0  0  0  0  0  0  0  0  0  0
    2.7051   -0.4182   -0.3547 C   0  0  0  0  0  0  0  0  0  0  0  0
    0.3340    0.2854    0.1093 C   0  0  0  0  0  0  0  0  0  0  0  0
    1.8017    0.6095    0.0855 C   0  0  0  0  0  0  0  0  0  0  0  0
   -1.3915   -1.4512    0.2464 C   0  0  0  0  0  0  0  0  0  0  0  0
   -0.6722    1.2471   -0.0458 C   0  0  0  0  0  0  0  0  0  0  0  0
   -2.3923   -0.4808    0.0891 C   0  0  0  0  0  0  0  0  0  0  0  0
   -2.0303    0.8805   -0.0569 C   0  0  0  0  0  0  0  0  0  0  0  0
    4.0823   -0.1854   -0.3565 C   0  0  0  0  0  0  0  0  0  0  0  0
    2.3299    1.8358    0.5062 C   0  0  0  0  0  0  0  0  0  0  0  0
   -1.7303   -2.9021    0.4159 C   0  0  0  0  0  0  0  0  0  0  0  0
   -0.3336    2.6821   -0.3358 C   0  0  0  0  0  0  0  0  0  0  0  0
    4.5811    1.0443    0.0700 C   0  0  0  0  0  0  0  0  0  0  0  0
    3.7107    2.0483    0.4965 C   0  0  0  0  0  0  0  0  0  0  0  0
   -3.7512   -0.8354    0.0767 C   0  0  0  0  0  0  0  0  0  0  0  0
   -3.0406    1.8434   -0.2144 C   0  0  0  0  0  0  0  0  0  0  0  0
   -4.7404    0.1357   -0.0787 C   0  0  0  0  0  0  0  0  0  0  0  0
   -4.3856    1.4728   -0.2247 C   0  0  0  0  0  0  0  0  0  0  0  0
    1.4975   -2.0121    1.4900 H   0  0  0  0  0  0  0  0  0  0  0  0
    1.6207   -1.5827   -1.8399 H   0  0  0  0  0  0  0  0  0  0  0  0
    4.7679   -0.9565   -0.6966 H   0  0  0  0  0  0  0  0  0  0  0  0
    1.7281    2.6167    0.9550 H   0  0  0  0  0  0  0  0  0  0  0  0
   -2.2772   -3.2684   -0.4600 H   0  0  0  0  0  0  0  0  0  0  0  0
   -0.8591   -3.5528    0.5282 H   0  0  0  0  0  0  0  0  0  0  0  0
   -2.3414   -3.0463    1.3137 H   0  0  0  0  0  0  0  0  0  0  0  0
   -0.3241    3.2791    0.5809 H   0  0  0  0  0  0  0  0  0  0  0  0
    0.6006    2.7954   -0.8910 H   0  0  0  0  0  0  0  0  0  0  0  0
   -1.0309    3.1441   -1.0422 H   0  0  0  0  0  0  0  0  0  0  0  0
    5.6529    1.2218    0.0719 H   0  0  0  0  0  0  0  0  0  0  0  0
    4.1128    2.9945    0.8487 H   0  0  0  0  0  0  0  0  0  0  0  0
   -4.0799   -1.8655    0.1868 H   0  0  0  0  0  0  0  0  0  0  0  0
   -2.8478    2.9085   -0.2911 H   0  0  0  0  0  0  0  0  0  0  0  0
   -5.7877   -0.1521   -0.0842 H   0  0  0  0  0  0  0  0  0  0  0  0
   -5.1567    2.2295   -0.3369 H   0  0  0  0  0  0  0  0  0  0  0  0
  1  2  1  0  0  0  0
  1  3  1  0  0  0  0
  2  3  1  0  0  0  0
  2  4  1  0  0  0  0
  2 22  1  0  0  0  0
  3  5  1  0  0  0  0
  3 23  1  0  0  0  0
  4  6  1  0  0  0  0
  4  8  2  0  0  0  0
  5  7  1  0  0  0  0
  5 12  2  0  0  0  0
  6  7  1  0  0  0  0
  6  9  2  0  0  0  0
  7 13  2  0  0  0  0
  8 10  1  0  0  0  0
  8 14  1  0  0  0  0
  9 11  1  0  0  0  0
  9 15  1  0  0  0  0
 10 11  1  0  0  0  0
 10 18  2  0  0  0  0
 11 19  2  0  0  0  0
 12 16  1  0  0  0  0
 12 24  1  0  0  0  0
 13 17  1  0  0  0  0
 13 25  1  0  0  0  0
 14 26  1  0  0  0  0
 14 27  1  0  0  0  0
 14 28  1  0  0  0  0
 15 29  1  0  0  0  0
 15 30  1  0  0  0  0
 15 31  1  0  0  0  0
 16 17  2  0  0  0  0
 16 32  1  0  0  0  0
 17 33  1  0  0  0  0
 18 20  1  0  0  0  0
 18 34  1  0  0  0  0
 19 21  1  0  0  0  0
 19 35  1  0  0  0  0
 20 21  2  0  0  0  0
 20 36  1  0  0  0  0
 21 37  1  0  0  0  0
M  END
> <PUBCHEM_COMPOUND_CID>
38354

> <PUBCHEM_CONFORMER_RMSD>
0.6

> <PUBCHEM_CONFORMER_DIVERSEORDER>
2
1

> <PUBCHEM_MMFF94_PARTIAL_CHARGES>
27
1 -0.3
12 -0.15
13 -0.15
14 0.14
15 0.14
16 -0.15
17 -0.15
18 -0.15
19 -0.15
2 0.08
20 -0.15
21 -0.15
22 0.1
23 0.1
24 0.15
25 0.15
3 0.08
32 0.15
33 0.15
34 0.15
35 0.15
36 0.15
37 0.15
4 -0.03
5 -0.03
8 -0.14
9 -0.14

> <PUBCHEM_EFFECTIVE_ROTOR_COUNT>
0.2

> <PUBCHEM_PHARMACOPHORE_FEATURES>
5
1 1 acceptor
6 10 11 18 19 20 21 rings
6 4 6 8 9 10 11 rings
6 5 7 12 13 16 17 rings
7 1 2 3 4 5 6 7 rings

> <PUBCHEM_HEAVY_ATOM_COUNT>
21

> <PUBCHEM_ATOM_DEF_STEREO_COUNT>
0

> <PUBCHEM_ATOM_UDEF_STEREO_COUNT>
2

> <PUBCHEM_BOND_DEF_STEREO_COUNT>
0

> <PUBCHEM_BOND_UDEF_STEREO_COUNT>
0

> <PUBCHEM_ISOTOPIC_ATOM_COUNT>
0

> <PUBCHEM_COMPONENT_COUNT>
1

> <PUBCHEM_CACTVS_TAUTO_COUNT>
1

> <PUBCHEM_CONFORMER_ID>
000095D200000002

> <PUBCHEM_MMFF94_ENERGY>
119.8322

> <PUBCHEM_FEATURE_SELFOVERLAP>
25.42

> <PUBCHEM_SHAPE_FINGERPRINT>
10411042 1 17185876641321906275
10498660 4 18342741870529637645
10608611 8 18410292510174766481
10616163 171 18339079268063335810
10646746 165 18412262809590096908
10863032 1 18336264638871590895
10948715 1 18408324362965442790
10967382 1 18411136952290029400
11112241 14 16590576439759266544
11132069 177 18341052908710034560
11370993 70 18410578370328884624
11471102 20 18335702766860002324
12011746 2 18410572889945535436
12236239 1 17346601838035822488
12403259 226 18053667159420307702
12403259 415 18116147767152937064
12730499 353 18410285926406886667
12969540 114 18200050520226296125
13140716 1 18267305326634959984
13380535 76 18411420600657556314
13402501 40 18410012122189103376
13544592 271 18340768130882225027
138480 1 17834114529971128586
14223421 5 18267869556420070029
14787075 74 18261116210295206441
14790565 3 18411972577244537949
15196674 1 18411138043206441317
15219456 202 18408884031489886380
15230672 131 17252040333761417904
15375358 24 18410856542470469889
15536298 74 18335420213746260599
16945 1 18337947991115797578
19591789 44 18411699902407208451
200 152 17603586326497120105
20510252 161 18335419097350624289
20645477 70 18113616832475925047
20739085 24 17981297270153376465
20905425 154 18265051530014669556
21267235 1 18410846664198871287
21279426 13 18265612272275773092
21421861 104 17986678283995457674
221490 88 18338791342056445482
22182313 1 18266157496667632951
23227448 37 18335985259622779559
2334 1 18194117404831822184
23366157 5 17987514978158919274
23402539 116 18409456855631137244
23558518 356 17697036942309529833
23559900 14 18335702797315416806
23566358 2 18192713577507002700
238 59 17764905719110436229
2748010 2 18265886965483441606
2871803 45 18410012169175125108
3323516 105 18409163354703851636
335352 9 18338797922404947966
34934 24 18410860957981914255
350125 39 18125438863313296740
3680242 22 18341051938295034322
474 4 17988918951132617820
495365 180 17604160237629080936
5104073 3 18412261769944268131
6138700 20 18337951311922310294
69090 78 18334860489344972599
7364860 26 18264208174478906350
9709674 26 18408317783002004222

> <PUBCHEM_SHAPE_MULTIPOLES>
426.3
8.13
3.05
0.73
0.98
0.96
-0.01
-2.93
-0.28
-0.23
0.07
-0.17
0.05
0.79

> <PUBCHEM_SHAPE_SELFOVERLAP>
970.594

> <PUBCHEM_SHAPE_VOLUME>
224.1

> <PUBCHEM_COORDINATE_TYPE>
2
5
10

$$$$

