183009
  -OEChem-07051213153D

 50 51  0     1  0  0  0  0  0999 V2000
   -2.1142   -1.1626   -0.1526 O   0  0  0  0  0  0  0  0  0  0  0  0
   -0.4415    0.1762   -1.0757 O   0  0  0  0  0  0  0  0  0  0  0  0
   -5.0407    1.5034   -1.2481 O   0  0  0  0  0  0  0  0  0  0  0  0
   -2.2287    2.3649   -1.0942 O   0  0  0  0  0  0  0  0  0  0  0  0
   -5.5780   -0.4825    0.8051 O   0  0  0  0  0  0  0  0  0  0  0  0
   -4.6766   -2.9402    1.4600 O   0  0  0  0  0  0  0  0  0  0  0  0
   -2.9277   -3.5655    0.1385 O   0  0  0  0  0  0  0  0  0  0  0  0
    6.7901   -1.1237    1.1063 O   0  0  0  0  0  0  0  0  0  0  0  0
    5.3004   -1.9496   -0.1373 N   0  0  0  0  0  0  0  0  0  0  0  0
    1.4056    3.0706    1.9567 N   0  0  0  0  0  0  0  0  0  0  0  0
    5.8503   -0.8521    0.3495 N   0  0  0  0  0  0  0  0  0  0  0  0
   -4.0487    0.9492   -0.3828 C   0  0  2  0  0  0  0  0  0  0  0  0
   -2.6824    1.0117   -1.0662 C   0  0  2  0  0  0  0  0  0  0  0  0
   -4.4488   -0.4922   -0.0666 C   0  0  1  0  0  0  0  0  0  0  0  0
   -1.6480    0.1747   -0.3134 C   0  0  1  0  0  0  0  0  0  0  0  0
   -3.3070   -1.2312    0.6202 C   0  0  1  0  0  0  0  0  0  0  0  0
    0.6985    0.0620   -0.2382 C   0  0  1  0  0  0  0  0  0  0  0  0
    1.7938   -0.7083   -0.9919 C   0  0  0  0  0  0  0  0  0  0  0  0
   -3.5857   -2.6977    0.6929 C   0  0  0  0  0  0  0  0  0  0  0  0
    3.0576   -0.9300   -0.1559 C   0  0  0  0  0  0  0  0  0  0  0  0
    1.1078    1.4538    0.1841 C   0  0  0  0  0  0  0  0  0  0  0  0
    4.1041   -1.7218   -0.9408 C   0  0  0  0  0  0  0  0  0  0  0  0
    1.5482    2.3854   -0.7495 C   0  0  0  0  0  0  0  0  0  0  0  0
    1.0554    1.8425    1.5130 C   0  0  0  0  0  0  0  0  0  0  0  0
    1.9173    3.6592   -0.3316 C   0  0  0  0  0  0  0  0  0  0  0  0
    6.2706   -2.7455   -0.9021 C   0  0  0  0  0  0  0  0  0  0  0  0
    1.8285    3.9493    1.0204 C   0  0  0  0  0  0  0  0  0  0  0  0
   -4.0583    1.5650    0.5244 H   0  0  0  0  0  0  0  0  0  0  0  0
   -2.7587    0.6815   -2.1090 H   0  0  0  0  0  0  0  0  0  0  0  0
   -4.7538   -1.0088   -0.9850 H   0  0  0  0  0  0  0  0  0  0  0  0
   -1.4800    0.6213    0.6761 H   0  0  0  0  0  0  0  0  0  0  0  0
   -3.1098   -0.8710    1.6376 H   0  0  0  0  0  0  0  0  0  0  0  0
    0.4521   -0.5403    0.6484 H   0  0  0  0  0  0  0  0  0  0  0  0
    1.3836   -1.6792   -1.3005 H   0  0  0  0  0  0  0  0  0  0  0  0
    2.0482   -0.1950   -1.9279 H   0  0  0  0  0  0  0  0  0  0  0  0
    3.4585    0.0453    0.1418 H   0  0  0  0  0  0  0  0  0  0  0  0
    2.7942   -1.4692    0.7631 H   0  0  0  0  0  0  0  0  0  0  0  0
   -5.0419    0.9904   -2.0742 H   0  0  0  0  0  0  0  0  0  0  0  0
   -2.1405    2.6729   -0.1760 H   0  0  0  0  0  0  0  0  0  0  0  0
   -5.3200   -0.0334    1.6281 H   0  0  0  0  0  0  0  0  0  0  0  0
    3.6647   -2.6855   -1.2292 H   0  0  0  0  0  0  0  0  0  0  0  0
    4.3480   -1.1859   -1.8688 H   0  0  0  0  0  0  0  0  0  0  0  0
    1.6015    2.1396   -1.8062 H   0  0  0  0  0  0  0  0  0  0  0  0
    0.7206    1.1616    2.2894 H   0  0  0  0  0  0  0  0  0  0  0  0
   -4.8776   -3.8986    1.5188 H   0  0  0  0  0  0  0  0  0  0  0  0
    2.2613    4.4022   -1.0419 H   0  0  0  0  0  0  0  0  0  0  0  0
    6.6670   -2.1985   -1.7671 H   0  0  0  0  0  0  0  0  0  0  0  0
    5.8011   -3.6651   -1.2726 H   0  0  0  0  0  0  0  0  0  0  0  0
    7.1156   -3.0766   -0.2853 H   0  0  0  0  0  0  0  0  0  0  0  0
    2.1038    4.9287    1.3974 H   0  0  0  0  0  0  0  0  0  0  0  0
  1 15  1  0  0  0  0
  1 16  1  0  0  0  0
  2 15  1  0  0  0  0
  2 17  1  0  0  0  0
  3 12  1  0  0  0  0
  3 38  1  0  0  0  0
  4 13  1  0  0  0  0
  4 39  1  0  0  0  0
  5 14  1  0  0  0  0
  5 40  1  0  0  0  0
  6 19  1  0  0  0  0
  6 45  1  0  0  0  0
  7 19  2  0  0  0  0
  8 11  2  0  0  0  0
  9 11  1  0  0  0  0
  9 22  1  0  0  0  0
  9 26  1  0  0  0  0
 10 24  1  0  0  0  0
 10 27  2  0  0  0  0
 12 13  1  0  0  0  0
 12 14  1  0  0  0  0
 12 28  1  0  0  0  0
 13 15  1  0  0  0  0
 13 29  1  0  0  0  0
 14 16  1  0  0  0  0
 14 30  1  0  0  0  0
 15 31  1  0  0  0  0
 16 19  1  0  0  0  0
 16 32  1  0  0  0  0
 17 18  1  0  0  0  0
 17 21  1  0  0  0  0
 17 33  1  0  0  0  0
 18 20  1  0  0  0  0
 18 34  1  0  0  0  0
 18 35  1  0  0  0  0
 20 22  1  0  0  0  0
 20 36  1  0  0  0  0
 20 37  1  0  0  0  0
 21 23  1  0  0  0  0
 21 24  2  0  0  0  0
 22 41  1  0  0  0  0
 22 42  1  0  0  0  0
 23 25  2  0  0  0  0
 23 43  1  0  0  0  0
 24 44  1  0  0  0  0
 25 27  1  0  0  0  0
 25 46  1  0  0  0  0
 26 47  1  0  0  0  0
 26 48  1  0  0  0  0
 26 49  1  0  0  0  0
 27 50  1  0  0  0  0
M  END
> <PUBCHEM_COMPOUND_CID>
183009

> <PUBCHEM_CONFORMER_RMSD>
1

> <PUBCHEM_CONFORMER_DIVERSEORDER>
1
88
25
103
19
53
23
139
102
21
59
119
75
38
106
116
127
7
110
120
55
78
108
80
41
37
14
85
57
4
96
77
76
47
87
56
17
32
133
104
113
128
107
65
63
138
66
2
24
46
109
112
81
129
105
29
122
99
74
42
84
92
73
40
8
58
94
22
60
61
52
137
101
31
97
67
72
136
71
68
39
95
13
93
49
114
11
36
134
121
123
9
69
86
79
16
89
3
64
20
90
132
140
111
44
35
62
15
45
28
98
43
6
131
82
26
10
5
12
30
34
70
125
51
118
48
18
115
117
50
91
130
124
135
100
27
141
33
54
83
126

> <PUBCHEM_MMFF94_PARTIAL_CHARGES>
33
1 -0.56
10 -0.62
11 -0.01
12 0.28
13 0.28
14 0.28
15 0.56
16 0.34
17 0.42
19 0.66
2 -0.56
21 -0.14
22 0.27
23 -0.15
24 0.16
25 -0.15
26 0.27
27 0.16
3 -0.68
38 0.4
39 0.4
4 -0.68
40 0.4
43 0.15
44 0.15
45 0.5
46 0.15
5 -0.68
50 0.15
6 -0.65
7 -0.57
8 -0.16
9 -0.36

> <PUBCHEM_EFFECTIVE_ROTOR_COUNT>
10.2

> <PUBCHEM_PHARMACOPHORE_FEATURES>
14
1 1 acceptor
1 10 acceptor
1 2 acceptor
1 3 acceptor
1 3 donor
1 4 acceptor
1 4 donor
1 5 acceptor
1 5 donor
1 6 acceptor
1 7 acceptor
3 6 7 19 anion
6 1 12 13 14 15 16 rings
6 10 21 23 24 25 27 rings

> <PUBCHEM_HEAVY_ATOM_COUNT>
27

> <PUBCHEM_ATOM_DEF_STEREO_COUNT>
5

> <PUBCHEM_ATOM_UDEF_STEREO_COUNT>
1

> <PUBCHEM_BOND_DEF_STEREO_COUNT>
0

> <PUBCHEM_BOND_UDEF_STEREO_COUNT>
0

> <PUBCHEM_ISOTOPIC_ATOM_COUNT>
0

> <PUBCHEM_COMPONENT_COUNT>
1

> <PUBCHEM_CACTVS_TAUTO_COUNT>
1

> <PUBCHEM_CONFORMER_ID>
0002CAE100000001

> <PUBCHEM_MMFF94_ENERGY>
67.2339

> <PUBCHEM_FEATURE_SELFOVERLAP>
71.174

> <PUBCHEM_SHAPE_FINGERPRINT>
10675989 125 17116078539119782029
11405975 8 18336256843833015979
12516196 113 18334016133482697942
12633257 1 18116128066127361803
12788726 201 17976265960668134130
13140716 1 18338229376309632135
13540713 4 18270689654086014005
140371 6 18190731123940873004
14251751 18 18343297055118981518
14251757 5 18198061576115489396
14840074 17 17168150057297215564
14955137 171 18187078456161188310
15927050 60 17612872600849448260
17492 89 18125716795248404563
17980427 23 17168137987779996993
1813 80 17894901971448126652
18785283 64 18122909733588678904
20567600 70 18411698756199612282
20600515 1 18265318681154389012
21033648 29 17386587871317472466
23175994 123 18260550077465031540
23557571 272 18117273881981854260
23559900 14 18271528598484967069
3004659 81 18060128882616203966
4015057 19 18261687982417266261
437815 12 18334579087234980612
5104073 3 18191850251001061195
6371380 46 18340491183582142733
6442390 28 17398666801186346584
81228 2 17609759156875041348
9709674 26 18339368453128659909

> <PUBCHEM_SHAPE_MULTIPOLES>
493.75
13.14
4.6
1.31
9.15
1.99
0.28
-12.8
0.87
2.06
1.13
-0.05
0.49
2.79

> <PUBCHEM_SHAPE_SELFOVERLAP>
1019.83

> <PUBCHEM_SHAPE_VOLUME>
279.4

> <PUBCHEM_COORDINATE_TYPE>
2
5
10

$$$$

