442768
  -OEChem-07051212592D

 32 34  0     0  0  0  0  0  0999 V2000
    6.0290    2.0519    0.0000 O   0  0  0  0  0  0  0  0  0  0  0  0
    2.5369    2.0172    0.0000 O   0  0  0  0  0  0  0  0  0  0  0  0
    2.5369    0.0172    0.0000 O   0  0  0  0  0  0  0  0  0  0  0  0
    7.7991    2.0414    0.0000 O   0  0  0  0  0  0  0  0  0  0  0  0
    5.1350    0.5172    0.0000 C   0  0  0  0  0  0  0  0  0  0  0  0
    6.0290   -0.0174    0.0000 C   0  0  0  0  0  0  0  0  0  0  0  0
    5.1350    1.5172    0.0000 C   0  0  0  0  0  0  0  0  0  0  0  0
    6.0174   -1.0174    0.0000 C   0  0  0  0  0  0  0  0  0  0  0  0
    4.2690    0.0172    0.0000 C   0  0  0  0  0  0  0  0  0  0  0  0
    4.2690    2.0172    0.0000 C   0  0  0  0  0  0  0  0  0  0  0  0
    6.9350    0.4964    0.0000 C   0  0  0  0  0  0  0  0  0  0  0  0
    3.4030    0.5172    0.0000 C   0  0  0  0  0  0  0  0  0  0  0  0
    3.4030    1.5172    0.0000 C   0  0  0  0  0  0  0  0  0  0  0  0
    6.9350    1.5380    0.0000 C   0  0  0  0  0  0  0  0  0  0  0  0
    5.1456   -1.5073    0.0000 C   0  0  0  0  0  0  0  0  0  0  0  0
    6.8776   -1.5273    0.0000 C   0  0  0  0  0  0  0  0  0  0  0  0
    5.1341   -2.5072    0.0000 C   0  0  0  0  0  0  0  0  0  0  0  0
    6.8660   -2.5273    0.0000 C   0  0  0  0  0  0  0  0  0  0  0  0
    5.9943   -3.0172    0.0000 C   0  0  0  0  0  0  0  0  0  0  0  0
    2.5369    3.0172    0.0000 C   0  0  0  0  0  0  0  0  0  0  0  0
    4.2690   -0.6028    0.0000 H   0  0  0  0  0  0  0  0  0  0  0  0
    4.2690    2.6372    0.0000 H   0  0  0  0  0  0  0  0  0  0  0  0
    7.4708    0.1843    0.0000 H   0  0  0  0  0  0  0  0  0  0  0  0
    4.6123   -1.1911    0.0000 H   0  0  0  0  0  0  0  0  0  0  0  0
    7.4181   -1.2236    0.0000 H   0  0  0  0  0  0  0  0  0  0  0  0
    4.5936   -2.8110    0.0000 H   0  0  0  0  0  0  0  0  0  0  0  0
    7.3993   -2.8435    0.0000 H   0  0  0  0  0  0  0  0  0  0  0  0
    5.9871   -3.6372    0.0000 H   0  0  0  0  0  0  0  0  0  0  0  0
    2.0000    0.3272    0.0000 H   0  0  0  0  0  0  0  0  0  0  0  0
    3.1569    3.0172    0.0000 H   0  0  0  0  0  0  0  0  0  0  0  0
    2.5369    3.6372    0.0000 H   0  0  0  0  0  0  0  0  0  0  0  0
    1.9169    3.0172    0.0000 H   0  0  0  0  0  0  0  0  0  0  0  0
  1  7  1  0  0  0  0
  1 14  1  0  0  0  0
  2 13  1  0  0  0  0
  2 20  1  0  0  0  0
  3 12  1  0  0  0  0
  3 29  1  0  0  0  0
  4 14  2  0  0  0  0
  5  6  1  0  0  0  0
  5  7  1  0  0  0  0
  5  9  2  0  0  0  0
  6  8  1  0  0  0  0
  6 11  2  0  0  0  0
  7 10  2  0  0  0  0
  8 15  2  0  0  0  0
  8 16  1  0  0  0  0
  9 12  1  0  0  0  0
  9 21  1  0  0  0  0
 10 13  1  0  0  0  0
 10 22  1  0  0  0  0
 11 14  1  0  0  0  0
 11 23  1  0  0  0  0
 12 13  2  0  0  0  0
 15 17  1  0  0  0  0
 15 24  1  0  0  0  0
 16 18  2  0  0  0  0
 16 25  1  0  0  0  0
 17 19  2  0  0  0  0
 17 26  1  0  0  0  0
 18 19  1  0  0  0  0
 18 27  1  0  0  0  0
 19 28  1  0  0  0  0
 20 30  1  0  0  0  0
 20 31  1  0  0  0  0
 20 32  1  0  0  0  0
M  END
> <PUBCHEM_COMPOUND_CID>
442768

> <PUBCHEM_COMPOUND_CANONICALIZED>
1

> <PUBCHEM_CACTVS_COMPLEXITY>
397

> <PUBCHEM_CACTVS_HBOND_ACCEPTOR>
4

> <PUBCHEM_CACTVS_HBOND_DONOR>
1

> <PUBCHEM_CACTVS_ROTATABLE_BOND>
2

> <PUBCHEM_CACTVS_SUBSKEYS>
AAADccB4OAAAAAAAAAAAAAAAAAAAAAAAAAAwYIAAAAAAAACBQAAAGgAACAAADASAmAIyDoAABgCIAiDSCAACCAAgIAAIiAAGiMgNJyKGMRqCeiOlwBULuQfA4PwOIQABCAAIQABCAAIQABCAAAAAAAAAAA==

> <PUBCHEM_IUPAC_OPENEYE_NAME>
6-hydroxy-7-methoxy-4-phenyl-chromen-2-one

> <PUBCHEM_IUPAC_CAS_NAME>
6-hydroxy-7-methoxy-4-phenyl-1-benzopyran-2-one

> <PUBCHEM_IUPAC_NAME>
6-hydroxy-7-methoxy-4-phenylchromen-2-one

> <PUBCHEM_IUPAC_SYSTEMATIC_NAME>
7-methoxy-6-oxidanyl-4-phenyl-chromen-2-one

> <PUBCHEM_IUPAC_TRADITIONAL_NAME>
6-hydroxy-7-methoxy-4-phenyl-coumarin

> <PUBCHEM_IUPAC_INCHI>
InChI=1S/C16H12O4/c1-19-15-9-14-12(7-13(15)17)11(8-16(18)20-14)10-5-3-2-4-6-10/h2-9,17H,1H3

> <PUBCHEM_IUPAC_INCHIKEY>
AZELSOYQOIUPBZ-UHFFFAOYSA-N

> <PUBCHEM_XLOGP3_AA>
2.7

> <PUBCHEM_EXACT_MASS>
268.073559

> <PUBCHEM_MOLECULAR_FORMULA>
C16H12O4

> <PUBCHEM_MOLECULAR_WEIGHT>
268.26408

> <PUBCHEM_OPENEYE_CAN_SMILES>
COC1=C(C=C2C(=CC(=O)OC2=C1)C3=CC=CC=C3)O

> <PUBCHEM_OPENEYE_ISO_SMILES>
COC1=C(C=C2C(=CC(=O)OC2=C1)C3=CC=CC=C3)O

> <PUBCHEM_CACTVS_TPSA>
55.8

> <PUBCHEM_MONOISOTOPIC_WEIGHT>
268.073559

> <PUBCHEM_TOTAL_CHARGE>
0

> <PUBCHEM_HEAVY_ATOM_COUNT>
20

> <PUBCHEM_ATOM_DEF_STEREO_COUNT>
0

> <PUBCHEM_ATOM_UDEF_STEREO_COUNT>
0

> <PUBCHEM_BOND_DEF_STEREO_COUNT>
0

> <PUBCHEM_BOND_UDEF_STEREO_COUNT>
0

> <PUBCHEM_ISOTOPIC_ATOM_COUNT>
0

> <PUBCHEM_COMPONENT_COUNT>
1

> <PUBCHEM_CACTVS_TAUTO_COUNT>
3

> <PUBCHEM_COORDINATE_TYPE>
1
5
255

> <PUBCHEM_BONDANNOTATIONS>
1  14  8
1  7  8
10  13  8
11  14  8
12  13  8
15  17  8
16  18  8
17  19  8
18  19  8
5  6  8
5  7  8
5  9  8
6  11  8
7  10  8
8  15  8
8  16  8
9  12  8

$$$$

