5280981
  -OEChem-07051212523D

 20 19  0     0  0  0  0  0  0999 V2000
    2.5279    0.0543   -0.1072 S   0  0  0  0  0  0  0  0  0  0  0  0
    2.7808   -1.5371   -0.3388 O   0  0  0  0  0  0  0  0  0  0  0  0
    3.2444    0.4622    1.0797 O   0  0  0  0  0  0  0  0  0  0  0  0
    2.7039    0.7346   -1.3698 O   0  0  0  0  0  0  0  0  0  0  0  0
   -1.6908    2.3582   -0.4899 O   0  0  0  0  0  0  0  0  0  0  0  0
   -1.9206    0.9028    1.2472 O   0  0  0  0  0  0  0  0  0  0  0  0
   -3.2155   -1.2740   -0.1502 O   0  0  0  0  0  0  0  0  0  0  0  0
   -1.5558   -0.3123   -1.3723 O   0  0  0  0  0  0  0  0  0  0  0  0
    0.8253   -0.0047    0.2607 C   0  0  0  0  0  0  0  0  0  0  0  0
    0.2446   -1.2420    0.7580 C   0  0  0  0  0  0  0  0  0  0  0  0
    0.1910    1.1694    0.0927 C   0  0  0  0  0  0  0  0  0  0  0  0
   -0.9748   -1.7135    0.4538 C   0  0  0  0  0  0  0  0  0  0  0  0
   -1.2383    1.4288    0.3860 C   0  0  0  0  0  0  0  0  0  0  0  0
   -1.9221   -1.0267   -0.4500 C   0  0  0  0  0  0  0  0  0  0  0  0
    0.8620   -1.8205    1.4410 H   0  0  0  0  0  0  0  0  0  0  0  0
    0.7250    2.0372   -0.2900 H   0  0  0  0  0  0  0  0  0  0  0  0
   -1.3232   -2.6325    0.9156 H   0  0  0  0  0  0  0  0  0  0  0  0
    2.3807   -1.9187   -1.1556 H   0  0  0  0  0  0  0  0  0  0  0  0
   -2.6393    2.5647   -0.3477 H   0  0  0  0  0  0  0  0  0  0  0  0
   -3.8294   -0.8104   -0.7588 H   0  0  0  0  0  0  0  0  0  0  0  0
  1  2  1  0  0  0  0
  1  3  2  0  0  0  0
  1  4  2  0  0  0  0
  1  9  1  0  0  0  0
  2 18  1  0  0  0  0
  5 13  1  0  0  0  0
  5 19  1  0  0  0  0
  6 13  2  0  0  0  0
  7 14  1  0  0  0  0
  7 20  1  0  0  0  0
  8 14  2  0  0  0  0
  9 10  1  0  0  0  0
  9 11  2  0  0  0  0
 10 12  2  0  0  0  0
 10 15  1  0  0  0  0
 11 13  1  0  0  0  0
 11 16  1  0  0  0  0
 12 14  1  0  0  0  0
 12 17  1  0  0  0  0
M  END
> <PUBCHEM_COMPOUND_CID>
5280981

> <PUBCHEM_CONFORMER_RMSD>
0.6

> <PUBCHEM_CONFORMER_DIVERSEORDER>
1
5
4
2
3

> <PUBCHEM_MMFF94_PARTIAL_CHARGES>
20
1 1.5
10 -0.15
11 -0.14
12 -0.14
13 0.71
14 0.71
15 0.15
16 0.15
17 0.15
18 0.5
19 0.5
2 -0.68
20 0.5
3 -0.65
4 -0.65
5 -0.65
6 -0.57
7 -0.65
8 -0.57
9 -0.02

> <PUBCHEM_EFFECTIVE_ROTOR_COUNT>
4

> <PUBCHEM_PHARMACOPHORE_FEATURES>
10
1 2 acceptor
1 3 acceptor
1 4 acceptor
1 5 acceptor
1 6 acceptor
1 7 acceptor
1 8 acceptor
3 5 6 13 anion
3 7 8 14 anion
4 1 2 3 4 anion

> <PUBCHEM_HEAVY_ATOM_COUNT>
14

> <PUBCHEM_ATOM_DEF_STEREO_COUNT>
0

> <PUBCHEM_ATOM_UDEF_STEREO_COUNT>
0

> <PUBCHEM_BOND_DEF_STEREO_COUNT>
2

> <PUBCHEM_BOND_UDEF_STEREO_COUNT>
0

> <PUBCHEM_ISOTOPIC_ATOM_COUNT>
0

> <PUBCHEM_COMPONENT_COUNT>
1

> <PUBCHEM_CACTVS_TAUTO_COUNT>
1

> <PUBCHEM_CONFORMER_ID>
005094D500000001

> <PUBCHEM_MMFF94_ENERGY>
47.4316

> <PUBCHEM_FEATURE_SELFOVERLAP>
50.93

> <PUBCHEM_SHAPE_FINGERPRINT>
1 1 17690843788331370037
10353120 184 18338800018132690799
10702982 57 18122908891262885829
11206711 2 18410573972319465909
12423570 1 7535224747436065323
12716758 59 18262801898922091776
12932764 1 17676481740190535626
13024252 1 17775001280389337459
14614273 12 18339091474449905997
15775835 57 18337102492285670632
16945 1 18337951177754651962
19837323 101 17024025046087847425
20201158 50 18266747887251212126
20525323 117 18261398827664282466
20653085 51 16845301548190020607
21501502 16 18334850654212840506
22802520 49 18114459080031827782
23402539 116 18191324709537521694
23552423 10 18343017839294990618
23559900 14 17971756825508790694
241688 4 18410577241069231137
2748010 2 18337670944039346494
353137 74 18342748407100356499
369184 2 17312821580464887682
5084963 1 18410290358570198602
6333449 129 18186805802699169944
8030462 33 18410003317600910326
81228 2 18410569565783312201

> <PUBCHEM_SHAPE_MULTIPOLES>
250.88
4.4
1.96
1.07
2.03
0.37
-0.09
-0.53
-0.39
-0.99
0.02
0.12
0.1
-0.16

> <PUBCHEM_SHAPE_SELFOVERLAP>
502.592

> <PUBCHEM_SHAPE_VOLUME>
145

> <PUBCHEM_COORDINATE_TYPE>
2
5
10

$$$$

