443392
  -OEChem-07051213023D

 43 45  0     1  0  0  0  0  0999 V2000
   -0.9929    1.1988    0.4621 S   0  0  0  0  0  0  0  0  0  0  0  0
   -2.7417   -2.5278   -1.1083 O   0  0  0  0  0  0  0  0  0  0  0  0
   -5.5615    1.2973   -0.8117 O   0  0  0  0  0  0  0  0  0  0  0  0
   -5.4214   -0.4388    0.6589 O   0  0  0  0  0  0  0  0  0  0  0  0
    1.7594   -2.2340    1.2392 O   0  0  0  0  0  0  0  0  0  0  0  0
   -2.7964   -0.6612    0.3350 N   0  0  0  0  0  0  0  0  0  0  0  0
    0.1918   -1.5241   -0.3179 N   0  0  0  0  0  0  0  0  0  0  0  0
    6.4473    2.2693    0.4901 N   0  0  0  0  0  0  0  0  0  0  0  0
   -1.5984   -0.3914    1.1356 C   0  0  1  0  0  0  0  0  0  0  0  0
   -2.7314    1.7366    0.0645 C   0  0  0  0  0  0  0  0  0  0  0  0
   -3.4238    0.4308   -0.3815 C   0  0  2  0  0  0  0  0  0  0  0  0
   -0.9920   -1.6697    0.5408 C   0  0  1  0  0  0  0  0  0  0  0  0
   -2.3169   -1.8044   -0.2362 C   0  0  0  0  0  0  0  0  0  0  0  0
   -3.3283    2.3752    1.3260 C   0  0  0  0  0  0  0  0  0  0  0  0
   -2.6878    2.7607   -1.0710 C   0  0  0  0  0  0  0  0  0  0  0  0
   -4.8911    0.3572   -0.1017 C   0  0  0  0  0  0  0  0  0  0  0  0
    1.4855   -1.8241    0.1141 C   0  0  0  0  0  0  0  0  0  0  0  0
    2.5197   -1.5829   -0.9680 C   0  0  0  0  0  0  0  0  0  0  0  0
    3.5592   -0.5638   -0.5829 C   0  0  0  0  0  0  0  0  0  0  0  0
    3.3412    0.7761   -0.8702 C   0  0  0  0  0  0  0  0  0  0  0  0
    4.7197   -0.9793    0.0547 C   0  0  0  0  0  0  0  0  0  0  0  0
    4.3037    1.7202   -0.5127 C   0  0  0  0  0  0  0  0  0  0  0  0
    5.6822   -0.0352    0.4124 C   0  0  0  0  0  0  0  0  0  0  0  0
    5.4742    1.3147    0.1287 C   0  0  0  0  0  0  0  0  0  0  0  0
   -1.7940   -0.4091    2.2116 H   0  0  0  0  0  0  0  0  0  0  0  0
   -3.2777    0.2404   -1.4533 H   0  0  0  0  0  0  0  0  0  0  0  0
   -0.8729   -2.4804    1.2704 H   0  0  0  0  0  0  0  0  0  0  0  0
   -2.7206    3.2197    1.6730 H   0  0  0  0  0  0  0  0  0  0  0  0
   -4.3322    2.7697    1.1341 H   0  0  0  0  0  0  0  0  0  0  0  0
   -3.4116    1.6609    2.1528 H   0  0  0  0  0  0  0  0  0  0  0  0
   -2.2318    2.3452   -1.9772 H   0  0  0  0  0  0  0  0  0  0  0  0
   -3.6948    3.0985   -1.3382 H   0  0  0  0  0  0  0  0  0  0  0  0
   -2.1144    3.6510   -0.7870 H   0  0  0  0  0  0  0  0  0  0  0  0
    0.0710   -1.1788   -1.2671 H   0  0  0  0  0  0  0  0  0  0  0  0
   -6.5269    1.2660   -0.6410 H   0  0  0  0  0  0  0  0  0  0  0  0
    2.9984   -2.5475   -1.1812 H   0  0  0  0  0  0  0  0  0  0  0  0
    2.0480   -1.2831   -1.9118 H   0  0  0  0  0  0  0  0  0  0  0  0
    2.4317    1.1018   -1.3672 H   0  0  0  0  0  0  0  0  0  0  0  0
    4.8904   -2.0278    0.2818 H   0  0  0  0  0  0  0  0  0  0  0  0
    4.1295    2.7692   -0.7388 H   0  0  0  0  0  0  0  0  0  0  0  0
    6.5898   -0.3637    0.9121 H   0  0  0  0  0  0  0  0  0  0  0  0
    7.2958    1.9760    0.9557 H   0  0  0  0  0  0  0  0  0  0  0  0
    6.2968    3.2482    0.2852 H   0  0  0  0  0  0  0  0  0  0  0  0
  1  9  1  0  0  0  0
  1 10  1  0  0  0  0
  2 13  2  0  0  0  0
  3 16  1  0  0  0  0
  3 35  1  0  0  0  0
  4 16  2  0  0  0  0
  5 17  2  0  0  0  0
  6  9  1  0  0  0  0
  6 11  1  0  0  0  0
  6 13  1  0  0  0  0
  7 12  1  0  0  0  0
  7 17  1  0  0  0  0
  7 34  1  0  0  0  0
  8 24  1  0  0  0  0
  8 42  1  0  0  0  0
  8 43  1  0  0  0  0
  9 12  1  0  0  0  0
  9 25  1  0  0  0  0
 10 11  1  0  0  0  0
 10 14  1  0  0  0  0
 10 15  1  0  0  0  0
 11 16  1  0  0  0  0
 11 26  1  0  0  0  0
 12 13  1  0  0  0  0
 12 27  1  0  0  0  0
 14 28  1  0  0  0  0
 14 29  1  0  0  0  0
 14 30  1  0  0  0  0
 15 31  1  0  0  0  0
 15 32  1  0  0  0  0
 15 33  1  0  0  0  0
 17 18  1  0  0  0  0
 18 19  1  0  0  0  0
 18 36  1  0  0  0  0
 18 37  1  0  0  0  0
 19 20  2  0  0  0  0
 19 21  1  0  0  0  0
 20 22  1  0  0  0  0
 20 38  1  0  0  0  0
 21 23  2  0  0  0  0
 21 39  1  0  0  0  0
 22 24  2  0  0  0  0
 22 40  1  0  0  0  0
 23 24  1  0  0  0  0
 23 41  1  0  0  0  0
M  END
> <PUBCHEM_COMPOUND_CID>
443392

> <PUBCHEM_CONFORMER_RMSD>
0.8

> <PUBCHEM_CONFORMER_DIVERSEORDER>
9
22
15
23
14
12
25
18
6
3
27
26
21
19
24
29
8
13
7
11
28
4
17
2
10
5
30
16
20
31
1

> <PUBCHEM_MMFF94_PARTIAL_CHARGES>
30
1 -0.45
10 0.23
11 0.36
12 0.28
13 0.58
16 0.66
17 0.57
18 0.2
19 -0.14
2 -0.57
20 -0.15
21 -0.15
22 -0.15
23 -0.15
24 0.1
3 -0.65
34 0.37
35 0.5
38 0.15
39 0.15
4 -0.57
40 0.15
41 0.15
42 0.4
43 0.4
5 -0.57
6 -0.59
7 -0.65
8 -0.9
9 0.44

> <PUBCHEM_EFFECTIVE_ROTOR_COUNT>
5.8

> <PUBCHEM_PHARMACOPHORE_FEATURES>
11
1 2 acceptor
1 3 acceptor
1 4 acceptor
1 5 acceptor
1 7 donor
1 8 cation
1 8 donor
3 10 14 15 hydrophobe
3 3 4 16 anion
6 19 20 21 22 23 24 rings
7 1 6 9 10 11 12 13 rings

> <PUBCHEM_HEAVY_ATOM_COUNT>
24

> <PUBCHEM_ATOM_DEF_STEREO_COUNT>
3

> <PUBCHEM_ATOM_UDEF_STEREO_COUNT>
0

> <PUBCHEM_BOND_DEF_STEREO_COUNT>
0

> <PUBCHEM_BOND_UDEF_STEREO_COUNT>
0

> <PUBCHEM_ISOTOPIC_ATOM_COUNT>
0

> <PUBCHEM_COMPONENT_COUNT>
1

> <PUBCHEM_CACTVS_TAUTO_COUNT>
2

> <PUBCHEM_CONFORMER_ID>
0006C40000000009

> <PUBCHEM_MMFF94_ENERGY>
75.0424

> <PUBCHEM_FEATURE_SELFOVERLAP>
55.873

> <PUBCHEM_SHAPE_FINGERPRINT>
10498660 4 18261386733252739014
10670039 82 18128512999594245020
11370993 70 18412825811178116924
12107183 9 18269848652619850938
12596602 18 16558744564828622368
12633257 1 15267335211232116882
12788726 201 17531526606740590265
13103583 49 12607403338267794190
13402501 40 18411419501352059556
14251764 38 18411131416705549484
14466204 15 18342464755451108608
14739800 52 18338532880220954146
14790565 3 18045209690779915577
15196674 1 18410291385521134390
15463212 79 18410864239058094039
15537594 2 7204775882331758956
15840311 113 17900521670363414089
19784866 240 8142087580374038555
20511986 3 18340502100876786590
20715895 44 18342177807826304268
21033648 29 16845296098013789231
21315764 268 18342744026867074732
21623110 236 18410002265302683665
22950370 63 9079125470773707202
23227448 37 18410011018276864295
235170 7 16733251392472823780
23559900 14 18115596936980534016
2838139 119 18339648948293683932
34797466 226 17530674399408689332
351380 180 18413670206080316558
3680242 22 18342736373129598720
4340502 62 17060048281509363307
46194498 28 4895257210278754434
465052 167 10231752305894707554
474 4 17988635290376385806
5104073 3 18271518822690879027
5486654 36 9439410154822807510
9981440 41 18272368638106213002

> <PUBCHEM_SHAPE_MULTIPOLES>
459.34
13.81
2.93
1.07
10.06
0.34
0.05
6.89
0.08
-0.39
-0.13
-0.36
0.08
0.04

> <PUBCHEM_SHAPE_SELFOVERLAP>
965.579

> <PUBCHEM_SHAPE_VOLUME>
261.4

> <PUBCHEM_COORDINATE_TYPE>
2
5
10

$$$$

