7847008
  -OEChem-06241222483D

 36 38  0     0  0  0  0  0  0999 V2000
   -0.8870    1.5098    1.0622 Cl  0  0  0  0  0  0  0  0  0  0  0  0
   -5.7536    2.3682   -1.0706 Cl  0  0  0  0  0  0  0  0  0  0  0  0
    2.8120   -0.3018   -1.9543 S   0  0  0  0  0  0  0  0  0  0  0  0
   -0.8150   -1.9061   -0.0437 O   0  0  0  0  0  0  0  0  0  0  0  0
    0.3564   -3.2705    1.4013 O   0  0  0  0  0  0  0  0  0  0  0  0
    2.7117   -0.7948    0.5754 N   0  0  0  0  0  0  0  0  0  0  0  0
    2.4306   -2.7936   -0.8484 C   0  0  0  0  0  0  0  0  0  0  0  0
    0.9392   -3.1613   -0.9577 C   0  0  0  0  0  0  0  0  0  0  0  0
    2.6423   -1.3489   -0.6126 C   0  0  0  0  0  0  0  0  0  0  0  0
    2.9978    1.0319   -0.8773 C   0  0  0  0  0  0  0  0  0  0  0  0
    2.9153    0.5707    0.4400 C   0  0  0  0  0  0  0  0  0  0  0  0
    0.1534   -2.8115    0.2857 C   0  0  0  0  0  0  0  0  0  0  0  0
   -1.6499   -1.4761    1.0363 C   0  0  0  0  0  0  0  0  0  0  0  0
   -2.6549   -0.4907    0.5162 C   0  0  0  0  0  0  0  0  0  0  0  0
    3.2017    2.3886   -1.1766 C   0  0  0  0  0  0  0  0  0  0  0  0
    3.0418    1.5023    1.4932 C   0  0  0  0  0  0  0  0  0  0  0  0
    3.3236    3.2896   -0.1159 C   0  0  0  0  0  0  0  0  0  0  0  0
    3.2450    2.8544    1.2025 C   0  0  0  0  0  0  0  0  0  0  0  0
   -2.3878    0.8749    0.4930 C   0  0  0  0  0  0  0  0  0  0  0  0
   -3.8733   -0.9786    0.0525 C   0  0  0  0  0  0  0  0  0  0  0  0
   -3.3470    1.7605    0.0018 C   0  0  0  0  0  0  0  0  0  0  0  0
   -4.8327   -0.0931   -0.4388 C   0  0  0  0  0  0  0  0  0  0  0  0
   -4.5694    1.2763   -0.4642 C   0  0  0  0  0  0  0  0  0  0  0  0
    2.9507   -3.1289   -1.7538 H   0  0  0  0  0  0  0  0  0  0  0  0
    2.8753   -3.3531   -0.0154 H   0  0  0  0  0  0  0  0  0  0  0  0
    0.8271   -4.2385   -1.1255 H   0  0  0  0  0  0  0  0  0  0  0  0
    0.4947   -2.6629   -1.8282 H   0  0  0  0  0  0  0  0  0  0  0  0
   -1.0428   -1.0597    1.8478 H   0  0  0  0  0  0  0  0  0  0  0  0
   -2.1705   -2.3485    1.4530 H   0  0  0  0  0  0  0  0  0  0  0  0
    3.2639    2.7356   -2.2035 H   0  0  0  0  0  0  0  0  0  0  0  0
    2.9808    1.1734    2.5267 H   0  0  0  0  0  0  0  0  0  0  0  0
    3.4815    4.3443   -0.3256 H   0  0  0  0  0  0  0  0  0  0  0  0
    3.3413    3.5698    2.0145 H   0  0  0  0  0  0  0  0  0  0  0  0
   -4.0911   -2.0433    0.0634 H   0  0  0  0  0  0  0  0  0  0  0  0
   -3.1435    2.8291   -0.0187 H   0  0  0  0  0  0  0  0  0  0  0  0
   -5.7806   -0.4847   -0.7992 H   0  0  0  0  0  0  0  0  0  0  0  0
  1 19  1  0  0  0  0
  2 23  1  0  0  0  0
  3  9  1  0  0  0  0
  3 10  1  0  0  0  0
  4 12  1  0  0  0  0
  4 13  1  0  0  0  0
  5 12  2  0  0  0  0
  6  9  2  0  0  0  0
  6 11  1  0  0  0  0
  7  8  1  0  0  0  0
  7  9  1  0  0  0  0
  7 24  1  0  0  0  0
  7 25  1  0  0  0  0
  8 12  1  0  0  0  0
  8 26  1  0  0  0  0
  8 27  1  0  0  0  0
 10 11  1  0  0  0  0
 10 15  2  0  0  0  0
 11 16  2  0  0  0  0
 13 14  1  0  0  0  0
 13 28  1  0  0  0  0
 13 29  1  0  0  0  0
 14 19  2  0  0  0  0
 14 20  1  0  0  0  0
 15 17  1  0  0  0  0
 15 30  1  0  0  0  0
 16 18  1  0  0  0  0
 16 31  1  0  0  0  0
 17 18  2  0  0  0  0
 17 32  1  0  0  0  0
 18 33  1  0  0  0  0
 19 21  1  0  0  0  0
 20 22  2  0  0  0  0
 20 34  1  0  0  0  0
 21 23  2  0  0  0  0
 21 35  1  0  0  0  0
 22 23  1  0  0  0  0
 22 36  1  0  0  0  0
M  END
> <PUBCHEM_COMPOUND_CID>
7847008

> <PUBCHEM_CONFORMER_RMSD>
1

> <PUBCHEM_CONFORMER_DIVERSEORDER>
1
157
115
108
89
179
200
79
178
190
109
112
197
22
166
29
173
7
87
35
196
215
114
16
18
21
213
24
146
83
25
119
46
20
164
205
6
74
202
73
48
81
45
41
183
12
34
80
23
113
101
86
57
186
42
126
63
94
10
91
129
132
170
92
85
71
185
8
153
148
152
206
191
141
135
51
44
38
28
128
61
168
49
11
70
180
2
193
184
104
3
100
39
150
55
127
204
133
159
142
198
121
58
169
111
98
67
155
68
76
151
120
19
77
138
124
13
64
137
82
144
56
17
162
40
65
199
195
110
62
125
14
60
75
30
189
93
131
167
182
43
161
139
90
116
54
130
32
105
99
50
53
211
27
84
136
203
52
26
123
31
158
216
78
194
156
4
15
102
171
212
201
174
188
192
160
106
107
163
208
59
122
72
172
134
5
175
181
214
47
176
140
33
154
97
96
143
177
147
209
118
9
103
210
69
145
217
37
207
165
187
95
117
36
88
66
149

> <PUBCHEM_MMFF94_PARTIAL_CHARGES>
30
1 -0.18
10 0.04
11 0.23
12 0.66
13 0.42
14 -0.14
15 -0.15
16 -0.15
17 -0.15
18 -0.15
19 0.18
2 -0.18
20 -0.15
21 -0.15
22 -0.15
23 0.18
3 -0.08
30 0.15
31 0.15
32 0.15
33 0.15
34 0.15
35 0.15
36 0.15
4 -0.43
5 -0.57
6 -0.57
7 0.18
8 0.06
9 0.2

> <PUBCHEM_EFFECTIVE_ROTOR_COUNT>
6

> <PUBCHEM_PHARMACOPHORE_FEATURES>
5
1 5 acceptor
1 6 acceptor
5 3 6 9 10 11 rings
6 10 11 15 16 17 18 rings
6 14 19 20 21 22 23 rings

> <PUBCHEM_HEAVY_ATOM_COUNT>
23

> <PUBCHEM_ATOM_DEF_STEREO_COUNT>
0

> <PUBCHEM_ATOM_UDEF_STEREO_COUNT>
0

> <PUBCHEM_BOND_DEF_STEREO_COUNT>
0

> <PUBCHEM_BOND_UDEF_STEREO_COUNT>
0

> <PUBCHEM_ISOTOPIC_ATOM_COUNT>
0

> <PUBCHEM_COMPONENT_COUNT>
1

> <PUBCHEM_CACTVS_TAUTO_COUNT>
2

> <PUBCHEM_CONFORMER_ID>
0077BC6000000001

> <PUBCHEM_MMFF94_ENERGY>
41.8057

> <PUBCHEM_FEATURE_SELFOVERLAP>
25.443

> <PUBCHEM_SHAPE_FINGERPRINT>
10498660 4 18191577554235577450
10675989 125 18335143128422429673
10871710 139 17400637121828204102
10928967 22 6771877289768038341
11211813 74 18270689792301051661
11221954 11 18337944576664562362
11370993 70 18339080384807638828
12422481 6 10447375397305136407
12633257 1 14404910128707271408
12769317 202 18408888463901397629
13617811 41 18198072379013326101
13773456 73 18271814505841449699
13965767 371 17845949450157473244
14251764 38 18341335509142042175
14466204 15 18269279139518330242
14468879 13 18271801259972326867
14790565 3 18046902960583578593
14848178 96 18412260662191195877
15664445 248 5689297049721487482
17093844 170 18412829109555316348
17980427 23 18049477942635678779
18681886 176 18118694454704919403
19930381 70 18409449185183991481
20567600 299 18191024714513903764
20621476 13 18410575101896098437
20715895 44 18269568276611214657
21049683 118 17131553964055141577
21475661 188 18342461464693711559
21860390 5 18116992393429684630
22393880 68 18335697239237060405
22749437 52 18411697668929139009
23559900 14 18335985371286589169
238 59 18260816120845773942
3298306 158 18335989683761035897
345986 75 16839960318799256826
43658 37 18408888421236840631
44317340 157 18338241587344799421
474 4 18343299301413023735
495365 180 18334583450932562469
5262128 65 17606380292917656998
54672768 99 18411693279794614772
7808743 9 17908133283855027828
9981440 41 18194125118693839410

> <PUBCHEM_SHAPE_MULTIPOLES>
464.2
9.96
4.34
1.44
12.32
1.21
-0.14
-7.65
-2.76
-3.12
0.12
-0.93
-0.14
1.55

> <PUBCHEM_SHAPE_SELFOVERLAP>
969.926

> <PUBCHEM_SHAPE_VOLUME>
265.9

> <PUBCHEM_COORDINATE_TYPE>
2
5
10

$$$$

