55473
  -OEChem-07051213023D

 55 57  0     0  0  0  0  0  0999 V2000
    0.8335    2.2773   -1.6681 O   0  0  0  0  0  0  0  0  0  0  0  0
    4.3107   -0.6855    3.0818 O   0  0  0  0  0  0  0  0  0  0  0  0
   -3.3709    0.0594    0.2378 N   0  0  0  0  0  0  0  0  0  0  0  0
    2.3982   -0.8437   -2.0823 N   0  0  0  0  0  0  0  0  0  0  0  0
    2.0673   -2.2112   -0.1815 N   0  0  0  0  0  0  0  0  0  0  0  0
    2.8263   -0.2011    0.2171 N   0  0  0  0  0  0  0  0  0  0  0  0
    2.1899   -2.1884    1.1543 N   0  0  0  0  0  0  0  0  0  0  0  0
   -4.8043   -0.1239   -0.0300 C   0  0  0  0  0  0  0  0  0  0  0  0
   -2.8090   -1.1025    0.9408 C   0  0  0  0  0  0  0  0  0  0  0  0
   -5.0520   -1.3722   -0.8785 C   0  0  0  0  0  0  0  0  0  0  0  0
   -2.9915   -2.3826    0.1243 C   0  0  0  0  0  0  0  0  0  0  0  0
   -4.4575   -2.6140   -0.2242 C   0  0  0  0  0  0  0  0  0  0  0  0
   -3.1468    1.2817    1.0093 C   0  0  0  0  0  0  0  0  0  0  0  0
   -1.7250    1.7637    0.8960 C   0  0  0  0  0  0  0  0  0  0  0  0
   -1.0966    1.7970   -0.3489 C   0  0  0  0  0  0  0  0  0  0  0  0
   -1.0361    2.1772    2.0362 C   0  0  0  0  0  0  0  0  0  0  0  0
    0.2206    2.2439   -0.4536 C   0  0  0  0  0  0  0  0  0  0  0  0
    0.2811    2.6240    1.9317 C   0  0  0  0  0  0  0  0  0  0  0  0
    0.9094    2.6575    0.6867 C   0  0  0  0  0  0  0  0  0  0  0  0
    1.6089    0.9674   -3.5233 C   0  0  0  0  0  0  0  0  0  0  0  0
    0.4214    1.3077   -2.6305 C   0  0  0  0  0  0  0  0  0  0  0  0
    2.7824    0.3768   -2.7506 C   0  0  0  0  0  0  0  0  0  0  0  0
    2.4472   -1.0264   -0.7309 C   0  0  0  0  0  0  0  0  0  0  0  0
    2.6521   -0.9510    1.3450 C   0  0  0  0  0  0  0  0  0  0  0  0
    1.5838   -3.3995   -0.8423 C   0  0  0  0  0  0  0  0  0  0  0  0
    2.9571   -0.4320    2.6835 C   0  0  0  0  0  0  0  0  0  0  0  0
   -5.1948    0.7405   -0.5808 H   0  0  0  0  0  0  0  0  0  0  0  0
   -5.3701   -0.1966    0.9083 H   0  0  0  0  0  0  0  0  0  0  0  0
   -1.7338   -0.9702    1.1108 H   0  0  0  0  0  0  0  0  0  0  0  0
   -3.2791   -1.2292    1.9252 H   0  0  0  0  0  0  0  0  0  0  0  0
   -6.1288   -1.5119   -1.0262 H   0  0  0  0  0  0  0  0  0  0  0  0
   -4.6077   -1.2347   -1.8725 H   0  0  0  0  0  0  0  0  0  0  0  0
   -2.4016   -2.3162   -0.7989 H   0  0  0  0  0  0  0  0  0  0  0  0
   -2.6061   -3.2397    0.6882 H   0  0  0  0  0  0  0  0  0  0  0  0
   -4.5535   -3.4752   -0.8944 H   0  0  0  0  0  0  0  0  0  0  0  0
   -5.0179   -2.8509    0.6886 H   0  0  0  0  0  0  0  0  0  0  0  0
   -3.4418    1.1470    2.0585 H   0  0  0  0  0  0  0  0  0  0  0  0
   -3.7694    2.0985    0.6186 H   0  0  0  0  0  0  0  0  0  0  0  0
   -1.6647    1.5145   -1.2309 H   0  0  0  0  0  0  0  0  0  0  0  0
   -1.5130    2.1564    3.0124 H   0  0  0  0  0  0  0  0  0  0  0  0
    0.8182    2.9445    2.8195 H   0  0  0  0  0  0  0  0  0  0  0  0
    1.9363    3.0046    0.6115 H   0  0  0  0  0  0  0  0  0  0  0  0
    1.2821    0.2652   -4.2995 H   0  0  0  0  0  0  0  0  0  0  0  0
    1.9552    1.8773   -4.0282 H   0  0  0  0  0  0  0  0  0  0  0  0
    0.0500    0.3849   -2.1681 H   0  0  0  0  0  0  0  0  0  0  0  0
   -0.3785    1.7404   -3.2424 H   0  0  0  0  0  0  0  0  0  0  0  0
    3.1851    1.1151   -2.0469 H   0  0  0  0  0  0  0  0  0  0  0  0
    3.5917    0.1479   -3.4534 H   0  0  0  0  0  0  0  0  0  0  0  0
    2.0806   -1.5940   -2.6910 H   0  0  0  0  0  0  0  0  0  0  0  0
    0.6656   -3.1469   -1.3785 H   0  0  0  0  0  0  0  0  0  0  0  0
    1.3759   -4.1725   -0.0977 H   0  0  0  0  0  0  0  0  0  0  0  0
    2.3542   -3.7497   -1.5334 H   0  0  0  0  0  0  0  0  0  0  0  0
    2.2972   -0.8811    3.4337 H   0  0  0  0  0  0  0  0  0  0  0  0
    2.8025    0.6516    2.7107 H   0  0  0  0  0  0  0  0  0  0  0  0
    4.4198   -0.3039    3.9697 H   0  0  0  0  0  0  0  0  0  0  0  0
  1 17  1  0  0  0  0
  1 21  1  0  0  0  0
  2 26  1  0  0  0  0
  2 55  1  0  0  0  0
  3  8  1  0  0  0  0
  3  9  1  0  0  0  0
  3 13  1  0  0  0  0
  4 22  1  0  0  0  0
  4 23  1  0  0  0  0
  4 49  1  0  0  0  0
  5  7  1  0  0  0  0
  5 23  1  0  0  0  0
  5 25  1  0  0  0  0
  6 23  2  0  0  0  0
  6 24  1  0  0  0  0
  7 24  2  0  0  0  0
  8 10  1  0  0  0  0
  8 27  1  0  0  0  0
  8 28  1  0  0  0  0
  9 11  1  0  0  0  0
  9 29  1  0  0  0  0
  9 30  1  0  0  0  0
 10 12  1  0  0  0  0
 10 31  1  0  0  0  0
 10 32  1  0  0  0  0
 11 12  1  0  0  0  0
 11 33  1  0  0  0  0
 11 34  1  0  0  0  0
 12 35  1  0  0  0  0
 12 36  1  0  0  0  0
 13 14  1  0  0  0  0
 13 37  1  0  0  0  0
 13 38  1  0  0  0  0
 14 15  2  0  0  0  0
 14 16  1  0  0  0  0
 15 17  1  0  0  0  0
 15 39  1  0  0  0  0
 16 18  2  0  0  0  0
 16 40  1  0  0  0  0
 17 19  2  0  0  0  0
 18 19  1  0  0  0  0
 18 41  1  0  0  0  0
 19 42  1  0  0  0  0
 20 21  1  0  0  0  0
 20 22  1  0  0  0  0
 20 43  1  0  0  0  0
 20 44  1  0  0  0  0
 21 45  1  0  0  0  0
 21 46  1  0  0  0  0
 22 47  1  0  0  0  0
 22 48  1  0  0  0  0
 24 26  1  0  0  0  0
 25 50  1  0  0  0  0
 25 51  1  0  0  0  0
 25 52  1  0  0  0  0
 26 53  1  0  0  0  0
 26 54  1  0  0  0  0
M  END
> <PUBCHEM_COMPOUND_CID>
55473

> <PUBCHEM_CONFORMER_RMSD>
1.2

> <PUBCHEM_CONFORMER_DIVERSEORDER>
1
30
54
4
49
67
72
53
96
104
18
82
125
102
31
35
75
116
100
64
89
94
95
50
9
105
114
110
28
71
2
21
108
32
130
69
131
126
60
6
106
45
44
27
101
66
61
107
78
3
98
85
68
20
16
5
109
41
129
97
99
74
33
52
112
8
19
26
40
118
93
34
124
29
128
36
76
24
81
115
10
113
91
70
88
80
86
90
79
65
22
14
25
121
17
57
12
7
55
123
47
59
119
23
13
11
83
62
87
122
77
84
58
42
117
46
56
73
63
92
103
111
43
39
15
37
120
127
51
38
48

> <PUBCHEM_MMFF94_PARTIAL_CHARGES>
28
1 -0.36
13 0.41
14 -0.14
15 -0.15
16 -0.15
17 0.08
18 -0.15
19 -0.15
2 -0.68
21 0.28
22 0.37
23 0.27
24 0.34
25 0.26
26 0.46
3 -0.81
39 0.15
4 -0.85
40 0.15
41 0.15
42 0.15
49 0.4
5 0.31
55 0.4
6 -0.57
7 -0.71
8 0.27
9 0.27

> <PUBCHEM_EFFECTIVE_ROTOR_COUNT>
10.2

> <PUBCHEM_PHARMACOPHORE_FEATURES>
9
1 1 acceptor
1 2 acceptor
1 2 donor
1 3 cation
1 4 donor
4 4 5 6 23 cation
5 5 6 7 23 24 rings
6 14 15 16 17 18 19 rings
6 3 8 9 10 11 12 rings

> <PUBCHEM_HEAVY_ATOM_COUNT>
26

> <PUBCHEM_ATOM_DEF_STEREO_COUNT>
0

> <PUBCHEM_ATOM_UDEF_STEREO_COUNT>
0

> <PUBCHEM_BOND_DEF_STEREO_COUNT>
0

> <PUBCHEM_BOND_UDEF_STEREO_COUNT>
0

> <PUBCHEM_ISOTOPIC_ATOM_COUNT>
0

> <PUBCHEM_COMPONENT_COUNT>
1

> <PUBCHEM_CACTVS_TAUTO_COUNT>
3

> <PUBCHEM_CONFORMER_ID>
0000D8B100000001

> <PUBCHEM_MMFF94_ENERGY>
42.4482

> <PUBCHEM_FEATURE_SELFOVERLAP>
45.669

> <PUBCHEM_SHAPE_FINGERPRINT>
11112662 9 14780689057990631619
11244481 83 16951111993475332904
11578080 2 18272094936672557564
11720765 8 15984562073320794868
12156800 1 17331394277858400756
12166972 35 17775297053265477187
12403259 327 16957034134690353304
12553582 1 18336248099211126931
14081887 123 18115877458537126371
14114206 34 14905068326234468166
14713325 29 10339319134774341461
20600515 1 18200888317441946802
20626108 58 18131360686980019611
20775530 9 18194676197241830263
21315764 21 11671214318833031864
21421861 104 18189042115309380593
23419403 2 17908749138740821632
23559900 14 17241308266564279285
238 59 17058339541085702612
35225 105 17318445771419568701
6786 2 4966760766293929268
6823239 73 17895460462655535159

> <PUBCHEM_SHAPE_MULTIPOLES>
498.42
7.85
3.73
3.16
8.68
0.41
-1.33
5.59
1.56
0.54
0.75
-4.81
-0.71
-0.8

> <PUBCHEM_SHAPE_SELFOVERLAP>
1032.732

> <PUBCHEM_SHAPE_VOLUME>
286.2

> <PUBCHEM_COORDINATE_TYPE>
2
5
10

$$$$

