46173993
  -OEChem-07051213113D

 81 85  0     1  0  0  0  0  0999 V2000
    7.2830    1.4904    0.8602 O   0  0  0  0  0  0  0  0  0  0  0  0
    1.3476    2.0097   -2.1361 O   0  0  0  0  0  0  0  0  0  0  0  0
   -5.2722   -0.9023    1.6704 O   0  0  0  0  0  0  0  0  0  0  0  0
   -6.9085    1.8680    0.9993 O   0  0  0  0  0  0  0  0  0  0  0  0
   -4.8931    2.5416    1.8242 O   0  0  0  0  0  0  0  0  0  0  0  0
    1.0783   -1.0356   -0.1337 C   0  0  1  0  0  0  0  0  0  0  0  0
    3.2915    0.4617   -0.5342 C   0  0  2  0  0  0  0  0  0  0  0  0
   -0.4606   -0.8397    0.3671 C   0  0  1  0  0  0  0  0  0  0  0  0
    1.7126    0.3905   -0.3410 C   0  0  1  0  0  0  0  0  0  0  0  0
    3.9505   -0.3714    0.6338 C   0  0  1  0  0  0  0  0  0  0  0  0
    1.9123   -1.8418    0.8978 C   0  0  0  0  0  0  0  0  0  0  0  0
   -1.2193    0.0295   -0.6531 C   0  0  0  0  0  0  0  0  0  0  0  0
    3.4221   -1.8189    0.6506 C   0  0  0  0  0  0  0  0  0  0  0  0
   -2.7435   -0.0832   -0.7887 C   0  0  1  0  0  0  0  0  0  0  0  0
    5.5141   -0.2382    0.7915 C   0  0  0  0  0  0  0  0  0  0  0  0
   -3.2821   -1.5329   -0.6438 C   0  0  1  0  0  0  0  0  0  0  0  0
   -1.1462   -2.2221    0.5949 C   0  0  0  0  0  0  0  0  0  0  0  0
    3.7615    1.9410   -0.3567 C   0  0  0  0  0  0  0  0  0  0  0  0
   -2.6771   -2.1852    0.6205 C   0  0  0  0  0  0  0  0  0  0  0  0
    0.8803    1.1621   -1.3780 C   0  0  0  0  0  0  0  0  0  0  0  0
    1.1104   -1.8573   -1.4643 C   0  0  0  0  0  0  0  0  0  0  0  0
    5.8722    1.2750    0.8829 C   0  0  2  0  0  0  0  0  0  0  0  0
    3.7136   -0.0159   -1.9456 C   0  0  0  0  0  0  0  0  0  0  0  0
    5.2739    2.1114   -0.2408 C   0  0  0  0  0  0  0  0  0  0  0  0
   -0.5349   -0.0795    1.7283 C   0  0  0  0  0  0  0  0  0  0  0  0
   -3.4485    0.9316    0.1416 C   0  0  0  0  0  0  0  0  0  0  0  0
   -0.5850    0.9213   -1.4367 C   0  0  0  0  0  0  0  0  0  0  0  0
   -4.8415   -1.5653   -0.5905 C   0  0  0  0  0  0  0  0  0  0  0  0
   -4.9841    0.9017    0.0362 C   0  0  2  0  0  0  0  0  0  0  0  0
   -5.5062   -0.5212    0.3143 C   0  0  2  0  0  0  0  0  0  0  0  0
    5.9624   -0.9046    2.1230 C   0  0  0  0  0  0  0  0  0  0  0  0
    6.3159   -0.9374   -0.3243 C   0  0  0  0  0  0  0  0  0  0  0  0
   -2.8810   -2.3643   -1.8926 C   0  0  0  0  0  0  0  0  0  0  0  0
   -5.4647    1.4195   -1.3300 C   0  0  0  0  0  0  0  0  0  0  0  0
   -5.5541    1.8618    1.0534 C   0  0  0  0  0  0  0  0  0  0  0  0
    1.5467    0.9480    0.5903 H   0  0  0  0  0  0  0  0  0  0  0  0
    3.5563    0.0817    1.5597 H   0  0  0  0  0  0  0  0  0  0  0  0
    1.5795   -2.8869    0.9231 H   0  0  0  0  0  0  0  0  0  0  0  0
    1.7607   -1.4577    1.9095 H   0  0  0  0  0  0  0  0  0  0  0  0
    3.6732   -2.3569   -0.2669 H   0  0  0  0  0  0  0  0  0  0  0  0
    3.8805   -2.3890    1.4643 H   0  0  0  0  0  0  0  0  0  0  0  0
   -2.9885    0.2274   -1.8148 H   0  0  0  0  0  0  0  0  0  0  0  0
   -0.8576   -2.9523   -0.1620 H   0  0  0  0  0  0  0  0  0  0  0  0
   -0.7986   -2.6520    1.5438 H   0  0  0  0  0  0  0  0  0  0  0  0
    3.3024    2.3660    0.5457 H   0  0  0  0  0  0  0  0  0  0  0  0
    3.4266    2.5632   -1.1922 H   0  0  0  0  0  0  0  0  0  0  0  0
   -2.9974   -1.6633    1.5257 H   0  0  0  0  0  0  0  0  0  0  0  0
   -3.0473   -3.2137    0.7223 H   0  0  0  0  0  0  0  0  0  0  0  0
    0.5120   -1.4094   -2.2615 H   0  0  0  0  0  0  0  0  0  0  0  0
    0.7515   -2.8807   -1.3255 H   0  0  0  0  0  0  0  0  0  0  0  0
    2.1166   -1.9800   -1.8595 H   0  0  0  0  0  0  0  0  0  0  0  0
    5.5054    1.6680    1.8405 H   0  0  0  0  0  0  0  0  0  0  0  0
    2.9210    0.1208   -2.6865 H   0  0  0  0  0  0  0  0  0  0  0  0
    4.5688    0.5387   -2.3398 H   0  0  0  0  0  0  0  0  0  0  0  0
    3.9976   -1.0695   -1.9708 H   0  0  0  0  0  0  0  0  0  0  0  0
    5.7744    1.8904   -1.1898 H   0  0  0  0  0  0  0  0  0  0  0  0
    5.4961    3.1710   -0.0562 H   0  0  0  0  0  0  0  0  0  0  0  0
   -1.5393   -0.1059    2.1585 H   0  0  0  0  0  0  0  0  0  0  0  0
   -0.2705    0.9790    1.6375 H   0  0  0  0  0  0  0  0  0  0  0  0
    0.1065   -0.5197    2.4942 H   0  0  0  0  0  0  0  0  0  0  0  0
   -3.0848    1.9437   -0.0865 H   0  0  0  0  0  0  0  0  0  0  0  0
   -3.1636    0.7477    1.1816 H   0  0  0  0  0  0  0  0  0  0  0  0
   -1.1331    1.5312   -2.1490 H   0  0  0  0  0  0  0  0  0  0  0  0
   -5.1645   -2.5699   -0.2858 H   0  0  0  0  0  0  0  0  0  0  0  0
   -5.2358   -1.4190   -1.6046 H   0  0  0  0  0  0  0  0  0  0  0  0
   -6.5920   -0.5652    0.1645 H   0  0  0  0  0  0  0  0  0  0  0  0
    7.0103   -0.6744    2.3483 H   0  0  0  0  0  0  0  0  0  0  0  0
    5.9894   -1.9723   -0.4670 H   0  0  0  0  0  0  0  0  0  0  0  0
    6.2436   -0.4235   -1.2836 H   0  0  0  0  0  0  0  0  0  0  0  0
    7.3839   -0.9748   -0.0773 H   0  0  0  0  0  0  0  0  0  0  0  0
    5.3610   -0.5491    2.9670 H   0  0  0  0  0  0  0  0  0  0  0  0
    5.8842   -1.9957    2.0843 H   0  0  0  0  0  0  0  0  0  0  0  0
   -1.8045   -2.3578   -2.0801 H   0  0  0  0  0  0  0  0  0  0  0  0
   -3.1951   -3.4087   -1.7842 H   0  0  0  0  0  0  0  0  0  0  0  0
   -3.3566   -1.9684   -2.7977 H   0  0  0  0  0  0  0  0  0  0  0  0
   -5.0601    0.8400   -2.1645 H   0  0  0  0  0  0  0  0  0  0  0  0
   -5.1658    2.4636   -1.4824 H   0  0  0  0  0  0  0  0  0  0  0  0
   -6.5563    1.3791   -1.4233 H   0  0  0  0  0  0  0  0  0  0  0  0
    7.4396    2.4413    0.9900 H   0  0  0  0  0  0  0  0  0  0  0  0
   -5.6602   -1.7843    1.8008 H   0  0  0  0  0  0  0  0  0  0  0  0
   -7.2984    2.4856    1.6540 H   0  0  0  0  0  0  0  0  0  0  0  0
  1 22  1  0  0  0  0
  1 79  1  0  0  0  0
  2 20  2  0  0  0  0
  3 30  1  0  0  0  0
  3 80  1  0  0  0  0
  4 35  1  0  0  0  0
  4 81  1  0  0  0  0
  5 35  2  0  0  0  0
  6  8  1  0  0  0  0
  6  9  1  0  0  0  0
  6 11  1  0  0  0  0
  6 21  1  0  0  0  0
  7  9  1  0  0  0  0
  7 10  1  0  0  0  0
  7 18  1  0  0  0  0
  7 23  1  0  0  0  0
  8 12  1  0  0  0  0
  8 17  1  0  0  0  0
  8 25  1  0  0  0  0
  9 20  1  0  0  0  0
  9 36  1  0  0  0  0
 10 13  1  0  0  0  0
 10 15  1  0  0  0  0
 10 37  1  0  0  0  0
 11 13  1  0  0  0  0
 11 38  1  0  0  0  0
 11 39  1  0  0  0  0
 12 14  1  0  0  0  0
 12 27  2  0  0  0  0
 13 40  1  0  0  0  0
 13 41  1  0  0  0  0
 14 16  1  0  0  0  0
 14 26  1  0  0  0  0
 14 42  1  0  0  0  0
 15 22  1  0  0  0  0
 15 31  1  0  0  0  0
 15 32  1  0  0  0  0
 16 19  1  0  0  0  0
 16 28  1  0  0  0  0
 16 33  1  0  0  0  0
 17 19  1  0  0  0  0
 17 43  1  0  0  0  0
 17 44  1  0  0  0  0
 18 24  1  0  0  0  0
 18 45  1  0  0  0  0
 18 46  1  0  0  0  0
 19 47  1  0  0  0  0
 19 48  1  0  0  0  0
 20 27  1  0  0  0  0
 21 49  1  0  0  0  0
 21 50  1  0  0  0  0
 21 51  1  0  0  0  0
 22 24  1  0  0  0  0
 22 52  1  0  0  0  0
 23 53  1  0  0  0  0
 23 54  1  0  0  0  0
 23 55  1  0  0  0  0
 24 56  1  0  0  0  0
 24 57  1  0  0  0  0
 25 58  1  0  0  0  0
 25 59  1  0  0  0  0
 25 60  1  0  0  0  0
 26 29  1  0  0  0  0
 26 61  1  0  0  0  0
 26 62  1  0  0  0  0
 27 63  1  0  0  0  0
 28 30  1  0  0  0  0
 28 64  1  0  0  0  0
 28 65  1  0  0  0  0
 29 30  1  0  0  0  0
 29 34  1  0  0  0  0
 29 35  1  0  0  0  0
 30 66  1  0  0  0  0
 31 67  1  0  0  0  0
 31 71  1  0  0  0  0
 31 72  1  0  0  0  0
 32 68  1  0  0  0  0
 32 69  1  0  0  0  0
 32 70  1  0  0  0  0
 33 73  1  0  0  0  0
 33 74  1  0  0  0  0
 33 75  1  0  0  0  0
 34 76  1  0  0  0  0
 34 77  1  0  0  0  0
 34 78  1  0  0  0  0
M  END
> <PUBCHEM_COMPOUND_CID>
46173993

> <PUBCHEM_CONFORMER_RMSD>
0.8

> <PUBCHEM_CONFORMER_DIVERSEORDER>
1

> <PUBCHEM_MMFF94_PARTIAL_CHARGES>
19
1 -0.68
12 -0.28
14 0.14
2 -0.57
20 0.49
22 0.28
27 -0.14
29 0.06
3 -0.68
30 0.28
35 0.66
4 -0.65
5 -0.57
63 0.15
79 0.4
8 0.14
80 0.4
81 0.5
9 0.06

> <PUBCHEM_EFFECTIVE_ROTOR_COUNT>
3.4

> <PUBCHEM_PHARMACOPHORE_FEATURES>
14
1 1 acceptor
1 1 donor
1 2 acceptor
1 3 acceptor
1 3 donor
1 4 acceptor
1 5 acceptor
3 15 31 32 hydrophobe
3 4 5 35 anion
6 14 16 26 28 29 30 rings
6 6 7 9 10 11 13 rings
6 6 8 9 12 20 27 rings
6 7 10 15 18 22 24 rings
6 8 12 14 16 17 19 rings

> <PUBCHEM_HEAVY_ATOM_COUNT>
35

> <PUBCHEM_ATOM_DEF_STEREO_COUNT>
10

> <PUBCHEM_ATOM_UDEF_STEREO_COUNT>
0

> <PUBCHEM_BOND_DEF_STEREO_COUNT>
0

> <PUBCHEM_BOND_UDEF_STEREO_COUNT>
0

> <PUBCHEM_ISOTOPIC_ATOM_COUNT>
0

> <PUBCHEM_COMPONENT_COUNT>
1

> <PUBCHEM_CACTVS_TAUTO_COUNT>
5

> <PUBCHEM_CONFORMER_ID>
02C08F2900000001

> <PUBCHEM_MMFF94_ENERGY>
157.3324

> <PUBCHEM_FEATURE_SELFOVERLAP>
71.176

> <PUBCHEM_SHAPE_FINGERPRINT>
10 15 18412260627636083929
10906281 52 17917136226981593246
11578080 2 14346889012026368241
11991303 11 15357991009857268492
12236239 1 18335706031135633866
12422481 6 18202290233516602884
12616971 3 17275103916463845718
12633257 1 17703509904701226758
12788726 201 17531524390273617673
13140716 1 17845085160803403540
13583140 156 16660653924924277719
13690498 29 17242185548020606831
13911987 19 14418131820751335933
14020679 6 17060334089759584808
14068700 675 17753629948954484911
14294032 229 17675923193465024199
14394314 77 18341895186099184733
14790565 3 18343864420039917599
14849402 71 18270959016928701292
14856354 85 17749675069652788151
14955137 171 12319738055332485510
15021287 119 17132114628142105173
15183329 4 18272373057452980006
15238133 3 18113336439952564928
15484559 13 15826961654086824614
15840311 113 18264763436794282769
17349148 13 17060340725663528110
17980427 23 18410858728645857997
1813 80 15841557375252430310
18927931 339 11527946773176936011
20511986 3 18338250309331366947
21033648 29 17968392152059562218
21130935 74 18413394233020854178
21424621 283 17313652876381661801
22122407 14 17967810501349594584
23522609 53 18129639964347515340
23559900 14 17968926621410052398
23569914 152 13917066972666242061
23569914 2 16737536253273791352
23569943 247 17630905986787458730
23576562 1 14202265729435855880
24771293 8 18270126687385759964
2838139 119 17385731304504426857
34797466 226 17459181907023611708
350125 39 18130792278502953940
3633792 109 18201455675002244959
3680242 22 17918274264170329312
392239 28 17989210364547600345
404807 14 17323222088807866902
4073 2 18272087146271275674
4093350 32 17967249811276437934
4144715 1 18271516541995309347
4169191 19 18058171627048407972
5028188 123 18262795165489571164
5104073 3 18202002092750746626
6081469 158 13542459853143470673
6086070 43 17969236563398182881
7226269 152 18261111893969138409
7495541 125 12319734756797361838
9849439 229 17318149986482922665

> <PUBCHEM_SHAPE_MULTIPOLES>
690.94
16.77
2.56
1.77
3.12
0.07
-0.1
6.59
6.02
-1.22
0.02
-0.12
0.11
-1.57

> <PUBCHEM_SHAPE_SELFOVERLAP>
1478.383

> <PUBCHEM_SHAPE_VOLUME>
375.8

> <PUBCHEM_COORDINATE_TYPE>
2
5
10

$$$$

