6452294
  -OEChem-07051213093D

 48 50  0     1  0  0  0  0  0999 V2000
    0.2698   -0.2166    0.1647 O   0  0  0  0  0  0  0  0  0  0  0  0
    4.2222   -0.5480   -1.7975 O   0  0  0  0  0  0  0  0  0  0  0  0
    0.6098    2.1090    0.1295 O   0  0  0  0  0  0  0  0  0  0  0  0
    4.6958   -0.7831    1.6212 O   0  0  0  0  0  0  0  0  0  0  0  0
   -1.8073    0.8305   -0.0178 O   0  0  0  0  0  0  0  0  0  0  0  0
   -1.0210   -2.7346    0.1282 O   0  0  0  0  0  0  0  0  0  0  0  0
   -3.7733   -2.5749    1.1677 O   0  0  0  0  0  0  0  0  0  0  0  0
   -5.2329   -0.4582   -0.1533 O   0  0  0  0  0  0  0  0  0  0  0  0
   -3.0584    3.0712   -1.0028 O   0  0  0  0  0  0  0  0  0  0  0  0
    2.4252    0.6617   -0.7384 C   0  0  2  0  0  0  0  0  0  0  0  0
    2.9078   -0.7099   -1.2430 C   0  0  2  0  0  0  0  0  0  0  0  0
    3.2244    0.8325    0.5676 C   0  0  2  0  0  0  0  0  0  0  0  0
    3.3654   -0.5791    1.1587 C   0  0  1  0  0  0  0  0  0  0  0  0
    3.0601   -1.5664    0.0209 C   0  0  0  0  0  0  0  0  0  0  0  0
    0.9113    0.8585   -0.5130 C   0  0  1  0  0  0  0  0  0  0  0  0
    2.0402   -1.3659   -2.3084 C   0  0  0  0  0  0  0  0  0  0  0  0
    2.5833    1.8216    1.4901 C   0  0  0  0  0  0  0  0  0  0  0  0
   -1.0823   -0.3719   -0.2652 C   0  0  2  0  0  0  0  0  0  0  0  0
    1.4066    2.3929    1.2075 C   0  0  0  0  0  0  0  0  0  0  0  0
   -1.6933   -1.5361    0.5144 C   0  0  1  0  0  0  0  0  0  0  0  0
   -3.1877   -1.6765    0.2241 C   0  0  2  0  0  0  0  0  0  0  0  0
   -3.9036   -0.3311    0.3448 C   0  0  1  0  0  0  0  0  0  0  0  0
   -3.1666    0.7495   -0.4498 C   0  0  1  0  0  0  0  0  0  0  0  0
   -3.7954    2.1249   -0.2501 C   0  0  0  0  0  0  0  0  0  0  0  0
    2.7572    1.4547   -1.4249 H   0  0  0  0  0  0  0  0  0  0  0  0
    4.2228    1.2211    0.3212 H   0  0  0  0  0  0  0  0  0  0  0  0
    2.6879   -0.7475    2.0039 H   0  0  0  0  0  0  0  0  0  0  0  0
    3.8413   -2.3275   -0.0845 H   0  0  0  0  0  0  0  0  0  0  0  0
    2.1204   -2.0807    0.2480 H   0  0  0  0  0  0  0  0  0  0  0  0
    0.4818    0.9418   -1.5207 H   0  0  0  0  0  0  0  0  0  0  0  0
    1.0437   -1.6223   -1.9424 H   0  0  0  0  0  0  0  0  0  0  0  0
    1.9330   -0.7058   -3.1763 H   0  0  0  0  0  0  0  0  0  0  0  0
    2.5058   -2.2880   -2.6750 H   0  0  0  0  0  0  0  0  0  0  0  0
    3.1263    2.1247    2.3798 H   0  0  0  0  0  0  0  0  0  0  0  0
   -1.0833   -0.5983   -1.3401 H   0  0  0  0  0  0  0  0  0  0  0  0
    4.5487   -1.4248   -2.0629 H   0  0  0  0  0  0  0  0  0  0  0  0
   -1.5275   -1.4084    1.5915 H   0  0  0  0  0  0  0  0  0  0  0  0
    0.9678    3.1746    1.8115 H   0  0  0  0  0  0  0  0  0  0  0  0
    4.7473   -1.6889    1.9714 H   0  0  0  0  0  0  0  0  0  0  0  0
   -3.3507   -2.1220   -0.7643 H   0  0  0  0  0  0  0  0  0  0  0  0
   -3.9762   -0.0457    1.4015 H   0  0  0  0  0  0  0  0  0  0  0  0
   -3.1771    0.5248   -1.5251 H   0  0  0  0  0  0  0  0  0  0  0  0
   -3.7600    2.4332    0.8001 H   0  0  0  0  0  0  0  0  0  0  0  0
   -4.8347    2.1485   -0.5899 H   0  0  0  0  0  0  0  0  0  0  0  0
   -0.0780   -2.6175    0.3323 H   0  0  0  0  0  0  0  0  0  0  0  0
   -3.6274   -2.2148    2.0592 H   0  0  0  0  0  0  0  0  0  0  0  0
   -5.1793   -0.6986   -1.0941 H   0  0  0  0  0  0  0  0  0  0  0  0
   -2.1361    3.0372   -0.6960 H   0  0  0  0  0  0  0  0  0  0  0  0
  1 15  1  0  0  0  0
  1 18  1  0  0  0  0
  2 11  1  0  0  0  0
  2 36  1  0  0  0  0
  3 15  1  0  0  0  0
  3 19  1  0  0  0  0
  4 13  1  0  0  0  0
  4 39  1  0  0  0  0
  5 18  1  0  0  0  0
  5 23  1  0  0  0  0
  6 20  1  0  0  0  0
  6 45  1  0  0  0  0
  7 21  1  0  0  0  0
  7 46  1  0  0  0  0
  8 22  1  0  0  0  0
  8 47  1  0  0  0  0
  9 24  1  0  0  0  0
  9 48  1  0  0  0  0
 10 11  1  0  0  0  0
 10 12  1  0  0  0  0
 10 15  1  0  0  0  0
 10 25  1  0  0  0  0
 11 14  1  0  0  0  0
 11 16  1  0  0  0  0
 12 13  1  0  0  0  0
 12 17  1  0  0  0  0
 12 26  1  0  0  0  0
 13 14  1  0  0  0  0
 13 27  1  0  0  0  0
 14 28  1  0  0  0  0
 14 29  1  0  0  0  0
 15 30  1  0  0  0  0
 16 31  1  0  0  0  0
 16 32  1  0  0  0  0
 16 33  1  0  0  0  0
 17 19  2  0  0  0  0
 17 34  1  0  0  0  0
 18 20  1  0  0  0  0
 18 35  1  0  0  0  0
 19 38  1  0  0  0  0
 20 21  1  0  0  0  0
 20 37  1  0  0  0  0
 21 22  1  0  0  0  0
 21 40  1  0  0  0  0
 22 23  1  0  0  0  0
 22 41  1  0  0  0  0
 23 24  1  0  0  0  0
 23 42  1  0  0  0  0
 24 43  1  0  0  0  0
 24 44  1  0  0  0  0
M  END
> <PUBCHEM_COMPOUND_CID>
6452294

> <PUBCHEM_CONFORMER_RMSD>
1

> <PUBCHEM_CONFORMER_DIVERSEORDER>
1
410
353
114
388
602
307
317
80
402
254
582
298
350
60
517
489
82
296
374
415
277
13
10
283
556
153
20
589
100
32
140
25
358
176
213
30
201
152
247
560
252
171
21
83
534
219
464
24
280
264
88
72
138
150
151
420
528
419
329
4
49
591
33
339
23
612
424
5
161
599
479
67
99
303
137
128
54
371
384
332
413
357
510
297
328
6
202
112
375
322
85
394
584
28
77
389
500
526
36
16
423
29
7
61
98
210
173
386
314
243
346
182
58
338
523
359
63
144
17
356
238
8
156
230
221
470
399
52
411
118
295
122
241
127
124
434
43
396
366
117
38
111
46
373
331
220
242
143
104
319
39
12
226
48
70
465
204
575
135
570
73
57

> <PUBCHEM_MMFF94_PARTIAL_CHARGES>
29
1 -0.56
11 0.28
12 0.14
13 0.28
15 0.56
17 -0.29
18 0.56
19 -0.07
2 -0.68
20 0.28
21 0.28
22 0.28
23 0.28
24 0.28
3 -0.36
34 0.15
36 0.4
38 0.15
39 0.4
4 -0.68
45 0.4
46 0.4
47 0.4
48 0.4
5 -0.56
6 -0.68
7 -0.68
8 -0.68
9 -0.68

> <PUBCHEM_EFFECTIVE_ROTOR_COUNT>
5.2

> <PUBCHEM_PHARMACOPHORE_FEATURES>
18
1 1 acceptor
1 2 acceptor
1 2 donor
1 3 acceptor
1 4 acceptor
1 4 donor
1 5 acceptor
1 6 acceptor
1 6 donor
1 7 acceptor
1 7 donor
1 8 acceptor
1 8 donor
1 9 acceptor
1 9 donor
5 10 11 12 13 14 rings
6 3 10 12 15 17 19 rings
6 5 18 20 21 22 23 rings

> <PUBCHEM_HEAVY_ATOM_COUNT>
24

> <PUBCHEM_ATOM_DEF_STEREO_COUNT>
5

> <PUBCHEM_ATOM_UDEF_STEREO_COUNT>
5

> <PUBCHEM_BOND_DEF_STEREO_COUNT>
0

> <PUBCHEM_BOND_UDEF_STEREO_COUNT>
0

> <PUBCHEM_ISOTOPIC_ATOM_COUNT>
0

> <PUBCHEM_COMPONENT_COUNT>
1

> <PUBCHEM_CACTVS_TAUTO_COUNT>
1

> <PUBCHEM_CONFORMER_ID>
0062744600000001

> <PUBCHEM_MMFF94_ENERGY>
75.2252

> <PUBCHEM_FEATURE_SELFOVERLAP>
91.57

> <PUBCHEM_SHAPE_FINGERPRINT>
10366900 7 18188773821133626589
10646746 165 18411421708648290424
108634 29 18118128197436250132
10906281 52 18114178692178053176
1100329 8 16606600086477220161
11578080 2 17130176185359214844
12236239 1 16988842778337701055
12403259 226 18336546023849160595
12633257 1 18334856091229961499
13134695 92 16732985344855324336
13140716 1 18410013238769895913
13224815 77 18342734070731663563
14178342 30 18200888278982114442
14223421 5 18191303767139466027
14251757 17 18261392312225313761
14866123 147 16819380836549187666
15375358 24 18187091680154411468
15635459 17 18187357735987786462
16752209 62 18343018912994434675
17349148 13 15068623794516568765
17357779 13 17386838590465775908
17804303 29 18412258424475934517
1813 80 16271377442943972546
18186145 218 18187641444479164857
19049666 15 18407759252738540441
20600515 1 18340496676623761628
20645477 70 17822292370542739500
21033648 29 17095816506619233114
23557571 272 18335980951854977516
23559900 14 18337664235284632269
2838139 119 5977527482535819458
474 4 14779842485972763730
495365 180 17603592880574834155
508706 21 18340203085559633365
5104073 3 18338515236257957963
5161694 15 18333731346716780973
6049 1 18262227842162312809
6823239 73 18261381214341154470
81228 2 17753316866938947840
9709674 26 18261957349511754791

> <PUBCHEM_SHAPE_MULTIPOLES>
441.08
9.03
2.82
1.49
4.19
0.74
0.35
-1.27
-0.69
1.69
-0.28
-1.63
-0.27
1.97

> <PUBCHEM_SHAPE_SELFOVERLAP>
927.063

> <PUBCHEM_SHAPE_VOLUME>
243.3

> <PUBCHEM_COORDINATE_TYPE>
2
5
10

$$$$

