441838
  -OEChem-07051212563D

 81 86  0     1  0  0  0  0  0999 V2000
    3.9656   -1.1416    0.9759 O   0  0  0  0  0  0  0  0  0  0  0  0
    5.5885   -1.4504   -2.5046 O   0  0  0  0  0  0  0  0  0  0  0  0
   -4.6432    0.3198    0.3897 O   0  0  0  0  0  0  0  0  0  0  0  0
   -1.0196    3.3359    1.1641 O   0  0  0  0  0  0  0  0  0  0  0  0
    8.4335   -0.1297    0.8716 O   0  0  0  0  0  0  0  0  0  0  0  0
   -5.7552   -1.1856   -1.0691 O   0  0  0  0  0  0  0  0  0  0  0  0
    8.3693   -2.3949    1.2726 O   0  0  0  0  0  0  0  0  0  0  0  0
   -6.8682   -2.4103    1.2805 O   0  0  0  0  0  0  0  0  0  0  0  0
   -8.6978   -0.3633    1.7356 O   0  0  0  0  0  0  0  0  0  0  0  0
   -8.9558    0.6377   -0.9248 O   0  0  0  0  0  0  0  0  0  0  0  0
    3.2946   -0.3425   -0.0129 C   0  0  2  0  0  0  0  0  0  0  0  0
    4.0770    0.9901   -0.2005 C   0  0  1  0  0  0  0  0  0  0  0  0
    1.8257   -0.1579    0.4687 C   0  0  1  0  0  0  0  0  0  0  0  0
    1.0374    0.9296   -0.2972 C   0  0  1  0  0  0  0  0  0  0  0  0
   -0.4124    1.1619    0.2950 C   0  0  2  0  0  0  0  0  0  0  0  0
    5.3111    0.5502   -1.0567 C   0  0  2  0  0  0  0  0  0  0  0  0
    3.2298    2.0053   -1.0165 C   0  0  0  0  0  0  0  0  0  0  0  0
    1.8427    2.2368   -0.4307 C   0  0  0  0  0  0  0  0  0  0  0  0
   -0.9327   -0.0887    1.0668 C   0  0  2  0  0  0  0  0  0  0  0  0
    3.4633   -1.0650   -1.3727 C   0  0  0  0  0  0  0  0  0  0  0  0
    1.0566   -1.5059    0.4768 C   0  0  0  0  0  0  0  0  0  0  0  0
    4.6920   -0.4464   -2.0591 C   0  0  2  0  0  0  0  0  0  0  0  0
   -0.4632   -1.3688    0.3795 C   0  0  0  0  0  0  0  0  0  0  0  0
   -1.3463    1.5719   -0.8760 C   0  0  0  0  0  0  0  0  0  0  0  0
    4.4913    1.6419    1.1353 C   0  0  0  0  0  0  0  0  0  0  0  0
   -2.4518   -0.0834    1.3000 C   0  0  0  0  0  0  0  0  0  0  0  0
   -2.8289    1.5798   -0.5235 C   0  0  0  0  0  0  0  0  0  0  0  0
   -3.2617    0.2410    0.0531 C   0  0  2  0  0  0  0  0  0  0  0  0
    6.4587   -0.0361   -0.2825 C   0  0  0  0  0  0  0  0  0  0  0  0
   -0.3878    2.2938    1.3025 C   0  0  0  0  0  0  0  0  0  0  0  0
    7.5774    0.7996    0.1989 C   0  0  0  0  0  0  0  0  0  0  0  0
    6.6274   -1.3101    0.0610 C   0  0  0  0  0  0  0  0  0  0  0  0
    7.8891   -1.3792    0.7997 C   0  0  0  0  0  0  0  0  0  0  0  0
   -5.2815   -0.9459    0.2604 C   0  0  2  0  0  0  0  0  0  0  0  0
   -6.4255   -1.0522    1.2671 C   0  0  1  0  0  0  0  0  0  0  0  0
   -7.5825   -0.1304    0.8784 C   0  0  1  0  0  0  0  0  0  0  0  0
   -6.7825   -0.2856   -1.4972 C   0  0  2  0  0  0  0  0  0  0  0  0
   -8.0051   -0.3643   -0.5725 C   0  0  2  0  0  0  0  0  0  0  0  0
   -7.1290   -0.6568   -2.9364 C   0  0  0  0  0  0  0  0  0  0  0  0
    1.8797    0.1674    1.5185 H   0  0  0  0  0  0  0  0  0  0  0  0
    0.9147    0.5417   -1.3188 H   0  0  0  0  0  0  0  0  0  0  0  0
    5.7093    1.4024   -1.6239 H   0  0  0  0  0  0  0  0  0  0  0  0
    3.1005    1.6780   -2.0542 H   0  0  0  0  0  0  0  0  0  0  0  0
    3.7596    2.9649   -1.0751 H   0  0  0  0  0  0  0  0  0  0  0  0
    1.9521    2.7352    0.5374 H   0  0  0  0  0  0  0  0  0  0  0  0
    1.3038    2.9373   -1.0798 H   0  0  0  0  0  0  0  0  0  0  0  0
   -0.4893   -0.0989    2.0742 H   0  0  0  0  0  0  0  0  0  0  0  0
    2.5944   -0.8958   -2.0186 H   0  0  0  0  0  0  0  0  0  0  0  0
    3.5791   -2.1482   -1.2535 H   0  0  0  0  0  0  0  0  0  0  0  0
    1.3035   -2.0335    1.4075 H   0  0  0  0  0  0  0  0  0  0  0  0
    1.3788   -2.1676   -0.3334 H   0  0  0  0  0  0  0  0  0  0  0  0
    4.3672    0.0965   -2.9549 H   0  0  0  0  0  0  0  0  0  0  0  0
   -0.7644   -1.3687   -0.6751 H   0  0  0  0  0  0  0  0  0  0  0  0
   -0.9271   -2.2526    0.8334 H   0  0  0  0  0  0  0  0  0  0  0  0
   -1.2140    0.8693   -1.7097 H   0  0  0  0  0  0  0  0  0  0  0  0
   -1.0712    2.5584   -1.2698 H   0  0  0  0  0  0  0  0  0  0  0  0
    5.0892    0.9778    1.7667 H   0  0  0  0  0  0  0  0  0  0  0  0
    5.0711    2.5547    0.9599 H   0  0  0  0  0  0  0  0  0  0  0  0
    3.6193    1.9193    1.7357 H   0  0  0  0  0  0  0  0  0  0  0  0
   -2.7708   -1.0421    1.7268 H   0  0  0  0  0  0  0  0  0  0  0  0
   -2.6916    0.6569    2.0762 H   0  0  0  0  0  0  0  0  0  0  0  0
   -3.0755    2.3880    0.1742 H   0  0  0  0  0  0  0  0  0  0  0  0
   -3.4177    1.7940   -1.4246 H   0  0  0  0  0  0  0  0  0  0  0  0
   -3.1029   -0.5261   -0.7172 H   0  0  0  0  0  0  0  0  0  0  0  0
    3.5654   -2.0271    0.9790 H   0  0  0  0  0  0  0  0  0  0  0  0
    0.2445    2.1379    2.1944 H   0  0  0  0  0  0  0  0  0  0  0  0
    5.0972   -2.0373   -3.1044 H   0  0  0  0  0  0  0  0  0  0  0  0
    8.1328    1.2571   -0.6251 H   0  0  0  0  0  0  0  0  0  0  0  0
    7.2739    1.5713    0.9092 H   0  0  0  0  0  0  0  0  0  0  0  0
    6.0113   -2.1714   -0.1285 H   0  0  0  0  0  0  0  0  0  0  0  0
   -4.5731   -1.7557    0.4761 H   0  0  0  0  0  0  0  0  0  0  0  0
   -6.0909   -0.8051    2.2811 H   0  0  0  0  0  0  0  0  0  0  0  0
   -7.2937    0.9184    1.0166 H   0  0  0  0  0  0  0  0  0  0  0  0
   -6.3812    0.7361   -1.5098 H   0  0  0  0  0  0  0  0  0  0  0  0
   -8.5011   -1.3392   -0.6577 H   0  0  0  0  0  0  0  0  0  0  0  0
   -6.1278   -2.9580    1.5925 H   0  0  0  0  0  0  0  0  0  0  0  0
   -6.2267   -0.6503   -3.5579 H   0  0  0  0  0  0  0  0  0  0  0  0
   -7.5390   -1.6714   -2.9902 H   0  0  0  0  0  0  0  0  0  0  0  0
   -7.8510    0.0381   -3.3742 H   0  0  0  0  0  0  0  0  0  0  0  0
   -8.9381   -1.3028    1.6613 H   0  0  0  0  0  0  0  0  0  0  0  0
   -9.3414    0.3924   -1.7823 H   0  0  0  0  0  0  0  0  0  0  0  0
  1 11  1  0  0  0  0
  1 65  1  0  0  0  0
  2 22  1  0  0  0  0
  2 67  1  0  0  0  0
  3 28  1  0  0  0  0
  3 34  1  0  0  0  0
  4 30  2  0  0  0  0
  5 31  1  0  0  0  0
  5 33  1  0  0  0  0
  6 34  1  0  0  0  0
  6 37  1  0  0  0  0
  7 33  2  0  0  0  0
  8 35  1  0  0  0  0
  8 76  1  0  0  0  0
  9 36  1  0  0  0  0
  9 80  1  0  0  0  0
 10 38  1  0  0  0  0
 10 81  1  0  0  0  0
 11 12  1  0  0  0  0
 11 13  1  0  0  0  0
 11 20  1  0  0  0  0
 12 16  1  0  0  0  0
 12 17  1  0  0  0  0
 12 25  1  0  0  0  0
 13 14  1  0  0  0  0
 13 21  1  0  0  0  0
 13 40  1  0  0  0  0
 14 15  1  0  0  0  0
 14 18  1  0  0  0  0
 14 41  1  0  0  0  0
 15 19  1  0  0  0  0
 15 24  1  0  0  0  0
 15 30  1  0  0  0  0
 16 22  1  0  0  0  0
 16 29  1  0  0  0  0
 16 42  1  0  0  0  0
 17 18  1  0  0  0  0
 17 43  1  0  0  0  0
 17 44  1  0  0  0  0
 18 45  1  0  0  0  0
 18 46  1  0  0  0  0
 19 23  1  0  0  0  0
 19 26  1  0  0  0  0
 19 47  1  0  0  0  0
 20 22  1  0  0  0  0
 20 48  1  0  0  0  0
 20 49  1  0  0  0  0
 21 23  1  0  0  0  0
 21 50  1  0  0  0  0
 21 51  1  0  0  0  0
 22 52  1  0  0  0  0
 23 53  1  0  0  0  0
 23 54  1  0  0  0  0
 24 27  1  0  0  0  0
 24 55  1  0  0  0  0
 24 56  1  0  0  0  0
 25 57  1  0  0  0  0
 25 58  1  0  0  0  0
 25 59  1  0  0  0  0
 26 28  1  0  0  0  0
 26 60  1  0  0  0  0
 26 61  1  0  0  0  0
 27 28  1  0  0  0  0
 27 62  1  0  0  0  0
 27 63  1  0  0  0  0
 28 64  1  0  0  0  0
 29 31  1  0  0  0  0
 29 32  2  0  0  0  0
 30 66  1  0  0  0  0
 31 68  1  0  0  0  0
 31 69  1  0  0  0  0
 32 33  1  0  0  0  0
 32 70  1  0  0  0  0
 34 35  1  0  0  0  0
 34 71  1  0  0  0  0
 35 36  1  0  0  0  0
 35 72  1  0  0  0  0
 36 38  1  0  0  0  0
 36 73  1  0  0  0  0
 37 38  1  0  0  0  0
 37 39  1  0  0  0  0
 37 74  1  0  0  0  0
 38 75  1  0  0  0  0
 39 77  1  0  0  0  0
 39 78  1  0  0  0  0
 39 79  1  0  0  0  0
M  END
> <PUBCHEM_COMPOUND_CID>
441838

> <PUBCHEM_CONFORMER_RMSD>
1

> <PUBCHEM_CONFORMER_DIVERSEORDER>
3
23
5
11
26
8
15
28
30
22
1
24
12
27
20
25
10
31
17
19
13
29
2
33
14
7
21
16
32
18
9
6
4

> <PUBCHEM_MMFF94_PARTIAL_CHARGES>
32
1 -0.68
10 -0.68
11 0.28
15 0.06
16 0.14
2 -0.68
22 0.28
28 0.28
29 -0.28
3 -0.56
30 0.45
31 0.42
32 -0.14
33 0.71
34 0.56
35 0.28
36 0.28
37 0.28
38 0.28
4 -0.57
5 -0.43
6 -0.56
65 0.4
66 0.06
67 0.4
7 -0.57
70 0.15
76 0.4
8 -0.68
80 0.4
81 0.4
9 -0.68

> <PUBCHEM_EFFECTIVE_ROTOR_COUNT>
7.8

> <PUBCHEM_PHARMACOPHORE_FEATURES>
20
1 1 acceptor
1 1 donor
1 10 acceptor
1 10 donor
1 2 acceptor
1 2 donor
1 3 acceptor
1 4 acceptor
1 6 acceptor
1 7 acceptor
1 8 acceptor
1 8 donor
1 9 acceptor
1 9 donor
5 11 12 16 20 22 rings
5 5 29 31 32 33 rings
6 11 12 13 14 17 18 rings
6 13 14 15 19 21 23 rings
6 15 19 24 26 27 28 rings
6 6 34 35 36 37 38 rings

> <PUBCHEM_HEAVY_ATOM_COUNT>
39

> <PUBCHEM_ATOM_DEF_STEREO_COUNT>
14

> <PUBCHEM_ATOM_UDEF_STEREO_COUNT>
0

> <PUBCHEM_BOND_DEF_STEREO_COUNT>
0

> <PUBCHEM_BOND_UDEF_STEREO_COUNT>
0

> <PUBCHEM_ISOTOPIC_ATOM_COUNT>
0

> <PUBCHEM_COMPONENT_COUNT>
1

> <PUBCHEM_CACTVS_TAUTO_COUNT>
1

> <PUBCHEM_CONFORMER_ID>
0006BDEE00000003

> <PUBCHEM_MMFF94_ENERGY>
138.0944

> <PUBCHEM_FEATURE_SELFOVERLAP>
101.756

> <PUBCHEM_SHAPE_FINGERPRINT>
10 15 5906048145160366599
10162869 55 16732991907375383189
10625338 86 6843927183024503807
11135926 11 18343022207809876955
11181472 205 14189026638384024198
11386260 185 15195275414330057206
11828532 37 18059564738218333762
12166972 35 18131628976861332076
12522641 24 16733272257592935144
13008946 282 17749958739474702752
13782708 43 18201434753245822185
13811026 1 18335701671601092004
13914758 101 15626225727638337614
14068700 675 18409164424425852888
15064981 194 12031202044738527825
15183329 4 18131071528866102457
15439362 3 16914517846033702380
15461852 350 11239991240519897209
1577012 14 13470419872281081381
18603816 31 17749401321865731215
19841028 212 17059786628028569234
20105231 36 17561073672083888771
2026 5 18199752612911303074
21033648 29 10087344583813213052
21267235 1 18272085007108179352
21781051 124 17560223748266406202
21792934 111 18259707804466781857
21792938 703 17897175624356581463
21792961 116 18131075965197950135
22149856 69 17168693237373553272
23559900 14 18059289834109614713
23569917 315 18272364330755597130
335507 130 17967247590524982089
3383291 50 18409443678619498747
3633792 109 17203050776565440498
4098825 35 15984830358780187975
4112364 45 5184051674787234328
4353968 344 17987806344677057630
439807 62 18272369784582327280
4403749 210 5545200511342884101
45266715 3 15913048776683978498
474113 269 17988652951788634530
484989 97 18058722503600418099
504579 68 16487256586026833232
5219985 9 18113618980176415953
5758199 1 11671784871226953605
6081469 158 17489310806452722918
6126387 218 17894632574209654313
9962374 69 17822301128382067213

> <PUBCHEM_SHAPE_MULTIPOLES>
743.91
27.4
2.2
1.79
19.9
0.81
0.94
-12.49
0.55
-1.4
-0.52
1.49
-0.4
0.01

> <PUBCHEM_SHAPE_SELFOVERLAP>
1607.602

> <PUBCHEM_SHAPE_VOLUME>
402.5

> <PUBCHEM_COORDINATE_TYPE>
2
5
10

$$$$

