439455
  -OEChem-07051212453D

 39 39  0     1  0  0  0  0  0999 V2000
    0.1723   -3.0373    0.3705 P   0  0  0  0  0  0  0  0  0  0  0  0
    3.4355    1.2061    0.2425 P   0  0  0  0  0  0  0  0  0  0  0  0
   -3.3395    1.0752    0.5595 P   0  0  0  0  0  0  0  0  0  0  0  0
   -0.4688   -1.8460   -0.5101 O   0  0  0  0  0  0  0  0  0  0  0  0
    2.3268    0.4857   -0.6806 O   0  0  0  0  0  0  0  0  0  0  0  0
   -2.2852    0.2898   -0.3771 O   0  0  0  0  0  0  0  0  0  0  0  0
   -1.2155   -0.5256   -2.8519 O   0  0  0  0  0  0  0  0  0  0  0  0
   -0.3337   -0.0719    1.7469 O   0  0  0  0  0  0  0  0  0  0  0  0
    0.4147    2.7267   -0.4797 O   0  0  0  0  0  0  0  0  0  0  0  0
    0.9687   -3.9342   -0.7143 O   0  0  0  0  0  0  0  0  0  0  0  0
   -1.1174   -3.9447    0.7284 O   0  0  0  0  0  0  0  0  0  0  0  0
    4.5341    1.7406   -0.8170 O   0  0  0  0  0  0  0  0  0  0  0  0
    4.1753   -0.0492    0.9439 O   0  0  0  0  0  0  0  0  0  0  0  0
   -4.4497   -0.0454    0.9157 O   0  0  0  0  0  0  0  0  0  0  0  0
   -4.1033    2.0330   -0.4962 O   0  0  0  0  0  0  0  0  0  0  0  0
    0.9818   -2.5919    1.5531 O   0  0  0  0  0  0  0  0  0  0  0  0
    2.9037    2.2396    1.1918 O   0  0  0  0  0  0  0  0  0  0  0  0
   -2.7407    1.7832    1.7395 O   0  0  0  0  0  0  0  0  0  0  0  0
    0.4150   -0.9028   -1.1116 C   0  0  2  0  0  0  0  0  0  0  0  0
    1.2813   -0.2355   -0.0333 C   0  0  2  0  0  0  0  0  0  0  0  0
   -1.2444    1.0424   -0.9971 C   0  0  2  0  0  0  0  0  0  0  0  0
   -0.3900    0.1396   -1.8988 C   0  0  2  0  0  0  0  0  0  0  0  0
    0.4795    0.7130    0.8778 C   0  0  1  0  0  0  0  0  0  0  0  0
   -0.4004    1.7097    0.0981 C   0  0  1  0  0  0  0  0  0  0  0  0
    1.0472   -1.4500   -1.8216 H   0  0  0  0  0  0  0  0  0  0  0  0
    1.8075   -0.9638    0.5670 H   0  0  0  0  0  0  0  0  0  0  0  0
   -1.7157    1.8045   -1.6294 H   0  0  0  0  0  0  0  0  0  0  0  0
    0.3101    0.7658   -2.4655 H   0  0  0  0  0  0  0  0  0  0  0  0
    1.1043    1.2580    1.5706 H   0  0  0  0  0  0  0  0  0  0  0  0
   -0.9943    2.2729    0.8002 H   0  0  0  0  0  0  0  0  0  0  0  0
   -1.7036    0.1566   -3.3436 H   0  0  0  0  0  0  0  0  0  0  0  0
   -0.9847   -0.5492    1.2061 H   0  0  0  0  0  0  0  0  0  0  0  0
    0.9415    3.1274    0.2327 H   0  0  0  0  0  0  0  0  0  0  0  0
    1.4994   -4.6973   -0.4010 H   0  0  0  0  0  0  0  0  0  0  0  0
   -1.0102   -4.6990    1.3462 H   0  0  0  0  0  0  0  0  0  0  0  0
    5.2918    2.2699   -0.4884 H   0  0  0  0  0  0  0  0  0  0  0  0
    4.8439    0.1229    1.6406 H   0  0  0  0  0  0  0  0  0  0  0  0
   -5.1755    0.1856    1.5338 H   0  0  0  0  0  0  0  0  0  0  0  0
   -4.7436    2.6952   -0.1589 H   0  0  0  0  0  0  0  0  0  0  0  0
  1  4  1  0  0  0  0
  1 10  1  0  0  0  0
  1 11  1  0  0  0  0
  1 16  2  0  0  0  0
  2  5  1  0  0  0  0
  2 12  1  0  0  0  0
  2 13  1  0  0  0  0
  2 17  2  0  0  0  0
  3  6  1  0  0  0  0
  3 14  1  0  0  0  0
  3 15  1  0  0  0  0
  3 18  2  0  0  0  0
  4 19  1  0  0  0  0
  5 20  1  0  0  0  0
  6 21  1  0  0  0  0
  7 22  1  0  0  0  0
  7 31  1  0  0  0  0
  8 23  1  0  0  0  0
  8 32  1  0  0  0  0
  9 24  1  0  0  0  0
  9 33  1  0  0  0  0
 10 34  1  0  0  0  0
 11 35  1  0  0  0  0
 12 36  1  0  0  0  0
 13 37  1  0  0  0  0
 14 38  1  0  0  0  0
 15 39  1  0  0  0  0
 19 20  1  0  0  0  0
 19 22  1  0  0  0  0
 19 25  1  0  0  0  0
 20 23  1  0  0  0  0
 20 26  1  0  0  0  0
 21 22  1  0  0  0  0
 21 24  1  0  0  0  0
 21 27  1  0  0  0  0
 22 28  1  0  0  0  0
 23 24  1  0  0  0  0
 23 29  1  0  0  0  0
 24 30  1  0  0  0  0
M  END
> <PUBCHEM_COMPOUND_CID>
439455

> <PUBCHEM_CONFORMER_RMSD>
0.8

> <PUBCHEM_CONFORMER_DIVERSEORDER>
1
4
5
2
3

> <PUBCHEM_MMFF94_PARTIAL_CHARGES>
33
1 1.51
10 -0.77
11 -0.77
12 -0.77
13 -0.77
14 -0.77
15 -0.77
16 -0.7
17 -0.7
18 -0.7
19 0.28
2 1.51
20 0.28
21 0.28
22 0.28
23 0.28
24 0.28
3 1.51
31 0.4
32 0.4
33 0.4
34 0.5
35 0.5
36 0.5
37 0.5
38 0.5
39 0.5
4 -0.55
5 -0.55
6 -0.55
7 -0.68
8 -0.68
9 -0.68

> <PUBCHEM_EFFECTIVE_ROTOR_COUNT>
7.2

> <PUBCHEM_PHARMACOPHORE_FEATURES>
19
1 10 acceptor
1 11 acceptor
1 12 acceptor
1 13 acceptor
1 14 acceptor
1 15 acceptor
1 16 acceptor
1 17 acceptor
1 18 acceptor
1 7 acceptor
1 7 donor
1 8 acceptor
1 8 donor
1 9 acceptor
1 9 donor
4 1 10 11 16 anion
4 2 12 13 17 anion
4 3 14 15 18 anion
6 19 20 21 22 23 24 rings

> <PUBCHEM_HEAVY_ATOM_COUNT>
24

> <PUBCHEM_ATOM_DEF_STEREO_COUNT>
6

> <PUBCHEM_ATOM_UDEF_STEREO_COUNT>
0

> <PUBCHEM_BOND_DEF_STEREO_COUNT>
0

> <PUBCHEM_BOND_UDEF_STEREO_COUNT>
0

> <PUBCHEM_ISOTOPIC_ATOM_COUNT>
0

> <PUBCHEM_COMPONENT_COUNT>
1

> <PUBCHEM_CACTVS_TAUTO_COUNT>
1

> <PUBCHEM_CONFORMER_ID>
0006B49F00000001

> <PUBCHEM_MMFF94_ENERGY>
-23.6898

> <PUBCHEM_FEATURE_SELFOVERLAP>
96.528

> <PUBCHEM_SHAPE_FINGERPRINT>
10382601 240 17899673924742729393
10863032 1 18333726944443763887
10948715 1 18260828198146065289
11578080 2 17556571372766290853
12173636 292 18338243643774407692
12592029 89 18336263551981218560
12788726 201 17692533312807279584
14178342 30 18268125696102159161
14787075 74 18114747010708244609
14817 1 14978844379330997119
14863182 85 18057859464619751923
15309172 13 18412266133552289008
16945 1 17385732391094144852
17980427 23 17060044931366443597
1813 80 17175465313714450510
18769570 83 8213883443710930947
19591789 44 18411983567811945858
20600515 1 16744479398783403162
20645476 183 18340481154342824964
21330990 113 18271799138010705302
21524375 3 18113619018762315620
23419403 2 17029601665837240270
23558518 356 17827662256579107129
23559900 14 17912083064323200789
298252 57 17022905648555567879
3759504 43 18337667525530384572
394222 165 17969219117330457241
4340502 62 18409728482833374531
7364860 26 18050007988933653290
81228 2 17697611991417978058
8272917 22 18194404622301425665

> <PUBCHEM_SHAPE_MULTIPOLES>
417.42
5.85
3.8
1.72
0.28
4.66
0.6
-4.79
-1.38
0.57
-0.64
-0.5
0.13
-0.12

> <PUBCHEM_SHAPE_SELFOVERLAP>
809.659

> <PUBCHEM_SHAPE_VOLUME>
253.1

> <PUBCHEM_COORDINATE_TYPE>
2
5
10

$$$$

