11953978
  -OEChem-07051213022D

 90 94  0     1  0  0  0  0  0999 V2000
    5.0393    4.4439    0.0000 O   0  0  0  0  0  0  0  0  0  0  0  0
    8.9962   -1.0000    0.0000 O   0  0  0  0  0  0  0  0  0  0  0  0
    8.9962   -2.0000    0.0000 O   0  0  0  0  0  0  0  0  0  0  0  0
    6.3981    0.5000    0.0000 O   0  0  0  0  0  0  0  0  0  0  0  0
    5.1900    3.9397    0.0000 O   0  0  0  0  0  0  0  0  0  0  0  0
    2.8680    3.5242    0.0000 O   0  0  0  0  0  0  0  0  0  0  0  0
    7.3981    1.5000    0.0000 O   0  0  0  0  0  0  0  0  0  0  0  0
   11.5942    3.5000    0.0000 O   0  0  0  0  0  0  0  0  0  0  0  0
    5.5320    3.0000    0.0000 C   0  0  1  0  0  0  0  0  0  0  0  0
    4.6381    3.5347    0.0000 C   0  0  1  0  0  0  0  0  0  0  0  0
    5.5320    2.0000    0.0000 C   0  0  1  0  0  0  0  0  0  0  0  0
    3.7320    3.0208    0.0000 C   0  0  1  0  0  0  0  0  0  0  0  0
    8.1301   -1.5000    0.0000 C   0  0  2  0  0  0  0  0  0  0  0  0
    6.3981    3.5000    0.0000 C   0  0  0  0  0  0  0  0  0  0  0  0
    7.2641    0.0000    0.0000 C   0  0  2  0  0  0  0  0  0  0  0  0
    7.2641   -1.0000    0.0000 C   0  0  0  0  0  0  0  0  0  0  0  0
    8.1301    0.5000    0.0000 C   0  0  0  0  0  0  0  0  0  0  0  0
    8.9962    0.0000    0.0000 C   0  0  1  0  0  0  0  0  0  0  0  0
    3.7320    1.9792    0.0000 C   0  0  0  0  0  0  0  0  0  0  0  0
    4.6381    1.4653    0.0000 C   0  0  0  0  0  0  0  0  0  0  0  0
    6.0330    4.4243    0.0000 C   0  0  0  0  0  0  0  0  0  0  0  0
    8.9962   -3.0000    0.0000 C   0  0  1  0  0  0  0  0  0  0  0  0
    6.3981    1.5000    0.0000 C   0  0  0  0  0  0  0  0  0  0  0  0
    8.1301   -3.5000    0.0000 C   0  0  2  0  0  0  0  0  0  0  0  0
    7.2641   -2.0000    0.0000 C   0  0  0  0  0  0  0  0  0  0  0  0
    9.8622   -3.5000    0.0000 C   0  0  0  0  0  0  0  0  0  0  0  0
    9.8622    0.5000    0.0000 C   0  0  0  0  0  0  0  0  0  0  0  0
    7.2641   -3.0000    0.0000 C   0  0  0  0  0  0  0  0  0  0  0  0
    7.2641    3.0000    0.0000 C   0  0  0  0  0  0  0  0  0  0  0  0
    2.8680    1.4759    0.0000 C   0  0  0  0  0  0  0  0  0  0  0  0
    8.1301   -4.5000    0.0000 C   0  0  0  0  0  0  0  0  0  0  0  0
    9.8622   -4.5000    0.0000 C   0  0  0  0  0  0  0  0  0  0  0  0
   10.7282   -3.0000    0.0000 C   0  0  0  0  0  0  0  0  0  0  0  0
    9.8622    1.5000    0.0000 C   0  0  0  0  0  0  0  0  0  0  0  0
    8.1301    3.5000    0.0000 C   0  0  0  0  0  0  0  0  0  0  0  0
    2.0000    3.0275    0.0000 C   0  0  0  0  0  0  0  0  0  0  0  0
   10.7282    2.0000    0.0000 C   0  0  0  0  0  0  0  0  0  0  0  0
    9.8622    3.5000    0.0000 C   0  0  2  0  0  0  0  0  0  0  0  0
   10.7282    3.0000    0.0000 C   0  0  2  0  0  0  0  0  0  0  0  0
    8.9962    3.0000    0.0000 C   0  0  0  0  0  0  0  0  0  0  0  0
   11.5942    1.5000    0.0000 C   0  0  0  0  0  0  0  0  0  0  0  0
    9.8622    4.5000    0.0000 C   0  0  0  0  0  0  0  0  0  0  0  0
    4.0077    4.1048    0.0000 H   0  0  0  0  0  0  0  0  0  0  0  0
    5.5320    1.1500    0.0000 H   0  0  0  0  0  0  0  0  0  0  0  0
    3.1945    2.7118    0.0000 H   0  0  0  0  0  0  0  0  0  0  0  0
    6.5280   -0.4250    0.0000 H   0  0  0  0  0  0  0  0  0  0  0  0
    6.6535   -0.8923    0.0000 H   0  0  0  0  0  0  0  0  0  0  0  0
    7.0520   -1.5826    0.0000 H   0  0  0  0  0  0  0  0  0  0  0  0
    8.5287    0.9749    0.0000 H   0  0  0  0  0  0  0  0  0  0  0  0
    7.7316    0.9749    0.0000 H   0  0  0  0  0  0  0  0  0  0  0  0
    9.7323   -0.4250    0.0000 H   0  0  0  0  0  0  0  0  0  0  0  0
    4.6453    0.8454    0.0000 H   0  0  0  0  0  0  0  0  0  0  0  0
    6.6346    4.5742    0.0000 H   0  0  0  0  0  0  0  0  0  0  0  0
    5.9635    5.0404    0.0000 H   0  0  0  0  0  0  0  0  0  0  0  0
    9.5331   -2.6900    0.0000 H   0  0  0  0  0  0  0  0  0  0  0  0
    8.6671   -3.8100    0.0000 H   0  0  0  0  0  0  0  0  0  0  0  0
    6.7272   -1.6900    0.0000 H   0  0  0  0  0  0  0  0  0  0  0  0
    4.6074    4.1518    0.0000 H   0  0  0  0  0  0  0  0  0  0  0  0
   10.3991   -3.8100    0.0000 H   0  0  0  0  0  0  0  0  0  0  0  0
   10.0742   -0.0826    0.0000 H   0  0  0  0  0  0  0  0  0  0  0  0
   10.4728    0.6077    0.0000 H   0  0  0  0  0  0  0  0  0  0  0  0
    6.7272   -3.3100    0.0000 H   0  0  0  0  0  0  0  0  0  0  0  0
    7.5742    2.4631    0.0000 H   0  0  0  0  0  0  0  0  0  0  0  0
    2.5559    2.0116    0.0000 H   0  0  0  0  0  0  0  0  0  0  0  0
    2.3322    1.1638    0.0000 H   0  0  0  0  0  0  0  0  0  0  0  0
    3.1800    0.9401    0.0000 H   0  0  0  0  0  0  0  0  0  0  0  0
    7.5101   -4.5000    0.0000 H   0  0  0  0  0  0  0  0  0  0  0  0
    8.1301   -5.1200    0.0000 H   0  0  0  0  0  0  0  0  0  0  0  0
    8.7501   -4.5000    0.0000 H   0  0  0  0  0  0  0  0  0  0  0  0
    9.2422   -4.5000    0.0000 H   0  0  0  0  0  0  0  0  0  0  0  0
    9.8622   -5.1200    0.0000 H   0  0  0  0  0  0  0  0  0  0  0  0
   10.4822   -4.5000    0.0000 H   0  0  0  0  0  0  0  0  0  0  0  0
   11.0382   -3.5369    0.0000 H   0  0  0  0  0  0  0  0  0  0  0  0
   11.2651   -2.6900    0.0000 H   0  0  0  0  0  0  0  0  0  0  0  0
   10.4182   -2.4631    0.0000 H   0  0  0  0  0  0  0  0  0  0  0  0
    9.3252    1.8100    0.0000 H   0  0  0  0  0  0  0  0  0  0  0  0
    8.1301    4.1200    0.0000 H   0  0  0  0  0  0  0  0  0  0  0  0
    1.6921    3.5656    0.0000 H   0  0  0  0  0  0  0  0  0  0  0  0
    1.4619    2.7196    0.0000 H   0  0  0  0  0  0  0  0  0  0  0  0
    2.3079    2.4894    0.0000 H   0  0  0  0  0  0  0  0  0  0  0  0
   10.3991    3.8100    0.0000 H   0  0  0  0  0  0  0  0  0  0  0  0
   10.7282    3.6200    0.0000 H   0  0  0  0  0  0  0  0  0  0  0  0
    8.9962    2.3800    0.0000 H   0  0  0  0  0  0  0  0  0  0  0  0
   11.2842    0.9631    0.0000 H   0  0  0  0  0  0  0  0  0  0  0  0
   12.1312    1.1900    0.0000 H   0  0  0  0  0  0  0  0  0  0  0  0
   11.9042    2.0369    0.0000 H   0  0  0  0  0  0  0  0  0  0  0  0
   10.4822    4.5000    0.0000 H   0  0  0  0  0  0  0  0  0  0  0  0
    9.8622    5.1200    0.0000 H   0  0  0  0  0  0  0  0  0  0  0  0
    9.2422    4.5000    0.0000 H   0  0  0  0  0  0  0  0  0  0  0  0
   12.1312    3.1900    0.0000 H   0  0  0  0  0  0  0  0  0  0  0  0
  1 10  1  0  0  0  0
  1 21  1  0  0  0  0
  2 13  1  0  0  0  0
  2 18  1  0  0  0  0
 13  3  1  6  0  0  0
  3 22  1  0  0  0  0
  4 15  1  0  0  0  0
  4 23  1  0  0  0  0
  9  5  1  6  0  0  0
  5 58  1  0  0  0  0
 12  6  1  1  0  0  0
  6 36  1  0  0  0  0
  7 23  2  0  0  0  0
 39  8  1  6  0  0  0
  8 90  1  0  0  0  0
  9 10  1  0  0  0  0
  9 11  1  0  0  0  0
  9 14  1  0  0  0  0
 10 12  1  0  0  0  0
 10 43  1  6  0  0  0
 11 20  1  0  0  0  0
 11 23  1  0  0  0  0
 11 44  1  1  0  0  0
 12 19  1  0  0  0  0
 12 45  1  0  0  0  0
 13 16  1  0  0  0  0
 13 25  1  0  0  0  0
 14 21  1  0  0  0  0
 14 29  2  0  0  0  0
 15 16  1  0  0  0  0
 15 17  1  0  0  0  0
 15 46  1  6  0  0  0
 16 47  1  0  0  0  0
 16 48  1  0  0  0  0
 17 18  1  0  0  0  0
 17 49  1  0  0  0  0
 17 50  1  0  0  0  0
 18 27  1  0  0  0  0
 18 51  1  6  0  0  0
 19 20  2  0  0  0  0
 19 30  1  0  0  0  0
 20 52  1  0  0  0  0
 21 53  1  0  0  0  0
 21 54  1  0  0  0  0
 22 24  1  0  0  0  0
 22 26  1  6  0  0  0
 22 55  1  0  0  0  0
 24 28  1  0  0  0  0
 24 31  1  1  0  0  0
 24 56  1  0  0  0  0
 25 28  2  0  0  0  0
 25 57  1  0  0  0  0
 26 32  1  0  0  0  0
 26 33  1  0  0  0  0
 26 59  1  0  0  0  0
 27 34  1  0  0  0  0
 27 60  1  0  0  0  0
 27 61  1  0  0  0  0
 28 62  1  0  0  0  0
 29 35  1  0  0  0  0
 29 63  1  0  0  0  0
 30 64  1  0  0  0  0
 30 65  1  0  0  0  0
 30 66  1  0  0  0  0
 31 67  1  0  0  0  0
 31 68  1  0  0  0  0
 31 69  1  0  0  0  0
 32 70  1  0  0  0  0
 32 71  1  0  0  0  0
 32 72  1  0  0  0  0
 33 73  1  0  0  0  0
 33 74  1  0  0  0  0
 33 75  1  0  0  0  0
 34 37  2  0  0  0  0
 34 76  1  0  0  0  0
 35 40  2  0  0  0  0
 35 77  1  0  0  0  0
 36 78  1  0  0  0  0
 36 79  1  0  0  0  0
 36 80  1  0  0  0  0
 37 39  1  0  0  0  0
 37 41  1  0  0  0  0
 38 39  1  0  0  0  0
 38 40  1  0  0  0  0
 38 42  1  6  0  0  0
 38 81  1  0  0  0  0
 39 82  1  0  0  0  0
 40 83  1  0  0  0  0
 41 84  1  0  0  0  0
 41 85  1  0  0  0  0
 41 86  1  0  0  0  0
 42 87  1  0  0  0  0
 42 88  1  0  0  0  0
 42 89  1  0  0  0  0
M  END
> <PUBCHEM_COMPOUND_CID>
11953978

> <PUBCHEM_COMPOUND_CANONICALIZED>
1

> <PUBCHEM_CACTVS_COMPLEXITY>
1180

> <PUBCHEM_CACTVS_HBOND_ACCEPTOR>
8

> <PUBCHEM_CACTVS_HBOND_DONOR>
2

> <PUBCHEM_CACTVS_ROTATABLE_BOND>
2

> <PUBCHEM_CACTVS_SUBSKEYS>
AAADcfB8PAAAAAAAAAAAAAAAAAAAASAAAAAkQIAAAAAAAEAAAAAAGgAACAAADVSggAICCAAABgCIAiDSCAAAAAAgAAAICAEAAAgZFBYAIQAiUAAF4AAPsAPK7OzOgAAAAAAAAAAAAAAAAAAAAAAAAAAAAA==

> <PUBCHEM_IUPAC_INCHI>
InChI=1S/C34H48O8/c1-19(2)29-22(5)13-14-33(42-29)17-26-16-25(41-33)12-11-21(4)28(35)20(3)9-8-10-24-18-39-31-30(38-7)23(6)15-27(32(36)40-26)34(24,31)37/h8-11,13-15,19-20,22,25-31,35,37H,12,16-18H2,1-7H3/b9-8+,21-11+,24-10+/t20-,22-,25+,26-,27-,28-,29+,30+,31+,33+,34+/m0/s1

> <PUBCHEM_IUPAC_INCHIKEY>
CMVQGLOOVJQBJX-JZSZVTLOSA-N

> <PUBCHEM_XLOGP3_AA>
3.2

> <PUBCHEM_EXACT_MASS>
584.334918

> <PUBCHEM_MOLECULAR_FORMULA>
C34H48O8

> <PUBCHEM_MOLECULAR_WEIGHT>
584.74012

> <PUBCHEM_OPENEYE_CAN_SMILES>
CC1C=CC=C2COC3C2(C(C=C(C3OC)C)C(=O)OC4CC(CC=C(C1O)C)OC5(C4)C=CC(C(O5)C(C)C)C)O

> <PUBCHEM_OPENEYE_ISO_SMILES>
C[C@H]1/C=C/C=C/2\CO[C@H]3[C@@]2([C@@H](C=C([C@H]3OC)C)C(=O)O[C@H]4C[C@@H](C/C=C(/[C@H]1O)\C)O[C@]5(C4)C=C[C@@H]([C@H](O5)C(C)C)C)O

> <PUBCHEM_CACTVS_TPSA>
104

> <PUBCHEM_MONOISOTOPIC_WEIGHT>
584.334918

> <PUBCHEM_TOTAL_CHARGE>
0

> <PUBCHEM_HEAVY_ATOM_COUNT>
42

> <PUBCHEM_ATOM_DEF_STEREO_COUNT>
11

> <PUBCHEM_ATOM_UDEF_STEREO_COUNT>
0

> <PUBCHEM_BOND_DEF_STEREO_COUNT>
3

> <PUBCHEM_BOND_UDEF_STEREO_COUNT>
0

> <PUBCHEM_ISOTOPIC_ATOM_COUNT>
0

> <PUBCHEM_COMPONENT_COUNT>
1

> <PUBCHEM_CACTVS_TAUTO_COUNT>
1

> <PUBCHEM_COORDINATE_TYPE>
1
5
255

> <PUBCHEM_BONDANNOTATIONS>
10  43  6
11  44  5
15  46  6
18  51  6
22  26  6
24  31  5
13  3  6
38  42  6
9  5  6
12  6  5
39  8  6

$$$$

