45480623
  -OEChem-07051213133D

 57 59  0     1  0  0  0  0  0999 V2000
   -3.9531    0.4486   -1.1581 P   0  0  2  0  0  0  0  0  0  0  0  0
    0.2317    2.7598    0.2709 O   0  0  0  0  0  0  0  0  0  0  0  0
   -2.4637    1.1342    2.1018 O   0  0  0  0  0  0  0  0  0  0  0  0
   -3.5157    3.6883    1.7816 O   0  0  0  0  0  0  0  0  0  0  0  0
   -3.8095    1.6425   -0.0792 O   0  0  0  0  0  0  0  0  0  0  0  0
    5.0334   -0.1844   -2.1803 O   0  0  0  0  0  0  0  0  0  0  0  0
   -2.4378   -0.0526   -1.4336 O   0  0  0  0  0  0  0  0  0  0  0  0
    4.0599    3.9077   -0.3374 O   0  0  0  0  0  0  0  0  0  0  0  0
   -0.3353   -3.9720    2.7963 O   0  0  0  0  0  0  0  0  0  0  0  0
   -4.3464    1.1998   -2.5368 O   0  0  0  0  0  0  0  0  0  0  0  0
   -4.9081   -0.6396   -0.7589 O   0  0  0  0  0  0  0  0  0  0  0  0
   -2.3328   -3.6316   -1.7125 O   0  0  0  0  0  0  0  0  0  0  0  0
   -2.6610   -2.2641    0.0692 O   0  0  0  0  0  0  0  0  0  0  0  0
    1.5351    0.1402    1.0859 N   0  0  0  0  0  0  0  0  0  0  0  0
    2.8661    2.0645    0.3258 N   0  0  0  0  0  0  0  0  0  0  0  0
    4.5484    1.8699   -1.2786 N   0  0  0  0  0  0  0  0  0  0  0  0
   -0.3839    1.6813    0.9764 C   0  0  1  0  0  0  0  0  0  0  0  0
    0.6668    1.0268    1.8809 C   0  0  0  0  0  0  0  0  0  0  0  0
   -1.5961    2.2156    1.7650 C   0  0  1  0  0  0  0  0  0  0  0  0
   -2.4039    3.2712    0.9864 C   0  0  1  0  0  0  0  0  0  0  0  0
    2.5660    0.7107    0.2798 C   0  0  0  0  0  0  0  0  0  0  0  0
    1.3647   -1.2691    1.1458 C   0  0  0  0  0  0  0  0  0  0  0  0
    3.2930   -0.0752   -0.5515 C   0  0  0  0  0  0  0  0  0  0  0  0
    2.1442   -2.0953    0.2006 C   0  0  0  0  0  0  0  0  0  0  0  0
   -2.9333    2.7340   -0.3425 C   0  0  0  0  0  0  0  0  0  0  0  0
    3.0404   -1.5020   -0.6089 C   0  0  0  0  0  0  0  0  0  0  0  0
    0.5509   -1.9251    2.0011 C   0  0  0  0  0  0  0  0  0  0  0  0
    4.3668    0.5063   -1.4136 C   0  0  0  0  0  0  0  0  0  0  0  0
    1.9605   -3.5351    0.1265 C   0  0  0  0  0  0  0  0  0  0  0  0
    3.8384    2.6990   -0.4235 C   0  0  0  0  0  0  0  0  0  0  0  0
    0.3952   -3.4064    1.9897 C   0  0  0  0  0  0  0  0  0  0  0  0
    1.1410   -4.1740    0.9667 C   0  0  0  0  0  0  0  0  0  0  0  0
   -2.2466   -1.2809   -2.1142 C   0  0  1  0  0  0  0  0  0  0  0  0
   -0.8440   -1.2811   -2.6967 C   0  0  0  0  0  0  0  0  0  0  0  0
   -2.4310   -2.4117   -1.1240 C   0  0  0  0  0  0  0  0  0  0  0  0
   -0.7229    0.9497    0.2360 H   0  0  0  0  0  0  0  0  0  0  0  0
    0.1787    0.5004    2.7015 H   0  0  0  0  0  0  0  0  0  0  0  0
    1.2707    1.7859    2.3937 H   0  0  0  0  0  0  0  0  0  0  0  0
   -1.2697    2.6731    2.7073 H   0  0  0  0  0  0  0  0  0  0  0  0
   -1.7894    4.1596    0.8051 H   0  0  0  0  0  0  0  0  0  0  0  0
   -2.1254    2.4379   -1.0168 H   0  0  0  0  0  0  0  0  0  0  0  0
   -3.5272    3.5035   -0.8470 H   0  0  0  0  0  0  0  0  0  0  0  0
    3.6208   -2.0890   -1.3155 H   0  0  0  0  0  0  0  0  0  0  0  0
    2.3350    2.6477    0.9605 H   0  0  0  0  0  0  0  0  0  0  0  0
   -0.0616   -1.4351    2.7465 H   0  0  0  0  0  0  0  0  0  0  0  0
    0.4404    3.4569    0.9164 H   0  0  0  0  0  0  0  0  0  0  0  0
   -1.9687    0.5137    2.6617 H   0  0  0  0  0  0  0  0  0  0  0  0
    2.5088   -4.1017   -0.6201 H   0  0  0  0  0  0  0  0  0  0  0  0
   -3.9939    4.3717    1.2817 H   0  0  0  0  0  0  0  0  0  0  0  0
    5.2707    2.3009   -1.8485 H   0  0  0  0  0  0  0  0  0  0  0  0
    1.0051   -5.2480    0.9260 H   0  0  0  0  0  0  0  0  0  0  0  0
   -2.9951   -1.3756   -2.9083 H   0  0  0  0  0  0  0  0  0  0  0  0
   -4.6298    0.6610   -3.3060 H   0  0  0  0  0  0  0  0  0  0  0  0
   -0.0931   -1.1815   -1.9056 H   0  0  0  0  0  0  0  0  0  0  0  0
   -0.7087   -0.4283   -3.3705 H   0  0  0  0  0  0  0  0  0  0  0  0
   -0.6356   -2.2015   -3.2506 H   0  0  0  0  0  0  0  0  0  0  0  0
   -2.4591   -4.3597   -1.0673 H   0  0  0  0  0  0  0  0  0  0  0  0
  1  5  1  0  0  0  0
  1  7  1  0  0  0  0
  1 10  1  0  0  0  0
  1 11  2  0  0  0  0
  2 17  1  0  0  0  0
  2 46  1  0  0  0  0
  3 19  1  0  0  0  0
  3 47  1  0  0  0  0
  4 20  1  0  0  0  0
  4 49  1  0  0  0  0
  5 25  1  0  0  0  0
  6 28  2  0  0  0  0
  7 33  1  0  0  0  0
  8 30  2  0  0  0  0
  9 31  2  0  0  0  0
 10 53  1  0  0  0  0
 12 35  1  0  0  0  0
 12 57  1  0  0  0  0
 13 35  2  0  0  0  0
 14 18  1  0  0  0  0
 14 21  1  0  0  0  0
 14 22  1  0  0  0  0
 15 21  1  0  0  0  0
 15 30  1  0  0  0  0
 15 44  1  0  0  0  0
 16 28  1  0  0  0  0
 16 30  1  0  0  0  0
 16 50  1  0  0  0  0
 17 18  1  0  0  0  0
 17 19  1  0  0  0  0
 17 36  1  0  0  0  0
 18 37  1  0  0  0  0
 18 38  1  0  0  0  0
 19 20  1  0  0  0  0
 19 39  1  0  0  0  0
 20 25  1  0  0  0  0
 20 40  1  0  0  0  0
 21 23  2  0  0  0  0
 22 24  1  0  0  0  0
 22 27  2  0  0  0  0
 23 26  1  0  0  0  0
 23 28  1  0  0  0  0
 24 26  2  0  0  0  0
 24 29  1  0  0  0  0
 25 41  1  0  0  0  0
 25 42  1  0  0  0  0
 26 43  1  0  0  0  0
 27 31  1  0  0  0  0
 27 45  1  0  0  0  0
 29 32  2  0  0  0  0
 29 48  1  0  0  0  0
 31 32  1  0  0  0  0
 32 51  1  0  0  0  0
 33 34  1  0  0  0  0
 33 35  1  0  0  0  0
 33 52  1  0  0  0  0
 34 54  1  0  0  0  0
 34 55  1  0  0  0  0
 34 56  1  0  0  0  0
M  END
> <PUBCHEM_COMPOUND_CID>
45480623

> <PUBCHEM_CONFORMER_RMSD>
1.2

> <PUBCHEM_CONFORMER_DIVERSEORDER>
1
162
214
55
56
43
20
81
46
48
19
114
196
131
151
175
190
21
98
135
156
209
194
28
73
192
22
170
61
112
129
123
53
126
82
138
137
191
41
105
29
178
33
62
222
187
39
60
163
107
100
80
179
52
204
44
115
15
66
149
197
120
91
37
7
77
184
125
51
127
58
84
188
59
219
199
203
171
50
216
69
224
180
101
96
146
95
18
23
45
121
218
94
220
85
212
145
158
8
113
200
185
104
116
109
202
70
160
30
118
186
90
132
63
119
27
166
133
136
217
88
210
189
71
83
78
110
38
195
128
34
92
117
161
143
36
226
139
152
172
35
155
124
182
215
4
153
57
165
213
223
26
16
144
89
169
12
198
75
93
208
54
9
207
154
134
177
159
6
122
111
193
181
42
5
205
64
10
68
108
148
99
173
157
176
13
183
168
17
14
150
167
141
79
225
97
25
201
3
2
72
164
221
130
11
174
147
86
87
142
106
32
47
103
140
102
74
67
49
31
40
65
206
211
76
24

> <PUBCHEM_MMFF94_PARTIAL_CHARGES>
44
1 1.51
10 -0.77
11 -0.7
12 -0.65
13 -0.57
14 -0.57
15 -0.54
16 -0.49
17 0.28
18 0.37
19 0.28
2 -0.68
20 0.28
21 0.21
22 0.1
23 0.01
25 0.28
26 -0.15
27 -0.14
28 0.62
29 -0.15
3 -0.68
30 0.69
31 0.54
32 -0.14
33 0.34
35 0.66
4 -0.68
43 0.15
44 0.37
45 0.15
46 0.4
47 0.4
48 0.15
49 0.4
5 -0.55
50 0.37
51 0.15
53 0.5
57 0.5
6 -0.57
7 -0.55
8 -0.57
9 -0.57

> <PUBCHEM_EFFECTIVE_ROTOR_COUNT>
10

> <PUBCHEM_PHARMACOPHORE_FEATURES>
20
1 10 acceptor
1 11 acceptor
1 12 acceptor
1 13 acceptor
1 14 cation
1 15 donor
1 16 donor
1 2 acceptor
1 2 donor
1 3 acceptor
1 3 donor
1 4 acceptor
1 4 donor
1 6 acceptor
1 8 acceptor
1 9 acceptor
3 12 13 35 anion
6 14 21 22 23 24 26 rings
6 15 16 21 23 28 30 rings
6 22 24 27 29 31 32 rings

> <PUBCHEM_HEAVY_ATOM_COUNT>
35

> <PUBCHEM_ATOM_DEF_STEREO_COUNT>
4

> <PUBCHEM_ATOM_UDEF_STEREO_COUNT>
0

> <PUBCHEM_BOND_DEF_STEREO_COUNT>
0

> <PUBCHEM_BOND_UDEF_STEREO_COUNT>
0

> <PUBCHEM_ISOTOPIC_ATOM_COUNT>
0

> <PUBCHEM_COMPONENT_COUNT>
1

> <PUBCHEM_CACTVS_TAUTO_COUNT>
21

> <PUBCHEM_CONFORMER_ID>
02B5FAAF00000001

> <PUBCHEM_MMFF94_ENERGY>
74.2595

> <PUBCHEM_FEATURE_SELFOVERLAP>
101.667

> <PUBCHEM_SHAPE_FINGERPRINT>
11578080 2 17771336480139679092
12293681 4 17977388227137996278
12788726 201 18119533133221302544
13583140 156 17912630604266500809
13642711 20 17836044087331827702
13726171 33 17749662016793878329
14114206 34 18117863035093359957
14117953 113 16893427455885686325
14251757 5 18114460085207026237
14279260 333 18409160044318632862
16752209 62 17678760022920365109
17909252 39 17676486091129374734
17921350 177 17619909899572347332
19319366 153 18341345413463649531
21315764 21 17481746290960307341
238 59 18131068290033474080
3380486 145 17329133686431212026
340366 18 17546739604210107641
3493558 16 16979844130758901860
35225 105 17696145350154366639
463206 1 18195238052246908562
469060 322 15840417069666496171

> <PUBCHEM_SHAPE_MULTIPOLES>
638.76
8.37
5.66
2.57
0.54
1.65
-0.09
-5.59
-5.07
-0.77
2.19
1.07
1.14
-2.87

> <PUBCHEM_SHAPE_SELFOVERLAP>
1342.116

> <PUBCHEM_SHAPE_VOLUME>
358.7

> <PUBCHEM_COORDINATE_TYPE>
2
5
10

$$$$

