17396597
  -OEChem-06241222572D

 42 44  0     0  0  0  0  0  0999 V2000
    2.7166   -2.0000    0.0000 Cl  0  0  0  0  0  0  0  0  0  0  0  0
    6.1808   -2.0000    0.0000 F   0  0  0  0  0  0  0  0  0  0  0  0
    6.1808   -1.0000    0.0000 O   0  0  0  0  0  0  0  0  0  0  0  0
    3.5827    2.5000    0.0000 N   0  0  0  0  0  0  0  0  0  0  0  0
    5.3147    0.5000    0.0000 N   0  0  0  0  0  0  0  0  0  0  0  0
    3.4782    3.4945    0.0000 N   0  0  0  0  0  0  0  0  0  0  0  0
    6.1808    2.0000    0.0000 C   0  0  0  0  0  0  0  0  0  0  0  0
    5.3147    2.5000    0.0000 C   0  0  0  0  0  0  0  0  0  0  0  0
    6.1808    1.0000    0.0000 C   0  0  0  0  0  0  0  0  0  0  0  0
    4.4487    2.0000    0.0000 C   0  0  0  0  0  0  0  0  0  0  0  0
    7.0468    2.5000    0.0000 C   0  0  0  0  0  0  0  0  0  0  0  0
    5.3147    3.5000    0.0000 C   0  0  0  0  0  0  0  0  0  0  0  0
    4.4487   -1.0000    0.0000 C   0  0  0  0  0  0  0  0  0  0  0  0
    5.3147   -0.5000    0.0000 C   0  0  0  0  0  0  0  0  0  0  0  0
    7.0468    3.5000    0.0000 C   0  0  0  0  0  0  0  0  0  0  0  0
    6.1808    4.0000    0.0000 C   0  0  0  0  0  0  0  0  0  0  0  0
    4.4487   -2.0000    0.0000 C   0  0  0  0  0  0  0  0  0  0  0  0
    2.6691    2.0933    0.0000 C   0  0  0  0  0  0  0  0  0  0  0  0
    3.5827   -2.5000    0.0000 C   0  0  0  0  0  0  0  0  0  0  0  0
    5.3147   -2.5000    0.0000 C   0  0  0  0  0  0  0  0  0  0  0  0
    2.0000    2.8364    0.0000 C   0  0  0  0  0  0  0  0  0  0  0  0
    2.5000    3.7024    0.0000 C   0  0  0  0  0  0  0  0  0  0  0  0
    3.5827   -3.5000    0.0000 C   0  0  0  0  0  0  0  0  0  0  0  0
    5.3147   -3.5000    0.0000 C   0  0  0  0  0  0  0  0  0  0  0  0
    4.4487   -4.0000    0.0000 C   0  0  0  0  0  0  0  0  0  0  0  0
    6.3928    0.4174    0.0000 H   0  0  0  0  0  0  0  0  0  0  0  0
    6.7913    1.1077    0.0000 H   0  0  0  0  0  0  0  0  0  0  0  0
    4.0502    1.5250    0.0000 H   0  0  0  0  0  0  0  0  0  0  0  0
    4.8472    1.5250    0.0000 H   0  0  0  0  0  0  0  0  0  0  0  0
    7.5837    2.1900    0.0000 H   0  0  0  0  0  0  0  0  0  0  0  0
    4.7778    3.8100    0.0000 H   0  0  0  0  0  0  0  0  0  0  0  0
    4.7778    0.8100    0.0000 H   0  0  0  0  0  0  0  0  0  0  0  0
    4.2366   -0.4174    0.0000 H   0  0  0  0  0  0  0  0  0  0  0  0
    3.8381   -1.1077    0.0000 H   0  0  0  0  0  0  0  0  0  0  0  0
    7.5837    3.8100    0.0000 H   0  0  0  0  0  0  0  0  0  0  0  0
    6.1808    4.6200    0.0000 H   0  0  0  0  0  0  0  0  0  0  0  0
    2.5402    1.4868    0.0000 H   0  0  0  0  0  0  0  0  0  0  0  0
    1.3834    2.7716    0.0000 H   0  0  0  0  0  0  0  0  0  0  0  0
    2.2478    4.2688    0.0000 H   0  0  0  0  0  0  0  0  0  0  0  0
    3.0457   -3.8100    0.0000 H   0  0  0  0  0  0  0  0  0  0  0  0
    5.8517   -3.8100    0.0000 H   0  0  0  0  0  0  0  0  0  0  0  0
    4.4487   -4.6200    0.0000 H   0  0  0  0  0  0  0  0  0  0  0  0
  1 19  1  0  0  0  0
  2 20  1  0  0  0  0
  3 14  2  0  0  0  0
  4  6  1  0  0  0  0
  4 10  1  0  0  0  0
  4 18  1  0  0  0  0
  5  9  1  0  0  0  0
  5 14  1  0  0  0  0
  5 32  1  0  0  0  0
  6 22  2  0  0  0  0
  7  8  1  0  0  0  0
  7  9  1  0  0  0  0
  7 11  2  0  0  0  0
  8 10  1  0  0  0  0
  8 12  2  0  0  0  0
  9 26  1  0  0  0  0
  9 27  1  0  0  0  0
 10 28  1  0  0  0  0
 10 29  1  0  0  0  0
 11 15  1  0  0  0  0
 11 30  1  0  0  0  0
 12 16  1  0  0  0  0
 12 31  1  0  0  0  0
 13 14  1  0  0  0  0
 13 17  1  0  0  0  0
 13 33  1  0  0  0  0
 13 34  1  0  0  0  0
 15 16  2  0  0  0  0
 15 35  1  0  0  0  0
 16 36  1  0  0  0  0
 17 19  1  0  0  0  0
 17 20  2  0  0  0  0
 18 21  2  0  0  0  0
 18 37  1  0  0  0  0
 19 23  2  0  0  0  0
 20 24  1  0  0  0  0
 21 22  1  0  0  0  0
 21 38  1  0  0  0  0
 22 39  1  0  0  0  0
 23 25  1  0  0  0  0
 23 40  1  0  0  0  0
 24 25  2  0  0  0  0
 24 41  1  0  0  0  0
 25 42  1  0  0  0  0
M  END
> <PUBCHEM_COMPOUND_CID>
17396597

> <PUBCHEM_COMPOUND_CANONICALIZED>
1

> <PUBCHEM_CACTVS_COMPLEXITY>
439

> <PUBCHEM_CACTVS_HBOND_ACCEPTOR>
3

> <PUBCHEM_CACTVS_HBOND_DONOR>
1

> <PUBCHEM_CACTVS_ROTATABLE_BOND>
6

> <PUBCHEM_CACTVS_SUBSKEYS>
AAADceB7IQAEAAAAAAAAAAAAAAAAAWAAAAAwYAAAAAAAAAAB0AAAHwIYAAAADALBmiw8gJLIAACqAjF3VACSBAAxhwAY2KE4ZpgIILLB11GEpAhgngDIiAcYiICOgAAAAAARAAAAAAAAACIAAAAAAAAAAA==

> <PUBCHEM_IUPAC_OPENEYE_NAME>
2-(2-chloro-6-fluoro-phenyl)-N-[[2-(pyrazol-1-ylmethyl)phenyl]methyl]acetamide

> <PUBCHEM_IUPAC_CAS_NAME>
2-(2-chloro-6-fluorophenyl)-N-[[2-(1-pyrazolylmethyl)phenyl]methyl]acetamide

> <PUBCHEM_IUPAC_NAME>
2-(2-chloro-6-fluorophenyl)-N-[[2-(pyrazol-1-ylmethyl)phenyl]methyl]acetamide

> <PUBCHEM_IUPAC_SYSTEMATIC_NAME>
2-(2-chloranyl-6-fluoranyl-phenyl)-N-[[2-(pyrazol-1-ylmethyl)phenyl]methyl]ethanamide

> <PUBCHEM_IUPAC_TRADITIONAL_NAME>
2-(2-chloro-6-fluoro-phenyl)-N-[2-(pyrazol-1-ylmethyl)benzyl]acetamide

> <PUBCHEM_IUPAC_INCHI>
InChI=1S/C19H17ClFN3O/c20-17-7-3-8-18(21)16(17)11-19(25)22-12-14-5-1-2-6-15(14)13-24-10-4-9-23-24/h1-10H,11-13H2,(H,22,25)

> <PUBCHEM_IUPAC_INCHIKEY>
HDZVFGNCEILBRZ-UHFFFAOYSA-N

> <PUBCHEM_XLOGP3_AA>
3.3

> <PUBCHEM_EXACT_MASS>
357.104418

> <PUBCHEM_MOLECULAR_FORMULA>
C19H17ClFN3O

> <PUBCHEM_MOLECULAR_WEIGHT>
357.809183

> <PUBCHEM_OPENEYE_CAN_SMILES>
C1=CC=C(C(=C1)CNC(=O)CC2=C(C=CC=C2Cl)F)CN3C=CC=N3

> <PUBCHEM_OPENEYE_ISO_SMILES>
C1=CC=C(C(=C1)CNC(=O)CC2=C(C=CC=C2Cl)F)CN3C=CC=N3

> <PUBCHEM_CACTVS_TPSA>
46.9

> <PUBCHEM_MONOISOTOPIC_WEIGHT>
357.104418

> <PUBCHEM_TOTAL_CHARGE>
0

> <PUBCHEM_HEAVY_ATOM_COUNT>
25

> <PUBCHEM_ATOM_DEF_STEREO_COUNT>
0

> <PUBCHEM_ATOM_UDEF_STEREO_COUNT>
0

> <PUBCHEM_BOND_DEF_STEREO_COUNT>
0

> <PUBCHEM_BOND_UDEF_STEREO_COUNT>
0

> <PUBCHEM_ISOTOPIC_ATOM_COUNT>
0

> <PUBCHEM_COMPONENT_COUNT>
1

> <PUBCHEM_CACTVS_TAUTO_COUNT>
2

> <PUBCHEM_COORDINATE_TYPE>
1
5
255

> <PUBCHEM_BONDANNOTATIONS>
11  15  8
12  16  8
15  16  8
17  19  8
17  20  8
18  21  8
19  23  8
20  24  8
21  22  8
23  25  8
24  25  8
4  18  8
4  6  8
6  22  8
7  11  8
7  8  8
8  12  8

$$$$

