558
  -OEChem-07051212482D

 23 22  0     0  0  0  0  0  0999 V2000
    4.5981   -2.1550    0.0000 O   0  0  0  0  0  0  0  0  0  0  0  0
    2.8660   -3.1550    0.0000 O   0  0  0  0  0  0  0  0  0  0  0  0
    2.0000   -1.6550    0.0000 O   0  0  0  0  0  0  0  0  0  0  0  0
    5.4641    1.3450    0.0000 N   0  0  0  0  0  0  0  0  0  0  0  0
    6.3301    2.8450    0.0000 N   0  0  0  0  0  0  0  0  0  0  0  0
    4.5981    2.8450    0.0000 N   0  0  0  0  0  0  0  0  0  0  0  0
    4.5981   -0.1550    0.0000 C   0  0  0  0  0  0  0  0  0  0  0  0
    3.7320   -0.6550    0.0000 C   0  0  0  0  0  0  0  0  0  0  0  0
    4.5981    0.8450    0.0000 C   0  0  0  0  0  0  0  0  0  0  0  0
    3.7320   -1.6550    0.0000 C   0  0  0  0  0  0  0  0  0  0  0  0
    5.4641    2.3450    0.0000 C   0  0  0  0  0  0  0  0  0  0  0  0
    2.8660   -2.1550    0.0000 C   0  0  0  0  0  0  0  0  0  0  0  0
    4.8101   -0.7376    0.0000 H   0  0  0  0  0  0  0  0  0  0  0  0
    5.2087   -0.0473    0.0000 H   0  0  0  0  0  0  0  0  0  0  0  0
    3.5200   -0.0724    0.0000 H   0  0  0  0  0  0  0  0  0  0  0  0
    3.1215   -0.7627    0.0000 H   0  0  0  0  0  0  0  0  0  0  0  0
    4.3860    1.4276    0.0000 H   0  0  0  0  0  0  0  0  0  0  0  0
    3.9875    0.7373    0.0000 H   0  0  0  0  0  0  0  0  0  0  0  0
    6.8671    2.5350    0.0000 H   0  0  0  0  0  0  0  0  0  0  0  0
    6.3301    3.4650    0.0000 H   0  0  0  0  0  0  0  0  0  0  0  0
    4.0611    2.5350    0.0000 H   0  0  0  0  0  0  0  0  0  0  0  0
    4.5981    3.4650    0.0000 H   0  0  0  0  0  0  0  0  0  0  0  0
    2.3291   -3.4650    0.0000 H   0  0  0  0  0  0  0  0  0  0  0  0
  1 10  2  0  0  0  0
  2 12  1  0  0  0  0
  2 23  1  0  0  0  0
  3 12  2  0  0  0  0
  4  9  1  0  0  0  0
  4 11  2  0  0  0  0
  5 11  1  0  0  0  0
  5 19  1  0  0  0  0
  5 20  1  0  0  0  0
  6 11  1  0  0  0  0
  6 21  1  0  0  0  0
  6 22  1  0  0  0  0
  7  8  1  0  0  0  0
  7  9  1  0  0  0  0
  7 13  1  0  0  0  0
  7 14  1  0  0  0  0
  8 10  1  0  0  0  0
  8 15  1  0  0  0  0
  8 16  1  0  0  0  0
  9 17  1  0  0  0  0
  9 18  1  0  0  0  0
 10 12  1  0  0  0  0
M  END
> <PUBCHEM_COMPOUND_CID>
558

> <PUBCHEM_COMPOUND_CANONICALIZED>
1

> <PUBCHEM_CACTVS_COMPLEXITY>
208

> <PUBCHEM_CACTVS_HBOND_ACCEPTOR>
4

> <PUBCHEM_CACTVS_HBOND_DONOR>
3

> <PUBCHEM_CACTVS_ROTATABLE_BOND>
5

> <PUBCHEM_CACTVS_SUBSKEYS>
AAADccBjMAAAAAAAAAAAAAAAAAAAAAAAAAAAAAAAAAAAAAAAAAAAHgAQCAAACATBgAQBCAJAAgAoAICQLAIAAAEAAAAAAAFAAAAAABIAgAAAQAAEAAAAAACcEQAAAAAAAAAAAAAAAAAAAAAAAAAAAAAAAA==

> <PUBCHEM_IUPAC_OPENEYE_NAME>
5-guanidino-2-oxo-pentanoic acid

> <PUBCHEM_IUPAC_CAS_NAME>
5-(diaminomethylideneamino)-2-oxopentanoic acid

> <PUBCHEM_IUPAC_NAME>
5-(diaminomethylideneamino)-2-oxopentanoic acid

> <PUBCHEM_IUPAC_SYSTEMATIC_NAME>
5-[bis(azanyl)methylideneamino]-2-oxidanylidene-pentanoic acid

> <PUBCHEM_IUPAC_TRADITIONAL_NAME>
5-guanidino-2-keto-valeric acid

> <PUBCHEM_IUPAC_INCHI>
InChI=1S/C6H11N3O3/c7-6(8)9-3-1-2-4(10)5(11)12/h1-3H2,(H,11,12)(H4,7,8,9)

> <PUBCHEM_IUPAC_INCHIKEY>
ARBHXJXXVVHMET-UHFFFAOYSA-N

> <PUBCHEM_XLOGP3_AA>
-1.6

> <PUBCHEM_EXACT_MASS>
173.080041

> <PUBCHEM_MOLECULAR_FORMULA>
C6H11N3O3

> <PUBCHEM_MOLECULAR_WEIGHT>
173.16984

> <PUBCHEM_OPENEYE_CAN_SMILES>
C(CC(=O)C(=O)O)CN=C(N)N

> <PUBCHEM_OPENEYE_ISO_SMILES>
C(CC(=O)C(=O)O)CN=C(N)N

> <PUBCHEM_CACTVS_TPSA>
119

> <PUBCHEM_MONOISOTOPIC_WEIGHT>
173.080041

> <PUBCHEM_TOTAL_CHARGE>
0

> <PUBCHEM_HEAVY_ATOM_COUNT>
12

> <PUBCHEM_ATOM_DEF_STEREO_COUNT>
0

> <PUBCHEM_ATOM_UDEF_STEREO_COUNT>
0

> <PUBCHEM_BOND_DEF_STEREO_COUNT>
0

> <PUBCHEM_BOND_UDEF_STEREO_COUNT>
0

> <PUBCHEM_ISOTOPIC_ATOM_COUNT>
0

> <PUBCHEM_COMPONENT_COUNT>
1

> <PUBCHEM_CACTVS_TAUTO_COUNT>
4

> <PUBCHEM_COORDINATE_TYPE>
1
5
255

$$$$

