24771767
  -OEChem-07051212513D

 36 37  0     1  0  0  0  0  0999 V2000
    5.8836    0.1133    0.4786 P   0  0  0  0  0  0  0  0  0  0  0  0
    1.1749   -0.4744   -2.2416 O   0  0  0  0  0  0  0  0  0  0  0  0
    1.6603    0.2032    1.3225 O   0  0  0  0  0  0  0  0  0  0  0  0
    4.3244   -0.2666    0.6658 O   0  0  0  0  0  0  0  0  0  0  0  0
   -3.2912    2.6054   -0.2977 O   0  0  0  0  0  0  0  0  0  0  0  0
    6.2202   -0.4810   -0.9872 O   0  0  0  0  0  0  0  0  0  0  0  0
    5.8647    1.7120    0.2363 O   0  0  0  0  0  0  0  0  0  0  0  0
    6.7902   -0.3586    1.5775 O   0  0  0  0  0  0  0  0  0  0  0  0
   -2.0979   -1.9355    0.0082 N   0  0  0  0  0  0  0  0  0  0  0  0
   -1.3490    0.6940   -0.5078 N   0  0  0  0  0  0  0  0  0  0  0  0
   -4.3417   -1.1508    0.4384 N   0  0  0  0  0  0  0  0  0  0  0  0
   -4.9427    1.1231    0.2864 N   0  0  0  0  0  0  0  0  0  0  0  0
   -6.5125   -0.5282    0.8712 N   0  0  0  0  0  0  0  0  0  0  0  0
    0.9487    0.1364   -0.9825 C   0  0  2  0  0  0  0  0  0  0  0  0
    1.9955   -0.3093    0.0310 C   0  0  1  0  0  0  0  0  0  0  0  0
   -0.4583   -0.2481   -0.6005 C   0  0  0  0  0  0  0  0  0  0  0  0
   -0.7215   -1.7214   -0.3553 C   0  0  0  0  0  0  0  0  0  0  0  0
    3.4038    0.1487   -0.3385 C   0  0  0  0  0  0  0  0  0  0  0  0
   -3.0283   -0.9261    0.0980 C   0  0  0  0  0  0  0  0  0  0  0  0
   -2.6297    0.3377   -0.1597 C   0  0  0  0  0  0  0  0  0  0  0  0
   -3.6434    1.4515   -0.0638 C   0  0  0  0  0  0  0  0  0  0  0  0
   -5.2502   -0.1252    0.5207 C   0  0  0  0  0  0  0  0  0  0  0  0
    0.9941    1.2252   -1.1103 H   0  0  0  0  0  0  0  0  0  0  0  0
    2.0176   -1.4009    0.1224 H   0  0  0  0  0  0  0  0  0  0  0  0
   -0.4859   -2.2868   -1.2617 H   0  0  0  0  0  0  0  0  0  0  0  0
   -0.0841   -2.0794    0.4569 H   0  0  0  0  0  0  0  0  0  0  0  0
    3.4353    1.2415   -0.4015 H   0  0  0  0  0  0  0  0  0  0  0  0
    3.7022   -0.2720   -1.3036 H   0  0  0  0  0  0  0  0  0  0  0  0
   -2.4200   -2.8766    0.2056 H   0  0  0  0  0  0  0  0  0  0  0  0
    0.5848   -0.0491   -2.8874 H   0  0  0  0  0  0  0  0  0  0  0  0
   -4.6087   -2.1108    0.6254 H   0  0  0  0  0  0  0  0  0  0  0  0
    1.6573    1.1740    1.2643 H   0  0  0  0  0  0  0  0  0  0  0  0
   -6.7265   -1.5035    1.0484 H   0  0  0  0  0  0  0  0  0  0  0  0
   -7.2700    0.1398    0.9639 H   0  0  0  0  0  0  0  0  0  0  0  0
    7.1474   -0.4597   -1.3064 H   0  0  0  0  0  0  0  0  0  0  0  0
    6.7175    2.1897    0.1550 H   0  0  0  0  0  0  0  0  0  0  0  0
  1  4  1  0  0  0  0
  1  6  1  0  0  0  0
  1  7  1  0  0  0  0
  1  8  2  0  0  0  0
  2 14  1  0  0  0  0
  2 30  1  0  0  0  0
  3 15  1  0  0  0  0
  3 32  1  0  0  0  0
  4 18  1  0  0  0  0
  5 21  2  0  0  0  0
  6 35  1  0  0  0  0
  7 36  1  0  0  0  0
  9 17  1  0  0  0  0
  9 19  1  0  0  0  0
  9 29  1  0  0  0  0
 10 16  2  0  0  0  0
 10 20  1  0  0  0  0
 11 19  1  0  0  0  0
 11 22  1  0  0  0  0
 11 31  1  0  0  0  0
 12 21  1  0  0  0  0
 12 22  2  0  0  0  0
 13 22  1  0  0  0  0
 13 33  1  0  0  0  0
 13 34  1  0  0  0  0
 14 15  1  0  0  0  0
 14 16  1  0  0  0  0
 14 23  1  0  0  0  0
 15 18  1  0  0  0  0
 15 24  1  0  0  0  0
 16 17  1  0  0  0  0
 17 25  1  0  0  0  0
 17 26  1  0  0  0  0
 18 27  1  0  0  0  0
 18 28  1  0  0  0  0
 19 20  2  0  0  0  0
 20 21  1  0  0  0  0
M  END
> <PUBCHEM_COMPOUND_CID>
24771767

> <PUBCHEM_CONFORMER_RMSD>
0.8

> <PUBCHEM_CONFORMER_DIVERSEORDER>
5
8
64
23
67
12
82
58
66
4
77
84
29
80
30
59
79
50
15
72
36
73
63
75
31
9
22
81
33
69
17
20
78
11
57
41
43
26
68
87
48
52
85
21
13
37
54
28
56
51
49
44
45
39
47
7
42
46
2
70
53
61
25
3
24
18
76
10
1
88
16
35
62
55
74
27
38
34
19
86
32
40
83
14
6
65
60
71

> <PUBCHEM_MMFF94_PARTIAL_CHARGES>
30
1 1.51
10 -0.62
11 -0.55
12 -0.66
13 -0.85
14 0.34
15 0.28
16 0.33
17 0.43
18 0.28
19 0.2
2 -0.68
20 0.19
21 0.77
22 0.55
29 0.4
3 -0.68
30 0.4
31 0.4
32 0.4
33 0.4
34 0.4
35 0.5
36 0.5
4 -0.55
5 -0.57
6 -0.77
7 -0.77
8 -0.7
9 -0.87

> <PUBCHEM_EFFECTIVE_ROTOR_COUNT>
5.4

> <PUBCHEM_PHARMACOPHORE_FEATURES>
17
1 10 acceptor
1 11 donor
1 12 donor
1 13 donor
1 2 acceptor
1 2 donor
1 3 acceptor
1 3 donor
1 5 acceptor
1 6 acceptor
1 7 acceptor
1 8 acceptor
1 9 cation
1 9 donor
4 1 6 7 8 anion
6 11 12 19 20 21 22 rings
6 9 10 16 17 19 20 rings

> <PUBCHEM_HEAVY_ATOM_COUNT>
22

> <PUBCHEM_ATOM_DEF_STEREO_COUNT>
2

> <PUBCHEM_ATOM_UDEF_STEREO_COUNT>
0

> <PUBCHEM_BOND_DEF_STEREO_COUNT>
0

> <PUBCHEM_BOND_UDEF_STEREO_COUNT>
0

> <PUBCHEM_ISOTOPIC_ATOM_COUNT>
0

> <PUBCHEM_COMPONENT_COUNT>
1

> <PUBCHEM_CACTVS_TAUTO_COUNT>
69

> <PUBCHEM_CONFORMER_ID>
0179FCB700000005

> <PUBCHEM_MMFF94_ENERGY>
25.4366

> <PUBCHEM_FEATURE_SELFOVERLAP>
86.495

> <PUBCHEM_SHAPE_FINGERPRINT>
10 15 18409732829393188200
106641 1 18271803480676036547
11315181 36 17918273143057472453
12107183 9 17552369082195138184
12236239 1 17489867141676505772
12507560 40 18336545026947587614
12516196 113 15769776844863952908
12596602 18 17775569736322508328
12916748 109 18409444804285330700
13140716 1 18195798580187025427
13288520 33 10303810986844269211
13403585 85 18410857655025593025
13668630 136 14836402531861684528
13685833 64 14045736019826108025
13862211 1 15123515817812373768
1420 363 12895071829897444514
14251764 18 18412545379467177835
14341114 176 18411134719308312944
14933364 13 18408319974252814068
15042514 8 18268423539231344091
17844677 252 18410570683086907360
17980427 23 18335422309785578821
1813 80 16415193533570996758
18222031 100 14908181954491132972
19784866 240 16056876923125815483
200 152 15051736382646039671
20281389 69 18409731751166694104
20374829 77 10592040254530499613
20645477 56 18113057129723539951
21033648 29 17822025232188202592
22224240 67 17748829600982325271
23035841 295 16917069962438715530
23198884 109 14923943453311343739
23402539 116 18333736797341438319
23559900 14 18334293175551732741
23622692 88 18202001010229135790
2838139 119 16660651773245785376
29717793 49 6916267347587871856
34797466 226 18261100856261792956
3545911 37 18259700116664731830
4340502 62 18335420184283357054
5104073 3 18268138945960021603

> <PUBCHEM_SHAPE_MULTIPOLES>
390.61
16.06
1.57
1.14
15.24
0.45
-0.23
1.88
5.7
-1.59
-0.09
1.09
-0.14
0.4

> <PUBCHEM_SHAPE_SELFOVERLAP>
805.805

> <PUBCHEM_SHAPE_VOLUME>
225

> <PUBCHEM_COORDINATE_TYPE>
2
5
10

$$$$

