5327
  -OEChem-06261200383D

 33 34  0     0  0  0  0  0  0999 V2000
   -0.6325    2.2834    0.1558 S   0  0  0  0  0  0  0  0  0  0  0  0
   -1.4523    3.1825    0.9595 O   0  0  0  0  0  0  0  0  0  0  0  0
   -0.1471    2.7447   -1.1392 O   0  0  0  0  0  0  0  0  0  0  0  0
    0.6989    1.7680    1.1202 N   0  0  0  0  0  0  0  0  0  0  0  0
    1.3895   -0.4700    1.4030 N   0  0  0  0  0  0  0  0  0  0  0  0
    2.1890    0.8394   -0.4554 N   0  0  0  0  0  0  0  0  0  0  0  0
   -3.7069   -2.7432   -0.6435 N   0  0  0  0  0  0  0  0  0  0  0  0
   -1.5349    0.8074   -0.0789 C   0  0  0  0  0  0  0  0  0  0  0  0
   -2.5316    0.4476    0.8285 C   0  0  0  0  0  0  0  0  0  0  0  0
   -1.2595   -0.0122   -1.1736 C   0  0  0  0  0  0  0  0  0  0  0  0
    1.4722    0.6454    0.6619 C   0  0  0  0  0  0  0  0  0  0  0  0
   -2.9772   -1.5511   -0.4533 C   0  0  0  0  0  0  0  0  0  0  0  0
   -3.2526   -0.7317    0.6412 C   0  0  0  0  0  0  0  0  0  0  0  0
   -1.9807   -1.1915   -1.3607 C   0  0  0  0  0  0  0  0  0  0  0  0
    2.1268   -1.5028    0.9446 C   0  0  0  0  0  0  0  0  0  0  0  0
    2.9017   -0.2336   -0.8567 C   0  0  0  0  0  0  0  0  0  0  0  0
    2.9095   -1.4418   -0.1902 C   0  0  0  0  0  0  0  0  0  0  0  0
    2.0709   -2.7684    1.7324 C   0  0  0  0  0  0  0  0  0  0  0  0
    3.7169   -0.0720   -2.0956 C   0  0  0  0  0  0  0  0  0  0  0  0
    0.5171    1.7415    2.1321 H   0  0  0  0  0  0  0  0  0  0  0  0
   -2.7583    1.0663    1.6921 H   0  0  0  0  0  0  0  0  0  0  0  0
   -0.4876    0.2470   -1.8926 H   0  0  0  0  0  0  0  0  0  0  0  0
   -4.0255   -1.0021    1.3561 H   0  0  0  0  0  0  0  0  0  0  0  0
   -1.7563   -1.8220   -2.2172 H   0  0  0  0  0  0  0  0  0  0  0  0
    3.4916   -2.2875   -0.5357 H   0  0  0  0  0  0  0  0  0  0  0  0
    3.0681   -3.0348    2.0967 H   0  0  0  0  0  0  0  0  0  0  0  0
    1.4115   -2.6627    2.6002 H   0  0  0  0  0  0  0  0  0  0  0  0
    1.6856   -3.5851    1.1137 H   0  0  0  0  0  0  0  0  0  0  0  0
    3.6083    0.9362   -2.5090 H   0  0  0  0  0  0  0  0  0  0  0  0
    4.7772   -0.2351   -1.8780 H   0  0  0  0  0  0  0  0  0  0  0  0
    3.3940   -0.7863   -2.8597 H   0  0  0  0  0  0  0  0  0  0  0  0
   -4.4283   -3.0055    0.0149 H   0  0  0  0  0  0  0  0  0  0  0  0
   -3.5062   -3.3385   -1.4360 H   0  0  0  0  0  0  0  0  0  0  0  0
  1  2  2  0  0  0  0
  1  3  2  0  0  0  0
  1  4  1  0  0  0  0
  1  8  1  0  0  0  0
  4 11  1  0  0  0  0
  4 20  1  0  0  0  0
  5 11  1  0  0  0  0
  5 15  2  0  0  0  0
  6 11  2  0  0  0  0
  6 16  1  0  0  0  0
  7 12  1  0  0  0  0
  7 32  1  0  0  0  0
  7 33  1  0  0  0  0
  8  9  2  0  0  0  0
  8 10  1  0  0  0  0
  9 13  1  0  0  0  0
  9 21  1  0  0  0  0
 10 14  2  0  0  0  0
 10 22  1  0  0  0  0
 12 13  2  0  0  0  0
 12 14  1  0  0  0  0
 13 23  1  0  0  0  0
 14 24  1  0  0  0  0
 15 17  1  0  0  0  0
 15 18  1  0  0  0  0
 16 17  2  0  0  0  0
 16 19  1  0  0  0  0
 17 25  1  0  0  0  0
 18 26  1  0  0  0  0
 18 27  1  0  0  0  0
 18 28  1  0  0  0  0
 19 29  1  0  0  0  0
 19 30  1  0  0  0  0
 19 31  1  0  0  0  0
M  END
> <PUBCHEM_COMPOUND_CID>
5327

> <PUBCHEM_CONFORMER_RMSD>
0.6

> <PUBCHEM_CONFORMER_DIVERSEORDER>
1
14
4
7
6
16
2
11
5
15
17
9
3
8
10
12
13

> <PUBCHEM_MMFF94_PARTIAL_CHARGES>
27
1 1.45
10 -0.15
11 0.82
12 0.1
13 -0.15
14 -0.15
15 0.17
16 0.17
17 -0.15
18 0.14
19 0.14
2 -0.65
20 0.42
21 0.15
22 0.15
23 0.15
24 0.15
25 0.15
3 -0.65
32 0.4
33 0.4
4 -0.76
5 -0.62
6 -0.62
7 -0.9
8 -0.01
9 -0.15

> <PUBCHEM_EFFECTIVE_ROTOR_COUNT>
3

> <PUBCHEM_PHARMACOPHORE_FEATURES>
8
1 2 acceptor
1 3 acceptor
1 4 donor
1 5 acceptor
1 7 cation
1 7 donor
6 5 6 11 15 16 17 rings
6 8 9 10 12 13 14 rings

> <PUBCHEM_HEAVY_ATOM_COUNT>
19

> <PUBCHEM_ATOM_DEF_STEREO_COUNT>
0

> <PUBCHEM_ATOM_UDEF_STEREO_COUNT>
0

> <PUBCHEM_BOND_DEF_STEREO_COUNT>
0

> <PUBCHEM_BOND_UDEF_STEREO_COUNT>
0

> <PUBCHEM_ISOTOPIC_ATOM_COUNT>
0

> <PUBCHEM_COMPONENT_COUNT>
1

> <PUBCHEM_CACTVS_TAUTO_COUNT>
2

> <PUBCHEM_CONFORMER_ID>
000014CF00000001

> <PUBCHEM_MMFF94_ENERGY>
48.82

> <PUBCHEM_FEATURE_SELFOVERLAP>
40.613

> <PUBCHEM_SHAPE_FINGERPRINT>
11140007 195 16950546780105951023
11578080 2 18128279906997466052
11725454 13 14619664480976239804
12403259 327 14129606706663761447
12553582 1 18409448072681882387
12596599 1 18041551464679488675
14787075 74 18122056512459977932
15276787 5 14634858773430296358
15279307 12 17981595284737368448
15375462 189 18341889688703861843
16752209 62 18117845631870012521
16945 1 18115309011194468201
17349148 13 17704071833212034914
17492 54 16628262200811571686
18522851 12 18411411830371436659
20291156 8 18335980878961885111
20361792 2 18337121081041030991
20645476 183 17765425835370681980
20645477 70 17831874451877328303
21731516 1 18409455794737428091
232386 152 18046926032498539450
23419403 2 14887176917986072281
23598288 3 18126555954120824561
23598291 2 17626089103633716508
23728640 28 17617682271908430971
238 59 17697606498044328867
49207404 50 8717713911327328935
5845 1 17387724680494059077
7364860 26 17683244664330144777
81228 2 18191045571218315825
90525 40 17980196718557425993

> <PUBCHEM_SHAPE_MULTIPOLES>
363.2
5.88
3.15
1.64
0.35
0.71
-0.22
-3.68
-1.52
-1.38
0.7
0.99
-0.32
-1.5

> <PUBCHEM_SHAPE_SELFOVERLAP>
757.906

> <PUBCHEM_SHAPE_VOLUME>
207.5

> <PUBCHEM_COORDINATE_TYPE>
2
5
10

$$$$

