12313
  -OEChem-06261206483D

 12 11  0     0  0  0  0  0  0999 V2000
    2.1311    0.8251   -0.1555 Cl  0  0  0  0  0  0  0  0  0  0  0  0
   -2.3179    0.2417   -0.1557 O   0  0  0  0  0  0  0  0  0  0  0  0
   -0.1287   -0.7217   -0.2688 C   0  0  0  0  0  0  0  0  0  0  0  0
   -0.9972    0.3627    0.3573 C   0  0  0  0  0  0  0  0  0  0  0  0
    1.3127   -0.7078    0.2227 C   0  0  0  0  0  0  0  0  0  0  0  0
   -0.1556   -0.6219   -1.3615 H   0  0  0  0  0  0  0  0  0  0  0  0
   -0.5689   -1.7038   -0.0550 H   0  0  0  0  0  0  0  0  0  0  0  0
   -1.0349    0.2667    1.4470 H   0  0  0  0  0  0  0  0  0  0  0  0
   -0.6422    1.3664    0.1095 H   0  0  0  0  0  0  0  0  0  0  0  0
    1.3563   -0.8495    1.3069 H   0  0  0  0  0  0  0  0  0  0  0  0
    1.8832   -1.5122   -0.2512 H   0  0  0  0  0  0  0  0  0  0  0  0
   -2.6531   -0.6347    0.0995 H   0  0  0  0  0  0  0  0  0  0  0  0
  1  5  1  0  0  0  0
  2  4  1  0  0  0  0
  2 12  1  0  0  0  0
  3  4  1  0  0  0  0
  3  5  1  0  0  0  0
  3  6  1  0  0  0  0
  3  7  1  0  0  0  0
  4  8  1  0  0  0  0
  4  9  1  0  0  0  0
  5 10  1  0  0  0  0
  5 11  1  0  0  0  0
M  END
> <PUBCHEM_COMPOUND_CID>
12313

> <PUBCHEM_CONFORMER_RMSD>
0.4

> <PUBCHEM_CONFORMER_DIVERSEORDER>
1
9
5
6
2
8
3
7
4

> <PUBCHEM_MMFF94_PARTIAL_CHARGES>
5
1 -0.29
12 0.4
2 -0.68
4 0.28
5 0.29

> <PUBCHEM_EFFECTIVE_ROTOR_COUNT>
2

> <PUBCHEM_PHARMACOPHORE_FEATURES>
2
1 2 acceptor
1 2 donor

> <PUBCHEM_HEAVY_ATOM_COUNT>
5

> <PUBCHEM_ATOM_DEF_STEREO_COUNT>
0

> <PUBCHEM_ATOM_UDEF_STEREO_COUNT>
0

> <PUBCHEM_BOND_DEF_STEREO_COUNT>
0

> <PUBCHEM_BOND_UDEF_STEREO_COUNT>
0

> <PUBCHEM_ISOTOPIC_ATOM_COUNT>
0

> <PUBCHEM_COMPONENT_COUNT>
1

> <PUBCHEM_CACTVS_TAUTO_COUNT>
1

> <PUBCHEM_CONFORMER_ID>
0000301900000001

> <PUBCHEM_MMFF94_ENERGY>
0.9878

> <PUBCHEM_FEATURE_SELFOVERLAP>
10.148

> <PUBCHEM_SHAPE_FINGERPRINT>
14390081 3 18408042892231166216
16714656 1 17531245028431202861
20096714 4 18410290289987904304
21040471 1 18408605825236528082
29004967 10 7420942080154929326
5460574 1 9295289438891575291

> <PUBCHEM_SHAPE_MULTIPOLES>
98.9
2.98
1.01
0.67
0.38
0.04
0.01
-0.88
-0.15
-0.34
-0.01
-0.04
0
-0.11

> <PUBCHEM_SHAPE_SELFOVERLAP>
158.297

> <PUBCHEM_SHAPE_VOLUME>
70.3

> <PUBCHEM_COORDINATE_TYPE>
2
5
10

$$$$

