441590
  -OEChem-07051212553D

 46 51  0     1  0  0  0  0  0999 V2000
   -4.2702    2.6616   -0.6446 O   0  0  0  0  0  0  0  0  0  0  0  0
    4.3591   -1.3351   -0.0162 O   0  0  0  0  0  0  0  0  0  0  0  0
    4.9882    0.9893   -0.0416 O   0  0  0  0  0  0  0  0  0  0  0  0
   -0.9983    2.0843    0.5673 N   0  0  2  0  0  0  0  0  0  0  0  0
   -0.5362   -2.7456   -0.8715 N   0  0  0  0  0  0  0  0  0  0  0  0
   -0.5456   -0.3067    0.0855 C   0  0  1  0  0  0  0  0  0  0  0  0
   -1.3566    0.9540   -0.2847 C   0  0  1  0  0  0  0  0  0  0  0  0
   -1.1834   -1.4352   -0.8099 C   0  0  2  0  0  0  0  0  0  0  0  0
   -2.7066   -1.6305   -0.4500 C   0  0  2  0  0  0  0  0  0  0  0  0
   -2.8259    0.8322   -0.1004 C   0  0  0  0  0  0  0  0  0  0  0  0
   -3.3615    2.1665    0.3215 C   0  0  1  0  0  0  0  0  0  0  0  0
    0.9435    0.0658    0.0093 C   0  0  0  0  0  0  0  0  0  0  0  0
   -2.0948    3.0433    0.3768 C   0  0  0  0  0  0  0  0  0  0  0  0
   -3.4580   -0.3418   -0.1877 C   0  0  0  0  0  0  0  0  0  0  0  0
   -2.8925   -2.5286    0.7894 C   0  0  0  0  0  0  0  0  0  0  0  0
    0.3157    2.5734    0.1645 C   0  0  0  0  0  0  0  0  0  0  0  0
    1.3379    1.4475    0.0724 C   0  0  0  0  0  0  0  0  0  0  0  0
   -2.0903   -3.8166    0.6759 C   0  0  0  0  0  0  0  0  0  0  0  0
   -0.6332   -3.5186    0.3573 C   0  0  0  0  0  0  0  0  0  0  0  0
    1.9555   -0.9071    0.0224 C   0  0  0  0  0  0  0  0  0  0  0  0
    2.6958    1.8162    0.0300 C   0  0  0  0  0  0  0  0  0  0  0  0
    3.2787   -0.5052   -0.0076 C   0  0  0  0  0  0  0  0  0  0  0  0
    3.6393    0.8171   -0.0150 C   0  0  0  0  0  0  0  0  0  0  0  0
    5.4392   -0.3802   -0.0432 C   0  0  0  0  0  0  0  0  0  0  0  0
   -0.7224   -0.5617    1.1410 H   0  0  0  0  0  0  0  0  0  0  0  0
   -1.1874    1.2139   -1.3439 H   0  0  0  0  0  0  0  0  0  0  0  0
   -1.1485   -1.0662   -1.8455 H   0  0  0  0  0  0  0  0  0  0  0  0
   -3.1871   -2.1260   -1.3054 H   0  0  0  0  0  0  0  0  0  0  0  0
   -3.8477    2.1054    1.3008 H   0  0  0  0  0  0  0  0  0  0  0  0
   -1.9832    3.6254   -0.5478 H   0  0  0  0  0  0  0  0  0  0  0  0
   -2.1452    3.7510    1.2111 H   0  0  0  0  0  0  0  0  0  0  0  0
   -4.5273   -0.3967   -0.0054 H   0  0  0  0  0  0  0  0  0  0  0  0
   -3.9533   -2.7759    0.9224 H   0  0  0  0  0  0  0  0  0  0  0  0
   -2.5815   -1.9952    1.6975 H   0  0  0  0  0  0  0  0  0  0  0  0
    0.6553    3.3074    0.9049 H   0  0  0  0  0  0  0  0  0  0  0  0
    0.2781    3.0696   -0.8145 H   0  0  0  0  0  0  0  0  0  0  0  0
    0.4257   -2.6672   -1.1865 H   0  0  0  0  0  0  0  0  0  0  0  0
   -2.1588   -4.3799    1.6134 H   0  0  0  0  0  0  0  0  0  0  0  0
   -2.5221   -4.4502   -0.1092 H   0  0  0  0  0  0  0  0  0  0  0  0
   -0.1543   -2.9978    1.1940 H   0  0  0  0  0  0  0  0  0  0  0  0
   -0.0983   -4.4654    0.2239 H   0  0  0  0  0  0  0  0  0  0  0  0
    1.7469   -1.9647    0.0906 H   0  0  0  0  0  0  0  0  0  0  0  0
    2.9936    2.8597    0.0494 H   0  0  0  0  0  0  0  0  0  0  0  0
   -3.8338    2.6505   -1.5138 H   0  0  0  0  0  0  0  0  0  0  0  0
    6.0375   -0.5521   -0.9453 H   0  0  0  0  0  0  0  0  0  0  0  0
    6.0731   -0.5423    0.8361 H   0  0  0  0  0  0  0  0  0  0  0  0
  1 11  1  0  0  0  0
  1 44  1  0  0  0  0
  2 22  1  0  0  0  0
  2 24  1  0  0  0  0
  3 23  1  0  0  0  0
  3 24  1  0  0  0  0
  4  7  1  0  0  0  0
  4 13  1  0  0  0  0
  4 16  1  0  0  0  0
  5  8  1  0  0  0  0
  5 19  1  0  0  0  0
  5 37  1  0  0  0  0
  6  7  1  0  0  0  0
  6  8  1  0  0  0  0
  6 12  1  0  0  0  0
  6 25  1  0  0  0  0
  7 10  1  0  0  0  0
  7 26  1  0  0  0  0
  8  9  1  0  0  0  0
  8 27  1  0  0  0  0
  9 14  1  0  0  0  0
  9 15  1  0  0  0  0
  9 28  1  0  0  0  0
 10 11  1  0  0  0  0
 10 14  2  0  0  0  0
 11 13  1  0  0  0  0
 11 29  1  0  0  0  0
 12 17  1  0  0  0  0
 12 20  2  0  0  0  0
 13 30  1  0  0  0  0
 13 31  1  0  0  0  0
 14 32  1  0  0  0  0
 15 18  1  0  0  0  0
 15 33  1  0  0  0  0
 15 34  1  0  0  0  0
 16 17  1  0  0  0  0
 16 35  1  0  0  0  0
 16 36  1  0  0  0  0
 17 21  2  0  0  0  0
 18 19  1  0  0  0  0
 18 38  1  0  0  0  0
 18 39  1  0  0  0  0
 19 40  1  0  0  0  0
 19 41  1  0  0  0  0
 20 22  1  0  0  0  0
 20 42  1  0  0  0  0
 21 23  1  0  0  0  0
 21 43  1  0  0  0  0
 22 23  2  0  0  0  0
 24 45  1  0  0  0  0
 24 46  1  0  0  0  0
M  END
> <PUBCHEM_COMPOUND_CID>
441590

> <PUBCHEM_CONFORMER_RMSD>
0.6

> <PUBCHEM_CONFORMER_DIVERSEORDER>
1
3
2

> <PUBCHEM_MMFF94_PARTIAL_CHARGES>
27
1 -0.68
10 -0.28
11 0.42
12 -0.14
13 0.27
14 -0.29
16 0.41
17 -0.14
19 0.27
2 -0.36
20 -0.15
21 -0.15
22 0.08
23 0.08
24 0.56
3 -0.36
32 0.15
37 0.36
4 -0.81
42 0.15
43 0.15
44 0.4
5 -0.9
6 0.14
7 0.41
8 0.27
9 0.14

> <PUBCHEM_EFFECTIVE_ROTOR_COUNT>
2

> <PUBCHEM_PHARMACOPHORE_FEATURES>
13
1 1 acceptor
1 1 donor
1 2 acceptor
1 3 acceptor
1 4 cation
1 5 cation
1 5 donor
5 2 3 22 23 24 rings
5 4 7 10 11 13 rings
6 12 17 20 21 22 23 rings
6 4 6 7 12 16 17 rings
6 5 8 9 15 18 19 rings
6 6 7 8 9 10 14 rings

> <PUBCHEM_HEAVY_ATOM_COUNT>
24

> <PUBCHEM_ATOM_DEF_STEREO_COUNT>
4

> <PUBCHEM_ATOM_UDEF_STEREO_COUNT>
1

> <PUBCHEM_BOND_DEF_STEREO_COUNT>
0

> <PUBCHEM_BOND_UDEF_STEREO_COUNT>
0

> <PUBCHEM_ISOTOPIC_ATOM_COUNT>
0

> <PUBCHEM_COMPONENT_COUNT>
1

> <PUBCHEM_CACTVS_TAUTO_COUNT>
1

> <PUBCHEM_CONFORMER_ID>
0006BCF600000001

> <PUBCHEM_MMFF94_ENERGY>
65.1572

> <PUBCHEM_FEATURE_SELFOVERLAP>
66.379

> <PUBCHEM_SHAPE_FINGERPRINT>
10319926 262 18262822700445687384
10411042 1 17977947877971861823
10616163 171 18409445848057504710
10967382 1 18120936376071828405
1100329 8 18409727357130502065
11370993 70 18266180710933901141
11578080 2 16951987036937097139
12553582 1 17832706768598112366
12788726 201 18341059514570436675
13140716 1 18264480685937790411
138480 1 16897646290580451243
14178342 30 18268164084503838112
14223421 5 18048602521089588448
14790565 3 18193268822063118352
14866123 147 18410855486088519619
15042514 8 18411412878496015427
15196674 1 18409168826961951356
15420108 30 15155857200565944440
15927050 60 18264770051233809751
16752209 62 18336841826499303491
16945 1 17976546013905161645
17492 89 18340204069139253610
17859628 97 18268431415499076107
19591789 44 18050283970800140606
20510252 161 18334010597069120585
20602899 9 15647064767330215101
20775438 99 16528117488117309991
21033648 29 18267881642532751488
21267235 1 18410004416685094766
221490 88 18195524792811403944
22182313 1 17968638502361423894
2334 1 18408324358944892437
23402539 116 18261120698388292652
23557571 272 18260820480712216404
23558518 356 18129096719598032808
23559900 14 18261113032588762382
2748010 2 17255134350331477741
3084891 72 18263367047687901912
3091708 16 9415611199964373595
335352 9 18265334083028327596
350125 39 18410570665653772037
352729 6 18334850658059564309
3759504 43 18341895237891149077
4058900 60 17982443008319051717
4214541 1 18410293627341309468
484989 97 18269845216719509727
5104073 3 18408326575554160960
5309563 4 17762333617900612274
5364581 5 17972621909078675728
54173680 148 18338796702201627945
559249 180 18339084899498794370
6138700 20 17832139799062159054
8809292 202 18339080389097162450
9709674 26 18334008402562657822
9981440 41 18268711799991853017

> <PUBCHEM_SHAPE_MULTIPOLES>
466.34
8.21
4.29
0.76
9.89
1.59
0.01
-0.76
0.16
-4.63
-0.61
-0.32
0.18
0.37

> <PUBCHEM_SHAPE_SELFOVERLAP>
1048.815

> <PUBCHEM_SHAPE_VOLUME>
244.5

> <PUBCHEM_COORDINATE_TYPE>
2
5
10

$$$$

