6438330
  -OEChem-07051213023D

 78 80  0     1  0  0  0  0  0999 V2000
   -1.4055   -5.3089    0.3800 O   0  0  0  0  0  0  0  0  0  0  0  0
   -1.1977   -4.1360   -2.2404 O   0  0  0  0  0  0  0  0  0  0  0  0
   -2.3091   -3.1988    2.7863 O   0  0  0  0  0  0  0  0  0  0  0  0
   -2.4766    0.2100   -0.6329 O   0  0  0  0  0  0  0  0  0  0  0  0
    8.4540    3.1208   -1.4066 O   0  0  0  0  0  0  0  0  0  0  0  0
   10.5121    0.5678    1.9563 O   0  0  0  0  0  0  0  0  0  0  0  0
    7.1189    1.0257   -1.6219 O   0  0  0  0  0  0  0  0  0  0  0  0
   -3.1901   -1.4151    0.8592 N   0  0  0  0  0  0  0  0  0  0  0  0
    7.9753    0.9082    0.5414 N   0  0  0  0  0  0  0  0  0  0  0  0
   -0.3163   -4.4818   -0.0584 C   0  0  2  0  0  0  0  0  0  0  0  0
   -0.8894   -4.3544    1.3220 C   0  0  1  0  0  0  0  0  0  0  0  0
   -0.6606   -3.4505   -1.1008 C   0  0  2  0  0  0  0  0  0  0  0  0
   -1.8552   -3.2883    1.6521 C   0  0  0  0  0  0  0  0  0  0  0  0
   -1.7165   -2.4533   -0.6687 C   0  0  0  0  0  0  0  0  0  0  0  0
   -2.2515   -2.3600    0.5585 C   0  0  0  0  0  0  0  0  0  0  0  0
    0.5623   -2.7003   -1.5613 C   0  0  0  0  0  0  0  0  0  0  0  0
    1.5701   -2.3525   -0.7472 C   0  0  0  0  0  0  0  0  0  0  0  0
   -3.2506   -0.1745    0.2425 C   0  0  0  0  0  0  0  0  0  0  0  0
    2.7455   -1.6076   -1.1423 C   0  0  0  0  0  0  0  0  0  0  0  0
   -4.3760    0.6984    0.7330 C   0  0  0  0  0  0  0  0  0  0  0  0
   -8.2524    3.1487    1.0396 C   0  0  2  0  0  0  0  0  0  0  0  0
    3.7519   -1.2614   -0.3248 C   0  0  0  0  0  0  0  0  0  0  0  0
   -4.8793    1.5659   -0.1669 C   0  0  0  0  0  0  0  0  0  0  0  0
   -9.5377    2.5326    0.4516 C   0  0  0  0  0  0  0  0  0  0  0  0
   -4.8937    0.5117    2.1303 C   0  0  0  0  0  0  0  0  0  0  0  0
   -5.9661    2.5053    0.0565 C   0  0  0  0  0  0  0  0  0  0  0  0
   -9.5050    2.2360   -1.0530 C   0  0  0  0  0  0  0  0  0  0  0  0
   -7.0799    2.2285    0.7628 C   0  0  0  0  0  0  0  0  0  0  0  0
   -8.3601    3.3779    2.5494 C   0  0  0  0  0  0  0  0  0  0  0  0
  -10.7741    1.5586   -1.5706 C   0  0  0  0  0  0  0  0  0  0  0  0
    4.8930   -0.4873   -0.7645 C   0  0  0  0  0  0  0  0  0  0  0  0
   -5.7350    3.8667   -0.5388 C   0  0  0  0  0  0  0  0  0  0  0  0
  -10.6898    1.2917   -3.0658 C   0  0  0  0  0  0  0  0  0  0  0  0
    5.8951   -0.1447    0.0570 C   0  0  0  0  0  0  0  0  0  0  0  0
   10.7471    3.1702   -0.4739 C   0  0  0  0  0  0  0  0  0  0  0  0
   11.4437    2.3566    0.6173 C   0  0  0  0  0  0  0  0  0  0  0  0
    9.1209    1.6213    0.3376 C   0  0  0  0  0  0  0  0  0  0  0  0
    9.3632    2.6099   -0.5208 C   0  0  0  0  0  0  0  0  0  0  0  0
   10.3706    1.4076    1.0805 C   0  0  0  0  0  0  0  0  0  0  0  0
    7.0443    0.6550   -0.4545 C   0  0  0  0  0  0  0  0  0  0  0  0
    0.6238   -4.9953   -0.2127 H   0  0  0  0  0  0  0  0  0  0  0  0
   -0.2909   -4.7350    2.1416 H   0  0  0  0  0  0  0  0  0  0  0  0
   -2.0705   -1.8269   -1.4836 H   0  0  0  0  0  0  0  0  0  0  0  0
    0.5998   -2.4024   -2.6080 H   0  0  0  0  0  0  0  0  0  0  0  0
   -0.5240   -4.7590   -2.5639 H   0  0  0  0  0  0  0  0  0  0  0  0
   -3.7430   -1.5884    1.6934 H   0  0  0  0  0  0  0  0  0  0  0  0
    1.5259   -2.6210    0.3060 H   0  0  0  0  0  0  0  0  0  0  0  0
    2.7846   -1.3083   -2.1886 H   0  0  0  0  0  0  0  0  0  0  0  0
   -8.1151    4.1241    0.5627 H   0  0  0  0  0  0  0  0  0  0  0  0
    3.7227   -1.5541    0.7224 H   0  0  0  0  0  0  0  0  0  0  0  0
   -9.7681    1.6007    0.9860 H   0  0  0  0  0  0  0  0  0  0  0  0
  -10.3759    3.2120    0.6550 H   0  0  0  0  0  0  0  0  0  0  0  0
   -4.4514    1.6199   -1.1670 H   0  0  0  0  0  0  0  0  0  0  0  0
   -5.3204    1.4259    2.5522 H   0  0  0  0  0  0  0  0  0  0  0  0
   -4.0741    0.2502    2.8098 H   0  0  0  0  0  0  0  0  0  0  0  0
   -5.6388   -0.2888    2.1687 H   0  0  0  0  0  0  0  0  0  0  0  0
   -8.6540    1.5863   -1.2880 H   0  0  0  0  0  0  0  0  0  0  0  0
   -9.3442    3.1757   -1.5957 H   0  0  0  0  0  0  0  0  0  0  0  0
   -7.2189    1.2210    1.1515 H   0  0  0  0  0  0  0  0  0  0  0  0
   -9.1951    4.0490    2.7769 H   0  0  0  0  0  0  0  0  0  0  0  0
   -7.4457    3.8355    2.9433 H   0  0  0  0  0  0  0  0  0  0  0  0
   -8.5284    2.4389    3.0887 H   0  0  0  0  0  0  0  0  0  0  0  0
  -11.6433    2.1939   -1.3649 H   0  0  0  0  0  0  0  0  0  0  0  0
  -10.9313    0.6112   -1.0425 H   0  0  0  0  0  0  0  0  0  0  0  0
    4.9086   -0.1882   -1.8095 H   0  0  0  0  0  0  0  0  0  0  0  0
   -6.2047    3.9347   -1.5257 H   0  0  0  0  0  0  0  0  0  0  0  0
   -6.1182    4.6722    0.0946 H   0  0  0  0  0  0  0  0  0  0  0  0
   -4.6648    4.0726   -0.6619 H   0  0  0  0  0  0  0  0  0  0  0  0
   -9.8480    0.6323   -3.3000 H   0  0  0  0  0  0  0  0  0  0  0  0
  -11.6072    0.8088   -3.4165 H   0  0  0  0  0  0  0  0  0  0  0  0
  -10.5619    2.2245   -3.6243 H   0  0  0  0  0  0  0  0  0  0  0  0
    5.8929   -0.4356    1.1030 H   0  0  0  0  0  0  0  0  0  0  0  0
   10.7354    4.2352   -0.2199 H   0  0  0  0  0  0  0  0  0  0  0  0
   11.2562    3.0503   -1.4359 H   0  0  0  0  0  0  0  0  0  0  0  0
   11.7650    2.9930    1.4468 H   0  0  0  0  0  0  0  0  0  0  0  0
   12.2930    1.7958    0.2168 H   0  0  0  0  0  0  0  0  0  0  0  0
    7.9208    0.3816    1.4098 H   0  0  0  0  0  0  0  0  0  0  0  0
    8.8984    3.8279   -1.9055 H   0  0  0  0  0  0  0  0  0  0  0  0
  1 10  1  0  0  0  0
  1 11  1  0  0  0  0
  2 12  1  0  0  0  0
  2 45  1  0  0  0  0
  3 13  2  0  0  0  0
  4 18  2  0  0  0  0
  5 38  1  0  0  0  0
  5 78  1  0  0  0  0
  6 39  2  0  0  0  0
  7 40  2  0  0  0  0
  8 15  1  0  0  0  0
  8 18  1  0  0  0  0
  8 46  1  0  0  0  0
  9 37  1  0  0  0  0
  9 40  1  0  0  0  0
  9 77  1  0  0  0  0
 10 11  1  0  0  0  0
 10 12  1  0  0  0  0
 10 41  1  0  0  0  0
 11 13  1  0  0  0  0
 11 42  1  0  0  0  0
 12 14  1  0  0  0  0
 12 16  1  0  0  0  0
 13 15  1  0  0  0  0
 14 15  2  0  0  0  0
 14 43  1  0  0  0  0
 16 17  2  0  0  0  0
 16 44  1  0  0  0  0
 17 19  1  0  0  0  0
 17 47  1  0  0  0  0
 18 20  1  0  0  0  0
 19 22  2  0  0  0  0
 19 48  1  0  0  0  0
 20 23  2  0  0  0  0
 20 25  1  0  0  0  0
 21 24  1  0  0  0  0
 21 28  1  0  0  0  0
 21 29  1  0  0  0  0
 21 49  1  0  0  0  0
 22 31  1  0  0  0  0
 22 50  1  0  0  0  0
 23 26  1  0  0  0  0
 23 53  1  0  0  0  0
 24 27  1  0  0  0  0
 24 51  1  0  0  0  0
 24 52  1  0  0  0  0
 25 54  1  0  0  0  0
 25 55  1  0  0  0  0
 25 56  1  0  0  0  0
 26 28  2  0  0  0  0
 26 32  1  0  0  0  0
 27 30  1  0  0  0  0
 27 57  1  0  0  0  0
 27 58  1  0  0  0  0
 28 59  1  0  0  0  0
 29 60  1  0  0  0  0
 29 61  1  0  0  0  0
 29 62  1  0  0  0  0
 30 33  1  0  0  0  0
 30 63  1  0  0  0  0
 30 64  1  0  0  0  0
 31 34  2  0  0  0  0
 31 65  1  0  0  0  0
 32 66  1  0  0  0  0
 32 67  1  0  0  0  0
 32 68  1  0  0  0  0
 33 69  1  0  0  0  0
 33 70  1  0  0  0  0
 33 71  1  0  0  0  0
 34 40  1  0  0  0  0
 34 72  1  0  0  0  0
 35 36  1  0  0  0  0
 35 38  1  0  0  0  0
 35 73  1  0  0  0  0
 35 74  1  0  0  0  0
 36 39  1  0  0  0  0
 36 75  1  0  0  0  0
 36 76  1  0  0  0  0
 37 38  2  0  0  0  0
 37 39  1  0  0  0  0
M  END
> <PUBCHEM_COMPOUND_CID>
6438330

> <PUBCHEM_CONFORMER_RMSD>
1.4

> <PUBCHEM_CONFORMER_DIVERSEORDER>
1
3
11
18
19
17
8
20
2
7
14
21
12
6
5
13
16
15
10
4
9

> <PUBCHEM_MMFF94_PARTIAL_CHARGES>
50
1 -0.3
10 -0.05
11 0.05
12 0.65
13 0.56
14 -0.29
15 0.12
16 -0.29
17 -0.15
18 0.62
19 -0.15
2 -0.68
20 -0.12
21 0.14
22 -0.15
23 -0.15
25 0.14
26 -0.14
28 -0.29
3 -0.57
31 -0.15
32 0.14
34 -0.14
35 0.14
36 0.06
37 0.12
38 -0.06
39 0.49
4 -0.57
40 0.62
41 0.1
42 0.1
43 0.15
44 0.15
45 0.4
46 0.37
47 0.15
48 0.15
5 -0.53
50 0.15
53 0.15
59 0.15
6 -0.57
65 0.15
7 -0.57
72 0.15
77 0.37
78 0.45
8 -0.54
9 -0.54

> <PUBCHEM_EFFECTIVE_ROTOR_COUNT>
14.8

> <PUBCHEM_PHARMACOPHORE_FEATURES>
17
1 1 acceptor
1 2 acceptor
1 2 donor
1 25 hydrophobe
1 29 hydrophobe
1 3 acceptor
1 32 hydrophobe
1 33 hydrophobe
1 4 acceptor
1 5 donor
1 6 acceptor
1 7 acceptor
1 8 donor
1 9 donor
5 21 24 27 28 30 hydrophobe
5 35 36 37 38 39 rings
7 1 10 11 12 13 14 15 rings

> <PUBCHEM_HEAVY_ATOM_COUNT>
40

> <PUBCHEM_ATOM_DEF_STEREO_COUNT>
4

> <PUBCHEM_ATOM_UDEF_STEREO_COUNT>
0

> <PUBCHEM_BOND_DEF_STEREO_COUNT>
5

> <PUBCHEM_BOND_UDEF_STEREO_COUNT>
0

> <PUBCHEM_ISOTOPIC_ATOM_COUNT>
0

> <PUBCHEM_COMPONENT_COUNT>
1

> <PUBCHEM_CACTVS_TAUTO_COUNT>
40

> <PUBCHEM_CONFORMER_ID>
00623DBA00000001

> <PUBCHEM_MMFF94_ENERGY>
88.0084

> <PUBCHEM_FEATURE_SELFOVERLAP>
86.27

> <PUBCHEM_SHAPE_FINGERPRINT>
10533779 1 18408323298146369536
10930396 42 17203326724130835493
12013929 27 8214152850520396618
15152005 77 11959726045360586681
15264996 74 17822578196358576054
15685185 35 18333166176613758585
15890870 6 18335139812380011865
19304671 126 17968645147018787102
20609170 114 17988353764609492731
21057603 285 17484212216675555851
21792965 302 18272094899499297159
23516275 100 18267018534479155437
23522609 53 17316752494587265753
23523788 1 13901906756318805650
23569943 247 10591460804178481745
25242607 90 11239708635312802644
2835820 83 10159693586454762680
393628 179 18410855490488968941
4112364 45 18058733648713984419
4756326 101 17489033760130867181
5372103 7 18261388992052141601
5776283 40 18113618992908292056
6204607 403 17970055855119397993

> <PUBCHEM_SHAPE_MULTIPOLES>
772.13
44.52
6.83
2.11
61.18
6.97
-0.11
-77.63
3.8
-3.68
-0.7
-4.4
0.28
-0.24

> <PUBCHEM_SHAPE_SELFOVERLAP>
1602.834

> <PUBCHEM_SHAPE_VOLUME>
437.4

> <PUBCHEM_COORDINATE_TYPE>
2
5
10

$$$$

