12623
  -OEChem-06261207102D

 14 13  0     0  0  0  0  0  0999 V2000
    2.8660   -0.1645    0.0000 Sn  0  0  0  0  0  0  0  0  0  0  0  0
    3.7320    0.3355    0.0000 C   0  0  0  0  0  0  0  0  0  0  0  0
    2.0000   -0.6645    0.0000 C   0  0  0  0  0  0  0  0  0  0  0  0
    2.3660    0.7015    0.0000 C   0  0  0  0  0  0  0  0  0  0  0  0
    3.1760   -0.7015    0.0000 H   0  0  0  0  0  0  0  0  0  0  0  0
    4.0420   -0.2015    0.0000 H   0  0  0  0  0  0  0  0  0  0  0  0
    4.2690    0.6455    0.0000 H   0  0  0  0  0  0  0  0  0  0  0  0
    3.4220    0.8724    0.0000 H   0  0  0  0  0  0  0  0  0  0  0  0
    1.6900   -0.1276    0.0000 H   0  0  0  0  0  0  0  0  0  0  0  0
    1.4631   -0.9745    0.0000 H   0  0  0  0  0  0  0  0  0  0  0  0
    2.3100   -1.2015    0.0000 H   0  0  0  0  0  0  0  0  0  0  0  0
    2.9030    1.0115    0.0000 H   0  0  0  0  0  0  0  0  0  0  0  0
    2.0560    1.2384    0.0000 H   0  0  0  0  0  0  0  0  0  0  0  0
    1.8291    0.3915    0.0000 H   0  0  0  0  0  0  0  0  0  0  0  0
  1  2  1  0  0  0  0
  1  3  1  0  0  0  0
  1  4  1  0  0  0  0
  1  5  1  0  0  0  0
  2  6  1  0  0  0  0
  2  7  1  0  0  0  0
  2  8  1  0  0  0  0
  3  9  1  0  0  0  0
  3 10  1  0  0  0  0
  3 11  1  0  0  0  0
  4 12  1  0  0  0  0
  4 13  1  0  0  0  0
  4 14  1  0  0  0  0
M  END
> <PUBCHEM_COMPOUND_CID>
12623

> <PUBCHEM_COMPOUND_CANONICALIZED>
1

> <PUBCHEM_CACTVS_COMPLEXITY>
8

> <PUBCHEM_CACTVS_HBOND_ACCEPTOR>
0

> <PUBCHEM_CACTVS_HBOND_DONOR>
0

> <PUBCHEM_CACTVS_ROTATABLE_BOND>
0

> <PUBCHEM_CACTVS_SUBSKEYS>
AAADccBAAAAAAAAAAACAAAAAAAAAAAAAAAAAAAAAAAAAAAAAAAAAEAAAAAAAAAAAAAACAAAAAAAAAAAAAAAAAAAAAAAAAAAAAAAAAAAAAAAAAAAAAAAAAAAAAAAAAAAAAAAAAAAAAAAAAAAAAAAAAAAAAA==

> <PUBCHEM_IUPAC_OPENEYE_NAME>
trimethylstannane

> <PUBCHEM_IUPAC_CAS_NAME>
trimethylstannane

> <PUBCHEM_IUPAC_NAME>
trimethylstannane

> <PUBCHEM_IUPAC_SYSTEMATIC_NAME>
trimethylstannane

> <PUBCHEM_IUPAC_TRADITIONAL_NAME>
trimethylstannane

> <PUBCHEM_IUPAC_INCHI>
InChI=1S/3CH3.Sn.H/h3*1H3;;

> <PUBCHEM_IUPAC_INCHIKEY>
UKHQRARQNZOXRL-UHFFFAOYSA-N

> <PUBCHEM_EXACT_MASS>
165.980445

> <PUBCHEM_MOLECULAR_FORMULA>
C3H10Sn

> <PUBCHEM_MOLECULAR_WEIGHT>
164.8215

> <PUBCHEM_OPENEYE_CAN_SMILES>
C[SnH](C)C

> <PUBCHEM_OPENEYE_ISO_SMILES>
C[SnH](C)C

> <PUBCHEM_CACTVS_TPSA>
0

> <PUBCHEM_MONOISOTOPIC_WEIGHT>
165.980445

> <PUBCHEM_TOTAL_CHARGE>
0

> <PUBCHEM_HEAVY_ATOM_COUNT>
4

> <PUBCHEM_ATOM_DEF_STEREO_COUNT>
0

> <PUBCHEM_ATOM_UDEF_STEREO_COUNT>
0

> <PUBCHEM_BOND_DEF_STEREO_COUNT>
0

> <PUBCHEM_BOND_UDEF_STEREO_COUNT>
0

> <PUBCHEM_ISOTOPIC_ATOM_COUNT>
0

> <PUBCHEM_COMPONENT_COUNT>
1

> <PUBCHEM_CACTVS_TAUTO_COUNT>
1

> <PUBCHEM_COORDINATE_TYPE>
1
5
255

$$$$

