440293
  -OEChem-07051212493D

 19 18  0     1  0  0  0  0  0999 V2000
    2.1088    0.3676   -0.0073 P   0  0  0  0  0  0  0  0  0  0  0  0
    0.5517    0.1870   -0.3280 O   0  0  0  0  0  0  0  0  0  0  0  0
   -1.7863   -0.9476   -1.6104 O   0  0  0  0  0  0  0  0  0  0  0  0
    2.5206    1.6026   -0.9680 O   0  0  0  0  0  0  0  0  0  0  0  0
    2.8184   -0.8961   -0.7268 O   0  0  0  0  0  0  0  0  0  0  0  0
   -2.2335    0.6983    1.5546 O   0  0  0  0  0  0  0  0  0  0  0  0
    2.4773    0.5567    1.4352 O   0  0  0  0  0  0  0  0  0  0  0  0
   -2.7108    1.3417   -0.5690 O   0  0  0  0  0  0  0  0  0  0  0  0
   -1.6483   -0.8150   -0.2030 C   0  0  1  0  0  0  0  0  0  0  0  0
   -0.1993   -0.8493    0.1996 C   0  0  0  0  0  0  0  0  0  0  0  0
   -2.2509    0.5151    0.2086 C   0  0  0  0  0  0  0  0  0  0  0  0
    0.3522   -1.7610    1.0145 C   0  0  0  0  0  0  0  0  0  0  0  0
   -2.2235   -1.6201    0.2674 H   0  0  0  0  0  0  0  0  0  0  0  0
    1.3874   -1.7730    1.3230 H   0  0  0  0  0  0  0  0  0  0  0  0
   -0.2644   -2.5571    1.4224 H   0  0  0  0  0  0  0  0  0  0  0  0
   -2.7366   -1.0154   -1.8065 H   0  0  0  0  0  0  0  0  0  0  0  0
    2.3004    2.5161   -0.6864 H   0  0  0  0  0  0  0  0  0  0  0  0
    2.8481   -1.7665   -0.2769 H   0  0  0  0  0  0  0  0  0  0  0  0
   -2.6264    1.5596    1.8114 H   0  0  0  0  0  0  0  0  0  0  0  0
  1  2  1  0  0  0  0
  1  4  1  0  0  0  0
  1  5  1  0  0  0  0
  1  7  2  0  0  0  0
  2 10  1  0  0  0  0
  3  9  1  0  0  0  0
  3 16  1  0  0  0  0
  4 17  1  0  0  0  0
  5 18  1  0  0  0  0
  6 11  1  0  0  0  0
  6 19  1  0  0  0  0
  8 11  2  0  0  0  0
  9 10  1  0  0  0  0
  9 11  1  0  0  0  0
  9 13  1  0  0  0  0
 10 12  2  0  0  0  0
 12 14  1  0  0  0  0
 12 15  1  0  0  0  0
M  END
> <PUBCHEM_COMPOUND_CID>
440293

> <PUBCHEM_CONFORMER_RMSD>
0.6

> <PUBCHEM_CONFORMER_DIVERSEORDER>
1
63
67
51
23
47
59
65
28
39
70
68
56
62
53
40
17
61
76
64
27
36
75
69
74
58
52
43
44
48
42
20
21
6
46
7
32
16
25
10
30
24
60
11
49
34
14
41
57
33
3
72
4
54
45
38
66
26
37
55
73
5
50
13
18
22
2
15
31
35
8
19
9
12
29
71

> <PUBCHEM_MMFF94_PARTIAL_CHARGES>
18
1 1.51
10 -0.06
11 0.66
12 -0.3
14 0.15
15 0.15
16 0.4
17 0.5
18 0.5
19 0.5
2 -0.35
3 -0.68
4 -0.77
5 -0.77
6 -0.65
7 -0.7
8 -0.57
9 0.48

> <PUBCHEM_EFFECTIVE_ROTOR_COUNT>
4

> <PUBCHEM_PHARMACOPHORE_FEATURES>
9
1 3 acceptor
1 3 donor
1 4 acceptor
1 5 acceptor
1 6 acceptor
1 7 acceptor
1 8 acceptor
3 6 8 11 anion
4 1 4 5 7 anion

> <PUBCHEM_HEAVY_ATOM_COUNT>
12

> <PUBCHEM_ATOM_DEF_STEREO_COUNT>
0

> <PUBCHEM_ATOM_UDEF_STEREO_COUNT>
1

> <PUBCHEM_BOND_DEF_STEREO_COUNT>
0

> <PUBCHEM_BOND_UDEF_STEREO_COUNT>
0

> <PUBCHEM_ISOTOPIC_ATOM_COUNT>
0

> <PUBCHEM_COMPONENT_COUNT>
1

> <PUBCHEM_CACTVS_TAUTO_COUNT>
1

> <PUBCHEM_CONFORMER_ID>
0006B7E500000001

> <PUBCHEM_MMFF94_ENERGY>
-18.4502

> <PUBCHEM_FEATURE_SELFOVERLAP>
45.773

> <PUBCHEM_SHAPE_FINGERPRINT>
10857977 72 15482376578453097687
12716758 59 17675928698378623539
12897270 3 16878228567067185020
12932764 1 17386560263409981622
15310529 11 16588031164608178799
15775835 57 18408324401678346113
18511873 20 18189607414319599454
19837323 101 17023170657049645707
20653085 51 18336254708680316689
20711985 344 4821840559591717986
21028194 46 18408882944989865075
22802520 49 16515674555047284641
228727 97 18263094218939398103
230 275 18340494451302753080
23557571 272 16806740464196712817
305870 269 18270132308637724138
3248919 1 18340774732494859134
5084963 1 18409443678676812595

> <PUBCHEM_SHAPE_MULTIPOLES>
209.72
4.41
1.54
1.3
0.87
0.12
-0.12
-1.65
0.08
0.2
0.02
-0.22
0.05
-0.27

> <PUBCHEM_SHAPE_SELFOVERLAP>
396.194

> <PUBCHEM_SHAPE_VOLUME>
130.1

> <PUBCHEM_COORDINATE_TYPE>
2
5
10

$$$$

