39
  -OEChem-07051212452D

 17 17  0     0  0  0  0  0  0999 V2000
    4.2601   -0.7694    0.0000 O   0  0  0  0  0  0  0  0  0  0  0  0
    2.0000    0.4907    0.0000 O   0  0  0  0  0  0  0  0  0  0  0  0
    2.6723   -1.5784    0.0000 O   0  0  0  0  0  0  0  0  0  0  0  0
    3.7601    0.7694    0.0000 C   0  0  0  0  0  0  0  0  0  0  0  0
    4.5691    0.1816    0.0000 C   0  0  0  0  0  0  0  0  0  0  0  0
    2.9511    0.1816    0.0000 C   0  0  0  0  0  0  0  0  0  0  0  0
    4.3479    1.5784    0.0000 C   0  0  0  0  0  0  0  0  0  0  0  0
    3.1723    1.5784    0.0000 C   0  0  0  0  0  0  0  0  0  0  0  0
    3.2601   -0.7694    0.0000 C   0  0  0  0  0  0  0  0  0  0  0  0
    5.1355   -0.0705    0.0000 H   0  0  0  0  0  0  0  0  0  0  0  0
    4.8791    0.7186    0.0000 H   0  0  0  0  0  0  0  0  0  0  0  0
    4.8494    1.2140    0.0000 H   0  0  0  0  0  0  0  0  0  0  0  0
    4.7123    2.0800    0.0000 H   0  0  0  0  0  0  0  0  0  0  0  0
    3.8463    1.9429    0.0000 H   0  0  0  0  0  0  0  0  0  0  0  0
    3.6739    1.9429    0.0000 H   0  0  0  0  0  0  0  0  0  0  0  0
    2.8079    2.0800    0.0000 H   0  0  0  0  0  0  0  0  0  0  0  0
    2.6707    1.2140    0.0000 H   0  0  0  0  0  0  0  0  0  0  0  0
  1  5  1  0  0  0  0
  1  9  1  0  0  0  0
  2  6  2  0  0  0  0
  3  9  2  0  0  0  0
  4  5  1  0  0  0  0
  4  6  1  0  0  0  0
  4  7  1  0  0  0  0
  4  8  1  0  0  0  0
  5 10  1  0  0  0  0
  5 11  1  0  0  0  0
  6  9  1  0  0  0  0
  7 12  1  0  0  0  0
  7 13  1  0  0  0  0
  7 14  1  0  0  0  0
  8 15  1  0  0  0  0
  8 16  1  0  0  0  0
  8 17  1  0  0  0  0
M  END
> <PUBCHEM_COMPOUND_CID>
39

> <PUBCHEM_COMPOUND_CANONICALIZED>
1

> <PUBCHEM_CACTVS_COMPLEXITY>
169

> <PUBCHEM_CACTVS_HBOND_ACCEPTOR>
3

> <PUBCHEM_CACTVS_HBOND_DONOR>
0

> <PUBCHEM_CACTVS_ROTATABLE_BOND>
0

> <PUBCHEM_CACTVS_SUBSKEYS>
AAADccBgMAAAAAAAAAAAAAAAAAAAASAAAAAAAAAAAAAAAAAAAAAAGgAAAAAADgSggAICCAAABAAIAICQCAIAAAAAAAAAAAFAAAAAABQAAAQCAAAEIAAAAAACAAAJAAAAAAAAAAAAAAAAAAAAAAAAAAAAAA==

> <PUBCHEM_IUPAC_OPENEYE_NAME>
4,4-dimethyltetrahydrofuran-2,3-dione

> <PUBCHEM_IUPAC_CAS_NAME>
4,4-dimethyloxolane-2,3-dione

> <PUBCHEM_IUPAC_NAME>
4,4-dimethyloxolane-2,3-dione

> <PUBCHEM_IUPAC_SYSTEMATIC_NAME>
4,4-dimethyloxolane-2,3-dione

> <PUBCHEM_IUPAC_TRADITIONAL_NAME>
4,4-dimethyltetrahydrofuran-2,3-quinone

> <PUBCHEM_IUPAC_INCHI>
InChI=1S/C6H8O3/c1-6(2)3-9-5(8)4(6)7/h3H2,1-2H3

> <PUBCHEM_IUPAC_INCHIKEY>
HRTOQFBQOFIFEE-UHFFFAOYSA-N

> <PUBCHEM_XLOGP3_AA>
0.6

> <PUBCHEM_EXACT_MASS>
128.047344

> <PUBCHEM_MOLECULAR_FORMULA>
C6H8O3

> <PUBCHEM_MOLECULAR_WEIGHT>
128.12592

> <PUBCHEM_OPENEYE_CAN_SMILES>
CC1(COC(=O)C1=O)C

> <PUBCHEM_OPENEYE_ISO_SMILES>
CC1(COC(=O)C1=O)C

> <PUBCHEM_CACTVS_TPSA>
43.4

> <PUBCHEM_MONOISOTOPIC_WEIGHT>
128.047344

> <PUBCHEM_TOTAL_CHARGE>
0

> <PUBCHEM_HEAVY_ATOM_COUNT>
9

> <PUBCHEM_ATOM_DEF_STEREO_COUNT>
0

> <PUBCHEM_ATOM_UDEF_STEREO_COUNT>
0

> <PUBCHEM_BOND_DEF_STEREO_COUNT>
0

> <PUBCHEM_BOND_UDEF_STEREO_COUNT>
0

> <PUBCHEM_ISOTOPIC_ATOM_COUNT>
0

> <PUBCHEM_COMPONENT_COUNT>
1

> <PUBCHEM_CACTVS_TAUTO_COUNT>
1

> <PUBCHEM_COORDINATE_TYPE>
1
5
255

$$$$

