17395896
  -OEChem-06241222532D

 35 37  0     1  0  0  0  0  0999 V2000
    4.6824    0.5496    0.0000 S   0  0  0  0  0  0  0  0  0  0  0  0
    4.1824   -4.9892    0.0000 F   0  0  0  0  0  0  0  0  0  0  0  0
    4.4958    2.3767    0.0000 O   0  0  0  0  0  0  0  0  0  0  0  0
    3.0946    1.3586    0.0000 N   0  0  0  0  0  0  0  0  0  0  0  0
    3.3734   -0.4015    0.0000 N   0  0  0  0  0  0  0  0  0  0  0  0
    2.8090    4.0757    0.0000 C   0  0  3  0  0  0  0  0  0  0  0  0
    2.9136    3.0812    0.0000 C   0  0  3  0  0  0  0  0  0  0  0  0
    2.0000    3.4879    0.0000 C   0  0  0  0  0  0  0  0  0  0  0  0
    3.2158    4.9892    0.0000 C   0  0  0  0  0  0  0  0  0  0  0  0
    3.5013    2.2722    0.0000 C   0  0  0  0  0  0  0  0  0  0  0  0
    3.6824    0.5496    0.0000 C   0  0  0  0  0  0  0  0  0  0  0  0
    4.1824   -0.9892    0.0000 C   0  0  0  0  0  0  0  0  0  0  0  0
    4.9914   -0.4015    0.0000 C   0  0  0  0  0  0  0  0  0  0  0  0
    4.1824   -1.9892    0.0000 C   0  0  0  0  0  0  0  0  0  0  0  0
    5.9424   -0.7105    0.0000 C   0  0  0  0  0  0  0  0  0  0  0  0
    3.3164   -2.4892    0.0000 C   0  0  0  0  0  0  0  0  0  0  0  0
    5.0484   -2.4892    0.0000 C   0  0  0  0  0  0  0  0  0  0  0  0
    3.3164   -3.4892    0.0000 C   0  0  0  0  0  0  0  0  0  0  0  0
    5.0484   -3.4892    0.0000 C   0  0  0  0  0  0  0  0  0  0  0  0
    4.1824   -3.9892    0.0000 C   0  0  0  0  0  0  0  0  0  0  0  0
    3.4214    3.9787    0.0000 H   0  0  0  0  0  0  0  0  0  0  0  0
    2.5234    2.5994    0.0000 H   0  0  0  0  0  0  0  0  0  0  0  0
    1.5540    3.9186    0.0000 H   0  0  0  0  0  0  0  0  0  0  0  0
    1.6533    2.9739    0.0000 H   0  0  0  0  0  0  0  0  0  0  0  0
    3.7822    4.7371    0.0000 H   0  0  0  0  0  0  0  0  0  0  0  0
    3.4679    5.5556    0.0000 H   0  0  0  0  0  0  0  0  0  0  0  0
    2.6494    5.2414    0.0000 H   0  0  0  0  0  0  0  0  0  0  0  0
    2.4780    1.2938    0.0000 H   0  0  0  0  0  0  0  0  0  0  0  0
    5.7509   -1.3001    0.0000 H   0  0  0  0  0  0  0  0  0  0  0  0
    6.5321   -0.9021    0.0000 H   0  0  0  0  0  0  0  0  0  0  0  0
    6.1340   -0.1208    0.0000 H   0  0  0  0  0  0  0  0  0  0  0  0
    2.7794   -2.1792    0.0000 H   0  0  0  0  0  0  0  0  0  0  0  0
    5.5853   -2.1792    0.0000 H   0  0  0  0  0  0  0  0  0  0  0  0
    2.7794   -3.7992    0.0000 H   0  0  0  0  0  0  0  0  0  0  0  0
    5.5853   -3.7992    0.0000 H   0  0  0  0  0  0  0  0  0  0  0  0
  1 11  1  0  0  0  0
  1 13  1  0  0  0  0
  2 20  1  0  0  0  0
  3 10  2  0  0  0  0
  4 10  1  0  0  0  0
  4 11  1  0  0  0  0
  4 28  1  0  0  0  0
  5 11  2  0  0  0  0
  5 12  1  0  0  0  0
  6  7  1  0  0  0  0
  6  8  1  0  0  0  0
  6  9  1  0  0  0  0
  6 21  1  0  0  0  0
  7  8  1  0  0  0  0
  7 10  1  0  0  0  0
  7 22  1  0  0  0  0
  8 23  1  0  0  0  0
  8 24  1  0  0  0  0
  9 25  1  0  0  0  0
  9 26  1  0  0  0  0
  9 27  1  0  0  0  0
 12 13  2  0  0  0  0
 12 14  1  0  0  0  0
 13 15  1  0  0  0  0
 14 16  2  0  0  0  0
 14 17  1  0  0  0  0
 15 29  1  0  0  0  0
 15 30  1  0  0  0  0
 15 31  1  0  0  0  0
 16 18  1  0  0  0  0
 16 32  1  0  0  0  0
 17 19  2  0  0  0  0
 17 33  1  0  0  0  0
 18 20  2  0  0  0  0
 18 34  1  0  0  0  0
 19 20  1  0  0  0  0
 19 35  1  0  0  0  0
M  END
> <PUBCHEM_COMPOUND_CID>
17395896

> <PUBCHEM_COMPOUND_CANONICALIZED>
1

> <PUBCHEM_CACTVS_COMPLEXITY>
373

> <PUBCHEM_CACTVS_HBOND_ACCEPTOR>
4

> <PUBCHEM_CACTVS_HBOND_DONOR>
1

> <PUBCHEM_CACTVS_ROTATABLE_BOND>
3

> <PUBCHEM_CACTVS_SUBSKEYS>
AAADccBzIQBAAAAAAAAAAAAAGAAAAWAAAAAwAAAAAAAAAAABwAAAHwQQAAAADQiB3ggzkZLIEAisAyVydACC8KlhCDkJmDUgRJiIILLgmRGEIAhokQJIiCcYgIAOAAAAAAAAAAAAAAAAAAAAAAAAAAAAAA==

> <PUBCHEM_IUPAC_OPENEYE_NAME>
N-[4-(4-fluorophenyl)-5-methyl-thiazol-2-yl]-2-methyl-cyclopropanecarboxamide

> <PUBCHEM_IUPAC_CAS_NAME>
N-[4-(4-fluorophenyl)-5-methyl-2-thiazolyl]-2-methyl-1-cyclopropanecarboxamide

> <PUBCHEM_IUPAC_NAME>
N-[4-(4-fluorophenyl)-5-methyl-1,3-thiazol-2-yl]-2-methylcyclopropane-1-carboxamide

> <PUBCHEM_IUPAC_SYSTEMATIC_NAME>
N-[4-(4-fluorophenyl)-5-methyl-1,3-thiazol-2-yl]-2-methyl-cyclopropane-1-carboxamide

> <PUBCHEM_IUPAC_TRADITIONAL_NAME>
N-[4-(4-fluorophenyl)-5-methyl-thiazol-2-yl]-2-methyl-cyclopropanecarboxamide

> <PUBCHEM_IUPAC_INCHI>
InChI=1S/C15H15FN2OS/c1-8-7-12(8)14(19)18-15-17-13(9(2)20-15)10-3-5-11(16)6-4-10/h3-6,8,12H,7H2,1-2H3,(H,17,18,19)

> <PUBCHEM_IUPAC_INCHIKEY>
OQZRIJMNZRTWAE-UHFFFAOYSA-N

> <PUBCHEM_XLOGP3_AA>
3.5

> <PUBCHEM_EXACT_MASS>
290.088912

> <PUBCHEM_MOLECULAR_FORMULA>
C15H15FN2OS

> <PUBCHEM_MOLECULAR_WEIGHT>
290.355803

> <PUBCHEM_OPENEYE_CAN_SMILES>
CC1CC1C(=O)NC2=NC(=C(S2)C)C3=CC=C(C=C3)F

> <PUBCHEM_OPENEYE_ISO_SMILES>
CC1CC1C(=O)NC2=NC(=C(S2)C)C3=CC=C(C=C3)F

> <PUBCHEM_CACTVS_TPSA>
70.2

> <PUBCHEM_MONOISOTOPIC_WEIGHT>
290.088912

> <PUBCHEM_TOTAL_CHARGE>
0

> <PUBCHEM_HEAVY_ATOM_COUNT>
20

> <PUBCHEM_ATOM_DEF_STEREO_COUNT>
0

> <PUBCHEM_ATOM_UDEF_STEREO_COUNT>
2

> <PUBCHEM_BOND_DEF_STEREO_COUNT>
0

> <PUBCHEM_BOND_UDEF_STEREO_COUNT>
0

> <PUBCHEM_ISOTOPIC_ATOM_COUNT>
0

> <PUBCHEM_COMPONENT_COUNT>
1

> <PUBCHEM_CACTVS_TAUTO_COUNT>
5

> <PUBCHEM_COORDINATE_TYPE>
1
5
255

> <PUBCHEM_BONDANNOTATIONS>
1  11  8
1  13  8
12  13  8
14  16  8
14  17  8
16  18  8
17  19  8
18  20  8
19  20  8
5  11  8
5  12  8
6  9  3
7  10  3

$$$$

