230070
  -OEChem-07051213072D

 60 63  0     1  0  0  0  0  0999 V2000
   12.5190    0.5491    0.0000 O   0  0  0  0  0  0  0  0  0  0  0  0
    4.5961   -2.0032    0.0000 O   0  0  0  0  0  0  0  0  0  0  0  0
   12.5190   -1.1830    0.0000 O   0  0  0  0  0  0  0  0  0  0  0  0
    3.7359   -0.4999    0.0000 O   0  0  0  0  0  0  0  0  0  0  0  0
    9.9892    1.0491    0.0000 C   0  0  1  0  0  0  0  0  0  0  0  0
    9.9892    0.0491    0.0000 C   0  0  2  0  0  0  0  0  0  0  0  0
    9.1232   -0.4509    0.0000 C   0  0  1  0  0  0  0  0  0  0  0  0
    8.2572    0.0491    0.0000 C   0  0  2  0  0  0  0  0  0  0  0  0
   10.9354    1.3538    0.0000 C   0  0  0  0  0  0  0  0  0  0  0  0
   10.9354   -0.2556    0.0000 C   0  0  0  0  0  0  0  0  0  0  0  0
    9.1232    1.5491    0.0000 C   0  0  0  0  0  0  0  0  0  0  0  0
   11.5190    0.5491    0.0000 C   0  0  1  0  0  0  0  0  0  0  0  0
    8.2572    1.0491    0.0000 C   0  0  0  0  0  0  0  0  0  0  0  0
    9.1392   -1.4924    0.0000 C   0  0  0  0  0  0  0  0  0  0  0  0
    9.9892    2.0491    0.0000 C   0  0  0  0  0  0  0  0  0  0  0  0
    7.3472   -0.4578    0.0000 C   0  0  0  0  0  0  0  0  0  0  0  0
    8.2412   -2.0202    0.0000 C   0  0  0  0  0  0  0  0  0  0  0  0
    7.3391   -1.4994    0.0000 C   0  0  0  0  0  0  0  0  0  0  0  0
    6.4203    0.1063    0.0000 C   0  0  0  0  0  0  0  0  0  0  0  0
    6.4037   -2.0491    0.0000 C   0  0  0  0  0  0  0  0  0  0  0  0
    5.4724   -0.4216    0.0000 C   0  0  0  0  0  0  0  0  0  0  0  0
   13.0190   -0.3169    0.0000 C   0  0  0  0  0  0  0  0  0  0  0  0
    5.4641   -1.5066    0.0000 C   0  0  0  0  0  0  0  0  0  0  0  0
   14.0190   -0.3169    0.0000 C   0  0  0  0  0  0  0  0  0  0  0  0
   14.5190   -1.1830    0.0000 C   0  0  0  0  0  0  0  0  0  0  0  0
    3.7320   -1.4999    0.0000 C   0  0  0  0  0  0  0  0  0  0  0  0
    2.8641   -1.9966    0.0000 C   0  0  0  0  0  0  0  0  0  0  0  0
    2.0000   -1.4932    0.0000 C   0  0  0  0  0  0  0  0  0  0  0  0
   10.0792   -0.7961    0.0000 H   0  0  0  0  0  0  0  0  0  0  0  0
    9.8626   -0.8702    0.0000 H   0  0  0  0  0  0  0  0  0  0  0  0
    8.9933    0.4741    0.0000 H   0  0  0  0  0  0  0  0  0  0  0  0
   11.4728    1.6630    0.0000 H   0  0  0  0  0  0  0  0  0  0  0  0
   10.6844    1.9207    0.0000 H   0  0  0  0  0  0  0  0  0  0  0  0
   10.6844   -0.8226    0.0000 H   0  0  0  0  0  0  0  0  0  0  0  0
   11.4728   -0.5649    0.0000 H   0  0  0  0  0  0  0  0  0  0  0  0
    9.5217    2.0240    0.0000 H   0  0  0  0  0  0  0  0  0  0  0  0
    8.7247    2.0240    0.0000 H   0  0  0  0  0  0  0  0  0  0  0  0
   11.8008   -0.0032    0.0000 H   0  0  0  0  0  0  0  0  0  0  0  0
    8.0451    1.6317    0.0000 H   0  0  0  0  0  0  0  0  0  0  0  0
    7.6466    0.9414    0.0000 H   0  0  0  0  0  0  0  0  0  0  0  0
    9.3573   -2.0728    0.0000 H   0  0  0  0  0  0  0  0  0  0  0  0
    9.7484   -1.3769    0.0000 H   0  0  0  0  0  0  0  0  0  0  0  0
   10.6092    2.0491    0.0000 H   0  0  0  0  0  0  0  0  0  0  0  0
    9.9892    2.6691    0.0000 H   0  0  0  0  0  0  0  0  0  0  0  0
    9.3692    2.0491    0.0000 H   0  0  0  0  0  0  0  0  0  0  0  0
    7.8439   -2.4962    0.0000 H   0  0  0  0  0  0  0  0  0  0  0  0
    8.6422   -2.4931    0.0000 H   0  0  0  0  0  0  0  0  0  0  0  0
    6.4323    0.7262    0.0000 H   0  0  0  0  0  0  0  0  0  0  0  0
    6.4061   -2.6691    0.0000 H   0  0  0  0  0  0  0  0  0  0  0  0
    4.9391   -0.1054    0.0000 H   0  0  0  0  0  0  0  0  0  0  0  0
   14.6017   -0.1049    0.0000 H   0  0  0  0  0  0  0  0  0  0  0  0
   13.9114    0.2936    0.0000 H   0  0  0  0  0  0  0  0  0  0  0  0
   13.9821   -1.4930    0.0000 H   0  0  0  0  0  0  0  0  0  0  0  0
   14.8290   -1.7199    0.0000 H   0  0  0  0  0  0  0  0  0  0  0  0
   15.0560   -0.8730    0.0000 H   0  0  0  0  0  0  0  0  0  0  0  0
    2.4637   -2.4700    0.0000 H   0  0  0  0  0  0  0  0  0  0  0  0
    3.2608   -2.4731    0.0000 H   0  0  0  0  0  0  0  0  0  0  0  0
    2.3121   -0.9575    0.0000 H   0  0  0  0  0  0  0  0  0  0  0  0
    1.4643   -1.1812    0.0000 H   0  0  0  0  0  0  0  0  0  0  0  0
    1.6879   -2.0290    0.0000 H   0  0  0  0  0  0  0  0  0  0  0  0
 12  1  1  6  0  0  0
  1 22  1  0  0  0  0
  2 23  1  0  0  0  0
  2 26  1  0  0  0  0
  3 22  2  0  0  0  0
  4 26  2  0  0  0  0
  5  6  1  0  0  0  0
  5  9  1  0  0  0  0
  5 11  1  0  0  0  0
  5 15  1  1  0  0  0
  6  7  1  0  0  0  0
  6 10  1  0  0  0  0
  6 29  1  6  0  0  0
  7  8  1  0  0  0  0
  7 14  1  0  0  0  0
  7 30  1  1  0  0  0
  8 13  1  0  0  0  0
  8 16  1  0  0  0  0
  8 31  1  6  0  0  0
  9 12  1  0  0  0  0
  9 32  1  0  0  0  0
  9 33  1  0  0  0  0
 10 12  1  0  0  0  0
 10 34  1  0  0  0  0
 10 35  1  0  0  0  0
 11 13  1  0  0  0  0
 11 36  1  0  0  0  0
 11 37  1  0  0  0  0
 12 38  1  0  0  0  0
 13 39  1  0  0  0  0
 13 40  1  0  0  0  0
 14 17  1  0  0  0  0
 14 41  1  0  0  0  0
 14 42  1  0  0  0  0
 15 43  1  0  0  0  0
 15 44  1  0  0  0  0
 15 45  1  0  0  0  0
 16 18  2  0  0  0  0
 16 19  1  0  0  0  0
 17 18  1  0  0  0  0
 17 46  1  0  0  0  0
 17 47  1  0  0  0  0
 18 20  1  0  0  0  0
 19 21  2  0  0  0  0
 19 48  1  0  0  0  0
 20 23  2  0  0  0  0
 20 49  1  0  0  0  0
 21 23  1  0  0  0  0
 21 50  1  0  0  0  0
 22 24  1  0  0  0  0
 24 25  1  0  0  0  0
 24 51  1  0  0  0  0
 24 52  1  0  0  0  0
 25 53  1  0  0  0  0
 25 54  1  0  0  0  0
 25 55  1  0  0  0  0
 26 27  1  0  0  0  0
 27 28  1  0  0  0  0
 27 56  1  0  0  0  0
 27 57  1  0  0  0  0
 28 58  1  0  0  0  0
 28 59  1  0  0  0  0
 28 60  1  0  0  0  0
M  END
> <PUBCHEM_COMPOUND_CID>
230070

> <PUBCHEM_COMPOUND_CANONICALIZED>
1

> <PUBCHEM_CACTVS_COMPLEXITY>
601

> <PUBCHEM_CACTVS_HBOND_ACCEPTOR>
4

> <PUBCHEM_CACTVS_HBOND_DONOR>
0

> <PUBCHEM_CACTVS_ROTATABLE_BOND>
6

> <PUBCHEM_CACTVS_SUBSKEYS>
AAADcfB4OAAAAAAAAAAAAAAAAAAAAYAAAAAwYMAAAAAAAGDBAAAAGgAAAAAADxSgmAIyDoAABACIAiDSCAACCAAgIAAIiAEGCIgMJiKEMRqCOiCkwBEIqAeAwPAPoAABAAAQAADAAAYAACAAAIAACAAAAA==

> <PUBCHEM_IUPAC_OPENEYE_NAME>
[(8S,9S,13R,14S,16R)-13-methyl-3-propanoyloxy-6,7,8,9,11,12,14,15,16,17-decahydrocyclopenta[a]phenanthren-16-yl] propanoate

> <PUBCHEM_IUPAC_CAS_NAME>
propanoic acid [(8S,9S,13R,14S,16R)-13-methyl-3-(1-oxopropoxy)-6,7,8,9,11,12,14,15,16,17-decahydrocyclopenta[a]phenanthren-16-yl] ester

> <PUBCHEM_IUPAC_NAME>
[(8S,9S,13R,14S,16R)-13-methyl-3-propanoyloxy-6,7,8,9,11,12,14,15,16,17-decahydrocyclopenta[a]phenanthren-16-yl] propanoate

> <PUBCHEM_IUPAC_SYSTEMATIC_NAME>
[(8S,9S,13R,14S,16R)-13-methyl-3-propanoyloxy-6,7,8,9,11,12,14,15,16,17-decahydrocyclopenta[a]phenanthren-16-yl] propanoate

> <PUBCHEM_IUPAC_TRADITIONAL_NAME>
propionic acid [(8S,9S,13R,14S,16R)-13-methyl-3-propionyloxy-6,7,8,9,11,12,14,15,16,17-decahydrocyclopenta[a]phenanthren-16-yl] ester

> <PUBCHEM_IUPAC_INCHI>
InChI=1S/C24H32O4/c1-4-22(25)27-16-7-9-18-15(12-16)6-8-20-19(18)10-11-24(3)14-17(13-21(20)24)28-23(26)5-2/h7,9,12,17,19-21H,4-6,8,10-11,13-14H2,1-3H3/t17-,19-,20-,21+,24-/m1/s1

> <PUBCHEM_IUPAC_INCHIKEY>
SPPGAQTVRFMVLJ-ISPHGWFKSA-N

> <PUBCHEM_XLOGP3_AA>
5.7

> <PUBCHEM_EXACT_MASS>
384.23006

> <PUBCHEM_MOLECULAR_FORMULA>
C24H32O4

> <PUBCHEM_MOLECULAR_WEIGHT>
384.50848

> <PUBCHEM_OPENEYE_CAN_SMILES>
CCC(=O)OC1CC2C3CCC4=C(C3CCC2(C1)C)C=CC(=C4)OC(=O)CC

> <PUBCHEM_OPENEYE_ISO_SMILES>
CCC(=O)O[C@@H]1C[C@H]2[C@@H]3CCC4=C([C@H]3CC[C@@]2(C1)C)C=CC(=C4)OC(=O)CC

> <PUBCHEM_CACTVS_TPSA>
52.6

> <PUBCHEM_MONOISOTOPIC_WEIGHT>
384.23006

> <PUBCHEM_TOTAL_CHARGE>
0

> <PUBCHEM_HEAVY_ATOM_COUNT>
28

> <PUBCHEM_ATOM_DEF_STEREO_COUNT>
5

> <PUBCHEM_ATOM_UDEF_STEREO_COUNT>
0

> <PUBCHEM_BOND_DEF_STEREO_COUNT>
0

> <PUBCHEM_BOND_UDEF_STEREO_COUNT>
0

> <PUBCHEM_ISOTOPIC_ATOM_COUNT>
0

> <PUBCHEM_COMPONENT_COUNT>
1

> <PUBCHEM_CACTVS_TAUTO_COUNT>
1

> <PUBCHEM_COORDINATE_TYPE>
1
5
255

> <PUBCHEM_BONDANNOTATIONS>
12  1  6
16  18  8
16  19  8
18  20  8
19  21  8
20  23  8
21  23  8
5  15  5
6  29  6
7  30  5
8  31  6

$$$$

