636537
  -OEChem-07051212592D

 37 39  0     0  0  0  0  0  0999 V2000
    4.4487    1.5000    0.0000 O   0  0  0  0  0  0  0  0  0  0  0  0
   11.4571    0.3047    0.0000 O   0  0  0  0  0  0  0  0  0  0  0  0
   11.4571   -1.3047    0.0000 O   0  0  0  0  0  0  0  0  0  0  0  0
    3.5827    0.0000    0.0000 N   0  0  0  0  0  0  0  0  0  0  0  0
    2.0000   -0.3364    0.0000 C   0  0  0  0  0  0  0  0  0  0  0  0
    2.5000   -1.2024    0.0000 C   0  0  0  0  0  0  0  0  0  0  0  0
    2.6691    0.4067    0.0000 C   0  0  0  0  0  0  0  0  0  0  0  0
    3.4782   -0.9945    0.0000 C   0  0  0  0  0  0  0  0  0  0  0  0
    4.4487    0.5000    0.0000 C   0  0  0  0  0  0  0  0  0  0  0  0
    5.3147    0.0000    0.0000 C   0  0  0  0  0  0  0  0  0  0  0  0
    6.1808    0.5000    0.0000 C   0  0  0  0  0  0  0  0  0  0  0  0
   10.5109    0.0000    0.0000 C   0  0  0  0  0  0  0  0  0  0  0  0
    8.7788    0.0000    0.0000 C   0  0  0  0  0  0  0  0  0  0  0  0
   10.5109   -1.0000    0.0000 C   0  0  0  0  0  0  0  0  0  0  0  0
    9.6448    0.5000    0.0000 C   0  0  0  0  0  0  0  0  0  0  0  0
    8.7788   -1.0000    0.0000 C   0  0  0  0  0  0  0  0  0  0  0  0
    9.6448   -1.5000    0.0000 C   0  0  0  0  0  0  0  0  0  0  0  0
    7.0468    0.0000    0.0000 C   0  0  0  0  0  0  0  0  0  0  0  0
    7.9128    0.5000    0.0000 C   0  0  0  0  0  0  0  0  0  0  0  0
   12.0407   -0.5000    0.0000 C   0  0  0  0  0  0  0  0  0  0  0  0
    1.9336   -1.4546    0.0000 H   0  0  0  0  0  0  0  0  0  0  0  0
    2.6916   -1.7921    0.0000 H   0  0  0  0  0  0  0  0  0  0  0  0
    1.5851    0.1243    0.0000 H   0  0  0  0  0  0  0  0  0  0  0  0
    1.4984   -0.7008    0.0000 H   0  0  0  0  0  0  0  0  0  0  0  0
    3.5430   -1.6111    0.0000 H   0  0  0  0  0  0  0  0  0  0  0  0
    4.0982   -0.9945    0.0000 H   0  0  0  0  0  0  0  0  0  0  0  0
    2.9791    0.9437    0.0000 H   0  0  0  0  0  0  0  0  0  0  0  0
    2.1675    0.7712    0.0000 H   0  0  0  0  0  0  0  0  0  0  0  0
    5.3147   -0.6200    0.0000 H   0  0  0  0  0  0  0  0  0  0  0  0
    6.1808    1.1200    0.0000 H   0  0  0  0  0  0  0  0  0  0  0  0
    9.6448    1.1200    0.0000 H   0  0  0  0  0  0  0  0  0  0  0  0
    9.6448   -2.1200    0.0000 H   0  0  0  0  0  0  0  0  0  0  0  0
    8.2419   -1.3100    0.0000 H   0  0  0  0  0  0  0  0  0  0  0  0
    7.9128    1.1200    0.0000 H   0  0  0  0  0  0  0  0  0  0  0  0
    7.0468   -0.6200    0.0000 H   0  0  0  0  0  0  0  0  0  0  0  0
   12.5016   -0.9147    0.0000 H   0  0  0  0  0  0  0  0  0  0  0  0
   12.5016   -0.0853    0.0000 H   0  0  0  0  0  0  0  0  0  0  0  0
  1  9  2  0  0  0  0
  2 12  1  0  0  0  0
  2 20  1  0  0  0  0
  3 14  1  0  0  0  0
  3 20  1  0  0  0  0
  4  7  1  0  0  0  0
  4  8  1  0  0  0  0
  4  9  1  0  0  0  0
  5  6  1  0  0  0  0
  5  7  1  0  0  0  0
  5 23  1  0  0  0  0
  5 24  1  0  0  0  0
  6  8  1  0  0  0  0
  6 21  1  0  0  0  0
  6 22  1  0  0  0  0
  7 27  1  0  0  0  0
  7 28  1  0  0  0  0
  8 25  1  0  0  0  0
  8 26  1  0  0  0  0
  9 10  1  0  0  0  0
 10 11  2  0  0  0  0
 10 29  1  0  0  0  0
 11 18  1  0  0  0  0
 11 30  1  0  0  0  0
 12 14  2  0  0  0  0
 12 15  1  0  0  0  0
 13 15  2  0  0  0  0
 13 16  1  0  0  0  0
 13 19  1  0  0  0  0
 14 17  1  0  0  0  0
 15 31  1  0  0  0  0
 16 17  2  0  0  0  0
 16 33  1  0  0  0  0
 17 32  1  0  0  0  0
 18 19  2  0  0  0  0
 18 35  1  0  0  0  0
 19 34  1  0  0  0  0
 20 36  1  0  0  0  0
 20 37  1  0  0  0  0
M  END
> <PUBCHEM_COMPOUND_CID>
636537

> <PUBCHEM_COMPOUND_CANONICALIZED>
1

> <PUBCHEM_CACTVS_COMPLEXITY>
399

> <PUBCHEM_CACTVS_HBOND_ACCEPTOR>
3

> <PUBCHEM_CACTVS_HBOND_DONOR>
0

> <PUBCHEM_CACTVS_ROTATABLE_BOND>
3

> <PUBCHEM_CACTVS_SUBSKEYS>
AAADceB6MAAAAAAAAAAAAAAAAAAAAWJAAAAwAAAAAAAAAEgBAAAAHgAAAAAADATBmAcwDoMABACIAiFSEACCCAAgIAAIiAAOiMgdJiKEsRqkMCIkxhGOqYeAwBAOIAABAAAAQABAAAIAAACAAAAAAAAAAA==

> <PUBCHEM_IUPAC_OPENEYE_NAME>
(2E,4E)-5-(1,3-benzodioxol-5-yl)-1-pyrrolidin-1-yl-penta-2,4-dien-1-one

> <PUBCHEM_IUPAC_CAS_NAME>
(2E,4E)-5-(1,3-benzodioxol-5-yl)-1-(1-pyrrolidinyl)-1-penta-2,4-dienone

> <PUBCHEM_IUPAC_NAME>
(2E,4E)-5-(1,3-benzodioxol-5-yl)-1-pyrrolidin-1-ylpenta-2,4-dien-1-one

> <PUBCHEM_IUPAC_SYSTEMATIC_NAME>
(2E,4E)-5-(1,3-benzodioxol-5-yl)-1-pyrrolidin-1-yl-penta-2,4-dien-1-one

> <PUBCHEM_IUPAC_TRADITIONAL_NAME>
(2E,4E)-5-(1,3-benzodioxol-5-yl)-1-pyrrolidino-penta-2,4-dien-1-one

> <PUBCHEM_IUPAC_INCHI>
InChI=1S/C16H17NO3/c18-16(17-9-3-4-10-17)6-2-1-5-13-7-8-14-15(11-13)20-12-19-14/h1-2,5-8,11H,3-4,9-10,12H2/b5-1+,6-2+

> <PUBCHEM_IUPAC_INCHIKEY>
GQIJYUMTOUBHSH-IJIVKGSJSA-N

> <PUBCHEM_XLOGP3>
3.1

> <PUBCHEM_EXACT_MASS>
271.120843

> <PUBCHEM_MOLECULAR_FORMULA>
C16H17NO3

> <PUBCHEM_MOLECULAR_WEIGHT>
271.31108

> <PUBCHEM_OPENEYE_CAN_SMILES>
C1CCN(C1)C(=O)C=CC=CC2=CC3=C(C=C2)OCO3

> <PUBCHEM_OPENEYE_ISO_SMILES>
C1CCN(C1)C(=O)/C=C/C=C/C2=CC3=C(C=C2)OCO3

> <PUBCHEM_CACTVS_TPSA>
38.8

> <PUBCHEM_MONOISOTOPIC_WEIGHT>
271.120843

> <PUBCHEM_TOTAL_CHARGE>
0

> <PUBCHEM_HEAVY_ATOM_COUNT>
20

> <PUBCHEM_ATOM_DEF_STEREO_COUNT>
0

> <PUBCHEM_ATOM_UDEF_STEREO_COUNT>
0

> <PUBCHEM_BOND_DEF_STEREO_COUNT>
2

> <PUBCHEM_BOND_UDEF_STEREO_COUNT>
0

> <PUBCHEM_ISOTOPIC_ATOM_COUNT>
0

> <PUBCHEM_COMPONENT_COUNT>
1

> <PUBCHEM_CACTVS_TAUTO_COUNT>
1

> <PUBCHEM_COORDINATE_TYPE>
1
5
255

> <PUBCHEM_BONDANNOTATIONS>
12  14  8
12  15  8
13  15  8
13  16  8
14  17  8
16  17  8

$$$$

