23666112
  -OEChem-07051212542D

 35 35  0     1  0  0  0  0  0999 V2000
    2.5369    1.0000    0.0000 I   0  0  0  0  0  0  0  0  0  0  0  0
    6.0010    1.0000    0.0000 I   0  0  0  0  0  0  0  0  0  0  0  0
    6.0010    5.0000    0.0000 I   0  0  0  0  0  0  0  0  0  0  0  0
    7.7331    2.0000    0.0000 I   0  0  0  0  0  0  0  0  0  0  0  0
    2.5369   -5.0000    0.0000 Na  0  3  0  0  0  0  0  0  0  0  0  0
    4.2690    2.0000    0.0000 O   0  0  0  0  0  0  0  0  0  0  0  0
    2.5369   -4.0000    0.0000 O   0  5  0  0  0  0  0  0  0  0  0  0
    4.2690   -4.0000    0.0000 O   0  0  0  0  0  0  0  0  0  0  0  0
    7.7331    4.0000    0.0000 O   0  0  0  0  0  0  0  0  0  0  0  0
    2.5369   -2.0000    0.0000 N   0  0  0  0  0  0  0  0  0  0  0  0
    4.2690   -2.0000    0.0000 C   0  0  0  0  0  0  0  0  0  0  0  0
    3.4030   -2.5000    0.0000 C   0  0  1  0  0  0  0  0  0  0  0  0
    4.2690   -1.0000    0.0000 C   0  0  0  0  0  0  0  0  0  0  0  0
    5.1350   -0.5000    0.0000 C   0  0  0  0  0  0  0  0  0  0  0  0
    3.4030   -0.5000    0.0000 C   0  0  0  0  0  0  0  0  0  0  0  0
    4.2690    1.0000    0.0000 C   0  0  0  0  0  0  0  0  0  0  0  0
    3.4030    0.5000    0.0000 C   0  0  0  0  0  0  0  0  0  0  0  0
    5.1350    0.5000    0.0000 C   0  0  0  0  0  0  0  0  0  0  0  0
    3.4030   -3.5000    0.0000 C   0  0  0  0  0  0  0  0  0  0  0  0
    5.1350    2.5000    0.0000 C   0  0  0  0  0  0  0  0  0  0  0  0
    6.0010    2.0000    0.0000 C   0  0  0  0  0  0  0  0  0  0  0  0
    5.1350    3.5000    0.0000 C   0  0  0  0  0  0  0  0  0  0  0  0
    6.0010    4.0000    0.0000 C   0  0  0  0  0  0  0  0  0  0  0  0
    6.8671    2.5000    0.0000 C   0  0  0  0  0  0  0  0  0  0  0  0
    6.8671    3.5000    0.0000 C   0  0  0  0  0  0  0  0  0  0  0  0
    4.4810   -2.5826    0.0000 H   0  0  0  0  0  0  0  0  0  0  0  0
    4.8796   -1.8923    0.0000 H   0  0  0  0  0  0  0  0  0  0  0  0
    3.4030   -1.8800    0.0000 H   0  0  0  0  0  0  0  0  0  0  0  0
    5.6720   -0.8100    0.0000 H   0  0  0  0  0  0  0  0  0  0  0  0
    2.8660   -0.8100    0.0000 H   0  0  0  0  0  0  0  0  0  0  0  0
    2.0000   -2.3100    0.0000 H   0  0  0  0  0  0  0  0  0  0  0  0
    2.5369   -1.3800    0.0000 H   0  0  0  0  0  0  0  0  0  0  0  0
    6.0010    1.3800    0.0000 H   0  0  0  0  0  0  0  0  0  0  0  0
    4.5981    3.8100    0.0000 H   0  0  0  0  0  0  0  0  0  0  0  0
    7.7331    4.6200    0.0000 H   0  0  0  0  0  0  0  0  0  0  0  0
  1 17  1  0  0  0  0
  2 18  1  0  0  0  0
  3 23  1  0  0  0  0
  4 24  1  0  0  0  0
  6 16  1  0  0  0  0
  6 20  1  0  0  0  0
  7 19  1  0  0  0  0
  8 19  2  0  0  0  0
  9 25  1  0  0  0  0
  9 35  1  0  0  0  0
 12 10  1  1  0  0  0
 10 31  1  0  0  0  0
 10 32  1  0  0  0  0
 11 12  1  0  0  0  0
 11 13  1  0  0  0  0
 11 26  1  0  0  0  0
 11 27  1  0  0  0  0
 12 19  1  0  0  0  0
 12 28  1  0  0  0  0
 13 14  2  0  0  0  0
 13 15  1  0  0  0  0
 14 18  1  0  0  0  0
 14 29  1  0  0  0  0
 15 17  2  0  0  0  0
 15 30  1  0  0  0  0
 16 17  1  0  0  0  0
 16 18  2  0  0  0  0
 20 21  2  0  0  0  0
 20 22  1  0  0  0  0
 21 24  1  0  0  0  0
 21 33  1  0  0  0  0
 22 23  2  0  0  0  0
 22 34  1  0  0  0  0
 23 25  1  0  0  0  0
 24 25  2  0  0  0  0
M  CHG  2   5   1   7  -1
M  END
> <PUBCHEM_COMPOUND_CID>
23666112

> <PUBCHEM_COMPOUND_CANONICALIZED>
1

> <PUBCHEM_CACTVS_COMPLEXITY>
426

> <PUBCHEM_CACTVS_HBOND_ACCEPTOR>
5

> <PUBCHEM_CACTVS_HBOND_DONOR>
2

> <PUBCHEM_CACTVS_ROTATABLE_BOND>
5

> <PUBCHEM_CACTVS_SUBSKEYS>
AAADccByOCAAA4AAAAAAAAAAAAAAAAAAAAAwYAAAAAAAAAABQAAAHgAwCAAADCzDmAQwDoBABgCIAiDSCAACCAAgIAAAiIGGCIgOJjKGsRuCeCCk0BEIuAfYyKCOIQAAAAAAAABCAAAAAAAAAAAAAAAAAA==

> <PUBCHEM_IUPAC_OPENEYE_NAME>
sodium (2S)-2-amino-3-[4-(4-hydroxy-3,5-diiodo-phenoxy)-3,5-diiodo-phenyl]propanoate

> <PUBCHEM_IUPAC_CAS_NAME>
sodium (2S)-2-amino-3-[4-(4-hydroxy-3,5-diiodophenoxy)-3,5-diiodophenyl]propanoate

> <PUBCHEM_IUPAC_NAME>
sodium (2S)-2-amino-3-[4-(4-hydroxy-3,5-diiodophenoxy)-3,5-diiodophenyl]propanoate

> <PUBCHEM_IUPAC_SYSTEMATIC_NAME>
sodium (2S)-2-azanyl-3-[4-[3,5-bis(iodanyl)-4-oxidanyl-phenoxy]-3,5-bis(iodanyl)phenyl]propanoate

> <PUBCHEM_IUPAC_TRADITIONAL_NAME>
sodium (2S)-2-amino-3-[4-(4-hydroxy-3,5-diiodo-phenoxy)-3,5-diiodo-phenyl]propionate

> <PUBCHEM_IUPAC_INCHI>
InChI=1S/C15H11I4NO4.Na/c16-8-4-7(5-9(17)13(8)21)24-14-10(18)1-6(2-11(14)19)3-12(20)15(22)23;/h1-2,4-5,12,21H,3,20H2,(H,22,23);/q;+1/p-1/t12-;/m0./s1

> <PUBCHEM_IUPAC_INCHIKEY>
YDTFRJLNMPSCFM-YDALLXLXSA-M

> <PUBCHEM_EXACT_MASS>
798.668644

> <PUBCHEM_MOLECULAR_FORMULA>
C15H10I4NNaO4

> <PUBCHEM_MOLECULAR_WEIGHT>
798.851849

> <PUBCHEM_OPENEYE_CAN_SMILES>
C1=C(C=C(C(=C1I)OC2=CC(=C(C(=C2)I)O)I)I)CC(C(=O)[O-])N.[Na+]

> <PUBCHEM_OPENEYE_ISO_SMILES>
C1=C(C=C(C(=C1I)OC2=CC(=C(C(=C2)I)O)I)I)C[C@@H](C(=O)[O-])N.[Na+]

> <PUBCHEM_CACTVS_TPSA>
95.6

> <PUBCHEM_MONOISOTOPIC_WEIGHT>
798.668644

> <PUBCHEM_TOTAL_CHARGE>
0

> <PUBCHEM_HEAVY_ATOM_COUNT>
25

> <PUBCHEM_ATOM_DEF_STEREO_COUNT>
1

> <PUBCHEM_ATOM_UDEF_STEREO_COUNT>
0

> <PUBCHEM_BOND_DEF_STEREO_COUNT>
0

> <PUBCHEM_BOND_UDEF_STEREO_COUNT>
0

> <PUBCHEM_ISOTOPIC_ATOM_COUNT>
0

> <PUBCHEM_COMPONENT_COUNT>
2

> <PUBCHEM_CACTVS_TAUTO_COUNT>
2

> <PUBCHEM_NONSTANDARDBOND>
5  7  7

> <PUBCHEM_COORDINATE_TYPE>
1
5
255

> <PUBCHEM_BONDANNOTATIONS>
12  10  5
13  14  8
13  15  8
14  18  8
15  17  8
16  17  8
16  18  8
20  21  8
20  22  8
21  24  8
22  23  8
23  25  8
24  25  8

$$$$

