174859
  -OEChem-07051212583D

 34 36  0     0  0  0  0  0  0999 V2000
    1.8468   -0.9019   -0.0121 O   0  0  0  0  0  0  0  0  0  0  0  0
   -2.8536    1.9895    0.3208 O   0  0  0  0  0  0  0  0  0  0  0  0
    3.1260   -0.2422   -0.1038 C   0  0  0  0  0  0  0  0  0  0  0  0
    0.6960   -0.1598    0.0635 C   0  0  0  0  0  0  0  0  0  0  0  0
    0.7125    1.2354    0.1656 C   0  0  0  0  0  0  0  0  0  0  0  0
    3.1045    1.2563    0.0612 C   0  0  0  0  0  0  0  0  0  0  0  0
   -0.5289   -0.8722    0.0490 C   0  0  0  0  0  0  0  0  0  0  0  0
    3.9997   -0.8579    0.9957 C   0  0  0  0  0  0  0  0  0  0  0  0
    3.7033   -0.5949   -1.4796 C   0  0  0  0  0  0  0  0  0  0  0  0
    1.9753    1.9543    0.1900 C   0  0  0  0  0  0  0  0  0  0  0  0
   -1.7422   -0.1465    0.1350 C   0  0  0  0  0  0  0  0  0  0  0  0
   -0.4925    1.9357    0.2509 C   0  0  0  0  0  0  0  0  0  0  0  0
   -1.7070    1.2512    0.2346 C   0  0  0  0  0  0  0  0  0  0  0  0
   -0.6012   -2.2792   -0.0489 C   0  0  0  0  0  0  0  0  0  0  0  0
   -2.9690   -0.8311    0.1211 C   0  0  0  0  0  0  0  0  0  0  0  0
   -1.8284   -2.9444   -0.0613 C   0  0  0  0  0  0  0  0  0  0  0  0
   -3.0111   -2.2207    0.0235 C   0  0  0  0  0  0  0  0  0  0  0  0
   -3.4304    2.4285   -0.9053 C   0  0  0  0  0  0  0  0  0  0  0  0
    4.0533    1.7873    0.0660 H   0  0  0  0  0  0  0  0  0  0  0  0
    3.5794   -0.6540    1.9880 H   0  0  0  0  0  0  0  0  0  0  0  0
    4.0401   -1.9492    0.8973 H   0  0  0  0  0  0  0  0  0  0  0  0
    5.0250   -0.4724    0.9706 H   0  0  0  0  0  0  0  0  0  0  0  0
    4.7143   -0.1953   -1.6156 H   0  0  0  0  0  0  0  0  0  0  0  0
    3.7405   -1.6816   -1.6204 H   0  0  0  0  0  0  0  0  0  0  0  0
    3.0676   -0.2026   -2.2825 H   0  0  0  0  0  0  0  0  0  0  0  0
    1.9859    3.0320    0.3017 H   0  0  0  0  0  0  0  0  0  0  0  0
   -0.4928    3.0210    0.3322 H   0  0  0  0  0  0  0  0  0  0  0  0
    0.3044   -2.8788   -0.1175 H   0  0  0  0  0  0  0  0  0  0  0  0
   -3.9156   -0.3000    0.1928 H   0  0  0  0  0  0  0  0  0  0  0  0
   -1.8573   -4.0275   -0.1370 H   0  0  0  0  0  0  0  0  0  0  0  0
   -3.9669   -2.7365    0.0155 H   0  0  0  0  0  0  0  0  0  0  0  0
   -4.3774    2.9264   -0.6794 H   0  0  0  0  0  0  0  0  0  0  0  0
   -3.6307    1.5852   -1.5736 H   0  0  0  0  0  0  0  0  0  0  0  0
   -2.7688    3.1467   -1.4001 H   0  0  0  0  0  0  0  0  0  0  0  0
  1  3  1  0  0  0  0
  1  4  1  0  0  0  0
  2 13  1  0  0  0  0
  2 18  1  0  0  0  0
  3  6  1  0  0  0  0
  3  8  1  0  0  0  0
  3  9  1  0  0  0  0
  4  5  2  0  0  0  0
  4  7  1  0  0  0  0
  5 10  1  0  0  0  0
  5 12  1  0  0  0  0
  6 10  2  0  0  0  0
  6 19  1  0  0  0  0
  7 11  1  0  0  0  0
  7 14  2  0  0  0  0
  8 20  1  0  0  0  0
  8 21  1  0  0  0  0
  8 22  1  0  0  0  0
  9 23  1  0  0  0  0
  9 24  1  0  0  0  0
  9 25  1  0  0  0  0
 10 26  1  0  0  0  0
 11 13  1  0  0  0  0
 11 15  2  0  0  0  0
 12 13  2  0  0  0  0
 12 27  1  0  0  0  0
 14 16  1  0  0  0  0
 14 28  1  0  0  0  0
 15 17  1  0  0  0  0
 15 29  1  0  0  0  0
 16 17  2  0  0  0  0
 16 30  1  0  0  0  0
 17 31  1  0  0  0  0
 18 32  1  0  0  0  0
 18 33  1  0  0  0  0
 18 34  1  0  0  0  0
M  END
> <PUBCHEM_COMPOUND_CID>
174859

> <PUBCHEM_CONFORMER_RMSD>
0.6

> <PUBCHEM_CONFORMER_DIVERSEORDER>
1

> <PUBCHEM_MMFF94_PARTIAL_CHARGES>
21
1 -0.36
10 -0.18
12 -0.15
13 0.08
14 -0.15
15 -0.15
16 -0.15
17 -0.15
18 0.28
19 0.15
2 -0.36
26 0.15
27 0.15
28 0.15
29 0.15
3 0.42
30 0.15
31 0.15
4 0.08
5 0.03
6 -0.29

> <PUBCHEM_EFFECTIVE_ROTOR_COUNT>
1.4

> <PUBCHEM_PHARMACOPHORE_FEATURES>
6
1 1 acceptor
1 2 acceptor
3 3 8 9 hydrophobe
6 1 3 4 5 6 10 rings
6 4 5 7 11 12 13 rings
6 7 11 14 15 16 17 rings

> <PUBCHEM_HEAVY_ATOM_COUNT>
18

> <PUBCHEM_ATOM_DEF_STEREO_COUNT>
0

> <PUBCHEM_ATOM_UDEF_STEREO_COUNT>
0

> <PUBCHEM_BOND_DEF_STEREO_COUNT>
0

> <PUBCHEM_BOND_UDEF_STEREO_COUNT>
0

> <PUBCHEM_ISOTOPIC_ATOM_COUNT>
0

> <PUBCHEM_COMPONENT_COUNT>
1

> <PUBCHEM_CACTVS_TAUTO_COUNT>
1

> <PUBCHEM_CONFORMER_ID>
0002AB0B00000001

> <PUBCHEM_MMFF94_ENERGY>
70.3499

> <PUBCHEM_FEATURE_SELFOVERLAP>
30.5

> <PUBCHEM_SHAPE_FINGERPRINT>
10062212 137 18201729495540242274
10319926 262 18191048814730573322
10608611 8 18335986359213690744
10616163 171 18265046925688460742
10693767 8 17538020438668509423
10756046 5 18268412591179956364
10967382 1 18122062275804474323
11132069 177 18336829800701592656
11578080 2 17558863670158938804
116883 192 18263924345606767215
12553582 1 17905325126403589567
12592029 89 18197210558790132865
12730499 353 17910396414288708461
13140716 1 18408886247698676136
13380535 76 18264494064586714005
13538477 17 18343022237509891048
13583140 156 17203045291792392441
14178342 30 18340504312990705274
14223421 5 18190743025021105728
14790565 3 18265038297405995257
15196674 1 18337671906059162930
15442244 35 18411985749918952978
16752209 62 18411991260135445651
16945 1 18264201581551015808
17357779 13 18192728760559233639
17804303 29 18335693923311297762
18186145 218 18262232334634982800
19591789 44 17688013628268896323
19868273 293 18272083950250831956
20510252 161 18261107444055770833
20645476 183 17988062487514637246
20711985 365 18410857629107758315
20871999 31 18338782469154795630
20905425 154 18119523233115749084
21267235 1 18194109729541167618
21501502 16 18339640040758462472
21524375 3 18057325200473085217
23184049 29 18337674096735174402
2334 1 18337671918986561641
23463225 33 18194119620818818522
23557571 272 18260827069170864864
23558518 356 18272088240828182657
23559900 14 18189048850171417830
238 59 17337913703153539653
25 1 18124318469776340125
2748010 2 18408324362970905809
3084891 72 18192720170076294233
3091708 16 9490479158713566897
335352 9 18266742570139403988
34934 24 17903363601901830946
350125 39 18411412900082050385
352729 6 18336542819471417337
5104073 3 18337389344587576608
559249 180 18199473332483142570
7097593 13 18129113388535290858
7364860 26 17756421556809844376
74978 22 18411138039238820464
81228 2 18197778800095991201
8809292 202 18410567358170180130
9709674 26 18261391113966380902

> <PUBCHEM_SHAPE_MULTIPOLES>
358.69
6.47
3.07
0.85
3.2
0.17
0.17
0.26
0.56
-2.91
0.15
0.52
0.01
0.38

> <PUBCHEM_SHAPE_SELFOVERLAP>
790.826

> <PUBCHEM_SHAPE_VOLUME>
195.4

> <PUBCHEM_COORDINATE_TYPE>
2
5
10

$$$$

