44260117
  -OEChem-07051212493D

 68 73  0     1  0  0  0  0  0999 V2000
    1.5629    1.6711   -0.6280 O   0  0  0  0  0  0  0  0  0  0  0  0
    6.4542    1.2054   -1.1282 O   0  0  0  0  0  0  0  0  0  0  0  0
   -2.1217   -0.4872    0.3927 O   0  0  0  0  0  0  0  0  0  0  0  0
    0.3809    1.7339   -2.6036 O   0  0  0  0  0  0  0  0  0  0  0  0
    2.1480   -3.4509   -1.2475 O   0  0  0  0  0  0  0  0  0  0  0  0
    2.1351   -3.0778    1.0013 O   0  0  0  0  0  0  0  0  0  0  0  0
   -4.0173    0.8731    0.3722 O   0  0  0  0  0  0  0  0  0  0  0  0
   -3.7472   -2.7239   -0.2100 O   0  0  0  0  0  0  0  0  0  0  0  0
   -6.5076   -2.3698    0.7571 O   0  0  0  0  0  0  0  0  0  0  0  0
   -7.5748    0.1647   -0.1331 O   0  0  0  0  0  0  0  0  0  0  0  0
   -4.8813    3.4281   -0.1575 O   0  0  0  0  0  0  0  0  0  0  0  0
    3.4490   -0.4800    0.0490 C   0  0  1  0  0  0  0  0  0  0  0  0
    2.8651    0.4948    1.1229 C   0  0  2  0  0  0  0  0  0  0  0  0
    0.9771   -0.4875    0.0474 C   0  0  2  0  0  0  0  0  0  0  0  0
    1.4922    0.8609    0.5596 C   0  0  2  0  0  0  0  0  0  0  0  0
    2.2153   -1.2125   -0.5355 C   0  0  2  0  0  0  0  0  0  0  0  0
    4.2264    0.2574   -1.0569 C   0  0  0  0  0  0  0  0  0  0  0  0
   -0.1092    0.0327   -0.8979 C   0  0  1  0  0  0  0  0  0  0  0  0
    5.3981    0.8246   -0.2673 C   0  0  2  0  0  0  0  0  0  0  0  0
    4.5956   -1.3204    0.6542 C   0  0  0  0  0  0  0  0  0  0  0  0
    3.7741    1.6688    1.5255 C   0  0  0  0  0  0  0  0  0  0  0  0
    4.8904    2.0247    0.5400 C   0  0  0  0  0  0  0  0  0  0  0  0
    5.7659   -0.3613    0.6001 C   0  0  0  0  0  0  0  0  0  0  0  0
    0.4786    1.4973    1.4744 C   0  0  0  0  0  0  0  0  0  0  0  0
   -1.2929    0.5913   -0.0380 C   0  0  2  0  0  0  0  0  0  0  0  0
    0.6107    1.2238   -1.5193 C   0  0  0  0  0  0  0  0  0  0  0  0
    2.1614   -2.6599   -0.1468 C   0  0  0  0  0  0  0  0  0  0  0  0
   -0.5613   -0.9774   -1.9445 C   0  0  0  0  0  0  0  0  0  0  0  0
   -0.8284    1.3584    1.1889 C   0  0  0  0  0  0  0  0  0  0  0  0
    6.9352   -0.5584    1.2194 C   0  0  0  0  0  0  0  0  0  0  0  0
   -3.4538   -0.3483   -0.1003 C   0  0  2  0  0  0  0  0  0  0  0  0
   -4.2674   -1.5424    0.3989 C   0  0  1  0  0  0  0  0  0  0  0  0
   -5.7465   -1.3961    0.0410 C   0  0  2  0  0  0  0  0  0  0  0  0
   -5.3461    1.0854   -0.1077 C   0  0  1  0  0  0  0  0  0  0  0  0
   -6.2733   -0.0119    0.4201 C   0  0  1  0  0  0  0  0  0  0  0  0
   -5.7873    2.4695    0.3574 C   0  0  0  0  0  0  0  0  0  0  0  0
    2.6779   -0.0820    2.0427 H   0  0  0  0  0  0  0  0  0  0  0  0
    0.5365   -1.0922    0.8527 H   0  0  0  0  0  0  0  0  0  0  0  0
    2.2275   -1.1440   -1.6291 H   0  0  0  0  0  0  0  0  0  0  0  0
    3.6636    1.0371   -1.5767 H   0  0  0  0  0  0  0  0  0  0  0  0
    4.5710   -0.4347   -1.8390 H   0  0  0  0  0  0  0  0  0  0  0  0
    4.8207   -2.1931    0.0298 H   0  0  0  0  0  0  0  0  0  0  0  0
    4.3846   -1.6497    1.6764 H   0  0  0  0  0  0  0  0  0  0  0  0
    4.2612    1.3898    2.4705 H   0  0  0  0  0  0  0  0  0  0  0  0
    3.1893    2.5651    1.7611 H   0  0  0  0  0  0  0  0  0  0  0  0
    4.5235    2.7936   -0.1535 H   0  0  0  0  0  0  0  0  0  0  0  0
    5.7199    2.5022    1.0775 H   0  0  0  0  0  0  0  0  0  0  0  0
    0.7990    2.0787    2.3313 H   0  0  0  0  0  0  0  0  0  0  0  0
   -1.8506    1.3019   -0.6651 H   0  0  0  0  0  0  0  0  0  0  0  0
   -0.8922   -1.9132   -1.4824 H   0  0  0  0  0  0  0  0  0  0  0  0
    0.2369   -1.2170   -2.6546 H   0  0  0  0  0  0  0  0  0  0  0  0
   -1.3906   -0.5778   -2.5385 H   0  0  0  0  0  0  0  0  0  0  0  0
   -1.5754    1.8183    1.8278 H   0  0  0  0  0  0  0  0  0  0  0  0
    6.1124    1.8788   -1.7409 H   0  0  0  0  0  0  0  0  0  0  0  0
    7.7399    0.1646    1.1433 H   0  0  0  0  0  0  0  0  0  0  0  0
    7.1069   -1.4467    1.8175 H   0  0  0  0  0  0  0  0  0  0  0  0
    2.1139   -4.4029   -1.0138 H   0  0  0  0  0  0  0  0  0  0  0  0
   -3.4182   -0.3428   -1.1980 H   0  0  0  0  0  0  0  0  0  0  0  0
   -4.1443   -1.6643    1.4815 H   0  0  0  0  0  0  0  0  0  0  0  0
   -5.9140   -1.6001   -1.0231 H   0  0  0  0  0  0  0  0  0  0  0  0
   -5.3231    1.0881   -1.2061 H   0  0  0  0  0  0  0  0  0  0  0  0
   -6.3689    0.0601    1.5105 H   0  0  0  0  0  0  0  0  0  0  0  0
   -3.8384   -2.6318   -1.1737 H   0  0  0  0  0  0  0  0  0  0  0  0
   -5.7619    2.5402    1.4501 H   0  0  0  0  0  0  0  0  0  0  0  0
   -6.7937    2.7110    0.0024 H   0  0  0  0  0  0  0  0  0  0  0  0
   -6.3650   -2.2256    1.7081 H   0  0  0  0  0  0  0  0  0  0  0  0
   -7.4988    0.1162   -1.1014 H   0  0  0  0  0  0  0  0  0  0  0  0
   -5.1778    4.3000    0.1545 H   0  0  0  0  0  0  0  0  0  0  0  0
  1 15  1  0  0  0  0
  1 26  1  0  0  0  0
  2 19  1  0  0  0  0
  2 54  1  0  0  0  0
  3 25  1  0  0  0  0
  3 31  1  0  0  0  0
  4 26  2  0  0  0  0
  5 27  1  0  0  0  0
  5 57  1  0  0  0  0
  6 27  2  0  0  0  0
  7 31  1  0  0  0  0
  7 34  1  0  0  0  0
  8 32  1  0  0  0  0
  8 63  1  0  0  0  0
  9 33  1  0  0  0  0
  9 66  1  0  0  0  0
 10 35  1  0  0  0  0
 10 67  1  0  0  0  0
 11 36  1  0  0  0  0
 11 68  1  0  0  0  0
 12 13  1  0  0  0  0
 12 16  1  0  0  0  0
 12 17  1  0  0  0  0
 12 20  1  0  0  0  0
 13 15  1  0  0  0  0
 13 21  1  0  0  0  0
 13 37  1  0  0  0  0
 14 15  1  0  0  0  0
 14 16  1  0  0  0  0
 14 18  1  0  0  0  0
 14 38  1  0  0  0  0
 15 24  1  0  0  0  0
 16 27  1  0  0  0  0
 16 39  1  0  0  0  0
 17 19  1  0  0  0  0
 17 40  1  0  0  0  0
 17 41  1  0  0  0  0
 18 25  1  0  0  0  0
 18 26  1  0  0  0  0
 18 28  1  0  0  0  0
 19 22  1  0  0  0  0
 19 23  1  0  0  0  0
 20 23  1  0  0  0  0
 20 42  1  0  0  0  0
 20 43  1  0  0  0  0
 21 22  1  0  0  0  0
 21 44  1  0  0  0  0
 21 45  1  0  0  0  0
 22 46  1  0  0  0  0
 22 47  1  0  0  0  0
 23 30  2  0  0  0  0
 24 29  2  0  0  0  0
 24 48  1  0  0  0  0
 25 29  1  0  0  0  0
 25 49  1  0  0  0  0
 28 50  1  0  0  0  0
 28 51  1  0  0  0  0
 28 52  1  0  0  0  0
 29 53  1  0  0  0  0
 30 55  1  0  0  0  0
 30 56  1  0  0  0  0
 31 32  1  0  0  0  0
 31 58  1  0  0  0  0
 32 33  1  0  0  0  0
 32 59  1  0  0  0  0
 33 35  1  0  0  0  0
 33 60  1  0  0  0  0
 34 35  1  0  0  0  0
 34 36  1  0  0  0  0
 34 61  1  0  0  0  0
 35 62  1  0  0  0  0
 36 64  1  0  0  0  0
 36 65  1  0  0  0  0
M  END
> <PUBCHEM_COMPOUND_CID>
44260117

> <PUBCHEM_CONFORMER_RMSD>
1

> <PUBCHEM_CONFORMER_DIVERSEORDER>
1
9
5
6
10
8
2
7
3
11
4

> <PUBCHEM_MMFF94_PARTIAL_CHARGES>
39
1 -0.43
10 -0.68
11 -0.68
15 0.42
16 0.06
18 0.06
19 0.42
2 -0.68
20 0.14
23 -0.28
24 -0.29
25 0.42
26 0.66
27 0.66
29 -0.29
3 -0.56
30 -0.3
31 0.56
32 0.28
33 0.28
34 0.28
35 0.28
36 0.28
4 -0.57
48 0.15
5 -0.65
53 0.15
54 0.4
55 0.15
56 0.15
57 0.5
6 -0.57
63 0.4
66 0.4
67 0.4
68 0.4
7 -0.56
8 -0.68
9 -0.68

> <PUBCHEM_EFFECTIVE_ROTOR_COUNT>
6.6

> <PUBCHEM_PHARMACOPHORE_FEATURES>
20
1 10 acceptor
1 10 donor
1 11 acceptor
1 11 donor
1 2 acceptor
1 2 donor
1 3 acceptor
1 4 acceptor
1 5 acceptor
1 6 acceptor
1 7 acceptor
1 8 acceptor
1 8 donor
1 9 acceptor
1 9 donor
3 5 6 27 anion
5 12 13 14 15 16 rings
6 7 31 32 33 34 35 rings
8 1 14 15 18 24 25 26 29 rings
8 12 13 17 19 20 21 22 23 rings

> <PUBCHEM_HEAVY_ATOM_COUNT>
36

> <PUBCHEM_ATOM_DEF_STEREO_COUNT>
12

> <PUBCHEM_ATOM_UDEF_STEREO_COUNT>
1

> <PUBCHEM_BOND_DEF_STEREO_COUNT>
0

> <PUBCHEM_BOND_UDEF_STEREO_COUNT>
0

> <PUBCHEM_ISOTOPIC_ATOM_COUNT>
0

> <PUBCHEM_COMPONENT_COUNT>
1

> <PUBCHEM_CACTVS_TAUTO_COUNT>
1

> <PUBCHEM_CONFORMER_ID>
02A35B1500000001

> <PUBCHEM_MMFF94_ENERGY>
131.758

> <PUBCHEM_FEATURE_SELFOVERLAP>
101.79

> <PUBCHEM_SHAPE_FINGERPRINT>
10 15 17749118764419637336
10076449 9 15502918785235976308
10165383 225 18340765958715664484
10906281 52 17703208677328222676
11578080 2 18127409179666163716
11719270 70 18261115196894226554
11963148 33 18411426085368775490
12107183 9 17835804471380054339
12128747 34 18262800791253182533
12166972 35 18341890745524799081
12236239 1 18272087192866789776
12516196 113 17894630340151225985
12788726 201 17241325918710574481
13583140 156 18040722450561142541
13782708 43 18272938258185776106
14118638 360 18410855495437362241
14790565 3 18263645057074358740
14856354 85 18272083873310666471
15021287 119 17632289074036796133
15183329 4 18410012148227712137
1813 80 17131830993086663655
18608769 82 18339638941969872475
20511986 3 18411428336178350139
21033648 29 17894927212738966129
21421861 104 17773043170534792602
21781051 124 18337097996267762614
22956985 138 17983305004504237362
23522609 53 17773854528359167204
23559900 14 18043812206588677703
23569914 152 15943991434286592725
23569943 247 16772409506467894298
25222932 49 17822297825684176543
3178227 256 18041274374832355746
32027 91 17905325487619251367
392239 28 18114458972758100018
4073 2 18201715128895820795
4340502 62 18408041814568810822
6086070 43 17096391508773385753

> <PUBCHEM_SHAPE_MULTIPOLES>
676.3
16.99
2.94
1.42
14.66
1.05
-0.55
-1.07
3.31
1.58
0.02
-1.05
-0.3
0.24

> <PUBCHEM_SHAPE_SELFOVERLAP>
1498.825

> <PUBCHEM_SHAPE_VOLUME>
360.8

> <PUBCHEM_COORDINATE_TYPE>
2
5
10

$$$$

