11954112
  -OEChem-07051213063D

 54 57  0     1  0  0  0  0  0999 V2000
   -3.2176   -1.4127   -0.4401 O   0  0  0  0  0  0  0  0  0  0  0  0
    6.6063    0.6544   -0.3932 O   0  0  0  0  0  0  0  0  0  0  0  0
   -5.3115   -0.7580   -0.9346 O   0  0  0  0  0  0  0  0  0  0  0  0
   -6.1420    1.5373   -0.2684 O   0  0  0  0  0  0  0  0  0  0  0  0
    2.4835   -0.3802    0.1985 C   0  0  2  0  0  0  0  0  0  0  0  0
    0.9831   -0.6167   -0.2195 C   0  0  2  0  0  0  0  0  0  0  0  0
    0.0191    0.4615    0.3680 C   0  0  2  0  0  0  0  0  0  0  0  0
    2.8716    1.0639   -0.2486 C   0  0  1  0  0  0  0  0  0  0  0  0
   -1.4324    0.2156   -0.1312 C   0  0  1  0  0  0  0  0  0  0  0  0
    0.5043    1.8816    0.0223 C   0  0  0  0  0  0  0  0  0  0  0  0
    0.4681   -2.0386    0.0845 C   0  0  0  0  0  0  0  0  0  0  0  0
   -1.9373   -1.1968    0.2159 C   0  0  2  0  0  0  0  0  0  0  0  0
    1.9674    2.1241    0.3823 C   0  0  0  0  0  0  0  0  0  0  0  0
    3.4233   -1.3718   -0.5469 C   0  0  0  0  0  0  0  0  0  0  0  0
   -0.9735   -2.2354   -0.3777 C   0  0  0  0  0  0  0  0  0  0  0  0
    4.3537    1.3856   -0.0188 C   0  0  0  0  0  0  0  0  0  0  0  0
    2.6691   -0.5868    1.7240 C   0  0  0  0  0  0  0  0  0  0  0  0
    4.9104   -1.0604   -0.3649 C   0  0  0  0  0  0  0  0  0  0  0  0
    5.2517    0.3796   -0.7352 C   0  0  2  0  0  0  0  0  0  0  0  0
   -2.4475    1.2451    0.3717 C   0  0  0  0  0  0  0  0  0  0  0  0
   -2.1453   -1.4669    1.7174 C   0  0  0  0  0  0  0  0  0  0  0  0
   -3.8548    0.8766    0.0043 C   0  0  0  0  0  0  0  0  0  0  0  0
   -4.2041   -0.4802   -0.4853 C   0  0  0  0  0  0  0  0  0  0  0  0
   -4.8457    1.7791    0.0756 C   0  0  0  0  0  0  0  0  0  0  0  0
    0.9432   -0.5073   -1.3148 H   0  0  0  0  0  0  0  0  0  0  0  0
    0.0165    0.3791    1.4612 H   0  0  0  0  0  0  0  0  0  0  0  0
    2.7125    1.1250   -1.3368 H   0  0  0  0  0  0  0  0  0  0  0  0
   -1.4229    0.3049   -1.2294 H   0  0  0  0  0  0  0  0  0  0  0  0
   -0.0990    2.6281    0.5508 H   0  0  0  0  0  0  0  0  0  0  0  0
    0.3659    2.0645   -1.0510 H   0  0  0  0  0  0  0  0  0  0  0  0
    0.5362   -2.2549    1.1553 H   0  0  0  0  0  0  0  0  0  0  0  0
    1.0858   -2.7844   -0.4267 H   0  0  0  0  0  0  0  0  0  0  0  0
    2.2554    3.1201    0.0236 H   0  0  0  0  0  0  0  0  0  0  0  0
    2.0872    2.1432    1.4714 H   0  0  0  0  0  0  0  0  0  0  0  0
    3.1938   -1.3546   -1.6206 H   0  0  0  0  0  0  0  0  0  0  0  0
    3.2497   -2.3995   -0.2078 H   0  0  0  0  0  0  0  0  0  0  0  0
   -1.0126   -2.1849   -1.4746 H   0  0  0  0  0  0  0  0  0  0  0  0
   -1.3081   -3.2506   -0.1282 H   0  0  0  0  0  0  0  0  0  0  0  0
    4.5804    2.3925   -0.3935 H   0  0  0  0  0  0  0  0  0  0  0  0
    4.5952    1.4206    1.0503 H   0  0  0  0  0  0  0  0  0  0  0  0
    3.6776   -0.3299    2.0599 H   0  0  0  0  0  0  0  0  0  0  0  0
    1.9797    0.0179    2.3184 H   0  0  0  0  0  0  0  0  0  0  0  0
    2.5085   -1.6332    2.0045 H   0  0  0  0  0  0  0  0  0  0  0  0
    5.2223   -1.2650    0.6665 H   0  0  0  0  0  0  0  0  0  0  0  0
    5.5075   -1.7439   -0.9817 H   0  0  0  0  0  0  0  0  0  0  0  0
    5.1525    0.5036   -1.8204 H   0  0  0  0  0  0  0  0  0  0  0  0
   -2.2175    2.2268   -0.0598 H   0  0  0  0  0  0  0  0  0  0  0  0
   -2.3732    1.3496    1.4612 H   0  0  0  0  0  0  0  0  0  0  0  0
   -1.2374   -1.3118    2.3059 H   0  0  0  0  0  0  0  0  0  0  0  0
   -2.9354   -0.8399    2.1425 H   0  0  0  0  0  0  0  0  0  0  0  0
   -2.4771   -2.5003    1.8743 H   0  0  0  0  0  0  0  0  0  0  0  0
    6.7984    1.5685   -0.6638 H   0  0  0  0  0  0  0  0  0  0  0  0
   -4.7140    2.8021    0.3979 H   0  0  0  0  0  0  0  0  0  0  0  0
   -6.2735    0.6059   -0.4971 H   0  0  0  0  0  0  0  0  0  0  0  0
  1 12  1  0  0  0  0
  1 23  1  0  0  0  0
  2 19  1  0  0  0  0
  2 52  1  0  0  0  0
  3 23  2  0  0  0  0
  4 24  1  0  0  0  0
  4 54  1  0  0  0  0
  5  6  1  0  0  0  0
  5  8  1  0  0  0  0
  5 14  1  0  0  0  0
  5 17  1  0  0  0  0
  6  7  1  0  0  0  0
  6 11  1  0  0  0  0
  6 25  1  0  0  0  0
  7  9  1  0  0  0  0
  7 10  1  0  0  0  0
  7 26  1  0  0  0  0
  8 13  1  0  0  0  0
  8 16  1  0  0  0  0
  8 27  1  0  0  0  0
  9 12  1  0  0  0  0
  9 20  1  0  0  0  0
  9 28  1  0  0  0  0
 10 13  1  0  0  0  0
 10 29  1  0  0  0  0
 10 30  1  0  0  0  0
 11 15  1  0  0  0  0
 11 31  1  0  0  0  0
 11 32  1  0  0  0  0
 12 15  1  0  0  0  0
 12 21  1  0  0  0  0
 13 33  1  0  0  0  0
 13 34  1  0  0  0  0
 14 18  1  0  0  0  0
 14 35  1  0  0  0  0
 14 36  1  0  0  0  0
 15 37  1  0  0  0  0
 15 38  1  0  0  0  0
 16 19  1  0  0  0  0
 16 39  1  0  0  0  0
 16 40  1  0  0  0  0
 17 41  1  0  0  0  0
 17 42  1  0  0  0  0
 17 43  1  0  0  0  0
 18 19  1  0  0  0  0
 18 44  1  0  0  0  0
 18 45  1  0  0  0  0
 19 46  1  0  0  0  0
 20 22  1  0  0  0  0
 20 47  1  0  0  0  0
 20 48  1  0  0  0  0
 21 49  1  0  0  0  0
 21 50  1  0  0  0  0
 21 51  1  0  0  0  0
 22 23  1  0  0  0  0
 22 24  2  0  0  0  0
 24 53  1  0  0  0  0
M  END
> <PUBCHEM_COMPOUND_CID>
11954112

> <PUBCHEM_CONFORMER_RMSD>
0.6

> <PUBCHEM_CONFORMER_DIVERSEORDER>
1

> <PUBCHEM_MMFF94_PARTIAL_CHARGES>
13
1 -0.43
12 0.28
19 0.28
2 -0.68
20 0.14
22 -0.12
23 0.71
24 -0.07
3 -0.57
4 -0.53
52 0.4
53 0.15
54 0.45

> <PUBCHEM_EFFECTIVE_ROTOR_COUNT>
2

> <PUBCHEM_PHARMACOPHORE_FEATURES>
8
1 2 acceptor
1 2 donor
1 3 acceptor
1 4 donor
6 1 9 12 20 22 23 rings
6 5 6 7 8 10 13 rings
6 5 8 14 16 18 19 rings
6 6 7 9 11 12 15 rings

> <PUBCHEM_HEAVY_ATOM_COUNT>
24

> <PUBCHEM_ATOM_DEF_STEREO_COUNT>
7

> <PUBCHEM_ATOM_UDEF_STEREO_COUNT>
0

> <PUBCHEM_BOND_DEF_STEREO_COUNT>
1

> <PUBCHEM_BOND_UDEF_STEREO_COUNT>
0

> <PUBCHEM_ISOTOPIC_ATOM_COUNT>
0

> <PUBCHEM_COMPONENT_COUNT>
1

> <PUBCHEM_CACTVS_TAUTO_COUNT>
3

> <PUBCHEM_CONFORMER_ID>
00B667C000000001

> <PUBCHEM_MMFF94_ENERGY>
78.579

> <PUBCHEM_FEATURE_SELFOVERLAP>
40.644

> <PUBCHEM_SHAPE_FINGERPRINT>
10906281 52 18337936982871875345
11578080 2 16517951502016100218
12011746 2 18410575076194502876
12166972 35 17603867758671890433
12236239 1 18131351912599249634
12403259 415 18040439858571065123
12596602 18 13470684871536690413
12788726 201 18263362649757981776
12838862 33 18338816579463832704
13140716 1 18412833468688074625
13402501 40 18410572902846417356
13583140 156 16988563472846878857
14790565 3 18411131476265359940
15099037 51 18409449193346268471
15183329 4 18335421291846563325
15196674 1 18409448085313180383
15238133 3 18200606881415035624
15788980 27 18409727365508926641
1601671 61 18411420630880550444
17349148 13 17240478091865526391
18186145 218 18272942630441000965
18608769 82 18341324501747829635
18681886 176 18188216415983010568
200 152 17748826306430886791
20645477 70 18187925114516817798
20681677 155 18272650143057315352
21033648 29 18335145245571365328
21267235 1 18336541625808054207
21279426 13 18337951310988276822
21285901 2 18116144657348630308
21421861 104 17845668065844795506
221357 26 18334299747331945013
22393880 68 18334862683973021095
23402539 116 18260832604666369325
23402655 69 18335140899011492935
23558518 356 17769935671480457432
23559900 14 18186526479527831824
3004659 81 18341890844804503358
335352 9 18410291437145047452
34797466 226 17313377873625402988
34934 24 18413671305729146410
350125 39 18409729577997716049
3545911 37 18409727356961371936
3680242 22 18270403918296069722
4073 2 18059287670147289098
4214541 1 18408885126954674669
4340502 62 16343697759809377352
474 4 17917711266745524997
495365 180 17241059738302107042
5104073 3 18410856551113178931
542803 24 18202002131247124725
543358 83 18412825806740763776
6138700 20 18337389465031711638
6328613 192 18341888555275932300
633830 44 18272092681850954766
7495541 125 11383823853727651878
9709674 26 18266741277259483987

> <PUBCHEM_SHAPE_MULTIPOLES>
470.43
12.33
2.25
0.99
0.12
0
-0.38
-3.62
2.93
-0.62
-0.06
0.04
0.3
0

> <PUBCHEM_SHAPE_SELFOVERLAP>
1002.067

> <PUBCHEM_SHAPE_VOLUME>
256.8

> <PUBCHEM_COORDINATE_TYPE>
2
5
10

$$$$

