67955
  -OEChem-07051212553D

 18 19  0     0  0  0  0  0  0999 V2000
   -0.9382   -1.6715    0.0001 N   0  0  0  0  0  0  0  0  0  0  0  0
    2.0818   -1.0792    0.0006 N   0  0  0  0  0  0  0  0  0  0  0  0
   -2.5154   -0.0963   -0.0003 N   0  0  0  0  0  0  0  0  0  0  0  0
    1.3534    1.2050    0.0003 N   0  0  0  0  0  0  0  0  0  0  0  0
   -1.0095    1.8122   -0.0003 N   0  0  0  0  0  0  0  0  0  0  0  0
   -0.2716   -0.4794    0.0002 C   0  0  0  0  0  0  0  0  0  0  0  0
    1.0604   -0.1148    0.0003 C   0  0  0  0  0  0  0  0  0  0  0  0
   -1.2722    0.4832    0.0000 C   0  0  0  0  0  0  0  0  0  0  0  0
   -2.2791   -1.3908   -0.0001 C   0  0  0  0  0  0  0  0  0  0  0  0
    0.3152    2.0748    0.0001 C   0  0  0  0  0  0  0  0  0  0  0  0
    3.4752   -0.7432   -0.0010 C   0  0  0  0  0  0  0  0  0  0  0  0
   -0.5223   -2.5934    0.0001 H   0  0  0  0  0  0  0  0  0  0  0  0
    1.8128   -2.0564    0.0005 H   0  0  0  0  0  0  0  0  0  0  0  0
   -3.0255   -2.1724   -0.0003 H   0  0  0  0  0  0  0  0  0  0  0  0
    3.7419   -0.1648    0.8894 H   0  0  0  0  0  0  0  0  0  0  0  0
    3.7403   -0.1666   -0.8930 H   0  0  0  0  0  0  0  0  0  0  0  0
    4.0782   -1.6564   -0.0005 H   0  0  0  0  0  0  0  0  0  0  0  0
    0.5858    3.1253   -0.0001 H   0  0  0  0  0  0  0  0  0  0  0  0
  1  6  1  0  0  0  0
  1  9  1  0  0  0  0
  1 12  1  0  0  0  0
  2  7  1  0  0  0  0
  2 11  1  0  0  0  0
  2 13  1  0  0  0  0
  3  8  1  0  0  0  0
  3  9  2  0  0  0  0
  4  7  2  0  0  0  0
  4 10  1  0  0  0  0
  5  8  1  0  0  0  0
  5 10  2  0  0  0  0
  6  7  1  0  0  0  0
  6  8  2  0  0  0  0
  9 14  1  0  0  0  0
 10 18  1  0  0  0  0
 11 15  1  0  0  0  0
 11 16  1  0  0  0  0
 11 17  1  0  0  0  0
M  END
> <PUBCHEM_COMPOUND_CID>
67955

> <PUBCHEM_CONFORMER_RMSD>
0.4

> <PUBCHEM_CONFORMER_DIVERSEORDER>
1
2
3

> <PUBCHEM_MMFF94_PARTIAL_CHARGES>
15
1 0.03
10 0.47
11 0.37
12 0.27
13 0.4
14 0.15
18 0.15
2 -0.87
3 -0.57
4 -0.62
5 -0.57
6 -0.15
7 0.41
8 0.48
9 0.04

> <PUBCHEM_EFFECTIVE_ROTOR_COUNT>
1

> <PUBCHEM_PHARMACOPHORE_FEATURES>
7
1 1 donor
1 2 donor
3 1 3 9 cation
3 2 4 7 cation
3 4 5 10 cation
5 1 3 6 8 9 rings
6 4 5 6 7 8 10 rings

> <PUBCHEM_HEAVY_ATOM_COUNT>
11

> <PUBCHEM_ATOM_DEF_STEREO_COUNT>
0

> <PUBCHEM_ATOM_UDEF_STEREO_COUNT>
0

> <PUBCHEM_BOND_DEF_STEREO_COUNT>
0

> <PUBCHEM_BOND_UDEF_STEREO_COUNT>
0

> <PUBCHEM_ISOTOPIC_ATOM_COUNT>
0

> <PUBCHEM_COMPONENT_COUNT>
1

> <PUBCHEM_CACTVS_TAUTO_COUNT>
8

> <PUBCHEM_CONFORMER_ID>
0001097300000001

> <PUBCHEM_MMFF94_ENERGY>
21.8704

> <PUBCHEM_FEATURE_SELFOVERLAP>
35.765

> <PUBCHEM_SHAPE_FINGERPRINT>
12716758 59 17976535332353125566
13024252 1 16271632498838068072
14128692 85 18411132507283734244
16945 1 18410856606889711079
18185500 45 18193275183014184751
193761 8 18338516339685257089
20871998 184 18187648050049416398
20871998 22 18334563651244247230
21040471 1 17690280834135650948
23552423 10 18199748037926178166
241688 4 18411983559153439745
2748010 2 18338803299276643429

> <PUBCHEM_SHAPE_MULTIPOLES>
201.47
3.75
1.99
0.58
2.24
0.75
0
-1.79
0
-0.26
0
0.01
0
0

> <PUBCHEM_SHAPE_SELFOVERLAP>
437.516

> <PUBCHEM_SHAPE_VOLUME>
108.9

> <PUBCHEM_COORDINATE_TYPE>
2
5
10

$$$$

