7315
  -OEChem-06261202003D

 28 28  0     1  0  0  0  0  0999 V2000
    0.6529    3.1683    0.3886 I   0  0  0  0  0  0  0  0  0  0  0  0
   -0.5257   -2.7984    1.0449 I   0  0  0  0  0  0  0  0  0  0  0  0
    4.8723   -1.0497   -0.7946 I   0  0  0  0  0  0  0  0  0  0  0  0
   -1.7065   -1.4183   -1.4632 O   0  0  0  0  0  0  0  0  0  0  0  0
   -3.4354   -1.4695    0.0044 O   0  0  0  0  0  0  0  0  0  0  0  0
    3.4197    1.8137   -0.4525 O   0  0  0  0  0  0  0  0  0  0  0  0
   -2.0470    0.5283   -0.1025 C   0  0  2  0  0  0  0  0  0  0  0  0
   -1.0444    0.4554    1.0640 C   0  0  0  0  0  0  0  0  0  0  0  0
   -3.2732    1.3679    0.3008 C   0  0  0  0  0  0  0  0  0  0  0  0
    0.3603    0.1205    0.6218 C   0  0  0  0  0  0  0  0  0  0  0  0
   -2.4813   -0.8798   -0.4873 C   0  0  0  0  0  0  0  0  0  0  0  0
   -4.3196    1.4474   -0.8039 C   0  0  0  0  0  0  0  0  0  0  0  0
    1.2436    1.1399    0.2875 C   0  0  0  0  0  0  0  0  0  0  0  0
    0.7534   -1.2108    0.5550 C   0  0  0  0  0  0  0  0  0  0  0  0
    2.5395    0.8232   -0.1202 C   0  0  0  0  0  0  0  0  0  0  0  0
    2.0491   -1.5275    0.1474 C   0  0  0  0  0  0  0  0  0  0  0  0
    2.9423   -0.5105   -0.1903 C   0  0  0  0  0  0  0  0  0  0  0  0
   -1.5978    0.9977   -0.9871 H   0  0  0  0  0  0  0  0  0  0  0  0
   -1.4000   -0.2437    1.8294 H   0  0  0  0  0  0  0  0  0  0  0  0
   -1.0563    1.3871    1.6377 H   0  0  0  0  0  0  0  0  0  0  0  0
   -2.9510    2.3862    0.5493 H   0  0  0  0  0  0  0  0  0  0  0  0
   -3.7416    0.9531    1.2020 H   0  0  0  0  0  0  0  0  0  0  0  0
   -3.8802    1.8267   -1.7321 H   0  0  0  0  0  0  0  0  0  0  0  0
   -5.1202    2.1332   -0.5076 H   0  0  0  0  0  0  0  0  0  0  0  0
   -4.7813    0.4784   -1.0116 H   0  0  0  0  0  0  0  0  0  0  0  0
    2.3643   -2.5675    0.0922 H   0  0  0  0  0  0  0  0  0  0  0  0
   -2.0006   -2.3219   -1.7067 H   0  0  0  0  0  0  0  0  0  0  0  0
    2.9735    2.6714   -0.3467 H   0  0  0  0  0  0  0  0  0  0  0  0
  1 13  1  0  0  0  0
  2 14  1  0  0  0  0
  3 17  1  0  0  0  0
  4 11  1  0  0  0  0
  4 27  1  0  0  0  0
  5 11  2  0  0  0  0
  6 15  1  0  0  0  0
  6 28  1  0  0  0  0
  7  8  1  0  0  0  0
  7  9  1  0  0  0  0
  7 11  1  0  0  0  0
  7 18  1  0  0  0  0
  8 10  1  0  0  0  0
  8 19  1  0  0  0  0
  8 20  1  0  0  0  0
  9 12  1  0  0  0  0
  9 21  1  0  0  0  0
  9 22  1  0  0  0  0
 10 13  2  0  0  0  0
 10 14  1  0  0  0  0
 12 23  1  0  0  0  0
 12 24  1  0  0  0  0
 12 25  1  0  0  0  0
 13 15  1  0  0  0  0
 14 16  2  0  0  0  0
 15 17  2  0  0  0  0
 16 17  1  0  0  0  0
 16 26  1  0  0  0  0
M  END
> <PUBCHEM_COMPOUND_CID>
7315

> <PUBCHEM_CONFORMER_RMSD>
0.6

> <PUBCHEM_CONFORMER_DIVERSEORDER>
1
2
14
21
17
23
6
16
5
10
19
8
9
3
25
20
22
24
15
18
7
13
11
4
12

> <PUBCHEM_MMFF94_PARTIAL_CHARGES>
18
1 -0.08
10 -0.14
11 0.66
13 0.08
14 0.08
15 0.08
16 -0.15
17 0.08
2 -0.08
26 0.15
27 0.5
28 0.45
3 -0.08
4 -0.65
5 -0.57
6 -0.53
7 0.06
8 0.14

> <PUBCHEM_EFFECTIVE_ROTOR_COUNT>
4

> <PUBCHEM_PHARMACOPHORE_FEATURES>
9
1 1 hydrophobe
1 12 hydrophobe
1 2 hydrophobe
1 3 hydrophobe
1 4 acceptor
1 5 acceptor
1 6 donor
3 4 5 11 anion
6 10 13 14 15 16 17 rings

> <PUBCHEM_HEAVY_ATOM_COUNT>
17

> <PUBCHEM_ATOM_DEF_STEREO_COUNT>
0

> <PUBCHEM_ATOM_UDEF_STEREO_COUNT>
1

> <PUBCHEM_BOND_DEF_STEREO_COUNT>
0

> <PUBCHEM_BOND_UDEF_STEREO_COUNT>
0

> <PUBCHEM_ISOTOPIC_ATOM_COUNT>
0

> <PUBCHEM_COMPONENT_COUNT>
1

> <PUBCHEM_CACTVS_TAUTO_COUNT>
6

> <PUBCHEM_CONFORMER_ID>
00001C9300000001

> <PUBCHEM_MMFF94_ENERGY>
55.2053

> <PUBCHEM_FEATURE_SELFOVERLAP>
45.728

> <PUBCHEM_SHAPE_FINGERPRINT>
10062212 137 18408611382993190210
10756046 5 18262523593462505693
10967382 1 18339363096713598017
11401426 45 18410012174060721586
11680986 33 18192708939279757712
116883 192 18117269475129253884
12788726 201 18193552496711145288
13140716 1 18339085989697457328
14911166 2 18340759447054425286
14993402 34 18188776174823060669
15196674 1 18410291393768177604
15775835 57 18342174509438789103
16945 1 18194126204919222538
18186145 218 18272093807269133630
19862831 5 18260270771588970069
20645476 183 18337396036453084855
20871999 31 18411416215411538262
21029758 11 18335415812101374408
21267235 1 18335974341916165515
21634736 98 18407757045462837148
221490 88 18266452118617961866
22802520 49 18050284760831640642
2334 1 18411140212186051097
23402539 116 18410576223583929414
23402655 69 18340203093659165196
23419403 2 15175340915708602055
23557571 272 17605557858879457032
23558518 356 17840873966649372224
23559900 14 18335137601536854160
25 1 18200877391150432547
2748010 2 18193540200304055722
2871803 45 18340216176609850039
3060560 45 18341900752402251855
3084891 72 18339640161191776146
34934 24 18337679735879502184
7364860 26 18116156558397240304
7832392 63 18408609183859054345
81228 2 18118384354229292208
90525 40 18113901606351645567
9709674 26 18265331699031515902
9981440 41 17469058665410472624

> <PUBCHEM_SHAPE_MULTIPOLES>
368.05
7.35
3.25
1.08
1.84
0.79
-0.05
0.1
-3.1
-0.23
0.78
-0.21
-0.29
0.19

> <PUBCHEM_SHAPE_SELFOVERLAP>
698.172

> <PUBCHEM_SHAPE_VOLUME>
234.7

> <PUBCHEM_COORDINATE_TYPE>
2
5
10

$$$$

