114926
  -OEChem-07051212512D

 18 18  0     0  0  0  0  0  0999 V2000
    5.1350    2.2500    0.0000 O   0  0  0  0  0  0  0  0  0  0  0  0
    4.2690    0.7500    0.0000 N   0  0  0  0  0  0  0  0  0  0  0  0
    5.1350   -1.7500    0.0000 N   0  0  0  0  0  0  0  0  0  0  0  0
    3.4030   -1.7500    0.0000 N   0  0  0  0  0  0  0  0  0  0  0  0
    6.0010   -0.2500    0.0000 N   0  0  0  0  0  0  0  0  0  0  0  0
    2.5369   -0.2500    0.0000 N   0  0  0  0  0  0  0  0  0  0  0  0
    4.2690   -0.2500    0.0000 C   0  0  0  0  0  0  0  0  0  0  0  0
    5.1350   -0.7500    0.0000 C   0  0  0  0  0  0  0  0  0  0  0  0
    3.4030   -0.7500    0.0000 C   0  0  0  0  0  0  0  0  0  0  0  0
    4.2690   -2.2500    0.0000 C   0  0  0  0  0  0  0  0  0  0  0  0
    5.1350    1.2500    0.0000 C   0  0  0  0  0  0  0  0  0  0  0  0
    3.7320    1.0600    0.0000 H   0  0  0  0  0  0  0  0  0  0  0  0
    4.2690   -2.8700    0.0000 H   0  0  0  0  0  0  0  0  0  0  0  0
    6.5380   -0.5600    0.0000 H   0  0  0  0  0  0  0  0  0  0  0  0
    6.0010    0.3700    0.0000 H   0  0  0  0  0  0  0  0  0  0  0  0
    2.0000   -0.5600    0.0000 H   0  0  0  0  0  0  0  0  0  0  0  0
    2.5369    0.3700    0.0000 H   0  0  0  0  0  0  0  0  0  0  0  0
    5.6720    0.9400    0.0000 H   0  0  0  0  0  0  0  0  0  0  0  0
  1 11  2  0  0  0  0
  2  7  1  0  0  0  0
  2 11  1  0  0  0  0
  2 12  1  0  0  0  0
  3  8  2  0  0  0  0
  3 10  1  0  0  0  0
  4  9  1  0  0  0  0
  4 10  2  0  0  0  0
  5  8  1  0  0  0  0
  5 14  1  0  0  0  0
  5 15  1  0  0  0  0
  6  9  1  0  0  0  0
  6 16  1  0  0  0  0
  6 17  1  0  0  0  0
  7  8  1  0  0  0  0
  7  9  2  0  0  0  0
 10 13  1  0  0  0  0
 11 18  1  0  0  0  0
M  END
> <PUBCHEM_COMPOUND_CID>
114926

> <PUBCHEM_COMPOUND_CANONICALIZED>
1

> <PUBCHEM_CACTVS_COMPLEXITY>
131

> <PUBCHEM_CACTVS_HBOND_ACCEPTOR>
5

> <PUBCHEM_CACTVS_HBOND_DONOR>
3

> <PUBCHEM_CACTVS_ROTATABLE_BOND>
1

> <PUBCHEM_CACTVS_SUBSKEYS>
AAADcYBjoAAAAAAAAAAAAAAAAAAAAAAAAAAsAAAAAAAAAAABgAAAHgAQAAAACAgBEgYF8JbIEACoAAZh9ACAgCkREKABUKAoVBCASABASEAUBAgIBAJAACAAAAAAAAAAAAAAAAAAAAAAAAAAAAAAAAAAAA==

> <PUBCHEM_IUPAC_OPENEYE_NAME>
N-(4,6-diaminopyrimidin-5-yl)formamide

> <PUBCHEM_IUPAC_CAS_NAME>
N-(4,6-diamino-5-pyrimidinyl)formamide

> <PUBCHEM_IUPAC_NAME>
N-(4,6-diaminopyrimidin-5-yl)formamide

> <PUBCHEM_IUPAC_SYSTEMATIC_NAME>
N-[4,6-bis(azanyl)pyrimidin-5-yl]methanamide

> <PUBCHEM_IUPAC_TRADITIONAL_NAME>
N-(4,6-diaminopyrimidin-5-yl)formamide

> <PUBCHEM_IUPAC_INCHI>
InChI=1S/C5H7N5O/c6-4-3(10-2-11)5(7)9-1-8-4/h1-2H,(H,10,11)(H4,6,7,8,9)

> <PUBCHEM_IUPAC_INCHIKEY>
MVYUVUOSXNYQLL-UHFFFAOYSA-N

> <PUBCHEM_XLOGP3_AA>
-1.3

> <PUBCHEM_EXACT_MASS>
153.06506

> <PUBCHEM_MOLECULAR_FORMULA>
C5H7N5O

> <PUBCHEM_MOLECULAR_WEIGHT>
153.14198

> <PUBCHEM_OPENEYE_CAN_SMILES>
C1=NC(=C(C(=N1)N)NC=O)N

> <PUBCHEM_OPENEYE_ISO_SMILES>
C1=NC(=C(C(=N1)N)NC=O)N

> <PUBCHEM_CACTVS_TPSA>
107

> <PUBCHEM_MONOISOTOPIC_WEIGHT>
153.06506

> <PUBCHEM_TOTAL_CHARGE>
0

> <PUBCHEM_HEAVY_ATOM_COUNT>
11

> <PUBCHEM_ATOM_DEF_STEREO_COUNT>
0

> <PUBCHEM_ATOM_UDEF_STEREO_COUNT>
0

> <PUBCHEM_BOND_DEF_STEREO_COUNT>
0

> <PUBCHEM_BOND_UDEF_STEREO_COUNT>
0

> <PUBCHEM_ISOTOPIC_ATOM_COUNT>
0

> <PUBCHEM_COMPONENT_COUNT>
1

> <PUBCHEM_CACTVS_TAUTO_COUNT>
10

> <PUBCHEM_COORDINATE_TYPE>
1
5
255

> <PUBCHEM_BONDANNOTATIONS>
3  10  8
3  8  8
4  10  8
4  9  8
7  8  8
7  9  8

$$$$

