197759
  -OEChem-07051213062D

 53 56  0     1  0  0  0  0  0999 V2000
    5.6489   -3.0344    0.0000 F   0  0  0  0  0  0  0  0  0  0  0  0
    7.9821    3.0344    0.0000 O   0  0  0  0  0  0  0  0  0  0  0  0
    2.0000   -2.0175    0.0000 O   0  0  0  0  0  0  0  0  0  0  0  0
    7.3931    0.0348    0.0000 C   0  0  2  0  0  0  0  0  0  0  0  0
    7.3931    1.0348    0.0000 C   0  0  1  0  0  0  0  0  0  0  0  0
    6.5271   -0.4652    0.0000 C   0  0  1  0  0  0  0  0  0  0  0  0
    5.6610    0.0348    0.0000 C   0  0  1  0  0  0  0  0  0  0  0  0
    4.7510   -0.4720    0.0000 C   0  0  2  0  0  0  0  0  0  0  0  0
    8.3393    1.3396    0.0000 C   0  0  2  0  0  0  0  0  0  0  0  0
    6.5271    1.5348    0.0000 C   0  0  0  0  0  0  0  0  0  0  0  0
    5.6610    1.0348    0.0000 C   0  0  0  0  0  0  0  0  0  0  0  0
    8.3393   -0.2699    0.0000 C   0  0  0  0  0  0  0  0  0  0  0  0
    6.5431   -1.5067    0.0000 C   0  0  0  0  0  0  0  0  0  0  0  0
    8.9229    0.5349    0.0000 C   0  0  0  0  0  0  0  0  0  0  0  0
    4.7430   -1.5136    0.0000 C   0  0  0  0  0  0  0  0  0  0  0  0
    7.3931    2.0348    0.0000 C   0  0  0  0  0  0  0  0  0  0  0  0
    5.6451   -2.0344    0.0000 C   0  0  1  0  0  0  0  0  0  0  0  0
    3.8242    0.0921    0.0000 C   0  0  0  0  0  0  0  0  0  0  0  0
    4.7587    0.5280    0.0000 C   0  0  0  0  0  0  0  0  0  0  0  0
    8.6500    2.2901    0.0000 C   0  0  0  0  0  0  0  0  0  0  0  0
    2.8763   -0.4359    0.0000 C   0  0  0  0  0  0  0  0  0  0  0  0
    3.8076   -2.0633    0.0000 C   0  0  0  0  0  0  0  0  0  0  0  0
    2.8680   -1.5208    0.0000 C   0  0  0  0  0  0  0  0  0  0  0  0
    9.6285    2.4963    0.0000 C   0  0  0  0  0  0  0  0  0  0  0  0
    7.4830   -0.8104    0.0000 H   0  0  0  0  0  0  0  0  0  0  0  0
    7.2664   -0.8845    0.0000 H   0  0  0  0  0  0  0  0  0  0  0  0
    6.3972    0.4598    0.0000 H   0  0  0  0  0  0  0  0  0  0  0  0
    7.9018    1.7789    0.0000 H   0  0  0  0  0  0  0  0  0  0  0  0
    6.9256    2.0098    0.0000 H   0  0  0  0  0  0  0  0  0  0  0  0
    6.1285    2.0098    0.0000 H   0  0  0  0  0  0  0  0  0  0  0  0
    5.4490    1.6175    0.0000 H   0  0  0  0  0  0  0  0  0  0  0  0
    5.0504    0.9272    0.0000 H   0  0  0  0  0  0  0  0  0  0  0  0
    8.0883   -0.8368    0.0000 H   0  0  0  0  0  0  0  0  0  0  0  0
    8.8767   -0.5791    0.0000 H   0  0  0  0  0  0  0  0  0  0  0  0
    6.7612   -2.0871    0.0000 H   0  0  0  0  0  0  0  0  0  0  0  0
    7.1523   -1.3912    0.0000 H   0  0  0  0  0  0  0  0  0  0  0  0
    9.3838    0.1201    0.0000 H   0  0  0  0  0  0  0  0  0  0  0  0
    9.3838    0.9496    0.0000 H   0  0  0  0  0  0  0  0  0  0  0  0
    8.0131    2.0348    0.0000 H   0  0  0  0  0  0  0  0  0  0  0  0
    7.3931    2.6548    0.0000 H   0  0  0  0  0  0  0  0  0  0  0  0
    6.7731    2.0348    0.0000 H   0  0  0  0  0  0  0  0  0  0  0  0
    5.1087   -2.3454    0.0000 H   0  0  0  0  0  0  0  0  0  0  0  0
    4.2324    0.5587    0.0000 H   0  0  0  0  0  0  0  0  0  0  0  0
    3.4343    0.5741    0.0000 H   0  0  0  0  0  0  0  0  0  0  0  0
    5.3787    0.5232    0.0000 H   0  0  0  0  0  0  0  0  0  0  0  0
    4.7635    1.1480    0.0000 H   0  0  0  0  0  0  0  0  0  0  0  0
    4.1388    0.5328    0.0000 H   0  0  0  0  0  0  0  0  0  0  0  0
    2.6718    0.1494    0.0000 H   0  0  0  0  0  0  0  0  0  0  0  0
    2.2647   -0.5372    0.0000 H   0  0  0  0  0  0  0  0  0  0  0  0
    3.8100   -2.6833    0.0000 H   0  0  0  0  0  0  0  0  0  0  0  0
    9.7563    1.8896    0.0000 H   0  0  0  0  0  0  0  0  0  0  0  0
   10.2351    2.6242    0.0000 H   0  0  0  0  0  0  0  0  0  0  0  0
    9.5006    3.1030    0.0000 H   0  0  0  0  0  0  0  0  0  0  0  0
 17  1  1  6  0  0  0
  2 20  2  0  0  0  0
  3 23  2  0  0  0  0
  4  5  1  0  0  0  0
  4  6  1  0  0  0  0
  4 12  1  0  0  0  0
  4 25  1  6  0  0  0
  5  9  1  0  0  0  0
  5 10  1  0  0  0  0
  5 16  1  1  0  0  0
  6  7  1  0  0  0  0
  6 13  1  0  0  0  0
  6 26  1  1  0  0  0
  7  8  1  0  0  0  0
  7 11  1  0  0  0  0
  7 27  1  6  0  0  0
  8 15  1  0  0  0  0
  8 18  1  0  0  0  0
  8 19  1  1  0  0  0
  9 14  1  0  0  0  0
  9 20  1  1  0  0  0
  9 28  1  0  0  0  0
 10 11  1  0  0  0  0
 10 29  1  0  0  0  0
 10 30  1  0  0  0  0
 11 31  1  0  0  0  0
 11 32  1  0  0  0  0
 12 14  1  0  0  0  0
 12 33  1  0  0  0  0
 12 34  1  0  0  0  0
 13 17  1  0  0  0  0
 13 35  1  0  0  0  0
 13 36  1  0  0  0  0
 14 37  1  0  0  0  0
 14 38  1  0  0  0  0
 15 17  1  0  0  0  0
 15 22  2  0  0  0  0
 16 39  1  0  0  0  0
 16 40  1  0  0  0  0
 16 41  1  0  0  0  0
 17 42  1  0  0  0  0
 18 21  1  0  0  0  0
 18 43  1  0  0  0  0
 18 44  1  0  0  0  0
 19 45  1  0  0  0  0
 19 46  1  0  0  0  0
 19 47  1  0  0  0  0
 20 24  1  0  0  0  0
 21 23  1  0  0  0  0
 21 48  1  0  0  0  0
 21 49  1  0  0  0  0
 22 23  1  0  0  0  0
 22 50  1  0  0  0  0
 24 51  1  0  0  0  0
 24 52  1  0  0  0  0
 24 53  1  0  0  0  0
M  END
> <PUBCHEM_COMPOUND_CID>
197759

> <PUBCHEM_COMPOUND_CANONICALIZED>
1

> <PUBCHEM_CACTVS_COMPLEXITY>
623

> <PUBCHEM_CACTVS_HBOND_ACCEPTOR>
3

> <PUBCHEM_CACTVS_HBOND_DONOR>
0

> <PUBCHEM_CACTVS_ROTATABLE_BOND>
1

> <PUBCHEM_CACTVS_SUBSKEYS>
AAADceB4MQAAAAAAAAAAAAAAAAAAAYAAAAAwYIAAAAAAAGDAAAAAGwAAAAAADwSAgAACAAAAAACIAqBSAAAAAAAgAAAACAEAAEgAABIAAQAAAAAAgAAIAQMIiMCPgAAAAAAAAACAAAQAACAAAQAACAAAAA==

> <PUBCHEM_IUPAC_OPENEYE_NAME>
(6S,8S,9S,10R,13S,14S,17S)-17-acetyl-6-fluoro-10,13-dimethyl-1,2,6,7,8,9,11,12,14,15,16,17-dodecahydrocyclopenta[a]phenanthren-3-one

> <PUBCHEM_IUPAC_CAS_NAME>
(6S,8S,9S,10R,13S,14S,17S)-17-acetyl-6-fluoro-10,13-dimethyl-1,2,6,7,8,9,11,12,14,15,16,17-dodecahydrocyclopenta[a]phenanthren-3-one

> <PUBCHEM_IUPAC_NAME>
(6S,8S,9S,10R,13S,14S,17S)-17-acetyl-6-fluoro-10,13-dimethyl-1,2,6,7,8,9,11,12,14,15,16,17-dodecahydrocyclopenta[a]phenanthren-3-one

> <PUBCHEM_IUPAC_SYSTEMATIC_NAME>
(6S,8S,9S,10R,13S,14S,17S)-17-ethanoyl-6-fluoranyl-10,13-dimethyl-1,2,6,7,8,9,11,12,14,15,16,17-dodecahydrocyclopenta[a]phenanthren-3-one

> <PUBCHEM_IUPAC_TRADITIONAL_NAME>
(6S,8S,9S,10R,13S,14S,17S)-17-acetyl-6-fluoro-10,13-dimethyl-1,2,6,7,8,9,11,12,14,15,16,17-dodecahydrocyclopenta[a]phenanthren-3-one

> <PUBCHEM_IUPAC_INCHI>
InChI=1S/C21H29FO2/c1-12(23)15-4-5-16-14-11-19(22)18-10-13(24)6-8-21(18,3)17(14)7-9-20(15,16)2/h10,14-17,19H,4-9,11H2,1-3H3/t14-,15+,16-,17-,19-,20+,21+/m0/s1

> <PUBCHEM_IUPAC_INCHIKEY>
UZROOFLUFHWOJQ-ADDDSGAWSA-N

> <PUBCHEM_XLOGP3>
3.6

> <PUBCHEM_EXACT_MASS>
332.215158

> <PUBCHEM_MOLECULAR_FORMULA>
C21H29FO2

> <PUBCHEM_MOLECULAR_WEIGHT>
332.452163

> <PUBCHEM_OPENEYE_CAN_SMILES>
CC(=O)C1CCC2C1(CCC3C2CC(C4=CC(=O)CCC34C)F)C

> <PUBCHEM_OPENEYE_ISO_SMILES>
CC(=O)[C@H]1CC[C@@H]2[C@@]1(CC[C@H]3[C@H]2C[C@@H](C4=CC(=O)CC[C@]34C)F)C

> <PUBCHEM_CACTVS_TPSA>
34.1

> <PUBCHEM_MONOISOTOPIC_WEIGHT>
332.215158

> <PUBCHEM_TOTAL_CHARGE>
0

> <PUBCHEM_HEAVY_ATOM_COUNT>
24

> <PUBCHEM_ATOM_DEF_STEREO_COUNT>
7

> <PUBCHEM_ATOM_UDEF_STEREO_COUNT>
0

> <PUBCHEM_BOND_DEF_STEREO_COUNT>
0

> <PUBCHEM_BOND_UDEF_STEREO_COUNT>
0

> <PUBCHEM_ISOTOPIC_ATOM_COUNT>
0

> <PUBCHEM_COMPONENT_COUNT>
1

> <PUBCHEM_CACTVS_TAUTO_COUNT>
6

> <PUBCHEM_COORDINATE_TYPE>
1
5
255

> <PUBCHEM_BONDANNOTATIONS>
17  1  6
4  25  6
5  16  5
6  26  5
7  27  6
8  19  5
9  20  5

$$$$

