73117
  -OEChem-07051212593D

 54 57  0     1  0  0  0  0  0999 V2000
   -0.9775    1.6432   -0.5355 O   0  0  0  0  0  0  0  0  0  0  0  0
    0.9771   -1.6432   -0.5357 O   0  0  0  0  0  0  0  0  0  0  0  0
   -5.9048   -1.7366   -0.8772 O   0  0  0  0  0  0  0  0  0  0  0  0
    5.9048    1.7364   -0.8772 O   0  0  0  0  0  0  0  0  0  0  0  0
   -7.0221    0.2737    0.6839 O   0  0  0  0  0  0  0  0  0  0  0  0
    7.0220   -0.2736    0.6841 O   0  0  0  0  0  0  0  0  0  0  0  0
   -0.6379   -0.3987    0.6664 C   0  0  1  0  0  0  0  0  0  0  0  0
    0.6382    0.3989    0.6661 C   0  0  1  0  0  0  0  0  0  0  0  0
   -1.4678    0.2911   -0.4247 C   0  0  1  0  0  0  0  0  0  0  0  0
    1.4677   -0.2913   -0.4250 C   0  0  1  0  0  0  0  0  0  0  0  0
    0.1708    1.7928    0.3109 C   0  0  0  0  0  0  0  0  0  0  0  0
   -0.1707   -1.7927    0.3114 C   0  0  0  0  0  0  0  0  0  0  0  0
   -2.9489    0.2830   -0.1305 C   0  0  0  0  0  0  0  0  0  0  0  0
    2.9488   -0.2831   -0.1307 C   0  0  0  0  0  0  0  0  0  0  0  0
   -3.7584   -0.7322   -0.6428 C   0  0  0  0  0  0  0  0  0  0  0  0
    3.7585    0.7321   -0.6431 C   0  0  0  0  0  0  0  0  0  0  0  0
   -3.5117    1.2916    0.6535 C   0  0  0  0  0  0  0  0  0  0  0  0
    3.5117   -1.2915    0.6535 C   0  0  0  0  0  0  0  0  0  0  0  0
   -5.1266   -0.7391   -0.3719 C   0  0  0  0  0  0  0  0  0  0  0  0
    5.1266    0.7390   -0.3719 C   0  0  0  0  0  0  0  0  0  0  0  0
   -4.8799    1.2849    0.9245 C   0  0  0  0  0  0  0  0  0  0  0  0
    4.8799   -1.2848    0.9246 C   0  0  0  0  0  0  0  0  0  0  0  0
   -5.6874    0.2695    0.4119 C   0  0  0  0  0  0  0  0  0  0  0  0
    5.6874   -0.2694    0.4119 C   0  0  0  0  0  0  0  0  0  0  0  0
   -6.4861   -1.5177   -2.1610 C   0  0  0  0  0  0  0  0  0  0  0  0
    6.4863    1.5175   -2.1610 C   0  0  0  0  0  0  0  0  0  0  0  0
   -7.5154    1.3401    1.4925 C   0  0  0  0  0  0  0  0  0  0  0  0
    7.5154   -1.3399    1.4928 C   0  0  0  0  0  0  0  0  0  0  0  0
   -1.1473   -0.3740    1.6365 H   0  0  0  0  0  0  0  0  0  0  0  0
    1.1477    0.3745    1.6361 H   0  0  0  0  0  0  0  0  0  0  0  0
   -1.2998   -0.1653   -1.4086 H   0  0  0  0  0  0  0  0  0  0  0  0
    1.2998    0.1650   -1.4090 H   0  0  0  0  0  0  0  0  0  0  0  0
   -0.1519    2.3353    1.2061 H   0  0  0  0  0  0  0  0  0  0  0  0
    0.9292    2.3916   -0.2012 H   0  0  0  0  0  0  0  0  0  0  0  0
    0.1525   -2.3348    1.2067 H   0  0  0  0  0  0  0  0  0  0  0  0
   -0.9293   -2.3917   -0.2000 H   0  0  0  0  0  0  0  0  0  0  0  0
   -3.3262   -1.5221   -1.2526 H   0  0  0  0  0  0  0  0  0  0  0  0
    3.3264    1.5218   -1.2529 H   0  0  0  0  0  0  0  0  0  0  0  0
   -2.9007    2.0868    1.0717 H   0  0  0  0  0  0  0  0  0  0  0  0
    2.9007   -2.0868    1.0717 H   0  0  0  0  0  0  0  0  0  0  0  0
   -5.2455    2.0981    1.5418 H   0  0  0  0  0  0  0  0  0  0  0  0
    5.2455   -2.0980    1.5419 H   0  0  0  0  0  0  0  0  0  0  0  0
   -5.7060   -1.3868   -2.9176 H   0  0  0  0  0  0  0  0  0  0  0  0
   -7.1429   -0.6422   -2.1428 H   0  0  0  0  0  0  0  0  0  0  0  0
   -7.0821   -2.3966   -2.4217 H   0  0  0  0  0  0  0  0  0  0  0  0
    5.7063    1.3864   -2.9177 H   0  0  0  0  0  0  0  0  0  0  0  0
    7.1432    0.6421   -2.1426 H   0  0  0  0  0  0  0  0  0  0  0  0
    7.0823    2.3963   -2.4216 H   0  0  0  0  0  0  0  0  0  0  0  0
   -7.0830    1.3171    2.4987 H   0  0  0  0  0  0  0  0  0  0  0  0
   -8.5935    1.1857    1.6066 H   0  0  0  0  0  0  0  0  0  0  0  0
   -7.3835    2.3115    1.0039 H   0  0  0  0  0  0  0  0  0  0  0  0
    8.5934   -1.1855    1.6069 H   0  0  0  0  0  0  0  0  0  0  0  0
    7.3836   -2.3113    1.0042 H   0  0  0  0  0  0  0  0  0  0  0  0
    7.0829   -1.3168    2.4989 H   0  0  0  0  0  0  0  0  0  0  0  0
  1  9  1  0  0  0  0
  1 11  1  0  0  0  0
  2 10  1  0  0  0  0
  2 12  1  0  0  0  0
  3 19  1  0  0  0  0
  3 25  1  0  0  0  0
  4 20  1  0  0  0  0
  4 26  1  0  0  0  0
  5 23  1  0  0  0  0
  5 27  1  0  0  0  0
  6 24  1  0  0  0  0
  6 28  1  0  0  0  0
  7  8  1  0  0  0  0
  7  9  1  0  0  0  0
  7 12  1  0  0  0  0
  7 29  1  0  0  0  0
  8 10  1  0  0  0  0
  8 11  1  0  0  0  0
  8 30  1  0  0  0  0
  9 13  1  0  0  0  0
  9 31  1  0  0  0  0
 10 14  1  0  0  0  0
 10 32  1  0  0  0  0
 11 33  1  0  0  0  0
 11 34  1  0  0  0  0
 12 35  1  0  0  0  0
 12 36  1  0  0  0  0
 13 15  2  0  0  0  0
 13 17  1  0  0  0  0
 14 16  2  0  0  0  0
 14 18  1  0  0  0  0
 15 19  1  0  0  0  0
 15 37  1  0  0  0  0
 16 20  1  0  0  0  0
 16 38  1  0  0  0  0
 17 21  2  0  0  0  0
 17 39  1  0  0  0  0
 18 22  2  0  0  0  0
 18 40  1  0  0  0  0
 19 23  2  0  0  0  0
 20 24  2  0  0  0  0
 21 23  1  0  0  0  0
 21 41  1  0  0  0  0
 22 24  1  0  0  0  0
 22 42  1  0  0  0  0
 25 43  1  0  0  0  0
 25 44  1  0  0  0  0
 25 45  1  0  0  0  0
 26 46  1  0  0  0  0
 26 47  1  0  0  0  0
 26 48  1  0  0  0  0
 27 49  1  0  0  0  0
 27 50  1  0  0  0  0
 27 51  1  0  0  0  0
 28 52  1  0  0  0  0
 28 53  1  0  0  0  0
 28 54  1  0  0  0  0
M  END
> <PUBCHEM_COMPOUND_CID>
73117

> <PUBCHEM_CONFORMER_RMSD>
0.8

> <PUBCHEM_CONFORMER_DIVERSEORDER>
19
5
47
35
39
16
2
8
28
36
17
27
26
44
46
9
15
37
3
6
18
34
48
21
33
20
1
40
23
13
41
10
32
12
4
14
25
7
24
42
45
11
38
29
43
31
22
30

> <PUBCHEM_MMFF94_PARTIAL_CHARGES>
32
1 -0.56
10 0.42
11 0.28
12 0.28
13 -0.14
14 -0.14
15 -0.15
16 -0.15
17 -0.15
18 -0.15
19 0.08
2 -0.56
20 0.08
21 -0.15
22 -0.15
23 0.08
24 0.08
25 0.28
26 0.28
27 0.28
28 0.28
3 -0.36
37 0.15
38 0.15
39 0.15
4 -0.36
40 0.15
41 0.15
42 0.15
5 -0.36
6 -0.36
9 0.42

> <PUBCHEM_EFFECTIVE_ROTOR_COUNT>
7.2

> <PUBCHEM_PHARMACOPHORE_FEATURES>
10
1 1 acceptor
1 2 acceptor
1 3 acceptor
1 4 acceptor
1 5 acceptor
1 6 acceptor
5 1 7 8 9 11 rings
5 2 7 8 10 12 rings
6 13 15 17 19 21 23 rings
6 14 16 18 20 22 24 rings

> <PUBCHEM_HEAVY_ATOM_COUNT>
28

> <PUBCHEM_ATOM_DEF_STEREO_COUNT>
4

> <PUBCHEM_ATOM_UDEF_STEREO_COUNT>
0

> <PUBCHEM_BOND_DEF_STEREO_COUNT>
0

> <PUBCHEM_BOND_UDEF_STEREO_COUNT>
0

> <PUBCHEM_ISOTOPIC_ATOM_COUNT>
0

> <PUBCHEM_COMPONENT_COUNT>
1

> <PUBCHEM_CACTVS_TAUTO_COUNT>
1

> <PUBCHEM_CONFORMER_ID>
00011D9D00000013

> <PUBCHEM_MMFF94_ENERGY>
124.6243

> <PUBCHEM_FEATURE_SELFOVERLAP>
51.233

> <PUBCHEM_SHAPE_FINGERPRINT>
10 15 18201428182399637705
10299344 5 18410291410911110595
10595046 47 18410856576819658752
10906281 52 18339063948046970243
11135926 11 18337961185640836367
11315181 36 18186807963837736011
12166972 35 17775283876901684764
12236239 1 18410855455833194660
12516196 113 17530683199369488856
13533116 47 18059859489397911754
13782708 43 15936981725842330911
13862211 1 18410580573752784430
14251764 18 18410575071778177074
14849402 71 18337386024658029809
14856354 85 18260266313893251135
15131766 46 15911338851709375894
15183329 4 18410855442948299437
15510794 2 15647053767670854925
15716309 27 18272368685360784985
1577012 14 18411133623753821724
17093844 174 16805326596298612627
17492 89 18123758818574261850
19377110 9 18410575131907719746
20157964 124 17632856409140880828
21033648 29 15626231178120680741
21267235 1 18130223865688774546
21521721 280 18060412499900334833
21792934 111 18341905116364026408
21859007 373 14476976561751095390
220451 1 18334292076504393555
2303208 19 15719388421422189863
23081809 10 18410856559639789574
23522609 53 18265309803320493681
23559900 14 17916866798755366025
23569917 315 18411135840380193146
24771293 8 18188217498600119192
34797466 226 16515964762193817456
397830 11 15792596048888929955
4073 2 17775275032851677627
4325135 7 18410575106137915422
4340502 62 16702300148587798834
445580 37 17604416488252656945
4516262 110 17703505473424184156
5969126 39 17989215875544964917

> <PUBCHEM_SHAPE_MULTIPOLES>
541.01
21.87
1.83
1.41
0
0
0.48
0
-1.1
0
0.23
0
0
-4.18

> <PUBCHEM_SHAPE_SELFOVERLAP>
1170.361

> <PUBCHEM_SHAPE_VOLUME>
301.4

> <PUBCHEM_COORDINATE_TYPE>
2
5
10

$$$$

