12371
  -OEChem-06261206523D

 23 22  0     0  0  0  0  0  0999 V2000
    4.6194    0.3674    0.0293 Cl  0  0  0  0  0  0  0  0  0  0  0  0
   -0.6497    0.4554   -0.0028 C   0  0  0  0  0  0  0  0  0  0  0  0
    0.5798   -0.4556   -0.0205 C   0  0  0  0  0  0  0  0  0  0  0  0
   -1.9439   -0.3616    0.0052 C   0  0  0  0  0  0  0  0  0  0  0  0
    1.9052    0.3120   -0.0158 C   0  0  0  0  0  0  0  0  0  0  0  0
   -3.1744    0.5450   -0.0158 C   0  0  0  0  0  0  0  0  0  0  0  0
    3.1255   -0.6002   -0.0058 C   0  0  0  0  0  0  0  0  0  0  0  0
   -4.4620   -0.2625    0.0263 C   0  0  0  0  0  0  0  0  0  0  0  0
   -0.6158    1.1014    0.8827 H   0  0  0  0  0  0  0  0  0  0  0  0
   -0.6309    1.1101   -0.8824 H   0  0  0  0  0  0  0  0  0  0  0  0
    0.5425   -1.0987   -0.9086 H   0  0  0  0  0  0  0  0  0  0  0  0
    0.5491   -1.1195    0.8525 H   0  0  0  0  0  0  0  0  0  0  0  0
   -1.9653   -1.0273   -0.8663 H   0  0  0  0  0  0  0  0  0  0  0  0
   -1.9695   -0.9977    0.8983 H   0  0  0  0  0  0  0  0  0  0  0  0
    1.9419    0.9647   -0.8971 H   0  0  0  0  0  0  0  0  0  0  0  0
    1.9317    0.9668    0.8645 H   0  0  0  0  0  0  0  0  0  0  0  0
   -3.1501    1.2258    0.8431 H   0  0  0  0  0  0  0  0  0  0  0  0
   -3.1659    1.1636   -0.9207 H   0  0  0  0  0  0  0  0  0  0  0  0
    3.1270   -1.2468    0.8766 H   0  0  0  0  0  0  0  0  0  0  0  0
    3.1548   -1.2289   -0.9005 H   0  0  0  0  0  0  0  0  0  0  0  0
   -5.3289    0.4054    0.0094 H   0  0  0  0  0  0  0  0  0  0  0  0
   -4.5327   -0.9330   -0.8361 H   0  0  0  0  0  0  0  0  0  0  0  0
   -4.5165   -0.8670    0.9373 H   0  0  0  0  0  0  0  0  0  0  0  0
  1  7  1  0  0  0  0
  2  3  1  0  0  0  0
  2  4  1  0  0  0  0
  2  9  1  0  0  0  0
  2 10  1  0  0  0  0
  3  5  1  0  0  0  0
  3 11  1  0  0  0  0
  3 12  1  0  0  0  0
  4  6  1  0  0  0  0
  4 13  1  0  0  0  0
  4 14  1  0  0  0  0
  5  7  1  0  0  0  0
  5 15  1  0  0  0  0
  5 16  1  0  0  0  0
  6  8  1  0  0  0  0
  6 17  1  0  0  0  0
  6 18  1  0  0  0  0
  7 19  1  0  0  0  0
  7 20  1  0  0  0  0
  8 21  1  0  0  0  0
  8 22  1  0  0  0  0
  8 23  1  0  0  0  0
M  END
> <PUBCHEM_COMPOUND_CID>
12371

> <PUBCHEM_CONFORMER_RMSD>
0.6

> <PUBCHEM_CONFORMER_DIVERSEORDER>
1
26
29
68
67
76
40
2
66
22
36
15
38
32
35
28
64
37
42
8
74
34
4
51
55
71
10
21
57
5
52
46
31
30
44
49
53
41
7
73
75
20
3
59
72
70
62
48
14
65
9
69
56
63
61
33
13
43
27
60
47
6
17
24
23
39
25
45
11
18
54
50
58
12
19
16

> <PUBCHEM_MMFF94_PARTIAL_CHARGES>
2
1 -0.29
7 0.29

> <PUBCHEM_EFFECTIVE_ROTOR_COUNT>
5

> <PUBCHEM_PHARMACOPHORE_FEATURES>
2
1 8 hydrophobe
5 2 3 4 5 6 hydrophobe

> <PUBCHEM_HEAVY_ATOM_COUNT>
8

> <PUBCHEM_ATOM_DEF_STEREO_COUNT>
0

> <PUBCHEM_ATOM_UDEF_STEREO_COUNT>
0

> <PUBCHEM_BOND_DEF_STEREO_COUNT>
0

> <PUBCHEM_BOND_UDEF_STEREO_COUNT>
0

> <PUBCHEM_ISOTOPIC_ATOM_COUNT>
0

> <PUBCHEM_COMPONENT_COUNT>
1

> <PUBCHEM_CACTVS_TAUTO_COUNT>
1

> <PUBCHEM_CONFORMER_ID>
0000305300000001

> <PUBCHEM_MMFF94_ENERGY>
-2.9515

> <PUBCHEM_FEATURE_SELFOVERLAP>
10.149

> <PUBCHEM_SHAPE_FINGERPRINT>
11062470 55 18410855468770856896
14123238 8 18411138026037121686
14325111 11 18410574015253242926
17834076 25 17240482507255372026
18342897 14 17894910741322893465
190213 19 16559028307041240595
20645477 70 18261108642784676254
20719005 15 18410855460154568042
22485316 2 18273218603264119947
23402539 116 17846505824653179351
42788 4 18410575089000335173

> <PUBCHEM_SHAPE_MULTIPOLES>
166.51
9.42
0.81
0.62
0.77
0
0
-0.3
-0.11
0.07
0
0.02
0
0.01

> <PUBCHEM_SHAPE_SELFOVERLAP>
279.301

> <PUBCHEM_SHAPE_VOLUME>
113.1

> <PUBCHEM_COORDINATE_TYPE>
2
5
10

$$$$

