45479245
  -OEChem-07051213023D

 60 62  0     1  0  0  0  0  0999 V2000
    0.3054    3.5757   -0.7938 P   0  0  2  0  0  0  0  0  0  0  0  0
    2.5532    1.7858   -1.4273 P   0  0  1  0  0  0  0  0  0  0  0  0
   -3.2125    1.3775    0.3888 O   0  0  0  0  0  0  0  0  0  0  0  0
    1.6352   -0.7554    0.9651 O   0  0  0  0  0  0  0  0  0  0  0  0
   -3.9220    1.5522    3.3617 O   0  0  0  0  0  0  0  0  0  0  0  0
   -1.1217    3.1674   -0.1505 O   0  0  0  0  0  0  0  0  0  0  0  0
    2.8484    0.3495   -0.7520 O   0  0  0  0  0  0  0  0  0  0  0  0
    3.5605   -3.8928    0.9142 O   0  0  0  0  0  0  0  0  0  0  0  0
    5.4616   -1.9882    1.9474 O   0  0  0  0  0  0  0  0  0  0  0  0
    1.0448    2.1495   -0.9735 O   0  0  0  0  0  0  0  0  0  0  0  0
   -4.5738   -2.5206    0.2825 O   0  0  0  0  0  0  0  0  0  0  0  0
    1.1089    4.2491    0.4382 O   0  0  0  0  0  0  0  0  0  0  0  0
    3.4563    2.8275   -0.5806 O   0  0  0  0  0  0  0  0  0  0  0  0
    0.2432    4.4084   -2.0407 O   0  0  0  0  0  0  0  0  0  0  0  0
    2.7783    1.8349   -2.9108 O   0  0  0  0  0  0  0  0  0  0  0  0
   -1.5313   -3.3443   -3.0661 O   0  0  0  0  0  0  0  0  0  0  0  0
   -2.9748   -0.8815   -0.1726 N   0  0  0  0  0  0  0  0  0  0  0  0
   -3.0503   -2.9185   -1.3851 N   0  0  0  0  0  0  0  0  0  0  0  0
   -2.6901    1.2756    2.6992 C   0  0  2  0  0  0  0  0  0  0  0  0
   -2.5755    2.1264    1.4421 C   0  0  1  0  0  0  0  0  0  0  0  0
   -2.7088   -0.1350    2.1572 C   0  0  0  0  0  0  0  0  0  0  0  0
   -3.4351    0.0315    0.8323 C   0  0  1  0  0  0  0  0  0  0  0  0
    3.2107   -2.5785    1.3411 C   0  0  1  0  0  0  0  0  0  0  0  0
    4.3843   -1.6330    1.0834 C   0  0  1  0  0  0  0  0  0  0  0  0
    1.9518   -2.1029    0.6064 C   0  0  1  0  0  0  0  0  0  0  0  0
    3.9765   -0.1858    1.3536 C   0  0  0  0  0  0  0  0  0  0  0  0
   -1.1320    2.3812    1.0283 C   0  0  0  0  0  0  0  0  0  0  0  0
    2.6709    0.1780    0.6510 C   0  0  2  0  0  0  0  0  0  0  0  0
    0.7414   -2.9645    0.9536 C   0  0  0  0  0  0  0  0  0  0  0  0
   -1.8863   -0.5136   -0.9540 C   0  0  0  0  0  0  0  0  0  0  0  0
   -3.6049   -2.1291   -0.3716 C   0  0  0  0  0  0  0  0  0  0  0  0
   -1.3580   -1.2714   -1.9228 C   0  0  0  0  0  0  0  0  0  0  0  0
   -1.9680   -2.6008   -2.1917 C   0  0  0  0  0  0  0  0  0  0  0  0
   -0.1866   -0.8542   -2.7529 C   0  0  0  0  0  0  0  0  0  0  0  0
   -1.8835    1.4415    3.4195 H   0  0  0  0  0  0  0  0  0  0  0  0
   -3.1144    3.0765    1.5274 H   0  0  0  0  0  0  0  0  0  0  0  0
   -3.2179   -0.8538    2.8070 H   0  0  0  0  0  0  0  0  0  0  0  0
   -1.6813   -0.4865    2.0030 H   0  0  0  0  0  0  0  0  0  0  0  0
   -4.5153   -0.0899    0.9763 H   0  0  0  0  0  0  0  0  0  0  0  0
    3.0240   -2.6303    2.4209 H   0  0  0  0  0  0  0  0  0  0  0  0
    4.7418   -1.7462    0.0529 H   0  0  0  0  0  0  0  0  0  0  0  0
    2.0978   -2.1607   -0.4798 H   0  0  0  0  0  0  0  0  0  0  0  0
    4.7856    0.4873    1.0468 H   0  0  0  0  0  0  0  0  0  0  0  0
    3.8524   -0.0583    2.4371 H   0  0  0  0  0  0  0  0  0  0  0  0
   -0.6320    2.9355    1.8288 H   0  0  0  0  0  0  0  0  0  0  0  0
   -0.5771    1.4546    0.8650 H   0  0  0  0  0  0  0  0  0  0  0  0
    2.3359    1.1312    1.0745 H   0  0  0  0  0  0  0  0  0  0  0  0
    0.5417   -2.9399    2.0306 H   0  0  0  0  0  0  0  0  0  0  0  0
    0.8857   -4.0049    0.6478 H   0  0  0  0  0  0  0  0  0  0  0  0
   -0.1579   -2.5818    0.4644 H   0  0  0  0  0  0  0  0  0  0  0  0
   -3.8929    2.4794    3.6533 H   0  0  0  0  0  0  0  0  0  0  0  0
   -1.4415    0.4510   -0.7705 H   0  0  0  0  0  0  0  0  0  0  0  0
    3.7151   -3.8641   -0.0454 H   0  0  0  0  0  0  0  0  0  0  0  0
    6.1919   -1.3702    1.7729 H   0  0  0  0  0  0  0  0  0  0  0  0
   -3.4881   -3.8213   -1.5461 H   0  0  0  0  0  0  0  0  0  0  0  0
   -0.4382   -0.8938   -3.8178 H   0  0  0  0  0  0  0  0  0  0  0  0
    0.1285    0.1688   -2.5309 H   0  0  0  0  0  0  0  0  0  0  0  0
    0.6657   -1.5167   -2.5722 H   0  0  0  0  0  0  0  0  0  0  0  0
    1.2981    3.7201    1.2417 H   0  0  0  0  0  0  0  0  0  0  0  0
    3.5372    3.7519   -0.8984 H   0  0  0  0  0  0  0  0  0  0  0  0
  1  6  1  0  0  0  0
  1 10  1  0  0  0  0
  1 12  1  0  0  0  0
  1 14  2  0  0  0  0
  2  7  1  0  0  0  0
  2 10  1  0  0  0  0
  2 13  1  0  0  0  0
  2 15  2  0  0  0  0
  3 20  1  0  0  0  0
  3 22  1  0  0  0  0
  4 25  1  0  0  0  0
  4 28  1  0  0  0  0
  5 19  1  0  0  0  0
  5 51  1  0  0  0  0
  6 27  1  0  0  0  0
  7 28  1  0  0  0  0
  8 23  1  0  0  0  0
  8 53  1  0  0  0  0
  9 24  1  0  0  0  0
  9 54  1  0  0  0  0
 11 31  2  0  0  0  0
 12 59  1  0  0  0  0
 13 60  1  0  0  0  0
 16 33  2  0  0  0  0
 17 22  1  0  0  0  0
 17 30  1  0  0  0  0
 17 31  1  0  0  0  0
 18 31  1  0  0  0  0
 18 33  1  0  0  0  0
 18 55  1  0  0  0  0
 19 20  1  0  0  0  0
 19 21  1  0  0  0  0
 19 35  1  0  0  0  0
 20 27  1  0  0  0  0
 20 36  1  0  0  0  0
 21 22  1  0  0  0  0
 21 37  1  0  0  0  0
 21 38  1  0  0  0  0
 22 39  1  0  0  0  0
 23 24  1  0  0  0  0
 23 25  1  0  0  0  0
 23 40  1  0  0  0  0
 24 26  1  0  0  0  0
 24 41  1  0  0  0  0
 25 29  1  0  0  0  0
 25 42  1  0  0  0  0
 26 28  1  0  0  0  0
 26 43  1  0  0  0  0
 26 44  1  0  0  0  0
 27 45  1  0  0  0  0
 27 46  1  0  0  0  0
 28 47  1  0  0  0  0
 29 48  1  0  0  0  0
 29 49  1  0  0  0  0
 29 50  1  0  0  0  0
 30 32  2  0  0  0  0
 30 52  1  0  0  0  0
 32 33  1  0  0  0  0
 32 34  1  0  0  0  0
 34 56  1  0  0  0  0
 34 57  1  0  0  0  0
 34 58  1  0  0  0  0
M  END
> <PUBCHEM_COMPOUND_CID>
45479245

> <PUBCHEM_CONFORMER_RMSD>
1.4

> <PUBCHEM_CONFORMER_DIVERSEORDER>
1
9
61
2
89
93
54
59
20
140
19
110
88
63
94
83
136
105
27
47
139
78
100
72
37
85
118
48
84
31
138
126
71
91
40
130
121
68
108
117
3
50
107
104
29
112
60
75
111
65
81
39
134
131
64
80
8
128
116
115
11
119
16
76
62
41
46
32
74
98
133
113
55
26
38
82
13
96
141
43
90
92
99
23
137
49
135
87
109
86
125
106
53
18
45
30
142
97
123
25
124
129
22
44
51
24
17
114
69
122
73
52
70
15
42
4
101
7
6
102
67
34
66
35
57
12
28
14
132
79
33
21
58
95
56
103
36
127
10
120
5
77

> <PUBCHEM_MMFF94_PARTIAL_CHARGES>
38
1 1.51
10 -0.54
11 -0.57
12 -0.77
13 -0.77
14 -0.7
15 -0.7
16 -0.57
17 -0.47
18 -0.49
19 0.28
2 1.51
20 0.28
22 0.58
23 0.28
24 0.28
25 0.28
27 0.28
28 0.56
3 -0.56
30 -0.04
31 0.69
32 -0.12
33 0.62
34 0.14
4 -0.56
5 -0.68
51 0.4
52 0.15
53 0.4
54 0.4
55 0.37
59 0.5
6 -0.55
60 0.5
7 -0.55
8 -0.68
9 -0.68

> <PUBCHEM_EFFECTIVE_ROTOR_COUNT>
10.2

> <PUBCHEM_PHARMACOPHORE_FEATURES>
18
1 11 acceptor
1 12 acceptor
1 13 acceptor
1 14 acceptor
1 15 acceptor
1 16 acceptor
1 18 donor
1 3 acceptor
1 4 acceptor
1 5 acceptor
1 5 donor
1 8 acceptor
1 8 donor
1 9 acceptor
1 9 donor
5 3 19 20 21 22 rings
6 17 18 30 31 32 33 rings
6 4 23 24 25 26 28 rings

> <PUBCHEM_HEAVY_ATOM_COUNT>
34

> <PUBCHEM_ATOM_DEF_STEREO_COUNT>
7

> <PUBCHEM_ATOM_UDEF_STEREO_COUNT>
0

> <PUBCHEM_BOND_DEF_STEREO_COUNT>
0

> <PUBCHEM_BOND_UDEF_STEREO_COUNT>
0

> <PUBCHEM_ISOTOPIC_ATOM_COUNT>
0

> <PUBCHEM_COMPONENT_COUNT>
1

> <PUBCHEM_CACTVS_TAUTO_COUNT>
3

> <PUBCHEM_CONFORMER_ID>
02B5F54D00000001

> <PUBCHEM_MMFF94_ENERGY>
36.7098

> <PUBCHEM_FEATURE_SELFOVERLAP>
91.368

> <PUBCHEM_SHAPE_FINGERPRINT>
10721379 63 16092963775513457695
11014199 57 18341334478244961442
11445158 3 16339451252424423036
12539773 59 18043239159499063139
12788726 201 17897155815508183619
13726171 33 17315049109313395880
13965767 371 17827063310472636307
14114207 22 14972928079113666057
14725015 67 15595288386647352279
14856354 85 18200579423932614690
15297060 5 17025397172216799059
15403338 16 17845073216873627241
19319366 153 17616817630730649623
21133410 90 17460631111111274749
238 59 17628365869860373301
238918 7 17039519557045993102
35225 105 17026034935999989989
469060 322 18342468027540864384
474144 1 18266735792702226687
86090 222 15093130392434712151

> <PUBCHEM_SHAPE_MULTIPOLES>
615.27
8.1
5.57
3.03
3.92
2.56
-0.62
-4.72
4.87
0.85
-1.94
-1.28
-0.15
-4.75

> <PUBCHEM_SHAPE_SELFOVERLAP>
1248.483

> <PUBCHEM_SHAPE_VOLUME>
359.3

> <PUBCHEM_COORDINATE_TYPE>
2
5
10

$$$$

