6632
  -OEChem-06261201253D

 34 34  0     1  0  0  0  0  0999 V2000
    0.9031   -0.7565    0.6959 O   0  0  0  0  0  0  0  0  0  0  0  0
    2.1444   -1.0420   -1.2315 O   0  0  0  0  0  0  0  0  0  0  0  0
    0.2352    0.3639    0.1068 C   0  0  1  0  0  0  0  0  0  0  0  0
   -0.7429    0.9363    1.1506 C   0  0  0  0  0  0  0  0  0  0  0  0
    1.2953    1.4135   -0.2387 C   0  0  0  0  0  0  0  0  0  0  0  0
   -1.9929    0.0650    1.2814 C   0  0  0  0  0  0  0  0  0  0  0  0
   -2.7388   -0.0401   -0.0601 C   0  0  1  0  0  0  0  0  0  0  0  0
   -0.4722   -0.1168   -1.1350 C   0  0  0  0  0  0  0  0  0  0  0  0
   -1.8010   -0.2770   -1.2158 C   0  0  0  0  0  0  0  0  0  0  0  0
    0.6559    2.6028   -0.9487 C   0  0  0  0  0  0  0  0  0  0  0  0
    2.0275    1.8661    1.0210 C   0  0  0  0  0  0  0  0  0  0  0  0
   -3.7989   -1.1394    0.0153 C   0  0  0  0  0  0  0  0  0  0  0  0
    1.8360   -1.3638   -0.0920 C   0  0  0  0  0  0  0  0  0  0  0  0
    2.4494   -2.5119    0.6508 C   0  0  0  0  0  0  0  0  0  0  0  0
   -1.0826    1.9479    0.9120 H   0  0  0  0  0  0  0  0  0  0  0  0
   -0.2731    0.9713    2.1412 H   0  0  0  0  0  0  0  0  0  0  0  0
    2.0665    1.0616   -0.9253 H   0  0  0  0  0  0  0  0  0  0  0  0
   -1.7042   -0.9326    1.6382 H   0  0  0  0  0  0  0  0  0  0  0  0
   -2.6601    0.4883    2.0422 H   0  0  0  0  0  0  0  0  0  0  0  0
   -3.2527    0.9116   -0.2495 H   0  0  0  0  0  0  0  0  0  0  0  0
    0.0921   -0.2952   -2.0462 H   0  0  0  0  0  0  0  0  0  0  0  0
   -2.2341   -0.5709   -2.1686 H   0  0  0  0  0  0  0  0  0  0  0  0
    1.4425    3.2944   -1.2761 H   0  0  0  0  0  0  0  0  0  0  0  0
    0.1074    2.3167   -1.8509 H   0  0  0  0  0  0  0  0  0  0  0  0
   -0.0075    3.1904   -0.3088 H   0  0  0  0  0  0  0  0  0  0  0  0
    2.4617    1.0284    1.5752 H   0  0  0  0  0  0  0  0  0  0  0  0
    1.3879    2.4389    1.6998 H   0  0  0  0  0  0  0  0  0  0  0  0
    2.8575    2.5289    0.7479 H   0  0  0  0  0  0  0  0  0  0  0  0
   -3.3455   -2.1241    0.1762 H   0  0  0  0  0  0  0  0  0  0  0  0
   -4.4962   -0.9492    0.8383 H   0  0  0  0  0  0  0  0  0  0  0  0
   -4.3826   -1.1865   -0.9108 H   0  0  0  0  0  0  0  0  0  0  0  0
    1.6781   -3.2432    0.9050 H   0  0  0  0  0  0  0  0  0  0  0  0
    2.9463   -2.1459    1.5528 H   0  0  0  0  0  0  0  0  0  0  0  0
    3.1948   -2.9983    0.0150 H   0  0  0  0  0  0  0  0  0  0  0  0
  1  3  1  0  0  0  0
  1 13  1  0  0  0  0
  2 13  2  0  0  0  0
  3  4  1  0  0  0  0
  3  5  1  0  0  0  0
  3  8  1  0  0  0  0
  4  6  1  0  0  0  0
  4 15  1  0  0  0  0
  4 16  1  0  0  0  0
  5 10  1  0  0  0  0
  5 11  1  0  0  0  0
  5 17  1  0  0  0  0
  6  7  1  0  0  0  0
  6 18  1  0  0  0  0
  6 19  1  0  0  0  0
  7  9  1  0  0  0  0
  7 12  1  0  0  0  0
  7 20  1  0  0  0  0
  8  9  2  0  0  0  0
  8 21  1  0  0  0  0
  9 22  1  0  0  0  0
 10 23  1  0  0  0  0
 10 24  1  0  0  0  0
 10 25  1  0  0  0  0
 11 26  1  0  0  0  0
 11 27  1  0  0  0  0
 11 28  1  0  0  0  0
 12 29  1  0  0  0  0
 12 30  1  0  0  0  0
 12 31  1  0  0  0  0
 13 14  1  0  0  0  0
 14 32  1  0  0  0  0
 14 33  1  0  0  0  0
 14 34  1  0  0  0  0
M  END
> <PUBCHEM_COMPOUND_CID>
6632

> <PUBCHEM_CONFORMER_RMSD>
0.6

> <PUBCHEM_CONFORMER_DIVERSEORDER>
1
9
3
8
12
7
10
6
5
4
11
2

> <PUBCHEM_MMFF94_PARTIAL_CHARGES>
10
1 -0.43
13 0.66
14 0.06
2 -0.57
21 0.15
22 0.15
3 0.42
7 0.14
8 -0.29
9 -0.29

> <PUBCHEM_EFFECTIVE_ROTOR_COUNT>
3.8

> <PUBCHEM_PHARMACOPHORE_FEATURES>
3
1 2 acceptor
3 5 10 11 hydrophobe
6 3 4 6 7 8 9 rings

> <PUBCHEM_HEAVY_ATOM_COUNT>
14

> <PUBCHEM_ATOM_DEF_STEREO_COUNT>
0

> <PUBCHEM_ATOM_UDEF_STEREO_COUNT>
2

> <PUBCHEM_BOND_DEF_STEREO_COUNT>
0

> <PUBCHEM_BOND_UDEF_STEREO_COUNT>
0

> <PUBCHEM_ISOTOPIC_ATOM_COUNT>
0

> <PUBCHEM_COMPONENT_COUNT>
1

> <PUBCHEM_CACTVS_TAUTO_COUNT>
1

> <PUBCHEM_CONFORMER_ID>
000019E800000001

> <PUBCHEM_MMFF94_ENERGY>
32.5604

> <PUBCHEM_FEATURE_SELFOVERLAP>
15.223

> <PUBCHEM_SHAPE_FINGERPRINT>
1 1 18195253208769991980
12202030 40 17631998793796678939
12326174 3 18201733811934745928
12423570 1 10860090567780413864
13024252 1 16768710852520933722
13380536 127 16950829346077961457
14817 1 16031771494750203621
15906896 17 17193186163903780321
16945 1 18199179603531745273
19786989 88 17914342264555415317
20361792 2 18338238296281726271
20559304 39 17530677697822207603
20645477 70 18334579006432910087
20653091 64 18334568040563257843
21061003 4 18266748054707515986
22344851 341 18120377553587545590
23419403 2 16409345248339181290
23526113 38 17489582398198216371
23552423 10 18336822005378018357
23728640 28 16541036199381085114
2748010 2 18269575964117189733
305870 269 18190469267921407872
3250762 1 18124338230947443984
528862 383 18334580088083751127
7364860 26 17895189965784116016
81228 2 17689156029572076032

> <PUBCHEM_SHAPE_MULTIPOLES>
276.37
4.28
2.39
1.32
3.31
0.1
0.02
-2.04
-0.32
-2.43
-0.02
0.06
0.19
-0.08

> <PUBCHEM_SHAPE_SELFOVERLAP>
554.839

> <PUBCHEM_SHAPE_VOLUME>
161.6

> <PUBCHEM_COORDINATE_TYPE>
2
5
10

$$$$

