10873133
  -OEChem-07051213032D

 54 55  0     1  0  0  0  0  0999 V2000
    5.4641   -2.3450    0.0000 O   0  0  0  0  0  0  0  0  0  0  0  0
    5.4641    3.6550    0.0000 O   0  0  0  0  0  0  0  0  0  0  0  0
    4.5981   -3.8450    0.0000 O   0  0  0  0  0  0  0  0  0  0  0  0
    4.5981   -5.8450    0.0000 O   0  0  0  0  0  0  0  0  0  0  0  0
    4.5981    5.1550    0.0000 O   0  0  0  0  0  0  0  0  0  0  0  0
    2.8660    6.1550    0.0000 O   0  0  0  0  0  0  0  0  0  0  0  0
    7.1962   -2.3450    0.0000 N   0  0  0  0  0  0  0  0  0  0  0  0
    4.5981    2.1550    0.0000 N   0  0  0  0  0  0  0  0  0  0  0  0
    8.0622    0.1550    0.0000 N   0  0  0  0  0  0  0  0  0  0  0  0
    7.1962   -1.3450    0.0000 C   0  0  1  0  0  0  0  0  0  0  0  0
    6.3301   -0.8450    0.0000 C   0  0  0  0  0  0  0  0  0  0  0  0
    6.3301    0.1550    0.0000 C   0  0  0  0  0  0  0  0  0  0  0  0
    5.4641    0.6550    0.0000 C   0  0  0  0  0  0  0  0  0  0  0  0
    8.0622   -0.8450    0.0000 C   0  0  0  0  0  0  0  0  0  0  0  0
    5.4641    1.6550    0.0000 C   0  0  0  0  0  0  0  0  0  0  0  0
    6.3301   -2.8450    0.0000 C   0  0  0  0  0  0  0  0  0  0  0  0
    6.3301   -3.8450    0.0000 C   0  0  0  0  0  0  0  0  0  0  0  0
    4.5981    3.1550    0.0000 C   0  0  0  0  0  0  0  0  0  0  0  0
    5.4641   -4.3450    0.0000 C   0  0  0  0  0  0  0  0  0  0  0  0
    3.7320    3.6550    0.0000 C   0  0  0  0  0  0  0  0  0  0  0  0
    7.1962   -4.3450    0.0000 C   0  0  0  0  0  0  0  0  0  0  0  0
    5.4641   -5.3450    0.0000 C   0  0  0  0  0  0  0  0  0  0  0  0
    7.1962   -5.3450    0.0000 C   0  0  0  0  0  0  0  0  0  0  0  0
    3.7320    4.6550    0.0000 C   0  0  0  0  0  0  0  0  0  0  0  0
    2.8660    3.1550    0.0000 C   0  0  0  0  0  0  0  0  0  0  0  0
    6.3301   -5.8450    0.0000 C   0  0  0  0  0  0  0  0  0  0  0  0
    2.8660    5.1550    0.0000 C   0  0  0  0  0  0  0  0  0  0  0  0
    2.0000    3.6550    0.0000 C   0  0  0  0  0  0  0  0  0  0  0  0
    2.0000    4.6550    0.0000 C   0  0  0  0  0  0  0  0  0  0  0  0
    6.6592   -1.6550    0.0000 H   0  0  0  0  0  0  0  0  0  0  0  0
    5.7196   -0.7373    0.0000 H   0  0  0  0  0  0  0  0  0  0  0  0
    6.1181   -1.4276    0.0000 H   0  0  0  0  0  0  0  0  0  0  0  0
    6.9407    0.0473    0.0000 H   0  0  0  0  0  0  0  0  0  0  0  0
    6.5422    0.7376    0.0000 H   0  0  0  0  0  0  0  0  0  0  0  0
    4.8535    0.7627    0.0000 H   0  0  0  0  0  0  0  0  0  0  0  0
    5.2520    0.0724    0.0000 H   0  0  0  0  0  0  0  0  0  0  0  0
    8.2742   -1.4276    0.0000 H   0  0  0  0  0  0  0  0  0  0  0  0
    8.6728   -0.7373    0.0000 H   0  0  0  0  0  0  0  0  0  0  0  0
    6.0747    1.5473    0.0000 H   0  0  0  0  0  0  0  0  0  0  0  0
    5.6762    2.2376    0.0000 H   0  0  0  0  0  0  0  0  0  0  0  0
    7.7331   -2.6550    0.0000 H   0  0  0  0  0  0  0  0  0  0  0  0
    4.0611    1.8450    0.0000 H   0  0  0  0  0  0  0  0  0  0  0  0
    8.5991    0.4650    0.0000 H   0  0  0  0  0  0  0  0  0  0  0  0
    7.5252    0.4650    0.0000 H   0  0  0  0  0  0  0  0  0  0  0  0
    7.7331   -4.0350    0.0000 H   0  0  0  0  0  0  0  0  0  0  0  0
    7.7331   -5.6550    0.0000 H   0  0  0  0  0  0  0  0  0  0  0  0
    2.8660    2.5350    0.0000 H   0  0  0  0  0  0  0  0  0  0  0  0
    6.3301   -6.4650    0.0000 H   0  0  0  0  0  0  0  0  0  0  0  0
    1.4631    3.3450    0.0000 H   0  0  0  0  0  0  0  0  0  0  0  0
    1.4631    4.9650    0.0000 H   0  0  0  0  0  0  0  0  0  0  0  0
    4.0611   -4.1550    0.0000 H   0  0  0  0  0  0  0  0  0  0  0  0
    4.5981   -6.4650    0.0000 H   0  0  0  0  0  0  0  0  0  0  0  0
    4.5981    5.7750    0.0000 H   0  0  0  0  0  0  0  0  0  0  0  0
    2.3291    6.4650    0.0000 H   0  0  0  0  0  0  0  0  0  0  0  0
  1 16  2  0  0  0  0
  2 18  2  0  0  0  0
  3 19  1  0  0  0  0
  3 51  1  0  0  0  0
  4 22  1  0  0  0  0
  4 52  1  0  0  0  0
  5 24  1  0  0  0  0
  5 53  1  0  0  0  0
  6 27  1  0  0  0  0
  6 54  1  0  0  0  0
 10  7  1  1  0  0  0
  7 16  1  0  0  0  0
  7 41  1  0  0  0  0
  8 15  1  0  0  0  0
  8 18  1  0  0  0  0
  8 42  1  0  0  0  0
  9 14  1  0  0  0  0
  9 43  1  0  0  0  0
  9 44  1  0  0  0  0
 10 11  1  0  0  0  0
 10 14  1  0  0  0  0
 10 30  1  0  0  0  0
 11 12  1  0  0  0  0
 11 31  1  0  0  0  0
 11 32  1  0  0  0  0
 12 13  1  0  0  0  0
 12 33  1  0  0  0  0
 12 34  1  0  0  0  0
 13 15  1  0  0  0  0
 13 35  1  0  0  0  0
 13 36  1  0  0  0  0
 14 37  1  0  0  0  0
 14 38  1  0  0  0  0
 15 39  1  0  0  0  0
 15 40  1  0  0  0  0
 16 17  1  0  0  0  0
 17 19  2  0  0  0  0
 17 21  1  0  0  0  0
 18 20  1  0  0  0  0
 19 22  1  0  0  0  0
 20 24  2  0  0  0  0
 20 25  1  0  0  0  0
 21 23  2  0  0  0  0
 21 45  1  0  0  0  0
 22 26  2  0  0  0  0
 23 26  1  0  0  0  0
 23 46  1  0  0  0  0
 24 27  1  0  0  0  0
 25 28  2  0  0  0  0
 25 47  1  0  0  0  0
 26 48  1  0  0  0  0
 27 29  2  0  0  0  0
 28 29  1  0  0  0  0
 28 49  1  0  0  0  0
 29 50  1  0  0  0  0
M  END
> <PUBCHEM_COMPOUND_CID>
10873133

> <PUBCHEM_COMPOUND_CANONICALIZED>
1

> <PUBCHEM_CACTVS_COMPLEXITY>
534

> <PUBCHEM_CACTVS_HBOND_ACCEPTOR>
7

> <PUBCHEM_CACTVS_HBOND_DONOR>
7

> <PUBCHEM_CACTVS_ROTATABLE_BOND>
9

> <PUBCHEM_CACTVS_SUBSKEYS>
AAADceB7OAAAAAAAAAAAAAAAAAAAAAAAAAAwYAAAAAAAAAABQAAAHgAQCAAADCzBmAQwBoLAAgCIAiFSEACCAAAkIAAIiIEOjMgJZjaClROUcUlm9hGJmYe6yDCOAAABAAAIQAAAAAIAABCAAAAAAAAAAA==

> <PUBCHEM_IUPAC_OPENEYE_NAME>
N-[(5S)-6-amino-5-[(2,3-dihydroxybenzoyl)amino]hexyl]-2,3-dihydroxy-benzamide

> <PUBCHEM_IUPAC_CAS_NAME>
N-[(5S)-6-amino-5-[[(2,3-dihydroxyphenyl)-oxomethyl]amino]hexyl]-2,3-dihydroxybenzamide

> <PUBCHEM_IUPAC_NAME>
N-[(5S)-6-amino-5-[(2,3-dihydroxybenzoyl)amino]hexyl]-2,3-dihydroxybenzamide

> <PUBCHEM_IUPAC_SYSTEMATIC_NAME>
N-[(5S)-6-azanyl-5-[[2,3-bis(oxidanyl)phenyl]carbonylamino]hexyl]-2,3-bis(oxidanyl)benzamide

> <PUBCHEM_IUPAC_TRADITIONAL_NAME>
N-[(5S)-6-amino-5-[(2,3-dihydroxybenzoyl)amino]hexyl]-2,3-dihydroxy-benzamide

> <PUBCHEM_IUPAC_INCHI>
InChI=1S/C20H25N3O6/c21-11-12(23-20(29)14-7-4-9-16(25)18(14)27)5-1-2-10-22-19(28)13-6-3-8-15(24)17(13)26/h3-4,6-9,12,24-27H,1-2,5,10-11,21H2,(H,22,28)(H,23,29)/t12-/m0/s1

> <PUBCHEM_IUPAC_INCHIKEY>
QTARRKFUMCSVOF-LBPRGKRZSA-N

> <PUBCHEM_XLOGP3_AA>
2.1

> <PUBCHEM_EXACT_MASS>
403.174336

> <PUBCHEM_MOLECULAR_FORMULA>
C20H25N3O6

> <PUBCHEM_MOLECULAR_WEIGHT>
403.429

> <PUBCHEM_OPENEYE_CAN_SMILES>
C1=CC(=C(C(=C1)O)O)C(=O)NCCCCC(CN)NC(=O)C2=C(C(=CC=C2)O)O

> <PUBCHEM_OPENEYE_ISO_SMILES>
C1=CC(=C(C(=C1)O)O)C(=O)NCCCC[C@@H](CN)NC(=O)C2=C(C(=CC=C2)O)O

> <PUBCHEM_CACTVS_TPSA>
165

> <PUBCHEM_MONOISOTOPIC_WEIGHT>
403.174336

> <PUBCHEM_TOTAL_CHARGE>
0

> <PUBCHEM_HEAVY_ATOM_COUNT>
29

> <PUBCHEM_ATOM_DEF_STEREO_COUNT>
1

> <PUBCHEM_ATOM_UDEF_STEREO_COUNT>
0

> <PUBCHEM_BOND_DEF_STEREO_COUNT>
0

> <PUBCHEM_BOND_UDEF_STEREO_COUNT>
0

> <PUBCHEM_ISOTOPIC_ATOM_COUNT>
0

> <PUBCHEM_COMPONENT_COUNT>
1

> <PUBCHEM_CACTVS_TAUTO_COUNT>
513

> <PUBCHEM_COORDINATE_TYPE>
1
5
255

> <PUBCHEM_BONDANNOTATIONS>
17  19  8
17  21  8
19  22  8
20  24  8
20  25  8
21  23  8
22  26  8
23  26  8
24  27  8
25  28  8
27  29  8
28  29  8
10  7  5

$$$$

