11926
  -OEChem-06261206173D

 20 21  0     0  0  0  0  0  0999 V2000
   -0.6038   -1.6310    0.0000 N   0  0  0  0  0  0  0  0  0  0  0  0
    0.2394    0.6266    0.0000 C   0  0  0  0  0  0  0  0  0  0  0  0
    0.4322   -0.7708   -0.0001 C   0  0  0  0  0  0  0  0  0  0  0  0
   -2.1451    0.2273    0.0000 C   0  0  0  0  0  0  0  0  0  0  0  0
   -1.0756    1.1111   -0.0001 C   0  0  0  0  0  0  0  0  0  0  0  0
    1.3438    1.4954    0.0000 C   0  0  0  0  0  0  0  0  0  0  0  0
    1.7386   -1.2516    0.0000 C   0  0  0  0  0  0  0  0  0  0  0  0
   -1.8573   -1.1225    0.0000 C   0  0  0  0  0  0  0  0  0  0  0  0
   -3.5489    0.7163    0.0000 C   0  0  0  0  0  0  0  0  0  0  0  0
    2.6397    0.9872    0.0000 C   0  0  0  0  0  0  0  0  0  0  0  0
    2.8369   -0.3880    0.0000 C   0  0  0  0  0  0  0  0  0  0  0  0
   -1.2622    2.1833   -0.0016 H   0  0  0  0  0  0  0  0  0  0  0  0
    1.2005    2.5737    0.0001 H   0  0  0  0  0  0  0  0  0  0  0  0
    1.9201   -2.3249    0.0001 H   0  0  0  0  0  0  0  0  0  0  0  0
   -2.6454   -1.8693   -0.0017 H   0  0  0  0  0  0  0  0  0  0  0  0
   -4.2267   -0.0200    0.4450 H   0  0  0  0  0  0  0  0  0  0  0  0
   -3.6437    1.6360    0.5874 H   0  0  0  0  0  0  0  0  0  0  0  0
   -3.8779    0.9176   -1.0243 H   0  0  0  0  0  0  0  0  0  0  0  0
    3.4905    1.6615    0.0001 H   0  0  0  0  0  0  0  0  0  0  0  0
    3.8446   -0.7933    0.0000 H   0  0  0  0  0  0  0  0  0  0  0  0
  1  3  1  0  0  0  0
  1  8  2  0  0  0  0
  2  3  1  0  0  0  0
  2  5  1  0  0  0  0
  2  6  2  0  0  0  0
  3  7  2  0  0  0  0
  4  5  2  0  0  0  0
  4  8  1  0  0  0  0
  4  9  1  0  0  0  0
  5 12  1  0  0  0  0
  6 10  1  0  0  0  0
  6 13  1  0  0  0  0
  7 11  1  0  0  0  0
  7 14  1  0  0  0  0
  8 15  1  0  0  0  0
  9 16  1  0  0  0  0
  9 17  1  0  0  0  0
  9 18  1  0  0  0  0
 10 11  2  0  0  0  0
 10 19  1  0  0  0  0
 11 20  1  0  0  0  0
M  END
> <PUBCHEM_COMPOUND_CID>
11926

> <PUBCHEM_CONFORMER_RMSD>
0.4

> <PUBCHEM_CONFORMER_DIVERSEORDER>
1

> <PUBCHEM_MMFF94_PARTIAL_CHARGES>
16
1 -0.62
10 -0.15
11 -0.15
12 0.15
13 0.15
14 0.15
15 0.15
19 0.15
20 0.15
3 0.31
4 -0.14
5 -0.15
6 -0.15
7 -0.15
8 0.16
9 0.14

> <PUBCHEM_EFFECTIVE_ROTOR_COUNT>
0

> <PUBCHEM_PHARMACOPHORE_FEATURES>
3
1 1 acceptor
6 1 2 3 4 5 8 rings
6 2 3 6 7 10 11 rings

> <PUBCHEM_HEAVY_ATOM_COUNT>
11

> <PUBCHEM_ATOM_DEF_STEREO_COUNT>
0

> <PUBCHEM_ATOM_UDEF_STEREO_COUNT>
0

> <PUBCHEM_BOND_DEF_STEREO_COUNT>
0

> <PUBCHEM_BOND_UDEF_STEREO_COUNT>
0

> <PUBCHEM_ISOTOPIC_ATOM_COUNT>
0

> <PUBCHEM_COMPONENT_COUNT>
1

> <PUBCHEM_CACTVS_TAUTO_COUNT>
1

> <PUBCHEM_CONFORMER_ID>
00002E9600000001

> <PUBCHEM_MMFF94_ENERGY>
31.2615

> <PUBCHEM_FEATURE_SELFOVERLAP>
15.254

> <PUBCHEM_SHAPE_FINGERPRINT>
11471102 20 18338803411272983701
12524768 44 18409443721610804326
12897270 3 18410292497390162916
12932764 1 14333134031020358384
13380535 76 18410014325153865879
14325111 11 18410855447491400609
15775835 57 18412821374102496644
16945 1 18410855485940163588
17844478 74 17988915691600716465
193761 8 17762336916360836993
19973954 147 18339358548353709384
20201158 50 18408886269257693830
21040471 1 18338516331121189568
21501502 16 18339082575209090406
23235685 24 18409736165944505833
23402655 69 18335432304754724845
23463225 33 18341897436988218554
23552423 10 18271806748808629302
23559900 14 18334565834210928812
2748010 2 18266457611675210166
369184 2 18410294687760108851
5084963 1 18187649149381475049
528886 8 18410016532772006120
53812653 166 18334582308745516640
7364860 26 18261677073168854506

> <PUBCHEM_SHAPE_MULTIPOLES>
221.39
4.53
1.63
0.61
1.41
0.15
0
-0.75
0
-0.22
0
0
-0.01
0

> <PUBCHEM_SHAPE_SELFOVERLAP>
484.682

> <PUBCHEM_SHAPE_VOLUME>
120.4

> <PUBCHEM_COORDINATE_TYPE>
2
5
10

$$$$

