9657
  -OEChem-06261203552D

 45 45  0     1  0  0  0  0  0999 V2000
    2.3100    0.5000    0.0000 O   0  0  0  0  0  0  0  0  0  0  0  0
    3.3100   -3.5000    0.0000 O   0  0  0  0  0  0  0  0  0  0  0  0
    4.1760    3.0000    0.0000 N   0  3  0  0  0  0  0  0  0  0  0  0
    4.1760    2.0000    0.0000 C   0  0  0  0  0  0  0  0  0  0  0  0
    3.3100    1.5000    0.0000 C   0  0  0  0  0  0  0  0  0  0  0  0
    3.3100    0.5000    0.0000 C   0  0  3  0  0  0  0  0  0  0  0  0
    4.1760    4.0000    0.0000 C   0  0  0  0  0  0  0  0  0  0  0  0
    5.1760    3.0000    0.0000 C   0  0  0  0  0  0  0  0  0  0  0  0
    3.1760    3.0000    0.0000 C   0  0  0  0  0  0  0  0  0  0  0  0
    3.3100   -0.5000    0.0000 C   0  0  0  0  0  0  0  0  0  0  0  0
    4.3100    0.5000    0.0000 C   0  0  0  0  0  0  0  0  0  0  0  0
    4.1760   -1.0000    0.0000 C   0  0  0  0  0  0  0  0  0  0  0  0
    2.4440   -1.0000    0.0000 C   0  0  0  0  0  0  0  0  0  0  0  0
    4.8100    1.3660    0.0000 C   0  0  0  0  0  0  0  0  0  0  0  0
    4.1760   -2.0000    0.0000 C   0  0  0  0  0  0  0  0  0  0  0  0
    2.4440   -2.0000    0.0000 C   0  0  0  0  0  0  0  0  0  0  0  0
    3.3100   -2.5000    0.0000 C   0  0  0  0  0  0  0  0  0  0  0  0
    5.8100    1.3660    0.0000 C   0  0  0  0  0  0  0  0  0  0  0  0
    2.4440   -4.0000    0.0000 C   0  0  0  0  0  0  0  0  0  0  0  0
    4.3881    1.4174    0.0000 H   0  0  0  0  0  0  0  0  0  0  0  0
    4.7866    2.1077    0.0000 H   0  0  0  0  0  0  0  0  0  0  0  0
    2.6994    1.3923    0.0000 H   0  0  0  0  0  0  0  0  0  0  0  0
    3.0979    2.0826    0.0000 H   0  0  0  0  0  0  0  0  0  0  0  0
    3.5560    4.0000    0.0000 H   0  0  0  0  0  0  0  0  0  0  0  0
    4.1760    4.6200    0.0000 H   0  0  0  0  0  0  0  0  0  0  0  0
    4.7960    4.0000    0.0000 H   0  0  0  0  0  0  0  0  0  0  0  0
    5.1760    3.6200    0.0000 H   0  0  0  0  0  0  0  0  0  0  0  0
    5.7960    3.0000    0.0000 H   0  0  0  0  0  0  0  0  0  0  0  0
    5.1760    2.3800    0.0000 H   0  0  0  0  0  0  0  0  0  0  0  0
    3.1760    2.3800    0.0000 H   0  0  0  0  0  0  0  0  0  0  0  0
    2.5560    3.0000    0.0000 H   0  0  0  0  0  0  0  0  0  0  0  0
    3.1760    3.6200    0.0000 H   0  0  0  0  0  0  0  0  0  0  0  0
    4.6200   -0.0369    0.0000 H   0  0  0  0  0  0  0  0  0  0  0  0
    2.0000    1.0369    0.0000 H   0  0  0  0  0  0  0  0  0  0  0  0
    4.7130   -0.6900    0.0000 H   0  0  0  0  0  0  0  0  0  0  0  0
    1.9070   -0.6900    0.0000 H   0  0  0  0  0  0  0  0  0  0  0  0
    4.5000    1.9030    0.0000 H   0  0  0  0  0  0  0  0  0  0  0  0
    4.7130   -2.3100    0.0000 H   0  0  0  0  0  0  0  0  0  0  0  0
    1.9070   -2.3100    0.0000 H   0  0  0  0  0  0  0  0  0  0  0  0
    5.8100    0.7460    0.0000 H   0  0  0  0  0  0  0  0  0  0  0  0
    6.4300    1.3660    0.0000 H   0  0  0  0  0  0  0  0  0  0  0  0
    5.8100    1.9860    0.0000 H   0  0  0  0  0  0  0  0  0  0  0  0
    2.1340   -3.4631    0.0000 H   0  0  0  0  0  0  0  0  0  0  0  0
    1.9070   -4.3100    0.0000 H   0  0  0  0  0  0  0  0  0  0  0  0
    2.7540   -4.5369    0.0000 H   0  0  0  0  0  0  0  0  0  0  0  0
  1  6  1  0  0  0  0
  1 34  1  0  0  0  0
  2 17  1  0  0  0  0
  2 19  1  0  0  0  0
  3  4  1  0  0  0  0
  3  7  1  0  0  0  0
  3  8  1  0  0  0  0
  3  9  1  0  0  0  0
  4  5  1  0  0  0  0
  4 20  1  0  0  0  0
  4 21  1  0  0  0  0
  5  6  1  0  0  0  0
  5 22  1  0  0  0  0
  5 23  1  0  0  0  0
  6 10  1  0  0  0  0
  6 11  1  0  0  0  0
  7 24  1  0  0  0  0
  7 25  1  0  0  0  0
  7 26  1  0  0  0  0
  8 27  1  0  0  0  0
  8 28  1  0  0  0  0
  8 29  1  0  0  0  0
  9 30  1  0  0  0  0
  9 31  1  0  0  0  0
  9 32  1  0  0  0  0
 10 12  2  0  0  0  0
 10 13  1  0  0  0  0
 11 14  2  3  0  0  0
 11 33  1  0  0  0  0
 12 15  1  0  0  0  0
 12 35  1  0  0  0  0
 13 16  2  0  0  0  0
 13 36  1  0  0  0  0
 14 18  1  0  0  0  0
 14 37  1  0  0  0  0
 15 17  2  0  0  0  0
 15 38  1  0  0  0  0
 16 17  1  0  0  0  0
 16 39  1  0  0  0  0
 18 40  1  0  0  0  0
 18 41  1  0  0  0  0
 18 42  1  0  0  0  0
 19 43  1  0  0  0  0
 19 44  1  0  0  0  0
 19 45  1  0  0  0  0
M  CHG  1   3   1
M  END
> <PUBCHEM_COMPOUND_CID>
9657

> <PUBCHEM_COMPOUND_CANONICALIZED>
1

> <PUBCHEM_CACTVS_COMPLEXITY>
288

> <PUBCHEM_CACTVS_HBOND_ACCEPTOR>
2

> <PUBCHEM_CACTVS_HBOND_DONOR>
1

> <PUBCHEM_CACTVS_ROTATABLE_BOND>
6

> <PUBCHEM_CACTVS_SUBSKEYS>
AAADceB6MAAAAAAAAAAAAAAAAAAAAAAAAAAwAAAAAAAAAAABAAAAHgAACAAADETBmAYyBoMABgCAAiBCAAACCAAgIAAIiAAOCIgMJiKEsRqEcCAmwBEIuAeQ4PwOoAAAAAAAAABAAAAAAAAAAAAAAAAAAA==

> <PUBCHEM_IUPAC_OPENEYE_NAME>
[3-hydroxy-3-(4-methoxyphenyl)hex-4-enyl]-trimethyl-ammonium

> <PUBCHEM_IUPAC_CAS_NAME>
[3-hydroxy-3-(4-methoxyphenyl)hex-4-enyl]-trimethylammonium

> <PUBCHEM_IUPAC_NAME>
[3-hydroxy-3-(4-methoxyphenyl)hex-4-enyl]-trimethylazanium

> <PUBCHEM_IUPAC_SYSTEMATIC_NAME>
[3-(4-methoxyphenyl)-3-oxidanyl-hex-4-enyl]-trimethyl-azanium

> <PUBCHEM_IUPAC_TRADITIONAL_NAME>
[3-hydroxy-3-(4-methoxyphenyl)hex-4-enyl]-trimethyl-ammonium

> <PUBCHEM_IUPAC_INCHI>
InChI=1S/C16H26NO2/c1-6-11-16(18,12-13-17(2,3)4)14-7-9-15(19-5)10-8-14/h6-11,18H,12-13H2,1-5H3/q+1

> <PUBCHEM_IUPAC_INCHIKEY>
UAROTAKMNMGTQW-UHFFFAOYSA-N

> <PUBCHEM_XLOGP3_AA>
2.3

> <PUBCHEM_EXACT_MASS>
264.196354

> <PUBCHEM_MOLECULAR_FORMULA>
C16H26NO2+

> <PUBCHEM_MOLECULAR_WEIGHT>
264.38314

> <PUBCHEM_OPENEYE_CAN_SMILES>
CC=CC(CC[N+](C)(C)C)(C1=CC=C(C=C1)OC)O

> <PUBCHEM_OPENEYE_ISO_SMILES>
CC=CC(CC[N+](C)(C)C)(C1=CC=C(C=C1)OC)O

> <PUBCHEM_CACTVS_TPSA>
29.5

> <PUBCHEM_MONOISOTOPIC_WEIGHT>
264.196354

> <PUBCHEM_TOTAL_CHARGE>
1

> <PUBCHEM_HEAVY_ATOM_COUNT>
19

> <PUBCHEM_ATOM_DEF_STEREO_COUNT>
0

> <PUBCHEM_ATOM_UDEF_STEREO_COUNT>
0

> <PUBCHEM_BOND_DEF_STEREO_COUNT>
0

> <PUBCHEM_BOND_UDEF_STEREO_COUNT>
1

> <PUBCHEM_ISOTOPIC_ATOM_COUNT>
0

> <PUBCHEM_COMPONENT_COUNT>
1

> <PUBCHEM_CACTVS_TAUTO_COUNT>
1

> <PUBCHEM_COORDINATE_TYPE>
1
5
255

> <PUBCHEM_BONDANNOTATIONS>
10  12  8
10  13  8
11  14  1
12  15  8
13  16  8
15  17  8
16  17  8

$$$$

