5282279
  -OEChem-07051213043D

 51 54  0     1  0  0  0  0  0999 V2000
   -5.6587   -1.5819   -1.7664 Cl  0  0  0  0  0  0  0  0  0  0  0  0
   -9.4765    1.7402    0.0481 Cl  0  0  0  0  0  0  0  0  0  0  0  0
    0.4118   -1.4222   -2.1785 O   0  0  0  0  0  0  0  0  0  0  0  0
   -1.4611   -1.7136    1.0774 O   0  0  0  0  0  0  0  0  0  0  0  0
    2.3334   -2.0926   -1.0536 N   0  0  0  0  0  0  0  0  0  0  0  0
    1.7112    0.7654   -0.2332 N   0  0  0  0  0  0  0  0  0  0  0  0
   -0.5309    0.0206   -0.1614 N   0  0  0  0  0  0  0  0  0  0  0  0
    3.2903   -1.8993    0.0018 C   0  0  0  0  0  0  0  0  0  0  0  0
    3.5574   -0.6403    0.5783 C   0  0  0  0  0  0  0  0  0  0  0  0
    0.8464   -0.3827   -0.0602 C   0  0  1  0  0  0  0  0  0  0  0  0
    2.9605    0.6245    0.0565 C   0  0  0  0  0  0  0  0  0  0  0  0
    1.1638   -1.3312   -1.2043 C   0  0  0  0  0  0  0  0  0  0  0  0
    3.8461    1.8045   -0.1626 C   0  0  0  0  0  0  0  0  0  0  0  0
    4.0185   -3.0046    0.4850 C   0  0  0  0  0  0  0  0  0  0  0  0
    4.4622   -0.5231    1.6491 C   0  0  0  0  0  0  0  0  0  0  0  0
    2.5632   -3.1899   -1.9941 C   0  0  0  0  0  0  0  0  0  0  0  0
    4.9307   -2.8769    1.5356 C   0  0  0  0  0  0  0  0  0  0  0  0
    5.1436   -1.6388    2.1254 C   0  0  0  0  0  0  0  0  0  0  0  0
    5.1808    1.6093   -0.4963 C   0  0  0  0  0  0  0  0  0  0  0  0
    3.3268    3.0866   -0.0304 C   0  0  0  0  0  0  0  0  0  0  0  0
   -1.5759   -0.6842    0.4203 C   0  0  0  0  0  0  0  0  0  0  0  0
    6.0089    2.7129   -0.7009 C   0  0  0  0  0  0  0  0  0  0  0  0
    4.1549    4.1903   -0.2351 C   0  0  0  0  0  0  0  0  0  0  0  0
    5.4960    4.0033   -0.5702 C   0  0  0  0  0  0  0  0  0  0  0  0
   -2.8962   -0.0434    0.1582 C   0  0  0  0  0  0  0  0  0  0  0  0
   -4.0149   -0.5875    0.6593 C   0  0  0  0  0  0  0  0  0  0  0  0
   -5.3689   -0.0367    0.4724 C   0  0  0  0  0  0  0  0  0  0  0  0
   -6.1744   -0.4271   -0.5869 C   0  0  0  0  0  0  0  0  0  0  0  0
   -5.8102    0.8929    1.4036 C   0  0  0  0  0  0  0  0  0  0  0  0
   -7.4491    0.1234   -0.7188 C   0  0  0  0  0  0  0  0  0  0  0  0
   -7.0851    1.4434    1.2717 C   0  0  0  0  0  0  0  0  0  0  0  0
   -7.9045    1.0587    0.2105 C   0  0  0  0  0  0  0  0  0  0  0  0
    0.9694   -0.8779    0.9100 H   0  0  0  0  0  0  0  0  0  0  0  0
    3.8667   -4.0023    0.0804 H   0  0  0  0  0  0  0  0  0  0  0  0
    4.6481    0.4358    2.1272 H   0  0  0  0  0  0  0  0  0  0  0  0
    2.2304   -4.1269   -1.5371 H   0  0  0  0  0  0  0  0  0  0  0  0
    3.6230   -3.2445   -2.2623 H   0  0  0  0  0  0  0  0  0  0  0  0
    1.9914   -3.0439   -2.9153 H   0  0  0  0  0  0  0  0  0  0  0  0
   -0.7276    0.8570   -0.7029 H   0  0  0  0  0  0  0  0  0  0  0  0
    5.4640   -3.7508    1.8985 H   0  0  0  0  0  0  0  0  0  0  0  0
    5.8434   -1.5394    2.9496 H   0  0  0  0  0  0  0  0  0  0  0  0
    5.6058    0.6203   -0.6401 H   0  0  0  0  0  0  0  0  0  0  0  0
    2.2881    3.2570    0.2386 H   0  0  0  0  0  0  0  0  0  0  0  0
    7.0513    2.5678   -0.9695 H   0  0  0  0  0  0  0  0  0  0  0  0
    3.7563    5.1953   -0.1318 H   0  0  0  0  0  0  0  0  0  0  0  0
    6.1405    4.8627   -0.7310 H   0  0  0  0  0  0  0  0  0  0  0  0
   -2.9288    0.8641   -0.4360 H   0  0  0  0  0  0  0  0  0  0  0  0
   -3.9817   -1.4963    1.2551 H   0  0  0  0  0  0  0  0  0  0  0  0
   -5.1843    1.2023    2.2368 H   0  0  0  0  0  0  0  0  0  0  0  0
   -8.0903   -0.1747   -1.5458 H   0  0  0  0  0  0  0  0  0  0  0  0
   -7.4267    2.1711    2.0033 H   0  0  0  0  0  0  0  0  0  0  0  0
  1 28  1  0  0  0  0
  2 32  1  0  0  0  0
  3 12  2  0  0  0  0
  4 21  2  0  0  0  0
  5  8  1  0  0  0  0
  5 12  1  0  0  0  0
  5 16  1  0  0  0  0
  6 10  1  0  0  0  0
  6 11  2  0  0  0  0
  7 10  1  0  0  0  0
  7 21  1  0  0  0  0
  7 39  1  0  0  0  0
  8  9  1  0  0  0  0
  8 14  2  0  0  0  0
  9 11  1  0  0  0  0
  9 15  2  0  0  0  0
 10 12  1  0  0  0  0
 10 33  1  0  0  0  0
 11 13  1  0  0  0  0
 13 19  2  0  0  0  0
 13 20  1  0  0  0  0
 14 17  1  0  0  0  0
 14 34  1  0  0  0  0
 15 18  1  0  0  0  0
 15 35  1  0  0  0  0
 16 36  1  0  0  0  0
 16 37  1  0  0  0  0
 16 38  1  0  0  0  0
 17 18  2  0  0  0  0
 17 40  1  0  0  0  0
 18 41  1  0  0  0  0
 19 22  1  0  0  0  0
 19 42  1  0  0  0  0
 20 23  2  0  0  0  0
 20 43  1  0  0  0  0
 21 25  1  0  0  0  0
 22 24  2  0  0  0  0
 22 44  1  0  0  0  0
 23 24  1  0  0  0  0
 23 45  1  0  0  0  0
 24 46  1  0  0  0  0
 25 26  2  0  0  0  0
 25 47  1  0  0  0  0
 26 27  1  0  0  0  0
 26 48  1  0  0  0  0
 27 28  2  0  0  0  0
 27 29  1  0  0  0  0
 28 30  1  0  0  0  0
 29 31  2  0  0  0  0
 29 49  1  0  0  0  0
 30 32  2  0  0  0  0
 30 50  1  0  0  0  0
 31 32  1  0  0  0  0
 31 51  1  0  0  0  0
M  END
> <PUBCHEM_COMPOUND_CID>
5282279

> <PUBCHEM_CONFORMER_RMSD>
0.8

> <PUBCHEM_CONFORMER_DIVERSEORDER>
1
16
6
23
20
9
15
25
14
4
24
11
19
21
13
2
17
7
18
12
3
22
26
10
5
8

> <PUBCHEM_MMFF94_PARTIAL_CHARGES>
47
1 -0.18
10 0.61
11 0.28
12 0.57
13 0.09
14 -0.15
15 -0.15
16 0.3
17 -0.15
18 -0.15
19 -0.15
2 -0.18
20 -0.15
21 0.62
22 -0.15
23 -0.15
24 -0.15
25 -0.14
26 -0.18
27 0.03
28 0.18
29 -0.15
3 -0.57
30 -0.15
31 -0.15
32 0.18
34 0.15
35 0.15
39 0.37
4 -0.57
40 0.15
41 0.15
42 0.15
43 0.15
44 0.15
45 0.15
46 0.15
47 0.15
48 0.15
49 0.15
5 -0.48
50 0.15
51 0.15
6 -0.7
7 -0.73
8 0.12
9 0.09

> <PUBCHEM_EFFECTIVE_ROTOR_COUNT>
5.4

> <PUBCHEM_PHARMACOPHORE_FEATURES>
8
1 3 acceptor
1 4 acceptor
1 6 acceptor
1 7 donor
6 13 19 20 22 23 24 rings
6 27 28 29 30 31 32 rings
6 8 9 14 15 17 18 rings
7 5 6 8 9 10 11 12 rings

> <PUBCHEM_HEAVY_ATOM_COUNT>
32

> <PUBCHEM_ATOM_DEF_STEREO_COUNT>
1

> <PUBCHEM_ATOM_UDEF_STEREO_COUNT>
0

> <PUBCHEM_BOND_DEF_STEREO_COUNT>
1

> <PUBCHEM_BOND_UDEF_STEREO_COUNT>
0

> <PUBCHEM_ISOTOPIC_ATOM_COUNT>
0

> <PUBCHEM_COMPONENT_COUNT>
1

> <PUBCHEM_CACTVS_TAUTO_COUNT>
2

> <PUBCHEM_CONFORMER_ID>
005099E700000001

> <PUBCHEM_MMFF94_ENERGY>
117.778

> <PUBCHEM_FEATURE_SELFOVERLAP>
40.606

> <PUBCHEM_SHAPE_FINGERPRINT>
10006869 2 18410014329818481676
10165383 225 17489581235538445974
10411042 1 18052821631617906906
10554248 39 18334583468724017807
10835480 77 18342175532179173161
10952577 141 17271421537024237180
11297750 10 17630901580582781900
11505856 67 16904658404891669100
11719270 70 17676491683182725431
13533116 47 18201722868379038336
13540713 5 18190476973546697286
13878862 14 18270417030372418261
14118638 360 18198905808421361675
14347424 109 18272936045871248553
14400156 350 18409729556733610188
14400156 96 17917710149906459061
14955137 171 18342183259505847074
15082195 135 17821998830960618084
15131766 46 18265339395776941317
15183329 4 17967811657270497809
15276724 80 18413393151005632613
15475509 35 16486987240739140762
1577012 14 18408604739258648677
20157964 124 18409727370204762187
20511986 3 17459204013716708623
21033648 29 16845302635613266559
21130935 74 18060135432430794115
21344244 78 18337125561341073256
21792938 703 5472560240545749741
21792965 106 18261673787419387873
21814621 53 17632287995978828665
21859007 373 17202781413586272613
22149856 69 17023170644803800811
23081809 10 18334018272618854875
23523787 8 16226873451521953028
23523788 1 13037535522025113336
23845131 108 18057606456881607722
255183 451 17971180672504148902
3411729 13 18341890750135562780
394071 54 18272080583049511565
397830 11 18130212767356301147
4073 2 18272083843420280595
4169191 19 18411979122964269957
4197921 191 18259981596543383329
44555599 121 18335134332808948617
5104073 3 18130499752470169067
8988823 20 18273217521138349554

> <PUBCHEM_SHAPE_MULTIPOLES>
635.6
23.3
4.21
1.6
55.21
2.67
0.1
12.92
-2.94
-10.79
0.84
-0.54
-1.23
-3.16

> <PUBCHEM_SHAPE_SELFOVERLAP>
1371.998

> <PUBCHEM_SHAPE_VOLUME>
347.9

> <PUBCHEM_COORDINATE_TYPE>
2
5
10

$$$$

