194618
  -OEChem-07051213103D

 26 27  0     1  0  0  0  0  0999 V2000
    0.6313    0.6519    0.8203 O   0  0  0  0  0  0  0  0  0  0  0  0
    4.1110   -1.1710   -0.5100 O   0  0  0  0  0  0  0  0  0  0  0  0
   -3.7720    1.4247   -0.4112 O   0  0  0  0  0  0  0  0  0  0  0  0
   -4.4880   -0.6983   -0.0553 O   0  0  0  0  0  0  0  0  0  0  0  0
    2.4475    0.4968   -0.6423 N   0  0  0  0  0  0  0  0  0  0  0  0
   -2.1550   -1.5593    0.8987 N   0  0  0  0  0  0  0  0  0  0  0  0
    1.9973    1.0903    0.6240 C   0  0  2  0  0  0  0  0  0  0  0  0
    0.2690   -0.2543   -0.2587 C   0  0  2  0  0  0  0  0  0  0  0  0
    1.3085   -0.0215   -1.3752 C   0  0  0  0  0  0  0  0  0  0  0  0
    3.1478    0.3354    1.3099 C   0  0  0  0  0  0  0  0  0  0  0  0
    3.4188   -0.2781   -0.0763 C   0  0  0  0  0  0  0  0  0  0  0  0
   -1.1523    0.0285   -0.7015 C   0  0  0  0  0  0  0  0  0  0  0  0
   -2.1777   -0.1767    0.4220 C   0  0  1  0  0  0  0  0  0  0  0  0
   -3.5862    0.1315   -0.0445 C   0  0  0  0  0  0  0  0  0  0  0  0
    2.0809    2.1813    0.6341 H   0  0  0  0  0  0  0  0  0  0  0  0
    0.3819   -1.2725    0.1314 H   0  0  0  0  0  0  0  0  0  0  0  0
    1.5544   -0.9455   -1.9057 H   0  0  0  0  0  0  0  0  0  0  0  0
    0.9932    0.7532   -2.0806 H   0  0  0  0  0  0  0  0  0  0  0  0
    2.8473   -0.3941    2.0659 H   0  0  0  0  0  0  0  0  0  0  0  0
    3.9605    0.9612    1.6867 H   0  0  0  0  0  0  0  0  0  0  0  0
   -1.4069   -0.6014   -1.5639 H   0  0  0  0  0  0  0  0  0  0  0  0
   -1.2226    1.0689   -1.0453 H   0  0  0  0  0  0  0  0  0  0  0  0
   -1.9630    0.4817    1.2712 H   0  0  0  0  0  0  0  0  0  0  0  0
   -2.3894   -2.1957    0.1378 H   0  0  0  0  0  0  0  0  0  0  0  0
   -2.8638   -1.6909    1.6191 H   0  0  0  0  0  0  0  0  0  0  0  0
   -4.6966    1.5968   -0.6900 H   0  0  0  0  0  0  0  0  0  0  0  0
  1  7  1  0  0  0  0
  1  8  1  0  0  0  0
  2 11  2  0  0  0  0
  3 14  1  0  0  0  0
  3 26  1  0  0  0  0
  4 14  2  0  0  0  0
  5  7  1  0  0  0  0
  5  9  1  0  0  0  0
  5 11  1  0  0  0  0
  6 13  1  0  0  0  0
  6 24  1  0  0  0  0
  6 25  1  0  0  0  0
  7 10  1  0  0  0  0
  7 15  1  0  0  0  0
  8  9  1  0  0  0  0
  8 12  1  0  0  0  0
  8 16  1  0  0  0  0
  9 17  1  0  0  0  0
  9 18  1  0  0  0  0
 10 11  1  0  0  0  0
 10 19  1  0  0  0  0
 10 20  1  0  0  0  0
 12 13  1  0  0  0  0
 12 21  1  0  0  0  0
 12 22  1  0  0  0  0
 13 14  1  0  0  0  0
 13 23  1  0  0  0  0
M  END
> <PUBCHEM_COMPOUND_CID>
194618

> <PUBCHEM_CONFORMER_RMSD>
0.6

> <PUBCHEM_CONFORMER_DIVERSEORDER>
2
12
5
10
11
3
8
4
1
9
7
6

> <PUBCHEM_MMFF94_PARTIAL_CHARGES>
16
1 -0.54
10 0.05
11 0.58
13 0.33
14 0.66
2 -0.57
24 0.36
25 0.36
26 0.5
3 -0.65
4 -0.57
5 -0.59
6 -0.99
7 0.48
8 0.28
9 0.3

> <PUBCHEM_EFFECTIVE_ROTOR_COUNT>
3.8

> <PUBCHEM_PHARMACOPHORE_FEATURES>
8
1 1 acceptor
1 2 acceptor
1 3 acceptor
1 4 acceptor
1 6 cation
1 6 donor
3 3 4 14 anion
7 1 5 7 8 9 10 11 rings

> <PUBCHEM_HEAVY_ATOM_COUNT>
14

> <PUBCHEM_ATOM_DEF_STEREO_COUNT>
3

> <PUBCHEM_ATOM_UDEF_STEREO_COUNT>
0

> <PUBCHEM_BOND_DEF_STEREO_COUNT>
0

> <PUBCHEM_BOND_UDEF_STEREO_COUNT>
0

> <PUBCHEM_ISOTOPIC_ATOM_COUNT>
0

> <PUBCHEM_COMPONENT_COUNT>
1

> <PUBCHEM_CACTVS_TAUTO_COUNT>
1

> <PUBCHEM_CONFORMER_ID>
0002F83A00000002

> <PUBCHEM_MMFF94_ENERGY>
35.1051

> <PUBCHEM_FEATURE_SELFOVERLAP>
40.653

> <PUBCHEM_SHAPE_FINGERPRINT>
10219947 1 17240201028105097800
10751810 167 17489297598884968438
11062470 55 7781515919051613957
12162725 195 14201393872216917642
12346177 29 18200603505708267359
124424 183 18260547844097569228
12500047 106 18342740714872165995
13221675 6 15770058328156278280
13571099 22 18187080663616122682
13675066 3 18259991469876215210
13922767 16 17167866378537966888
14144814 61 16702307845053180517
14993402 34 16487253265974727038
16945 1 16515672343355398548
17862501 102 14562530721386593382
18186145 218 16877939416957594756
190213 19 16630527315097447513
19026448 4 18409451366626087521
19050596 39 13984662546812531751
19107657 47 17603867814337490882
19422 9 16702297927947216555
1986462 14 18411136944280376141
200 152 15936415563242600925
20279233 1 18260264118552876714
20281475 54 15267347314033193473
20645477 70 17821727256279294014
21119208 17 17060618897425291959
23048698 100 16660645137621344690
23402539 116 18412553094109143551
23402655 69 14923937968648851481
42 15 18334012808718918870
581208 293 15430033266645641556
69090 78 17967819310569922879
74978 22 17202758198844964239

> <PUBCHEM_SHAPE_MULTIPOLES>
254.67
7.95
1.12
1.08
3.72
0.12
-0.1
-0.42
-0.59
-0.68
-0.02
0.34
-0.08
0.62

> <PUBCHEM_SHAPE_SELFOVERLAP>
526.572

> <PUBCHEM_SHAPE_VOLUME>
145.5

> <PUBCHEM_COORDINATE_TYPE>
2
5
10

$$$$

