147806
  -OEChem-07051213073D

 30 32  0     1  0  0  0  0  0999 V2000
   -0.2182    1.0219   -0.0264 O   0  0  0  0  0  0  0  0  0  0  0  0
    0.7674   -2.5259    0.0640 O   0  0  0  0  0  0  0  0  0  0  0  0
   -1.9223   -2.7003    0.2615 O   0  0  0  0  0  0  0  0  0  0  0  0
    0.5134   -0.1629   -0.3790 C   0  0  2  0  0  0  0  0  0  0  0  0
    0.0735   -1.3583    0.4678 C   0  0  1  0  0  0  0  0  0  0  0  0
    1.9870    0.1462   -0.1927 C   0  0  0  0  0  0  0  0  0  0  0  0
   -1.4059   -1.5891    0.2499 C   0  0  0  0  0  0  0  0  0  0  0  0
   -2.2186   -0.3724    0.0552 C   0  0  0  0  0  0  0  0  0  0  0  0
   -1.5781    0.8640   -0.0551 C   0  0  0  0  0  0  0  0  0  0  0  0
    2.3902    1.0333    0.8034 C   0  0  0  0  0  0  0  0  0  0  0  0
    2.9332   -0.4576   -1.0184 C   0  0  0  0  0  0  0  0  0  0  0  0
   -3.6131   -0.4523    0.0112 C   0  0  0  0  0  0  0  0  0  0  0  0
   -2.3382    2.0285   -0.1752 C   0  0  0  0  0  0  0  0  0  0  0  0
   -4.3664    0.7137   -0.1272 C   0  0  0  0  0  0  0  0  0  0  0  0
   -3.7307    1.9522   -0.2154 C   0  0  0  0  0  0  0  0  0  0  0  0
    3.7451    1.3178    0.9745 C   0  0  0  0  0  0  0  0  0  0  0  0
    4.2880   -0.1732   -0.8474 C   0  0  0  0  0  0  0  0  0  0  0  0
    4.6938    0.7146    0.1492 C   0  0  0  0  0  0  0  0  0  0  0  0
    0.3428   -0.3554   -1.4489 H   0  0  0  0  0  0  0  0  0  0  0  0
    0.2430   -1.1868    1.5376 H   0  0  0  0  0  0  0  0  0  0  0  0
    1.6743    1.5057    1.4703 H   0  0  0  0  0  0  0  0  0  0  0  0
    2.6300   -1.1503   -1.7988 H   0  0  0  0  0  0  0  0  0  0  0  0
   -4.1277   -1.4055    0.0936 H   0  0  0  0  0  0  0  0  0  0  0  0
   -1.8530    2.9984   -0.2474 H   0  0  0  0  0  0  0  0  0  0  0  0
    0.5186   -3.2406    0.6748 H   0  0  0  0  0  0  0  0  0  0  0  0
   -5.4508    0.6578   -0.1586 H   0  0  0  0  0  0  0  0  0  0  0  0
   -4.3208    2.8585   -0.3164 H   0  0  0  0  0  0  0  0  0  0  0  0
    4.0617    2.0061    1.7527 H   0  0  0  0  0  0  0  0  0  0  0  0
    5.0270   -0.6429   -1.4899 H   0  0  0  0  0  0  0  0  0  0  0  0
    5.7487    0.9353    0.2829 H   0  0  0  0  0  0  0  0  0  0  0  0
  1  4  1  0  0  0  0
  1  9  1  0  0  0  0
  2  5  1  0  0  0  0
  2 25  1  0  0  0  0
  3  7  2  0  0  0  0
  4  5  1  0  0  0  0
  4  6  1  0  0  0  0
  4 19  1  0  0  0  0
  5  7  1  0  0  0  0
  5 20  1  0  0  0  0
  6 10  2  0  0  0  0
  6 11  1  0  0  0  0
  7  8  1  0  0  0  0
  8  9  1  0  0  0  0
  8 12  2  0  0  0  0
  9 13  2  0  0  0  0
 10 16  1  0  0  0  0
 10 21  1  0  0  0  0
 11 17  2  0  0  0  0
 11 22  1  0  0  0  0
 12 14  1  0  0  0  0
 12 23  1  0  0  0  0
 13 15  1  0  0  0  0
 13 24  1  0  0  0  0
 14 15  2  0  0  0  0
 14 26  1  0  0  0  0
 15 27  1  0  0  0  0
 16 18  2  0  0  0  0
 16 28  1  0  0  0  0
 17 18  1  0  0  0  0
 17 29  1  0  0  0  0
 18 30  1  0  0  0  0
M  END
> <PUBCHEM_COMPOUND_CID>
147806

> <PUBCHEM_CONFORMER_RMSD>
0.6

> <PUBCHEM_CONFORMER_DIVERSEORDER>
1
4
3
2
5
6

> <PUBCHEM_MMFF94_PARTIAL_CHARGES>
28
1 -0.36
10 -0.15
11 -0.15
12 -0.15
13 -0.15
14 -0.15
15 -0.15
16 -0.15
17 -0.15
18 -0.15
2 -0.68
21 0.15
22 0.15
23 0.15
24 0.15
25 0.4
26 0.15
27 0.15
28 0.15
29 0.15
3 -0.57
30 0.15
4 0.42
5 0.34
6 -0.14
7 0.42
8 0.09
9 0.08

> <PUBCHEM_EFFECTIVE_ROTOR_COUNT>
1.6

> <PUBCHEM_PHARMACOPHORE_FEATURES>
7
1 1 acceptor
1 2 acceptor
1 2 donor
1 3 acceptor
6 1 4 5 7 8 9 rings
6 6 10 11 16 17 18 rings
6 8 9 12 13 14 15 rings

> <PUBCHEM_HEAVY_ATOM_COUNT>
18

> <PUBCHEM_ATOM_DEF_STEREO_COUNT>
0

> <PUBCHEM_ATOM_UDEF_STEREO_COUNT>
2

> <PUBCHEM_BOND_DEF_STEREO_COUNT>
0

> <PUBCHEM_BOND_UDEF_STEREO_COUNT>
0

> <PUBCHEM_ISOTOPIC_ATOM_COUNT>
0

> <PUBCHEM_COMPONENT_COUNT>
1

> <PUBCHEM_CACTVS_TAUTO_COUNT>
4

> <PUBCHEM_CONFORMER_ID>
0002415E00000001

> <PUBCHEM_MMFF94_ENERGY>
49.6229

> <PUBCHEM_FEATURE_SELFOVERLAP>
35.557

> <PUBCHEM_SHAPE_FINGERPRINT>
10319926 262 18265352633582786824
10411042 1 17691685589237717363
10498660 4 18341336690211134581
10608611 8 18262239919879478568
10646746 165 18410575085037696744
11132069 177 18413389817292735245
11543360 7 16588036696747751701
12119455 92 17530966877949064084
12173636 292 18340209703867158621
12236239 1 17275105012097237116
12390115 104 18190445225169466017
12403259 415 18408038519980962616
12403814 3 17131838668314566725
12500047 106 18411139134428899422
12788726 201 17127028128828912482
13140716 1 18125432008903935433
13380535 76 18412263964778355791
13464514 151 18116989090488660640
13544592 145 18334565885064740502
15042514 8 18198054781910218211
15196674 1 18411699928129474423
15219456 202 18114178597477217056
15375358 24 18260548913850452612
15536298 74 18337672047809213279
16945 1 18341610391512751951
18186145 218 18187077390597998104
200 152 16226044505088815344
20279233 1 18259980462159865716
20510252 161 18335699382283342161
20645477 56 18411416202484470572
20645477 70 17167854297153569070
21524375 3 18342176721231090291
22182313 1 18268409361391065879
2334 1 17764303947337580267
23366157 5 17772748514092661290
23402539 116 18408893914236106069
23419403 2 16952823739848625979
23493267 7 17846770819434161115
23557571 272 18262792948110266974
23559900 14 18335135406666121748
25 1 18263363744873810565
2748010 2 17979358560522694507
3004659 81 18198893890446272030
350125 39 17982169225248524868
351380 180 18260553324813578956
4028521 119 18335423490912068853
43471831 8 18272655687776211643
495365 180 17458637704950661978
4990 188 18040995180625658316
5104073 3 18269551801079225091
633830 44 18260834829544104028
69090 78 18113339691126562047
7364860 26 18120375607872492966
77492 1 17203331066162695668
84936 182 18119533394855533689
9709674 26 18333727992484583510

> <PUBCHEM_SHAPE_MULTIPOLES>
352.82
8.59
2.23
0.83
3.13
0.95
0.01
-3.51
0.51
-1.46
-0.26
0.63
-0.06
0.81

> <PUBCHEM_SHAPE_SELFOVERLAP>
780.634

> <PUBCHEM_SHAPE_VOLUME>
187.5

> <PUBCHEM_COORDINATE_TYPE>
2
5
10

$$$$

