11953799
  -OEChem-07051212452D

 91 93  0     1  0  0  0  0  0999 V2000
    4.9860    4.3644    0.0000 P   0  0  0  0  0  0  0  0  0  0  0  0
    8.9501   -4.1744    0.0000 P   0  0  0  0  0  0  0  0  0  0  0  0
    7.5841    0.8644    0.0000 O   0  0  0  0  0  0  0  0  0  0  0  0
    6.7751   -0.7234    0.0000 O   0  0  0  0  0  0  0  0  0  0  0  0
    9.3442   -0.4143    0.0000 O   0  0  0  0  0  0  0  0  0  0  0  0
    9.0352   -1.9834    0.0000 O   0  0  0  0  0  0  0  0  0  0  0  0
    8.8089    1.2329    0.0000 O   0  0  0  0  0  0  0  0  0  0  0  0
    5.8520    3.8644    0.0000 O   0  0  0  0  0  0  0  0  0  0  0  0
    7.5841    2.8644    0.0000 O   0  0  0  0  0  0  0  0  0  0  0  0
    4.1200    0.8644    0.0000 O   0  0  0  0  0  0  0  0  0  0  0  0
    8.9501   -3.1744    0.0000 O   0  0  0  0  0  0  0  0  0  0  0  0
   11.6621    2.1600    0.0000 O   0  0  0  0  0  0  0  0  0  0  0  0
   10.1758    3.4982    0.0000 O   0  0  0  0  0  0  0  0  0  0  0  0
    8.4816    3.8584    0.0000 O   0  0  0  0  0  0  0  0  0  0  0  0
    4.1200    4.8644    0.0000 O   0  0  0  0  0  0  0  0  0  0  0  0
    5.4860    5.2304    0.0000 O   0  0  0  0  0  0  0  0  0  0  0  0
    4.4860    3.4984    0.0000 O   0  0  0  0  0  0  0  0  0  0  0  0
    8.9501   -5.1744    0.0000 O   0  0  0  0  0  0  0  0  0  0  0  0
    9.9501   -4.1744    0.0000 O   0  0  0  0  0  0  0  0  0  0  0  0
    7.9501   -4.1744    0.0000 O   0  0  0  0  0  0  0  0  0  0  0  0
    5.8520   -0.1356    0.0000 N   0  0  0  0  0  0  0  0  0  0  0  0
    4.1200    2.8644    0.0000 N   0  0  0  0  0  0  0  0  0  0  0  0
   11.2463    0.2037    0.0000 N   0  0  0  0  0  0  0  0  0  0  0  0
    4.9860   -1.6356    0.0000 N   0  0  0  0  0  0  0  0  0  0  0  0
    3.9860   -0.6356    0.0000 N   0  0  0  0  0  0  0  0  0  0  0  0
    2.6200    3.7305    0.0000 N   0  0  0  0  0  0  0  0  0  0  0  0
    2.6200    1.9984    0.0000 N   0  0  0  0  0  0  0  0  0  0  0  0
    8.0841   -1.6744    0.0000 C   0  0  1  0  0  0  0  0  0  0  0  0
    8.3931   -0.7234    0.0000 C   0  0  2  0  0  0  0  0  0  0  0  0
    7.5841   -0.1356    0.0000 C   0  0  2  0  0  0  0  0  0  0  0  0
    6.7181    1.3644    0.0000 C   0  0  2  0  0  0  0  0  0  0  0  0
    7.0841   -1.6744    0.0000 C   0  0  2  0  0  0  0  0  0  0  0  0
    5.8520    0.8644    0.0000 C   0  0  2  0  0  0  0  0  0  0  0  0
    6.7181    2.3644    0.0000 C   0  0  1  0  0  0  0  0  0  0  0  0
    5.8520    2.8644    0.0000 C   0  0  2  0  0  0  0  0  0  0  0  0
    4.9860    1.3644    0.0000 C   0  0  1  0  0  0  0  0  0  0  0  0
    4.9860    2.3644    0.0000 C   0  0  1  0  0  0  0  0  0  0  0  0
    8.0841   -2.6744    0.0000 C   0  0  0  0  0  0  0  0  0  0  0  0
    9.5521    0.5638    0.0000 C   0  0  2  0  0  0  0  0  0  0  0  0
   10.5031    0.8728    0.0000 C   0  0  2  0  0  0  0  0  0  0  0  0
    6.4963   -2.4834    0.0000 C   0  0  0  0  0  0  0  0  0  0  0  0
   10.7110    1.8510    0.0000 C   0  0  1  0  0  0  0  0  0  0  0  0
    9.9679    2.5201    0.0000 C   0  0  2  0  0  0  0  0  0  0  0  0
    9.0168    2.2111    0.0000 C   0  0  2  0  0  0  0  0  0  0  0  0
    8.2737    2.8802    0.0000 C   0  0  0  0  0  0  0  0  0  0  0  0
    4.9860   -0.6356    0.0000 C   0  0  0  0  0  0  0  0  0  0  0  0
    3.1200    2.8645    0.0000 C   0  0  0  0  0  0  0  0  0  0  0  0
   12.1973    0.5127    0.0000 C   0  0  0  0  0  0  0  0  0  0  0  0
    8.8315   -1.1618    0.0000 H   0  0  0  0  0  0  0  0  0  0  0  0
    8.1365    0.1459    0.0000 H   0  0  0  0  0  0  0  0  0  0  0  0
    6.7181    0.7444    0.0000 H   0  0  0  0  0  0  0  0  0  0  0  0
    6.4717   -1.5774    0.0000 H   0  0  0  0  0  0  0  0  0  0  0  0
    6.3890    0.5544    0.0000 H   0  0  0  0  0  0  0  0  0  0  0  0
    6.7181    2.9844    0.0000 H   0  0  0  0  0  0  0  0  0  0  0  0
    6.3890    3.1744    0.0000 H   0  0  0  0  0  0  0  0  0  0  0  0
    4.9860    0.7444    0.0000 H   0  0  0  0  0  0  0  0  0  0  0  0
    4.9860    2.9844    0.0000 H   0  0  0  0  0  0  0  0  0  0  0  0
    7.4735   -2.5668    0.0000 H   0  0  0  0  0  0  0  0  0  0  0  0
    7.8720   -3.2570    0.0000 H   0  0  0  0  0  0  0  0  0  0  0  0
    8.9624    0.3722    0.0000 H   0  0  0  0  0  0  0  0  0  0  0  0
   11.0928    1.0644    0.0000 H   0  0  0  0  0  0  0  0  0  0  0  0
    5.9947   -2.1190    0.0000 H   0  0  0  0  0  0  0  0  0  0  0  0
    6.1319   -2.9850    0.0000 H   0  0  0  0  0  0  0  0  0  0  0  0
    6.9979   -2.8479    0.0000 H   0  0  0  0  0  0  0  0  0  0  0  0
   10.8400    2.4574    0.0000 H   0  0  0  0  0  0  0  0  0  0  0  0
    9.5072    2.9350    0.0000 H   0  0  0  0  0  0  0  0  0  0  0  0
    8.4272    2.0195    0.0000 H   0  0  0  0  0  0  0  0  0  0  0  0
    9.4959   -1.5686    0.0000 H   0  0  0  0  0  0  0  0  0  0  0  0
    7.5841    3.4844    0.0000 H   0  0  0  0  0  0  0  0  0  0  0  0
    3.5831    1.1744    0.0000 H   0  0  0  0  0  0  0  0  0  0  0  0
   11.1174   -0.4028    0.0000 H   0  0  0  0  0  0  0  0  0  0  0  0
    7.6988    3.1125    0.0000 H   0  0  0  0  0  0  0  0  0  0  0  0
    7.9452    2.3544    0.0000 H   0  0  0  0  0  0  0  0  0  0  0  0
   11.7910    2.7664    0.0000 H   0  0  0  0  0  0  0  0  0  0  0  0
    9.7151    3.9131    0.0000 H   0  0  0  0  0  0  0  0  0  0  0  0
   12.3889   -0.0770    0.0000 H   0  0  0  0  0  0  0  0  0  0  0  0
   12.7870    0.7043    0.0000 H   0  0  0  0  0  0  0  0  0  0  0  0
   12.0057    1.1024    0.0000 H   0  0  0  0  0  0  0  0  0  0  0  0
    8.0209    4.2732    0.0000 H   0  0  0  0  0  0  0  0  0  0  0  0
    4.4491   -1.9456    0.0000 H   0  0  0  0  0  0  0  0  0  0  0  0
    3.6760   -1.1725    0.0000 H   0  0  0  0  0  0  0  0  0  0  0  0
    5.5230   -1.9456    0.0000 H   0  0  0  0  0  0  0  0  0  0  0  0
    3.6760   -0.0986    0.0000 H   0  0  0  0  0  0  0  0  0  0  0  0
    6.1060    5.2304    0.0000 H   0  0  0  0  0  0  0  0  0  0  0  0
    4.1200    5.4844    0.0000 H   0  0  0  0  0  0  0  0  0  0  0  0
    2.0000    1.9984    0.0000 H   0  0  0  0  0  0  0  0  0  0  0  0
    2.0000    3.7305    0.0000 H   0  0  0  0  0  0  0  0  0  0  0  0
    2.9300    4.2674    0.0000 H   0  0  0  0  0  0  0  0  0  0  0  0
    2.9300    1.4614    0.0000 H   0  0  0  0  0  0  0  0  0  0  0  0
    9.4871   -5.4844    0.0000 H   0  0  0  0  0  0  0  0  0  0  0  0
   10.2601   -4.7114    0.0000 H   0  0  0  0  0  0  0  0  0  0  0  0
  1  8  1  0  0  0  0
  1 15  1  0  0  0  0
  1 16  1  0  0  0  0
  1 17  2  0  0  0  0
  2 11  1  0  0  0  0
  2 18  1  0  0  0  0
  2 19  1  0  0  0  0
  2 20  2  0  0  0  0
 30  3  1  1  0  0  0
 31  3  1  6  0  0  0
  4 30  1  0  0  0  0
  4 32  1  0  0  0  0
 29  5  1  6  0  0  0
 39  5  1  6  0  0  0
 28  6  1  6  0  0  0
  6 68  1  0  0  0  0
  7 39  1  0  0  0  0
  7 44  1  0  0  0  0
 35  8  1  6  0  0  0
 34  9  1  1  0  0  0
  9 69  1  0  0  0  0
 36 10  1  6  0  0  0
 10 70  1  0  0  0  0
 11 38  1  0  0  0  0
 42 12  1  1  0  0  0
 12 74  1  0  0  0  0
 43 13  1  6  0  0  0
 13 75  1  0  0  0  0
 14 45  1  0  0  0  0
 14 79  1  0  0  0  0
 15 85  1  0  0  0  0
 16 84  1  0  0  0  0
 18 90  1  0  0  0  0
 19 91  1  0  0  0  0
 33 21  1  1  0  0  0
 21 46  2  0  0  0  0
 37 22  1  1  0  0  0
 22 47  2  0  0  0  0
 40 23  1  6  0  0  0
 23 48  1  0  0  0  0
 23 71  1  0  0  0  0
 24 46  1  0  0  0  0
 24 80  1  0  0  0  0
 24 82  1  0  0  0  0
 25 46  1  0  0  0  0
 25 81  1  0  0  0  0
 25 83  1  0  0  0  0
 26 47  1  0  0  0  0
 26 87  1  0  0  0  0
 26 88  1  0  0  0  0
 27 47  1  0  0  0  0
 27 86  1  0  0  0  0
 27 89  1  0  0  0  0
 28 29  1  0  0  0  0
 28 32  1  0  0  0  0
 28 38  1  0  0  0  0
 29 30  1  0  0  0  0
 29 49  1  0  0  0  0
 30 50  1  0  0  0  0
 31 33  1  0  0  0  0
 31 34  1  0  0  0  0
 31 51  1  0  0  0  0
 32 41  1  6  0  0  0
 32 52  1  0  0  0  0
 33 36  1  0  0  0  0
 33 53  1  0  0  0  0
 34 35  1  0  0  0  0
 34 54  1  0  0  0  0
 35 37  1  0  0  0  0
 35 55  1  0  0  0  0
 36 37  1  0  0  0  0
 36 56  1  0  0  0  0
 37 57  1  0  0  0  0
 38 58  1  0  0  0  0
 38 59  1  0  0  0  0
 39 40  1  0  0  0  0
 39 60  1  0  0  0  0
 40 42  1  0  0  0  0
 40 61  1  0  0  0  0
 41 62  1  0  0  0  0
 41 63  1  0  0  0  0
 41 64  1  0  0  0  0
 42 43  1  0  0  0  0
 42 65  1  0  0  0  0
 43 44  1  0  0  0  0
 43 66  1  0  0  0  0
 44 45  1  1  0  0  0
 44 67  1  0  0  0  0
 45 72  1  0  0  0  0
 45 73  1  0  0  0  0
 48 76  1  0  0  0  0
 48 77  1  0  0  0  0
 48 78  1  0  0  0  0
M  END
> <PUBCHEM_COMPOUND_CID>
11953799

> <PUBCHEM_COMPOUND_CANONICALIZED>
1

> <PUBCHEM_CACTVS_COMPLEXITY>
1250

> <PUBCHEM_CACTVS_HBOND_ACCEPTOR>
21

> <PUBCHEM_CACTVS_HBOND_DONOR>
15

> <PUBCHEM_CACTVS_ROTATABLE_BOND>
13

> <PUBCHEM_CACTVS_SUBSKEYS>
AAADcfB7vgMAAAAAAAAAAAAAAAAAASAAAAA0QAAAAAAAAAAAAAAAHgAQCCAADHzxgAcDCALABxAgQAAAJIAAAAEAAAAAAIAIAAATEAIAwAAnQAAHEAAXAAHwcA8KAAAAAAAAAAACgAAUCACgAAAAAAAAAA==

> <PUBCHEM_IUPAC_OPENEYE_NAME>
[(2S,3R,4R,5R)-5-[(1R,2S,3S,4R,5S,6S)-2,4-diguanidino-3,6-dihydroxy-5-phosphonooxy-cyclohexoxy]-4-[(2S,3S,4S,5R,6S)-4,5-dihydroxy-6-(hydroxymethyl)-3-(methylamino)tetrahydropyran-2-yl]oxy-3-hydroxy-2-methyl-tetrahydrofuran-3-yl]methyl dihydrogen phosphate

> <PUBCHEM_IUPAC_CAS_NAME>
[(1S,2R,3S,4S,5R,6S)-2,4-bis(diaminomethylideneamino)-5-[[(2R,3R,4R,5S)-3-[[(2S,3S,4S,5R,6S)-4,5-dihydroxy-6-(hydroxymethyl)-3-(methylamino)-2-oxanyl]oxy]-4-hydroxy-5-methyl-4-(phosphonooxymethyl)-2-oxolanyl]oxy]-3,6-dihydroxycyclohexyl] dihydrogen phosphate

> <PUBCHEM_IUPAC_NAME>
[(1S,2R,3S,4S,5R,6S)-2,4-bis(diaminomethylideneamino)-5-[(2R,3R,4R,5S)-3-[(2S,3S,4S,5R,6S)-4,5-dihydroxy-6-(hydroxymethyl)-3-(methylamino)oxan-2-yl]oxy-4-hydroxy-5-methyl-4-(phosphonooxymethyl)oxolan-2-yl]oxy-3,6-dihydroxycyclohexyl] dihydrogen phosphate

> <PUBCHEM_IUPAC_SYSTEMATIC_NAME>
[(2S,3R,4R,5R)-5-[(1R,2S,3S,4R,5S,6S)-2,4-bis[bis(azanyl)methylideneamino]-3,6-bis(oxidanyl)-5-phosphonooxy-cyclohexyl]oxy-4-[(2S,3S,4S,5R,6S)-6-(hydroxymethyl)-3-(methylamino)-4,5-bis(oxidanyl)oxan-2-yl]oxy-2-methyl-3-oxidanyl-oxolan-3-yl]methyl dihydrogen phosphate

> <PUBCHEM_IUPAC_TRADITIONAL_NAME>
[(2S,3R,4R,5R)-5-[(1R,2S,3S,4R,5S,6S)-2,4-diguanidino-3,6-dihydroxy-5-phosphonooxy-cyclohexoxy]-4-[(2S,3S,4S,5R,6S)-4,5-dihydroxy-3-(methylamino)-6-methylol-tetrahydropyran-2-yl]oxy-3-hydroxy-2-methyl-tetrahydrofuran-3-yl]methyl dihydrogen phosphate

> <PUBCHEM_IUPAC_INCHI>
InChI=1S/C21H43N7O18P2/c1-5-21(34,4-41-47(35,36)37)16(45-17-9(26-2)12(32)10(30)6(3-29)43-17)18(42-5)44-14-7(27-19(22)23)11(31)8(28-20(24)25)15(13(14)33)46-48(38,39)40/h5-18,26,29-34H,3-4H2,1-2H3,(H4,22,23,27)(H4,24,25,28)(H2,35,36,37)(H2,38,39,40)/t5-,6-,7-,8+,9-,10-,11-,12-,13-,14+,15-,16-,17-,18-,21+/m0/s1

> <PUBCHEM_IUPAC_INCHIKEY>
ZDDYYKRGKUKSLN-TWBNDLJKSA-N

> <PUBCHEM_XLOGP3_AA>
-12.6

> <PUBCHEM_EXACT_MASS>
743.213981

> <PUBCHEM_MOLECULAR_FORMULA>
C21H43N7O18P2

> <PUBCHEM_MOLECULAR_WEIGHT>
743.549744

> <PUBCHEM_OPENEYE_CAN_SMILES>
CC1C(C(C(O1)OC2C(C(C(C(C2O)OP(=O)(O)O)N=C(N)N)O)N=C(N)N)OC3C(C(C(C(O3)CO)O)O)NC)(COP(=O)(O)O)O

> <PUBCHEM_OPENEYE_ISO_SMILES>
C[C@H]1[C@@]([C@H]([C@@H](O1)O[C@@H]2[C@H]([C@@H]([C@H]([C@@H]([C@H]2O)OP(=O)(O)O)N=C(N)N)O)N=C(N)N)O[C@H]3[C@H]([C@@H]([C@H]([C@@H](O3)CO)O)O)NC)(COP(=O)(O)O)O

> <PUBCHEM_CACTVS_TPSA>
433

> <PUBCHEM_MONOISOTOPIC_WEIGHT>
743.213981

> <PUBCHEM_TOTAL_CHARGE>
0

> <PUBCHEM_HEAVY_ATOM_COUNT>
48

> <PUBCHEM_ATOM_DEF_STEREO_COUNT>
15

> <PUBCHEM_ATOM_UDEF_STEREO_COUNT>
0

> <PUBCHEM_BOND_DEF_STEREO_COUNT>
0

> <PUBCHEM_BOND_UDEF_STEREO_COUNT>
0

> <PUBCHEM_ISOTOPIC_ATOM_COUNT>
0

> <PUBCHEM_COMPONENT_COUNT>
1

> <PUBCHEM_CACTVS_TAUTO_COUNT>
4

> <PUBCHEM_COORDINATE_TYPE>
1
5
255

> <PUBCHEM_BONDANNOTATIONS>
36  10  6
42  12  5
43  13  6
33  21  5
37  22  5
40  23  6
30  3  5
31  3  6
32  41  6
44  45  5
29  5  6
39  5  6
28  6  6
35  8  6
34  9  5

$$$$

