95075
  -OEChem-07051213113D

 30 32  0     0  0  0  0  0  0999 V2000
   -1.0342    2.1052   -1.6382 O   0  0  0  0  0  0  0  0  0  0  0  0
    1.0545    2.7493   -0.6685 O   0  0  0  0  0  0  0  0  0  0  0  0
   -0.8991    2.8861    0.4922 O   0  0  0  0  0  0  0  0  0  0  0  0
    1.0697    2.2746    1.5542 O   0  0  0  0  0  0  0  0  0  0  0  0
   -0.7305   -0.5838    0.0480 C   0  0  0  0  0  0  0  0  0  0  0  0
    0.7077   -0.6120   -0.0148 C   0  0  0  0  0  0  0  0  0  0  0  0
   -1.4470   -1.8090    0.0627 C   0  0  0  0  0  0  0  0  0  0  0  0
    1.3743   -1.8644   -0.0605 C   0  0  0  0  0  0  0  0  0  0  0  0
   -1.5014    0.6046    0.0974 C   0  0  0  0  0  0  0  0  0  0  0  0
    1.5259    0.5453   -0.0348 C   0  0  0  0  0  0  0  0  0  0  0  0
   -0.7552   -3.0221    0.0164 C   0  0  0  0  0  0  0  0  0  0  0  0
    0.6342   -3.0492   -0.0442 C   0  0  0  0  0  0  0  0  0  0  0  0
   -2.8511   -1.8156    0.1235 C   0  0  0  0  0  0  0  0  0  0  0  0
    2.7770   -1.9260   -0.1222 C   0  0  0  0  0  0  0  0  0  0  0  0
   -2.8975    0.5838    0.1577 C   0  0  0  0  0  0  0  0  0  0  0  0
    2.9201    0.4698   -0.0964 C   0  0  0  0  0  0  0  0  0  0  0  0
   -3.5725   -0.6269    0.1708 C   0  0  0  0  0  0  0  0  0  0  0  0
    3.5458   -0.7664   -0.1400 C   0  0  0  0  0  0  0  0  0  0  0  0
   -1.1230    1.9561   -0.2883 C   0  0  0  0  0  0  0  0  0  0  0  0
    1.2022    1.9005    0.3849 C   0  0  0  0  0  0  0  0  0  0  0  0
   -1.2923   -3.9688    0.0270 H   0  0  0  0  0  0  0  0  0  0  0  0
    1.1327   -4.0162   -0.0788 H   0  0  0  0  0  0  0  0  0  0  0  0
   -3.3999   -2.7557    0.1321 H   0  0  0  0  0  0  0  0  0  0  0  0
    3.2876   -2.8869   -0.1545 H   0  0  0  0  0  0  0  0  0  0  0  0
   -3.4861    1.4996    0.1462 H   0  0  0  0  0  0  0  0  0  0  0  0
    3.5455    1.3603   -0.0612 H   0  0  0  0  0  0  0  0  0  0  0  0
   -4.6574   -0.6486    0.2061 H   0  0  0  0  0  0  0  0  0  0  0  0
    4.6290   -0.8308   -0.1761 H   0  0  0  0  0  0  0  0  0  0  0  0
   -0.7877    3.0204   -1.8908 H   0  0  0  0  0  0  0  0  0  0  0  0
    0.8949    3.6729   -0.3768 H   0  0  0  0  0  0  0  0  0  0  0  0
  1 19  1  0  0  0  0
  1 29  1  0  0  0  0
  2 20  1  0  0  0  0
  2 30  1  0  0  0  0
  3 19  2  0  0  0  0
  4 20  2  0  0  0  0
  5  6  1  0  0  0  0
  5  7  2  0  0  0  0
  5  9  1  0  0  0  0
  6  8  2  0  0  0  0
  6 10  1  0  0  0  0
  7 11  1  0  0  0  0
  7 13  1  0  0  0  0
  8 12  1  0  0  0  0
  8 14  1  0  0  0  0
  9 15  2  0  0  0  0
  9 19  1  0  0  0  0
 10 16  2  0  0  0  0
 10 20  1  0  0  0  0
 11 12  2  0  0  0  0
 11 21  1  0  0  0  0
 12 22  1  0  0  0  0
 13 17  2  0  0  0  0
 13 23  1  0  0  0  0
 14 18  2  0  0  0  0
 14 24  1  0  0  0  0
 15 17  1  0  0  0  0
 15 25  1  0  0  0  0
 16 18  1  0  0  0  0
 16 26  1  0  0  0  0
 17 27  1  0  0  0  0
 18 28  1  0  0  0  0
M  END
> <PUBCHEM_COMPOUND_CID>
95075

> <PUBCHEM_CONFORMER_RMSD>
0.6

> <PUBCHEM_CONFORMER_DIVERSEORDER>
1

> <PUBCHEM_MMFF94_PARTIAL_CHARGES>
26
1 -0.65
10 0.09
11 -0.15
12 -0.15
13 -0.15
14 -0.15
15 -0.15
16 -0.15
17 -0.15
18 -0.15
19 0.63
2 -0.65
20 0.63
21 0.15
22 0.15
23 0.15
24 0.15
25 0.15
26 0.15
27 0.15
28 0.15
29 0.5
3 -0.57
30 0.5
4 -0.57
9 0.09

> <PUBCHEM_EFFECTIVE_ROTOR_COUNT>
2

> <PUBCHEM_PHARMACOPHORE_FEATURES>
9
1 1 acceptor
1 2 acceptor
1 3 acceptor
1 4 acceptor
3 1 3 19 anion
3 2 4 20 anion
6 5 6 7 8 11 12 rings
6 5 7 9 13 15 17 rings
6 6 8 10 14 16 18 rings

> <PUBCHEM_HEAVY_ATOM_COUNT>
20

> <PUBCHEM_ATOM_DEF_STEREO_COUNT>
0

> <PUBCHEM_ATOM_UDEF_STEREO_COUNT>
0

> <PUBCHEM_BOND_DEF_STEREO_COUNT>
0

> <PUBCHEM_BOND_UDEF_STEREO_COUNT>
0

> <PUBCHEM_ISOTOPIC_ATOM_COUNT>
0

> <PUBCHEM_COMPONENT_COUNT>
1

> <PUBCHEM_CACTVS_TAUTO_COUNT>
1

> <PUBCHEM_CONFORMER_ID>
0001736300000001

> <PUBCHEM_MMFF94_ENERGY>
132.1514

> <PUBCHEM_FEATURE_SELFOVERLAP>
46.019

> <PUBCHEM_SHAPE_FINGERPRINT>
10411042 1 18410572894273079787
104564 63 18265321975256913934
10967382 1 18266457598795810290
11680986 33 17979914917591001531
12011746 2 18410573980930538687
12403259 226 18410858762979748043
12553582 1 18410571790439311962
13027679 85 18336264668672793165
13140716 1 18266742376623568450
14178342 30 18049729821377140552
14614273 12 18056198218028574055
14790565 3 18266436815460218592
16945 1 18410567396671625579
17357779 13 18340785796414860847
193761 8 17834110840556953771
19591789 44 18338792304192572739
19930374 2 17836404499164006553
20510252 161 18263081179418551138
20588541 1 18410569595695140978
20739085 24 18126818583324541465
20905425 154 18120653788588149798
22721475 48 18410849971159976994
2334 1 17978510827919326259
23419403 2 15948307734626388291
238 59 16259572196569917917
2748010 2 18195248810654909047
335352 9 18266457783642882751
350125 39 18123743412098874286
5255222 1 18410863161009798274
589210 1 17761771762989245395
7364860 26 18190177880207300026

> <PUBCHEM_SHAPE_MULTIPOLES>
388.11
4.54
3.8
0.84
0.03
0.23
0.03
-1.27
-0.04
-0.04
0
0
0.51
0.32

> <PUBCHEM_SHAPE_SELFOVERLAP>
895.76

> <PUBCHEM_SHAPE_VOLUME>
196.7

> <PUBCHEM_COORDINATE_TYPE>
2
5
10

$$$$

