582846
  -OEChem-06241222443D

 61 62  0     1  0  0  0  0  0999 V2000
    1.1651    0.9703   -0.8710 O   0  0  0  0  0  0  0  0  0  0  0  0
    0.2460   -4.6854    0.4165 O   0  0  0  0  0  0  0  0  0  0  0  0
   -2.3920   -3.2337    0.7579 O   0  0  0  0  0  0  0  0  0  0  0  0
   -4.2717   -0.1385    0.6142 O   0  0  0  0  0  0  0  0  0  0  0  0
    0.3265   -1.2209   -2.1703 O   0  0  0  0  0  0  0  0  0  0  0  0
   -1.2908    3.0149    0.6867 O   0  0  0  0  0  0  0  0  0  0  0  0
   -0.0817    0.6554    1.0486 O   0  0  0  0  0  0  0  0  0  0  0  0
   -3.6676    3.6769   -1.5219 O   0  0  0  0  0  0  0  0  0  0  0  0
    1.7644   -2.6179   -0.9988 N   0  0  0  0  0  0  0  0  0  0  0  0
   -4.1480    2.7326    0.5502 N   0  0  0  0  0  0  0  0  0  0  0  0
    1.9220   -0.2291   -0.6464 C   0  0  2  0  0  0  0  0  0  0  0  0
    3.3164    0.0003   -1.2148 C   0  0  0  0  0  0  0  0  0  0  0  0
    4.1815    0.7900   -0.2691 C   0  0  0  0  0  0  0  0  0  0  0  0
    1.2404   -1.3870   -1.3656 C   0  0  0  0  0  0  0  0  0  0  0  0
    1.3127   -3.8747   -1.5726 C   0  0  0  0  0  0  0  0  0  0  0  0
    0.0072   -4.3486   -0.9489 C   0  0  0  0  0  0  0  0  0  0  0  0
    4.1962    2.1756   -0.3516 C   0  0  0  0  0  0  0  0  0  0  0  0
    4.9521    0.1218    0.6724 C   0  0  0  0  0  0  0  0  0  0  0  0
   -0.9268   -5.1061    1.1165 C   0  0  0  0  0  0  0  0  0  0  0  0
   -1.6332   -3.9156    1.7541 C   0  0  0  0  0  0  0  0  0  0  0  0
    0.2100    1.2967    0.0486 C   0  0  0  0  0  0  0  0  0  0  0  0
   -3.0016   -2.0533    1.2651 C   0  0  0  0  0  0  0  0  0  0  0  0
    4.9976    2.9074    0.5246 C   0  0  0  0  0  0  0  0  0  0  0  0
    5.7533    0.8539    1.5486 C   0  0  0  0  0  0  0  0  0  0  0  0
   -3.7179   -1.3527    0.1233 C   0  0  0  0  0  0  0  0  0  0  0  0
   -4.9060    0.6154   -0.4188 C   0  0  0  0  0  0  0  0  0  0  0  0
   -5.3163    1.9660    0.1530 C   0  0  0  0  0  0  0  0  0  0  0  0
   -0.4519    2.5836   -0.3747 C   0  0  0  0  0  0  0  0  0  0  0  0
    5.7760    2.2467    1.4747 C   0  0  0  0  0  0  0  0  0  0  0  0
   -2.1620    4.0693    0.3077 C   0  0  0  0  0  0  0  0  0  0  0  0
   -3.4000    3.4868   -0.3385 C   0  0  0  0  0  0  0  0  0  0  0  0
    1.9711   -0.4650    0.4248 H   0  0  0  0  0  0  0  0  0  0  0  0
    3.2582    0.5275   -2.1769 H   0  0  0  0  0  0  0  0  0  0  0  0
    3.8225   -0.9486   -1.4344 H   0  0  0  0  0  0  0  0  0  0  0  0
    2.1114   -4.6037   -1.4013 H   0  0  0  0  0  0  0  0  0  0  0  0
    1.1837   -3.7331   -2.6507 H   0  0  0  0  0  0  0  0  0  0  0  0
    2.5028   -2.6563   -0.3023 H   0  0  0  0  0  0  0  0  0  0  0  0
   -0.7550   -3.5687   -1.0267 H   0  0  0  0  0  0  0  0  0  0  0  0
   -0.3439   -5.2414   -1.4781 H   0  0  0  0  0  0  0  0  0  0  0  0
    3.5932    2.7007   -1.0869 H   0  0  0  0  0  0  0  0  0  0  0  0
    4.9394   -0.9624    0.7398 H   0  0  0  0  0  0  0  0  0  0  0  0
   -0.5828   -5.7754    1.9117 H   0  0  0  0  0  0  0  0  0  0  0  0
   -1.5904   -5.6744    0.4548 H   0  0  0  0  0  0  0  0  0  0  0  0
   -2.3188   -4.2672    2.5327 H   0  0  0  0  0  0  0  0  0  0  0  0
   -0.8993   -3.2291    2.1912 H   0  0  0  0  0  0  0  0  0  0  0  0
   -2.2427   -1.3868    1.6923 H   0  0  0  0  0  0  0  0  0  0  0  0
   -3.7122   -2.3063    2.0607 H   0  0  0  0  0  0  0  0  0  0  0  0
   -3.0081   -1.1464   -0.6872 H   0  0  0  0  0  0  0  0  0  0  0  0
   -4.5103   -1.9945   -0.2793 H   0  0  0  0  0  0  0  0  0  0  0  0
    5.0151    3.9919    0.4674 H   0  0  0  0  0  0  0  0  0  0  0  0
    6.3590    0.3396    2.2891 H   0  0  0  0  0  0  0  0  0  0  0  0
   -5.7921    0.0720   -0.7645 H   0  0  0  0  0  0  0  0  0  0  0  0
   -4.2169    0.7484   -1.2611 H   0  0  0  0  0  0  0  0  0  0  0  0
   -5.8794    2.5381   -0.5911 H   0  0  0  0  0  0  0  0  0  0  0  0
   -5.9297    1.8384    1.0505 H   0  0  0  0  0  0  0  0  0  0  0  0
    0.3132    3.3446   -0.5577 H   0  0  0  0  0  0  0  0  0  0  0  0
   -1.0351    2.3874   -1.2803 H   0  0  0  0  0  0  0  0  0  0  0  0
    6.3997    2.8165    2.1573 H   0  0  0  0  0  0  0  0  0  0  0  0
   -3.8361    2.6506    1.5136 H   0  0  0  0  0  0  0  0  0  0  0  0
   -1.6706    4.7788   -0.3670 H   0  0  0  0  0  0  0  0  0  0  0  0
   -2.4590    4.6112    1.2117 H   0  0  0  0  0  0  0  0  0  0  0  0
  1 11  1  0  0  0  0
  1 21  1  0  0  0  0
  2 16  1  0  0  0  0
  2 19  1  0  0  0  0
  3 20  1  0  0  0  0
  3 22  1  0  0  0  0
  4 25  1  0  0  0  0
  4 26  1  0  0  0  0
  5 14  2  0  0  0  0
  6 28  1  0  0  0  0
  6 30  1  0  0  0  0
  7 21  2  0  0  0  0
  8 31  2  0  0  0  0
  9 14  1  0  0  0  0
  9 15  1  0  0  0  0
  9 37  1  0  0  0  0
 10 27  1  0  0  0  0
 10 31  1  0  0  0  0
 10 59  1  0  0  0  0
 11 12  1  0  0  0  0
 11 14  1  0  0  0  0
 11 32  1  0  0  0  0
 12 13  1  0  0  0  0
 12 33  1  0  0  0  0
 12 34  1  0  0  0  0
 13 17  2  0  0  0  0
 13 18  1  0  0  0  0
 15 16  1  0  0  0  0
 15 35  1  0  0  0  0
 15 36  1  0  0  0  0
 16 38  1  0  0  0  0
 16 39  1  0  0  0  0
 17 23  1  0  0  0  0
 17 40  1  0  0  0  0
 18 24  2  0  0  0  0
 18 41  1  0  0  0  0
 19 20  1  0  0  0  0
 19 42  1  0  0  0  0
 19 43  1  0  0  0  0
 20 44  1  0  0  0  0
 20 45  1  0  0  0  0
 21 28  1  0  0  0  0
 22 25  1  0  0  0  0
 22 46  1  0  0  0  0
 22 47  1  0  0  0  0
 23 29  2  0  0  0  0
 23 50  1  0  0  0  0
 24 29  1  0  0  0  0
 24 51  1  0  0  0  0
 25 48  1  0  0  0  0
 25 49  1  0  0  0  0
 26 27  1  0  0  0  0
 26 52  1  0  0  0  0
 26 53  1  0  0  0  0
 27 54  1  0  0  0  0
 27 55  1  0  0  0  0
 28 56  1  0  0  0  0
 28 57  1  0  0  0  0
 29 58  1  0  0  0  0
 30 31  1  0  0  0  0
 30 60  1  0  0  0  0
 30 61  1  0  0  0  0
M  END
> <PUBCHEM_COMPOUND_CID>
582846

> <PUBCHEM_CONFORMER_RMSD>
0.8

> <PUBCHEM_CONFORMER_DIVERSEORDER>
1
361
30
148
241
282
352
330
280
194
234
104
260
394
28
265
255
264
310
127
371
298
29
232
245
17
134
308
78
185
31
378
358
149
145
76
179
146
401
257
274
362
366
161
195
297
295
50
326
64
367
6
57
301
359
302
191
215
390
26
16
125
166
55
403
52
379
58
216
237
123
87
230
153
160
239
389
374
5
207
204
319
243
138
329
187
349
250
60
315
316
63
233
92
70
200
395
276
165
82
269
205
10
61
348
181
311
221
147
335
363
354
341
8
7
391
121
168
188
59
49
380
268
226
318
170
88
108
300
136
284
42
14
294
334
15
113
43
38
129
385
51
173
356
151
222
321
12
65
227
116
238
132
372
285
71
344
249
247
399
328
135
90
365
360
314
152
18
397
197
331
24
47
219
324
97
353
177
392
159
2
89
131
398
126
251
72
217
258
139
286
407
98
404
172
54
34
174
84
262
32
9
3
252
275
171
96
273
338
400
36
375
218
322
320
368
137
231
198
212
382
102
377
107
317
299
85
351
66
336
167
248
386
242
62
155
53
114
133
20
163
343
105
142
355
210
288
35
213
396
281
175
333
388
240
48
277
267
25
99
290
80
312
309
33
176
364
19
340
192
244
254
45
46
272
94
211
292
83
303
387
77
337
186
141
111
124
405
183
350
130
291
263
144
214
11
150
73
220
339
342
236
74
115
75
193
13
37
228
162
381
190
332
189
196
369
306
81
373
253
69
117
120
22
402
67
259
79
229
100
323
95
118
313
293
266
44
41
93
376
346
184
156
23
383
91
140
296
103
199
223
27
86
128
406
206
110
261
304
325
56
289
203
283
119
201
158
327
4
279
21
154
122
112
305
178
109
101
180
164
157
357
106
39
384
68
287
370
209
224
271
393
235
246
143
270
182
307
278
169
225
347
40
345
256
202
208

> <PUBCHEM_MMFF94_PARTIAL_CHARGES>
38
1 -0.43
10 -0.73
11 0.34
12 0.14
13 -0.14
14 0.57
15 0.3
16 0.28
17 -0.15
18 -0.15
19 0.28
2 -0.56
20 0.28
21 0.66
22 0.28
23 -0.15
24 -0.15
25 0.28
26 0.28
27 0.3
28 0.34
29 -0.15
3 -0.56
30 0.34
31 0.57
37 0.37
4 -0.56
40 0.15
41 0.15
5 -0.57
50 0.15
51 0.15
58 0.15
59 0.37
6 -0.56
7 -0.57
8 -0.57
9 -0.73

> <PUBCHEM_EFFECTIVE_ROTOR_COUNT>
5.6

> <PUBCHEM_PHARMACOPHORE_FEATURES>
10
1 10 donor
1 2 acceptor
1 3 acceptor
1 4 acceptor
1 5 acceptor
1 6 acceptor
1 7 acceptor
1 8 acceptor
1 9 donor
6 13 17 18 23 24 29 rings

> <PUBCHEM_HEAVY_ATOM_COUNT>
31

> <PUBCHEM_ATOM_DEF_STEREO_COUNT>
0

> <PUBCHEM_ATOM_UDEF_STEREO_COUNT>
1

> <PUBCHEM_BOND_DEF_STEREO_COUNT>
0

> <PUBCHEM_BOND_UDEF_STEREO_COUNT>
0

> <PUBCHEM_ISOTOPIC_ATOM_COUNT>
0

> <PUBCHEM_COMPONENT_COUNT>
1

> <PUBCHEM_CACTVS_TAUTO_COUNT>
4

> <PUBCHEM_CONFORMER_ID>
0008E4BE00000001

> <PUBCHEM_MMFF94_ENERGY>
56.168

> <PUBCHEM_FEATURE_SELFOVERLAP>
50.753

> <PUBCHEM_SHAPE_FINGERPRINT>
10074138 170 18193863478018286112
10675989 125 18194963178671978569
10838868 158 17409645454717337945
12788726 201 18055625115337142488
13590594 115 17473543551928052402
14466204 15 18048876286932909690
14725015 67 18123473778933042307
14747282 125 18263384515441137331
15475509 84 17765150570969519878
21792964 463 17198537054017645948
23559900 14 17975132351052337012
238918 7 18333725806362307366
354706 109 18192175757196968017
3882209 13 17325507509609376295
45266715 3 18268165295901029941
463206 1 16756893409310273811
5047190 48 18339354176193358692
5171179 24 18117266163631224446
79837 15 18411141311945676492
9981440 41 18342453764360721275

> <PUBCHEM_SHAPE_MULTIPOLES>
581.05
11.52
7.53
1.56
7.91
6.35
0.12
-11.31
-4.01
-6.88
-0.5
0.61
1.06
2.71

> <PUBCHEM_SHAPE_SELFOVERLAP>
1170.728

> <PUBCHEM_SHAPE_VOLUME>
336.4

> <PUBCHEM_COORDINATE_TYPE>
2
5
10

$$$$

