5378303
  -OEChem-07051213053D

 29 31  0     0  0  0  0  0  0999 V2000
    1.9309   -0.3520    0.0152 O   0  0  0  0  0  0  0  0  0  0  0  0
   -0.2051    1.6136   -1.1157 O   0  0  0  0  0  0  0  0  0  0  0  0
   -3.3378    0.5006    0.0101 O   0  0  0  0  0  0  0  0  0  0  0  0
    5.4090    0.0119   -0.0012 O   0  5  0  0  0  0  0  0  0  0  0  0
    3.7877    1.4915    0.0335 O   0  0  0  0  0  0  0  0  0  0  0  0
   -3.0627   -1.7195    0.0081 N   0  0  0  0  0  0  0  0  0  0  0  0
    4.1723    0.2850    0.0115 N   0  3  0  0  0  0  0  0  0  0  0  0
   -4.4200   -1.4573   -0.0015 N   0  0  0  0  0  0  0  0  0  0  0  0
   -5.6399    0.6250   -0.0061 N   0  0  0  0  0  0  0  0  0  0  0  0
   -1.0706   -0.3459    0.0249 C   0  0  0  0  0  0  0  0  0  0  0  0
   -0.4740    1.0130    0.0317 C   0  0  0  0  0  0  0  0  0  0  0  0
   -0.2326   -1.4513    0.0107 C   0  0  0  0  0  0  0  0  0  0  0  0
    1.1810   -1.4852    0.0009 C   0  0  0  0  0  0  0  0  0  0  0  0
   -2.5423   -0.5586    0.0139 C   0  0  0  0  0  0  0  0  0  0  0  0
    1.9882   -2.5986   -0.0224 C   0  0  0  0  0  0  0  0  0  0  0  0
   -0.1753    1.7097    1.1295 C   0  0  0  0  0  0  0  0  0  0  0  0
    3.2311   -0.7462    0.0005 C   0  0  0  0  0  0  0  0  0  0  0  0
    3.3196   -2.1186   -0.0228 C   0  0  0  0  0  0  0  0  0  0  0  0
    0.3570    2.9201    0.6248 C   0  0  0  0  0  0  0  0  0  0  0  0
    0.3171    2.8125   -0.7459 C   0  0  0  0  0  0  0  0  0  0  0  0
   -4.5335   -0.1496    0.0002 C   0  0  0  0  0  0  0  0  0  0  0  0
   -0.7023   -2.4345    0.0005 H   0  0  0  0  0  0  0  0  0  0  0  0
    1.6677   -3.6312   -0.0374 H   0  0  0  0  0  0  0  0  0  0  0  0
   -0.3030    1.4297    2.1653 H   0  0  0  0  0  0  0  0  0  0  0  0
    4.2268   -2.7061   -0.0382 H   0  0  0  0  0  0  0  0  0  0  0  0
    0.7245    3.7649    1.1892 H   0  0  0  0  0  0  0  0  0  0  0  0
    0.6082    3.4654   -1.5559 H   0  0  0  0  0  0  0  0  0  0  0  0
   -5.5847    1.6382   -0.0037 H   0  0  0  0  0  0  0  0  0  0  0  0
   -6.5731    0.2266   -0.0136 H   0  0  0  0  0  0  0  0  0  0  0  0
  1 13  1  0  0  0  0
  1 17  1  0  0  0  0
  2 11  1  0  0  0  0
  2 20  1  0  0  0  0
  3 14  1  0  0  0  0
  3 21  1  0  0  0  0
  4  7  1  0  0  0  0
  5  7  2  0  0  0  0
  6  8  1  0  0  0  0
  6 14  2  0  0  0  0
  7 17  1  0  0  0  0
  8 21  2  0  0  0  0
  9 21  1  0  0  0  0
  9 28  1  0  0  0  0
  9 29  1  0  0  0  0
 10 11  1  0  0  0  0
 10 12  2  0  0  0  0
 10 14  1  0  0  0  0
 11 16  2  0  0  0  0
 12 13  1  0  0  0  0
 12 22  1  0  0  0  0
 13 15  2  0  0  0  0
 15 18  1  0  0  0  0
 15 23  1  0  0  0  0
 16 19  1  0  0  0  0
 16 24  1  0  0  0  0
 17 18  2  0  0  0  0
 18 25  1  0  0  0  0
 19 20  2  0  0  0  0
 19 26  1  0  0  0  0
 20 27  1  0  0  0  0
M  CHG  2   4  -1   7   1
M  END
> <PUBCHEM_COMPOUND_CID>
5378303

> <PUBCHEM_CONFORMER_RMSD>
0.6

> <PUBCHEM_CONFORMER_DIVERSEORDER>
1
14
47
18
57
45
52
26
39
16
43
22
7
20
13
23
10
21
53
42
50
38
54
58
6
32
11
55
46
51
31
48
56
9
24
5
37
40
3
44
41
49
15
17
34
2
8
19
12
29
36
28
25
4
27
33
30
35

> <PUBCHEM_MMFF94_PARTIAL_CHARGES>
29
1 -0.28
10 0.09
11 0.09
12 -0.11
13 0.09
14 0.43
15 -0.15
16 -0.15
17 0.22
18 -0.15
19 -0.15
2 -0.28
20 -0.01
21 0.56
22 0.15
23 0.15
24 0.15
25 0.15
26 0.15
27 0.15
28 0.4
29 0.4
3 -0.28
4 -0.52
5 -0.52
6 -0.34
7 0.96
8 -0.34
9 -0.88

> <PUBCHEM_EFFECTIVE_ROTOR_COUNT>
4

> <PUBCHEM_PHARMACOPHORE_FEATURES>
10
1 1 acceptor
1 2 acceptor
1 4 acceptor
1 4 anion
1 5 acceptor
1 9 donor
3 8 9 21 cation
5 1 13 15 17 18 rings
5 2 11 16 19 20 rings
5 3 6 8 14 21 rings

> <PUBCHEM_HEAVY_ATOM_COUNT>
21

> <PUBCHEM_ATOM_DEF_STEREO_COUNT>
0

> <PUBCHEM_ATOM_UDEF_STEREO_COUNT>
0

> <PUBCHEM_BOND_DEF_STEREO_COUNT>
1

> <PUBCHEM_BOND_UDEF_STEREO_COUNT>
0

> <PUBCHEM_ISOTOPIC_ATOM_COUNT>
0

> <PUBCHEM_COMPONENT_COUNT>
1

> <PUBCHEM_CACTVS_TAUTO_COUNT>
2

> <PUBCHEM_CONFORMER_ID>
005210FF00000001

> <PUBCHEM_MMFF94_ENERGY>
51.1726

> <PUBCHEM_FEATURE_SELFOVERLAP>
50.836

> <PUBCHEM_SHAPE_FINGERPRINT>
10090160 65 18130791152974070006
10967382 1 18410573964030282898
1100329 8 18193276300069698058
11112241 14 16591702318465559760
11806522 49 18337111168462499751
13004483 165 18267593587802396899
13132413 78 18335419075828119909
13544653 18 18412537734625714683
13899415 154 18262507118005030760
14170010 4 18409733937652999337
14223421 5 18192993944566909942
14251757 17 17844544385898072157
14347332 77 18192710275194740342
14787075 74 18271526403403309002
14790565 3 18194958552644755564
15196674 1 18410292480136525074
15927050 60 17614281066164201028
1601671 61 18409167705669265721
167882 2 17984975999594257108
17492 89 18124038094190425242
18785283 64 17914319187764932757
19591789 44 18122061992405353950
20642791 178 18056749945063964229
21029758 11 18408888455844317009
21267235 1 18409720785724959446
21304253 335 18410003369161902893
21421861 104 17914904368115709530
21618674 68 18261950847158394990
221490 88 18197211448012373771
23402539 116 18334863796849995062
23419403 2 18196397937692407733
23557571 272 18263075677544391486
23558518 356 18054499477085526040
23559900 14 18122072167468156578
2871803 45 18411698829045153558
34934 24 18410016541504917559
350125 39 18265334083402984010
44154327 71 18339640045438259460
5104073 3 18411981403111766075
5283173 99 17986401198533800269
537710 114 18412258415817597188
5486654 2 18411413999767667134
6443956 14 18409728422192850400
7364860 26 18264490585884854297
81228 2 17979054300475557307

> <PUBCHEM_SHAPE_MULTIPOLES>
382.9
8.99
2.98
0.74
3.49
1.24
-0.01
-2.48
0.09
-1.2
0.01
0.01
0.34
0

> <PUBCHEM_SHAPE_SELFOVERLAP>
852.124

> <PUBCHEM_SHAPE_VOLUME>
205

> <PUBCHEM_COORDINATE_TYPE>
2
5
10

$$$$

