3504
  -OEChem-06251223272D

 54 55  0     1  0  0  0  0  0999 V2000
    8.0145    0.5370    0.0000 O   0  0  0  0  0  0  0  0  0  0  0  0
    5.1805    1.3376    0.0000 O   0  0  0  0  0  0  0  0  0  0  0  0
    6.2824    0.5370    0.0000 O   0  0  0  0  0  0  0  0  0  0  0  0
    4.8532    3.9630    0.0000 O   0  0  0  0  0  0  0  0  0  0  0  0
    6.3395    2.6248    0.0000 N   0  0  0  0  0  0  0  0  0  0  0  0
   10.6126   -3.9630    0.0000 N   0  0  0  0  0  0  0  0  0  0  0  0
    7.1485    2.0370    0.0000 C   0  0  3  0  0  0  0  0  0  0  0  0
    7.9575    2.6248    0.0000 C   0  0  0  0  0  0  0  0  0  0  0  0
    7.6485    3.5758    0.0000 C   0  0  0  0  0  0  0  0  0  0  0  0
    6.6485    3.5758    0.0000 C   0  0  0  0  0  0  0  0  0  0  0  0
    3.6942    2.6759    0.0000 C   0  0  0  0  0  0  0  0  0  0  0  0
    5.3884    2.3158    0.0000 C   0  0  0  0  0  0  0  0  0  0  0  0
    7.1485    1.0370    0.0000 C   0  0  0  0  0  0  0  0  0  0  0  0
    4.6453    2.9849    0.0000 C   0  0  0  0  0  0  0  0  0  0  0  0
    2.7431    2.3668    0.0000 C   0  0  0  0  0  0  0  0  0  0  0  0
    3.3852    3.6269    0.0000 C   0  0  0  0  0  0  0  0  0  0  0  0
    4.0032    1.7248    0.0000 C   0  0  0  0  0  0  0  0  0  0  0  0
    2.0000    3.0360    0.0000 C   0  0  0  0  0  0  0  0  0  0  0  0
    8.0145   -0.4630    0.0000 C   0  0  0  0  0  0  0  0  0  0  0  0
    8.8805   -0.9630    0.0000 C   0  0  0  0  0  0  0  0  0  0  0  0
    8.8805   -1.9630    0.0000 C   0  0  0  0  0  0  0  0  0  0  0  0
    9.7465   -2.4630    0.0000 C   0  0  0  0  0  0  0  0  0  0  0  0
   10.6126   -1.9630    0.0000 C   0  0  0  0  0  0  0  0  0  0  0  0
    9.7465   -3.4630    0.0000 C   0  0  0  0  0  0  0  0  0  0  0  0
   11.4786   -2.4630    0.0000 C   0  0  0  0  0  0  0  0  0  0  0  0
   11.4786   -3.4630    0.0000 C   0  0  0  0  0  0  0  0  0  0  0  0
    6.5960    1.7555    0.0000 H   0  0  0  0  0  0  0  0  0  0  0  0
    8.2675    2.0878    0.0000 H   0  0  0  0  0  0  0  0  0  0  0  0
    8.5239    2.8769    0.0000 H   0  0  0  0  0  0  0  0  0  0  0  0
    8.2549    3.7047    0.0000 H   0  0  0  0  0  0  0  0  0  0  0  0
    7.5837    4.1924    0.0000 H   0  0  0  0  0  0  0  0  0  0  0  0
    6.7133    4.1924    0.0000 H   0  0  0  0  0  0  0  0  0  0  0  0
    6.0420    3.7047    0.0000 H   0  0  0  0  0  0  0  0  0  0  0  0
    2.2546    1.9851    0.0000 H   0  0  0  0  0  0  0  0  0  0  0  0
    3.0342    1.8194    0.0000 H   0  0  0  0  0  0  0  0  0  0  0  0
    3.9748    3.8185    0.0000 H   0  0  0  0  0  0  0  0  0  0  0  0
    3.1936    4.2166    0.0000 H   0  0  0  0  0  0  0  0  0  0  0  0
    2.7955    3.4353    0.0000 H   0  0  0  0  0  0  0  0  0  0  0  0
    3.4136    1.5332    0.0000 H   0  0  0  0  0  0  0  0  0  0  0  0
    4.1948    1.1352    0.0000 H   0  0  0  0  0  0  0  0  0  0  0  0
    4.5929    1.9164    0.0000 H   0  0  0  0  0  0  0  0  0  0  0  0
    2.4149    3.4967    0.0000 H   0  0  0  0  0  0  0  0  0  0  0  0
    1.5392    3.4508    0.0000 H   0  0  0  0  0  0  0  0  0  0  0  0
    1.5851    2.5752    0.0000 H   0  0  0  0  0  0  0  0  0  0  0  0
    7.4039   -0.3554    0.0000 H   0  0  0  0  0  0  0  0  0  0  0  0
    7.8024   -1.0456    0.0000 H   0  0  0  0  0  0  0  0  0  0  0  0
    9.4911   -1.0707    0.0000 H   0  0  0  0  0  0  0  0  0  0  0  0
    9.0926   -0.3804    0.0000 H   0  0  0  0  0  0  0  0  0  0  0  0
    8.2700   -1.8554    0.0000 H   0  0  0  0  0  0  0  0  0  0  0  0
    8.6685   -2.5456    0.0000 H   0  0  0  0  0  0  0  0  0  0  0  0
   10.6126   -1.3430    0.0000 H   0  0  0  0  0  0  0  0  0  0  0  0
    9.2096   -3.7730    0.0000 H   0  0  0  0  0  0  0  0  0  0  0  0
   12.0155   -2.1530    0.0000 H   0  0  0  0  0  0  0  0  0  0  0  0
   12.0155   -3.7730    0.0000 H   0  0  0  0  0  0  0  0  0  0  0  0
  1 13  1  0  0  0  0
  1 19  1  0  0  0  0
  2 12  2  0  0  0  0
  3 13  2  0  0  0  0
  4 14  2  0  0  0  0
  5  7  1  0  0  0  0
  5 10  1  0  0  0  0
  5 12  1  0  0  0  0
  6 24  1  0  0  0  0
  6 26  2  0  0  0  0
  7  8  1  0  0  0  0
  7 13  1  0  0  0  0
  7 27  1  0  0  0  0
  8  9  1  0  0  0  0
  8 28  1  0  0  0  0
  8 29  1  0  0  0  0
  9 10  1  0  0  0  0
  9 30  1  0  0  0  0
  9 31  1  0  0  0  0
 10 32  1  0  0  0  0
 10 33  1  0  0  0  0
 11 14  1  0  0  0  0
 11 15  1  0  0  0  0
 11 16  1  0  0  0  0
 11 17  1  0  0  0  0
 12 14  1  0  0  0  0
 15 18  1  0  0  0  0
 15 34  1  0  0  0  0
 15 35  1  0  0  0  0
 16 36  1  0  0  0  0
 16 37  1  0  0  0  0
 16 38  1  0  0  0  0
 17 39  1  0  0  0  0
 17 40  1  0  0  0  0
 17 41  1  0  0  0  0
 18 42  1  0  0  0  0
 18 43  1  0  0  0  0
 18 44  1  0  0  0  0
 19 20  1  0  0  0  0
 19 45  1  0  0  0  0
 19 46  1  0  0  0  0
 20 21  1  0  0  0  0
 20 47  1  0  0  0  0
 20 48  1  0  0  0  0
 21 22  1  0  0  0  0
 21 49  1  0  0  0  0
 21 50  1  0  0  0  0
 22 23  1  0  0  0  0
 22 24  2  0  0  0  0
 23 25  2  0  0  0  0
 23 51  1  0  0  0  0
 24 52  1  0  0  0  0
 25 26  1  0  0  0  0
 25 53  1  0  0  0  0
 26 54  1  0  0  0  0
M  END
> <PUBCHEM_COMPOUND_CID>
3504

> <PUBCHEM_COMPOUND_CANONICALIZED>
1

> <PUBCHEM_CACTVS_COMPLEXITY>
518

> <PUBCHEM_CACTVS_HBOND_ACCEPTOR>
5

> <PUBCHEM_CACTVS_HBOND_DONOR>
0

> <PUBCHEM_CACTVS_ROTATABLE_BOND>
9

> <PUBCHEM_CACTVS_SUBSKEYS>
AAADceB7OAAAAAAAAAAAAAAAAAAAAWAAAAAsAAAAAAAAAAABgAAAHgAAAAAADizhmgY+iJMIFACoArH3XACCgCAxAiAI2CG4ZJgKIPLAkbGHIAhkhgDYyAeY0SIPAAAAAAAAAAAAAAAAAAAAAAAAAAAAAA==

> <PUBCHEM_IUPAC_OPENEYE_NAME>
3-(3-pyridyl)propyl 1-(3,3-dimethyl-2-oxo-pentanoyl)pyrrolidine-2-carboxylate

> <PUBCHEM_IUPAC_CAS_NAME>
1-(3,3-dimethyl-1,2-dioxopentyl)-2-pyrrolidinecarboxylic acid 3-(3-pyridinyl)propyl ester

> <PUBCHEM_IUPAC_NAME>
3-pyridin-3-ylpropyl 1-(3,3-dimethyl-2-oxopentanoyl)pyrrolidine-2-carboxylate

> <PUBCHEM_IUPAC_SYSTEMATIC_NAME>
3-pyridin-3-ylpropyl 1-(3,3-dimethyl-2-oxidanylidene-pentanoyl)pyrrolidine-2-carboxylate

> <PUBCHEM_IUPAC_TRADITIONAL_NAME>
1-(2-keto-3,3-dimethyl-pentanoyl)pyrrolidine-2-carboxylic acid 3-(3-pyridyl)propyl ester

> <PUBCHEM_IUPAC_INCHI>
InChI=1S/C20H28N2O4/c1-4-20(2,3)17(23)18(24)22-12-6-10-16(22)19(25)26-13-7-9-15-8-5-11-21-14-15/h5,8,11,14,16H,4,6-7,9-10,12-13H2,1-3H3

> <PUBCHEM_IUPAC_INCHIKEY>
OQAHHWOPVDDWHD-UHFFFAOYSA-N

> <PUBCHEM_XLOGP3_AA>
3.1

> <PUBCHEM_EXACT_MASS>
360.204907

> <PUBCHEM_MOLECULAR_FORMULA>
C20H28N2O4

> <PUBCHEM_MOLECULAR_WEIGHT>
360.44732

> <PUBCHEM_OPENEYE_CAN_SMILES>
CCC(C)(C)C(=O)C(=O)N1CCCC1C(=O)OCCCC2=CN=CC=C2

> <PUBCHEM_OPENEYE_ISO_SMILES>
CCC(C)(C)C(=O)C(=O)N1CCCC1C(=O)OCCCC2=CN=CC=C2

> <PUBCHEM_CACTVS_TPSA>
76.6

> <PUBCHEM_MONOISOTOPIC_WEIGHT>
360.204907

> <PUBCHEM_TOTAL_CHARGE>
0

> <PUBCHEM_HEAVY_ATOM_COUNT>
26

> <PUBCHEM_ATOM_DEF_STEREO_COUNT>
0

> <PUBCHEM_ATOM_UDEF_STEREO_COUNT>
1

> <PUBCHEM_BOND_DEF_STEREO_COUNT>
0

> <PUBCHEM_BOND_UDEF_STEREO_COUNT>
0

> <PUBCHEM_ISOTOPIC_ATOM_COUNT>
0

> <PUBCHEM_COMPONENT_COUNT>
1

> <PUBCHEM_CACTVS_TAUTO_COUNT>
1

> <PUBCHEM_COORDINATE_TYPE>
1
5
255

> <PUBCHEM_BONDANNOTATIONS>
22  23  8
22  24  8
23  25  8
25  26  8
6  24  8
6  26  8
7  13  3

$$$$

