440140
  -OEChem-07051212483D

 66 68  0     1  0  0  0  0  0999 V2000
   -0.9007    0.7215   -0.8765 O   0  0  0  0  0  0  0  0  0  0  0  0
   -3.0510    1.0118    0.0718 O   0  0  0  0  0  0  0  0  0  0  0  0
   -2.8141   -1.2294   -0.6641 O   0  0  0  0  0  0  0  0  0  0  0  0
    2.5411    0.4562    0.2733 O   0  0  0  0  0  0  0  0  0  0  0  0
   -1.2364    1.5292    2.0066 O   0  0  0  0  0  0  0  0  0  0  0  0
    0.5842    3.5713   -0.3145 O   0  0  0  0  0  0  0  0  0  0  0  0
    3.7806   -1.5005   -0.2130 O   0  0  0  0  0  0  0  0  0  0  0  0
   -5.6263    1.1070   -1.0389 O   0  0  0  0  0  0  0  0  0  0  0  0
   -3.1128    3.6055   -0.9224 O   0  0  0  0  0  0  0  0  0  0  0  0
   -6.8627   -1.2249    0.1484 O   0  0  0  0  0  0  0  0  0  0  0  0
   -5.0670   -2.6313    1.8947 O   0  0  0  0  0  0  0  0  0  0  0  0
    4.0776    0.9180    2.5287 O   0  0  0  0  0  0  0  0  0  0  0  0
    6.6807    1.0529    1.3113 O   0  0  0  0  0  0  0  0  0  0  0  0
    6.6626   -1.4034    0.0209 O   0  0  0  0  0  0  0  0  0  0  0  0
   -0.9887   -2.8036    0.6174 O   0  0  0  0  0  0  0  0  0  0  0  0
    3.8492   -2.0962   -3.0948 O   0  0  0  0  0  0  0  0  0  0  0  0
   -1.8495    1.6554   -0.3400 C   0  0  1  0  0  0  0  0  0  0  0  0
   -1.1350    2.3311    0.8306 C   0  0  2  0  0  0  0  0  0  0  0  0
    0.4335    1.1871   -0.5872 C   0  0  1  0  0  0  0  0  0  0  0  0
    0.3161    2.3620    0.3880 C   0  0  1  0  0  0  0  0  0  0  0  0
   -3.4628    0.0266   -0.8739 C   0  0  1  0  0  0  0  0  0  0  0  0
    1.2265    0.0165   -0.0257 C   0  0  0  0  0  0  0  0  0  0  0  0
   -4.9810   -0.1550   -0.9096 C   0  0  1  0  0  0  0  0  0  0  0  0
   -2.2342    2.6287   -1.4544 C   0  0  0  0  0  0  0  0  0  0  0  0
   -5.4945   -0.8597    0.3445 C   0  0  2  0  0  0  0  0  0  0  0  0
   -4.6915   -2.1341    0.6123 C   0  0  1  0  0  0  0  0  0  0  0  0
   -3.1824   -1.8586    0.5686 C   0  0  1  0  0  0  0  0  0  0  0  0
    3.3408   -0.5988    0.8062 C   0  0  1  0  0  0  0  0  0  0  0  0
    4.5392   -0.0214    1.5636 C   0  0  1  0  0  0  0  0  0  0  0  0
    5.5165    0.6476    0.5969 C   0  0  2  0  0  0  0  0  0  0  0  0
    5.9003   -0.3232   -0.5235 C   0  0  2  0  0  0  0  0  0  0  0  0
    4.6402   -0.8915   -1.1892 C   0  0  1  0  0  0  0  0  0  0  0  0
   -2.3623   -3.1414    0.6763 C   0  0  0  0  0  0  0  0  0  0  0  0
    4.9638   -1.9555   -2.2325 C   0  0  0  0  0  0  0  0  0  0  0  0
   -1.5479    3.3160    1.0687 H   0  0  0  0  0  0  0  0  0  0  0  0
    0.8892    1.5078   -1.5320 H   0  0  0  0  0  0  0  0  0  0  0  0
    1.0186    2.3054    1.2254 H   0  0  0  0  0  0  0  0  0  0  0  0
   -3.1886    0.3173   -1.8908 H   0  0  0  0  0  0  0  0  0  0  0  0
    0.7377   -0.3683    0.8780 H   0  0  0  0  0  0  0  0  0  0  0  0
    1.2519   -0.7991   -0.7585 H   0  0  0  0  0  0  0  0  0  0  0  0
   -5.2570   -0.7563   -1.7856 H   0  0  0  0  0  0  0  0  0  0  0  0
   -1.3565    3.1386   -1.8636 H   0  0  0  0  0  0  0  0  0  0  0  0
   -2.7273    2.1652   -2.3113 H   0  0  0  0  0  0  0  0  0  0  0  0
   -5.4761   -0.1859    1.2090 H   0  0  0  0  0  0  0  0  0  0  0  0
   -4.9590   -2.9001   -0.1258 H   0  0  0  0  0  0  0  0  0  0  0  0
   -2.8838   -1.2011    1.3960 H   0  0  0  0  0  0  0  0  0  0  0  0
    2.7383   -1.1727    1.5216 H   0  0  0  0  0  0  0  0  0  0  0  0
    5.0593   -0.8153    2.1129 H   0  0  0  0  0  0  0  0  0  0  0  0
    5.0644    1.5556    0.1799 H   0  0  0  0  0  0  0  0  0  0  0  0
    6.5424    0.1789   -1.2550 H   0  0  0  0  0  0  0  0  0  0  0  0
    4.0834   -0.0789   -1.6739 H   0  0  0  0  0  0  0  0  0  0  0  0
   -0.7388    1.9796    2.7103 H   0  0  0  0  0  0  0  0  0  0  0  0
    1.5123    3.5406   -0.6035 H   0  0  0  0  0  0  0  0  0  0  0  0
   -2.5772   -3.8125   -0.1620 H   0  0  0  0  0  0  0  0  0  0  0  0
   -2.5587   -3.6633    1.6176 H   0  0  0  0  0  0  0  0  0  0  0  0
    5.1655   -2.9277   -1.7711 H   0  0  0  0  0  0  0  0  0  0  0  0
    5.8200   -1.6563   -2.8454 H   0  0  0  0  0  0  0  0  0  0  0  0
   -5.2778    1.5335   -1.8403 H   0  0  0  0  0  0  0  0  0  0  0  0
   -3.3264    4.2229   -1.6427 H   0  0  0  0  0  0  0  0  0  0  0  0
   -6.9114   -1.8159   -0.6221 H   0  0  0  0  0  0  0  0  0  0  0  0
   -4.8005   -1.9749    2.5608 H   0  0  0  0  0  0  0  0  0  0  0  0
    3.4563    0.4546    3.1160 H   0  0  0  0  0  0  0  0  0  0  0  0
    7.2901    1.4578    0.6708 H   0  0  0  0  0  0  0  0  0  0  0  0
    6.0623   -1.9806    0.5218 H   0  0  0  0  0  0  0  0  0  0  0  0
   -0.4856   -3.6330    0.6841 H   0  0  0  0  0  0  0  0  0  0  0  0
    4.0788   -2.7746   -3.7525 H   0  0  0  0  0  0  0  0  0  0  0  0
  1 17  1  0  0  0  0
  1 19  1  0  0  0  0
  2 17  1  0  0  0  0
  2 21  1  0  0  0  0
  3 21  1  0  0  0  0
  3 27  1  0  0  0  0
  4 22  1  0  0  0  0
  4 28  1  0  0  0  0
  5 18  1  0  0  0  0
  5 52  1  0  0  0  0
  6 20  1  0  0  0  0
  6 53  1  0  0  0  0
  7 28  1  0  0  0  0
  7 32  1  0  0  0  0
  8 23  1  0  0  0  0
  8 58  1  0  0  0  0
  9 24  1  0  0  0  0
  9 59  1  0  0  0  0
 10 25  1  0  0  0  0
 10 60  1  0  0  0  0
 11 26  1  0  0  0  0
 11 61  1  0  0  0  0
 12 29  1  0  0  0  0
 12 62  1  0  0  0  0
 13 30  1  0  0  0  0
 13 63  1  0  0  0  0
 14 31  1  0  0  0  0
 14 64  1  0  0  0  0
 15 33  1  0  0  0  0
 15 65  1  0  0  0  0
 16 34  1  0  0  0  0
 16 66  1  0  0  0  0
 17 18  1  0  0  0  0
 17 24  1  0  0  0  0
 18 20  1  0  0  0  0
 18 35  1  0  0  0  0
 19 20  1  0  0  0  0
 19 22  1  0  0  0  0
 19 36  1  0  0  0  0
 20 37  1  0  0  0  0
 21 23  1  0  0  0  0
 21 38  1  0  0  0  0
 22 39  1  0  0  0  0
 22 40  1  0  0  0  0
 23 25  1  0  0  0  0
 23 41  1  0  0  0  0
 24 42  1  0  0  0  0
 24 43  1  0  0  0  0
 25 26  1  0  0  0  0
 25 44  1  0  0  0  0
 26 27  1  0  0  0  0
 26 45  1  0  0  0  0
 27 33  1  0  0  0  0
 27 46  1  0  0  0  0
 28 29  1  0  0  0  0
 28 47  1  0  0  0  0
 29 30  1  0  0  0  0
 29 48  1  0  0  0  0
 30 31  1  0  0  0  0
 30 49  1  0  0  0  0
 31 32  1  0  0  0  0
 31 50  1  0  0  0  0
 32 34  1  0  0  0  0
 32 51  1  0  0  0  0
 33 54  1  0  0  0  0
 33 55  1  0  0  0  0
 34 56  1  0  0  0  0
 34 57  1  0  0  0  0
M  END
> <PUBCHEM_COMPOUND_CID>
440140

> <PUBCHEM_CONFORMER_RMSD>
1.2

> <PUBCHEM_CONFORMER_DIVERSEORDER>
1
2
50
27
43
36
24
71
38
56
52
53
58
6
42
69
49
41
68
70
46
57
47
35
37
13
31
5
62
12
45
14
19
4
39
59
64
65
29
30
17
7
25
21
18
60
55
63
32
15
33
23
54
44
40
20
8
22
61
9
51
16
48
67
11
28
10
26
66
3
34

> <PUBCHEM_MMFF94_PARTIAL_CHARGES>
45
1 -0.56
10 -0.68
11 -0.68
12 -0.68
13 -0.68
14 -0.68
15 -0.68
16 -0.68
17 0.56
18 0.28
19 0.28
2 -0.56
20 0.28
21 0.56
22 0.28
23 0.28
24 0.28
25 0.28
26 0.28
27 0.28
28 0.56
29 0.28
3 -0.56
30 0.28
31 0.28
32 0.28
33 0.28
34 0.28
4 -0.56
5 -0.68
52 0.4
53 0.4
58 0.4
59 0.4
6 -0.68
60 0.4
61 0.4
62 0.4
63 0.4
64 0.4
65 0.4
66 0.4
7 -0.56
8 -0.68
9 -0.68

> <PUBCHEM_EFFECTIVE_ROTOR_COUNT>
11.4

> <PUBCHEM_PHARMACOPHORE_FEATURES>
30
1 1 acceptor
1 10 acceptor
1 10 donor
1 11 acceptor
1 11 donor
1 12 acceptor
1 12 donor
1 13 acceptor
1 13 donor
1 14 acceptor
1 14 donor
1 15 acceptor
1 15 donor
1 16 acceptor
1 16 donor
1 2 acceptor
1 3 acceptor
1 4 acceptor
1 5 acceptor
1 5 donor
1 6 acceptor
1 6 donor
1 7 acceptor
1 8 acceptor
1 8 donor
1 9 acceptor
1 9 donor
5 1 17 18 19 20 rings
6 3 21 23 25 26 27 rings
6 7 28 29 30 31 32 rings

> <PUBCHEM_HEAVY_ATOM_COUNT>
34

> <PUBCHEM_ATOM_DEF_STEREO_COUNT>
14

> <PUBCHEM_ATOM_UDEF_STEREO_COUNT>
0

> <PUBCHEM_BOND_DEF_STEREO_COUNT>
0

> <PUBCHEM_BOND_UDEF_STEREO_COUNT>
0

> <PUBCHEM_ISOTOPIC_ATOM_COUNT>
0

> <PUBCHEM_COMPONENT_COUNT>
1

> <PUBCHEM_CACTVS_TAUTO_COUNT>
1

> <PUBCHEM_CONFORMER_ID>
0006B74C00000001

> <PUBCHEM_MMFF94_ENERGY>
109.9885

> <PUBCHEM_FEATURE_SELFOVERLAP>
152.41

> <PUBCHEM_SHAPE_FINGERPRINT>
10290309 65 18129950095594327803
11135609 99 18058745714369142114
11552529 35 15359128961399684326
11578080 2 14563629159768236065
11796584 16 18272938210851146457
12516196 113 18334860493534444800
12730499 353 17749113292873862182
12788726 201 18131354119743072050
13402501 40 18334858311781138486
13617811 41 18131068247073167655
13782708 43 18116146844030607910
14251757 5 18130218277029597946
14840074 17 17458064850132672126
14950920 106 15502381105735857935
15131766 46 15721106867944737768
15320294 125 17487929806848154586
15361156 5 18335141959947861516
15510800 12 18338231558243306575
15927050 60 18049446148047424989
20511986 3 17059515013848077312
21623969 137 17749108907406610054
23557571 272 18336266833827044492
23559900 14 18339089189464507865
3004659 81 17989207014525759572
335352 9 18343870996721447023
3383291 50 18340770347840451571
437815 12 18334856087567892691
469060 322 17917982889072611443

> <PUBCHEM_SHAPE_MULTIPOLES>
605.8
16.09
3.58
1.83
8.86
0.93
-0.32
-7.76
0.27
-3.3
-0.21
2.09
-0.48
3.69

> <PUBCHEM_SHAPE_SELFOVERLAP>
1256.736

> <PUBCHEM_SHAPE_VOLUME>
341.3

> <PUBCHEM_COORDINATE_TYPE>
2
5
10

$$$$

