5460444
  -OEChem-07051212513D

 41 45  0     1  0  0  0  0  0999 V2000
    1.1651    1.7678    0.4333 O   0  0  0  0  0  0  0  0  0  0  0  0
   -1.2725    3.6821    0.5208 O   0  0  0  0  0  0  0  0  0  0  0  0
    3.9864    0.8314    0.3636 O   0  0  0  0  0  0  0  0  0  0  0  0
   -2.3457   -2.0372    0.6990 N   0  0  1  0  0  0  0  0  0  0  0  0
   -0.6885    0.3281    0.1422 C   0  0  1  0  0  0  0  0  0  0  0  0
   -1.7804   -0.1287   -0.7497 C   0  0  0  0  0  0  0  0  0  0  0  0
   -1.9035   -1.6411   -0.6752 C   0  0  1  0  0  0  0  0  0  0  0  0
   -0.1096    1.6967   -0.2143 C   0  0  1  0  0  0  0  0  0  0  0  0
   -1.1651    0.0659    1.5856 C   0  0  0  0  0  0  0  0  0  0  0  0
    0.5848   -0.3786   -0.0972 C   0  0  0  0  0  0  0  0  0  0  0  0
   -0.5420   -2.3725   -1.0289 C   0  0  0  0  0  0  0  0  0  0  0  0
   -1.5368   -1.4293    1.7814 C   0  0  0  0  0  0  0  0  0  0  0  0
    0.7143   -1.6616   -0.5798 C   0  0  0  0  0  0  0  0  0  0  0  0
    1.6358    0.4832    0.1785 C   0  0  0  0  0  0  0  0  0  0  0  0
   -2.5815    0.7781   -1.3360 C   0  0  0  0  0  0  0  0  0  0  0  0
   -1.2854    2.6548   -0.1485 C   0  0  0  0  0  0  0  0  0  0  0  0
   -2.4526    2.2742   -1.0877 C   0  0  0  0  0  0  0  0  0  0  0  0
    2.0188   -2.1318   -0.6917 C   0  0  0  0  0  0  0  0  0  0  0  0
   -3.7720   -1.7732    0.9052 C   0  0  0  0  0  0  0  0  0  0  0  0
    2.9281    0.0314    0.0933 C   0  0  0  0  0  0  0  0  0  0  0  0
    3.1116   -1.2972   -0.3371 C   0  0  0  0  0  0  0  0  0  0  0  0
    5.2908    0.2574    0.2434 C   0  0  0  0  0  0  0  0  0  0  0  0
   -2.6468   -2.0040   -1.3968 H   0  0  0  0  0  0  0  0  0  0  0  0
    0.1409    1.7623   -1.2932 H   0  0  0  0  0  0  0  0  0  0  0  0
   -2.0447    0.6833    1.8111 H   0  0  0  0  0  0  0  0  0  0  0  0
   -0.3981    0.3380    2.3218 H   0  0  0  0  0  0  0  0  0  0  0  0
   -0.4890   -2.4576   -2.1226 H   0  0  0  0  0  0  0  0  0  0  0  0
   -0.5517   -3.3935   -0.6278 H   0  0  0  0  0  0  0  0  0  0  0  0
   -0.6137   -2.0141    1.8782 H   0  0  0  0  0  0  0  0  0  0  0  0
   -2.0364   -1.5516    2.7511 H   0  0  0  0  0  0  0  0  0  0  0  0
   -3.4210    0.4452   -1.9390 H   0  0  0  0  0  0  0  0  0  0  0  0
   -2.2928    2.7850   -2.0426 H   0  0  0  0  0  0  0  0  0  0  0  0
   -3.3817    2.6390   -0.6375 H   0  0  0  0  0  0  0  0  0  0  0  0
    2.2124   -3.1334   -1.0660 H   0  0  0  0  0  0  0  0  0  0  0  0
   -4.3723   -2.2621    0.1300 H   0  0  0  0  0  0  0  0  0  0  0  0
   -4.0129   -0.7051    0.9070 H   0  0  0  0  0  0  0  0  0  0  0  0
   -4.1019   -2.1965    1.8607 H   0  0  0  0  0  0  0  0  0  0  0  0
    4.0954   -1.7441   -0.4517 H   0  0  0  0  0  0  0  0  0  0  0  0
    5.5044   -0.0324   -0.7909 H   0  0  0  0  0  0  0  0  0  0  0  0
    5.4271   -0.5751    0.9418 H   0  0  0  0  0  0  0  0  0  0  0  0
    6.0129    1.0329    0.5184 H   0  0  0  0  0  0  0  0  0  0  0  0
  1  8  1  0  0  0  0
  1 14  1  0  0  0  0
  2 16  2  0  0  0  0
  3 20  1  0  0  0  0
  3 22  1  0  0  0  0
  4  7  1  0  0  0  0
  4 12  1  0  0  0  0
  4 19  1  0  0  0  0
  5  6  1  0  0  0  0
  5  8  1  0  0  0  0
  5  9  1  0  0  0  0
  5 10  1  0  0  0  0
  6  7  1  0  0  0  0
  6 15  2  0  0  0  0
  7 11  1  0  0  0  0
  7 23  1  0  0  0  0
  8 16  1  0  0  0  0
  8 24  1  0  0  0  0
  9 12  1  0  0  0  0
  9 25  1  0  0  0  0
  9 26  1  0  0  0  0
 10 13  2  0  0  0  0
 10 14  1  0  0  0  0
 11 13  1  0  0  0  0
 11 27  1  0  0  0  0
 11 28  1  0  0  0  0
 12 29  1  0  0  0  0
 12 30  1  0  0  0  0
 13 18  1  0  0  0  0
 14 20  2  0  0  0  0
 15 17  1  0  0  0  0
 15 31  1  0  0  0  0
 16 17  1  0  0  0  0
 17 32  1  0  0  0  0
 17 33  1  0  0  0  0
 18 21  2  0  0  0  0
 18 34  1  0  0  0  0
 19 35  1  0  0  0  0
 19 36  1  0  0  0  0
 19 37  1  0  0  0  0
 20 21  1  0  0  0  0
 21 38  1  0  0  0  0
 22 39  1  0  0  0  0
 22 40  1  0  0  0  0
 22 41  1  0  0  0  0
M  END
> <PUBCHEM_COMPOUND_CID>
5460444

> <PUBCHEM_CONFORMER_RMSD>
0.6

> <PUBCHEM_CONFORMER_DIVERSEORDER>
1

> <PUBCHEM_MMFF94_PARTIAL_CHARGES>
24
1 -0.36
10 -0.14
11 0.14
12 0.27
13 -0.14
14 0.08
15 -0.29
16 0.45
17 0.2
18 -0.15
19 0.27
2 -0.57
20 0.08
21 -0.15
22 0.28
3 -0.36
31 0.15
34 0.15
38 0.15
4 -0.81
5 0.28
6 -0.28
7 0.41
8 0.34

> <PUBCHEM_EFFECTIVE_ROTOR_COUNT>
2.2

> <PUBCHEM_PHARMACOPHORE_FEATURES>
9
1 1 acceptor
1 2 acceptor
1 3 acceptor
1 4 cation
5 1 5 8 10 14 rings
6 10 13 14 18 20 21 rings
6 4 5 6 7 9 12 rings
6 5 6 7 10 11 13 rings
6 5 6 8 15 16 17 rings

> <PUBCHEM_HEAVY_ATOM_COUNT>
22

> <PUBCHEM_ATOM_DEF_STEREO_COUNT>
2

> <PUBCHEM_ATOM_UDEF_STEREO_COUNT>
1

> <PUBCHEM_BOND_DEF_STEREO_COUNT>
0

> <PUBCHEM_BOND_UDEF_STEREO_COUNT>
0

> <PUBCHEM_ISOTOPIC_ATOM_COUNT>
0

> <PUBCHEM_COMPONENT_COUNT>
1

> <PUBCHEM_CACTVS_TAUTO_COUNT>
5

> <PUBCHEM_CONFORMER_ID>
005351DC00000001

> <PUBCHEM_MMFF94_ENERGY>
95.2498

> <PUBCHEM_FEATURE_SELFOVERLAP>
47.628

> <PUBCHEM_SHAPE_FINGERPRINT>
10411042 1 17760661269816370350
10863032 1 18129670827502078958
10948715 1 18051136087948264565
10967382 1 18119535589683964140
12035758 1 18341604907155890281
12403814 3 18336827494125008002
12423570 1 9670032869193744319
12553582 1 18193275200357805310
12730499 353 17336749389344609453
12788726 201 18272660038561751755
13027679 85 18263084314486266165
13140716 1 17975133137242400850
13583140 156 17059770143522021416
14142880 1 18114172055978463657
14223421 5 18336540612153730214
14790565 3 17404567889041764573
14817 1 11022689422766969131
16945 1 18045801223328650205
17357779 13 18340216189278247191
19591789 44 16684560322905763612
20510252 161 18341894099455770819
20600515 1 17559658569615308607
21524375 3 17766276865907637917
22182313 1 18261947544317962518
22907989 373 18340749520873600804
2306618 200 18114183025388143482
2334 1 17904492800602006932
23419403 2 16302645121990034907
23493267 7 18201447999278319714
23557571 272 18342450439839560990
23558518 356 18195244657390060781
23559900 14 18193565695451944938
25 1 17545878694910040125
2748010 2 18262513814117534222
3380486 145 18338784638113643723
5104073 3 18337962285542257162
5845 1 7346873423694442563
81228 2 18058427928883562697
9709674 26 18263647436517960902
9981440 41 18265632033499754618

> <PUBCHEM_SHAPE_MULTIPOLES>
430.16
5.93
3.19
1.24
7.39
1.56
0.24
-0.31
0.46
-2.19
-0.15
-0.89
-0.32
1.11

> <PUBCHEM_SHAPE_SELFOVERLAP>
975.813

> <PUBCHEM_SHAPE_VOLUME>
225.5

> <PUBCHEM_COORDINATE_TYPE>
2
5
10

$$$$

