164609
  -OEChem-07051213033D

 50 54  0     1  0  0  0  0  0999 V2000
    0.0837   -1.5209    1.9342 O   0  0  0  0  0  0  0  0  0  0  0  0
   -5.3401    1.6945   -0.8080 O   0  0  0  0  0  0  0  0  0  0  0  0
   -6.1668   -0.4312   -0.0331 O   0  0  0  0  0  0  0  0  0  0  0  0
    4.2159    1.7617    0.5117 O   0  0  0  0  0  0  0  0  0  0  0  0
    5.8368   -0.1851   -0.5685 O   0  0  0  0  0  0  0  0  0  0  0  0
   -0.0004    1.1121    0.8921 N   0  0  1  0  0  0  0  0  0  0  0  0
    0.2077   -0.9408   -0.4671 C   0  0  2  0  0  0  0  0  0  0  0  0
   -0.5739    0.3933   -0.2761 C   0  0  1  0  0  0  0  0  0  0  0  0
   -0.1699   -1.9855    0.6086 C   0  0  2  0  0  0  0  0  0  0  0  0
   -2.0704    0.0913   -0.1944 C   0  0  0  0  0  0  0  0  0  0  0  0
    1.7077   -0.7242   -0.5050 C   0  0  0  0  0  0  0  0  0  0  0  0
   -1.6521   -2.3405    0.5184 C   0  0  0  0  0  0  0  0  0  0  0  0
   -2.5634   -1.1693    0.2348 C   0  0  0  0  0  0  0  0  0  0  0  0
    1.3859    1.5337    0.5955 C   0  0  0  0  0  0  0  0  0  0  0  0
    2.2661    0.4416    0.0401 C   0  0  0  0  0  0  0  0  0  0  0  0
   -2.9856    1.0925   -0.5815 C   0  0  0  0  0  0  0  0  0  0  0  0
   -0.7594    2.2821    1.3348 C   0  0  0  0  0  0  0  0  0  0  0  0
    2.5505   -1.6998   -1.0588 C   0  0  0  0  0  0  0  0  0  0  0  0
   -3.9518   -1.3951    0.3131 C   0  0  0  0  0  0  0  0  0  0  0  0
    3.6566    0.6215    0.0099 C   0  0  0  0  0  0  0  0  0  0  0  0
   -4.3368    0.8329   -0.4877 C   0  0  0  0  0  0  0  0  0  0  0  0
   -4.8074   -0.3764   -0.0458 C   0  0  0  0  0  0  0  0  0  0  0  0
    3.9324   -1.5154   -1.0753 C   0  0  0  0  0  0  0  0  0  0  0  0
    4.4854   -0.3551   -0.5411 C   0  0  0  0  0  0  0  0  0  0  0  0
   -6.4985    0.8879   -0.5127 C   0  0  0  0  0  0  0  0  0  0  0  0
    4.9745    2.5598   -0.3923 C   0  0  0  0  0  0  0  0  0  0  0  0
    6.5733   -0.6655    0.5543 C   0  0  0  0  0  0  0  0  0  0  0  0
   -0.0764   -1.3465   -1.4506 H   0  0  0  0  0  0  0  0  0  0  0  0
   -0.4208    1.0045   -1.1793 H   0  0  0  0  0  0  0  0  0  0  0  0
    0.4183   -2.9024    0.4893 H   0  0  0  0  0  0  0  0  0  0  0  0
   -1.9731   -2.8252    1.4490 H   0  0  0  0  0  0  0  0  0  0  0  0
   -1.7874   -3.0573   -0.3019 H   0  0  0  0  0  0  0  0  0  0  0  0
    1.8337    1.8942    1.5302 H   0  0  0  0  0  0  0  0  0  0  0  0
    1.3858    2.3627   -0.1255 H   0  0  0  0  0  0  0  0  0  0  0  0
   -2.6402    2.0564   -0.9424 H   0  0  0  0  0  0  0  0  0  0  0  0
   -1.7372    1.9942    1.7331 H   0  0  0  0  0  0  0  0  0  0  0  0
   -0.8965    3.0163    0.5333 H   0  0  0  0  0  0  0  0  0  0  0  0
   -0.2454    2.7821    2.1645 H   0  0  0  0  0  0  0  0  0  0  0  0
    2.1322   -2.6107   -1.4798 H   0  0  0  0  0  0  0  0  0  0  0  0
   -4.3429   -2.3570    0.6304 H   0  0  0  0  0  0  0  0  0  0  0  0
   -0.4743   -0.7431    2.1009 H   0  0  0  0  0  0  0  0  0  0  0  0
    4.5707   -2.2808   -1.5085 H   0  0  0  0  0  0  0  0  0  0  0  0
   -7.0992    0.7892   -1.4242 H   0  0  0  0  0  0  0  0  0  0  0  0
   -7.0972    1.3988    0.2501 H   0  0  0  0  0  0  0  0  0  0  0  0
    6.0409    2.3474   -0.2768 H   0  0  0  0  0  0  0  0  0  0  0  0
    4.8108    3.6098   -0.1318 H   0  0  0  0  0  0  0  0  0  0  0  0
    4.6672    2.4172   -1.4343 H   0  0  0  0  0  0  0  0  0  0  0  0
    6.2480   -0.1655    1.4721 H   0  0  0  0  0  0  0  0  0  0  0  0
    7.6311   -0.4424    0.3909 H   0  0  0  0  0  0  0  0  0  0  0  0
    6.4552   -1.7491    0.6544 H   0  0  0  0  0  0  0  0  0  0  0  0
  1  9  1  0  0  0  0
  1 41  1  0  0  0  0
  2 21  1  0  0  0  0
  2 25  1  0  0  0  0
  3 22  1  0  0  0  0
  3 25  1  0  0  0  0
  4 20  1  0  0  0  0
  4 26  1  0  0  0  0
  5 24  1  0  0  0  0
  5 27  1  0  0  0  0
  6  8  1  0  0  0  0
  6 14  1  0  0  0  0
  6 17  1  0  0  0  0
  7  8  1  0  0  0  0
  7  9  1  0  0  0  0
  7 11  1  0  0  0  0
  7 28  1  0  0  0  0
  8 10  1  0  0  0  0
  8 29  1  0  0  0  0
  9 12  1  0  0  0  0
  9 30  1  0  0  0  0
 10 13  1  0  0  0  0
 10 16  2  0  0  0  0
 11 15  2  0  0  0  0
 11 18  1  0  0  0  0
 12 13  1  0  0  0  0
 12 31  1  0  0  0  0
 12 32  1  0  0  0  0
 13 19  2  0  0  0  0
 14 15  1  0  0  0  0
 14 33  1  0  0  0  0
 14 34  1  0  0  0  0
 15 20  1  0  0  0  0
 16 21  1  0  0  0  0
 16 35  1  0  0  0  0
 17 36  1  0  0  0  0
 17 37  1  0  0  0  0
 17 38  1  0  0  0  0
 18 23  2  0  0  0  0
 18 39  1  0  0  0  0
 19 22  1  0  0  0  0
 19 40  1  0  0  0  0
 20 24  2  0  0  0  0
 21 22  2  0  0  0  0
 23 24  1  0  0  0  0
 23 42  1  0  0  0  0
 25 43  1  0  0  0  0
 25 44  1  0  0  0  0
 26 45  1  0  0  0  0
 26 46  1  0  0  0  0
 26 47  1  0  0  0  0
 27 48  1  0  0  0  0
 27 49  1  0  0  0  0
 27 50  1  0  0  0  0
M  END
> <PUBCHEM_COMPOUND_CID>
164609

> <PUBCHEM_CONFORMER_RMSD>
0.8

> <PUBCHEM_CONFORMER_DIVERSEORDER>
2
1
4
3

> <PUBCHEM_MMFF94_PARTIAL_CHARGES>
32
1 -0.68
10 -0.14
11 -0.14
12 0.14
13 -0.14
14 0.41
15 -0.14
16 -0.15
17 0.27
18 -0.15
19 -0.15
2 -0.36
20 0.08
21 0.08
22 0.08
23 -0.15
24 0.08
25 0.56
26 0.28
27 0.28
3 -0.36
35 0.15
39 0.15
4 -0.36
40 0.15
41 0.4
42 0.15
5 -0.36
6 -0.81
7 0.14
8 0.41
9 0.28

> <PUBCHEM_EFFECTIVE_ROTOR_COUNT>
3.4

> <PUBCHEM_PHARMACOPHORE_FEATURES>
12
1 1 acceptor
1 1 donor
1 2 acceptor
1 3 acceptor
1 4 acceptor
1 5 acceptor
1 6 cation
5 2 3 21 22 25 rings
6 10 13 16 19 21 22 rings
6 11 15 18 20 23 24 rings
6 6 7 8 11 14 15 rings
6 7 8 9 10 12 13 rings

> <PUBCHEM_HEAVY_ATOM_COUNT>
27

> <PUBCHEM_ATOM_DEF_STEREO_COUNT>
3

> <PUBCHEM_ATOM_UDEF_STEREO_COUNT>
0

> <PUBCHEM_BOND_DEF_STEREO_COUNT>
0

> <PUBCHEM_BOND_UDEF_STEREO_COUNT>
0

> <PUBCHEM_ISOTOPIC_ATOM_COUNT>
0

> <PUBCHEM_COMPONENT_COUNT>
1

> <PUBCHEM_CACTVS_TAUTO_COUNT>
1

> <PUBCHEM_CONFORMER_ID>
0002830100000002

> <PUBCHEM_MMFF94_ENERGY>
105.0577

> <PUBCHEM_FEATURE_SELFOVERLAP>
61.132

> <PUBCHEM_SHAPE_FINGERPRINT>
10835480 77 18336550421516591128
10906281 52 18042665299890846992
11719270 70 18260270772243598286
12011746 2 18260542334139877366
12166972 35 18272366460510249284
12236239 1 16056875827592657166
12403259 415 18272374200288866261
12516196 113 17530686510931646721
12788726 201 18187648075645140816
13402501 40 18409730655596449725
14790565 3 18264483074193288729
15183329 4 18334572464416587017
15196674 1 18410010992290658918
17349148 13 18408884036407352408
18222031 100 5617258130121792387
18608769 82 18342452592304342459
200 152 17240198863114656450
20715895 44 18412545422612055780
21033648 29 18338522936643890673
21267235 1 18186793704145523398
21279426 13 18265049330738252047
21521721 280 18410284801325610041
221357 26 18260834821676738757
23402539 116 18410015424755112798
23558518 356 17972579250745708968
23559900 14 18336265657116749064
2838139 119 18411706491045108085
3004659 81 18413389839426922168
335352 9 18410293610361647422
3380486 145 18048296865552724211
34934 24 18334299729661582343
3545911 37 18411135844220187255
4073 2 18130221562689869058
4340502 62 18202846564820211594
495365 180 17749400217531127610
5104073 3 18339357470712609778
5283173 99 18411982493970213293
7226269 152 18411418423056253584

> <PUBCHEM_SHAPE_MULTIPOLES>
521.32
14.07
2.36
1.05
1.54
0.37
-0.22
2.84
2.73
-0.77
-0.33
-0.18
-0.09
0.93

> <PUBCHEM_SHAPE_SELFOVERLAP>
1159.185

> <PUBCHEM_SHAPE_VOLUME>
277.3

> <PUBCHEM_COORDINATE_TYPE>
2
5
10

$$$$

