328953
  -OEChem-07051213103D

 58 61  0     1  0  0  0  0  0999 V2000
    0.3557   -2.5035    0.9099 Br  0  0  0  0  0  0  0  0  0  0  0  0
   -4.9184   -4.6186    0.4582 Br  0  0  0  0  0  0  0  0  0  0  0  0
    0.9331    1.4265    3.3913 Br  0  0  0  0  0  0  0  0  0  0  0  0
    1.4023    2.1859   -2.2829 Br  0  0  0  0  0  0  0  0  0  0  0  0
   -3.3922   -0.5231   -2.2683 O   0  0  0  0  0  0  0  0  0  0  0  0
   -1.2965   -2.1765   -2.1270 O   0  0  0  0  0  0  0  0  0  0  0  0
   -2.1549   -4.1856    1.7175 O   0  0  0  0  0  0  0  0  0  0  0  0
    4.8051   -1.6842   -0.7668 O   0  0  0  0  0  0  0  0  0  0  0  0
   -3.9994    3.0979    0.1106 O   0  0  0  0  0  0  0  0  0  0  0  0
    0.2542    2.5166    0.5741 O   0  0  0  0  0  0  0  0  0  0  0  0
   -1.6262    4.1729    1.8086 O   0  0  0  0  0  0  0  0  0  0  0  0
    6.5211   -2.4400   -2.0839 O   0  0  0  0  0  0  0  0  0  0  0  0
   -3.2218    0.8840   -2.2249 N   0  0  0  0  0  0  0  0  0  0  0  0
   -1.8865    3.1875   -0.9035 N   0  0  0  0  0  0  0  0  0  0  0  0
    6.8808   -0.9668   -0.3207 N   0  0  0  0  0  0  0  0  0  0  0  0
   -3.1129   -1.0537   -0.9547 C   0  0  2  0  0  0  0  0  0  0  0  0
   -3.3958    0.1083   -0.0044 C   0  0  0  0  0  0  0  0  0  0  0  0
   -1.6305   -1.5190   -0.8987 C   0  0  1  0  0  0  0  0  0  0  0  0
   -4.0628   -2.1934   -0.6680 C   0  0  0  0  0  0  0  0  0  0  0  0
   -3.2161    1.2030   -0.9775 C   0  0  0  0  0  0  0  0  0  0  0  0
   -1.3847   -2.4955    0.2283 C   0  0  0  0  0  0  0  0  0  0  0  0
   -3.7051   -3.2373    0.1025 C   0  0  0  0  0  0  0  0  0  0  0  0
   -2.3699   -3.2887    0.6893 C   0  0  0  0  0  0  0  0  0  0  0  0
   -3.0785    2.6033   -0.5288 C   0  0  0  0  0  0  0  0  0  0  0  0
   -1.5336    4.5494   -0.5748 C   0  0  0  0  0  0  0  0  0  0  0  0
   -0.7953    4.6668    0.7573 C   0  0  2  0  0  0  0  0  0  0  0  0
    4.7294   -0.9567    0.4790 C   0  0  1  0  0  0  0  0  0  0  0  0
    6.0597   -0.2359    0.5876 C   0  0  0  0  0  0  0  0  0  0  0  0
    3.5390   -0.0334    0.5041 C   0  0  0  0  0  0  0  0  0  0  0  0
    0.5228    3.8998    0.7814 C   0  0  0  0  0  0  0  0  0  0  0  0
    3.0869    0.5541   -0.6775 C   0  0  0  0  0  0  0  0  0  0  0  0
    2.8893    0.2343    1.7091 C   0  0  0  0  0  0  0  0  0  0  0  0
    1.3352    1.6766    0.5508 C   0  0  0  0  0  0  0  0  0  0  0  0
    1.7874    1.0891    1.7324 C   0  0  0  0  0  0  0  0  0  0  0  0
    1.9851    1.4091   -0.6541 C   0  0  0  0  0  0  0  0  0  0  0  0
   -2.4273   -3.5883    2.9703 C   0  0  0  0  0  0  0  0  0  0  0  0
    6.1214   -1.7648   -1.1461 C   0  0  0  0  0  0  0  0  0  0  0  0
   -2.6992    0.1823    0.8344 H   0  0  0  0  0  0  0  0  0  0  0  0
   -4.4271    0.1379    0.3632 H   0  0  0  0  0  0  0  0  0  0  0  0
   -0.9793   -0.6393   -0.8257 H   0  0  0  0  0  0  0  0  0  0  0  0
   -5.0665   -2.1289   -1.0811 H   0  0  0  0  0  0  0  0  0  0  0  0
   -0.3547   -2.4160   -2.0850 H   0  0  0  0  0  0  0  0  0  0  0  0
   -1.2129    2.6389   -1.4304 H   0  0  0  0  0  0  0  0  0  0  0  0
   -0.9155    4.9339   -1.3925 H   0  0  0  0  0  0  0  0  0  0  0  0
   -2.4578    5.1372   -0.5374 H   0  0  0  0  0  0  0  0  0  0  0  0
    4.6284   -1.7155    1.2655 H   0  0  0  0  0  0  0  0  0  0  0  0
   -0.5924    5.7234    0.9653 H   0  0  0  0  0  0  0  0  0  0  0  0
    6.0257    0.8042    0.2469 H   0  0  0  0  0  0  0  0  0  0  0  0
    6.4811   -0.2684    1.5960 H   0  0  0  0  0  0  0  0  0  0  0  0
    1.0033    4.0352    1.7570 H   0  0  0  0  0  0  0  0  0  0  0  0
    1.1967    4.2833    0.0071 H   0  0  0  0  0  0  0  0  0  0  0  0
    7.8834   -0.8415   -0.4173 H   0  0  0  0  0  0  0  0  0  0  0  0
    3.5960    0.3568   -1.6179 H   0  0  0  0  0  0  0  0  0  0  0  0
    3.2478   -0.2256    2.6272 H   0  0  0  0  0  0  0  0  0  0  0  0
   -1.7795   -2.7270    3.1648 H   0  0  0  0  0  0  0  0  0  0  0  0
   -3.4767   -3.2849    3.0533 H   0  0  0  0  0  0  0  0  0  0  0  0
   -2.2338   -4.3325    3.7489 H   0  0  0  0  0  0  0  0  0  0  0  0
   -2.4511    4.6876    1.7958 H   0  0  0  0  0  0  0  0  0  0  0  0
  1 21  1  0  0  0  0
  2 22  1  0  0  0  0
  3 34  1  0  0  0  0
  4 35  1  0  0  0  0
  5 13  1  0  0  0  0
  5 16  1  0  0  0  0
  6 18  1  0  0  0  0
  6 42  1  0  0  0  0
  7 23  1  0  0  0  0
  7 36  1  0  0  0  0
  8 27  1  0  0  0  0
  8 37  1  0  0  0  0
  9 24  2  0  0  0  0
 10 30  1  0  0  0  0
 10 33  1  0  0  0  0
 11 26  1  0  0  0  0
 11 58  1  0  0  0  0
 12 37  2  0  0  0  0
 13 20  2  0  0  0  0
 14 24  1  0  0  0  0
 14 25  1  0  0  0  0
 14 43  1  0  0  0  0
 15 28  1  0  0  0  0
 15 37  1  0  0  0  0
 15 52  1  0  0  0  0
 16 17  1  0  0  0  0
 16 18  1  0  0  0  0
 16 19  1  0  0  0  0
 17 20  1  0  0  0  0
 17 38  1  0  0  0  0
 17 39  1  0  0  0  0
 18 21  1  0  0  0  0
 18 40  1  0  0  0  0
 19 22  2  0  0  0  0
 19 41  1  0  0  0  0
 20 24  1  0  0  0  0
 21 23  2  0  0  0  0
 22 23  1  0  0  0  0
 25 26  1  0  0  0  0
 25 44  1  0  0  0  0
 25 45  1  0  0  0  0
 26 30  1  0  0  0  0
 26 47  1  0  0  0  0
 27 28  1  0  0  0  0
 27 29  1  0  0  0  0
 27 46  1  0  0  0  0
 28 48  1  0  0  0  0
 28 49  1  0  0  0  0
 29 31  2  0  0  0  0
 29 32  1  0  0  0  0
 30 50  1  0  0  0  0
 30 51  1  0  0  0  0
 31 35  1  0  0  0  0
 31 53  1  0  0  0  0
 32 34  2  0  0  0  0
 32 54  1  0  0  0  0
 33 34  1  0  0  0  0
 33 35  2  0  0  0  0
 36 55  1  0  0  0  0
 36 56  1  0  0  0  0
 36 57  1  0  0  0  0
M  END
> <PUBCHEM_COMPOUND_CID>
328953

> <PUBCHEM_CONFORMER_RMSD>
1.6

> <PUBCHEM_CONFORMER_DIVERSEORDER>
1
30
39
82
133
22
45
87
85
134
97
113
25
106
54
38
17
84
36
3
53
107
11
55
62
50
40
114
61
80
20
43
83
88
94
28
33
136
46
32
86
75
59
112
15
57
6
91
63
49
137
93
117
7
41
95
24
120
125
135
73
26
96
76
14
81
99
129
111
29
98
64
68
27
5
23
108
16
19
77
126
69
110
51
12
116
60
10
90
4
72
118
89
128
132
130
13
8
70
127
42
66
71
131
115
56
67
101
9
92
119
65
31
122
124
35
34
37
121
21
79
123
138
44
74
48
104
18
105
109
78
100
52
103
47
2
58
102

> <PUBCHEM_MMFF94_PARTIAL_CHARGES>
44
1 -0.11
10 -0.36
11 -0.68
12 -0.57
13 -0.51
14 -0.73
15 -0.73
16 0.42
17 0.06
18 0.42
19 -0.29
2 -0.11
20 0.39
21 -0.03
22 0.11
23 0.08
24 0.63
25 0.3
26 0.28
27 0.42
28 0.3
29 -0.14
3 -0.11
30 0.28
31 -0.15
32 -0.15
33 0.08
34 0.11
35 0.11
36 0.28
37 0.78
4 -0.11
41 0.15
42 0.4
43 0.37
5 -0.22
52 0.37
53 0.15
54 0.15
58 0.4
6 -0.68
7 -0.36
8 -0.43
9 -0.57

> <PUBCHEM_EFFECTIVE_ROTOR_COUNT>
10.4

> <PUBCHEM_PHARMACOPHORE_FEATURES>
19
1 1 hydrophobe
1 10 acceptor
1 11 acceptor
1 11 donor
1 12 acceptor
1 13 acceptor
1 14 donor
1 15 donor
1 2 hydrophobe
1 3 hydrophobe
1 4 hydrophobe
1 6 acceptor
1 6 donor
1 7 acceptor
1 9 acceptor
5 5 13 16 17 20 rings
5 8 15 27 28 37 rings
6 16 18 19 21 22 23 rings
6 29 31 32 33 34 35 rings

> <PUBCHEM_HEAVY_ATOM_COUNT>
37

> <PUBCHEM_ATOM_DEF_STEREO_COUNT>
0

> <PUBCHEM_ATOM_UDEF_STEREO_COUNT>
4

> <PUBCHEM_BOND_DEF_STEREO_COUNT>
0

> <PUBCHEM_BOND_UDEF_STEREO_COUNT>
0

> <PUBCHEM_ISOTOPIC_ATOM_COUNT>
0

> <PUBCHEM_COMPONENT_COUNT>
1

> <PUBCHEM_CACTVS_TAUTO_COUNT>
4

> <PUBCHEM_CONFORMER_ID>
000504F900000001

> <PUBCHEM_MMFF94_ENERGY>
99.4689

> <PUBCHEM_FEATURE_SELFOVERLAP>
96.427

> <PUBCHEM_SHAPE_FINGERPRINT>
11285246 1 17703502191135025280
117089 54 18338791191817382671
11756154 5 18342453733731246305
11828532 37 17984985882630808271
12156800 1 17123330694546501097
12786520 15 17973129921498881211
12788726 201 18338249266202946994
13941206 138 17982450700262126394
14114206 34 18196679429806692373
14251740 79 18043532922314170496
14251757 5 18412826914984672880
15351339 4 18125181552265536141
17627616 140 17835247022852659119
17909252 39 18124026837402551424
19311894 1 18411420643464817714
19315092 285 15504938458418526765
19958102 18 18124602131149348020
21133410 32 16270502042656941954
23559900 14 17771634447052879879
2818148 4 17983558733448012865
395649 100 18338514244896290310
404807 14 18265889160566009019
42626532 9 18411422778712241984
437795 70 18334306387056005207
4435113 14 18040989700727735814
46939830 39 13106969585948139937
508706 21 18336836376106794487
5265222 85 18266178520733396916
563151 40 17828753281409593952
6201320 77 16517900014554681398
6695519 79 16951710012623035066

> <PUBCHEM_SHAPE_MULTIPOLES>
723.31
11.51
6.93
2.48
14.21
4.45
1
-14.73
-3.74
-5.99
1.55
0.29
-0.02
2.98

> <PUBCHEM_SHAPE_SELFOVERLAP>
1495.329

> <PUBCHEM_SHAPE_VOLUME>
426.4

> <PUBCHEM_COORDINATE_TYPE>
2
5
10

$$$$

