74151
  -OEChem-07051213093D

 22 21  0     0  0  0  0  0  0999 V2000
    2.5360   -0.1052   -0.9508 O   0  0  0  0  0  0  0  0  0  0  0  0
    2.0853    0.1525    1.2640 O   0  0  0  0  0  0  0  0  0  0  0  0
   -0.6398    0.0047    0.1324 N   0  0  0  0  0  0  0  0  0  0  0  0
   -0.5036   -1.3894   -0.2878 C   0  0  0  0  0  0  0  0  0  0  0  0
   -1.9328    0.5419   -0.2901 C   0  0  0  0  0  0  0  0  0  0  0  0
    0.4515    0.8117   -0.4120 C   0  0  0  0  0  0  0  0  0  0  0  0
   -1.6234   -2.2473    0.2639 C   0  0  0  0  0  0  0  0  0  0  0  0
   -2.1240    1.9670    0.1863 C   0  0  0  0  0  0  0  0  0  0  0  0
    1.7509    0.2643    0.0941 C   0  0  0  0  0  0  0  0  0  0  0  0
   -0.4791   -1.4829   -1.3812 H   0  0  0  0  0  0  0  0  0  0  0  0
    0.4288   -1.8202    0.0942 H   0  0  0  0  0  0  0  0  0  0  0  0
   -2.0590    0.4948   -1.3792 H   0  0  0  0  0  0  0  0  0  0  0  0
   -2.7548   -0.0234    0.1604 H   0  0  0  0  0  0  0  0  0  0  0  0
    0.4298    1.8508   -0.0677 H   0  0  0  0  0  0  0  0  0  0  0  0
    0.4398    0.8262   -1.5092 H   0  0  0  0  0  0  0  0  0  0  0  0
   -1.7796   -2.0762    1.3346 H   0  0  0  0  0  0  0  0  0  0  0  0
   -2.5697   -2.0955   -0.2646 H   0  0  0  0  0  0  0  0  0  0  0  0
   -1.3681   -3.3060    0.1398 H   0  0  0  0  0  0  0  0  0  0  0  0
   -1.8868    2.0751    1.2504 H   0  0  0  0  0  0  0  0  0  0  0  0
   -1.5256    2.6837   -0.3843 H   0  0  0  0  0  0  0  0  0  0  0  0
   -3.1713    2.2620    0.0549 H   0  0  0  0  0  0  0  0  0  0  0  0
    3.3956   -0.4702   -0.6508 H   0  0  0  0  0  0  0  0  0  0  0  0
  1  9  1  0  0  0  0
  1 22  1  0  0  0  0
  2  9  2  0  0  0  0
  3  4  1  0  0  0  0
  3  5  1  0  0  0  0
  3  6  1  0  0  0  0
  4  7  1  0  0  0  0
  4 10  1  0  0  0  0
  4 11  1  0  0  0  0
  5  8  1  0  0  0  0
  5 12  1  0  0  0  0
  5 13  1  0  0  0  0
  6  9  1  0  0  0  0
  6 14  1  0  0  0  0
  6 15  1  0  0  0  0
  7 16  1  0  0  0  0
  7 17  1  0  0  0  0
  7 18  1  0  0  0  0
  8 19  1  0  0  0  0
  8 20  1  0  0  0  0
  8 21  1  0  0  0  0
M  END
> <PUBCHEM_COMPOUND_CID>
74151

> <PUBCHEM_CONFORMER_RMSD>
0.6

> <PUBCHEM_CONFORMER_DIVERSEORDER>
1
7
14
17
5
12
15
6
10
3
2
18
13
9
4
16
8
11

> <PUBCHEM_MMFF94_PARTIAL_CHARGES>
8
1 -0.65
2 -0.57
22 0.5
3 -0.81
4 0.27
5 0.27
6 0.33
9 0.66

> <PUBCHEM_EFFECTIVE_ROTOR_COUNT>
4

> <PUBCHEM_PHARMACOPHORE_FEATURES>
4
1 1 acceptor
1 2 acceptor
1 3 cation
3 1 2 9 anion

> <PUBCHEM_HEAVY_ATOM_COUNT>
9

> <PUBCHEM_ATOM_DEF_STEREO_COUNT>
0

> <PUBCHEM_ATOM_UDEF_STEREO_COUNT>
0

> <PUBCHEM_BOND_DEF_STEREO_COUNT>
0

> <PUBCHEM_BOND_UDEF_STEREO_COUNT>
0

> <PUBCHEM_ISOTOPIC_ATOM_COUNT>
0

> <PUBCHEM_COMPONENT_COUNT>
1

> <PUBCHEM_CACTVS_TAUTO_COUNT>
1

> <PUBCHEM_CONFORMER_ID>
000121A700000001

> <PUBCHEM_MMFF94_ENERGY>
11.0755

> <PUBCHEM_FEATURE_SELFOVERLAP>
20.354

> <PUBCHEM_SHAPE_FINGERPRINT>
12932741 1 17822007584436341732
20711985 344 18339636733475460479
21040471 1 18338800129569712381
21930827 45 18335414686001992305
23235685 24 18339075020451527973
23552423 10 17771345270898418855
23552449 1 18264776454270321241
24536 1 18263089833561348652
5084963 1 18114176479784319413

> <PUBCHEM_SHAPE_MULTIPOLES>
168.5
3.3
2.04
0.86
1.28
0.7
-0.09
-0.69
-0.06
-1.98
-0.15
0.45
-0.01
0.06

> <PUBCHEM_SHAPE_SELFOVERLAP>
309.667

> <PUBCHEM_SHAPE_VOLUME>
108.7

> <PUBCHEM_COORDINATE_TYPE>
2
5
10

$$$$

