60953
  -OEChem-07051213033D

 47 48  0     1  0  0  0  0  0999 V2000
   -0.1418   -2.6904   -0.1559 F   0  0  0  0  0  0  0  0  0  0  0  0
   -4.4218   -0.7029    1.0415 O   0  0  0  0  0  0  0  0  0  0  0  0
   -4.3764    1.9686   -1.3502 O   0  0  0  0  0  0  0  0  0  0  0  0
   -6.5698    1.1330    0.0387 O   0  0  0  0  0  0  0  0  0  0  0  0
   -1.7747    2.3628    0.6155 O   0  0  0  0  0  0  0  0  0  0  0  0
    3.8502   -0.3931   -0.0133 O   0  0  0  0  0  0  0  0  0  0  0  0
    2.5348    1.4642    0.3002 O   0  0  0  0  0  0  0  0  0  0  0  0
   -2.3602    0.1422    0.3343 N   0  0  0  0  0  0  0  0  0  0  0  0
   -0.0554    0.9006    0.3368 N   0  0  0  0  0  0  0  0  0  0  0  0
    1.6262   -0.6601    0.0466 N   0  0  0  0  0  0  0  0  0  0  0  0
   -4.4150    0.6225   -0.9228 C   0  0  2  0  0  0  0  0  0  0  0  0
   -5.8274    0.1402   -0.6689 C   0  0  1  0  0  0  0  0  0  0  0  0
   -3.7643    0.4217    0.4350 C   0  0  1  0  0  0  0  0  0  0  0  0
   -5.5989   -1.0345    0.2726 C   0  0  1  0  0  0  0  0  0  0  0  0
   -5.3366   -2.3466   -0.4545 C   0  0  0  0  0  0  0  0  0  0  0  0
   -1.9184   -1.1615    0.1345 C   0  0  0  0  0  0  0  0  0  0  0  0
   -1.4088    1.1994    0.4383 C   0  0  0  0  0  0  0  0  0  0  0  0
   -0.6255   -1.4530    0.0369 C   0  0  0  0  0  0  0  0  0  0  0  0
    0.3039   -0.3274    0.1513 C   0  0  0  0  0  0  0  0  0  0  0  0
    7.5383    0.3737   -0.0812 C   0  0  0  0  0  0  0  0  0  0  0  0
    6.2506   -0.4463   -0.1236 C   0  0  0  0  0  0  0  0  0  0  0  0
    8.7669   -0.5089   -0.2990 C   0  0  0  0  0  0  0  0  0  0  0  0
    5.0193    0.4314    0.0507 C   0  0  0  0  0  0  0  0  0  0  0  0
    2.6560    0.2555    0.1276 C   0  0  0  0  0  0  0  0  0  0  0  0
   10.0487    0.3088   -0.2912 C   0  0  0  0  0  0  0  0  0  0  0  0
   -3.9441    0.0016   -1.6944 H   0  0  0  0  0  0  0  0  0  0  0  0
   -6.3814   -0.1055   -1.5786 H   0  0  0  0  0  0  0  0  0  0  0  0
   -3.9153    1.2923    1.0840 H   0  0  0  0  0  0  0  0  0  0  0  0
   -6.4265   -1.1655    0.9783 H   0  0  0  0  0  0  0  0  0  0  0  0
   -6.2376   -2.6839   -0.9765 H   0  0  0  0  0  0  0  0  0  0  0  0
   -5.0333   -3.1238    0.2550 H   0  0  0  0  0  0  0  0  0  0  0  0
   -4.5347   -2.2579   -1.1934 H   0  0  0  0  0  0  0  0  0  0  0  0
   -3.4417    2.2295   -1.4090 H   0  0  0  0  0  0  0  0  0  0  0  0
   -6.1516    1.2862    0.9023 H   0  0  0  0  0  0  0  0  0  0  0  0
   -2.6518   -1.9502    0.0554 H   0  0  0  0  0  0  0  0  0  0  0  0
    7.6180    0.8851    0.8858 H   0  0  0  0  0  0  0  0  0  0  0  0
    7.5039    1.1500   -0.8553 H   0  0  0  0  0  0  0  0  0  0  0  0
    6.1761   -0.9876   -1.0752 H   0  0  0  0  0  0  0  0  0  0  0  0
    6.2636   -1.2157    0.6585 H   0  0  0  0  0  0  0  0  0  0  0  0
    1.8815   -1.6334   -0.0990 H   0  0  0  0  0  0  0  0  0  0  0  0
    8.6834   -1.0343   -1.2574 H   0  0  0  0  0  0  0  0  0  0  0  0
    8.8208   -1.2722    0.4860 H   0  0  0  0  0  0  0  0  0  0  0  0
    5.0519    0.9376    1.0225 H   0  0  0  0  0  0  0  0  0  0  0  0
    4.9749    1.1817   -0.7473 H   0  0  0  0  0  0  0  0  0  0  0  0
   10.0403    1.0595   -1.0879 H   0  0  0  0  0  0  0  0  0  0  0  0
   10.1791    0.8242    0.6657 H   0  0  0  0  0  0  0  0  0  0  0  0
   10.9146   -0.3422   -0.4471 H   0  0  0  0  0  0  0  0  0  0  0  0
  1 18  1  0  0  0  0
  2 13  1  0  0  0  0
  2 14  1  0  0  0  0
  3 11  1  0  0  0  0
  3 33  1  0  0  0  0
  4 12  1  0  0  0  0
  4 34  1  0  0  0  0
  5 17  2  0  0  0  0
  6 23  1  0  0  0  0
  6 24  1  0  0  0  0
  7 24  2  0  0  0  0
  8 13  1  0  0  0  0
  8 16  1  0  0  0  0
  8 17  1  0  0  0  0
  9 17  1  0  0  0  0
  9 19  2  0  0  0  0
 10 19  1  0  0  0  0
 10 24  1  0  0  0  0
 10 40  1  0  0  0  0
 11 12  1  0  0  0  0
 11 13  1  0  0  0  0
 11 26  1  0  0  0  0
 12 14  1  0  0  0  0
 12 27  1  0  0  0  0
 13 28  1  0  0  0  0
 14 15  1  0  0  0  0
 14 29  1  0  0  0  0
 15 30  1  0  0  0  0
 15 31  1  0  0  0  0
 15 32  1  0  0  0  0
 16 18  2  0  0  0  0
 16 35  1  0  0  0  0
 18 19  1  0  0  0  0
 20 21  1  0  0  0  0
 20 22  1  0  0  0  0
 20 36  1  0  0  0  0
 20 37  1  0  0  0  0
 21 23  1  0  0  0  0
 21 38  1  0  0  0  0
 21 39  1  0  0  0  0
 22 25  1  0  0  0  0
 22 41  1  0  0  0  0
 22 42  1  0  0  0  0
 23 43  1  0  0  0  0
 23 44  1  0  0  0  0
 25 45  1  0  0  0  0
 25 46  1  0  0  0  0
 25 47  1  0  0  0  0
M  END
> <PUBCHEM_COMPOUND_CID>
60953

> <PUBCHEM_CONFORMER_RMSD>
1

> <PUBCHEM_CONFORMER_DIVERSEORDER>
1
63
25
75
81
30
86
27
47
58
23
84
9
78
34
79
87
8
74
70
57
76
54
48
85
82
65
53
80
42
31
12
19
77
33
41
29
60
39
72
73
69
28
55
51
56
68
22
62
35
18
45
36
20
67
50
46
52
24
71
26
64
4
59
16
44
14
83
13
43
21
10
37
15
3
49
66
32
5
61
2
38
7
40
6
11
17

> <PUBCHEM_MMFF94_PARTIAL_CHARGES>
24
1 -0.15
10 -0.49
11 0.28
12 0.28
13 0.58
14 0.28
16 -0.04
17 0.84
18 0.16
19 0.5
2 -0.56
23 0.28
24 0.78
3 -0.68
33 0.4
34 0.4
35 0.15
4 -0.68
40 0.37
5 -0.57
6 -0.43
7 -0.57
8 -0.47
9 -0.66

> <PUBCHEM_EFFECTIVE_ROTOR_COUNT>
9

> <PUBCHEM_PHARMACOPHORE_FEATURES>
12
1 10 donor
1 2 acceptor
1 25 hydrophobe
1 3 acceptor
1 3 donor
1 4 acceptor
1 4 donor
1 5 acceptor
1 7 acceptor
1 9 donor
5 2 11 12 13 14 rings
6 8 9 16 17 18 19 rings

> <PUBCHEM_HEAVY_ATOM_COUNT>
25

> <PUBCHEM_ATOM_DEF_STEREO_COUNT>
4

> <PUBCHEM_ATOM_UDEF_STEREO_COUNT>
0

> <PUBCHEM_BOND_DEF_STEREO_COUNT>
0

> <PUBCHEM_BOND_UDEF_STEREO_COUNT>
0

> <PUBCHEM_ISOTOPIC_ATOM_COUNT>
0

> <PUBCHEM_COMPONENT_COUNT>
1

> <PUBCHEM_CACTVS_TAUTO_COUNT>
4

> <PUBCHEM_CONFORMER_ID>
0000EE1900000001

> <PUBCHEM_MMFF94_ENERGY>
52.5969

> <PUBCHEM_FEATURE_SELFOVERLAP>
60.953

> <PUBCHEM_SHAPE_FINGERPRINT>
10411042 1 17980196384526968979
10968037 39 18411136935363413346
11315181 36 18335416867861482656
12091667 2 17846495933005788971
12104220 1 17531238465985016795
12166972 35 18130786724673040116
12236239 1 17917714617263095218
12838862 33 18337687364574895522
13533116 47 17131564920326848456
14251764 18 18131355207303545426
14251764 46 18410855460128161806
15183329 4 18334575759458375922
15419008 47 17530971293824908864
15461852 350 18410288082818040678
15849732 13 18130786755285774790
18335252 98 18409442579366248994
18681886 176 18412269402349293248
19489759 90 17561366180008421793
21150785 3 18202845457478044636
21267235 1 18409726227368967187
21360443 120 18202845474827524762
22224240 67 15719113561760699462
23402539 116 18334580127007423799
23559900 14 18115033996138857952
3004659 81 18343867693533276792
335352 9 18409168796517138500
3545911 37 18409730656034163146
6138700 20 18410011030924187658
67123 10 18410573969179610668
8209 1 18410855465383172928

> <PUBCHEM_SHAPE_MULTIPOLES>
457.06
24.05
1.85
0.79
59.39
0.32
0.09
0.36
4
-2.81
0.11
-0.74
-0.14
0.41

> <PUBCHEM_SHAPE_SELFOVERLAP>
942.267

> <PUBCHEM_SHAPE_VOLUME>
263.1

> <PUBCHEM_COORDINATE_TYPE>
2
5
10

$$$$

