185971
  -OEChem-07051213032D

 53 56  0     1  0  0  0  0  0999 V2000
    7.7748   -0.6296    0.0000 O   0  0  0  0  0  0  0  0  0  0  0  0
    3.4446   -1.1296    0.0000 O   0  0  0  0  0  0  0  0  0  0  0  0
    6.9088   -2.1296    0.0000 O   0  0  0  0  0  0  0  0  0  0  0  0
    2.5405    0.3672    0.0000 O   0  0  0  0  0  0  0  0  0  0  0  0
   10.4408    0.8496    0.0000 N   0  0  0  0  0  0  0  0  0  0  0  0
   10.4408    1.8912    0.0000 C   0  0  1  0  0  0  0  0  0  0  0  0
    9.5347    0.3357    0.0000 C   0  0  1  0  0  0  0  0  0  0  0  0
    9.5347    2.4050    0.0000 C   0  0  0  0  0  0  0  0  0  0  0  0
    8.6408    0.8704    0.0000 C   0  0  0  0  0  0  0  0  0  0  0  0
    8.6408    1.8704    0.0000 C   0  0  0  0  0  0  0  0  0  0  0  0
    7.7748    0.3704    0.0000 C   0  0  0  0  0  0  0  0  0  0  0  0
    6.9088    0.8704    0.0000 C   0  0  0  0  0  0  0  0  0  0  0  0
    9.5232   -0.6642    0.0000 C   0  0  0  0  0  0  0  0  0  0  0  0
   11.3049    2.3945    0.0000 C   0  0  0  0  0  0  0  0  0  0  0  0
    7.7748    2.3704    0.0000 C   0  0  0  0  0  0  0  0  0  0  0  0
    6.0427    0.3704    0.0000 C   0  0  0  0  0  0  0  0  0  0  0  0
    6.9088    1.8704    0.0000 C   0  0  0  0  0  0  0  0  0  0  0  0
    5.1767    0.8704    0.0000 C   0  0  0  0  0  0  0  0  0  0  0  0
    6.0427   -0.6296    0.0000 C   0  0  0  0  0  0  0  0  0  0  0  0
    4.3107    0.3704    0.0000 C   0  0  0  0  0  0  0  0  0  0  0  0
    5.1767   -1.1296    0.0000 C   0  0  0  0  0  0  0  0  0  0  0  0
    4.3107   -0.6296    0.0000 C   0  0  0  0  0  0  0  0  0  0  0  0
    5.1928    1.9119    0.0000 C   0  0  0  0  0  0  0  0  0  0  0  0
    6.9088   -1.1296    0.0000 C   0  0  0  0  0  0  0  0  0  0  0  0
    3.4007    0.8772    0.0000 C   0  0  0  0  0  0  0  0  0  0  0  0
    4.2947    2.4396    0.0000 C   0  0  0  0  0  0  0  0  0  0  0  0
    3.3926    1.9188    0.0000 C   0  0  0  0  0  0  0  0  0  0  0  0
    3.4446   -2.1296    0.0000 C   0  0  0  0  0  0  0  0  0  0  0  0
   10.9783    1.5822    0.0000 H   0  0  0  0  0  0  0  0  0  0  0  0
   10.0687    0.0205    0.0000 H   0  0  0  0  0  0  0  0  0  0  0  0
    9.9284    2.8840    0.0000 H   0  0  0  0  0  0  0  0  0  0  0  0
    9.1301    2.8748    0.0000 H   0  0  0  0  0  0  0  0  0  0  0  0
   10.9765    0.5375    0.0000 H   0  0  0  0  0  0  0  0  0  0  0  0
    8.9032   -0.6571    0.0000 H   0  0  0  0  0  0  0  0  0  0  0  0
    9.5160   -1.2842    0.0000 H   0  0  0  0  0  0  0  0  0  0  0  0
   10.1431   -0.6714    0.0000 H   0  0  0  0  0  0  0  0  0  0  0  0
   11.6170    1.8588    0.0000 H   0  0  0  0  0  0  0  0  0  0  0  0
   11.8406    2.7066    0.0000 H   0  0  0  0  0  0  0  0  0  0  0  0
   10.9928    2.9303    0.0000 H   0  0  0  0  0  0  0  0  0  0  0  0
    7.7748    2.9904    0.0000 H   0  0  0  0  0  0  0  0  0  0  0  0
    6.3718    2.1804    0.0000 H   0  0  0  0  0  0  0  0  0  0  0  0
    5.1767   -1.7496    0.0000 H   0  0  0  0  0  0  0  0  0  0  0  0
    8.3117   -0.9396    0.0000 H   0  0  0  0  0  0  0  0  0  0  0  0
    5.7332    2.2156    0.0000 H   0  0  0  0  0  0  0  0  0  0  0  0
    7.5193   -1.2373    0.0000 H   0  0  0  0  0  0  0  0  0  0  0  0
    7.1208   -0.5470    0.0000 H   0  0  0  0  0  0  0  0  0  0  0  0
    4.2971    3.0596    0.0000 H   0  0  0  0  0  0  0  0  0  0  0  0
    2.8545    2.2267    0.0000 H   0  0  0  0  0  0  0  0  0  0  0  0
    7.4457   -2.4396    0.0000 H   0  0  0  0  0  0  0  0  0  0  0  0
    2.0000    0.6710    0.0000 H   0  0  0  0  0  0  0  0  0  0  0  0
    2.8246   -2.1296    0.0000 H   0  0  0  0  0  0  0  0  0  0  0  0
    3.4446   -2.7496    0.0000 H   0  0  0  0  0  0  0  0  0  0  0  0
    4.0646   -2.1296    0.0000 H   0  0  0  0  0  0  0  0  0  0  0  0
  1 11  1  0  0  0  0
  1 43  1  0  0  0  0
  2 22  1  0  0  0  0
  2 28  1  0  0  0  0
  3 24  1  0  0  0  0
  3 49  1  0  0  0  0
  4 25  1  0  0  0  0
  4 50  1  0  0  0  0
  5  6  1  0  0  0  0
  5  7  1  0  0  0  0
  5 33  1  0  0  0  0
  6  8  1  0  0  0  0
  6 14  1  1  0  0  0
  6 29  1  0  0  0  0
  7  9  1  0  0  0  0
  7 13  1  6  0  0  0
  7 30  1  0  0  0  0
  8 10  1  0  0  0  0
  8 31  1  0  0  0  0
  8 32  1  0  0  0  0
  9 10  2  0  0  0  0
  9 11  1  0  0  0  0
 10 15  1  0  0  0  0
 11 12  2  0  0  0  0
 12 16  1  0  0  0  0
 12 17  1  0  0  0  0
 13 34  1  0  0  0  0
 13 35  1  0  0  0  0
 13 36  1  0  0  0  0
 14 37  1  0  0  0  0
 14 38  1  0  0  0  0
 14 39  1  0  0  0  0
 15 17  2  0  0  0  0
 15 40  1  0  0  0  0
 16 18  2  0  0  0  0
 16 19  1  0  0  0  0
 17 41  1  0  0  0  0
 18 20  1  0  0  0  0
 18 23  1  0  0  0  0
 19 21  2  0  0  0  0
 19 24  1  0  0  0  0
 20 22  2  0  0  0  0
 20 25  1  0  0  0  0
 21 22  1  0  0  0  0
 21 42  1  0  0  0  0
 23 26  2  0  0  0  0
 23 44  1  0  0  0  0
 24 45  1  0  0  0  0
 24 46  1  0  0  0  0
 25 27  2  0  0  0  0
 26 27  1  0  0  0  0
 26 47  1  0  0  0  0
 27 48  1  0  0  0  0
 28 51  1  0  0  0  0
 28 52  1  0  0  0  0
 28 53  1  0  0  0  0
M  END
> <PUBCHEM_COMPOUND_CID>
185971

> <PUBCHEM_COMPOUND_CANONICALIZED>
1

> <PUBCHEM_CACTVS_COMPLEXITY>
531

> <PUBCHEM_CACTVS_HBOND_ACCEPTOR>
5

> <PUBCHEM_CACTVS_HBOND_DONOR>
4

> <PUBCHEM_CACTVS_ROTATABLE_BOND>
3

> <PUBCHEM_CACTVS_SUBSKEYS>
AAADceB6OAAAAAAAAAAAAAAAAAAAAAAAAAA8YMEAAAAAAADxVAAAHgAQCAAADCzhmAYyBsLABgCAAiBCAACCCAAgIAAIiIAODIgMNyKGsRuEcChn0BWIuAfQ8PcO4AADAAAYAADAAAYAADAAAAAAAAAAAA==

> <PUBCHEM_IUPAC_OPENEYE_NAME>
(1R,3R)-7-[5-hydroxy-2-(hydroxymethyl)-4-methoxy-1-naphthyl]-1,3-dimethyl-1,2,3,4-tetrahydroisoquinolin-8-ol

> <PUBCHEM_IUPAC_CAS_NAME>
(1R,3R)-7-[5-hydroxy-2-(hydroxymethyl)-4-methoxy-1-naphthalenyl]-1,3-dimethyl-1,2,3,4-tetrahydroisoquinolin-8-ol

> <PUBCHEM_IUPAC_NAME>
(1R,3R)-7-[5-hydroxy-2-(hydroxymethyl)-4-methoxynaphthalen-1-yl]-1,3-dimethyl-1,2,3,4-tetrahydroisoquinolin-8-ol

> <PUBCHEM_IUPAC_SYSTEMATIC_NAME>
(1R,3R)-7-[2-(hydroxymethyl)-4-methoxy-5-oxidanyl-naphthalen-1-yl]-1,3-dimethyl-1,2,3,4-tetrahydroisoquinolin-8-ol

> <PUBCHEM_IUPAC_TRADITIONAL_NAME>
(1R,3R)-7-(5-hydroxy-4-methoxy-2-methylol-1-naphthyl)-1,3-dimethyl-1,2,3,4-tetrahydroisoquinolin-8-ol

> <PUBCHEM_IUPAC_INCHI>
InChI=1S/C23H25NO4/c1-12-9-14-7-8-17(23(27)20(14)13(2)24-12)21-15(11-25)10-19(28-3)22-16(21)5-4-6-18(22)26/h4-8,10,12-13,24-27H,9,11H2,1-3H3/t12-,13-/m1/s1

> <PUBCHEM_IUPAC_INCHIKEY>
ZQSUAGVTKAZDJV-CHWSQXEVSA-N

> <PUBCHEM_XLOGP3_AA>
3.4

> <PUBCHEM_EXACT_MASS>
379.178358

> <PUBCHEM_MOLECULAR_FORMULA>
C23H25NO4

> <PUBCHEM_MOLECULAR_WEIGHT>
379.4489

> <PUBCHEM_OPENEYE_CAN_SMILES>
CC1CC2=C(C(N1)C)C(=C(C=C2)C3=C4C=CC=C(C4=C(C=C3CO)OC)O)O

> <PUBCHEM_OPENEYE_ISO_SMILES>
C[C@@H]1CC2=C([C@H](N1)C)C(=C(C=C2)C3=C4C=CC=C(C4=C(C=C3CO)OC)O)O

> <PUBCHEM_CACTVS_TPSA>
82

> <PUBCHEM_MONOISOTOPIC_WEIGHT>
379.178358

> <PUBCHEM_TOTAL_CHARGE>
0

> <PUBCHEM_HEAVY_ATOM_COUNT>
28

> <PUBCHEM_ATOM_DEF_STEREO_COUNT>
2

> <PUBCHEM_ATOM_UDEF_STEREO_COUNT>
0

> <PUBCHEM_BOND_DEF_STEREO_COUNT>
0

> <PUBCHEM_BOND_UDEF_STEREO_COUNT>
0

> <PUBCHEM_ISOTOPIC_ATOM_COUNT>
0

> <PUBCHEM_COMPONENT_COUNT>
1

> <PUBCHEM_CACTVS_TAUTO_COUNT>
24

> <PUBCHEM_COORDINATE_TYPE>
1
5
255

> <PUBCHEM_BONDANNOTATIONS>
10  15  8
11  12  8
12  17  8
15  17  8
16  18  8
16  19  8
18  20  8
18  23  8
19  21  8
20  22  8
20  25  8
21  22  8
23  26  8
25  27  8
26  27  8
6  14  5
7  13  6
9  10  8
9  11  8

$$$$

