228785
  -OEChem-07051213052D

 57 60  0     1  0  0  0  0  0999 V2000
    5.0182   -0.2293    0.0000 F   0  0  0  0  0  0  0  0  0  0  0  0
    8.0319    1.2610    0.0000 O   0  0  0  0  0  0  0  0  0  0  0  0
    4.7950    0.5046    0.0000 O   0  0  0  0  0  0  0  0  0  0  0  0
    9.9229   -0.4954    0.0000 O   0  0  0  0  0  0  0  0  0  0  0  0
   10.0622    0.4874    0.0000 O   0  0  0  0  0  0  0  0  0  0  0  0
    9.8566    2.4768    0.0000 O   0  0  0  0  0  0  0  0  0  0  0  0
    2.0000   -3.0477    0.0000 O   0  0  0  0  0  0  0  0  0  0  0  0
    7.3931    0.0046    0.0000 C   0  0  1  0  0  0  0  0  0  0  0  0
    7.3931   -0.9954    0.0000 C   0  0  2  0  0  0  0  0  0  0  0  0
    6.5271   -1.4954    0.0000 C   0  0  1  0  0  0  0  0  0  0  0  0
    5.6610   -0.9954    0.0000 C   0  0  2  0  0  0  0  0  0  0  0  0
    8.3393    0.3094    0.0000 C   0  0  1  0  0  0  0  0  0  0  0  0
    6.5271    0.5046    0.0000 C   0  0  0  0  0  0  0  0  0  0  0  0
    4.7510   -1.5022    0.0000 C   0  0  2  0  0  0  0  0  0  0  0  0
    5.6610    0.0046    0.0000 C   0  0  2  0  0  0  0  0  0  0  0  0
    8.3393   -1.3001    0.0000 C   0  0  0  0  0  0  0  0  0  0  0  0
    8.9229   -0.4954    0.0000 C   0  0  1  0  0  0  0  0  0  0  0  0
    6.5431   -2.5369    0.0000 C   0  0  0  0  0  0  0  0  0  0  0  0
    7.3931    1.0046    0.0000 C   0  0  0  0  0  0  0  0  0  0  0  0
    4.7430   -2.5438    0.0000 C   0  0  0  0  0  0  0  0  0  0  0  0
    5.6451   -3.0646    0.0000 C   0  0  0  0  0  0  0  0  0  0  0  0
    3.8242   -0.9381    0.0000 C   0  0  0  0  0  0  0  0  0  0  0  0
    4.4163   -0.5599    0.0000 C   0  0  0  0  0  0  0  0  0  0  0  0
    9.1493    0.8957    0.0000 C   0  0  0  0  0  0  0  0  0  0  0  0
    2.8763   -1.4661    0.0000 C   0  0  0  0  0  0  0  0  0  0  0  0
    3.8076   -3.0935    0.0000 C   0  0  0  0  0  0  0  0  0  0  0  0
    2.8680   -2.5510    0.0000 C   0  0  0  0  0  0  0  0  0  0  0  0
    9.0465    1.8904    0.0000 C   0  0  0  0  0  0  0  0  0  0  0  0
    7.4830   -1.8406    0.0000 H   0  0  0  0  0  0  0  0  0  0  0  0
    7.2664   -1.9147    0.0000 H   0  0  0  0  0  0  0  0  0  0  0  0
    6.9256    0.9796    0.0000 H   0  0  0  0  0  0  0  0  0  0  0  0
    6.1285    0.9796    0.0000 H   0  0  0  0  0  0  0  0  0  0  0  0
    5.6610    0.6246    0.0000 H   0  0  0  0  0  0  0  0  0  0  0  0
    8.0883   -1.8670    0.0000 H   0  0  0  0  0  0  0  0  0  0  0  0
    8.8767   -1.6093    0.0000 H   0  0  0  0  0  0  0  0  0  0  0  0
    9.2046   -1.0477    0.0000 H   0  0  0  0  0  0  0  0  0  0  0  0
    6.7612   -3.1173    0.0000 H   0  0  0  0  0  0  0  0  0  0  0  0
    7.1523   -2.4214    0.0000 H   0  0  0  0  0  0  0  0  0  0  0  0
    8.0131    1.0046    0.0000 H   0  0  0  0  0  0  0  0  0  0  0  0
    7.3931    1.6246    0.0000 H   0  0  0  0  0  0  0  0  0  0  0  0
    6.7731    1.0046    0.0000 H   0  0  0  0  0  0  0  0  0  0  0  0
    5.2478   -3.5406    0.0000 H   0  0  0  0  0  0  0  0  0  0  0  0
    6.0460   -3.5375    0.0000 H   0  0  0  0  0  0  0  0  0  0  0  0
    4.2324   -0.4715    0.0000 H   0  0  0  0  0  0  0  0  0  0  0  0
    3.4343   -0.4561    0.0000 H   0  0  0  0  0  0  0  0  0  0  0  0
    5.0005   -0.3524    0.0000 H   0  0  0  0  0  0  0  0  0  0  0  0
    4.2087    0.0243    0.0000 H   0  0  0  0  0  0  0  0  0  0  0  0
    3.8320   -0.7675    0.0000 H   0  0  0  0  0  0  0  0  0  0  0  0
    8.4476    1.7210    0.0000 H   0  0  0  0  0  0  0  0  0  0  0  0
    2.6718   -0.8808    0.0000 H   0  0  0  0  0  0  0  0  0  0  0  0
    2.2647   -1.5675    0.0000 H   0  0  0  0  0  0  0  0  0  0  0  0
    4.7950    1.1246    0.0000 H   0  0  0  0  0  0  0  0  0  0  0  0
    3.8100   -3.7135    0.0000 H   0  0  0  0  0  0  0  0  0  0  0  0
   10.2329   -1.0323    0.0000 H   0  0  0  0  0  0  0  0  0  0  0  0
    8.7757    2.4482    0.0000 H   0  0  0  0  0  0  0  0  0  0  0  0
    8.4502    1.7206    0.0000 H   0  0  0  0  0  0  0  0  0  0  0  0
    9.7928    3.0935    0.0000 H   0  0  0  0  0  0  0  0  0  0  0  0
 11  1  1  6  0  0  0
 12  2  1  6  0  0  0
  2 49  1  0  0  0  0
 15  3  1  1  0  0  0
  3 52  1  0  0  0  0
 17  4  1  6  0  0  0
  4 54  1  0  0  0  0
  5 24  2  0  0  0  0
  6 28  1  0  0  0  0
  6 57  1  0  0  0  0
  7 27  2  0  0  0  0
  8  9  1  0  0  0  0
  8 12  1  0  0  0  0
  8 13  1  0  0  0  0
  8 19  1  1  0  0  0
  9 10  1  0  0  0  0
  9 16  1  0  0  0  0
  9 29  1  6  0  0  0
 10 11  1  0  0  0  0
 10 18  1  0  0  0  0
 10 30  1  1  0  0  0
 11 14  1  0  0  0  0
 11 15  1  0  0  0  0
 12 17  1  0  0  0  0
 12 24  1  0  0  0  0
 13 15  1  0  0  0  0
 13 31  1  0  0  0  0
 13 32  1  0  0  0  0
 14 20  1  0  0  0  0
 14 22  1  0  0  0  0
 14 23  1  1  0  0  0
 15 33  1  0  0  0  0
 16 17  1  0  0  0  0
 16 34  1  0  0  0  0
 16 35  1  0  0  0  0
 17 36  1  0  0  0  0
 18 21  1  0  0  0  0
 18 37  1  0  0  0  0
 18 38  1  0  0  0  0
 19 39  1  0  0  0  0
 19 40  1  0  0  0  0
 19 41  1  0  0  0  0
 20 21  1  0  0  0  0
 20 26  2  0  0  0  0
 21 42  1  0  0  0  0
 21 43  1  0  0  0  0
 22 25  1  0  0  0  0
 22 44  1  0  0  0  0
 22 45  1  0  0  0  0
 23 46  1  0  0  0  0
 23 47  1  0  0  0  0
 23 48  1  0  0  0  0
 24 28  1  0  0  0  0
 25 27  1  0  0  0  0
 25 50  1  0  0  0  0
 25 51  1  0  0  0  0
 26 27  1  0  0  0  0
 26 53  1  0  0  0  0
 28 55  1  0  0  0  0
 28 56  1  0  0  0  0
M  END
> <PUBCHEM_COMPOUND_CID>
228785

> <PUBCHEM_COMPOUND_CANONICALIZED>
1

> <PUBCHEM_CACTVS_COMPLEXITY>
766

> <PUBCHEM_CACTVS_HBOND_ACCEPTOR>
7

> <PUBCHEM_CACTVS_HBOND_DONOR>
4

> <PUBCHEM_CACTVS_ROTATABLE_BOND>
2

> <PUBCHEM_CACTVS_SUBSKEYS>
AAADceB4OQAAAAAAAAAAAAAAAAAAAYAAAAAwYIAAAAAAAGDAAAAAGwAACAAAD1SggAICAAAAAgCIAqBSAAIAAAAgAAAACAFAAEgBEBYAAQAAQAAFoAAJAQPI7PTPgAAAAAAAAADAAAYAADAAAYAADCAAAA==

> <PUBCHEM_IUPAC_OPENEYE_NAME>
(8S,9R,10S,11S,13S,14S,16R,17S)-9-fluoro-11,16,17-trihydroxy-17-(2-hydroxyacetyl)-10,13-dimethyl-1,2,6,7,8,11,12,14,15,16-decahydrocyclopenta[a]phenanthren-3-one

> <PUBCHEM_IUPAC_CAS_NAME>
(8S,9R,10S,11S,13S,14S,16R,17S)-9-fluoro-11,16,17-trihydroxy-17-(2-hydroxy-1-oxoethyl)-10,13-dimethyl-1,2,6,7,8,11,12,14,15,16-decahydrocyclopenta[a]phenanthren-3-one

> <PUBCHEM_IUPAC_NAME>
(8S,9R,10S,11S,13S,14S,16R,17S)-9-fluoro-11,16,17-trihydroxy-17-(2-hydroxyacetyl)-10,13-dimethyl-1,2,6,7,8,11,12,14,15,16-decahydrocyclopenta[a]phenanthren-3-one

> <PUBCHEM_IUPAC_SYSTEMATIC_NAME>
(8S,9R,10S,11S,13S,14S,16R,17S)-9-fluoranyl-10,13-dimethyl-11,16,17-tris(oxidanyl)-17-(2-oxidanylethanoyl)-1,2,6,7,8,11,12,14,15,16-decahydrocyclopenta[a]phenanthren-3-one

> <PUBCHEM_IUPAC_TRADITIONAL_NAME>
(8S,9R,10S,11S,13S,14S,16R,17S)-9-fluoro-17-glycoloyl-11,16,17-trihydroxy-10,13-dimethyl-1,2,6,7,8,11,12,14,15,16-decahydrocyclopenta[a]phenanthren-3-one

> <PUBCHEM_IUPAC_INCHI>
InChI=1S/C21H29FO6/c1-18-6-5-12(24)7-11(18)3-4-13-14-8-15(25)21(28,17(27)10-23)19(14,2)9-16(26)20(13,18)22/h7,13-16,23,25-26,28H,3-6,8-10H2,1-2H3/t13-,14-,15+,16-,18-,19-,20-,21-/m0/s1

> <PUBCHEM_IUPAC_INCHIKEY>
SXQQMCLQCSKJNC-OBYCQNJPSA-N

> <PUBCHEM_XLOGP3>
1

> <PUBCHEM_EXACT_MASS>
396.194817

> <PUBCHEM_MOLECULAR_FORMULA>
C21H29FO6

> <PUBCHEM_MOLECULAR_WEIGHT>
396.449763

> <PUBCHEM_OPENEYE_CAN_SMILES>
CC12CCC(=O)C=C1CCC3C2(C(CC4(C3CC(C4(C(=O)CO)O)O)C)O)F

> <PUBCHEM_OPENEYE_ISO_SMILES>
C[C@]12CCC(=O)C=C1CC[C@@H]3[C@@]2([C@H](C[C@]4([C@H]3C[C@H]([C@@]4(C(=O)CO)O)O)C)O)F

> <PUBCHEM_CACTVS_TPSA>
115

> <PUBCHEM_MONOISOTOPIC_WEIGHT>
396.194817

> <PUBCHEM_TOTAL_CHARGE>
0

> <PUBCHEM_HEAVY_ATOM_COUNT>
28

> <PUBCHEM_ATOM_DEF_STEREO_COUNT>
8

> <PUBCHEM_ATOM_UDEF_STEREO_COUNT>
0

> <PUBCHEM_BOND_DEF_STEREO_COUNT>
0

> <PUBCHEM_BOND_UDEF_STEREO_COUNT>
0

> <PUBCHEM_ISOTOPIC_ATOM_COUNT>
0

> <PUBCHEM_COMPONENT_COUNT>
1

> <PUBCHEM_CACTVS_TAUTO_COUNT>
15

> <PUBCHEM_COORDINATE_TYPE>
1
5
255

> <PUBCHEM_BONDANNOTATIONS>
11  1  6
10  30  5
14  23  5
12  2  6
15  3  5
17  4  6
8  19  5
9  29  6

$$$$

