440404
  -OEChem-07051212492D

 36 37  0     1  0  0  0  0  0999 V2000
    8.0995    0.8674    0.0000 S   0  0  0  0  0  0  0  0  0  0  0  0
   10.6686    1.7340    0.0000 S   0  0  0  0  0  0  0  0  0  0  0  0
    3.6942    1.1973    0.0000 O   0  0  0  0  0  0  0  0  0  0  0  0
    3.2784   -0.7590    0.0000 O   0  0  0  0  0  0  0  0  0  0  0  0
    2.5352   -0.0899    0.0000 O   0  0  0  0  0  0  0  0  0  0  0  0
    3.8136   -2.4063    0.0000 O   0  0  0  0  0  0  0  0  0  0  0  0
    4.4374    0.5282    0.0000 C   0  0  3  0  0  0  0  0  0  0  0  0
    4.2294   -0.4500    0.0000 C   0  0  0  0  0  0  0  0  0  0  0  0
    8.9086    1.4552    0.0000 C   0  0  0  0  0  0  0  0  0  0  0  0
    9.8596    1.1462    0.0000 C   0  0  0  0  0  0  0  0  0  0  0  0
    7.2905    1.4552    0.0000 C   0  0  0  0  0  0  0  0  0  0  0  0
    8.5995    2.4063    0.0000 C   0  0  0  0  0  0  0  0  0  0  0  0
    7.5995    2.4063    0.0000 C   0  0  0  0  0  0  0  0  0  0  0  0
   10.1686    0.1951    0.0000 C   0  0  0  0  0  0  0  0  0  0  0  0
    5.3884    0.8372    0.0000 C   0  0  0  0  0  0  0  0  0  0  0  0
    6.3395    1.1462    0.0000 C   0  0  0  0  0  0  0  0  0  0  0  0
   11.1686    0.1951    0.0000 C   0  0  0  0  0  0  0  0  0  0  0  0
   11.4776    1.1462    0.0000 C   0  0  0  0  0  0  0  0  0  0  0  0
    2.7431    0.8883    0.0000 C   0  0  0  0  0  0  0  0  0  0  0  0
    3.0705   -1.7371    0.0000 C   0  0  0  0  0  0  0  0  0  0  0  0
    2.0000    1.5574    0.0000 C   0  0  0  0  0  0  0  0  0  0  0  0
    2.1194   -2.0462    0.0000 C   0  0  0  0  0  0  0  0  0  0  0  0
    3.6290    0.2655    0.0000 H   0  0  0  0  0  0  0  0  0  0  0  0
    4.3157   -1.0640    0.0000 H   0  0  0  0  0  0  0  0  0  0  0  0
    4.8491   -0.4716    0.0000 H   0  0  0  0  0  0  0  0  0  0  0  0
    8.9640    2.9079    0.0000 H   0  0  0  0  0  0  0  0  0  0  0  0
    7.2351    2.9079    0.0000 H   0  0  0  0  0  0  0  0  0  0  0  0
    9.8042   -0.3064    0.0000 H   0  0  0  0  0  0  0  0  0  0  0  0
   11.5330   -0.3064    0.0000 H   0  0  0  0  0  0  0  0  0  0  0  0
   12.0673    1.3378    0.0000 H   0  0  0  0  0  0  0  0  0  0  0  0
    2.4149    2.0182    0.0000 H   0  0  0  0  0  0  0  0  0  0  0  0
    1.5392    1.9723    0.0000 H   0  0  0  0  0  0  0  0  0  0  0  0
    1.5851    1.0967    0.0000 H   0  0  0  0  0  0  0  0  0  0  0  0
    1.9278   -1.4565    0.0000 H   0  0  0  0  0  0  0  0  0  0  0  0
    1.5298   -2.2378    0.0000 H   0  0  0  0  0  0  0  0  0  0  0  0
    2.3110   -2.6358    0.0000 H   0  0  0  0  0  0  0  0  0  0  0  0
  1  9  1  0  0  0  0
  1 11  1  0  0  0  0
  2 10  1  0  0  0  0
  2 18  1  0  0  0  0
  3  7  1  0  0  0  0
  3 19  1  0  0  0  0
  4  8  1  0  0  0  0
  4 20  1  0  0  0  0
  5 19  2  0  0  0  0
  6 20  2  0  0  0  0
  7  8  1  0  0  0  0
  7 15  1  0  0  0  0
  7 23  1  0  0  0  0
  8 24  1  0  0  0  0
  8 25  1  0  0  0  0
  9 10  1  0  0  0  0
  9 12  2  0  0  0  0
 10 14  2  0  0  0  0
 11 13  2  0  0  0  0
 11 16  1  0  0  0  0
 12 13  1  0  0  0  0
 12 26  1  0  0  0  0
 13 27  1  0  0  0  0
 14 17  1  0  0  0  0
 14 28  1  0  0  0  0
 15 16  3  0  0  0  0
 17 18  2  0  0  0  0
 17 29  1  0  0  0  0
 18 30  1  0  0  0  0
 19 21  1  0  0  0  0
 20 22  1  0  0  0  0
 21 31  1  0  0  0  0
 21 32  1  0  0  0  0
 21 33  1  0  0  0  0
 22 34  1  0  0  0  0
 22 35  1  0  0  0  0
 22 36  1  0  0  0  0
M  END
> <PUBCHEM_COMPOUND_CID>
440404

> <PUBCHEM_COMPOUND_CANONICALIZED>
1

> <PUBCHEM_CACTVS_COMPLEXITY>
479

> <PUBCHEM_CACTVS_HBOND_ACCEPTOR>
6

> <PUBCHEM_CACTVS_HBOND_DONOR>
0

> <PUBCHEM_CACTVS_ROTATABLE_BOND>
7

> <PUBCHEM_CACTVS_SUBSKEYS>
AAADccB4OABgAAAAAAAAAAAAAAAAASJAAAAAAAAAAAAAAAAB4AAAGgQAAAAACBSk0AKyCYAABAjMECDSCAgDAIAgCBBIiBgAAIgJICKgERCCIAAggAAqiAcAgIAAAAAAAAAAAAAAAAAAAAAAAAAAAAAAAA==

> <PUBCHEM_IUPAC_OPENEYE_NAME>
[2-acetoxy-4-[5-(2-thienyl)-2-thienyl]but-3-ynyl] acetate

> <PUBCHEM_IUPAC_CAS_NAME>
acetic acid [2-acetyloxy-4-(5-thiophen-2-yl-2-thiophenyl)but-3-ynyl] ester

> <PUBCHEM_IUPAC_NAME>
[2-acetyloxy-4-(5-thiophen-2-ylthiophen-2-yl)but-3-ynyl] acetate

> <PUBCHEM_IUPAC_SYSTEMATIC_NAME>
[2-acetyloxy-4-(5-thiophen-2-ylthiophen-2-yl)but-3-ynyl] ethanoate

> <PUBCHEM_IUPAC_TRADITIONAL_NAME>
acetic acid [2-acetoxy-4-[5-(2-thienyl)-2-thienyl]but-3-ynyl] ester

> <PUBCHEM_IUPAC_INCHI>
InChI=1S/C16H14O4S2/c1-11(17)19-10-13(20-12(2)18)5-6-14-7-8-16(22-14)15-4-3-9-21-15/h3-4,7-9,13H,10H2,1-2H3

> <PUBCHEM_IUPAC_INCHIKEY>
RGIIXLVKXLFDLP-UHFFFAOYSA-N

> <PUBCHEM_XLOGP3_AA>
3

> <PUBCHEM_EXACT_MASS>
334.033351

> <PUBCHEM_MOLECULAR_FORMULA>
C16H14O4S2

> <PUBCHEM_MOLECULAR_WEIGHT>
334.40996

> <PUBCHEM_OPENEYE_CAN_SMILES>
CC(=O)OCC(C#CC1=CC=C(S1)C2=CC=CS2)OC(=O)C

> <PUBCHEM_OPENEYE_ISO_SMILES>
CC(=O)OCC(C#CC1=CC=C(S1)C2=CC=CS2)OC(=O)C

> <PUBCHEM_CACTVS_TPSA>
109

> <PUBCHEM_MONOISOTOPIC_WEIGHT>
334.033351

> <PUBCHEM_TOTAL_CHARGE>
0

> <PUBCHEM_HEAVY_ATOM_COUNT>
22

> <PUBCHEM_ATOM_DEF_STEREO_COUNT>
0

> <PUBCHEM_ATOM_UDEF_STEREO_COUNT>
1

> <PUBCHEM_BOND_DEF_STEREO_COUNT>
0

> <PUBCHEM_BOND_UDEF_STEREO_COUNT>
0

> <PUBCHEM_ISOTOPIC_ATOM_COUNT>
0

> <PUBCHEM_COMPONENT_COUNT>
1

> <PUBCHEM_CACTVS_TAUTO_COUNT>
1

> <PUBCHEM_COORDINATE_TYPE>
1
5
255

> <PUBCHEM_BONDANNOTATIONS>
1  11  8
1  9  8
10  14  8
11  13  8
12  13  8
14  17  8
17  18  8
2  10  8
2  18  8
7  23  3
9  12  8

$$$$

