3116
  -OEChem-07051213092D

 62 63  0     0  0  0  0  0  0999 V2000
    9.7942   -3.7500    0.0000 O   0  0  0  0  0  0  0  0  0  0  0  0
    5.4641    4.7500    0.0000 O   0  0  0  0  0  0  0  0  0  0  0  0
   10.6603   -2.2500    0.0000 O   0  0  0  0  0  0  0  0  0  0  0  0
    4.5981    3.2500    0.0000 O   0  0  0  0  0  0  0  0  0  0  0  0
    8.9282   -2.2500    0.0000 N   0  0  0  0  0  0  0  0  0  0  0  0
    6.3301    3.2500    0.0000 N   0  0  0  0  0  0  0  0  0  0  0  0
   11.5263   -5.7500    0.0000 N   0  3  0  0  0  0  0  0  0  0  0  0
    2.8660    5.2500    0.0000 N   0  3  0  0  0  0  0  0  0  0  0  0
    7.1962    0.7500    0.0000 C   0  0  0  0  0  0  0  0  0  0  0  0
    8.0622    0.2500    0.0000 C   0  0  0  0  0  0  0  0  0  0  0  0
    7.1962    1.7500    0.0000 C   0  0  0  0  0  0  0  0  0  0  0  0
    8.0622   -0.7500    0.0000 C   0  0  0  0  0  0  0  0  0  0  0  0
    8.9282   -1.2500    0.0000 C   0  0  0  0  0  0  0  0  0  0  0  0
    6.3301    2.2500    0.0000 C   0  0  0  0  0  0  0  0  0  0  0  0
    7.1962    3.7500    0.0000 C   0  0  0  0  0  0  0  0  0  0  0  0
    8.0622   -2.7500    0.0000 C   0  0  0  0  0  0  0  0  0  0  0  0
    5.4641    3.7500    0.0000 C   0  0  0  0  0  0  0  0  0  0  0  0
    9.7942   -2.7500    0.0000 C   0  0  0  0  0  0  0  0  0  0  0  0
    4.5981    5.2500    0.0000 C   0  0  0  0  0  0  0  0  0  0  0  0
   10.6603   -4.2500    0.0000 C   0  0  0  0  0  0  0  0  0  0  0  0
   10.6603   -5.2500    0.0000 C   0  0  0  0  0  0  0  0  0  0  0  0
    3.7320    4.7500    0.0000 C   0  0  0  0  0  0  0  0  0  0  0  0
    4.5981    6.2500    0.0000 C   0  0  0  0  0  0  0  0  0  0  0  0
   11.5263   -3.7500    0.0000 C   0  0  0  0  0  0  0  0  0  0  0  0
   12.3923   -4.2500    0.0000 C   0  0  0  0  0  0  0  0  0  0  0  0
    3.7320    6.7500    0.0000 C   0  0  0  0  0  0  0  0  0  0  0  0
   12.3923   -5.2500    0.0000 C   0  0  0  0  0  0  0  0  0  0  0  0
    2.8660    6.2500    0.0000 C   0  0  0  0  0  0  0  0  0  0  0  0
    2.0000    4.7500    0.0000 C   0  0  0  0  0  0  0  0  0  0  0  0
   11.5263   -6.7500    0.0000 C   0  0  0  0  0  0  0  0  0  0  0  0
    6.5856    0.8577    0.0000 H   0  0  0  0  0  0  0  0  0  0  0  0
    6.9841    0.1674    0.0000 H   0  0  0  0  0  0  0  0  0  0  0  0
    8.6728    0.1423    0.0000 H   0  0  0  0  0  0  0  0  0  0  0  0
    8.2742    0.8326    0.0000 H   0  0  0  0  0  0  0  0  0  0  0  0
    7.4516   -0.6423    0.0000 H   0  0  0  0  0  0  0  0  0  0  0  0
    7.8501   -1.3326    0.0000 H   0  0  0  0  0  0  0  0  0  0  0  0
    7.8067    1.6423    0.0000 H   0  0  0  0  0  0  0  0  0  0  0  0
    7.4082    2.3326    0.0000 H   0  0  0  0  0  0  0  0  0  0  0  0
    9.5388   -1.3577    0.0000 H   0  0  0  0  0  0  0  0  0  0  0  0
    9.1403   -0.6674    0.0000 H   0  0  0  0  0  0  0  0  0  0  0  0
    5.7196    2.3577    0.0000 H   0  0  0  0  0  0  0  0  0  0  0  0
    6.1181    1.6674    0.0000 H   0  0  0  0  0  0  0  0  0  0  0  0
    7.5062    3.2131    0.0000 H   0  0  0  0  0  0  0  0  0  0  0  0
    7.7331    4.0600    0.0000 H   0  0  0  0  0  0  0  0  0  0  0  0
    6.8862    4.2869    0.0000 H   0  0  0  0  0  0  0  0  0  0  0  0
    7.7522   -2.2131    0.0000 H   0  0  0  0  0  0  0  0  0  0  0  0
    7.5252   -3.0600    0.0000 H   0  0  0  0  0  0  0  0  0  0  0  0
    8.3722   -3.2869    0.0000 H   0  0  0  0  0  0  0  0  0  0  0  0
   10.1233   -5.5600    0.0000 H   0  0  0  0  0  0  0  0  0  0  0  0
    3.7320    4.1300    0.0000 H   0  0  0  0  0  0  0  0  0  0  0  0
   11.5263   -3.1300    0.0000 H   0  0  0  0  0  0  0  0  0  0  0  0
    5.1350    6.5600    0.0000 H   0  0  0  0  0  0  0  0  0  0  0  0
   12.9292   -3.9400    0.0000 H   0  0  0  0  0  0  0  0  0  0  0  0
    3.7320    7.3700    0.0000 H   0  0  0  0  0  0  0  0  0  0  0  0
   12.9292   -5.5600    0.0000 H   0  0  0  0  0  0  0  0  0  0  0  0
    2.3291    6.5600    0.0000 H   0  0  0  0  0  0  0  0  0  0  0  0
   10.9063   -6.7500    0.0000 H   0  0  0  0  0  0  0  0  0  0  0  0
    1.6900    5.2869    0.0000 H   0  0  0  0  0  0  0  0  0  0  0  0
    1.4631    4.4400    0.0000 H   0  0  0  0  0  0  0  0  0  0  0  0
    2.3100    4.2131    0.0000 H   0  0  0  0  0  0  0  0  0  0  0  0
   11.5263   -7.3700    0.0000 H   0  0  0  0  0  0  0  0  0  0  0  0
   12.1463   -6.7500    0.0000 H   0  0  0  0  0  0  0  0  0  0  0  0
  1 18  1  0  0  0  0
  1 20  1  0  0  0  0
  2 17  1  0  0  0  0
  2 19  1  0  0  0  0
  3 18  2  0  0  0  0
  4 17  2  0  0  0  0
  5 13  1  0  0  0  0
  5 16  1  0  0  0  0
  5 18  1  0  0  0  0
  6 14  1  0  0  0  0
  6 15  1  0  0  0  0
  6 17  1  0  0  0  0
  7 21  1  0  0  0  0
  7 27  2  0  0  0  0
  7 30  1  0  0  0  0
  8 22  1  0  0  0  0
  8 28  2  0  0  0  0
  8 29  1  0  0  0  0
  9 10  1  0  0  0  0
  9 11  1  0  0  0  0
  9 31  1  0  0  0  0
  9 32  1  0  0  0  0
 10 12  1  0  0  0  0
 10 33  1  0  0  0  0
 10 34  1  0  0  0  0
 11 14  1  0  0  0  0
 11 37  1  0  0  0  0
 11 38  1  0  0  0  0
 12 13  1  0  0  0  0
 12 35  1  0  0  0  0
 12 36  1  0  0  0  0
 13 39  1  0  0  0  0
 13 40  1  0  0  0  0
 14 41  1  0  0  0  0
 14 42  1  0  0  0  0
 15 43  1  0  0  0  0
 15 44  1  0  0  0  0
 15 45  1  0  0  0  0
 16 46  1  0  0  0  0
 16 47  1  0  0  0  0
 16 48  1  0  0  0  0
 19 22  2  0  0  0  0
 19 23  1  0  0  0  0
 20 21  2  0  0  0  0
 20 24  1  0  0  0  0
 21 49  1  0  0  0  0
 22 50  1  0  0  0  0
 23 26  2  0  0  0  0
 23 52  1  0  0  0  0
 24 25  2  0  0  0  0
 24 51  1  0  0  0  0
 25 27  1  0  0  0  0
 25 53  1  0  0  0  0
 26 28  1  0  0  0  0
 26 54  1  0  0  0  0
 27 55  1  0  0  0  0
 28 56  1  0  0  0  0
 29 58  1  0  0  0  0
 29 59  1  0  0  0  0
 29 60  1  0  0  0  0
 30 57  1  0  0  0  0
 30 61  1  0  0  0  0
 30 62  1  0  0  0  0
M  CHG  2   7   1   8   1
M  END
> <PUBCHEM_COMPOUND_CID>
3116

> <PUBCHEM_COMPOUND_CANONICALIZED>
1

> <PUBCHEM_CACTVS_COMPLEXITY>
487

> <PUBCHEM_CACTVS_HBOND_ACCEPTOR>
4

> <PUBCHEM_CACTVS_HBOND_DONOR>
0

> <PUBCHEM_CACTVS_ROTATABLE_BOND>
11

> <PUBCHEM_CACTVS_SUBSKEYS>
AAADcfB7uAAAAAAAAAAAAAAAAAAAAAAAAAAsWAAAAAAAAAAB4AAAHgAAAAAACATBkgQ+jpMMFACoADBnXASCiCAxYiAI2CA/bJgOJuLEsZuNMihkxhHY6AcwAAAAAAAAAAAAAAAAAAAAAAAAAAAAAAAAAA==

> <PUBCHEM_IUPAC_OPENEYE_NAME>
(1-methylpyridin-1-ium-3-yl) N-methyl-N-[6-[methyl-(1-methylpyridin-1-ium-3-yl)oxycarbonyl-amino]hexyl]carbamate

> <PUBCHEM_IUPAC_CAS_NAME>
N-methyl-N-[6-[methyl-[(1-methyl-3-pyridin-1-iumyl)oxy-oxomethyl]amino]hexyl]carbamic acid (1-methyl-3-pyridin-1-iumyl) ester

> <PUBCHEM_IUPAC_NAME>
(1-methylpyridin-1-ium-3-yl) N-methyl-N-[6-[methyl-(1-methylpyridin-1-ium-3-yl)oxycarbonylamino]hexyl]carbamate

> <PUBCHEM_IUPAC_SYSTEMATIC_NAME>
(1-methylpyridin-1-ium-3-yl) N-methyl-N-[6-[methyl-(1-methylpyridin-1-ium-3-yl)oxycarbonyl-amino]hexyl]carbamate

> <PUBCHEM_IUPAC_TRADITIONAL_NAME>
N-methyl-N-[6-[methyl-(1-methylpyridin-1-ium-3-yl)oxycarbonyl-amino]hexyl]carbamic acid (1-methylpyridin-1-ium-3-yl) ester

> <PUBCHEM_IUPAC_INCHI>
InChI=1S/C22H32N4O4/c1-23-13-9-11-19(17-23)29-21(27)25(3)15-7-5-6-8-16-26(4)22(28)30-20-12-10-14-24(2)18-20/h9-14,17-18H,5-8,15-16H2,1-4H3/q+2

> <PUBCHEM_IUPAC_INCHIKEY>
AHZBEVXBKNYXPU-UHFFFAOYSA-N

> <PUBCHEM_XLOGP3_AA>
2.7

> <PUBCHEM_EXACT_MASS>
416.242356

> <PUBCHEM_MOLECULAR_FORMULA>
C22H32N4O4+2

> <PUBCHEM_MOLECULAR_WEIGHT>
416.51388

> <PUBCHEM_OPENEYE_CAN_SMILES>
C[N+]1=CC=CC(=C1)OC(=O)N(C)CCCCCCN(C)C(=O)OC2=C[N+](=CC=C2)C

> <PUBCHEM_OPENEYE_ISO_SMILES>
C[N+]1=CC=CC(=C1)OC(=O)N(C)CCCCCCN(C)C(=O)OC2=C[N+](=CC=C2)C

> <PUBCHEM_CACTVS_TPSA>
66.8

> <PUBCHEM_MONOISOTOPIC_WEIGHT>
416.242356

> <PUBCHEM_TOTAL_CHARGE>
2

> <PUBCHEM_HEAVY_ATOM_COUNT>
30

> <PUBCHEM_ATOM_DEF_STEREO_COUNT>
0

> <PUBCHEM_ATOM_UDEF_STEREO_COUNT>
0

> <PUBCHEM_BOND_DEF_STEREO_COUNT>
0

> <PUBCHEM_BOND_UDEF_STEREO_COUNT>
0

> <PUBCHEM_ISOTOPIC_ATOM_COUNT>
0

> <PUBCHEM_COMPONENT_COUNT>
1

> <PUBCHEM_CACTVS_TAUTO_COUNT>
1

> <PUBCHEM_COORDINATE_TYPE>
1
5
255

> <PUBCHEM_BONDANNOTATIONS>
19  22  8
19  23  8
20  21  8
20  24  8
23  26  8
24  25  8
25  27  8
26  28  8
7  21  8
7  27  8
8  22  8
8  28  8

$$$$

