3337
  -OEChem-07051212523D

 32 32  0     1  0  0  0  0  0999 V2000
   -4.3606   -0.5609    0.4684 F   0  0  0  0  0  0  0  0  0  0  0  0
   -3.4072   -1.4373   -1.2713 F   0  0  0  0  0  0  0  0  0  0  0  0
   -2.7835   -2.0361    0.7240 F   0  0  0  0  0  0  0  0  0  0  0  0
    3.8033   -0.0973   -0.4550 N   0  0  0  0  0  0  0  0  0  0  0  0
    2.4722    0.1019    0.1257 C   0  0  1  0  0  0  0  0  0  0  0  0
    1.5078    0.6118   -0.9608 C   0  0  0  0  0  0  0  0  0  0  0  0
    0.1136    0.8873   -0.4508 C   0  0  0  0  0  0  0  0  0  0  0  0
    2.0137   -1.2198    0.7424 C   0  0  0  0  0  0  0  0  0  0  0  0
    4.7484   -0.5196    0.5651 C   0  0  0  0  0  0  0  0  0  0  0  0
   -0.8307   -0.1266   -0.4740 C   0  0  0  0  0  0  0  0  0  0  0  0
   -0.1957    2.1490    0.0314 C   0  0  0  0  0  0  0  0  0  0  0  0
   -2.1185    0.1279   -0.0025 C   0  0  0  0  0  0  0  0  0  0  0  0
   -1.4836    2.4036    0.5028 C   0  0  0  0  0  0  0  0  0  0  0  0
   -2.4449    1.3930    0.4858 C   0  0  0  0  0  0  0  0  0  0  0  0
    6.1125   -0.7247   -0.0096 C   0  0  0  0  0  0  0  0  0  0  0  0
   -3.1469   -0.9520   -0.0214 C   0  0  0  0  0  0  0  0  0  0  0  0
    2.5259    0.8594    0.9192 H   0  0  0  0  0  0  0  0  0  0  0  0
    1.4513   -0.1116   -1.7864 H   0  0  0  0  0  0  0  0  0  0  0  0
    1.9070    1.5314   -1.4113 H   0  0  0  0  0  0  0  0  0  0  0  0
    4.1235    0.7707   -0.8838 H   0  0  0  0  0  0  0  0  0  0  0  0
    2.5904   -1.5019    1.6283 H   0  0  0  0  0  0  0  0  0  0  0  0
    2.0525   -2.0427    0.0195 H   0  0  0  0  0  0  0  0  0  0  0  0
    0.9880   -1.1563    1.1156 H   0  0  0  0  0  0  0  0  0  0  0  0
    4.8047    0.2217    1.3709 H   0  0  0  0  0  0  0  0  0  0  0  0
    4.4800   -1.4821    1.0079 H   0  0  0  0  0  0  0  0  0  0  0  0
   -0.5813   -1.1110   -0.8615 H   0  0  0  0  0  0  0  0  0  0  0  0
    0.5468    2.9415    0.0508 H   0  0  0  0  0  0  0  0  0  0  0  0
   -1.7374    3.3885    0.8836 H   0  0  0  0  0  0  0  0  0  0  0  0
   -3.4424    1.6107    0.8573 H   0  0  0  0  0  0  0  0  0  0  0  0
    6.1079   -1.4906   -0.7932 H   0  0  0  0  0  0  0  0  0  0  0  0
    6.5079    0.1999   -0.4445 H   0  0  0  0  0  0  0  0  0  0  0  0
    6.8128   -1.0495    0.7674 H   0  0  0  0  0  0  0  0  0  0  0  0
  1 16  1  0  0  0  0
  2 16  1  0  0  0  0
  3 16  1  0  0  0  0
  4  5  1  0  0  0  0
  4  9  1  0  0  0  0
  4 20  1  0  0  0  0
  5  6  1  0  0  0  0
  5  8  1  0  0  0  0
  5 17  1  0  0  0  0
  6  7  1  0  0  0  0
  6 18  1  0  0  0  0
  6 19  1  0  0  0  0
  7 10  2  0  0  0  0
  7 11  1  0  0  0  0
  8 21  1  0  0  0  0
  8 22  1  0  0  0  0
  8 23  1  0  0  0  0
  9 15  1  0  0  0  0
  9 24  1  0  0  0  0
  9 25  1  0  0  0  0
 10 12  1  0  0  0  0
 10 26  1  0  0  0  0
 11 13  2  0  0  0  0
 11 27  1  0  0  0  0
 12 14  2  0  0  0  0
 12 16  1  0  0  0  0
 13 14  1  0  0  0  0
 13 28  1  0  0  0  0
 14 29  1  0  0  0  0
 15 30  1  0  0  0  0
 15 31  1  0  0  0  0
 15 32  1  0  0  0  0
M  END
> <PUBCHEM_COMPOUND_CID>
3337

> <PUBCHEM_CONFORMER_RMSD>
0.6

> <PUBCHEM_CONFORMER_DIVERSEORDER>
4
40
34
30
49
46
41
17
25
38
23
6
20
48
39
29
27
43
45
9
16
1
44
47
3
26
8
5
21
11
10
13
28
7
35
33
24
32
22
50
12
31
2
18
42
14
15
19
37
36

> <PUBCHEM_MMFF94_PARTIAL_CHARGES>
19
1 -0.34
10 -0.15
11 -0.15
12 -0.14
13 -0.15
14 -0.15
16 1.16
2 -0.34
20 0.36
26 0.15
27 0.15
28 0.15
29 0.15
3 -0.34
4 -0.9
5 0.27
6 0.14
7 -0.14
9 0.27

> <PUBCHEM_EFFECTIVE_ROTOR_COUNT>
5

> <PUBCHEM_PHARMACOPHORE_FEATURES>
3
1 4 cation
1 4 donor
6 7 10 11 12 13 14 rings

> <PUBCHEM_HEAVY_ATOM_COUNT>
16

> <PUBCHEM_ATOM_DEF_STEREO_COUNT>
0

> <PUBCHEM_ATOM_UDEF_STEREO_COUNT>
1

> <PUBCHEM_BOND_DEF_STEREO_COUNT>
0

> <PUBCHEM_BOND_UDEF_STEREO_COUNT>
0

> <PUBCHEM_ISOTOPIC_ATOM_COUNT>
0

> <PUBCHEM_COMPONENT_COUNT>
1

> <PUBCHEM_CACTVS_TAUTO_COUNT>
1

> <PUBCHEM_CONFORMER_ID>
00000D0900000004

> <PUBCHEM_MMFF94_ENERGY>
21.303

> <PUBCHEM_FEATURE_SELFOVERLAP>
15.223

> <PUBCHEM_SHAPE_FINGERPRINT>
10726558 24 10952057766171304920
11046707 91 18343585153024478612
11806522 49 18272369759366378908
12500047 106 18196097861286301036
13214271 11 18041565835724366148
13288520 33 18411980278009207510
15099037 37 18334294296870707932
15375462 189 18343862199631477043
17834072 33 18343297059978152676
17862501 102 18272654571648599752
18186145 218 12247678253596432446
18927931 339 18333728035581930206
19422 9 18341607144702164132
200 152 18131917065622876500
20671657 53 17775281634263786684
20871998 184 18114180877809666941
21267235 1 18341603811243247843
21650355 55 18408321111644031929
2297311 6 18187071889383130548
232386 152 18410284788071624869
23402539 116 18335145288589544774
23557571 272 18114737235267915308
23559900 14 18340214007408804968
2748010 2 17615945031100262805
3086196 2 18334576862479175600
3312278 4 18342177799246633145
5104073 3 18261962968030624658
7062679 117 18342451552684509366
76465 3 18189622640137088567

> <PUBCHEM_SHAPE_MULTIPOLES>
302.47
9.51
1.99
0.89
12.81
0.57
-0.09
-4.51
0.75
-2.08
0.28
-0.11
-0.1
-0.53

> <PUBCHEM_SHAPE_SELFOVERLAP>
615.511

> <PUBCHEM_SHAPE_VOLUME>
177.7

> <PUBCHEM_COORDINATE_TYPE>
2
5
10

$$$$

