54675756
  -OEChem-07051212473D

 17 16  0     0  0  0  0  0  0999 V2000
   -1.9234    2.0252    0.0079 O   0  0  0  0  0  0  0  0  0  0  0  0
   -3.1701   -0.3685   -1.0530 O   0  0  0  0  0  0  0  0  0  0  0  0
    3.6018   -0.0734   -1.0401 O   0  0  0  0  0  0  0  0  0  0  0  0
   -2.4610   -1.2558    0.9188 O   0  0  0  0  0  0  0  0  0  0  0  0
    2.8706    0.8358    0.9129 O   0  0  0  0  0  0  0  0  0  0  0  0
   -0.1160    0.4691    0.0317 C   0  0  0  0  0  0  0  0  0  0  0  0
    0.4515   -0.8652    0.0529 C   0  0  0  0  0  0  0  0  0  0  0  0
   -1.4325    0.7355    0.0288 C   0  0  0  0  0  0  0  0  0  0  0  0
    1.7740   -1.0861    0.0552 C   0  0  0  0  0  0  0  0  0  0  0  0
   -2.3833   -0.4039    0.0482 C   0  0  0  0  0  0  0  0  0  0  0  0
    2.7884   -0.0128    0.0367 C   0  0  0  0  0  0  0  0  0  0  0  0
    0.5633    1.3160    0.0070 H   0  0  0  0  0  0  0  0  0  0  0  0
   -0.1953   -1.7349    0.0275 H   0  0  0  0  0  0  0  0  0  0  0  0
    2.1524   -2.1026    0.0072 H   0  0  0  0  0  0  0  0  0  0  0  0
   -1.1690    2.6392   -0.0025 H   0  0  0  0  0  0  0  0  0  0  0  0
   -3.8113   -1.1108   -1.0700 H   0  0  0  0  0  0  0  0  0  0  0  0
    4.2691    0.6457   -1.0383 H   0  0  0  0  0  0  0  0  0  0  0  0
  1  8  1  0  0  0  0
  1 15  1  0  0  0  0
  2 10  1  0  0  0  0
  2 16  1  0  0  0  0
  3 11  1  0  0  0  0
  3 17  1  0  0  0  0
  4 10  2  0  0  0  0
  5 11  2  0  0  0  0
  6  7  1  0  0  0  0
  6  8  2  0  0  0  0
  6 12  1  0  0  0  0
  7  9  2  0  0  0  0
  7 13  1  0  0  0  0
  8 10  1  0  0  0  0
  9 11  1  0  0  0  0
  9 14  1  0  0  0  0
M  END
> <PUBCHEM_COMPOUND_CID>
54675756

> <PUBCHEM_CONFORMER_RMSD>
0.6

> <PUBCHEM_CONFORMER_DIVERSEORDER>
1
2
3
4

> <PUBCHEM_MMFF94_PARTIAL_CHARGES>
17
1 -0.53
10 0.71
11 0.71
12 0.15
13 0.15
14 0.15
15 0.45
16 0.5
17 0.5
2 -0.65
3 -0.65
4 -0.57
5 -0.57
6 -0.15
7 -0.15
8 0.09
9 -0.14

> <PUBCHEM_EFFECTIVE_ROTOR_COUNT>
3

> <PUBCHEM_PHARMACOPHORE_FEATURES>
7
1 1 donor
1 2 acceptor
1 3 acceptor
1 4 acceptor
1 5 acceptor
3 2 4 10 anion
3 3 5 11 anion

> <PUBCHEM_HEAVY_ATOM_COUNT>
11

> <PUBCHEM_ATOM_DEF_STEREO_COUNT>
0

> <PUBCHEM_ATOM_UDEF_STEREO_COUNT>
0

> <PUBCHEM_BOND_DEF_STEREO_COUNT>
2

> <PUBCHEM_BOND_UDEF_STEREO_COUNT>
0

> <PUBCHEM_ISOTOPIC_ATOM_COUNT>
0

> <PUBCHEM_COMPONENT_COUNT>
1

> <PUBCHEM_CACTVS_TAUTO_COUNT>
4

> <PUBCHEM_CONFORMER_ID>
0342492C00000001

> <PUBCHEM_MMFF94_ENERGY>
29.8566

> <PUBCHEM_FEATURE_SELFOVERLAP>
35.635

> <PUBCHEM_SHAPE_FINGERPRINT>
10857977 72 18341616975286095394
11062470 55 15554450690787631094
12897270 3 18410857663515073354
12932764 1 18113336435715437650
13380535 21 18192978542407705721
14325111 11 18410855494925724082
14390081 3 18336551602663635480
190213 19 15429753986254787642
19422 9 15430029937871920182
19973954 147 18337670918470139304
20201158 50 18341899580008243627
23552423 10 18126848432724918603
25610 137 18341604859320607113
3248919 1 18059576922782115338
528716 315 18343293764973241519
8030462 33 18340771532533259502

> <PUBCHEM_SHAPE_MULTIPOLES>
197.03
5.6
1.35
0.86
1.92
0.36
-0.06
-0.08
-0.78
-0.66
0.17
0.06
-0.06
0.27

> <PUBCHEM_SHAPE_SELFOVERLAP>
389.728

> <PUBCHEM_SHAPE_VOLUME>
116.2

> <PUBCHEM_COORDINATE_TYPE>
2
5
10

$$$$

