443012
  -OEChem-07051213003D

 40 41  0     1  0  0  0  0  0999 V2000
   -2.9665    2.1359   -0.3861 O   0  0  0  0  0  0  0  0  0  0  0  0
    1.1591    0.5901   -0.7572 O   0  0  0  0  0  0  0  0  0  0  0  0
    1.8900    1.1908    1.3463 O   0  0  0  0  0  0  0  0  0  0  0  0
   -2.2972   -1.3959   -0.1428 N   0  0  1  0  0  0  0  0  0  0  0  0
   -2.5194   -0.2124   -0.9967 C   0  0  1  0  0  0  0  0  0  0  0  0
   -1.8127   -0.7975    1.1162 C   0  0  2  0  0  0  0  0  0  0  0  0
   -3.2261    0.7827   -0.0642 C   0  0  1  0  0  0  0  0  0  0  0  0
   -2.6997    0.4378    1.3331 C   0  0  0  0  0  0  0  0  0  0  0  0
   -1.1217    0.2451   -1.4642 C   0  0  0  0  0  0  0  0  0  0  0  0
   -0.3426   -0.4085    0.8669 C   0  0  0  0  0  0  0  0  0  0  0  0
   -0.1865    0.5840   -0.2946 C   0  0  1  0  0  0  0  0  0  0  0  0
   -3.4989   -2.2049    0.0412 C   0  0  0  0  0  0  0  0  0  0  0  0
    2.1089    0.9137    0.1750 C   0  0  0  0  0  0  0  0  0  0  0  0
    3.4738    0.9133   -0.4800 C   0  0  0  0  0  0  0  0  0  0  0  0
    4.2092   -0.4289   -0.3430 C   0  0  0  0  0  0  0  0  0  0  0  0
    4.3938   -0.8185    1.1259 C   0  0  0  0  0  0  0  0  0  0  0  0
    3.4364   -1.5270   -1.0759 C   0  0  0  0  0  0  0  0  0  0  0  0
   -3.1255   -0.4375   -1.8818 H   0  0  0  0  0  0  0  0  0  0  0  0
   -1.8594   -1.4923    1.9625 H   0  0  0  0  0  0  0  0  0  0  0  0
   -4.3116    0.6316   -0.0991 H   0  0  0  0  0  0  0  0  0  0  0  0
   -3.5470    0.1745    1.9779 H   0  0  0  0  0  0  0  0  0  0  0  0
   -2.1656    1.2654    1.8117 H   0  0  0  0  0  0  0  0  0  0  0  0
   -0.6663   -0.5442   -2.0785 H   0  0  0  0  0  0  0  0  0  0  0  0
   -1.2038    1.1152   -2.1275 H   0  0  0  0  0  0  0  0  0  0  0  0
    0.0394    0.0062    1.8045 H   0  0  0  0  0  0  0  0  0  0  0  0
    0.2498   -1.3125    0.6709 H   0  0  0  0  0  0  0  0  0  0  0  0
   -0.4245    1.5968    0.0546 H   0  0  0  0  0  0  0  0  0  0  0  0
   -4.3349   -1.6645    0.4968 H   0  0  0  0  0  0  0  0  0  0  0  0
   -3.2730   -3.0700    0.6744 H   0  0  0  0  0  0  0  0  0  0  0  0
   -3.8362   -2.6016   -0.9227 H   0  0  0  0  0  0  0  0  0  0  0  0
   -3.4031    2.6862    0.2863 H   0  0  0  0  0  0  0  0  0  0  0  0
    3.3690    1.1955   -1.5348 H   0  0  0  0  0  0  0  0  0  0  0  0
    4.0589    1.7163   -0.0149 H   0  0  0  0  0  0  0  0  0  0  0  0
    5.1979   -0.3257   -0.8063 H   0  0  0  0  0  0  0  0  0  0  0  0
    3.4413   -1.0353    1.6202 H   0  0  0  0  0  0  0  0  0  0  0  0
    5.0152   -1.7173    1.2046 H   0  0  0  0  0  0  0  0  0  0  0  0
    4.8951   -0.0184    1.6805 H   0  0  0  0  0  0  0  0  0  0  0  0
    2.4787   -1.7526   -0.5966 H   0  0  0  0  0  0  0  0  0  0  0  0
    3.2436   -1.2442   -2.1162 H   0  0  0  0  0  0  0  0  0  0  0  0
    4.0194   -2.4546   -1.0890 H   0  0  0  0  0  0  0  0  0  0  0  0
  1  7  1  0  0  0  0
  1 31  1  0  0  0  0
  2 11  1  0  0  0  0
  2 13  1  0  0  0  0
  3 13  2  0  0  0  0
  4  5  1  0  0  0  0
  4  6  1  0  0  0  0
  4 12  1  0  0  0  0
  5  7  1  0  0  0  0
  5  9  1  0  0  0  0
  5 18  1  0  0  0  0
  6  8  1  0  0  0  0
  6 10  1  0  0  0  0
  6 19  1  0  0  0  0
  7  8  1  0  0  0  0
  7 20  1  0  0  0  0
  8 21  1  0  0  0  0
  8 22  1  0  0  0  0
  9 11  1  0  0  0  0
  9 23  1  0  0  0  0
  9 24  1  0  0  0  0
 10 11  1  0  0  0  0
 10 25  1  0  0  0  0
 10 26  1  0  0  0  0
 11 27  1  0  0  0  0
 12 28  1  0  0  0  0
 12 29  1  0  0  0  0
 12 30  1  0  0  0  0
 13 14  1  0  0  0  0
 14 15  1  0  0  0  0
 14 32  1  0  0  0  0
 14 33  1  0  0  0  0
 15 16  1  0  0  0  0
 15 17  1  0  0  0  0
 15 34  1  0  0  0  0
 16 35  1  0  0  0  0
 16 36  1  0  0  0  0
 16 37  1  0  0  0  0
 17 38  1  0  0  0  0
 17 39  1  0  0  0  0
 17 40  1  0  0  0  0
M  END
> <PUBCHEM_COMPOUND_CID>
443012

> <PUBCHEM_CONFORMER_RMSD>
0.6

> <PUBCHEM_CONFORMER_DIVERSEORDER>
1
74
60
43
35
68
71
55
70
59
72
44
33
65
29
45
7
77
36
67
54
19
53
62
28
13
25
17
69
37
39
57
12
34
15
49
26
8
3
50
31
14
24
18
20
58
64
47
21
52
6
46
63
5
73
40
48
78
30
11
38
75
10
32
27
56
16
76
61
4
9
41
22
66
42
51
2
23

> <PUBCHEM_MMFF94_PARTIAL_CHARGES>
12
1 -0.68
11 0.28
12 0.27
13 0.66
14 0.06
2 -0.43
3 -0.57
31 0.4
4 -0.81
5 0.27
6 0.27
7 0.28

> <PUBCHEM_EFFECTIVE_ROTOR_COUNT>
5.2

> <PUBCHEM_PHARMACOPHORE_FEATURES>
6
1 1 acceptor
1 1 donor
1 3 acceptor
1 4 cation
3 15 16 17 hydrophobe
8 4 5 6 7 8 9 10 11 rings

> <PUBCHEM_HEAVY_ATOM_COUNT>
17

> <PUBCHEM_ATOM_DEF_STEREO_COUNT>
2

> <PUBCHEM_ATOM_UDEF_STEREO_COUNT>
2

> <PUBCHEM_BOND_DEF_STEREO_COUNT>
0

> <PUBCHEM_BOND_UDEF_STEREO_COUNT>
0

> <PUBCHEM_ISOTOPIC_ATOM_COUNT>
0

> <PUBCHEM_COMPONENT_COUNT>
1

> <PUBCHEM_CACTVS_TAUTO_COUNT>
1

> <PUBCHEM_CONFORMER_ID>
0006C28400000001

> <PUBCHEM_MMFF94_ENERGY>
37.6475

> <PUBCHEM_FEATURE_SELFOVERLAP>
30.446

> <PUBCHEM_SHAPE_FINGERPRINT>
10062212 137 17988654033365921618
12346177 29 18411989061101361375
124424 183 17967816080332457812
12500047 106 18409733997054528301
128620 24 12319729259349719624
12932764 1 17458905925136168060
13024252 1 17489588927276285369
13221675 6 16200431373045572736
13296908 3 18201440246756913556
13583140 156 17749119867582731560
13675066 3 17821730546245165910
14004511 7 18113614616278094160
14144814 61 16298381366558848740
14289901 80 18269835324608031716
15239191 94 18272088288426348138
15309172 13 17275387607538029977
15375358 24 18334582373481047798
15653759 3 18040994007883321553
16752209 62 16629984169021878895
16945 1 15913055274431484261
17349148 13 14851894676688618812
18186145 218 13614518559045054470
19422 9 18202281373109925364
1986462 14 18202284697135108975
200 152 16950289490216457653
20281475 54 18343584057982079862
20645477 70 18334576871654452262
22485316 2 18343022194665726064
2306618 200 18187078473299119553
23559900 14 18336834082599682224
3286 77 18336551499610690134
5161694 15 18334859462874266628
633830 44 14836122199778680470
74978 22 17846214410721290272
8030462 33 15625957412351802964
9709674 26 18341604881075375698

> <PUBCHEM_SHAPE_MULTIPOLES>
327.26
8.15
1.71
1.33
6.17
0.31
-0.11
1.83
-0.2
-1
0.1
0.08
0.03
0.26

> <PUBCHEM_SHAPE_SELFOVERLAP>
668.142

> <PUBCHEM_SHAPE_VOLUME>
190.2

> <PUBCHEM_COORDINATE_TYPE>
2
5
10

$$$$

