14461866
  -OEChem-07051212453D

 23 22  0     1  0  0  0  0  0999 V2000
   -0.6597    0.3860   -1.6170 O   0  0  0  0  0  0  0  0  0  0  0  0
   -0.0765   -1.9696   -0.0293 O   0  0  0  0  0  0  0  0  0  0  0  0
   -2.5391    0.0031    1.5089 O   0  0  0  0  0  0  0  0  0  0  0  0
    2.3454   -1.0601   -0.5282 O   0  0  0  0  0  0  0  0  0  0  0  0
    3.4677    1.2424    0.2226 O   0  0  0  0  0  0  0  0  0  0  0  0
   -0.8399    0.3431   -0.2003 C   0  0  2  0  0  0  0  0  0  0  0  0
    0.1638   -0.6437    0.4175 C   0  0  2  0  0  0  0  0  0  0  0  0
   -2.3062   -0.0158    0.1033 C   0  0  2  0  0  0  0  0  0  0  0  0
   -3.2845    0.9493   -0.5588 C   0  0  0  0  0  0  0  0  0  0  0  0
    1.6130   -0.2883    0.0917 C   0  0  0  0  0  0  0  0  0  0  0  0
    2.1161    1.0537    0.5896 C   0  0  0  0  0  0  0  0  0  0  0  0
   -0.6402    1.3492    0.1842 H   0  0  0  0  0  0  0  0  0  0  0  0
    0.0718   -0.6441    1.5094 H   0  0  0  0  0  0  0  0  0  0  0  0
   -2.5388   -1.0218   -0.2664 H   0  0  0  0  0  0  0  0  0  0  0  0
   -3.2076    0.9236   -1.6496 H   0  0  0  0  0  0  0  0  0  0  0  0
   -3.1101    1.9757   -0.2175 H   0  0  0  0  0  0  0  0  0  0  0  0
   -4.3136    0.6975   -0.2798 H   0  0  0  0  0  0  0  0  0  0  0  0
   -0.8143   -0.5109   -1.9602 H   0  0  0  0  0  0  0  0  0  0  0  0
    1.5290    1.8680    0.1602 H   0  0  0  0  0  0  0  0  0  0  0  0
    2.0453    1.0790    1.6800 H   0  0  0  0  0  0  0  0  0  0  0  0
    0.4957   -2.5621    0.4877 H   0  0  0  0  0  0  0  0  0  0  0  0
   -2.0880   -0.7667    1.8942 H   0  0  0  0  0  0  0  0  0  0  0  0
    3.5025    1.2968   -0.7477 H   0  0  0  0  0  0  0  0  0  0  0  0
  1  6  1  0  0  0  0
  1 18  1  0  0  0  0
  2  7  1  0  0  0  0
  2 21  1  0  0  0  0
  3  8  1  0  0  0  0
  3 22  1  0  0  0  0
  4 10  2  0  0  0  0
  5 11  1  0  0  0  0
  5 23  1  0  0  0  0
  6  7  1  0  0  0  0
  6  8  1  0  0  0  0
  6 12  1  0  0  0  0
  7 10  1  0  0  0  0
  7 13  1  0  0  0  0
  8  9  1  0  0  0  0
  8 14  1  0  0  0  0
  9 15  1  0  0  0  0
  9 16  1  0  0  0  0
  9 17  1  0  0  0  0
 10 11  1  0  0  0  0
 11 19  1  0  0  0  0
 11 20  1  0  0  0  0
M  END
> <PUBCHEM_COMPOUND_CID>
14461866

> <PUBCHEM_CONFORMER_RMSD>
0.6

> <PUBCHEM_CONFORMER_DIVERSEORDER>
1
44
41
12
46
36
24
25
47
19
17
28
11
7
39
26
8
42
48
14
9
35
40
37
32
43
3
16
15
49
45
38
4
23
22
6
5
30
27
18
13
34
10
20
31
21
33
29
2

> <PUBCHEM_MMFF94_PARTIAL_CHARGES>
14
1 -0.68
10 0.45
11 0.34
18 0.4
2 -0.68
21 0.4
22 0.4
23 0.4
3 -0.68
4 -0.57
5 -0.68
6 0.28
7 0.34
8 0.28

> <PUBCHEM_EFFECTIVE_ROTOR_COUNT>
4

> <PUBCHEM_PHARMACOPHORE_FEATURES>
9
1 1 acceptor
1 1 donor
1 2 acceptor
1 2 donor
1 3 acceptor
1 3 donor
1 4 acceptor
1 5 acceptor
1 5 donor

> <PUBCHEM_HEAVY_ATOM_COUNT>
11

> <PUBCHEM_ATOM_DEF_STEREO_COUNT>
3

> <PUBCHEM_ATOM_UDEF_STEREO_COUNT>
0

> <PUBCHEM_BOND_DEF_STEREO_COUNT>
0

> <PUBCHEM_BOND_UDEF_STEREO_COUNT>
0

> <PUBCHEM_ISOTOPIC_ATOM_COUNT>
0

> <PUBCHEM_COMPONENT_COUNT>
1

> <PUBCHEM_CACTVS_TAUTO_COUNT>
10

> <PUBCHEM_CONFORMER_ID>
00DCABAA00000001

> <PUBCHEM_MMFF94_ENERGY>
10.6177

> <PUBCHEM_FEATURE_SELFOVERLAP>
45.691

> <PUBCHEM_SHAPE_FINGERPRINT>
10857977 72 17346309389005915161
11031198 65 18114456778235273220
12932741 1 18272364317210226691
12932764 1 18271801358624874275
14325111 11 18410014333838421235
14390081 3 18341899631711361909
15310529 11 17167863045326840567
15775835 57 17894631452569146713
16945 1 18115862073906398679
18175812 5 18059572520409001463
18186145 218 18114453535218310604
20645464 45 18272091586628616800
20653085 51 16153979145544288368
20711983 171 16226321612099883409
20715346 28 18201429281557668427
21293036 1 4678813986616149864
23235685 24 18336555923638255008
23552423 10 15865179364245675877
3248919 1 17313386759480046247
5084963 1 17531536493633712803

> <PUBCHEM_SHAPE_MULTIPOLES>
197.03
4.89
1.34
1.05
0.06
0.35
0.02
-2.02
-0.34
0.58
0.03
-0.52
-0.08
0.5

> <PUBCHEM_SHAPE_SELFOVERLAP>
372.121

> <PUBCHEM_SHAPE_VOLUME>
121.7

> <PUBCHEM_COORDINATE_TYPE>
2
5
10

$$$$

