62244
  -OEChem-07051213132D

 26 28  0     0  0  0  0  0  0999 V2000
    4.5274    1.1203    0.0000 N   0  0  0  0  0  0  0  0  0  0  0  0
    6.3518    0.7648    0.0000 N   0  0  0  0  0  0  0  0  0  0  0  0
    8.0321    0.2078    0.0000 N   0  0  0  0  0  0  0  0  0  0  0  0
    5.0274   -0.4185    0.0000 C   0  0  0  0  0  0  0  0  0  0  0  0
    4.0274   -0.4185    0.0000 C   0  0  0  0  0  0  0  0  0  0  0  0
    3.7183    0.5325    0.0000 C   0  0  0  0  0  0  0  0  0  0  0  0
    5.3364    0.5325    0.0000 C   0  0  0  0  0  0  0  0  0  0  0  0
    5.7123   -1.2033    0.0000 C   0  0  0  0  0  0  0  0  0  0  0  0
    6.7328   -0.9946    0.0000 C   0  0  0  0  0  0  0  0  0  0  0  0
    3.3424   -1.2033    0.0000 C   0  0  0  0  0  0  0  0  0  0  0  0
    2.7029    0.7648    0.0000 C   0  0  0  0  0  0  0  0  0  0  0  0
    7.0547   -0.0039    0.0000 C   0  0  0  0  0  0  0  0  0  0  0  0
    2.3219   -0.9946    0.0000 C   0  0  0  0  0  0  0  0  0  0  0  0
    2.0000   -0.0039    0.0000 C   0  0  0  0  0  0  0  0  0  0  0  0
    7.3991   -1.7403    0.0000 C   0  0  0  0  0  0  0  0  0  0  0  0
    4.5274    1.7403    0.0000 H   0  0  0  0  0  0  0  0  0  0  0  0
    5.5139   -1.7907    0.0000 H   0  0  0  0  0  0  0  0  0  0  0  0
    3.5408   -1.7907    0.0000 H   0  0  0  0  0  0  0  0  0  0  0  0
    2.5182    1.3566    0.0000 H   0  0  0  0  0  0  0  0  0  0  0  0
    1.9088   -1.4569    0.0000 H   0  0  0  0  0  0  0  0  0  0  0  0
    1.3940    0.1273    0.0000 H   0  0  0  0  0  0  0  0  0  0  0  0
    6.9368   -2.1534    0.0000 H   0  0  0  0  0  0  0  0  0  0  0  0
    7.8122   -2.2026    0.0000 H   0  0  0  0  0  0  0  0  0  0  0  0
    7.8614   -1.3272    0.0000 H   0  0  0  0  0  0  0  0  0  0  0  0
    8.2214    0.7981    0.0000 H   0  0  0  0  0  0  0  0  0  0  0  0
    8.4487   -0.2514    0.0000 H   0  0  0  0  0  0  0  0  0  0  0  0
  1  6  1  0  0  0  0
  1  7  1  0  0  0  0
  1 16  1  0  0  0  0
  2  7  1  0  0  0  0
  2 12  2  0  0  0  0
  3 12  1  0  0  0  0
  3 25  1  0  0  0  0
  3 26  1  0  0  0  0
  4  5  1  0  0  0  0
  4  7  2  0  0  0  0
  4  8  1  0  0  0  0
  5  6  1  0  0  0  0
  5 10  2  0  0  0  0
  6 11  2  0  0  0  0
  8  9  2  0  0  0  0
  8 17  1  0  0  0  0
  9 12  1  0  0  0  0
  9 15  1  0  0  0  0
 10 13  1  0  0  0  0
 10 18  1  0  0  0  0
 11 14  1  0  0  0  0
 11 19  1  0  0  0  0
 13 14  2  0  0  0  0
 13 20  1  0  0  0  0
 14 21  1  0  0  0  0
 15 22  1  0  0  0  0
 15 23  1  0  0  0  0
 15 24  1  0  0  0  0
M  END
> <PUBCHEM_COMPOUND_CID>
62244

> <PUBCHEM_COMPOUND_CANONICALIZED>
1

> <PUBCHEM_CACTVS_COMPLEXITY>
243

> <PUBCHEM_CACTVS_HBOND_ACCEPTOR>
2

> <PUBCHEM_CACTVS_HBOND_DONOR>
2

> <PUBCHEM_CACTVS_ROTATABLE_BOND>
0

> <PUBCHEM_CACTVS_SUBSKEYS>
AAADccBzAAAAAAAAAAAAAAAAAAAAAWAAAAA8QAAAAAAAAFgB/gAAHAAQAAAADAiBHwAz8P7JkACgAyZiZACCgCmhAqAJmSAwZJiIKOLAmZGEIAhokALIyCcQgMAOgAAAAAACAAAAAAAAAAQAAAAAAAAAAA==

> <PUBCHEM_IUPAC_OPENEYE_NAME>
3-methyl-9H-pyrido[2,3-b]indol-2-amine

> <PUBCHEM_IUPAC_CAS_NAME>
3-methyl-9H-pyrido[2,3-b]indol-2-amine

> <PUBCHEM_IUPAC_NAME>
3-methyl-9H-pyrido[2,3-b]indol-2-amine

> <PUBCHEM_IUPAC_SYSTEMATIC_NAME>
3-methyl-9H-pyrido[2,3-b]indol-2-amine

> <PUBCHEM_IUPAC_TRADITIONAL_NAME>
(3-methyl-9H-pyrid[2,3-b]indol-2-yl)amine

> <PUBCHEM_IUPAC_INCHI>
InChI=1S/C12H11N3/c1-7-6-9-8-4-2-3-5-10(8)14-12(9)15-11(7)13/h2-6H,1H3,(H3,13,14,15)

> <PUBCHEM_IUPAC_INCHIKEY>
IVLCGFRPPGNALI-UHFFFAOYSA-N

> <PUBCHEM_XLOGP3>
2.9

> <PUBCHEM_EXACT_MASS>
197.095297

> <PUBCHEM_MOLECULAR_FORMULA>
C12H11N3

> <PUBCHEM_MOLECULAR_WEIGHT>
197.23584

> <PUBCHEM_OPENEYE_CAN_SMILES>
CC1=C(N=C2C(=C1)C3=CC=CC=C3N2)N

> <PUBCHEM_OPENEYE_ISO_SMILES>
CC1=C(N=C2C(=C1)C3=CC=CC=C3N2)N

> <PUBCHEM_CACTVS_TPSA>
54.7

> <PUBCHEM_MONOISOTOPIC_WEIGHT>
197.095297

> <PUBCHEM_TOTAL_CHARGE>
0

> <PUBCHEM_HEAVY_ATOM_COUNT>
15

> <PUBCHEM_ATOM_DEF_STEREO_COUNT>
0

> <PUBCHEM_ATOM_UDEF_STEREO_COUNT>
0

> <PUBCHEM_BOND_DEF_STEREO_COUNT>
0

> <PUBCHEM_BOND_UDEF_STEREO_COUNT>
0

> <PUBCHEM_ISOTOPIC_ATOM_COUNT>
0

> <PUBCHEM_COMPONENT_COUNT>
1

> <PUBCHEM_CACTVS_TAUTO_COUNT>
6

> <PUBCHEM_COORDINATE_TYPE>
1
5
255

> <PUBCHEM_BONDANNOTATIONS>
1  6  8
1  7  8
10  13  8
11  14  8
13  14  8
2  12  8
2  7  8
4  5  8
4  7  8
4  8  8
5  10  8
5  6  8
6  11  8
8  9  8
9  12  8

$$$$

