101966
  -OEChem-07051213052D

 52 56  0     1  0  0  0  0  0999 V2000
    3.1386   -2.2727    0.0000 O   0  0  0  0  0  0  0  0  0  0  0  0
    3.0169    0.1139    0.0000 O   0  0  0  0  0  0  0  0  0  0  0  0
    9.7997    2.3437    0.0000 O   0  0  0  0  0  0  0  0  0  0  0  0
    4.4597   -0.8007    0.0000 C   0  0  2  0  0  0  0  0  0  0  0  0
    3.7227   -1.4678    0.0000 C   0  0  1  0  0  0  0  0  0  0  0  0
    5.3258   -1.3007    0.0000 C   0  0  2  0  0  0  0  0  0  0  0  0
    4.1278   -2.3756    0.0000 C   0  0  1  0  0  0  0  0  0  0  0  0
    6.1918   -0.8007    0.0000 C   0  0  1  0  0  0  0  0  0  0  0  0
    5.1166   -2.2725    0.0000 C   0  0  0  0  0  0  0  0  0  0  0  0
    6.1918    0.1993    0.0000 C   0  0  2  0  0  0  0  0  0  0  0  0
    4.4597    0.1993    0.0000 C   0  0  0  0  0  0  0  0  0  0  0  0
    5.3258    0.6993    0.0000 C   0  0  0  0  0  0  0  0  0  0  0  0
    7.0857    0.7340    0.0000 C   0  0  2  0  0  0  0  0  0  0  0  0
    3.5937   -0.3007    0.0000 C   0  0  0  0  0  0  0  0  0  0  0  0
    7.0857   -1.3354    0.0000 C   0  0  0  0  0  0  0  0  0  0  0  0
    2.9132   -0.8807    0.0000 C   0  0  0  0  0  0  0  0  0  0  0  0
    7.9918    0.2201    0.0000 C   0  0  0  0  0  0  0  0  0  0  0  0
    7.9918   -0.8215    0.0000 C   0  0  0  0  0  0  0  0  0  0  0  0
    7.0606    1.8187    0.0000 C   0  0  0  0  0  0  0  0  0  0  0  0
    6.2159    1.2273    0.0000 C   0  0  0  0  0  0  0  0  0  0  0  0
    2.0000   -1.2882    0.0000 C   0  0  0  0  0  0  0  0  0  0  0  0
    7.9918    2.3756    0.0000 C   0  0  0  0  0  0  0  0  0  0  0  0
    8.9356    0.7553    0.0000 C   0  0  0  0  0  0  0  0  0  0  0  0
    8.9356    1.8403    0.0000 C   0  0  0  0  0  0  0  0  0  0  0  0
    6.0128   -1.8012    0.0000 H   0  0  0  0  0  0  0  0  0  0  0  0
    4.1279   -3.2256    0.0000 H   0  0  0  0  0  0  0  0  0  0  0  0
    6.1852   -1.6507    0.0000 H   0  0  0  0  0  0  0  0  0  0  0  0
    5.1157   -2.8925    0.0000 H   0  0  0  0  0  0  0  0  0  0  0  0
    5.7330   -2.3386    0.0000 H   0  0  0  0  0  0  0  0  0  0  0  0
    6.1852    1.0493    0.0000 H   0  0  0  0  0  0  0  0  0  0  0  0
    4.2477    0.7819    0.0000 H   0  0  0  0  0  0  0  0  0  0  0  0
    3.8492    0.0916    0.0000 H   0  0  0  0  0  0  0  0  0  0  0  0
    5.7243    1.1742    0.0000 H   0  0  0  0  0  0  0  0  0  0  0  0
    4.9272    1.1742    0.0000 H   0  0  0  0  0  0  0  0  0  0  0  0
    3.9037    0.2362    0.0000 H   0  0  0  0  0  0  0  0  0  0  0  0
    3.0568    0.0093    0.0000 H   0  0  0  0  0  0  0  0  0  0  0  0
    3.2837   -0.8376    0.0000 H   0  0  0  0  0  0  0  0  0  0  0  0
    6.6811   -1.8052    0.0000 H   0  0  0  0  0  0  0  0  0  0  0  0
    7.4794   -1.8144    0.0000 H   0  0  0  0  0  0  0  0  0  0  0  0
    8.2009   -1.4052    0.0000 H   0  0  0  0  0  0  0  0  0  0  0  0
    8.6026   -0.7154    0.0000 H   0  0  0  0  0  0  0  0  0  0  0  0
    6.8381    2.3974    0.0000 H   0  0  0  0  0  0  0  0  0  0  0  0
    6.4524    1.6985    0.0000 H   0  0  0  0  0  0  0  0  0  0  0  0
    6.5217    1.7666    0.0000 H   0  0  0  0  0  0  0  0  0  0  0  0
    5.6766    1.5331    0.0000 H   0  0  0  0  0  0  0  0  0  0  0  0
    5.9100    0.6880    0.0000 H   0  0  0  0  0  0  0  0  0  0  0  0
    1.7473   -0.7221    0.0000 H   0  0  0  0  0  0  0  0  0  0  0  0
    1.4338   -1.5409    0.0000 H   0  0  0  0  0  0  0  0  0  0  0  0
    2.2527   -1.8544    0.0000 H   0  0  0  0  0  0  0  0  0  0  0  0
    8.3854    2.8546    0.0000 H   0  0  0  0  0  0  0  0  0  0  0  0
    7.5872    2.8454    0.0000 H   0  0  0  0  0  0  0  0  0  0  0  0
    9.4713    0.4433    0.0000 H   0  0  0  0  0  0  0  0  0  0  0  0
  1  5  1  0  0  0  0
  1  7  1  0  0  0  0
  2 16  2  0  0  0  0
  3 24  2  0  0  0  0
  4  5  1  0  0  0  0
  4  6  1  0  0  0  0
  4 11  1  0  0  0  0
  4 14  1  6  0  0  0
  5  7  1  0  0  0  0
  5 16  1  6  0  0  0
  6  8  1  0  0  0  0
  6  9  1  0  0  0  0
  6 25  1  1  0  0  0
  7  9  1  0  0  0  0
  7 26  1  6  0  0  0
  8 10  1  0  0  0  0
  8 15  1  0  0  0  0
  8 27  1  6  0  0  0
  9 28  1  0  0  0  0
  9 29  1  0  0  0  0
 10 12  1  0  0  0  0
 10 13  1  0  0  0  0
 10 30  1  1  0  0  0
 11 12  1  0  0  0  0
 11 31  1  0  0  0  0
 11 32  1  0  0  0  0
 12 33  1  0  0  0  0
 12 34  1  0  0  0  0
 13 17  1  0  0  0  0
 13 19  1  0  0  0  0
 13 20  1  6  0  0  0
 14 35  1  0  0  0  0
 14 36  1  0  0  0  0
 14 37  1  0  0  0  0
 15 18  1  0  0  0  0
 15 38  1  0  0  0  0
 15 39  1  0  0  0  0
 16 21  1  0  0  0  0
 17 18  1  0  0  0  0
 17 23  2  0  0  0  0
 18 40  1  0  0  0  0
 18 41  1  0  0  0  0
 19 22  1  0  0  0  0
 19 42  1  0  0  0  0
 19 43  1  0  0  0  0
 20 44  1  0  0  0  0
 20 45  1  0  0  0  0
 20 46  1  0  0  0  0
 21 47  1  0  0  0  0
 21 48  1  0  0  0  0
 21 49  1  0  0  0  0
 22 24  1  0  0  0  0
 22 50  1  0  0  0  0
 22 51  1  0  0  0  0
 23 24  1  0  0  0  0
 23 52  1  0  0  0  0
M  END
> <PUBCHEM_COMPOUND_CID>
101966

> <PUBCHEM_COMPOUND_CANONICALIZED>
1

> <PUBCHEM_CACTVS_COMPLEXITY>
679

> <PUBCHEM_CACTVS_HBOND_ACCEPTOR>
3

> <PUBCHEM_CACTVS_HBOND_DONOR>
0

> <PUBCHEM_CACTVS_ROTATABLE_BOND>
1

> <PUBCHEM_CACTVS_SUBSKEYS>
AAADceB4MAAAAAAAAAAAAAAAEgAAAYAAAAA0YIEAAAAAAGDAAAAAGgAAAAAAD1SggAICAAAABACIAqBSAAIAAAAgAAAACAFAAEgAABYAAQQCAAAEoAAIAQOIyPCPgAAAAAAAAACAAAQAACAAAYAADAAAAA==

> <PUBCHEM_IUPAC_INCHI>
InChI=1S/C21H28O3/c1-12(22)21-18(24-21)11-17-15-5-4-13-10-14(23)6-8-19(13,2)16(15)7-9-20(17,21)3/h10,15-18H,4-9,11H2,1-3H3/t15-,16+,17+,18-,19+,20+,21-/m1/s1

> <PUBCHEM_IUPAC_INCHIKEY>
LHNVKVKZPHUYQO-SRWWVFQWSA-N

> <PUBCHEM_XLOGP3_AA>
2.9

> <PUBCHEM_EXACT_MASS>
328.203845

> <PUBCHEM_MOLECULAR_FORMULA>
C21H28O3

> <PUBCHEM_MOLECULAR_WEIGHT>
328.44522

> <PUBCHEM_OPENEYE_CAN_SMILES>
CC(=O)C12C(O1)CC3C2(CCC4C3CCC5=CC(=O)CCC45C)C

> <PUBCHEM_OPENEYE_ISO_SMILES>
CC(=O)[C@]12[C@H](O1)C[C@@H]3[C@@]2(CC[C@H]4[C@H]3CCC5=CC(=O)CC[C@]45C)C

> <PUBCHEM_CACTVS_TPSA>
46.7

> <PUBCHEM_MONOISOTOPIC_WEIGHT>
328.203845

> <PUBCHEM_TOTAL_CHARGE>
0

> <PUBCHEM_HEAVY_ATOM_COUNT>
24

> <PUBCHEM_ATOM_DEF_STEREO_COUNT>
7

> <PUBCHEM_ATOM_UDEF_STEREO_COUNT>
0

> <PUBCHEM_BOND_DEF_STEREO_COUNT>
0

> <PUBCHEM_BOND_UDEF_STEREO_COUNT>
0

> <PUBCHEM_ISOTOPIC_ATOM_COUNT>
0

> <PUBCHEM_COMPONENT_COUNT>
1

> <PUBCHEM_CACTVS_TAUTO_COUNT>
10

> <PUBCHEM_COORDINATE_TYPE>
1
5
255

> <PUBCHEM_BONDANNOTATIONS>
10  30  5
13  20  6
4  14  6
5  16  6
6  25  5
7  26  6
8  27  6

$$$$

