17396548
  -OEChem-06241222572D

 44 44  0     1  0  0  0  0  0999 V2000
    6.6381   -0.3587    0.0000 O   0  0  0  0  0  0  0  0  0  0  0  0
    2.5878    2.5840    0.0000 O   0  0  0  0  0  0  0  0  0  0  0  0
    7.1733    1.2886    0.0000 O   0  0  0  0  0  0  0  0  0  0  0  0
    7.0539   -2.3150    0.0000 O   0  0  0  0  0  0  0  0  0  0  0  0
    3.9890    3.6021    0.0000 O   0  0  0  0  0  0  0  0  0  0  0  0
    4.6701    0.3407    0.0000 N   0  0  0  0  0  0  0  0  0  0  0  0
    8.7481   -1.9548    0.0000 N   0  0  0  0  0  0  0  0  0  0  0  0
    5.1701    1.8796    0.0000 C   0  0  0  0  0  0  0  0  0  0  0  0
    5.4791    0.9285    0.0000 C   0  0  0  0  0  0  0  0  0  0  0  0
    4.1701    1.8796    0.0000 C   0  0  0  0  0  0  0  0  0  0  0  0
    3.8611    0.9285    0.0000 C   0  0  0  0  0  0  0  0  0  0  0  0
    8.9560   -2.9330    0.0000 C   0  0  0  0  0  0  0  0  0  0  0  0
    7.5891   -0.6677    0.0000 C   0  0  3  0  0  0  0  0  0  0  0  0
    6.4302    0.6195    0.0000 C   0  0  0  0  0  0  0  0  0  0  0  0
    7.7970   -1.6458    0.0000 C   0  0  0  0  0  0  0  0  0  0  0  0
    5.7579    2.6886    0.0000 C   0  0  0  0  0  0  0  0  0  0  0  0
    2.9100    0.6195    0.0000 C   0  0  0  0  0  0  0  0  0  0  0  0
    9.9071   -3.2420    0.0000 C   0  0  0  0  0  0  0  0  0  0  0  0
    8.2129   -3.6021    0.0000 C   0  0  0  0  0  0  0  0  0  0  0  0
    8.3323    0.0015    0.0000 C   0  0  0  0  0  0  0  0  0  0  0  0
    3.5823    2.6886    0.0000 C   0  0  0  0  0  0  0  0  0  0  0  0
    2.0000    3.3931    0.0000 C   0  0  0  0  0  0  0  0  0  0  0  0
    8.3664   -2.7414    0.0000 H   0  0  0  0  0  0  0  0  0  0  0  0
    7.4602   -0.0612    0.0000 H   0  0  0  0  0  0  0  0  0  0  0  0
    4.6701   -0.2793    0.0000 H   0  0  0  0  0  0  0  0  0  0  0  0
    9.2088   -1.5400    0.0000 H   0  0  0  0  0  0  0  0  0  0  0  0
    6.2595    2.3242    0.0000 H   0  0  0  0  0  0  0  0  0  0  0  0
    6.1223    3.1902    0.0000 H   0  0  0  0  0  0  0  0  0  0  0  0
    5.2563    3.0530    0.0000 H   0  0  0  0  0  0  0  0  0  0  0  0
    2.7184    1.2091    0.0000 H   0  0  0  0  0  0  0  0  0  0  0  0
    2.3204    0.4279    0.0000 H   0  0  0  0  0  0  0  0  0  0  0  0
    3.1016    0.0298    0.0000 H   0  0  0  0  0  0  0  0  0  0  0  0
    7.7980   -3.1414    0.0000 H   0  0  0  0  0  0  0  0  0  0  0  0
    7.7521   -4.0170    0.0000 H   0  0  0  0  0  0  0  0  0  0  0  0
    8.6277   -4.0629    0.0000 H   0  0  0  0  0  0  0  0  0  0  0  0
    9.7155   -3.8317    0.0000 H   0  0  0  0  0  0  0  0  0  0  0  0
   10.4967   -3.4336    0.0000 H   0  0  0  0  0  0  0  0  0  0  0  0
   10.0987   -2.6524    0.0000 H   0  0  0  0  0  0  0  0  0  0  0  0
    8.7471   -0.4593    0.0000 H   0  0  0  0  0  0  0  0  0  0  0  0
    8.7930    0.4163    0.0000 H   0  0  0  0  0  0  0  0  0  0  0  0
    7.9174    0.4622    0.0000 H   0  0  0  0  0  0  0  0  0  0  0  0
    2.5016    3.7575    0.0000 H   0  0  0  0  0  0  0  0  0  0  0  0
    1.6356    3.8947    0.0000 H   0  0  0  0  0  0  0  0  0  0  0  0
    1.4984    3.0286    0.0000 H   0  0  0  0  0  0  0  0  0  0  0  0
  1 13  1  0  0  0  0
  1 14  1  0  0  0  0
  2 21  1  0  0  0  0
  2 22  1  0  0  0  0
  3 14  2  0  0  0  0
  4 15  2  0  0  0  0
  5 21  2  0  0  0  0
  6  9  1  0  0  0  0
  6 11  1  0  0  0  0
  6 25  1  0  0  0  0
  7 12  1  0  0  0  0
  7 15  1  0  0  0  0
  7 26  1  0  0  0  0
  8  9  2  0  0  0  0
  8 10  1  0  0  0  0
  8 16  1  0  0  0  0
  9 14  1  0  0  0  0
 10 11  2  0  0  0  0
 10 21  1  0  0  0  0
 11 17  1  0  0  0  0
 12 18  1  0  0  0  0
 12 19  1  0  0  0  0
 12 23  1  0  0  0  0
 13 15  1  0  0  0  0
 13 20  1  0  0  0  0
 13 24  1  0  0  0  0
 16 27  1  0  0  0  0
 16 28  1  0  0  0  0
 16 29  1  0  0  0  0
 17 30  1  0  0  0  0
 17 31  1  0  0  0  0
 17 32  1  0  0  0  0
 18 36  1  0  0  0  0
 18 37  1  0  0  0  0
 18 38  1  0  0  0  0
 19 33  1  0  0  0  0
 19 34  1  0  0  0  0
 19 35  1  0  0  0  0
 20 39  1  0  0  0  0
 20 40  1  0  0  0  0
 20 41  1  0  0  0  0
 22 42  1  0  0  0  0
 22 43  1  0  0  0  0
 22 44  1  0  0  0  0
M  END
> <PUBCHEM_COMPOUND_CID>
17396548

> <PUBCHEM_COMPOUND_CANONICALIZED>
1

> <PUBCHEM_CACTVS_COMPLEXITY>
438

> <PUBCHEM_CACTVS_HBOND_ACCEPTOR>
5

> <PUBCHEM_CACTVS_HBOND_DONOR>
2

> <PUBCHEM_CACTVS_ROTATABLE_BOND>
7

> <PUBCHEM_CACTVS_SUBSKEYS>
AAADceBzOAAAAAAAAAAAAAAAAAAAAWAAAAAAAAAAAAAAAAABgAAAHgAQAAAADDzhngYCiJLJlACoAwXwXAaCgCAnACAAmaH4TNgKJnrAtL2HEYhm1gHY6Ue8fwkegAAAAAAAAAAAAAAAAAAAAAAAAAAAAA==

> <PUBCHEM_IUPAC_OPENEYE_NAME>
O2-[2-(isopropylamino)-1-methyl-2-oxo-ethyl] O4-methyl 3,5-dimethyl-1H-pyrrole-2,4-dicarboxylate

> <PUBCHEM_IUPAC_CAS_NAME>
3,5-dimethyl-1H-pyrrole-2,4-dicarboxylic acid O4-methyl ester O2-[1-oxo-1-(propan-2-ylamino)propan-2-yl] ester

> <PUBCHEM_IUPAC_NAME>
4-O-methyl 2-O-[1-oxo-1-(propan-2-ylamino)propan-2-yl] 3,5-dimethyl-1H-pyrrole-2,4-dicarboxylate

> <PUBCHEM_IUPAC_SYSTEMATIC_NAME>
O4-methyl O2-[1-oxidanylidene-1-(propan-2-ylamino)propan-2-yl] 3,5-dimethyl-1H-pyrrole-2,4-dicarboxylate

> <PUBCHEM_IUPAC_TRADITIONAL_NAME>
3,5-dimethyl-1H-pyrrole-2,4-dicarboxylic acid O2-[2-(isopropylamino)-2-keto-1-methyl-ethyl] ester O4-methyl ester

> <PUBCHEM_IUPAC_INCHI>
InChI=1S/C15H22N2O5/c1-7(2)16-13(18)10(5)22-15(20)12-8(3)11(9(4)17-12)14(19)21-6/h7,10,17H,1-6H3,(H,16,18)

> <PUBCHEM_IUPAC_INCHIKEY>
XNIBGHUDBBSQKF-UHFFFAOYSA-N

> <PUBCHEM_XLOGP3_AA>
2.1

> <PUBCHEM_EXACT_MASS>
310.152872

> <PUBCHEM_MOLECULAR_FORMULA>
C15H22N2O5

> <PUBCHEM_MOLECULAR_WEIGHT>
310.34558

> <PUBCHEM_OPENEYE_CAN_SMILES>
CC1=C(NC(=C1C(=O)OC)C)C(=O)OC(C)C(=O)NC(C)C

> <PUBCHEM_OPENEYE_ISO_SMILES>
CC1=C(NC(=C1C(=O)OC)C)C(=O)OC(C)C(=O)NC(C)C

> <PUBCHEM_CACTVS_TPSA>
97.5

> <PUBCHEM_MONOISOTOPIC_WEIGHT>
310.152872

> <PUBCHEM_TOTAL_CHARGE>
0

> <PUBCHEM_HEAVY_ATOM_COUNT>
22

> <PUBCHEM_ATOM_DEF_STEREO_COUNT>
0

> <PUBCHEM_ATOM_UDEF_STEREO_COUNT>
1

> <PUBCHEM_BOND_DEF_STEREO_COUNT>
0

> <PUBCHEM_BOND_UDEF_STEREO_COUNT>
0

> <PUBCHEM_ISOTOPIC_ATOM_COUNT>
0

> <PUBCHEM_COMPONENT_COUNT>
1

> <PUBCHEM_CACTVS_TAUTO_COUNT>
20

> <PUBCHEM_COORDINATE_TYPE>
1
5
255

> <PUBCHEM_BONDANNOTATIONS>
10  11  8
13  20  3
6  11  8
6  9  8
8  10  8
8  9  8

$$$$

