308140
  -OEChem-07051212592D

 42 45  0     0  0  0  0  0  0999 V2000
    4.6660   -1.0919    0.0000 O   0  0  0  0  0  0  0  0  0  0  0  0
    7.2641    1.4081    0.0000 O   0  0  0  0  0  0  0  0  0  0  0  0
    9.0125   -2.6265    0.0000 O   0  0  0  0  0  0  0  0  0  0  0  0
    7.2641   -2.5919    0.0000 O   0  0  0  0  0  0  0  0  0  0  0  0
    2.9176   -1.1265    0.0000 O   0  0  0  0  0  0  0  0  0  0  0  0
    2.9176    2.9427    0.0000 O   0  0  0  0  0  0  0  0  0  0  0  0
    5.5321    0.4081    0.0000 C   0  0  0  0  0  0  0  0  0  0  0  0
    6.3981   -0.0919    0.0000 C   0  0  0  0  0  0  0  0  0  0  0  0
    5.5321    1.4081    0.0000 C   0  0  0  0  0  0  0  0  0  0  0  0
    8.1301   -0.0919    0.0000 C   0  0  0  0  0  0  0  0  0  0  0  0
    4.6660   -0.0919    0.0000 C   0  0  0  0  0  0  0  0  0  0  0  0
    3.8000    0.4081    0.0000 C   0  0  0  0  0  0  0  0  0  0  0  0
    8.1301   -1.0919    0.0000 C   0  0  0  0  0  0  0  0  0  0  0  0
    3.8000    1.4081    0.0000 C   0  0  0  0  0  0  0  0  0  0  0  0
    7.2641    0.4081    0.0000 C   0  0  0  0  0  0  0  0  0  0  0  0
    4.6660    1.9081    0.0000 C   0  0  0  0  0  0  0  0  0  0  0  0
    6.3981   -1.0919    0.0000 C   0  0  0  0  0  0  0  0  0  0  0  0
    7.2641   -1.5919    0.0000 C   0  0  0  0  0  0  0  0  0  0  0  0
    9.0241    0.4428    0.0000 C   0  0  0  0  0  0  0  0  0  0  0  0
    9.0241   -1.6266    0.0000 C   0  0  0  0  0  0  0  0  0  0  0  0
    9.9301   -0.0711    0.0000 C   0  0  0  0  0  0  0  0  0  0  0  0
    6.3981    1.9081    0.0000 C   0  0  0  0  0  0  0  0  0  0  0  0
    2.9061   -0.1266    0.0000 C   0  0  0  0  0  0  0  0  0  0  0  0
    2.9061    1.9428    0.0000 C   0  0  0  0  0  0  0  0  0  0  0  0
    9.9301   -1.1127    0.0000 C   0  0  0  0  0  0  0  0  0  0  0  0
    2.0000    0.3873    0.0000 C   0  0  0  0  0  0  0  0  0  0  0  0
    2.0000    1.4289    0.0000 C   0  0  0  0  0  0  0  0  0  0  0  0
   10.7942    0.4322    0.0000 C   0  0  0  0  0  0  0  0  0  0  0  0
    4.6660    2.5281    0.0000 H   0  0  0  0  0  0  0  0  0  0  0  0
    5.8612   -1.4019    0.0000 H   0  0  0  0  0  0  0  0  0  0  0  0
    9.0169    1.0627    0.0000 H   0  0  0  0  0  0  0  0  0  0  0  0
    6.7081    1.3712    0.0000 H   0  0  0  0  0  0  0  0  0  0  0  0
    6.9350    2.2181    0.0000 H   0  0  0  0  0  0  0  0  0  0  0  0
    6.0881    2.4450    0.0000 H   0  0  0  0  0  0  0  0  0  0  0  0
   10.4659   -1.4248    0.0000 H   0  0  0  0  0  0  0  0  0  0  0  0
    1.4643    0.0752    0.0000 H   0  0  0  0  0  0  0  0  0  0  0  0
    1.4643    1.7410    0.0000 H   0  0  0  0  0  0  0  0  0  0  0  0
   11.1063   -0.1035    0.0000 H   0  0  0  0  0  0  0  0  0  0  0  0
   11.3300    0.7443    0.0000 H   0  0  0  0  0  0  0  0  0  0  0  0
   10.4822    0.9680    0.0000 H   0  0  0  0  0  0  0  0  0  0  0  0
    4.1291   -1.4019    0.0000 H   0  0  0  0  0  0  0  0  0  0  0  0
    9.5458   -2.9427    0.0000 H   0  0  0  0  0  0  0  0  0  0  0  0
  1 11  1  0  0  0  0
  1 41  1  0  0  0  0
  2 15  2  0  0  0  0
  3 20  1  0  0  0  0
  3 42  1  0  0  0  0
  4 18  2  0  0  0  0
  5 23  2  0  0  0  0
  6 24  2  0  0  0  0
  7  8  1  0  0  0  0
  7  9  1  0  0  0  0
  7 11  2  0  0  0  0
  8 15  1  0  0  0  0
  8 17  2  0  0  0  0
  9 16  2  0  0  0  0
  9 22  1  0  0  0  0
 10 13  2  0  0  0  0
 10 15  1  0  0  0  0
 10 19  1  0  0  0  0
 11 12  1  0  0  0  0
 12 14  2  0  0  0  0
 12 23  1  0  0  0  0
 13 18  1  0  0  0  0
 13 20  1  0  0  0  0
 14 16  1  0  0  0  0
 14 24  1  0  0  0  0
 16 29  1  0  0  0  0
 17 18  1  0  0  0  0
 17 30  1  0  0  0  0
 19 21  2  0  0  0  0
 19 31  1  0  0  0  0
 20 25  2  0  0  0  0
 21 25  1  0  0  0  0
 21 28  1  0  0  0  0
 22 32  1  0  0  0  0
 22 33  1  0  0  0  0
 22 34  1  0  0  0  0
 23 26  1  0  0  0  0
 24 27  1  0  0  0  0
 25 35  1  0  0  0  0
 26 27  2  0  0  0  0
 26 36  1  0  0  0  0
 27 37  1  0  0  0  0
 28 38  1  0  0  0  0
 28 39  1  0  0  0  0
 28 40  1  0  0  0  0
M  END
> <PUBCHEM_COMPOUND_CID>
308140

> <PUBCHEM_COMPOUND_CANONICALIZED>
1

> <PUBCHEM_CACTVS_COMPLEXITY>
808

> <PUBCHEM_CACTVS_HBOND_ACCEPTOR>
6

> <PUBCHEM_CACTVS_HBOND_DONOR>
2

> <PUBCHEM_CACTVS_ROTATABLE_BOND>
1

> <PUBCHEM_CACTVS_SUBSKEYS>
AAADccB4OAAAAAAAAAAAAAAAAAAAAAAAAAAwYIEAAAAAAACBQAAAGgAACAAADASAmAAyBoAAAgCIAqBSAAACAAAkIAAIiAEGCMgIJjaCFRKAcUAk4BEImYeLyPCOwAADAAAYAACAAAYAADAAAAAAAAAAAA==

> <PUBCHEM_IUPAC_OPENEYE_NAME>
5-hydroxy-6-(5-hydroxy-7-methyl-1,4-dioxo-2-naphthyl)-7-methyl-naphthalene-1,4-dione

> <PUBCHEM_IUPAC_CAS_NAME>
5-hydroxy-6-(5-hydroxy-7-methyl-1,4-dioxo-2-naphthalenyl)-7-methylnaphthalene-1,4-dione

> <PUBCHEM_IUPAC_NAME>
5-hydroxy-6-(5-hydroxy-7-methyl-1,4-dioxonaphthalen-2-yl)-7-methylnaphthalene-1,4-dione

> <PUBCHEM_IUPAC_SYSTEMATIC_NAME>
7-methyl-6-[7-methyl-5-oxidanyl-1,4-bis(oxidanylidene)naphthalen-2-yl]-5-oxidanyl-naphthalene-1,4-dione

> <PUBCHEM_IUPAC_TRADITIONAL_NAME>
5-hydroxy-6-(5-hydroxy-1,4-diketo-7-methyl-2-naphthyl)-7-methyl-1,4-naphthoquinone

> <PUBCHEM_IUPAC_INCHI>
InChI=1S/C22H14O6/c1-9-5-12-19(16(25)6-9)17(26)8-13(21(12)27)18-10(2)7-11-14(23)3-4-15(24)20(11)22(18)28/h3-8,25,28H,1-2H3

> <PUBCHEM_IUPAC_INCHIKEY>
WRFTYMHHWSAKSK-UHFFFAOYSA-N

> <PUBCHEM_XLOGP3_AA>
3.7

> <PUBCHEM_EXACT_MASS>
374.079038

> <PUBCHEM_MOLECULAR_FORMULA>
C22H14O6

> <PUBCHEM_MOLECULAR_WEIGHT>
374.34296

> <PUBCHEM_OPENEYE_CAN_SMILES>
CC1=CC(=C2C(=C1)C(=O)C(=CC2=O)C3=C(C=C4C(=O)C=CC(=O)C4=C3O)C)O

> <PUBCHEM_OPENEYE_ISO_SMILES>
CC1=CC(=C2C(=C1)C(=O)C(=CC2=O)C3=C(C=C4C(=O)C=CC(=O)C4=C3O)C)O

> <PUBCHEM_CACTVS_TPSA>
109

> <PUBCHEM_MONOISOTOPIC_WEIGHT>
374.079038

> <PUBCHEM_TOTAL_CHARGE>
0

> <PUBCHEM_HEAVY_ATOM_COUNT>
28

> <PUBCHEM_ATOM_DEF_STEREO_COUNT>
0

> <PUBCHEM_ATOM_UDEF_STEREO_COUNT>
0

> <PUBCHEM_BOND_DEF_STEREO_COUNT>
0

> <PUBCHEM_BOND_UDEF_STEREO_COUNT>
0

> <PUBCHEM_ISOTOPIC_ATOM_COUNT>
0

> <PUBCHEM_COMPONENT_COUNT>
1

> <PUBCHEM_CACTVS_TAUTO_COUNT>
249

> <PUBCHEM_COORDINATE_TYPE>
1
5
255

> <PUBCHEM_BONDANNOTATIONS>
10  13  8
10  19  8
11  12  8
12  14  8
13  20  8
14  16  8
19  21  8
20  25  8
21  25  8
7  11  8
7  9  8
9  16  8

$$$$

