18343
  -OEChem-07051213033D

 28 29  0     1  0  0  0  0  0999 V2000
    2.7792    2.3138    0.3405 F   0  0  0  0  0  0  0  0  0  0  0  0
   -1.5028    0.7843   -1.1401 O   0  0  0  0  0  0  0  0  0  0  0  0
   -1.9890   -1.8418    1.2529 O   0  0  0  0  0  0  0  0  0  0  0  0
   -3.9471   -0.7258   -0.2829 O   0  0  0  0  0  0  0  0  0  0  0  0
    0.7521   -2.6257   -0.5182 O   0  0  0  0  0  0  0  0  0  0  0  0
    4.3775    0.1153    0.2844 O   0  0  0  0  0  0  0  0  0  0  0  0
    0.3695   -0.3302   -0.2934 N   0  0  0  0  0  0  0  0  0  0  0  0
    2.5562   -1.2609   -0.1197 N   0  0  0  0  0  0  0  0  0  0  0  0
   -1.8116   -0.5080    0.8220 C   0  0  2  0  0  0  0  0  0  0  0  0
   -3.1233    0.1624    0.4720 C   0  0  1  0  0  0  0  0  0  0  0  0
   -1.0499   -0.4138   -0.4888 C   0  0  1  0  0  0  0  0  0  0  0  0
   -2.6714    1.2838   -0.4535 C   0  0  1  0  0  0  0  0  0  0  0  0
   -2.2789    2.5548    0.2878 C   0  0  0  0  0  0  0  0  0  0  0  0
    1.1862   -1.4878   -0.3257 C   0  0  0  0  0  0  0  0  0  0  0  0
    0.9373    0.9189   -0.0687 C   0  0  0  0  0  0  0  0  0  0  0  0
    2.2423    1.0994    0.1235 C   0  0  0  0  0  0  0  0  0  0  0  0
    3.1738   -0.0386    0.1081 C   0  0  0  0  0  0  0  0  0  0  0  0
   -1.3123    0.0498    1.6233 H   0  0  0  0  0  0  0  0  0  0  0  0
   -3.6976    0.4923    1.3415 H   0  0  0  0  0  0  0  0  0  0  0  0
   -1.2705   -1.2659   -1.1429 H   0  0  0  0  0  0  0  0  0  0  0  0
   -3.4232    1.5204   -1.2143 H   0  0  0  0  0  0  0  0  0  0  0  0
   -1.5619    2.3628    1.0914 H   0  0  0  0  0  0  0  0  0  0  0  0
   -1.8114    3.2703   -0.3969 H   0  0  0  0  0  0  0  0  0  0  0  0
   -3.1604    3.0257    0.7344 H   0  0  0  0  0  0  0  0  0  0  0  0
   -1.1056   -2.2294    1.3738 H   0  0  0  0  0  0  0  0  0  0  0  0
   -3.4963   -0.9464   -1.1149 H   0  0  0  0  0  0  0  0  0  0  0  0
    0.2915    1.7840   -0.0450 H   0  0  0  0  0  0  0  0  0  0  0  0
    3.1583   -2.0792   -0.1392 H   0  0  0  0  0  0  0  0  0  0  0  0
  1 16  1  0  0  0  0
  2 11  1  0  0  0  0
  2 12  1  0  0  0  0
  3  9  1  0  0  0  0
  3 25  1  0  0  0  0
  4 10  1  0  0  0  0
  4 26  1  0  0  0  0
  5 14  2  0  0  0  0
  6 17  2  0  0  0  0
  7 11  1  0  0  0  0
  7 14  1  0  0  0  0
  7 15  1  0  0  0  0
  8 14  1  0  0  0  0
  8 17  1  0  0  0  0
  8 28  1  0  0  0  0
  9 10  1  0  0  0  0
  9 11  1  0  0  0  0
  9 18  1  0  0  0  0
 10 12  1  0  0  0  0
 10 19  1  0  0  0  0
 11 20  1  0  0  0  0
 12 13  1  0  0  0  0
 12 21  1  0  0  0  0
 13 22  1  0  0  0  0
 13 23  1  0  0  0  0
 13 24  1  0  0  0  0
 15 16  2  0  0  0  0
 15 27  1  0  0  0  0
 16 17  1  0  0  0  0
M  END
> <PUBCHEM_COMPOUND_CID>
18343

> <PUBCHEM_CONFORMER_RMSD>
0.6

> <PUBCHEM_CONFORMER_DIVERSEORDER>
1
8
6
4
9
2
7
10
3
5

> <PUBCHEM_MMFF94_PARTIAL_CHARGES>
20
1 -0.15
10 0.28
11 0.58
12 0.28
14 0.69
15 -0.04
16 0.16
17 0.62
2 -0.56
25 0.4
26 0.4
27 0.15
28 0.37
3 -0.68
4 -0.68
5 -0.57
6 -0.57
7 -0.47
8 -0.49
9 0.28

> <PUBCHEM_EFFECTIVE_ROTOR_COUNT>
2

> <PUBCHEM_PHARMACOPHORE_FEATURES>
10
1 2 acceptor
1 3 acceptor
1 3 donor
1 4 acceptor
1 4 donor
1 5 acceptor
1 6 acceptor
1 8 donor
5 2 9 10 11 12 rings
6 7 8 14 15 16 17 rings

> <PUBCHEM_HEAVY_ATOM_COUNT>
17

> <PUBCHEM_ATOM_DEF_STEREO_COUNT>
4

> <PUBCHEM_ATOM_UDEF_STEREO_COUNT>
0

> <PUBCHEM_BOND_DEF_STEREO_COUNT>
0

> <PUBCHEM_BOND_UDEF_STEREO_COUNT>
0

> <PUBCHEM_ISOTOPIC_ATOM_COUNT>
0

> <PUBCHEM_COMPONENT_COUNT>
1

> <PUBCHEM_CACTVS_TAUTO_COUNT>
3

> <PUBCHEM_CONFORMER_ID>
000047A700000001

> <PUBCHEM_MMFF94_ENERGY>
43.5508

> <PUBCHEM_FEATURE_SELFOVERLAP>
50.756

> <PUBCHEM_SHAPE_FINGERPRINT>
10366900 7 18341044138312729314
10608611 8 18411702122842107381
11471102 20 18336551632665057700
11471102 22 18412254039113923882
12251169 10 18273494563528949458
13294875 104 17123417714705123337
13380535 76 18413390955596329115
14026960 21 18267862779119880408
14144814 61 18337954596564476288
14648413 74 18266175217612505809
15219456 202 18339922735278895495
15309172 13 18334853887859055686
15442244 35 17903636633025351432
15775835 57 17895194359372162077
16945 1 18341034273041908063
17802600 8 18408890624317725648
18175812 5 18201155447185411006
18186145 218 17894906326481426844
19049666 15 18197208372377511051
200 152 18187658998374422797
20201158 50 18412543236389241011
20510252 161 18411979204510340689
20528008 55 18273217473956570967
21501502 16 18340485693943479671
21524375 3 18114745932423702510
23402539 116 18343028774592728855
23559900 14 18339084907497833346
25 1 18194966468047202004
2748010 2 18410855417458291276
69090 78 18411984650565859931
7364860 26 18190739936797266686
81228 2 17917129655655048955
8809292 202 18199180866199350394
9709674 26 18410851088052401783

> <PUBCHEM_SHAPE_MULTIPOLES>
303.27
6.24
2.31
0.84
1.79
0.21
0.04
1.1
0.58
-0.09
0.14
-0.4
-0.13
0.52

> <PUBCHEM_SHAPE_SELFOVERLAP>
643.126

> <PUBCHEM_SHAPE_VOLUME>
170.5

> <PUBCHEM_COORDINATE_TYPE>
2
5
10

$$$$

