15519422
  -OEChem-07051213033D

 64 66  0     1  0  0  0  0  0999 V2000
    4.4108    0.3086   -0.1928 P   0  0  1  0  0  0  0  0  0  0  0  0
    2.9736    2.5916    0.9818 P   0  0  2  0  0  0  0  0  0  0  0  0
    1.5368   -1.2980   -1.6685 O   0  0  0  0  0  0  0  0  0  0  0  0
   -1.3131    1.7998   -1.1878 O   0  0  0  0  0  0  0  0  0  0  0  0
   -0.9242   -3.8201   -0.6466 O   0  0  0  0  0  0  0  0  0  0  0  0
    3.7555   -0.8929   -1.0489 O   0  0  0  0  0  0  0  0  0  0  0  0
   -1.7635    4.8256   -1.3080 O   0  0  0  0  0  0  0  0  0  0  0  0
    1.5537    3.2050    0.5080 O   0  0  0  0  0  0  0  0  0  0  0  0
    3.2515    1.4323   -0.1098 O   0  0  0  0  0  0  0  0  0  0  0  0
    4.4834   -0.2614    1.3196 O   0  0  0  0  0  0  0  0  0  0  0  0
    5.7196    0.8129   -0.7279 O   0  0  0  0  0  0  0  0  0  0  0  0
    2.6094    1.7542    2.3170 O   0  0  0  0  0  0  0  0  0  0  0  0
   -4.9112    0.5591   -1.6306 O   0  0  0  0  0  0  0  0  0  0  0  0
    4.0906    3.5816    1.1395 O   0  0  0  0  0  0  0  0  0  0  0  0
   -4.4454   -2.5567    1.7193 O   0  0  0  0  0  0  0  0  0  0  0  0
    1.7085   -5.1151    0.0218 N   0  0  0  0  0  0  0  0  0  0  0  0
   -3.1542    0.8306   -0.1174 N   0  0  0  0  0  0  0  0  0  0  0  0
   -4.6677   -0.9871    0.0456 N   0  0  0  0  0  0  0  0  0  0  0  0
    1.4367   -3.6690    0.0119 C   0  0  2  0  0  0  0  0  0  0  0  0
    0.3554   -3.3393   -1.0475 C   0  0  2  0  0  0  0  0  0  0  0  0
    2.7413   -2.9422   -0.3645 C   0  0  0  0  0  0  0  0  0  0  0  0
    0.2585   -1.8255   -1.3051 C   0  0  2  0  0  0  0  0  0  0  0  0
    2.5117   -1.4562   -0.6400 C   0  0  2  0  0  0  0  0  0  0  0  0
    0.9951   -3.2980    1.4392 C   0  0  0  0  0  0  0  0  0  0  0  0
   -1.3874    3.9684   -0.2323 C   0  0  2  0  0  0  0  0  0  0  0  0
   -0.4613    2.8730   -0.7423 C   0  0  1  0  0  0  0  0  0  0  0  0
   -2.5944    3.1984    0.2513 C   0  0  0  0  0  0  0  0  0  0  0  0
   -2.6494    2.0298   -0.7193 C   0  0  1  0  0  0  0  0  0  0  0  0
   -0.7032   -1.5097   -2.4482 C   0  0  0  0  0  0  0  0  0  0  0  0
    0.4580    2.3225    0.3403 C   0  0  0  0  0  0  0  0  0  0  0  0
   -2.5038    0.3270    1.0018 C   0  0  0  0  0  0  0  0  0  0  0  0
   -4.2858    0.1702   -0.6420 C   0  0  0  0  0  0  0  0  0  0  0  0
   -2.8719   -0.7807    1.6574 C   0  0  0  0  0  0  0  0  0  0  0  0
   -4.0561   -1.5329    1.1641 C   0  0  0  0  0  0  0  0  0  0  0  0
   -2.1574   -1.3058    2.8611 C   0  0  0  0  0  0  0  0  0  0  0  0
    0.6177   -3.8336   -1.9931 H   0  0  0  0  0  0  0  0  0  0  0  0
    3.5076   -3.0642    0.4122 H   0  0  0  0  0  0  0  0  0  0  0  0
    3.1645   -3.3937   -1.2740 H   0  0  0  0  0  0  0  0  0  0  0  0
   -0.1093   -1.2987   -0.4163 H   0  0  0  0  0  0  0  0  0  0  0  0
    2.1582   -0.9431    0.2610 H   0  0  0  0  0  0  0  0  0  0  0  0
    0.7289   -2.2405    1.5270 H   0  0  0  0  0  0  0  0  0  0  0  0
    1.7943   -3.4914    2.1649 H   0  0  0  0  0  0  0  0  0  0  0  0
    0.1216   -3.8803    1.7552 H   0  0  0  0  0  0  0  0  0  0  0  0
   -0.9447    4.5951    0.5476 H   0  0  0  0  0  0  0  0  0  0  0  0
    0.1284    3.2103   -1.6021 H   0  0  0  0  0  0  0  0  0  0  0  0
   -3.5226    3.7790    0.2155 H   0  0  0  0  0  0  0  0  0  0  0  0
   -2.4418    2.9004    1.2930 H   0  0  0  0  0  0  0  0  0  0  0  0
   -3.2466    2.3029   -1.5966 H   0  0  0  0  0  0  0  0  0  0  0  0
    2.0260   -5.4156   -0.8991 H   0  0  0  0  0  0  0  0  0  0  0  0
    2.4716   -5.3210    0.6659 H   0  0  0  0  0  0  0  0  0  0  0  0
   -0.7021   -0.4362   -2.6634 H   0  0  0  0  0  0  0  0  0  0  0  0
   -1.7266   -1.8147   -2.2106 H   0  0  0  0  0  0  0  0  0  0  0  0
   -0.3918   -2.0116   -3.3709 H   0  0  0  0  0  0  0  0  0  0  0  0
    0.7990    1.3193    0.0648 H   0  0  0  0  0  0  0  0  0  0  0  0
   -0.0455    2.2421    1.3065 H   0  0  0  0  0  0  0  0  0  0  0  0
   -0.8365   -4.7750   -0.4845 H   0  0  0  0  0  0  0  0  0  0  0  0
   -0.9569    5.2696   -1.6210 H   0  0  0  0  0  0  0  0  0  0  0  0
   -1.6377    0.8697    1.3486 H   0  0  0  0  0  0  0  0  0  0  0  0
   -5.4802   -1.4800   -0.3146 H   0  0  0  0  0  0  0  0  0  0  0  0
    4.9708    0.2534    1.9975 H   0  0  0  0  0  0  0  0  0  0  0  0
   -1.2793   -0.7014    3.1123 H   0  0  0  0  0  0  0  0  0  0  0  0
   -2.8232   -1.3058    3.7303 H   0  0  0  0  0  0  0  0  0  0  0  0
   -1.8153   -2.3307    2.6861 H   0  0  0  0  0  0  0  0  0  0  0  0
    1.9353    1.0433    2.2707 H   0  0  0  0  0  0  0  0  0  0  0  0
  1  6  1  0  0  0  0
  1  9  1  0  0  0  0
  1 10  1  0  0  0  0
  1 11  2  0  0  0  0
  2  8  1  0  0  0  0
  2  9  1  0  0  0  0
  2 12  1  0  0  0  0
  2 14  2  0  0  0  0
  3 22  1  0  0  0  0
  3 23  1  0  0  0  0
  4 26  1  0  0  0  0
  4 28  1  0  0  0  0
  5 20  1  0  0  0  0
  5 56  1  0  0  0  0
  6 23  1  0  0  0  0
  7 25  1  0  0  0  0
  7 57  1  0  0  0  0
  8 30  1  0  0  0  0
 10 60  1  0  0  0  0
 12 64  1  0  0  0  0
 13 32  2  0  0  0  0
 15 34  2  0  0  0  0
 16 19  1  0  0  0  0
 16 49  1  0  0  0  0
 16 50  1  0  0  0  0
 17 28  1  0  0  0  0
 17 31  1  0  0  0  0
 17 32  1  0  0  0  0
 18 32  1  0  0  0  0
 18 34  1  0  0  0  0
 18 59  1  0  0  0  0
 19 20  1  0  0  0  0
 19 21  1  0  0  0  0
 19 24  1  0  0  0  0
 20 22  1  0  0  0  0
 20 36  1  0  0  0  0
 21 23  1  0  0  0  0
 21 37  1  0  0  0  0
 21 38  1  0  0  0  0
 22 29  1  0  0  0  0
 22 39  1  0  0  0  0
 23 40  1  0  0  0  0
 24 41  1  0  0  0  0
 24 42  1  0  0  0  0
 24 43  1  0  0  0  0
 25 26  1  0  0  0  0
 25 27  1  0  0  0  0
 25 44  1  0  0  0  0
 26 30  1  0  0  0  0
 26 45  1  0  0  0  0
 27 28  1  0  0  0  0
 27 46  1  0  0  0  0
 27 47  1  0  0  0  0
 28 48  1  0  0  0  0
 29 51  1  0  0  0  0
 29 52  1  0  0  0  0
 29 53  1  0  0  0  0
 30 54  1  0  0  0  0
 30 55  1  0  0  0  0
 31 33  2  0  0  0  0
 31 58  1  0  0  0  0
 33 34  1  0  0  0  0
 33 35  1  0  0  0  0
 35 61  1  0  0  0  0
 35 62  1  0  0  0  0
 35 63  1  0  0  0  0
M  END
> <PUBCHEM_COMPOUND_CID>
15519422

> <PUBCHEM_CONFORMER_RMSD>
1.2

> <PUBCHEM_CONFORMER_DIVERSEORDER>
1
281
46
59
207
131
133
264
210
224
80
213
82
246
260
86
123
270
145
73
163
132
243
248
126
256
240
254
42
25
106
11
153
232
47
13
18
206
9
69
105
187
173
97
125
178
238
36
119
28
98
34
211
140
294
5
161
196
295
121
237
151
257
226
172
150
103
67
263
278
84
61
285
139
208
70
283
24
81
209
204
48
68
146
122
289
252
107
113
303
29
236
231
202
287
274
299
198
109
245
57
165
60
104
124
277
89
292
77
301
293
35
58
148
175
88
135
149
234
99
138
298
225
215
74
56
230
190
261
279
152
218
55
102
221
72
169
219
91
50
65
162
199
171
52
167
111
269
177
201
193
49
136
75
262
223
66
78
38
267
23
44
164
8
311
217
291
194
228
83
310
297
110
155
271
308
185
156
53
276
94
176
305
244
273
168
19
71
216
45
62
128
4
182
27
300
304
284
147
235
200
239
170
306
54
197
268
288
51
220
64
282
183
134
188
159
214
255
195
10
137
296
15
227
17
181
229
205
93
92
265
101
127
286
179
21
108
275
247
2
14
174
302
166
233
180
222
160
39
120
203
189
290
144
130
312
186
143
309
37
249
253
258
212
85
33
241
112
129
3
90
114
40
26
266
154
251
43
313
7
87
30
12
184
191
96
115
192
141
142
259
63
118
116
307
158
117
272
20
16
22
280
95
76
31
250
100
6
242
157
79
41
32

> <PUBCHEM_MMFF94_PARTIAL_CHARGES>
39
1 1.51
10 -0.77
11 -0.7
12 -0.77
13 -0.57
14 -0.7
15 -0.57
16 -0.99
17 -0.47
18 -0.49
19 0.27
2 1.51
20 0.28
22 0.28
23 0.56
25 0.28
26 0.28
28 0.58
3 -0.56
30 0.28
31 -0.04
32 0.69
33 -0.12
34 0.62
35 0.14
4 -0.56
49 0.36
5 -0.68
50 0.36
56 0.4
57 0.4
58 0.15
59 0.37
6 -0.55
60 0.5
64 0.5
7 -0.68
8 -0.55
9 -0.54

> <PUBCHEM_EFFECTIVE_ROTOR_COUNT>
10.2

> <PUBCHEM_PHARMACOPHORE_FEATURES>
18
1 10 acceptor
1 11 acceptor
1 12 acceptor
1 13 acceptor
1 14 acceptor
1 15 acceptor
1 16 cation
1 16 donor
1 18 donor
1 3 acceptor
1 4 acceptor
1 5 acceptor
1 5 donor
1 7 acceptor
1 7 donor
5 4 25 26 27 28 rings
6 17 18 31 32 33 34 rings
6 3 19 20 21 22 23 rings

> <PUBCHEM_HEAVY_ATOM_COUNT>
35

> <PUBCHEM_ATOM_DEF_STEREO_COUNT>
7

> <PUBCHEM_ATOM_UDEF_STEREO_COUNT>
0

> <PUBCHEM_BOND_DEF_STEREO_COUNT>
0

> <PUBCHEM_BOND_UDEF_STEREO_COUNT>
0

> <PUBCHEM_ISOTOPIC_ATOM_COUNT>
0

> <PUBCHEM_COMPONENT_COUNT>
1

> <PUBCHEM_CACTVS_TAUTO_COUNT>
3

> <PUBCHEM_CONFORMER_ID>
00ECCEBE00000001

> <PUBCHEM_MMFF94_ENERGY>
37.409

> <PUBCHEM_FEATURE_SELFOVERLAP>
91.364

> <PUBCHEM_SHAPE_FINGERPRINT>
10366900 7 18341607174202426486
12156800 1 16666878118647091379
12422481 6 17690537716784396491
13402501 40 18412256216651786912
1361 2 18264501589712457445
140371 6 18272363188040848213
14725015 67 18342179972515890346
19930381 70 18410016537510091495
20764821 26 18266752272481055678
23559900 14 18202278143099288269
35225 105 17702964555529058962
392239 28 18410849941285480311
469060 322 18192165814547864495
508706 21 18339920549198635564
5309563 4 18339072693001006281
56638632 33 17693660728821765996

> <PUBCHEM_SHAPE_MULTIPOLES>
636.74
8.94
6.59
1.98
1.06
0.29
0.57
1.2
0.86
1.72
-0.03
-0.81
-0.67
2.67

> <PUBCHEM_SHAPE_SELFOVERLAP>
1291.836

> <PUBCHEM_SHAPE_VOLUME>
373.3

> <PUBCHEM_COORDINATE_TYPE>
2
5
10

$$$$

