5281317
  -OEChem-07051212563D

 88 91  0     1  0  0  0  0  0999 V2000
   -1.9546    0.4070   -2.5714 O   0  0  0  0  0  0  0  0  0  0  0  0
    2.4838    1.7245    2.7523 O   0  0  0  0  0  0  0  0  0  0  0  0
   -2.2796    3.2190    0.0932 O   0  0  0  0  0  0  0  0  0  0  0  0
    3.6559    3.4622    0.5732 O   0  0  0  0  0  0  0  0  0  0  0  0
    5.6096   -4.0609    1.0841 O   0  0  0  0  0  0  0  0  0  0  0  0
   -4.5395    2.1817   -0.7275 O   0  0  0  0  0  0  0  0  0  0  0  0
   -7.0088   -1.9750    0.0575 O   0  0  0  0  0  0  0  0  0  0  0  0
   -6.0091   -1.1328    1.9622 O   0  0  0  0  0  0  0  0  0  0  0  0
    1.0290    0.8920   -1.0705 C   0  0  2  0  0  0  0  0  0  0  0  0
    0.1788    1.5229    0.0913 C   0  0  1  0  0  0  0  0  0  0  0  0
    2.5032    1.3889   -0.9388 C   0  0  1  0  0  0  0  0  0  0  0  0
    3.1539    1.1295    0.4784 C   0  0  2  0  0  0  0  0  0  0  0  0
   -1.2526    1.1258   -0.3440 C   0  0  2  0  0  0  0  0  0  0  0  0
    0.2508    1.4113   -2.3073 C   0  0  0  0  0  0  0  0  0  0  0  0
    0.6658    0.9550    1.4211 C   0  0  0  0  0  0  0  0  0  0  0  0
   -1.2361    1.4116   -1.8695 C   0  0  1  0  0  0  0  0  0  0  0  0
    3.7368   -0.3273    0.6263 C   0  0  1  0  0  0  0  0  0  0  0  0
    2.1278    1.3338    1.6363 C   0  0  0  0  0  0  0  0  0  0  0  0
    3.4352    0.9469   -2.0832 C   0  0  0  0  0  0  0  0  0  0  0  0
    0.9552   -0.6639   -1.1641 C   0  0  0  0  0  0  0  0  0  0  0  0
    0.2604    3.0833    0.1960 C   0  0  0  0  0  0  0  0  0  0  0  0
   -2.4114    1.8233    0.3631 C   0  0  1  0  0  0  0  0  0  0  0  0
    4.3495   -0.9141   -0.6435 C   0  0  0  0  0  0  0  0  0  0  0  0
    4.2688    2.1990    0.6556 C   0  0  0  0  0  0  0  0  0  0  0  0
    4.7664   -0.4604    1.7715 C   0  0  0  0  0  0  0  0  0  0  0  0
    4.2156   -0.3010   -1.8334 C   0  0  0  0  0  0  0  0  0  0  0  0
    5.1219   -2.2440   -0.5012 C   0  0  0  0  0  0  0  0  0  0  0  0
    5.1595   -1.9105    2.0544 C   0  0  0  0  0  0  0  0  0  0  0  0
    4.8527   -2.8648    0.8992 C   0  0  2  0  0  0  0  0  0  0  0  0
   -2.3485    1.6249    1.8759 C   0  0  0  0  0  0  0  0  0  0  0  0
   -3.7615    1.3775   -0.2146 C   0  0  0  0  0  0  0  0  0  0  0  0
    4.6618   -3.2711   -1.5666 C   0  0  0  0  0  0  0  0  0  0  0  0
    6.6332   -1.9937   -0.7065 C   0  0  0  0  0  0  0  0  0  0  0  0
   -4.1018   -0.0763   -0.1341 C   0  0  0  0  0  0  0  0  0  0  0  0
   -5.2633   -0.5357   -0.6221 C   0  0  0  0  0  0  0  0  0  0  0  0
   -5.7431   -1.9714   -0.6138 C   0  0  0  0  0  0  0  0  0  0  0  0
   -4.8317   -2.9648    0.1158 C   0  0  0  0  0  0  0  0  0  0  0  0
   -5.9721   -2.4375   -2.0557 C   0  0  0  0  0  0  0  0  0  0  0  0
   -6.9888   -1.5276    1.3446 C   0  0  0  0  0  0  0  0  0  0  0  0
   -8.3731   -1.5870    1.9158 C   0  0  0  0  0  0  0  0  0  0  0  0
    2.4297    2.4704   -1.1013 H   0  0  0  0  0  0  0  0  0  0  0  0
   -1.3766    0.0489   -0.1809 H   0  0  0  0  0  0  0  0  0  0  0  0
    0.4197    0.8015   -3.2019 H   0  0  0  0  0  0  0  0  0  0  0  0
    0.5620    2.4342   -2.5499 H   0  0  0  0  0  0  0  0  0  0  0  0
    0.1277    1.3683    2.2747 H   0  0  0  0  0  0  0  0  0  0  0  0
    0.5682   -0.1315    1.4884 H   0  0  0  0  0  0  0  0  0  0  0  0
   -1.6661    2.3732   -2.1616 H   0  0  0  0  0  0  0  0  0  0  0  0
    2.9044   -0.9813    0.9094 H   0  0  0  0  0  0  0  0  0  0  0  0
    2.8644    0.8275   -3.0109 H   0  0  0  0  0  0  0  0  0  0  0  0
    4.1596    1.7463   -2.2870 H   0  0  0  0  0  0  0  0  0  0  0  0
   -0.0502   -1.0340   -1.3858 H   0  0  0  0  0  0  0  0  0  0  0  0
    1.5746   -1.0403   -1.9839 H   0  0  0  0  0  0  0  0  0  0  0  0
    1.2620   -1.1713   -0.2527 H   0  0  0  0  0  0  0  0  0  0  0  0
   -0.2520    3.4702    1.0818 H   0  0  0  0  0  0  0  0  0  0  0  0
   -0.0996    3.6017   -0.6973 H   0  0  0  0  0  0  0  0  0  0  0  0
    1.2815    3.4370    0.3298 H   0  0  0  0  0  0  0  0  0  0  0  0
    4.7514    2.1428    1.6357 H   0  0  0  0  0  0  0  0  0  0  0  0
    5.0444    2.1213   -0.1123 H   0  0  0  0  0  0  0  0  0  0  0  0
    5.6812    0.0903    1.5178 H   0  0  0  0  0  0  0  0  0  0  0  0
    4.3877   -0.0212    2.7005 H   0  0  0  0  0  0  0  0  0  0  0  0
    4.6935   -0.7215   -2.7140 H   0  0  0  0  0  0  0  0  0  0  0  0
    6.2212   -1.9571    2.3289 H   0  0  0  0  0  0  0  0  0  0  0  0
    4.6251   -2.2667    2.9450 H   0  0  0  0  0  0  0  0  0  0  0  0
    3.7955   -3.1574    0.9592 H   0  0  0  0  0  0  0  0  0  0  0  0
   -2.9006    0.6165   -2.5071 H   0  0  0  0  0  0  0  0  0  0  0  0
   -3.3362    1.8213    2.3139 H   0  0  0  0  0  0  0  0  0  0  0  0
   -1.6843    2.3356    2.3729 H   0  0  0  0  0  0  0  0  0  0  0  0
   -2.0916    0.5976    2.1529 H   0  0  0  0  0  0  0  0  0  0  0  0
    5.1536   -4.2407   -1.4277 H   0  0  0  0  0  0  0  0  0  0  0  0
    4.8979   -2.9466   -2.5858 H   0  0  0  0  0  0  0  0  0  0  0  0
    3.5795   -3.4370   -1.5119 H   0  0  0  0  0  0  0  0  0  0  0  0
    7.2111   -2.9179   -0.5949 H   0  0  0  0  0  0  0  0  0  0  0  0
    7.0296   -1.2670    0.0102 H   0  0  0  0  0  0  0  0  0  0  0  0
    6.8427   -1.6053   -1.7101 H   0  0  0  0  0  0  0  0  0  0  0  0
   -2.6462    3.4152   -0.7844 H   0  0  0  0  0  0  0  0  0  0  0  0
    4.3540    4.1312    0.6752 H   0  0  0  0  0  0  0  0  0  0  0  0
    5.3835   -4.4189    1.9596 H   0  0  0  0  0  0  0  0  0  0  0  0
   -3.3847   -0.7334    0.3405 H   0  0  0  0  0  0  0  0  0  0  0  0
   -5.9527    0.1696   -1.0852 H   0  0  0  0  0  0  0  0  0  0  0  0
   -3.9085   -3.1342   -0.4515 H   0  0  0  0  0  0  0  0  0  0  0  0
   -4.5289   -2.6650    1.1222 H   0  0  0  0  0  0  0  0  0  0  0  0
   -5.3348   -3.9334    0.2261 H   0  0  0  0  0  0  0  0  0  0  0  0
   -6.6961   -1.7940   -2.5698 H   0  0  0  0  0  0  0  0  0  0  0  0
   -5.0418   -2.4426   -2.6341 H   0  0  0  0  0  0  0  0  0  0  0  0
   -6.3967   -3.4481   -2.0731 H   0  0  0  0  0  0  0  0  0  0  0  0
   -8.7315   -2.6194    1.9123 H   0  0  0  0  0  0  0  0  0  0  0  0
   -9.0410   -0.9448    1.3363 H   0  0  0  0  0  0  0  0  0  0  0  0
   -8.3546   -1.2283    2.9489 H   0  0  0  0  0  0  0  0  0  0  0  0
  1 16  1  0  0  0  0
  1 65  1  0  0  0  0
  2 18  2  0  0  0  0
  3 22  1  0  0  0  0
  3 75  1  0  0  0  0
  4 24  1  0  0  0  0
  4 76  1  0  0  0  0
  5 29  1  0  0  0  0
  5 77  1  0  0  0  0
  6 31  2  0  0  0  0
  7 36  1  0  0  0  0
  7 39  1  0  0  0  0
  8 39  2  0  0  0  0
  9 10  1  0  0  0  0
  9 11  1  0  0  0  0
  9 14  1  0  0  0  0
  9 20  1  0  0  0  0
 10 13  1  0  0  0  0
 10 15  1  0  0  0  0
 10 21  1  0  0  0  0
 11 12  1  0  0  0  0
 11 19  1  0  0  0  0
 11 41  1  0  0  0  0
 12 17  1  0  0  0  0
 12 18  1  0  0  0  0
 12 24  1  0  0  0  0
 13 16  1  0  0  0  0
 13 22  1  0  0  0  0
 13 42  1  0  0  0  0
 14 16  1  0  0  0  0
 14 43  1  0  0  0  0
 14 44  1  0  0  0  0
 15 18  1  0  0  0  0
 15 45  1  0  0  0  0
 15 46  1  0  0  0  0
 16 47  1  0  0  0  0
 17 23  1  0  0  0  0
 17 25  1  0  0  0  0
 17 48  1  0  0  0  0
 19 26  1  0  0  0  0
 19 49  1  0  0  0  0
 19 50  1  0  0  0  0
 20 51  1  0  0  0  0
 20 52  1  0  0  0  0
 20 53  1  0  0  0  0
 21 54  1  0  0  0  0
 21 55  1  0  0  0  0
 21 56  1  0  0  0  0
 22 30  1  0  0  0  0
 22 31  1  0  0  0  0
 23 26  2  0  0  0  0
 23 27  1  0  0  0  0
 24 57  1  0  0  0  0
 24 58  1  0  0  0  0
 25 28  1  0  0  0  0
 25 59  1  0  0  0  0
 25 60  1  0  0  0  0
 26 61  1  0  0  0  0
 27 29  1  0  0  0  0
 27 32  1  0  0  0  0
 27 33  1  0  0  0  0
 28 29  1  0  0  0  0
 28 62  1  0  0  0  0
 28 63  1  0  0  0  0
 29 64  1  0  0  0  0
 30 66  1  0  0  0  0
 30 67  1  0  0  0  0
 30 68  1  0  0  0  0
 31 34  1  0  0  0  0
 32 69  1  0  0  0  0
 32 70  1  0  0  0  0
 32 71  1  0  0  0  0
 33 72  1  0  0  0  0
 33 73  1  0  0  0  0
 33 74  1  0  0  0  0
 34 35  2  0  0  0  0
 34 78  1  0  0  0  0
 35 36  1  0  0  0  0
 35 79  1  0  0  0  0
 36 37  1  0  0  0  0
 36 38  1  0  0  0  0
 37 80  1  0  0  0  0
 37 81  1  0  0  0  0
 37 82  1  0  0  0  0
 38 83  1  0  0  0  0
 38 84  1  0  0  0  0
 38 85  1  0  0  0  0
 39 40  1  0  0  0  0
 40 86  1  0  0  0  0
 40 87  1  0  0  0  0
 40 88  1  0  0  0  0
M  END
> <PUBCHEM_COMPOUND_CID>
5281317

> <PUBCHEM_CONFORMER_RMSD>
1

> <PUBCHEM_CONFORMER_DIVERSEORDER>
1
17
26
21
19
12
23
11
13
5
18
15
27
24
20
25
22
10
9
2
14
6
7
8
4
3
16

> <PUBCHEM_MMFF94_PARTIAL_CHARGES>
33
1 -0.68
12 0.06
15 0.06
16 0.28
17 0.14
18 0.45
19 0.14
2 -0.57
22 0.34
23 -0.28
24 0.28
26 -0.29
27 0.14
29 0.28
3 -0.68
31 0.49
34 -0.14
35 -0.29
36 0.42
39 0.66
4 -0.68
40 0.06
5 -0.68
6 -0.57
61 0.15
65 0.4
7 -0.43
75 0.4
76 0.4
77 0.4
78 0.15
79 0.15
8 -0.57

> <PUBCHEM_EFFECTIVE_ROTOR_COUNT>
8.8

> <PUBCHEM_PHARMACOPHORE_FEATURES>
17
1 1 acceptor
1 1 donor
1 2 acceptor
1 3 acceptor
1 3 donor
1 4 acceptor
1 4 donor
1 5 acceptor
1 5 donor
1 6 acceptor
1 8 acceptor
3 27 32 33 hydrophobe
3 36 37 38 hydrophobe
5 9 10 13 14 16 rings
6 11 12 17 19 23 26 rings
6 17 23 25 27 28 29 rings
6 9 10 11 12 15 18 rings

> <PUBCHEM_HEAVY_ATOM_COUNT>
40

> <PUBCHEM_ATOM_DEF_STEREO_COUNT>
9

> <PUBCHEM_ATOM_UDEF_STEREO_COUNT>
0

> <PUBCHEM_BOND_DEF_STEREO_COUNT>
1

> <PUBCHEM_BOND_UDEF_STEREO_COUNT>
0

> <PUBCHEM_ISOTOPIC_ATOM_COUNT>
0

> <PUBCHEM_COMPONENT_COUNT>
1

> <PUBCHEM_CACTVS_TAUTO_COUNT>
2

> <PUBCHEM_CONFORMER_ID>
0050962500000001

> <PUBCHEM_MMFF94_ENERGY>
169.2348

> <PUBCHEM_FEATURE_SELFOVERLAP>
86.387

> <PUBCHEM_SHAPE_FINGERPRINT>
10169797 241 18335696118488492066
10319926 262 17749664203338003849
10554248 39 12535080749106324601
10556698 54 13469862347004133991
10622 236 18201722898312265119
11093857 51 15410906175364867336
117089 54 17973153213254675974
11763715 3 18270943713775681197
11796584 16 18194403518494687924
11963148 33 18118978987492272751
12047536 79 17167859794226541473
12422481 6 16515398573681989981
12623949 98 18411699885511929276
12633257 1 15936699181039071709
1361 4 18199182898188886643
13782708 43 18413110576120959679
14211702 104 18413111675358449891
14347332 77 18413107281954799181
14950920 106 17458344122413638587
15001296 14 18129665175726213331
15082195 135 12535347891518406423
15475509 35 18335138700378867818
15684393 108 17774711005188882647
15840311 113 6194570961535526457
16096371 109 6049907134384954653
16989378 47 17918272056172608759
19315092 285 18407760352466401216
19958102 18 17989216927848842483
20691028 202 9943542833808495559
20775438 99 17346312636365454586
21033648 29 4967612789073526301
21421861 104 18114753633721862870
21599406 157 16415478229768157523
23559900 14 18337399338850600453
23569914 152 14186242739251525650
23569914 2 8356568029736818059
2748736 6 9511467706264658707
3472631 163 8862942762446865057
3610482 184 14117250524388239319
392239 28 17967253083645956447
4144715 1 18263368164686218424
4258327 124 8214139647785750939
439807 62 18271800238118503275
474113 269 18187660089792508415
50009960 94 18127437711440158442
5104073 3 17967248711063619177
513202 73 18409733972044185069
513532 50 15339123407873395686
6201460 15 17554903439170802026
8863177 126 18333455343618212662

> <PUBCHEM_SHAPE_MULTIPOLES>
776.23
18.39
4.08
2.35
24.79
1.3
0.02
20.07
4.93
-2.18
0.42
-0.19
0.11
0.4

> <PUBCHEM_SHAPE_SELFOVERLAP>
1649.216

> <PUBCHEM_SHAPE_VOLUME>
427.6

> <PUBCHEM_COORDINATE_TYPE>
2
5
10

$$$$

