65359
  -OEChem-07051212442D

 72 71  0     1  0  0  0  0  0999 V2000
    7.7331    2.4050    0.0000 S   0  0  0  0  0  0  0  0  0  0  0  0
    7.7331    1.4050    0.0000 S   0  0  0  0  0  0  0  0  0  0  0  0
    6.8671    2.9050    0.0000 O   0  0  0  0  0  0  0  0  0  0  0  0
    6.8671   -2.0950    0.0000 O   0  0  0  0  0  0  0  0  0  0  0  0
    9.4651    5.4050    0.0000 O   0  0  0  0  0  0  0  0  0  0  0  0
    6.0010   -1.5950    0.0000 O   0  0  0  0  0  0  0  0  0  0  0  0
    2.5369    4.4050    0.0000 O   0  0  0  0  0  0  0  0  0  0  0  0
   10.3312   -5.0950    0.0000 O   0  0  0  0  0  0  0  0  0  0  0  0
    3.4030    2.9050    0.0000 O   0  0  0  0  0  0  0  0  0  0  0  0
    8.5991   -5.0950    0.0000 O   0  0  0  0  0  0  0  0  0  0  0  0
   12.9292    4.4050    0.0000 O   0  0  0  0  0  0  0  0  0  0  0  0
    2.5369   -0.5950    0.0000 O   0  0  0  0  0  0  0  0  0  0  0  0
   12.0632    2.9050    0.0000 O   0  0  0  0  0  0  0  0  0  0  0  0
    3.4030    0.9050    0.0000 O   0  0  0  0  0  0  0  0  0  0  0  0
    7.7331    4.4050    0.0000 N   0  0  0  0  0  0  0  0  0  0  0  0
    7.7331   -0.5950    0.0000 N   0  0  0  0  0  0  0  0  0  0  0  0
   10.3312    3.9050    0.0000 N   0  0  0  0  0  0  0  0  0  0  0  0
    5.1350   -0.0950    0.0000 N   0  0  0  0  0  0  0  0  0  0  0  0
    4.2690    5.4050    0.0000 N   0  0  0  0  0  0  0  0  0  0  0  0
   10.3312   -3.0950    0.0000 N   0  0  0  0  0  0  0  0  0  0  0  0
    8.5991    3.9050    0.0000 C   0  0  1  0  0  0  0  0  0  0  0  0
    6.8671   -0.0950    0.0000 C   0  0  1  0  0  0  0  0  0  0  0  0
    5.1350    3.9050    0.0000 C   0  0  0  0  0  0  0  0  0  0  0  0
    8.5991   -3.0950    0.0000 C   0  0  0  0  0  0  0  0  0  0  0  0
    6.0010    4.4050    0.0000 C   0  0  0  0  0  0  0  0  0  0  0  0
    8.5991   -2.0950    0.0000 C   0  0  0  0  0  0  0  0  0  0  0  0
    8.5991    2.9050    0.0000 C   0  0  0  0  0  0  0  0  0  0  0  0
    6.8671    0.9050    0.0000 C   0  0  0  0  0  0  0  0  0  0  0  0
    4.2690    4.4050    0.0000 C   0  0  1  0  0  0  0  0  0  0  0  0
    9.4651   -3.5950    0.0000 C   0  0  1  0  0  0  0  0  0  0  0  0
    6.8671    3.9050    0.0000 C   0  0  0  0  0  0  0  0  0  0  0  0
    7.7331   -1.5950    0.0000 C   0  0  0  0  0  0  0  0  0  0  0  0
    9.4651    4.4050    0.0000 C   0  0  0  0  0  0  0  0  0  0  0  0
    6.0010   -0.5950    0.0000 C   0  0  0  0  0  0  0  0  0  0  0  0
    3.4030    3.9050    0.0000 C   0  0  0  0  0  0  0  0  0  0  0  0
    9.4651   -4.5950    0.0000 C   0  0  0  0  0  0  0  0  0  0  0  0
   11.1972    4.4050    0.0000 C   0  0  0  0  0  0  0  0  0  0  0  0
    4.2690   -0.5950    0.0000 C   0  0  0  0  0  0  0  0  0  0  0  0
   12.0632    3.9050    0.0000 C   0  0  0  0  0  0  0  0  0  0  0  0
    3.4030   -0.0950    0.0000 C   0  0  0  0  0  0  0  0  0  0  0  0
    8.0622    3.5950    0.0000 H   0  0  0  0  0  0  0  0  0  0  0  0
    7.4040    0.2150    0.0000 H   0  0  0  0  0  0  0  0  0  0  0  0
    4.7365    3.4300    0.0000 H   0  0  0  0  0  0  0  0  0  0  0  0
    5.5335    3.4300    0.0000 H   0  0  0  0  0  0  0  0  0  0  0  0
    7.9885   -2.9873    0.0000 H   0  0  0  0  0  0  0  0  0  0  0  0
    8.3871   -3.6776    0.0000 H   0  0  0  0  0  0  0  0  0  0  0  0
    6.3996    4.8800    0.0000 H   0  0  0  0  0  0  0  0  0  0  0  0
    5.6025    4.8800    0.0000 H   0  0  0  0  0  0  0  0  0  0  0  0
    9.2097   -2.2027    0.0000 H   0  0  0  0  0  0  0  0  0  0  0  0
    8.8112   -1.5124    0.0000 H   0  0  0  0  0  0  0  0  0  0  0  0
    8.8112    2.3224    0.0000 H   0  0  0  0  0  0  0  0  0  0  0  0
    9.2097    3.0127    0.0000 H   0  0  0  0  0  0  0  0  0  0  0  0
    6.6550    1.4876    0.0000 H   0  0  0  0  0  0  0  0  0  0  0  0
    6.2565    0.7973    0.0000 H   0  0  0  0  0  0  0  0  0  0  0  0
    4.8059    4.7150    0.0000 H   0  0  0  0  0  0  0  0  0  0  0  0
   10.0021   -3.9050    0.0000 H   0  0  0  0  0  0  0  0  0  0  0  0
    7.7331    5.0250    0.0000 H   0  0  0  0  0  0  0  0  0  0  0  0
    8.2700   -0.2850    0.0000 H   0  0  0  0  0  0  0  0  0  0  0  0
   10.3312    3.2850    0.0000 H   0  0  0  0  0  0  0  0  0  0  0  0
    5.1350    0.5250    0.0000 H   0  0  0  0  0  0  0  0  0  0  0  0
    3.7320    5.7150    0.0000 H   0  0  0  0  0  0  0  0  0  0  0  0
    4.8059    5.7150    0.0000 H   0  0  0  0  0  0  0  0  0  0  0  0
   10.8681   -3.4050    0.0000 H   0  0  0  0  0  0  0  0  0  0  0  0
   10.3312   -2.4750    0.0000 H   0  0  0  0  0  0  0  0  0  0  0  0
   11.5957    4.8800    0.0000 H   0  0  0  0  0  0  0  0  0  0  0  0
   10.7987    4.8800    0.0000 H   0  0  0  0  0  0  0  0  0  0  0  0
    3.8705   -1.0700    0.0000 H   0  0  0  0  0  0  0  0  0  0  0  0
    4.6675   -1.0700    0.0000 H   0  0  0  0  0  0  0  0  0  0  0  0
    2.0000    4.0950    0.0000 H   0  0  0  0  0  0  0  0  0  0  0  0
   10.3312   -5.7150    0.0000 H   0  0  0  0  0  0  0  0  0  0  0  0
   13.4662    4.0950    0.0000 H   0  0  0  0  0  0  0  0  0  0  0  0
    2.0000   -0.2850    0.0000 H   0  0  0  0  0  0  0  0  0  0  0  0
  1  2  1  0  0  0  0
  1 27  1  0  0  0  0
  2 28  1  0  0  0  0
  3 31  2  0  0  0  0
  4 32  2  0  0  0  0
  5 33  2  0  0  0  0
  6 34  2  0  0  0  0
  7 35  1  0  0  0  0
  7 69  1  0  0  0  0
  8 36  1  0  0  0  0
  8 70  1  0  0  0  0
  9 35  2  0  0  0  0
 10 36  2  0  0  0  0
 11 39  1  0  0  0  0
 11 71  1  0  0  0  0
 12 40  1  0  0  0  0
 12 72  1  0  0  0  0
 13 39  2  0  0  0  0
 14 40  2  0  0  0  0
 21 15  1  6  0  0  0
 15 31  1  0  0  0  0
 15 57  1  0  0  0  0
 22 16  1  6  0  0  0
 16 32  1  0  0  0  0
 16 58  1  0  0  0  0
 17 33  1  0  0  0  0
 17 37  1  0  0  0  0
 17 59  1  0  0  0  0
 18 34  1  0  0  0  0
 18 38  1  0  0  0  0
 18 60  1  0  0  0  0
 29 19  1  1  0  0  0
 19 61  1  0  0  0  0
 19 62  1  0  0  0  0
 30 20  1  6  0  0  0
 20 63  1  0  0  0  0
 20 64  1  0  0  0  0
 21 27  1  0  0  0  0
 21 33  1  0  0  0  0
 21 41  1  0  0  0  0
 22 28  1  0  0  0  0
 22 34  1  0  0  0  0
 22 42  1  0  0  0  0
 23 25  1  0  0  0  0
 23 29  1  0  0  0  0
 23 43  1  0  0  0  0
 23 44  1  0  0  0  0
 24 26  1  0  0  0  0
 24 30  1  0  0  0  0
 24 45  1  0  0  0  0
 24 46  1  0  0  0  0
 25 31  1  0  0  0  0
 25 47  1  0  0  0  0
 25 48  1  0  0  0  0
 26 32  1  0  0  0  0
 26 49  1  0  0  0  0
 26 50  1  0  0  0  0
 27 51  1  0  0  0  0
 27 52  1  0  0  0  0
 28 53  1  0  0  0  0
 28 54  1  0  0  0  0
 29 35  1  0  0  0  0
 29 55  1  0  0  0  0
 30 36  1  0  0  0  0
 30 56  1  0  0  0  0
 37 39  1  0  0  0  0
 37 65  1  0  0  0  0
 37 66  1  0  0  0  0
 38 40  1  0  0  0  0
 38 67  1  0  0  0  0
 38 68  1  0  0  0  0
M  END
> <PUBCHEM_COMPOUND_CID>
65359

> <PUBCHEM_COMPOUND_CANONICALIZED>
1

> <PUBCHEM_CACTVS_COMPLEXITY>
879

> <PUBCHEM_CACTVS_HBOND_ACCEPTOR>
16

> <PUBCHEM_CACTVS_HBOND_DONOR>
10

> <PUBCHEM_CACTVS_ROTATABLE_BOND>
21

> <PUBCHEM_CACTVS_SUBSKEYS>
AAADcfB7vABgAAAAAAAAAAAAAAAAAAAAAAAAAAAAAAAAAAAAAAAAHgQQCAAACCjFwASACALAAgAIAAGQGAAAAAAAAAAAAIGIAAACQBIAgCAUQAAEFgCQAACcFwIAAAAAAAAAAAAAAAAAAAAAAAAAAAAAAA==

> <PUBCHEM_IUPAC_OPENEYE_NAME>
(2S)-2-amino-5-[[(1R)-1-[[[(2R)-2-[[(4S)-4-amino-4-carboxy-butanoyl]amino]-3-(carboxymethylamino)-3-oxo-propyl]disulfanyl]methyl]-2-(carboxymethylamino)-2-oxo-ethyl]amino]-5-oxo-pentanoic acid

> <PUBCHEM_IUPAC_CAS_NAME>
(2S)-2-amino-5-[[(2R)-3-[[(2R)-2-[[(4S)-4-amino-4-carboxy-1-oxobutyl]amino]-3-(carboxymethylamino)-3-oxopropyl]disulfanyl]-1-(carboxymethylamino)-1-oxopropan-2-yl]amino]-5-oxopentanoic acid

> <PUBCHEM_IUPAC_NAME>
(2S)-2-amino-5-[[(2R)-3-[[(2R)-2-[[(4S)-4-amino-4-carboxybutanoyl]amino]-3-(carboxymethylamino)-3-oxopropyl]disulfanyl]-1-(carboxymethylamino)-1-oxopropan-2-yl]amino]-5-oxopentanoic acid

> <PUBCHEM_IUPAC_SYSTEMATIC_NAME>
(2S)-2-azanyl-5-[[(2R)-3-[[(2R)-2-[[(4S)-4-azanyl-5-oxidanyl-5-oxidanylidene-pentanoyl]amino]-3-(2-hydroxy-2-oxoethylamino)-3-oxidanylidene-propyl]disulfanyl]-1-(2-hydroxy-2-oxoethylamino)-1-oxidanylidene-propan-2-yl]amino]-5-oxidanylidene-pentanoic acid

> <PUBCHEM_IUPAC_TRADITIONAL_NAME>
(2S)-2-amino-5-[[(1R)-1-[[[(2R)-2-[[(4S)-4-amino-4-carboxy-butanoyl]amino]-3-(carboxymethylamino)-3-keto-propyl]disulfanyl]methyl]-2-(carboxymethylamino)-2-keto-ethyl]amino]-5-keto-valeric acid

> <PUBCHEM_IUPAC_INCHI>
InChI=1S/C20H32N6O12S2/c21-9(19(35)36)1-3-13(27)25-11(17(33)23-5-15(29)30)7-39-40-8-12(18(34)24-6-16(31)32)26-14(28)4-2-10(22)20(37)38/h9-12H,1-8,21-22H2,(H,23,33)(H,24,34)(H,25,27)(H,26,28)(H,29,30)(H,31,32)(H,35,36)(H,37,38)/t9-,10-,11-,12-/m0/s1

> <PUBCHEM_IUPAC_INCHIKEY>
YPZRWBKMTBYPTK-BJDJZHNGSA-N

> <PUBCHEM_XLOGP3_AA>
-9.1

> <PUBCHEM_EXACT_MASS>
612.151962

> <PUBCHEM_MOLECULAR_FORMULA>
C20H32N6O12S2

> <PUBCHEM_MOLECULAR_WEIGHT>
612.63108

> <PUBCHEM_OPENEYE_CAN_SMILES>
C(CC(=O)NC(CSSCC(C(=O)NCC(=O)O)NC(=O)CCC(C(=O)O)N)C(=O)NCC(=O)O)C(C(=O)O)N

> <PUBCHEM_OPENEYE_ISO_SMILES>
C(CC(=O)N[C@@H](CSSC[C@@H](C(=O)NCC(=O)O)NC(=O)CC[C@@H](C(=O)O)N)C(=O)NCC(=O)O)[C@@H](C(=O)O)N

> <PUBCHEM_CACTVS_TPSA>
368

> <PUBCHEM_MONOISOTOPIC_WEIGHT>
612.151962

> <PUBCHEM_TOTAL_CHARGE>
0

> <PUBCHEM_HEAVY_ATOM_COUNT>
40

> <PUBCHEM_ATOM_DEF_STEREO_COUNT>
4

> <PUBCHEM_ATOM_UDEF_STEREO_COUNT>
0

> <PUBCHEM_BOND_DEF_STEREO_COUNT>
0

> <PUBCHEM_BOND_UDEF_STEREO_COUNT>
0

> <PUBCHEM_ISOTOPIC_ATOM_COUNT>
0

> <PUBCHEM_COMPONENT_COUNT>
1

> <PUBCHEM_CACTVS_TAUTO_COUNT>
10

> <PUBCHEM_COORDINATE_TYPE>
1
5
255

> <PUBCHEM_BONDANNOTATIONS>
21  15  6
22  16  6
29  19  5
30  20  6

$$$$

