5281219
  -OEChem-07051212553D

 57 58  0     0  0  0  0  0  0999 V2000
    4.3655    1.1151    1.0006 O   0  0  0  0  0  0  0  0  0  0  0  0
   -3.2219   -2.5873    0.9051 O   0  0  0  0  0  0  0  0  0  0  0  0
   -4.0999   -1.2672   -2.1028 O   0  0  0  0  0  0  0  0  0  0  0  0
   -7.7969    1.4196   -0.7557 O   0  0  0  0  0  0  0  0  0  0  0  0
    1.9839    1.3067    1.0054 C   0  0  0  0  0  0  0  0  0  0  0  0
    3.0215   -0.8587    0.9171 C   0  0  0  0  0  0  0  0  0  0  0  0
    3.1332    0.5304    0.9748 C   0  0  0  0  0  0  0  0  0  0  0  0
    2.0841    2.8104    1.0679 C   0  0  0  0  0  0  0  0  0  0  0  0
    4.2393   -1.7223    0.8833 C   0  0  0  0  0  0  0  0  0  0  0  0
    0.6133   -0.6654    0.9218 C   0  0  0  0  0  0  0  0  0  0  0  0
    0.7249    0.7237    0.9796 C   0  0  0  0  0  0  0  0  0  0  0  0
    1.7616   -1.4566    0.8906 C   0  0  0  0  0  0  0  0  0  0  0  0
    2.1239    3.4381   -0.2970 C   0  0  0  0  0  0  0  0  0  0  0  0
    4.7199   -2.0045   -0.5185 C   0  0  0  0  0  0  0  0  0  0  0  0
   -0.7003   -1.2891    0.8946 C   0  0  0  0  0  0  0  0  0  0  0  0
    3.1034    4.1907   -0.8333 C   0  0  0  0  0  0  0  0  0  0  0  0
    4.8221   -3.1963   -1.1371 C   0  0  0  0  0  0  0  0  0  0  0  0
   -1.8494   -0.6707    0.5408 C   0  0  0  0  0  0  0  0  0  0  0  0
    4.3448    4.5030   -0.0404 C   0  0  0  0  0  0  0  0  0  0  0  0
    3.0811    4.7912   -2.2103 C   0  0  0  0  0  0  0  0  0  0  0  0
    5.3114   -3.4055   -2.5421 C   0  0  0  0  0  0  0  0  0  0  0  0
    4.4416   -4.4631   -0.4176 C   0  0  0  0  0  0  0  0  0  0  0  0
   -3.1417   -1.4110    0.5694 C   0  0  0  0  0  0  0  0  0  0  0  0
   -4.3700   -0.6657    0.2029 C   0  0  0  0  0  0  0  0  0  0  0  0
   -4.7890   -0.6323   -1.1132 C   0  0  0  0  0  0  0  0  0  0  0  0
   -5.0666   -0.0207    1.2077 C   0  0  0  0  0  0  0  0  0  0  0  0
   -5.9481    0.0726   -1.4375 C   0  0  0  0  0  0  0  0  0  0  0  0
   -6.2255    0.6842    0.8832 C   0  0  0  0  0  0  0  0  0  0  0  0
   -6.6664    0.7309   -0.4393 C   0  0  0  0  0  0  0  0  0  0  0  0
    1.1874    3.2000    1.5712 H   0  0  0  0  0  0  0  0  0  0  0  0
    2.8892    3.1076    1.7429 H   0  0  0  0  0  0  0  0  0  0  0  0
    5.0605   -1.2353    1.4256 H   0  0  0  0  0  0  0  0  0  0  0  0
    4.0559   -2.6313    1.4644 H   0  0  0  0  0  0  0  0  0  0  0  0
   -0.1494    1.3668    1.0230 H   0  0  0  0  0  0  0  0  0  0  0  0
    1.6794   -2.5406    0.8431 H   0  0  0  0  0  0  0  0  0  0  0  0
    1.2423    3.2580   -0.9119 H   0  0  0  0  0  0  0  0  0  0  0  0
    5.0243   -1.1233   -1.0830 H   0  0  0  0  0  0  0  0  0  0  0  0
   -0.7248   -2.3368    1.1863 H   0  0  0  0  0  0  0  0  0  0  0  0
    4.3095    2.0531    0.7724 H   0  0  0  0  0  0  0  0  0  0  0  0
   -1.8917    0.3635    0.2191 H   0  0  0  0  0  0  0  0  0  0  0  0
    4.2590    4.3614    1.0369 H   0  0  0  0  0  0  0  0  0  0  0  0
    5.1829    3.9002   -0.4054 H   0  0  0  0  0  0  0  0  0  0  0  0
    4.6116    5.5579   -0.1756 H   0  0  0  0  0  0  0  0  0  0  0  0
    3.9353    4.4352   -2.7951 H   0  0  0  0  0  0  0  0  0  0  0  0
    3.1248    5.8835   -2.1534 H   0  0  0  0  0  0  0  0  0  0  0  0
    2.1689    4.5208   -2.7523 H   0  0  0  0  0  0  0  0  0  0  0  0
    5.6038   -2.4603   -3.0111 H   0  0  0  0  0  0  0  0  0  0  0  0
    6.1846   -4.0658   -2.5475 H   0  0  0  0  0  0  0  0  0  0  0  0
    4.5264   -3.8554   -3.1584 H   0  0  0  0  0  0  0  0  0  0  0  0
    3.6858   -4.3232    0.3581 H   0  0  0  0  0  0  0  0  0  0  0  0
    4.0072   -5.1808   -1.1232 H   0  0  0  0  0  0  0  0  0  0  0  0
    5.3287   -4.9255    0.0271 H   0  0  0  0  0  0  0  0  0  0  0  0
   -4.7299   -0.0533    2.2398 H   0  0  0  0  0  0  0  0  0  0  0  0
   -6.2863    0.1058   -2.4703 H   0  0  0  0  0  0  0  0  0  0  0  0
   -6.7808    1.1949    1.6652 H   0  0  0  0  0  0  0  0  0  0  0  0
   -3.3362   -1.7405   -1.7354 H   0  0  0  0  0  0  0  0  0  0  0  0
   -7.9533    1.3463   -1.7128 H   0  0  0  0  0  0  0  0  0  0  0  0
  1  7  1  0  0  0  0
  1 39  1  0  0  0  0
  2 23  2  0  0  0  0
  3 25  1  0  0  0  0
  3 56  1  0  0  0  0
  4 29  1  0  0  0  0
  4 57  1  0  0  0  0
  5  7  2  0  0  0  0
  5  8  1  0  0  0  0
  5 11  1  0  0  0  0
  6  7  1  0  0  0  0
  6  9  1  0  0  0  0
  6 12  2  0  0  0  0
  8 13  1  0  0  0  0
  8 30  1  0  0  0  0
  8 31  1  0  0  0  0
  9 14  1  0  0  0  0
  9 32  1  0  0  0  0
  9 33  1  0  0  0  0
 10 11  2  0  0  0  0
 10 12  1  0  0  0  0
 10 15  1  0  0  0  0
 11 34  1  0  0  0  0
 12 35  1  0  0  0  0
 13 16  2  0  0  0  0
 13 36  1  0  0  0  0
 14 17  2  0  0  0  0
 14 37  1  0  0  0  0
 15 18  2  0  0  0  0
 15 38  1  0  0  0  0
 16 19  1  0  0  0  0
 16 20  1  0  0  0  0
 17 21  1  0  0  0  0
 17 22  1  0  0  0  0
 18 23  1  0  0  0  0
 18 40  1  0  0  0  0
 19 41  1  0  0  0  0
 19 42  1  0  0  0  0
 19 43  1  0  0  0  0
 20 44  1  0  0  0  0
 20 45  1  0  0  0  0
 20 46  1  0  0  0  0
 21 47  1  0  0  0  0
 21 48  1  0  0  0  0
 21 49  1  0  0  0  0
 22 50  1  0  0  0  0
 22 51  1  0  0  0  0
 22 52  1  0  0  0  0
 23 24  1  0  0  0  0
 24 25  2  0  0  0  0
 24 26  1  0  0  0  0
 25 27  1  0  0  0  0
 26 28  2  0  0  0  0
 26 53  1  0  0  0  0
 27 29  2  0  0  0  0
 27 54  1  0  0  0  0
 28 29  1  0  0  0  0
 28 55  1  0  0  0  0
M  END
> <PUBCHEM_COMPOUND_CID>
5281219

> <PUBCHEM_CONFORMER_RMSD>
1

> <PUBCHEM_CONFORMER_DIVERSEORDER>
3
49
129
126
82
110
53
38
17
179
117
154
141
175
123
76
86
145
147
131
51
105
139
168
111
124
119
176
151
69
35
171
19
130
84
100
54
12
68
167
43
101
166
52
170
162
174
159
94
109
116
56
155
108
143
29
41
40
137
150
152
102
115
39
88
173
83
157
172
156
61
46
149
112
75
59
10
165
22
58
99
161
50
67
79
180
80
13
81
107
118
87
37
128
47
16
134
48
104
148
65
164
160
66
178
25
169
135
158
64
114
132
121
62
63
136
98
45
70
15
133
44
163
127
120
144
9
89
96
18
42
177
93
24
103
6
122
55
106
57
125
138
77
73
36
146
72
33
142
97
153
7
34
8
11
78
20
31
23
27
95
91
28
26
1
92
14
113
74
5
60
85
140
30
90
4
2
21
71
32

> <PUBCHEM_MMFF94_PARTIAL_CHARGES>
41
1 -0.53
10 0.03
11 -0.15
12 -0.15
13 -0.29
14 -0.29
15 -0.18
16 -0.28
17 -0.28
18 -0.14
19 0.14
2 -0.57
20 0.14
21 0.14
22 0.14
23 0.47
24 0.09
25 0.08
26 -0.15
27 -0.15
28 -0.15
29 0.08
3 -0.53
34 0.15
35 0.15
36 0.15
37 0.15
38 0.15
39 0.45
4 -0.53
40 0.15
5 -0.14
53 0.15
54 0.15
55 0.15
56 0.45
57 0.45
6 -0.14
7 0.08
8 0.28
9 0.28

> <PUBCHEM_EFFECTIVE_ROTOR_COUNT>
7

> <PUBCHEM_PHARMACOPHORE_FEATURES>
8
1 1 donor
1 2 acceptor
1 3 donor
1 4 donor
3 16 19 20 hydrophobe
3 17 21 22 hydrophobe
6 24 25 26 27 28 29 rings
6 5 6 7 10 11 12 rings

> <PUBCHEM_HEAVY_ATOM_COUNT>
29

> <PUBCHEM_ATOM_DEF_STEREO_COUNT>
0

> <PUBCHEM_ATOM_UDEF_STEREO_COUNT>
0

> <PUBCHEM_BOND_DEF_STEREO_COUNT>
1

> <PUBCHEM_BOND_UDEF_STEREO_COUNT>
0

> <PUBCHEM_ISOTOPIC_ATOM_COUNT>
0

> <PUBCHEM_COMPONENT_COUNT>
1

> <PUBCHEM_CACTVS_TAUTO_COUNT>
57

> <PUBCHEM_CONFORMER_ID>
005095C300000003

> <PUBCHEM_MMFF94_ENERGY>
78.3953

> <PUBCHEM_FEATURE_SELFOVERLAP>
40.594

> <PUBCHEM_SHAPE_FINGERPRINT>
10721379 63 18337095792769879776
10763959 59 18411704330877082725
10815517 723 17900528275141881273
11297750 10 18046921639422443730
11331351 85 17969506089939211888
11386260 185 18411709798413045453
11513181 2 18267306439152621055
11720765 8 18411697729702136148
12173638 129 12599727476276270990
12422481 6 16771291097127355652
12977781 61 14564761746190552464
13540713 4 18057873667575538027
14508225 48 18266166405152010722
14790565 3 17481420478599401917
15183329 4 17749674081805197031
15198563 99 18051681437742918500
15475509 8 18191581063398159331
15840311 113 18342177778969821917
16628084 112 17547280559478121099
16988056 13 18342175574970974028
19309040 13 18265891350835202461
19377110 9 11743842452158199675
21033648 29 16988302918998810349
21365058 113 18341039830676900620
21583282 1 18187077331396839182
23559900 14 18335143076634226771
24771750 20 18196073478930957446
25223398 141 16270268031004895414
3004659 81 17458350787612889078
3103668 31 17838620311457749076
376196 1 17839465488544910144
4144715 1 18200303322085936131
44317340 157 18261396586350698195
46194498 28 18341058444832909741
5081480 168 18273497883407015508
5372103 7 17416096458138483062
54076057 255 16415188009920813607
633830 44 18200043849994723427

> <PUBCHEM_SHAPE_MULTIPOLES>
573.33
17.17
5.96
1.8
30.18
5.38
1.04
-3.44
6.22
-15.58
3.46
-0.76
-0.15
1.3

> <PUBCHEM_SHAPE_SELFOVERLAP>
1205.781

> <PUBCHEM_SHAPE_VOLUME>
324.2

> <PUBCHEM_COORDINATE_TYPE>
2
5
10

$$$$

