97045
  -OEChem-07051212523D

 20 20  0     0  0  0  0  0  0999 V2000
    0.9385   -1.5563    0.7490 O   0  0  0  0  0  0  0  0  0  0  0  0
    3.8444    1.2647   -0.3484 O   0  0  0  0  0  0  0  0  0  0  0  0
    3.2778   -0.9362   -0.4068 O   0  0  0  0  0  0  0  0  0  0  0  0
   -0.8489   -0.1441    0.1620 C   0  0  0  0  0  0  0  0  0  0  0  0
    0.5588   -0.4204    0.3997 C   0  0  0  0  0  0  0  0  0  0  0  0
    1.6012    0.6888    0.2118 C   0  0  0  0  0  0  0  0  0  0  0  0
   -1.3546    1.1376    0.3797 C   0  0  0  0  0  0  0  0  0  0  0  0
   -1.6936   -1.1607   -0.2841 C   0  0  0  0  0  0  0  0  0  0  0  0
   -2.7049    1.4028    0.1515 C   0  0  0  0  0  0  0  0  0  0  0  0
   -3.0440   -0.8954   -0.5124 C   0  0  0  0  0  0  0  0  0  0  0  0
   -3.5495    0.3864   -0.2946 C   0  0  0  0  0  0  0  0  0  0  0  0
    2.9747    0.2328   -0.2075 C   0  0  0  0  0  0  0  0  0  0  0  0
    1.2503    1.3745   -0.5674 H   0  0  0  0  0  0  0  0  0  0  0  0
    1.6918    1.2198    1.1653 H   0  0  0  0  0  0  0  0  0  0  0  0
   -0.7237    1.9450    0.7406 H   0  0  0  0  0  0  0  0  0  0  0  0
   -1.3174   -2.1645   -0.4636 H   0  0  0  0  0  0  0  0  0  0  0  0
   -3.0996    2.3998    0.3242 H   0  0  0  0  0  0  0  0  0  0  0  0
   -3.7017   -1.6864   -0.8606 H   0  0  0  0  0  0  0  0  0  0  0  0
   -4.6009    0.5927   -0.4718 H   0  0  0  0  0  0  0  0  0  0  0  0
    4.7345    0.9580   -0.6245 H   0  0  0  0  0  0  0  0  0  0  0  0
  1  5  2  0  0  0  0
  2 12  1  0  0  0  0
  2 20  1  0  0  0  0
  3 12  2  0  0  0  0
  4  5  1  0  0  0  0
  4  7  2  0  0  0  0
  4  8  1  0  0  0  0
  5  6  1  0  0  0  0
  6 12  1  0  0  0  0
  6 13  1  0  0  0  0
  6 14  1  0  0  0  0
  7  9  1  0  0  0  0
  7 15  1  0  0  0  0
  8 10  2  0  0  0  0
  8 16  1  0  0  0  0
  9 11  2  0  0  0  0
  9 17  1  0  0  0  0
 10 11  1  0  0  0  0
 10 18  1  0  0  0  0
 11 19  1  0  0  0  0
M  END
> <PUBCHEM_COMPOUND_CID>
97045

> <PUBCHEM_CONFORMER_RMSD>
0.6

> <PUBCHEM_CONFORMER_DIVERSEORDER>
2
15
11
8
18
5
9
14
17
4
13
1
3
12
10
7
16
6

> <PUBCHEM_MMFF94_PARTIAL_CHARGES>
18
1 -0.57
10 -0.15
11 -0.15
12 0.66
15 0.15
16 0.15
17 0.15
18 0.15
19 0.15
2 -0.65
20 0.5
3 -0.57
4 0.09
5 0.42
6 0.12
7 -0.15
8 -0.15
9 -0.15

> <PUBCHEM_EFFECTIVE_ROTOR_COUNT>
3

> <PUBCHEM_PHARMACOPHORE_FEATURES>
6
1 1 acceptor
1 2 acceptor
1 3 acceptor
1 6 anion
3 2 3 12 anion
6 4 7 8 9 10 11 rings

> <PUBCHEM_HEAVY_ATOM_COUNT>
12

> <PUBCHEM_ATOM_DEF_STEREO_COUNT>
0

> <PUBCHEM_ATOM_UDEF_STEREO_COUNT>
0

> <PUBCHEM_BOND_DEF_STEREO_COUNT>
0

> <PUBCHEM_BOND_UDEF_STEREO_COUNT>
0

> <PUBCHEM_ISOTOPIC_ATOM_COUNT>
0

> <PUBCHEM_COMPONENT_COUNT>
1

> <PUBCHEM_CACTVS_TAUTO_COUNT>
3

> <PUBCHEM_CONFORMER_ID>
00017B1500000002

> <PUBCHEM_MMFF94_ENERGY>
26.651

> <PUBCHEM_FEATURE_SELFOVERLAP>
30.775

> <PUBCHEM_SHAPE_FINGERPRINT>
12346645 44 18343303669104405594
12897270 3 18408609145188193155
12932764 1 17774728661429495219
13024252 1 17917711288779394195
14144814 61 18412265059804787577
14325111 11 18410573989641681712
15669948 3 18260840271431100767
15775835 57 18413105086746677421
16945 1 18337405872006774699
18186145 218 18273213114554177230
20281407 28 14345792755588201932
20361792 2 4678817242148483032
20645464 45 13110968643045525569
20653085 51 18340195362575497272
20871999 31 18262532381662159711
23402539 116 18337963307317295916
23402655 69 18408887368700938404
23552423 10 18196098956824559155
23559900 14 18186523203184806776
2748010 2 17760946043089814227
369184 2 11959731568798609365
528716 315 18335980887519956927
7364860 26 18264775543864238410
8030462 33 18337125530817183411
93112 12 18334855030557525582

> <PUBCHEM_SHAPE_MULTIPOLES>
229.35
6.4
1.47
0.72
3.03
0
-0.02
-1.05
1.39
-0.21
-0.06
0
0.06
-0.34

> <PUBCHEM_SHAPE_SELFOVERLAP>
476.779

> <PUBCHEM_SHAPE_VOLUME>
129.7

> <PUBCHEM_COORDINATE_TYPE>
2
5
10

$$$$

