8356
  -OEChem-06261202462D

 28 29  0     0  0  0  0  0  0999 V2000
    4.5981   -1.4050    0.0000 S   0  0  0  0  0  0  0  0  0  0  0  0
    2.8660    1.5950    0.0000 S   0  0  0  0  0  0  0  0  0  0  0  0
    4.5981   -2.4050    0.0000 O   0  0  0  0  0  0  0  0  0  0  0  0
    2.0000    2.0950    0.0000 O   0  0  0  0  0  0  0  0  0  0  0  0
    3.5981   -1.4050    0.0000 O   0  0  0  0  0  0  0  0  0  0  0  0
    5.5981   -1.4050    0.0000 O   0  0  0  0  0  0  0  0  0  0  0  0
    3.3660    2.4610    0.0000 O   0  0  0  0  0  0  0  0  0  0  0  0
    2.3660    0.7290    0.0000 O   0  0  0  0  0  0  0  0  0  0  0  0
    8.1282    1.6192    0.0000 N   0  0  0  0  0  0  0  0  0  0  0  0
    5.4641    0.0950    0.0000 C   0  0  0  0  0  0  0  0  0  0  0  0
    5.4641    1.0950    0.0000 C   0  0  0  0  0  0  0  0  0  0  0  0
    4.5981   -0.4050    0.0000 C   0  0  0  0  0  0  0  0  0  0  0  0
    3.7320    1.0950    0.0000 C   0  0  0  0  0  0  0  0  0  0  0  0
    4.5981    1.5950    0.0000 C   0  0  0  0  0  0  0  0  0  0  0  0
    3.7320    0.0950    0.0000 C   0  0  0  0  0  0  0  0  0  0  0  0
    6.3580   -0.4397    0.0000 C   0  0  0  0  0  0  0  0  0  0  0  0
    6.3580    1.6297    0.0000 C   0  0  0  0  0  0  0  0  0  0  0  0
    7.2641    1.1158    0.0000 C   0  0  0  0  0  0  0  0  0  0  0  0
    7.2641    0.0742    0.0000 C   0  0  0  0  0  0  0  0  0  0  0  0
    4.5981    2.2150    0.0000 H   0  0  0  0  0  0  0  0  0  0  0  0
    3.1951   -0.2150    0.0000 H   0  0  0  0  0  0  0  0  0  0  0  0
    6.3509   -1.0596    0.0000 H   0  0  0  0  0  0  0  0  0  0  0  0
    6.3509    2.2496    0.0000 H   0  0  0  0  0  0  0  0  0  0  0  0
    7.7998   -0.2379    0.0000 H   0  0  0  0  0  0  0  0  0  0  0  0
    8.6663    1.3112    0.0000 H   0  0  0  0  0  0  0  0  0  0  0  0
    8.1258    2.2392    0.0000 H   0  0  0  0  0  0  0  0  0  0  0  0
    4.0611   -2.7150    0.0000 H   0  0  0  0  0  0  0  0  0  0  0  0
    2.0000    2.7150    0.0000 H   0  0  0  0  0  0  0  0  0  0  0  0
  1  3  1  0  0  0  0
  1  5  2  0  0  0  0
  1  6  2  0  0  0  0
  1 12  1  0  0  0  0
  2  4  1  0  0  0  0
  2  7  2  0  0  0  0
  2  8  2  0  0  0  0
  2 13  1  0  0  0  0
  3 27  1  0  0  0  0
  4 28  1  0  0  0  0
  9 18  1  0  0  0  0
  9 25  1  0  0  0  0
  9 26  1  0  0  0  0
 10 11  1  0  0  0  0
 10 12  2  0  0  0  0
 10 16  1  0  0  0  0
 11 14  2  0  0  0  0
 11 17  1  0  0  0  0
 12 15  1  0  0  0  0
 13 14  1  0  0  0  0
 13 15  2  0  0  0  0
 14 20  1  0  0  0  0
 15 21  1  0  0  0  0
 16 19  2  0  0  0  0
 16 22  1  0  0  0  0
 17 18  2  0  0  0  0
 17 23  1  0  0  0  0
 18 19  1  0  0  0  0
 19 24  1  0  0  0  0
M  END
> <PUBCHEM_COMPOUND_CID>
8356

> <PUBCHEM_COMPOUND_CANONICALIZED>
1

> <PUBCHEM_CACTVS_COMPLEXITY>
531

> <PUBCHEM_CACTVS_HBOND_ACCEPTOR>
7

> <PUBCHEM_CACTVS_HBOND_DONOR>
3

> <PUBCHEM_CACTVS_ROTATABLE_BOND>
2

> <PUBCHEM_CACTVS_SUBSKEYS>
AAADccByOABgAAAAAAAAAAAAAAAAAAAAAAAwYAAAAAAAAADBUAAAHAQQCAAADAiBWAAwwcBAAIKAAiRCQHDCAEAgAgAIiBgAZIgIICKAkZGAIABgkAAIyAcQgIAOmAAAwEAUAAAwAAGAgCgAAAAAAAAAAA==

> <PUBCHEM_IUPAC_OPENEYE_NAME>
6-aminonaphthalene-1,3-disulfonic acid

> <PUBCHEM_IUPAC_CAS_NAME>
6-aminonaphthalene-1,3-disulfonic acid

> <PUBCHEM_IUPAC_NAME>
6-aminonaphthalene-1,3-disulfonic acid

> <PUBCHEM_IUPAC_SYSTEMATIC_NAME>
6-azanylnaphthalene-1,3-disulfonic acid

> <PUBCHEM_IUPAC_TRADITIONAL_NAME>
6-aminonaphthalene-1,3-disulfonic acid

> <PUBCHEM_IUPAC_INCHI>
InChI=1S/C10H9NO6S2/c11-7-1-2-9-6(3-7)4-8(18(12,13)14)5-10(9)19(15,16)17/h1-5H,11H2,(H,12,13,14)(H,15,16,17)

> <PUBCHEM_IUPAC_INCHIKEY>
KZCSUEYBKAPKNH-UHFFFAOYSA-N

> <PUBCHEM_XLOGP3_AA>
0

> <PUBCHEM_EXACT_MASS>
302.987129

> <PUBCHEM_MOLECULAR_FORMULA>
C10H9NO6S2

> <PUBCHEM_MOLECULAR_WEIGHT>
303.31156

> <PUBCHEM_OPENEYE_CAN_SMILES>
C1=CC2=C(C=C(C=C2C=C1N)S(=O)(=O)O)S(=O)(=O)O

> <PUBCHEM_OPENEYE_ISO_SMILES>
C1=CC2=C(C=C(C=C2C=C1N)S(=O)(=O)O)S(=O)(=O)O

> <PUBCHEM_CACTVS_TPSA>
152

> <PUBCHEM_MONOISOTOPIC_WEIGHT>
302.987129

> <PUBCHEM_TOTAL_CHARGE>
0

> <PUBCHEM_HEAVY_ATOM_COUNT>
19

> <PUBCHEM_ATOM_DEF_STEREO_COUNT>
0

> <PUBCHEM_ATOM_UDEF_STEREO_COUNT>
0

> <PUBCHEM_BOND_DEF_STEREO_COUNT>
0

> <PUBCHEM_BOND_UDEF_STEREO_COUNT>
0

> <PUBCHEM_ISOTOPIC_ATOM_COUNT>
0

> <PUBCHEM_COMPONENT_COUNT>
1

> <PUBCHEM_CACTVS_TAUTO_COUNT>
1

> <PUBCHEM_COORDINATE_TYPE>
1
5
255

> <PUBCHEM_BONDANNOTATIONS>
10  11  8
10  12  8
10  16  8
11  14  8
11  17  8
12  15  8
13  14  8
13  15  8
16  19  8
17  18  8
18  19  8

$$$$

