1388
  -OEChem-07051212493D

 28 29  0     1  0  0  0  0  0999 V2000
   -3.1689    0.1174   -0.3025 N   0  0  1  0  0  0  0  0  0  0  0  0
   -2.5436    1.0206    0.6681 C   0  0  0  0  0  0  0  0  0  0  0  0
   -1.0698    1.2449    0.2971 C   0  0  0  0  0  0  0  0  0  0  0  0
   -0.3330   -0.0415    0.0004 C   0  0  0  0  0  0  0  0  0  0  0  0
   -2.5327   -1.2082   -0.2636 C   0  0  0  0  0  0  0  0  0  0  0  0
   -1.0280   -1.1662   -0.2542 C   0  0  0  0  0  0  0  0  0  0  0  0
    1.1493   -0.0178   -0.0059 C   0  0  0  0  0  0  0  0  0  0  0  0
   -4.6075    0.0080   -0.0698 C   0  0  0  0  0  0  0  0  0  0  0  0
    1.8705   -1.1620    0.3434 C   0  0  0  0  0  0  0  0  0  0  0  0
    1.8307    1.1484   -0.3620 C   0  0  0  0  0  0  0  0  0  0  0  0
    3.2652   -1.1400    0.3369 C   0  0  0  0  0  0  0  0  0  0  0  0
    3.2253    1.1704   -0.3686 C   0  0  0  0  0  0  0  0  0  0  0  0
    3.9426    0.0261   -0.0191 C   0  0  0  0  0  0  0  0  0  0  0  0
   -2.6202    0.6176    1.6871 H   0  0  0  0  0  0  0  0  0  0  0  0
   -3.0482    1.9946    0.6656 H   0  0  0  0  0  0  0  0  0  0  0  0
   -0.5906    1.7757    1.1291 H   0  0  0  0  0  0  0  0  0  0  0  0
   -1.0225    1.8969   -0.5849 H   0  0  0  0  0  0  0  0  0  0  0  0
   -2.8501   -1.7715   -1.1494 H   0  0  0  0  0  0  0  0  0  0  0  0
   -2.8558   -1.7757    0.6191 H   0  0  0  0  0  0  0  0  0  0  0  0
   -0.5361   -2.1080   -0.4786 H   0  0  0  0  0  0  0  0  0  0  0  0
   -4.8376   -0.3905    0.9249 H   0  0  0  0  0  0  0  0  0  0  0  0
   -5.0695   -0.6448   -0.8188 H   0  0  0  0  0  0  0  0  0  0  0  0
   -5.0878    0.9878   -0.1674 H   0  0  0  0  0  0  0  0  0  0  0  0
    1.3816   -2.0828    0.6496 H   0  0  0  0  0  0  0  0  0  0  0  0
    1.3051    2.0544   -0.6504 H   0  0  0  0  0  0  0  0  0  0  0  0
    3.8243   -2.0290    0.6141 H   0  0  0  0  0  0  0  0  0  0  0  0
    3.7533    2.0775   -0.6479 H   0  0  0  0  0  0  0  0  0  0  0  0
    5.0285    0.0435   -0.0235 H   0  0  0  0  0  0  0  0  0  0  0  0
  1  2  1  0  0  0  0
  1  5  1  0  0  0  0
  1  8  1  0  0  0  0
  2  3  1  0  0  0  0
  2 14  1  0  0  0  0
  2 15  1  0  0  0  0
  3  4  1  0  0  0  0
  3 16  1  0  0  0  0
  3 17  1  0  0  0  0
  4  6  2  0  0  0  0
  4  7  1  0  0  0  0
  5  6  1  0  0  0  0
  5 18  1  0  0  0  0
  5 19  1  0  0  0  0
  6 20  1  0  0  0  0
  7  9  2  0  0  0  0
  7 10  1  0  0  0  0
  8 21  1  0  0  0  0
  8 22  1  0  0  0  0
  8 23  1  0  0  0  0
  9 11  1  0  0  0  0
  9 24  1  0  0  0  0
 10 12  2  0  0  0  0
 10 25  1  0  0  0  0
 11 13  2  0  0  0  0
 11 26  1  0  0  0  0
 12 13  1  0  0  0  0
 12 27  1  0  0  0  0
 13 28  1  0  0  0  0
M  END
> <PUBCHEM_COMPOUND_CID>
1388

> <PUBCHEM_CONFORMER_RMSD>
0.6

> <PUBCHEM_CONFORMER_DIVERSEORDER>
1
2

> <PUBCHEM_MMFF94_PARTIAL_CHARGES>
19
1 -0.81
10 -0.15
11 -0.15
12 -0.15
13 -0.15
2 0.27
20 0.15
24 0.15
25 0.15
26 0.15
27 0.15
28 0.15
3 0.14
4 -0.17
5 0.41
6 -0.29
7 0.03
8 0.27
9 -0.15

> <PUBCHEM_EFFECTIVE_ROTOR_COUNT>
1.8

> <PUBCHEM_PHARMACOPHORE_FEATURES>
3
1 1 cation
6 1 2 3 4 5 6 rings
6 7 9 10 11 12 13 rings

> <PUBCHEM_HEAVY_ATOM_COUNT>
13

> <PUBCHEM_ATOM_DEF_STEREO_COUNT>
0

> <PUBCHEM_ATOM_UDEF_STEREO_COUNT>
0

> <PUBCHEM_BOND_DEF_STEREO_COUNT>
0

> <PUBCHEM_BOND_UDEF_STEREO_COUNT>
0

> <PUBCHEM_ISOTOPIC_ATOM_COUNT>
0

> <PUBCHEM_COMPONENT_COUNT>
1

> <PUBCHEM_CACTVS_TAUTO_COUNT>
1

> <PUBCHEM_CONFORMER_ID>
0000056C00000001

> <PUBCHEM_MMFF94_ENERGY>
31.9278

> <PUBCHEM_FEATURE_SELFOVERLAP>
15.223

> <PUBCHEM_SHAPE_FINGERPRINT>
10130415 120 18408325488241476281
11132069 177 18335145284215280616
11471102 20 18343304764584829686
12162725 195 18408320007799967840
12251169 10 18410292523075479630
12932764 1 16988574497569192802
13380535 76 18409445890595948294
13581323 91 17894916251676074750
13690532 89 18411983597765895083
13760787 5 18409450280690295709
14144814 61 18410009957335318464
14251717 144 18343022207260743946
14325111 11 18410291423574524784
14897335 6 18411139108627336586
14993402 34 18410572894229836092
15442244 35 18194119844441935138
15536298 74 18407477761003693888
15669948 3 18113623335088260903
15775835 57 18411132528563534716
16945 1 18337946882787258418
17802600 8 18410299120208939600
18186145 218 17846224344896340862
18522853 276 18334860519520662968
19026448 4 17203890764836423401
19422 9 18409445894858968282
200 152 18335426768024551415
20279233 1 16271923817953687424
20510252 161 17895190064679361545
20528008 55 18409170995582526897
20559304 39 18408604786070694384
20645477 70 18343024431748224934
21119208 17 18411699885074124604
21267235 1 18410565202075524426
2255824 54 18131630084946660674
23048698 100 18343863324754672344
23402539 116 17968105235164134333
23402655 69 18412547630014236444
23463225 33 18410856594200117990
23559900 14 18186524276668161408
2748010 2 4720193449739785254
3312278 4 18339077086388754659
474 4 17916580913290419180
5104073 3 18411419492429186427
537710 114 18335699429791992473
69090 78 18408608058667189703
7364860 26 18333732416696270576
9709674 26 18408598158493740182

> <PUBCHEM_SHAPE_MULTIPOLES>
262.55
7.57
1.45
0.71
2.22
0.02
0.02
-0.04
-0.17
-0.29
0.03
0.02
-0.03
-0.57

> <PUBCHEM_SHAPE_SELFOVERLAP>
549.228

> <PUBCHEM_SHAPE_VOLUME>
148.7

> <PUBCHEM_COORDINATE_TYPE>
2
5
10

$$$$

