105131
  -OEChem-07051213063D

  7  6  0     0  0  0  0  0  0999 V2000
   -1.9917    0.4143    0.0626 Br  0  0  0  0  0  0  0  0  0  0  0  0
    1.7282    0.2544    0.2574 O   0  0  0  0  0  0  0  0  0  0  0  0
   -0.4443   -0.7455    0.0813 C   0  0  0  0  0  0  0  0  0  0  0  0
    0.7078    0.0768   -0.4013 C   0  0  0  0  0  0  0  0  0  0  0  0
   -0.6258   -1.5837   -0.5930 H   0  0  0  0  0  0  0  0  0  0  0  0
   -0.2863   -1.0878    1.1055 H   0  0  0  0  0  0  0  0  0  0  0  0
    0.6188    0.4931   -1.4200 H   0  0  0  0  0  0  0  0  0  0  0  0
  1  3  1  0  0  0  0
  2  4  2  0  0  0  0
  3  4  1  0  0  0  0
  3  5  1  0  0  0  0
  3  6  1  0  0  0  0
  4  7  1  0  0  0  0
M  END
> <PUBCHEM_COMPOUND_CID>
105131

> <PUBCHEM_CONFORMER_RMSD>
0.4

> <PUBCHEM_CONFORMER_DIVERSEORDER>
2
3
1

> <PUBCHEM_MMFF94_PARTIAL_CHARGES>
5
1 -0.23
2 -0.57
3 0.29
4 0.45
7 0.06

> <PUBCHEM_EFFECTIVE_ROTOR_COUNT>
1

> <PUBCHEM_PHARMACOPHORE_FEATURES>
2
1 1 hydrophobe
1 2 acceptor

> <PUBCHEM_HEAVY_ATOM_COUNT>
4

> <PUBCHEM_ATOM_DEF_STEREO_COUNT>
0

> <PUBCHEM_ATOM_UDEF_STEREO_COUNT>
0

> <PUBCHEM_BOND_DEF_STEREO_COUNT>
0

> <PUBCHEM_BOND_UDEF_STEREO_COUNT>
0

> <PUBCHEM_ISOTOPIC_ATOM_COUNT>
0

> <PUBCHEM_COMPONENT_COUNT>
1

> <PUBCHEM_CACTVS_TAUTO_COUNT>
2

> <PUBCHEM_CONFORMER_ID>
00019AAB00000002

> <PUBCHEM_MMFF94_ENERGY>
2.461

> <PUBCHEM_FEATURE_SELFOVERLAP>
10.148

> <PUBCHEM_SHAPE_FINGERPRINT>
139733 1 18409445903643880247
20096714 4 18409727361366972617
21015797 1 9005327323309905479
5460574 1 8862944974376108501

> <PUBCHEM_SHAPE_MULTIPOLES>
82.39
2.55
0.83
0.68
0.43
0.08
-0.02
-0.57
0.18
0.14
0.01
0.04
-0.01
0.02

> <PUBCHEM_SHAPE_SELFOVERLAP>
127.453

> <PUBCHEM_SHAPE_VOLUME>
60.5

> <PUBCHEM_COORDINATE_TYPE>
2
5
10

$$$$

