3081958
  -OEChem-07051213103D

 74 77  0     1  0  0  0  0  0999 V2000
   -0.7240   -0.7098    1.6020 O   0  0  0  0  0  0  0  0  0  0  0  0
    1.7865   -1.3422   -2.1994 O   0  0  0  0  0  0  0  0  0  0  0  0
    6.8393   -2.2810    0.5095 O   0  0  0  0  0  0  0  0  0  0  0  0
   -0.8457    1.2537    0.1542 C   0  0  1  0  0  0  0  0  0  0  0  0
   -0.1121    0.5289   -0.9992 C   0  0  2  0  0  0  0  0  0  0  0  0
    1.4111    0.7253   -0.9610 C   0  0  1  0  0  0  0  0  0  0  0  0
    1.9548    0.1740    0.3971 C   0  0  1  0  0  0  0  0  0  0  0  0
   -2.3075    0.9128   -0.2410 C   0  0  2  0  0  0  0  0  0  0  0  0
   -0.3516    0.6641    1.4911 C   0  0  2  0  0  0  0  0  0  0  0  0
   -0.8725    0.9722   -2.2473 C   0  0  0  0  0  0  0  0  0  0  0  0
    3.5240    0.3008    0.5224 C   0  0  2  0  0  0  0  0  0  0  0  0
    1.1831    0.7687    1.6127 C   0  0  0  0  0  0  0  0  0  0  0  0
   -2.3304    1.1117   -1.7741 C   0  0  0  0  0  0  0  0  0  0  0  0
    2.1125    0.0454   -2.1503 C   0  0  1  0  0  0  0  0  0  0  0  0
   -3.4012    1.6932    0.4743 C   0  0  1  0  0  0  0  0  0  0  0  0
   -0.6243    2.7901    0.1651 C   0  0  0  0  0  0  0  0  0  0  0  0
    4.1903   -0.2530   -0.7433 C   0  0  0  0  0  0  0  0  0  0  0  0
    3.6279    0.2106   -2.0694 C   0  0  0  0  0  0  0  0  0  0  0  0
    3.9809   -0.5176    1.7659 C   0  0  0  0  0  0  0  0  0  0  0  0
    3.9752    1.7690    0.6975 C   0  0  0  0  0  0  0  0  0  0  0  0
   -4.8195    1.2739    0.0341 C   0  0  0  0  0  0  0  0  0  0  0  0
   -3.2693    1.5119    1.9917 C   0  0  0  0  0  0  0  0  0  0  0  0
    5.4753   -0.7956    1.7992 C   0  0  0  0  0  0  0  0  0  0  0  0
    5.2407   -1.0911   -0.7337 C   0  0  0  0  0  0  0  0  0  0  0  0
    5.9091   -1.4774    0.5294 C   0  0  0  0  0  0  0  0  0  0  0  0
   -5.1683   -0.2098    0.2122 C   0  0  0  0  0  0  0  0  0  0  0  0
   -6.5605   -0.5773   -0.3110 C   0  0  0  0  0  0  0  0  0  0  0  0
   -6.9375   -2.0516   -0.0674 C   0  0  0  0  0  0  0  0  0  0  0  0
   -6.8780   -2.4363    1.4118 C   0  0  0  0  0  0  0  0  0  0  0  0
   -6.0083   -2.9634   -0.8731 C   0  0  0  0  0  0  0  0  0  0  0  0
   -0.2975   -0.5531   -0.9044 H   0  0  0  0  0  0  0  0  0  0  0  0
    1.6340    1.7956   -1.0304 H   0  0  0  0  0  0  0  0  0  0  0  0
    1.7260   -0.9025    0.4117 H   0  0  0  0  0  0  0  0  0  0  0  0
   -2.4559   -0.1588   -0.0570 H   0  0  0  0  0  0  0  0  0  0  0  0
   -0.7672    1.1809    2.3561 H   0  0  0  0  0  0  0  0  0  0  0  0
   -0.7877    0.2415   -3.0582 H   0  0  0  0  0  0  0  0  0  0  0  0
   -0.5002    1.9308   -2.6256 H   0  0  0  0  0  0  0  0  0  0  0  0
    1.4878    0.2381    2.5219 H   0  0  0  0  0  0  0  0  0  0  0  0
    1.4575    1.8185    1.7538 H   0  0  0  0  0  0  0  0  0  0  0  0
   -2.7168    2.0968   -2.0595 H   0  0  0  0  0  0  0  0  0  0  0  0
   -2.9678    0.3590   -2.2513 H   0  0  0  0  0  0  0  0  0  0  0  0
    1.7622    0.4862   -3.0901 H   0  0  0  0  0  0  0  0  0  0  0  0
   -3.3145    2.7644    0.2533 H   0  0  0  0  0  0  0  0  0  0  0  0
   -1.1086    3.2592    1.0271 H   0  0  0  0  0  0  0  0  0  0  0  0
    0.4324    3.0636    0.2239 H   0  0  0  0  0  0  0  0  0  0  0  0
   -1.0220    3.2773   -0.7307 H   0  0  0  0  0  0  0  0  0  0  0  0
    3.8891    1.2663   -2.2117 H   0  0  0  0  0  0  0  0  0  0  0  0
    4.0886   -0.3446   -2.8963 H   0  0  0  0  0  0  0  0  0  0  0  0
    3.4568   -1.4836    1.7801 H   0  0  0  0  0  0  0  0  0  0  0  0
    3.7052   -0.0015    2.6931 H   0  0  0  0  0  0  0  0  0  0  0  0
    3.6713    2.1718    1.6693 H   0  0  0  0  0  0  0  0  0  0  0  0
    5.0660    1.8640    0.6418 H   0  0  0  0  0  0  0  0  0  0  0  0
    3.5608    2.4252   -0.0741 H   0  0  0  0  0  0  0  0  0  0  0  0
   -5.5562    1.8770    0.5812 H   0  0  0  0  0  0  0  0  0  0  0  0
   -4.9538    1.5380   -1.0225 H   0  0  0  0  0  0  0  0  0  0  0  0
   -0.4068   -1.0330    2.4624 H   0  0  0  0  0  0  0  0  0  0  0  0
   -3.0629    0.4766    2.2779 H   0  0  0  0  0  0  0  0  0  0  0  0
   -4.2030    1.7978    2.4916 H   0  0  0  0  0  0  0  0  0  0  0  0
   -2.5149    2.1777    2.4142 H   0  0  0  0  0  0  0  0  0  0  0  0
    5.6985   -1.4576    2.6432 H   0  0  0  0  0  0  0  0  0  0  0  0
    6.0582    0.1224    1.9232 H   0  0  0  0  0  0  0  0  0  0  0  0
    5.6777   -1.4727   -1.6504 H   0  0  0  0  0  0  0  0  0  0  0  0
    2.2183   -1.7978   -1.4587 H   0  0  0  0  0  0  0  0  0  0  0  0
   -4.4317   -0.8189   -0.3167 H   0  0  0  0  0  0  0  0  0  0  0  0
   -5.0913   -0.4536    1.2758 H   0  0  0  0  0  0  0  0  0  0  0  0
   -6.6203   -0.3541   -1.3835 H   0  0  0  0  0  0  0  0  0  0  0  0
   -7.3050    0.0607    0.1819 H   0  0  0  0  0  0  0  0  0  0  0  0
   -7.9642   -2.1982   -0.4251 H   0  0  0  0  0  0  0  0  0  0  0  0
   -5.8537   -2.4648    1.7963 H   0  0  0  0  0  0  0  0  0  0  0  0
   -7.3052   -3.4345    1.5588 H   0  0  0  0  0  0  0  0  0  0  0  0
   -7.4574   -1.7348    2.0207 H   0  0  0  0  0  0  0  0  0  0  0  0
   -4.9833   -2.9614   -0.4894 H   0  0  0  0  0  0  0  0  0  0  0  0
   -6.3668   -3.9980   -0.8297 H   0  0  0  0  0  0  0  0  0  0  0  0
   -5.9833   -2.6682   -1.9273 H   0  0  0  0  0  0  0  0  0  0  0  0
  1  9  1  0  0  0  0
  1 56  1  0  0  0  0
  2 14  1  0  0  0  0
  2 63  1  0  0  0  0
  3 25  2  0  0  0  0
  4  5  1  0  0  0  0
  4  8  1  0  0  0  0
  4  9  1  0  0  0  0
  4 16  1  0  0  0  0
  5  6  1  0  0  0  0
  5 10  1  0  0  0  0
  5 31  1  0  0  0  0
  6  7  1  0  0  0  0
  6 14  1  0  0  0  0
  6 32  1  0  0  0  0
  7 11  1  0  0  0  0
  7 12  1  0  0  0  0
  7 33  1  0  0  0  0
  8 13  1  0  0  0  0
  8 15  1  0  0  0  0
  8 34  1  0  0  0  0
  9 12  1  0  0  0  0
  9 35  1  0  0  0  0
 10 13  1  0  0  0  0
 10 36  1  0  0  0  0
 10 37  1  0  0  0  0
 11 17  1  0  0  0  0
 11 19  1  0  0  0  0
 11 20  1  0  0  0  0
 12 38  1  0  0  0  0
 12 39  1  0  0  0  0
 13 40  1  0  0  0  0
 13 41  1  0  0  0  0
 14 18  1  0  0  0  0
 14 42  1  0  0  0  0
 15 21  1  0  0  0  0
 15 22  1  0  0  0  0
 15 43  1  0  0  0  0
 16 44  1  0  0  0  0
 16 45  1  0  0  0  0
 16 46  1  0  0  0  0
 17 18  1  0  0  0  0
 17 24  2  0  0  0  0
 18 47  1  0  0  0  0
 18 48  1  0  0  0  0
 19 23  1  0  0  0  0
 19 49  1  0  0  0  0
 19 50  1  0  0  0  0
 20 51  1  0  0  0  0
 20 52  1  0  0  0  0
 20 53  1  0  0  0  0
 21 26  1  0  0  0  0
 21 54  1  0  0  0  0
 21 55  1  0  0  0  0
 22 57  1  0  0  0  0
 22 58  1  0  0  0  0
 22 59  1  0  0  0  0
 23 25  1  0  0  0  0
 23 60  1  0  0  0  0
 23 61  1  0  0  0  0
 24 25  1  0  0  0  0
 24 62  1  0  0  0  0
 26 27  1  0  0  0  0
 26 64  1  0  0  0  0
 26 65  1  0  0  0  0
 27 28  1  0  0  0  0
 27 66  1  0  0  0  0
 27 67  1  0  0  0  0
 28 29  1  0  0  0  0
 28 30  1  0  0  0  0
 28 68  1  0  0  0  0
 29 69  1  0  0  0  0
 29 70  1  0  0  0  0
 29 71  1  0  0  0  0
 30 72  1  0  0  0  0
 30 73  1  0  0  0  0
 30 74  1  0  0  0  0
M  END
> <PUBCHEM_COMPOUND_CID>
3081958

> <PUBCHEM_CONFORMER_RMSD>
0.8

> <PUBCHEM_CONFORMER_DIVERSEORDER>
1
5
2
3
6
4

> <PUBCHEM_MMFF94_PARTIAL_CHARGES>
14
1 -0.68
11 0.14
14 0.28
17 -0.28
18 0.14
2 -0.68
23 0.06
24 -0.14
25 0.49
3 -0.57
56 0.4
62 0.15
63 0.4
9 0.28

> <PUBCHEM_EFFECTIVE_ROTOR_COUNT>
6.8

> <PUBCHEM_PHARMACOPHORE_FEATURES>
12
1 1 acceptor
1 1 donor
1 2 acceptor
1 2 donor
1 22 hydrophobe
1 3 acceptor
3 28 29 30 hydrophobe
5 15 21 26 27 28 hydrophobe
5 4 5 8 10 13 rings
6 11 17 19 23 24 25 rings
6 4 5 6 7 9 12 rings
6 6 7 11 14 17 18 rings

> <PUBCHEM_HEAVY_ATOM_COUNT>
30

> <PUBCHEM_ATOM_DEF_STEREO_COUNT>
9

> <PUBCHEM_ATOM_UDEF_STEREO_COUNT>
0

> <PUBCHEM_BOND_DEF_STEREO_COUNT>
0

> <PUBCHEM_BOND_UDEF_STEREO_COUNT>
0

> <PUBCHEM_ISOTOPIC_ATOM_COUNT>
0

> <PUBCHEM_COMPONENT_COUNT>
1

> <PUBCHEM_CACTVS_TAUTO_COUNT>
5

> <PUBCHEM_CONFORMER_ID>
002F06E600000001

> <PUBCHEM_MMFF94_ENERGY>
94.5827

> <PUBCHEM_FEATURE_SELFOVERLAP>
60.989

> <PUBCHEM_SHAPE_FINGERPRINT>
10 15 16950573176663514768
10693767 8 16630257986330702362
10763959 59 12463562980654191167
10906281 52 5328453847940293600
11578080 2 18057871477775511632
11646440 116 15791734113656382450
12011746 2 14405176309642836676
12035758 1 16660366978122035615
12166972 35 17917991672222982493
12236239 1 17989483052021502765
12422481 6 16298376947438603213
13140716 1 15865223211672594400
13782708 43 18410011052562879163
14068700 675 17775290490607910428
14251764 30 18408889537959765251
14765038 42 14201403750520242705
14931854 50 14404899254435393770
15183329 4 14261359067927849165
15188451 53 18409451375875340231
15238133 3 8286199418522856670
17349148 13 17774993643943084632
17913733 40 15430031067880868815
18222031 100 16630529544196302996
20028762 73 18131354124159956002
20775438 99 17200232530294294419
21267235 1 16153699964623692604
21279426 13 15051724279333468385
21521239 73 16774079544703833147
21623969 137 16950563281190837375
21637258 2 18413110554640764165
21781051 124 17530955879097222622
22122407 14 7492707246976331823
221357 26 15985101959642818868
22149856 69 16298650725770609507
2215653 11 15410891877154616756
22393880 68 14404895856868680753
23522609 53 17772441694551185700
23569914 152 14616906021072237267
2838139 119 11815633951877345895
3633792 109 16774078488015499020
3680242 22 15502384456416750386
392239 28 15936417736290161991
397830 11 18115038415174785505
4340502 62 16732702752833396374
439807 62 17845930733450113763
465052 167 18260268542701481488
5104073 3 16443896310209488107
6009941 240 17749669718334637833
6086070 43 17917158298407766461
6328613 192 9511463329502976171

> <PUBCHEM_SHAPE_MULTIPOLES>
599.78
16.88
2.43
2.16
12.29
0.82
-0.46
15.49
3.12
2.83
0.25
-1.11
-0.06
-0.41

> <PUBCHEM_SHAPE_SELFOVERLAP>
1252.685

> <PUBCHEM_SHAPE_VOLUME>
338.8

> <PUBCHEM_COORDINATE_TYPE>
2
5
10

$$$$

