6450191
  -OEChem-07051213102D

 34 36  0     1  0  0  0  0  0999 V2000
    3.6180    0.3029    0.0000 O   0  0  0  0  0  0  0  0  0  0  0  0
    5.0854   -1.4508    0.0000 O   0  0  0  0  0  0  0  0  0  0  0  0
    3.7474    2.1527    0.0000 O   0  0  0  0  0  0  0  0  0  0  0  0
    2.8090   -0.2849    0.0000 C   0  0  1  0  0  0  0  0  0  0  0  0
    3.5522   -0.9540    0.0000 C   0  0  0  0  0  0  0  0  0  0  0  0
    4.5032   -0.6450    0.0000 C   0  0  0  0  0  0  0  0  0  0  0  0
    2.3090    1.2539    0.0000 C   0  0  0  0  0  0  0  0  0  0  0  0
    2.0000    0.3029    0.0000 C   0  0  0  0  0  0  0  0  0  0  0  0
    2.5169    2.2321    0.0000 C   0  0  0  0  0  0  0  0  0  0  0  0
    4.9572    0.2460    0.0000 C   0  0  0  0  0  0  0  0  0  0  0  0
    3.5547   -1.9481    0.0000 C   0  0  0  0  0  0  0  0  0  0  0  0
    3.4692    2.5373    0.0000 C   0  0  0  0  0  0  0  0  0  0  0  0
    4.4126    1.0847    0.0000 C   0  0  0  0  0  0  0  0  0  0  0  0
    3.3090    1.2539    0.0000 C   0  0  0  0  0  0  0  0  0  0  0  0
    4.3602    2.0833    0.0000 C   0  0  0  0  0  0  0  0  0  0  0  0
    4.5004   -2.2545    0.0000 C   0  0  0  0  0  0  0  0  0  0  0  0
    2.7467   -2.5373    0.0000 C   0  0  0  0  0  0  0  0  0  0  0  0
    3.3188    0.7293    0.0000 C   0  0  0  0  0  0  0  0  0  0  0  0
    2.2741   -0.9455    0.0000 H   0  0  0  0  0  0  0  0  0  0  0  0
    1.4103    0.1113    0.0000 H   0  0  0  0  0  0  0  0  0  0  0  0
    2.4323    2.8463    0.0000 H   0  0  0  0  0  0  0  0  0  0  0  0
    1.8973    2.2546    0.0000 H   0  0  0  0  0  0  0  0  0  0  0  0
    5.4524   -0.1271    0.0000 H   0  0  0  0  0  0  0  0  0  0  0  0
    5.4107    0.6688    0.0000 H   0  0  0  0  0  0  0  0  0  0  0  0
    3.8847    2.9975    0.0000 H   0  0  0  0  0  0  0  0  0  0  0  0
    3.1330    3.0582    0.0000 H   0  0  0  0  0  0  0  0  0  0  0  0
    4.8802    2.4210    0.0000 H   0  0  0  0  0  0  0  0  0  0  0  0
    4.6920   -2.8441    0.0000 H   0  0  0  0  0  0  0  0  0  0  0  0
    2.3814   -2.0363    0.0000 H   0  0  0  0  0  0  0  0  0  0  0  0
    2.2458   -2.9026    0.0000 H   0  0  0  0  0  0  0  0  0  0  0  0
    3.1120   -3.0382    0.0000 H   0  0  0  0  0  0  0  0  0  0  0  0
    3.1273    1.3190    0.0000 H   0  0  0  0  0  0  0  0  0  0  0  0
    2.7292    0.5377    0.0000 H   0  0  0  0  0  0  0  0  0  0  0  0
    3.5104    0.1396    0.0000 H   0  0  0  0  0  0  0  0  0  0  0  0
  1  4  1  0  0  0  0
  1 14  1  0  0  0  0
  2  6  1  0  0  0  0
  2 16  1  0  0  0  0
  3 14  2  0  0  0  0
  4  5  1  0  0  0  0
  4  8  1  0  0  0  0
  4 19  1  6  0  0  0
  5  6  2  0  0  0  0
  5 11  1  0  0  0  0
  6 10  1  0  0  0  0
  7  8  2  0  0  0  0
  7  9  1  0  0  0  0
  7 14  1  0  0  0  0
  8 20  1  0  0  0  0
  9 12  1  0  0  0  0
  9 21  1  0  0  0  0
  9 22  1  0  0  0  0
 10 13  1  0  0  0  0
 10 23  1  0  0  0  0
 10 24  1  0  0  0  0
 11 16  2  0  0  0  0
 11 17  1  0  0  0  0
 12 15  1  0  0  0  0
 12 25  1  0  0  0  0
 12 26  1  0  0  0  0
 13 15  2  0  0  0  0
 13 18  1  0  0  0  0
 15 27  1  0  0  0  0
 16 28  1  0  0  0  0
 17 29  1  0  0  0  0
 17 30  1  0  0  0  0
 17 31  1  0  0  0  0
 18 32  1  0  0  0  0
 18 33  1  0  0  0  0
 18 34  1  0  0  0  0
M  END
> <PUBCHEM_COMPOUND_CID>
6450191

> <PUBCHEM_COMPOUND_CANONICALIZED>
1

> <PUBCHEM_CACTVS_COMPLEXITY>
422

> <PUBCHEM_CACTVS_HBOND_ACCEPTOR>
3

> <PUBCHEM_CACTVS_HBOND_DONOR>
0

> <PUBCHEM_CACTVS_ROTATABLE_BOND>
0

> <PUBCHEM_CACTVS_SUBSKEYS>
AAADceBwMAAAAAAAAAAAAAAAAAAAASIAAAAAAAAAAAAAAACBgAAAGgAAAAAADBSgmAIiDIAABECIAqjSiAACCAAkIAAAiAEECMgMJzaENRqCGSCl4BEIqYfKyGCOgAAAAAAAAAAAAAAAAAAAAAAAAAAAAA==

> <PUBCHEM_IUPAC_INCHI>
InChI=1S/C15H16O3/c1-9-4-3-5-11-7-13(18-15(11)16)14-10(2)8-17-12(14)6-9/h4,7-8,13H,3,5-6H2,1-2H3/b9-4+/t13-/m1/s1

> <PUBCHEM_IUPAC_INCHIKEY>
LWCKQMHMTSRRAA-QGQQYVBWSA-N

> <PUBCHEM_XLOGP3_AA>
2.7

> <PUBCHEM_EXACT_MASS>
244.109944

> <PUBCHEM_MOLECULAR_FORMULA>
C15H16O3

> <PUBCHEM_MOLECULAR_WEIGHT>
244.28574

> <PUBCHEM_OPENEYE_CAN_SMILES>
CC1=CCCC2=CC(C3=C(C1)OC=C3C)OC2=O

> <PUBCHEM_OPENEYE_ISO_SMILES>
C/C/1=C\CCC2=C[C@H](C3=C(C1)OC=C3C)OC2=O

> <PUBCHEM_CACTVS_TPSA>
39.4

> <PUBCHEM_MONOISOTOPIC_WEIGHT>
244.109944

> <PUBCHEM_TOTAL_CHARGE>
0

> <PUBCHEM_HEAVY_ATOM_COUNT>
18

> <PUBCHEM_ATOM_DEF_STEREO_COUNT>
1

> <PUBCHEM_ATOM_UDEF_STEREO_COUNT>
0

> <PUBCHEM_BOND_DEF_STEREO_COUNT>
1

> <PUBCHEM_BOND_UDEF_STEREO_COUNT>
0

> <PUBCHEM_ISOTOPIC_ATOM_COUNT>
0

> <PUBCHEM_COMPONENT_COUNT>
1

> <PUBCHEM_CACTVS_TAUTO_COUNT>
1

> <PUBCHEM_COORDINATE_TYPE>
1
5
255

> <PUBCHEM_BONDANNOTATIONS>
11  16  8
2  16  8
2  6  8
4  19  6
5  11  8
5  6  8

$$$$

