10596
  -OEChem-06261204443D

 44 47  0     1  0  0  0  0  0999 V2000
    4.9221   -1.2243   -0.2602 O   0  0  0  0  0  0  0  0  0  0  0  0
   -5.8310   -0.3713    0.0377 O   0  0  0  0  0  0  0  0  0  0  0  0
    2.7576   -0.3584    0.5716 C   0  0  2  0  0  0  0  0  0  0  0  0
    2.0235    0.9632    0.2604 C   0  0  2  0  0  0  0  0  0  0  0  0
    0.4960    0.8710    0.4268 C   0  0  2  0  0  0  0  0  0  0  0  0
   -0.1323   -0.3202   -0.3387 C   0  0  1  0  0  0  0  0  0  0  0  0
    4.1580   -0.0600   -0.0056 C   0  0  2  0  0  0  0  0  0  0  0  0
    2.0797   -1.5613   -0.1225 C   0  0  0  0  0  0  0  0  0  0  0  0
    2.5199    1.3522   -1.1429 C   0  0  0  0  0  0  0  0  0  0  0  0
    0.5660   -1.6230    0.0998 C   0  0  0  0  0  0  0  0  0  0  0  0
    3.8974    0.7059   -1.3016 C   0  0  0  0  0  0  0  0  0  0  0  0
   -0.2083    2.1690    0.0241 C   0  0  0  0  0  0  0  0  0  0  0  0
    2.8506   -0.6181    2.0845 C   0  0  0  0  0  0  0  0  0  0  0  0
   -1.6540   -0.3363   -0.2034 C   0  0  0  0  0  0  0  0  0  0  0  0
   -1.6628    2.1284    0.4805 C   0  0  0  0  0  0  0  0  0  0  0  0
   -2.3622    0.8340    0.1469 C   0  0  0  0  0  0  0  0  0  0  0  0
   -2.3941   -1.4910   -0.5154 C   0  0  0  0  0  0  0  0  0  0  0  0
   -3.7649    0.8040    0.2379 C   0  0  0  0  0  0  0  0  0  0  0  0
   -3.7879   -1.5047   -0.4314 C   0  0  0  0  0  0  0  0  0  0  0  0
   -4.4734   -0.3592   -0.0484 C   0  0  0  0  0  0  0  0  0  0  0  0
    2.3866    1.7384    0.9522 H   0  0  0  0  0  0  0  0  0  0  0  0
    0.3065    0.7190    1.5003 H   0  0  0  0  0  0  0  0  0  0  0  0
    0.0544   -0.1890   -1.4135 H   0  0  0  0  0  0  0  0  0  0  0  0
    4.7327    0.5818    0.6744 H   0  0  0  0  0  0  0  0  0  0  0  0
    2.5293   -2.5002    0.2245 H   0  0  0  0  0  0  0  0  0  0  0  0
    2.2579   -1.5281   -1.2049 H   0  0  0  0  0  0  0  0  0  0  0  0
    2.5807    2.4411   -1.2474 H   0  0  0  0  0  0  0  0  0  0  0  0
    1.8582    0.9915   -1.9365 H   0  0  0  0  0  0  0  0  0  0  0  0
    0.1924   -2.4786   -0.4728 H   0  0  0  0  0  0  0  0  0  0  0  0
    0.3427   -1.8367    1.1521 H   0  0  0  0  0  0  0  0  0  0  0  0
    3.9156    0.0439   -2.1753 H   0  0  0  0  0  0  0  0  0  0  0  0
    4.6736    1.4614   -1.4669 H   0  0  0  0  0  0  0  0  0  0  0  0
   -0.1667    2.3038   -1.0641 H   0  0  0  0  0  0  0  0  0  0  0  0
    0.2857    3.0377    0.4748 H   0  0  0  0  0  0  0  0  0  0  0  0
    3.4331   -1.5219    2.2942 H   0  0  0  0  0  0  0  0  0  0  0  0
    3.3402    0.2155    2.6005 H   0  0  0  0  0  0  0  0  0  0  0  0
    1.8643   -0.7461    2.5406 H   0  0  0  0  0  0  0  0  0  0  0  0
   -2.1966    2.9697    0.0219 H   0  0  0  0  0  0  0  0  0  0  0  0
   -1.7043    2.2654    1.5686 H   0  0  0  0  0  0  0  0  0  0  0  0
    5.0421   -1.6880    0.5856 H   0  0  0  0  0  0  0  0  0  0  0  0
   -1.9016   -2.4024   -0.8411 H   0  0  0  0  0  0  0  0  0  0  0  0
   -4.3008    1.7044    0.5320 H   0  0  0  0  0  0  0  0  0  0  0  0
   -4.3305   -2.4150   -0.6720 H   0  0  0  0  0  0  0  0  0  0  0  0
   -6.1376    0.5090    0.3153 H   0  0  0  0  0  0  0  0  0  0  0  0
  1  7  1  0  0  0  0
  1 40  1  0  0  0  0
  2 20  1  0  0  0  0
  2 44  1  0  0  0  0
  3  4  1  0  0  0  0
  3  7  1  0  0  0  0
  3  8  1  0  0  0  0
  3 13  1  0  0  0  0
  4  5  1  0  0  0  0
  4  9  1  0  0  0  0
  4 21  1  0  0  0  0
  5  6  1  0  0  0  0
  5 12  1  0  0  0  0
  5 22  1  0  0  0  0
  6 10  1  0  0  0  0
  6 14  1  0  0  0  0
  6 23  1  0  0  0  0
  7 11  1  0  0  0  0
  7 24  1  0  0  0  0
  8 10  1  0  0  0  0
  8 25  1  0  0  0  0
  8 26  1  0  0  0  0
  9 11  1  0  0  0  0
  9 27  1  0  0  0  0
  9 28  1  0  0  0  0
 10 29  1  0  0  0  0
 10 30  1  0  0  0  0
 11 31  1  0  0  0  0
 11 32  1  0  0  0  0
 12 15  1  0  0  0  0
 12 33  1  0  0  0  0
 12 34  1  0  0  0  0
 13 35  1  0  0  0  0
 13 36  1  0  0  0  0
 13 37  1  0  0  0  0
 14 16  2  0  0  0  0
 14 17  1  0  0  0  0
 15 16  1  0  0  0  0
 15 38  1  0  0  0  0
 15 39  1  0  0  0  0
 16 18  1  0  0  0  0
 17 19  2  0  0  0  0
 17 41  1  0  0  0  0
 18 20  2  0  0  0  0
 18 42  1  0  0  0  0
 19 20  1  0  0  0  0
 19 43  1  0  0  0  0
M  END
> <PUBCHEM_COMPOUND_CID>
10596

> <PUBCHEM_CONFORMER_RMSD>
0.6

> <PUBCHEM_CONFORMER_DIVERSEORDER>
6
11
12
13
2
1
16
14
17
3
10
5
7
9
4
8
15

> <PUBCHEM_MMFF94_PARTIAL_CHARGES>
16
1 -0.68
14 -0.14
15 0.14
16 -0.14
17 -0.15
18 -0.15
19 -0.15
2 -0.53
20 0.08
40 0.4
41 0.15
42 0.15
43 0.15
44 0.45
6 0.14
7 0.28

> <PUBCHEM_EFFECTIVE_ROTOR_COUNT>
1.4

> <PUBCHEM_PHARMACOPHORE_FEATURES>
7
1 1 acceptor
1 1 donor
1 2 donor
5 3 4 7 9 11 rings
6 14 16 17 18 19 20 rings
6 3 4 5 6 8 10 rings
6 5 6 12 14 15 16 rings

> <PUBCHEM_HEAVY_ATOM_COUNT>
20

> <PUBCHEM_ATOM_DEF_STEREO_COUNT>
2

> <PUBCHEM_ATOM_UDEF_STEREO_COUNT>
3

> <PUBCHEM_BOND_DEF_STEREO_COUNT>
0

> <PUBCHEM_BOND_UDEF_STEREO_COUNT>
0

> <PUBCHEM_ISOTOPIC_ATOM_COUNT>
0

> <PUBCHEM_COMPONENT_COUNT>
1

> <PUBCHEM_CACTVS_TAUTO_COUNT>
9

> <PUBCHEM_CONFORMER_ID>
0000296400000006

> <PUBCHEM_MMFF94_ENERGY>
64.6593

> <PUBCHEM_FEATURE_SELFOVERLAP>
35.724

> <PUBCHEM_SHAPE_FINGERPRINT>
10062212 137 18410859841438019391
10616163 171 18408320003774279311
11132069 177 18334021592069340699
11578080 2 17985860122733318684
12236239 1 18202001049390236624
12403814 3 17917714613031561501
12553582 1 18336553741863251957
12788726 201 18341051916910316833
13009979 54 18196381544440133338
13140716 1 18191879924201809779
13221675 6 18409166605978205323
13224815 77 18410579487046865873
13288520 33 18333729147936021148
13533116 47 16701749344896901203
13760787 19 17989205898045590379
13760787 5 18343580716376152461
13862211 1 18334016069253302391
14115302 16 18201151061992081990
14178342 30 18122639506814364072
15196674 1 18409166606057495525
15375462 189 18343587330467435419
15536298 74 18115028489426340161
1601671 61 18261107482821200381
16752209 62 18335989743737408833
16945 1 18334304196459173144
17349148 13 18341620325376637667
17804303 29 18114181913176372865
1813 80 17917706937339265886
18186145 218 17703797993748296318
18222031 100 18187656760664799839
18681886 176 18410857634014707296
19141452 34 17530967947633622671
19862831 5 18202565064073437366
200 152 18272089400469274413
20028762 73 17823700751193400575
20261772 1 18113622265868224887
20559304 39 18410578396383674552
20645477 70 15625954187095121578
20715895 44 17696488638717581309
21267235 1 18409440389111866863
21421861 104 17985549089833160515
21452121 103 18115599128009629064
221490 88 18196367009827762915
23402539 116 18261398836027610823
23463225 33 18411984667275977333
23557571 272 18040432239009035109
23559900 14 18189336938727766718
2748010 2 17761215414574371601
2871803 45 18412829096427139191
296302 2 14836118845076951692
3004659 81 18272937124166352869
335352 9 18408040715320791149
34934 24 18191588536720498916
4340502 62 16845575275172401520
4409770 3 16112902890507303446
465052 167 18336257939034111911
474 4 17346025650856207820
4990 188 17894903040615122470
5104073 3 18408603656093369729
537710 114 18410853248536729893
6034566 193 15979725102875362028
9709674 26 18409721889431366847
9981440 41 17406264440163343064

> <PUBCHEM_SHAPE_MULTIPOLES>
399.85
9.39
1.95
1.07
4.56
0.39
-0.27
-2.18
0.75
0.27
0.05
-1.11
0
-0.86

> <PUBCHEM_SHAPE_SELFOVERLAP>
871.415

> <PUBCHEM_SHAPE_VOLUME>
216.7

> <PUBCHEM_COORDINATE_TYPE>
2
5
10

$$$$

