9543342
  -OEChem-07051213113D

 33 36  0     0  0  0  0  0  0999 V2000
   -0.8382    3.0620   -1.2142 O   0  0  0  0  0  0  0  0  0  0  0  0
   -0.9382    3.2084    1.0519 O   0  0  0  0  0  0  0  0  0  0  0  0
   -0.3421    0.0404    0.0132 C   0  0  0  0  0  0  0  0  0  0  0  0
    0.6032   -1.0267    0.0006 C   0  0  0  0  0  0  0  0  0  0  0  0
    2.0224   -0.7541    0.0024 C   0  0  0  0  0  0  0  0  0  0  0  0
   -1.7612   -0.2320    0.0114 C   0  0  0  0  0  0  0  0  0  0  0  0
    0.1719    1.3530    0.0273 C   0  0  0  0  0  0  0  0  0  0  0  0
    2.4692    0.5888    0.0169 C   0  0  0  0  0  0  0  0  0  0  0  0
   -2.2080   -1.5750   -0.0032 C   0  0  0  0  0  0  0  0  0  0  0  0
    0.0893   -2.3393   -0.0135 C   0  0  0  0  0  0  0  0  0  0  0  0
    1.5387    1.6225    0.0291 C   0  0  0  0  0  0  0  0  0  0  0  0
   -1.2775   -2.6087   -0.0154 C   0  0  0  0  0  0  0  0  0  0  0  0
    3.0351   -1.7497   -0.0094 C   0  0  0  0  0  0  0  0  0  0  0  0
   -2.7740    0.7636    0.0229 C   0  0  0  0  0  0  0  0  0  0  0  0
    3.8413    0.8962    0.0192 C   0  0  0  0  0  0  0  0  0  0  0  0
   -3.5802   -1.8824   -0.0055 C   0  0  0  0  0  0  0  0  0  0  0  0
    4.3974   -1.4349   -0.0069 C   0  0  0  0  0  0  0  0  0  0  0  0
   -4.1363    0.4487    0.0204 C   0  0  0  0  0  0  0  0  0  0  0  0
   -0.5741    2.6055    0.0393 C   0  0  0  0  0  0  0  0  0  0  0  0
    4.8009   -0.1099    0.0073 C   0  0  0  0  0  0  0  0  0  0  0  0
   -4.5397   -0.8762    0.0061 C   0  0  0  0  0  0  0  0  0  0  0  0
    0.7466   -3.2049   -0.0236 H   0  0  0  0  0  0  0  0  0  0  0  0
    1.8900    2.6551    0.0405 H   0  0  0  0  0  0  0  0  0  0  0  0
   -1.5996   -3.6485   -0.0266 H   0  0  0  0  0  0  0  0  0  0  0  0
    2.7850   -2.8074   -0.0209 H   0  0  0  0  0  0  0  0  0  0  0  0
   -2.6073    1.8244    0.0308 H   0  0  0  0  0  0  0  0  0  0  0  0
    4.1770    1.9317    0.0304 H   0  0  0  0  0  0  0  0  0  0  0  0
   -3.9152   -2.9182   -0.0167 H   0  0  0  0  0  0  0  0  0  0  0  0
    5.1371   -2.2300   -0.0163 H   0  0  0  0  0  0  0  0  0  0  0  0
   -4.8777    1.2426    0.0287 H   0  0  0  0  0  0  0  0  0  0  0  0
    5.8569    0.1417    0.0093 H   0  0  0  0  0  0  0  0  0  0  0  0
   -5.5957   -1.1278    0.0038 H   0  0  0  0  0  0  0  0  0  0  0  0
   -1.3405    3.9045   -1.1976 H   0  0  0  0  0  0  0  0  0  0  0  0
  1 19  1  0  0  0  0
  1 33  1  0  0  0  0
  2 19  2  0  0  0  0
  3  4  2  0  0  0  0
  3  6  1  0  0  0  0
  3  7  1  0  0  0  0
  4  5  1  0  0  0  0
  4 10  1  0  0  0  0
  5  8  1  0  0  0  0
  5 13  2  0  0  0  0
  6  9  1  0  0  0  0
  6 14  2  0  0  0  0
  7 11  2  0  0  0  0
  7 19  1  0  0  0  0
  8 11  1  0  0  0  0
  8 15  2  0  0  0  0
  9 12  1  0  0  0  0
  9 16  2  0  0  0  0
 10 12  2  0  0  0  0
 10 22  1  0  0  0  0
 11 23  1  0  0  0  0
 12 24  1  0  0  0  0
 13 17  1  0  0  0  0
 13 25  1  0  0  0  0
 14 18  1  0  0  0  0
 14 26  1  0  0  0  0
 15 20  1  0  0  0  0
 15 27  1  0  0  0  0
 16 21  1  0  0  0  0
 16 28  1  0  0  0  0
 17 20  2  0  0  0  0
 17 29  1  0  0  0  0
 18 21  2  0  0  0  0
 18 30  1  0  0  0  0
 20 31  1  0  0  0  0
 21 32  1  0  0  0  0
M  END
> <PUBCHEM_COMPOUND_CID>
9543342

> <PUBCHEM_CONFORMER_RMSD>
0.6

> <PUBCHEM_CONFORMER_DIVERSEORDER>
1

> <PUBCHEM_MMFF94_PARTIAL_CHARGES>
27
1 -0.65
10 -0.15
11 -0.15
12 -0.15
13 -0.15
14 -0.15
15 -0.15
16 -0.15
17 -0.15
18 -0.15
19 0.63
2 -0.57
20 -0.15
21 -0.15
22 0.15
23 0.15
24 0.15
25 0.15
26 0.15
27 0.15
28 0.15
29 0.15
30 0.15
31 0.15
32 0.15
33 0.5
7 0.09

> <PUBCHEM_EFFECTIVE_ROTOR_COUNT>
1

> <PUBCHEM_PHARMACOPHORE_FEATURES>
7
1 1 acceptor
1 2 acceptor
3 1 2 19 anion
6 3 4 5 7 8 11 rings
6 3 4 6 9 10 12 rings
6 5 8 13 15 17 20 rings
6 6 9 14 16 18 21 rings

> <PUBCHEM_HEAVY_ATOM_COUNT>
21

> <PUBCHEM_ATOM_DEF_STEREO_COUNT>
0

> <PUBCHEM_ATOM_UDEF_STEREO_COUNT>
0

> <PUBCHEM_BOND_DEF_STEREO_COUNT>
0

> <PUBCHEM_BOND_UDEF_STEREO_COUNT>
0

> <PUBCHEM_ISOTOPIC_ATOM_COUNT>
0

> <PUBCHEM_COMPONENT_COUNT>
1

> <PUBCHEM_CACTVS_TAUTO_COUNT>
1

> <PUBCHEM_CONFORMER_ID>
00919EAE00000001

> <PUBCHEM_MMFF94_ENERGY>
92.0628

> <PUBCHEM_FEATURE_SELFOVERLAP>
35.647

> <PUBCHEM_SHAPE_FINGERPRINT>
10319926 262 18119835714395482250
104564 63 18336827610146991297
10693767 8 18115611300015946903
10967382 1 18338516335284275090
1100329 8 18338514115134550787
11132069 177 18407763637958107146
11680986 33 18050852113442889043
116883 192 18335131038257412646
12011746 2 18412550894764290503
12403259 226 18409172146897590808
12553582 1 18337963311332805102
12788726 201 18413108389987855368
12954195 1 18116695504463694478
13027679 85 18409451362763857669
13132413 78 18338233756727894429
13140716 1 18410289203187384803
13583140 156 14273743992114096846
138480 1 15384155443707549673
13862211 1 18410580577963751911
14178342 30 18050862301548427090
14790565 3 18265888232457200161
15042514 8 18411418397339905170
15196674 1 18410573972282633355
15442244 35 18337671897632894955
15536298 74 18334295327652354778
16752209 62 18269568289089603336
16945 1 18265892643113513906
17357779 13 18339659892033995125
1813 80 17561367257844850908
19591789 44 18194118749109444354
200 152 17968099694587990799
20028762 73 18042686096798903911
20510252 161 18262801886105865824
20775438 99 16744570662981696743
20905425 154 18192430998507808742
21029758 11 18336270054893981299
21029758 27 18271237227697695887
21267235 1 18410846642581947803
21421861 104 17914054454127695931
221490 88 18053377704479120883
2334 1 18338516318247051563
23402539 116 18334020483888988487
23463225 33 18411698755529543150
23557571 272 18335131012476864598
23558518 356 18125147484184017706
23559900 14 18335141947796279664
23566358 2 17976824507826357767
238 59 16331350505895897925
2748010 2 18338239271402624703
3004659 81 18273496767406594854
3178227 256 18341317904910386163
335352 9 18338516455612054991
34934 24 18337395916246513954
350125 39 18410574016065730184
352729 6 17905052804265722912
5104073 3 18410292488774121778
7364860 26 17904201429930994921
7832392 63 18191872223257194206
81228 2 18340471370217082640
9709674 26 18262795284994651238

> <PUBCHEM_SHAPE_MULTIPOLES>
420.43
7.89
3.2
0.7
2.11
1.55
-0.02
-2.7
0.04
-0.92
-0.02
-0.07
0.26
0

> <PUBCHEM_SHAPE_SELFOVERLAP>
965.649

> <PUBCHEM_SHAPE_VOLUME>
216.9

> <PUBCHEM_COORDINATE_TYPE>
2
5
10

$$$$

