17395369
  -OEChem-06241222492D

 41 42  0     1  0  0  0  0  0999 V2000
    4.5981   -0.3080    0.0000 O   0  0  0  0  0  0  0  0  0  0  0  0
    6.3301    0.6920    0.0000 O   0  0  0  0  0  0  0  0  0  0  0  0
    7.9128    3.0284    0.0000 O   0  0  0  0  0  0  0  0  0  0  0  0
    2.8660   -0.3080    0.0000 O   0  0  0  0  0  0  0  0  0  0  0  0
    2.0000   -3.8080    0.0000 O   0  0  0  0  0  0  0  0  0  0  0  0
    5.4641    2.1920    0.0000 N   0  0  0  0  0  0  0  0  0  0  0  0
    7.2437    2.2853    0.0000 N   0  0  0  0  0  0  0  0  0  0  0  0
    4.5981    0.6920    0.0000 C   0  0  3  0  0  0  0  0  0  0  0  0
    3.7320    1.1920    0.0000 C   0  0  0  0  0  0  0  0  0  0  0  0
    5.4641    1.1920    0.0000 C   0  0  0  0  0  0  0  0  0  0  0  0
    3.7320    2.1920    0.0000 C   0  0  0  0  0  0  0  0  0  0  0  0
    3.7320   -0.8080    0.0000 C   0  0  0  0  0  0  0  0  0  0  0  0
    3.7320   -1.8080    0.0000 C   0  0  0  0  0  0  0  0  0  0  0  0
    6.3301    2.6920    0.0000 C   0  0  0  0  0  0  0  0  0  0  0  0
    2.8660   -2.3080    0.0000 C   0  0  0  0  0  0  0  0  0  0  0  0
    6.4347    3.6865    0.0000 C   0  0  0  0  0  0  0  0  0  0  0  0
    4.5981   -2.3080    0.0000 C   0  0  0  0  0  0  0  0  0  0  0  0
    2.8660   -3.3080    0.0000 C   0  0  0  0  0  0  0  0  0  0  0  0
    7.4128    3.8944    0.0000 C   0  0  0  0  0  0  0  0  0  0  0  0
    4.5981   -3.3080    0.0000 C   0  0  0  0  0  0  0  0  0  0  0  0
    3.7320   -3.8080    0.0000 C   0  0  0  0  0  0  0  0  0  0  0  0
    7.8195    4.8080    0.0000 C   0  0  0  0  0  0  0  0  0  0  0  0
    2.0000   -4.8080    0.0000 C   0  0  0  0  0  0  0  0  0  0  0  0
    5.1350    0.3820    0.0000 H   0  0  0  0  0  0  0  0  0  0  0  0
    3.1215    1.2997    0.0000 H   0  0  0  0  0  0  0  0  0  0  0  0
    3.5200    0.6094    0.0000 H   0  0  0  0  0  0  0  0  0  0  0  0
    4.3520    2.1920    0.0000 H   0  0  0  0  0  0  0  0  0  0  0  0
    3.7320    2.8120    0.0000 H   0  0  0  0  0  0  0  0  0  0  0  0
    3.1120    2.1920    0.0000 H   0  0  0  0  0  0  0  0  0  0  0  0
    4.9272    2.5020    0.0000 H   0  0  0  0  0  0  0  0  0  0  0  0
    2.3291   -1.9980    0.0000 H   0  0  0  0  0  0  0  0  0  0  0  0
    5.9739    4.1014    0.0000 H   0  0  0  0  0  0  0  0  0  0  0  0
    5.1350   -1.9980    0.0000 H   0  0  0  0  0  0  0  0  0  0  0  0
    5.1350   -3.6180    0.0000 H   0  0  0  0  0  0  0  0  0  0  0  0
    3.7320   -4.4280    0.0000 H   0  0  0  0  0  0  0  0  0  0  0  0
    8.3859    4.5558    0.0000 H   0  0  0  0  0  0  0  0  0  0  0  0
    8.0717    5.3744    0.0000 H   0  0  0  0  0  0  0  0  0  0  0  0
    7.2531    5.0602    0.0000 H   0  0  0  0  0  0  0  0  0  0  0  0
    1.3800   -4.8080    0.0000 H   0  0  0  0  0  0  0  0  0  0  0  0
    2.0000   -5.4280    0.0000 H   0  0  0  0  0  0  0  0  0  0  0  0
    2.6200   -4.8080    0.0000 H   0  0  0  0  0  0  0  0  0  0  0  0
  1  8  1  0  0  0  0
  1 12  1  0  0  0  0
  2 10  2  0  0  0  0
  3  7  1  0  0  0  0
  3 19  1  0  0  0  0
  4 12  2  0  0  0  0
  5 18  1  0  0  0  0
  5 23  1  0  0  0  0
  6 10  1  0  0  0  0
  6 14  1  0  0  0  0
  6 30  1  0  0  0  0
  7 14  2  0  0  0  0
  8  9  1  0  0  0  0
  8 10  1  0  0  0  0
  8 24  1  0  0  0  0
  9 11  1  0  0  0  0
  9 25  1  0  0  0  0
  9 26  1  0  0  0  0
 11 27  1  0  0  0  0
 11 28  1  0  0  0  0
 11 29  1  0  0  0  0
 12 13  1  0  0  0  0
 13 15  2  0  0  0  0
 13 17  1  0  0  0  0
 14 16  1  0  0  0  0
 15 18  1  0  0  0  0
 15 31  1  0  0  0  0
 16 19  2  0  0  0  0
 16 32  1  0  0  0  0
 17 20  2  0  0  0  0
 17 33  1  0  0  0  0
 18 21  2  0  0  0  0
 19 22  1  0  0  0  0
 20 21  1  0  0  0  0
 20 34  1  0  0  0  0
 21 35  1  0  0  0  0
 22 36  1  0  0  0  0
 22 37  1  0  0  0  0
 22 38  1  0  0  0  0
 23 39  1  0  0  0  0
 23 40  1  0  0  0  0
 23 41  1  0  0  0  0
M  END
> <PUBCHEM_COMPOUND_CID>
17395369

> <PUBCHEM_COMPOUND_CANONICALIZED>
1

> <PUBCHEM_CACTVS_COMPLEXITY>
417

> <PUBCHEM_CACTVS_HBOND_ACCEPTOR>
6

> <PUBCHEM_CACTVS_HBOND_DONOR>
1

> <PUBCHEM_CACTVS_ROTATABLE_BOND>
7

> <PUBCHEM_CACTVS_SUBSKEYS>
AAADceB7OAAAAAAAAAAAAAAAAAAAAWAAAAAwAAAAAAAAAAABwAAAHgAUAAAADBShmgIzvpLQBACpAqPyegKCCAAlIgApmCF2bNqOJjrEvZ6HMahm1RvY6cfKyDCOAAABAAAAAAAAAAIAAAAAAAAAAAAAAA==

> <PUBCHEM_IUPAC_OPENEYE_NAME>
1-[(5-methylisoxazol-3-yl)carbamoyl]propyl 3-methoxybenzoate

> <PUBCHEM_IUPAC_CAS_NAME>
3-methoxybenzoic acid [1-[(5-methyl-3-isoxazolyl)amino]-1-oxobutan-2-yl] ester

> <PUBCHEM_IUPAC_NAME>
[1-[(5-methyl-1,2-oxazol-3-yl)amino]-1-oxobutan-2-yl] 3-methoxybenzoate

> <PUBCHEM_IUPAC_SYSTEMATIC_NAME>
[1-[(5-methyl-1,2-oxazol-3-yl)amino]-1-oxidanylidene-butan-2-yl] 3-methoxybenzoate

> <PUBCHEM_IUPAC_TRADITIONAL_NAME>
3-methoxybenzoic acid 1-[(5-methylisoxazol-3-yl)carbamoyl]propyl ester

> <PUBCHEM_IUPAC_INCHI>
InChI=1S/C16H18N2O5/c1-4-13(15(19)17-14-8-10(2)23-18-14)22-16(20)11-6-5-7-12(9-11)21-3/h5-9,13H,4H2,1-3H3,(H,17,18,19)

> <PUBCHEM_IUPAC_INCHIKEY>
PFNOFNZGUMMRBH-UHFFFAOYSA-N

> <PUBCHEM_XLOGP3_AA>
2.8

> <PUBCHEM_EXACT_MASS>
318.121572

> <PUBCHEM_MOLECULAR_FORMULA>
C16H18N2O5

> <PUBCHEM_MOLECULAR_WEIGHT>
318.32452

> <PUBCHEM_OPENEYE_CAN_SMILES>
CCC(C(=O)NC1=NOC(=C1)C)OC(=O)C2=CC(=CC=C2)OC

> <PUBCHEM_OPENEYE_ISO_SMILES>
CCC(C(=O)NC1=NOC(=C1)C)OC(=O)C2=CC(=CC=C2)OC

> <PUBCHEM_CACTVS_TPSA>
90.7

> <PUBCHEM_MONOISOTOPIC_WEIGHT>
318.121572

> <PUBCHEM_TOTAL_CHARGE>
0

> <PUBCHEM_HEAVY_ATOM_COUNT>
23

> <PUBCHEM_ATOM_DEF_STEREO_COUNT>
0

> <PUBCHEM_ATOM_UDEF_STEREO_COUNT>
1

> <PUBCHEM_BOND_DEF_STEREO_COUNT>
0

> <PUBCHEM_BOND_UDEF_STEREO_COUNT>
0

> <PUBCHEM_ISOTOPIC_ATOM_COUNT>
0

> <PUBCHEM_COMPONENT_COUNT>
1

> <PUBCHEM_CACTVS_TAUTO_COUNT>
10

> <PUBCHEM_COORDINATE_TYPE>
1
5
255

> <PUBCHEM_BONDANNOTATIONS>
13  15  8
13  17  8
14  16  8
15  18  8
16  19  8
17  20  8
18  21  8
20  21  8
3  19  8
3  7  8
7  14  8
8  9  3

$$$$

