3032309
  -OEChem-07051212453D

 18 17  0     0  0  0  0  0  0999 V2000
   -2.5513    0.6498   -0.5426 O   0  0  0  0  0  0  0  0  0  0  0  0
    1.7296    0.7349   -1.3127 O   0  0  0  0  0  0  0  0  0  0  0  0
   -0.8329    1.7377    0.4935 O   0  0  0  0  0  0  0  0  0  0  0  0
    1.9529    1.0225    0.9409 O   0  0  0  0  0  0  0  0  0  0  0  0
   -0.7222   -0.6345    0.0869 C   0  0  0  0  0  0  0  0  0  0  0  0
    0.6195   -0.7779    0.0549 C   0  0  0  0  0  0  0  0  0  0  0  0
   -1.6984   -1.7671    0.2459 C   0  0  0  0  0  0  0  0  0  0  0  0
    1.3359   -2.0988   -0.0003 C   0  0  0  0  0  0  0  0  0  0  0  0
   -1.3368    0.7185    0.0507 C   0  0  0  0  0  0  0  0  0  0  0  0
    1.5037    0.4149   -0.0172 C   0  0  0  0  0  0  0  0  0  0  0  0
   -2.4854   -1.5064    0.9627 H   0  0  0  0  0  0  0  0  0  0  0  0
   -2.1658   -2.0082   -0.7143 H   0  0  0  0  0  0  0  0  0  0  0  0
   -1.2263   -2.6756    0.6315 H   0  0  0  0  0  0  0  0  0  0  0  0
    2.2411   -2.0247   -0.6131 H   0  0  0  0  0  0  0  0  0  0  0  0
    1.6321   -2.4083    1.0069 H   0  0  0  0  0  0  0  0  0  0  0  0
    0.7229   -2.8878   -0.4460 H   0  0  0  0  0  0  0  0  0  0  0  0
   -2.9911    1.5258   -0.5816 H   0  0  0  0  0  0  0  0  0  0  0  0
    2.3078    1.5225   -1.4009 H   0  0  0  0  0  0  0  0  0  0  0  0
  1  9  1  0  0  0  0
  1 17  1  0  0  0  0
  2 10  1  0  0  0  0
  2 18  1  0  0  0  0
  3  9  2  0  0  0  0
  4 10  2  0  0  0  0
  5  6  2  0  0  0  0
  5  7  1  0  0  0  0
  5  9  1  0  0  0  0
  6  8  1  0  0  0  0
  6 10  1  0  0  0  0
  7 11  1  0  0  0  0
  7 12  1  0  0  0  0
  7 13  1  0  0  0  0
  8 14  1  0  0  0  0
  8 15  1  0  0  0  0
  8 16  1  0  0  0  0
M  END
> <PUBCHEM_COMPOUND_CID>
3032309

> <PUBCHEM_CONFORMER_RMSD>
0.4

> <PUBCHEM_CONFORMER_DIVERSEORDER>
1
5
2
4
3
6

> <PUBCHEM_MMFF94_PARTIAL_CHARGES>
12
1 -0.65
10 0.71
17 0.5
18 0.5
2 -0.65
3 -0.57
4 -0.57
5 -0.12
6 -0.12
7 0.14
8 0.14
9 0.71

> <PUBCHEM_EFFECTIVE_ROTOR_COUNT>
2

> <PUBCHEM_PHARMACOPHORE_FEATURES>
8
1 1 acceptor
1 2 acceptor
1 3 acceptor
1 4 acceptor
1 7 hydrophobe
1 8 hydrophobe
3 1 3 9 anion
3 2 4 10 anion

> <PUBCHEM_HEAVY_ATOM_COUNT>
10

> <PUBCHEM_ATOM_DEF_STEREO_COUNT>
0

> <PUBCHEM_ATOM_UDEF_STEREO_COUNT>
0

> <PUBCHEM_BOND_DEF_STEREO_COUNT>
1

> <PUBCHEM_BOND_UDEF_STEREO_COUNT>
0

> <PUBCHEM_ISOTOPIC_ATOM_COUNT>
0

> <PUBCHEM_COMPONENT_COUNT>
1

> <PUBCHEM_CACTVS_TAUTO_COUNT>
1

> <PUBCHEM_CONFORMER_ID>
002E44F500000001

> <PUBCHEM_MMFF94_ENERGY>
25.2462

> <PUBCHEM_FEATURE_SELFOVERLAP>
40.708

> <PUBCHEM_SHAPE_FINGERPRINT>
16945 1 18337390568695576506
21040471 1 18412544340164057549
21922407 69 16056309506153055952
23211744 41 17679029192593934432
23552423 10 18272929431627107843
241688 4 17765999780329559384
24536 1 18131347518314910350
2748010 2 18264770956564352894
5084963 1 18057318603244887581

> <PUBCHEM_SHAPE_MULTIPOLES>
182.32
2.79
2.01
0.84
0.5
0.71
-0.1
-0.36
-0.22
0.01
0.19
-0.29
-0.21
0.1

> <PUBCHEM_SHAPE_SELFOVERLAP>
359.848

> <PUBCHEM_SHAPE_VOLUME>
109.1

> <PUBCHEM_COORDINATE_TYPE>
2
5
10

$$$$

