5281746
  -OEChem-07051212593D

 51 52  0     1  0  0  0  0  0999 V2000
   -1.6609   -0.3200    0.0637 O   0  0  0  0  0  0  0  0  0  0  0  0
    1.8364    0.6480   -0.3348 O   0  0  0  0  0  0  0  0  0  0  0  0
   -2.4133   -1.8255    1.6349 O   0  0  0  0  0  0  0  0  0  0  0  0
    2.6419   -1.1408   -1.5372 O   0  0  0  0  0  0  0  0  0  0  0  0
    2.4068   -0.8748    2.3817 O   0  0  0  0  0  0  0  0  0  0  0  0
   -1.9184    2.8035    0.4876 N   0  0  1  0  0  0  0  0  0  0  0  0
   -0.7313    1.9038    0.5491 C   0  0  2  0  0  0  0  0  0  0  0  0
   -0.0782    1.9885   -0.8306 C   0  0  2  0  0  0  0  0  0  0  0  0
   -1.2514    0.5690    1.0928 C   0  0  1  0  0  0  0  0  0  0  0  0
   -1.2503    2.2921   -1.7507 C   0  0  0  0  0  0  0  0  0  0  0  0
   -2.0878    3.2412   -0.9055 C   0  0  0  0  0  0  0  0  0  0  0  0
   -3.0777    2.0591    0.9964 C   0  0  0  0  0  0  0  0  0  0  0  0
   -2.4728    0.9902    1.8919 C   0  0  0  0  0  0  0  0  0  0  0  0
    0.7807    0.8150   -1.2672 C   0  0  0  0  0  0  0  0  0  0  0  0
   -2.2324   -1.4926    0.4724 C   0  0  0  0  0  0  0  0  0  0  0  0
    2.7072   -0.3753   -0.5857 C   0  0  0  0  0  0  0  0  0  0  0  0
   -2.6026   -2.3199   -0.7160 C   0  0  0  0  0  0  0  0  0  0  0  0
    3.7630   -0.4236    0.4727 C   0  0  0  0  0  0  0  0  0  0  0  0
   -3.9828   -2.1717   -1.2844 C   0  0  0  0  0  0  0  0  0  0  0  0
   -1.6545   -3.1647   -1.1617 C   0  0  0  0  0  0  0  0  0  0  0  0
    3.5558   -1.3096    1.6676 C   0  0  0  0  0  0  0  0  0  0  0  0
    4.8653    0.3112    0.2324 C   0  0  0  0  0  0  0  0  0  0  0  0
   -0.2822   -3.3628   -0.6004 C   0  0  0  0  0  0  0  0  0  0  0  0
    5.1392    1.1599   -0.9689 C   0  0  0  0  0  0  0  0  0  0  0  0
   -0.0489    2.3273    1.2982 H   0  0  0  0  0  0  0  0  0  0  0  0
    0.5714    2.8778   -0.8166 H   0  0  0  0  0  0  0  0  0  0  0  0
   -0.4952    0.0769    1.7154 H   0  0  0  0  0  0  0  0  0  0  0  0
   -0.9298    2.7540   -2.6895 H   0  0  0  0  0  0  0  0  0  0  0  0
   -1.8170    1.3846   -1.9882 H   0  0  0  0  0  0  0  0  0  0  0  0
   -3.1305    3.2855   -1.2385 H   0  0  0  0  0  0  0  0  0  0  0  0
   -1.6826    4.2568   -0.9920 H   0  0  0  0  0  0  0  0  0  0  0  0
   -3.7550    2.7167    1.5498 H   0  0  0  0  0  0  0  0  0  0  0  0
   -3.6469    1.5768    0.1911 H   0  0  0  0  0  0  0  0  0  0  0  0
   -3.2243    0.2329    2.1157 H   0  0  0  0  0  0  0  0  0  0  0  0
   -2.1579    1.4385    2.8432 H   0  0  0  0  0  0  0  0  0  0  0  0
    0.2104   -0.1125   -1.3630 H   0  0  0  0  0  0  0  0  0  0  0  0
    1.2114    1.0381   -2.2516 H   0  0  0  0  0  0  0  0  0  0  0  0
   -4.1467   -2.8471   -2.1301 H   0  0  0  0  0  0  0  0  0  0  0  0
   -4.7337   -2.3967   -0.5206 H   0  0  0  0  0  0  0  0  0  0  0  0
   -4.1391   -1.1463   -1.6343 H   0  0  0  0  0  0  0  0  0  0  0  0
   -1.8938   -3.7916   -2.0187 H   0  0  0  0  0  0  0  0  0  0  0  0
    3.3913   -2.3435    1.3485 H   0  0  0  0  0  0  0  0  0  0  0  0
    4.4137   -1.2961    2.3473 H   0  0  0  0  0  0  0  0  0  0  0  0
    5.6648    0.2882    0.9705 H   0  0  0  0  0  0  0  0  0  0  0  0
    0.4609   -3.1772   -1.3824 H   0  0  0  0  0  0  0  0  0  0  0  0
   -0.0435   -2.7107    0.2431 H   0  0  0  0  0  0  0  0  0  0  0  0
   -0.1691   -4.3988   -0.2658 H   0  0  0  0  0  0  0  0  0  0  0  0
    6.0469    0.8051   -1.4674 H   0  0  0  0  0  0  0  0  0  0  0  0
    4.3351    1.1665   -1.7083 H   0  0  0  0  0  0  0  0  0  0  0  0
    5.3091    2.1943   -0.6534 H   0  0  0  0  0  0  0  0  0  0  0  0
    2.5701    0.0370    2.6782 H   0  0  0  0  0  0  0  0  0  0  0  0
  1  9  1  0  0  0  0
  1 15  1  0  0  0  0
  2 14  1  0  0  0  0
  2 16  1  0  0  0  0
  3 15  2  0  0  0  0
  4 16  2  0  0  0  0
  5 21  1  0  0  0  0
  5 51  1  0  0  0  0
  6  7  1  0  0  0  0
  6 11  1  0  0  0  0
  6 12  1  0  0  0  0
  7  8  1  0  0  0  0
  7  9  1  0  0  0  0
  7 25  1  0  0  0  0
  8 10  1  0  0  0  0
  8 14  1  0  0  0  0
  8 26  1  0  0  0  0
  9 13  1  0  0  0  0
  9 27  1  0  0  0  0
 10 11  1  0  0  0  0
 10 28  1  0  0  0  0
 10 29  1  0  0  0  0
 11 30  1  0  0  0  0
 11 31  1  0  0  0  0
 12 13  1  0  0  0  0
 12 32  1  0  0  0  0
 12 33  1  0  0  0  0
 13 34  1  0  0  0  0
 13 35  1  0  0  0  0
 14 36  1  0  0  0  0
 14 37  1  0  0  0  0
 15 17  1  0  0  0  0
 16 18  1  0  0  0  0
 17 19  1  0  0  0  0
 17 20  2  0  0  0  0
 18 21  1  0  0  0  0
 18 22  2  0  0  0  0
 19 38  1  0  0  0  0
 19 39  1  0  0  0  0
 19 40  1  0  0  0  0
 20 23  1  0  0  0  0
 20 41  1  0  0  0  0
 21 42  1  0  0  0  0
 21 43  1  0  0  0  0
 22 24  1  0  0  0  0
 22 44  1  0  0  0  0
 23 45  1  0  0  0  0
 23 46  1  0  0  0  0
 23 47  1  0  0  0  0
 24 48  1  0  0  0  0
 24 49  1  0  0  0  0
 24 50  1  0  0  0  0
M  END
> <PUBCHEM_COMPOUND_CID>
5281746

> <PUBCHEM_CONFORMER_RMSD>
1

> <PUBCHEM_CONFORMER_DIVERSEORDER>
1
202
106
205
101
49
218
103
196
152
156
139
102
66
75
155
110
164
165
42
213
214
172
123
74
154
112
195
82
8
180
176
121
162
181
79
30
184
52
189
197
219
171
92
178
54
69
185
182
10
132
157
209
86
107
120
216
98
115
203
105
59
129
23
71
198
167
217
11
97
186
16
169
188
199
38
163
76
73
148
210
144
137
24
99
158
45
145
135
58
31
122
150
111
4
204
70
200
221
130
170
126
127
36
25
22
55
104
168
78
29
51
89
222
133
56
28
108
116
61
77
85
131
173
95
18
46
128
215
151
147
159
114
125
87
41
80
211
140
27
187
43
124
109
44
208
34
190
191
100
134
161
12
35
113
160
91
6
193
15
68
84
119
117
183
39
136
179
192
47
207
17
206
20
65
57
212
96
37
94
9
83
3
26
175
72
88
143
63
177
7
142
153
194
138
201
50
67
32
5
2
146
40
53
93
14
64
174
21
220
90
62
118
19
33
60
141
149
13
166
48
81

> <PUBCHEM_MMFF94_PARTIAL_CHARGES>
24
1 -0.43
11 0.27
12 0.27
14 0.28
15 0.71
16 0.71
17 -0.12
18 -0.12
19 0.14
2 -0.43
20 -0.29
21 0.42
22 -0.29
23 0.14
24 0.14
3 -0.57
4 -0.57
41 0.15
44 0.15
5 -0.68
51 0.4
6 -0.81
7 0.27
9 0.28

> <PUBCHEM_EFFECTIVE_ROTOR_COUNT>
9.2

> <PUBCHEM_PHARMACOPHORE_FEATURES>
10
1 19 hydrophobe
1 23 hydrophobe
1 24 hydrophobe
1 3 acceptor
1 4 acceptor
1 5 acceptor
1 5 donor
1 6 cation
5 6 7 8 10 11 rings
5 6 7 9 12 13 rings

> <PUBCHEM_HEAVY_ATOM_COUNT>
24

> <PUBCHEM_ATOM_DEF_STEREO_COUNT>
3

> <PUBCHEM_ATOM_UDEF_STEREO_COUNT>
0

> <PUBCHEM_BOND_DEF_STEREO_COUNT>
2

> <PUBCHEM_BOND_UDEF_STEREO_COUNT>
0

> <PUBCHEM_ISOTOPIC_ATOM_COUNT>
0

> <PUBCHEM_COMPONENT_COUNT>
1

> <PUBCHEM_CACTVS_TAUTO_COUNT>
1

> <PUBCHEM_CONFORMER_ID>
005097D200000001

> <PUBCHEM_MMFF94_ENERGY>
58.1607

> <PUBCHEM_FEATURE_SELFOVERLAP>
51.118

> <PUBCHEM_SHAPE_FINGERPRINT>
10366900 7 17240203231344166978
10871710 139 18341327816644806834
11265709 11 18191583056341910895
11370993 70 18117270574139650090
11552529 35 18040712563330038886
12156800 1 17110230000553643407
12422481 6 18122035841098374347
12553582 1 18047168783638795743
12633257 1 18040147427095839872
12788726 201 18339935852182883511
13004483 165 18267882613141605911
13083527 12 18121792633758569980
13583140 156 17274539944524875420
13931106 250 18339372936684217789
14081887 123 18191605072555150074
14251757 17 16772420364240371247
14840074 17 18341880879762640017
20600515 1 17825655665027501823
22182313 1 17123358337426412609
22907989 373 18338252534187736461
23419403 2 17388005009178731761
23559900 14 17896043156616275761
23728640 28 18199191857020602625
238 59 17474114675019518301
2748010 2 17478867833885445085
3027735 51 18189351189440305055
35225 105 18117017621977766954
495365 180 17471303219260770885
6438718 38 18411411834624095738
81228 2 18409162195294985031
84936 31 17037279835007222753

> <PUBCHEM_SHAPE_MULTIPOLES>
459.58
7.73
4.03
1.87
10.32
0.66
-0.56
1.09
-0.23
-4.59
1.32
-0.06
0.06
-1.44

> <PUBCHEM_SHAPE_SELFOVERLAP>
939.568

> <PUBCHEM_SHAPE_VOLUME>
267.2

> <PUBCHEM_COORDINATE_TYPE>
2
5
10

$$$$

