442499
  -OEChem-07051212582D

 46 49  0     1  0  0  0  0  0999 V2000
    5.0085    1.7197    0.0000 O   0  0  0  0  0  0  0  0  0  0  0  0
    3.0113   -1.7274    0.0000 O   0  0  0  0  0  0  0  0  0  0  0  0
    2.0256    0.2952    0.0000 O   0  0  0  0  0  0  0  0  0  0  0  0
    6.5387   -2.1534    0.0000 O   0  0  0  0  0  0  0  0  0  0  0  0
    6.9461    0.0627    0.0000 N   0  0  3  0  0  0  0  0  0  0  0  0
    5.2141    0.0627    0.0000 C   0  0  2  0  0  0  0  0  0  0  0  0
    6.0801   -0.4373    0.0000 C   0  0  1  0  0  0  0  0  0  0  0  0
    4.4770   -0.6044    0.0000 C   0  0  2  0  0  0  0  0  0  0  0  0
    4.5311    0.8410    0.0000 C   0  0  2  0  0  0  0  0  0  0  0  0
    5.2141    1.0627    0.0000 C   0  0  0  0  0  0  0  0  0  0  0  0
    4.8822   -1.5122    0.0000 C   0  0  0  0  0  0  0  0  0  0  0  0
    6.7472   -1.1743    0.0000 C   0  0  0  0  0  0  0  0  0  0  0  0
    3.4682   -0.8379    0.0000 C   0  0  2  0  0  0  0  0  0  0  0  0
    5.8709   -1.4091    0.0000 C   0  0  0  0  0  0  0  0  0  0  0  0
    2.9116   -0.1686    0.0000 C   0  0  1  0  0  0  0  0  0  0  0  0
    3.3731    0.7240    0.0000 C   0  0  0  0  0  0  0  0  0  0  0  0
    6.0801    1.5627    0.0000 C   0  0  0  0  0  0  0  0  0  0  0  0
    6.9461    1.0627    0.0000 C   0  0  0  0  0  0  0  0  0  0  0  0
    7.9179   -0.1465    0.0000 C   0  0  0  0  0  0  0  0  0  0  0  0
    7.8380   -0.9522    0.0000 C   0  0  0  0  0  0  0  0  0  0  0  0
    2.0670   -0.7040    0.0000 C   0  0  0  0  0  0  0  0  0  0  0  0
    4.0983   -1.3653    0.0000 H   0  0  0  0  0  0  0  0  0  0  0  0
    4.1878    1.3573    0.0000 H   0  0  0  0  0  0  0  0  0  0  0  0
    5.0020    1.6453    0.0000 H   0  0  0  0  0  0  0  0  0  0  0  0
    4.6035    0.9551    0.0000 H   0  0  0  0  0  0  0  0  0  0  0  0
    4.2926   -1.7039    0.0000 H   0  0  0  0  0  0  0  0  0  0  0  0
    5.0109   -2.1186    0.0000 H   0  0  0  0  0  0  0  0  0  0  0  0
    6.2210   -1.5023    0.0000 H   0  0  0  0  0  0  0  0  0  0  0  0
    6.9766   -1.7503    0.0000 H   0  0  0  0  0  0  0  0  0  0  0  0
    3.8493   -1.3270    0.0000 H   0  0  0  0  0  0  0  0  0  0  0  0
    3.4300    1.3414    0.0000 H   0  0  0  0  0  0  0  0  0  0  0  0
    2.7780    0.8980    0.0000 H   0  0  0  0  0  0  0  0  0  0  0  0
    6.4786    2.0377    0.0000 H   0  0  0  0  0  0  0  0  0  0  0  0
    5.6816    2.0377    0.0000 H   0  0  0  0  0  0  0  0  0  0  0  0
    7.5567    0.9551    0.0000 H   0  0  0  0  0  0  0  0  0  0  0  0
    7.1582    1.6453    0.0000 H   0  0  0  0  0  0  0  0  0  0  0  0
    8.5322   -0.2309    0.0000 H   0  0  0  0  0  0  0  0  0  0  0  0
    8.0255    0.4641    0.0000 H   0  0  0  0  0  0  0  0  0  0  0  0
    7.9004   -1.5690    0.0000 H   0  0  0  0  0  0  0  0  0  0  0  0
    8.4580   -0.9516    0.0000 H   0  0  0  0  0  0  0  0  0  0  0  0
    1.7350   -0.1803    0.0000 H   0  0  0  0  0  0  0  0  0  0  0  0
    1.5433   -1.0359    0.0000 H   0  0  0  0  0  0  0  0  0  0  0  0
    2.3989   -1.2276    0.0000 H   0  0  0  0  0  0  0  0  0  0  0  0
    4.6847    2.2484    0.0000 H   0  0  0  0  0  0  0  0  0  0  0  0
    3.3473   -2.2484    0.0000 H   0  0  0  0  0  0  0  0  0  0  0  0
    2.0000    0.9146    0.0000 H   0  0  0  0  0  0  0  0  0  0  0  0
  9  1  1  6  0  0  0
  1 44  1  0  0  0  0
 13  2  1  1  0  0  0
  2 45  1  0  0  0  0
 15  3  1  6  0  0  0
  3 46  1  0  0  0  0
  4 14  2  0  0  0  0
  5  7  1  0  0  0  0
  5 18  1  0  0  0  0
  5 19  1  0  0  0  0
  6  7  1  0  0  0  0
  6  8  1  0  0  0  0
  6  9  1  0  0  0  0
  6 10  1  1  0  0  0
  7 12  1  6  0  0  0
  7 14  1  0  0  0  0
  8 11  1  0  0  0  0
  8 13  1  0  0  0  0
  8 22  1  1  0  0  0
  9 16  1  0  0  0  0
  9 23  1  0  0  0  0
 10 17  1  0  0  0  0
 10 24  1  0  0  0  0
 10 25  1  0  0  0  0
 11 14  1  0  0  0  0
 11 26  1  0  0  0  0
 11 27  1  0  0  0  0
 12 20  1  0  0  0  0
 12 28  1  0  0  0  0
 12 29  1  0  0  0  0
 13 15  1  0  0  0  0
 13 30  1  0  0  0  0
 15 16  1  0  0  0  0
 15 21  1  0  0  0  0
 16 31  1  0  0  0  0
 16 32  1  0  0  0  0
 17 18  1  0  0  0  0
 17 33  1  0  0  0  0
 17 34  1  0  0  0  0
 18 35  1  0  0  0  0
 18 36  1  0  0  0  0
 19 20  1  0  0  0  0
 19 37  1  0  0  0  0
 19 38  1  0  0  0  0
 20 39  1  0  0  0  0
 20 40  1  0  0  0  0
 21 41  1  0  0  0  0
 21 42  1  0  0  0  0
 21 43  1  0  0  0  0
M  END
> <PUBCHEM_COMPOUND_CID>
442499

> <PUBCHEM_COMPOUND_CANONICALIZED>
1

> <PUBCHEM_CACTVS_COMPLEXITY>
497

> <PUBCHEM_CACTVS_HBOND_ACCEPTOR>
5

> <PUBCHEM_CACTVS_HBOND_DONOR>
3

> <PUBCHEM_CACTVS_ROTATABLE_BOND>
0

> <PUBCHEM_CACTVS_SUBSKEYS>
AAADceB6OAAAAAAAAAAAAAAAAAAAAeIAAAA8QAAAAAAAAHgAAAAAHgAACAAAD9zhgAYCAAMAAgAIAIAQAAAAAAAAAAAAAAGIAAABEBIAgCAEQAAHAACBAAH6/fffgAAAAAAAAADCAAYQADCAASAACQAAAA==

> <PUBCHEM_IUPAC_INCHI>
InChI=1S/C16H25NO4/c1-14(21)9-12(19)15-4-2-6-17-7-3-5-16(15,17)11(18)8-10(15)13(14)20/h10,12-13,19-21H,2-9H2,1H3/t10-,12+,13-,14-,15-,16+/m1/s1

> <PUBCHEM_IUPAC_INCHIKEY>
YCOAYVRPLHVBDP-YSHXYTTRSA-N

> <PUBCHEM_XLOGP3_AA>
-0.5

> <PUBCHEM_EXACT_MASS>
295.178358

> <PUBCHEM_MOLECULAR_FORMULA>
C16H25NO4

> <PUBCHEM_MOLECULAR_WEIGHT>
295.374

> <PUBCHEM_OPENEYE_CAN_SMILES>
CC1(CC(C23CCCN4C2(CCC4)C(=O)CC3C1O)O)O

> <PUBCHEM_OPENEYE_ISO_SMILES>
C[C@]1(C[C@@H]([C@]23CCCN4[C@@]2(CCC4)C(=O)C[C@@H]3[C@H]1O)O)O

> <PUBCHEM_CACTVS_TPSA>
81

> <PUBCHEM_MONOISOTOPIC_WEIGHT>
295.178358

> <PUBCHEM_TOTAL_CHARGE>
0

> <PUBCHEM_HEAVY_ATOM_COUNT>
21

> <PUBCHEM_ATOM_DEF_STEREO_COUNT>
6

> <PUBCHEM_ATOM_UDEF_STEREO_COUNT>
0

> <PUBCHEM_BOND_DEF_STEREO_COUNT>
0

> <PUBCHEM_BOND_UDEF_STEREO_COUNT>
0

> <PUBCHEM_ISOTOPIC_ATOM_COUNT>
0

> <PUBCHEM_COMPONENT_COUNT>
1

> <PUBCHEM_CACTVS_TAUTO_COUNT>
2

> <PUBCHEM_COORDINATE_TYPE>
1
5
255

> <PUBCHEM_BONDANNOTATIONS>
9  1  6
13  2  5
15  3  6
6  10  5
7  12  6
8  22  5

$$$$

