360637
  -OEChem-07051212512D

 17 16  0     1  0  0  0  0  0999 V2000
    6.0010    0.0000    0.0000 P   0  0  3  0  0  0  0  0  0  0  0  0
    5.1350   -0.5000    0.0000 O   0  0  0  0  0  0  0  0  0  0  0  0
    5.5010    0.8660    0.0000 O   0  0  0  0  0  0  0  0  0  0  0  0
    6.5010   -0.8660    0.0000 O   0  0  0  0  0  0  0  0  0  0  0  0
    7.7331    0.0000    0.0000 O   0  0  0  0  0  0  0  0  0  0  0  0
    6.8671    1.5000    0.0000 O   0  0  0  0  0  0  0  0  0  0  0  0
    2.5369    0.0000    0.0000 O   0  0  0  0  0  0  0  0  0  0  0  0
    3.4030   -1.5000    0.0000 O   0  0  0  0  0  0  0  0  0  0  0  0
    6.8671    0.5000    0.0000 C   0  0  0  0  0  0  0  0  0  0  0  0
    4.2690    0.0000    0.0000 C   0  0  0  0  0  0  0  0  0  0  0  0
    3.4030   -0.5000    0.0000 C   0  0  0  0  0  0  0  0  0  0  0  0
    4.2690    1.0000    0.0000 C   0  0  0  0  0  0  0  0  0  0  0  0
    4.8810    0.8660    0.0000 H   0  0  0  0  0  0  0  0  0  0  0  0
    4.8059    1.3100    0.0000 H   0  0  0  0  0  0  0  0  0  0  0  0
    3.7320    1.3100    0.0000 H   0  0  0  0  0  0  0  0  0  0  0  0
    8.2700    0.3100    0.0000 H   0  0  0  0  0  0  0  0  0  0  0  0
    2.0000   -0.3100    0.0000 H   0  0  0  0  0  0  0  0  0  0  0  0
  1  2  1  0  0  0  0
  1  3  1  0  0  0  0
  1  4  2  0  0  0  0
  1  9  1  0  0  0  0
  2 10  1  0  0  0  0
  3 13  1  0  0  0  0
  5  9  1  0  0  0  0
  5 16  1  0  0  0  0
  6  9  2  0  0  0  0
  7 11  1  0  0  0  0
  7 17  1  0  0  0  0
  8 11  2  0  0  0  0
 10 11  1  0  0  0  0
 10 12  2  0  0  0  0
 12 14  1  0  0  0  0
 12 15  1  0  0  0  0
M  END
> <PUBCHEM_COMPOUND_CID>
360637

> <PUBCHEM_COMPOUND_CANONICALIZED>
1

> <PUBCHEM_CACTVS_COMPLEXITY>
279

> <PUBCHEM_CACTVS_HBOND_ACCEPTOR>
7

> <PUBCHEM_CACTVS_HBOND_DONOR>
3

> <PUBCHEM_CACTVS_ROTATABLE_BOND>
4

> <PUBCHEM_CACTVS_SUBSKEYS>
AAADcYBgOAIAAAAAAAAAAAAAAAAAAAAAAAAAAAAAAAAAAAAAAAAAGggACCAACASAgAAACAAAAxCIQADSCIIAAAAAAAAAAABAAEABBAAAAAAAAAAAAAABEIAAAAAAAAAAAAAAAAAAAAAAAAAAAAAAAAAAAA==

> <PUBCHEM_IUPAC_OPENEYE_NAME>
2-[carboxy(hydroxy)phosphoryl]oxyprop-2-enoic acid

> <PUBCHEM_IUPAC_CAS_NAME>
2-[carboxy(hydroxy)phosphoryl]oxy-2-propenoic acid

> <PUBCHEM_IUPAC_NAME>
2-[carboxy(hydroxy)phosphoryl]oxyprop-2-enoic acid

> <PUBCHEM_IUPAC_SYSTEMATIC_NAME>
2-[carboxy(oxidanyl)phosphoryl]oxyprop-2-enoic acid

> <PUBCHEM_IUPAC_TRADITIONAL_NAME>
2-[carboxy(hydroxy)phosphoryl]oxyacrylic acid

> <PUBCHEM_IUPAC_INCHI>
InChI=1S/C4H5O7P/c1-2(3(5)6)11-12(9,10)4(7)8/h1H2,(H,5,6)(H,7,8)(H,9,10)

> <PUBCHEM_IUPAC_INCHIKEY>
LPUFGTSGSICQBX-UHFFFAOYSA-N

> <PUBCHEM_XLOGP3_AA>
-0.7

> <PUBCHEM_EXACT_MASS>
195.977289

> <PUBCHEM_MOLECULAR_FORMULA>
C4H5O7P

> <PUBCHEM_MOLECULAR_WEIGHT>
196.052062

> <PUBCHEM_OPENEYE_CAN_SMILES>
C=C(C(=O)O)OP(=O)(C(=O)O)O

> <PUBCHEM_OPENEYE_ISO_SMILES>
C=C(C(=O)O)OP(=O)(C(=O)O)O

> <PUBCHEM_CACTVS_TPSA>
121

> <PUBCHEM_MONOISOTOPIC_WEIGHT>
195.977289

> <PUBCHEM_TOTAL_CHARGE>
0

> <PUBCHEM_HEAVY_ATOM_COUNT>
12

> <PUBCHEM_ATOM_DEF_STEREO_COUNT>
0

> <PUBCHEM_ATOM_UDEF_STEREO_COUNT>
0

> <PUBCHEM_BOND_DEF_STEREO_COUNT>
0

> <PUBCHEM_BOND_UDEF_STEREO_COUNT>
0

> <PUBCHEM_ISOTOPIC_ATOM_COUNT>
0

> <PUBCHEM_COMPONENT_COUNT>
1

> <PUBCHEM_CACTVS_TAUTO_COUNT>
1

> <PUBCHEM_COORDINATE_TYPE>
1
5
255

$$$$

