47205141
  -OEChem-06241222582D

 28 29  0     0  0  0  0  0  0999 V2000
    2.8660   -4.2694    0.0000 F   0  0  0  0  0  0  0  0  0  0  0  0
    4.5981   -0.2694    0.0000 O   0  0  0  0  0  0  0  0  0  0  0  0
    3.7320    1.2306    0.0000 N   0  0  0  0  0  0  0  0  0  0  0  0
    2.8660   -0.2694    0.0000 N   0  0  0  0  0  0  0  0  0  0  0  0
    3.7891    3.3184    0.0000 N   0  0  0  0  0  0  0  0  0  0  0  0
    4.0981    4.2694    0.0000 N   0  0  0  0  0  0  0  0  0  0  0  0
    4.5981    1.7306    0.0000 C   0  0  0  0  0  0  0  0  0  0  0  0
    4.5981    2.7306    0.0000 C   0  0  0  0  0  0  0  0  0  0  0  0
    2.8660   -1.2694    0.0000 C   0  0  0  0  0  0  0  0  0  0  0  0
    5.4071    3.3184    0.0000 C   0  0  0  0  0  0  0  0  0  0  0  0
    3.7320    0.2306    0.0000 C   0  0  0  0  0  0  0  0  0  0  0  0
    2.0000   -1.7694    0.0000 C   0  0  0  0  0  0  0  0  0  0  0  0
    3.7320   -1.7694    0.0000 C   0  0  0  0  0  0  0  0  0  0  0  0
    5.0981    4.2694    0.0000 C   0  0  0  0  0  0  0  0  0  0  0  0
    2.0000   -2.7694    0.0000 C   0  0  0  0  0  0  0  0  0  0  0  0
    3.7320   -2.7694    0.0000 C   0  0  0  0  0  0  0  0  0  0  0  0
    2.8660   -3.2694    0.0000 C   0  0  0  0  0  0  0  0  0  0  0  0
    4.8101    1.1480    0.0000 H   0  0  0  0  0  0  0  0  0  0  0  0
    5.2087    1.8382    0.0000 H   0  0  0  0  0  0  0  0  0  0  0  0
    3.1951    1.5406    0.0000 H   0  0  0  0  0  0  0  0  0  0  0  0
    5.9967    3.1268    0.0000 H   0  0  0  0  0  0  0  0  0  0  0  0
    2.3291    0.0406    0.0000 H   0  0  0  0  0  0  0  0  0  0  0  0
    3.1994    3.1268    0.0000 H   0  0  0  0  0  0  0  0  0  0  0  0
    1.4631   -1.4594    0.0000 H   0  0  0  0  0  0  0  0  0  0  0  0
    4.2690   -1.4594    0.0000 H   0  0  0  0  0  0  0  0  0  0  0  0
    5.4625    4.7710    0.0000 H   0  0  0  0  0  0  0  0  0  0  0  0
    1.4631   -3.0794    0.0000 H   0  0  0  0  0  0  0  0  0  0  0  0
    4.2690   -3.0794    0.0000 H   0  0  0  0  0  0  0  0  0  0  0  0
  1 17  1  0  0  0  0
  2 11  2  0  0  0  0
  3  7  1  0  0  0  0
  3 11  1  0  0  0  0
  3 20  1  0  0  0  0
  4  9  1  0  0  0  0
  4 11  1  0  0  0  0
  4 22  1  0  0  0  0
  5  6  1  0  0  0  0
  5  8  1  0  0  0  0
  5 23  1  0  0  0  0
  6 14  2  0  0  0  0
  7  8  1  0  0  0  0
  7 18  1  0  0  0  0
  7 19  1  0  0  0  0
  8 10  2  0  0  0  0
  9 12  2  0  0  0  0
  9 13  1  0  0  0  0
 10 14  1  0  0  0  0
 10 21  1  0  0  0  0
 12 15  1  0  0  0  0
 12 24  1  0  0  0  0
 13 16  2  0  0  0  0
 13 25  1  0  0  0  0
 14 26  1  0  0  0  0
 15 17  2  0  0  0  0
 15 27  1  0  0  0  0
 16 17  1  0  0  0  0
 16 28  1  0  0  0  0
M  END
> <PUBCHEM_COMPOUND_CID>
47205141

> <PUBCHEM_COMPOUND_CANONICALIZED>
1

> <PUBCHEM_CACTVS_COMPLEXITY>
256

> <PUBCHEM_CACTVS_HBOND_ACCEPTOR>
3

> <PUBCHEM_CACTVS_HBOND_DONOR>
3

> <PUBCHEM_CACTVS_ROTATABLE_BOND>
3

> <PUBCHEM_CACTVS_SUBSKEYS>
AAADccBzoQAAAAAAAAAAAAAAAAAAAWAAAAAwAAAAAAAAAAABwAAAHwAYAAAACAjBFgw9wJLjAACqATRnUACSBAAhggAYuaA4ZJiIYKLA0dGUpAhongJIyCcQAAAAAAAAAAAAAAAAAAAAAAAAAAAAAAAAAA==

> <PUBCHEM_IUPAC_OPENEYE_NAME>
1-(4-fluorophenyl)-3-(1H-pyrazol-5-ylmethyl)urea

> <PUBCHEM_IUPAC_CAS_NAME>
1-(4-fluorophenyl)-3-(1H-pyrazol-5-ylmethyl)urea

> <PUBCHEM_IUPAC_NAME>
1-(4-fluorophenyl)-3-(1H-pyrazol-5-ylmethyl)urea

> <PUBCHEM_IUPAC_SYSTEMATIC_NAME>
1-(4-fluorophenyl)-3-(1H-pyrazol-5-ylmethyl)urea

> <PUBCHEM_IUPAC_TRADITIONAL_NAME>
1-(4-fluorophenyl)-3-(1H-pyrazol-5-ylmethyl)urea

> <PUBCHEM_IUPAC_INCHI>
InChI=1S/C11H11FN4O/c12-8-1-3-9(4-2-8)15-11(17)13-7-10-5-6-14-16-10/h1-6H,7H2,(H,14,16)(H2,13,15,17)

> <PUBCHEM_IUPAC_INCHIKEY>
DFUWHAOKVWTTFC-UHFFFAOYSA-N

> <PUBCHEM_XLOGP3_AA>
0.9

> <PUBCHEM_EXACT_MASS>
234.091689

> <PUBCHEM_MOLECULAR_FORMULA>
C11H11FN4O

> <PUBCHEM_MOLECULAR_WEIGHT>
234.229643

> <PUBCHEM_OPENEYE_CAN_SMILES>
C1=CC(=CC=C1NC(=O)NCC2=CC=NN2)F

> <PUBCHEM_OPENEYE_ISO_SMILES>
C1=CC(=CC=C1NC(=O)NCC2=CC=NN2)F

> <PUBCHEM_CACTVS_TPSA>
69.8

> <PUBCHEM_MONOISOTOPIC_WEIGHT>
234.091689

> <PUBCHEM_TOTAL_CHARGE>
0

> <PUBCHEM_HEAVY_ATOM_COUNT>
17

> <PUBCHEM_ATOM_DEF_STEREO_COUNT>
0

> <PUBCHEM_ATOM_UDEF_STEREO_COUNT>
0

> <PUBCHEM_BOND_DEF_STEREO_COUNT>
0

> <PUBCHEM_BOND_UDEF_STEREO_COUNT>
0

> <PUBCHEM_ISOTOPIC_ATOM_COUNT>
0

> <PUBCHEM_COMPONENT_COUNT>
1

> <PUBCHEM_CACTVS_TAUTO_COUNT>
6

> <PUBCHEM_COORDINATE_TYPE>
1
5
255

> <PUBCHEM_BONDANNOTATIONS>
10  14  8
12  15  8
13  16  8
15  17  8
16  17  8
5  6  8
5  8  8
6  14  8
8  10  8
9  12  8
9  13  8

$$$$

