7849
  -OEChem-06261202233D

  8  7  0     0  0  0  0  0  0999 V2000
   -2.2688    0.1467    0.0141 Br  0  0  0  0  0  0  0  0  0  0  0  0
    2.1937   -0.1065    0.0155 Cl  0  0  0  0  0  0  0  0  0  0  0  0
   -0.4646   -0.5857   -0.0139 C   0  0  0  0  0  0  0  0  0  0  0  0
    0.5397    0.5454   -0.0157 C   0  0  0  0  0  0  0  0  0  0  0  0
   -0.3755   -1.2178    0.8742 H   0  0  0  0  0  0  0  0  0  0  0  0
   -0.3926   -1.2052   -0.9122 H   0  0  0  0  0  0  0  0  0  0  0  0
    0.4426    1.1677   -0.9110 H   0  0  0  0  0  0  0  0  0  0  0  0
    0.4223    1.1900    0.8613 H   0  0  0  0  0  0  0  0  0  0  0  0
  1  3  1  0  0  0  0
  2  4  1  0  0  0  0
  3  4  1  0  0  0  0
  3  5  1  0  0  0  0
  3  6  1  0  0  0  0
  4  7  1  0  0  0  0
  4  8  1  0  0  0  0
M  END
> <PUBCHEM_COMPOUND_CID>
7849

> <PUBCHEM_CONFORMER_RMSD>
0.4

> <PUBCHEM_CONFORMER_DIVERSEORDER>
1
3
2

> <PUBCHEM_MMFF94_PARTIAL_CHARGES>
4
1 -0.23
2 -0.29
3 0.23
4 0.29

> <PUBCHEM_EFFECTIVE_ROTOR_COUNT>
1

> <PUBCHEM_PHARMACOPHORE_FEATURES>
1
1 1 hydrophobe

> <PUBCHEM_HEAVY_ATOM_COUNT>
4

> <PUBCHEM_ATOM_DEF_STEREO_COUNT>
0

> <PUBCHEM_ATOM_UDEF_STEREO_COUNT>
0

> <PUBCHEM_BOND_DEF_STEREO_COUNT>
0

> <PUBCHEM_BOND_UDEF_STEREO_COUNT>
0

> <PUBCHEM_ISOTOPIC_ATOM_COUNT>
0

> <PUBCHEM_COMPONENT_COUNT>
1

> <PUBCHEM_CACTVS_TAUTO_COUNT>
1

> <PUBCHEM_CONFORMER_ID>
00001EA900000001

> <PUBCHEM_MMFF94_ENERGY>
0.457

> <PUBCHEM_FEATURE_SELFOVERLAP>
5.074

> <PUBCHEM_SHAPE_FINGERPRINT>
139733 1 9007060166746931652
16714656 1 18272651259537867509
20096714 4 18411981317280627201
5460574 1 9223234048214068193

> <PUBCHEM_SHAPE_MULTIPOLES>
90.13
3.48
0.81
0.66
0.07
0
0
-0.08
0.04
0.04
0
0.05
0
0

> <PUBCHEM_SHAPE_SELFOVERLAP>
128.806

> <PUBCHEM_SHAPE_VOLUME>
69.6

> <PUBCHEM_COORDINATE_TYPE>
2
5
10

$$$$

