256114
  -OEChem-07051213062D

 32 34  0     0  0  0  0  0  0999 V2000
    5.4641   -1.7327    0.0000 O   0  0  0  0  0  0  0  0  0  0  0  0
    8.9942   -1.7568    0.0000 O   0  0  0  0  0  0  0  0  0  0  0  0
    3.7320   -1.7327    0.0000 O   0  0  0  0  0  0  0  0  0  0  0  0
    9.8660   -0.2602    0.0000 O   0  0  0  0  0  0  0  0  0  0  0  0
    2.0000    0.2673    0.0000 N   0  0  0  0  0  0  0  0  0  0  0  0
    6.3301   -0.2327    0.0000 C   0  0  0  0  0  0  0  0  0  0  0  0
    6.3301   -1.2327    0.0000 C   0  0  0  0  0  0  0  0  0  0  0  0
    4.5981   -0.2327    0.0000 C   0  0  0  0  0  0  0  0  0  0  0  0
    5.4641    0.2673    0.0000 C   0  0  0  0  0  0  0  0  0  0  0  0
    7.2241    0.3020    0.0000 C   0  0  0  0  0  0  0  0  0  0  0  0
    3.7320    0.2673    0.0000 C   0  0  0  0  0  0  0  0  0  0  0  0
    7.2241   -1.7673    0.0000 C   0  0  0  0  0  0  0  0  0  0  0  0
    4.5981   -1.2327    0.0000 C   0  0  0  0  0  0  0  0  0  0  0  0
    8.1301   -1.2535    0.0000 C   0  0  0  0  0  0  0  0  0  0  0  0
    8.1301   -0.2119    0.0000 C   0  0  0  0  0  0  0  0  0  0  0  0
    3.7320    1.2673    0.0000 C   0  0  0  0  0  0  0  0  0  0  0  0
    2.8660   -0.2327    0.0000 C   0  0  0  0  0  0  0  0  0  0  0  0
    2.8660    1.7673    0.0000 C   0  0  0  0  0  0  0  0  0  0  0  0
    2.0000    1.2673    0.0000 C   0  0  0  0  0  0  0  0  0  0  0  0
    9.8622   -1.2602    0.0000 C   0  0  0  0  0  0  0  0  0  0  0  0
   10.7263   -1.7635    0.0000 C   0  0  0  0  0  0  0  0  0  0  0  0
    5.4641    0.8873    0.0000 H   0  0  0  0  0  0  0  0  0  0  0  0
    7.2169    0.9220    0.0000 H   0  0  0  0  0  0  0  0  0  0  0  0
    7.2169   -2.3873    0.0000 H   0  0  0  0  0  0  0  0  0  0  0  0
    8.6659    0.1002    0.0000 H   0  0  0  0  0  0  0  0  0  0  0  0
    4.2690    1.5773    0.0000 H   0  0  0  0  0  0  0  0  0  0  0  0
    2.8660   -0.8527    0.0000 H   0  0  0  0  0  0  0  0  0  0  0  0
    2.8660    2.3873    0.0000 H   0  0  0  0  0  0  0  0  0  0  0  0
    1.4631    1.5773    0.0000 H   0  0  0  0  0  0  0  0  0  0  0  0
   10.4142   -2.2992    0.0000 H   0  0  0  0  0  0  0  0  0  0  0  0
   11.2620   -2.0756    0.0000 H   0  0  0  0  0  0  0  0  0  0  0  0
   11.0383   -1.2278    0.0000 H   0  0  0  0  0  0  0  0  0  0  0  0
  1  7  1  0  0  0  0
  1 13  1  0  0  0  0
  2 14  1  0  0  0  0
  2 20  1  0  0  0  0
  3 13  2  0  0  0  0
  4 20  2  0  0  0  0
  5 17  1  0  0  0  0
  5 19  2  0  0  0  0
  6  7  2  0  0  0  0
  6  9  1  0  0  0  0
  6 10  1  0  0  0  0
  7 12  1  0  0  0  0
  8  9  2  0  0  0  0
  8 11  1  0  0  0  0
  8 13  1  0  0  0  0
  9 22  1  0  0  0  0
 10 15  2  0  0  0  0
 10 23  1  0  0  0  0
 11 16  1  0  0  0  0
 11 17  2  0  0  0  0
 12 14  2  0  0  0  0
 12 24  1  0  0  0  0
 14 15  1  0  0  0  0
 15 25  1  0  0  0  0
 16 18  2  0  0  0  0
 16 26  1  0  0  0  0
 17 27  1  0  0  0  0
 18 19  1  0  0  0  0
 18 28  1  0  0  0  0
 19 29  1  0  0  0  0
 20 21  1  0  0  0  0
 21 30  1  0  0  0  0
 21 31  1  0  0  0  0
 21 32  1  0  0  0  0
M  END
> <PUBCHEM_COMPOUND_CID>
256114

> <PUBCHEM_COMPOUND_CANONICALIZED>
1

> <PUBCHEM_CACTVS_COMPLEXITY>
459

> <PUBCHEM_CACTVS_HBOND_ACCEPTOR>
5

> <PUBCHEM_CACTVS_HBOND_DONOR>
0

> <PUBCHEM_CACTVS_ROTATABLE_BOND>
3

> <PUBCHEM_CACTVS_SUBSKEYS>
AAADccB6OAAAAAAAAAAAAAAAAAAAAAAAAAA8QIAAAAAAAACBwAAAHgAAAAAADATBmgQ+jpIIFACoAjD3TACCiCAxIiAI2CE+bNgMJ/LEtZuGOijlwBXI6Ye86CwOIAAACAAIAABAAAAQABAAAAAAAAAAAA==

> <PUBCHEM_IUPAC_OPENEYE_NAME>
[2-oxo-3-(3-pyridyl)chromen-7-yl] acetate

> <PUBCHEM_IUPAC_CAS_NAME>
acetic acid [2-oxo-3-(3-pyridinyl)-1-benzopyran-7-yl] ester

> <PUBCHEM_IUPAC_NAME>
(2-oxo-3-pyridin-3-ylchromen-7-yl) acetate

> <PUBCHEM_IUPAC_SYSTEMATIC_NAME>
(2-oxidanylidene-3-pyridin-3-yl-chromen-7-yl) ethanoate

> <PUBCHEM_IUPAC_TRADITIONAL_NAME>
acetic acid [2-keto-3-(3-pyridyl)chromen-7-yl] ester

> <PUBCHEM_IUPAC_INCHI>
InChI=1S/C16H11NO4/c1-10(18)20-13-5-4-11-7-14(12-3-2-6-17-9-12)16(19)21-15(11)8-13/h2-9H,1H3

> <PUBCHEM_IUPAC_INCHIKEY>
XUCYZNVGWPYGKD-UHFFFAOYSA-N

> <PUBCHEM_XLOGP3_AA>
2.2

> <PUBCHEM_EXACT_MASS>
281.068808

> <PUBCHEM_MOLECULAR_FORMULA>
C16H11NO4

> <PUBCHEM_MOLECULAR_WEIGHT>
281.26284

> <PUBCHEM_OPENEYE_CAN_SMILES>
CC(=O)OC1=CC2=C(C=C1)C=C(C(=O)O2)C3=CN=CC=C3

> <PUBCHEM_OPENEYE_ISO_SMILES>
CC(=O)OC1=CC2=C(C=C1)C=C(C(=O)O2)C3=CN=CC=C3

> <PUBCHEM_CACTVS_TPSA>
65.5

> <PUBCHEM_MONOISOTOPIC_WEIGHT>
281.068808

> <PUBCHEM_TOTAL_CHARGE>
0

> <PUBCHEM_HEAVY_ATOM_COUNT>
21

> <PUBCHEM_ATOM_DEF_STEREO_COUNT>
0

> <PUBCHEM_ATOM_UDEF_STEREO_COUNT>
0

> <PUBCHEM_BOND_DEF_STEREO_COUNT>
0

> <PUBCHEM_BOND_UDEF_STEREO_COUNT>
0

> <PUBCHEM_ISOTOPIC_ATOM_COUNT>
0

> <PUBCHEM_COMPONENT_COUNT>
1

> <PUBCHEM_CACTVS_TAUTO_COUNT>
1

> <PUBCHEM_COORDINATE_TYPE>
1
5
255

> <PUBCHEM_BONDANNOTATIONS>
1  13  8
1  7  8
10  15  8
11  16  8
11  17  8
12  14  8
14  15  8
16  18  8
18  19  8
5  17  8
5  19  8
6  10  8
6  7  8
6  9  8
7  12  8
8  13  8
8  9  8

$$$$

