151244
  -OEChem-07051213093D

 17 16  0     1  0  0  0  0  0999 V2000
    0.4296    1.4701    0.8208 F   0  0  0  0  0  0  0  0  0  0  0  0
    2.6486   -0.7896   -0.7933 O   0  0  0  0  0  0  0  0  0  0  0  0
    1.9330   -0.6671    1.3598 O   0  0  0  0  0  0  0  0  0  0  0  0
   -2.4561    0.9213    0.1859 O   0  0  0  0  0  0  0  0  0  0  0  0
   -0.8507   -0.5156   -0.6928 N   0  0  0  0  0  0  0  0  0  0  0  0
   -2.6832   -1.3504    0.4263 N   0  0  0  0  0  0  0  0  0  0  0  0
    0.0221    0.4795   -1.2535 C   0  0  0  0  0  0  0  0  0  0  0  0
    1.0747    0.9173   -0.2485 C   0  0  2  0  0  0  0  0  0  0  0  0
    1.9099   -0.2514    0.2088 C   0  0  0  0  0  0  0  0  0  0  0  0
   -2.0279   -0.2141   -0.0133 C   0  0  0  0  0  0  0  0  0  0  0  0
    0.4798    0.0467   -2.1488 H   0  0  0  0  0  0  0  0  0  0  0  0
   -0.5804    1.3430   -1.5545 H   0  0  0  0  0  0  0  0  0  0  0  0
    1.7332    1.6864   -0.6630 H   0  0  0  0  0  0  0  0  0  0  0  0
   -0.5921   -1.4924   -0.7938 H   0  0  0  0  0  0  0  0  0  0  0  0
   -2.3139   -2.2791    0.2527 H   0  0  0  0  0  0  0  0  0  0  0  0
   -3.5567   -1.2880    0.9384 H   0  0  0  0  0  0  0  0  0  0  0  0
    3.1915   -1.5453   -0.4829 H   0  0  0  0  0  0  0  0  0  0  0  0
  1  8  1  0  0  0  0
  2  9  1  0  0  0  0
  2 17  1  0  0  0  0
  3  9  2  0  0  0  0
  4 10  2  0  0  0  0
  5  7  1  0  0  0  0
  5 10  1  0  0  0  0
  5 14  1  0  0  0  0
  6 10  1  0  0  0  0
  6 15  1  0  0  0  0
  6 16  1  0  0  0  0
  7  8  1  0  0  0  0
  7 11  1  0  0  0  0
  7 12  1  0  0  0  0
  8  9  1  0  0  0  0
  8 13  1  0  0  0  0
M  END
> <PUBCHEM_COMPOUND_CID>
151244

> <PUBCHEM_CONFORMER_RMSD>
0.6

> <PUBCHEM_CONFORMER_DIVERSEORDER>
2
14
7
27
5
4
16
22
26
19
3
13
25
10
9
6
11
20
17
12
23
8
15
21
1
24
18

> <PUBCHEM_MMFF94_PARTIAL_CHARGES>
14
1 -0.34
10 0.69
14 0.37
15 0.37
16 0.37
17 0.5
2 -0.65
3 -0.57
4 -0.57
5 -0.73
6 -0.8
7 0.3
8 0.4
9 0.66

> <PUBCHEM_EFFECTIVE_ROTOR_COUNT>
4

> <PUBCHEM_PHARMACOPHORE_FEATURES>
6
1 2 acceptor
1 3 acceptor
1 4 acceptor
1 5 donor
1 6 donor
3 2 3 9 anion

> <PUBCHEM_HEAVY_ATOM_COUNT>
10

> <PUBCHEM_ATOM_DEF_STEREO_COUNT>
0

> <PUBCHEM_ATOM_UDEF_STEREO_COUNT>
1

> <PUBCHEM_BOND_DEF_STEREO_COUNT>
0

> <PUBCHEM_BOND_UDEF_STEREO_COUNT>
0

> <PUBCHEM_ISOTOPIC_ATOM_COUNT>
0

> <PUBCHEM_COMPONENT_COUNT>
1

> <PUBCHEM_CACTVS_TAUTO_COUNT>
3

> <PUBCHEM_CONFORMER_ID>
00024ECC00000002

> <PUBCHEM_MMFF94_ENERGY>
7.0158

> <PUBCHEM_FEATURE_SELFOVERLAP>
30.554

> <PUBCHEM_SHAPE_FINGERPRINT>
12897270 3 11527953365160613391
14128692 85 18131339796143015046
14390081 3 8935005854106469335
20651381 17 6411004327414450332
20653085 51 8141801754679515266
20653091 64 18270398287182448472
20711983 138 18117278262231674458
21040471 1 14273732885186010805
230 275 6122238523481095751
23552423 10 17774154592085287159
29004967 10 18261117374220417416
5084963 1 16878225273048828319

> <PUBCHEM_SHAPE_MULTIPOLES>
170.95
3.81
1.23
1.07
1.05
0.02
0
1.31
0.17
0.19
0.17
-0.4
-0.07
-0.1

> <PUBCHEM_SHAPE_SELFOVERLAP>
329.393

> <PUBCHEM_SHAPE_VOLUME>
102.9

> <PUBCHEM_COORDINATE_TYPE>
2
5
10

$$$$

