11455
  -OEChem-06261205422D

 20 20  0     0  0  0  0  0  0999 V2000
    2.8660    1.7500    0.0000 O   0  0  0  0  0  0  0  0  0  0  0  0
    3.7320    0.2500    0.0000 C   0  0  0  0  0  0  0  0  0  0  0  0
    2.8660   -1.2500    0.0000 C   0  0  0  0  0  0  0  0  0  0  0  0
    2.8660   -0.2500    0.0000 C   0  0  0  0  0  0  0  0  0  0  0  0
    4.5981   -0.2500    0.0000 C   0  0  0  0  0  0  0  0  0  0  0  0
    3.7320   -1.7500    0.0000 C   0  0  0  0  0  0  0  0  0  0  0  0
    4.5981   -1.2500    0.0000 C   0  0  0  0  0  0  0  0  0  0  0  0
    3.7320    1.2500    0.0000 C   0  0  0  0  0  0  0  0  0  0  0  0
    2.0000   -1.7500    0.0000 C   0  0  0  0  0  0  0  0  0  0  0  0
    4.5981    1.7500    0.0000 C   0  0  0  0  0  0  0  0  0  0  0  0
    2.3291    0.0600    0.0000 H   0  0  0  0  0  0  0  0  0  0  0  0
    5.1350    0.0600    0.0000 H   0  0  0  0  0  0  0  0  0  0  0  0
    3.7320   -2.3700    0.0000 H   0  0  0  0  0  0  0  0  0  0  0  0
    5.1350   -1.5600    0.0000 H   0  0  0  0  0  0  0  0  0  0  0  0
    1.6900   -1.2131    0.0000 H   0  0  0  0  0  0  0  0  0  0  0  0
    1.4631   -2.0600    0.0000 H   0  0  0  0  0  0  0  0  0  0  0  0
    2.3100   -2.2869    0.0000 H   0  0  0  0  0  0  0  0  0  0  0  0
    4.9081    1.2131    0.0000 H   0  0  0  0  0  0  0  0  0  0  0  0
    5.1350    2.0600    0.0000 H   0  0  0  0  0  0  0  0  0  0  0  0
    4.2881    2.2869    0.0000 H   0  0  0  0  0  0  0  0  0  0  0  0
  1  8  2  0  0  0  0
  2  4  2  0  0  0  0
  2  5  1  0  0  0  0
  2  8  1  0  0  0  0
  3  4  1  0  0  0  0
  3  6  2  0  0  0  0
  3  9  1  0  0  0  0
  4 11  1  0  0  0  0
  5  7  2  0  0  0  0
  5 12  1  0  0  0  0
  6  7  1  0  0  0  0
  6 13  1  0  0  0  0
  7 14  1  0  0  0  0
  8 10  1  0  0  0  0
  9 15  1  0  0  0  0
  9 16  1  0  0  0  0
  9 17  1  0  0  0  0
 10 18  1  0  0  0  0
 10 19  1  0  0  0  0
 10 20  1  0  0  0  0
M  END
> <PUBCHEM_COMPOUND_CID>
11455

> <PUBCHEM_COMPOUND_CANONICALIZED>
1

> <PUBCHEM_CACTVS_COMPLEXITY>
129

> <PUBCHEM_CACTVS_HBOND_ACCEPTOR>
1

> <PUBCHEM_CACTVS_HBOND_DONOR>
0

> <PUBCHEM_CACTVS_ROTATABLE_BOND>
1

> <PUBCHEM_CACTVS_SUBSKEYS>
AAADccBwIAAAAAAAAAAAAAAAAAAAAAAAAAAwAAAAAAAAAAABAAAAGgAAAAAADASAmAAyAIAAAACIAqBSAAACAAAkAAAIiAEAAMgIIDKAFRCAIQAggAAIiYcIiMCOAAACAAAAAAAAAAQAAAAAAAAAAAAAAA==

> <PUBCHEM_IUPAC_OPENEYE_NAME>
1-(m-tolyl)ethanone

> <PUBCHEM_IUPAC_CAS_NAME>
1-(3-methylphenyl)ethanone

> <PUBCHEM_IUPAC_NAME>
1-(3-methylphenyl)ethanone

> <PUBCHEM_IUPAC_SYSTEMATIC_NAME>
1-(3-methylphenyl)ethanone

> <PUBCHEM_IUPAC_TRADITIONAL_NAME>
1-(m-tolyl)ethanone

> <PUBCHEM_IUPAC_INCHI>
InChI=1S/C9H10O/c1-7-4-3-5-9(6-7)8(2)10/h3-6H,1-2H3

> <PUBCHEM_IUPAC_INCHIKEY>
FSPSELPMWGWDRY-UHFFFAOYSA-N

> <PUBCHEM_XLOGP3>
2.3

> <PUBCHEM_EXACT_MASS>
134.073165

> <PUBCHEM_MOLECULAR_FORMULA>
C9H10O

> <PUBCHEM_MOLECULAR_WEIGHT>
134.1751

> <PUBCHEM_OPENEYE_CAN_SMILES>
CC1=CC=CC(=C1)C(=O)C

> <PUBCHEM_OPENEYE_ISO_SMILES>
CC1=CC=CC(=C1)C(=O)C

> <PUBCHEM_CACTVS_TPSA>
17.1

> <PUBCHEM_MONOISOTOPIC_WEIGHT>
134.073165

> <PUBCHEM_TOTAL_CHARGE>
0

> <PUBCHEM_HEAVY_ATOM_COUNT>
10

> <PUBCHEM_ATOM_DEF_STEREO_COUNT>
0

> <PUBCHEM_ATOM_UDEF_STEREO_COUNT>
0

> <PUBCHEM_BOND_DEF_STEREO_COUNT>
0

> <PUBCHEM_BOND_UDEF_STEREO_COUNT>
0

> <PUBCHEM_ISOTOPIC_ATOM_COUNT>
0

> <PUBCHEM_COMPONENT_COUNT>
1

> <PUBCHEM_CACTVS_TAUTO_COUNT>
2

> <PUBCHEM_COORDINATE_TYPE>
1
5
255

> <PUBCHEM_BONDANNOTATIONS>
2  4  8
2  5  8
3  4  8
3  6  8
5  7  8
6  7  8

$$$$

