13371
  -OEChem-06261209262D

 10  8  0     0  0  0  0  0  0999 V2000
    3.7321    0.0000    0.0000 S   0  0  0  0  0  0  0  0  0  0  0  0
    2.0000   -0.0000    0.0000 Na  0  3  0  0  0  0  0  0  0  0  0  0
    5.4641    0.0000    0.0000 O   0  0  0  0  0  0  0  0  0  0  0  0
    2.8660   -0.5000    0.0000 O   0  5  0  0  0  0  0  0  0  0  0  0
    3.2321    0.8660    0.0000 O   0  0  0  0  0  0  0  0  0  0  0  0
    4.2321   -0.8660    0.0000 O   0  0  0  0  0  0  0  0  0  0  0  0
    4.5981    0.5000    0.0000 C   0  0  0  0  0  0  0  0  0  0  0  0
    4.9966    0.9749    0.0000 H   0  0  0  0  0  0  0  0  0  0  0  0
    4.1995    0.9749    0.0000 H   0  0  0  0  0  0  0  0  0  0  0  0
    6.0010    0.3100    0.0000 H   0  0  0  0  0  0  0  0  0  0  0  0
  1  4  1  0  0  0  0
  1  5  2  0  0  0  0
  1  6  2  0  0  0  0
  1  7  1  0  0  0  0
  3  7  1  0  0  0  0
  3 10  1  0  0  0  0
  7  8  1  0  0  0  0
  7  9  1  0  0  0  0
M  CHG  2   2   1   4  -1
M  END
> <PUBCHEM_COMPOUND_CID>
13371

> <PUBCHEM_COMPOUND_CANONICALIZED>
1

> <PUBCHEM_CACTVS_COMPLEXITY>
90.7

> <PUBCHEM_CACTVS_HBOND_ACCEPTOR>
4

> <PUBCHEM_CACTVS_HBOND_DONOR>
1

> <PUBCHEM_CACTVS_ROTATABLE_BOND>
0

> <PUBCHEM_CACTVS_SUBSKEYS>
AAADcQAAOCBAAAAAAAAAAAAAAAAAAAAAAAAAAAAAAAAAAAAAAAAAEgQACAAAAAAAAAKAAAAAAgIAAAAAAHAAAAAAAAAAAAAAAAAAEAAAAAAAAAAAAAAAAAAAAAAAAAAAAAAAAAAAAAAAAAAAAAAAAAAAAA==

> <PUBCHEM_IUPAC_OPENEYE_NAME>
sodium hydroxymethanesulfonate

> <PUBCHEM_IUPAC_CAS_NAME>
sodium hydroxymethanesulfonate

> <PUBCHEM_IUPAC_NAME>
sodium hydroxymethanesulfonate

> <PUBCHEM_IUPAC_SYSTEMATIC_NAME>
sodium oxidanylmethanesulfonate

> <PUBCHEM_IUPAC_TRADITIONAL_NAME>
sodium hydroxymethanesulfonate

> <PUBCHEM_IUPAC_INCHI>
InChI=1S/CH4O4S.Na/c2-1-6(3,4)5;/h2H,1H2,(H,3,4,5);/q;+1/p-1

> <PUBCHEM_IUPAC_INCHIKEY>
UOULCEYHQNCFFH-UHFFFAOYSA-M

> <PUBCHEM_EXACT_MASS>
133.964974

> <PUBCHEM_MOLECULAR_FORMULA>
CH3NaO4S

> <PUBCHEM_MOLECULAR_WEIGHT>
134.086889

> <PUBCHEM_OPENEYE_CAN_SMILES>
C(O)S(=O)(=O)[O-].[Na+]

> <PUBCHEM_OPENEYE_ISO_SMILES>
C(O)S(=O)(=O)[O-].[Na+]

> <PUBCHEM_CACTVS_TPSA>
85.8

> <PUBCHEM_MONOISOTOPIC_WEIGHT>
133.964974

> <PUBCHEM_TOTAL_CHARGE>
0

> <PUBCHEM_HEAVY_ATOM_COUNT>
7

> <PUBCHEM_ATOM_DEF_STEREO_COUNT>
0

> <PUBCHEM_ATOM_UDEF_STEREO_COUNT>
0

> <PUBCHEM_BOND_DEF_STEREO_COUNT>
0

> <PUBCHEM_BOND_UDEF_STEREO_COUNT>
0

> <PUBCHEM_ISOTOPIC_ATOM_COUNT>
0

> <PUBCHEM_COMPONENT_COUNT>
2

> <PUBCHEM_CACTVS_TAUTO_COUNT>
1

> <PUBCHEM_COORDINATE_TYPE>
1
5
255

$$$$

