854033
  -OEChem-06241222473D

 28 29  0     1  0  0  0  0  0999 V2000
   -3.4992   -2.6300    0.1863 S   0  0  0  0  0  0  0  0  0  0  0  0
   -2.4778    2.2959    0.0451 O   0  0  0  0  0  0  0  0  0  0  0  0
    5.3025   -0.5759    0.5021 O   0  0  0  0  0  0  0  0  0  0  0  0
   -1.3828   -0.9768    0.3468 N   0  0  0  0  0  0  0  0  0  0  0  0
   -3.3140    0.1116    0.0586 N   0  0  0  0  0  0  0  0  0  0  0  0
   -0.9839    0.4060    0.3238 C   0  0  1  0  0  0  0  0  0  0  0  0
   -0.0311    0.7101   -0.8137 C   0  0  0  0  0  0  0  0  0  0  0  0
   -2.3339    1.0826    0.1275 C   0  0  0  0  0  0  0  0  0  0  0  0
    1.3957    0.3659   -0.4622 C   0  0  0  0  0  0  0  0  0  0  0  0
   -2.7539   -1.1416    0.1918 C   0  0  0  0  0  0  0  0  0  0  0  0
   -4.7265    0.4108   -0.1280 C   0  0  0  0  0  0  0  0  0  0  0  0
    2.1998    1.3263    0.1309 C   0  0  0  0  0  0  0  0  0  0  0  0
    1.8762   -0.9045   -0.7380 C   0  0  0  0  0  0  0  0  0  0  0  0
    3.5182    1.0083    0.4566 C   0  0  0  0  0  0  0  0  0  0  0  0
    3.1948   -1.2226   -0.4124 C   0  0  0  0  0  0  0  0  0  0  0  0
    4.0158   -0.2661    0.1848 C   0  0  0  0  0  0  0  0  0  0  0  0
   -0.5924    0.6721    1.3113 H   0  0  0  0  0  0  0  0  0  0  0  0
   -0.0748    1.7765   -1.0734 H   0  0  0  0  0  0  0  0  0  0  0  0
   -0.3246    0.1825   -1.7316 H   0  0  0  0  0  0  0  0  0  0  0  0
   -0.7425   -1.7496    0.4993 H   0  0  0  0  0  0  0  0  0  0  0  0
   -5.0759   -0.0838   -1.0388 H   0  0  0  0  0  0  0  0  0  0  0  0
   -4.8895    1.4884   -0.2078 H   0  0  0  0  0  0  0  0  0  0  0  0
   -5.2877    0.0148    0.7234 H   0  0  0  0  0  0  0  0  0  0  0  0
    1.8207    2.3207    0.3487 H   0  0  0  0  0  0  0  0  0  0  0  0
    1.2457   -1.6562   -1.2042 H   0  0  0  0  0  0  0  0  0  0  0  0
    4.1474    1.7623    0.9221 H   0  0  0  0  0  0  0  0  0  0  0  0
    3.5767   -2.2170   -0.6268 H   0  0  0  0  0  0  0  0  0  0  0  0
    5.7234    0.2022    0.9064 H   0  0  0  0  0  0  0  0  0  0  0  0
  1 10  2  0  0  0  0
  2  8  2  0  0  0  0
  3 16  1  0  0  0  0
  3 28  1  0  0  0  0
  4  6  1  0  0  0  0
  4 10  1  0  0  0  0
  4 20  1  0  0  0  0
  5  8  1  0  0  0  0
  5 10  1  0  0  0  0
  5 11  1  0  0  0  0
  6  7  1  0  0  0  0
  6  8  1  0  0  0  0
  6 17  1  0  0  0  0
  7  9  1  0  0  0  0
  7 18  1  0  0  0  0
  7 19  1  0  0  0  0
  9 12  2  0  0  0  0
  9 13  1  0  0  0  0
 11 21  1  0  0  0  0
 11 22  1  0  0  0  0
 11 23  1  0  0  0  0
 12 14  1  0  0  0  0
 12 24  1  0  0  0  0
 13 15  2  0  0  0  0
 13 25  1  0  0  0  0
 14 16  2  0  0  0  0
 14 26  1  0  0  0  0
 15 16  1  0  0  0  0
 15 27  1  0  0  0  0
M  END
> <PUBCHEM_COMPOUND_CID>
854033

> <PUBCHEM_CONFORMER_RMSD>
0.6

> <PUBCHEM_CONFORMER_DIVERSEORDER>
1
2
5
4
3

> <PUBCHEM_MMFF94_PARTIAL_CHARGES>
22
1 -0.38
10 0.5
11 0.3
12 -0.15
13 -0.15
14 -0.15
15 -0.15
16 0.08
2 -0.57
20 0.37
24 0.15
25 0.15
26 0.15
27 0.15
28 0.45
3 -0.53
4 -0.73
5 -0.42
6 0.36
7 0.14
8 0.57
9 -0.14

> <PUBCHEM_EFFECTIVE_ROTOR_COUNT>
2.6

> <PUBCHEM_PHARMACOPHORE_FEATURES>
6
1 1 acceptor
1 2 acceptor
1 3 donor
1 4 donor
5 4 5 6 8 10 rings
6 9 12 13 14 15 16 rings

> <PUBCHEM_HEAVY_ATOM_COUNT>
16

> <PUBCHEM_ATOM_DEF_STEREO_COUNT>
1

> <PUBCHEM_ATOM_UDEF_STEREO_COUNT>
0

> <PUBCHEM_BOND_DEF_STEREO_COUNT>
0

> <PUBCHEM_BOND_UDEF_STEREO_COUNT>
0

> <PUBCHEM_ISOTOPIC_ATOM_COUNT>
0

> <PUBCHEM_COMPONENT_COUNT>
1

> <PUBCHEM_CACTVS_TAUTO_COUNT>
4

> <PUBCHEM_CONFORMER_ID>
000D081100000001

> <PUBCHEM_MMFF94_ENERGY>
33.6508

> <PUBCHEM_FEATURE_SELFOVERLAP>
30.446

> <PUBCHEM_SHAPE_FINGERPRINT>
10366900 7 18040155106318036000
10608611 8 18335422378473516504
10616163 171 18410290293972330375
11615757 297 16660361454862541392
12251169 10 18409730668665825036
12346177 29 18273220785397533415
12500047 106 18340772666357308869
13296908 3 18411415072987121599
13675066 3 17894636963560365288
14252887 29 17458337572752023150
14341114 176 18409162216949130752
15196674 1 18339360768978557882
15375358 24 18333730238673344919
17802600 8 18335424581617542632
17834072 14 18409731716553566151
17834072 33 18201433637092499580
17834074 16 18409164424235279630
19050596 39 18335700520449714140
19141452 34 18411134723872091215
200 152 17603591828682451357
20279233 1 18334288781847791743
20281475 54 18201436995714700910
20361792 2 16486971782513512364
20510252 161 18189332532265777841
20528008 55 18334859411308181277
20645477 56 18339920523819475197
20645477 70 17168421700756221198
21065198 57 18408885161335473016
21065199 12 18334296457323452472
21267235 1 18411409626968616218
21501925 9 18410857638056389108
22485316 2 18273217503989732490
22854114 59 17894632547922534848
23402539 116 18335710455379197581
23557571 272 18114174280576681436
23559900 14 18408889512142755136
26918003 58 18333734615081294290
3286 77 18340491071638290116
351380 180 18334018306287542301
42 15 18413106164851852088
4214541 1 18411138060391832136
5104073 3 18336826398850014224
573450 72 18272941547961530146
69090 78 18334579053307869263
74978 22 16271350912213430076
77779 3 18410291402484790704
8809292 202 18341608196399510915
9709674 26 18261668259468702087

> <PUBCHEM_SHAPE_MULTIPOLES>
311.42
9.47
2.01
0.75
2.69
0.48
0.06
2.02
-1.17
-1.88
-0.08
0.2
0.03
0.35

> <PUBCHEM_SHAPE_SELFOVERLAP>
651.249

> <PUBCHEM_SHAPE_VOLUME>
180.1

> <PUBCHEM_COORDINATE_TYPE>
2
5
10

$$$$

