582816
  -OEChem-06241222443D

 23 22  0     0  0  0  0  0  0999 V2000
   -2.5099   -0.5816    0.0522 O   0  0  0  0  0  0  0  0  0  0  0  0
    1.0422    1.6948    0.2735 O   0  0  0  0  0  0  0  0  0  0  0  0
    3.1264    0.1806   -1.2879 O   0  0  0  0  0  0  0  0  0  0  0  0
   -1.7354    1.5704   -0.1585 O   0  0  0  0  0  0  0  0  0  0  0  0
   -0.3115   -0.2011    0.3497 N   0  0  0  0  0  0  0  0  0  0  0  0
    2.0599   -0.4209    0.7906 C   0  0  0  0  0  0  0  0  0  0  0  0
    0.8979    0.4854    0.4390 C   0  0  0  0  0  0  0  0  0  0  0  0
    3.1888   -0.4254   -0.2192 C   0  0  0  0  0  0  0  0  0  0  0  0
   -3.8367   -0.1256   -0.2342 C   0  0  0  0  0  0  0  0  0  0  0  0
    4.3989   -1.2484    0.1378 C   0  0  0  0  0  0  0  0  0  0  0  0
   -1.5386    0.3795    0.0596 C   0  0  0  0  0  0  0  0  0  0  0  0
   -4.7819   -1.3077   -0.2027 C   0  0  0  0  0  0  0  0  0  0  0  0
    1.7241   -1.4556    0.9164 H   0  0  0  0  0  0  0  0  0  0  0  0
    2.4575   -0.0758    1.7516 H   0  0  0  0  0  0  0  0  0  0  0  0
   -4.1398    0.6109    0.5183 H   0  0  0  0  0  0  0  0  0  0  0  0
   -3.8568    0.3381   -1.2268 H   0  0  0  0  0  0  0  0  0  0  0  0
   -0.3164   -1.2051    0.5067 H   0  0  0  0  0  0  0  0  0  0  0  0
   -5.8073   -0.9944   -0.4180 H   0  0  0  0  0  0  0  0  0  0  0  0
   -4.4808   -2.0616   -0.9376 H   0  0  0  0  0  0  0  0  0  0  0  0
   -4.7591   -1.7933    0.7784 H   0  0  0  0  0  0  0  0  0  0  0  0
    4.8211   -0.8898    1.0799 H   0  0  0  0  0  0  0  0  0  0  0  0
    5.1554   -1.1515   -0.6458 H   0  0  0  0  0  0  0  0  0  0  0  0
    4.1134   -2.2993    0.2278 H   0  0  0  0  0  0  0  0  0  0  0  0
  1  9  1  0  0  0  0
  1 11  1  0  0  0  0
  2  7  2  0  0  0  0
  3  8  2  0  0  0  0
  4 11  2  0  0  0  0
  5  7  1  0  0  0  0
  5 11  1  0  0  0  0
  5 17  1  0  0  0  0
  6  7  1  0  0  0  0
  6  8  1  0  0  0  0
  6 13  1  0  0  0  0
  6 14  1  0  0  0  0
  8 10  1  0  0  0  0
  9 12  1  0  0  0  0
  9 15  1  0  0  0  0
  9 16  1  0  0  0  0
 10 21  1  0  0  0  0
 10 22  1  0  0  0  0
 10 23  1  0  0  0  0
 12 18  1  0  0  0  0
 12 19  1  0  0  0  0
 12 20  1  0  0  0  0
M  END
> <PUBCHEM_COMPOUND_CID>
582816

> <PUBCHEM_CONFORMER_RMSD>
0.6

> <PUBCHEM_CONFORMER_DIVERSEORDER>
1
153
120
130
117
59
23
72
150
41
149
67
142
158
47
128
113
152
34
136
21
17
155
49
32
15
112
138
81
96
139
88
146
159
33
108
69
140
129
135
70
54
73
95
124
105
79
82
123
111
107
92
3
131
116
98
118
5
43
90
127
144
64
51
156
58
57
55
157
84
31
83
40
109
125
148
4
52
151
100
134
147
44
99
13
66
133
75
122
143
29
85
42
93
104
145
28
94
6
87
62
27
80
121
126
132
102
46
56
38
91
65
86
61
35
37
68
39
89
10
103
97
137
71
115
77
26
63
16
106
76
74
48
110
22
2
114
20
101
78
30
45
60
18
8
50
12
154
53
19
9
119
7
11
14
36
141
25
24

> <PUBCHEM_MMFF94_PARTIAL_CHARGES>
12
1 -0.43
10 0.06
11 0.78
17 0.37
2 -0.57
3 -0.57
4 -0.57
5 -0.49
6 0.12
7 0.57
8 0.45
9 0.28

> <PUBCHEM_EFFECTIVE_ROTOR_COUNT>
6

> <PUBCHEM_PHARMACOPHORE_FEATURES>
5
1 2 acceptor
1 3 acceptor
1 4 acceptor
1 5 donor
1 6 anion

> <PUBCHEM_HEAVY_ATOM_COUNT>
12

> <PUBCHEM_ATOM_DEF_STEREO_COUNT>
0

> <PUBCHEM_ATOM_UDEF_STEREO_COUNT>
0

> <PUBCHEM_BOND_DEF_STEREO_COUNT>
0

> <PUBCHEM_BOND_UDEF_STEREO_COUNT>
0

> <PUBCHEM_ISOTOPIC_ATOM_COUNT>
0

> <PUBCHEM_COMPONENT_COUNT>
1

> <PUBCHEM_CACTVS_TAUTO_COUNT>
13

> <PUBCHEM_CONFORMER_ID>
0008E4A000000001

> <PUBCHEM_MMFF94_ENERGY>
12.5698

> <PUBCHEM_FEATURE_SELFOVERLAP>
25.376

> <PUBCHEM_SHAPE_FINGERPRINT>
11543360 7 16200150959168416371
12032990 46 18410856521618184187
12251169 10 5978099141938747338
13675066 3 14996278132758720515
13690532 89 18408605863759631291
14252887 29 16660639674533889334
14993402 34 16487255465214338383
15477762 27 18408886213655013142
15501527 24 18130497557694108726
15775835 57 8286191752159077286
177051 138 18113903723849474619
1986462 14 18410013264792575693
20281475 54 18410290324363564507
20432913 95 16587738729249754687
20645477 70 18410012122015030182
20671657 53 18409729556042812249
20724930 31 18113620084109111010
21119208 17 16917066672319822958
21293036 1 16845292726495934367
22485316 2 18333454248237924270
23402539 116 18272375312141855886
23402655 69 17489593410578610045
42 15 15719387330817195775
7364860 26 18116155463317924832

> <PUBCHEM_SHAPE_MULTIPOLES>
218.5
8.96
1.34
0.79
3.5
0.27
0.1
-4.85
1.27
0.23
-0.02
-0.5
0
-0.14

> <PUBCHEM_SHAPE_SELFOVERLAP>
415.759

> <PUBCHEM_SHAPE_VOLUME>
133.8

> <PUBCHEM_COORDINATE_TYPE>
2
5
10

$$$$

