8893
  -OEChem-06261203132D

 20 18  0     0  0  0  0  0  0999 V2000
    0.0000    2.6200    0.0000 Cl  0  0  0  0  0  0  0  0  0  0  0  0
    3.9766    0.0000    0.0000 Cl  0  0  0  0  0  0  0  0  0  0  0  0
    4.4766    3.1200    0.0000 N   0  0  0  0  0  0  0  0  0  0  0  0
    4.4766    5.1200    0.0000 N   0  0  0  0  0  0  0  0  0  0  0  0
    3.6106    3.6200    0.0000 C   0  0  0  0  0  0  0  0  0  0  0  0
    3.6106    4.6200    0.0000 C   0  0  0  0  0  0  0  0  0  0  0  0
    5.3426    4.6200    0.0000 C   0  0  0  0  0  0  0  0  0  0  0  0
    5.3426    3.6200    0.0000 C   0  0  0  0  0  0  0  0  0  0  0  0
    3.0000    3.7277    0.0000 H   0  0  0  0  0  0  0  0  0  0  0  0
    3.3985    3.0374    0.0000 H   0  0  0  0  0  0  0  0  0  0  0  0
    3.3985    5.2026    0.0000 H   0  0  0  0  0  0  0  0  0  0  0  0
    3.0000    4.5123    0.0000 H   0  0  0  0  0  0  0  0  0  0  0  0
    5.9532    4.5123    0.0000 H   0  0  0  0  0  0  0  0  0  0  0  0
    5.5547    5.2026    0.0000 H   0  0  0  0  0  0  0  0  0  0  0  0
    5.5547    3.0374    0.0000 H   0  0  0  0  0  0  0  0  0  0  0  0
    5.9532    3.7277    0.0000 H   0  0  0  0  0  0  0  0  0  0  0  0
    4.4766    5.7400    0.0000 H   0  0  0  0  0  0  0  0  0  0  0  0
    4.4766    2.5000    0.0000 H   0  0  0  0  0  0  0  0  0  0  0  0
    1.0000    2.6200    0.0000 H   0  0  0  0  0  0  0  0  0  0  0  0
    4.9766    0.0000    0.0000 H   0  0  0  0  0  0  0  0  0  0  0  0
  1 19  1  0  0  0  0
  2 20  1  0  0  0  0
  3  5  1  0  0  0  0
  3  8  1  0  0  0  0
  3 18  1  0  0  0  0
  4  6  1  0  0  0  0
  4  7  1  0  0  0  0
  4 17  1  0  0  0  0
  5  6  1  0  0  0  0
  5  9  1  0  0  0  0
  5 10  1  0  0  0  0
  6 11  1  0  0  0  0
  6 12  1  0  0  0  0
  7  8  1  0  0  0  0
  7 13  1  0  0  0  0
  7 14  1  0  0  0  0
  8 15  1  0  0  0  0
  8 16  1  0  0  0  0
M  END
> <PUBCHEM_COMPOUND_CID>
8893

> <PUBCHEM_COMPOUND_CANONICALIZED>
1

> <PUBCHEM_CACTVS_COMPLEXITY>
26.5

> <PUBCHEM_CACTVS_HBOND_ACCEPTOR>
2

> <PUBCHEM_CACTVS_HBOND_DONOR>
4

> <PUBCHEM_CACTVS_ROTATABLE_BOND>
0

> <PUBCHEM_CACTVS_SUBSKEYS>
AAADccBjAAAGAAAAAAAAAAAAAAAAAAAAAAAsAAAAAAAAAAAAAAAAHAAQAAAAAADBAAQAAALAAAAAAAAAAAAAAAAAAAAAAIAIAAAAQAAAAAAQAAAAEACAAAAAAAAAAAAAAAAAAAAAAAAAAAAAAAAAAAAAAA==

> <PUBCHEM_IUPAC_OPENEYE_NAME>
piperazine dihydrochloride

> <PUBCHEM_IUPAC_CAS_NAME>
piperazine dihydrochloride

> <PUBCHEM_IUPAC_NAME>
piperazine dihydrochloride

> <PUBCHEM_IUPAC_SYSTEMATIC_NAME>
piperazine dihydrochloride

> <PUBCHEM_IUPAC_TRADITIONAL_NAME>
piperazine dihydrochloride

> <PUBCHEM_IUPAC_INCHI>
InChI=1S/C4H10N2.2ClH/c1-2-6-4-3-5-1;;/h5-6H,1-4H2;2*1H

> <PUBCHEM_IUPAC_INCHIKEY>
CVVIJWRCGSYCMB-UHFFFAOYSA-N

> <PUBCHEM_EXACT_MASS>
158.037754

> <PUBCHEM_MOLECULAR_FORMULA>
C4H12Cl2N2

> <PUBCHEM_MOLECULAR_WEIGHT>
159.05748

> <PUBCHEM_OPENEYE_CAN_SMILES>
C1CNCCN1.Cl.Cl

> <PUBCHEM_OPENEYE_ISO_SMILES>
C1CNCCN1.Cl.Cl

> <PUBCHEM_CACTVS_TPSA>
24.1

> <PUBCHEM_MONOISOTOPIC_WEIGHT>
158.037754

> <PUBCHEM_TOTAL_CHARGE>
0

> <PUBCHEM_HEAVY_ATOM_COUNT>
8

> <PUBCHEM_ATOM_DEF_STEREO_COUNT>
0

> <PUBCHEM_ATOM_UDEF_STEREO_COUNT>
0

> <PUBCHEM_BOND_DEF_STEREO_COUNT>
0

> <PUBCHEM_BOND_UDEF_STEREO_COUNT>
0

> <PUBCHEM_ISOTOPIC_ATOM_COUNT>
0

> <PUBCHEM_COMPONENT_COUNT>
3

> <PUBCHEM_CACTVS_TAUTO_COUNT>
1

> <PUBCHEM_COORDINATE_TYPE>
1
5
255

$$$$

