23241672
  -OEChem-07051213022D

 30 32  0     1  0  0  0  0  0999 V2000
    4.4026    0.7369    0.0000 O   0  0  0  0  0  0  0  0  0  0  0  0
    6.7485   -0.3550    0.0000 O   0  0  0  0  0  0  0  0  0  0  0  0
    6.7523    1.8206    0.0000 O   0  0  0  0  0  0  0  0  0  0  0  0
    5.3548    3.2384    0.0000 O   0  0  0  0  0  0  0  0  0  0  0  0
    3.7066    2.7061    0.0000 O   0  0  0  0  0  0  0  0  0  0  0  0
    2.8660   -3.8284    0.0000 O   0  0  0  0  0  0  0  0  0  0  0  0
    4.6783   -1.0237    0.0000 N   0  0  0  0  0  0  0  0  0  0  0  0
    2.8660   -0.8284    0.0000 N   0  0  0  0  0  0  0  0  0  0  0  0
    4.6783   -2.6332    0.0000 N   0  0  0  0  0  0  0  0  0  0  0  0
    2.0000   -2.3284    0.0000 N   0  0  0  0  0  0  0  0  0  0  0  0
    4.9889   -0.0732    0.0000 C   0  0  1  0  0  0  0  0  0  0  0  0
    5.9405    0.2342    0.0000 C   0  0  1  0  0  0  0  0  0  0  0  0
    5.9422    1.2342    0.0000 C   0  0  1  0  0  0  0  0  0  0  0  0
    4.9917    1.5449    0.0000 C   0  0  1  0  0  0  0  0  0  0  0  0
    3.7320   -1.3284    0.0000 C   0  0  0  0  0  0  0  0  0  0  0  0
    4.6844    2.4964    0.0000 C   0  0  0  0  0  0  0  0  0  0  0  0
    5.2619   -1.8284    0.0000 C   0  0  0  0  0  0  0  0  0  0  0  0
    3.7320   -2.3284    0.0000 C   0  0  0  0  0  0  0  0  0  0  0  0
    2.8660   -2.8284    0.0000 C   0  0  0  0  0  0  0  0  0  0  0  0
    2.0000   -1.3284    0.0000 C   0  0  0  0  0  0  0  0  0  0  0  0
    5.4266   -0.5123    0.0000 H   0  0  0  0  0  0  0  0  0  0  0  0
    6.4934    0.5147    0.0000 H   0  0  0  0  0  0  0  0  0  0  0  0
    5.8463    1.8467    0.0000 H   0  0  0  0  0  0  0  0  0  0  0  0
    4.3795    1.6429    0.0000 H   0  0  0  0  0  0  0  0  0  0  0  0
    5.8819   -1.8284    0.0000 H   0  0  0  0  0  0  0  0  0  0  0  0
    7.3154   -0.1038    0.0000 H   0  0  0  0  0  0  0  0  0  0  0  0
    7.3182    1.5674    0.0000 H   0  0  0  0  0  0  0  0  0  0  0  0
    2.8660   -0.2084    0.0000 H   0  0  0  0  0  0  0  0  0  0  0  0
    1.4631   -1.0184    0.0000 H   0  0  0  0  0  0  0  0  0  0  0  0
    5.1642    3.8284    0.0000 H   0  0  0  0  0  0  0  0  0  0  0  0
  1 11  1  0  0  0  0
  1 14  1  0  0  0  0
 12  2  1  1  0  0  0
  2 26  1  0  0  0  0
 13  3  1  1  0  0  0
  3 27  1  0  0  0  0
  4 16  1  0  0  0  0
  4 30  1  0  0  0  0
  5 16  2  0  0  0  0
  6 19  2  0  0  0  0
 11  7  1  6  0  0  0
  7 15  1  0  0  0  0
  7 17  1  0  0  0  0
  8 15  1  0  0  0  0
  8 20  1  0  0  0  0
  8 28  1  0  0  0  0
  9 17  2  0  0  0  0
  9 18  1  0  0  0  0
 10 19  1  0  0  0  0
 10 20  2  0  0  0  0
 11 12  1  0  0  0  0
 11 21  1  0  0  0  0
 12 13  1  0  0  0  0
 12 22  1  0  0  0  0
 13 14  1  0  0  0  0
 13 23  1  0  0  0  0
 14 16  1  6  0  0  0
 14 24  1  0  0  0  0
 15 18  2  0  0  0  0
 17 25  1  0  0  0  0
 18 19  1  0  0  0  0
 20 29  1  0  0  0  0
M  END
> <PUBCHEM_COMPOUND_CID>
23241672

> <PUBCHEM_COMPOUND_CANONICALIZED>
1

> <PUBCHEM_CACTVS_COMPLEXITY>
471

> <PUBCHEM_CACTVS_HBOND_ACCEPTOR>
7

> <PUBCHEM_CACTVS_HBOND_DONOR>
4

> <PUBCHEM_CACTVS_ROTATABLE_BOND>
2

> <PUBCHEM_CACTVS_SUBSKEYS>
AAADccBzuAAAAAAAAAAAAAAAAAAAAWJAAAAgAAAAAAAAAEABgAAAHgAQCAAACBzhlgYFuBfMFgCoAQfxfAKAgC0XEKABUIHoVECDWB5AyCQeQIAPIALTAGD6NQIAAAAAAAAAAAAAAAAAAAAAAAAAAAAAAA==

> <PUBCHEM_IUPAC_OPENEYE_NAME>
(2S,3S,4R,5R)-3,4-dihydroxy-5-(6-oxo-3H-purin-9-yl)tetrahydrofuran-2-carboxylic acid

> <PUBCHEM_IUPAC_CAS_NAME>
(2S,3S,4R,5R)-3,4-dihydroxy-5-(6-oxo-3H-purin-9-yl)-2-oxolanecarboxylic acid

> <PUBCHEM_IUPAC_NAME>
(2S,3S,4R,5R)-3,4-dihydroxy-5-(6-oxo-3H-purin-9-yl)oxolane-2-carboxylic acid

> <PUBCHEM_IUPAC_SYSTEMATIC_NAME>
(2S,3S,4R,5R)-3,4-bis(oxidanyl)-5-(6-oxidanylidene-3H-purin-9-yl)oxolane-2-carboxylic acid

> <PUBCHEM_IUPAC_TRADITIONAL_NAME>
(2S,3S,4R,5R)-3,4-dihydroxy-5-(6-keto-3H-purin-9-yl)tetrahydrofuran-2-carboxylic acid

> <PUBCHEM_IUPAC_INCHI>
InChI=1S/C10H10N4O6/c15-4-5(16)9(20-6(4)10(18)19)14-2-13-3-7(14)11-1-12-8(3)17/h1-2,4-6,9,15-16H,(H,18,19)(H,11,12,17)/t4-,5+,6-,9+/m0/s1

> <PUBCHEM_IUPAC_INCHIKEY>
YALKLGGFZOUJBN-SOVPELCUSA-N

> <PUBCHEM_XLOGP3>
-1.9

> <PUBCHEM_EXACT_MASS>
282.060034

> <PUBCHEM_MOLECULAR_FORMULA>
C10H10N4O6

> <PUBCHEM_MOLECULAR_WEIGHT>
282.2096

> <PUBCHEM_OPENEYE_CAN_SMILES>
C1=NC(=O)C2=C(N1)N(C=N2)C3C(C(C(O3)C(=O)O)O)O

> <PUBCHEM_OPENEYE_ISO_SMILES>
C1=NC(=O)C2=C(N1)N(C=N2)[C@H]3[C@@H]([C@@H]([C@H](O3)C(=O)O)O)O

> <PUBCHEM_CACTVS_TPSA>
146

> <PUBCHEM_MONOISOTOPIC_WEIGHT>
282.060034

> <PUBCHEM_TOTAL_CHARGE>
0

> <PUBCHEM_HEAVY_ATOM_COUNT>
20

> <PUBCHEM_ATOM_DEF_STEREO_COUNT>
4

> <PUBCHEM_ATOM_UDEF_STEREO_COUNT>
0

> <PUBCHEM_BOND_DEF_STEREO_COUNT>
0

> <PUBCHEM_BOND_UDEF_STEREO_COUNT>
0

> <PUBCHEM_ISOTOPIC_ATOM_COUNT>
0

> <PUBCHEM_COMPONENT_COUNT>
1

> <PUBCHEM_CACTVS_TAUTO_COUNT>
3

> <PUBCHEM_COORDINATE_TYPE>
1
5
255

> <PUBCHEM_BONDANNOTATIONS>
10  19  8
10  20  8
14  16  6
15  18  8
18  19  8
12  2  5
13  3  5
11  7  6
7  15  8
7  17  8
8  15  8
8  20  8
9  17  8
9  18  8

$$$$

