8357
  -OEChem-06261202463D

 27 27  0     0  0  0  0  0  0999 V2000
    2.6368    0.1572   -0.4076 O   0  0  0  0  0  0  0  0  0  0  0  0
    1.0657    2.4055   -0.0200 O   0  0  0  0  0  0  0  0  0  0  0  0
    1.4475   -2.3406   -0.5375 O   0  0  0  0  0  0  0  0  0  0  0  0
   -3.5911    0.7481   -0.3384 O   0  0  0  0  0  0  0  0  0  0  0  0
   -3.5120   -1.3269    0.5861 O   0  0  0  0  0  0  0  0  0  0  0  0
    1.2847    0.0350   -0.2811 C   0  0  0  0  0  0  0  0  0  0  0  0
    0.4970    1.1693   -0.0844 C   0  0  0  0  0  0  0  0  0  0  0  0
    0.6894   -1.2247   -0.3470 C   0  0  0  0  0  0  0  0  0  0  0  0
   -1.4815   -0.2161   -0.0196 C   0  0  0  0  0  0  0  0  0  0  0  0
   -0.8860    1.0437    0.0465 C   0  0  0  0  0  0  0  0  0  0  0  0
   -0.6936   -1.3503   -0.2163 C   0  0  0  0  0  0  0  0  0  0  0  0
   -2.9234   -0.3478    0.1160 C   0  0  0  0  0  0  0  0  0  0  0  0
    3.3398    0.7334    0.6908 C   0  0  0  0  0  0  0  0  0  0  0  0
    0.1894    3.5122    0.1834 C   0  0  0  0  0  0  0  0  0  0  0  0
    1.9375   -2.9981    0.6292 C   0  0  0  0  0  0  0  0  0  0  0  0
   -1.5335    1.8965    0.2168 H   0  0  0  0  0  0  0  0  0  0  0  0
   -1.1493   -2.3363   -0.2723 H   0  0  0  0  0  0  0  0  0  0  0  0
    4.3223    0.2559    0.7493 H   0  0  0  0  0  0  0  0  0  0  0  0
    2.8242    0.5702    1.6438 H   0  0  0  0  0  0  0  0  0  0  0  0
    3.4930    1.8024    0.5186 H   0  0  0  0  0  0  0  0  0  0  0  0
   -0.3168    3.4541    1.1530 H   0  0  0  0  0  0  0  0  0  0  0  0
   -0.5118    3.6318   -0.6496 H   0  0  0  0  0  0  0  0  0  0  0  0
    0.8108    4.4137    0.2051 H   0  0  0  0  0  0  0  0  0  0  0  0
    1.1062   -3.3502    1.2482 H   0  0  0  0  0  0  0  0  0  0  0  0
    2.5805   -2.3290    1.2094 H   0  0  0  0  0  0  0  0  0  0  0  0
    2.5280   -3.8623    0.3128 H   0  0  0  0  0  0  0  0  0  0  0  0
   -4.5623    0.6497   -0.2418 H   0  0  0  0  0  0  0  0  0  0  0  0
  1  6  1  0  0  0  0
  1 13  1  0  0  0  0
  2  7  1  0  0  0  0
  2 14  1  0  0  0  0
  3  8  1  0  0  0  0
  3 15  1  0  0  0  0
  4 12  1  0  0  0  0
  4 27  1  0  0  0  0
  5 12  2  0  0  0  0
  6  7  2  0  0  0  0
  6  8  1  0  0  0  0
  7 10  1  0  0  0  0
  8 11  2  0  0  0  0
  9 10  2  0  0  0  0
  9 11  1  0  0  0  0
  9 12  1  0  0  0  0
 10 16  1  0  0  0  0
 11 17  1  0  0  0  0
 13 18  1  0  0  0  0
 13 19  1  0  0  0  0
 13 20  1  0  0  0  0
 14 21  1  0  0  0  0
 14 22  1  0  0  0  0
 14 23  1  0  0  0  0
 15 24  1  0  0  0  0
 15 25  1  0  0  0  0
 15 26  1  0  0  0  0
M  END
> <PUBCHEM_COMPOUND_CID>
8357

> <PUBCHEM_CONFORMER_RMSD>
0.6

> <PUBCHEM_CONFORMER_DIVERSEORDER>
5
4
6
2
3
7
1

> <PUBCHEM_MMFF94_PARTIAL_CHARGES>
18
1 -0.36
10 -0.15
11 -0.15
12 0.63
13 0.28
14 0.28
15 0.28
16 0.15
17 0.15
2 -0.36
27 0.5
3 -0.36
4 -0.65
5 -0.57
6 0.08
7 0.08
8 0.08
9 0.09

> <PUBCHEM_EFFECTIVE_ROTOR_COUNT>
4

> <PUBCHEM_PHARMACOPHORE_FEATURES>
7
1 1 acceptor
1 2 acceptor
1 3 acceptor
1 4 acceptor
1 5 acceptor
3 4 5 12 anion
6 6 7 8 9 10 11 rings

> <PUBCHEM_HEAVY_ATOM_COUNT>
15

> <PUBCHEM_ATOM_DEF_STEREO_COUNT>
0

> <PUBCHEM_ATOM_UDEF_STEREO_COUNT>
0

> <PUBCHEM_BOND_DEF_STEREO_COUNT>
0

> <PUBCHEM_BOND_UDEF_STEREO_COUNT>
0

> <PUBCHEM_ISOTOPIC_ATOM_COUNT>
0

> <PUBCHEM_COMPONENT_COUNT>
1

> <PUBCHEM_CACTVS_TAUTO_COUNT>
1

> <PUBCHEM_CONFORMER_ID>
000020A500000005

> <PUBCHEM_MMFF94_ENERGY>
72.3831

> <PUBCHEM_FEATURE_SELFOVERLAP>
35.588

> <PUBCHEM_SHAPE_FINGERPRINT>
1 1 18266175028844824631
10967382 1 18410011013739017661
10980938 120 18409445890653788711
12423570 1 10585929224495276804
13140716 1 18049720720251717475
13380536 305 18121488073068587444
161256 15 18190173667182038366
16945 1 18337951199387692039
193761 8 17977665643101703844
20511035 2 17697308525929019900
20588541 1 18342736308267076543
20645476 183 17699553759128093740
20711985 365 17907860952541540509
21501502 16 17977662335992599700
21524375 3 17756705239367830229
21650355 55 17046565206504471450
2334 1 17688590463920098959
23419403 2 15966048629739741208
23463225 33 18413111666979245418
23557571 272 17323230893807211462
2748010 2 18264768942277386893
3250762 1 17976548535177545512
34934 24 18336836371980404543
53812653 166 18334861601593835249
589210 1 17905609152907294240
7364860 26 18409164394291821343
81228 2 17616808173043702803

> <PUBCHEM_SHAPE_MULTIPOLES>
279.35
4.61
3.35
0.72
2.56
1.15
-0.04
-1.07
-0.67
-1.66
-0.37
-0.13
-0.12
0.17

> <PUBCHEM_SHAPE_SELFOVERLAP>
581.297

> <PUBCHEM_SHAPE_VOLUME>
160.6

> <PUBCHEM_COORDINATE_TYPE>
2
5
10

$$$$

