164933
  -OEChem-07051212503D

 33 35  0     1  0  0  0  0  0999 V2000
   -2.0130   -0.0852    1.0636 O   0  0  0  0  0  0  0  0  0  0  0  0
   -0.9708    2.3623   -1.3411 O   0  0  0  0  0  0  0  0  0  0  0  0
   -3.1818    2.5516    0.2444 O   0  0  0  0  0  0  0  0  0  0  0  0
   -3.8812   -2.1163    0.6176 O   0  0  0  0  0  0  0  0  0  0  0  0
   -1.1576   -2.1629   -0.0951 O   0  0  0  0  0  0  0  0  0  0  0  0
    3.4421   -2.5983   -0.4568 O   0  0  0  0  0  0  0  0  0  0  0  0
    3.9577    2.6241    0.4497 O   0  0  0  0  0  0  0  0  0  0  0  0
    0.1418   -0.2301    0.1689 N   0  0  0  0  0  0  0  0  0  0  0  0
    1.8228    1.5711    0.3893 N   0  0  0  0  0  0  0  0  0  0  0  0
    1.1310   -2.3703   -0.2729 N   0  0  0  0  0  0  0  0  0  0  0  0
    3.6469    0.2986    0.0509 N   0  0  0  0  0  0  0  0  0  0  0  0
   -0.9732    0.6453    0.3930 C   0  0  1  0  0  0  0  0  0  0  0  0
   -1.5744    1.1626   -0.9026 C   0  0  1  0  0  0  0  0  0  0  0  0
   -3.0265    1.3561   -0.5198 C   0  0  1  0  0  0  0  0  0  0  0  0
   -3.2729    0.1724    0.4056 C   0  0  1  0  0  0  0  0  0  0  0  0
   -3.6896   -1.0926   -0.3329 C   0  0  0  0  0  0  0  0  0  0  0  0
    1.4312    0.2707    0.1800 C   0  0  0  0  0  0  0  0  0  0  0  0
   -0.0503   -1.6210   -0.0671 C   0  0  0  0  0  0  0  0  0  0  0  0
    2.5226   -0.4719   -0.0191 C   0  0  0  0  0  0  0  0  0  0  0  0
    2.4483   -1.9068   -0.2713 C   0  0  0  0  0  0  0  0  0  0  0  0
    3.2469    1.6407    0.3157 C   0  0  0  0  0  0  0  0  0  0  0  0
   -0.6800    1.4584    1.0664 H   0  0  0  0  0  0  0  0  0  0  0  0
   -1.4989    0.4210   -1.7071 H   0  0  0  0  0  0  0  0  0  0  0  0
   -3.7051    1.4165   -1.3746 H   0  0  0  0  0  0  0  0  0  0  0  0
   -3.9990    0.4028    1.1936 H   0  0  0  0  0  0  0  0  0  0  0  0
   -2.9882   -1.4092   -1.1059 H   0  0  0  0  0  0  0  0  0  0  0  0
   -4.6505   -0.9168   -0.8299 H   0  0  0  0  0  0  0  0  0  0  0  0
   -0.0316    2.1737   -1.5066 H   0  0  0  0  0  0  0  0  0  0  0  0
   -2.6705    2.4714    1.0667 H   0  0  0  0  0  0  0  0  0  0  0  0
    1.2009    2.3505    0.5614 H   0  0  0  0  0  0  0  0  0  0  0  0
    1.0045   -3.3644   -0.4425 H   0  0  0  0  0  0  0  0  0  0  0  0
    4.5945   -0.0380   -0.0666 H   0  0  0  0  0  0  0  0  0  0  0  0
   -4.1748   -2.9074    0.1345 H   0  0  0  0  0  0  0  0  0  0  0  0
  1 12  1  0  0  0  0
  1 15  1  0  0  0  0
  2 13  1  0  0  0  0
  2 28  1  0  0  0  0
  3 14  1  0  0  0  0
  3 29  1  0  0  0  0
  4 16  1  0  0  0  0
  4 33  1  0  0  0  0
  5 18  2  0  0  0  0
  6 20  2  0  0  0  0
  7 21  2  0  0  0  0
  8 12  1  0  0  0  0
  8 17  1  0  0  0  0
  8 18  1  0  0  0  0
  9 17  1  0  0  0  0
  9 21  1  0  0  0  0
  9 30  1  0  0  0  0
 10 18  1  0  0  0  0
 10 20  1  0  0  0  0
 10 31  1  0  0  0  0
 11 19  1  0  0  0  0
 11 21  1  0  0  0  0
 11 32  1  0  0  0  0
 12 13  1  0  0  0  0
 12 22  1  0  0  0  0
 13 14  1  0  0  0  0
 13 23  1  0  0  0  0
 14 15  1  0  0  0  0
 14 24  1  0  0  0  0
 15 16  1  0  0  0  0
 15 25  1  0  0  0  0
 16 26  1  0  0  0  0
 16 27  1  0  0  0  0
 17 19  2  0  0  0  0
 19 20  1  0  0  0  0
M  END
> <PUBCHEM_COMPOUND_CID>
164933

> <PUBCHEM_CONFORMER_RMSD>
0.6

> <PUBCHEM_CONFORMER_DIVERSEORDER>
1
5
8
6
3
2
9
7
4

> <PUBCHEM_MMFF94_PARTIAL_CHARGES>
27
1 -0.56
10 -0.49
11 -0.54
12 0.58
13 0.28
14 0.28
15 0.28
16 0.28
17 0.22
18 0.69
19 0.12
2 -0.68
20 0.62
21 0.69
28 0.4
29 0.4
3 -0.68
30 0.37
31 0.37
32 0.37
33 0.4
4 -0.68
5 -0.57
6 -0.57
7 -0.57
8 -0.47
9 -0.54

> <PUBCHEM_EFFECTIVE_ROTOR_COUNT>
3

> <PUBCHEM_PHARMACOPHORE_FEATURES>
16
1 1 acceptor
1 10 donor
1 11 donor
1 2 acceptor
1 2 donor
1 3 acceptor
1 3 donor
1 4 acceptor
1 4 donor
1 5 acceptor
1 6 acceptor
1 7 acceptor
1 9 donor
5 1 12 13 14 15 rings
5 9 11 17 19 21 rings
6 8 10 17 18 19 20 rings

> <PUBCHEM_HEAVY_ATOM_COUNT>
21

> <PUBCHEM_ATOM_DEF_STEREO_COUNT>
4

> <PUBCHEM_ATOM_UDEF_STEREO_COUNT>
0

> <PUBCHEM_BOND_DEF_STEREO_COUNT>
0

> <PUBCHEM_BOND_UDEF_STEREO_COUNT>
0

> <PUBCHEM_ISOTOPIC_ATOM_COUNT>
0

> <PUBCHEM_COMPONENT_COUNT>
1

> <PUBCHEM_CACTVS_TAUTO_COUNT>
13

> <PUBCHEM_CONFORMER_ID>
0002844500000001

> <PUBCHEM_MMFF94_ENERGY>
75.7396

> <PUBCHEM_FEATURE_SELFOVERLAP>
81.395

> <PUBCHEM_SHAPE_FINGERPRINT>
10608611 8 18411702127052503177
10967382 1 18337673005771302658
11132069 177 18202567276335431997
12403259 226 18340490070599764774
12403260 363 18338812168531971618
12623949 98 17969759944177291423
12633257 1 18052259784584103835
12969540 114 17557720333017196981
13140716 1 18340486784954850451
14223421 5 18411135831404006363
14289901 80 18260833691504065721
14787075 74 17607526830400676761
15196674 1 18409729552058990299
15219456 202 18339923817684461577
15375462 6 18411982451009562191
16945 1 18266171747437088795
17492 89 18409449202142801731
18186145 218 18114454660489186232
19591789 44 18409728443983866742
19930381 70 18263929838891655137
20510252 161 18335137549296003729
21501502 16 18339644541799630219
21524375 3 18264774268569752722
221490 88 18410005563631799498
2334 1 18411702084303186359
23366157 5 18201999941431326474
23402539 116 18199200485715609399
23557571 272 17989208148719158461
23558518 356 18272646844575328835
23559900 14 18264495147040097290
238 59 17406873985667761757
2748010 2 18341332270509789311
2871803 45 18341619213565897847
3084891 72 16683175565187719366
335352 9 18049440640891451719
350125 39 18409725149722611282
5104073 3 18411418431603945299
6287921 2 18342444937728492532
7097593 13 17628378252167043202
7364860 26 18334575759252627834
74978 22 18264770054673922947
81228 2 17988633074125587283
8809292 202 18198336462728425531
9709674 26 18411134736103242170

> <PUBCHEM_SHAPE_MULTIPOLES>
371.16
7.09
3.07
0.82
0.19
0.16
0.08
-0.73
-0.49
0.93
0.27
-0.32
-0.2
0.95

> <PUBCHEM_SHAPE_SELFOVERLAP>
811.491

> <PUBCHEM_SHAPE_VOLUME>
197.4

> <PUBCHEM_COORDINATE_TYPE>
2
5
10

$$$$

