9604
  -OEChem-06261203513D

 12 12  0     0  0  0  0  0  0999 V2000
   -3.0682    0.0000   -0.0002 Cl  0  0  0  0  0  0  0  0  0  0  0  0
    2.7820   -0.0001    0.0000 F   0  0  0  0  0  0  0  0  0  0  0  0
   -1.3472    0.0000    0.0001 C   0  0  0  0  0  0  0  0  0  0  0  0
   -0.6498   -1.2079    0.0002 C   0  0  0  0  0  0  0  0  0  0  0  0
   -0.6497    1.2080    0.0002 C   0  0  0  0  0  0  0  0  0  0  0  0
    0.7451   -1.2079    0.0000 C   0  0  0  0  0  0  0  0  0  0  0  0
    0.7452    1.2080    0.0000 C   0  0  0  0  0  0  0  0  0  0  0  0
    1.4426    0.0000   -0.0002 C   0  0  0  0  0  0  0  0  0  0  0  0
   -1.1799   -2.1569    0.0002 H   0  0  0  0  0  0  0  0  0  0  0  0
   -1.1799    2.1569    0.0002 H   0  0  0  0  0  0  0  0  0  0  0  0
    1.2885   -2.1482    0.0000 H   0  0  0  0  0  0  0  0  0  0  0  0
    1.2886    2.1483    0.0000 H   0  0  0  0  0  0  0  0  0  0  0  0
  1  3  1  0  0  0  0
  2  8  1  0  0  0  0
  3  4  2  0  0  0  0
  3  5  1  0  0  0  0
  4  6  1  0  0  0  0
  4  9  1  0  0  0  0
  5  7  2  0  0  0  0
  5 10  1  0  0  0  0
  6  8  2  0  0  0  0
  6 11  1  0  0  0  0
  7  8  1  0  0  0  0
  7 12  1  0  0  0  0
M  END
> <PUBCHEM_COMPOUND_CID>
9604

> <PUBCHEM_CONFORMER_RMSD>
0.4

> <PUBCHEM_CONFORMER_DIVERSEORDER>
1

> <PUBCHEM_MMFF94_PARTIAL_CHARGES>
12
1 -0.18
10 0.15
11 0.15
12 0.15
2 -0.19
3 0.18
4 -0.15
5 -0.15
6 -0.15
7 -0.15
8 0.19
9 0.15

> <PUBCHEM_EFFECTIVE_ROTOR_COUNT>
0

> <PUBCHEM_PHARMACOPHORE_FEATURES>
1
6 3 4 5 6 7 8 rings

> <PUBCHEM_HEAVY_ATOM_COUNT>
8

> <PUBCHEM_ATOM_DEF_STEREO_COUNT>
0

> <PUBCHEM_ATOM_UDEF_STEREO_COUNT>
0

> <PUBCHEM_BOND_DEF_STEREO_COUNT>
0

> <PUBCHEM_BOND_UDEF_STEREO_COUNT>
0

> <PUBCHEM_ISOTOPIC_ATOM_COUNT>
0

> <PUBCHEM_COMPONENT_COUNT>
1

> <PUBCHEM_CACTVS_TAUTO_COUNT>
1

> <PUBCHEM_CONFORMER_ID>
0000258400000001

> <PUBCHEM_MMFF94_ENERGY>
14.0322

> <PUBCHEM_FEATURE_SELFOVERLAP>
5.074

> <PUBCHEM_SHAPE_FINGERPRINT>
16714656 1 18410572885792797734
18185500 45 18410015420423059535
21040471 1 18194402190985744389
23235685 24 18410859853906176813
23402655 69 18193575565344827069
23552423 10 18055626471940289502
2748010 2 18122342372096637511
29004967 10 18343577460564004353
5084963 1 18261110772639503185

> <PUBCHEM_SHAPE_MULTIPOLES>
159.23
3.31
1.36
0.61
1
0
0
0
0
-0.11
0
0.05
0
0

> <PUBCHEM_SHAPE_SELFOVERLAP>
321.925

> <PUBCHEM_SHAPE_VOLUME>
94.3

> <PUBCHEM_COORDINATE_TYPE>
2
5
10

$$$$

