54691339
  -OEChem-07051213032D

 70 71  0     1  0  0  0  0  0999 V2000
    7.1962    3.6825    0.0000 O   0  0  0  0  0  0  0  0  0  0  0  0
    9.5622    6.7806    0.0000 O   0  0  0  0  0  0  0  0  0  0  0  0
    6.3301    3.1825    0.0000 O   0  0  0  0  0  0  0  0  0  0  0  0
    9.7942    1.1825    0.0000 O   0  0  0  0  0  0  0  0  0  0  0  0
    8.0622    0.1825    0.0000 O   0  0  0  0  0  0  0  0  0  0  0  0
    5.4641    1.6825    0.0000 O   0  0  0  0  0  0  0  0  0  0  0  0
    8.9282    1.6825    0.0000 N   0  0  0  0  0  0  0  0  0  0  0  0
    8.0622    4.1825    0.0000 C   0  0  0  0  0  0  0  0  0  0  0  0
    9.0622    4.1825    0.0000 C   0  0  0  0  0  0  0  0  0  0  0  0
    7.5622    5.0485    0.0000 C   0  0  0  0  0  0  0  0  0  0  0  0
    8.0622    5.9146    0.0000 C   0  0  0  0  0  0  0  0  0  0  0  0
    9.5622    5.0485    0.0000 C   0  0  0  0  0  0  0  0  0  0  0  0
    9.0622    5.9146    0.0000 C   0  0  0  0  0  0  0  0  0  0  0  0
    8.0622    3.1825    0.0000 C   0  0  0  0  0  0  0  0  0  0  0  0
    7.1962    2.6825    0.0000 C   0  0  0  0  0  0  0  0  0  0  0  0
    8.9282    2.6825    0.0000 C   0  0  0  0  0  0  0  0  0  0  0  0
    7.1962    1.6825    0.0000 C   0  0  0  0  0  0  0  0  0  0  0  0
    2.8660   -5.8175    0.0000 C   0  0  1  0  0  0  0  0  0  0  0  0
    2.8660   -4.8175    0.0000 C   0  0  0  0  0  0  0  0  0  0  0  0
    8.0622    1.1825    0.0000 C   0  0  0  0  0  0  0  0  0  0  0  0
    3.7320   -4.3175    0.0000 C   0  0  1  0  0  0  0  0  0  0  0  0
    2.0000   -6.3175    0.0000 C   0  0  0  0  0  0  0  0  0  0  0  0
    6.3301    1.1825    0.0000 C   0  0  0  0  0  0  0  0  0  0  0  0
    3.7320   -6.3175    0.0000 C   0  0  0  0  0  0  0  0  0  0  0  0
    4.5981   -4.8175    0.0000 C   0  0  0  0  0  0  0  0  0  0  0  0
    3.7320   -3.3175    0.0000 C   0  0  0  0  0  0  0  0  0  0  0  0
    2.0000   -7.3175    0.0000 C   0  0  0  0  0  0  0  0  0  0  0  0
    4.5981   -2.8175    0.0000 C   0  0  0  0  0  0  0  0  0  0  0  0
    6.3301    0.1825    0.0000 C   0  0  0  0  0  0  0  0  0  0  0  0
    4.5981   -1.8175    0.0000 C   0  0  0  0  0  0  0  0  0  0  0  0
    5.4641   -0.3175    0.0000 C   0  0  0  0  0  0  0  0  0  0  0  0
    5.4641   -3.3175    0.0000 C   0  0  0  0  0  0  0  0  0  0  0  0
    5.4641   -1.3175    0.0000 C   0  0  0  0  0  0  0  0  0  0  0  0
    7.0872    5.4470    0.0000 H   0  0  0  0  0  0  0  0  0  0  0  0
    7.0872    4.6500    0.0000 H   0  0  0  0  0  0  0  0  0  0  0  0
    8.9545    3.5719    0.0000 H   0  0  0  0  0  0  0  0  0  0  0  0
    9.6448    3.9704    0.0000 H   0  0  0  0  0  0  0  0  0  0  0  0
   10.0371    4.6500    0.0000 H   0  0  0  0  0  0  0  0  0  0  0  0
   10.0371    5.4470    0.0000 H   0  0  0  0  0  0  0  0  0  0  0  0
    8.1698    6.5251    0.0000 H   0  0  0  0  0  0  0  0  0  0  0  0
    7.4796    6.1266    0.0000 H   0  0  0  0  0  0  0  0  0  0  0  0
    8.7522    6.4515    0.0000 H   0  0  0  0  0  0  0  0  0  0  0  0
    6.6592    3.9925    0.0000 H   0  0  0  0  0  0  0  0  0  0  0  0
    9.4651    2.9925    0.0000 H   0  0  0  0  0  0  0  0  0  0  0  0
    9.2522    7.3175    0.0000 H   0  0  0  0  0  0  0  0  0  0  0  0
    2.8660   -6.4375    0.0000 H   0  0  0  0  0  0  0  0  0  0  0  0
    2.6540   -4.2349    0.0000 H   0  0  0  0  0  0  0  0  0  0  0  0
    2.2554   -4.9252    0.0000 H   0  0  0  0  0  0  0  0  0  0  0  0
    3.7320   -4.9375    0.0000 H   0  0  0  0  0  0  0  0  0  0  0  0
    1.7880   -5.7349    0.0000 H   0  0  0  0  0  0  0  0  0  0  0  0
    1.3894   -6.4252    0.0000 H   0  0  0  0  0  0  0  0  0  0  0  0
    5.7932    2.8725    0.0000 H   0  0  0  0  0  0  0  0  0  0  0  0
    3.4220   -6.8544    0.0000 H   0  0  0  0  0  0  0  0  0  0  0  0
    4.2690   -6.6275    0.0000 H   0  0  0  0  0  0  0  0  0  0  0  0
    4.0420   -5.7806    0.0000 H   0  0  0  0  0  0  0  0  0  0  0  0
    4.2881   -5.3544    0.0000 H   0  0  0  0  0  0  0  0  0  0  0  0
    5.1350   -5.1275    0.0000 H   0  0  0  0  0  0  0  0  0  0  0  0
    4.9081   -4.2806    0.0000 H   0  0  0  0  0  0  0  0  0  0  0  0
    3.1951   -3.0075    0.0000 H   0  0  0  0  0  0  0  0  0  0  0  0
    1.3800   -7.3175    0.0000 H   0  0  0  0  0  0  0  0  0  0  0  0
    2.0000   -7.9375    0.0000 H   0  0  0  0  0  0  0  0  0  0  0  0
    2.6200   -7.3175    0.0000 H   0  0  0  0  0  0  0  0  0  0  0  0
   10.3312    1.4925    0.0000 H   0  0  0  0  0  0  0  0  0  0  0  0
    6.8671   -0.1275    0.0000 H   0  0  0  0  0  0  0  0  0  0  0  0
    4.0611   -1.5075    0.0000 H   0  0  0  0  0  0  0  0  0  0  0  0
    5.1541   -3.8544    0.0000 H   0  0  0  0  0  0  0  0  0  0  0  0
    6.0010   -3.6275    0.0000 H   0  0  0  0  0  0  0  0  0  0  0  0
    5.7741   -2.7806    0.0000 H   0  0  0  0  0  0  0  0  0  0  0  0
    4.9272   -0.0075    0.0000 H   0  0  0  0  0  0  0  0  0  0  0  0
    6.0010   -1.6275    0.0000 H   0  0  0  0  0  0  0  0  0  0  0  0
  1  8  1  0  0  0  0
  1 43  1  0  0  0  0
  2 13  1  0  0  0  0
  2 45  1  0  0  0  0
  3 15  1  0  0  0  0
  3 52  1  0  0  0  0
  4  7  1  0  0  0  0
  4 63  1  0  0  0  0
  5 20  2  0  0  0  0
  6 23  2  0  0  0  0
  7 16  1  0  0  0  0
  7 20  1  0  0  0  0
  8  9  1  0  0  0  0
  8 10  1  0  0  0  0
  8 14  1  0  0  0  0
  9 12  1  0  0  0  0
  9 36  1  0  0  0  0
  9 37  1  0  0  0  0
 10 11  1  0  0  0  0
 10 34  1  0  0  0  0
 10 35  1  0  0  0  0
 11 13  1  0  0  0  0
 11 40  1  0  0  0  0
 11 41  1  0  0  0  0
 12 13  1  0  0  0  0
 12 38  1  0  0  0  0
 12 39  1  0  0  0  0
 13 42  1  0  0  0  0
 14 15  1  0  0  0  0
 14 16  2  0  0  0  0
 15 17  2  0  0  0  0
 16 44  1  0  0  0  0
 17 20  1  0  0  0  0
 17 23  1  0  0  0  0
 18 19  1  0  0  0  0
 18 22  1  0  0  0  0
 18 24  1  6  0  0  0
 18 46  1  0  0  0  0
 19 21  1  0  0  0  0
 19 47  1  0  0  0  0
 19 48  1  0  0  0  0
 21 25  1  6  0  0  0
 21 26  1  0  0  0  0
 21 49  1  0  0  0  0
 22 27  1  0  0  0  0
 22 50  1  0  0  0  0
 22 51  1  0  0  0  0
 23 29  1  0  0  0  0
 24 53  1  0  0  0  0
 24 54  1  0  0  0  0
 24 55  1  0  0  0  0
 25 56  1  0  0  0  0
 25 57  1  0  0  0  0
 25 58  1  0  0  0  0
 26 28  2  0  0  0  0
 26 59  1  0  0  0  0
 27 60  1  0  0  0  0
 27 61  1  0  0  0  0
 27 62  1  0  0  0  0
 28 30  1  0  0  0  0
 28 32  1  0  0  0  0
 29 31  2  0  0  0  0
 29 64  1  0  0  0  0
 30 33  2  0  0  0  0
 30 65  1  0  0  0  0
 31 33  1  0  0  0  0
 31 69  1  0  0  0  0
 32 66  1  0  0  0  0
 32 67  1  0  0  0  0
 32 68  1  0  0  0  0
 33 70  1  0  0  0  0
M  END
> <PUBCHEM_COMPOUND_CID>
54691339

> <PUBCHEM_COMPOUND_CANONICALIZED>
1

> <PUBCHEM_CACTVS_COMPLEXITY>
887

> <PUBCHEM_CACTVS_HBOND_ACCEPTOR>
6

> <PUBCHEM_CACTVS_HBOND_DONOR>
4

> <PUBCHEM_CACTVS_ROTATABLE_BOND>
9

> <PUBCHEM_CACTVS_SUBSKEYS>
AAADcfB6OAAAAAAAAAAAAAAAAAAAAAAAAAAwQAAAAAAAAAAAAAAAHgAECAAADVThgAYCAAIQAgCIAqFWUACAAAAgIAAoCAEIAEgIFBoIgQAEQAAFwgAIkYPAwKAOAAAAAAAAAABCAAAAAAAAAAAAAAAAAA==

> <PUBCHEM_IUPAC_OPENEYE_NAME>
5-(1,4-dihydroxycyclohexyl)-1,4-dihydroxy-3-[(2E,4E,6E,8R,10R)-6,8,10-trimethyldodeca-2,4,6-trienoyl]pyridin-2-one

> <PUBCHEM_IUPAC_CAS_NAME>
5-(1,4-dihydroxycyclohexyl)-1,4-dihydroxy-3-[(2E,4E,6E,8R,10R)-6,8,10-trimethyl-1-oxododeca-2,4,6-trienyl]-2-pyridinone

> <PUBCHEM_IUPAC_NAME>
5-(1,4-dihydroxycyclohexyl)-1,4-dihydroxy-3-[(2E,4E,6E,8R,10R)-6,8,10-trimethyldodeca-2,4,6-trienoyl]pyridin-2-one

> <PUBCHEM_IUPAC_SYSTEMATIC_NAME>
5-[1,4-bis(oxidanyl)cyclohexyl]-1,4-bis(oxidanyl)-3-[(2E,4E,6E,8R,10R)-6,8,10-trimethyldodeca-2,4,6-trienoyl]pyridin-2-one

> <PUBCHEM_IUPAC_TRADITIONAL_NAME>
5-(1,4-dihydroxycyclohexyl)-1,4-dihydroxy-3-[(2E,4E,6E,8R,10R)-6,8,10-trimethyldodeca-2,4,6-trienoyl]-2-pyridone

> <PUBCHEM_IUPAC_INCHI>
InChI=1S/C26H37NO6/c1-5-17(2)14-19(4)15-18(3)8-6-7-9-22(29)23-24(30)21(16-27(33)25(23)31)26(32)12-10-20(28)11-13-26/h6-9,15-17,19-20,28,30,32-33H,5,10-14H2,1-4H3/b8-6+,9-7+,18-15+/t17-,19-,20?,26?/m1/s1

> <PUBCHEM_IUPAC_INCHIKEY>
TURMFSNDIZERMD-ZUOACUPQSA-N

> <PUBCHEM_XLOGP3_AA>
4.2

> <PUBCHEM_EXACT_MASS>
459.262088

> <PUBCHEM_MOLECULAR_FORMULA>
C26H37NO6

> <PUBCHEM_MOLECULAR_WEIGHT>
459.57508

> <PUBCHEM_OPENEYE_CAN_SMILES>
CCC(C)CC(C)C=C(C)C=CC=CC(=O)C1=C(C(=CN(C1=O)O)C2(CCC(CC2)O)O)O

> <PUBCHEM_OPENEYE_ISO_SMILES>
CC[C@@H](C)C[C@@H](C)/C=C(\C)/C=C/C=C/C(=O)C1=C(C(=CN(C1=O)O)C2(CCC(CC2)O)O)O

> <PUBCHEM_CACTVS_TPSA>
118

> <PUBCHEM_MONOISOTOPIC_WEIGHT>
459.262088

> <PUBCHEM_TOTAL_CHARGE>
0

> <PUBCHEM_HEAVY_ATOM_COUNT>
33

> <PUBCHEM_ATOM_DEF_STEREO_COUNT>
2

> <PUBCHEM_ATOM_UDEF_STEREO_COUNT>
0

> <PUBCHEM_BOND_DEF_STEREO_COUNT>
3

> <PUBCHEM_BOND_UDEF_STEREO_COUNT>
0

> <PUBCHEM_ISOTOPIC_ATOM_COUNT>
0

> <PUBCHEM_COMPONENT_COUNT>
1

> <PUBCHEM_CACTVS_TAUTO_COUNT>
4

> <PUBCHEM_COORDINATE_TYPE>
1
5
255

> <PUBCHEM_BONDANNOTATIONS>
14  15  8
14  16  8
15  17  8
17  20  8
18  24  6
21  25  6
7  16  8
7  20  8

$$$$

