11371
  -OEChem-06261205353D

 30 31  0     0  0  0  0  0  0999 V2000
   -3.4682   -2.3160   -0.6065 O   0  0  0  0  0  0  0  0  0  0  0  0
    3.4698   -2.3150    0.6057 O   0  0  0  0  0  0  0  0  0  0  0  0
   -1.4439   -1.9442   -1.5713 O   0  0  0  0  0  0  0  0  0  0  0  0
    1.4462   -1.9438    1.5719 O   0  0  0  0  0  0  0  0  0  0  0  0
    0.0003   -0.1640    0.0007 N   0  0  0  0  0  0  0  0  0  0  0  0
   -1.2750    0.4042    0.2172 C   0  0  0  0  0  0  0  0  0  0  0  0
    1.2698    0.4021   -0.2157 C   0  0  0  0  0  0  0  0  0  0  0  0
   -2.4328   -0.2571   -0.1929 C   0  0  0  0  0  0  0  0  0  0  0  0
    2.4335   -0.2564    0.1928 C   0  0  0  0  0  0  0  0  0  0  0  0
   -1.3671    1.6435    0.8509 C   0  0  0  0  0  0  0  0  0  0  0  0
    1.3666    1.6438   -0.8504 C   0  0  0  0  0  0  0  0  0  0  0  0
   -3.6824    0.3209    0.0308 C   0  0  0  0  0  0  0  0  0  0  0  0
    3.6828    0.3220   -0.0318 C   0  0  0  0  0  0  0  0  0  0  0  0
   -2.6168    2.2213    1.0747 C   0  0  0  0  0  0  0  0  0  0  0  0
    2.6160    2.2221   -1.0751 C   0  0  0  0  0  0  0  0  0  0  0  0
   -3.7743    1.5601    0.6646 C   0  0  0  0  0  0  0  0  0  0  0  0
    3.7739    1.5612   -0.6657 C   0  0  0  0  0  0  0  0  0  0  0  0
   -2.3707   -1.5528   -0.8574 C   0  0  0  0  0  0  0  0  0  0  0  0
    2.3723   -1.5520    0.8574 C   0  0  0  0  0  0  0  0  0  0  0  0
   -0.0012   -1.1795    0.0034 H   0  0  0  0  0  0  0  0  0  0  0  0
   -0.4861    2.1715    1.2050 H   0  0  0  0  0  0  0  0  0  0  0  0
    0.4857    2.1725   -1.2043 H   0  0  0  0  0  0  0  0  0  0  0  0
   -4.6027   -0.1617   -0.2881 H   0  0  0  0  0  0  0  0  0  0  0  0
    4.6034   -0.1602    0.2865 H   0  0  0  0  0  0  0  0  0  0  0  0
   -2.6891    3.1838    1.5729 H   0  0  0  0  0  0  0  0  0  0  0  0
    2.6876    3.1845   -1.5732 H   0  0  0  0  0  0  0  0  0  0  0  0
   -4.7470    2.0113    0.8374 H   0  0  0  0  0  0  0  0  0  0  0  0
    4.7464    2.0127   -0.8392 H   0  0  0  0  0  0  0  0  0  0  0  0
   -3.4186   -3.1861   -1.0568 H   0  0  0  0  0  0  0  0  0  0  0  0
    3.4208   -3.1851    1.0561 H   0  0  0  0  0  0  0  0  0  0  0  0
  1 18  1  0  0  0  0
  1 29  1  0  0  0  0
  2 19  1  0  0  0  0
  2 30  1  0  0  0  0
  3 18  2  0  0  0  0
  4 19  2  0  0  0  0
  5  6  1  0  0  0  0
  5  7  1  0  0  0  0
  5 20  1  0  0  0  0
  6  8  1  0  0  0  0
  6 10  2  0  0  0  0
  7  9  1  0  0  0  0
  7 11  2  0  0  0  0
  8 12  2  0  0  0  0
  8 18  1  0  0  0  0
  9 13  2  0  0  0  0
  9 19  1  0  0  0  0
 10 14  1  0  0  0  0
 10 21  1  0  0  0  0
 11 15  1  0  0  0  0
 11 22  1  0  0  0  0
 12 16  1  0  0  0  0
 12 23  1  0  0  0  0
 13 17  1  0  0  0  0
 13 24  1  0  0  0  0
 14 16  2  0  0  0  0
 14 25  1  0  0  0  0
 15 17  2  0  0  0  0
 15 26  1  0  0  0  0
 16 27  1  0  0  0  0
 17 28  1  0  0  0  0
M  END
> <PUBCHEM_COMPOUND_CID>
11371

> <PUBCHEM_CONFORMER_RMSD>
0.6

> <PUBCHEM_CONFORMER_DIVERSEORDER>
1
16
11
2
15
8
17
5
10
14
6
9
13
12
3
4
7

> <PUBCHEM_MMFF94_PARTIAL_CHARGES>
30
1 -0.65
10 -0.15
11 -0.15
12 -0.15
13 -0.15
14 -0.15
15 -0.15
16 -0.15
17 -0.15
18 0.63
19 0.63
2 -0.65
20 0.4
21 0.15
22 0.15
23 0.15
24 0.15
25 0.15
26 0.15
27 0.15
28 0.15
29 0.5
3 -0.57
30 0.5
4 -0.57
5 -0.6
6 0.1
7 0.1
8 0.09
9 0.09

> <PUBCHEM_EFFECTIVE_ROTOR_COUNT>
4

> <PUBCHEM_PHARMACOPHORE_FEATURES>
10
1 1 acceptor
1 2 acceptor
1 3 acceptor
1 4 acceptor
1 5 cation
1 5 donor
3 1 3 18 anion
3 2 4 19 anion
6 6 8 10 12 14 16 rings
6 7 9 11 13 15 17 rings

> <PUBCHEM_HEAVY_ATOM_COUNT>
19

> <PUBCHEM_ATOM_DEF_STEREO_COUNT>
0

> <PUBCHEM_ATOM_UDEF_STEREO_COUNT>
0

> <PUBCHEM_BOND_DEF_STEREO_COUNT>
0

> <PUBCHEM_BOND_UDEF_STEREO_COUNT>
0

> <PUBCHEM_ISOTOPIC_ATOM_COUNT>
0

> <PUBCHEM_COMPONENT_COUNT>
1

> <PUBCHEM_CACTVS_TAUTO_COUNT>
2

> <PUBCHEM_CONFORMER_ID>
00002C6B00000001

> <PUBCHEM_MMFF94_ENERGY>
77.2123

> <PUBCHEM_FEATURE_SELFOVERLAP>
50.859

> <PUBCHEM_SHAPE_FINGERPRINT>
10616163 171 18334290942248282599
10759866 29 18411694357541048037
11578080 2 18050605977141468452
11640471 11 18338785775757808804
12236239 1 18410854364917022921
12553582 1 17826804637863065103
12788726 201 18261111825534666875
13538477 17 18334297569387867397
13583140 156 17917418853014898569
14178342 30 18338251422065461634
14787075 74 17541387834340792300
15099037 8 18411144631860671579
15279307 12 18410569587104953030
15375462 189 18337105645123825939
15442244 35 18339642368625286736
15669948 3 18186522085860261629
16752209 62 17968105192146006591
17492 89 18410290315589818967
1813 80 17912638301027386166
19422 9 18410576188469979303
20645476 183 18410289207872384749
20715895 44 17762620990453177689
21634736 98 18411697695158047630
22445834 79 18341611542120999121
2255824 54 18201430411513829898
23557571 272 17604427388747538288
23559900 14 17676477402305326148
23598288 3 18261111842529757679
23598291 2 18412546547666484590
23598294 1 18113616755519947635
2748010 2 17041196312262403869
34934 24 18410575088958539913
352729 6 18187359995651975111
4340502 62 17632284667442139689
474 4 18059005082457803724
603831 33 18263650558537029559
633830 44 18200297837259672716
6992083 37 18266740383726951345
7097593 13 18267027330655631442
7364860 26 18340763836405506736
7615 1 18410584984562800132
77492 1 18410856563934906272
7832392 63 18410289246358551500
84936 182 18265049142124395816
90525 40 18261108599539077855
9981440 41 17690564087804452920

> <PUBCHEM_SHAPE_MULTIPOLES>
362.55
7.38
2.77
1.18
0
0.62
0
-0.62
0
0
0
0
0.23
-2.48

> <PUBCHEM_SHAPE_SELFOVERLAP>
788.336

> <PUBCHEM_SHAPE_VOLUME>
195.7

> <PUBCHEM_COORDINATE_TYPE>
2
5
10

$$$$

