443404
  -OEChem-07051213022D

 38 40  0     1  0  0  0  0  0999 V2000
    6.1342   -3.1692    0.0000 O   0  0  0  0  0  0  0  0  0  0  0  0
    1.8708    1.2392    0.0000 N   0  0  3  0  0  0  0  0  0  0  0  0
    3.9943    0.7210    0.0000 C   0  0  1  0  0  0  0  0  0  0  0  0
    4.4721    2.6695    0.0000 C   0  0  2  0  0  0  0  0  0  0  0  0
    3.7355    1.6869    0.0000 C   0  0  1  0  0  0  0  0  0  0  0  0
    2.2896   -0.3237    0.0000 C   0  0  0  0  0  0  0  0  0  0  0  0
    5.5295   -0.5222    0.0000 C   0  0  0  0  0  0  0  0  0  0  0  0
    6.3385    0.8791    0.0000 C   0  0  0  0  0  0  0  0  0  0  0  0
    1.5125    0.3056    0.0000 C   0  0  0  0  0  0  0  0  0  0  0  0
    6.4430   -0.1155    0.0000 C   0  0  0  0  0  0  0  0  0  0  0  0
    4.2531   -0.2450    0.0000 C   0  0  0  0  0  0  0  0  0  0  0  0
    4.9721    3.5355    0.0000 C   0  0  0  0  0  0  0  0  0  0  0  0
    1.3262    2.0779    0.0000 C   0  0  0  0  0  0  0  0  0  0  0  0
    5.4046   -1.5563    0.0000 C   0  0  0  0  0  0  0  0  0  0  0  0
    7.2950   -0.7146    0.0000 C   0  0  0  0  0  0  0  0  0  0  0  0
    6.2426   -2.1750    0.0000 C   0  0  0  0  0  0  0  0  0  0  0  0
    7.1942   -1.7514    0.0000 C   0  0  0  0  0  0  0  0  0  0  0  0
    3.9547    3.0110    0.0000 H   0  0  0  0  0  0  0  0  0  0  0  0
    3.5155    2.5079    0.0000 H   0  0  0  0  0  0  0  0  0  0  0  0
    2.6713   -0.8123    0.0000 H   0  0  0  0  0  0  0  0  0  0  0  0
    1.8474   -0.7582    0.0000 H   0  0  0  0  0  0  0  0  0  0  0  0
    6.4408    1.4906    0.0000 H   0  0  0  0  0  0  0  0  0  0  0  0
    6.9582    0.8602    0.0000 H   0  0  0  0  0  0  0  0  0  0  0  0
    1.1748   -0.2143    0.0000 H   0  0  0  0  0  0  0  0  0  0  0  0
    0.9601    0.5871    0.0000 H   0  0  0  0  0  0  0  0  0  0  0  0
    4.8520   -0.0845    0.0000 H   0  0  0  0  0  0  0  0  0  0  0  0
    4.4136   -0.8438    0.0000 H   0  0  0  0  0  0  0  0  0  0  0  0
    3.6543   -0.4054    0.0000 H   0  0  0  0  0  0  0  0  0  0  0  0
    4.4352    3.8455    0.0000 H   0  0  0  0  0  0  0  0  0  0  0  0
    5.2821    4.0724    0.0000 H   0  0  0  0  0  0  0  0  0  0  0  0
    5.5090    3.2255    0.0000 H   0  0  0  0  0  0  0  0  0  0  0  0
    0.8062    1.7402    0.0000 H   0  0  0  0  0  0  0  0  0  0  0  0
    0.9885    2.5979    0.0000 H   0  0  0  0  0  0  0  0  0  0  0  0
    1.8462    2.4156    0.0000 H   0  0  0  0  0  0  0  0  0  0  0  0
    4.8354   -1.8019    0.0000 H   0  0  0  0  0  0  0  0  0  0  0  0
    7.8585   -0.4559    0.0000 H   0  0  0  0  0  0  0  0  0  0  0  0
    7.6972   -2.1139    0.0000 H   0  0  0  0  0  0  0  0  0  0  0  0
    6.6344   -3.5355    0.0000 H   0  0  0  0  0  0  0  0  0  0  0  0
  1 16  1  0  0  0  0
  1 38  1  0  0  0  0
  2  5  1  0  0  0  0
  2  9  1  0  0  0  0
  2 13  1  0  0  0  0
  3  4  1  0  0  0  0
  3  6  1  0  0  0  0
  3  7  1  0  0  0  0
  3 11  1  1  0  0  0
  4  5  1  0  0  0  0
  4 12  1  6  0  0  0
  4 18  1  0  0  0  0
  5  8  1  0  0  0  0
  5 19  1  6  0  0  0
  6  9  1  0  0  0  0
  6 20  1  0  0  0  0
  6 21  1  0  0  0  0
  7 10  2  0  0  0  0
  7 14  1  0  0  0  0
  8 10  1  0  0  0  0
  8 22  1  0  0  0  0
  8 23  1  0  0  0  0
  9 24  1  0  0  0  0
  9 25  1  0  0  0  0
 10 15  1  0  0  0  0
 11 26  1  0  0  0  0
 11 27  1  0  0  0  0
 11 28  1  0  0  0  0
 12 29  1  0  0  0  0
 12 30  1  0  0  0  0
 12 31  1  0  0  0  0
 13 32  1  0  0  0  0
 13 33  1  0  0  0  0
 13 34  1  0  0  0  0
 14 16  2  0  0  0  0
 14 35  1  0  0  0  0
 15 17  2  0  0  0  0
 15 36  1  0  0  0  0
 16 17  1  0  0  0  0
 17 37  1  0  0  0  0
M  END
> <PUBCHEM_COMPOUND_CID>
443404

> <PUBCHEM_COMPOUND_CANONICALIZED>
1

> <PUBCHEM_CACTVS_COMPLEXITY>
305

> <PUBCHEM_CACTVS_HBOND_ACCEPTOR>
2

> <PUBCHEM_CACTVS_HBOND_DONOR>
1

> <PUBCHEM_CACTVS_ROTATABLE_BOND>
0

> <PUBCHEM_CACTVS_SUBSKEYS>
AAADceByIAAAAAAAAAAAAAAAAAAAAAAAAAA8YIAAAAAWAADBAAAAHgAACAAADyzBmAQyBoMAAgCAAiBCAAACAAAgIAAIiAAOCIgIJiKCkROEcAAkwBGImAeQwPAPoAABAAAQAADQAAaAACQAAAAAAAAAAA==

> <PUBCHEM_IUPAC_INCHI>
InChI=1S/C15H21NO/c1-10-14-8-11-4-5-12(17)9-13(11)15(10,2)6-7-16(14)3/h4-5,9-10,14,17H,6-8H2,1-3H3/t10-,14+,15+/m0/s1

> <PUBCHEM_IUPAC_INCHIKEY>
YGSVZRIZCHZUHB-COLVAYQJSA-N

> <PUBCHEM_XLOGP3>
1.8

> <PUBCHEM_EXACT_MASS>
231.162314

> <PUBCHEM_MOLECULAR_FORMULA>
C15H21NO

> <PUBCHEM_MOLECULAR_WEIGHT>
231.33334

> <PUBCHEM_OPENEYE_CAN_SMILES>
CC1C2CC3=C(C1(CCN2C)C)C=C(C=C3)O

> <PUBCHEM_OPENEYE_ISO_SMILES>
C[C@H]1[C@H]2CC3=C([C@@]1(CCN2C)C)C=C(C=C3)O

> <PUBCHEM_CACTVS_TPSA>
23.5

> <PUBCHEM_MONOISOTOPIC_WEIGHT>
231.162314

> <PUBCHEM_TOTAL_CHARGE>
0

> <PUBCHEM_HEAVY_ATOM_COUNT>
17

> <PUBCHEM_ATOM_DEF_STEREO_COUNT>
3

> <PUBCHEM_ATOM_UDEF_STEREO_COUNT>
0

> <PUBCHEM_BOND_DEF_STEREO_COUNT>
0

> <PUBCHEM_BOND_UDEF_STEREO_COUNT>
0

> <PUBCHEM_ISOTOPIC_ATOM_COUNT>
0

> <PUBCHEM_COMPONENT_COUNT>
1

> <PUBCHEM_CACTVS_TAUTO_COUNT>
3

> <PUBCHEM_COORDINATE_TYPE>
1
5
255

> <PUBCHEM_BONDANNOTATIONS>
10  15  8
14  16  8
15  17  8
16  17  8
3  11  5
4  12  6
5  19  6
7  10  8
7  14  8

$$$$

