443351
  -OEChem-07051213022D

 49 51  0     1  0  0  0  0  0999 V2000
    6.0010   -0.0600    0.0000 O   0  0  0  0  0  0  0  0  0  0  0  0
    5.1350   -1.5600    0.0000 O   0  0  0  0  0  0  0  0  0  0  0  0
    5.1350    1.4400    0.0000 O   0  0  0  0  0  0  0  0  0  0  0  0
    4.2690   -1.0600    0.0000 O   0  0  0  0  0  0  0  0  0  0  0  0
    2.5369   -0.0600    0.0000 O   0  0  0  0  0  0  0  0  0  0  0  0
    2.5369    1.9400    0.0000 O   0  0  0  0  0  0  0  0  0  0  0  0
    5.1350    3.4400    0.0000 O   0  0  0  0  0  0  0  0  0  0  0  0
    6.8671   -1.5600    0.0000 C   0  0  1  0  0  0  0  0  0  0  0  0
    6.8671   -2.5600    0.0000 C   0  0  2  0  0  0  0  0  0  0  0  0
    7.8133   -1.2553    0.0000 C   0  0  2  0  0  0  0  0  0  0  0  0
    7.8133   -2.8647    0.0000 C   0  0  0  0  0  0  0  0  0  0  0  0
    8.3969   -2.0600    0.0000 C   0  0  0  0  0  0  0  0  0  0  0  0
    6.0010   -1.0600    0.0000 C   0  0  2  0  0  0  0  0  0  0  0  0
    6.0010   -3.0600    0.0000 C   0  0  0  0  0  0  0  0  0  0  0  0
    8.1240   -0.3047    0.0000 C   0  0  0  0  0  0  0  0  0  0  0  0
    5.1350    0.4400    0.0000 C   0  0  2  0  0  0  0  0  0  0  0  0
    5.1350   -2.5600    0.0000 C   0  0  0  0  0  0  0  0  0  0  0  0
    4.2690   -0.0600    0.0000 C   0  0  1  0  0  0  0  0  0  0  0  0
    3.4030    0.4400    0.0000 C   0  0  2  0  0  0  0  0  0  0  0  0
    6.0010   -4.0600    0.0000 C   0  0  0  0  0  0  0  0  0  0  0  0
    3.4030    1.4400    0.0000 C   0  0  1  0  0  0  0  0  0  0  0  0
    4.2690    1.9400    0.0000 C   0  0  1  0  0  0  0  0  0  0  0  0
    4.2690    2.9400    0.0000 C   0  0  0  0  0  0  0  0  0  0  0  0
    6.9570   -0.7148    0.0000 H   0  0  0  0  0  0  0  0  0  0  0  0
    6.9570   -3.4052    0.0000 H   0  0  0  0  0  0  0  0  0  0  0  0
    7.3758   -0.8159    0.0000 H   0  0  0  0  0  0  0  0  0  0  0  0
    7.5622   -3.4316    0.0000 H   0  0  0  0  0  0  0  0  0  0  0  0
    8.3507   -3.1740    0.0000 H   0  0  0  0  0  0  0  0  0  0  0  0
    8.8578   -2.4747    0.0000 H   0  0  0  0  0  0  0  0  0  0  0  0
    8.8578   -1.6453    0.0000 H   0  0  0  0  0  0  0  0  0  0  0  0
    6.5380   -0.7500    0.0000 H   0  0  0  0  0  0  0  0  0  0  0  0
    8.7133   -0.4974    0.0000 H   0  0  0  0  0  0  0  0  0  0  0  0
    8.3166    0.2846    0.0000 H   0  0  0  0  0  0  0  0  0  0  0  0
    7.5346   -0.1121    0.0000 H   0  0  0  0  0  0  0  0  0  0  0  0
    5.1350   -0.1800    0.0000 H   0  0  0  0  0  0  0  0  0  0  0  0
    4.5981   -2.8700    0.0000 H   0  0  0  0  0  0  0  0  0  0  0  0
    4.8059   -0.3700    0.0000 H   0  0  0  0  0  0  0  0  0  0  0  0
    3.4030   -0.1800    0.0000 H   0  0  0  0  0  0  0  0  0  0  0  0
    5.3810   -4.0600    0.0000 H   0  0  0  0  0  0  0  0  0  0  0  0
    6.0010   -4.6800    0.0000 H   0  0  0  0  0  0  0  0  0  0  0  0
    6.6210   -4.0600    0.0000 H   0  0  0  0  0  0  0  0  0  0  0  0
    3.4030    2.0600    0.0000 H   0  0  0  0  0  0  0  0  0  0  0  0
    4.8059    2.2500    0.0000 H   0  0  0  0  0  0  0  0  0  0  0  0
    4.0569    3.5226    0.0000 H   0  0  0  0  0  0  0  0  0  0  0  0
    3.6584    2.8323    0.0000 H   0  0  0  0  0  0  0  0  0  0  0  0
    3.7320   -1.3700    0.0000 H   0  0  0  0  0  0  0  0  0  0  0  0
    2.0000    0.2500    0.0000 H   0  0  0  0  0  0  0  0  0  0  0  0
    2.5369    2.5600    0.0000 H   0  0  0  0  0  0  0  0  0  0  0  0
    5.1350    4.0600    0.0000 H   0  0  0  0  0  0  0  0  0  0  0  0
 13  1  1  1  0  0  0
 16  1  1  1  0  0  0
  2 13  1  0  0  0  0
  2 17  1  0  0  0  0
  3 16  1  0  0  0  0
  3 22  1  0  0  0  0
 18  4  1  6  0  0  0
  4 46  1  0  0  0  0
 19  5  1  1  0  0  0
  5 47  1  0  0  0  0
 21  6  1  6  0  0  0
  6 48  1  0  0  0  0
  7 23  1  0  0  0  0
  7 49  1  0  0  0  0
  8  9  1  0  0  0  0
  8 10  1  0  0  0  0
  8 13  1  0  0  0  0
  8 24  1  1  0  0  0
  9 11  1  0  0  0  0
  9 14  1  0  0  0  0
  9 25  1  1  0  0  0
 10 12  1  0  0  0  0
 10 15  1  1  0  0  0
 10 26  1  0  0  0  0
 11 12  1  0  0  0  0
 11 27  1  0  0  0  0
 11 28  1  0  0  0  0
 12 29  1  0  0  0  0
 12 30  1  0  0  0  0
 13 31  1  0  0  0  0
 14 17  2  0  0  0  0
 14 20  1  0  0  0  0
 15 32  1  0  0  0  0
 15 33  1  0  0  0  0
 15 34  1  0  0  0  0
 16 18  1  0  0  0  0
 16 35  1  0  0  0  0
 17 36  1  0  0  0  0
 18 19  1  0  0  0  0
 18 37  1  0  0  0  0
 19 21  1  0  0  0  0
 19 38  1  0  0  0  0
 20 39  1  0  0  0  0
 20 40  1  0  0  0  0
 20 41  1  0  0  0  0
 21 22  1  0  0  0  0
 21 42  1  0  0  0  0
 22 23  1  1  0  0  0
 22 43  1  0  0  0  0
 23 44  1  0  0  0  0
 23 45  1  0  0  0  0
M  END
> <PUBCHEM_COMPOUND_CID>
443351

> <PUBCHEM_COMPOUND_CANONICALIZED>
1

> <PUBCHEM_CACTVS_COMPLEXITY>
454

> <PUBCHEM_CACTVS_HBOND_ACCEPTOR>
7

> <PUBCHEM_CACTVS_HBOND_DONOR>
4

> <PUBCHEM_CACTVS_ROTATABLE_BOND>
3

> <PUBCHEM_CACTVS_SUBSKEYS>
AAADceB4OAAAAAAAAAAAAAAAAAAAAYAAAAAkQAAAAAAAAEAAAAAAGgAACAAADRSwgAMCCAAABgCAAgBCAAAACAAgIAAAAAAAAAgREAIAAQAiQAAFgAAHAAHA4OwOgAAAAAAAAAAAAAAAAAAAAQAACAAAAA==

> <PUBCHEM_IUPAC_OPENEYE_NAME>
(2S,3R,4S,5S,6R)-2-[[(1S,4aS,7S,7aR)-4,7-dimethyl-1,4a,5,6,7,7a-hexahydrocyclopenta[c]pyran-1-yl]oxy]-6-(hydroxymethyl)tetrahydropyran-3,4,5-triol

> <PUBCHEM_IUPAC_CAS_NAME>
(2S,3R,4S,5S,6R)-2-[[(1S,4aS,7S,7aR)-4,7-dimethyl-1,4a,5,6,7,7a-hexahydrocyclopenta[c]pyran-1-yl]oxy]-6-(hydroxymethyl)oxane-3,4,5-triol

> <PUBCHEM_IUPAC_NAME>
(2S,3R,4S,5S,6R)-2-[[(1S,4aS,7S,7aR)-4,7-dimethyl-1,4a,5,6,7,7a-hexahydrocyclopenta[c]pyran-1-yl]oxy]-6-(hydroxymethyl)oxane-3,4,5-triol

> <PUBCHEM_IUPAC_SYSTEMATIC_NAME>
(2S,3R,4S,5S,6R)-2-[[(1S,4aS,7S,7aR)-4,7-dimethyl-1,4a,5,6,7,7a-hexahydrocyclopenta[c]pyran-1-yl]oxy]-6-(hydroxymethyl)oxane-3,4,5-triol

> <PUBCHEM_IUPAC_TRADITIONAL_NAME>
(2S,3R,4S,5S,6R)-2-[[(1S,4aS,7S,7aR)-4,7-dimethyl-1,4a,5,6,7,7a-hexahydrocyclopenta[c]pyran-1-yl]oxy]-6-methylol-tetrahydropyran-3,4,5-triol

> <PUBCHEM_IUPAC_INCHI>
InChI=1S/C16H26O7/c1-7-3-4-9-8(2)6-21-15(11(7)9)23-16-14(20)13(19)12(18)10(5-17)22-16/h6-7,9-20H,3-5H2,1-2H3/t7-,9+,10+,11+,12+,13-,14+,15-,16-/m0/s1

> <PUBCHEM_IUPAC_INCHIKEY>
UKWQRDBDDIGHEQ-MDHPXLNESA-N

> <PUBCHEM_XLOGP3_AA>
0.3

> <PUBCHEM_EXACT_MASS>
330.167853

> <PUBCHEM_MOLECULAR_FORMULA>
C16H26O7

> <PUBCHEM_MOLECULAR_WEIGHT>
330.37344

> <PUBCHEM_OPENEYE_CAN_SMILES>
CC1CCC2C1C(OC=C2C)OC3C(C(C(C(O3)CO)O)O)O

> <PUBCHEM_OPENEYE_ISO_SMILES>
C[C@H]1CC[C@H]2[C@@H]1[C@@H](OC=C2C)O[C@H]3[C@@H]([C@H]([C@@H]([C@H](O3)CO)O)O)O

> <PUBCHEM_CACTVS_TPSA>
109

> <PUBCHEM_MONOISOTOPIC_WEIGHT>
330.167853

> <PUBCHEM_TOTAL_CHARGE>
0

> <PUBCHEM_HEAVY_ATOM_COUNT>
23

> <PUBCHEM_ATOM_DEF_STEREO_COUNT>
9

> <PUBCHEM_ATOM_UDEF_STEREO_COUNT>
0

> <PUBCHEM_BOND_DEF_STEREO_COUNT>
0

> <PUBCHEM_BOND_UDEF_STEREO_COUNT>
0

> <PUBCHEM_ISOTOPIC_ATOM_COUNT>
0

> <PUBCHEM_COMPONENT_COUNT>
1

> <PUBCHEM_CACTVS_TAUTO_COUNT>
1

> <PUBCHEM_COORDINATE_TYPE>
1
5
255

> <PUBCHEM_BONDANNOTATIONS>
13  1  5
16  1  5
10  15  5
22  23  5
18  4  6
19  5  5
21  6  6
8  24  5
9  25  5

$$$$

