17396420
  -OEChem-06241222563D

 34 35  0     0  0  0  0  0  0999 V2000
   -3.0067   -2.8471   -0.2598 Cl  0  0  0  0  0  0  0  0  0  0  0  0
    4.8455    0.7263   -0.5553 O   0  0  0  0  0  0  0  0  0  0  0  0
    0.6002    1.1049    0.0510 O   0  0  0  0  0  0  0  0  0  0  0  0
   -0.7516   -0.8131   -0.1043 N   0  0  0  0  0  0  0  0  0  0  0  0
    4.8483    0.5739    0.8258 N   0  0  0  0  0  0  0  0  0  0  0  0
    2.9621   -0.3546   -0.0498 C   0  0  0  0  0  0  0  0  0  0  0  0
    1.6467   -1.0609   -0.1523 C   0  0  0  0  0  0  0  0  0  0  0  0
    3.7173    0.1695   -1.0654 C   0  0  0  0  0  0  0  0  0  0  0  0
    3.7137   -0.0743    1.1044 C   0  0  0  0  0  0  0  0  0  0  0  0
    0.4618   -0.1096   -0.0542 C   0  0  0  0  0  0  0  0  0  0  0  0
   -2.0504   -0.2994   -0.0443 C   0  0  0  0  0  0  0  0  0  0  0  0
    3.5550    0.2449   -2.5233 C   0  0  0  0  0  0  0  0  0  0  0  0
    3.3898   -0.4078    2.5013 C   0  0  0  0  0  0  0  0  0  0  0  0
   -4.6150    0.7908    0.0858 C   0  0  0  0  0  0  0  0  0  0  0  0
   -3.1668   -1.1337   -0.1045 C   0  0  0  0  0  0  0  0  0  0  0  0
   -2.2165    1.0799    0.0813 C   0  0  0  0  0  0  0  0  0  0  0  0
   -4.4492   -0.5885   -0.0396 C   0  0  0  0  0  0  0  0  0  0  0  0
   -3.4986    1.6249    0.1463 C   0  0  0  0  0  0  0  0  0  0  0  0
   -5.9857    1.3742    0.1570 C   0  0  0  0  0  0  0  0  0  0  0  0
    1.5826   -1.5953   -1.1079 H   0  0  0  0  0  0  0  0  0  0  0  0
    1.5619   -1.8082    0.6458 H   0  0  0  0  0  0  0  0  0  0  0  0
   -0.6939   -1.8253   -0.1954 H   0  0  0  0  0  0  0  0  0  0  0  0
    2.4997    0.3450   -2.7959 H   0  0  0  0  0  0  0  0  0  0  0  0
    4.0890    1.1061   -2.9373 H   0  0  0  0  0  0  0  0  0  0  0  0
    3.9467   -0.6602   -2.9972 H   0  0  0  0  0  0  0  0  0  0  0  0
    3.4164   -1.4919    2.6518 H   0  0  0  0  0  0  0  0  0  0  0  0
    4.0967    0.0460    3.2040 H   0  0  0  0  0  0  0  0  0  0  0  0
    2.3881   -0.0506    2.7614 H   0  0  0  0  0  0  0  0  0  0  0  0
   -1.4131    1.7991    0.1351 H   0  0  0  0  0  0  0  0  0  0  0  0
   -5.3226   -1.2351   -0.0879 H   0  0  0  0  0  0  0  0  0  0  0  0
   -3.6164    2.7011    0.2424 H   0  0  0  0  0  0  0  0  0  0  0  0
   -6.3609    1.5757   -0.8512 H   0  0  0  0  0  0  0  0  0  0  0  0
   -6.6786    0.6915    0.6607 H   0  0  0  0  0  0  0  0  0  0  0  0
   -5.9894    2.3105    0.7254 H   0  0  0  0  0  0  0  0  0  0  0  0
  1 15  1  0  0  0  0
  2  5  1  0  0  0  0
  2  8  1  0  0  0  0
  3 10  2  0  0  0  0
  4 10  1  0  0  0  0
  4 11  1  0  0  0  0
  4 22  1  0  0  0  0
  5  9  2  0  0  0  0
  6  7  1  0  0  0  0
  6  8  2  0  0  0  0
  6  9  1  0  0  0  0
  7 10  1  0  0  0  0
  7 20  1  0  0  0  0
  7 21  1  0  0  0  0
  8 12  1  0  0  0  0
  9 13  1  0  0  0  0
 11 15  2  0  0  0  0
 11 16  1  0  0  0  0
 12 23  1  0  0  0  0
 12 24  1  0  0  0  0
 12 25  1  0  0  0  0
 13 26  1  0  0  0  0
 13 27  1  0  0  0  0
 13 28  1  0  0  0  0
 14 17  2  0  0  0  0
 14 18  1  0  0  0  0
 14 19  1  0  0  0  0
 15 17  1  0  0  0  0
 16 18  2  0  0  0  0
 16 29  1  0  0  0  0
 17 30  1  0  0  0  0
 18 31  1  0  0  0  0
 19 32  1  0  0  0  0
 19 33  1  0  0  0  0
 19 34  1  0  0  0  0
M  END
> <PUBCHEM_COMPOUND_CID>
17396420

> <PUBCHEM_CONFORMER_RMSD>
0.6

> <PUBCHEM_CONFORMER_DIVERSEORDER>
1
82
58
31
62
99
43
89
93
66
83
10
77
97
15
98
16
41
88
100
79
46
50
18
78
86
14
28
12
39
26
55
68
95
67
24
11
42
81
96
63
21
90
71
64
73
94
70
37
20
27
25
34
87
7
61
40
91
53
17
9
76
92
29
84
47
36
13
2
80
56
33
49
23
8
30
60
85
57
75
59
54
4
69
5
35
74
32
38
72
45
19
22
44
6
51
3
65
48
52

> <PUBCHEM_MMFF94_PARTIAL_CHARGES>
23
1 -0.18
10 0.57
11 0.12
12 0.18
13 0.18
14 -0.14
15 0.18
16 -0.15
17 -0.15
18 -0.15
19 0.14
2 -0.02
22 0.37
29 0.15
3 -0.57
30 0.15
31 0.15
4 -0.55
5 -0.41
6 -0.18
7 0.24
8 -0.04
9 0.11

> <PUBCHEM_EFFECTIVE_ROTOR_COUNT>
4

> <PUBCHEM_PHARMACOPHORE_FEATURES>
5
1 3 acceptor
1 4 donor
1 5 acceptor
5 2 5 6 8 9 rings
6 11 14 15 16 17 18 rings

> <PUBCHEM_HEAVY_ATOM_COUNT>
19

> <PUBCHEM_ATOM_DEF_STEREO_COUNT>
0

> <PUBCHEM_ATOM_UDEF_STEREO_COUNT>
0

> <PUBCHEM_BOND_DEF_STEREO_COUNT>
0

> <PUBCHEM_BOND_UDEF_STEREO_COUNT>
0

> <PUBCHEM_ISOTOPIC_ATOM_COUNT>
0

> <PUBCHEM_COMPONENT_COUNT>
1

> <PUBCHEM_CACTVS_TAUTO_COUNT>
2

> <PUBCHEM_CONFORMER_ID>
010972C400000001

> <PUBCHEM_MMFF94_ENERGY>
37.4163

> <PUBCHEM_FEATURE_SELFOVERLAP>
25.371

> <PUBCHEM_SHAPE_FINGERPRINT>
10366900 7 17167863084203138083
10912923 1 17704071772460097747
11552529 35 14129914535475190367
12107183 9 16768754828565087929
12236239 1 17989488515293424802
12390115 104 17897430917318111769
12403814 3 17632861949469370845
12596602 18 17561359582796458297
12616971 3 17346601858951373006
12730499 353 16443347546759781806
13167823 11 17846784013468387642
13533116 47 17677613236418977935
13675066 3 17531247218827684935
13760787 5 17131836451678976951
14386348 63 17603861191550706974
14573314 32 17168137970499757601
15242439 84 17603583040825916254
15375358 24 17967814955209165055
18186145 218 17458058270369621450
19050596 39 17918276437202326010
20511986 3 17917442994345463996
20645477 56 18408040728221386969
20645477 70 15936683865433107804
21033648 29 17168154420271857795
21065201 7 18333729113355184926
221357 26 16153425090500058584
22289505 5 16732983150337967728
23402539 116 18334021592649602589
23557571 272 17967811609445368167
23559900 14 18187359961150124006
23596394 208 16950554532442585142
268830 7 17703514298405245884
2838139 119 16486148335190156909
300161 21 18131357401097923013
3060560 45 15140680264001156116
34797466 226 17895185563390150261
3545911 37 18334573568333880375
474 4 16701163180597876068
495365 180 17240773925139928094
5104073 3 18271811176761721680
522135 26 14851606600642326188
5281201 14 16081361994804202936
542803 24 17917990576937308189
573450 72 18271817808360232571
90127 26 16443339888379315121

> <PUBCHEM_SHAPE_MULTIPOLES>
371.18
12.6
1.73
1.48
2.37
1
0.01
-3.52
0.4
2.72
-0.09
-3.18
-0.01
-0.6

> <PUBCHEM_SHAPE_SELFOVERLAP>
775.28

> <PUBCHEM_SHAPE_VOLUME>
211.9

> <PUBCHEM_COORDINATE_TYPE>
2
5
10

$$$$

