47205536
  -OEChem-06241222593D

 30 31  0     0  0  0  0  0  0999 V2000
   -6.1549   -1.1379   -0.2918 Br  0  0  0  0  0  0  0  0  0  0  0  0
    3.2674   -0.9063   -1.5432 O   0  0  0  0  0  0  0  0  0  0  0  0
    0.6824    0.8504    0.4037 O   0  0  0  0  0  0  0  0  0  0  0  0
    2.7088   -0.8904    0.7188 N   0  0  0  0  0  0  0  0  0  0  0  0
   -0.9285   -0.8632    0.3077 N   0  0  0  0  0  0  0  0  0  0  0  0
    4.8682   -0.0851   -0.0275 C   0  0  0  0  0  0  0  0  0  0  0  0
    5.2995    1.1884   -0.6937 C   0  0  0  0  0  0  0  0  0  0  0  0
    4.9253    1.1913    0.7595 C   0  0  0  0  0  0  0  0  0  0  0  0
    3.5382   -0.6689   -0.3719 C   0  0  0  0  0  0  0  0  0  0  0  0
    1.3897   -1.4416    0.6116 C   0  0  0  0  0  0  0  0  0  0  0  0
    0.3670   -0.3347    0.4305 C   0  0  0  0  0  0  0  0  0  0  0  0
   -2.1284   -0.1739    0.1290 C   0  0  0  0  0  0  0  0  0  0  0  0
   -3.3290   -0.8764    0.0261 C   0  0  0  0  0  0  0  0  0  0  0  0
   -2.1265    1.2190    0.0522 C   0  0  0  0  0  0  0  0  0  0  0  0
   -4.5278   -0.1864   -0.1533 C   0  0  0  0  0  0  0  0  0  0  0  0
   -3.3253    1.9091   -0.1275 C   0  0  0  0  0  0  0  0  0  0  0  0
   -4.5260    1.2066   -0.2300 C   0  0  0  0  0  0  0  0  0  0  0  0
    5.6467   -0.8184    0.1579 H   0  0  0  0  0  0  0  0  0  0  0  0
    4.6216    1.6711   -1.3871 H   0  0  0  0  0  0  0  0  0  0  0  0
    6.3476    1.2970   -0.9445 H   0  0  0  0  0  0  0  0  0  0  0  0
    5.7219    1.3000    1.4854 H   0  0  0  0  0  0  0  0  0  0  0  0
    4.0017    1.6863    1.0341 H   0  0  0  0  0  0  0  0  0  0  0  0
    3.0434   -0.6469    1.6466 H   0  0  0  0  0  0  0  0  0  0  0  0
    1.3406   -2.1256   -0.2418 H   0  0  0  0  0  0  0  0  0  0  0  0
    1.1742   -1.9889    1.5342 H   0  0  0  0  0  0  0  0  0  0  0  0
   -1.0137   -1.8765    0.3538 H   0  0  0  0  0  0  0  0  0  0  0  0
   -3.3280   -1.9628    0.0862 H   0  0  0  0  0  0  0  0  0  0  0  0
   -1.2396    1.8327    0.1226 H   0  0  0  0  0  0  0  0  0  0  0  0
   -3.3252    2.9937   -0.1875 H   0  0  0  0  0  0  0  0  0  0  0  0
   -5.4513    1.7596   -0.3696 H   0  0  0  0  0  0  0  0  0  0  0  0
  1 15  1  0  0  0  0
  2  9  2  0  0  0  0
  3 11  2  0  0  0  0
  4  9  1  0  0  0  0
  4 10  1  0  0  0  0
  4 23  1  0  0  0  0
  5 11  1  0  0  0  0
  5 12  1  0  0  0  0
  5 26  1  0  0  0  0
  6  7  1  0  0  0  0
  6  8  1  0  0  0  0
  6  9  1  0  0  0  0
  6 18  1  0  0  0  0
  7  8  1  0  0  0  0
  7 19  1  0  0  0  0
  7 20  1  0  0  0  0
  8 21  1  0  0  0  0
  8 22  1  0  0  0  0
 10 11  1  0  0  0  0
 10 24  1  0  0  0  0
 10 25  1  0  0  0  0
 12 13  2  0  0  0  0
 12 14  1  0  0  0  0
 13 15  1  0  0  0  0
 13 27  1  0  0  0  0
 14 16  2  0  0  0  0
 14 28  1  0  0  0  0
 15 17  2  0  0  0  0
 16 17  1  0  0  0  0
 16 29  1  0  0  0  0
 17 30  1  0  0  0  0
M  END
> <PUBCHEM_COMPOUND_CID>
47205536

> <PUBCHEM_CONFORMER_RMSD>
0.8

> <PUBCHEM_CONFORMER_DIVERSEORDER>
1
52
26
40
25
5
60
27
38
23
50
43
4
28
53
42
6
58
48
39
56
46
22
34
10
13
57
8
20
62
63
2
21
31
51
16
44
37
35
41
61
14
32
12
11
36
47
3
33
59
45
49
18
9
29
30
55
17
24
15
19
54
7

> <PUBCHEM_MMFF94_PARTIAL_CHARGES>
28
1 -0.11
10 0.36
11 0.57
12 0.12
13 -0.15
14 -0.15
15 0.11
16 -0.15
17 -0.15
18 0.1
19 0.1
2 -0.57
20 0.1
21 0.1
22 0.1
23 0.37
26 0.37
27 0.15
28 0.15
29 0.15
3 -0.57
30 0.15
4 -0.73
5 -0.55
6 -0.1
7 -0.2
8 -0.2
9 0.63

> <PUBCHEM_EFFECTIVE_ROTOR_COUNT>
6.6

> <PUBCHEM_PHARMACOPHORE_FEATURES>
6
1 1 hydrophobe
1 2 acceptor
1 3 acceptor
1 4 donor
1 5 donor
6 12 13 14 15 16 17 rings

> <PUBCHEM_HEAVY_ATOM_COUNT>
17

> <PUBCHEM_ATOM_DEF_STEREO_COUNT>
0

> <PUBCHEM_ATOM_UDEF_STEREO_COUNT>
0

> <PUBCHEM_BOND_DEF_STEREO_COUNT>
0

> <PUBCHEM_BOND_UDEF_STEREO_COUNT>
0

> <PUBCHEM_ISOTOPIC_ATOM_COUNT>
0

> <PUBCHEM_COMPONENT_COUNT>
1

> <PUBCHEM_CACTVS_TAUTO_COUNT>
4

> <PUBCHEM_CONFORMER_ID>
02D04CA000000001

> <PUBCHEM_MMFF94_ENERGY>
40.7894

> <PUBCHEM_FEATURE_SELFOVERLAP>
30.446

> <PUBCHEM_SHAPE_FINGERPRINT>
10014705 185 18202004378027080773
10498660 4 18339644550347704592
10912923 1 18271812366726066755
10968037 39 18413109438366121911
11089746 13 13183025094754196951
11128504 68 15213021527406343024
11287383 113 18260547818417527210
114248 4 18333450941134101459
11796584 16 10159698006113019816
12236239 1 17989210360579797451
12596602 18 16128370433529146104
12730499 353 17967530151938936798
12916748 109 18342453751016701027
13533116 47 16415212212430804872
13675066 3 10663811966928865010
14123238 8 18333731312240848549
14251718 22 18408323272296879175
14251732 16 18335985264160196779
14251758 9 9223237359892368283
14251764 18 17846502548241992002
14528608 73 18412825781060591796
15196674 1 18340207487305051529
15239154 128 18272650198744495684
15537594 2 4895556264102777309
15788980 27 12679460880607767731
17834072 33 18187087234525708525
17844677 252 18261667164098826656
1813 80 13767924615896093144
20300324 65 18410575102454903873
20645477 70 17458898344935960318
20871999 31 17894921680525728638
21267235 1 18410291368826802219
21315763 129 18410859871524318144
2215653 11 10519993659687591352
2297311 6 18040429993363540585
23016692 55 8790609251747720520
23272321 79 18343300353458400137
23402539 116 18342744009412600199
23557571 272 18333726922773923956
23559900 14 17973448990155398782
26918003 58 11455891364407047087
2916195 48 18411423886492303656
300161 21 17917436462285450647
34797466 226 17676480602013893300
351380 3 5112008330722916751
42 15 9799690402776909816
4325135 7 18410012104866465468
441001 317 18413107272974637025
4463277 17 18408885144709394449
465052 167 6338958884187396260
474 4 17417805119917705220
4990 188 18187081793129302510
5104073 3 18200593725845695393
5281201 14 17968650627285916276
5312625 73 18260833652670102921
542803 24 17530682130296938065
9971528 1 17346313839082878414

> <PUBCHEM_SHAPE_MULTIPOLES>
334.09
14.48
1.64
0.87
1.61
0.43
-0.14
1.1
-2.09
-0.68
0.01
0.73
-0.09
0.08

> <PUBCHEM_SHAPE_SELFOVERLAP>
677.989

> <PUBCHEM_SHAPE_VOLUME>
198.1

> <PUBCHEM_COORDINATE_TYPE>
2
5
10

$$$$

