456255
  -OEChem-07051212523D

 49 52  0     1  0  0  0  0  0999 V2000
    0.8318    0.2162    1.3520 S   0  0  0  0  0  0  0  0  0  0  0  0
   -3.6304    0.9342   -0.2773 S   0  0  0  0  0  0  0  0  0  0  0  0
    0.7253   -3.5768   -1.3341 O   0  0  0  0  0  0  0  0  0  0  0  0
   -2.7947   -3.4745    0.0008 O   0  0  0  0  0  0  0  0  0  0  0  0
    4.7254   -1.5133    1.0631 O   0  0  0  0  0  0  0  0  0  0  0  0
   -2.3847   -2.1793   -1.8388 O   0  0  0  0  0  0  0  0  0  0  0  0
    6.2764   -0.4824   -0.9692 O   0  0  0  0  0  0  0  0  0  0  0  0
   -0.0465   -2.0545    0.2931 N   0  0  0  0  0  0  0  0  0  0  0  0
    2.8736   -1.3413   -0.3266 N   0  0  0  0  0  0  0  0  0  0  0  0
   -6.0581    2.0766   -0.7339 N   0  0  0  0  0  0  0  0  0  0  0  0
   -6.0547    0.7110    0.9507 N   0  0  0  0  0  0  0  0  0  0  0  0
   -7.3131    2.0938   -0.2636 N   0  0  0  0  0  0  0  0  0  0  0  0
   -7.3051    1.2564    0.7663 N   0  0  0  0  0  0  0  0  0  0  0  0
    0.8833   -1.5898    1.3062 C   0  0  1  0  0  0  0  0  0  0  0  0
    1.9940   -2.2231    0.4400 C   0  0  1  0  0  0  0  0  0  0  0  0
    0.8269   -2.8186   -0.3981 C   0  0  0  0  0  0  0  0  0  0  0  0
   -1.3557   -1.6967    0.2490 C   0  0  0  0  0  0  0  0  0  0  0  0
   -1.8281   -0.6524    0.9704 C   0  0  0  0  0  0  0  0  0  0  0  0
   -0.9358    0.2654    1.8032 C   0  0  0  0  0  0  0  0  0  0  0  0
   -3.2802   -0.2442    1.0380 C   0  0  0  0  0  0  0  0  0  0  0  0
    4.1840   -1.0584    0.0576 C   0  0  0  0  0  0  0  0  0  0  0  0
   -2.2234   -2.4527   -0.6665 C   0  0  0  0  0  0  0  0  0  0  0  0
    4.9012   -0.1329   -0.9152 C   0  0  1  0  0  0  0  0  0  0  0  0
    4.7815    1.3144   -0.4993 C   0  0  0  0  0  0  0  0  0  0  0  0
   -5.3471    1.2404    0.0198 C   0  0  0  0  0  0  0  0  0  0  0  0
    3.7139    2.0669   -0.9614 C   0  0  0  0  0  0  0  0  0  0  0  0
    5.7411    1.8616    0.3369 C   0  0  0  0  0  0  0  0  0  0  0  0
    3.6031    3.4032   -0.5773 C   0  0  0  0  0  0  0  0  0  0  0  0
    5.6301    3.1980    0.7211 C   0  0  0  0  0  0  0  0  0  0  0  0
    4.5611    3.9687    0.2640 C   0  0  0  0  0  0  0  0  0  0  0  0
   -5.6953    2.8840   -1.8711 C   0  0  0  0  0  0  0  0  0  0  0  0
    0.7409   -2.0826    2.2753 H   0  0  0  0  0  0  0  0  0  0  0  0
    2.5552   -3.0081    0.9623 H   0  0  0  0  0  0  0  0  0  0  0  0
   -1.0376    0.0051    2.8626 H   0  0  0  0  0  0  0  0  0  0  0  0
   -1.2479    1.3083    1.6868 H   0  0  0  0  0  0  0  0  0  0  0  0
    2.5232   -0.9008   -1.1741 H   0  0  0  0  0  0  0  0  0  0  0  0
   -3.9333   -1.1168    0.9293 H   0  0  0  0  0  0  0  0  0  0  0  0
   -3.5069    0.1939    2.0168 H   0  0  0  0  0  0  0  0  0  0  0  0
    4.5039   -0.2622   -1.9290 H   0  0  0  0  0  0  0  0  0  0  0  0
   -3.3851   -4.0067   -0.5741 H   0  0  0  0  0  0  0  0  0  0  0  0
    6.3363   -1.3754   -1.3497 H   0  0  0  0  0  0  0  0  0  0  0  0
    2.9621    1.6357   -1.6161 H   0  0  0  0  0  0  0  0  0  0  0  0
    6.5748    1.2796    0.7183 H   0  0  0  0  0  0  0  0  0  0  0  0
    2.7702    4.0030   -0.9324 H   0  0  0  0  0  0  0  0  0  0  0  0
    6.3740    3.6378    1.3791 H   0  0  0  0  0  0  0  0  0  0  0  0
    4.4741    5.0088    0.5641 H   0  0  0  0  0  0  0  0  0  0  0  0
   -4.9107    3.5811   -1.5671 H   0  0  0  0  0  0  0  0  0  0  0  0
   -5.3424    2.2247   -2.6677 H   0  0  0  0  0  0  0  0  0  0  0  0
   -6.5696    3.4424   -2.2163 H   0  0  0  0  0  0  0  0  0  0  0  0
  1 14  1  0  0  0  0
  1 19  1  0  0  0  0
  2 20  1  0  0  0  0
  2 25  1  0  0  0  0
  3 16  2  0  0  0  0
  4 22  1  0  0  0  0
  4 40  1  0  0  0  0
  5 21  2  0  0  0  0
  6 22  2  0  0  0  0
  7 23  1  0  0  0  0
  7 41  1  0  0  0  0
  8 14  1  0  0  0  0
  8 16  1  0  0  0  0
  8 17  1  0  0  0  0
  9 15  1  0  0  0  0
  9 21  1  0  0  0  0
  9 36  1  0  0  0  0
 10 12  1  0  0  0  0
 10 25  1  0  0  0  0
 10 31  1  0  0  0  0
 11 13  1  0  0  0  0
 11 25  2  0  0  0  0
 12 13  2  0  0  0  0
 14 15  1  0  0  0  0
 14 32  1  0  0  0  0
 15 16  1  0  0  0  0
 15 33  1  0  0  0  0
 17 18  2  0  0  0  0
 17 22  1  0  0  0  0
 18 19  1  0  0  0  0
 18 20  1  0  0  0  0
 19 34  1  0  0  0  0
 19 35  1  0  0  0  0
 20 37  1  0  0  0  0
 20 38  1  0  0  0  0
 21 23  1  0  0  0  0
 23 24  1  0  0  0  0
 23 39  1  0  0  0  0
 24 26  2  0  0  0  0
 24 27  1  0  0  0  0
 26 28  1  0  0  0  0
 26 42  1  0  0  0  0
 27 29  2  0  0  0  0
 27 43  1  0  0  0  0
 28 30  2  0  0  0  0
 28 44  1  0  0  0  0
 29 30  1  0  0  0  0
 29 45  1  0  0  0  0
 30 46  1  0  0  0  0
 31 47  1  0  0  0  0
 31 48  1  0  0  0  0
 31 49  1  0  0  0  0
M  END
> <PUBCHEM_COMPOUND_CID>
456255

> <PUBCHEM_CONFORMER_RMSD>
1

> <PUBCHEM_CONFORMER_DIVERSEORDER>
1
83
155
40
178
159
133
92
162
74
145
186
81
141
167
46
112
131
160
77
165
136
36
128
149
54
116
109
113
118
173
182
35
142
119
51
146
14
174
144
99
65
56
31
97
79
151
17
137
150
102
168
180
45
91
139
111
125
34
183
176
86
25
68
107
12
101
161
89
177
175
124
164
100
132
21
140
67
55
172
185
64
61
71
163
114
181
105
170
84
58
171
16
78
134
153
121
130
76
42
80
75
110
188
39
120
93
44
129
70
106
20
95
5
2
158
43
38
166
108
48
85
143
88
82
169
152
59
15
69
22
8
73
27
41
184
115
66
18
52
19
154
53
103
87
135
127
63
147
32
90
179
123
30
156
138
47
33
9
148
98
6
104
37
13
24
122
29
7
57
11
3
23
28
94
60
187
157
10
49
4
96
62
126
72
117
50
26

> <PUBCHEM_MMFF94_PARTIAL_CHARGES>
38
1 -0.45
10 0.31
11 -0.34
12 -0.42
14 0.44
15 0.28
16 0.58
17 0.12
18 -0.28
19 0.37
2 -0.29
20 0.37
21 0.57
22 0.71
23 0.48
24 -0.14
25 0.24
26 -0.15
27 -0.15
28 -0.15
29 -0.15
3 -0.57
30 -0.15
31 0.26
36 0.37
4 -0.65
40 0.5
41 0.4
42 0.15
43 0.15
44 0.15
45 0.15
46 0.15
5 -0.57
6 -0.57
7 -0.68
8 -0.39
9 -0.65

> <PUBCHEM_EFFECTIVE_ROTOR_COUNT>
8.6

> <PUBCHEM_PHARMACOPHORE_FEATURES>
13
1 3 acceptor
1 4 acceptor
1 5 acceptor
1 6 acceptor
1 7 acceptor
1 7 donor
1 9 donor
3 10 11 25 cation
3 4 6 22 anion
4 8 14 15 16 rings
5 10 11 12 13 25 rings
6 1 8 14 17 18 19 rings
6 24 26 27 28 29 30 rings

> <PUBCHEM_HEAVY_ATOM_COUNT>
31

> <PUBCHEM_ATOM_DEF_STEREO_COUNT>
3

> <PUBCHEM_ATOM_UDEF_STEREO_COUNT>
0

> <PUBCHEM_BOND_DEF_STEREO_COUNT>
0

> <PUBCHEM_BOND_UDEF_STEREO_COUNT>
0

> <PUBCHEM_ISOTOPIC_ATOM_COUNT>
0

> <PUBCHEM_COMPONENT_COUNT>
1

> <PUBCHEM_CACTVS_TAUTO_COUNT>
2

> <PUBCHEM_CONFORMER_ID>
0006F63F00000001

> <PUBCHEM_MMFF94_ENERGY>
74.5688

> <PUBCHEM_FEATURE_SELFOVERLAP>
66.286

> <PUBCHEM_SHAPE_FINGERPRINT>
10673678 19 18408318904404757971
11070050 100 16200155412828093544
11315621 136 8286210457279780096
11456790 92 17846224401543046480
11621639 179 18272370923508635020
12422481 6 17775564225921600645
12633257 1 15267055900512715614
12925494 130 18341895143153831904
14117953 113 18334855078335084910
14739800 52 17631459024092951569
15082195 135 18120380014910041057
15347590 135 11599427063417989110
15510800 12 7132716110919706396
18335252 114 18339080505530823630
20511986 3 18115029598245112912
20715895 44 18408885127371321800
21033648 29 17846212212325678352
21298829 104 18339644430547751100
21716022 299 14781217085860882334
22122407 14 18270673276864122385
23559900 14 17749939017459014814
23569914 2 17270928001604526101
249057 3 18335698386505459670
25122255 55 6338948975945900685
2838139 119 18343028821589286983
3388396 114 16534547337268462996
3472631 163 18334572438683882110
552612 73 18337948975095819227
6898599 12 18115308860849683007

> <PUBCHEM_SHAPE_MULTIPOLES>
586.43
17.37
4.77
1.41
13.64
0.73
0.06
19.09
1.98
-1.72
1.32
0.67
-0.03
0.97

> <PUBCHEM_SHAPE_SELFOVERLAP>
1235.056

> <PUBCHEM_SHAPE_VOLUME>
331.7

> <PUBCHEM_COORDINATE_TYPE>
2
5
10

$$$$

