242664
  -OEChem-07051213062D

 35 36  0     0  0  0  0  0  0999 V2000
    2.8660   -3.4050    0.0000 O   0  0  0  0  0  0  0  0  0  0  0  0
    2.0000    1.0950    0.0000 O   0  0  0  0  0  0  0  0  0  0  0  0
    5.4641    4.0950    0.0000 O   0  0  0  0  0  0  0  0  0  0  0  0
    6.3301    2.5950    0.0000 O   0  0  0  0  0  0  0  0  0  0  0  0
    3.7320    1.0950    0.0000 N   0  0  0  0  0  0  0  0  0  0  0  0
    3.7320    0.0950    0.0000 C   0  0  0  0  0  0  0  0  0  0  0  0
    4.5981   -0.4050    0.0000 C   0  0  0  0  0  0  0  0  0  0  0  0
    4.5981   -1.4050    0.0000 C   0  0  0  0  0  0  0  0  0  0  0  0
    4.5981    1.5950    0.0000 C   0  0  0  0  0  0  0  0  0  0  0  0
    2.8660    1.5950    0.0000 C   0  0  0  0  0  0  0  0  0  0  0  0
    3.7320   -1.9050    0.0000 C   0  0  0  0  0  0  0  0  0  0  0  0
    5.4641   -1.9050    0.0000 C   0  0  0  0  0  0  0  0  0  0  0  0
    4.5981    2.5950    0.0000 C   0  0  0  0  0  0  0  0  0  0  0  0
    3.7320   -2.9050    0.0000 C   0  0  0  0  0  0  0  0  0  0  0  0
    2.8660    2.5950    0.0000 C   0  0  0  0  0  0  0  0  0  0  0  0
    3.7320    3.0950    0.0000 C   0  0  0  0  0  0  0  0  0  0  0  0
    5.4641   -2.9050    0.0000 C   0  0  0  0  0  0  0  0  0  0  0  0
    4.5981   -3.4050    0.0000 C   0  0  0  0  0  0  0  0  0  0  0  0
    5.4641    3.0950    0.0000 C   0  0  0  0  0  0  0  0  0  0  0  0
    2.8660   -4.4050    0.0000 C   0  0  0  0  0  0  0  0  0  0  0  0
    3.1215    0.2027    0.0000 H   0  0  0  0  0  0  0  0  0  0  0  0
    3.5200   -0.4876    0.0000 H   0  0  0  0  0  0  0  0  0  0  0  0
    5.2087   -0.5127    0.0000 H   0  0  0  0  0  0  0  0  0  0  0  0
    4.8101    0.1776    0.0000 H   0  0  0  0  0  0  0  0  0  0  0  0
    5.1350    1.2850    0.0000 H   0  0  0  0  0  0  0  0  0  0  0  0
    3.1951   -1.5950    0.0000 H   0  0  0  0  0  0  0  0  0  0  0  0
    6.0010   -1.5950    0.0000 H   0  0  0  0  0  0  0  0  0  0  0  0
    2.3291    2.9050    0.0000 H   0  0  0  0  0  0  0  0  0  0  0  0
    3.7320    3.7150    0.0000 H   0  0  0  0  0  0  0  0  0  0  0  0
    6.0010   -3.2150    0.0000 H   0  0  0  0  0  0  0  0  0  0  0  0
    4.5981   -4.0250    0.0000 H   0  0  0  0  0  0  0  0  0  0  0  0
    2.2460   -4.4050    0.0000 H   0  0  0  0  0  0  0  0  0  0  0  0
    2.8660   -5.0250    0.0000 H   0  0  0  0  0  0  0  0  0  0  0  0
    3.4860   -4.4050    0.0000 H   0  0  0  0  0  0  0  0  0  0  0  0
    6.0010    4.4050    0.0000 H   0  0  0  0  0  0  0  0  0  0  0  0
  1 14  1  0  0  0  0
  1 20  1  0  0  0  0
  2 10  2  0  0  0  0
  3 19  1  0  0  0  0
  3 35  1  0  0  0  0
  4 19  2  0  0  0  0
  5  6  1  0  0  0  0
  5  9  1  0  0  0  0
  5 10  1  0  0  0  0
  6  7  1  0  0  0  0
  6 21  1  0  0  0  0
  6 22  1  0  0  0  0
  7  8  1  0  0  0  0
  7 23  1  0  0  0  0
  7 24  1  0  0  0  0
  8 11  2  0  0  0  0
  8 12  1  0  0  0  0
  9 13  2  0  0  0  0
  9 25  1  0  0  0  0
 10 15  1  0  0  0  0
 11 14  1  0  0  0  0
 11 26  1  0  0  0  0
 12 17  2  0  0  0  0
 12 27  1  0  0  0  0
 13 16  1  0  0  0  0
 13 19  1  0  0  0  0
 14 18  2  0  0  0  0
 15 16  2  0  0  0  0
 15 28  1  0  0  0  0
 16 29  1  0  0  0  0
 17 18  1  0  0  0  0
 17 30  1  0  0  0  0
 18 31  1  0  0  0  0
 20 32  1  0  0  0  0
 20 33  1  0  0  0  0
 20 34  1  0  0  0  0
M  END
> <PUBCHEM_COMPOUND_CID>
242664

> <PUBCHEM_COMPOUND_CANONICALIZED>
1

> <PUBCHEM_CACTVS_COMPLEXITY>
441

> <PUBCHEM_CACTVS_HBOND_ACCEPTOR>
4

> <PUBCHEM_CACTVS_HBOND_DONOR>
1

> <PUBCHEM_CACTVS_ROTATABLE_BOND>
5

> <PUBCHEM_CACTVS_SUBSKEYS>
AAADccByOAAAAAAAAAAAAAAAAAAAAAAAAAAwQAAAAAAAAAABAAAAHgAACAAADATBmAYyDoMABgCIAiHWWACCCAAgIAAIiAEOCMgMJiKEsRuEcCAkxhGIuceQ0LIOAAABAAAAAAAAAAIAAAAAAAAAAAAAAA==

> <PUBCHEM_IUPAC_OPENEYE_NAME>
1-[2-(3-methoxyphenyl)ethyl]-6-oxo-pyridine-3-carboxylic acid

> <PUBCHEM_IUPAC_CAS_NAME>
1-[2-(3-methoxyphenyl)ethyl]-6-oxo-3-pyridinecarboxylic acid

> <PUBCHEM_IUPAC_NAME>
1-[2-(3-methoxyphenyl)ethyl]-6-oxopyridine-3-carboxylic acid

> <PUBCHEM_IUPAC_SYSTEMATIC_NAME>
1-[2-(3-methoxyphenyl)ethyl]-6-oxidanylidene-pyridine-3-carboxylic acid

> <PUBCHEM_IUPAC_TRADITIONAL_NAME>
6-keto-1-[2-(3-methoxyphenyl)ethyl]nicotinic acid

> <PUBCHEM_IUPAC_INCHI>
InChI=1S/C15H15NO4/c1-20-13-4-2-3-11(9-13)7-8-16-10-12(15(18)19)5-6-14(16)17/h2-6,9-10H,7-8H2,1H3,(H,18,19)

> <PUBCHEM_IUPAC_INCHIKEY>
DUZPHOXXWYWLFE-UHFFFAOYSA-N

> <PUBCHEM_XLOGP3_AA>
1.6

> <PUBCHEM_EXACT_MASS>
273.100108

> <PUBCHEM_MOLECULAR_FORMULA>
C15H15NO4

> <PUBCHEM_MOLECULAR_WEIGHT>
273.2839

> <PUBCHEM_OPENEYE_CAN_SMILES>
COC1=CC=CC(=C1)CCN2C=C(C=CC2=O)C(=O)O

> <PUBCHEM_OPENEYE_ISO_SMILES>
COC1=CC=CC(=C1)CCN2C=C(C=CC2=O)C(=O)O

> <PUBCHEM_CACTVS_TPSA>
66.8

> <PUBCHEM_MONOISOTOPIC_WEIGHT>
273.100108

> <PUBCHEM_TOTAL_CHARGE>
0

> <PUBCHEM_HEAVY_ATOM_COUNT>
20

> <PUBCHEM_ATOM_DEF_STEREO_COUNT>
0

> <PUBCHEM_ATOM_UDEF_STEREO_COUNT>
0

> <PUBCHEM_BOND_DEF_STEREO_COUNT>
0

> <PUBCHEM_BOND_UDEF_STEREO_COUNT>
0

> <PUBCHEM_ISOTOPIC_ATOM_COUNT>
0

> <PUBCHEM_COMPONENT_COUNT>
1

> <PUBCHEM_CACTVS_TAUTO_COUNT>
1

> <PUBCHEM_COORDINATE_TYPE>
1
5
255

> <PUBCHEM_BONDANNOTATIONS>
10  15  8
11  14  8
12  17  8
13  16  8
14  18  8
15  16  8
17  18  8
5  10  8
5  9  8
8  11  8
8  12  8
9  13  8

$$$$

