68111
  -OEChem-07051212593D

 30 32  0     0  0  0  0  0  0999 V2000
    2.0141   -2.6106   -0.0008 O   0  0  0  0  0  0  0  0  0  0  0  0
   -0.5145   -2.2469    0.0010 O   0  0  0  0  0  0  0  0  0  0  0  0
   -3.0639   -2.0793   -0.0012 O   0  0  0  0  0  0  0  0  0  0  0  0
   -0.0804    1.9005    0.0013 C   0  0  0  0  0  0  0  0  0  0  0  0
    1.1019    0.9711    0.0003 C   0  0  0  0  0  0  0  0  0  0  0  0
   -1.4296    1.2359    0.0004 C   0  0  0  0  0  0  0  0  0  0  0  0
    0.9609   -0.4207    0.0007 C   0  0  0  0  0  0  0  0  0  0  0  0
   -1.5797   -0.1549    0.0004 C   0  0  0  0  0  0  0  0  0  0  0  0
   -0.3869   -1.0290    0.0014 C   0  0  0  0  0  0  0  0  0  0  0  0
    2.3939    1.5201   -0.0002 C   0  0  0  0  0  0  0  0  0  0  0  0
    2.0910   -1.2491    0.0005 C   0  0  0  0  0  0  0  0  0  0  0  0
    3.5194    0.6959   -0.0007 C   0  0  0  0  0  0  0  0  0  0  0  0
   -2.5799    2.0404    0.0000 C   0  0  0  0  0  0  0  0  0  0  0  0
   -2.8567   -0.7314   -0.0002 C   0  0  0  0  0  0  0  0  0  0  0  0
    3.3674   -0.6878   -0.0003 C   0  0  0  0  0  0  0  0  0  0  0  0
   -3.8517    1.4670   -0.0007 C   0  0  0  0  0  0  0  0  0  0  0  0
   -3.9894    0.0819   -0.0010 C   0  0  0  0  0  0  0  0  0  0  0  0
    4.8841    1.2969   -0.0010 C   0  0  0  0  0  0  0  0  0  0  0  0
   -0.0136    2.5394   -0.8887 H   0  0  0  0  0  0  0  0  0  0  0  0
   -0.0138    2.5374    0.8927 H   0  0  0  0  0  0  0  0  0  0  0  0
    2.5157    2.6015   -0.0022 H   0  0  0  0  0  0  0  0  0  0  0  0
   -2.4883    3.1241    0.0002 H   0  0  0  0  0  0  0  0  0  0  0  0
    4.2415   -1.3349   -0.0027 H   0  0  0  0  0  0  0  0  0  0  0  0
   -4.7331    2.1016   -0.0013 H   0  0  0  0  0  0  0  0  0  0  0  0
   -4.9876   -0.3480   -0.0019 H   0  0  0  0  0  0  0  0  0  0  0  0
    5.2186    1.4687   -1.0289 H   0  0  0  0  0  0  0  0  0  0  0  0
    4.8950    2.2514    0.5362 H   0  0  0  0  0  0  0  0  0  0  0  0
    5.6061    0.6412    0.4975 H   0  0  0  0  0  0  0  0  0  0  0  0
    1.0912   -2.9043   -0.0011 H   0  0  0  0  0  0  0  0  0  0  0  0
   -4.0187   -2.2636   -0.0016 H   0  0  0  0  0  0  0  0  0  0  0  0
  1 11  1  0  0  0  0
  1 29  1  0  0  0  0
  2  9  2  0  0  0  0
  3 14  1  0  0  0  0
  3 30  1  0  0  0  0
  4  5  1  0  0  0  0
  4  6  1  0  0  0  0
  4 19  1  0  0  0  0
  4 20  1  0  0  0  0
  5  7  2  0  0  0  0
  5 10  1  0  0  0  0
  6  8  2  0  0  0  0
  6 13  1  0  0  0  0
  7  9  1  0  0  0  0
  7 11  1  0  0  0  0
  8  9  1  0  0  0  0
  8 14  1  0  0  0  0
 10 12  2  0  0  0  0
 10 21  1  0  0  0  0
 11 15  2  0  0  0  0
 12 15  1  0  0  0  0
 12 18  1  0  0  0  0
 13 16  2  0  0  0  0
 13 22  1  0  0  0  0
 14 17  2  0  0  0  0
 15 23  1  0  0  0  0
 16 17  1  0  0  0  0
 16 24  1  0  0  0  0
 17 25  1  0  0  0  0
 18 26  1  0  0  0  0
 18 27  1  0  0  0  0
 18 28  1  0  0  0  0
M  END
> <PUBCHEM_COMPOUND_CID>
68111

> <PUBCHEM_CONFORMER_RMSD>
0.4

> <PUBCHEM_CONFORMER_DIVERSEORDER>
1

> <PUBCHEM_MMFF94_PARTIAL_CHARGES>
25
1 -0.53
10 -0.15
11 0.08
12 -0.14
13 -0.15
14 0.08
15 -0.15
16 -0.15
17 -0.15
18 0.14
2 -0.57
21 0.15
22 0.15
23 0.15
24 0.15
25 0.15
29 0.45
3 -0.53
30 0.45
4 0.29
5 -0.14
6 -0.14
7 0.09
8 0.09
9 0.4

> <PUBCHEM_EFFECTIVE_ROTOR_COUNT>
0.2

> <PUBCHEM_PHARMACOPHORE_FEATURES>
6
1 1 donor
1 2 acceptor
1 3 donor
6 4 5 6 7 8 9 rings
6 5 7 10 11 12 15 rings
6 6 8 13 14 16 17 rings

> <PUBCHEM_HEAVY_ATOM_COUNT>
18

> <PUBCHEM_ATOM_DEF_STEREO_COUNT>
0

> <PUBCHEM_ATOM_UDEF_STEREO_COUNT>
0

> <PUBCHEM_BOND_DEF_STEREO_COUNT>
0

> <PUBCHEM_BOND_UDEF_STEREO_COUNT>
0

> <PUBCHEM_ISOTOPIC_ATOM_COUNT>
0

> <PUBCHEM_COMPONENT_COUNT>
1

> <PUBCHEM_CACTVS_TAUTO_COUNT>
189

> <PUBCHEM_CONFORMER_ID>
00010A0F00000001

> <PUBCHEM_MMFF94_ENERGY>
55.134

> <PUBCHEM_FEATURE_SELFOVERLAP>
30.487

> <PUBCHEM_SHAPE_FINGERPRINT>
10062212 137 18411429396613441523
10411042 1 17257653318749925542
10608611 8 18410858793065312829
10616163 171 18410290268254851919
10967382 1 18338799025752522277
10980938 120 18411699915439608498
11132069 177 18411422816728844737
11471102 20 18410296934228594748
12236239 1 17845939533690247440
12403814 3 17632582642971317637
13140716 1 18267580402178757051
13221675 6 18409730634131941788
13380535 76 18412263921970932306
138480 1 17834113422217608902
14144814 61 18411136960911723049
14790565 3 18339068286064776660
15196674 1 18410856572551097700
15219456 202 18410572920020706261
15442244 35 18122063366847571314
15536298 74 18334857259735190356
16945 1 18338797788796692261
17492 89 18411419535622556003
18186145 218 18263357152136038500
19591789 44 18193555567026991194
200 152 18041003921084637013
20510252 161 18261108582153779297
20645477 70 18262238940289247311
21267235 1 18410846668346210471
21421861 104 17843972669963508754
21501502 16 18410859901124378378
221490 88 18339352058980365778
2334 1 18410575101885152609
23366157 5 18059288894197299698
23402539 116 18336273340243204772
23402655 69 18334861644638720157
23463225 33 18340487867028256317
23557571 272 18187917335745254718
23559900 14 18262520424525870094
238 59 16188368901719023317
2748010 2 18410853308412856701
3312278 4 18408038502885288153
335352 9 17978511158636842869
34934 24 18411143549607793861
350125 39 18267017246046169961
3545911 37 18410854373554475797
474 4 17632007551483031940
4990 188 18040986363537925660
5104073 3 18411136956658837680
53812653 166 18334861610394980848
69090 78 18408889550860536885
7364860 26 18263362654485081774
8809292 202 18343015592863428275
9709674 26 18410006641510244390

> <PUBCHEM_SHAPE_MULTIPOLES>
352.82
7.59
2.47
0.6
1.8
0.76
0
-1.96
0
-0.2
0
0.01
-0.04
0

> <PUBCHEM_SHAPE_SELFOVERLAP>
792.556

> <PUBCHEM_SHAPE_VOLUME>
184.8

> <PUBCHEM_COORDINATE_TYPE>
2
5
10

$$$$

