439898
  -OEChem-07051212483D

 34 35  0     1  0  0  0  0  0999 V2000
   -0.0369   -2.3584    0.4196 O   0  0  0  0  0  0  0  0  0  0  0  0
    0.0542    2.3843    0.3001 O   0  0  0  0  0  0  0  0  0  0  0  0
   -2.4820    2.3868   -0.5171 O   0  0  0  0  0  0  0  0  0  0  0  0
   -3.7855    0.1034   -0.8017 O   0  0  0  0  0  0  0  0  0  0  0  0
   -1.9681   -1.1613   -0.0683 N   0  0  0  0  0  0  0  0  0  0  0  0
   -1.8757    1.1869   -0.1107 N   0  0  0  0  0  0  0  0  0  0  0  0
    0.0526    0.0178    0.7770 C   0  0  1  0  0  0  0  0  0  0  0  0
    1.4500   -0.0242    0.2256 C   0  0  0  0  0  0  0  0  0  0  0  0
    1.5699   -0.1261   -1.2749 C   0  0  0  0  0  0  0  0  0  0  0  0
    2.9772   -0.4922   -1.7536 C   0  0  0  0  0  0  0  0  0  0  0  0
    4.0404    0.2888   -0.9904 C   0  0  0  0  0  0  0  0  0  0  0  0
    3.9420    0.0255    0.5124 C   0  0  0  0  0  0  0  0  0  0  0  0
    2.5311    0.0278    1.0229 C   0  0  0  0  0  0  0  0  0  0  0  0
   -0.6319   -1.2783    0.3490 C   0  0  0  0  0  0  0  0  0  0  0  0
    0.0556    0.0504    2.3113 C   0  0  0  0  0  0  0  0  0  0  0  0
   -0.5603    1.3170    0.2888 C   0  0  0  0  0  0  0  0  0  0  0  0
   -2.6395    0.0498   -0.3471 C   0  0  0  0  0  0  0  0  0  0  0  0
   -2.6932   -2.3979   -0.3429 C   0  0  0  0  0  0  0  0  0  0  0  0
    0.8783   -0.8681   -1.6875 H   0  0  0  0  0  0  0  0  0  0  0  0
    1.2939    0.8395   -1.7169 H   0  0  0  0  0  0  0  0  0  0  0  0
    3.1444   -1.5677   -1.6125 H   0  0  0  0  0  0  0  0  0  0  0  0
    3.0644   -0.2950   -2.8282 H   0  0  0  0  0  0  0  0  0  0  0  0
    3.9132    1.3614   -1.1851 H   0  0  0  0  0  0  0  0  0  0  0  0
    5.0396    0.0167   -1.3487 H   0  0  0  0  0  0  0  0  0  0  0  0
    4.5237    0.7866    1.0450 H   0  0  0  0  0  0  0  0  0  0  0  0
    4.3926   -0.9461    0.7483 H   0  0  0  0  0  0  0  0  0  0  0  0
    2.4677    0.0821    2.1032 H   0  0  0  0  0  0  0  0  0  0  0  0
   -0.9776    0.0570    2.6847 H   0  0  0  0  0  0  0  0  0  0  0  0
    0.5266   -0.8352    2.7552 H   0  0  0  0  0  0  0  0  0  0  0  0
    0.5233    0.9553    2.7185 H   0  0  0  0  0  0  0  0  0  0  0  0
   -3.7651   -2.2673   -0.1693 H   0  0  0  0  0  0  0  0  0  0  0  0
   -2.3267   -3.2147    0.2854 H   0  0  0  0  0  0  0  0  0  0  0  0
   -2.5333   -2.6580   -1.3939 H   0  0  0  0  0  0  0  0  0  0  0  0
   -2.9026    2.6610    0.3158 H   0  0  0  0  0  0  0  0  0  0  0  0
  1 14  2  0  0  0  0
  2 16  2  0  0  0  0
  3  6  1  0  0  0  0
  3 34  1  0  0  0  0
  4 17  2  0  0  0  0
  5 14  1  0  0  0  0
  5 17  1  0  0  0  0
  5 18  1  0  0  0  0
  6 16  1  0  0  0  0
  6 17  1  0  0  0  0
  7  8  1  0  0  0  0
  7 14  1  0  0  0  0
  7 15  1  0  0  0  0
  7 16  1  0  0  0  0
  8  9  1  0  0  0  0
  8 13  2  0  0  0  0
  9 10  1  0  0  0  0
  9 19  1  0  0  0  0
  9 20  1  0  0  0  0
 10 11  1  0  0  0  0
 10 21  1  0  0  0  0
 10 22  1  0  0  0  0
 11 12  1  0  0  0  0
 11 23  1  0  0  0  0
 11 24  1  0  0  0  0
 12 13  1  0  0  0  0
 12 25  1  0  0  0  0
 12 26  1  0  0  0  0
 13 27  1  0  0  0  0
 15 28  1  0  0  0  0
 15 29  1  0  0  0  0
 15 30  1  0  0  0  0
 18 31  1  0  0  0  0
 18 32  1  0  0  0  0
 18 33  1  0  0  0  0
M  END
> <PUBCHEM_COMPOUND_CID>
439898

> <PUBCHEM_CONFORMER_RMSD>
0.6

> <PUBCHEM_CONFORMER_DIVERSEORDER>
1
4
3
5
2

> <PUBCHEM_MMFF94_PARTIAL_CHARGES>
17
1 -0.57
12 0.14
13 -0.29
14 0.57
16 0.57
17 0.69
18 0.3
2 -0.57
27 0.15
3 -0.44
34 0.4
4 -0.57
5 -0.42
6 -0.08
7 0.26
8 -0.28
9 0.14

> <PUBCHEM_EFFECTIVE_ROTOR_COUNT>
2.4

> <PUBCHEM_PHARMACOPHORE_FEATURES>
5
1 1 acceptor
1 2 acceptor
1 4 acceptor
6 5 6 7 14 16 17 rings
6 8 9 10 11 12 13 rings

> <PUBCHEM_HEAVY_ATOM_COUNT>
18

> <PUBCHEM_ATOM_DEF_STEREO_COUNT>
0

> <PUBCHEM_ATOM_UDEF_STEREO_COUNT>
1

> <PUBCHEM_BOND_DEF_STEREO_COUNT>
0

> <PUBCHEM_BOND_UDEF_STEREO_COUNT>
0

> <PUBCHEM_ISOTOPIC_ATOM_COUNT>
0

> <PUBCHEM_COMPONENT_COUNT>
1

> <PUBCHEM_CACTVS_TAUTO_COUNT>
1

> <PUBCHEM_CONFORMER_ID>
0006B65A00000001

> <PUBCHEM_MMFF94_ENERGY>
31.809

> <PUBCHEM_FEATURE_SELFOVERLAP>
25.371

> <PUBCHEM_SHAPE_FINGERPRINT>
10062212 137 18059867202420736138
11315181 36 17988636377693994052
11640471 11 17489295387467447788
12119455 92 13830140463809938002
12138202 97 18334858359157167046
12236239 1 17632584859416775354
12491281 212 17988637515026896968
13140716 1 18267304231992987713
13299463 15 18041268963321196918
14614273 12 18200882897414518245
14817 1 17761263981974786977
15219456 202 17749111045872782490
15502708 8 18410290298435407647
15775835 57 17418093221707103076
16945 1 18410855469018757347
18186145 218 18041558160612325432
19765921 60 17561366222583789009
19868273 293 18272083916049121646
20201158 50 17748825211409554694
20645476 183 17703790297283225795
20871999 31 18409724032624789813
21524375 3 17772748505418155076
22802520 49 18114455759906102430
2334 1 17979645528815220337
23402539 116 18410022013572334078
23419403 2 17459485350452080184
23526113 38 17676497145890138522
23557571 272 18262801744245259906
23559900 14 18261395602840285654
2748010 2 18051428275016250075
74978 22 16127795384800031742
77492 1 17632584859353478346
81228 2 18261377992736121600
84936 31 16952543368557392176
9981440 41 17197407838385220936

> <PUBCHEM_SHAPE_MULTIPOLES>
336.99
5.87
2.03
1.45
2.4
0.09
0.35
-0.45
-2.17
-1.99
-0.12
0.82
-0.03
0.34

> <PUBCHEM_SHAPE_SELFOVERLAP>
712.756

> <PUBCHEM_SHAPE_VOLUME>
186.4

> <PUBCHEM_COORDINATE_TYPE>
2
5
10

$$$$

