442684
  -OEChem-07051212593D

 66 71  0     1  0  0  0  0  0999 V2000
    4.2129   -0.4116   -0.8745 O   0  0  0  0  0  0  0  0  0  0  0  0
   -3.2666   -0.5517   -0.3800 O   0  0  0  0  0  0  0  0  0  0  0  0
    2.1990    1.3412    1.7003 O   0  0  0  0  0  0  0  0  0  0  0  0
   -4.9280    0.4104    2.7824 O   0  0  0  0  0  0  0  0  0  0  0  0
    0.1510   -0.3656    3.0365 O   0  0  0  0  0  0  0  0  0  0  0  0
    1.2374   -1.4415   -1.4953 O   0  0  0  0  0  0  0  0  0  0  0  0
    4.9345   -4.9770   -1.8585 O   0  0  0  0  0  0  0  0  0  0  0  0
    6.5077    5.3685   -0.4030 O   0  0  0  0  0  0  0  0  0  0  0  0
   -6.9578    2.7952   -1.7846 O   0  0  0  0  0  0  0  0  0  0  0  0
   -9.1139    1.0427   -1.8681 O   0  0  0  0  0  0  0  0  0  0  0  0
    2.1746   -1.0472    1.1737 C   0  0  1  0  0  0  0  0  0  0  0  0
    2.9662    0.2772    1.1475 C   0  0  1  0  0  0  0  0  0  0  0  0
    3.4145    0.6226   -0.2798 C   0  0  1  0  0  0  0  0  0  0  0  0
    0.7099   -0.9039    0.7812 C   0  0  0  0  0  0  0  0  0  0  0  0
    2.9173   -2.0832    0.3587 C   0  0  0  0  0  0  0  0  0  0  0  0
   -1.5909   -0.4245    1.3893 C   0  0  0  0  0  0  0  0  0  0  0  0
   -2.6019   -0.0593    2.4335 C   0  0  0  0  0  0  0  0  0  0  0  0
   -3.9020    0.4223    1.7953 C   0  0  1  0  0  0  0  0  0  0  0  0
   -0.2419   -0.5632    1.7425 C   0  0  0  0  0  0  0  0  0  0  0  0
   -4.2781   -0.5157    0.6396 C   0  0  1  0  0  0  0  0  0  0  0  0
    3.8627   -1.7059   -0.6031 C   0  0  0  0  0  0  0  0  0  0  0  0
   -1.9760   -0.6585    0.0647 C   0  0  0  0  0  0  0  0  0  0  0  0
    0.3217   -1.1124   -0.5401 C   0  0  0  0  0  0  0  0  0  0  0  0
    4.2437    1.8953   -0.3133 C   0  0  0  0  0  0  0  0  0  0  0  0
   -1.0194   -0.9879   -0.8994 C   0  0  0  0  0  0  0  0  0  0  0  0
    2.6555   -3.4487    0.5576 C   0  0  0  0  0  0  0  0  0  0  0  0
   -5.5719   -0.0950   -0.0326 C   0  0  0  0  0  0  0  0  0  0  0  0
    4.5411   -2.6812   -1.3410 C   0  0  0  0  0  0  0  0  0  0  0  0
    3.3290   -4.4173   -0.1860 C   0  0  0  0  0  0  0  0  0  0  0  0
    3.8189    2.9807   -1.0758 C   0  0  0  0  0  0  0  0  0  0  0  0
    5.4256    1.9715    0.4197 C   0  0  0  0  0  0  0  0  0  0  0  0
    4.2727   -4.0334   -1.1346 C   0  0  0  0  0  0  0  0  0  0  0  0
   -5.6761    1.1699   -0.6071 C   0  0  0  0  0  0  0  0  0  0  0  0
   -6.6508   -0.9752   -0.0729 C   0  0  0  0  0  0  0  0  0  0  0  0
    4.5805    4.1490   -1.1058 C   0  0  0  0  0  0  0  0  0  0  0  0
    6.1871    3.1398    0.3900 C   0  0  0  0  0  0  0  0  0  0  0  0
    5.7646    4.2286   -0.3729 C   0  0  0  0  0  0  0  0  0  0  0  0
   -6.8653    1.5564   -1.2254 C   0  0  0  0  0  0  0  0  0  0  0  0
   -7.8401   -0.5886   -0.6909 C   0  0  0  0  0  0  0  0  0  0  0  0
   -7.9473    0.6771   -1.2672 C   0  0  0  0  0  0  0  0  0  0  0  0
    2.2017   -1.4065    2.2130 H   0  0  0  0  0  0  0  0  0  0  0  0
    3.8503    0.1432    1.7853 H   0  0  0  0  0  0  0  0  0  0  0  0
    2.5368    0.7796   -0.9187 H   0  0  0  0  0  0  0  0  0  0  0  0
   -2.7900   -0.9306    3.0739 H   0  0  0  0  0  0  0  0  0  0  0  0
   -2.2351    0.7458    3.0822 H   0  0  0  0  0  0  0  0  0  0  0  0
   -3.7671    1.4533    1.4473 H   0  0  0  0  0  0  0  0  0  0  0  0
   -4.4024   -1.5392    1.0216 H   0  0  0  0  0  0  0  0  0  0  0  0
   -1.3285   -1.1521   -1.9292 H   0  0  0  0  0  0  0  0  0  0  0  0
    1.9235   -3.7645    1.2971 H   0  0  0  0  0  0  0  0  0  0  0  0
    1.9941    1.1049    2.6210 H   0  0  0  0  0  0  0  0  0  0  0  0
    5.2812   -2.3857   -2.0814 H   0  0  0  0  0  0  0  0  0  0  0  0
    3.1093   -5.4675   -0.0137 H   0  0  0  0  0  0  0  0  0  0  0  0
    2.8986    2.9342   -1.6516 H   0  0  0  0  0  0  0  0  0  0  0  0
    5.7789    1.1305    1.0095 H   0  0  0  0  0  0  0  0  0  0  0  0
   -5.0605   -0.5091    3.0696 H   0  0  0  0  0  0  0  0  0  0  0  0
   -0.6092   -0.3995    3.6376 H   0  0  0  0  0  0  0  0  0  0  0  0
    0.7833   -1.5468   -2.3488 H   0  0  0  0  0  0  0  0  0  0  0  0
   -4.8369    1.8604   -0.5906 H   0  0  0  0  0  0  0  0  0  0  0  0
   -6.5826   -1.9642    0.3718 H   0  0  0  0  0  0  0  0  0  0  0  0
    4.2461    4.9938   -1.7018 H   0  0  0  0  0  0  0  0  0  0  0  0
    7.1092    3.1881    0.9630 H   0  0  0  0  0  0  0  0  0  0  0  0
   -8.6753   -1.2834   -0.7163 H   0  0  0  0  0  0  0  0  0  0  0  0
    4.6250   -5.8578   -1.5857 H   0  0  0  0  0  0  0  0  0  0  0  0
    7.2917    5.2483    0.1599 H   0  0  0  0  0  0  0  0  0  0  0  0
   -7.8475    2.8927   -2.1662 H   0  0  0  0  0  0  0  0  0  0  0  0
   -9.7486    0.3087   -1.8005 H   0  0  0  0  0  0  0  0  0  0  0  0
  1 13  1  0  0  0  0
  1 21  1  0  0  0  0
  2 20  1  0  0  0  0
  2 22  1  0  0  0  0
  3 12  1  0  0  0  0
  3 50  1  0  0  0  0
  4 18  1  0  0  0  0
  4 55  1  0  0  0  0
  5 19  1  0  0  0  0
  5 56  1  0  0  0  0
  6 23  1  0  0  0  0
  6 57  1  0  0  0  0
  7 32  1  0  0  0  0
  7 63  1  0  0  0  0
  8 37  1  0  0  0  0
  8 64  1  0  0  0  0
  9 38  1  0  0  0  0
  9 65  1  0  0  0  0
 10 40  1  0  0  0  0
 10 66  1  0  0  0  0
 11 12  1  0  0  0  0
 11 14  1  0  0  0  0
 11 15  1  0  0  0  0
 11 41  1  0  0  0  0
 12 13  1  0  0  0  0
 12 42  1  0  0  0  0
 13 24  1  0  0  0  0
 13 43  1  0  0  0  0
 14 19  2  0  0  0  0
 14 23  1  0  0  0  0
 15 21  2  0  0  0  0
 15 26  1  0  0  0  0
 16 17  1  0  0  0  0
 16 19  1  0  0  0  0
 16 22  2  0  0  0  0
 17 18  1  0  0  0  0
 17 44  1  0  0  0  0
 17 45  1  0  0  0  0
 18 20  1  0  0  0  0
 18 46  1  0  0  0  0
 20 27  1  0  0  0  0
 20 47  1  0  0  0  0
 21 28  1  0  0  0  0
 22 25  1  0  0  0  0
 23 25  2  0  0  0  0
 24 30  2  0  0  0  0
 24 31  1  0  0  0  0
 25 48  1  0  0  0  0
 26 29  2  0  0  0  0
 26 49  1  0  0  0  0
 27 33  2  0  0  0  0
 27 34  1  0  0  0  0
 28 32  2  0  0  0  0
 28 51  1  0  0  0  0
 29 32  1  0  0  0  0
 29 52  1  0  0  0  0
 30 35  1  0  0  0  0
 30 53  1  0  0  0  0
 31 36  2  0  0  0  0
 31 54  1  0  0  0  0
 33 38  1  0  0  0  0
 33 58  1  0  0  0  0
 34 39  2  0  0  0  0
 34 59  1  0  0  0  0
 35 37  2  0  0  0  0
 35 60  1  0  0  0  0
 36 37  1  0  0  0  0
 36 61  1  0  0  0  0
 38 40  2  0  0  0  0
 39 40  1  0  0  0  0
 39 62  1  0  0  0  0
M  END
> <PUBCHEM_COMPOUND_CID>
442684

> <PUBCHEM_CONFORMER_RMSD>
0.8

> <PUBCHEM_CONFORMER_DIVERSEORDER>
1
11
17
3
26
33
35
12
28
34
20
31
5
27
29
18
22
7
21
24
4
16
32
15
23
8
10
30
6
9
25
36
13
19
14
2

> <PUBCHEM_MMFF94_PARTIAL_CHARGES>
59
1 -0.36
10 -0.53
11 0.29
12 0.28
13 0.42
14 -0.14
15 -0.14
16 -0.14
17 0.14
18 0.28
19 0.08
2 -0.36
20 0.42
21 0.08
22 0.08
23 0.08
24 -0.14
25 -0.15
26 -0.15
27 -0.14
28 -0.15
29 -0.15
3 -0.68
30 -0.15
31 -0.15
32 0.08
33 -0.15
34 -0.15
35 -0.15
36 -0.15
37 0.08
38 0.08
39 -0.15
4 -0.68
40 0.08
48 0.15
49 0.15
5 -0.53
50 0.4
51 0.15
52 0.15
53 0.15
54 0.15
55 0.4
56 0.45
57 0.45
58 0.15
59 0.15
6 -0.53
60 0.15
61 0.15
62 0.15
63 0.45
64 0.45
65 0.45
66 0.45
7 -0.53
8 -0.53
9 -0.53

> <PUBCHEM_EFFECTIVE_ROTOR_COUNT>
4.6

> <PUBCHEM_PHARMACOPHORE_FEATURES>
18
1 1 acceptor
1 10 donor
1 2 acceptor
1 3 acceptor
1 3 donor
1 4 acceptor
1 4 donor
1 5 donor
1 6 donor
1 7 donor
1 8 donor
1 9 donor
6 1 11 12 13 15 21 rings
6 14 16 19 22 23 25 rings
6 15 21 26 28 29 32 rings
6 2 16 17 18 20 22 rings
6 24 30 31 35 36 37 rings
6 27 33 34 38 39 40 rings

> <PUBCHEM_HEAVY_ATOM_COUNT>
40

> <PUBCHEM_ATOM_DEF_STEREO_COUNT>
5

> <PUBCHEM_ATOM_UDEF_STEREO_COUNT>
0

> <PUBCHEM_BOND_DEF_STEREO_COUNT>
0

> <PUBCHEM_BOND_UDEF_STEREO_COUNT>
0

> <PUBCHEM_ISOTOPIC_ATOM_COUNT>
0

> <PUBCHEM_COMPONENT_COUNT>
1

> <PUBCHEM_CACTVS_TAUTO_COUNT>
414

> <PUBCHEM_CONFORMER_ID>
0006C13C00000001

> <PUBCHEM_MMFF94_ENERGY>
135.6167

> <PUBCHEM_FEATURE_SELFOVERLAP>
91.403

> <PUBCHEM_SHAPE_FINGERPRINT>
10554248 39 18187080711066452439
10673678 19 18339359648313899024
10985338 1 18335984245963966878
11093857 5 17202465728610448859
11115154 58 17981877846462163294
11135609 127 18340216218957856996
11297010 23 18334851706922765140
11386260 185 18338800125443661316
11411753 29 18058145363512595483
11411753 3 18059276700484798059
11505856 67 16973626362813460604
12166972 35 18042966660577174958
12440610 7 17916855820803581658
13540713 5 17605255458157079059
13782708 43 17604165804539978327
14118638 360 17458346351211515513
14904525 67 18129670820015386533
15082195 135 18409730685577065233
15131766 46 18263657168771792957
15183329 4 16588027896939783501
15324884 4 17629166430585404802
15439362 3 18338232641059796884
15475509 35 7925637712961653624
15684393 108 18261118427289869679
15890870 6 18266458716358440620
19304144 158 18198343953161627753
19304671 126 18202283641158944153
19319366 153 18187358788872036654
20587220 17 18409738356415355309
20721686 124 18341898477004034714
21033648 29 17489581243226423849
21781055 127 15697720440442249562
23081809 10 17458341979420338411
23522609 53 17459725143420192601
23528521 120 18058746711317584205
23559900 14 17560500898311457743
23569914 2 17341860778088488677
244849 19 17916565609947202643
24771293 8 17560806464155078901
249057 25 17677044758884565747
27425 322 18202007594604527867
3388396 114 18114730573521328904
34797466 226 18342457045868676875
4093350 32 18342460326595820037
4144715 1 18201709653413527835
4366758 6 18188776029611987104
44880568 143 18340213003098614581
4516262 110 18334576794176534372
45270241 37 18408038516239682311
46194498 28 18340210781756133254
513532 50 17846216682907046890
5951187 136 17989210335031559760
6058803 2 17460853331874606458
6086070 43 17982453994449353243
6376802 90 18130783405101163947
6677587 24 18269018447555601326
6697151 62 18197774616893349242

> <PUBCHEM_SHAPE_MULTIPOLES>
764.49
21.37
5.52
2.04
41.45
0.77
-1.11
15.9
10.61
-17.77
3.05
1.9
-0.18
2.51

> <PUBCHEM_SHAPE_SELFOVERLAP>
1720.659

> <PUBCHEM_SHAPE_VOLUME>
396.5

> <PUBCHEM_COORDINATE_TYPE>
2
5
10

$$$$

