440316
  -OEChem-07051212492D

 52 56  0     1  0  0  0  0  0999 V2000
    2.5709   -0.7354    0.0000 O   0  0  0  0  0  0  0  0  0  0  0  0
    2.0000    3.2749    0.0000 O   0  0  0  0  0  0  0  0  0  0  0  0
    3.3840   -4.4317    0.0000 O   0  0  0  0  0  0  0  0  0  0  0  0
    3.4372   -0.2350    0.0000 C   0  0  1  0  0  0  0  0  0  0  0  0
    4.3032    0.2650    0.0000 C   0  0  2  0  0  0  0  0  0  0  0  0
    2.5711    0.2650    0.0000 C   0  0  1  0  0  0  0  0  0  0  0  0
    4.3032    1.2650    0.0000 C   0  0  1  0  0  0  0  0  0  0  0  0
    3.4372    1.7650    0.0000 C   0  0  2  0  0  0  0  0  0  0  0  0
    3.4211   -1.2765    0.0000 C   0  0  2  0  0  0  0  0  0  0  0  0
    2.5711    1.2650    0.0000 C   0  0  0  0  0  0  0  0  0  0  0  0
    3.6464    2.7368    0.0000 C   0  0  2  0  0  0  0  0  0  0  0  0
    5.2132   -0.2418    0.0000 C   0  0  0  0  0  0  0  0  0  0  0  0
    5.0402    1.9321    0.0000 C   0  0  0  0  0  0  0  0  0  0  0  0
    4.6351    2.8399    0.0000 C   0  0  0  0  0  0  0  0  0  0  0  0
    4.3191   -1.8042    0.0000 C   0  0  0  0  0  0  0  0  0  0  0  0
    5.2212   -1.2834    0.0000 C   0  0  0  0  0  0  0  0  0  0  0  0
    2.4692   -1.7971    0.0000 C   0  0  0  0  0  0  0  0  0  0  0  0
    2.5711    2.2650    0.0000 C   0  0  0  0  0  0  0  0  0  0  0  0
    2.4211   -1.2688    0.0000 C   0  0  0  0  0  0  0  0  0  0  0  0
    2.9785    3.4812    0.0000 C   0  0  0  0  0  0  0  0  0  0  0  0
    2.4524   -2.8820    0.0000 C   0  0  0  0  0  0  0  0  0  0  0  0
    4.3275   -2.8892    0.0000 C   0  0  0  0  0  0  0  0  0  0  0  0
    3.3878   -3.4317    0.0000 C   0  0  0  0  0  0  0  0  0  0  0  0
    3.2892    4.4317    0.0000 C   0  0  0  0  0  0  0  0  0  0  0  0
    5.0360    0.6957    0.0000 H   0  0  0  0  0  0  0  0  0  0  0  0
    1.7211    0.2651    0.0000 H   0  0  0  0  0  0  0  0  0  0  0  0
    5.0801    0.9203    0.0000 H   0  0  0  0  0  0  0  0  0  0  0  0
    2.3591    1.8476    0.0000 H   0  0  0  0  0  0  0  0  0  0  0  0
    1.9605    1.1574    0.0000 H   0  0  0  0  0  0  0  0  0  0  0  0
    3.8693    3.3154    0.0000 H   0  0  0  0  0  0  0  0  0  0  0  0
    5.8248   -0.3432    0.0000 H   0  0  0  0  0  0  0  0  0  0  0  0
    5.4177    0.3435    0.0000 H   0  0  0  0  0  0  0  0  0  0  0  0
    5.4056    1.4313    0.0000 H   0  0  0  0  0  0  0  0  0  0  0  0
    5.5767    2.2429    0.0000 H   0  0  0  0  0  0  0  0  0  0  0  0
    5.2247    3.0317    0.0000 H   0  0  0  0  0  0  0  0  0  0  0  0
    4.5063    3.4464    0.0000 H   0  0  0  0  0  0  0  0  0  0  0  0
    5.4348   -1.8655    0.0000 H   0  0  0  0  0  0  0  0  0  0  0  0
    5.8312   -1.1726    0.0000 H   0  0  0  0  0  0  0  0  0  0  0  0
    2.2691   -1.2102    0.0000 H   0  0  0  0  0  0  0  0  0  0  0  0
    1.8567   -1.8938    0.0000 H   0  0  0  0  0  0  0  0  0  0  0  0
    2.8811    2.8020    0.0000 H   0  0  0  0  0  0  0  0  0  0  0  0
    2.0342    2.5750    0.0000 H   0  0  0  0  0  0  0  0  0  0  0  0
    2.2611    1.7281    0.0000 H   0  0  0  0  0  0  0  0  0  0  0  0
    2.4259   -0.6488    0.0000 H   0  0  0  0  0  0  0  0  0  0  0  0
    1.8011   -1.2640    0.0000 H   0  0  0  0  0  0  0  0  0  0  0  0
    2.4163   -1.8887    0.0000 H   0  0  0  0  0  0  0  0  0  0  0  0
    1.8433   -2.7665    0.0000 H   0  0  0  0  0  0  0  0  0  0  0  0
    2.2344   -3.4624    0.0000 H   0  0  0  0  0  0  0  0  0  0  0  0
    4.8656   -3.1971    0.0000 H   0  0  0  0  0  0  0  0  0  0  0  0
    3.8785    4.2391    0.0000 H   0  0  0  0  0  0  0  0  0  0  0  0
    3.4818    5.0210    0.0000 H   0  0  0  0  0  0  0  0  0  0  0  0
    2.6998    4.6243    0.0000 H   0  0  0  0  0  0  0  0  0  0  0  0
  4  1  1  6  0  0  0
  1  6  1  0  0  0  0
  2 20  2  0  0  0  0
  3 23  2  0  0  0  0
  4  5  1  0  0  0  0
  4  6  1  0  0  0  0
  4  9  1  0  0  0  0
  5  7  1  0  0  0  0
  5 12  1  0  0  0  0
  5 25  1  1  0  0  0
  6 10  1  0  0  0  0
  6 26  1  1  0  0  0
  7  8  1  0  0  0  0
  7 13  1  0  0  0  0
  7 27  1  6  0  0  0
  8 10  1  0  0  0  0
  8 11  1  0  0  0  0
  8 18  1  1  0  0  0
  9 15  1  0  0  0  0
  9 17  1  0  0  0  0
  9 19  1  1  0  0  0
 10 28  1  0  0  0  0
 10 29  1  0  0  0  0
 11 14  1  0  0  0  0
 11 20  1  1  0  0  0
 11 30  1  0  0  0  0
 12 16  1  0  0  0  0
 12 31  1  0  0  0  0
 12 32  1  0  0  0  0
 13 14  1  0  0  0  0
 13 33  1  0  0  0  0
 13 34  1  0  0  0  0
 14 35  1  0  0  0  0
 14 36  1  0  0  0  0
 15 16  1  0  0  0  0
 15 22  2  0  0  0  0
 16 37  1  0  0  0  0
 16 38  1  0  0  0  0
 17 21  1  0  0  0  0
 17 39  1  0  0  0  0
 17 40  1  0  0  0  0
 18 41  1  0  0  0  0
 18 42  1  0  0  0  0
 18 43  1  0  0  0  0
 19 44  1  0  0  0  0
 19 45  1  0  0  0  0
 19 46  1  0  0  0  0
 20 24  1  0  0  0  0
 21 23  1  0  0  0  0
 21 47  1  0  0  0  0
 21 48  1  0  0  0  0
 22 23  1  0  0  0  0
 22 49  1  0  0  0  0
 24 50  1  0  0  0  0
 24 51  1  0  0  0  0
 24 52  1  0  0  0  0
M  END
> <PUBCHEM_COMPOUND_CID>
440316

> <PUBCHEM_COMPOUND_CANONICALIZED>
1

> <PUBCHEM_CACTVS_COMPLEXITY>
679

> <PUBCHEM_CACTVS_HBOND_ACCEPTOR>
3

> <PUBCHEM_CACTVS_HBOND_DONOR>
0

> <PUBCHEM_CACTVS_ROTATABLE_BOND>
1

> <PUBCHEM_CACTVS_SUBSKEYS>
AAADceB4MAAAAAAAAAAAAAAAEgAAAYAAAAAwYIAABIAAAGDAAAAAGgAAAAAAD1SggAICAAAABACIAqBSAAAAAAAgAAAACAEAAEgAABIAAQACAAAEwAAIAQOIzPDPgAAAAAAAAADAAAYAADAAAQAACAAAAA==

> <PUBCHEM_IUPAC_INCHI>
InChI=1S/C21H28O3/c1-12(22)15-6-7-16-17-5-4-13-10-14(23)8-9-20(13,3)21(17)18(24-21)11-19(15,16)2/h10,15-18H,4-9,11H2,1-3H3/t15-,16+,17+,18-,19-,20+,21+/m1/s1

> <PUBCHEM_IUPAC_INCHIKEY>
FFMULFMLARAIRH-OUZKAEIWSA-N

> <PUBCHEM_XLOGP3>
1.9

> <PUBCHEM_EXACT_MASS>
328.203845

> <PUBCHEM_MOLECULAR_FORMULA>
C21H28O3

> <PUBCHEM_MOLECULAR_WEIGHT>
328.44522

> <PUBCHEM_OPENEYE_CAN_SMILES>
CC(=O)C1CCC2C1(CC3C4(C2CCC5=CC(=O)CCC54C)O3)C

> <PUBCHEM_OPENEYE_ISO_SMILES>
CC(=O)[C@H]1CC[C@@H]2[C@@]1(C[C@@H]3[C@]4([C@H]2CCC5=CC(=O)CC[C@@]54C)O3)C

> <PUBCHEM_CACTVS_TPSA>
46.7

> <PUBCHEM_MONOISOTOPIC_WEIGHT>
328.203845

> <PUBCHEM_TOTAL_CHARGE>
0

> <PUBCHEM_HEAVY_ATOM_COUNT>
24

> <PUBCHEM_ATOM_DEF_STEREO_COUNT>
7

> <PUBCHEM_ATOM_UDEF_STEREO_COUNT>
0

> <PUBCHEM_BOND_DEF_STEREO_COUNT>
0

> <PUBCHEM_BOND_UDEF_STEREO_COUNT>
0

> <PUBCHEM_ISOTOPIC_ATOM_COUNT>
0

> <PUBCHEM_COMPONENT_COUNT>
1

> <PUBCHEM_CACTVS_TAUTO_COUNT>
15

> <PUBCHEM_COORDINATE_TYPE>
1
5
255

> <PUBCHEM_BONDANNOTATIONS>
4  1  6
11  20  5
5  25  5
6  26  5
7  27  6
8  18  5
9  19  5

$$$$

