17395618
  -OEChem-06241222513D

 30 32  0     0  0  0  0  0  0999 V2000
    0.7598   -1.7674   -0.7751 S   0  0  0  0  0  0  0  0  0  0  0  0
    3.0145    2.0638    1.4492 F   0  0  0  0  0  0  0  0  0  0  0  0
   -4.4851    1.3583   -0.8508 O   0  0  0  0  0  0  0  0  0  0  0  0
   -1.7745   -2.2191    1.1241 O   0  0  0  0  0  0  0  0  0  0  0  0
   -2.4343   -0.1255    0.3924 N   0  0  0  0  0  0  0  0  0  0  0  0
   -2.1606    1.2070   -0.1624 C   0  0  0  0  0  0  0  0  0  0  0  0
   -3.8398   -0.3587    0.7270 C   0  0  0  0  0  0  0  0  0  0  0  0
   -3.1352    1.5192   -1.2923 C   0  0  0  0  0  0  0  0  0  0  0  0
   -4.7347    0.0094   -0.4471 C   0  0  0  0  0  0  0  0  0  0  0  0
   -1.4749   -1.1189    0.6565 C   0  0  0  0  0  0  0  0  0  0  0  0
   -0.0829   -0.8054    0.3518 C   0  0  0  0  0  0  0  0  0  0  0  0
    2.0328    0.1988    0.3199 C   0  0  0  0  0  0  0  0  0  0  0  0
    0.7027    0.2021    0.8592 C   0  0  0  0  0  0  0  0  0  0  0  0
    2.2035   -0.8409   -0.5995 C   0  0  0  0  0  0  0  0  0  0  0  0
    3.1323    1.0535    0.5755 C   0  0  0  0  0  0  0  0  0  0  0  0
    3.4302   -1.0449   -1.2614 C   0  0  0  0  0  0  0  0  0  0  0  0
    4.3505    0.8538   -0.0793 C   0  0  0  0  0  0  0  0  0  0  0  0
    4.4956   -0.1851   -0.9877 C   0  0  0  0  0  0  0  0  0  0  0  0
   -1.1447    1.3018   -0.5454 H   0  0  0  0  0  0  0  0  0  0  0  0
   -2.2918    1.9191    0.6603 H   0  0  0  0  0  0  0  0  0  0  0  0
   -4.0631    0.2835    1.5872 H   0  0  0  0  0  0  0  0  0  0  0  0
   -4.0113   -1.3968    1.0261 H   0  0  0  0  0  0  0  0  0  0  0  0
   -3.0098    2.5559   -1.6201 H   0  0  0  0  0  0  0  0  0  0  0  0
   -2.9600    0.8707   -2.1591 H   0  0  0  0  0  0  0  0  0  0  0  0
   -4.5728   -0.6602   -1.3003 H   0  0  0  0  0  0  0  0  0  0  0  0
   -5.7870   -0.0654   -0.1563 H   0  0  0  0  0  0  0  0  0  0  0  0
    0.3523    0.9171    1.5942 H   0  0  0  0  0  0  0  0  0  0  0  0
    3.5529   -1.8555   -1.9741 H   0  0  0  0  0  0  0  0  0  0  0  0
    5.1865    1.5164    0.1255 H   0  0  0  0  0  0  0  0  0  0  0  0
    5.4468   -0.3325   -1.4920 H   0  0  0  0  0  0  0  0  0  0  0  0
  1 11  1  0  0  0  0
  1 14  1  0  0  0  0
  2 15  1  0  0  0  0
  3  8  1  0  0  0  0
  3  9  1  0  0  0  0
  4 10  2  0  0  0  0
  5  6  1  0  0  0  0
  5  7  1  0  0  0  0
  5 10  1  0  0  0  0
  6  8  1  0  0  0  0
  6 19  1  0  0  0  0
  6 20  1  0  0  0  0
  7  9  1  0  0  0  0
  7 21  1  0  0  0  0
  7 22  1  0  0  0  0
  8 23  1  0  0  0  0
  8 24  1  0  0  0  0
  9 25  1  0  0  0  0
  9 26  1  0  0  0  0
 10 11  1  0  0  0  0
 11 13  2  0  0  0  0
 12 13  1  0  0  0  0
 12 14  1  0  0  0  0
 12 15  2  0  0  0  0
 13 27  1  0  0  0  0
 14 16  2  0  0  0  0
 15 17  1  0  0  0  0
 16 18  1  0  0  0  0
 16 28  1  0  0  0  0
 17 18  2  0  0  0  0
 17 29  1  0  0  0  0
 18 30  1  0  0  0  0
M  END
> <PUBCHEM_COMPOUND_CID>
17395618

> <PUBCHEM_CONFORMER_RMSD>
0.6

> <PUBCHEM_CONFORMER_DIVERSEORDER>
1
12
9
6
4
8
10
13
5
3
2
11
7

> <PUBCHEM_MMFF94_PARTIAL_CHARGES>
21
1 -0.08
10 0.71
11 -0.05
13 -0.15
14 0.04
15 0.19
16 -0.15
17 -0.15
18 -0.15
2 -0.19
27 0.15
28 0.15
29 0.15
3 -0.56
30 0.15
4 -0.57
5 -0.66
6 0.3
7 0.3
8 0.28
9 0.28

> <PUBCHEM_EFFECTIVE_ROTOR_COUNT>
3.2

> <PUBCHEM_PHARMACOPHORE_FEATURES>
5
1 3 acceptor
1 4 acceptor
5 1 11 12 13 14 rings
6 12 14 15 16 17 18 rings
6 3 5 6 7 8 9 rings

> <PUBCHEM_HEAVY_ATOM_COUNT>
18

> <PUBCHEM_ATOM_DEF_STEREO_COUNT>
0

> <PUBCHEM_ATOM_UDEF_STEREO_COUNT>
0

> <PUBCHEM_BOND_DEF_STEREO_COUNT>
0

> <PUBCHEM_BOND_UDEF_STEREO_COUNT>
0

> <PUBCHEM_ISOTOPIC_ATOM_COUNT>
0

> <PUBCHEM_COMPONENT_COUNT>
1

> <PUBCHEM_CACTVS_TAUTO_COUNT>
1

> <PUBCHEM_CONFORMER_ID>
01096FA200000001

> <PUBCHEM_MMFF94_ENERGY>
40.8232

> <PUBCHEM_FEATURE_SELFOVERLAP>
25.431

> <PUBCHEM_SHAPE_FINGERPRINT>
10498660 4 18059861726522433405
10608611 8 18409446951621227360
10646746 165 18202283614993124492
11046707 91 5617250412524321879
11471102 20 17967808345586662782
11543360 7 17458636596595762061
11595378 159 16558756732022436245
12236239 1 15913326875098929434
12403259 415 18410006620035148137
12500047 106 18272366456225759722
12596602 18 15482379881098585469
12654215 9 18333726923549169550
12670546 177 17967256381779887535
12730499 353 18409442626985117363
12892183 10 12391507629089896877
13134695 92 17676200295653207448
13583140 156 18341331106927561066
14739800 52 17345470380621180316
17349148 13 16950561129681591678
18186145 218 18334010613974722123
18915474 69 15647060356177255516
19784866 240 15430308183339127892
19862831 5 15936410035134316383
200 152 16805036337290907274
20645477 56 18342732992526067227
20645477 70 17821999935263469118
21033648 29 18342461443435412865
21065201 7 18130784525670649666
21639500 275 17458627774722445168
221357 26 18113902705847780065
22892500 29 18259706701039539772
231179 274 18411700989271174746
23227448 37 18200591372061432229
23402539 116 18201723929394508231
23402655 69 18041279958442794829
23557571 272 18271795784052827027
23559900 14 18342170094655838694
25 1 18262233425498484826
2748010 2 18189327988095101562
3060560 45 17894911849904426030
3268164 11 18202290182399235551
341906 21 17561370590549730765
351380 180 18409171021431406492
3524813 1 18410016532883269460
4028521 119 18412546535156116013
495365 180 17822583728756065594
5281201 14 18187359965081172348
6049 1 18265880398415071386
633830 44 18113899403096550633
7471813 234 16153423974283120592
77492 1 15502365738316284826

> <PUBCHEM_SHAPE_MULTIPOLES>
350.29
9.51
1.82
1.22
2.48
0.09
-0.06
-2.95
-2.24
0.03
0.14
-0.07
-0.08
1.82

> <PUBCHEM_SHAPE_SELFOVERLAP>
746.924

> <PUBCHEM_SHAPE_VOLUME>
196.7

> <PUBCHEM_COORDINATE_TYPE>
2
5
10

$$$$

