10478277
  -OEChem-07051213103D

 57 60  0     1  0  0  0  0  0999 V2000
    1.4400   -0.7352   -0.2848 O   0  0  0  0  0  0  0  0  0  0  0  0
    3.1832    0.5733    0.5479 O   0  0  0  0  0  0  0  0  0  0  0  0
   -0.9034   -2.4382    0.2907 O   0  0  0  0  0  0  0  0  0  0  0  0
    3.0531   -1.4339   -2.5025 O   0  0  0  0  0  0  0  0  0  0  0  0
    5.0480    0.6473   -3.1106 O   0  0  0  0  0  0  0  0  0  0  0  0
    6.5239    1.3612   -0.7298 O   0  0  0  0  0  0  0  0  0  0  0  0
    4.3114    1.5061    2.8744 O   0  0  0  0  0  0  0  0  0  0  0  0
   -1.8960    2.1876    1.2377 O   0  0  0  0  0  0  0  0  0  0  0  0
   -5.0820   -0.6925   -0.9796 O   0  0  0  0  0  0  0  0  0  0  0  0
   -4.2365    3.0127    0.4878 O   0  0  0  0  0  0  0  0  0  0  0  0
    0.9629   -0.9948    1.0384 C   0  0  2  0  0  0  0  0  0  0  0  0
    0.2771   -2.3754    1.1149 C   0  0  0  0  0  0  0  0  0  0  0  0
    2.8524   -0.5299   -0.2926 C   0  0  2  0  0  0  0  0  0  0  0  0
    3.2799   -0.2527   -1.7338 C   0  0  1  0  0  0  0  0  0  0  0  0
    4.7586    0.1275   -1.8119 C   0  0  2  0  0  0  0  0  0  0  0  0
    0.0027    0.1320    1.4064 C   0  0  0  0  0  0  0  0  0  0  0  0
    5.1085    1.2029   -0.7834 C   0  0  1  0  0  0  0  0  0  0  0  0
    4.5898    0.8170    0.6039 C   0  0  1  0  0  0  0  0  0  0  0  0
   -1.3442   -0.0839    0.7757 C   0  0  0  0  0  0  0  0  0  0  0  0
    1.2071   -3.4770    0.5799 C   0  0  0  0  0  0  0  0  0  0  0  0
   -0.1129   -2.7418    2.5581 C   0  0  0  0  0  0  0  0  0  0  0  0
   -1.7143   -1.3352    0.2693 C   0  0  0  0  0  0  0  0  0  0  0  0
    4.8239    1.9273    1.6234 C   0  0  0  0  0  0  0  0  0  0  0  0
   -2.2575    0.9791    0.7148 C   0  0  0  0  0  0  0  0  0  0  0  0
   -2.9680   -1.5144   -0.3236 C   0  0  0  0  0  0  0  0  0  0  0  0
   -3.5122    0.7909    0.1300 C   0  0  0  0  0  0  0  0  0  0  0  0
   -3.8665   -0.4504   -0.3910 C   0  0  0  0  0  0  0  0  0  0  0  0
   -4.4795    1.8966    0.0506 C   0  0  0  0  0  0  0  0  0  0  0  0
   -5.7716    1.5842   -0.5902 C   0  0  0  0  0  0  0  0  0  0  0  0
   -5.9955    0.3466   -1.0555 C   0  0  0  0  0  0  0  0  0  0  0  0
   -7.2825   -0.0373   -1.7148 C   0  0  0  0  0  0  0  0  0  0  0  0
    1.7921   -0.9847    1.7596 H   0  0  0  0  0  0  0  0  0  0  0  0
    3.3361   -1.4427    0.0808 H   0  0  0  0  0  0  0  0  0  0  0  0
    2.6606    0.5369   -2.1757 H   0  0  0  0  0  0  0  0  0  0  0  0
    5.3920   -0.7591   -1.6850 H   0  0  0  0  0  0  0  0  0  0  0  0
    0.4211    1.0897    1.0740 H   0  0  0  0  0  0  0  0  0  0  0  0
   -0.1285    0.1755    2.4941 H   0  0  0  0  0  0  0  0  0  0  0  0
    4.6830    2.1629   -1.1009 H   0  0  0  0  0  0  0  0  0  0  0  0
    5.0860   -0.0914    0.9720 H   0  0  0  0  0  0  0  0  0  0  0  0
    0.7276   -4.4605    0.6502 H   0  0  0  0  0  0  0  0  0  0  0  0
    1.4304   -3.3281   -0.4825 H   0  0  0  0  0  0  0  0  0  0  0  0
    2.1500   -3.5130    1.1352 H   0  0  0  0  0  0  0  0  0  0  0  0
   -0.8499   -2.0481    2.9752 H   0  0  0  0  0  0  0  0  0  0  0  0
   -0.5828   -3.7319    2.5920 H   0  0  0  0  0  0  0  0  0  0  0  0
    0.7610   -2.7523    3.2179 H   0  0  0  0  0  0  0  0  0  0  0  0
    4.2912    2.8397    1.3353 H   0  0  0  0  0  0  0  0  0  0  0  0
    5.8889    2.1505    1.7371 H   0  0  0  0  0  0  0  0  0  0  0  0
    3.5905   -2.1494   -2.1218 H   0  0  0  0  0  0  0  0  0  0  0  0
   -3.2451   -2.4857   -0.7267 H   0  0  0  0  0  0  0  0  0  0  0  0
    5.9894    0.8914   -3.1232 H   0  0  0  0  0  0  0  0  0  0  0  0
    6.9098    0.5163   -0.4419 H   0  0  0  0  0  0  0  0  0  0  0  0
    4.4664    2.2289    3.5062 H   0  0  0  0  0  0  0  0  0  0  0  0
   -2.6158    2.8310    1.1595 H   0  0  0  0  0  0  0  0  0  0  0  0
   -6.5073    2.3764   -0.6645 H   0  0  0  0  0  0  0  0  0  0  0  0
   -7.7622   -0.8510   -1.1614 H   0  0  0  0  0  0  0  0  0  0  0  0
   -7.0953   -0.3789   -2.7380 H   0  0  0  0  0  0  0  0  0  0  0  0
   -7.9882    0.7985   -1.7631 H   0  0  0  0  0  0  0  0  0  0  0  0
  1 11  1  0  0  0  0
  1 13  1  0  0  0  0
  2 13  1  0  0  0  0
  2 18  1  0  0  0  0
  3 12  1  0  0  0  0
  3 22  1  0  0  0  0
  4 14  1  0  0  0  0
  4 48  1  0  0  0  0
  5 15  1  0  0  0  0
  5 50  1  0  0  0  0
  6 17  1  0  0  0  0
  6 51  1  0  0  0  0
  7 23  1  0  0  0  0
  7 52  1  0  0  0  0
  8 24  1  0  0  0  0
  8 53  1  0  0  0  0
  9 27  1  0  0  0  0
  9 30  1  0  0  0  0
 10 28  2  0  0  0  0
 11 12  1  0  0  0  0
 11 16  1  0  0  0  0
 11 32  1  0  0  0  0
 12 20  1  0  0  0  0
 12 21  1  0  0  0  0
 13 14  1  0  0  0  0
 13 33  1  0  0  0  0
 14 15  1  0  0  0  0
 14 34  1  0  0  0  0
 15 17  1  0  0  0  0
 15 35  1  0  0  0  0
 16 19  1  0  0  0  0
 16 36  1  0  0  0  0
 16 37  1  0  0  0  0
 17 18  1  0  0  0  0
 17 38  1  0  0  0  0
 18 23  1  0  0  0  0
 18 39  1  0  0  0  0
 19 22  2  0  0  0  0
 19 24  1  0  0  0  0
 20 40  1  0  0  0  0
 20 41  1  0  0  0  0
 20 42  1  0  0  0  0
 21 43  1  0  0  0  0
 21 44  1  0  0  0  0
 21 45  1  0  0  0  0
 22 25  1  0  0  0  0
 23 46  1  0  0  0  0
 23 47  1  0  0  0  0
 24 26  2  0  0  0  0
 25 27  2  0  0  0  0
 25 49  1  0  0  0  0
 26 27  1  0  0  0  0
 26 28  1  0  0  0  0
 28 29  1  0  0  0  0
 29 30  2  0  0  0  0
 29 54  1  0  0  0  0
 30 31  1  0  0  0  0
 31 55  1  0  0  0  0
 31 56  1  0  0  0  0
 31 57  1  0  0  0  0
M  END
> <PUBCHEM_COMPOUND_CID>
10478277

> <PUBCHEM_CONFORMER_RMSD>
0.8

> <PUBCHEM_CONFORMER_DIVERSEORDER>
4
14
28
40
23
30
39
31
37
27
8
10
18
12
2
13
32
16
35
29
11
33
5
7
38
17
20
22
1
15
9
24
26
36
19
25
21
6
34
3

> <PUBCHEM_MMFF94_PARTIAL_CHARGES>
36
1 -0.56
10 -0.57
11 0.28
12 0.28
13 0.56
14 0.28
15 0.28
16 0.14
17 0.28
18 0.28
19 -0.14
2 -0.56
22 0.08
23 0.28
24 0.08
25 -0.15
26 0.09
27 0.08
28 0.47
29 -0.14
3 -0.36
30 -0.06
31 0.14
4 -0.68
48 0.4
49 0.15
5 -0.68
50 0.4
51 0.4
52 0.4
53 0.45
54 0.15
6 -0.68
7 -0.68
8 -0.53
9 -0.16

> <PUBCHEM_EFFECTIVE_ROTOR_COUNT>
5

> <PUBCHEM_PHARMACOPHORE_FEATURES>
19
1 1 acceptor
1 10 acceptor
1 2 acceptor
1 3 acceptor
1 4 acceptor
1 4 donor
1 5 acceptor
1 5 donor
1 6 acceptor
1 6 donor
1 7 acceptor
1 7 donor
1 8 donor
1 9 acceptor
3 12 20 21 hydrophobe
6 19 22 24 25 26 27 rings
6 2 13 14 15 17 18 rings
6 3 11 12 16 19 22 rings
6 9 26 27 28 29 30 rings

> <PUBCHEM_HEAVY_ATOM_COUNT>
31

> <PUBCHEM_ATOM_DEF_STEREO_COUNT>
6

> <PUBCHEM_ATOM_UDEF_STEREO_COUNT>
0

> <PUBCHEM_BOND_DEF_STEREO_COUNT>
0

> <PUBCHEM_BOND_UDEF_STEREO_COUNT>
0

> <PUBCHEM_ISOTOPIC_ATOM_COUNT>
0

> <PUBCHEM_COMPONENT_COUNT>
1

> <PUBCHEM_CACTVS_TAUTO_COUNT>
14

> <PUBCHEM_CONFORMER_ID>
009FE2C500000004

> <PUBCHEM_MMFF94_ENERGY>
98.7837

> <PUBCHEM_FEATURE_SELFOVERLAP>
96.532

> <PUBCHEM_SHAPE_FINGERPRINT>
10622 236 14636250832951012118
10670039 82 18272079543878390572
10692045 39 13182748090912385249
10764073 3 13324922666265749538
11331351 85 17185603953273257938
11763715 3 5256142241310750986
12422481 6 16701193008792117436
12633257 1 13254789110233401982
13540713 5 18120944064738359555
1361 2 17458632159673479716
13617811 41 18343312457410087309
13782708 43 13840851920028071901
14739800 52 18265073429704707307
14767858 380 18411428297971907767
14840074 17 17275095128808011565
14931854 50 18335420192345732181
15082195 135 18041272163520887996
15183329 4 17676485068679244911
15324884 4 17753314380543026458
16110190 28 9871457712696685588
173720 79 17988938755110788467
18222031 100 7348886672223752059
19315092 285 14346908859783068678
19319366 153 18271821159057832931
20554085 129 18341062843222357906
22122407 14 16128654163068438093
22393880 68 18186519938128758668
23516275 100 18044676216481250409
23522609 53 13985769656564983683
23559900 14 17967813821411872992
23569917 315 18060419127057018083
3004659 81 15357692011566424646
312425 54 12463573993382978021
3472631 163 18201153252926744948
34797466 226 17458349611044479465
351380 3 6050445911882488853
3918712 181 18343590628834585861
4015057 19 16877933907036930298
4098825 35 16733255824889603073
46194498 28 17313114007692859017
469060 322 17915152682198183747
474 4 17774999137164116947
513532 50 18187652440086143810
53794403 172 18267864973748844844
56633871 153 9295297127215955105
6034566 193 17345166961912054215
6058803 2 17978523250077712867
7970288 3 6411297905593872652
8863177 126 4967026788352459429
9981440 41 18343019960877330714

> <PUBCHEM_SHAPE_MULTIPOLES>
579.27
15.3
2.88
2.24
5.33
1.94
-0.36
-11.41
-7.1
0.31
1.29
-3.27
-0.33
-0.22

> <PUBCHEM_SHAPE_SELFOVERLAP>
1255.026

> <PUBCHEM_SHAPE_VOLUME>
313.1

> <PUBCHEM_COORDINATE_TYPE>
2
5
10

$$$$

