5282300
  -OEChem-07051213042D

128127  0     1  0  0  0  0  0999 V2000
    6.3301   -1.7500    0.0000 P   0  0  3  0  0  0  0  0  0  0  0  0
    5.4641   -2.2500    0.0000 O   0  0  0  0  0  0  0  0  0  0  0  0
    7.1962   -1.2500    0.0000 O   0  0  0  0  0  0  0  0  0  0  0  0
    9.7942   -1.7500    0.0000 O   0  0  0  0  0  0  0  0  0  0  0  0
    9.7942    0.2500    0.0000 O   0  0  0  0  0  0  0  0  0  0  0  0
    5.8301   -0.8840    0.0000 O   0  0  0  0  0  0  0  0  0  0  0  0
    6.8301   -2.6160    0.0000 O   0  0  0  0  0  0  0  0  0  0  0  0
   10.6603   -0.2500    0.0000 O   0  0  0  0  0  0  0  0  0  0  0  0
    2.8660   -1.7500    0.0000 N   0  3  0  0  0  0  0  0  0  0  0  0
   14.9904    3.2500    0.0000 C   0  0  0  0  0  0  0  0  0  0  0  0
   14.9904    4.2500    0.0000 C   0  0  0  0  0  0  0  0  0  0  0  0
    3.7320   -2.2500    0.0000 C   0  0  0  0  0  0  0  0  0  0  0  0
   14.1244    2.7500    0.0000 C   0  0  0  0  0  0  0  0  0  0  0  0
   15.8564    4.7500    0.0000 C   0  0  0  0  0  0  0  0  0  0  0  0
   14.1244    1.7500    0.0000 C   0  0  0  0  0  0  0  0  0  0  0  0
   15.8564    5.7500    0.0000 C   0  0  0  0  0  0  0  0  0  0  0  0
   13.2583    1.2500    0.0000 C   0  0  0  0  0  0  0  0  0  0  0  0
    2.0000   -1.2500    0.0000 C   0  0  0  0  0  0  0  0  0  0  0  0
    2.3660   -2.6160    0.0000 C   0  0  0  0  0  0  0  0  0  0  0  0
    3.3660   -0.8840    0.0000 C   0  0  0  0  0  0  0  0  0  0  0  0
    4.5981   -1.7500    0.0000 C   0  0  0  0  0  0  0  0  0  0  0  0
   16.7224    6.2500    0.0000 C   0  0  0  0  0  0  0  0  0  0  0  0
   12.3923    1.7500    0.0000 C   0  0  0  0  0  0  0  0  0  0  0  0
   14.1244   -1.2500    0.0000 C   0  0  0  0  0  0  0  0  0  0  0  0
   14.9904   -1.7500    0.0000 C   0  0  0  0  0  0  0  0  0  0  0  0
   16.7224    7.2500    0.0000 C   0  0  0  0  0  0  0  0  0  0  0  0
   13.2583   -1.7500    0.0000 C   0  0  0  0  0  0  0  0  0  0  0  0
   11.5263    1.2500    0.0000 C   0  0  0  0  0  0  0  0  0  0  0  0
   20.1865   -4.7500    0.0000 C   0  0  0  0  0  0  0  0  0  0  0  0
   19.3205   -4.2500    0.0000 C   0  0  0  0  0  0  0  0  0  0  0  0
   15.8564   -1.2500    0.0000 C   0  0  0  0  0  0  0  0  0  0  0  0
   20.1865   -5.7500    0.0000 C   0  0  0  0  0  0  0  0  0  0  0  0
   19.3205   -3.2500    0.0000 C   0  0  0  0  0  0  0  0  0  0  0  0
   12.3923   -1.2500    0.0000 C   0  0  0  0  0  0  0  0  0  0  0  0
   16.7224   -1.7500    0.0000 C   0  0  0  0  0  0  0  0  0  0  0  0
   21.0526   -6.2500    0.0000 C   0  0  0  0  0  0  0  0  0  0  0  0
   18.4545   -2.7500    0.0000 C   0  0  0  0  0  0  0  0  0  0  0  0
   11.5263   -1.7500    0.0000 C   0  0  0  0  0  0  0  0  0  0  0  0
   17.5885    7.7500    0.0000 C   0  0  0  0  0  0  0  0  0  0  0  0
    8.9282   -1.2500    0.0000 C   0  0  3  0  0  0  0  0  0  0  0  0
   17.5885   -1.2500    0.0000 C   0  0  0  0  0  0  0  0  0  0  0  0
   21.0526   -7.2500    0.0000 C   0  0  0  0  0  0  0  0  0  0  0  0
   18.4545   -1.7500    0.0000 C   0  0  0  0  0  0  0  0  0  0  0  0
   10.6603    1.7500    0.0000 C   0  0  0  0  0  0  0  0  0  0  0  0
    8.0622   -1.7500    0.0000 C   0  0  0  0  0  0  0  0  0  0  0  0
    8.9282   -0.2500    0.0000 C   0  0  0  0  0  0  0  0  0  0  0  0
   10.6603   -1.2500    0.0000 C   0  0  0  0  0  0  0  0  0  0  0  0
    9.7942    1.2500    0.0000 C   0  0  0  0  0  0  0  0  0  0  0  0
   21.9186   -7.7500    0.0000 C   0  0  0  0  0  0  0  0  0  0  0  0
   15.2024    2.6674    0.0000 H   0  0  0  0  0  0  0  0  0  0  0  0
   15.6010    3.3577    0.0000 H   0  0  0  0  0  0  0  0  0  0  0  0
   14.7783    4.8326    0.0000 H   0  0  0  0  0  0  0  0  0  0  0  0
   14.3798    4.1423    0.0000 H   0  0  0  0  0  0  0  0  0  0  0  0
    3.3335   -2.7250    0.0000 H   0  0  0  0  0  0  0  0  0  0  0  0
    4.1306   -2.7250    0.0000 H   0  0  0  0  0  0  0  0  0  0  0  0
   13.9123    3.3326    0.0000 H   0  0  0  0  0  0  0  0  0  0  0  0
   13.5138    2.6423    0.0000 H   0  0  0  0  0  0  0  0  0  0  0  0
   16.0685    4.1674    0.0000 H   0  0  0  0  0  0  0  0  0  0  0  0
   16.4670    4.8577    0.0000 H   0  0  0  0  0  0  0  0  0  0  0  0
   14.3364    1.1674    0.0000 H   0  0  0  0  0  0  0  0  0  0  0  0
   14.7349    1.8577    0.0000 H   0  0  0  0  0  0  0  0  0  0  0  0
   15.6444    6.3326    0.0000 H   0  0  0  0  0  0  0  0  0  0  0  0
   15.2458    5.6423    0.0000 H   0  0  0  0  0  0  0  0  0  0  0  0
   12.8598    0.7751    0.0000 H   0  0  0  0  0  0  0  0  0  0  0  0
   13.6569    0.7751    0.0000 H   0  0  0  0  0  0  0  0  0  0  0  0
    1.8291   -2.3060    0.0000 H   0  0  0  0  0  0  0  0  0  0  0  0
    2.0560   -3.1530    0.0000 H   0  0  0  0  0  0  0  0  0  0  0  0
    2.3100   -0.7131    0.0000 H   0  0  0  0  0  0  0  0  0  0  0  0
    1.4631   -0.9400    0.0000 H   0  0  0  0  0  0  0  0  0  0  0  0
    2.9030   -2.9260    0.0000 H   0  0  0  0  0  0  0  0  0  0  0  0
    3.9030   -1.1940    0.0000 H   0  0  0  0  0  0  0  0  0  0  0  0
    1.6900   -1.7869    0.0000 H   0  0  0  0  0  0  0  0  0  0  0  0
    3.6760   -0.3470    0.0000 H   0  0  0  0  0  0  0  0  0  0  0  0
    2.8291   -0.5740    0.0000 H   0  0  0  0  0  0  0  0  0  0  0  0
    4.9966   -1.2750    0.0000 H   0  0  0  0  0  0  0  0  0  0  0  0
    4.1996   -1.2750    0.0000 H   0  0  0  0  0  0  0  0  0  0  0  0
   16.9345    5.6674    0.0000 H   0  0  0  0  0  0  0  0  0  0  0  0
   17.3330    6.3577    0.0000 H   0  0  0  0  0  0  0  0  0  0  0  0
   12.7908    2.2250    0.0000 H   0  0  0  0  0  0  0  0  0  0  0  0
   11.9938    2.2250    0.0000 H   0  0  0  0  0  0  0  0  0  0  0  0
   14.5229   -0.7751    0.0000 H   0  0  0  0  0  0  0  0  0  0  0  0
   13.7258   -0.7751    0.0000 H   0  0  0  0  0  0  0  0  0  0  0  0
   14.5919   -2.2250    0.0000 H   0  0  0  0  0  0  0  0  0  0  0  0
   15.3889   -2.2250    0.0000 H   0  0  0  0  0  0  0  0  0  0  0  0
   16.5104    7.8326    0.0000 H   0  0  0  0  0  0  0  0  0  0  0  0
   16.1119    7.1423    0.0000 H   0  0  0  0  0  0  0  0  0  0  0  0
   12.8598   -2.2250    0.0000 H   0  0  0  0  0  0  0  0  0  0  0  0
   13.6569   -2.2250    0.0000 H   0  0  0  0  0  0  0  0  0  0  0  0
   11.1278    0.7751    0.0000 H   0  0  0  0  0  0  0  0  0  0  0  0
   11.9248    0.7751    0.0000 H   0  0  0  0  0  0  0  0  0  0  0  0
   20.7971   -4.8577    0.0000 H   0  0  0  0  0  0  0  0  0  0  0  0
   20.3986   -4.1674    0.0000 H   0  0  0  0  0  0  0  0  0  0  0  0
   18.7099   -4.1423    0.0000 H   0  0  0  0  0  0  0  0  0  0  0  0
   19.1085   -4.8326    0.0000 H   0  0  0  0  0  0  0  0  0  0  0  0
   16.2549   -0.7751    0.0000 H   0  0  0  0  0  0  0  0  0  0  0  0
   15.4579   -0.7751    0.0000 H   0  0  0  0  0  0  0  0  0  0  0  0
   19.5760   -5.6423    0.0000 H   0  0  0  0  0  0  0  0  0  0  0  0
   19.9745   -6.3326    0.0000 H   0  0  0  0  0  0  0  0  0  0  0  0
   19.9311   -3.3577    0.0000 H   0  0  0  0  0  0  0  0  0  0  0  0
   19.5326   -2.6674    0.0000 H   0  0  0  0  0  0  0  0  0  0  0  0
   12.7908   -0.7751    0.0000 H   0  0  0  0  0  0  0  0  0  0  0  0
   11.9938   -0.7751    0.0000 H   0  0  0  0  0  0  0  0  0  0  0  0
   16.3239   -2.2250    0.0000 H   0  0  0  0  0  0  0  0  0  0  0  0
   17.1210   -2.2250    0.0000 H   0  0  0  0  0  0  0  0  0  0  0  0
   21.6631   -6.3577    0.0000 H   0  0  0  0  0  0  0  0  0  0  0  0
   21.2646   -5.6674    0.0000 H   0  0  0  0  0  0  0  0  0  0  0  0
   17.8439   -2.6423    0.0000 H   0  0  0  0  0  0  0  0  0  0  0  0
   18.2424   -3.3326    0.0000 H   0  0  0  0  0  0  0  0  0  0  0  0
   11.1278   -2.2250    0.0000 H   0  0  0  0  0  0  0  0  0  0  0  0
   11.9248   -2.2250    0.0000 H   0  0  0  0  0  0  0  0  0  0  0  0
   17.8985    7.2131    0.0000 H   0  0  0  0  0  0  0  0  0  0  0  0
   18.1254    8.0600    0.0000 H   0  0  0  0  0  0  0  0  0  0  0  0
   17.2785    8.2869    0.0000 H   0  0  0  0  0  0  0  0  0  0  0  0
    9.4651   -0.9400    0.0000 H   0  0  0  0  0  0  0  0  0  0  0  0
   17.5885   -0.6300    0.0000 H   0  0  0  0  0  0  0  0  0  0  0  0
   20.4420   -7.1423    0.0000 H   0  0  0  0  0  0  0  0  0  0  0  0
   20.8405   -7.8326    0.0000 H   0  0  0  0  0  0  0  0  0  0  0  0
   18.9914   -1.4400    0.0000 H   0  0  0  0  0  0  0  0  0  0  0  0
   10.6603    2.3700    0.0000 H   0  0  0  0  0  0  0  0  0  0  0  0
    7.6636   -2.2250    0.0000 H   0  0  0  0  0  0  0  0  0  0  0  0
    8.4607   -2.2250    0.0000 H   0  0  0  0  0  0  0  0  0  0  0  0
    8.7162    0.3326    0.0000 H   0  0  0  0  0  0  0  0  0  0  0  0
    8.3176   -0.3577    0.0000 H   0  0  0  0  0  0  0  0  0  0  0  0
    9.2573    1.5600    0.0000 H   0  0  0  0  0  0  0  0  0  0  0  0
   21.6086   -8.2869    0.0000 H   0  0  0  0  0  0  0  0  0  0  0  0
   22.4555   -8.0600    0.0000 H   0  0  0  0  0  0  0  0  0  0  0  0
   22.2286   -7.2131    0.0000 H   0  0  0  0  0  0  0  0  0  0  0  0
    6.1401   -0.3470    0.0000 H   0  0  0  0  0  0  0  0  0  0  0  0
  1  2  1  0  0  0  0
  1  3  1  0  0  0  0
  1  6  1  0  0  0  0
  1  7  2  0  0  0  0
  2 21  1  0  0  0  0
  3 45  1  0  0  0  0
  4 40  1  0  0  0  0
  4 47  1  0  0  0  0
  5 46  1  0  0  0  0
  5 48  1  0  0  0  0
  6128  1  0  0  0  0
  8 47  2  0  0  0  0
  9 12  1  0  0  0  0
  9 18  1  0  0  0  0
  9 19  1  0  0  0  0
  9 20  1  0  0  0  0
 10 11  1  0  0  0  0
 10 13  1  0  0  0  0
 10 50  1  0  0  0  0
 10 51  1  0  0  0  0
 11 14  1  0  0  0  0
 11 52  1  0  0  0  0
 11 53  1  0  0  0  0
 12 21  1  0  0  0  0
 12 54  1  0  0  0  0
 12 55  1  0  0  0  0
 13 15  1  0  0  0  0
 13 56  1  0  0  0  0
 13 57  1  0  0  0  0
 14 16  1  0  0  0  0
 14 58  1  0  0  0  0
 14 59  1  0  0  0  0
 15 17  1  0  0  0  0
 15 60  1  0  0  0  0
 15 61  1  0  0  0  0
 16 22  1  0  0  0  0
 16 62  1  0  0  0  0
 16 63  1  0  0  0  0
 17 23  1  0  0  0  0
 17 64  1  0  0  0  0
 17 65  1  0  0  0  0
 18 68  1  0  0  0  0
 18 69  1  0  0  0  0
 18 72  1  0  0  0  0
 19 66  1  0  0  0  0
 19 67  1  0  0  0  0
 19 70  1  0  0  0  0
 20 71  1  0  0  0  0
 20 73  1  0  0  0  0
 20 74  1  0  0  0  0
 21 75  1  0  0  0  0
 21 76  1  0  0  0  0
 22 26  1  0  0  0  0
 22 77  1  0  0  0  0
 22 78  1  0  0  0  0
 23 28  1  0  0  0  0
 23 79  1  0  0  0  0
 23 80  1  0  0  0  0
 24 25  1  0  0  0  0
 24 27  1  0  0  0  0
 24 81  1  0  0  0  0
 24 82  1  0  0  0  0
 25 31  1  0  0  0  0
 25 83  1  0  0  0  0
 25 84  1  0  0  0  0
 26 39  1  0  0  0  0
 26 85  1  0  0  0  0
 26 86  1  0  0  0  0
 27 34  1  0  0  0  0
 27 87  1  0  0  0  0
 27 88  1  0  0  0  0
 28 44  1  0  0  0  0
 28 89  1  0  0  0  0
 28 90  1  0  0  0  0
 29 30  1  0  0  0  0
 29 32  1  0  0  0  0
 29 91  1  0  0  0  0
 29 92  1  0  0  0  0
 30 33  1  0  0  0  0
 30 93  1  0  0  0  0
 30 94  1  0  0  0  0
 31 35  1  0  0  0  0
 31 95  1  0  0  0  0
 31 96  1  0  0  0  0
 32 36  1  0  0  0  0
 32 97  1  0  0  0  0
 32 98  1  0  0  0  0
 33 37  1  0  0  0  0
 33 99  1  0  0  0  0
 33100  1  0  0  0  0
 34 38  1  0  0  0  0
 34101  1  0  0  0  0
 34102  1  0  0  0  0
 35 41  1  0  0  0  0
 35103  1  0  0  0  0
 35104  1  0  0  0  0
 36 42  1  0  0  0  0
 36105  1  0  0  0  0
 36106  1  0  0  0  0
 37 43  1  0  0  0  0
 37107  1  0  0  0  0
 37108  1  0  0  0  0
 38 47  1  0  0  0  0
 38109  1  0  0  0  0
 38110  1  0  0  0  0
 39111  1  0  0  0  0
 39112  1  0  0  0  0
 39113  1  0  0  0  0
 40 45  1  0  0  0  0
 40 46  1  0  0  0  0
 40114  1  0  0  0  0
 41 43  2  0  0  0  0
 41115  1  0  0  0  0
 42 49  1  0  0  0  0
 42116  1  0  0  0  0
 42117  1  0  0  0  0
 43118  1  0  0  0  0
 44 48  2  0  0  0  0
 44119  1  0  0  0  0
 45120  1  0  0  0  0
 45121  1  0  0  0  0
 46122  1  0  0  0  0
 46123  1  0  0  0  0
 48124  1  0  0  0  0
 49125  1  0  0  0  0
 49126  1  0  0  0  0
 49127  1  0  0  0  0
M  CHG  1   9   1
M  END
> <PUBCHEM_COMPOUND_CID>
5282300

> <PUBCHEM_COMPOUND_CANONICALIZED>
1

> <PUBCHEM_CACTVS_COMPLEXITY>
843

> <PUBCHEM_CACTVS_HBOND_ACCEPTOR>
7

> <PUBCHEM_CACTVS_HBOND_DONOR>
1

> <PUBCHEM_CACTVS_ROTATABLE_BOND>
38

> <PUBCHEM_CACTVS_SUBSKEYS>
AAADcfB+OAIAAAAAAAAAAAAAAAAAAAAAAAAAAAAAAAAAAAAAAAAAHgAACCAACBThgAYCCAMABRCIQCDSCIAACAAgIAAICAEIAAgDABIAAQACAAAFgAAaAAOIyKCAAAAAAAAAAAAAAAAAAAAAAAAAAAAAAA==

> <PUBCHEM_IUPAC_OPENEYE_NAME>
2-[hydroxy-[2-[(Z)-octadec-9-enoyl]oxy-3-[(Z)-tetradec-1-enoxy]propoxy]phosphoryl]oxyethyl-trimethyl-ammonium

> <PUBCHEM_IUPAC_CAS_NAME>
2-[hydroxy-[2-[(Z)-1-oxooctadec-9-enoxy]-3-[(Z)-tetradec-1-enoxy]propoxy]phosphoryl]oxyethyl-trimethylammonium

> <PUBCHEM_IUPAC_NAME>
2-[hydroxy-[2-[(Z)-octadec-9-enoyl]oxy-3-[(Z)-tetradec-1-enoxy]propoxy]phosphoryl]oxyethyl-trimethylazanium

> <PUBCHEM_IUPAC_SYSTEMATIC_NAME>
trimethyl-[2-[[2-[(Z)-octadec-9-enoyl]oxy-3-[(Z)-tetradec-1-enoxy]propoxy]-oxidanyl-phosphoryl]oxyethyl]azanium

> <PUBCHEM_IUPAC_TRADITIONAL_NAME>
2-[hydroxy-[2-[(Z)-octadec-9-enoyl]oxy-3-[(Z)-tetradec-1-enoxy]propoxy]phosphoryl]oxyethyl-trimethyl-ammonium

> <PUBCHEM_IUPAC_INCHI>
InChI=1S/C40H78NO7P/c1-6-8-10-12-14-16-18-20-21-22-23-25-27-29-31-33-40(42)48-39(38-47-49(43,44)46-36-34-41(3,4)5)37-45-35-32-30-28-26-24-19-17-15-13-11-9-7-2/h20-21,32,35,39H,6-19,22-31,33-34,36-38H2,1-5H3/p+1/b21-20-,35-32-

> <PUBCHEM_IUPAC_INCHIKEY>
CDELFBJJHZJURR-BEDZKDRLSA-O

> <PUBCHEM_XLOGP3_AA>
13.2

> <PUBCHEM_EXACT_MASS>
716.559416

> <PUBCHEM_MOLECULAR_FORMULA>
C40H79NO7P+

> <PUBCHEM_MOLECULAR_WEIGHT>
717.031522

> <PUBCHEM_OPENEYE_CAN_SMILES>
CCCCCCCCCCCCC=COCC(COP(=O)(O)OCC[N+](C)(C)C)OC(=O)CCCCCCCC=CCCCCCCCC

> <PUBCHEM_OPENEYE_ISO_SMILES>
CCCCCCCCCCCC/C=C\OCC(COP(=O)(O)OCC[N+](C)(C)C)OC(=O)CCCCCCC/C=C\CCCCCCCC

> <PUBCHEM_CACTVS_TPSA>
91.3

> <PUBCHEM_MONOISOTOPIC_WEIGHT>
716.559416

> <PUBCHEM_TOTAL_CHARGE>
1

> <PUBCHEM_HEAVY_ATOM_COUNT>
49

> <PUBCHEM_ATOM_DEF_STEREO_COUNT>
0

> <PUBCHEM_ATOM_UDEF_STEREO_COUNT>
1

> <PUBCHEM_BOND_DEF_STEREO_COUNT>
2

> <PUBCHEM_BOND_UDEF_STEREO_COUNT>
0

> <PUBCHEM_ISOTOPIC_ATOM_COUNT>
0

> <PUBCHEM_COMPONENT_COUNT>
1

> <PUBCHEM_CACTVS_TAUTO_COUNT>
1

> <PUBCHEM_COORDINATE_TYPE>
1
5
255

> <PUBCHEM_BONDANNOTATIONS>
40  45  3

$$$$

