17395857
  -OEChem-06241222522D

 37 40  0     1  0  0  0  0  0999 V2000
    8.8322    1.2906    0.0000 S   0  0  0  0  0  0  0  0  0  0  0  0
    4.6783   -2.2932    0.0000 O   0  0  0  0  0  0  0  0  0  0  0  0
    6.2619   -1.4885    0.0000 O   0  0  0  0  0  0  0  0  0  0  0  0
    5.9674    0.4730    0.0000 N   0  0  3  0  0  0  0  0  0  0  0  0
    4.6783   -0.6837    0.0000 N   0  0  0  0  0  0  0  0  0  0  0  0
    6.2781    1.4235    0.0000 C   0  0  3  0  0  0  0  0  0  0  0  0
    6.6353   -0.2713    0.0000 C   0  0  0  0  0  0  0  0  0  0  0  0
    7.2566    1.6297    0.0000 C   0  0  0  0  0  0  0  0  0  0  0  0
    7.6138   -0.0651    0.0000 C   0  0  0  0  0  0  0  0  0  0  0  0
    4.9889    0.2668    0.0000 C   0  0  0  0  0  0  0  0  0  0  0  0
    7.9244    0.8854    0.0000 C   0  0  0  0  0  0  0  0  0  0  0  0
    5.6103    2.1678    0.0000 C   0  0  0  0  0  0  0  0  0  0  0  0
    7.7574    2.4885    0.0000 C   0  0  0  0  0  0  0  0  0  0  0  0
    3.7320   -0.9885    0.0000 C   0  0  0  0  0  0  0  0  0  0  0  0
    8.7292    2.2793    0.0000 C   0  0  0  0  0  0  0  0  0  0  0  0
    5.2619   -1.4885    0.0000 C   0  0  0  0  0  0  0  0  0  0  0  0
    3.7320   -1.9885    0.0000 C   0  0  0  0  0  0  0  0  0  0  0  0
    2.8660   -0.4885    0.0000 C   0  0  0  0  0  0  0  0  0  0  0  0
    2.8660   -2.4885    0.0000 C   0  0  0  0  0  0  0  0  0  0  0  0
    2.0000   -0.9885    0.0000 C   0  0  0  0  0  0  0  0  0  0  0  0
    2.0000   -1.9885    0.0000 C   0  0  0  0  0  0  0  0  0  0  0  0
    5.6714    1.2957    0.0000 H   0  0  0  0  0  0  0  0  0  0  0  0
    6.1089   -0.5989    0.0000 H   0  0  0  0  0  0  0  0  0  0  0  0
    6.8665   -0.8466    0.0000 H   0  0  0  0  0  0  0  0  0  0  0  0
    7.6344   -0.6847    0.0000 H   0  0  0  0  0  0  0  0  0  0  0  0
    8.2276   -0.1524    0.0000 H   0  0  0  0  0  0  0  0  0  0  0  0
    4.9684    0.8864    0.0000 H   0  0  0  0  0  0  0  0  0  0  0  0
    4.3751    0.3541    0.0000 H   0  0  0  0  0  0  0  0  0  0  0  0
    6.0717    2.5819    0.0000 H   0  0  0  0  0  0  0  0  0  0  0  0
    5.1962    2.6293    0.0000 H   0  0  0  0  0  0  0  0  0  0  0  0
    5.1488    1.7538    0.0000 H   0  0  0  0  0  0  0  0  0  0  0  0
    7.5072    3.0557    0.0000 H   0  0  0  0  0  0  0  0  0  0  0  0
    9.1906    2.6933    0.0000 H   0  0  0  0  0  0  0  0  0  0  0  0
    2.8660    0.1315    0.0000 H   0  0  0  0  0  0  0  0  0  0  0  0
    2.8660   -3.1085    0.0000 H   0  0  0  0  0  0  0  0  0  0  0  0
    1.4631   -0.6785    0.0000 H   0  0  0  0  0  0  0  0  0  0  0  0
    1.4631   -2.2985    0.0000 H   0  0  0  0  0  0  0  0  0  0  0  0
  1 11  1  0  0  0  0
  1 15  1  0  0  0  0
  2 16  1  0  0  0  0
  2 17  1  0  0  0  0
  3 16  2  0  0  0  0
  4  6  1  0  0  0  0
  4  7  1  0  0  0  0
  4 10  1  0  0  0  0
  5 10  1  0  0  0  0
  5 14  1  0  0  0  0
  5 16  1  0  0  0  0
  6  8  1  0  0  0  0
  6 12  1  0  0  0  0
  6 22  1  0  0  0  0
  7  9  1  0  0  0  0
  7 23  1  0  0  0  0
  7 24  1  0  0  0  0
  8 11  2  0  0  0  0
  8 13  1  0  0  0  0
  9 11  1  0  0  0  0
  9 25  1  0  0  0  0
  9 26  1  0  0  0  0
 10 27  1  0  0  0  0
 10 28  1  0  0  0  0
 12 29  1  0  0  0  0
 12 30  1  0  0  0  0
 12 31  1  0  0  0  0
 13 15  2  0  0  0  0
 13 32  1  0  0  0  0
 14 17  1  0  0  0  0
 14 18  2  0  0  0  0
 15 33  1  0  0  0  0
 17 19  2  0  0  0  0
 18 20  1  0  0  0  0
 18 34  1  0  0  0  0
 19 21  1  0  0  0  0
 19 35  1  0  0  0  0
 20 21  2  0  0  0  0
 20 36  1  0  0  0  0
 21 37  1  0  0  0  0
M  END
> <PUBCHEM_COMPOUND_CID>
17395857

> <PUBCHEM_COMPOUND_CANONICALIZED>
1

> <PUBCHEM_CACTVS_COMPLEXITY>
419

> <PUBCHEM_CACTVS_HBOND_ACCEPTOR>
4

> <PUBCHEM_CACTVS_HBOND_DONOR>
0

> <PUBCHEM_CACTVS_ROTATABLE_BOND>
2

> <PUBCHEM_CACTVS_SUBSKEYS>
AAADceB7MABAAAAAAAAAAAAAAAAAAWJAAAA8QAAAAAAAAFgBwAAAHgQAAAAADCzF2ASzz4MABAiMAiRCWACDCIAhKhBIiBgPbIiOJiLksZuNMihsxxP46CeQQAAOAAAAAAAAEAAAAAAAAAAgAAAAAAAAAA==

> <PUBCHEM_IUPAC_OPENEYE_NAME>
3-[(4-methyl-6,7-dihydro-4H-thieno[3,2-c]pyridin-5-yl)methyl]-1,3-benzoxazol-2-one

> <PUBCHEM_IUPAC_CAS_NAME>
3-[(4-methyl-6,7-dihydro-4H-thieno[3,2-c]pyridin-5-yl)methyl]-1,3-benzoxazol-2-one

> <PUBCHEM_IUPAC_NAME>
3-[(4-methyl-6,7-dihydro-4H-thieno[3,2-c]pyridin-5-yl)methyl]-1,3-benzoxazol-2-one

> <PUBCHEM_IUPAC_SYSTEMATIC_NAME>
3-[(4-methyl-6,7-dihydro-4H-thieno[3,2-c]pyridin-5-yl)methyl]-1,3-benzoxazol-2-one

> <PUBCHEM_IUPAC_TRADITIONAL_NAME>
3-[(4-methyl-6,7-dihydro-4H-thieno[3,2-c]pyridin-5-yl)methyl]-1,3-benzoxazol-2-one

> <PUBCHEM_IUPAC_INCHI>
InChI=1S/C16H16N2O2S/c1-11-12-7-9-21-15(12)6-8-17(11)10-18-13-4-2-3-5-14(13)20-16(18)19/h2-5,7,9,11H,6,8,10H2,1H3

> <PUBCHEM_IUPAC_INCHIKEY>
LNKYQTGRSOXXMT-UHFFFAOYSA-N

> <PUBCHEM_XLOGP3_AA>
3.1

> <PUBCHEM_EXACT_MASS>
300.093249

> <PUBCHEM_MOLECULAR_FORMULA>
C16H16N2O2S

> <PUBCHEM_MOLECULAR_WEIGHT>
300.37544

> <PUBCHEM_OPENEYE_CAN_SMILES>
CC1C2=C(CCN1CN3C4=CC=CC=C4OC3=O)SC=C2

> <PUBCHEM_OPENEYE_ISO_SMILES>
CC1C2=C(CCN1CN3C4=CC=CC=C4OC3=O)SC=C2

> <PUBCHEM_CACTVS_TPSA>
61

> <PUBCHEM_MONOISOTOPIC_WEIGHT>
300.093249

> <PUBCHEM_TOTAL_CHARGE>
0

> <PUBCHEM_HEAVY_ATOM_COUNT>
21

> <PUBCHEM_ATOM_DEF_STEREO_COUNT>
0

> <PUBCHEM_ATOM_UDEF_STEREO_COUNT>
1

> <PUBCHEM_BOND_DEF_STEREO_COUNT>
0

> <PUBCHEM_BOND_UDEF_STEREO_COUNT>
0

> <PUBCHEM_ISOTOPIC_ATOM_COUNT>
0

> <PUBCHEM_COMPONENT_COUNT>
1

> <PUBCHEM_CACTVS_TAUTO_COUNT>
1

> <PUBCHEM_COORDINATE_TYPE>
1
5
255

> <PUBCHEM_BONDANNOTATIONS>
1  11  8
1  15  8
13  15  8
14  17  8
14  18  8
17  19  8
18  20  8
19  21  8
2  16  8
2  17  8
20  21  8
5  14  8
5  16  8
6  12  3
8  11  8
8  13  8

$$$$

