90590
  -OEChem-07051213123D

 26 27  0     0  0  0  0  0  0999 V2000
    4.1395    0.2615    0.2066 O   0  0  0  0  0  0  0  0  0  0  0  0
    0.4716   -1.5572   -0.4906 O   0  0  0  0  0  0  0  0  0  0  0  0
   -0.4380    0.5466    0.0336 N   0  0  0  0  0  0  0  0  0  0  0  0
    1.9703    0.1858   -0.1343 C   0  0  0  0  0  0  0  0  0  0  0  0
    3.0430   -0.5406    0.2276 C   0  0  0  0  0  0  0  0  0  0  0  0
    0.5931   -0.3664   -0.2243 C   0  0  0  0  0  0  0  0  0  0  0  0
   -1.8128    0.3090    0.0451 C   0  0  0  0  0  0  0  0  0  0  0  0
    2.3555    1.4869   -0.3996 C   0  0  0  0  0  0  0  0  0  0  0  0
    3.2762   -1.9389    0.6198 C   0  0  0  0  0  0  0  0  0  0  0  0
    3.7127    1.4935   -0.1762 C   0  0  0  0  0  0  0  0  0  0  0  0
   -2.3018   -0.9694   -0.2237 C   0  0  0  0  0  0  0  0  0  0  0  0
   -2.6983    1.3499    0.3248 C   0  0  0  0  0  0  0  0  0  0  0  0
   -3.6763   -1.2068   -0.2125 C   0  0  0  0  0  0  0  0  0  0  0  0
   -4.0727    1.1123    0.3362 C   0  0  0  0  0  0  0  0  0  0  0  0
   -4.5618   -0.1660    0.0675 C   0  0  0  0  0  0  0  0  0  0  0  0
    1.7632    2.3325   -0.7181 H   0  0  0  0  0  0  0  0  0  0  0  0
   -0.1692    1.5025    0.2545 H   0  0  0  0  0  0  0  0  0  0  0  0
    3.1805   -2.6009   -0.2464 H   0  0  0  0  0  0  0  0  0  0  0  0
    4.2785   -2.0747    1.0386 H   0  0  0  0  0  0  0  0  0  0  0  0
    2.5536   -2.2556    1.3783 H   0  0  0  0  0  0  0  0  0  0  0  0
    4.4778    2.2531   -0.2433 H   0  0  0  0  0  0  0  0  0  0  0  0
   -1.6825   -1.8260   -0.4488 H   0  0  0  0  0  0  0  0  0  0  0  0
   -2.3315    2.3512    0.5359 H   0  0  0  0  0  0  0  0  0  0  0  0
   -4.0585   -2.2019   -0.4216 H   0  0  0  0  0  0  0  0  0  0  0  0
   -4.7622    1.9227    0.5541 H   0  0  0  0  0  0  0  0  0  0  0  0
   -5.6320   -0.3510    0.0763 H   0  0  0  0  0  0  0  0  0  0  0  0
  1  5  1  0  0  0  0
  1 10  1  0  0  0  0
  2  6  2  0  0  0  0
  3  6  1  0  0  0  0
  3  7  1  0  0  0  0
  3 17  1  0  0  0  0
  4  5  2  0  0  0  0
  4  6  1  0  0  0  0
  4  8  1  0  0  0  0
  5  9  1  0  0  0  0
  7 11  2  0  0  0  0
  7 12  1  0  0  0  0
  8 10  2  0  0  0  0
  8 16  1  0  0  0  0
  9 18  1  0  0  0  0
  9 19  1  0  0  0  0
  9 20  1  0  0  0  0
 10 21  1  0  0  0  0
 11 13  1  0  0  0  0
 11 22  1  0  0  0  0
 12 14  2  0  0  0  0
 12 23  1  0  0  0  0
 13 15  2  0  0  0  0
 13 24  1  0  0  0  0
 14 15  1  0  0  0  0
 14 25  1  0  0  0  0
 15 26  1  0  0  0  0
M  END
> <PUBCHEM_COMPOUND_CID>
90590

> <PUBCHEM_CONFORMER_RMSD>
0.6

> <PUBCHEM_CONFORMER_DIVERSEORDER>
1
6
5
4
2
3

> <PUBCHEM_MMFF94_PARTIAL_CHARGES>
23
1 -0.28
10 -0.01
11 -0.15
12 -0.15
13 -0.15
14 -0.15
15 -0.15
16 0.15
17 0.37
2 -0.57
21 0.15
22 0.15
23 0.15
24 0.15
25 0.15
26 0.15
3 -0.55
4 -0.09
5 -0.04
6 0.72
7 0.12
8 -0.15
9 0.18

> <PUBCHEM_EFFECTIVE_ROTOR_COUNT>
3

> <PUBCHEM_PHARMACOPHORE_FEATURES>
5
1 1 acceptor
1 2 acceptor
1 3 donor
5 1 4 5 8 10 rings
6 7 11 12 13 14 15 rings

> <PUBCHEM_HEAVY_ATOM_COUNT>
15

> <PUBCHEM_ATOM_DEF_STEREO_COUNT>
0

> <PUBCHEM_ATOM_UDEF_STEREO_COUNT>
0

> <PUBCHEM_BOND_DEF_STEREO_COUNT>
0

> <PUBCHEM_BOND_UDEF_STEREO_COUNT>
0

> <PUBCHEM_ISOTOPIC_ATOM_COUNT>
0

> <PUBCHEM_COMPONENT_COUNT>
1

> <PUBCHEM_CACTVS_TAUTO_COUNT>
2

> <PUBCHEM_CONFORMER_ID>
000161DE00000001

> <PUBCHEM_MMFF94_ENERGY>
34.2936

> <PUBCHEM_FEATURE_SELFOVERLAP>
25.371

> <PUBCHEM_SHAPE_FINGERPRINT>
10014705 185 18343868831694322525
10608611 8 18410293648626280901
10616163 171 18336544906841860775
11615757 297 17676199143995226577
12107183 9 17834677479950242305
12251169 10 18413108368159460532
13167823 11 18411139142871407251
13760787 19 18409727344102759486
14144814 61 18411138047501408633
14289901 80 18411699863725895441
14325111 11 18409729555984458644
14415576 193 18408880750161330676
15196674 1 18409729569154151629
15442244 35 18267304416333715760
15536298 74 18408322211397940902
15669948 3 18041003886545706751
17492 89 18410573998258919035
18186145 218 18343865541015897350
19050596 39 18411138030427047625
19422 9 18410575093400843075
200 152 18260840284885338269
20279233 1 15626508280467216873
20645477 70 18412265068516554598
21267235 1 18410283718403358175
22485316 2 18412266129573410489
2255824 54 18131064944401708274
22854114 111 18412263913349381636
23048698 100 18341893008528770424
23402539 116 18260836977122372733
23402655 69 18409166610400046164
23463225 33 18411138056128266572
23559900 14 18042684077672858510
3545911 37 18411697677450521317
42 15 18272369801704122154
4214541 1 18411138069277152817
474 4 17844806988862492628
4990 188 17968645082514772988
5104073 3 18410009953282984099
5374978 207 18407762534204168793
573450 72 18335709368441053339
7364860 26 18189048866555085270
77779 3 18411135840062324297
9709674 26 18410849958465680767

> <PUBCHEM_SHAPE_MULTIPOLES>
291.97
9.25
1.74
0.68
2.37
0.2
0.01
-0.63
0.77
-0.8
0.05
-0.04
0.04
-0.72

> <PUBCHEM_SHAPE_SELFOVERLAP>
630.697

> <PUBCHEM_SHAPE_VOLUME>
160.5

> <PUBCHEM_COORDINATE_TYPE>
2
5
10

$$$$

