119268
  -OEChem-07051212502D

 44 47  0     1  0  0  0  0  0999 V2000
    6.3582    0.1005    0.0000 O   0  0  0  0  0  0  0  0  0  0  0  0
    8.5022    2.1690    0.0000 O   0  0  0  0  0  0  0  0  0  0  0  0
    2.8687    1.0048    0.0000 O   0  0  0  0  0  0  0  0  0  0  0  0
   11.1418   -0.1752    0.0000 O   0  0  0  0  0  0  0  0  0  0  0  0
    6.8550    1.6338    0.0000 C   0  0  2  0  0  0  0  0  0  0  0  0
    7.1640    0.6827    0.0000 C   0  0  2  0  0  0  0  0  0  0  0  0
    5.8609    1.6312    0.0000 C   0  0  0  0  0  0  0  0  0  0  0  0
    7.5241    2.3769    0.0000 C   0  0  0  0  0  0  0  0  0  0  0  0
    5.5545    0.6855    0.0000 C   0  0  0  0  0  0  0  0  0  0  0  0
    8.1421    0.4748    0.0000 C   0  0  0  0  0  0  0  0  0  0  0  0
    8.8113    1.2180    0.0000 C   0  0  0  0  0  0  0  0  0  0  0  0
    4.5453    0.4538    0.0000 C   0  0  0  0  0  0  0  0  0  0  0  0
    5.1793    2.4107    0.0000 C   0  0  0  0  0  0  0  0  0  0  0  0
    8.4487   -0.5207    0.0000 C   0  0  0  0  0  0  0  0  0  0  0  0
    3.8459    1.2173    0.0000 C   0  0  0  0  0  0  0  0  0  0  0  0
    4.2482   -0.5011    0.0000 C   0  0  0  0  0  0  0  0  0  0  0  0
    4.1650    2.2024    0.0000 C   0  0  0  0  0  0  0  0  0  0  0  0
    9.8334    1.0171    0.0000 C   0  0  0  0  0  0  0  0  0  0  0  0
    9.4659   -0.7451    0.0000 C   0  0  0  0  0  0  0  0  0  0  0  0
   10.1629    0.0290    0.0000 C   0  0  0  0  0  0  0  0  0  0  0  0
    3.2727   -0.7211    0.0000 C   0  0  0  0  0  0  0  0  0  0  0  0
    2.9755   -1.6759    0.0000 C   0  0  0  0  0  0  0  0  0  0  0  0
    2.0000   -1.8960    0.0000 C   0  0  0  0  0  0  0  0  0  0  0  0
    3.6538   -2.4107    0.0000 C   0  0  0  0  0  0  0  0  0  0  0  0
    6.5082    2.4098    0.0000 H   0  0  0  0  0  0  0  0  0  0  0  0
    7.3396   -0.1489    0.0000 H   0  0  0  0  0  0  0  0  0  0  0  0
    7.7564    2.9518    0.0000 H   0  0  0  0  0  0  0  0  0  0  0  0
    6.9983    2.7055    0.0000 H   0  0  0  0  0  0  0  0  0  0  0  0
    5.3772    2.9983    0.0000 H   0  0  0  0  0  0  0  0  0  0  0  0
    8.0285   -0.9766    0.0000 H   0  0  0  0  0  0  0  0  0  0  0  0
    4.2775   -1.1204    0.0000 H   0  0  0  0  0  0  0  0  0  0  0  0
    4.8631   -0.5797    0.0000 H   0  0  0  0  0  0  0  0  0  0  0  0
    3.7515    2.6644    0.0000 H   0  0  0  0  0  0  0  0  0  0  0  0
   10.2429    1.4826    0.0000 H   0  0  0  0  0  0  0  0  0  0  0  0
    9.6552   -1.3355    0.0000 H   0  0  0  0  0  0  0  0  0  0  0  0
    2.8521   -0.2656    0.0000 H   0  0  0  0  0  0  0  0  0  0  0  0
    2.4517    1.4636    0.0000 H   0  0  0  0  0  0  0  0  0  0  0  0
   11.3357   -0.7641    0.0000 H   0  0  0  0  0  0  0  0  0  0  0  0
    1.8636   -1.2912    0.0000 H   0  0  0  0  0  0  0  0  0  0  0  0
    1.3952   -2.0324    0.0000 H   0  0  0  0  0  0  0  0  0  0  0  0
    2.1364   -2.5008    0.0000 H   0  0  0  0  0  0  0  0  0  0  0  0
    3.1982   -2.8313    0.0000 H   0  0  0  0  0  0  0  0  0  0  0  0
    4.0744   -2.8663    0.0000 H   0  0  0  0  0  0  0  0  0  0  0  0
    4.1094   -1.9902    0.0000 H   0  0  0  0  0  0  0  0  0  0  0  0
  1  6  1  0  0  0  0
  1  9  1  0  0  0  0
  2  8  1  0  0  0  0
  2 11  1  0  0  0  0
  3 15  1  0  0  0  0
  3 37  1  0  0  0  0
  4 20  1  0  0  0  0
  4 38  1  0  0  0  0
  5  6  1  0  0  0  0
  5  7  1  0  0  0  0
  5  8  1  0  0  0  0
  5 25  1  1  0  0  0
  6 10  1  0  0  0  0
  6 26  1  1  0  0  0
  7  9  2  0  0  0  0
  7 13  1  0  0  0  0
  8 27  1  0  0  0  0
  8 28  1  0  0  0  0
  9 12  1  0  0  0  0
 10 11  2  0  0  0  0
 10 14  1  0  0  0  0
 11 18  1  0  0  0  0
 12 15  2  0  0  0  0
 12 16  1  0  0  0  0
 13 17  2  0  0  0  0
 13 29  1  0  0  0  0
 14 19  2  0  0  0  0
 14 30  1  0  0  0  0
 15 17  1  0  0  0  0
 16 21  1  0  0  0  0
 16 31  1  0  0  0  0
 16 32  1  0  0  0  0
 17 33  1  0  0  0  0
 18 20  2  0  0  0  0
 18 34  1  0  0  0  0
 19 20  1  0  0  0  0
 19 35  1  0  0  0  0
 21 22  2  0  0  0  0
 21 36  1  0  0  0  0
 22 23  1  0  0  0  0
 22 24  1  0  0  0  0
 23 39  1  0  0  0  0
 23 40  1  0  0  0  0
 23 41  1  0  0  0  0
 24 42  1  0  0  0  0
 24 43  1  0  0  0  0
 24 44  1  0  0  0  0
M  END
> <PUBCHEM_COMPOUND_CID>
119268

> <PUBCHEM_COMPOUND_CANONICALIZED>
1

> <PUBCHEM_CACTVS_COMPLEXITY>
486

> <PUBCHEM_CACTVS_HBOND_ACCEPTOR>
4

> <PUBCHEM_CACTVS_HBOND_DONOR>
2

> <PUBCHEM_CACTVS_ROTATABLE_BOND>
2

> <PUBCHEM_CACTVS_SUBSKEYS>
AAADceB4OAAAAAAAAAAAAAAAAAAAASAAAAA0YIAAAAAAAEiRQAAAGgAACAAADRSgmAIyBoAABgCAAiBCAAACCAAgIAAIiAAGCIgMJyKGMRqCeCClwBUIuAfA4PwOoAACCAAIAABAAAQQABAAAAAAAAAAAA==

> <PUBCHEM_IUPAC_OPENEYE_NAME>
(6aR,11aR)-10-(3-methylbut-2-enyl)-6a,11a-dihydro-6H-benzofuro[3,2-c]chromene-3,9-diol

> <PUBCHEM_IUPAC_CAS_NAME>
(6aR,11aR)-10-(3-methylbut-2-enyl)-6a,11a-dihydro-6H-benzofuro[3,2-c][1]benzopyran-3,9-diol

> <PUBCHEM_IUPAC_NAME>
(6aR,11aR)-10-(3-methylbut-2-enyl)-6a,11a-dihydro-6H-[1]benzofuro[3,2-c]chromene-3,9-diol

> <PUBCHEM_IUPAC_SYSTEMATIC_NAME>
(6aR,11aR)-10-(3-methylbut-2-enyl)-6a,11a-dihydro-6H-[1]benzofuro[3,2-c]chromene-3,9-diol

> <PUBCHEM_IUPAC_TRADITIONAL_NAME>
(6aR,11aR)-10-(3-methylbut-2-enyl)-6a,11a-dihydro-6H-benzofuro[3,2-c]chromene-3,9-diol

> <PUBCHEM_IUPAC_INCHI>
InChI=1S/C20H20O4/c1-11(2)3-5-14-17(22)8-7-13-16-10-23-18-9-12(21)4-6-15(18)20(16)24-19(13)14/h3-4,6-9,16,20-22H,5,10H2,1-2H3/t16-,20-/m0/s1

> <PUBCHEM_IUPAC_INCHIKEY>
OFWYIUYVHYPQNX-JXFKEZNVSA-N

> <PUBCHEM_XLOGP3_AA>
4.2

> <PUBCHEM_EXACT_MASS>
324.136159

> <PUBCHEM_MOLECULAR_FORMULA>
C20H20O4

> <PUBCHEM_MOLECULAR_WEIGHT>
324.3704

> <PUBCHEM_OPENEYE_CAN_SMILES>
CC(=CCC1=C(C=CC2=C1OC3C2COC4=C3C=CC(=C4)O)O)C

> <PUBCHEM_OPENEYE_ISO_SMILES>
CC(=CCC1=C(C=CC2=C1O[C@@H]3[C@H]2COC4=C3C=CC(=C4)O)O)C

> <PUBCHEM_CACTVS_TPSA>
58.9

> <PUBCHEM_MONOISOTOPIC_WEIGHT>
324.136159

> <PUBCHEM_TOTAL_CHARGE>
0

> <PUBCHEM_HEAVY_ATOM_COUNT>
24

> <PUBCHEM_ATOM_DEF_STEREO_COUNT>
2

> <PUBCHEM_ATOM_UDEF_STEREO_COUNT>
0

> <PUBCHEM_BOND_DEF_STEREO_COUNT>
0

> <PUBCHEM_BOND_UDEF_STEREO_COUNT>
0

> <PUBCHEM_ISOTOPIC_ATOM_COUNT>
0

> <PUBCHEM_COMPONENT_COUNT>
1

> <PUBCHEM_CACTVS_TAUTO_COUNT>
8

> <PUBCHEM_COORDINATE_TYPE>
1
5
255

> <PUBCHEM_BONDANNOTATIONS>
10  11  8
10  14  8
11  18  8
12  15  8
13  17  8
14  19  8
15  17  8
18  20  8
19  20  8
5  25  5
6  26  5
7  13  8
7  9  8
9  12  8

$$$$

