442396
  -OEChem-07051212583D

 38 40  0     1  0  0  0  0  0999 V2000
   -0.2617   -0.6365   -0.1441 O   0  0  0  0  0  0  0  0  0  0  0  0
    1.3333    3.1431   -0.1080 O   0  0  0  0  0  0  0  0  0  0  0  0
    3.7094    2.1402    0.0780 O   0  0  0  0  0  0  0  0  0  0  0  0
    4.0507   -2.6084    0.0141 O   0  0  0  0  0  0  0  0  0  0  0  0
   -6.5301   -0.6328   -0.2078 O   0  0  0  0  0  0  0  0  0  0  0  0
   -1.0064    0.4692    0.3902 C   0  0  1  0  0  0  0  0  0  0  0  0
   -0.6265    1.7738   -0.3075 C   0  0  0  0  0  0  0  0  0  0  0  0
    1.6978    0.8114   -0.0387 C   0  0  0  0  0  0  0  0  0  0  0  0
    1.0947   -0.4493   -0.0757 C   0  0  0  0  0  0  0  0  0  0  0  0
    0.8490    2.0177   -0.1249 C   0  0  0  0  0  0  0  0  0  0  0  0
   -2.4828    0.1742    0.2299 C   0  0  0  0  0  0  0  0  0  0  0  0
    1.8875   -1.5978   -0.0727 C   0  0  0  0  0  0  0  0  0  0  0  0
    3.0881    0.9268    0.0353 C   0  0  0  0  0  0  0  0  0  0  0  0
    3.8745   -0.2256    0.0586 C   0  0  0  0  0  0  0  0  0  0  0  0
    3.2762   -1.4848   -0.0003 C   0  0  0  0  0  0  0  0  0  0  0  0
    1.2550   -2.9524   -0.1355 C   0  0  0  0  0  0  0  0  0  0  0  0
   -3.2926    0.0401    1.3573 C   0  0  0  0  0  0  0  0  0  0  0  0
   -3.0322    0.0376   -1.0445 C   0  0  0  0  0  0  0  0  0  0  0  0
    5.3642   -0.1145    0.1423 C   0  0  0  0  0  0  0  0  0  0  0  0
   -4.6529   -0.2308    1.2101 C   0  0  0  0  0  0  0  0  0  0  0  0
   -4.3924   -0.2334   -1.1917 C   0  0  0  0  0  0  0  0  0  0  0  0
   -5.2029   -0.3677   -0.0645 C   0  0  0  0  0  0  0  0  0  0  0  0
   -0.7718    0.5415    1.4626 H   0  0  0  0  0  0  0  0  0  0  0  0
   -1.1810    2.6136    0.1261 H   0  0  0  0  0  0  0  0  0  0  0  0
   -0.8115    1.7460   -1.3872 H   0  0  0  0  0  0  0  0  0  0  0  0
    0.4284   -2.9674   -0.8544 H   0  0  0  0  0  0  0  0  0  0  0  0
    1.9531   -3.7288   -0.4641 H   0  0  0  0  0  0  0  0  0  0  0  0
    0.8719   -3.2315    0.8513 H   0  0  0  0  0  0  0  0  0  0  0  0
   -2.8790    0.1440    2.3568 H   0  0  0  0  0  0  0  0  0  0  0  0
   -2.4157    0.1270   -1.9346 H   0  0  0  0  0  0  0  0  0  0  0  0
    5.6842    0.7729    0.6990 H   0  0  0  0  0  0  0  0  0  0  0  0
    5.8097   -0.9484    0.6954 H   0  0  0  0  0  0  0  0  0  0  0  0
    5.7988   -0.0801   -0.8615 H   0  0  0  0  0  0  0  0  0  0  0  0
   -5.2792   -0.3344    2.0920 H   0  0  0  0  0  0  0  0  0  0  0  0
   -4.8082   -0.3404   -2.1900 H   0  0  0  0  0  0  0  0  0  0  0  0
    4.5711    2.0876   -0.3664 H   0  0  0  0  0  0  0  0  0  0  0  0
    4.9245   -2.4161   -0.3624 H   0  0  0  0  0  0  0  0  0  0  0  0
   -6.7383   -0.6950   -1.1558 H   0  0  0  0  0  0  0  0  0  0  0  0
  1  6  1  0  0  0  0
  1  9  1  0  0  0  0
  2 10  2  0  0  0  0
  3 13  1  0  0  0  0
  3 36  1  0  0  0  0
  4 15  1  0  0  0  0
  4 37  1  0  0  0  0
  5 22  1  0  0  0  0
  5 38  1  0  0  0  0
  6  7  1  0  0  0  0
  6 11  1  0  0  0  0
  6 23  1  0  0  0  0
  7 10  1  0  0  0  0
  7 24  1  0  0  0  0
  7 25  1  0  0  0  0
  8  9  1  0  0  0  0
  8 10  1  0  0  0  0
  8 13  2  0  0  0  0
  9 12  2  0  0  0  0
 11 17  2  0  0  0  0
 11 18  1  0  0  0  0
 12 15  1  0  0  0  0
 12 16  1  0  0  0  0
 13 14  1  0  0  0  0
 14 15  2  0  0  0  0
 14 19  1  0  0  0  0
 16 26  1  0  0  0  0
 16 27  1  0  0  0  0
 16 28  1  0  0  0  0
 17 20  1  0  0  0  0
 17 29  1  0  0  0  0
 18 21  2  0  0  0  0
 18 30  1  0  0  0  0
 19 31  1  0  0  0  0
 19 32  1  0  0  0  0
 19 33  1  0  0  0  0
 20 22  2  0  0  0  0
 20 34  1  0  0  0  0
 21 22  1  0  0  0  0
 21 35  1  0  0  0  0
M  END
> <PUBCHEM_COMPOUND_CID>
442396

> <PUBCHEM_CONFORMER_RMSD>
0.6

> <PUBCHEM_CONFORMER_DIVERSEORDER>
1
2
4
3

> <PUBCHEM_MMFF94_PARTIAL_CHARGES>
29
1 -0.36
10 0.42
11 -0.14
12 -0.14
13 0.08
14 -0.14
15 0.08
16 0.14
17 -0.15
18 -0.15
19 0.14
2 -0.57
20 -0.15
21 -0.15
22 0.08
29 0.15
3 -0.53
30 0.15
34 0.15
35 0.15
36 0.45
37 0.45
38 0.45
4 -0.53
5 -0.53
6 0.42
7 0.06
8 0.09
9 0.08

> <PUBCHEM_EFFECTIVE_ROTOR_COUNT>
1.6

> <PUBCHEM_PHARMACOPHORE_FEATURES>
8
1 1 acceptor
1 2 acceptor
1 3 donor
1 4 donor
1 5 donor
6 1 6 7 8 9 10 rings
6 11 17 18 20 21 22 rings
6 8 9 12 13 14 15 rings

> <PUBCHEM_HEAVY_ATOM_COUNT>
22

> <PUBCHEM_ATOM_DEF_STEREO_COUNT>
1

> <PUBCHEM_ATOM_UDEF_STEREO_COUNT>
0

> <PUBCHEM_BOND_DEF_STEREO_COUNT>
0

> <PUBCHEM_BOND_UDEF_STEREO_COUNT>
0

> <PUBCHEM_ISOTOPIC_ATOM_COUNT>
0

> <PUBCHEM_COMPONENT_COUNT>
1

> <PUBCHEM_CACTVS_TAUTO_COUNT>
42

> <PUBCHEM_CONFORMER_ID>
0006C01C00000001

> <PUBCHEM_MMFF94_ENERGY>
70.631

> <PUBCHEM_FEATURE_SELFOVERLAP>
40.624

> <PUBCHEM_SHAPE_FINGERPRINT>
10411042 1 18194683898571749182
10967382 1 18410856556046448766
1100329 8 18337111138545246410
11471102 20 18411981334323463265
11578080 2 12389848293802351654
11796584 16 16487256581858305090
12011746 2 18341607118932275870
12107183 9 17611172055376337387
12236239 1 17821727217909281537
12553582 1 18408887373090714766
12596602 18 17167864149333980611
13140716 1 18193839237038153392
13402501 40 18131066022359580043
13464513 79 18334857229818248766
13533116 47 18260548901271376099
13544653 18 18342452690091213645
13836976 161 18412822461119502550
13862211 1 18411139173500609242
14386348 63 17846497024296721259
14790565 3 17765141775219980356
14844126 61 16326252122018073210
14863182 85 18409439315502198086
15196674 1 18338797939157477404
15961568 22 16343415090647519652
17357779 13 18130517404569555469
17492 89 18051699046930119906
1813 80 18261379100626492629
18222031 100 18335985349896226698
200 152 18333454261592168721
20028762 73 18186241714569665206
20511986 3 17822023007927795257
20645477 70 18342742913826531415
21033648 29 17988940941813943141
21197605 99 18122335779776525875
21267235 1 18408598184600614830
21285901 2 17846784039586065511
21623969 137 18342170042773294539
21641784 216 17987498451262240148
221357 26 18271815639971479901
221490 88 18341050838825753404
22224240 67 18261401010087878914
2255824 54 18335978671121906709
23559900 14 17346875628814620857
26918003 58 18272367568669210187
2871803 45 18272932773248573946
335352 9 18410289186956750166
33824 294 18412266125362949778
345986 75 18042129910821692784
34797466 226 16415469441889913223
3633792 109 18408892858897802661
42630746 31 18335138678945975878
46194498 28 17703790284667142181
474 4 18264488386482154465
5104073 3 18265339597903343208
5283173 99 17916033532677855173
602551 16 15068915113726990861
8272917 22 18408881828562034421
9981440 41 17106521063996393153

> <PUBCHEM_SHAPE_MULTIPOLES>
423.4
11.43
2.48
0.9
9.96
0.09
-0.07
-2.97
-0.28
-3.23
0.16
1.11
-0.03
-0.01

> <PUBCHEM_SHAPE_SELFOVERLAP>
936.455

> <PUBCHEM_SHAPE_VOLUME>
227.7

> <PUBCHEM_COORDINATE_TYPE>
2
5
10

$$$$

