442932
  -OEChem-07051213002D

 59 64  0     1  0  0  0  0  0999 V2000
    9.3783    1.1076    0.0000 O   0  0  0  0  0  0  0  0  0  0  0  0
    7.0978   -0.9457    0.0000 O   0  0  0  0  0  0  0  0  0  0  0  0
    7.2310    1.1927    0.0000 O   0  0  0  0  0  0  0  0  0  0  0  0
    6.1262    0.5413    0.0000 O   0  0  0  0  0  0  0  0  0  0  0  0
    9.4828   -1.8869    0.0000 O   0  0  0  0  0  0  0  0  0  0  0  0
   13.0271   -0.0821    0.0000 O   0  0  0  0  0  0  0  0  0  0  0  0
    8.5182    2.3516    0.0000 O   0  0  0  0  0  0  0  0  0  0  0  0
   13.0271   -1.6916    0.0000 O   0  0  0  0  0  0  0  0  0  0  0  0
    6.1296   -1.4586    0.0000 O   0  0  0  0  0  0  0  0  0  0  0  0
    2.5822    0.3399    0.0000 O   0  0  0  0  0  0  0  0  0  0  0  0
    2.5850   -1.2695    0.0000 O   0  0  0  0  0  0  0  0  0  0  0  0
    7.9001    0.4495    0.0000 C   0  0  2  0  0  0  0  0  0  0  0  0
    8.5693   -0.2936    0.0000 C   0  0  1  0  0  0  0  0  0  0  0  0
    9.4828    0.1131    0.0000 C   0  0  1  0  0  0  0  0  0  0  0  0
    6.9931    0.0428    0.0000 C   0  0  1  0  0  0  0  0  0  0  0  0
    8.4001    1.3156    0.0000 C   0  0  0  0  0  0  0  0  0  0  0  0
    8.0700   -1.1532    0.0000 C   0  0  0  0  0  0  0  0  0  0  0  0
   10.3488   -0.3869    0.0000 C   0  0  0  0  0  0  0  0  0  0  0  0
   10.3488   -1.3869    0.0000 C   0  0  0  0  0  0  0  0  0  0  0  0
   11.2149    0.1131    0.0000 C   0  0  0  0  0  0  0  0  0  0  0  0
    7.5400    2.1437    0.0000 C   0  0  0  0  0  0  0  0  0  0  0  0
    5.2610    0.0398    0.0000 C   0  0  0  0  0  0  0  0  0  0  0  0
   12.0809   -0.3869    0.0000 C   0  0  0  0  0  0  0  0  0  0  0  0
   11.2149   -1.8869    0.0000 C   0  0  0  0  0  0  0  0  0  0  0  0
   12.0809   -1.3869    0.0000 C   0  0  0  0  0  0  0  0  0  0  0  0
    6.8709    2.8869    0.0000 C   0  0  0  0  0  0  0  0  0  0  0  0
    5.2627   -0.9601    0.0000 C   0  0  0  0  0  0  0  0  0  0  0  0
    4.3941    0.5384    0.0000 C   0  0  0  0  0  0  0  0  0  0  0  0
   13.6107   -0.8869    0.0000 C   0  0  0  0  0  0  0  0  0  0  0  0
    3.5290    0.0369    0.0000 C   0  0  0  0  0  0  0  0  0  0  0  0
    4.3976   -1.4616    0.0000 C   0  0  0  0  0  0  0  0  0  0  0  0
    9.4828   -2.8869    0.0000 C   0  0  0  0  0  0  0  0  0  0  0  0
    3.5307   -0.9631    0.0000 C   0  0  0  0  0  0  0  0  0  0  0  0
    2.0000   -0.4658    0.0000 C   0  0  0  0  0  0  0  0  0  0  0  0
    6.1314   -2.4586    0.0000 C   0  0  0  0  0  0  0  0  0  0  0  0
    9.1372   -0.9260    0.0000 H   0  0  0  0  0  0  0  0  0  0  0  0
   10.1957    0.5761    0.0000 H   0  0  0  0  0  0  0  0  0  0  0  0
    7.0242    0.6621    0.0000 H   0  0  0  0  0  0  0  0  0  0  0  0
    8.5917    1.9052    0.0000 H   0  0  0  0  0  0  0  0  0  0  0  0
    7.8337    1.5677    0.0000 H   0  0  0  0  0  0  0  0  0  0  0  0
    7.8776   -1.7426    0.0000 H   0  0  0  0  0  0  0  0  0  0  0  0
    8.6359   -1.4065    0.0000 H   0  0  0  0  0  0  0  0  0  0  0  0
   11.2149    0.7331    0.0000 H   0  0  0  0  0  0  0  0  0  0  0  0
   11.2149   -2.5069    0.0000 H   0  0  0  0  0  0  0  0  0  0  0  0
    7.3316    3.3017    0.0000 H   0  0  0  0  0  0  0  0  0  0  0  0
    6.4560    3.3476    0.0000 H   0  0  0  0  0  0  0  0  0  0  0  0
    6.4102    2.4720    0.0000 H   0  0  0  0  0  0  0  0  0  0  0  0
    4.3930    1.1584    0.0000 H   0  0  0  0  0  0  0  0  0  0  0  0
   14.0716   -1.3016    0.0000 H   0  0  0  0  0  0  0  0  0  0  0  0
   14.0716   -0.4721    0.0000 H   0  0  0  0  0  0  0  0  0  0  0  0
    4.3986   -2.0816    0.0000 H   0  0  0  0  0  0  0  0  0  0  0  0
    8.8628   -2.8869    0.0000 H   0  0  0  0  0  0  0  0  0  0  0  0
    9.4828   -3.5069    0.0000 H   0  0  0  0  0  0  0  0  0  0  0  0
   10.1028   -2.8869    0.0000 H   0  0  0  0  0  0  0  0  0  0  0  0
    1.5384   -0.0519    0.0000 H   0  0  0  0  0  0  0  0  0  0  0  0
    1.5398   -0.8813    0.0000 H   0  0  0  0  0  0  0  0  0  0  0  0
    5.5114   -2.4597    0.0000 H   0  0  0  0  0  0  0  0  0  0  0  0
    6.1324   -3.0786    0.0000 H   0  0  0  0  0  0  0  0  0  0  0  0
    6.7514   -2.4576    0.0000 H   0  0  0  0  0  0  0  0  0  0  0  0
  1 14  1  0  0  0  0
  1 16  1  0  0  0  0
  2 15  1  0  0  0  0
  2 17  1  0  0  0  0
 12  3  1  6  0  0  0
  3 21  1  0  0  0  0
 15  4  1  1  0  0  0
  4 22  1  0  0  0  0
  5 19  1  0  0  0  0
  5 32  1  0  0  0  0
  6 23  1  0  0  0  0
  6 29  1  0  0  0  0
  7 21  2  0  0  0  0
  8 25  1  0  0  0  0
  8 29  1  0  0  0  0
  9 27  1  0  0  0  0
  9 35  1  0  0  0  0
 10 30  1  0  0  0  0
 10 34  1  0  0  0  0
 11 33  1  0  0  0  0
 11 34  1  0  0  0  0
 12 13  1  0  0  0  0
 12 15  1  0  0  0  0
 12 16  1  0  0  0  0
 13 14  1  0  0  0  0
 13 17  1  0  0  0  0
 13 36  1  6  0  0  0
 14 18  1  0  0  0  0
 14 37  1  1  0  0  0
 15 38  1  0  0  0  0
 16 39  1  0  0  0  0
 16 40  1  0  0  0  0
 17 41  1  0  0  0  0
 17 42  1  0  0  0  0
 18 19  1  0  0  0  0
 18 20  2  0  0  0  0
 19 24  2  0  0  0  0
 20 23  1  0  0  0  0
 20 43  1  0  0  0  0
 21 26  1  0  0  0  0
 22 27  2  0  0  0  0
 22 28  1  0  0  0  0
 23 25  2  0  0  0  0
 24 25  1  0  0  0  0
 24 44  1  0  0  0  0
 26 45  1  0  0  0  0
 26 46  1  0  0  0  0
 26 47  1  0  0  0  0
 27 31  1  0  0  0  0
 28 30  2  0  0  0  0
 28 48  1  0  0  0  0
 29 49  1  0  0  0  0
 29 50  1  0  0  0  0
 30 33  1  0  0  0  0
 31 33  2  0  0  0  0
 31 51  1  0  0  0  0
 32 52  1  0  0  0  0
 32 53  1  0  0  0  0
 32 54  1  0  0  0  0
 34 55  1  0  0  0  0
 34 56  1  0  0  0  0
 35 57  1  0  0  0  0
 35 58  1  0  0  0  0
 35 59  1  0  0  0  0
M  END
> <PUBCHEM_COMPOUND_CID>
442932

> <PUBCHEM_COMPOUND_CANONICALIZED>
1

> <PUBCHEM_CACTVS_COMPLEXITY>
781

> <PUBCHEM_CACTVS_HBOND_ACCEPTOR>
11

> <PUBCHEM_CACTVS_HBOND_DONOR>
0

> <PUBCHEM_CACTVS_ROTATABLE_BOND>
7

> <PUBCHEM_CACTVS_SUBSKEYS>
AAADceB4PAAAAAAAAAAAAAAAAAAAASJEiQAwYAAAAAASAEgBQAAAGgAAAAAADVSwmAMyDoAABACIAiDSCAACCAAgIAAAiAAGiIgdJyKEMRqiOCKlwBUOqAfA4PwOoQABCAAIQABCAAIQABCAAAAAAAAAAA==

> <PUBCHEM_IUPAC_OPENEYE_NAME>
[(3S,3aS,6S,6aR)-6-(6-methoxy-1,3-benzodioxol-5-yl)-3-[(6-methoxy-1,3-benzodioxol-5-yl)oxy]-3,4,6,6a-tetrahydro-1H-furo[3,4-c]furan-3a-yl] acetate

> <PUBCHEM_IUPAC_CAS_NAME>
acetic acid [(3S,3aS,6S,6aR)-6-(6-methoxy-1,3-benzodioxol-5-yl)-3-[(6-methoxy-1,3-benzodioxol-5-yl)oxy]-3,4,6,6a-tetrahydro-1H-furo[3,4-c]furan-3a-yl] ester

> <PUBCHEM_IUPAC_NAME>
[(3S,3aS,6S,6aR)-6-(6-methoxy-1,3-benzodioxol-5-yl)-3-[(6-methoxy-1,3-benzodioxol-5-yl)oxy]-3,4,6,6a-tetrahydro-1H-furo[3,4-c]furan-3a-yl] acetate

> <PUBCHEM_IUPAC_SYSTEMATIC_NAME>
[(3S,3aS,6S,6aR)-6-(6-methoxy-1,3-benzodioxol-5-yl)-3-[(6-methoxy-1,3-benzodioxol-5-yl)oxy]-3,4,6,6a-tetrahydro-1H-furo[3,4-c]furan-3a-yl] ethanoate

> <PUBCHEM_IUPAC_TRADITIONAL_NAME>
acetic acid [(3S,3aS,6S,6aR)-6-(6-methoxy-1,3-benzodioxol-5-yl)-3-[(6-methoxy-1,3-benzodioxol-5-yl)oxy]-3,4,6,6a-tetrahydro-1H-furo[3,4-c]furan-3a-yl] ester

> <PUBCHEM_IUPAC_INCHI>
InChI=1S/C24H24O11/c1-12(25)35-24-9-29-22(13-4-17-18(31-10-30-17)5-15(13)26-2)14(24)8-28-23(24)34-21-7-20-19(32-11-33-20)6-16(21)27-3/h4-7,14,22-23H,8-11H2,1-3H3/t14-,22-,23+,24-/m1/s1

> <PUBCHEM_IUPAC_INCHIKEY>
ZGBQEJGNORPNKC-PDLWQGAHSA-N

> <PUBCHEM_XLOGP3_AA>
2.4

> <PUBCHEM_EXACT_MASS>
488.131862

> <PUBCHEM_MOLECULAR_FORMULA>
C24H24O11

> <PUBCHEM_MOLECULAR_WEIGHT>
488.44076

> <PUBCHEM_OPENEYE_CAN_SMILES>
CC(=O)OC12COC(C1COC2OC3=C(C=C4C(=C3)OCO4)OC)C5=CC6=C(C=C5OC)OCO6

> <PUBCHEM_OPENEYE_ISO_SMILES>
CC(=O)O[C@]12CO[C@@H]([C@H]1CO[C@H]2OC3=C(C=C4C(=C3)OCO4)OC)C5=CC6=C(C=C5OC)OCO6

> <PUBCHEM_CACTVS_TPSA>
109

> <PUBCHEM_MONOISOTOPIC_WEIGHT>
488.131862

> <PUBCHEM_TOTAL_CHARGE>
0

> <PUBCHEM_HEAVY_ATOM_COUNT>
35

> <PUBCHEM_ATOM_DEF_STEREO_COUNT>
4

> <PUBCHEM_ATOM_UDEF_STEREO_COUNT>
0

> <PUBCHEM_BOND_DEF_STEREO_COUNT>
0

> <PUBCHEM_BOND_UDEF_STEREO_COUNT>
0

> <PUBCHEM_ISOTOPIC_ATOM_COUNT>
0

> <PUBCHEM_COMPONENT_COUNT>
1

> <PUBCHEM_CACTVS_TAUTO_COUNT>
1

> <PUBCHEM_COORDINATE_TYPE>
1
5
255

> <PUBCHEM_BONDANNOTATIONS>
13  36  6
14  37  5
18  19  8
18  20  8
19  24  8
20  23  8
22  27  8
22  28  8
23  25  8
24  25  8
27  31  8
28  30  8
12  3  6
30  33  8
31  33  8
15  4  5

$$$$

