17395342
  -OEChem-06241222493D

 37 38  0     1  0  0  0  0  0999 V2000
    1.1206   -1.8653   -0.4721 S   0  0  0  0  0  0  0  0  0  0  0  0
    1.2533   -2.9403    0.4880 O   0  0  0  0  0  0  0  0  0  0  0  0
    1.2410   -2.1159   -1.8927 O   0  0  0  0  0  0  0  0  0  0  0  0
    3.2243    2.6823   -1.2152 O   0  0  0  0  0  0  0  0  0  0  0  0
    2.1826   -0.5942   -0.0393 N   0  0  2  0  0  0  0  0  0  0  0  0
    3.6503    1.6235    0.7647 N   0  0  0  0  0  0  0  0  0  0  0  0
    2.2990   -0.3173    1.4135 C   0  0  0  0  0  0  0  0  0  0  0  0
    2.0473    0.6478   -0.8320 C   0  0  0  0  0  0  0  0  0  0  0  0
    3.5848    0.4552    1.6172 C   0  0  0  0  0  0  0  0  0  0  0  0
   -0.4342   -1.0785   -0.1892 C   0  0  0  0  0  0  0  0  0  0  0  0
    3.0362    1.7235   -0.4632 C   0  0  0  0  0  0  0  0  0  0  0  0
   -4.2051    0.8294    0.4963 C   0  0  0  0  0  0  0  0  0  0  0  0
   -2.8919    0.1637    0.2572 C   0  0  0  0  0  0  0  0  0  0  0  0
   -1.0409   -1.1627    1.0640 C   0  0  0  0  0  0  0  0  0  0  0  0
   -1.0565   -0.3732   -1.2194 C   0  0  0  0  0  0  0  0  0  0  0  0
   -2.2696   -0.5416    1.2872 C   0  0  0  0  0  0  0  0  0  0  0  0
   -2.2854    0.2480   -0.9962 C   0  0  0  0  0  0  0  0  0  0  0  0
   -5.3255    0.2576   -0.3928 C   0  0  0  0  0  0  0  0  0  0  0  0
   -4.1304    2.3583    0.3239 C   0  0  0  0  0  0  0  0  0  0  0  0
    2.3474   -1.2423    1.9950 H   0  0  0  0  0  0  0  0  0  0  0  0
    1.4415    0.2716    1.7571 H   0  0  0  0  0  0  0  0  0  0  0  0
    1.0650    1.1034   -0.6841 H   0  0  0  0  0  0  0  0  0  0  0  0
    2.1934    0.4192   -1.8928 H   0  0  0  0  0  0  0  0  0  0  0  0
    3.6832    0.7889    2.6547 H   0  0  0  0  0  0  0  0  0  0  0  0
    4.4548   -0.1643    1.3720 H   0  0  0  0  0  0  0  0  0  0  0  0
    4.2984    2.3600    1.0266 H   0  0  0  0  0  0  0  0  0  0  0  0
   -4.5102    0.6482    1.5361 H   0  0  0  0  0  0  0  0  0  0  0  0
   -0.5724   -1.7031    1.8817 H   0  0  0  0  0  0  0  0  0  0  0  0
   -0.6028   -0.2938   -2.2032 H   0  0  0  0  0  0  0  0  0  0  0  0
   -2.7276   -0.6159    2.2700 H   0  0  0  0  0  0  0  0  0  0  0  0
   -2.7519    0.7925   -1.8124 H   0  0  0  0  0  0  0  0  0  0  0  0
   -5.1487    0.4591   -1.4549 H   0  0  0  0  0  0  0  0  0  0  0  0
   -6.2911    0.7005   -0.1257 H   0  0  0  0  0  0  0  0  0  0  0  0
   -5.4068   -0.8277   -0.2663 H   0  0  0  0  0  0  0  0  0  0  0  0
   -3.9066    2.6436   -0.7096 H   0  0  0  0  0  0  0  0  0  0  0  0
   -3.3514    2.7844    0.9659 H   0  0  0  0  0  0  0  0  0  0  0  0
   -5.0838    2.8224    0.5988 H   0  0  0  0  0  0  0  0  0  0  0  0
  1  2  2  0  0  0  0
  1  3  2  0  0  0  0
  1  5  1  0  0  0  0
  1 10  1  0  0  0  0
  4 11  2  0  0  0  0
  5  7  1  0  0  0  0
  5  8  1  0  0  0  0
  6  9  1  0  0  0  0
  6 11  1  0  0  0  0
  6 26  1  0  0  0  0
  7  9  1  0  0  0  0
  7 20  1  0  0  0  0
  7 21  1  0  0  0  0
  8 11  1  0  0  0  0
  8 22  1  0  0  0  0
  8 23  1  0  0  0  0
  9 24  1  0  0  0  0
  9 25  1  0  0  0  0
 10 14  2  0  0  0  0
 10 15  1  0  0  0  0
 12 13  1  0  0  0  0
 12 18  1  0  0  0  0
 12 19  1  0  0  0  0
 12 27  1  0  0  0  0
 13 16  2  0  0  0  0
 13 17  1  0  0  0  0
 14 16  1  0  0  0  0
 14 28  1  0  0  0  0
 15 17  2  0  0  0  0
 15 29  1  0  0  0  0
 16 30  1  0  0  0  0
 17 31  1  0  0  0  0
 18 32  1  0  0  0  0
 18 33  1  0  0  0  0
 18 34  1  0  0  0  0
 19 35  1  0  0  0  0
 19 36  1  0  0  0  0
 19 37  1  0  0  0  0
M  END
> <PUBCHEM_COMPOUND_CID>
17395342

> <PUBCHEM_CONFORMER_RMSD>
0.6

> <PUBCHEM_CONFORMER_DIVERSEORDER>
1
43
47
30
23
38
16
37
46
29
34
40
44
13
26
6
24
27
25
7
41
5
18
12
42
21
10
19
36
31
45
33
22
20
8
3
17
15
9
11
14
39
32
2
4
28
35

> <PUBCHEM_MMFF94_PARTIAL_CHARGES>
22
1 1.45
10 -0.01
11 0.57
12 0.14
13 -0.14
14 -0.15
15 -0.15
16 -0.15
17 -0.15
2 -0.65
26 0.37
28 0.15
29 0.15
3 -0.65
30 0.15
31 0.15
4 -0.57
5 -0.85
6 -0.73
7 0.36
8 0.42
9 0.3

> <PUBCHEM_EFFECTIVE_ROTOR_COUNT>
4

> <PUBCHEM_PHARMACOPHORE_FEATURES>
7
1 2 acceptor
1 3 acceptor
1 4 acceptor
1 6 donor
3 12 18 19 hydrophobe
6 10 13 14 15 16 17 rings
6 5 6 7 8 9 11 rings

> <PUBCHEM_HEAVY_ATOM_COUNT>
19

> <PUBCHEM_ATOM_DEF_STEREO_COUNT>
0

> <PUBCHEM_ATOM_UDEF_STEREO_COUNT>
0

> <PUBCHEM_BOND_DEF_STEREO_COUNT>
0

> <PUBCHEM_BOND_UDEF_STEREO_COUNT>
0

> <PUBCHEM_ISOTOPIC_ATOM_COUNT>
0

> <PUBCHEM_COMPONENT_COUNT>
1

> <PUBCHEM_CACTVS_TAUTO_COUNT>
2

> <PUBCHEM_CONFORMER_ID>
01096E8E00000001

> <PUBCHEM_MMFF94_ENERGY>
35.9539

> <PUBCHEM_FEATURE_SELFOVERLAP>
35.538

> <PUBCHEM_SHAPE_FINGERPRINT>
10498660 4 17385725781334629401
10980938 120 18187082892667180577
11140007 195 13973693870321790987
11640471 11 17968392185717744966
11796584 16 11239989084388513049
12251169 10 17489595549467009490
12363563 72 10159713377668843568
12553582 1 10519714375112721913
12596599 1 11671779416291810477
12633257 1 17417823824342121696
12788726 201 17763189037952192854
13675066 3 14979959172921578921
14178342 30 17703495628599628907
14251764 38 18129110094390664725
14251764 75 18125142858489565305
14289901 80 18409727392033247619
14787075 74 18340768131694497947
15342168 16 18341048532365109557
15422964 175 12535087350333616296
15775835 57 17894639136175565730
17349148 13 16988838363881759331
1813 80 17462835812002544870
18186145 218 18194958772104039511
19765921 60 18114190726206853147
20281475 54 8286198345081673553
20775530 9 8357168487254513012
21033648 29 15984564246627124157
21452121 199 7132446666298962974
21475661 188 17984990542517038573
21524375 3 18262521394682089886
21731228 192 18129951070213403634
21756936 100 17627501637227232100
21864079 5 18194117421975385348
2255824 54 18263638640124758471
23419403 2 16744567802253434634
23557571 272 18057864901874346859
23559900 14 17488728095149622447
3323516 105 7276826875231630485
465052 167 10663814217845546121
474 4 18413108364017571445
49207404 50 18201708553421845883
6333272 397 18413668002725300435
633830 44 18339637975390642653
7808743 9 18122619449449518720
90316 7 16415481523975671965
94968 8 9079112276127563936
960060 61 6916256347654511065

> <PUBCHEM_SHAPE_MULTIPOLES>
367.29
8.46
2.5
1.49
6.73
0.08
0
5.82
-1.17
-1.75
0.49
-0.83
-0.18
-0.24

> <PUBCHEM_SHAPE_SELFOVERLAP>
750.233

> <PUBCHEM_SHAPE_VOLUME>
212.7

> <PUBCHEM_COORDINATE_TYPE>
2
5
10

$$$$

