3661
  -OEChem-06251223342D

 44 46  0     1  0  0  0  0  0999 V2000
    5.1350    0.1745    0.0000 O   0  0  0  0  0  0  0  0  0  0  0  0
    6.0010   -1.3255    0.0000 O   0  0  0  0  0  0  0  0  0  0  0  0
    2.5369   -1.3255    0.0000 O   0  0  0  0  0  0  0  0  0  0  0  0
    7.9719    3.4595    0.0000 N   0  0  0  0  0  0  0  0  0  0  0  0
    8.7086    2.4769    0.0000 C   0  0  3  0  0  0  0  0  0  0  0  0
    8.4497    1.5109    0.0000 C   0  0  3  0  0  0  0  0  0  0  0  0
   10.5405    1.7180    0.0000 C   0  0  0  0  0  0  0  0  0  0  0  0
   10.2817    0.7521    0.0000 C   0  0  0  0  0  0  0  0  0  0  0  0
    6.1056    1.6690    0.0000 C   0  0  0  0  0  0  0  0  0  0  0  0
    6.9146    0.2678    0.0000 C   0  0  0  0  0  0  0  0  0  0  0  0
    6.0010    0.6745    0.0000 C   0  0  0  0  0  0  0  0  0  0  0  0
    7.4719    4.3255    0.0000 C   0  0  0  0  0  0  0  0  0  0  0  0
    5.1350   -0.8255    0.0000 C   0  0  0  0  0  0  0  0  0  0  0  0
    4.2690   -1.3255    0.0000 C   0  0  3  0  0  0  0  0  0  0  0  0
    4.2690   -2.3255    0.0000 C   0  0  0  0  0  0  0  0  0  0  0  0
    3.4030   -0.8255    0.0000 C   0  0  0  0  0  0  0  0  0  0  0  0
    3.4030   -2.8255    0.0000 C   0  0  0  0  0  0  0  0  0  0  0  0
    5.1350   -2.8255    0.0000 C   0  0  0  0  0  0  0  0  0  0  0  0
    3.4030   -3.8255    0.0000 C   0  0  0  0  0  0  0  0  0  0  0  0
    5.1350   -3.8255    0.0000 C   0  0  0  0  0  0  0  0  0  0  0  0
    4.2690   -4.3255    0.0000 C   0  0  0  0  0  0  0  0  0  0  0  0
    8.5387    0.8973    0.0000 H   0  0  0  0  0  0  0  0  0  0  0  0
    8.6801    1.8575    0.0000 H   0  0  0  0  0  0  0  0  0  0  0  0
   10.0696    0.1695    0.0000 H   0  0  0  0  0  0  0  0  0  0  0  0
   10.8730    0.5657    0.0000 H   0  0  0  0  0  0  0  0  0  0  0  0
   11.1318    1.5316    0.0000 H   0  0  0  0  0  0  0  0  0  0  0  0
   10.7526    2.3006    0.0000 H   0  0  0  0  0  0  0  0  0  0  0  0
    6.5769   -0.2522    0.0000 H   0  0  0  0  0  0  0  0  0  0  0  0
    7.3753   -0.1471    0.0000 H   0  0  0  0  0  0  0  0  0  0  0  0
    6.0033    2.2805    0.0000 H   0  0  0  0  0  0  0  0  0  0  0  0
    5.4858    1.6501    0.0000 H   0  0  0  0  0  0  0  0  0  0  0  0
    5.4811    1.0122    0.0000 H   0  0  0  0  0  0  0  0  0  0  0  0
    8.0089    4.6355    0.0000 H   0  0  0  0  0  0  0  0  0  0  0  0
    7.1619    4.8624    0.0000 H   0  0  0  0  0  0  0  0  0  0  0  0
    6.9350    4.0155    0.0000 H   0  0  0  0  0  0  0  0  0  0  0  0
    4.2690   -0.7055    0.0000 H   0  0  0  0  0  0  0  0  0  0  0  0
    3.8015   -0.3505    0.0000 H   0  0  0  0  0  0  0  0  0  0  0  0
    3.0044   -0.3505    0.0000 H   0  0  0  0  0  0  0  0  0  0  0  0
    2.8660   -2.5155    0.0000 H   0  0  0  0  0  0  0  0  0  0  0  0
    5.6720   -2.5155    0.0000 H   0  0  0  0  0  0  0  0  0  0  0  0
    2.0000   -1.0155    0.0000 H   0  0  0  0  0  0  0  0  0  0  0  0
    2.8660   -4.1355    0.0000 H   0  0  0  0  0  0  0  0  0  0  0  0
    5.6720   -4.1355    0.0000 H   0  0  0  0  0  0  0  0  0  0  0  0
    4.2690   -4.9455    0.0000 H   0  0  0  0  0  0  0  0  0  0  0  0
  1 11  1  0  0  0  0
  1 13  1  0  0  0  0
  2 13  2  0  0  0  0
  3 16  1  0  0  0  0
  3 41  1  0  0  0  0
  4  5  1  0  0  0  0
  4  6  1  0  0  0  0
  4 12  1  0  0  0  0
  5  7  1  0  0  0  0
  5  9  1  0  0  0  0
  5 23  1  0  0  0  0
  6  8  1  0  0  0  0
  6 10  1  0  0  0  0
  6 22  1  0  0  0  0
  7  8  1  0  0  0  0
  7 26  1  0  0  0  0
  7 27  1  0  0  0  0
  8 24  1  0  0  0  0
  8 25  1  0  0  0  0
  9 11  1  0  0  0  0
  9 30  1  0  0  0  0
  9 31  1  0  0  0  0
 10 11  1  0  0  0  0
 10 28  1  0  0  0  0
 10 29  1  0  0  0  0
 11 32  1  0  0  0  0
 12 33  1  0  0  0  0
 12 34  1  0  0  0  0
 12 35  1  0  0  0  0
 13 14  1  0  0  0  0
 14 15  1  0  0  0  0
 14 16  1  0  0  0  0
 14 36  1  0  0  0  0
 15 17  2  0  0  0  0
 15 18  1  0  0  0  0
 16 37  1  0  0  0  0
 16 38  1  0  0  0  0
 17 19  1  0  0  0  0
 17 39  1  0  0  0  0
 18 20  2  0  0  0  0
 18 40  1  0  0  0  0
 19 21  2  0  0  0  0
 19 42  1  0  0  0  0
 20 21  1  0  0  0  0
 20 43  1  0  0  0  0
 21 44  1  0  0  0  0
M  END
> <PUBCHEM_COMPOUND_CID>
3661

> <PUBCHEM_COMPOUND_CANONICALIZED>
1

> <PUBCHEM_CACTVS_COMPLEXITY>
353

> <PUBCHEM_CACTVS_HBOND_ACCEPTOR>
4

> <PUBCHEM_CACTVS_HBOND_DONOR>
1

> <PUBCHEM_CACTVS_ROTATABLE_BOND>
5

> <PUBCHEM_CACTVS_SUBSKEYS>
AAADceB6MAAAAAAAAAAAAAAAAAAAAWAAAAA8QAAABgAAAAABAAAAHgAACAAADTzhmAYyCIMABgCIAiDSCAACAAAgAAAIiAEIAIgIMDaAlRCGYAAn4AGIiAeYyOCOgAAAAAAAAAAAAAAAAAAAAAAAAAAAAA==

> <PUBCHEM_IUPAC_OPENEYE_NAME>
(8-methyl-8-azabicyclo[3.2.1]octan-3-yl) 3-hydroxy-2-phenyl-propanoate

> <PUBCHEM_IUPAC_CAS_NAME>
3-hydroxy-2-phenylpropanoic acid (8-methyl-8-azabicyclo[3.2.1]octan-3-yl) ester

> <PUBCHEM_IUPAC_NAME>
(8-methyl-8-azabicyclo[3.2.1]octan-3-yl) 3-hydroxy-2-phenylpropanoate

> <PUBCHEM_IUPAC_SYSTEMATIC_NAME>
(8-methyl-8-azabicyclo[3.2.1]octan-3-yl) 3-oxidanyl-2-phenyl-propanoate

> <PUBCHEM_IUPAC_TRADITIONAL_NAME>
3-hydroxy-2-phenyl-propionic acid (8-methyl-8-azabicyclo[3.2.1]octan-3-yl) ester

> <PUBCHEM_IUPAC_INCHI>
InChI=1S/C17H23NO3/c1-18-13-7-8-14(18)10-15(9-13)21-17(20)16(11-19)12-5-3-2-4-6-12/h2-6,13-16,19H,7-11H2,1H3

> <PUBCHEM_IUPAC_INCHIKEY>
RKUNBYITZUJHSG-UHFFFAOYSA-N

> <PUBCHEM_XLOGP3>
1.8

> <PUBCHEM_EXACT_MASS>
289.167794

> <PUBCHEM_MOLECULAR_FORMULA>
C17H23NO3

> <PUBCHEM_MOLECULAR_WEIGHT>
289.36942

> <PUBCHEM_OPENEYE_CAN_SMILES>
CN1C2CCC1CC(C2)OC(=O)C(CO)C3=CC=CC=C3

> <PUBCHEM_OPENEYE_ISO_SMILES>
CN1C2CCC1CC(C2)OC(=O)C(CO)C3=CC=CC=C3

> <PUBCHEM_CACTVS_TPSA>
49.8

> <PUBCHEM_MONOISOTOPIC_WEIGHT>
289.167794

> <PUBCHEM_TOTAL_CHARGE>
0

> <PUBCHEM_HEAVY_ATOM_COUNT>
21

> <PUBCHEM_ATOM_DEF_STEREO_COUNT>
0

> <PUBCHEM_ATOM_UDEF_STEREO_COUNT>
3

> <PUBCHEM_BOND_DEF_STEREO_COUNT>
0

> <PUBCHEM_BOND_UDEF_STEREO_COUNT>
0

> <PUBCHEM_ISOTOPIC_ATOM_COUNT>
0

> <PUBCHEM_COMPONENT_COUNT>
1

> <PUBCHEM_CACTVS_TAUTO_COUNT>
1

> <PUBCHEM_COORDINATE_TYPE>
1
5
255

> <PUBCHEM_BONDANNOTATIONS>
14  16  3
15  17  8
15  18  8
17  19  8
18  20  8
19  21  8
20  21  8
5  7  3
6  8  3

$$$$

