11954108
  -OEChem-07051213063D

 55 58  0     1  0  0  0  0  0999 V2000
   -5.6978    0.1434   -0.9266 O   0  0  0  0  0  0  0  0  0  0  0  0
    6.0623    0.6781    0.0793 O   0  0  0  0  0  0  0  0  0  0  0  0
    4.1182   -0.6078    0.0311 N   0  0  0  0  0  0  0  0  0  0  0  0
   -2.5483    0.2359   -0.0435 C   0  0  1  0  0  0  0  0  0  0  0  0
   -1.6684   -0.9648    0.3593 C   0  0  2  0  0  0  0  0  0  0  0  0
   -0.2344   -0.8652   -0.1697 C   0  0  1  0  0  0  0  0  0  0  0  0
    0.4277    0.4368    0.3623 C   0  0  1  0  0  0  0  0  0  0  0  0
   -3.8865   -0.2148    0.5825 C   0  0  2  0  0  0  0  0  0  0  0  0
   -1.9298    1.4915    0.5847 C   0  0  0  0  0  0  0  0  0  0  0  0
    1.9006    0.5884   -0.1883 C   0  0  2  0  0  0  0  0  0  0  0  0
   -0.4694    1.6863    0.1395 C   0  0  0  0  0  0  0  0  0  0  0  0
   -2.5129   -2.1730   -0.0299 C   0  0  0  0  0  0  0  0  0  0  0  0
   -3.9525   -1.7285    0.2848 C   0  0  0  0  0  0  0  0  0  0  0  0
    0.5923   -2.0858    0.2433 C   0  0  0  0  0  0  0  0  0  0  0  0
   -2.6867    0.4266   -1.5765 C   0  0  0  0  0  0  0  0  0  0  0  0
    2.7103   -0.7019    0.0106 C   0  0  0  0  0  0  0  0  0  0  0  0
    2.6097    1.7053    0.5991 C   0  0  0  0  0  0  0  0  0  0  0  0
    2.0750   -1.8809    0.1861 C   0  0  0  0  0  0  0  0  0  0  0  0
    1.8976    0.9205   -1.7034 C   0  0  0  0  0  0  0  0  0  0  0  0
   -5.0865    0.5206    0.0720 C   0  0  0  0  0  0  0  0  0  0  0  0
    4.0413    1.8859    0.1464 C   0  0  0  0  0  0  0  0  0  0  0  0
    4.8289    0.6000    0.0907 C   0  0  0  0  0  0  0  0  0  0  0  0
   -5.5096    1.7424    0.8417 C   0  0  0  0  0  0  0  0  0  0  0  0
    4.9190   -1.8389    0.0244 C   0  0  0  0  0  0  0  0  0  0  0  0
   -1.5965   -0.9842    1.4602 H   0  0  0  0  0  0  0  0  0  0  0  0
   -0.2634   -0.8468   -1.2639 H   0  0  0  0  0  0  0  0  0  0  0  0
    0.5043    0.3220    1.4560 H   0  0  0  0  0  0  0  0  0  0  0  0
   -3.8565   -0.0956    1.6745 H   0  0  0  0  0  0  0  0  0  0  0  0
   -1.9573    1.4210    1.6796 H   0  0  0  0  0  0  0  0  0  0  0  0
   -2.5041    2.3847    0.3156 H   0  0  0  0  0  0  0  0  0  0  0  0
   -0.4604    1.9818   -0.9138 H   0  0  0  0  0  0  0  0  0  0  0  0
   -0.0661    2.5375    0.6989 H   0  0  0  0  0  0  0  0  0  0  0  0
   -2.2389   -3.0681    0.5376 H   0  0  0  0  0  0  0  0  0  0  0  0
   -2.4078   -2.4103   -1.0944 H   0  0  0  0  0  0  0  0  0  0  0  0
   -4.6123   -1.9927   -0.5480 H   0  0  0  0  0  0  0  0  0  0  0  0
   -4.3303   -2.2614    1.1655 H   0  0  0  0  0  0  0  0  0  0  0  0
    0.3283   -2.9326   -0.4019 H   0  0  0  0  0  0  0  0  0  0  0  0
    0.3432   -2.3852    1.2694 H   0  0  0  0  0  0  0  0  0  0  0  0
   -3.2766    1.3221   -1.8040 H   0  0  0  0  0  0  0  0  0  0  0  0
   -1.7226    0.5551   -2.0755 H   0  0  0  0  0  0  0  0  0  0  0  0
   -3.1809   -0.4210   -2.0618 H   0  0  0  0  0  0  0  0  0  0  0  0
    2.5989    1.4706    1.6724 H   0  0  0  0  0  0  0  0  0  0  0  0
    2.0957    2.6654    0.4820 H   0  0  0  0  0  0  0  0  0  0  0  0
    2.6338   -2.7978    0.3504 H   0  0  0  0  0  0  0  0  0  0  0  0
    1.5274    1.9339   -1.8906 H   0  0  0  0  0  0  0  0  0  0  0  0
    2.8995    0.8636   -2.1440 H   0  0  0  0  0  0  0  0  0  0  0  0
    1.2778    0.2266   -2.2788 H   0  0  0  0  0  0  0  0  0  0  0  0
    4.5500    2.5638    0.8425 H   0  0  0  0  0  0  0  0  0  0  0  0
    4.0874    2.3525   -0.8436 H   0  0  0  0  0  0  0  0  0  0  0  0
   -5.6702    1.4826    1.8910 H   0  0  0  0  0  0  0  0  0  0  0  0
   -4.7528    2.5233    0.7570 H   0  0  0  0  0  0  0  0  0  0  0  0
   -6.4507    2.1217    0.4328 H   0  0  0  0  0  0  0  0  0  0  0  0
    5.9861   -1.6322   -0.0962 H   0  0  0  0  0  0  0  0  0  0  0  0
    4.6107   -2.4752   -0.8115 H   0  0  0  0  0  0  0  0  0  0  0  0
    4.7863   -2.3592    0.9783 H   0  0  0  0  0  0  0  0  0  0  0  0
  1 20  2  0  0  0  0
  2 22  2  0  0  0  0
  3 16  1  0  0  0  0
  3 22  1  0  0  0  0
  3 24  1  0  0  0  0
  4  5  1  0  0  0  0
  4  8  1  0  0  0  0
  4  9  1  0  0  0  0
  4 15  1  0  0  0  0
  5  6  1  0  0  0  0
  5 12  1  0  0  0  0
  5 25  1  0  0  0  0
  6  7  1  0  0  0  0
  6 14  1  0  0  0  0
  6 26  1  0  0  0  0
  7 10  1  0  0  0  0
  7 11  1  0  0  0  0
  7 27  1  0  0  0  0
  8 13  1  0  0  0  0
  8 20  1  0  0  0  0
  8 28  1  0  0  0  0
  9 11  1  0  0  0  0
  9 29  1  0  0  0  0
  9 30  1  0  0  0  0
 10 16  1  0  0  0  0
 10 17  1  0  0  0  0
 10 19  1  0  0  0  0
 11 31  1  0  0  0  0
 11 32  1  0  0  0  0
 12 13  1  0  0  0  0
 12 33  1  0  0  0  0
 12 34  1  0  0  0  0
 13 35  1  0  0  0  0
 13 36  1  0  0  0  0
 14 18  1  0  0  0  0
 14 37  1  0  0  0  0
 14 38  1  0  0  0  0
 15 39  1  0  0  0  0
 15 40  1  0  0  0  0
 15 41  1  0  0  0  0
 16 18  2  0  0  0  0
 17 21  1  0  0  0  0
 17 42  1  0  0  0  0
 17 43  1  0  0  0  0
 18 44  1  0  0  0  0
 19 45  1  0  0  0  0
 19 46  1  0  0  0  0
 19 47  1  0  0  0  0
 20 23  1  0  0  0  0
 21 22  1  0  0  0  0
 21 48  1  0  0  0  0
 21 49  1  0  0  0  0
 23 50  1  0  0  0  0
 23 51  1  0  0  0  0
 23 52  1  0  0  0  0
 24 53  1  0  0  0  0
 24 54  1  0  0  0  0
 24 55  1  0  0  0  0
M  END
> <PUBCHEM_COMPOUND_CID>
11954108

> <PUBCHEM_CONFORMER_RMSD>
0.6

> <PUBCHEM_CONFORMER_DIVERSEORDER>
1
2

> <PUBCHEM_MMFF94_PARTIAL_CHARGES>
14
1 -0.57
10 0.14
14 0.14
16 -0.03
18 -0.29
2 -0.57
20 0.45
21 0.06
22 0.57
23 0.06
24 0.3
3 -0.47
44 0.15
8 0.06

> <PUBCHEM_EFFECTIVE_ROTOR_COUNT>
2.8

> <PUBCHEM_PHARMACOPHORE_FEATURES>
6
1 1 acceptor
1 2 acceptor
5 4 5 8 12 13 rings
6 3 10 16 17 21 22 rings
6 4 5 6 7 9 11 rings
6 6 7 10 14 16 18 rings

> <PUBCHEM_HEAVY_ATOM_COUNT>
24

> <PUBCHEM_ATOM_DEF_STEREO_COUNT>
6

> <PUBCHEM_ATOM_UDEF_STEREO_COUNT>
0

> <PUBCHEM_BOND_DEF_STEREO_COUNT>
0

> <PUBCHEM_BOND_UDEF_STEREO_COUNT>
0

> <PUBCHEM_ISOTOPIC_ATOM_COUNT>
0

> <PUBCHEM_COMPONENT_COUNT>
1

> <PUBCHEM_CACTVS_TAUTO_COUNT>
3

> <PUBCHEM_CONFORMER_ID>
00B667BC00000001

> <PUBCHEM_MMFF94_ENERGY>
80.9905

> <PUBCHEM_FEATURE_SELFOVERLAP>
30.541

> <PUBCHEM_SHAPE_FINGERPRINT>
10366900 7 5184349603055862663
10411042 1 17762055845555255226
10906281 52 18337653287370620954
11089746 13 18040158404868964361
11405975 8 18412544297240830195
12011746 2 18409724054933095452
12107183 9 17760081117874480266
12236239 1 17967254221432273645
12403259 415 18130793386224896708
12403814 3 17775569724091253261
12788726 201 17386280012625831121
13140716 1 18412262826453890571
13224815 77 18412545392346707586
13533116 47 18334859463248897362
13675066 3 18201997690335414723
14341114 176 18412538834174350162
14790565 3 18263919003100364049
15196674 1 18410572859917778323
15536298 74 18408321077705883882
15788980 27 18272368642194756185
16945 1 18267030629164030506
1813 80 16917348134432452046
19141452 34 18413106143730528031
200 152 18186524297879182171
20511986 3 18261406571537874345
20645477 56 18059863869858417205
21033648 29 18129399183795504700
21267235 1 18410565214849721587
21279426 13 18337952406152176535
21304253 335 18341606031741210277
21421861 104 18059300992698043778
23402539 116 18260552186299008212
23557571 272 18187921712348882991
23559900 14 18408605834116736616
26918003 58 18409731742117635104
3004659 81 18342454881300156930
335352 9 18410009974346603654
34797466 226 15864068715557022776
34934 24 18410014347029577123
350125 39 18411979178687795520
351380 180 18334295357637829168
3545911 37 18413107251383573989
3633792 109 18339088202608122757
3680242 22 18341615979128197706
4073 2 18130220459215551178
4214541 1 18410011018276734081
4340502 62 17203320144245654403
474 4 17988918946747895075
5104073 3 18413389817329711363
542803 24 17917709089128650988
9709674 26 18334569191657107070

> <PUBCHEM_SHAPE_MULTIPOLES>
477.19
12.08
2.27
0.96
0.37
0.53
-0.36
-2.07
0.59
-0.37
0.32
0.41
-0.25
-0.21

> <PUBCHEM_SHAPE_SELFOVERLAP>
1021.043

> <PUBCHEM_SHAPE_VOLUME>
263.2

> <PUBCHEM_COORDINATE_TYPE>
2
5
10

$$$$

