443585
  -OEChem-07051213023D

 34 33  0     1  0  0  0  0  0999 V2000
    2.6830    1.9723    0.1495 O   0  0  0  0  0  0  0  0  0  0  0  0
   -4.3734   -0.1587    1.5257 O   0  0  0  0  0  0  0  0  0  0  0  0
    4.7753   -1.7414   -0.4711 O   0  0  0  0  0  0  0  0  0  0  0  0
   -4.2518   -1.7375   -0.1072 O   0  0  0  0  0  0  0  0  0  0  0  0
    3.8952    0.0543   -1.5602 O   0  0  0  0  0  0  0  0  0  0  0  0
    0.9821   -1.1758    1.1514 N   0  0  0  0  0  0  0  0  0  0  0  0
   -3.6205    0.0826   -1.9945 N   0  0  0  0  0  0  0  0  0  0  0  0
    1.2351    0.0466    0.3857 C   0  0  1  0  0  0  0  0  0  0  0  0
   -0.0291    0.9372    0.3859 C   0  0  0  0  0  0  0  0  0  0  0  0
   -1.3007    0.2636   -0.1467 C   0  0  0  0  0  0  0  0  0  0  0  0
    2.4968    0.7730    0.9039 C   0  0  1  0  0  0  0  0  0  0  0  0
   -2.4760    1.2498   -0.1721 C   0  0  0  0  0  0  0  0  0  0  0  0
   -3.7847    0.5995   -0.6347 C   0  0  2  0  0  0  0  0  0  0  0  0
    3.7912   -0.0499    0.8579 C   0  0  0  0  0  0  0  0  0  0  0  0
   -4.1634   -0.5709    0.2492 C   0  0  0  0  0  0  0  0  0  0  0  0
    4.1411   -0.5448   -0.5228 C   0  0  0  0  0  0  0  0  0  0  0  0
    1.3968   -0.2458   -0.6590 H   0  0  0  0  0  0  0  0  0  0  0  0
    0.1662    1.8291   -0.2227 H   0  0  0  0  0  0  0  0  0  0  0  0
   -0.2166    1.2947    1.4074 H   0  0  0  0  0  0  0  0  0  0  0  0
   -1.5451   -0.5954    0.4870 H   0  0  0  0  0  0  0  0  0  0  0  0
   -1.1016   -0.1189   -1.1544 H   0  0  0  0  0  0  0  0  0  0  0  0
    2.3311    1.0875    1.9416 H   0  0  0  0  0  0  0  0  0  0  0  0
   -2.2316    2.0934   -0.8307 H   0  0  0  0  0  0  0  0  0  0  0  0
   -2.6133    1.6701    0.8322 H   0  0  0  0  0  0  0  0  0  0  0  0
   -4.6038    1.3267   -0.6246 H   0  0  0  0  0  0  0  0  0  0  0  0
    4.6348    0.5684    1.1875 H   0  0  0  0  0  0  0  0  0  0  0  0
    3.7165   -0.9028    1.5409 H   0  0  0  0  0  0  0  0  0  0  0  0
    0.9018   -0.9509    2.1423 H   0  0  0  0  0  0  0  0  0  0  0  0
    1.7698   -1.8152    1.0647 H   0  0  0  0  0  0  0  0  0  0  0  0
    2.7556    1.7300   -0.7892 H   0  0  0  0  0  0  0  0  0  0  0  0
   -3.3616    0.8444   -2.6204 H   0  0  0  0  0  0  0  0  0  0  0  0
   -4.5135   -0.2725   -2.3350 H   0  0  0  0  0  0  0  0  0  0  0  0
   -4.6073   -0.9054    2.1173 H   0  0  0  0  0  0  0  0  0  0  0  0
    5.0104   -2.0705   -1.3648 H   0  0  0  0  0  0  0  0  0  0  0  0
  1 11  1  0  0  0  0
  1 30  1  0  0  0  0
  2 15  1  0  0  0  0
  2 33  1  0  0  0  0
  3 16  1  0  0  0  0
  3 34  1  0  0  0  0
  4 15  2  0  0  0  0
  5 16  2  0  0  0  0
  6  8  1  0  0  0  0
  6 28  1  0  0  0  0
  6 29  1  0  0  0  0
  7 13  1  0  0  0  0
  7 31  1  0  0  0  0
  7 32  1  0  0  0  0
  8  9  1  0  0  0  0
  8 11  1  0  0  0  0
  8 17  1  0  0  0  0
  9 10  1  0  0  0  0
  9 18  1  0  0  0  0
  9 19  1  0  0  0  0
 10 12  1  0  0  0  0
 10 20  1  0  0  0  0
 10 21  1  0  0  0  0
 11 14  1  0  0  0  0
 11 22  1  0  0  0  0
 12 13  1  0  0  0  0
 12 23  1  0  0  0  0
 12 24  1  0  0  0  0
 13 15  1  0  0  0  0
 13 25  1  0  0  0  0
 14 16  1  0  0  0  0
 14 26  1  0  0  0  0
 14 27  1  0  0  0  0
M  END
> <PUBCHEM_COMPOUND_CID>
443585

> <PUBCHEM_CONFORMER_RMSD>
1

> <PUBCHEM_CONFORMER_DIVERSEORDER>
51
474
156
48
59
400
133
432
140
114
290
7
439
11
58
166
524
246
69
174
529
4
392
3
198
25
36
32
378
131
134
200
343
437
33
175
160
30
241
53
15
161
9
300
237
518
122
47
299
84
413
340
50
110
486
73
137
509
21
513
81
2
441
13
16
528
10
85
49
64
397
525
277
192
1
317
458
136
165
261
66
399
132
473
39
195
172
322
169
534
6
387
55
493
17
117
70
367
164
286
462
262
162
417
68
490
515
135
14
212
468
272
93
143
274
428
43
327
20
463
465
78
402
129
61
469
284
31
38
148
288
423
153
106
404
334
109
44
215
336
276
23
72
311
168
173
213
289

> <PUBCHEM_MMFF94_PARTIAL_CHARGES>
20
1 -0.68
11 0.28
13 0.33
14 0.06
15 0.66
16 0.66
2 -0.65
28 0.36
29 0.36
3 -0.65
30 0.4
31 0.36
32 0.36
33 0.5
34 0.5
4 -0.57
5 -0.57
6 -0.99
7 -0.99
8 0.27

> <PUBCHEM_EFFECTIVE_ROTOR_COUNT>
8

> <PUBCHEM_PHARMACOPHORE_FEATURES>
12
1 1 acceptor
1 1 donor
1 2 acceptor
1 3 acceptor
1 4 acceptor
1 5 acceptor
1 6 cation
1 6 donor
1 7 cation
1 7 donor
3 2 4 15 anion
3 3 5 16 anion

> <PUBCHEM_HEAVY_ATOM_COUNT>
16

> <PUBCHEM_ATOM_DEF_STEREO_COUNT>
0

> <PUBCHEM_ATOM_UDEF_STEREO_COUNT>
3

> <PUBCHEM_BOND_DEF_STEREO_COUNT>
0

> <PUBCHEM_BOND_UDEF_STEREO_COUNT>
0

> <PUBCHEM_ISOTOPIC_ATOM_COUNT>
0

> <PUBCHEM_COMPONENT_COUNT>
1

> <PUBCHEM_CACTVS_TAUTO_COUNT>
1

> <PUBCHEM_CONFORMER_ID>
0006C4C100000033

> <PUBCHEM_MMFF94_ENERGY>
12.0337

> <PUBCHEM_FEATURE_SELFOVERLAP>
61.009

> <PUBCHEM_SHAPE_FINGERPRINT>
10014705 185 10592043553344814915
10680689 15 18201720661108849713
10912923 1 15647344000043820137
11128504 68 17561073692455957166
11543360 7 16128655245230955641
11615757 297 18411136926789576185
12032990 46 18335421265897431016
124424 183 5112006127916325337
13675066 3 17240486917923268624
14251718 22 17917987253059986516
14251757 5 16127226893864429331
14251758 9 15285904931395505985
14252887 29 18041007241273731176
14455015 7 18260261971137832878
15239154 128 11312059867537445862
17834072 14 9655578512941005871
17834072 33 14836117741228145856
17834074 16 18333171660817360711
17844677 252 18408318895467326457
18186145 218 18343589533559129649
1986462 14 18412263969067996485
20281475 54 17168152186999711037
20432913 95 16515406274152065758
20645477 70 18334290964313728622
22485316 2 15936415528381689728
22646028 1 17530972392444485332
23402655 69 16630253613695155316
23503958 8 16081663170980374031
23557571 272 17417813993441426117
42 15 16153427268185412736
4990 188 18413389856321753386
633830 44 18411986857788705469

> <PUBCHEM_SHAPE_MULTIPOLES>
289.96
11.1
1.44
1.3
0.88
0.07
-0.28
3.48
-1.5
-0.41
0.04
0.39
0.09
0.57

> <PUBCHEM_SHAPE_SELFOVERLAP>
556.33

> <PUBCHEM_SHAPE_VOLUME>
175.6

> <PUBCHEM_COORDINATE_TYPE>
2
5
10

$$$$

