5462303
  -OEChem-07051212513D

 13 12  0     1  0  0  0  0  0999 V2000
   -2.0647    0.1366    0.6002 O   0  0  0  0  0  0  0  0  0  0  0  0
   -0.6686    1.2954   -0.7622 O   0  0  0  0  0  0  0  0  0  0  0  0
    1.8636    0.9961    0.0726 O   0  0  0  0  0  0  0  0  0  0  0  0
    0.1525   -0.7123    0.3448 C   0  0  2  0  0  0  0  0  0  0  0  0
    0.0217   -1.9068   -0.5968 C   0  0  0  0  0  0  0  0  0  0  0  0
   -0.8691    0.3521   -0.0085 C   0  0  0  0  0  0  0  0  0  0  0  0
    1.5647   -0.1612    0.3498 C   0  0  0  0  0  0  0  0  0  0  0  0
   -0.0388   -1.0333    1.3764 H   0  0  0  0  0  0  0  0  0  0  0  0
   -0.9884   -2.3281   -0.5598 H   0  0  0  0  0  0  0  0  0  0  0  0
    0.7344   -2.6942   -0.3302 H   0  0  0  0  0  0  0  0  0  0  0  0
    0.2236   -1.6125   -1.6329 H   0  0  0  0  0  0  0  0  0  0  0  0
    2.3471   -0.8812    0.6471 H   0  0  0  0  0  0  0  0  0  0  0  0
   -2.7243    0.8228    0.3630 H   0  0  0  0  0  0  0  0  0  0  0  0
  1  6  1  0  0  0  0
  1 13  1  0  0  0  0
  2  6  2  0  0  0  0
  3  7  2  0  0  0  0
  4  5  1  0  0  0  0
  4  6  1  0  0  0  0
  4  7  1  0  0  0  0
  4  8  1  0  0  0  0
  5  9  1  0  0  0  0
  5 10  1  0  0  0  0
  5 11  1  0  0  0  0
  7 12  1  0  0  0  0
M  END
> <PUBCHEM_COMPOUND_CID>
5462303

> <PUBCHEM_CONFORMER_RMSD>
0.4

> <PUBCHEM_CONFORMER_DIVERSEORDER>
1
9
2
7
5
3
4
8
6

> <PUBCHEM_MMFF94_PARTIAL_CHARGES>
8
1 -0.65
12 0.06
13 0.5
2 -0.57
3 -0.57
4 0.12
6 0.66
7 0.45

> <PUBCHEM_EFFECTIVE_ROTOR_COUNT>
2

> <PUBCHEM_PHARMACOPHORE_FEATURES>
6
1 1 acceptor
1 2 acceptor
1 3 acceptor
1 4 anion
1 5 hydrophobe
3 1 2 6 anion

> <PUBCHEM_HEAVY_ATOM_COUNT>
7

> <PUBCHEM_ATOM_DEF_STEREO_COUNT>
1

> <PUBCHEM_ATOM_UDEF_STEREO_COUNT>
0

> <PUBCHEM_BOND_DEF_STEREO_COUNT>
0

> <PUBCHEM_BOND_UDEF_STEREO_COUNT>
0

> <PUBCHEM_ISOTOPIC_ATOM_COUNT>
0

> <PUBCHEM_COMPONENT_COUNT>
1

> <PUBCHEM_CACTVS_TAUTO_COUNT>
3

> <PUBCHEM_CONFORMER_ID>
0053591F00000001

> <PUBCHEM_MMFF94_ENERGY>
6.7442

> <PUBCHEM_FEATURE_SELFOVERLAP>
30.763

> <PUBCHEM_SHAPE_FINGERPRINT>
137420 1 12560234160444980454
16714656 1 18340480067589082500
20096714 4 18410860966529475488
21040471 1 18334577910572157938
24536 1 17903370538426806609
29004967 10 17613155590884237586
5943 1 13596219824567596802

> <PUBCHEM_SHAPE_MULTIPOLES>
126.45
2.05
1.57
0.78
0.01
0.64
-0.03
-0.65
0.37
-0.17
-0.42
0.11
0.02
0.08

> <PUBCHEM_SHAPE_SELFOVERLAP>
236.231

> <PUBCHEM_SHAPE_VOLUME>
78.6

> <PUBCHEM_COORDINATE_TYPE>
2
5
10

$$$$

