56928141
  -OEChem-07051213153D

 42 44  0     1  0  0  0  0  0999 V2000
    0.4494   -2.4794    1.2839 O   0  0  0  0  0  0  0  0  0  0  0  0
   -0.8425   -0.6683    0.5257 C   0  0  2  0  0  0  0  0  0  0  0  0
   -1.1120    0.6101   -0.3098 C   0  0  1  0  0  0  0  0  0  0  0  0
   -2.6189    0.2740   -0.1206 C   0  0  0  0  0  0  0  0  0  0  0  0
    0.5353   -1.3119    0.4529 C   0  0  1  0  0  0  0  0  0  0  0  0
   -2.1651   -1.2162   -0.0792 C   0  0  0  0  0  0  0  0  0  0  0  0
    2.0380    0.8083    0.1828 C   0  0  2  0  0  0  0  0  0  0  0  0
    1.5510   -0.3425    1.0950 C   0  0  0  0  0  0  0  0  0  0  0  0
   -0.4550    1.8221    0.3114 C   0  0  0  0  0  0  0  0  0  0  0  0
    1.0035    1.9431   -0.1507 C   0  0  0  0  0  0  0  0  0  0  0  0
    0.9693   -1.7759   -0.9432 C   0  0  0  0  0  0  0  0  0  0  0  0
    2.5889    0.1745   -1.1209 C   0  0  0  0  0  0  0  0  0  0  0  0
    1.5768   -0.7054   -1.8465 C   0  0  0  0  0  0  0  0  0  0  0  0
   -3.4740    0.6037   -1.3237 C   0  0  0  0  0  0  0  0  0  0  0  0
   -3.2803    0.7775    1.1461 C   0  0  0  0  0  0  0  0  0  0  0  0
    3.2356    1.4864    0.8969 C   0  0  0  0  0  0  0  0  0  0  0  0
   -0.9998   -0.5000    1.6062 H   0  0  0  0  0  0  0  0  0  0  0  0
   -0.8563    0.5386   -1.3724 H   0  0  0  0  0  0  0  0  0  0  0  0
   -2.7404   -1.8796    0.5728 H   0  0  0  0  0  0  0  0  0  0  0  0
   -2.0578   -1.6963   -1.0585 H   0  0  0  0  0  0  0  0  0  0  0  0
    2.4246   -0.9367    1.4030 H   0  0  0  0  0  0  0  0  0  0  0  0
    1.1578    0.0635    2.0369 H   0  0  0  0  0  0  0  0  0  0  0  0
   -0.5059    1.8087    1.4060 H   0  0  0  0  0  0  0  0  0  0  0  0
   -0.9888    2.7242   -0.0121 H   0  0  0  0  0  0  0  0  0  0  0  0
    0.9971    2.1142   -1.2358 H   0  0  0  0  0  0  0  0  0  0  0  0
    1.3681    2.8921    0.2664 H   0  0  0  0  0  0  0  0  0  0  0  0
    0.1419   -2.2701   -1.4651 H   0  0  0  0  0  0  0  0  0  0  0  0
    1.7287   -2.5620   -0.8241 H   0  0  0  0  0  0  0  0  0  0  0  0
    3.4665   -0.4432   -0.8845 H   0  0  0  0  0  0  0  0  0  0  0  0
    2.9467    0.9546   -1.8049 H   0  0  0  0  0  0  0  0  0  0  0  0
    0.8018   -0.0895   -2.3052 H   0  0  0  0  0  0  0  0  0  0  0  0
    2.0788   -1.2008   -2.6873 H   0  0  0  0  0  0  0  0  0  0  0  0
   -4.2700    0.3237    1.2740 H   0  0  0  0  0  0  0  0  0  0  0  0
   -2.7172    0.5641    2.0587 H   0  0  0  0  0  0  0  0  0  0  0  0
   -3.4216    1.8637    1.1066 H   0  0  0  0  0  0  0  0  0  0  0  0
   -3.0346    0.2295   -2.2553 H   0  0  0  0  0  0  0  0  0  0  0  0
   -4.4714    0.1589   -1.2351 H   0  0  0  0  0  0  0  0  0  0  0  0
   -3.5980    1.6867   -1.4346 H   0  0  0  0  0  0  0  0  0  0  0  0
    2.9211    1.9390    1.8443 H   0  0  0  0  0  0  0  0  0  0  0  0
    3.6742    2.2746    0.2740 H   0  0  0  0  0  0  0  0  0  0  0  0
    4.0312    0.7669    1.1222 H   0  0  0  0  0  0  0  0  0  0  0  0
    1.3332   -2.8815    1.3363 H   0  0  0  0  0  0  0  0  0  0  0  0
  1  5  1  0  0  0  0
  1 42  1  0  0  0  0
  2  3  1  0  0  0  0
  2  5  1  0  0  0  0
  2  6  1  0  0  0  0
  2 17  1  0  0  0  0
  3  4  1  0  0  0  0
  3  9  1  0  0  0  0
  3 18  1  0  0  0  0
  4  6  1  0  0  0  0
  4 14  1  0  0  0  0
  4 15  1  0  0  0  0
  5  8  1  0  0  0  0
  5 11  1  0  0  0  0
  6 19  1  0  0  0  0
  6 20  1  0  0  0  0
  7  8  1  0  0  0  0
  7 10  1  0  0  0  0
  7 12  1  0  0  0  0
  7 16  1  0  0  0  0
  8 21  1  0  0  0  0
  8 22  1  0  0  0  0
  9 10  1  0  0  0  0
  9 23  1  0  0  0  0
  9 24  1  0  0  0  0
 10 25  1  0  0  0  0
 10 26  1  0  0  0  0
 11 13  1  0  0  0  0
 11 27  1  0  0  0  0
 11 28  1  0  0  0  0
 12 13  1  0  0  0  0
 12 29  1  0  0  0  0
 12 30  1  0  0  0  0
 13 31  1  0  0  0  0
 13 32  1  0  0  0  0
 14 36  1  0  0  0  0
 14 37  1  0  0  0  0
 14 38  1  0  0  0  0
 15 33  1  0  0  0  0
 15 34  1  0  0  0  0
 15 35  1  0  0  0  0
 16 39  1  0  0  0  0
 16 40  1  0  0  0  0
 16 41  1  0  0  0  0
M  END
> <PUBCHEM_COMPOUND_CID>
56928141

> <PUBCHEM_CONFORMER_RMSD>
0.6

> <PUBCHEM_CONFORMER_DIVERSEORDER>
1
5
4
3
2

> <PUBCHEM_MMFF94_PARTIAL_CHARGES>
3
1 -0.68
42 0.4
5 0.28

> <PUBCHEM_EFFECTIVE_ROTOR_COUNT>
1.6

> <PUBCHEM_PHARMACOPHORE_FEATURES>
6
1 1 acceptor
1 1 donor
3 4 14 15 hydrophobe
4 2 3 4 6 rings
6 5 7 8 11 12 13 rings
7 2 3 5 7 8 9 10 rings

> <PUBCHEM_HEAVY_ATOM_COUNT>
16

> <PUBCHEM_ATOM_DEF_STEREO_COUNT>
2

> <PUBCHEM_ATOM_UDEF_STEREO_COUNT>
2

> <PUBCHEM_BOND_DEF_STEREO_COUNT>
0

> <PUBCHEM_BOND_UDEF_STEREO_COUNT>
0

> <PUBCHEM_ISOTOPIC_ATOM_COUNT>
0

> <PUBCHEM_COMPONENT_COUNT>
1

> <PUBCHEM_CACTVS_TAUTO_COUNT>
1

> <PUBCHEM_CONFORMER_ID>
0364A78D00000001

> <PUBCHEM_MMFF94_ENERGY>
60.9841

> <PUBCHEM_FEATURE_SELFOVERLAP>
31.246

> <PUBCHEM_SHAPE_FINGERPRINT>
10353120 184 18266435759018959477
10863032 1 17240482468526891588
10948715 1 17749957648272498024
10980938 120 18340198695971304849
11067466 332 17916568934283199921
11132069 177 18337962198767580912
12119455 92 17749682779372272088
12326174 3 18335989765011791734
12382932 28 18408042896742379153
12423570 1 17322657584165032338
12491281 212 17604410955981033401
12524768 44 18334855073575796191
12654215 9 18200885087647509021
13172582 1 18341611473433248969
13571099 52 18342185439977531060
144361 1 17968368047990913918
14817 1 12297036146759159422
15775835 57 18131357375264900189
15852999 172 18335704880105192208
15881359 60 17465655689627760086
16945 1 18261386784317573500
18186145 218 18410285904536365732
20511035 2 17832712270757329464
20645476 183 17488455291832623366
21524375 3 18264217915295714376
21947302 44 18334848390559204454
22112679 90 17541929227868861114
22802520 49 18116129199476468766
230 275 18202280337737898918
2334 1 18051411764808997585
23402539 116 18262249828432249460
23419403 2 15183660103951918308
23493267 7 16916773132658541713
23559900 14 18338785746884839916
25 1 18337376206272106732
2748010 2 18265606589670030196
305870 269 18130801056915219858
3060560 45 18187092770954935423
3286 77 16805901640362857840
353137 74 18268977855529769660
528886 8 18113890572211208446
7364860 26 18265621063894888882
7832392 63 17750502048299279801
81228 2 17624681367614786427

> <PUBCHEM_SHAPE_MULTIPOLES>
323.4
4.75
2.09
1.4
2.28
0.28
-0.24
-1.71
-0.37
-0.69
0.33
-0.19
0.36
0.33

> <PUBCHEM_SHAPE_SELFOVERLAP>
676.587

> <PUBCHEM_SHAPE_VOLUME>
184.1

> <PUBCHEM_COORDINATE_TYPE>
2
5
10

$$$$

