14305
  -OEChem-07051213053D

 23 24  0     0  0  0  0  0  0999 V2000
    3.4551   -0.7492    0.0344 O   0  0  0  0  0  0  0  0  0  0  0  0
   -2.7007   -0.9637   -0.3372 C   0  0  0  0  0  0  0  0  0  0  0  0
   -2.8983    0.3808    0.3511 C   0  0  0  0  0  0  0  0  0  0  0  0
   -1.3682   -1.5850    0.0776 C   0  0  0  0  0  0  0  0  0  0  0  0
   -1.8090    1.3635   -0.0744 C   0  0  0  0  0  0  0  0  0  0  0  0
   -0.2134   -0.6166    0.0117 C   0  0  0  0  0  0  0  0  0  0  0  0
   -0.4213    0.7749   -0.0192 C   0  0  0  0  0  0  0  0  0  0  0  0
    1.0973   -1.1167    0.0402 C   0  0  0  0  0  0  0  0  0  0  0  0
    0.6858    1.6359   -0.0577 C   0  0  0  0  0  0  0  0  0  0  0  0
    2.1892   -0.2497    0.0123 C   0  0  0  0  0  0  0  0  0  0  0  0
    1.9835    1.1258   -0.0389 C   0  0  0  0  0  0  0  0  0  0  0  0
   -2.7261   -0.8262   -1.4256 H   0  0  0  0  0  0  0  0  0  0  0  0
   -3.5198   -1.6445   -0.0800 H   0  0  0  0  0  0  0  0  0  0  0  0
   -2.8731    0.2433    1.4396 H   0  0  0  0  0  0  0  0  0  0  0  0
   -3.8828    0.7924    0.1020 H   0  0  0  0  0  0  0  0  0  0  0  0
   -1.1679   -2.4493   -0.5668 H   0  0  0  0  0  0  0  0  0  0  0  0
   -1.4453   -1.9514    1.1090 H   0  0  0  0  0  0  0  0  0  0  0  0
   -1.8645    2.2498    0.5689 H   0  0  0  0  0  0  0  0  0  0  0  0
   -1.9985    1.6898   -1.1048 H   0  0  0  0  0  0  0  0  0  0  0  0
    1.2596   -2.1916    0.0845 H   0  0  0  0  0  0  0  0  0  0  0  0
    0.5405    2.7126   -0.1022 H   0  0  0  0  0  0  0  0  0  0  0  0
    2.8292    1.8074   -0.0651 H   0  0  0  0  0  0  0  0  0  0  0  0
    3.4109   -1.7202    0.0695 H   0  0  0  0  0  0  0  0  0  0  0  0
  1 10  1  0  0  0  0
  1 23  1  0  0  0  0
  2  3  1  0  0  0  0
  2  4  1  0  0  0  0
  2 12  1  0  0  0  0
  2 13  1  0  0  0  0
  3  5  1  0  0  0  0
  3 14  1  0  0  0  0
  3 15  1  0  0  0  0
  4  6  1  0  0  0  0
  4 16  1  0  0  0  0
  4 17  1  0  0  0  0
  5  7  1  0  0  0  0
  5 18  1  0  0  0  0
  5 19  1  0  0  0  0
  6  7  2  0  0  0  0
  6  8  1  0  0  0  0
  7  9  1  0  0  0  0
  8 10  2  0  0  0  0
  8 20  1  0  0  0  0
  9 11  2  0  0  0  0
  9 21  1  0  0  0  0
 10 11  1  0  0  0  0
 11 22  1  0  0  0  0
M  END
> <PUBCHEM_COMPOUND_CID>
14305

> <PUBCHEM_CONFORMER_RMSD>
0.4

> <PUBCHEM_CONFORMER_DIVERSEORDER>
1

> <PUBCHEM_MMFF94_PARTIAL_CHARGES>
13
1 -0.53
10 0.08
11 -0.15
20 0.15
21 0.15
22 0.15
23 0.45
4 0.14
5 0.14
6 -0.14
7 -0.14
8 -0.15
9 -0.15

> <PUBCHEM_EFFECTIVE_ROTOR_COUNT>
0.8

> <PUBCHEM_PHARMACOPHORE_FEATURES>
3
1 1 donor
6 2 3 4 5 6 7 rings
6 6 7 8 9 10 11 rings

> <PUBCHEM_HEAVY_ATOM_COUNT>
11

> <PUBCHEM_ATOM_DEF_STEREO_COUNT>
0

> <PUBCHEM_ATOM_UDEF_STEREO_COUNT>
0

> <PUBCHEM_BOND_DEF_STEREO_COUNT>
0

> <PUBCHEM_BOND_UDEF_STEREO_COUNT>
0

> <PUBCHEM_ISOTOPIC_ATOM_COUNT>
0

> <PUBCHEM_COMPONENT_COUNT>
1

> <PUBCHEM_CACTVS_TAUTO_COUNT>
9

> <PUBCHEM_CONFORMER_ID>
000037E100000001

> <PUBCHEM_MMFF94_ENERGY>
19.9592

> <PUBCHEM_FEATURE_SELFOVERLAP>
15.244

> <PUBCHEM_SHAPE_FINGERPRINT>
11206711 2 18341897411002091925
12032990 46 18410847785116880682
12897270 3 18411421670141160927
12932764 1 17418384587914348763
14128692 85 18409165489339572876
14325111 11 18410292493037361649
15775835 57 18410282588974652365
16945 1 18411982481068954445
17844478 74 17989196037064214961
193761 8 17762618395690439786
19973954 147 18339641114325985745
20201158 50 18408887360153104271
21040471 1 18410855494498651041
21501502 16 18337388232096249837
23402655 69 18121799463363310645
23463225 33 18341050813040190162
23552423 10 18200031729069077255
23559900 14 18263082283911104182
241688 4 18341335521868909537
2748010 2 18267021643960383573
369184 2 18260549996039734369
5084963 1 18333733502774435433
528886 8 18410016571563874827
7364860 26 18190459359811715992

> <PUBCHEM_SHAPE_MULTIPOLES>
220.51
4.33
1.73
0.63
0.59
0.16
0
-0.64
0.05
-0.15
-0.03
-0.09
0
-0.11

> <PUBCHEM_SHAPE_SELFOVERLAP>
468.609

> <PUBCHEM_SHAPE_VOLUME>
123

> <PUBCHEM_COORDINATE_TYPE>
2
5
10

$$$$

