203443
  -OEChem-07051212472D

 25 25  0     1  0  0  0  0  0999 V2000
    2.5369    0.6550    0.0000 O   0  0  0  0  0  0  0  0  0  0  0  0
    6.0010    0.6550    0.0000 O   0  0  0  0  0  0  0  0  0  0  0  0
    4.2690    1.6550    0.0000 O   0  0  0  0  0  0  0  0  0  0  0  0
    2.5369   -1.3450    0.0000 N   0  0  0  0  0  0  0  0  0  0  0  0
    6.0010   -1.3450    0.0000 N   0  0  0  0  0  0  0  0  0  0  0  0
    5.1350   -0.8450    0.0000 C   0  0  2  0  0  0  0  0  0  0  0  0
    3.4030   -0.8450    0.0000 C   0  0  1  0  0  0  0  0  0  0  0  0
    3.4030    0.1550    0.0000 C   0  0  1  0  0  0  0  0  0  0  0  0
    5.1350    0.1550    0.0000 C   0  0  2  0  0  0  0  0  0  0  0  0
    4.2690    0.6550    0.0000 C   0  0  0  0  0  0  0  0  0  0  0  0
    4.2690   -1.3450    0.0000 C   0  0  0  0  0  0  0  0  0  0  0  0
    5.1350   -1.4650    0.0000 H   0  0  0  0  0  0  0  0  0  0  0  0
    3.4030   -1.4650    0.0000 H   0  0  0  0  0  0  0  0  0  0  0  0
    3.4030    0.7750    0.0000 H   0  0  0  0  0  0  0  0  0  0  0  0
    5.1350    0.7750    0.0000 H   0  0  0  0  0  0  0  0  0  0  0  0
    4.8059    0.9650    0.0000 H   0  0  0  0  0  0  0  0  0  0  0  0
    3.8705   -1.8200    0.0000 H   0  0  0  0  0  0  0  0  0  0  0  0
    4.6675   -1.8200    0.0000 H   0  0  0  0  0  0  0  0  0  0  0  0
    2.5369   -1.9650    0.0000 H   0  0  0  0  0  0  0  0  0  0  0  0
    2.0000   -1.0350    0.0000 H   0  0  0  0  0  0  0  0  0  0  0  0
    6.0010   -1.9650    0.0000 H   0  0  0  0  0  0  0  0  0  0  0  0
    6.5380   -1.0350    0.0000 H   0  0  0  0  0  0  0  0  0  0  0  0
    6.5380    0.3450    0.0000 H   0  0  0  0  0  0  0  0  0  0  0  0
    2.5369    1.2750    0.0000 H   0  0  0  0  0  0  0  0  0  0  0  0
    4.8059    1.9650    0.0000 H   0  0  0  0  0  0  0  0  0  0  0  0
  8  1  1  6  0  0  0
  1 24  1  0  0  0  0
  9  2  1  6  0  0  0
  2 23  1  0  0  0  0
  3 10  1  0  0  0  0
  3 25  1  0  0  0  0
  7  4  1  1  0  0  0
  4 19  1  0  0  0  0
  4 20  1  0  0  0  0
  6  5  1  1  0  0  0
  5 21  1  0  0  0  0
  5 22  1  0  0  0  0
  6  9  1  0  0  0  0
  6 11  1  0  0  0  0
  6 12  1  0  0  0  0
  7  8  1  0  0  0  0
  7 11  1  0  0  0  0
  7 13  1  0  0  0  0
  8 10  1  0  0  0  0
  8 14  1  0  0  0  0
  9 10  1  0  0  0  0
  9 15  1  0  0  0  0
 10 16  1  0  0  0  0
 11 17  1  0  0  0  0
 11 18  1  0  0  0  0
M  END
> <PUBCHEM_COMPOUND_CID>
203443

> <PUBCHEM_COMPOUND_CANONICALIZED>
1

> <PUBCHEM_CACTVS_COMPLEXITY>
130

> <PUBCHEM_CACTVS_HBOND_ACCEPTOR>
5

> <PUBCHEM_CACTVS_HBOND_DONOR>
5

> <PUBCHEM_CACTVS_ROTATABLE_BOND>
0

> <PUBCHEM_CACTVS_SUBSKEYS>
AAADccBjMAAAAAAAAAAAAAAAAAAAAAAAAAAwAAAAAAAAAAAAAAAAHgAQCAAACDzhgAYAAABAAgAAAAAAAAAAAAAAAAAAAIAAAAADEAIAwAAAQAAHEAABAAGwcAUAAAAAAAAAAAAAgAAUCACgAAAAAAAAAA==

> <PUBCHEM_IUPAC_OPENEYE_NAME>
(1S,3R,4S,6R)-4,6-diaminocyclohexane-1,2,3-triol

> <PUBCHEM_IUPAC_CAS_NAME>
(1S,3R,4S,6R)-4,6-diaminocyclohexane-1,2,3-triol

> <PUBCHEM_IUPAC_NAME>
(1S,3R,4S,6R)-4,6-diaminocyclohexane-1,2,3-triol

> <PUBCHEM_IUPAC_SYSTEMATIC_NAME>
(1S,3R,4S,6R)-4,6-bis(azanyl)cyclohexane-1,2,3-triol

> <PUBCHEM_IUPAC_TRADITIONAL_NAME>
(1S,3R,4S,6R)-4,6-diaminocyclohexane-1,2,3-triol

> <PUBCHEM_IUPAC_INCHI>
InChI=1S/C6H14N2O3/c7-2-1-3(8)5(10)6(11)4(2)9/h2-6,9-11H,1,7-8H2/t2-,3+,4+,5-,6?

> <PUBCHEM_IUPAC_INCHIKEY>
DTFAJAKTSMLKAT-KFJBKXNJSA-N

> <PUBCHEM_XLOGP3_AA>
-3.2

> <PUBCHEM_EXACT_MASS>
162.100442

> <PUBCHEM_MOLECULAR_FORMULA>
C6H14N2O3

> <PUBCHEM_MOLECULAR_WEIGHT>
162.18696

> <PUBCHEM_OPENEYE_CAN_SMILES>
C1C(C(C(C(C1N)O)O)O)N

> <PUBCHEM_OPENEYE_ISO_SMILES>
C1[C@H]([C@@H](C([C@@H]([C@H]1N)O)O)O)N

> <PUBCHEM_CACTVS_TPSA>
113

> <PUBCHEM_MONOISOTOPIC_WEIGHT>
162.100442

> <PUBCHEM_TOTAL_CHARGE>
0

> <PUBCHEM_HEAVY_ATOM_COUNT>
11

> <PUBCHEM_ATOM_DEF_STEREO_COUNT>
4

> <PUBCHEM_ATOM_UDEF_STEREO_COUNT>
0

> <PUBCHEM_BOND_DEF_STEREO_COUNT>
0

> <PUBCHEM_BOND_UDEF_STEREO_COUNT>
0

> <PUBCHEM_ISOTOPIC_ATOM_COUNT>
0

> <PUBCHEM_COMPONENT_COUNT>
1

> <PUBCHEM_CACTVS_TAUTO_COUNT>
1

> <PUBCHEM_COORDINATE_TYPE>
1
5
255

> <PUBCHEM_BONDANNOTATIONS>
8  1  6
9  2  6
7  4  5
6  5  5

$$$$

