5282266
  -OEChem-07051213042D

 66 66  0     1  0  0  0  0  0999 V2000
    9.9491   -0.1604    0.0000 O   0  0  0  0  0  0  0  0  0  0  0  0
    9.4491   -3.3172    0.0000 O   0  0  0  0  0  0  0  0  0  0  0  0
    6.5474   -3.2555    0.0000 O   0  0  0  0  0  0  0  0  0  0  0  0
   11.3504    0.8577    0.0000 O   0  0  0  0  0  0  0  0  0  0  0  0
    2.9511   -2.9976    0.0000 O   0  0  0  0  0  0  0  0  0  0  0  0
    3.4863   -1.3503    0.0000 O   0  0  0  0  0  0  0  0  0  0  0  0
    4.8532   -3.6156    0.0000 O   0  0  0  0  0  0  0  0  0  0  0  0
   10.5369   -0.9694    0.0000 C   0  0  2  0  0  0  0  0  0  0  0  0
   11.1247   -0.1604    0.0000 C   0  0  0  0  0  0  0  0  0  0  0  0
    9.7279   -1.5572    0.0000 C   0  0  0  0  0  0  0  0  0  0  0  0
   11.3459   -1.5572    0.0000 C   0  0  0  0  0  0  0  0  0  0  0  0
   10.0369   -2.5082    0.0000 C   0  0  0  0  0  0  0  0  0  0  0  0
   11.0369   -2.5082    0.0000 C   0  0  0  0  0  0  0  0  0  0  0  0
   12.1192   -0.2649    0.0000 C   0  0  0  0  0  0  0  0  0  0  0  0
    8.7768   -1.2481    0.0000 C   0  0  0  0  0  0  0  0  0  0  0  0
   12.3002    1.4577    0.0000 C   0  0  0  0  0  0  0  0  0  0  0  0
   12.8880    2.2667    0.0000 C   0  0  0  0  0  0  0  0  0  0  0  0
   12.7070    0.5441    0.0000 C   0  0  0  0  0  0  0  0  0  0  0  0
   12.4813    3.1802    0.0000 C   0  0  0  0  0  0  0  0  0  0  0  0
    8.0337   -1.9173    0.0000 C   0  0  0  0  0  0  0  0  0  0  0  0
    6.3395   -2.2774    0.0000 C   0  0  2  0  0  0  0  0  0  0  0  0
   13.0691    3.9893    0.0000 C   0  0  0  0  0  0  0  0  0  0  0  0
   10.3558    0.7532    0.0000 C   0  0  0  0  0  0  0  0  0  0  0  0
    5.3884   -1.9684    0.0000 C   0  0  0  0  0  0  0  0  0  0  0  0
    7.0826   -1.6082    0.0000 C   0  0  0  0  0  0  0  0  0  0  0  0
    4.6453   -2.6375    0.0000 C   0  0  0  0  0  0  0  0  0  0  0  0
   12.6623    4.9028    0.0000 C   0  0  0  0  0  0  0  0  0  0  0  0
    9.7680    1.5622    0.0000 C   0  0  0  0  0  0  0  0  0  0  0  0
    3.6942   -2.3285    0.0000 C   0  0  0  0  0  0  0  0  0  0  0  0
    5.8042   -3.9247    0.0000 C   0  0  0  0  0  0  0  0  0  0  0  0
    6.0121   -4.9028    0.0000 C   0  0  0  0  0  0  0  0  0  0  0  0
    2.0000   -2.6886    0.0000 C   0  0  0  0  0  0  0  0  0  0  0  0
   11.2956    0.4356    0.0000 H   0  0  0  0  0  0  0  0  0  0  0  0
   10.5674    0.1114    0.0000 H   0  0  0  0  0  0  0  0  0  0  0  0
   11.9356   -1.3656    0.0000 H   0  0  0  0  0  0  0  0  0  0  0  0
   12.3714   -0.8313    0.0000 H   0  0  0  0  0  0  0  0  0  0  0  0
   11.4013   -3.0098    0.0000 H   0  0  0  0  0  0  0  0  0  0  0  0
    8.6479   -0.6417    0.0000 H   0  0  0  0  0  0  0  0  0  0  0  0
   11.8695    1.9037    0.0000 H   0  0  0  0  0  0  0  0  0  0  0  0
   11.7862    1.1110    0.0000 H   0  0  0  0  0  0  0  0  0  0  0  0
   13.3187    1.8207    0.0000 H   0  0  0  0  0  0  0  0  0  0  0  0
   13.4020    2.6134    0.0000 H   0  0  0  0  0  0  0  0  0  0  0  0
   13.3236    0.4793    0.0000 H   0  0  0  0  0  0  0  0  0  0  0  0
   12.0506    3.6262    0.0000 H   0  0  0  0  0  0  0  0  0  0  0  0
   11.9673    2.8335    0.0000 H   0  0  0  0  0  0  0  0  0  0  0  0
    8.1626   -2.5237    0.0000 H   0  0  0  0  0  0  0  0  0  0  0  0
    6.9291   -2.4690    0.0000 H   0  0  0  0  0  0  0  0  0  0  0  0
   13.4998    3.5433    0.0000 H   0  0  0  0  0  0  0  0  0  0  0  0
   13.5831    4.3360    0.0000 H   0  0  0  0  0  0  0  0  0  0  0  0
    5.6795   -1.4209    0.0000 H   0  0  0  0  0  0  0  0  0  0  0  0
    4.8998   -1.5866    0.0000 H   0  0  0  0  0  0  0  0  0  0  0  0
    6.9537   -1.0018    0.0000 H   0  0  0  0  0  0  0  0  0  0  0  0
    4.3542   -3.1849    0.0000 H   0  0  0  0  0  0  0  0  0  0  0  0
    5.1338   -3.0192    0.0000 H   0  0  0  0  0  0  0  0  0  0  0  0
   13.2287    5.1550    0.0000 H   0  0  0  0  0  0  0  0  0  0  0  0
   12.4102    5.4692    0.0000 H   0  0  0  0  0  0  0  0  0  0  0  0
   12.0959    4.6506    0.0000 H   0  0  0  0  0  0  0  0  0  0  0  0
   10.2696    1.9266    0.0000 H   0  0  0  0  0  0  0  0  0  0  0  0
    9.4036    2.0638    0.0000 H   0  0  0  0  0  0  0  0  0  0  0  0
    9.2665    1.1978    0.0000 H   0  0  0  0  0  0  0  0  0  0  0  0
    5.4057   -5.0317    0.0000 H   0  0  0  0  0  0  0  0  0  0  0  0
    6.1410   -5.5093    0.0000 H   0  0  0  0  0  0  0  0  0  0  0  0
    6.6186   -4.7739    0.0000 H   0  0  0  0  0  0  0  0  0  0  0  0
    2.1916   -2.0989    0.0000 H   0  0  0  0  0  0  0  0  0  0  0  0
    1.4103   -2.4970    0.0000 H   0  0  0  0  0  0  0  0  0  0  0  0
    1.8084   -3.2782    0.0000 H   0  0  0  0  0  0  0  0  0  0  0  0
  8  1  1  1  0  0  0
  1 23  1  0  0  0  0
  2 12  2  0  0  0  0
 21  3  1  6  0  0  0
  3 30  1  0  0  0  0
  4 23  2  0  0  0  0
  5 29  1  0  0  0  0
  5 32  1  0  0  0  0
  6 29  2  0  0  0  0
  7 30  2  0  0  0  0
  8  9  1  0  0  0  0
  8 10  1  0  0  0  0
  8 11  1  0  0  0  0
  9 14  1  0  0  0  0
  9 33  1  0  0  0  0
  9 34  1  0  0  0  0
 10 12  1  0  0  0  0
 10 15  2  0  0  0  0
 11 13  2  0  0  0  0
 11 35  1  0  0  0  0
 12 13  1  0  0  0  0
 13 37  1  0  0  0  0
 14 18  2  0  0  0  0
 14 36  1  0  0  0  0
 15 20  1  0  0  0  0
 15 38  1  0  0  0  0
 16 17  1  0  0  0  0
 16 18  1  0  0  0  0
 16 39  1  0  0  0  0
 16 40  1  0  0  0  0
 17 19  1  0  0  0  0
 17 41  1  0  0  0  0
 17 42  1  0  0  0  0
 18 43  1  0  0  0  0
 19 22  1  0  0  0  0
 19 44  1  0  0  0  0
 19 45  1  0  0  0  0
 20 25  2  0  0  0  0
 20 46  1  0  0  0  0
 21 24  1  0  0  0  0
 21 25  1  0  0  0  0
 21 47  1  0  0  0  0
 22 27  1  0  0  0  0
 22 48  1  0  0  0  0
 22 49  1  0  0  0  0
 23 28  1  0  0  0  0
 24 26  1  0  0  0  0
 24 50  1  0  0  0  0
 24 51  1  0  0  0  0
 25 52  1  0  0  0  0
 26 29  1  0  0  0  0
 26 53  1  0  0  0  0
 26 54  1  0  0  0  0
 27 55  1  0  0  0  0
 27 56  1  0  0  0  0
 27 57  1  0  0  0  0
 28 58  1  0  0  0  0
 28 59  1  0  0  0  0
 28 60  1  0  0  0  0
 30 31  1  0  0  0  0
 31 61  1  0  0  0  0
 31 62  1  0  0  0  0
 31 63  1  0  0  0  0
 32 64  1  0  0  0  0
 32 65  1  0  0  0  0
 32 66  1  0  0  0  0
M  END
> <PUBCHEM_COMPOUND_CID>
5282266

> <PUBCHEM_COMPOUND_CANONICALIZED>
1

> <PUBCHEM_CACTVS_COMPLEXITY>
788

> <PUBCHEM_CACTVS_HBOND_ACCEPTOR>
7

> <PUBCHEM_CACTVS_HBOND_DONOR>
0

> <PUBCHEM_CACTVS_ROTATABLE_BOND>
16

> <PUBCHEM_CACTVS_SUBSKEYS>
AAADcfB4OAAAAAAAAAAAAAAAAAAAAQAAAAAAAAAAAAAAAAAAAAAAGgAAAAAADFSggAICCAAABACIAqDSCAAAAAAgAAAICAEAAEgIBBYAIQACEAAE4AAIoYPKAAAOAAAAAAAAAAAAAAAAAAAAAAAAAAAAAA==

> <PUBCHEM_IUPAC_OPENEYE_NAME>
methyl (E,4R,7Z)-4-acetoxy-7-[(2S)-2-acetoxy-2-[(Z)-oct-2-enyl]-5-oxo-cyclopent-3-en-1-ylidene]hept-5-enoate

> <PUBCHEM_IUPAC_CAS_NAME>
(E,4R,7Z)-4-acetyloxy-7-[(2S)-2-acetyloxy-2-[(Z)-oct-2-enyl]-5-oxo-1-cyclopent-3-enylidene]-5-heptenoic acid methyl ester

> <PUBCHEM_IUPAC_NAME>
methyl (E,4R,7Z)-4-acetyloxy-7-[(2S)-2-acetyloxy-2-[(Z)-oct-2-enyl]-5-oxocyclopent-3-en-1-ylidene]hept-5-enoate

> <PUBCHEM_IUPAC_SYSTEMATIC_NAME>
methyl (E,4R,7Z)-4-acetyloxy-7-[(2S)-2-acetyloxy-2-[(Z)-oct-2-enyl]-5-oxidanylidene-cyclopent-3-en-1-ylidene]hept-5-enoate

> <PUBCHEM_IUPAC_TRADITIONAL_NAME>
(E,4R,7Z)-4-acetoxy-7-[(2S)-2-acetoxy-5-keto-2-[(Z)-oct-2-enyl]cyclopent-3-en-1-ylidene]hept-5-enoic acid methyl ester

> <PUBCHEM_IUPAC_INCHI>
InChI=1S/C25H34O7/c1-5-6-7-8-9-10-17-25(32-20(3)27)18-16-23(28)22(25)13-11-12-21(31-19(2)26)14-15-24(29)30-4/h9-13,16,18,21H,5-8,14-15,17H2,1-4H3/b10-9-,12-11+,22-13+/t21-,25-/m0/s1

> <PUBCHEM_IUPAC_INCHIKEY>
QXSYLWTUKSQQCP-XJHMFZNOSA-N

> <PUBCHEM_XLOGP3_AA>
4.3

> <PUBCHEM_EXACT_MASS>
446.230453

> <PUBCHEM_MOLECULAR_FORMULA>
C25H34O7

> <PUBCHEM_MOLECULAR_WEIGHT>
446.53326

> <PUBCHEM_OPENEYE_CAN_SMILES>
CCCCCC=CCC1(C=CC(=O)C1=CC=CC(CCC(=O)OC)OC(=O)C)OC(=O)C

> <PUBCHEM_OPENEYE_ISO_SMILES>
CCCCC/C=C\C[C@@]\1(C=CC(=O)/C1=C\C=C\[C@@H](CCC(=O)OC)OC(=O)C)OC(=O)C

> <PUBCHEM_CACTVS_TPSA>
96

> <PUBCHEM_MONOISOTOPIC_WEIGHT>
446.230453

> <PUBCHEM_TOTAL_CHARGE>
0

> <PUBCHEM_HEAVY_ATOM_COUNT>
32

> <PUBCHEM_ATOM_DEF_STEREO_COUNT>
2

> <PUBCHEM_ATOM_UDEF_STEREO_COUNT>
0

> <PUBCHEM_BOND_DEF_STEREO_COUNT>
3

> <PUBCHEM_BOND_UDEF_STEREO_COUNT>
0

> <PUBCHEM_ISOTOPIC_ATOM_COUNT>
0

> <PUBCHEM_COMPONENT_COUNT>
1

> <PUBCHEM_CACTVS_TAUTO_COUNT>
1

> <PUBCHEM_COORDINATE_TYPE>
1
5
255

> <PUBCHEM_BONDANNOTATIONS>
8  1  5
21  3  6

$$$$

