442266
  -OEChem-07051212573D

 36 38  0     1  0  0  0  0  0999 V2000
    1.3766   -1.5621    0.2544 O   0  0  0  0  0  0  0  0  0  0  0  0
    2.0655    2.9627   -0.8160 O   0  0  0  0  0  0  0  0  0  0  0  0
   -3.8735    0.5063    1.0656 O   0  0  0  0  0  0  0  0  0  0  0  0
    3.5985   -2.0272    0.6543 O   0  0  0  0  0  0  0  0  0  0  0  0
   -0.8289   -3.2632   -1.7323 O   0  0  0  0  0  0  0  0  0  0  0  0
    0.5867   -0.3578    0.2915 C   0  0  1  0  0  0  0  0  0  0  0  0
    1.5071    0.6773   -0.3546 C   0  0  1  0  0  0  0  0  0  0  0  0
   -0.7641   -0.5236   -0.4271 C   0  0  2  0  0  0  0  0  0  0  0  0
    1.0749    2.1371   -0.1928 C   0  0  2  0  0  0  0  0  0  0  0  0
   -1.7014    0.6072   -0.0434 C   0  0  0  0  0  0  0  0  0  0  0  0
   -0.2521    2.4351   -0.9073 C   0  0  0  0  0  0  0  0  0  0  0  0
   -1.5401   -1.7587   -0.0247 C   0  0  0  0  0  0  0  0  0  0  0  0
   -1.4930    1.9268   -0.2075 C   0  0  0  0  0  0  0  0  0  0  0  0
    2.7895    0.2252    0.2727 C   0  0  0  0  0  0  0  0  0  0  0  0
   -2.8925   -0.0341    0.5910 C   0  0  0  0  0  0  0  0  0  0  0  0
    2.6932   -1.2443    0.4346 C   0  0  0  0  0  0  0  0  0  0  0  0
   -2.7191   -1.4922    0.5471 C   0  0  0  0  0  0  0  0  0  0  0  0
   -1.0654   -3.1371   -0.3398 C   0  0  0  0  0  0  0  0  0  0  0  0
   -2.4223    3.0288    0.2286 C   0  0  0  0  0  0  0  0  0  0  0  0
    3.8604    0.8940    0.7057 C   0  0  0  0  0  0  0  0  0  0  0  0
    0.4112   -0.1284    1.3546 H   0  0  0  0  0  0  0  0  0  0  0  0
    1.6119    0.4598   -1.4288 H   0  0  0  0  0  0  0  0  0  0  0  0
   -0.6287   -0.5437   -1.5159 H   0  0  0  0  0  0  0  0  0  0  0  0
    1.0237    2.4247    0.8635 H   0  0  0  0  0  0  0  0  0  0  0  0
   -0.2272    2.0451   -1.9344 H   0  0  0  0  0  0  0  0  0  0  0  0
   -0.3307    3.5230   -1.0440 H   0  0  0  0  0  0  0  0  0  0  0  0
   -3.4572   -2.1976    0.8917 H   0  0  0  0  0  0  0  0  0  0  0  0
   -1.8269   -3.8791   -0.0753 H   0  0  0  0  0  0  0  0  0  0  0  0
   -0.1626   -3.4090    0.2120 H   0  0  0  0  0  0  0  0  0  0  0  0
   -1.8802    3.7443    0.8571 H   0  0  0  0  0  0  0  0  0  0  0  0
   -3.2808    2.6953    0.8098 H   0  0  0  0  0  0  0  0  0  0  0  0
   -2.8054    3.5630   -0.6474 H   0  0  0  0  0  0  0  0  0  0  0  0
    2.1135    2.7180   -1.7561 H   0  0  0  0  0  0  0  0  0  0  0  0
    3.9319    1.9715    0.6204 H   0  0  0  0  0  0  0  0  0  0  0  0
    4.7009    0.3837    1.1649 H   0  0  0  0  0  0  0  0  0  0  0  0
   -0.0108   -2.7790   -1.9376 H   0  0  0  0  0  0  0  0  0  0  0  0
  1  6  1  0  0  0  0
  1 16  1  0  0  0  0
  2  9  1  0  0  0  0
  2 33  1  0  0  0  0
  3 15  2  0  0  0  0
  4 16  2  0  0  0  0
  5 18  1  0  0  0  0
  5 36  1  0  0  0  0
  6  7  1  0  0  0  0
  6  8  1  0  0  0  0
  6 21  1  0  0  0  0
  7  9  1  0  0  0  0
  7 14  1  0  0  0  0
  7 22  1  0  0  0  0
  8 10  1  0  0  0  0
  8 12  1  0  0  0  0
  8 23  1  0  0  0  0
  9 11  1  0  0  0  0
  9 24  1  0  0  0  0
 10 13  2  0  0  0  0
 10 15  1  0  0  0  0
 11 13  1  0  0  0  0
 11 25  1  0  0  0  0
 11 26  1  0  0  0  0
 12 17  2  0  0  0  0
 12 18  1  0  0  0  0
 13 19  1  0  0  0  0
 14 16  1  0  0  0  0
 14 20  2  0  0  0  0
 15 17  1  0  0  0  0
 17 27  1  0  0  0  0
 18 28  1  0  0  0  0
 18 29  1  0  0  0  0
 19 30  1  0  0  0  0
 19 31  1  0  0  0  0
 19 32  1  0  0  0  0
 20 34  1  0  0  0  0
 20 35  1  0  0  0  0
M  END
> <PUBCHEM_COMPOUND_CID>
442266

> <PUBCHEM_CONFORMER_RMSD>
0.6

> <PUBCHEM_CONFORMER_DIVERSEORDER>
1
2

> <PUBCHEM_MMFF94_PARTIAL_CHARGES>
25
1 -0.43
10 -0.12
11 0.14
12 -0.28
13 -0.28
14 -0.12
15 0.54
16 0.71
17 -0.14
18 0.42
19 0.14
2 -0.68
20 -0.3
27 0.15
3 -0.57
33 0.4
34 0.15
35 0.15
36 0.4
4 -0.57
5 -0.68
6 0.28
7 0.14
8 0.28
9 0.28

> <PUBCHEM_EFFECTIVE_ROTOR_COUNT>
1.6

> <PUBCHEM_PHARMACOPHORE_FEATURES>
9
1 2 acceptor
1 2 donor
1 3 acceptor
1 4 acceptor
1 5 acceptor
1 5 donor
5 1 6 7 14 16 rings
5 8 10 12 15 17 rings
7 6 7 8 9 10 11 13 rings

> <PUBCHEM_HEAVY_ATOM_COUNT>
20

> <PUBCHEM_ATOM_DEF_STEREO_COUNT>
4

> <PUBCHEM_ATOM_UDEF_STEREO_COUNT>
0

> <PUBCHEM_BOND_DEF_STEREO_COUNT>
0

> <PUBCHEM_BOND_UDEF_STEREO_COUNT>
0

> <PUBCHEM_ISOTOPIC_ATOM_COUNT>
0

> <PUBCHEM_COMPONENT_COUNT>
1

> <PUBCHEM_CACTVS_TAUTO_COUNT>
17

> <PUBCHEM_CONFORMER_ID>
0006BF9A00000001

> <PUBCHEM_MMFF94_ENERGY>
48.4896

> <PUBCHEM_FEATURE_SELFOVERLAP>
45.72

> <PUBCHEM_SHAPE_FINGERPRINT>
10967382 1 18124594176157869177
1100329 8 16321187084370230898
12251169 10 18411695465679585561
12507560 14 18408321120592201361
12553582 1 18268993081447225278
13140716 1 18124314896115376816
14081887 123 18189917339207327592
14178342 30 18265630796617706218
14223421 5 18410859832758621992
15442244 35 18340769338005314544
16945 1 18412262804984101228
17804303 29 18123185968546682058
19591789 44 18195525028728922830
20510252 161 18260830453104350321
21197605 99 18266735965324332001
21501502 16 18051973623729644104
21731228 192 18263361563236042425
22112679 90 17902231117820504367
22445834 79 18051685543304215801
23184049 59 18411410726891551467
2334 1 17691968163588048164
23388829 49 17833840373676024110
23419403 2 15962392452687010781
23463225 33 18341609287342257513
23559900 14 18048040959397469530
238 59 16904159732891525965
2748010 2 18195813092063886620
34934 24 18270972257990088562
352729 6 17908714173723281572
6992083 37 18409444752540144419
7097593 13 18413393124770955242
7471813 234 17177733150809268975
7832392 63 18266173924832533514
81228 2 18193582015425550811
84936 31 16519350402976787671
90525 40 18338516464259992031

> <PUBCHEM_SHAPE_MULTIPOLES>
382.24
5.41
3.87
0.95
2.19
0.14
0.17
0.02
-1.98
-0.94
1.16
-0.17
0.24
-0.72

> <PUBCHEM_SHAPE_SELFOVERLAP>
829.98

> <PUBCHEM_SHAPE_VOLUME>
209.4

> <PUBCHEM_COORDINATE_TYPE>
2
5
10

$$$$

