168199
  -OEChem-07051212563D

 52 56  0     1  0  0  0  0  0999 V2000
   -1.5439    0.0648   -0.3572 O   0  0  0  0  0  0  0  0  0  0  0  0
    2.8181    1.4961   -0.6177 O   0  0  0  0  0  0  0  0  0  0  0  0
    4.7077    0.3816    0.0747 O   0  0  0  0  0  0  0  0  0  0  0  0
   -4.3129   -0.8861   -1.7071 O   0  0  0  0  0  0  0  0  0  0  0  0
    0.6140   -0.1645    0.8441 C   0  0  1  0  0  0  0  0  0  0  0  0
    1.2985   -0.2480   -0.5657 C   0  0  2  0  0  0  0  0  0  0  0  0
   -0.7318    0.6702    0.6809 C   0  0  1  0  0  0  0  0  0  0  0  0
    2.6999   -0.8775   -0.5486 C   0  0  2  0  0  0  0  0  0  0  0  0
    1.5746    1.0949   -1.2028 C   0  0  1  0  0  0  0  0  0  0  0  0
   -0.3458    2.1277    0.2256 C   0  0  1  0  0  0  0  0  0  0  0  0
    0.3889   -1.6418    1.2780 C   0  0  0  0  0  0  0  0  0  0  0  0
    0.4613    2.1274   -1.0868 C   0  0  0  0  0  0  0  0  0  0  0  0
   -1.6195    0.6584    1.9392 C   0  0  0  0  0  0  0  0  0  0  0  0
    2.8534   -1.9578    0.5341 C   0  0  0  0  0  0  0  0  0  0  0  0
    1.5184   -2.6133    0.8887 C   0  0  0  0  0  0  0  0  0  0  0  0
    1.4594    0.5052    1.9732 C   0  0  0  0  0  0  0  0  0  0  0  0
   -2.8904   -0.1346    0.0985 C   0  0  1  0  0  0  0  0  0  0  0  0
   -3.0381    0.6059    1.4130 C   0  0  0  0  0  0  0  0  0  0  0  0
    3.5500    0.3654   -0.3147 C   0  0  0  0  0  0  0  0  0  0  0  0
    3.0872   -1.4671   -1.9175 C   0  0  0  0  0  0  0  0  0  0  0  0
   -1.5175    3.1039    0.0527 C   0  0  0  0  0  0  0  0  0  0  0  0
   -3.8907    0.2941   -0.9842 C   0  0  0  0  0  0  0  0  0  0  0  0
   -3.1826   -1.5914    0.1632 C   0  0  0  0  0  0  0  0  0  0  0  0
   -3.9583   -1.9136   -0.8638 C   0  0  0  0  0  0  0  0  0  0  0  0
    0.6376   -0.8239   -1.2289 H   0  0  0  0  0  0  0  0  0  0  0  0
    1.7731    0.9858   -2.2768 H   0  0  0  0  0  0  0  0  0  0  0  0
    0.2800    2.5834    1.0007 H   0  0  0  0  0  0  0  0  0  0  0  0
   -0.5296   -2.0340    0.8350 H   0  0  0  0  0  0  0  0  0  0  0  0
    0.2416   -1.6994    2.3638 H   0  0  0  0  0  0  0  0  0  0  0  0
   -0.2413    1.9442   -1.9115 H   0  0  0  0  0  0  0  0  0  0  0  0
    0.8821    3.1280   -1.2483 H   0  0  0  0  0  0  0  0  0  0  0  0
   -1.4478    1.5141    2.5996 H   0  0  0  0  0  0  0  0  0  0  0  0
   -1.4529   -0.2406    2.5409 H   0  0  0  0  0  0  0  0  0  0  0  0
    3.3315   -1.5656    1.4363 H   0  0  0  0  0  0  0  0  0  0  0  0
    3.5411   -2.7439    0.1949 H   0  0  0  0  0  0  0  0  0  0  0  0
    1.1837   -3.1988    0.0220 H   0  0  0  0  0  0  0  0  0  0  0  0
    1.6673   -3.3393    1.6969 H   0  0  0  0  0  0  0  0  0  0  0  0
    1.8819    1.4699    1.6864 H   0  0  0  0  0  0  0  0  0  0  0  0
    0.8503    0.6782    2.8675 H   0  0  0  0  0  0  0  0  0  0  0  0
    2.2923   -0.1072    2.3169 H   0  0  0  0  0  0  0  0  0  0  0  0
   -3.7201    0.1168    2.1171 H   0  0  0  0  0  0  0  0  0  0  0  0
   -3.4252    1.6169    1.2562 H   0  0  0  0  0  0  0  0  0  0  0  0
    3.0681   -0.7234   -2.7204 H   0  0  0  0  0  0  0  0  0  0  0  0
    4.1081   -1.8667   -1.8944 H   0  0  0  0  0  0  0  0  0  0  0  0
    2.4118   -2.2825   -2.1985 H   0  0  0  0  0  0  0  0  0  0  0  0
   -1.1580    4.0739   -0.3102 H   0  0  0  0  0  0  0  0  0  0  0  0
   -2.2526    2.7392   -0.6684 H   0  0  0  0  0  0  0  0  0  0  0  0
   -2.0171    3.2982    1.0057 H   0  0  0  0  0  0  0  0  0  0  0  0
   -4.7936    0.7470   -0.5564 H   0  0  0  0  0  0  0  0  0  0  0  0
   -3.4549    0.9903   -1.7079 H   0  0  0  0  0  0  0  0  0  0  0  0
   -2.8035   -2.2868    0.8957 H   0  0  0  0  0  0  0  0  0  0  0  0
   -4.3200   -2.8849   -1.1492 H   0  0  0  0  0  0  0  0  0  0  0  0
  1  7  1  0  0  0  0
  1 17  1  0  0  0  0
  2  9  1  0  0  0  0
  2 19  1  0  0  0  0
  3 19  2  0  0  0  0
  4 22  1  0  0  0  0
  4 24  1  0  0  0  0
  5  6  1  0  0  0  0
  5  7  1  0  0  0  0
  5 11  1  0  0  0  0
  5 16  1  0  0  0  0
  6  8  1  0  0  0  0
  6  9  1  0  0  0  0
  6 25  1  0  0  0  0
  7 10  1  0  0  0  0
  7 13  1  0  0  0  0
  8 14  1  0  0  0  0
  8 19  1  0  0  0  0
  8 20  1  0  0  0  0
  9 12  1  0  0  0  0
  9 26  1  0  0  0  0
 10 12  1  0  0  0  0
 10 21  1  0  0  0  0
 10 27  1  0  0  0  0
 11 15  1  0  0  0  0
 11 28  1  0  0  0  0
 11 29  1  0  0  0  0
 12 30  1  0  0  0  0
 12 31  1  0  0  0  0
 13 18  1  0  0  0  0
 13 32  1  0  0  0  0
 13 33  1  0  0  0  0
 14 15  1  0  0  0  0
 14 34  1  0  0  0  0
 14 35  1  0  0  0  0
 15 36  1  0  0  0  0
 15 37  1  0  0  0  0
 16 38  1  0  0  0  0
 16 39  1  0  0  0  0
 16 40  1  0  0  0  0
 17 18  1  0  0  0  0
 17 22  1  0  0  0  0
 17 23  1  0  0  0  0
 18 41  1  0  0  0  0
 18 42  1  0  0  0  0
 20 43  1  0  0  0  0
 20 44  1  0  0  0  0
 20 45  1  0  0  0  0
 21 46  1  0  0  0  0
 21 47  1  0  0  0  0
 21 48  1  0  0  0  0
 22 49  1  0  0  0  0
 22 50  1  0  0  0  0
 23 24  2  0  0  0  0
 23 51  1  0  0  0  0
 24 52  1  0  0  0  0
M  END
> <PUBCHEM_COMPOUND_CID>
168199

> <PUBCHEM_CONFORMER_RMSD>
0.6

> <PUBCHEM_CONFORMER_DIVERSEORDER>
1
2

> <PUBCHEM_MMFF94_PARTIAL_CHARGES>
14
1 -0.56
17 0.42
19 0.66
2 -0.43
22 0.28
23 -0.29
24 -0.07
3 -0.57
4 -0.36
51 0.15
52 0.15
7 0.28
8 0.06
9 0.28

> <PUBCHEM_EFFECTIVE_ROTOR_COUNT>
2.2

> <PUBCHEM_PHARMACOPHORE_FEATURES>
8
1 1 acceptor
1 3 acceptor
1 4 acceptor
5 1 7 13 17 18 rings
5 2 6 8 9 19 rings
5 4 17 22 23 24 rings
6 5 6 7 9 10 12 rings
6 5 6 8 11 14 15 rings

> <PUBCHEM_HEAVY_ATOM_COUNT>
24

> <PUBCHEM_ATOM_DEF_STEREO_COUNT>
7

> <PUBCHEM_ATOM_UDEF_STEREO_COUNT>
0

> <PUBCHEM_BOND_DEF_STEREO_COUNT>
0

> <PUBCHEM_BOND_UDEF_STEREO_COUNT>
0

> <PUBCHEM_ISOTOPIC_ATOM_COUNT>
0

> <PUBCHEM_COMPONENT_COUNT>
1

> <PUBCHEM_CACTVS_TAUTO_COUNT>
1

> <PUBCHEM_CONFORMER_ID>
0002910700000001

> <PUBCHEM_MMFF94_ENERGY>
102.2506

> <PUBCHEM_FEATURE_SELFOVERLAP>
40.917

> <PUBCHEM_SHAPE_FINGERPRINT>
10366900 7 14345794976460762439
10646746 165 13542456549359000022
10863032 1 18192714664350168432
11578080 2 18115891726450859953
11582403 64 16839969818791855441
12035759 4 18342460373893136147
12236239 1 18260821614298531515
12403260 363 18342461452573726680
12553582 1 18341320193167533787
12596599 1 18188477085937802695
12633257 1 5112009447841974423
12788726 201 18115876376812574465
13134695 92 16916800582221635958
13140716 1 17984961731828353272
13224815 77 18410570708091579995
13464514 151 16773250577324186653
13544653 18 17530680992041024775
13583140 156 15069192327864313850
13911987 19 17987503819807277260
14787075 74 18188206503678695312
15163728 17 13973096831403365462
15295992 7 11815603207720616109
16752209 62 18122353638429188889
16945 1 18058426812403068624
17349148 13 17775283885164032232
17492 54 18055626227269487964
18186145 218 18201987820395157822
18981168 100 11886532806060667245
192875 21 18131630067524295932
19862831 5 17632857555195496263
200 152 18341896285588778180
20691752 17 18130780192090495018
20775530 9 17242436451014111327
21033648 29 10015312269220137999
21731516 1 18335980947697030339
22112679 90 18115005473155484905
2334 1 17695881368726788248
23388829 49 18342729754157727168
23402539 116 18342176661507561116
23419403 2 4813098750502902360
23493267 7 15069722283989464544
23557571 272 17969232294232267944
23559900 14 17096076030360783372
238 59 17699288755298150437
2748010 2 17769343082084177640
3060560 45 17988090988749113743
3286 77 17748829596803246728
34934 24 18339357569412720641
46194498 28 17631176286538189991
7832392 63 17911506911767288728
90525 40 17978500159605392691

> <PUBCHEM_SHAPE_MULTIPOLES>
470.43
7.06
2.63
1.68
1.61
0.44
-0.17
-2.5
2.49
0.22
0.11
0.21
-0.18
-0.79

> <PUBCHEM_SHAPE_SELFOVERLAP>
1034.25

> <PUBCHEM_SHAPE_VOLUME>
254.4

> <PUBCHEM_COORDINATE_TYPE>
2
5
10

$$$$

