442079
  -OEChem-07051212563D

 47 51  0     1  0  0  0  0  0999 V2000
    1.9369   -2.4259   -0.9422 O   0  0  0  0  0  0  0  0  0  0  0  0
    1.4548    2.2879    0.2508 O   0  0  0  0  0  0  0  0  0  0  0  0
    4.3339   -0.4335    1.0672 O   0  0  0  0  0  0  0  0  0  0  0  0
    3.6839    2.2259    0.7732 O   0  0  0  0  0  0  0  0  0  0  0  0
   -3.6539   -0.6664   -0.0929 O   0  0  0  0  0  0  0  0  0  0  0  0
   -3.6783   -2.9021   -0.4572 O   0  0  0  0  0  0  0  0  0  0  0  0
    0.6417   -0.7720    0.4461 C   0  0  2  0  0  0  0  0  0  0  0  0
    1.1955    0.1703   -0.6771 C   0  0  2  0  0  0  0  0  0  0  0  0
    1.3767   -2.0947    0.3379 C   0  0  2  0  0  0  0  0  0  0  0  0
    2.7076    0.4495   -0.6169 C   0  0  2  0  0  0  0  0  0  0  0  0
    2.8560   -2.0483    0.0918 C   0  0  2  0  0  0  0  0  0  0  0  0
    3.5716   -0.7402   -0.0966 C   0  0  2  0  0  0  0  0  0  0  0  0
    0.5874    1.5623   -0.6256 C   0  0  1  0  0  0  0  0  0  0  0  0
   -0.8808   -0.8122    0.2287 C   0  0  0  0  0  0  0  0  0  0  0  0
    0.8385   -0.2891    1.9124 C   0  0  0  0  0  0  0  0  0  0  0  0
    2.7127    1.7286    0.2231 C   0  0  0  0  0  0  0  0  0  0  0  0
    3.2347    0.8580   -2.0130 C   0  0  0  0  0  0  0  0  0  0  0  0
   -1.5384    0.4946    0.1632 C   0  0  0  0  0  0  0  0  0  0  0  0
   -0.8444    1.5982   -0.1758 C   0  0  0  0  0  0  0  0  0  0  0  0
   -2.9912    0.4479    0.5595 C   0  0  1  0  0  0  0  0  0  0  0  0
   -1.6131   -1.9304    0.1143 C   0  0  0  0  0  0  0  0  0  0  0  0
   -3.8203    1.6877    0.2333 C   0  0  0  0  0  0  0  0  0  0  0  0
   -3.0622   -1.8856   -0.1574 C   0  0  0  0  0  0  0  0  0  0  0  0
   -3.7918    1.9734   -1.2665 C   0  0  0  0  0  0  0  0  0  0  0  0
   -5.2576    1.5161    0.7198 C   0  0  0  0  0  0  0  0  0  0  0  0
    0.9357   -0.2782   -1.6490 H   0  0  0  0  0  0  0  0  0  0  0  0
    1.0025   -2.8896    0.9689 H   0  0  0  0  0  0  0  0  0  0  0  0
    3.4821   -2.8286    0.5040 H   0  0  0  0  0  0  0  0  0  0  0  0
    4.3361   -0.9566   -0.8531 H   0  0  0  0  0  0  0  0  0  0  0  0
    0.6331    2.0482   -1.6081 H   0  0  0  0  0  0  0  0  0  0  0  0
    1.8889   -0.1926    2.1841 H   0  0  0  0  0  0  0  0  0  0  0  0
    0.3704    0.6768    2.1251 H   0  0  0  0  0  0  0  0  0  0  0  0
    0.4058   -1.0132    2.6154 H   0  0  0  0  0  0  0  0  0  0  0  0
    3.1182    0.0389   -2.7314 H   0  0  0  0  0  0  0  0  0  0  0  0
    2.7198    1.7350   -2.4193 H   0  0  0  0  0  0  0  0  0  0  0  0
    4.2989    1.1189   -1.9648 H   0  0  0  0  0  0  0  0  0  0  0  0
   -1.2969    2.5837   -0.1468 H   0  0  0  0  0  0  0  0  0  0  0  0
    3.7822   -0.5774    1.8514 H   0  0  0  0  0  0  0  0  0  0  0  0
   -3.0522    0.2632    1.6413 H   0  0  0  0  0  0  0  0  0  0  0  0
   -1.1687   -2.9182    0.1531 H   0  0  0  0  0  0  0  0  0  0  0  0
   -3.4024    2.5548    0.7605 H   0  0  0  0  0  0  0  0  0  0  0  0
   -4.2228    1.1457   -1.8413 H   0  0  0  0  0  0  0  0  0  0  0  0
   -4.4025    2.8582   -1.4837 H   0  0  0  0  0  0  0  0  0  0  0  0
   -2.8046    2.1781   -1.6805 H   0  0  0  0  0  0  0  0  0  0  0  0
   -5.7820    0.7154    0.1876 H   0  0  0  0  0  0  0  0  0  0  0  0
   -5.8262    2.4397    0.5648 H   0  0  0  0  0  0  0  0  0  0  0  0
   -5.2841    1.2884    1.7908 H   0  0  0  0  0  0  0  0  0  0  0  0
  1  9  1  0  0  0  0
  1 11  1  0  0  0  0
  2 13  1  0  0  0  0
  2 16  1  0  0  0  0
  3 12  1  0  0  0  0
  3 38  1  0  0  0  0
  4 16  2  0  0  0  0
  5 20  1  0  0  0  0
  5 23  1  0  0  0  0
  6 23  2  0  0  0  0
  7  8  1  0  0  0  0
  7  9  1  0  0  0  0
  7 14  1  0  0  0  0
  7 15  1  0  0  0  0
  8 10  1  0  0  0  0
  8 13  1  0  0  0  0
  8 26  1  0  0  0  0
  9 11  1  0  0  0  0
  9 27  1  0  0  0  0
 10 12  1  0  0  0  0
 10 16  1  0  0  0  0
 10 17  1  0  0  0  0
 11 12  1  0  0  0  0
 11 28  1  0  0  0  0
 12 29  1  0  0  0  0
 13 19  1  0  0  0  0
 13 30  1  0  0  0  0
 14 18  1  0  0  0  0
 14 21  2  0  0  0  0
 15 31  1  0  0  0  0
 15 32  1  0  0  0  0
 15 33  1  0  0  0  0
 17 34  1  0  0  0  0
 17 35  1  0  0  0  0
 17 36  1  0  0  0  0
 18 19  2  0  0  0  0
 18 20  1  0  0  0  0
 19 37  1  0  0  0  0
 20 22  1  0  0  0  0
 20 39  1  0  0  0  0
 21 23  1  0  0  0  0
 21 40  1  0  0  0  0
 22 24  1  0  0  0  0
 22 25  1  0  0  0  0
 22 41  1  0  0  0  0
 24 42  1  0  0  0  0
 24 43  1  0  0  0  0
 24 44  1  0  0  0  0
 25 45  1  0  0  0  0
 25 46  1  0  0  0  0
 25 47  1  0  0  0  0
M  END
> <PUBCHEM_COMPOUND_CID>
442079

> <PUBCHEM_CONFORMER_RMSD>
0.6

> <PUBCHEM_CONFORMER_DIVERSEORDER>
1

> <PUBCHEM_MMFF94_PARTIAL_CHARGES>
24
1 -0.3
10 0.06
11 -0.05
12 0.38
13 0.42
14 -0.14
16 0.66
18 -0.14
19 -0.29
2 -0.43
20 0.42
21 -0.14
23 0.71
27 0.1
28 0.1
3 -0.68
37 0.15
38 0.4
4 -0.57
40 0.15
5 -0.43
6 -0.57
7 0.23
9 -0.05

> <PUBCHEM_EFFECTIVE_ROTOR_COUNT>
2

> <PUBCHEM_PHARMACOPHORE_FEATURES>
10
1 1 acceptor
1 3 acceptor
1 3 donor
1 4 acceptor
1 6 acceptor
3 22 24 25 hydrophobe
5 2 8 10 13 16 rings
6 5 14 18 20 21 23 rings
6 7 8 13 14 18 19 rings
7 1 7 8 9 10 11 12 rings

> <PUBCHEM_HEAVY_ATOM_COUNT>
25

> <PUBCHEM_ATOM_DEF_STEREO_COUNT>
8

> <PUBCHEM_ATOM_UDEF_STEREO_COUNT>
0

> <PUBCHEM_BOND_DEF_STEREO_COUNT>
0

> <PUBCHEM_BOND_UDEF_STEREO_COUNT>
0

> <PUBCHEM_ISOTOPIC_ATOM_COUNT>
0

> <PUBCHEM_COMPONENT_COUNT>
1

> <PUBCHEM_CACTVS_TAUTO_COUNT>
1

> <PUBCHEM_CONFORMER_ID>
0006BEDF00000001

> <PUBCHEM_MMFF94_ENERGY>
86.5411

> <PUBCHEM_FEATURE_SELFOVERLAP>
50.972

> <PUBCHEM_SHAPE_FINGERPRINT>
10062212 137 18272091590939668259
10411042 1 16969702781456031403
10616163 171 18336823100563439823
10646746 165 18409729521804230716
10863032 1 18407759226794423005
10948715 1 18191308174403912600
10967382 1 18195244640236279399
1100329 8 18339923847728549667
11370993 70 18335708229842248387
11578080 2 17604723157517543249
12403260 363 18195818366410157584
12422481 6 18199212705282604648
12633257 1 18340777034502287066
13140716 1 18413108376654755203
13224815 77 17917989456130172465
13583140 156 17313399884847193211
13944108 23 16687682450925229469
14178342 30 18339931402475445641
14223421 5 18410575054809453903
14790565 3 18121209051019999369
15196674 1 18410855434416386848
15536298 74 18408885135312364264
1601671 61 18410571825284002782
16945 1 18262507204183821480
17349148 13 17969227896491497157
17492 89 18409729521683671503
18186145 218 18115010931768605200
19591789 44 18124311877022457749
20691752 17 17275389789455327538
20905425 154 18410570665268507606
21267235 1 18411689989712671843
21421861 104 17844533416625288762
21501502 16 18413386514431255591
22393880 68 18335127662312644654
23184049 59 18268421520274195169
23227448 37 18410295835081009479
2334 1 18341325609031571147
23558518 356 18200590272824143411
23559900 14 18187648063361761314
2748010 2 18341041956464107102
335352 9 18338796839608939734
34934 24 18340490061740609874
350125 39 18410569574979790987
474 4 17703781488267917326
495365 180 18040446502722123344
5104073 3 18411982438108726419
633830 44 17060331929122203597
7364860 26 18335701671674938392
7832392 63 18410571786365695869
9709674 26 18409725149454086191
9981440 41 17479169765607342248

> <PUBCHEM_SHAPE_MULTIPOLES>
479.27
8.28
2.91
1.19
5.21
0.82
-0.06
-1.86
0.06
0.61
-0.32
-0.6
-0.24
-0.17

> <PUBCHEM_SHAPE_SELFOVERLAP>
1063.838

> <PUBCHEM_SHAPE_VOLUME>
254.3

> <PUBCHEM_COORDINATE_TYPE>
2
5
10

$$$$

