11954156
  -OEChem-07051213073D

 58 61  0     1  0  0  0  0  0999 V2000
   -5.9294   -1.9466   -0.5034 F   0  0  0  0  0  0  0  0  0  0  0  0
   -3.0298    0.0564   -2.0100 O   0  0  0  0  0  0  0  0  0  0  0  0
   -0.1065   -1.8869    1.8923 O   0  0  0  0  0  0  0  0  0  0  0  0
   -5.4435    0.6578    0.0963 O   0  0  0  0  0  0  0  0  0  0  0  0
    5.5099   -1.1428   -2.0083 O   0  0  0  0  0  0  0  0  0  0  0  0
   -0.9452    1.0975   -0.2317 C   0  0  2  0  0  0  0  0  0  0  0  0
   -1.9866    0.0488    0.2203 C   0  0  1  0  0  0  0  0  0  0  0  0
    0.4028    0.9837    0.4970 C   0  0  1  0  0  0  0  0  0  0  0  0
    1.0079   -0.4351    0.2027 C   0  0  1  0  0  0  0  0  0  0  0  0
    2.4554   -0.5909    0.8056 C   0  0  2  0  0  0  0  0  0  0  0  0
   -3.1874    0.4923   -0.6628 C   0  0  1  0  0  0  0  0  0  0  0  0
   -1.4077   -1.3489   -0.0794 C   0  0  0  0  0  0  0  0  0  0  0  0
    0.0013   -1.5850    0.5091 C   0  0  2  0  0  0  0  0  0  0  0  0
   -1.7165    2.4126   -0.1622 C   0  0  0  0  0  0  0  0  0  0  0  0
    1.3560    2.1155    0.0547 C   0  0  0  0  0  0  0  0  0  0  0  0
   -3.1429    2.0374   -0.6160 C   0  0  0  0  0  0  0  0  0  0  0  0
    2.7918    1.9535    0.5857 C   0  0  1  0  0  0  0  0  0  0  0  0
    3.2803    0.5617    0.1941 C   0  0  0  0  0  0  0  0  0  0  0  0
   -2.3799    0.1746    1.7181 C   0  0  0  0  0  0  0  0  0  0  0  0
    3.1066   -1.9631    0.4701 C   0  0  0  0  0  0  0  0  0  0  0  0
    2.4939   -0.4974    2.3531 C   0  0  0  0  0  0  0  0  0  0  0  0
   -4.5127   -0.0703   -0.2443 C   0  0  0  0  0  0  0  0  0  0  0  0
    3.5660   -2.0803   -0.9697 C   0  0  0  0  0  0  0  0  0  0  0  0
    4.2680    0.3660   -0.6987 C   0  0  0  0  0  0  0  0  0  0  0  0
    3.6464    3.1356    0.1089 C   0  0  0  0  0  0  0  0  0  0  0  0
    4.5476   -0.9774   -1.2620 C   0  0  0  0  0  0  0  0  0  0  0  0
   -4.6456   -1.5690   -0.2597 C   0  0  0  0  0  0  0  0  0  0  0  0
   -0.7273    0.9329   -1.3001 H   0  0  0  0  0  0  0  0  0  0  0  0
    0.2412    1.0978    1.5732 H   0  0  0  0  0  0  0  0  0  0  0  0
    1.1289   -0.4711   -0.8927 H   0  0  0  0  0  0  0  0  0  0  0  0
   -1.3047   -1.4982   -1.1594 H   0  0  0  0  0  0  0  0  0  0  0  0
   -2.0763   -2.1300    0.2951 H   0  0  0  0  0  0  0  0  0  0  0  0
    0.3692   -2.4999    0.0276 H   0  0  0  0  0  0  0  0  0  0  0  0
   -1.2846    3.1774   -0.8158 H   0  0  0  0  0  0  0  0  0  0  0  0
   -1.7297    2.8174    0.8560 H   0  0  0  0  0  0  0  0  0  0  0  0
    0.9548    3.0777    0.3979 H   0  0  0  0  0  0  0  0  0  0  0  0
    1.3781    2.1621   -1.0431 H   0  0  0  0  0  0  0  0  0  0  0  0
   -3.8576    2.4774    0.0875 H   0  0  0  0  0  0  0  0  0  0  0  0
   -3.3443    2.4670   -1.6043 H   0  0  0  0  0  0  0  0  0  0  0  0
    2.7766    2.0245    1.6795 H   0  0  0  0  0  0  0  0  0  0  0  0
   -3.0315   -0.6486    2.0275 H   0  0  0  0  0  0  0  0  0  0  0  0
   -1.5110    0.1457    2.3799 H   0  0  0  0  0  0  0  0  0  0  0  0
   -2.9113    1.1050    1.9419 H   0  0  0  0  0  0  0  0  0  0  0  0
    2.4370   -2.7945    0.7125 H   0  0  0  0  0  0  0  0  0  0  0  0
    3.9904   -2.1065    1.1102 H   0  0  0  0  0  0  0  0  0  0  0  0
    2.1835   -1.4321    2.8295 H   0  0  0  0  0  0  0  0  0  0  0  0
    3.5141   -0.2980    2.7054 H   0  0  0  0  0  0  0  0  0  0  0  0
    1.8558    0.2932    2.7555 H   0  0  0  0  0  0  0  0  0  0  0  0
    2.7340   -2.0194   -1.6775 H   0  0  0  0  0  0  0  0  0  0  0  0
    4.0695   -3.0425   -1.1129 H   0  0  0  0  0  0  0  0  0  0  0  0
   -2.9197   -0.9032   -2.0611 H   0  0  0  0  0  0  0  0  0  0  0  0
    4.8408    1.1786   -1.1294 H   0  0  0  0  0  0  0  0  0  0  0  0
    3.2425    4.0781    0.4956 H   0  0  0  0  0  0  0  0  0  0  0  0
    4.6765    3.0482    0.4711 H   0  0  0  0  0  0  0  0  0  0  0  0
    3.6667    3.2119   -0.9837 H   0  0  0  0  0  0  0  0  0  0  0  0
    0.5520   -2.5711    2.0983 H   0  0  0  0  0  0  0  0  0  0  0  0
   -4.3702   -1.9693    0.7180 H   0  0  0  0  0  0  0  0  0  0  0  0
   -4.0442   -2.0496   -1.0280 H   0  0  0  0  0  0  0  0  0  0  0  0
  1 27  1  0  0  0  0
  2 11  1  0  0  0  0
  2 51  1  0  0  0  0
  3 13  1  0  0  0  0
  3 56  1  0  0  0  0
  4 22  2  0  0  0  0
  5 26  2  0  0  0  0
  6  7  1  0  0  0  0
  6  8  1  0  0  0  0
  6 14  1  0  0  0  0
  6 28  1  0  0  0  0
  7 11  1  0  0  0  0
  7 12  1  0  0  0  0
  7 19  1  0  0  0  0
  8  9  1  0  0  0  0
  8 15  1  0  0  0  0
  8 29  1  0  0  0  0
  9 10  1  0  0  0  0
  9 13  1  0  0  0  0
  9 30  1  0  0  0  0
 10 18  1  0  0  0  0
 10 20  1  0  0  0  0
 10 21  1  0  0  0  0
 11 16  1  0  0  0  0
 11 22  1  0  0  0  0
 12 13  1  0  0  0  0
 12 31  1  0  0  0  0
 12 32  1  0  0  0  0
 13 33  1  0  0  0  0
 14 16  1  0  0  0  0
 14 34  1  0  0  0  0
 14 35  1  0  0  0  0
 15 17  1  0  0  0  0
 15 36  1  0  0  0  0
 15 37  1  0  0  0  0
 16 38  1  0  0  0  0
 16 39  1  0  0  0  0
 17 18  1  0  0  0  0
 17 25  1  0  0  0  0
 17 40  1  0  0  0  0
 18 24  2  0  0  0  0
 19 41  1  0  0  0  0
 19 42  1  0  0  0  0
 19 43  1  0  0  0  0
 20 23  1  0  0  0  0
 20 44  1  0  0  0  0
 20 45  1  0  0  0  0
 21 46  1  0  0  0  0
 21 47  1  0  0  0  0
 21 48  1  0  0  0  0
 22 27  1  0  0  0  0
 23 26  1  0  0  0  0
 23 49  1  0  0  0  0
 23 50  1  0  0  0  0
 24 26  1  0  0  0  0
 24 52  1  0  0  0  0
 25 53  1  0  0  0  0
 25 54  1  0  0  0  0
 25 55  1  0  0  0  0
 27 57  1  0  0  0  0
 27 58  1  0  0  0  0
M  END
> <PUBCHEM_COMPOUND_CID>
11954156

> <PUBCHEM_CONFORMER_RMSD>
0.8

> <PUBCHEM_CONFORMER_DIVERSEORDER>
1
3
2

> <PUBCHEM_MMFF94_PARTIAL_CHARGES>
18
1 -0.34
10 0.14
11 0.34
13 0.28
17 0.14
18 -0.28
2 -0.68
22 0.45
23 0.06
24 -0.14
26 0.49
27 0.4
3 -0.68
4 -0.57
5 -0.57
51 0.4
52 0.15
56 0.4

> <PUBCHEM_EFFECTIVE_ROTOR_COUNT>
3.8

> <PUBCHEM_PHARMACOPHORE_FEATURES>
10
1 2 acceptor
1 2 donor
1 3 acceptor
1 3 donor
1 4 acceptor
1 5 acceptor
5 6 7 11 14 16 rings
6 10 18 20 23 24 26 rings
6 6 7 8 9 12 13 rings
6 8 9 10 15 17 18 rings

> <PUBCHEM_HEAVY_ATOM_COUNT>
27

> <PUBCHEM_ATOM_DEF_STEREO_COUNT>
8

> <PUBCHEM_ATOM_UDEF_STEREO_COUNT>
0

> <PUBCHEM_BOND_DEF_STEREO_COUNT>
0

> <PUBCHEM_BOND_UDEF_STEREO_COUNT>
0

> <PUBCHEM_ISOTOPIC_ATOM_COUNT>
0

> <PUBCHEM_COMPONENT_COUNT>
1

> <PUBCHEM_CACTVS_TAUTO_COUNT>
10

> <PUBCHEM_CONFORMER_ID>
00B667EC00000001

> <PUBCHEM_MMFF94_ENERGY>
97.1965

> <PUBCHEM_FEATURE_SELFOVERLAP>
50.855

> <PUBCHEM_SHAPE_FINGERPRINT>
10366900 7 17918269852917215337
10498660 4 17632581599267871612
11796584 16 16008748009016678268
11961588 58 17346307160324103118
12236239 1 17822287964586795145
12403259 226 18340778142424949316
12403259 415 18131636694658931309
12916754 54 18333447647158078969
13009979 54 17240749731778820272
13140716 1 18272099253308972347
13224815 77 18343309175352868273
13533116 47 17894908477922594593
13583140 156 12175322704892570685
13944108 23 15968804190653363517
14787075 74 18199759042154597505
14790565 3 18123475140632931485
15163728 17 15840442569214263461
15196674 1 18411706461244230049
16752209 62 18269560592619056856
16945 1 18410863182774785434
17349148 13 17489871557256268299
17492 89 18409174332867529207
17844677 252 18335415777330133737
1813 80 17750783523581607788
18186145 218 18343028799761243253
18608769 82 18058435539402301851
19591789 44 18411422821429889947
19784866 240 16660915677822335910
19862831 5 18340485664016060044
20645477 70 18409450250351568748
20691752 17 17418095446358153000
20775438 99 18046930193821508158
20775530 9 15576944646251326358
21267235 1 18410006632872408175
221357 26 18409447028735661316
22182313 1 18126550233741156442
22393880 68 18271533082051035397
23559900 14 18334861610405504152
239999 70 18410295774856411060
2748010 2 18125430909503272256
296302 2 13758351167910382315
312423 11 17967805055072346448
3323516 105 18411983572001184236
350125 39 18339919445846188745
4280585 95 17328300763139493926
46194498 28 18260543420808801724
474 4 16128074699392466046
5104073 3 18413113853423795409
5281201 14 18334575754604206892
633830 44 18410583885373036405
6786 2 7084131114555146960
6823239 73 18335143111426013642
9709674 26 18411700941678283928

> <PUBCHEM_SHAPE_MULTIPOLES>
524.9
10.7
2.71
1.5
5.33
1.08
-0.28
-2.81
4.15
-1.22
0.06
-0.95
-0.54
0.7

> <PUBCHEM_SHAPE_SELFOVERLAP>
1126.824

> <PUBCHEM_SHAPE_VOLUME>
291.3

> <PUBCHEM_COORDINATE_TYPE>
2
5
10

$$$$

