5280896
  -OEChem-07051212513D

 39 39  0     1  0  0  0  0  0999 V2000
   -0.1461   -1.2388    1.2500 O   0  0  0  0  0  0  0  0  0  0  0  0
   -4.6354    1.1292   -0.6772 O   0  0  0  0  0  0  0  0  0  0  0  0
    4.4588    0.1375    1.4768 O   0  0  0  0  0  0  0  0  0  0  0  0
    4.4111   -1.5866   -0.0114 O   0  0  0  0  0  0  0  0  0  0  0  0
   -1.8087   -1.1821   -0.5359 C   0  0  0  0  0  0  0  0  0  0  0  0
   -0.8886   -0.3343    0.4202 C   0  0  1  0  0  0  0  0  0  0  0  0
   -2.7709   -0.2439   -1.2936 C   0  0  0  0  0  0  0  0  0  0  0  0
   -1.7108    0.6150    1.2928 C   0  0  0  0  0  0  0  0  0  0  0  0
   -2.6417   -2.2308    0.2522 C   0  0  0  0  0  0  0  0  0  0  0  0
   -0.9825   -1.9828   -1.5708 C   0  0  0  0  0  0  0  0  0  0  0  0
   -3.5388    0.6686   -0.3627 C   0  0  0  0  0  0  0  0  0  0  0  0
    0.1399    0.4707   -0.3362 C   0  0  0  0  0  0  0  0  0  0  0  0
   -2.9255    1.0601    0.9296 C   0  0  0  0  0  0  0  0  0  0  0  0
   -1.0978    1.0863    2.5869 C   0  0  0  0  0  0  0  0  0  0  0  0
    1.4637    0.2754   -0.2228 C   0  0  0  0  0  0  0  0  0  0  0  0
    2.5259    1.0124   -0.9149 C   0  0  0  0  0  0  0  0  0  0  0  0
    2.1010    2.0927   -1.8761 C   0  0  0  0  0  0  0  0  0  0  0  0
    3.8033    0.6619   -0.6636 C   0  0  0  0  0  0  0  0  0  0  0  0
    4.2431   -0.4104    0.2567 C   0  0  0  0  0  0  0  0  0  0  0  0
   -3.4995   -0.8348   -1.8627 H   0  0  0  0  0  0  0  0  0  0  0  0
   -2.2350    0.3899   -2.0096 H   0  0  0  0  0  0  0  0  0  0  0  0
   -3.2277   -1.7813    1.0595 H   0  0  0  0  0  0  0  0  0  0  0  0
   -3.3452   -2.7493   -0.4102 H   0  0  0  0  0  0  0  0  0  0  0  0
   -1.9994   -2.9982    0.6984 H   0  0  0  0  0  0  0  0  0  0  0  0
   -0.4417   -1.3263   -2.2605 H   0  0  0  0  0  0  0  0  0  0  0  0
   -0.2514   -2.6343   -1.0798 H   0  0  0  0  0  0  0  0  0  0  0  0
   -1.6327   -2.6186   -2.1834 H   0  0  0  0  0  0  0  0  0  0  0  0
   -0.2400    1.2451   -0.9977 H   0  0  0  0  0  0  0  0  0  0  0  0
   -3.4954    1.7406    1.5533 H   0  0  0  0  0  0  0  0  0  0  0  0
   -0.7434   -1.6025    1.9252 H   0  0  0  0  0  0  0  0  0  0  0  0
   -1.7200    1.8361    3.0877 H   0  0  0  0  0  0  0  0  0  0  0  0
   -0.1195    1.5436    2.4076 H   0  0  0  0  0  0  0  0  0  0  0  0
   -0.9715    0.2506    3.2821 H   0  0  0  0  0  0  0  0  0  0  0  0
    1.8087   -0.5064    0.4462 H   0  0  0  0  0  0  0  0  0  0  0  0
    2.9712    2.5660   -2.3444 H   0  0  0  0  0  0  0  0  0  0  0  0
    1.5428    2.8803   -1.3590 H   0  0  0  0  0  0  0  0  0  0  0  0
    1.4831    1.6817   -2.6815 H   0  0  0  0  0  0  0  0  0  0  0  0
    4.6137    1.1839   -1.1655 H   0  0  0  0  0  0  0  0  0  0  0  0
    4.7609   -0.5291    2.1301 H   0  0  0  0  0  0  0  0  0  0  0  0
  1  6  1  0  0  0  0
  1 30  1  0  0  0  0
  2 11  2  0  0  0  0
  3 19  1  0  0  0  0
  3 39  1  0  0  0  0
  4 19  2  0  0  0  0
  5  6  1  0  0  0  0
  5  7  1  0  0  0  0
  5  9  1  0  0  0  0
  5 10  1  0  0  0  0
  6  8  1  0  0  0  0
  6 12  1  0  0  0  0
  7 11  1  0  0  0  0
  7 20  1  0  0  0  0
  7 21  1  0  0  0  0
  8 13  2  0  0  0  0
  8 14  1  0  0  0  0
  9 22  1  0  0  0  0
  9 23  1  0  0  0  0
  9 24  1  0  0  0  0
 10 25  1  0  0  0  0
 10 26  1  0  0  0  0
 10 27  1  0  0  0  0
 11 13  1  0  0  0  0
 12 15  2  0  0  0  0
 12 28  1  0  0  0  0
 13 29  1  0  0  0  0
 14 31  1  0  0  0  0
 14 32  1  0  0  0  0
 14 33  1  0  0  0  0
 15 16  1  0  0  0  0
 15 34  1  0  0  0  0
 16 17  1  0  0  0  0
 16 18  2  0  0  0  0
 17 35  1  0  0  0  0
 17 36  1  0  0  0  0
 17 37  1  0  0  0  0
 18 19  1  0  0  0  0
 18 38  1  0  0  0  0
M  END
> <PUBCHEM_COMPOUND_CID>
5280896

> <PUBCHEM_CONFORMER_RMSD>
0.6

> <PUBCHEM_CONFORMER_DIVERSEORDER>
1
11
25
10
18
7
24
17
8
20
19
21
4
12
13
22
9
23
14
3
2
5
16
26
15
6

> <PUBCHEM_MMFF94_PARTIAL_CHARGES>
22
1 -0.68
11 0.49
12 -0.29
13 -0.14
14 0.14
15 -0.15
16 -0.14
17 0.14
18 -0.14
19 0.71
2 -0.57
28 0.15
29 0.15
3 -0.65
30 0.4
34 0.15
38 0.15
39 0.5
4 -0.57
6 0.56
7 0.06
8 -0.28

> <PUBCHEM_EFFECTIVE_ROTOR_COUNT>
3.6

> <PUBCHEM_PHARMACOPHORE_FEATURES>
9
1 1 acceptor
1 1 donor
1 17 hydrophobe
1 2 acceptor
1 3 acceptor
1 4 acceptor
3 3 4 19 anion
3 5 9 10 hydrophobe
6 5 6 7 8 11 13 rings

> <PUBCHEM_HEAVY_ATOM_COUNT>
19

> <PUBCHEM_ATOM_DEF_STEREO_COUNT>
1

> <PUBCHEM_ATOM_UDEF_STEREO_COUNT>
0

> <PUBCHEM_BOND_DEF_STEREO_COUNT>
2

> <PUBCHEM_BOND_UDEF_STEREO_COUNT>
0

> <PUBCHEM_ISOTOPIC_ATOM_COUNT>
0

> <PUBCHEM_COMPONENT_COUNT>
1

> <PUBCHEM_CACTVS_TAUTO_COUNT>
5

> <PUBCHEM_CONFORMER_ID>
0050948000000001

> <PUBCHEM_MMFF94_ENERGY>
53.1656

> <PUBCHEM_FEATURE_SELFOVERLAP>
45.725

> <PUBCHEM_SHAPE_FINGERPRINT>
10062212 137 18340775857523388414
10369192 42 15622524621892684380
11315181 36 18187359914348380744
11370993 70 17603872225728223358
11578080 2 18191887637890064453
11759241 127 14706930644219539328
12011746 2 13830136087902895031
12592029 89 18202001079228395035
128620 24 6338953352269518952
13024252 1 15841271437799137807
13224815 77 5112014932583529084
13533116 47 17676769889525624470
13583140 156 17844790530225866073
13675066 3 18342738507417017120
14004511 7 18202285796778566604
14115302 16 18333450928196484548
15295992 7 17275097314988770325
15309172 13 13542473042101936401
15375358 24 16370724829019173580
16945 1 18268695255624795487
17349148 13 18113613512555791382
17492 89 18269551646455984238
17834072 14 16877947122329520280
18186145 218 16702029638509652540
187816 3 17531250573703623245
192875 21 18261107491290354912
19489759 90 17167865304917377656
19784866 170 12966860095347701743
20279233 1 16443058396381068716
20645476 183 18341341045692841087
20645477 70 17775282760204457774
21339142 149 16805591599511221377
21486144 27 16486691347040401388
23402539 116 17168150082571360929
23419403 2 16590026855559622705
23557571 272 15647322061551618272
23559900 14 17313104151211990748
2838139 119 17774175616430944949
633830 44 16558750092076719484
6913067 236 14490769995356445196
74978 22 17845929616045985748
7615 1 18264475222708020540
81228 2 16589402311432216753
9971528 1 18342460361651962132

> <PUBCHEM_SHAPE_MULTIPOLES>
367.53
8.09
1.93
1.81
6.53
0.73
0.12
-0.29
0.36
-1.13
-0.28
0.46
-0.73
-0.75

> <PUBCHEM_SHAPE_SELFOVERLAP>
753.043

> <PUBCHEM_SHAPE_VOLUME>
210.9

> <PUBCHEM_COORDINATE_TYPE>
2
5
10

$$$$

