5282263
  -OEChem-07051213043D

 59 59  0     1  0  0  0  0  0999 V2000
   -2.4536    2.5482   -1.7544 O   0  0  0  0  0  0  0  0  0  0  0  0
   -0.5147    4.5712    1.0477 O   0  0  0  0  0  0  0  0  0  0  0  0
    5.0611    1.5196    0.4575 O   0  0  0  0  0  0  0  0  0  0  0  0
   -2.9355   -2.6972   -1.6583 O   0  0  0  0  0  0  0  0  0  0  0  0
   -4.5665   -1.2288   -1.0820 O   0  0  0  0  0  0  0  0  0  0  0  0
   -0.8599    1.8177   -0.0826 C   0  0  1  0  0  0  0  0  0  0  0  0
    0.4500    2.4346    0.4409 C   0  0  2  0  0  0  0  0  0  0  0  0
   -1.0733    2.5073   -1.4332 C   0  0  2  0  0  0  0  0  0  0  0  0
    0.2765    3.9119    0.0602 C   0  0  1  0  0  0  0  0  0  0  0  0
   -0.4969    3.9195   -1.2651 C   0  0  0  0  0  0  0  0  0  0  0  0
   -0.8825    0.2969   -0.1748 C   0  0  0  0  0  0  0  0  0  0  0  0
    1.7064    1.8759   -0.1561 C   0  0  0  0  0  0  0  0  0  0  0  0
   -0.6955   -0.4626    1.1092 C   0  0  0  0  0  0  0  0  0  0  0  0
    2.6941    1.3245    0.5640 C   0  0  0  0  0  0  0  0  0  0  0  0
    3.9528    0.7668   -0.0391 C   0  0  2  0  0  0  0  0  0  0  0  0
   -1.6464   -0.8234    1.9844 C   0  0  0  0  0  0  0  0  0  0  0  0
    4.1921   -0.7032    0.3316 C   0  0  0  0  0  0  0  0  0  0  0  0
    3.3085   -1.6760   -0.4548 C   0  0  0  0  0  0  0  0  0  0  0  0
   -3.1032   -0.5093    1.8056 C   0  0  0  0  0  0  0  0  0  0  0  0
    3.4880   -3.1375   -0.0314 C   0  0  0  0  0  0  0  0  0  0  0  0
   -3.9995   -1.7541    1.7464 C   0  0  0  0  0  0  0  0  0  0  0  0
    2.6599   -4.1187   -0.8620 C   0  0  0  0  0  0  0  0  0  0  0  0
   -3.6481   -2.7196    0.6103 C   0  0  0  0  0  0  0  0  0  0  0  0
    2.8661   -5.5519   -0.3949 C   0  0  0  0  0  0  0  0  0  0  0  0
   -3.7796   -2.1116   -0.7692 C   0  0  0  0  0  0  0  0  0  0  0  0
   -1.6785    2.1174    0.5893 H   0  0  0  0  0  0  0  0  0  0  0  0
    0.4774    2.3299    1.5335 H   0  0  0  0  0  0  0  0  0  0  0  0
   -0.5516    1.9777   -2.2392 H   0  0  0  0  0  0  0  0  0  0  0  0
    1.2260    4.4531   -0.0143 H   0  0  0  0  0  0  0  0  0  0  0  0
    0.1955    4.1131   -2.0929 H   0  0  0  0  0  0  0  0  0  0  0  0
   -1.2747    4.6903   -1.2938 H   0  0  0  0  0  0  0  0  0  0  0  0
   -0.1116   -0.0517   -0.8749 H   0  0  0  0  0  0  0  0  0  0  0  0
   -1.8197   -0.0131   -0.6507 H   0  0  0  0  0  0  0  0  0  0  0  0
    1.8130    1.9237   -1.2375 H   0  0  0  0  0  0  0  0  0  0  0  0
   -2.5444    3.0431   -2.5865 H   0  0  0  0  0  0  0  0  0  0  0  0
   -0.6145    5.4979    0.7703 H   0  0  0  0  0  0  0  0  0  0  0  0
    0.3301   -0.7330    1.3526 H   0  0  0  0  0  0  0  0  0  0  0  0
    2.6016    1.2761    1.6464 H   0  0  0  0  0  0  0  0  0  0  0  0
    3.9583    0.8741   -1.1302 H   0  0  0  0  0  0  0  0  0  0  0  0
   -1.3563   -1.3642    2.8813 H   0  0  0  0  0  0  0  0  0  0  0  0
    4.0429   -0.8474    1.4099 H   0  0  0  0  0  0  0  0  0  0  0  0
    5.2451   -0.9538    0.1466 H   0  0  0  0  0  0  0  0  0  0  0  0
    3.5349   -1.5798   -1.5239 H   0  0  0  0  0  0  0  0  0  0  0  0
    2.2542   -1.4029   -0.3298 H   0  0  0  0  0  0  0  0  0  0  0  0
   -3.2958    0.1230    0.9344 H   0  0  0  0  0  0  0  0  0  0  0  0
   -3.4164    0.0904    2.6701 H   0  0  0  0  0  0  0  0  0  0  0  0
    3.2169   -3.2378    1.0269 H   0  0  0  0  0  0  0  0  0  0  0  0
    4.5490   -3.4049   -0.1126 H   0  0  0  0  0  0  0  0  0  0  0  0
    4.9347    2.4450    0.1856 H   0  0  0  0  0  0  0  0  0  0  0  0
   -5.0418   -1.4284    1.6416 H   0  0  0  0  0  0  0  0  0  0  0  0
   -3.9335   -2.2953    2.6986 H   0  0  0  0  0  0  0  0  0  0  0  0
    1.5967   -3.8629   -0.7861 H   0  0  0  0  0  0  0  0  0  0  0  0
    2.9391   -4.0384   -1.9188 H   0  0  0  0  0  0  0  0  0  0  0  0
   -4.3175   -3.5864    0.6481 H   0  0  0  0  0  0  0  0  0  0  0  0
   -2.6251   -3.0897    0.7400 H   0  0  0  0  0  0  0  0  0  0  0  0
    3.9161   -5.8474   -0.4870 H   0  0  0  0  0  0  0  0  0  0  0  0
    2.5655   -5.6708    0.6509 H   0  0  0  0  0  0  0  0  0  0  0  0
    2.2657   -6.2376   -1.0009 H   0  0  0  0  0  0  0  0  0  0  0  0
   -3.0299   -2.3157   -2.5571 H   0  0  0  0  0  0  0  0  0  0  0  0
  1  8  1  0  0  0  0
  1 35  1  0  0  0  0
  2  9  1  0  0  0  0
  2 36  1  0  0  0  0
  3 15  1  0  0  0  0
  3 49  1  0  0  0  0
  4 25  1  0  0  0  0
  4 59  1  0  0  0  0
  5 25  2  0  0  0  0
  6  7  1  0  0  0  0
  6  8  1  0  0  0  0
  6 11  1  0  0  0  0
  6 26  1  0  0  0  0
  7  9  1  0  0  0  0
  7 12  1  0  0  0  0
  7 27  1  0  0  0  0
  8 10  1  0  0  0  0
  8 28  1  0  0  0  0
  9 10  1  0  0  0  0
  9 29  1  0  0  0  0
 10 30  1  0  0  0  0
 10 31  1  0  0  0  0
 11 13  1  0  0  0  0
 11 32  1  0  0  0  0
 11 33  1  0  0  0  0
 12 14  2  0  0  0  0
 12 34  1  0  0  0  0
 13 16  2  0  0  0  0
 13 37  1  0  0  0  0
 14 15  1  0  0  0  0
 14 38  1  0  0  0  0
 15 17  1  0  0  0  0
 15 39  1  0  0  0  0
 16 19  1  0  0  0  0
 16 40  1  0  0  0  0
 17 18  1  0  0  0  0
 17 41  1  0  0  0  0
 17 42  1  0  0  0  0
 18 20  1  0  0  0  0
 18 43  1  0  0  0  0
 18 44  1  0  0  0  0
 19 21  1  0  0  0  0
 19 45  1  0  0  0  0
 19 46  1  0  0  0  0
 20 22  1  0  0  0  0
 20 47  1  0  0  0  0
 20 48  1  0  0  0  0
 21 23  1  0  0  0  0
 21 50  1  0  0  0  0
 21 51  1  0  0  0  0
 22 24  1  0  0  0  0
 22 52  1  0  0  0  0
 22 53  1  0  0  0  0
 23 25  1  0  0  0  0
 23 54  1  0  0  0  0
 23 55  1  0  0  0  0
 24 56  1  0  0  0  0
 24 57  1  0  0  0  0
 24 58  1  0  0  0  0
M  END
> <PUBCHEM_COMPOUND_CID>
5282263

> <PUBCHEM_CONFORMER_RMSD>
1.2

> <PUBCHEM_CONFORMER_DIVERSEORDER>
4
72
40
115
13
86
110
71
133
6
38
61
74
88
103
117
137
52
45
89
60
142
140
3
121
2
105
113
128
143
25
36
80
51
126
114
100
82
59
136
109
75
123
44
92
84
11
122
73
98
9
76
46
48
91
39
85
95
30
37
124
64
54
134
56
18
93
42
26
119
83
127
69
15
27
138
112
118
94
35
77
49
20
135
139
116
141
78
101
129
23
130
132
55
107
62
120
41
90
1
22
79
53
47
66
7
58
99
131
16
43
97
104
33
34
29
125
87
50
67
81
96
28
12
57
70
32
17
68
108
31
10
106
24
8
21
63
5
19
111
65
14
102

> <PUBCHEM_MMFF94_PARTIAL_CHARGES>
25
1 -0.68
11 0.14
12 -0.29
13 -0.29
14 -0.29
15 0.42
16 -0.29
19 0.14
2 -0.68
23 0.06
25 0.66
3 -0.68
34 0.15
35 0.4
36 0.4
37 0.15
38 0.15
4 -0.65
40 0.15
49 0.4
5 -0.57
59 0.5
7 0.14
8 0.28
9 0.28

> <PUBCHEM_EFFECTIVE_ROTOR_COUNT>
13

> <PUBCHEM_PHARMACOPHORE_FEATURES>
13
1 1 acceptor
1 1 donor
1 2 acceptor
1 2 donor
1 24 hydrophobe
1 3 acceptor
1 3 donor
1 4 acceptor
1 5 acceptor
3 4 5 25 anion
4 16 19 21 23 hydrophobe
4 17 18 20 22 hydrophobe
5 6 7 8 9 10 rings

> <PUBCHEM_HEAVY_ATOM_COUNT>
25

> <PUBCHEM_ATOM_DEF_STEREO_COUNT>
5

> <PUBCHEM_ATOM_UDEF_STEREO_COUNT>
0

> <PUBCHEM_BOND_DEF_STEREO_COUNT>
2

> <PUBCHEM_BOND_UDEF_STEREO_COUNT>
0

> <PUBCHEM_ISOTOPIC_ATOM_COUNT>
0

> <PUBCHEM_COMPONENT_COUNT>
1

> <PUBCHEM_CACTVS_TAUTO_COUNT>
1

> <PUBCHEM_CONFORMER_ID>
005099D700000004

> <PUBCHEM_MMFF94_ENERGY>
32.9699

> <PUBCHEM_FEATURE_SELFOVERLAP>
66.025

> <PUBCHEM_SHAPE_FINGERPRINT>
10764073 3 17257895696280353249
12553582 1 18269540655575839672
12788726 201 17983305008366265347
13583140 156 16950565445844111073
17357779 13 18130232527852125777
20775438 99 17833876923911205783
21285901 2 17988092105582749951
21344244 181 18051426346729240317
22113638 7 17978229353575832770
3737641 26 18335687369761306182
463206 1 18339641123053655082
5309563 4 18411132502957703106
9709674 26 18122629624469083908

> <PUBCHEM_SHAPE_MULTIPOLES>
485.14
8.47
7.22
1.6
4.64
1.28
-0.08
8.69
-0.04
1.68
1.74
-1.92
0.24
1.75

> <PUBCHEM_SHAPE_SELFOVERLAP>
946.687

> <PUBCHEM_SHAPE_VOLUME>
292.3

> <PUBCHEM_COORDINATE_TYPE>
2
5
10

$$$$

