5281205
  -OEChem-07051212553D

 38 39  0     1  0  0  0  0  0999 V2000
   -4.6102   -0.3177   -1.1362 O   0  0  0  0  0  0  0  0  0  0  0  0
    5.1528   -2.8965   -0.6811 O   0  0  0  0  0  0  0  0  0  0  0  0
    6.3278   -0.9444   -0.7509 O   0  0  0  0  0  0  0  0  0  0  0  0
   -2.7085   -2.8507    1.7137 O   0  0  0  0  0  0  0  0  0  0  0  0
   -4.7713   -2.4017    0.8879 O   0  0  0  0  0  0  0  0  0  0  0  0
    3.8646    3.3282   -0.4196 O   0  0  0  0  0  0  0  0  0  0  0  0
    3.6727    3.0887    1.8466 O   0  0  0  0  0  0  0  0  0  0  0  0
   -6.0663    2.7849   -0.5347 O   0  0  0  0  0  0  0  0  0  0  0  0
    4.3862    0.4438    0.3376 N   0  0  0  0  0  0  0  0  0  0  0  0
   -1.9267   -0.9487   -0.2375 N   0  0  0  0  0  0  0  0  0  0  0  0
   -5.5012    0.7225   -1.4782 N   0  0  0  0  0  0  0  0  0  0  0  0
    2.8866   -1.1585   -0.8555 C   0  0  0  0  0  0  0  0  0  0  0  0
    4.0679   -0.9675    0.0965 C   0  0  1  0  0  0  0  0  0  0  0  0
    1.7339   -0.2722   -0.4677 C   0  0  0  0  0  0  0  0  0  0  0  0
   -3.0137   -0.7197    0.6843 C   0  0  1  0  0  0  0  0  0  0  0  0
    1.9528    0.8873    0.1677 C   0  0  0  0  0  0  0  0  0  0  0  0
    0.4063   -0.7126   -0.8083 C   0  0  0  0  0  0  0  0  0  0  0  0
    3.3715    1.2327    0.3922 C   0  0  0  0  0  0  0  0  0  0  0  0
   -4.0326    0.1525    0.0333 C   0  0  0  0  0  0  0  0  0  0  0  0
   -0.6460   -0.5655    0.0008 C   0  0  0  0  0  0  0  0  0  0  0  0
    5.3089   -1.5644   -0.4845 C   0  0  0  0  0  0  0  0  0  0  0  0
   -4.4547    1.3438    0.4512 C   0  0  0  0  0  0  0  0  0  0  0  0
   -3.6113   -2.0582    1.0750 C   0  0  0  0  0  0  0  0  0  0  0  0
    3.6514    2.6553    0.7220 C   0  0  0  0  0  0  0  0  0  0  0  0
   -5.4410    1.7386   -0.5546 C   0  0  0  0  0  0  0  0  0  0  0  0
    2.5809   -2.2127   -0.8339 H   0  0  0  0  0  0  0  0  0  0  0  0
    3.1742   -0.9355   -1.8917 H   0  0  0  0  0  0  0  0  0  0  0  0
    3.8823   -1.4502    1.0648 H   0  0  0  0  0  0  0  0  0  0  0  0
   -2.6725   -0.2457    1.6147 H   0  0  0  0  0  0  0  0  0  0  0  0
    1.1821    1.5918    0.4535 H   0  0  0  0  0  0  0  0  0  0  0  0
    0.2862   -1.2054   -1.7697 H   0  0  0  0  0  0  0  0  0  0  0  0
   -2.1208   -1.4073   -1.1225 H   0  0  0  0  0  0  0  0  0  0  0  0
   -0.5313   -0.0954    0.9730 H   0  0  0  0  0  0  0  0  0  0  0  0
   -4.1600    1.9092    1.3165 H   0  0  0  0  0  0  0  0  0  0  0  0
   -6.0674    0.6406   -2.3129 H   0  0  0  0  0  0  0  0  0  0  0  0
    5.9570   -3.3071   -1.0643 H   0  0  0  0  0  0  0  0  0  0  0  0
   -3.1015   -3.7086    1.9820 H   0  0  0  0  0  0  0  0  0  0  0  0
    4.0547    4.2773   -0.2607 H   0  0  0  0  0  0  0  0  0  0  0  0
  1 11  1  0  0  0  0
  1 19  1  0  0  0  0
  2 21  1  0  0  0  0
  2 36  1  0  0  0  0
  3 21  2  0  0  0  0
  4 23  1  0  0  0  0
  4 37  1  0  0  0  0
  5 23  2  0  0  0  0
  6 24  1  0  0  0  0
  6 38  1  0  0  0  0
  7 24  2  0  0  0  0
  8 25  2  0  0  0  0
  9 13  1  0  0  0  0
  9 18  2  0  0  0  0
 10 15  1  0  0  0  0
 10 20  1  0  0  0  0
 10 32  1  0  0  0  0
 11 25  1  0  0  0  0
 11 35  1  0  0  0  0
 12 13  1  0  0  0  0
 12 14  1  0  0  0  0
 12 26  1  0  0  0  0
 12 27  1  0  0  0  0
 13 21  1  0  0  0  0
 13 28  1  0  0  0  0
 14 16  2  0  0  0  0
 14 17  1  0  0  0  0
 15 19  1  0  0  0  0
 15 23  1  0  0  0  0
 15 29  1  0  0  0  0
 16 18  1  0  0  0  0
 16 30  1  0  0  0  0
 17 20  2  0  0  0  0
 17 31  1  0  0  0  0
 18 24  1  0  0  0  0
 19 22  2  0  0  0  0
 20 33  1  0  0  0  0
 22 25  1  0  0  0  0
 22 34  1  0  0  0  0
M  END
> <PUBCHEM_COMPOUND_CID>
5281205

> <PUBCHEM_CONFORMER_RMSD>
0.8

> <PUBCHEM_CONFORMER_DIVERSEORDER>
1
49
33
56
66
20
55
24
61
68
16
54
34
50
29
21
32
63
36
47
57
35
65
13
70
62
19
46
37
48
22
71
69
58
38
7
67
28
43
59
25
52
11
40
64
27
45
12
18
15
60
44
14
23
6
30
10
51
26
8
39
17
42
31
3
53
5
4
9
41
2

> <PUBCHEM_MMFF94_PARTIAL_CHARGES>
34
1 -0.11
10 -0.87
11 -0.39
12 0.14
13 0.31
14 -0.14
15 0.57
16 -0.14
17 -0.15
18 0.44
19 -0.06
2 -0.65
20 -0.05
21 0.66
22 -0.14
23 0.66
24 0.72
25 0.62
3 -0.57
30 0.15
31 0.15
32 0.4
33 0.15
34 0.15
35 0.37
36 0.5
37 0.5
38 0.5
4 -0.65
5 -0.57
6 -0.65
7 -0.57
8 -0.57
9 -0.7

> <PUBCHEM_EFFECTIVE_ROTOR_COUNT>
7.4

> <PUBCHEM_PHARMACOPHORE_FEATURES>
16
1 10 cation
1 10 donor
1 11 donor
1 2 acceptor
1 3 acceptor
1 4 acceptor
1 5 acceptor
1 6 acceptor
1 7 acceptor
1 8 acceptor
1 9 acceptor
3 2 3 21 anion
3 4 5 23 anion
3 6 7 24 anion
5 1 11 19 22 25 rings
6 9 12 13 14 16 18 rings

> <PUBCHEM_HEAVY_ATOM_COUNT>
25

> <PUBCHEM_ATOM_DEF_STEREO_COUNT>
2

> <PUBCHEM_ATOM_UDEF_STEREO_COUNT>
0

> <PUBCHEM_BOND_DEF_STEREO_COUNT>
1

> <PUBCHEM_BOND_UDEF_STEREO_COUNT>
0

> <PUBCHEM_ISOTOPIC_ATOM_COUNT>
0

> <PUBCHEM_COMPONENT_COUNT>
1

> <PUBCHEM_CACTVS_TAUTO_COUNT>
6

> <PUBCHEM_CONFORMER_ID>
005095B500000001

> <PUBCHEM_MMFF94_ENERGY>
47.1845

> <PUBCHEM_FEATURE_SELFOVERLAP>
81.372

> <PUBCHEM_SHAPE_FINGERPRINT>
10763959 59 18408324414816501244
11045977 3 18411981368630239892
11089746 13 18409454716821949807
11370993 144 18412830183169909965
11405975 8 18413670205611078235
11545043 162 18272363157442787899
11796584 16 18202277039836830394
12166972 35 17385447647989765386
12403259 415 18341325609237273659
12507560 40 18339640031925843775
12553582 1 15051735265632951751
12616971 3 17095512985791786371
13583140 156 18408318873944939247
13878862 14 18263668245350251788
14251764 38 18270681944440798197
14790565 3 17690279310061545396
15183329 4 18337110188756093738
15537594 2 16128656379197143971
16994733 274 17058915677649247404
17349148 13 16443057305406874530
17844677 252 18338508655993636583
17868525 174 18408889572683604688
20832881 197 18341613780532502010
21033648 29 18336274452587038944
21065198 57 18411697656097244514
21065199 12 18268143167301151338
21065201 7 17845935139036656451
21315764 268 18337951182498096739
23559900 14 18413671322513422130
2838139 119 18261400013693065045
4015057 19 18259993656384133073
4073 2 18201716224186327450
4144715 1 18271235024052334808
5104073 3 18412261709867486379
5283173 99 18412829088375560729
6328613 192 18201428190968629444
633830 44 18342468006013383766
6371380 46 18271247222087016042
90127 26 18340203003385730755

> <PUBCHEM_SHAPE_MULTIPOLES>
452.59
16.23
3.43
1.19
4.79
1.47
-0.22
2.04
2.46
-1.4
-1.02
0.58
-0.05
3.43

> <PUBCHEM_SHAPE_SELFOVERLAP>
961.89

> <PUBCHEM_SHAPE_VOLUME>
249.5

> <PUBCHEM_COORDINATE_TYPE>
2
5
10

$$$$

