439490
  -OEChem-07051212452D

 46 48  0     1  0  0  0  0  0999 V2000
    5.9134    1.6098    0.0000 P   0  0  3  0  0  0  0  0  0  0  0  0
    6.2765    3.3034    0.0000 P   0  0  3  0  0  0  0  0  0  0  0  0
    6.6395    4.9970    0.0000 P   0  0  0  0  0  0  0  0  0  0  0  0
    5.2686   -1.8433    0.0000 O   0  0  0  0  0  0  0  0  0  0  0  0
    7.6183   -0.7596    0.0000 O   0  0  0  0  0  0  0  0  0  0  0  0
    6.2208    0.6582    0.0000 O   0  0  0  0  0  0  0  0  0  0  0  0
    5.6061    2.5614    0.0000 O   0  0  0  0  0  0  0  0  0  0  0  0
    6.8650    1.9172    0.0000 O   0  0  0  0  0  0  0  0  0  0  0  0
    3.7320   -6.4086    0.0000 O   0  0  0  0  0  0  0  0  0  0  0  0
    4.9618    1.3025    0.0000 O   0  0  0  0  0  0  0  0  0  0  0  0
    2.0000   -3.4086    0.0000 O   0  0  0  0  0  0  0  0  0  0  0  0
    6.9469    4.0454    0.0000 O   0  0  0  0  0  0  0  0  0  0  0  0
    5.5345    3.9738    0.0000 O   0  0  0  0  0  0  0  0  0  0  0  0
    7.0185    2.6330    0.0000 O   0  0  0  0  0  0  0  0  0  0  0  0
    6.3322    5.9486    0.0000 O   0  0  0  0  0  0  0  0  0  0  0  0
    7.5911    5.3044    0.0000 O   0  0  0  0  0  0  0  0  0  0  0  0
    5.6879    4.6896    0.0000 O   0  0  0  0  0  0  0  0  0  0  0  0
    5.5443   -3.6039    0.0000 N   0  0  0  0  0  0  0  0  0  0  0  0
    3.7320   -3.4086    0.0000 N   0  0  0  0  0  0  0  0  0  0  0  0
    5.5443   -5.2133    0.0000 N   0  0  0  0  0  0  0  0  0  0  0  0
    2.8660   -4.9086    0.0000 N   0  0  0  0  0  0  0  0  0  0  0  0
    6.8083   -1.3460    0.0000 C   0  0  2  0  0  0  0  0  0  0  0  0
    5.8550   -2.6534    0.0000 C   0  0  1  0  0  0  0  0  0  0  0  0
    5.8578   -1.0353    0.0000 C   0  0  1  0  0  0  0  0  0  0  0  0
    6.8066   -2.3460    0.0000 C   0  0  0  0  0  0  0  0  0  0  0  0
    5.5504   -0.0837    0.0000 C   0  0  0  0  0  0  0  0  0  0  0  0
    4.5981   -3.9086    0.0000 C   0  0  0  0  0  0  0  0  0  0  0  0
    6.1279   -4.4086    0.0000 C   0  0  0  0  0  0  0  0  0  0  0  0
    4.5981   -4.9086    0.0000 C   0  0  0  0  0  0  0  0  0  0  0  0
    3.7320   -5.4086    0.0000 C   0  0  0  0  0  0  0  0  0  0  0  0
    2.8660   -3.9086    0.0000 C   0  0  0  0  0  0  0  0  0  0  0  0
    6.2926   -3.0925    0.0000 H   0  0  0  0  0  0  0  0  0  0  0  0
    7.3602   -1.6284    0.0000 H   0  0  0  0  0  0  0  0  0  0  0  0
    5.2456   -0.9373    0.0000 H   0  0  0  0  0  0  0  0  0  0  0  0
    6.9344   -2.9527    0.0000 H   0  0  0  0  0  0  0  0  0  0  0  0
    7.4233   -2.2822    0.0000 H   0  0  0  0  0  0  0  0  0  0  0  0
    5.1695    0.4055    0.0000 H   0  0  0  0  0  0  0  0  0  0  0  0
    5.0025   -0.3739    0.0000 H   0  0  0  0  0  0  0  0  0  0  0  0
    8.1843   -1.0128    0.0000 H   0  0  0  0  0  0  0  0  0  0  0  0
    6.7479   -4.4086    0.0000 H   0  0  0  0  0  0  0  0  0  0  0  0
    3.7320   -2.7886    0.0000 H   0  0  0  0  0  0  0  0  0  0  0  0
    2.3291   -5.2186    0.0000 H   0  0  0  0  0  0  0  0  0  0  0  0
    7.3250    1.5016    0.0000 H   0  0  0  0  0  0  0  0  0  0  0  0
    4.9445    3.7833    0.0000 H   0  0  0  0  0  0  0  0  0  0  0  0
    8.0511    4.8887    0.0000 H   0  0  0  0  0  0  0  0  0  0  0  0
    6.7478    6.4086    0.0000 H   0  0  0  0  0  0  0  0  0  0  0  0
  1  6  1  0  0  0  0
  1  7  1  0  0  0  0
  1  8  1  0  0  0  0
  1 10  2  0  0  0  0
  2  7  1  0  0  0  0
  2 12  1  0  0  0  0
  2 13  1  0  0  0  0
  2 14  2  0  0  0  0
  3 12  1  0  0  0  0
  3 15  1  0  0  0  0
  3 16  1  0  0  0  0
  3 17  2  0  0  0  0
  4 23  1  0  0  0  0
  4 24  1  0  0  0  0
 22  5  1  1  0  0  0
  5 39  1  0  0  0  0
  6 26  1  0  0  0  0
  8 43  1  0  0  0  0
  9 30  2  0  0  0  0
 11 31  2  0  0  0  0
 13 44  1  0  0  0  0
 15 46  1  0  0  0  0
 16 45  1  0  0  0  0
 23 18  1  6  0  0  0
 18 27  1  0  0  0  0
 18 28  1  0  0  0  0
 19 27  1  0  0  0  0
 19 31  1  0  0  0  0
 19 41  1  0  0  0  0
 20 28  2  0  0  0  0
 20 29  1  0  0  0  0
 21 30  1  0  0  0  0
 21 31  1  0  0  0  0
 21 42  1  0  0  0  0
 22 24  1  0  0  0  0
 22 25  1  0  0  0  0
 22 33  1  0  0  0  0
 23 25  1  0  0  0  0
 23 32  1  0  0  0  0
 24 26  1  6  0  0  0
 24 34  1  0  0  0  0
 25 35  1  0  0  0  0
 25 36  1  0  0  0  0
 26 37  1  0  0  0  0
 26 38  1  0  0  0  0
 27 29  2  0  0  0  0
 28 40  1  0  0  0  0
 29 30  1  0  0  0  0
M  END
> <PUBCHEM_COMPOUND_CID>
439490

> <PUBCHEM_COMPOUND_CANONICALIZED>
1

> <PUBCHEM_CACTVS_COMPLEXITY>
880

> <PUBCHEM_CACTVS_HBOND_ACCEPTOR>
15

> <PUBCHEM_CACTVS_HBOND_DONOR>
7

> <PUBCHEM_CACTVS_ROTATABLE_BOND>
8

> <PUBCHEM_CACTVS_SUBSKEYS>
AAADccBzvAMAAAAAAAAAAAAAAAAAAWJAAAAsAAAAAAAAAFgBgAAAHgAQCCAACBzhlgYFsBfMFxCoQQdxdICAgC0XEKABUAGoVECBWApAyCAeQIgPBSLDAGCwMAIAAAAAAAAAAAAAAAAAAAAAAAAAAAAAAA==

> <PUBCHEM_IUPAC_OPENEYE_NAME>
[[(2R,3S,5R)-5-(2,6-dioxo-3H-purin-9-yl)-3-hydroxy-tetrahydrofuran-2-yl]methoxy-hydroxy-phosphoryl] phosphono hydrogen phosphate

> <PUBCHEM_IUPAC_CAS_NAME>
[[(2R,3S,5R)-5-(2,6-dioxo-3H-purin-9-yl)-3-hydroxy-2-oxolanyl]methoxy-hydroxyphosphoryl] phosphono hydrogen phosphate

> <PUBCHEM_IUPAC_NAME>
[[(2R,3S,5R)-5-(2,6-dioxo-3H-purin-9-yl)-3-hydroxyoxolan-2-yl]methoxy-hydroxyphosphoryl] phosphono hydrogen phosphate

> <PUBCHEM_IUPAC_SYSTEMATIC_NAME>
[[(2R,3S,5R)-5-[2,6-bis(oxidanylidene)-3H-purin-9-yl]-3-oxidanyl-oxolan-2-yl]methoxy-oxidanyl-phosphoryl] phosphono hydrogen phosphate

> <PUBCHEM_IUPAC_TRADITIONAL_NAME>
[[(2R,3S,5R)-5-(2,6-diketo-3H-purin-9-yl)-3-hydroxy-tetrahydrofuran-2-yl]methoxy-hydroxy-phosphoryl] phosphono hydrogen phosphate

> <PUBCHEM_IUPAC_INCHI>
InChI=1S/C10H15N4O14P3/c15-4-1-6(14-3-11-7-8(14)12-10(17)13-9(7)16)26-5(4)2-25-30(21,22)28-31(23,24)27-29(18,19)20/h3-6,15H,1-2H2,(H,21,22)(H,23,24)(H2,18,19,20)(H2,12,13,16,17)/t4-,5+,6+/m0/s1

> <PUBCHEM_IUPAC_INCHIKEY>
WRTKMPONLHLBBL-KVQBGUIXSA-N

> <PUBCHEM_XLOGP3>
-4.8

> <PUBCHEM_EXACT_MASS>
507.979761

> <PUBCHEM_MOLECULAR_FORMULA>
C10H15N4O14P3

> <PUBCHEM_MOLECULAR_WEIGHT>
508.165786

> <PUBCHEM_OPENEYE_CAN_SMILES>
C1C(C(OC1N2C=NC3=C2NC(=O)NC3=O)COP(=O)(O)OP(=O)(O)OP(=O)(O)O)O

> <PUBCHEM_OPENEYE_ISO_SMILES>
C1[C@@H]([C@H](O[C@H]1N2C=NC3=C2NC(=O)NC3=O)COP(=O)(O)OP(=O)(O)OP(=O)(O)O)O

> <PUBCHEM_CACTVS_TPSA>
265

> <PUBCHEM_MONOISOTOPIC_WEIGHT>
507.979761

> <PUBCHEM_TOTAL_CHARGE>
0

> <PUBCHEM_HEAVY_ATOM_COUNT>
31

> <PUBCHEM_ATOM_DEF_STEREO_COUNT>
3

> <PUBCHEM_ATOM_UDEF_STEREO_COUNT>
0

> <PUBCHEM_BOND_DEF_STEREO_COUNT>
0

> <PUBCHEM_BOND_UDEF_STEREO_COUNT>
0

> <PUBCHEM_ISOTOPIC_ATOM_COUNT>
0

> <PUBCHEM_COMPONENT_COUNT>
1

> <PUBCHEM_CACTVS_TAUTO_COUNT>
9

> <PUBCHEM_COORDINATE_TYPE>
1
5
255

> <PUBCHEM_BONDANNOTATIONS>
23  18  6
18  27  8
18  28  8
19  27  8
19  31  8
20  28  8
20  29  8
21  30  8
21  31  8
24  26  6
27  29  8
29  30  8
22  5  5

$$$$

