11852
  -OEChem-06261206123D

 13 13  0     0  0  0  0  0  0999 V2000
   -2.8235   -1.7578    0.0002 Br  0  0  0  0  0  0  0  0  0  0  0  0
    2.8223   -1.7596   -0.0001 Br  0  0  0  0  0  0  0  0  0  0  0  0
    0.0011    3.2876    0.0004 Br  0  0  0  0  0  0  0  0  0  0  0  0
    2.8843    1.6068    0.0000 Br  0  0  0  0  0  0  0  0  0  0  0  0
   -2.8832    1.6087   -0.0004 Br  0  0  0  0  0  0  0  0  0  0  0  0
   -0.0010   -2.7939    0.0000 O   0  0  0  0  0  0  0  0  0  0  0  0
   -0.0005   -1.4268    0.0000 C   0  0  0  0  0  0  0  0  0  0  0  0
   -1.2083   -0.7291    0.0001 C   0  0  0  0  0  0  0  0  0  0  0  0
    1.2078   -0.7298    0.0000 C   0  0  0  0  0  0  0  0  0  0  0  0
    1.2083    0.6651   -0.0001 C   0  0  0  0  0  0  0  0  0  0  0  0
   -1.2078    0.6658    0.0000 C   0  0  0  0  0  0  0  0  0  0  0  0
    0.0005    1.3629   -0.0001 C   0  0  0  0  0  0  0  0  0  0  0  0
    0.9206   -3.1044   -0.0001 H   0  0  0  0  0  0  0  0  0  0  0  0
  1  8  1  0  0  0  0
  2  9  1  0  0  0  0
  3 12  1  0  0  0  0
  4 10  1  0  0  0  0
  5 11  1  0  0  0  0
  6  7  1  0  0  0  0
  6 13  1  0  0  0  0
  7  8  2  0  0  0  0
  7  9  1  0  0  0  0
  8 11  1  0  0  0  0
  9 10  2  0  0  0  0
 10 12  1  0  0  0  0
 11 12  2  0  0  0  0
M  END
> <PUBCHEM_COMPOUND_CID>
11852

> <PUBCHEM_CONFORMER_RMSD>
0.4

> <PUBCHEM_CONFORMER_DIVERSEORDER>
1

> <PUBCHEM_MMFF94_PARTIAL_CHARGES>
13
1 -0.11
10 0.11
11 0.11
12 0.11
13 0.45
2 -0.11
3 -0.11
4 -0.11
5 -0.11
6 -0.53
7 0.08
8 0.11
9 0.11

> <PUBCHEM_EFFECTIVE_ROTOR_COUNT>
0

> <PUBCHEM_PHARMACOPHORE_FEATURES>
7
1 1 hydrophobe
1 2 hydrophobe
1 3 hydrophobe
1 4 hydrophobe
1 5 hydrophobe
1 6 donor
6 7 8 9 10 11 12 rings

> <PUBCHEM_HEAVY_ATOM_COUNT>
12

> <PUBCHEM_ATOM_DEF_STEREO_COUNT>
0

> <PUBCHEM_ATOM_UDEF_STEREO_COUNT>
0

> <PUBCHEM_BOND_DEF_STEREO_COUNT>
0

> <PUBCHEM_BOND_UDEF_STEREO_COUNT>
0

> <PUBCHEM_ISOTOPIC_ATOM_COUNT>
0

> <PUBCHEM_COMPONENT_COUNT>
1

> <PUBCHEM_CACTVS_TAUTO_COUNT>
2

> <PUBCHEM_CONFORMER_ID>
00002E4C00000001

> <PUBCHEM_MMFF94_ENERGY>
35.3873

> <PUBCHEM_FEATURE_SELFOVERLAP>
35.521

> <PUBCHEM_SHAPE_FINGERPRINT>
10967382 1 18338797922056917861
11206711 2 18267583503266665517
13140716 1 18410855507372821970
13380535 21 18410565193353669060
16945 1 18122344571082969702
193761 8 18410575088958046215
21501502 16 18410856559639828551
2334 1 18410575054598314340
23402539 116 18118132372201964580
23526114 1 18410573985156738973
23552423 10 18343018900062079494
23559900 14 18190176979230025894
241688 4 18410856593999554274
2748010 2 18410292514469714364
53812653 166 18262238815619378393

> <PUBCHEM_SHAPE_MULTIPOLES>
270.8
4.3
3.69
0.67
0
0.99
0
-0.55
0
0
0
0
0.05
0

> <PUBCHEM_SHAPE_SELFOVERLAP>
495.465

> <PUBCHEM_SHAPE_VOLUME>
181.5

> <PUBCHEM_COORDINATE_TYPE>
2
5
10

$$$$

