6440982
  -OEChem-07051213083D

 46 48  0     1  0  0  0  0  0999 V2000
    3.8210    0.3990    0.9755 O   0  0  0  0  0  0  0  0  0  0  0  0
    4.4679   -1.7812   -1.2876 O   0  0  0  0  0  0  0  0  0  0  0  0
    5.4278    0.5890   -2.2326 O   0  0  0  0  0  0  0  0  0  0  0  0
    5.6645    2.3809    1.7817 O   0  0  0  0  0  0  0  0  0  0  0  0
   -8.2284    1.5491   -0.6374 O   0  0  0  0  0  0  0  0  0  0  0  0
    1.6308   -0.2377    0.3183 N   0  0  0  0  0  0  0  0  0  0  0  0
   -0.2048    1.0281    0.3973 N   0  0  0  0  0  0  0  0  0  0  0  0
    0.6153   -2.4441    0.3731 N   0  0  0  0  0  0  0  0  0  0  0  0
   -2.9802   -0.2072    0.5256 N   0  0  0  0  0  0  0  0  0  0  0  0
   -1.8185   -2.2989    0.4830 N   0  0  0  0  0  0  0  0  0  0  0  0
    3.6029   -0.6529   -1.1706 C   0  0  1  0  0  0  0  0  0  0  0  0
    3.0510   -0.5866    0.2545 C   0  0  1  0  0  0  0  0  0  0  0  0
    4.3758    0.6468   -1.2933 C   0  0  1  0  0  0  0  0  0  0  0  0
    4.8840    0.8550    0.1227 C   0  0  1  0  0  0  0  0  0  0  0  0
    5.2132    2.3025    0.4410 C   0  0  0  0  0  0  0  0  0  0  0  0
    0.5739   -1.1031    0.3697 C   0  0  0  0  0  0  0  0  0  0  0  0
    1.1105    1.0306    0.3379 C   0  0  0  0  0  0  0  0  0  0  0  0
   -0.5536   -0.2990    0.4177 C   0  0  0  0  0  0  0  0  0  0  0  0
   -1.7846   -0.9445    0.4758 C   0  0  0  0  0  0  0  0  0  0  0  0
   -0.6339   -2.9549    0.4320 C   0  0  0  0  0  0  0  0  0  0  0  0
   -4.2742   -0.8195    0.5865 C   0  0  0  0  0  0  0  0  0  0  0  0
   -5.3190    0.2514    0.6520 C   0  0  0  0  0  0  0  0  0  0  0  0
   -5.9567    0.8426   -0.3770 C   0  0  0  0  0  0  0  0  0  0  0  0
   -6.9626    1.9362   -0.1188 C   0  0  0  0  0  0  0  0  0  0  0  0
   -5.7221    0.5187   -1.8269 C   0  0  0  0  0  0  0  0  0  0  0  0
    2.8371   -0.7526   -1.9466 H   0  0  0  0  0  0  0  0  0  0  0  0
    3.1657   -1.5366    0.7893 H   0  0  0  0  0  0  0  0  0  0  0  0
    3.6853    1.4503   -1.5780 H   0  0  0  0  0  0  0  0  0  0  0  0
    5.7618    0.2289    0.3295 H   0  0  0  0  0  0  0  0  0  0  0  0
    4.3323    2.9459    0.3479 H   0  0  0  0  0  0  0  0  0  0  0  0
    6.0023    2.6870   -0.2112 H   0  0  0  0  0  0  0  0  0  0  0  0
    3.9243   -2.5776   -1.1608 H   0  0  0  0  0  0  0  0  0  0  0  0
    5.8895    1.4442   -2.2129 H   0  0  0  0  0  0  0  0  0  0  0  0
    1.7300    1.9163    0.3025 H   0  0  0  0  0  0  0  0  0  0  0  0
    4.9558    2.0348    2.3508 H   0  0  0  0  0  0  0  0  0  0  0  0
   -0.6988   -4.0376    0.4393 H   0  0  0  0  0  0  0  0  0  0  0  0
   -2.8960    0.8039    0.5136 H   0  0  0  0  0  0  0  0  0  0  0  0
   -4.3620   -1.4458    1.4826 H   0  0  0  0  0  0  0  0  0  0  0  0
   -4.4374   -1.4779   -0.2736 H   0  0  0  0  0  0  0  0  0  0  0  0
   -5.5625    0.5797    1.6619 H   0  0  0  0  0  0  0  0  0  0  0  0
   -6.6538    2.8600   -0.6185 H   0  0  0  0  0  0  0  0  0  0  0  0
   -7.0833    2.1601    0.9463 H   0  0  0  0  0  0  0  0  0  0  0  0
   -6.6126    0.0550   -2.2630 H   0  0  0  0  0  0  0  0  0  0  0  0
   -5.4998    1.4340   -2.3860 H   0  0  0  0  0  0  0  0  0  0  0  0
   -4.8809   -0.1611   -1.9847 H   0  0  0  0  0  0  0  0  0  0  0  0
   -8.5078    0.7465   -0.1644 H   0  0  0  0  0  0  0  0  0  0  0  0
  1 12  1  0  0  0  0
  1 14  1  0  0  0  0
  2 11  1  0  0  0  0
  2 32  1  0  0  0  0
  3 13  1  0  0  0  0
  3 33  1  0  0  0  0
  4 15  1  0  0  0  0
  4 35  1  0  0  0  0
  5 24  1  0  0  0  0
  5 46  1  0  0  0  0
  6 12  1  0  0  0  0
  6 16  1  0  0  0  0
  6 17  1  0  0  0  0
  7 17  2  0  0  0  0
  7 18  1  0  0  0  0
  8 16  2  0  0  0  0
  8 20  1  0  0  0  0
  9 19  1  0  0  0  0
  9 21  1  0  0  0  0
  9 37  1  0  0  0  0
 10 19  1  0  0  0  0
 10 20  2  0  0  0  0
 11 12  1  0  0  0  0
 11 13  1  0  0  0  0
 11 26  1  0  0  0  0
 12 27  1  0  0  0  0
 13 14  1  0  0  0  0
 13 28  1  0  0  0  0
 14 15  1  0  0  0  0
 14 29  1  0  0  0  0
 15 30  1  0  0  0  0
 15 31  1  0  0  0  0
 16 18  1  0  0  0  0
 17 34  1  0  0  0  0
 18 19  2  0  0  0  0
 20 36  1  0  0  0  0
 21 22  1  0  0  0  0
 21 38  1  0  0  0  0
 21 39  1  0  0  0  0
 22 23  2  0  0  0  0
 22 40  1  0  0  0  0
 23 24  1  0  0  0  0
 23 25  1  0  0  0  0
 24 41  1  0  0  0  0
 24 42  1  0  0  0  0
 25 43  1  0  0  0  0
 25 44  1  0  0  0  0
 25 45  1  0  0  0  0
M  END
> <PUBCHEM_COMPOUND_CID>
6440982

> <PUBCHEM_CONFORMER_RMSD>
0.8

> <PUBCHEM_CONFORMER_DIVERSEORDER>
1
112
118
129
50
90
96
156
151
85
69
146
172
61
60
150
107
160
84
174
105
44
157
48
52
45
175
13
168
42
62
141
63
124
76
20
93
99
166
100
92
114
56
17
162
125
117
49
142
37
136
165
171
77
106
88
15
83
123
144
94
21
135
119
104
57
35
14
80
66
167
126
101
73
137
68
22
155
130
152
98
82
31
163
169
55
121
128
43
70
87
81
116
91
78
113
103
143
147
164
30
53
127
18
133
25
23
28
19
138
58
79
72
46
159
120
109
140
132
40
34
115
65
10
108
24
51
145
161
134
33
12
26
39
148
102
67
11
170
89
153
86
36
74
29
158
38
4
111
16
139
154
97
41
173
6
54
122
32
149
8
5
27
3
59
75
47
64
7
131
110
2
9
71
95

> <PUBCHEM_MMFF94_PARTIAL_CHARGES>
33
1 -0.56
10 -0.62
11 0.28
12 0.54
13 0.28
14 0.28
15 0.28
16 0.11
17 0.04
18 0.23
19 0.41
2 -0.68
20 0.47
21 0.51
22 -0.29
23 -0.28
24 0.42
25 0.14
3 -0.68
32 0.4
33 0.4
34 0.15
35 0.4
36 0.15
37 0.4
4 -0.68
40 0.15
46 0.4
5 -0.68
6 0.05
7 -0.57
8 -0.57
9 -0.87

> <PUBCHEM_EFFECTIVE_ROTOR_COUNT>
7

> <PUBCHEM_PHARMACOPHORE_FEATURES>
18
1 1 acceptor
1 2 acceptor
1 2 donor
1 25 hydrophobe
1 3 acceptor
1 3 donor
1 4 acceptor
1 4 donor
1 5 acceptor
1 5 donor
1 9 cation
1 9 donor
3 6 7 17 cation
3 6 8 16 cation
3 8 10 20 cation
5 1 11 12 13 14 rings
5 6 7 16 17 18 rings
6 8 10 16 18 19 20 rings

> <PUBCHEM_HEAVY_ATOM_COUNT>
25

> <PUBCHEM_ATOM_DEF_STEREO_COUNT>
4

> <PUBCHEM_ATOM_UDEF_STEREO_COUNT>
0

> <PUBCHEM_BOND_DEF_STEREO_COUNT>
1

> <PUBCHEM_BOND_UDEF_STEREO_COUNT>
0

> <PUBCHEM_ISOTOPIC_ATOM_COUNT>
0

> <PUBCHEM_COMPONENT_COUNT>
1

> <PUBCHEM_CACTVS_TAUTO_COUNT>
3

> <PUBCHEM_CONFORMER_ID>
0062481600000001

> <PUBCHEM_MMFF94_ENERGY>
54.1854

> <PUBCHEM_FEATURE_SELFOVERLAP>
91.96

> <PUBCHEM_SHAPE_FINGERPRINT>
10 15 16200425880341629069
10411042 1 17619916496553365459
10554248 39 17916601941592900663
10693767 8 17823420581506770823
12236239 1 17489584520481733658
12403259 118 17703221807180422547
12403259 415 18337950096061164779
13685833 64 8070020074316066629
13782708 43 5978093632229065845
14123256 34 7853572435617428317
14790565 3 18338791312339704433
15183329 4 16950280741489336533
15238133 3 17775284920362102152
15510800 12 6843630358330913797
1601671 61 18131913771493736909
16079462 125 18409453548485545152
17349148 13 5761662502656427435
17492 89 7997155403830361716
18222031 100 5978112344747460202
20281389 69 17632581587084563197
20645477 70 16950828264136463044
20715895 44 18412265004371568080
21033648 29 18272650112950404601
21150785 3 16950287269644746157
21279426 13 18336537287543354287
21521239 73 17385725824574413791
21859007 373 18059307572914852108
23081809 10 15554445163433746659
23559900 14 18263348236759735334
2748736 6 18342463621036598765
2838139 119 18339087081146638085
293599 30 18342736308504648275
29717793 49 17313099795540230725
335352 9 18411133680258712230
34934 24 18337112263763666970
465052 167 8790885185515024976
495365 180 17531247245367979466
53917941 68 18337681806439438727
8863177 126 6338367364612773365

> <PUBCHEM_SHAPE_MULTIPOLES>
460.24
18
2.48
1.34
22.13
0.88
-0.57
-14.54
-4.32
-0.54
0.51
-1.36
-0.37
1.93

> <PUBCHEM_SHAPE_SELFOVERLAP>
973.844

> <PUBCHEM_SHAPE_VOLUME>
253.7

> <PUBCHEM_COORDINATE_TYPE>
2
5
10

$$$$

