270867
  -OEChem-07051213042D

 31 33  0     0  0  0  0  0  0999 V2000
    4.9889    3.0427    0.0000 O   0  0  0  0  0  0  0  0  0  0  0  0
    4.9889   -0.4678    0.0000 O   0  0  0  0  0  0  0  0  0  0  0  0
    9.2619   -2.1767    0.0000 O   0  5  0  0  0  0  0  0  0  0  0  0
    7.7619   -3.0427    0.0000 O   0  0  0  0  0  0  0  0  0  0  0  0
    5.2619    1.2874    0.0000 N   0  0  0  0  0  0  0  0  0  0  0  0
    8.2619   -2.1767    0.0000 N   0  3  0  0  0  0  0  0  0  0  0  0
    6.2619    1.2874    0.0000 C   0  0  0  0  0  0  0  0  0  0  0  0
    3.7320    1.7874    0.0000 C   0  0  0  0  0  0  0  0  0  0  0  0
    3.7320    0.7874    0.0000 C   0  0  0  0  0  0  0  0  0  0  0  0
    4.6783    0.4827    0.0000 C   0  0  0  0  0  0  0  0  0  0  0  0
    4.6783    2.0922    0.0000 C   0  0  0  0  0  0  0  0  0  0  0  0
    6.7619    0.4214    0.0000 C   0  0  0  0  0  0  0  0  0  0  0  0
    2.8660    0.2874    0.0000 C   0  0  0  0  0  0  0  0  0  0  0  0
    2.8660    2.2874    0.0000 C   0  0  0  0  0  0  0  0  0  0  0  0
    6.2619   -0.4446    0.0000 C   0  0  0  0  0  0  0  0  0  0  0  0
    7.7619    0.4214    0.0000 C   0  0  0  0  0  0  0  0  0  0  0  0
    2.0000    0.7874    0.0000 C   0  0  0  0  0  0  0  0  0  0  0  0
    2.0000    1.7874    0.0000 C   0  0  0  0  0  0  0  0  0  0  0  0
    6.7619   -1.3106    0.0000 C   0  0  0  0  0  0  0  0  0  0  0  0
    8.2619   -0.4446    0.0000 C   0  0  0  0  0  0  0  0  0  0  0  0
    7.7619   -1.3106    0.0000 C   0  0  0  0  0  0  0  0  0  0  0  0
    6.8445    1.4995    0.0000 H   0  0  0  0  0  0  0  0  0  0  0  0
    6.1542    1.8980    0.0000 H   0  0  0  0  0  0  0  0  0  0  0  0
    2.8660    2.9074    0.0000 H   0  0  0  0  0  0  0  0  0  0  0  0
    2.8660   -0.3326    0.0000 H   0  0  0  0  0  0  0  0  0  0  0  0
    5.6419   -0.4446    0.0000 H   0  0  0  0  0  0  0  0  0  0  0  0
    8.0719    0.9583    0.0000 H   0  0  0  0  0  0  0  0  0  0  0  0
    1.4631    2.0974    0.0000 H   0  0  0  0  0  0  0  0  0  0  0  0
    1.4631    0.4774    0.0000 H   0  0  0  0  0  0  0  0  0  0  0  0
    6.4519   -1.8476    0.0000 H   0  0  0  0  0  0  0  0  0  0  0  0
    8.8819   -0.4446    0.0000 H   0  0  0  0  0  0  0  0  0  0  0  0
  1 11  2  0  0  0  0
  2 10  2  0  0  0  0
  3  6  1  0  0  0  0
  4  6  2  0  0  0  0
  5  7  1  0  0  0  0
  5 10  1  0  0  0  0
  5 11  1  0  0  0  0
  6 21  1  0  0  0  0
  7 12  1  0  0  0  0
  7 22  1  0  0  0  0
  7 23  1  0  0  0  0
  8  9  1  0  0  0  0
  8 11  1  0  0  0  0
  8 14  2  0  0  0  0
  9 10  1  0  0  0  0
  9 13  2  0  0  0  0
 12 15  2  0  0  0  0
 12 16  1  0  0  0  0
 13 17  1  0  0  0  0
 13 25  1  0  0  0  0
 14 18  1  0  0  0  0
 14 24  1  0  0  0  0
 15 19  1  0  0  0  0
 15 26  1  0  0  0  0
 16 20  2  0  0  0  0
 16 27  1  0  0  0  0
 17 18  2  0  0  0  0
 17 29  1  0  0  0  0
 18 28  1  0  0  0  0
 19 21  2  0  0  0  0
 19 30  1  0  0  0  0
 20 21  1  0  0  0  0
 20 31  1  0  0  0  0
M  CHG  2   3  -1   6   1
M  END
> <PUBCHEM_COMPOUND_CID>
270867

> <PUBCHEM_COMPOUND_CANONICALIZED>
1

> <PUBCHEM_CACTVS_COMPLEXITY>
427

> <PUBCHEM_CACTVS_HBOND_ACCEPTOR>
4

> <PUBCHEM_CACTVS_HBOND_DONOR>
0

> <PUBCHEM_CACTVS_ROTATABLE_BOND>
2

> <PUBCHEM_CACTVS_SUBSKEYS>
AAADccBzOAAAAAAAAAAAAAAAAAAAAWAAAAAwYAAAAAAAAFgBQAAAHgAEAAAADAjBmAQwwIMQQACJAiVSUwCCAAAkAgAoiAEIZMoIIDKAlZGEIQhghiCIyYcdiICOiAAAAAAQAAAQAAAAACAAAAAAAAAAAA==

> <PUBCHEM_IUPAC_OPENEYE_NAME>
2-[(4-nitrophenyl)methyl]isoindoline-1,3-dione

> <PUBCHEM_IUPAC_CAS_NAME>
2-[(4-nitrophenyl)methyl]isoindole-1,3-dione

> <PUBCHEM_IUPAC_NAME>
2-[(4-nitrophenyl)methyl]isoindole-1,3-dione

> <PUBCHEM_IUPAC_SYSTEMATIC_NAME>
2-[(4-nitrophenyl)methyl]isoindole-1,3-dione

> <PUBCHEM_IUPAC_TRADITIONAL_NAME>
2-(4-nitrobenzyl)isoindoline-1,3-quinone

> <PUBCHEM_IUPAC_INCHI>
InChI=1S/C15H10N2O4/c18-14-12-3-1-2-4-13(12)15(19)16(14)9-10-5-7-11(8-6-10)17(20)21/h1-8H,9H2

> <PUBCHEM_IUPAC_INCHIKEY>
QKWWUOQTLINZES-UHFFFAOYSA-N

> <PUBCHEM_XLOGP3_AA>
2.2

> <PUBCHEM_EXACT_MASS>
282.064057

> <PUBCHEM_MOLECULAR_FORMULA>
C15H10N2O4

> <PUBCHEM_MOLECULAR_WEIGHT>
282.2509

> <PUBCHEM_OPENEYE_CAN_SMILES>
C1=CC=C2C(=C1)C(=O)N(C2=O)CC3=CC=C(C=C3)[N+](=O)[O-]

> <PUBCHEM_OPENEYE_ISO_SMILES>
C1=CC=C2C(=C1)C(=O)N(C2=O)CC3=CC=C(C=C3)[N+](=O)[O-]

> <PUBCHEM_CACTVS_TPSA>
83.2

> <PUBCHEM_MONOISOTOPIC_WEIGHT>
282.064057

> <PUBCHEM_TOTAL_CHARGE>
0

> <PUBCHEM_HEAVY_ATOM_COUNT>
21

> <PUBCHEM_ATOM_DEF_STEREO_COUNT>
0

> <PUBCHEM_ATOM_UDEF_STEREO_COUNT>
0

> <PUBCHEM_BOND_DEF_STEREO_COUNT>
0

> <PUBCHEM_BOND_UDEF_STEREO_COUNT>
0

> <PUBCHEM_ISOTOPIC_ATOM_COUNT>
0

> <PUBCHEM_COMPONENT_COUNT>
1

> <PUBCHEM_CACTVS_TAUTO_COUNT>
1

> <PUBCHEM_COORDINATE_TYPE>
1
5
255

> <PUBCHEM_BONDANNOTATIONS>
12  15  8
12  16  8
13  17  8
14  18  8
15  19  8
16  20  8
17  18  8
19  21  8
20  21  8
8  14  8
8  9  8
9  13  8

$$$$

