11954190
  -OEChem-07051213073D

 42 42  0     1  0  0  0  0  0999 V2000
   -6.0414    0.1238    1.0667 O   0  0  0  0  0  0  0  0  0  0  0  0
   -2.5303   -2.3012    1.4245 O   0  0  0  0  0  0  0  0  0  0  0  0
   -3.4886   -2.8767   -0.5452 O   0  0  0  0  0  0  0  0  0  0  0  0
   -0.3121    3.0743    0.6930 O   0  0  0  0  0  0  0  0  0  0  0  0
    0.7333    1.3418    1.7166 O   0  0  0  0  0  0  0  0  0  0  0  0
    4.3954    0.5543    1.2683 O   0  0  0  0  0  0  0  0  0  0  0  0
    5.4371   -2.1390   -0.8804 O   0  0  0  0  0  0  0  0  0  0  0  0
    6.5067   -1.0490    0.7983 O   0  0  0  0  0  0  0  0  0  0  0  0
   -3.3500    0.1570   -0.9796 N   0  0  1  0  0  0  0  0  0  0  0  0
    1.5394    0.4203   -0.7516 N   0  0  0  0  0  0  0  0  0  0  0  0
   -3.7231   -0.5601    0.2644 C   0  0  1  0  0  0  0  0  0  0  0  0
   -5.1914   -0.2313   -0.0401 C   0  0  2  0  0  0  0  0  0  0  0  0
   -4.6138    0.9256   -0.8677 C   0  0  0  0  0  0  0  0  0  0  0  0
   -2.2303    1.0672   -0.7630 C   0  0  0  0  0  0  0  0  0  0  0  0
   -0.9035    0.3159   -0.9006 C   0  0  0  0  0  0  0  0  0  0  0  0
    0.3149    1.2216   -0.6816 C   0  0  1  0  0  0  0  0  0  0  0  0
   -3.2573   -2.0223    0.3070 C   0  0  0  0  0  0  0  0  0  0  0  0
    2.6905    1.2661   -1.0216 C   0  0  0  0  0  0  0  0  0  0  0  0
    0.2901    1.8564    0.6974 C   0  0  0  0  0  0  0  0  0  0  0  0
    3.9643    0.4169   -1.0943 C   0  0  0  0  0  0  0  0  0  0  0  0
    4.2552   -0.3615    0.1926 C   0  0  1  0  0  0  0  0  0  0  0  0
    5.5149   -1.2000    0.0969 C   0  0  0  0  0  0  0  0  0  0  0  0
   -3.4106   -0.0440    1.1884 H   0  0  0  0  0  0  0  0  0  0  0  0
   -5.6834   -0.9926   -0.6609 H   0  0  0  0  0  0  0  0  0  0  0  0
   -4.5622    1.8767   -0.3211 H   0  0  0  0  0  0  0  0  0  0  0  0
   -5.1158    1.1039   -1.8239 H   0  0  0  0  0  0  0  0  0  0  0  0
   -2.2550    1.8528   -1.5294 H   0  0  0  0  0  0  0  0  0  0  0  0
   -2.3004    1.5706    0.2081 H   0  0  0  0  0  0  0  0  0  0  0  0
   -0.8736   -0.5034   -0.1705 H   0  0  0  0  0  0  0  0  0  0  0  0
   -0.8453   -0.1431   -1.8967 H   0  0  0  0  0  0  0  0  0  0  0  0
    0.3206    2.0057   -1.4492 H   0  0  0  0  0  0  0  0  0  0  0  0
   -6.8570    0.4600    0.6577 H   0  0  0  0  0  0  0  0  0  0  0  0
    1.4568   -0.2704   -1.4978 H   0  0  0  0  0  0  0  0  0  0  0  0
    2.5694    1.7853   -1.9803 H   0  0  0  0  0  0  0  0  0  0  0  0
    2.8139    2.0320   -0.2474 H   0  0  0  0  0  0  0  0  0  0  0  0
    4.8060    1.0891   -1.3065 H   0  0  0  0  0  0  0  0  0  0  0  0
    3.8966   -0.2739   -1.9442 H   0  0  0  0  0  0  0  0  0  0  0  0
   -2.2356   -3.2367    1.4433 H   0  0  0  0  0  0  0  0  0  0  0  0
    3.4313   -1.0399    0.4411 H   0  0  0  0  0  0  0  0  0  0  0  0
   -0.3366    3.4729    1.5890 H   0  0  0  0  0  0  0  0  0  0  0  0
    4.4582    0.0359    2.0887 H   0  0  0  0  0  0  0  0  0  0  0  0
    6.2593   -2.6703   -0.9434 H   0  0  0  0  0  0  0  0  0  0  0  0
  1 12  1  0  0  0  0
  1 32  1  0  0  0  0
  2 17  1  0  0  0  0
  2 38  1  0  0  0  0
  3 17  2  0  0  0  0
  4 19  1  0  0  0  0
  4 40  1  0  0  0  0
  5 19  2  0  0  0  0
  6 21  1  0  0  0  0
  6 41  1  0  0  0  0
  7 22  1  0  0  0  0
  7 42  1  0  0  0  0
  8 22  2  0  0  0  0
  9 11  1  0  0  0  0
  9 13  1  0  0  0  0
  9 14  1  0  0  0  0
 10 16  1  0  0  0  0
 10 18  1  0  0  0  0
 10 33  1  0  0  0  0
 11 12  1  0  0  0  0
 11 17  1  0  0  0  0
 11 23  1  0  0  0  0
 12 13  1  0  0  0  0
 12 24  1  0  0  0  0
 13 25  1  0  0  0  0
 13 26  1  0  0  0  0
 14 15  1  0  0  0  0
 14 27  1  0  0  0  0
 14 28  1  0  0  0  0
 15 16  1  0  0  0  0
 15 29  1  0  0  0  0
 15 30  1  0  0  0  0
 16 19  1  0  0  0  0
 16 31  1  0  0  0  0
 18 20  1  0  0  0  0
 18 34  1  0  0  0  0
 18 35  1  0  0  0  0
 20 21  1  0  0  0  0
 20 36  1  0  0  0  0
 20 37  1  0  0  0  0
 21 22  1  0  0  0  0
 21 39  1  0  0  0  0
M  END
> <PUBCHEM_COMPOUND_CID>
11954190

> <PUBCHEM_CONFORMER_RMSD>
1

> <PUBCHEM_CONFORMER_DIVERSEORDER>
10
44
27
40
52
58
8
72
48
80
60
35
28
18
85
3
49
57
47
94
55
22
23
70
74
12
37
91
21
16
69
46
68
45
20
9
19
31
51
39
26
77
32
65
56
54
79
34
5
7
17
1
92
43
84
61
25
13
66
30
93
89
11
53
59
64
50
14
95
88
29
38
63
71
15
41
62
4
78
2
6
67
36
73
24
81
42
87
90
82
86
76
83
33
75

> <PUBCHEM_MMFF94_PARTIAL_CHARGES>
26
1 -0.66
10 -0.9
11 0.26
12 0.26
13 0.21
14 0.27
16 0.33
17 0.67
18 0.27
19 0.66
2 -0.65
21 0.34
22 0.66
3 -0.57
32 0.4
33 0.36
38 0.5
4 -0.65
40 0.5
41 0.4
42 0.5
5 -0.57
6 -0.68
7 -0.65
8 -0.57
9 -0.69

> <PUBCHEM_EFFECTIVE_ROTOR_COUNT>
10.8

> <PUBCHEM_PHARMACOPHORE_FEATURES>
17
1 1 acceptor
1 1 donor
1 10 cation
1 10 donor
1 2 acceptor
1 3 acceptor
1 4 acceptor
1 5 acceptor
1 6 acceptor
1 6 donor
1 7 acceptor
1 8 acceptor
1 9 cation
3 2 3 17 anion
3 4 5 19 anion
3 7 8 22 anion
4 9 11 12 13 rings

> <PUBCHEM_HEAVY_ATOM_COUNT>
22

> <PUBCHEM_ATOM_DEF_STEREO_COUNT>
4

> <PUBCHEM_ATOM_UDEF_STEREO_COUNT>
0

> <PUBCHEM_BOND_DEF_STEREO_COUNT>
0

> <PUBCHEM_BOND_UDEF_STEREO_COUNT>
0

> <PUBCHEM_ISOTOPIC_ATOM_COUNT>
0

> <PUBCHEM_COMPONENT_COUNT>
1

> <PUBCHEM_CACTVS_TAUTO_COUNT>
1

> <PUBCHEM_CONFORMER_ID>
00B6680E0000000A

> <PUBCHEM_MMFF94_ENERGY>
25.3184

> <PUBCHEM_FEATURE_SELFOVERLAP>
86.45

> <PUBCHEM_SHAPE_FINGERPRINT>
10670039 82 7997700830665082762
10803635 8 17846787342194454247
11405975 8 18336824174505684713
11796584 16 18271813440531271758
12507557 5 4895268226927591435
12596602 18 14562535089015068382
12633257 1 18262788589330098865
12670546 56 5761665758252246044
12760667 363 18334296508541358668
13167823 11 17846779589773216588
13533116 47 18334295401273245974
14251740 79 18131067160098210363
14251751 18 18342460318380522550
14739800 52 7493000713997190150
15348495 7 18187089412295647858
15537594 2 17775007907323915827
15575132 122 9439409004098587267
17980427 23 6699814198229675235
18186145 218 14117517584610652900
19784866 240 18201433731629194468
21403212 168 18337382847399419921
21618674 57 18261104158970213577
23559900 14 18342742875641856972
25122255 55 18336538417631365542
26918003 58 18409171030232474372
3004659 81 18060135445093662214
351380 3 17418376904439519238
44062 13 18271804588582978395
5104073 3 18042119865288871353
559249 180 18130792312461817581
633830 44 15554447362167118549

> <PUBCHEM_SHAPE_MULTIPOLES>
395.83
14.37
2.5
1.28
9.04
0.71
-0.24
7.69
-0.88
-0.68
-0.37
0.24
-0.21
0.47

> <PUBCHEM_SHAPE_SELFOVERLAP>
787.265

> <PUBCHEM_SHAPE_VOLUME>
233.4

> <PUBCHEM_COORDINATE_TYPE>
2
5
10

$$$$

