119287
  -OEChem-07051212563D

 78 82  0     1  0  0  0  0  0999 V2000
   -3.4418    1.1455   -0.4781 O   0  0  0  0  0  0  0  0  0  0  0  0
    1.9446   -3.2720    0.7062 O   0  0  0  0  0  0  0  0  0  0  0  0
   -4.7962   -1.8239   -2.3461 O   0  0  0  0  0  0  0  0  0  0  0  0
   -5.4311    1.5681    1.5529 O   0  0  0  0  0  0  0  0  0  0  0  0
    6.5538   -1.4918   -0.5469 O   0  0  0  0  0  0  0  0  0  0  0  0
    6.8145    1.2531   -0.6069 O   0  0  0  0  0  0  0  0  0  0  0  0
   -0.3507    0.1928    0.5193 C   0  0  2  0  0  0  0  0  0  0  0  0
   -0.9402   -1.2697    0.4282 C   0  0  1  0  0  0  0  0  0  0  0  0
    0.9041    0.1795    1.4506 C   0  0  1  0  0  0  0  0  0  0  0  0
   -2.2821   -0.9923   -0.3038 C   0  0  2  0  0  0  0  0  0  0  0  0
    2.0198   -0.8524    1.0296 C   0  0  1  0  0  0  0  0  0  0  0  0
   -1.5700    0.9699    1.0682 C   0  0  0  0  0  0  0  0  0  0  0  0
   -2.8087    0.2741    0.4490 C   0  0  1  0  0  0  0  0  0  0  0  0
    0.0940   -2.1445   -0.2819 C   0  0  0  0  0  0  0  0  0  0  0  0
    1.3883   -2.1844    0.5254 C   0  0  0  0  0  0  0  0  0  0  0  0
   -0.0370    0.8595   -0.8574 C   0  0  0  0  0  0  0  0  0  0  0  0
   -3.3749   -2.0788   -0.3883 C   0  0  1  0  0  0  0  0  0  0  0  0
    2.9698   -0.3009   -0.1042 C   0  0  1  0  0  0  0  0  0  0  0  0
    1.5000    1.5681    1.7451 C   0  0  0  0  0  0  0  0  0  0  0  0
   -1.2542   -1.9381    1.8068 C   0  0  0  0  0  0  0  0  0  0  0  0
    2.8343   -1.1791    2.3173 C   0  0  0  0  0  0  0  0  0  0  0  0
    3.3076    1.1864    0.0179 C   0  0  0  0  0  0  0  0  0  0  0  0
    2.6401    1.9828    0.8731 C   0  0  0  0  0  0  0  0  0  0  0  0
   -4.5537   -1.5024   -1.1830 C   0  0  0  0  0  0  0  0  0  0  0  0
   -4.8437    0.9576   -0.6923 C   0  0  1  0  0  0  0  0  0  0  0  0
    4.4380    1.6956   -0.8886 C   0  0  0  0  0  0  0  0  0  0  0  0
   -2.9157   -3.3802   -1.0425 C   0  0  0  0  0  0  0  0  0  0  0  0
    4.2302   -1.1357   -0.2634 C   0  0  0  0  0  0  0  0  0  0  0  0
   -5.3913   -0.4568   -0.4800 C   0  0  0  0  0  0  0  0  0  0  0  0
   -5.5905    1.9566    0.1880 C   0  0  0  0  0  0  0  0  0  0  0  0
    5.6663    0.8088   -0.6242 C   0  0  0  0  0  0  0  0  0  0  0  0
    5.4625   -0.6554   -0.4615 C   0  0  0  0  0  0  0  0  0  0  0  0
    4.8457    3.1668   -0.6460 C   0  0  0  0  0  0  0  0  0  0  0  0
    4.0468    1.5711   -2.3744 C   0  0  0  0  0  0  0  0  0  0  0  0
   -7.0821    1.9666   -0.1437 C   0  0  0  0  0  0  0  0  0  0  0  0
   -4.9968    3.3554    0.0355 C   0  0  0  0  0  0  0  0  0  0  0  0
    0.5197   -0.1424    2.4285 H   0  0  0  0  0  0  0  0  0  0  0  0
   -2.0645   -0.7237   -1.3469 H   0  0  0  0  0  0  0  0  0  0  0  0
   -1.5367    2.0397    0.8328 H   0  0  0  0  0  0  0  0  0  0  0  0
   -1.6147    0.8863    2.1608 H   0  0  0  0  0  0  0  0  0  0  0  0
   -3.4803    0.0184    1.2751 H   0  0  0  0  0  0  0  0  0  0  0  0
    0.3181   -1.8125   -1.2985 H   0  0  0  0  0  0  0  0  0  0  0  0
   -0.2596   -3.1758   -0.3672 H   0  0  0  0  0  0  0  0  0  0  0  0
   -0.9343    1.0394   -1.4579 H   0  0  0  0  0  0  0  0  0  0  0  0
    0.4098    1.8497   -0.7267 H   0  0  0  0  0  0  0  0  0  0  0  0
    0.6262    0.2732   -1.4884 H   0  0  0  0  0  0  0  0  0  0  0  0
   -3.7575   -2.3286    0.6087 H   0  0  0  0  0  0  0  0  0  0  0  0
    2.4536   -0.4330   -1.0604 H   0  0  0  0  0  0  0  0  0  0  0  0
    1.8641    1.5875    2.7808 H   0  0  0  0  0  0  0  0  0  0  0  0
    0.7199    2.3360    1.6973 H   0  0  0  0  0  0  0  0  0  0  0  0
   -1.9689   -1.3678    2.4066 H   0  0  0  0  0  0  0  0  0  0  0  0
   -1.6818   -2.9365    1.6654 H   0  0  0  0  0  0  0  0  0  0  0  0
   -0.3656   -2.0810    2.4278 H   0  0  0  0  0  0  0  0  0  0  0  0
    3.5673   -1.9779    2.1612 H   0  0  0  0  0  0  0  0  0  0  0  0
    3.3783   -0.3061    2.6916 H   0  0  0  0  0  0  0  0  0  0  0  0
    2.1724   -1.5312    3.1176 H   0  0  0  0  0  0  0  0  0  0  0  0
    2.8998    3.0324    0.9669 H   0  0  0  0  0  0  0  0  0  0  0  0
   -5.0029    1.2259   -1.7448 H   0  0  0  0  0  0  0  0  0  0  0  0
   -2.2711   -3.9554   -0.3739 H   0  0  0  0  0  0  0  0  0  0  0  0
   -3.7705   -4.0227   -1.2827 H   0  0  0  0  0  0  0  0  0  0  0  0
   -2.3734   -3.1907   -1.9751 H   0  0  0  0  0  0  0  0  0  0  0  0
    4.1180   -2.2163   -0.2200 H   0  0  0  0  0  0  0  0  0  0  0  0
   -6.4080   -0.5485   -0.8791 H   0  0  0  0  0  0  0  0  0  0  0  0
   -5.4542   -0.7488    0.5729 H   0  0  0  0  0  0  0  0  0  0  0  0
    5.6739    3.4639   -1.3012 H   0  0  0  0  0  0  0  0  0  0  0  0
    4.0175    3.8553   -0.8498 H   0  0  0  0  0  0  0  0  0  0  0  0
    5.1862    3.3258    0.3842 H   0  0  0  0  0  0  0  0  0  0  0  0
    3.8547    0.5364   -2.6774 H   0  0  0  0  0  0  0  0  0  0  0  0
    3.1460    2.1555   -2.5952 H   0  0  0  0  0  0  0  0  0  0  0  0
    4.8520    1.9365   -3.0234 H   0  0  0  0  0  0  0  0  0  0  0  0
   -7.5963    2.7395    0.4404 H   0  0  0  0  0  0  0  0  0  0  0  0
   -7.2593    2.1735   -1.2042 H   0  0  0  0  0  0  0  0  0  0  0  0
   -7.5797    1.0283    0.1217 H   0  0  0  0  0  0  0  0  0  0  0  0
   -3.9658    3.4065    0.4030 H   0  0  0  0  0  0  0  0  0  0  0  0
   -5.5586    4.0789    0.6384 H   0  0  0  0  0  0  0  0  0  0  0  0
   -5.0176    3.6927   -1.0059 H   0  0  0  0  0  0  0  0  0  0  0  0
   -6.0808    0.8778    1.7656 H   0  0  0  0  0  0  0  0  0  0  0  0
    7.3351   -0.9341   -0.7057 H   0  0  0  0  0  0  0  0  0  0  0  0
  1 13  1  0  0  0  0
  1 25  1  0  0  0  0
  2 15  2  0  0  0  0
  3 24  2  0  0  0  0
  4 30  1  0  0  0  0
  4 77  1  0  0  0  0
  5 32  1  0  0  0  0
  5 78  1  0  0  0  0
  6 31  2  0  0  0  0
  7  8  1  0  0  0  0
  7  9  1  0  0  0  0
  7 12  1  0  0  0  0
  7 16  1  0  0  0  0
  8 10  1  0  0  0  0
  8 14  1  0  0  0  0
  8 20  1  0  0  0  0
  9 11  1  0  0  0  0
  9 19  1  0  0  0  0
  9 37  1  0  0  0  0
 10 13  1  0  0  0  0
 10 17  1  0  0  0  0
 10 38  1  0  0  0  0
 11 15  1  0  0  0  0
 11 18  1  0  0  0  0
 11 21  1  0  0  0  0
 12 13  1  0  0  0  0
 12 39  1  0  0  0  0
 12 40  1  0  0  0  0
 13 41  1  0  0  0  0
 14 15  1  0  0  0  0
 14 42  1  0  0  0  0
 14 43  1  0  0  0  0
 16 44  1  0  0  0  0
 16 45  1  0  0  0  0
 16 46  1  0  0  0  0
 17 24  1  0  0  0  0
 17 27  1  0  0  0  0
 17 47  1  0  0  0  0
 18 22  1  0  0  0  0
 18 28  1  0  0  0  0
 18 48  1  0  0  0  0
 19 23  1  0  0  0  0
 19 49  1  0  0  0  0
 19 50  1  0  0  0  0
 20 51  1  0  0  0  0
 20 52  1  0  0  0  0
 20 53  1  0  0  0  0
 21 54  1  0  0  0  0
 21 55  1  0  0  0  0
 21 56  1  0  0  0  0
 22 23  2  0  0  0  0
 22 26  1  0  0  0  0
 23 57  1  0  0  0  0
 24 29  1  0  0  0  0
 25 29  1  0  0  0  0
 25 30  1  0  0  0  0
 25 58  1  0  0  0  0
 26 31  1  0  0  0  0
 26 33  1  0  0  0  0
 26 34  1  0  0  0  0
 27 59  1  0  0  0  0
 27 60  1  0  0  0  0
 27 61  1  0  0  0  0
 28 32  2  0  0  0  0
 28 62  1  0  0  0  0
 29 63  1  0  0  0  0
 29 64  1  0  0  0  0
 30 35  1  0  0  0  0
 30 36  1  0  0  0  0
 31 32  1  0  0  0  0
 33 65  1  0  0  0  0
 33 66  1  0  0  0  0
 33 67  1  0  0  0  0
 34 68  1  0  0  0  0
 34 69  1  0  0  0  0
 34 70  1  0  0  0  0
 35 71  1  0  0  0  0
 35 72  1  0  0  0  0
 35 73  1  0  0  0  0
 36 74  1  0  0  0  0
 36 75  1  0  0  0  0
 36 76  1  0  0  0  0
M  END
> <PUBCHEM_COMPOUND_CID>
119287

> <PUBCHEM_CONFORMER_RMSD>
0.8

> <PUBCHEM_CONFORMER_DIVERSEORDER>
2
1

> <PUBCHEM_MMFF94_PARTIAL_CHARGES>
27
1 -0.56
11 0.06
13 0.28
14 0.06
15 0.45
17 0.06
18 0.28
19 0.14
2 -0.57
22 -0.28
23 -0.29
24 0.45
25 0.28
26 0.2
28 -0.29
29 0.06
3 -0.57
30 0.28
31 0.49
32 0.09
4 -0.68
5 -0.53
57 0.15
6 -0.57
62 0.15
77 0.4
78 0.45

> <PUBCHEM_EFFECTIVE_ROTOR_COUNT>
2.6

> <PUBCHEM_PHARMACOPHORE_FEATURES>
14
1 1 acceptor
1 2 acceptor
1 3 acceptor
1 4 acceptor
1 4 donor
1 5 donor
1 6 acceptor
3 26 33 34 hydrophobe
3 30 35 36 hydrophobe
5 7 8 10 12 13 rings
6 18 22 26 28 31 32 rings
6 7 8 9 11 14 15 rings
6 9 11 18 19 22 23 rings
7 1 10 13 17 24 25 29 rings

> <PUBCHEM_HEAVY_ATOM_COUNT>
36

> <PUBCHEM_ATOM_DEF_STEREO_COUNT>
9

> <PUBCHEM_ATOM_UDEF_STEREO_COUNT>
0

> <PUBCHEM_BOND_DEF_STEREO_COUNT>
0

> <PUBCHEM_BOND_UDEF_STEREO_COUNT>
0

> <PUBCHEM_ISOTOPIC_ATOM_COUNT>
0

> <PUBCHEM_COMPONENT_COUNT>
1

> <PUBCHEM_CACTVS_TAUTO_COUNT>
30

> <PUBCHEM_CONFORMER_ID>
0001D1F700000002

> <PUBCHEM_MMFF94_ENERGY>
153.6063

> <PUBCHEM_FEATURE_SELFOVERLAP>
71.189

> <PUBCHEM_SHAPE_FINGERPRINT>
10 15 12967120614630452742
10670039 82 18411706461075639629
10675989 125 18272087176652667936
11135609 187 18409165477298722520
11227688 84 17829622664764604415
12236239 1 18412262843802213678
12788726 201 17604710122234037369
13627175 23 18041833052338218881
13690498 29 17896888651631717679
13782708 43 14201395001904242300
13811026 1 17749390386836575902
13944108 23 17544197538096767753
14790565 3 18412823577510370701
14840074 17 17846779607401622061
15064981 194 17915164729244247823
15082195 135 18337973241286884767
15183329 4 18114177557678893817
15238133 3 18337404823818633066
15840311 113 18201151174463280157
1601671 61 18336551611158566195
18608769 82 18341043018260383691
19319366 153 18271245040233229979
19611394 137 17845072014710429361
20715895 44 18413384350537761228
20775438 99 16957071105837916350
21033648 144 17703515406433195566
21033648 29 18340770326101357768
21298829 104 18343017762513295212
21756936 100 18059853944199467865
21781055 127 16806442707959241843
22393880 68 18114469967847607217
23559900 14 18041286482376960944
23569914 2 16627192500562938685
24771293 8 18341057299148384004
249057 3 18340481262022663494
25147074 1 18342470252181046683
25222932 49 7637406211887252004
2838139 119 18272369750418092572
3004659 81 18409729578287541578
38570 142 18130783486203791059
4058900 60 18202004326023691587
4098825 35 18409165493872053564
4173938 77 17346023494561196788
4280585 95 17683230736200305702
4340502 62 15554443024445185528
504579 68 18335435564703247205
50677037 204 18271811155546361269
5265222 85 18259987042176545751
6034566 193 17559093398899934853
6086070 43 17676211251545002921
6328613 192 18409729582049966801

> <PUBCHEM_SHAPE_MULTIPOLES>
705.65
15.58
3.48
1.66
2.33
0.18
0.1
-8.35
-5.38
1.65
-0.32
-0.3
0.19
-2.25

> <PUBCHEM_SHAPE_SELFOVERLAP>
1523.199

> <PUBCHEM_SHAPE_VOLUME>
383.9

> <PUBCHEM_COORDINATE_TYPE>
2
5
10

$$$$

