4707
  -OEChem-06261200182D

 32 34  0     0  0  0  0  0  0999 V2000
    8.0437   -3.0445    0.0000 Br  0  0  0  0  0  0  0  0  0  0  0  0
    6.3465   -0.0247    0.0000 N   0  0  0  0  0  0  0  0  0  0  0  0
    7.2641    1.4891    0.0000 N   0  0  0  0  0  0  0  0  0  0  0  0
    3.7320    2.5099    0.0000 N   0  0  0  0  0  0  0  0  0  0  0  0
    6.3580    3.0445    0.0000 N   0  0  0  0  0  0  0  0  0  0  0  0
    2.8660    1.0099    0.0000 N   0  0  0  0  0  0  0  0  0  0  0  0
    5.4641    1.5099    0.0000 C   0  0  0  0  0  0  0  0  0  0  0  0
    6.3580    0.9752    0.0000 C   0  0  0  0  0  0  0  0  0  0  0  0
    5.4641    2.5099    0.0000 C   0  0  0  0  0  0  0  0  0  0  0  0
    4.5981    1.0099    0.0000 C   0  0  0  0  0  0  0  0  0  0  0  0
    7.2067   -0.5347    0.0000 C   0  0  0  0  0  0  0  0  0  0  0  0
    3.7320    1.5099    0.0000 C   0  0  0  0  0  0  0  0  0  0  0  0
    4.5981    3.0099    0.0000 C   0  0  0  0  0  0  0  0  0  0  0  0
    7.1951   -1.5346    0.0000 C   0  0  0  0  0  0  0  0  0  0  0  0
    8.0784   -0.0447    0.0000 C   0  0  0  0  0  0  0  0  0  0  0  0
    7.2641    2.5307    0.0000 C   0  0  0  0  0  0  0  0  0  0  0  0
    8.0553   -2.0446    0.0000 C   0  0  0  0  0  0  0  0  0  0  0  0
    8.9386   -0.5547    0.0000 C   0  0  0  0  0  0  0  0  0  0  0  0
    8.9270   -1.5547    0.0000 C   0  0  0  0  0  0  0  0  0  0  0  0
    2.0000    1.5099    0.0000 C   0  0  0  0  0  0  0  0  0  0  0  0
    4.5981    0.3899    0.0000 H   0  0  0  0  0  0  0  0  0  0  0  0
    5.8060   -0.3285    0.0000 H   0  0  0  0  0  0  0  0  0  0  0  0
    4.5981    3.6299    0.0000 H   0  0  0  0  0  0  0  0  0  0  0  0
    6.6546   -1.8384    0.0000 H   0  0  0  0  0  0  0  0  0  0  0  0
    8.0856    0.5752    0.0000 H   0  0  0  0  0  0  0  0  0  0  0  0
    2.8660    0.3899    0.0000 H   0  0  0  0  0  0  0  0  0  0  0  0
    7.7998    2.8428    0.0000 H   0  0  0  0  0  0  0  0  0  0  0  0
    9.4791   -0.2510    0.0000 H   0  0  0  0  0  0  0  0  0  0  0  0
    9.4604   -1.8708    0.0000 H   0  0  0  0  0  0  0  0  0  0  0  0
    2.3100    2.0468    0.0000 H   0  0  0  0  0  0  0  0  0  0  0  0
    1.4631    1.8199    0.0000 H   0  0  0  0  0  0  0  0  0  0  0  0
    1.6900    0.9729    0.0000 H   0  0  0  0  0  0  0  0  0  0  0  0
  1 17  1  0  0  0  0
  2  8  1  0  0  0  0
  2 11  1  0  0  0  0
  2 22  1  0  0  0  0
  3  8  2  0  0  0  0
  3 16  1  0  0  0  0
  4 12  2  0  0  0  0
  4 13  1  0  0  0  0
  5  9  1  0  0  0  0
  5 16  2  0  0  0  0
  6 12  1  0  0  0  0
  6 20  1  0  0  0  0
  6 26  1  0  0  0  0
  7  8  1  0  0  0  0
  7  9  1  0  0  0  0
  7 10  2  0  0  0  0
  9 13  2  0  0  0  0
 10 12  1  0  0  0  0
 10 21  1  0  0  0  0
 11 14  2  0  0  0  0
 11 15  1  0  0  0  0
 13 23  1  0  0  0  0
 14 17  1  0  0  0  0
 14 24  1  0  0  0  0
 15 18  2  0  0  0  0
 15 25  1  0  0  0  0
 16 27  1  0  0  0  0
 17 19  2  0  0  0  0
 18 19  1  0  0  0  0
 18 28  1  0  0  0  0
 19 29  1  0  0  0  0
 20 30  1  0  0  0  0
 20 31  1  0  0  0  0
 20 32  1  0  0  0  0
M  END
> <PUBCHEM_COMPOUND_CID>
4707

> <PUBCHEM_COMPOUND_CANONICALIZED>
1

> <PUBCHEM_CACTVS_COMPLEXITY>
316

> <PUBCHEM_CACTVS_HBOND_ACCEPTOR>
5

> <PUBCHEM_CACTVS_HBOND_DONOR>
2

> <PUBCHEM_CACTVS_ROTATABLE_BOND>
3

> <PUBCHEM_CACTVS_SUBSKEYS>
AAADccBzgAAAEAAAAAAAAAAAAAAAAAAAAAA8WIAAAAAAAACx/AAAHABQAAABrAjBHgQ/8PbIEACgAzZnZACCgC0xEqQJ2KA4dLiIaOLA2dGUJAhokALIyjcQAAAKAAAAAAEAAAAAAAAAAgAAAAAAAAAAAA==

> <PUBCHEM_IUPAC_OPENEYE_NAME>
N4-(3-bromophenyl)-N6-methyl-pyrido[3,4-d]pyrimidine-4,6-diamine

> <PUBCHEM_IUPAC_CAS_NAME>
N4-(3-bromophenyl)-N6-methylpyrido[3,4-d]pyrimidine-4,6-diamine

> <PUBCHEM_IUPAC_NAME>
4-N-(3-bromophenyl)-6-N-methylpyrido[3,4-d]pyrimidine-4,6-diamine

> <PUBCHEM_IUPAC_SYSTEMATIC_NAME>
N4-(3-bromophenyl)-N6-methyl-pyrido[3,4-d]pyrimidine-4,6-diamine

> <PUBCHEM_IUPAC_TRADITIONAL_NAME>
[4-(3-bromoanilino)pyrido[3,4-d]pyrimidin-6-yl]-methyl-amine

> <PUBCHEM_IUPAC_INCHI>
InChI=1S/C14H12BrN5/c1-16-13-6-11-12(7-17-13)18-8-19-14(11)20-10-4-2-3-9(15)5-10/h2-8H,1H3,(H,16,17)(H,18,19,20)

> <PUBCHEM_IUPAC_INCHIKEY>
KFHMLBXBRCITHF-UHFFFAOYSA-N

> <PUBCHEM_XLOGP3_AA>
3.4

> <PUBCHEM_EXACT_MASS>
329.027608

> <PUBCHEM_MOLECULAR_FORMULA>
C14H12BrN5

> <PUBCHEM_MOLECULAR_WEIGHT>
330.18258

> <PUBCHEM_OPENEYE_CAN_SMILES>
CNC1=NC=C2C(=C1)C(=NC=N2)NC3=CC(=CC=C3)Br

> <PUBCHEM_OPENEYE_ISO_SMILES>
CNC1=NC=C2C(=C1)C(=NC=N2)NC3=CC(=CC=C3)Br

> <PUBCHEM_CACTVS_TPSA>
62.7

> <PUBCHEM_MONOISOTOPIC_WEIGHT>
329.027608

> <PUBCHEM_TOTAL_CHARGE>
0

> <PUBCHEM_HEAVY_ATOM_COUNT>
20

> <PUBCHEM_ATOM_DEF_STEREO_COUNT>
0

> <PUBCHEM_ATOM_UDEF_STEREO_COUNT>
0

> <PUBCHEM_BOND_DEF_STEREO_COUNT>
0

> <PUBCHEM_BOND_UDEF_STEREO_COUNT>
0

> <PUBCHEM_ISOTOPIC_ATOM_COUNT>
0

> <PUBCHEM_COMPONENT_COUNT>
1

> <PUBCHEM_CACTVS_TAUTO_COUNT>
6

> <PUBCHEM_COORDINATE_TYPE>
1
5
255

> <PUBCHEM_BONDANNOTATIONS>
10  12  8
11  14  8
11  15  8
14  17  8
15  18  8
17  19  8
18  19  8
3  16  8
3  8  8
4  12  8
4  13  8
5  16  8
5  9  8
7  10  8
7  8  8
7  9  8
9  13  8

$$$$

