439486
  -OEChem-07051212452D

 42 44  0     1  0  0  0  0  0999 V2000
    5.9134    2.4964    0.0000 P   0  0  3  0  0  0  0  0  0  0  0  0
    6.2765    4.1900    0.0000 P   0  0  0  0  0  0  0  0  0  0  0  0
    5.2686   -0.9567    0.0000 O   0  0  0  0  0  0  0  0  0  0  0  0
    7.6146   -2.0486    0.0000 O   0  0  0  0  0  0  0  0  0  0  0  0
    7.6183    0.1270    0.0000 O   0  0  0  0  0  0  0  0  0  0  0  0
    6.2208    1.5449    0.0000 O   0  0  0  0  0  0  0  0  0  0  0  0
    5.6061    3.4480    0.0000 O   0  0  0  0  0  0  0  0  0  0  0  0
    6.8650    2.8038    0.0000 O   0  0  0  0  0  0  0  0  0  0  0  0
    3.7320   -5.5220    0.0000 O   0  0  0  0  0  0  0  0  0  0  0  0
    4.9618    2.1891    0.0000 O   0  0  0  0  0  0  0  0  0  0  0  0
    2.0000   -2.5220    0.0000 O   0  0  0  0  0  0  0  0  0  0  0  0
    6.9469    4.9320    0.0000 O   0  0  0  0  0  0  0  0  0  0  0  0
    5.5345    4.8604    0.0000 O   0  0  0  0  0  0  0  0  0  0  0  0
    7.0185    3.5196    0.0000 O   0  0  0  0  0  0  0  0  0  0  0  0
    5.5443   -2.7173    0.0000 N   0  0  0  0  0  0  0  0  0  0  0  0
    3.7320   -2.5220    0.0000 N   0  0  0  0  0  0  0  0  0  0  0  0
    5.5443   -4.3267    0.0000 N   0  0  0  0  0  0  0  0  0  0  0  0
    2.8660   -4.0220    0.0000 N   0  0  0  0  0  0  0  0  0  0  0  0
    6.8066   -1.4594    0.0000 C   0  0  1  0  0  0  0  0  0  0  0  0
    5.8550   -1.7668    0.0000 C   0  0  1  0  0  0  0  0  0  0  0  0
    6.8083   -0.4594    0.0000 C   0  0  1  0  0  0  0  0  0  0  0  0
    5.8578   -0.1487    0.0000 C   0  0  1  0  0  0  0  0  0  0  0  0
    5.5504    0.8029    0.0000 C   0  0  0  0  0  0  0  0  0  0  0  0
    4.5981   -3.0220    0.0000 C   0  0  0  0  0  0  0  0  0  0  0  0
    6.1279   -3.5220    0.0000 C   0  0  0  0  0  0  0  0  0  0  0  0
    4.5981   -4.0220    0.0000 C   0  0  0  0  0  0  0  0  0  0  0  0
    3.7320   -4.5220    0.0000 C   0  0  0  0  0  0  0  0  0  0  0  0
    2.8660   -3.0220    0.0000 C   0  0  0  0  0  0  0  0  0  0  0  0
    7.3595   -1.1789    0.0000 H   0  0  0  0  0  0  0  0  0  0  0  0
    6.2926   -2.2059    0.0000 H   0  0  0  0  0  0  0  0  0  0  0  0
    7.3602   -0.7418    0.0000 H   0  0  0  0  0  0  0  0  0  0  0  0
    5.2456   -0.0507    0.0000 H   0  0  0  0  0  0  0  0  0  0  0  0
    5.1695    1.2921    0.0000 H   0  0  0  0  0  0  0  0  0  0  0  0
    5.0025    0.5128    0.0000 H   0  0  0  0  0  0  0  0  0  0  0  0
    8.1814   -1.7974    0.0000 H   0  0  0  0  0  0  0  0  0  0  0  0
    8.1843   -0.1261    0.0000 H   0  0  0  0  0  0  0  0  0  0  0  0
    6.7479   -3.5220    0.0000 H   0  0  0  0  0  0  0  0  0  0  0  0
    3.7320   -1.9020    0.0000 H   0  0  0  0  0  0  0  0  0  0  0  0
    2.3291   -4.3320    0.0000 H   0  0  0  0  0  0  0  0  0  0  0  0
    7.3250    2.3882    0.0000 H   0  0  0  0  0  0  0  0  0  0  0  0
    6.7563    5.5220    0.0000 H   0  0  0  0  0  0  0  0  0  0  0  0
    4.9445    4.6699    0.0000 H   0  0  0  0  0  0  0  0  0  0  0  0
  1  6  1  0  0  0  0
  1  7  1  0  0  0  0
  1  8  1  0  0  0  0
  1 10  2  0  0  0  0
  2  7  1  0  0  0  0
  2 12  1  0  0  0  0
  2 13  1  0  0  0  0
  2 14  2  0  0  0  0
  3 20  1  0  0  0  0
  3 22  1  0  0  0  0
 19  4  1  1  0  0  0
  4 35  1  0  0  0  0
 21  5  1  1  0  0  0
  5 36  1  0  0  0  0
  6 23  1  0  0  0  0
  8 40  1  0  0  0  0
  9 27  2  0  0  0  0
 11 28  2  0  0  0  0
 12 41  1  0  0  0  0
 13 42  1  0  0  0  0
 20 15  1  6  0  0  0
 15 24  1  0  0  0  0
 15 25  1  0  0  0  0
 16 24  1  0  0  0  0
 16 28  1  0  0  0  0
 16 38  1  0  0  0  0
 17 25  2  0  0  0  0
 17 26  1  0  0  0  0
 18 27  1  0  0  0  0
 18 28  1  0  0  0  0
 18 39  1  0  0  0  0
 19 20  1  0  0  0  0
 19 21  1  0  0  0  0
 19 29  1  0  0  0  0
 20 30  1  0  0  0  0
 21 22  1  0  0  0  0
 21 31  1  0  0  0  0
 22 23  1  6  0  0  0
 22 32  1  0  0  0  0
 23 33  1  0  0  0  0
 23 34  1  0  0  0  0
 24 26  2  0  0  0  0
 25 37  1  0  0  0  0
 26 27  1  0  0  0  0
M  END
> <PUBCHEM_COMPOUND_CID>
439486

> <PUBCHEM_COMPOUND_CANONICALIZED>
1

> <PUBCHEM_CACTVS_COMPLEXITY>
746

> <PUBCHEM_CACTVS_HBOND_ACCEPTOR>
13

> <PUBCHEM_CACTVS_HBOND_DONOR>
7

> <PUBCHEM_CACTVS_ROTATABLE_BOND>
6

> <PUBCHEM_CACTVS_SUBSKEYS>
AAADccBzvAMAAAAAAAAAAAAAAAAAAWJAAAAsAAAAAAAAAFgBgAAAHgAQCCAACBzhlgYFsBfMFxCoQQdxdICAgC0XEKABUAGoVECDWApAyCAeQIgPBSLTAGDwMAIAAAAAAAAAAAAAAAAAAAAAAAAAAAAAAA==

> <PUBCHEM_IUPAC_OPENEYE_NAME>
[(2R,3S,4R,5R)-5-(2,6-dioxo-3H-purin-9-yl)-3,4-dihydroxy-tetrahydrofuran-2-yl]methyl phosphono hydrogen phosphate

> <PUBCHEM_IUPAC_CAS_NAME>
[(2R,3S,4R,5R)-5-(2,6-dioxo-3H-purin-9-yl)-3,4-dihydroxy-2-oxolanyl]methyl phosphono hydrogen phosphate

> <PUBCHEM_IUPAC_NAME>
[(2R,3S,4R,5R)-5-(2,6-dioxo-3H-purin-9-yl)-3,4-dihydroxyoxolan-2-yl]methyl phosphono hydrogen phosphate

> <PUBCHEM_IUPAC_SYSTEMATIC_NAME>
[(2R,3S,4R,5R)-5-[2,6-bis(oxidanylidene)-3H-purin-9-yl]-3,4-bis(oxidanyl)oxolan-2-yl]methyl phosphono hydrogen phosphate

> <PUBCHEM_IUPAC_TRADITIONAL_NAME>
[(2R,3S,4R,5R)-5-(2,6-diketo-3H-purin-9-yl)-3,4-dihydroxy-tetrahydrofuran-2-yl]methyl phosphono hydrogen phosphate

> <PUBCHEM_IUPAC_INCHI>
InChI=1S/C10H14N4O12P2/c15-5-3(1-24-28(22,23)26-27(19,20)21)25-9(6(5)16)14-2-11-4-7(14)12-10(18)13-8(4)17/h2-3,5-6,9,15-16H,1H2,(H,22,23)(H2,19,20,21)(H2,12,13,17,18)/t3-,5-,6-,9-/m1/s1

> <PUBCHEM_IUPAC_INCHIKEY>
YMOPVQQBWLGDOD-UUOKFMHZSA-N

> <PUBCHEM_XLOGP3>
-5.1

> <PUBCHEM_EXACT_MASS>
444.008345

> <PUBCHEM_MOLECULAR_FORMULA>
C10H14N4O12P2

> <PUBCHEM_MOLECULAR_WEIGHT>
444.185284

> <PUBCHEM_OPENEYE_CAN_SMILES>
C1=NC2=C(N1C3C(C(C(O3)COP(=O)(O)OP(=O)(O)O)O)O)NC(=O)NC2=O

> <PUBCHEM_OPENEYE_ISO_SMILES>
C1=NC2=C(N1[C@H]3[C@@H]([C@@H]([C@H](O3)COP(=O)(O)OP(=O)(O)O)O)O)NC(=O)NC2=O

> <PUBCHEM_CACTVS_TPSA>
239

> <PUBCHEM_MONOISOTOPIC_WEIGHT>
444.008345

> <PUBCHEM_TOTAL_CHARGE>
0

> <PUBCHEM_HEAVY_ATOM_COUNT>
28

> <PUBCHEM_ATOM_DEF_STEREO_COUNT>
4

> <PUBCHEM_ATOM_UDEF_STEREO_COUNT>
0

> <PUBCHEM_BOND_DEF_STEREO_COUNT>
0

> <PUBCHEM_BOND_UDEF_STEREO_COUNT>
0

> <PUBCHEM_ISOTOPIC_ATOM_COUNT>
0

> <PUBCHEM_COMPONENT_COUNT>
1

> <PUBCHEM_CACTVS_TAUTO_COUNT>
9

> <PUBCHEM_COORDINATE_TYPE>
1
5
255

> <PUBCHEM_BONDANNOTATIONS>
20  15  6
15  24  8
15  25  8
16  24  8
16  28  8
17  25  8
17  26  8
18  27  8
18  28  8
22  23  6
24  26  8
26  27  8
19  4  5
21  5  5

$$$$

