441571
  -OEChem-07051212552D

 34 33  0     1  0  0  0  0  0999 V2000
    6.0010   -2.0950    0.0000 O   0  0  0  0  0  0  0  0  0  0  0  0
    2.5369   -0.0950    0.0000 O   0  0  0  0  0  0  0  0  0  0  0  0
    7.7331   -2.0950    0.0000 O   0  0  0  0  0  0  0  0  0  0  0  0
    3.4030   -1.5950    0.0000 O   0  0  0  0  0  0  0  0  0  0  0  0
    3.4030    2.4050    0.0000 O   0  0  0  0  0  0  0  0  0  0  0  0
    2.5369    0.9050    0.0000 O   0  0  0  0  0  0  0  0  0  0  0  0
    9.4651    0.9050    0.0000 O   0  0  0  0  0  0  0  0  0  0  0  0
    5.1350   -0.5950    0.0000 N   0  0  0  0  0  0  0  0  0  0  0  0
    7.7331   -0.0950    0.0000 N   0  0  0  0  0  0  0  0  0  0  0  0
   10.3312   -0.5950    0.0000 N   0  0  0  0  0  0  0  0  0  0  0  0
    6.8671   -0.5950    0.0000 C   0  0  3  0  0  0  0  0  0  0  0  0
    6.0010   -0.0950    0.0000 C   0  0  0  0  0  0  0  0  0  0  0  0
    4.2690   -0.0950    0.0000 C   0  0  1  0  0  0  0  0  0  0  0  0
    4.2690    0.9050    0.0000 C   0  0  0  0  0  0  0  0  0  0  0  0
    6.8671   -1.5950    0.0000 C   0  0  0  0  0  0  0  0  0  0  0  0
    8.5991   -0.5950    0.0000 C   0  0  0  0  0  0  0  0  0  0  0  0
    3.4030   -0.5950    0.0000 C   0  0  0  0  0  0  0  0  0  0  0  0
    3.4030    1.4050    0.0000 C   0  0  0  0  0  0  0  0  0  0  0  0
    9.4651   -0.0950    0.0000 C   0  0  0  0  0  0  0  0  0  0  0  0
    7.6032   -1.0200    0.0000 H   0  0  0  0  0  0  0  0  0  0  0  0
    6.3996    0.3799    0.0000 H   0  0  0  0  0  0  0  0  0  0  0  0
    5.6025    0.3799    0.0000 H   0  0  0  0  0  0  0  0  0  0  0  0
    4.2690   -0.7150    0.0000 H   0  0  0  0  0  0  0  0  0  0  0  0
    5.1350   -1.2150    0.0000 H   0  0  0  0  0  0  0  0  0  0  0  0
    4.8796    0.7973    0.0000 H   0  0  0  0  0  0  0  0  0  0  0  0
    4.4810    1.4876    0.0000 H   0  0  0  0  0  0  0  0  0  0  0  0
    7.7331    0.5250    0.0000 H   0  0  0  0  0  0  0  0  0  0  0  0
    8.2006   -1.0700    0.0000 H   0  0  0  0  0  0  0  0  0  0  0  0
    8.9976   -1.0700    0.0000 H   0  0  0  0  0  0  0  0  0  0  0  0
    6.0010   -2.7150    0.0000 H   0  0  0  0  0  0  0  0  0  0  0  0
    2.0000   -0.4050    0.0000 H   0  0  0  0  0  0  0  0  0  0  0  0
    2.8660    2.7150    0.0000 H   0  0  0  0  0  0  0  0  0  0  0  0
   10.8681   -0.2850    0.0000 H   0  0  0  0  0  0  0  0  0  0  0  0
   10.3312   -1.2150    0.0000 H   0  0  0  0  0  0  0  0  0  0  0  0
  1 15  1  0  0  0  0
  1 30  1  0  0  0  0
  2 17  1  0  0  0  0
  2 31  1  0  0  0  0
  3 15  2  0  0  0  0
  4 17  2  0  0  0  0
  5 18  1  0  0  0  0
  5 32  1  0  0  0  0
  6 18  2  0  0  0  0
  7 19  2  0  0  0  0
  8 12  1  0  0  0  0
 13  8  1  6  0  0  0
  8 24  1  0  0  0  0
  9 11  1  0  0  0  0
  9 16  1  0  0  0  0
  9 27  1  0  0  0  0
 10 19  1  0  0  0  0
 10 33  1  0  0  0  0
 10 34  1  0  0  0  0
 11 12  1  0  0  0  0
 11 15  1  0  0  0  0
 11 20  1  0  0  0  0
 12 21  1  0  0  0  0
 12 22  1  0  0  0  0
 13 14  1  0  0  0  0
 13 17  1  0  0  0  0
 13 23  1  0  0  0  0
 14 18  1  0  0  0  0
 14 25  1  0  0  0  0
 14 26  1  0  0  0  0
 16 19  1  0  0  0  0
 16 28  1  0  0  0  0
 16 29  1  0  0  0  0
M  END
> <PUBCHEM_COMPOUND_CID>
441571

> <PUBCHEM_COMPOUND_CANONICALIZED>
1

> <PUBCHEM_CACTVS_COMPLEXITY>
371

> <PUBCHEM_CACTVS_HBOND_ACCEPTOR>
9

> <PUBCHEM_CACTVS_HBOND_DONOR>
6

> <PUBCHEM_CACTVS_ROTATABLE_BOND>
10

> <PUBCHEM_CACTVS_SUBSKEYS>
AAADccBzOAAAAAAAAAAAAAAAAAAAAAAAAAAAAAAAAAAAAAAAAAAAHgAQCAAACCjBgAQACALAAgAIAAGQGAAAAAAAAAAAAIGIAAACQBgAACAUQAAGEACQAABDAAAAAAAAAAAAAAAAAAAAAAAAAAAAAAAAAA==

> <PUBCHEM_IUPAC_OPENEYE_NAME>
(2S)-2-[[2-[(2-amino-2-oxo-ethyl)amino]-2-carboxy-ethyl]amino]butanedioic acid

> <PUBCHEM_IUPAC_CAS_NAME>
(2S)-2-[[2-[(2-amino-2-oxoethyl)amino]-2-carboxyethyl]amino]butanedioic acid

> <PUBCHEM_IUPAC_NAME>
(2S)-2-[[2-[(2-amino-2-oxoethyl)amino]-2-carboxyethyl]amino]butanedioic acid

> <PUBCHEM_IUPAC_SYSTEMATIC_NAME>
(2S)-2-[[2-[(2-azanyl-2-oxidanylidene-ethyl)amino]-3-oxidanyl-3-oxidanylidene-propyl]amino]butanedioic acid

> <PUBCHEM_IUPAC_TRADITIONAL_NAME>
(2S)-2-[[2-[(2-amino-2-keto-ethyl)amino]-2-carboxy-ethyl]amino]succinic acid

> <PUBCHEM_IUPAC_INCHI>
InChI=1S/C9H15N3O7/c10-6(13)3-12-5(9(18)19)2-11-4(8(16)17)1-7(14)15/h4-5,11-12H,1-3H2,(H2,10,13)(H,14,15)(H,16,17)(H,18,19)/t4-,5?/m0/s1

> <PUBCHEM_IUPAC_INCHIKEY>
YRSDOJQPYZOCMY-ROLXFIACSA-N

> <PUBCHEM_XLOGP3_AA>
-7.5

> <PUBCHEM_EXACT_MASS>
277.091

> <PUBCHEM_MOLECULAR_FORMULA>
C9H15N3O7

> <PUBCHEM_MOLECULAR_WEIGHT>
277.2313

> <PUBCHEM_OPENEYE_CAN_SMILES>
C(C(C(=O)O)NCC(C(=O)O)NCC(=O)N)C(=O)O

> <PUBCHEM_OPENEYE_ISO_SMILES>
C([C@@H](C(=O)O)NCC(C(=O)O)NCC(=O)N)C(=O)O

> <PUBCHEM_CACTVS_TPSA>
179

> <PUBCHEM_MONOISOTOPIC_WEIGHT>
277.091

> <PUBCHEM_TOTAL_CHARGE>
0

> <PUBCHEM_HEAVY_ATOM_COUNT>
19

> <PUBCHEM_ATOM_DEF_STEREO_COUNT>
1

> <PUBCHEM_ATOM_UDEF_STEREO_COUNT>
1

> <PUBCHEM_BOND_DEF_STEREO_COUNT>
0

> <PUBCHEM_BOND_UDEF_STEREO_COUNT>
0

> <PUBCHEM_ISOTOPIC_ATOM_COUNT>
0

> <PUBCHEM_COMPONENT_COUNT>
1

> <PUBCHEM_CACTVS_TAUTO_COUNT>
3

> <PUBCHEM_COORDINATE_TYPE>
1
5
255

> <PUBCHEM_BONDANNOTATIONS>
11  20  3
13  8  6

$$$$

