582765
  -OEChem-06241222443D

 32 33  0     1  0  0  0  0  0999 V2000
   -3.2337    1.1997    0.3791 O   0  0  0  0  0  0  0  0  0  0  0  0
   -2.3659    0.5733   -1.6632 O   0  0  0  0  0  0  0  0  0  0  0  0
   -1.5357   -3.6411    0.4680 O   0  0  0  0  0  0  0  0  0  0  0  0
    1.4200    2.3187    0.0789 N   0  0  0  0  0  0  0  0  0  0  0  0
   -1.2030   -1.6022   -0.6210 N   0  0  0  0  0  0  0  0  0  0  0  0
   -0.8858   -0.1902    1.3913 C   0  0  0  0  0  0  0  0  0  0  0  0
    0.2221    0.6048    0.8239 C   0  0  0  0  0  0  0  0  0  0  0  0
   -1.8839   -0.7314    0.3389 C   0  0  1  0  0  0  0  0  0  0  0  0
    1.4846    0.1107    0.3916 C   0  0  0  0  0  0  0  0  0  0  0  0
    2.2168    1.2061   -0.0712 C   0  0  0  0  0  0  0  0  0  0  0  0
    0.2125    1.9653    0.6190 C   0  0  0  0  0  0  0  0  0  0  0  0
    2.0764   -1.1673    0.3495 C   0  0  0  0  0  0  0  0  0  0  0  0
    3.5165    1.0868   -0.5760 C   0  0  0  0  0  0  0  0  0  0  0  0
   -2.4955    0.4094   -0.4567 C   0  0  0  0  0  0  0  0  0  0  0  0
    3.3759   -1.3017   -0.1527 C   0  0  0  0  0  0  0  0  0  0  0  0
    4.0830   -0.1906   -0.6078 C   0  0  0  0  0  0  0  0  0  0  0  0
   -1.1055   -2.9543   -0.4497 C   0  0  0  0  0  0  0  0  0  0  0  0
   -3.8988    2.3039   -0.2419 C   0  0  0  0  0  0  0  0  0  0  0  0
   -0.4757   -1.0363    1.9581 H   0  0  0  0  0  0  0  0  0  0  0  0
   -1.4293    0.4198    2.1248 H   0  0  0  0  0  0  0  0  0  0  0  0
   -2.6852   -1.3023    0.8209 H   0  0  0  0  0  0  0  0  0  0  0  0
   -0.5423    2.7157    0.8091 H   0  0  0  0  0  0  0  0  0  0  0  0
    1.6884    3.2599   -0.1732 H   0  0  0  0  0  0  0  0  0  0  0  0
    1.5452   -2.0445    0.7067 H   0  0  0  0  0  0  0  0  0  0  0  0
   -0.7714   -1.1827   -1.4400 H   0  0  0  0  0  0  0  0  0  0  0  0
    4.0679    1.9513   -0.9304 H   0  0  0  0  0  0  0  0  0  0  0  0
    3.8381   -2.2848   -0.1858 H   0  0  0  0  0  0  0  0  0  0  0  0
    5.0913   -0.3178   -0.9936 H   0  0  0  0  0  0  0  0  0  0  0  0
   -0.5512   -3.4095   -1.2871 H   0  0  0  0  0  0  0  0  0  0  0  0
   -4.4466    2.8493    0.5311 H   0  0  0  0  0  0  0  0  0  0  0  0
   -4.6114    1.9445   -0.9905 H   0  0  0  0  0  0  0  0  0  0  0  0
   -3.1674    2.9791   -0.6963 H   0  0  0  0  0  0  0  0  0  0  0  0
  1 14  1  0  0  0  0
  1 18  1  0  0  0  0
  2 14  2  0  0  0  0
  3 17  2  0  0  0  0
  4 10  1  0  0  0  0
  4 11  1  0  0  0  0
  4 23  1  0  0  0  0
  5  8  1  0  0  0  0
  5 17  1  0  0  0  0
  5 25  1  0  0  0  0
  6  7  1  0  0  0  0
  6  8  1  0  0  0  0
  6 19  1  0  0  0  0
  6 20  1  0  0  0  0
  7  9  1  0  0  0  0
  7 11  2  0  0  0  0
  8 14  1  0  0  0  0
  8 21  1  0  0  0  0
  9 10  1  0  0  0  0
  9 12  2  0  0  0  0
 10 13  2  0  0  0  0
 11 22  1  0  0  0  0
 12 15  1  0  0  0  0
 12 24  1  0  0  0  0
 13 16  1  0  0  0  0
 13 26  1  0  0  0  0
 15 16  2  0  0  0  0
 15 27  1  0  0  0  0
 16 28  1  0  0  0  0
 17 29  1  0  0  0  0
 18 30  1  0  0  0  0
 18 31  1  0  0  0  0
 18 32  1  0  0  0  0
M  END
> <PUBCHEM_COMPOUND_CID>
582765

> <PUBCHEM_CONFORMER_RMSD>
0.8

> <PUBCHEM_CONFORMER_DIVERSEORDER>
1
45
40
10
62
55
57
42
34
38
52
2
58
60
13
29
3
82
5
63
70
7
6
79
56
83
53
35
21
46
51
31
19
73
49
16
61
65
84
48
50
66
85
54
64
81
12
23
20
8
59
80
24
37
9
43
22
44
15
39
11
71
17
68
27
18
4
33
30
72
14
74
32
36
75
78
25
28
77
76
41
67
47
26
69

> <PUBCHEM_MMFF94_PARTIAL_CHARGES>
25
1 -0.43
10 -0.15
11 -0.3
12 -0.15
13 -0.15
14 0.66
15 -0.15
16 -0.15
17 0.57
18 0.28
2 -0.57
22 0.15
23 0.27
24 0.15
25 0.37
26 0.15
27 0.15
28 0.15
29 0.06
3 -0.57
4 0.03
5 -0.73
6 0.18
7 -0.18
8 0.36

> <PUBCHEM_EFFECTIVE_ROTOR_COUNT>
6

> <PUBCHEM_PHARMACOPHORE_FEATURES>
7
1 2 acceptor
1 3 acceptor
1 4 cation
1 4 donor
1 5 donor
5 4 7 9 10 11 rings
6 9 10 12 13 15 16 rings

> <PUBCHEM_HEAVY_ATOM_COUNT>
18

> <PUBCHEM_ATOM_DEF_STEREO_COUNT>
0

> <PUBCHEM_ATOM_UDEF_STEREO_COUNT>
1

> <PUBCHEM_BOND_DEF_STEREO_COUNT>
0

> <PUBCHEM_BOND_UDEF_STEREO_COUNT>
0

> <PUBCHEM_ISOTOPIC_ATOM_COUNT>
0

> <PUBCHEM_COMPONENT_COUNT>
1

> <PUBCHEM_CACTVS_TAUTO_COUNT>
2

> <PUBCHEM_CONFORMER_ID>
0008E46D00000001

> <PUBCHEM_MMFF94_ENERGY>
29.8492

> <PUBCHEM_FEATURE_SELFOVERLAP>
35.612

> <PUBCHEM_SHAPE_FINGERPRINT>
11578080 2 17025159510243907547
12173636 292 18410578387925738845
12500047 106 18408608045803334808
12592029 89 18266173031970070163
12788726 201 17823409586427058688
14115302 16 18411409622995500068
14178342 30 18266476308010845440
15664445 248 17114074692110099775
16752209 62 18117277179921105992
16945 1 18410018706231537040
18186145 218 17846499283127999328
18619055 16 18410574011353856122
20600515 1 18190488076063024864
20645476 183 18411699898101652759
20871999 31 18408887308544840663
21665056 4 18411983559311993799
22802520 49 18121788218352425827
23402539 116 18189063147579313484
23419403 2 15045523888556577843
23557571 272 17837227982017979273
23559900 14 18333449846988313176
238 59 17482034319898745901
25 1 18059293270214729328
2748010 2 18116435826113844266
298252 57 18340771541323485763
3084891 72 18263365961113878185
3084891 8 17835522991507366005
34934 24 18411984676467207928
45790113 53 18337100168998423091
74978 22 18336266751811020632
7832392 63 18411420579335700588
81228 2 17982463594297268035

> <PUBCHEM_SHAPE_MULTIPOLES>
342.86
6.27
3.08
1.02
1.23
2.32
0.04
-2.12
1.63
-1.87
0
-0.34
-0.03
0.11

> <PUBCHEM_SHAPE_SELFOVERLAP>
730.205

> <PUBCHEM_SHAPE_VOLUME>
190.9

> <PUBCHEM_COORDINATE_TYPE>
2
5
10

$$$$

