6602429
  -OEChem-07051212463D

 24 23  0     1  0  0  0  0  0999 V2000
   -1.3163   -0.8514    1.4850 O   0  0  0  0  0  0  0  0  0  0  0  0
    0.0856    1.5245    0.4923 O   0  0  0  0  0  0  0  0  0  0  0  0
   -2.6648    0.7424   -1.5310 O   0  0  0  0  0  0  0  0  0  0  0  0
    1.2916   -1.7800   -0.5071 O   0  0  0  0  0  0  0  0  0  0  0  0
    2.8293    1.2334    0.6984 O   0  0  0  0  0  0  0  0  0  0  0  0
    3.4808   -0.2871   -0.8512 O   0  0  0  0  0  0  0  0  0  0  0  0
   -1.3044   -0.4319    0.1120 C   0  0  2  0  0  0  0  0  0  0  0  0
    0.0606    0.2484   -0.1401 C   0  0  2  0  0  0  0  0  0  0  0  0
   -2.5754    0.3963   -0.1523 C   0  0  2  0  0  0  0  0  0  0  0  0
    1.3162   -0.5583    0.2204 C   0  0  2  0  0  0  0  0  0  0  0  0
   -3.8450   -0.3603    0.2331 C   0  0  0  0  0  0  0  0  0  0  0  0
    2.6418    0.1239   -0.0594 C   0  0  0  0  0  0  0  0  0  0  0  0
   -1.3446   -1.3428   -0.4975 H   0  0  0  0  0  0  0  0  0  0  0  0
    0.1058    0.4593   -1.2165 H   0  0  0  0  0  0  0  0  0  0  0  0
   -2.5413    1.3250    0.4291 H   0  0  0  0  0  0  0  0  0  0  0  0
    1.3123   -0.8080    1.2884 H   0  0  0  0  0  0  0  0  0  0  0  0
   -4.7330    0.2349   -0.0070 H   0  0  0  0  0  0  0  0  0  0  0  0
   -3.8717   -0.5961    1.3008 H   0  0  0  0  0  0  0  0  0  0  0  0
   -3.9299   -1.2927   -0.3359 H   0  0  0  0  0  0  0  0  0  0  0  0
   -1.3390   -0.0526    2.0388 H   0  0  0  0  0  0  0  0  0  0  0  0
    0.1242    1.3777    1.4526 H   0  0  0  0  0  0  0  0  0  0  0  0
   -3.4559    1.2961   -1.6458 H   0  0  0  0  0  0  0  0  0  0  0  0
    1.9990   -2.3465   -0.1538 H   0  0  0  0  0  0  0  0  0  0  0  0
    3.6972    1.6552    0.5218 H   0  0  0  0  0  0  0  0  0  0  0  0
  1  7  1  0  0  0  0
  1 20  1  0  0  0  0
  2  8  1  0  0  0  0
  2 21  1  0  0  0  0
  3  9  1  0  0  0  0
  3 22  1  0  0  0  0
  4 10  1  0  0  0  0
  4 23  1  0  0  0  0
  5 12  1  0  0  0  0
  5 24  1  0  0  0  0
  6 12  2  0  0  0  0
  7  8  1  0  0  0  0
  7  9  1  0  0  0  0
  7 13  1  0  0  0  0
  8 10  1  0  0  0  0
  8 14  1  0  0  0  0
  9 11  1  0  0  0  0
  9 15  1  0  0  0  0
 10 12  1  0  0  0  0
 10 16  1  0  0  0  0
 11 17  1  0  0  0  0
 11 18  1  0  0  0  0
 11 19  1  0  0  0  0
M  END
> <PUBCHEM_COMPOUND_CID>
6602429

> <PUBCHEM_CONFORMER_RMSD>
0.6

> <PUBCHEM_CONFORMER_DIVERSEORDER>
13
33
14
18
31
6
30
26
1
25
9
29
21
19
8
23
27
5
22
34
16
32
2
4
15
12
28
17
24
11
10
3
20
7

> <PUBCHEM_MMFF94_PARTIAL_CHARGES>
16
1 -0.68
10 0.34
12 0.66
2 -0.68
20 0.4
21 0.4
22 0.4
23 0.4
24 0.5
3 -0.68
4 -0.68
5 -0.65
6 -0.57
7 0.28
8 0.28
9 0.28

> <PUBCHEM_EFFECTIVE_ROTOR_COUNT>
4

> <PUBCHEM_PHARMACOPHORE_FEATURES>
11
1 1 acceptor
1 1 donor
1 2 acceptor
1 2 donor
1 3 acceptor
1 3 donor
1 4 acceptor
1 4 donor
1 5 acceptor
1 6 acceptor
3 5 6 12 anion

> <PUBCHEM_HEAVY_ATOM_COUNT>
12

> <PUBCHEM_ATOM_DEF_STEREO_COUNT>
4

> <PUBCHEM_ATOM_UDEF_STEREO_COUNT>
0

> <PUBCHEM_BOND_DEF_STEREO_COUNT>
0

> <PUBCHEM_BOND_UDEF_STEREO_COUNT>
0

> <PUBCHEM_ISOTOPIC_ATOM_COUNT>
0

> <PUBCHEM_COMPONENT_COUNT>
1

> <PUBCHEM_CACTVS_TAUTO_COUNT>
1

> <PUBCHEM_CONFORMER_ID>
0064BEBD0000000D

> <PUBCHEM_MMFF94_ENERGY>
20.7647

> <PUBCHEM_FEATURE_SELFOVERLAP>
55.894

> <PUBCHEM_SHAPE_FINGERPRINT>
10219947 1 18040712554449940989
11062470 55 17847057774688868671
12138202 97 18060421304710119099
12897270 3 18334858341929805404
12932764 1 18342464737495642779
14325111 11 18260549995839228785
14993402 34 17385445405737476165
16945 1 18334305287380651921
18186145 218 17987799760107044823
18342897 55 18187373094832781606
20201158 50 18341609330328873251
20645477 70 18263086681419753303
20711983 171 16702029715776794589
21293036 1 18408602543644124190
23402539 116 17418103083252941735
23557571 272 17846777451185354637
2748010 2 18191865617918856608

> <PUBCHEM_SHAPE_MULTIPOLES>
211.74
5.78
1.23
1.02
0.7
0.05
-0.04
-0.27
-0.73
-0.35
0.05
0.29
-0.02
0.71

> <PUBCHEM_SHAPE_SELFOVERLAP>
404.279

> <PUBCHEM_SHAPE_VOLUME>
129.6

> <PUBCHEM_COORDINATE_TYPE>
2
5
10

$$$$

