442708
  -OEChem-07051212593D

 37 39  0     0  0  0  0  0  0999 V2000
   -0.8796   -2.1951    0.3874 O   0  0  0  0  0  0  0  0  0  0  0  0
    3.7375   -1.7170    0.4453 O   0  0  0  0  0  0  0  0  0  0  0  0
   -4.9496    0.1002   -0.0170 O   0  0  0  0  0  0  0  0  0  0  0  0
    4.8694    0.7979    0.1389 O   0  0  0  0  0  0  0  0  0  0  0  0
   -0.7479    0.2425    0.0712 C   0  0  0  0  0  0  0  0  0  0  0  0
    0.6883    0.3427    0.0944 C   0  0  0  0  0  0  0  0  0  0  0  0
   -1.5212    1.4198   -0.1035 C   0  0  0  0  0  0  0  0  0  0  0  0
    1.2962    1.6161   -0.0586 C   0  0  0  0  0  0  0  0  0  0  0  0
   -1.4630   -0.9731    0.2134 C   0  0  0  0  0  0  0  0  0  0  0  0
   -0.8864    2.6556   -0.2507 C   0  0  0  0  0  0  0  0  0  0  0  0
    0.5011    2.7523   -0.2287 C   0  0  0  0  0  0  0  0  0  0  0  0
    1.5601   -0.7623    0.2629 C   0  0  0  0  0  0  0  0  0  0  0  0
   -2.9250    1.3559   -0.1303 C   0  0  0  0  0  0  0  0  0  0  0  0
    2.6952    1.7475   -0.0406 C   0  0  0  0  0  0  0  0  0  0  0  0
   -2.8593   -1.0227    0.1848 C   0  0  0  0  0  0  0  0  0  0  0  0
    2.9500   -0.6176    0.2790 C   0  0  0  0  0  0  0  0  0  0  0  0
   -3.5905    0.1424    0.0130 C   0  0  0  0  0  0  0  0  0  0  0  0
    3.5177    0.6378    0.1272 C   0  0  0  0  0  0  0  0  0  0  0  0
   -0.5738   -2.9375   -0.7897 C   0  0  0  0  0  0  0  0  0  0  0  0
    4.1445   -2.4068   -0.7346 C   0  0  0  0  0  0  0  0  0  0  0  0
   -5.5640   -1.1788    0.1363 C   0  0  0  0  0  0  0  0  0  0  0  0
   -1.4672    3.5662   -0.3855 H   0  0  0  0  0  0  0  0  0  0  0  0
    0.9539    3.7351   -0.3471 H   0  0  0  0  0  0  0  0  0  0  0  0
    1.2242   -1.7687    0.4525 H   0  0  0  0  0  0  0  0  0  0  0  0
   -3.5120    2.2633   -0.2650 H   0  0  0  0  0  0  0  0  0  0  0  0
    3.1471    2.7316   -0.1597 H   0  0  0  0  0  0  0  0  0  0  0  0
   -3.3193   -1.9987    0.3043 H   0  0  0  0  0  0  0  0  0  0  0  0
   -0.1248   -2.3094   -1.5663 H   0  0  0  0  0  0  0  0  0  0  0  0
   -1.4860   -3.4001   -1.1800 H   0  0  0  0  0  0  0  0  0  0  0  0
    0.1292   -3.7329   -0.5264 H   0  0  0  0  0  0  0  0  0  0  0  0
    5.0794    1.7398    0.0184 H   0  0  0  0  0  0  0  0  0  0  0  0
    4.7298   -1.7484   -1.3842 H   0  0  0  0  0  0  0  0  0  0  0  0
    3.2724   -2.7893   -1.2745 H   0  0  0  0  0  0  0  0  0  0  0  0
    4.7708   -3.2526   -0.4383 H   0  0  0  0  0  0  0  0  0  0  0  0
   -5.2998   -1.8533   -0.6852 H   0  0  0  0  0  0  0  0  0  0  0  0
   -6.6470   -1.0247    0.0874 H   0  0  0  0  0  0  0  0  0  0  0  0
   -5.3472   -1.6143    1.1177 H   0  0  0  0  0  0  0  0  0  0  0  0
  1  9  1  0  0  0  0
  1 19  1  0  0  0  0
  2 16  1  0  0  0  0
  2 20  1  0  0  0  0
  3 17  1  0  0  0  0
  3 21  1  0  0  0  0
  4 18  1  0  0  0  0
  4 31  1  0  0  0  0
  5  6  1  0  0  0  0
  5  7  1  0  0  0  0
  5  9  2  0  0  0  0
  6  8  1  0  0  0  0
  6 12  2  0  0  0  0
  7 10  1  0  0  0  0
  7 13  2  0  0  0  0
  8 11  1  0  0  0  0
  8 14  2  0  0  0  0
  9 15  1  0  0  0  0
 10 11  2  0  0  0  0
 10 22  1  0  0  0  0
 11 23  1  0  0  0  0
 12 16  1  0  0  0  0
 12 24  1  0  0  0  0
 13 17  1  0  0  0  0
 13 25  1  0  0  0  0
 14 18  1  0  0  0  0
 14 26  1  0  0  0  0
 15 17  2  0  0  0  0
 15 27  1  0  0  0  0
 16 18  2  0  0  0  0
 19 28  1  0  0  0  0
 19 29  1  0  0  0  0
 19 30  1  0  0  0  0
 20 32  1  0  0  0  0
 20 33  1  0  0  0  0
 20 34  1  0  0  0  0
 21 35  1  0  0  0  0
 21 36  1  0  0  0  0
 21 37  1  0  0  0  0
M  END
> <PUBCHEM_COMPOUND_CID>
442708

> <PUBCHEM_CONFORMER_RMSD>
0.6

> <PUBCHEM_CONFORMER_DIVERSEORDER>
1
2
3
4

> <PUBCHEM_MMFF94_PARTIAL_CHARGES>
24
1 -0.36
10 -0.15
11 -0.15
12 -0.15
13 -0.15
14 -0.15
15 -0.15
16 0.08
17 0.08
18 0.08
19 0.28
2 -0.36
20 0.28
21 0.28
22 0.15
23 0.15
24 0.15
25 0.15
26 0.15
27 0.15
3 -0.36
31 0.45
4 -0.53
9 0.08

> <PUBCHEM_EFFECTIVE_ROTOR_COUNT>
3

> <PUBCHEM_PHARMACOPHORE_FEATURES>
7
1 1 acceptor
1 2 acceptor
1 3 acceptor
1 4 donor
6 5 6 7 8 10 11 rings
6 5 7 9 13 15 17 rings
6 6 8 12 14 16 18 rings

> <PUBCHEM_HEAVY_ATOM_COUNT>
21

> <PUBCHEM_ATOM_DEF_STEREO_COUNT>
0

> <PUBCHEM_ATOM_UDEF_STEREO_COUNT>
0

> <PUBCHEM_BOND_DEF_STEREO_COUNT>
0

> <PUBCHEM_BOND_UDEF_STEREO_COUNT>
0

> <PUBCHEM_ISOTOPIC_ATOM_COUNT>
0

> <PUBCHEM_COMPONENT_COUNT>
1

> <PUBCHEM_CACTVS_TAUTO_COUNT>
3

> <PUBCHEM_CONFORMER_ID>
0006C15400000001

> <PUBCHEM_MMFF94_ENERGY>
103.657

> <PUBCHEM_FEATURE_SELFOVERLAP>
35.569

> <PUBCHEM_SHAPE_FINGERPRINT>
10616163 171 18265893566980141910
10693767 8 18189076277622171743
10967382 1 18411700954621344464
11578080 2 16954229980670870227
11680986 33 18270393868014334153
12011746 2 18410290293987583268
12236239 1 17967532372784766283
12403259 226 18266463281274848300
12507560 14 18334012787491976229
12553582 1 18338528443177001164
12715332 25 18188209780669851879
12838862 33 18267324069909383496
13140716 1 17978797813576675736
13862211 1 18412269419655827667
14178342 30 17831879948801925176
14790565 3 18411129260257602345
14866123 147 17614838943207098169
15196674 1 18411701027678090441
15536298 74 18409168831114208112
16945 1 18194967344162761321
17804303 29 18337951315336049652
1813 80 17489869345295688692
19591789 44 18339080492276727739
19930381 70 18338799047254356183
200 152 18259706683859715873
20028762 73 18114745907161042055
20510252 161 18262240031221840768
20645477 70 18413390921067493382
20739085 24 18197190703151646009
20905425 154 17904763636760421006
21267235 1 18412537700112943520
21279426 13 18269560601668018509
221490 88 18127686020573069491
22182313 1 18270419263750325604
23184049 59 18409444774194107971
2334 1 18411702101356701848
23402539 116 18334584512190177605
23463225 33 18412544314299490140
23559900 14 18337114578951271936
2748010 2 18340495559351873140
2871803 45 18273218628922985049
3004659 81 18202564012402626662
335352 9 18339924822664767085
34934 24 18339647720328494016
350125 39 18338232786044446160
465052 167 18341043039434494011
5104073 3 18337955691733853273
69090 78 18409733919940282731
7364860 26 18265615381716693640
7832392 63 18193842548294336554
9709674 26 18412259515239742474

> <PUBCHEM_SHAPE_MULTIPOLES>
408.69
8.76
3.09
0.69
2.91
0.29
-0.04
3.17
0.27
-1.02
-0.58
-0.11
0.15
0.32

> <PUBCHEM_SHAPE_SELFOVERLAP>
904.294

> <PUBCHEM_SHAPE_VOLUME>
222.2

> <PUBCHEM_COORDINATE_TYPE>
2
5
10

$$$$

