5401
  -OEChem-07051212522D

 53 56  0     1  0  0  0  0  0999 V2000
    3.4782    0.4105    0.0000 O   0  0  0  0  0  0  0  0  0  0  0  0
    4.4487    2.9050    0.0000 O   0  0  0  0  0  0  0  0  0  0  0  0
   12.3090    0.4292    0.0000 O   0  0  0  0  0  0  0  0  0  0  0  0
   12.3090   -1.6192    0.0000 O   0  0  0  0  0  0  0  0  0  0  0  0
    5.3147    1.4050    0.0000 N   0  0  0  0  0  0  0  0  0  0  0  0
    7.0468    0.4050    0.0000 N   0  0  0  0  0  0  0  0  0  0  0  0
    8.7788    0.4050    0.0000 N   0  0  0  0  0  0  0  0  0  0  0  0
    7.9128   -1.0950    0.0000 N   0  0  0  0  0  0  0  0  0  0  0  0
    8.7788   -2.5950    0.0000 N   0  0  0  0  0  0  0  0  0  0  0  0
    3.5827    1.4050    0.0000 C   0  0  3  0  0  0  0  0  0  0  0  0
    5.3147    0.4050    0.0000 C   0  0  0  0  0  0  0  0  0  0  0  0
    6.1808    1.9050    0.0000 C   0  0  0  0  0  0  0  0  0  0  0  0
    7.0468    1.4050    0.0000 C   0  0  0  0  0  0  0  0  0  0  0  0
    6.1808   -0.0950    0.0000 C   0  0  0  0  0  0  0  0  0  0  0  0
    2.6691    1.8117    0.0000 C   0  0  0  0  0  0  0  0  0  0  0  0
    4.4487    1.9050    0.0000 C   0  0  0  0  0  0  0  0  0  0  0  0
    2.0000    1.0686    0.0000 C   0  0  0  0  0  0  0  0  0  0  0  0
    2.5000    0.2026    0.0000 C   0  0  0  0  0  0  0  0  0  0  0  0
    7.9128   -0.0950    0.0000 C   0  0  0  0  0  0  0  0  0  0  0  0
    9.6448   -0.0950    0.0000 C   0  0  0  0  0  0  0  0  0  0  0  0
    9.6448   -1.0950    0.0000 C   0  0  0  0  0  0  0  0  0  0  0  0
    8.7788   -1.5950    0.0000 C   0  0  0  0  0  0  0  0  0  0  0  0
   10.5388    0.4397    0.0000 C   0  0  0  0  0  0  0  0  0  0  0  0
   10.5388   -1.6297    0.0000 C   0  0  0  0  0  0  0  0  0  0  0  0
   11.4449   -0.0742    0.0000 C   0  0  0  0  0  0  0  0  0  0  0  0
   11.4449   -1.1158    0.0000 C   0  0  0  0  0  0  0  0  0  0  0  0
   12.3051    1.4291    0.0000 C   0  0  0  0  0  0  0  0  0  0  0  0
   13.1769   -1.1225    0.0000 C   0  0  0  0  0  0  0  0  0  0  0  0
    4.1026    1.0673    0.0000 H   0  0  0  0  0  0  0  0  0  0  0  0
    6.5793    2.3800    0.0000 H   0  0  0  0  0  0  0  0  0  0  0  0
    5.7822    2.3800    0.0000 H   0  0  0  0  0  0  0  0  0  0  0  0
    4.7042    0.5127    0.0000 H   0  0  0  0  0  0  0  0  0  0  0  0
    5.1027   -0.1776    0.0000 H   0  0  0  0  0  0  0  0  0  0  0  0
    7.6574    1.2973    0.0000 H   0  0  0  0  0  0  0  0  0  0  0  0
    7.2588    1.9876    0.0000 H   0  0  0  0  0  0  0  0  0  0  0  0
    5.7822   -0.5699    0.0000 H   0  0  0  0  0  0  0  0  0  0  0  0
    6.5793   -0.5699    0.0000 H   0  0  0  0  0  0  0  0  0  0  0  0
    2.9791    2.3487    0.0000 H   0  0  0  0  0  0  0  0  0  0  0  0
    2.1675    2.1762    0.0000 H   0  0  0  0  0  0  0  0  0  0  0  0
    1.5851    1.5293    0.0000 H   0  0  0  0  0  0  0  0  0  0  0  0
    1.4984    0.7042    0.0000 H   0  0  0  0  0  0  0  0  0  0  0  0
    1.9336   -0.0496    0.0000 H   0  0  0  0  0  0  0  0  0  0  0  0
    2.6916   -0.3871    0.0000 H   0  0  0  0  0  0  0  0  0  0  0  0
   10.5316    1.0596    0.0000 H   0  0  0  0  0  0  0  0  0  0  0  0
   10.5316   -2.2496    0.0000 H   0  0  0  0  0  0  0  0  0  0  0  0
    8.2419   -2.9050    0.0000 H   0  0  0  0  0  0  0  0  0  0  0  0
    9.3158   -2.9050    0.0000 H   0  0  0  0  0  0  0  0  0  0  0  0
   12.9251    1.4315    0.0000 H   0  0  0  0  0  0  0  0  0  0  0  0
   12.3027    2.0491    0.0000 H   0  0  0  0  0  0  0  0  0  0  0  0
   11.6851    1.4268    0.0000 H   0  0  0  0  0  0  0  0  0  0  0  0
   13.4848   -1.6606    0.0000 H   0  0  0  0  0  0  0  0  0  0  0  0
   13.7150   -0.8146    0.0000 H   0  0  0  0  0  0  0  0  0  0  0  0
   12.8690   -0.5844    0.0000 H   0  0  0  0  0  0  0  0  0  0  0  0
  1 10  1  0  0  0  0
  1 18  1  0  0  0  0
  2 16  2  0  0  0  0
  3 25  1  0  0  0  0
  3 27  1  0  0  0  0
  4 26  1  0  0  0  0
  4 28  1  0  0  0  0
  5 11  1  0  0  0  0
  5 12  1  0  0  0  0
  5 16  1  0  0  0  0
  6 13  1  0  0  0  0
  6 14  1  0  0  0  0
  6 19  1  0  0  0  0
  7 19  2  0  0  0  0
  7 20  1  0  0  0  0
  8 19  1  0  0  0  0
  8 22  2  0  0  0  0
  9 22  1  0  0  0  0
  9 46  1  0  0  0  0
  9 47  1  0  0  0  0
 10 15  1  0  0  0  0
 10 16  1  0  0  0  0
 10 29  1  0  0  0  0
 11 14  1  0  0  0  0
 11 32  1  0  0  0  0
 11 33  1  0  0  0  0
 12 13  1  0  0  0  0
 12 30  1  0  0  0  0
 12 31  1  0  0  0  0
 13 34  1  0  0  0  0
 13 35  1  0  0  0  0
 14 36  1  0  0  0  0
 14 37  1  0  0  0  0
 15 17  1  0  0  0  0
 15 38  1  0  0  0  0
 15 39  1  0  0  0  0
 17 18  1  0  0  0  0
 17 40  1  0  0  0  0
 17 41  1  0  0  0  0
 18 42  1  0  0  0  0
 18 43  1  0  0  0  0
 20 21  1  0  0  0  0
 20 23  2  0  0  0  0
 21 22  1  0  0  0  0
 21 24  2  0  0  0  0
 23 25  1  0  0  0  0
 23 44  1  0  0  0  0
 24 26  1  0  0  0  0
 24 45  1  0  0  0  0
 25 26  2  0  0  0  0
 27 48  1  0  0  0  0
 27 49  1  0  0  0  0
 27 50  1  0  0  0  0
 28 51  1  0  0  0  0
 28 52  1  0  0  0  0
 28 53  1  0  0  0  0
M  END
> <PUBCHEM_COMPOUND_CID>
5401

> <PUBCHEM_COMPOUND_CANONICALIZED>
1

> <PUBCHEM_CACTVS_COMPLEXITY>
544

> <PUBCHEM_CACTVS_HBOND_ACCEPTOR>
8

> <PUBCHEM_CACTVS_HBOND_DONOR>
1

> <PUBCHEM_CACTVS_ROTATABLE_BOND>
4

> <PUBCHEM_CACTVS_SUBSKEYS>
AAADceB7uAAAAAAAAAAAAAAAAAAAASAAAAA8WIAAAAAAAACx8AAAHgAQAAAADBzhngYz9vdIFACoAydydAKCiCkhIqABmCF+7JiPbrLE+N+XNCpuxhva6Ce41BMOIEABAgACQABAgAIEAASAAAAAAAAAAA==

> <PUBCHEM_IUPAC_OPENEYE_NAME>
[4-(4-amino-6,7-dimethoxy-quinazolin-2-yl)piperazin-1-yl]-tetrahydrofuran-2-yl-methanone

> <PUBCHEM_IUPAC_CAS_NAME>
[4-(4-amino-6,7-dimethoxy-2-quinazolinyl)-1-piperazinyl]-(2-oxolanyl)methanone

> <PUBCHEM_IUPAC_NAME>
[4-(4-amino-6,7-dimethoxyquinazolin-2-yl)piperazin-1-yl]-(oxolan-2-yl)methanone

> <PUBCHEM_IUPAC_SYSTEMATIC_NAME>
[4-(4-azanyl-6,7-dimethoxy-quinazolin-2-yl)piperazin-1-yl]-(oxolan-2-yl)methanone

> <PUBCHEM_IUPAC_TRADITIONAL_NAME>
[4-(4-amino-6,7-dimethoxy-quinazolin-2-yl)piperazino]-(tetrahydrofuryl)methanone

> <PUBCHEM_IUPAC_INCHI>
InChI=1S/C19H25N5O4/c1-26-15-10-12-13(11-16(15)27-2)21-19(22-17(12)20)24-7-5-23(6-8-24)18(25)14-4-3-9-28-14/h10-11,14H,3-9H2,1-2H3,(H2,20,21,22)

> <PUBCHEM_IUPAC_INCHIKEY>
VCKUSRYTPJJLNI-UHFFFAOYSA-N

> <PUBCHEM_XLOGP3>
1.4

> <PUBCHEM_EXACT_MASS>
387.190654

> <PUBCHEM_MOLECULAR_FORMULA>
C19H25N5O4

> <PUBCHEM_MOLECULAR_WEIGHT>
387.4329

> <PUBCHEM_OPENEYE_CAN_SMILES>
COC1=C(C=C2C(=C1)C(=NC(=N2)N3CCN(CC3)C(=O)C4CCCO4)N)OC

> <PUBCHEM_OPENEYE_ISO_SMILES>
COC1=C(C=C2C(=C1)C(=NC(=N2)N3CCN(CC3)C(=O)C4CCCO4)N)OC

> <PUBCHEM_CACTVS_TPSA>
103

> <PUBCHEM_MONOISOTOPIC_WEIGHT>
387.190654

> <PUBCHEM_TOTAL_CHARGE>
0

> <PUBCHEM_HEAVY_ATOM_COUNT>
28

> <PUBCHEM_ATOM_DEF_STEREO_COUNT>
0

> <PUBCHEM_ATOM_UDEF_STEREO_COUNT>
1

> <PUBCHEM_BOND_DEF_STEREO_COUNT>
0

> <PUBCHEM_BOND_UDEF_STEREO_COUNT>
0

> <PUBCHEM_ISOTOPIC_ATOM_COUNT>
0

> <PUBCHEM_COMPONENT_COUNT>
1

> <PUBCHEM_CACTVS_TAUTO_COUNT>
3

> <PUBCHEM_COORDINATE_TYPE>
1
5
255

> <PUBCHEM_BONDANNOTATIONS>
10  16  3
20  21  8
20  23  8
21  22  8
21  24  8
23  25  8
24  26  8
25  26  8
7  19  8
7  20  8
8  19  8
8  22  8

$$$$

