5280900
  -OEChem-07051212513D

 52 51  0     1  0  0  0  0  0999 V2000
    1.8227   -0.6513   -0.0399 P   0  0  2  0  0  0  0  0  0  0  0  0
    4.7498   -0.9187   -0.1606 P   0  0  0  0  0  0  0  0  0  0  0  0
    1.8367    0.9050   -0.4516 O   0  0  0  0  0  0  0  0  0  0  0  0
    3.2251   -1.2379   -0.5903 O   0  0  0  0  0  0  0  0  0  0  0  0
    0.7278   -1.3271   -1.0204 O   0  0  0  0  0  0  0  0  0  0  0  0
    1.5828   -0.9003    1.4210 O   0  0  0  0  0  0  0  0  0  0  0  0
    4.8385   -1.4866    1.3501 O   0  0  0  0  0  0  0  0  0  0  0  0
    5.6044   -1.9895   -1.0180 O   0  0  0  0  0  0  0  0  0  0  0  0
    5.1620    0.5135   -0.3325 O   0  0  0  0  0  0  0  0  0  0  0  0
    0.8886    1.8010    0.1437 C   0  0  1  0  0  0  0  0  0  0  0  0
   -0.4786    1.0813    0.2532 C   0  0  0  0  0  0  0  0  0  0  0  0
   -1.6144    1.9440    0.8216 C   0  0  0  0  0  0  0  0  0  0  0  0
    1.4048    2.1155    1.5566 C   0  0  0  0  0  0  0  0  0  0  0  0
   -2.8970    1.1636    0.9117 C   0  0  0  0  0  0  0  0  0  0  0  0
    0.8081    3.0078   -0.7664 C   0  0  0  0  0  0  0  0  0  0  0  0
   -3.8396    1.0456   -0.0435 C   0  0  0  0  0  0  0  0  0  0  0  0
   -5.1265    0.2708    0.1300 C   0  0  0  0  0  0  0  0  0  0  0  0
   -4.9992   -1.1739   -0.3584 C   0  0  0  0  0  0  0  0  0  0  0  0
   -3.6731    1.7341   -1.3717 C   0  0  0  0  0  0  0  0  0  0  0  0
    1.1303    4.2735   -0.4715 C   0  0  0  0  0  0  0  0  0  0  0  0
   -3.9864   -1.9312    0.4534 C   0  0  0  0  0  0  0  0  0  0  0  0
   -2.8525   -2.5107    0.0157 C   0  0  0  0  0  0  0  0  0  0  0  0
   -1.9601   -3.2595    0.9689 C   0  0  0  0  0  0  0  0  0  0  0  0
   -2.3540   -2.4691   -1.4013 C   0  0  0  0  0  0  0  0  0  0  0  0
   -0.7702    0.7260   -0.7445 H   0  0  0  0  0  0  0  0  0  0  0  0
   -0.4266    0.1868    0.8798 H   0  0  0  0  0  0  0  0  0  0  0  0
   -1.3636    2.2757    1.8360 H   0  0  0  0  0  0  0  0  0  0  0  0
   -1.7536    2.8612    0.2410 H   0  0  0  0  0  0  0  0  0  0  0  0
    0.8559    2.9406    2.0236 H   0  0  0  0  0  0  0  0  0  0  0  0
    1.3194    1.2694    2.2418 H   0  0  0  0  0  0  0  0  0  0  0  0
    2.4679    2.3843    1.5317 H   0  0  0  0  0  0  0  0  0  0  0  0
   -3.0588    0.6513    1.8587 H   0  0  0  0  0  0  0  0  0  0  0  0
    0.4521    2.8119   -1.7771 H   0  0  0  0  0  0  0  0  0  0  0  0
   -5.9378    0.7744   -0.4099 H   0  0  0  0  0  0  0  0  0  0  0  0
   -5.4231    0.2792    1.1875 H   0  0  0  0  0  0  0  0  0  0  0  0
   -5.9692   -1.6736   -0.2484 H   0  0  0  0  0  0  0  0  0  0  0  0
   -4.7649   -1.1854   -1.4272 H   0  0  0  0  0  0  0  0  0  0  0  0
   -2.6799    2.1517   -1.5481 H   0  0  0  0  0  0  0  0  0  0  0  0
   -4.4007    2.5473   -1.4639 H   0  0  0  0  0  0  0  0  0  0  0  0
   -3.8544    1.0230   -2.1851 H   0  0  0  0  0  0  0  0  0  0  0  0
    1.5018    4.5747    0.5000 H   0  0  0  0  0  0  0  0  0  0  0  0
    1.0265    5.0476   -1.2249 H   0  0  0  0  0  0  0  0  0  0  0  0
   -4.2382   -2.0311    1.5087 H   0  0  0  0  0  0  0  0  0  0  0  0
    0.4794   -2.2642   -0.8728 H   0  0  0  0  0  0  0  0  0  0  0  0
   -0.9663   -2.8015    0.9967 H   0  0  0  0  0  0  0  0  0  0  0  0
   -2.3512   -3.2608    1.9918 H   0  0  0  0  0  0  0  0  0  0  0  0
   -1.8559   -4.3027    0.6534 H   0  0  0  0  0  0  0  0  0  0  0  0
   -1.8025   -1.5433   -1.5829 H   0  0  0  0  0  0  0  0  0  0  0  0
   -1.6930   -3.3161   -1.6131 H   0  0  0  0  0  0  0  0  0  0  0  0
   -3.1749   -2.5311   -2.1218 H   0  0  0  0  0  0  0  0  0  0  0  0
    5.6589   -1.3367    1.8664 H   0  0  0  0  0  0  0  0  0  0  0  0
    6.5840   -1.9425   -0.9956 H   0  0  0  0  0  0  0  0  0  0  0  0
  1  3  1  0  0  0  0
  1  4  1  0  0  0  0
  1  5  1  0  0  0  0
  1  6  2  0  0  0  0
  2  4  1  0  0  0  0
  2  7  1  0  0  0  0
  2  8  1  0  0  0  0
  2  9  2  0  0  0  0
  3 10  1  0  0  0  0
  5 44  1  0  0  0  0
  7 51  1  0  0  0  0
  8 52  1  0  0  0  0
 10 11  1  0  0  0  0
 10 13  1  0  0  0  0
 10 15  1  0  0  0  0
 11 12  1  0  0  0  0
 11 25  1  0  0  0  0
 11 26  1  0  0  0  0
 12 14  1  0  0  0  0
 12 27  1  0  0  0  0
 12 28  1  0  0  0  0
 13 29  1  0  0  0  0
 13 30  1  0  0  0  0
 13 31  1  0  0  0  0
 14 16  2  0  0  0  0
 14 32  1  0  0  0  0
 15 20  2  0  0  0  0
 15 33  1  0  0  0  0
 16 17  1  0  0  0  0
 16 19  1  0  0  0  0
 17 18  1  0  0  0  0
 17 34  1  0  0  0  0
 17 35  1  0  0  0  0
 18 21  1  0  0  0  0
 18 36  1  0  0  0  0
 18 37  1  0  0  0  0
 19 38  1  0  0  0  0
 19 39  1  0  0  0  0
 19 40  1  0  0  0  0
 20 41  1  0  0  0  0
 20 42  1  0  0  0  0
 21 22  2  0  0  0  0
 21 43  1  0  0  0  0
 22 23  1  0  0  0  0
 22 24  1  0  0  0  0
 23 45  1  0  0  0  0
 23 46  1  0  0  0  0
 23 47  1  0  0  0  0
 24 48  1  0  0  0  0
 24 49  1  0  0  0  0
 24 50  1  0  0  0  0
M  END
> <PUBCHEM_COMPOUND_CID>
5280900

> <PUBCHEM_CONFORMER_RMSD>
1.4

> <PUBCHEM_CONFORMER_DIVERSEORDER>
3
57
31
49
37
60
39
66
59
5
35
43
6
17
38
18
32
36
21
45
55
52
13
34
24
44
2
26
29
40
1
63
67
30
10
50
8
68
20
47
11
62
12
48
53
33
7
27
19
9
15
56
42
41
46
23
61
14
28
16
58
65
4
54
64
22
25
51

> <PUBCHEM_MMFF94_PARTIAL_CHARGES>
30
1 1.51
10 0.42
12 0.14
14 -0.29
15 -0.29
16 -0.28
17 0.14
18 0.14
19 0.14
2 1.51
20 -0.3
21 -0.29
22 -0.28
23 0.14
24 0.14
3 -0.55
32 0.15
33 0.15
4 -0.54
41 0.15
42 0.15
43 0.15
44 0.5
5 -0.77
51 0.5
52 0.5
6 -0.7
7 -0.77
8 -0.77
9 -0.7

> <PUBCHEM_EFFECTIVE_ROTOR_COUNT>
11

> <PUBCHEM_PHARMACOPHORE_FEATURES>
10
1 19 hydrophobe
1 20 hydrophobe
1 5 acceptor
1 6 acceptor
1 7 acceptor
1 8 acceptor
1 9 acceptor
3 22 23 24 hydrophobe
4 16 17 18 21 hydrophobe
4 2 7 8 9 anion

> <PUBCHEM_HEAVY_ATOM_COUNT>
24

> <PUBCHEM_ATOM_DEF_STEREO_COUNT>
0

> <PUBCHEM_ATOM_UDEF_STEREO_COUNT>
1

> <PUBCHEM_BOND_DEF_STEREO_COUNT>
1

> <PUBCHEM_BOND_UDEF_STEREO_COUNT>
0

> <PUBCHEM_ISOTOPIC_ATOM_COUNT>
0

> <PUBCHEM_COMPONENT_COUNT>
1

> <PUBCHEM_CACTVS_TAUTO_COUNT>
1

> <PUBCHEM_CONFORMER_ID>
0050948400000003

> <PUBCHEM_MMFF94_ENERGY>
-10.4186

> <PUBCHEM_FEATURE_SELFOVERLAP>
50.796

> <PUBCHEM_SHAPE_FINGERPRINT>
10616163 171 18049156662655649901
10675989 125 16901033873364405061
10759866 29 18123744249739018061
11135609 12 18197490732354790785
12107698 1 18337112250947641967
12553582 1 18340498857997201427
12633257 1 18261658308593661123
13402501 40 18407757049858304095
14251757 5 18342452642757435274
14466204 15 18411142449870007946
15042514 8 18265050404891740230
17492 89 18195525883659757323
20600515 1 18189884482296348476
21634736 98 18339641131637736905
221490 88 18197209257146152809
23402539 116 18264488554001365348
23559900 14 18336552620993176729
23566358 27 18198338447203945533
4280585 95 18413112779418096648
9709674 26 18196092145180111331

> <PUBCHEM_SHAPE_MULTIPOLES>
460.52
10.82
4.31
1.25
5.3
1.7
0.09
-6.42
-1.12
0.06
-0.35
0.12
-0.06
0.26

> <PUBCHEM_SHAPE_SELFOVERLAP>
863.009

> <PUBCHEM_SHAPE_VOLUME>
288.7

> <PUBCHEM_COORDINATE_TYPE>
2
5
10

$$$$

