46173789
  -OEChem-07051213022D

 59 61  0     1  0  0  0  0  0999 V2000
    6.0010   -0.6375    0.0000 P   0  0  3  0  0  0  0  0  0  0  0  0
    5.1350   -2.1374    0.0000 P   0  0  3  0  0  0  0  0  0  0  0  0
    7.6761    2.4503    0.0000 O   0  0  0  0  0  0  0  0  0  0  0  0
    5.1070    2.1413    0.0000 O   0  0  0  0  0  0  0  0  0  0  0  0
    6.0010    0.3625    0.0000 O   0  0  0  0  0  0  0  0  0  0  0  0
    5.1350   -4.1374    0.0000 O   0  0  0  0  0  0  0  0  0  0  0  0
    4.2690   -2.6374    0.0000 O   0  0  0  0  0  0  0  0  0  0  0  0
    2.5369   -3.6374    0.0000 O   0  0  0  0  0  0  0  0  0  0  0  0
    6.0010   -1.6374    0.0000 O   0  0  0  0  0  0  0  0  0  0  0  0
    2.5369   -5.6374    0.0000 O   0  0  0  0  0  0  0  0  0  0  0  0
    6.5536    5.2285    0.0000 O   0  0  0  0  0  0  0  0  0  0  0  0
    4.2690   -6.6374    0.0000 O   0  0  0  0  0  0  0  0  0  0  0  0
    7.0010   -0.6375    0.0000 O   0  0  0  0  0  0  0  0  0  0  0  0
    5.0010   -0.6375    0.0000 O   0  0  0  0  0  0  0  0  0  0  0  0
    4.6350   -1.2714    0.0000 O   0  0  0  0  0  0  0  0  0  0  0  0
    9.7182    6.6374    0.0000 O   0  0  0  0  0  0  0  0  0  0  0  0
    5.6350   -3.0035    0.0000 O   0  0  0  0  0  0  0  0  0  0  0  0
    7.9548    4.2104    0.0000 N   0  0  0  0  0  0  0  0  0  0  0  0
    8.1359    5.9330    0.0000 N   0  0  0  0  0  0  0  0  0  0  0  0
    6.0580    2.4503    0.0000 C   0  0  2  0  0  0  0  0  0  0  0  0
    6.8671    1.8626    0.0000 C   0  0  1  0  0  0  0  0  0  0  0  0
    6.3671    3.4014    0.0000 C   0  0  0  0  0  0  0  0  0  0  0  0
    7.3671    3.4014    0.0000 C   0  0  1  0  0  0  0  0  0  0  0  0
    6.8671    0.8625    0.0000 C   0  0  0  0  0  0  0  0  0  0  0  0
    3.4030   -4.1374    0.0000 C   0  0  1  0  0  0  0  0  0  0  0  0
    4.2690   -3.6374    0.0000 C   0  0  2  0  0  0  0  0  0  0  0  0
    3.4030   -5.1374    0.0000 C   0  0  1  0  0  0  0  0  0  0  0  0
    8.9494    4.1059    0.0000 C   0  0  0  0  0  0  0  0  0  0  0  0
    7.5481    5.1240    0.0000 C   0  0  0  0  0  0  0  0  0  0  0  0
    5.1350   -5.1374    0.0000 C   0  0  1  0  0  0  0  0  0  0  0  0
    4.2690   -5.6374    0.0000 C   0  0  0  0  0  0  0  0  0  0  0  0
    9.5372    4.9149    0.0000 C   0  0  0  0  0  0  0  0  0  0  0  0
    6.0010   -5.6374    0.0000 C   0  0  0  0  0  0  0  0  0  0  0  0
    9.1304    5.8284    0.0000 C   0  0  0  0  0  0  0  0  0  0  0  0
   10.5317    4.8104    0.0000 C   0  0  0  0  0  0  0  0  0  0  0  0
    5.6196    2.8887    0.0000 H   0  0  0  0  0  0  0  0  0  0  0  0
    7.4195    1.5811    0.0000 H   0  0  0  0  0  0  0  0  0  0  0  0
    6.4319    4.0180    0.0000 H   0  0  0  0  0  0  0  0  0  0  0  0
    5.7606    3.5303    0.0000 H   0  0  0  0  0  0  0  0  0  0  0  0
    7.0856    3.9538    0.0000 H   0  0  0  0  0  0  0  0  0  0  0  0
    7.0791    0.2799    0.0000 H   0  0  0  0  0  0  0  0  0  0  0  0
    7.4776    0.9702    0.0000 H   0  0  0  0  0  0  0  0  0  0  0  0
    3.4030   -3.5175    0.0000 H   0  0  0  0  0  0  0  0  0  0  0  0
    4.6462    2.5562    0.0000 H   0  0  0  0  0  0  0  0  0  0  0  0
    3.7320   -3.3275    0.0000 H   0  0  0  0  0  0  0  0  0  0  0  0
    3.4030   -5.7575    0.0000 H   0  0  0  0  0  0  0  0  0  0  0  0
    9.2015    3.5395    0.0000 H   0  0  0  0  0  0  0  0  0  0  0  0
    5.6720   -4.8275    0.0000 H   0  0  0  0  0  0  0  0  0  0  0  0
    7.8837    6.4994    0.0000 H   0  0  0  0  0  0  0  0  0  0  0  0
    5.6910   -6.1744    0.0000 H   0  0  0  0  0  0  0  0  0  0  0  0
    6.5380   -5.9474    0.0000 H   0  0  0  0  0  0  0  0  0  0  0  0
    6.3110   -5.1005    0.0000 H   0  0  0  0  0  0  0  0  0  0  0  0
    2.0000   -3.9474    0.0000 H   0  0  0  0  0  0  0  0  0  0  0  0
    2.5369   -6.2575    0.0000 H   0  0  0  0  0  0  0  0  0  0  0  0
   10.4669    4.1938    0.0000 H   0  0  0  0  0  0  0  0  0  0  0  0
   11.1483    4.7456    0.0000 H   0  0  0  0  0  0  0  0  0  0  0  0
   10.5965    5.4270    0.0000 H   0  0  0  0  0  0  0  0  0  0  0  0
    7.3110   -1.1744    0.0000 H   0  0  0  0  0  0  0  0  0  0  0  0
    4.0150   -1.2714    0.0000 H   0  0  0  0  0  0  0  0  0  0  0  0
  1  5  1  0  0  0  0
  1  9  1  0  0  0  0
  1 13  1  0  0  0  0
  1 14  2  0  0  0  0
  2  7  1  0  0  0  0
  2  9  1  0  0  0  0
  2 15  1  0  0  0  0
  2 17  2  0  0  0  0
  3 21  1  0  0  0  0
  3 23  1  0  0  0  0
 20  4  1  1  0  0  0
  4 44  1  0  0  0  0
  5 24  1  0  0  0  0
  6 26  1  0  0  0  0
  6 30  1  0  0  0  0
 26  7  1  1  0  0  0
 25  8  1  1  0  0  0
  8 53  1  0  0  0  0
 27 10  1  1  0  0  0
 10 54  1  0  0  0  0
 11 29  2  0  0  0  0
 12 31  2  0  0  0  0
 13 58  1  0  0  0  0
 15 59  1  0  0  0  0
 16 34  2  0  0  0  0
 23 18  1  6  0  0  0
 18 28  1  0  0  0  0
 18 29  1  0  0  0  0
 19 29  1  0  0  0  0
 19 34  1  0  0  0  0
 19 49  1  0  0  0  0
 20 21  1  0  0  0  0
 20 22  1  0  0  0  0
 20 36  1  0  0  0  0
 21 24  1  6  0  0  0
 21 37  1  0  0  0  0
 22 23  1  0  0  0  0
 22 38  1  0  0  0  0
 22 39  1  0  0  0  0
 23 40  1  0  0  0  0
 24 41  1  0  0  0  0
 24 42  1  0  0  0  0
 25 26  1  0  0  0  0
 25 27  1  0  0  0  0
 25 43  1  0  0  0  0
 26 45  1  0  0  0  0
 27 31  1  0  0  0  0
 27 46  1  0  0  0  0
 28 32  2  0  0  0  0
 28 47  1  0  0  0  0
 30 31  1  0  0  0  0
 30 33  1  6  0  0  0
 30 48  1  0  0  0  0
 32 34  1  0  0  0  0
 32 35  1  0  0  0  0
 33 50  1  0  0  0  0
 33 51  1  0  0  0  0
 33 52  1  0  0  0  0
 35 55  1  0  0  0  0
 35 56  1  0  0  0  0
 35 57  1  0  0  0  0
M  END
> <PUBCHEM_COMPOUND_CID>
46173789

> <PUBCHEM_COMPOUND_CANONICALIZED>
1

> <PUBCHEM_CACTVS_COMPLEXITY>
1000

> <PUBCHEM_CACTVS_HBOND_ACCEPTOR>
15

> <PUBCHEM_CACTVS_HBOND_DONOR>
6

> <PUBCHEM_CACTVS_ROTATABLE_BOND>
8

> <PUBCHEM_CACTVS_SUBSKEYS>
AAADceB7PAMAAAAAAAAAAAAAAAAAASAAAAAkQAAAAAAAAAAAAAAAHgAQCCAADBTxgAcDCAPABxCIQoFWUIKAAAAAAAAAAAFIAECREBYAgQQOQAAPJyIHAMHycAYAAAAAAAAAAAAAAAAAAAAAAAAAAAAAAA==

> <PUBCHEM_IUPAC_OPENEYE_NAME>
[(2R,3R,4S,6R)-3,4-dihydroxy-6-methyl-5-oxo-tetrahydropyran-2-yl] [hydroxy-[[(2R,3S,5R)-3-hydroxy-5-(5-methyl-2,4-dioxo-pyrimidin-1-yl)tetrahydrofuran-2-yl]methoxy]phosphoryl] hydrogen phosphate

> <PUBCHEM_IUPAC_CAS_NAME>
[(2R,3R,4S,6R)-3,4-dihydroxy-6-methyl-5-oxo-2-oxanyl] [hydroxy-[[(2R,3S,5R)-3-hydroxy-5-(5-methyl-2,4-dioxo-1-pyrimidinyl)-2-oxolanyl]methoxy]phosphoryl] hydrogen phosphate

> <PUBCHEM_IUPAC_NAME>
[(2R,3R,4S,6R)-3,4-dihydroxy-6-methyl-5-oxooxan-2-yl] [hydroxy-[[(2R,3S,5R)-3-hydroxy-5-(5-methyl-2,4-dioxopyrimidin-1-yl)oxolan-2-yl]methoxy]phosphoryl] hydrogen phosphate

> <PUBCHEM_IUPAC_SYSTEMATIC_NAME>
[[(2R,3S,5R)-5-[5-methyl-2,4-bis(oxidanylidene)pyrimidin-1-yl]-3-oxidanyl-oxolan-2-yl]methoxy-oxidanyl-phosphoryl] [(2R,3R,4S,6R)-6-methyl-3,4-bis(oxidanyl)-5-oxidanylidene-oxan-2-yl] hydrogen phosphate

> <PUBCHEM_IUPAC_TRADITIONAL_NAME>
[(2R,3R,4S,6R)-3,4-dihydroxy-5-keto-6-methyl-tetrahydropyran-2-yl] [[(2R,3S,5R)-5-(2,4-diketo-5-methyl-pyrimidin-1-yl)-3-hydroxy-tetrahydrofuran-2-yl]methoxy-hydroxy-phosphoryl] hydrogen phosphate

> <PUBCHEM_IUPAC_INCHI>
InChI=1S/C16H24N2O15P2/c1-6-4-18(16(24)17-14(6)23)10-3-8(19)9(31-10)5-29-34(25,26)33-35(27,28)32-15-13(22)12(21)11(20)7(2)30-15/h4,7-10,12-13,15,19,21-22H,3,5H2,1-2H3,(H,25,26)(H,27,28)(H,17,23,24)/t7-,8+,9-,10-,12-,13-,15-/m1/s1

> <PUBCHEM_IUPAC_INCHIKEY>
PSXWNITXWWECNY-MCPUFDOLSA-N

> <PUBCHEM_XLOGP3_AA>
-4.4

> <PUBCHEM_EXACT_MASS>
546.065191

> <PUBCHEM_MOLECULAR_FORMULA>
C16H24N2O15P2

> <PUBCHEM_MOLECULAR_WEIGHT>
546.313684

> <PUBCHEM_OPENEYE_CAN_SMILES>
CC1C(=O)C(C(C(O1)OP(=O)(O)OP(=O)(O)OCC2C(CC(O2)N3C=C(C(=O)NC3=O)C)O)O)O

> <PUBCHEM_OPENEYE_ISO_SMILES>
C[C@@H]1C(=O)[C@H]([C@H]([C@H](O1)OP(=O)(O)OP(=O)(O)OC[C@@H]2[C@H](C[C@@H](O2)N3C=C(C(=O)NC3=O)C)O)O)O

> <PUBCHEM_CACTVS_TPSA>
248

> <PUBCHEM_MONOISOTOPIC_WEIGHT>
546.065191

> <PUBCHEM_TOTAL_CHARGE>
0

> <PUBCHEM_HEAVY_ATOM_COUNT>
35

> <PUBCHEM_ATOM_DEF_STEREO_COUNT>
7

> <PUBCHEM_ATOM_UDEF_STEREO_COUNT>
0

> <PUBCHEM_BOND_DEF_STEREO_COUNT>
0

> <PUBCHEM_BOND_UDEF_STEREO_COUNT>
0

> <PUBCHEM_ISOTOPIC_ATOM_COUNT>
0

> <PUBCHEM_COMPONENT_COUNT>
1

> <PUBCHEM_CACTVS_TAUTO_COUNT>
21

> <PUBCHEM_COORDINATE_TYPE>
1
5
255

> <PUBCHEM_BONDANNOTATIONS>
27  10  5
23  18  6
18  28  8
18  29  8
19  29  8
19  34  8
21  24  6
28  32  8
30  33  6
32  34  8
20  4  5
26  7  5
25  8  5

$$$$

