5319943
  -OEChem-07051213103D

 73 77  0     1  0  0  0  0  0999 V2000
   -3.2369    0.8779   -0.7533 O   0  0  0  0  0  0  0  0  0  0  0  0
   -5.0421   -0.3716    0.0364 O   0  0  0  0  0  0  0  0  0  0  0  0
   -0.2765   -0.5050    0.9534 O   0  0  0  0  0  0  0  0  0  0  0  0
   -2.0590    3.2009    0.4139 O   0  0  0  0  0  0  0  0  0  0  0  0
   -4.9668    3.0806   -1.1580 O   0  0  0  0  0  0  0  0  0  0  0  0
    1.2652    0.5822   -0.4861 O   0  0  0  0  0  0  0  0  0  0  0  0
   -0.4902    1.9883    2.3668 O   0  0  0  0  0  0  0  0  0  0  0  0
   -7.7425    2.2234   -1.6491 O   0  0  0  0  0  0  0  0  0  0  0  0
   -8.6088    0.3766    0.3990 O   0  0  0  0  0  0  0  0  0  0  0  0
   -5.7216   -2.4001    1.7624 O   0  0  0  0  0  0  0  0  0  0  0  0
    4.5956   -0.9767   -0.2292 O   0  0  0  0  0  0  0  0  0  0  0  0
    2.9744    2.7618   -0.2340 O   0  0  0  0  0  0  0  0  0  0  0  0
    5.3573    3.8017    0.0452 O   0  0  0  0  0  0  0  0  0  0  0  0
    8.9866    0.7500    0.2905 O   0  0  0  0  0  0  0  0  0  0  0  0
    0.8469   -4.5111    1.6477 O   0  0  0  0  0  0  0  0  0  0  0  0
    0.3615   -5.5945   -0.8656 O   0  0  0  0  0  0  0  0  0  0  0  0
   -2.2164    0.8026    0.2391 C   0  0  2  0  0  0  0  0  0  0  0  0
   -1.3150    2.0287    0.0891 C   0  0  2  0  0  0  0  0  0  0  0  0
   -1.3944   -0.4814    0.0600 C   0  0  2  0  0  0  0  0  0  0  0  0
   -4.5334    0.9456   -0.1605 C   0  0  2  0  0  0  0  0  0  0  0  0
   -5.4413    1.7355   -1.1030 C   0  0  1  0  0  0  0  0  0  0  0  0
   -0.0891    1.9215    0.9975 C   0  0  2  0  0  0  0  0  0  0  0  0
   -6.8902    1.7281   -0.6153 C   0  0  2  0  0  0  0  0  0  0  0  0
   -7.3481    0.3128   -0.2624 C   0  0  1  0  0  0  0  0  0  0  0  0
   -6.3314   -0.3748    0.6518 C   0  0  1  0  0  0  0  0  0  0  0  0
    0.6303    0.5904    0.7878 C   0  0  1  0  0  0  0  0  0  0  0  0
   -2.2196   -1.7331    0.3455 C   0  0  0  0  0  0  0  0  0  0  0  0
   -6.7080   -1.8279    0.9230 C   0  0  0  0  0  0  0  0  0  0  0  0
    2.6296    0.4232   -0.3754 C   0  0  0  0  0  0  0  0  0  0  0  0
    3.2311   -0.7804   -0.3719 C   0  0  0  0  0  0  0  0  0  0  0  0
    3.4648    1.6405   -0.2360 C   0  0  0  0  0  0  0  0  0  0  0  0
    4.9135    1.4262   -0.0987 C   0  0  0  0  0  0  0  0  0  0  0  0
    2.4791   -2.0415   -0.4977 C   0  0  0  0  0  0  0  0  0  0  0  0
    5.4049    0.1226   -0.1022 C   0  0  0  0  0  0  0  0  0  0  0  0
    5.7862    2.5089    0.0353 C   0  0  0  0  0  0  0  0  0  0  0  0
    6.7746   -0.1071    0.0290 C   0  0  0  0  0  0  0  0  0  0  0  0
    2.0106   -2.6919    0.6443 C   0  0  0  0  0  0  0  0  0  0  0  0
    2.2355   -2.5861   -1.7589 C   0  0  0  0  0  0  0  0  0  0  0  0
    7.1560    2.2766    0.1658 C   0  0  0  0  0  0  0  0  0  0  0  0
    7.6494    0.9713    0.1627 C   0  0  0  0  0  0  0  0  0  0  0  0
    1.2989   -3.8856    0.5251 C   0  0  0  0  0  0  0  0  0  0  0  0
    1.5239   -3.7798   -1.8781 C   0  0  0  0  0  0  0  0  0  0  0  0
    1.0555   -4.4295   -0.7360 C   0  0  0  0  0  0  0  0  0  0  0  0
   -2.6343    0.8030    1.2558 H   0  0  0  0  0  0  0  0  0  0  0  0
   -1.0028    2.1345   -0.9567 H   0  0  0  0  0  0  0  0  0  0  0  0
   -1.0279   -0.5585   -0.9718 H   0  0  0  0  0  0  0  0  0  0  0  0
   -4.4888    1.4793    0.7996 H   0  0  0  0  0  0  0  0  0  0  0  0
   -5.3875    1.3339   -2.1226 H   0  0  0  0  0  0  0  0  0  0  0  0
    0.5686    2.7767    0.8122 H   0  0  0  0  0  0  0  0  0  0  0  0
   -7.0120    2.4052    0.2392 H   0  0  0  0  0  0  0  0  0  0  0  0
   -7.4852   -0.2574   -1.1905 H   0  0  0  0  0  0  0  0  0  0  0  0
   -6.2597    0.1427    1.6182 H   0  0  0  0  0  0  0  0  0  0  0  0
    1.3633    0.4692    1.5980 H   0  0  0  0  0  0  0  0  0  0  0  0
   -1.5838   -2.6240    0.3132 H   0  0  0  0  0  0  0  0  0  0  0  0
   -3.0185   -1.8654   -0.3881 H   0  0  0  0  0  0  0  0  0  0  0  0
   -2.6519   -1.6955    1.3508 H   0  0  0  0  0  0  0  0  0  0  0  0
   -6.7428   -2.4138   -0.0015 H   0  0  0  0  0  0  0  0  0  0  0  0
   -7.6719   -1.9129    1.4316 H   0  0  0  0  0  0  0  0  0  0  0  0
   -2.3148    3.1400    1.3502 H   0  0  0  0  0  0  0  0  0  0  0  0
   -4.0399    3.0507   -1.4508 H   0  0  0  0  0  0  0  0  0  0  0  0
    0.3162    1.9832    2.9101 H   0  0  0  0  0  0  0  0  0  0  0  0
   -8.6549    2.1925   -1.3139 H   0  0  0  0  0  0  0  0  0  0  0  0
   -8.9929   -0.5161    0.3945 H   0  0  0  0  0  0  0  0  0  0  0  0
   -4.8754   -2.3627    1.2859 H   0  0  0  0  0  0  0  0  0  0  0  0
    7.1614   -1.1231    0.0271 H   0  0  0  0  0  0  0  0  0  0  0  0
    2.1976   -2.2760    1.6320 H   0  0  0  0  0  0  0  0  0  0  0  0
    2.5943   -2.0909   -2.6580 H   0  0  0  0  0  0  0  0  0  0  0  0
    7.8366    3.1184    0.2701 H   0  0  0  0  0  0  0  0  0  0  0  0
    1.3411   -4.1923   -2.8667 H   0  0  0  0  0  0  0  0  0  0  0  0
    4.3939    3.8415   -0.0543 H   0  0  0  0  0  0  0  0  0  0  0  0
    9.4416    1.6058    0.3722 H   0  0  0  0  0  0  0  0  0  0  0  0
    0.3749   -5.3184    1.3789 H   0  0  0  0  0  0  0  0  0  0  0  0
    0.2896   -5.8171   -1.8097 H   0  0  0  0  0  0  0  0  0  0  0  0
  1 17  1  0  0  0  0
  1 20  1  0  0  0  0
  2 20  1  0  0  0  0
  2 25  1  0  0  0  0
  3 19  1  0  0  0  0
  3 26  1  0  0  0  0
  4 18  1  0  0  0  0
  4 59  1  0  0  0  0
  5 21  1  0  0  0  0
  5 60  1  0  0  0  0
  6 26  1  0  0  0  0
  6 29  1  0  0  0  0
  7 22  1  0  0  0  0
  7 61  1  0  0  0  0
  8 23  1  0  0  0  0
  8 62  1  0  0  0  0
  9 24  1  0  0  0  0
  9 63  1  0  0  0  0
 10 28  1  0  0  0  0
 10 64  1  0  0  0  0
 11 30  1  0  0  0  0
 11 34  1  0  0  0  0
 12 31  2  0  0  0  0
 13 35  1  0  0  0  0
 13 70  1  0  0  0  0
 14 40  1  0  0  0  0
 14 71  1  0  0  0  0
 15 41  1  0  0  0  0
 15 72  1  0  0  0  0
 16 43  1  0  0  0  0
 16 73  1  0  0  0  0
 17 18  1  0  0  0  0
 17 19  1  0  0  0  0
 17 44  1  0  0  0  0
 18 22  1  0  0  0  0
 18 45  1  0  0  0  0
 19 27  1  0  0  0  0
 19 46  1  0  0  0  0
 20 21  1  0  0  0  0
 20 47  1  0  0  0  0
 21 23  1  0  0  0  0
 21 48  1  0  0  0  0
 22 26  1  0  0  0  0
 22 49  1  0  0  0  0
 23 24  1  0  0  0  0
 23 50  1  0  0  0  0
 24 25  1  0  0  0  0
 24 51  1  0  0  0  0
 25 28  1  0  0  0  0
 25 52  1  0  0  0  0
 26 53  1  0  0  0  0
 27 54  1  0  0  0  0
 27 55  1  0  0  0  0
 27 56  1  0  0  0  0
 28 57  1  0  0  0  0
 28 58  1  0  0  0  0
 29 30  2  0  0  0  0
 29 31  1  0  0  0  0
 30 33  1  0  0  0  0
 31 32  1  0  0  0  0
 32 34  1  0  0  0  0
 32 35  2  0  0  0  0
 33 37  2  0  0  0  0
 33 38  1  0  0  0  0
 34 36  2  0  0  0  0
 35 39  1  0  0  0  0
 36 40  1  0  0  0  0
 36 65  1  0  0  0  0
 37 41  1  0  0  0  0
 37 66  1  0  0  0  0
 38 42  2  0  0  0  0
 38 67  1  0  0  0  0
 39 40  2  0  0  0  0
 39 68  1  0  0  0  0
 41 43  2  0  0  0  0
 42 43  1  0  0  0  0
 42 69  1  0  0  0  0
M  END
> <PUBCHEM_COMPOUND_CID>
5319943

> <PUBCHEM_CONFORMER_RMSD>
1

> <PUBCHEM_CONFORMER_DIVERSEORDER>
2
418
183
324
210
15
107
188
433
215
137
76
447
346
410
337
257
352
195
407
270
172
427
156
220
230
412
403
144
169
331
354
49
262
426
265
301
342
358
435
388
43
167
165
378
406
327
251
171
437
207
417
444
409
430
386
274
304
204
385
185
154
27
434
151
446
109
104
339
69
238
295
70
245
223
310
193
400
335
370
332
153
387
159
118
419
289
29
328
221
390
184
258
314
316
114
443
441
318
383
376
132
113
94
272
196
123
276
252
111
329
309
293
353
87
330
369
336
78
227
177
101
282
440
248
334
391
190
33
82
71
163
67
436
384
283
103
239
249
307
397
269
313
300
136
39
90
280
42
235
96
365
415
122
362
389
155
99
226
97
420
371
448
216
54
242
333
160
375
73
121
259
357
325
16
268
244
130
120
372
368
74
93
236
135
194
277
59
290
68
296
241
279
213
57
206
46
119
256
152
38
439
108
267
26
344
317
271
180
80
60
254
398
360
348
63
161
408
189
311
292
133
382
102
423
31
424
285
53
340
260
212
105
138
303
222
176
416
187
115
84
112
214
233
117
431
166
12
278
284
142
64
51
25
381
263
140
146
367
173
40
203
36
361
98
392
442
139
150
234
393
48
13
1
261
422
377
414
341
428
148
202
175
134
255
62
232
127
297
157
81
356
22
253
291
7
266
355
124
275
308
125
106
145
58
394
288
21
320
228
100
413
229
34
338
401
126
224
379
205
65
147
44
162
129
88
425
192
247
198
323
85
75
305
225
237
373
174
201
72
11
32
281
438
131
243
3
181
197
273
286
359
128
350
199
86
374
405
37
445
321
41
349
345
294
404
363
5
164
299
23
380
91
95
35
326
168
246
30
182
52
312
10
178
218
179
56
322
287
19
141
158
66
240
319
50
306
149
347
264
79
17
4
186
399
343
208
61
191
6
45
402
20
421
217
47
200
83
89
396
211
18
143
9
170
110
55
8
92
24
14
231
411
116
302
395
298
366
28
351
250
219
364
209
315
77
432
429

> <PUBCHEM_MMFF94_PARTIAL_CHARGES>
57
1 -0.56
10 -0.68
11 -0.16
12 -0.57
13 -0.53
14 -0.53
15 -0.53
16 -0.53
17 0.28
18 0.28
19 0.28
2 -0.56
20 0.56
21 0.28
22 0.28
23 0.28
24 0.28
25 0.28
26 0.56
28 0.28
29 0.09
3 -0.56
30 0.05
31 0.47
32 0.09
33 0.03
34 0.08
35 0.08
36 -0.15
37 -0.15
38 -0.15
39 -0.15
4 -0.68
40 0.08
41 0.08
42 -0.15
43 0.08
5 -0.68
59 0.4
6 -0.36
60 0.4
61 0.4
62 0.4
63 0.4
64 0.4
65 0.15
66 0.15
67 0.15
68 0.15
69 0.15
7 -0.68
70 0.45
71 0.45
72 0.45
73 0.45
8 -0.68
9 -0.68

> <PUBCHEM_EFFECTIVE_ROTOR_COUNT>
8.4

> <PUBCHEM_PHARMACOPHORE_FEATURES>
27
1 1 acceptor
1 10 acceptor
1 10 donor
1 11 acceptor
1 12 acceptor
1 13 donor
1 14 donor
1 15 donor
1 16 donor
1 2 acceptor
1 3 acceptor
1 4 acceptor
1 4 donor
1 5 acceptor
1 5 donor
1 6 acceptor
1 7 acceptor
1 7 donor
1 8 acceptor
1 8 donor
1 9 acceptor
1 9 donor
6 11 29 30 31 32 34 rings
6 2 20 21 23 24 25 rings
6 3 17 18 19 22 26 rings
6 32 34 35 36 39 40 rings
6 33 37 38 41 42 43 rings

> <PUBCHEM_HEAVY_ATOM_COUNT>
43

> <PUBCHEM_ATOM_DEF_STEREO_COUNT>
10

> <PUBCHEM_ATOM_UDEF_STEREO_COUNT>
0

> <PUBCHEM_BOND_DEF_STEREO_COUNT>
0

> <PUBCHEM_BOND_UDEF_STEREO_COUNT>
0

> <PUBCHEM_ISOTOPIC_ATOM_COUNT>
0

> <PUBCHEM_COMPONENT_COUNT>
1

> <PUBCHEM_CACTVS_TAUTO_COUNT>
162

> <PUBCHEM_CONFORMER_ID>
00512D0700000002

> <PUBCHEM_MMFF94_ENERGY>
137.7185

> <PUBCHEM_FEATURE_SELFOVERLAP>
137.16

> <PUBCHEM_SHAPE_FINGERPRINT>
10050765 1 18121498226809527713
10653451 467 18269263574746494179
10673678 19 18410855468718102908
10675989 125 18195526115555972515
10835480 77 18341053016796464629
11135609 187 18408606989294426617
11135926 11 18408317809473259113
11136131 41 18270685384409370674
11421498 54 17458621285137618074
11719270 70 18408609179864397110
11991303 11 18270394976564523646
12522641 33 18409165506704331406
13150687 139 18259699017786386742
13692114 37 18187936032645365686
13811026 1 18412825797881725804
14068700 686 18337951293703379957
14117953 113 18410571795604951836
14118638 360 18041283287528284985
14675020 138 18261410952668306496
150020 25 18412542136745653780
15890870 6 18409449176846959364
16993438 75 18197496229713456547
18365409 1 18336548197060844014
18608769 82 18340486678039538851
19304144 158 18201164346616494941
19315958 150 18337948000744949225
19319366 153 18260555540811203366
20721686 124 18270970153831484710
21033648 29 18264783064900671680
23516275 137 16733802260177483135
23569917 315 18334849563835226638
4874694 18 18342745139632427909
5265222 85 18194962946206096469
5912855 24 17897435319232322505
6057620 51 18260552212950091585
6376802 90 18129664248393059613
99344 41 18412546530750690709

> <PUBCHEM_SHAPE_MULTIPOLES>
791.01
21.64
5.45
1.27
12.55
6.85
0.06
-15.5
-0.77
-2.67
-0.66
1.08
0.58
2.61

> <PUBCHEM_SHAPE_SELFOVERLAP>
1724.401

> <PUBCHEM_SHAPE_VOLUME>
423.8

> <PUBCHEM_COORDINATE_TYPE>
2
5
10

$$$$

