128618
  -OEChem-07051213043D

 36 38  0     0  0  0  0  0  0999 V2000
    3.0715    0.1125   -0.0097 O   0  0  0  0  0  0  0  0  0  0  0  0
    2.0670    2.1837   -0.0052 O   0  0  0  0  0  0  0  0  0  0  0  0
   -2.7563   -1.8245   -0.0026 N   0  0  0  0  0  0  0  0  0  0  0  0
    0.8685   -1.1421   -0.0088 N   0  0  0  0  0  0  0  0  0  0  0  0
   -1.6310    0.1015   -0.0002 C   0  0  0  0  0  0  0  0  0  0  0  0
   -3.0327    0.3891    0.0031 C   0  0  0  0  0  0  0  0  0  0  0  0
   -1.4926   -1.2861   -0.0040 C   0  0  0  0  0  0  0  0  0  0  0  0
   -3.7084   -0.8319    0.0017 C   0  0  0  0  0  0  0  0  0  0  0  0
   -0.4690    0.8888   -0.0005 C   0  0  0  0  0  0  0  0  0  0  0  0
   -3.7902    1.5791    0.0068 C   0  0  0  0  0  0  0  0  0  0  0  0
    5.4277   -0.3597   -0.0139 C   0  0  0  0  0  0  0  0  0  0  0  0
    0.7387    0.2037   -0.0047 C   0  0  0  0  0  0  0  0  0  0  0  0
   -5.1050   -0.9241    0.0043 C   0  0  0  0  0  0  0  0  0  0  0  0
   -0.2491   -1.9046   -0.0084 C   0  0  0  0  0  0  0  0  0  0  0  0
    6.8357    0.2284    0.0009 C   0  0  0  0  0  0  0  0  0  0  0  0
    4.3638    0.7287   -0.0107 C   0  0  0  0  0  0  0  0  0  0  0  0
   -5.1876    1.5029    0.0093 C   0  0  0  0  0  0  0  0  0  0  0  0
   -5.8331    0.2687    0.0084 C   0  0  0  0  0  0  0  0  0  0  0  0
    1.9875    0.9477   -0.0069 C   0  0  0  0  0  0  0  0  0  0  0  0
    7.8945   -0.8619    0.0413 C   0  0  0  0  0  0  0  0  0  0  0  0
   -2.9595   -2.8145   -0.0045 H   0  0  0  0  0  0  0  0  0  0  0  0
   -0.5256    1.9716    0.0021 H   0  0  0  0  0  0  0  0  0  0  0  0
   -3.3014    2.5492    0.0077 H   0  0  0  0  0  0  0  0  0  0  0  0
    5.2917   -0.9999   -0.8946 H   0  0  0  0  0  0  0  0  0  0  0  0
    5.2792   -1.0121    0.8558 H   0  0  0  0  0  0  0  0  0  0  0  0
   -5.6086   -1.8850    0.0034 H   0  0  0  0  0  0  0  0  0  0  0  0
   -0.1164   -2.9785   -0.0115 H   0  0  0  0  0  0  0  0  0  0  0  0
    6.9589    0.8790    0.8746 H   0  0  0  0  0  0  0  0  0  0  0  0
    6.9895    0.8485   -0.8898 H   0  0  0  0  0  0  0  0  0  0  0  0
    4.4641    1.3537    0.8841 H   0  0  0  0  0  0  0  0  0  0  0  0
    4.4626    1.3569   -0.9035 H   0  0  0  0  0  0  0  0  0  0  0  0
   -5.7740    2.4177    0.0122 H   0  0  0  0  0  0  0  0  0  0  0  0
   -6.9195    0.2313    0.0105 H   0  0  0  0  0  0  0  0  0  0  0  0
    7.7887   -1.4787    0.9394 H   0  0  0  0  0  0  0  0  0  0  0  0
    7.8194   -1.5140   -0.8347 H   0  0  0  0  0  0  0  0  0  0  0  0
    8.8951   -0.4184    0.0498 H   0  0  0  0  0  0  0  0  0  0  0  0
  1 16  1  0  0  0  0
  1 19  1  0  0  0  0
  2 19  2  0  0  0  0
  3  7  1  0  0  0  0
  3  8  1  0  0  0  0
  3 21  1  0  0  0  0
  4 12  2  0  0  0  0
  4 14  1  0  0  0  0
  5  6  1  0  0  0  0
  5  7  1  0  0  0  0
  5  9  2  0  0  0  0
  6  8  1  0  0  0  0
  6 10  2  0  0  0  0
  7 14  2  0  0  0  0
  8 13  2  0  0  0  0
  9 12  1  0  0  0  0
  9 22  1  0  0  0  0
 10 17  1  0  0  0  0
 10 23  1  0  0  0  0
 11 15  1  0  0  0  0
 11 16  1  0  0  0  0
 11 24  1  0  0  0  0
 11 25  1  0  0  0  0
 12 19  1  0  0  0  0
 13 18  1  0  0  0  0
 13 26  1  0  0  0  0
 14 27  1  0  0  0  0
 15 20  1  0  0  0  0
 15 28  1  0  0  0  0
 15 29  1  0  0  0  0
 16 30  1  0  0  0  0
 16 31  1  0  0  0  0
 17 18  2  0  0  0  0
 17 32  1  0  0  0  0
 18 33  1  0  0  0  0
 20 34  1  0  0  0  0
 20 35  1  0  0  0  0
 20 36  1  0  0  0  0
M  END
> <PUBCHEM_COMPOUND_CID>
128618

> <PUBCHEM_CONFORMER_RMSD>
0.8

> <PUBCHEM_CONFORMER_DIVERSEORDER>
1
5
18
11
23
9
12
21
16
22
10
3
20
7
2
14
15
13
17
8
4
6
19

> <PUBCHEM_MMFF94_PARTIAL_CHARGES>
22
1 -0.43
10 -0.15
12 0.4
13 -0.15
14 0.16
16 0.28
17 -0.15
18 -0.15
19 0.63
2 -0.57
21 0.27
22 0.15
23 0.15
26 0.15
27 0.15
3 0.03
32 0.15
33 0.15
4 -0.62
7 -0.15
8 -0.15
9 -0.15

> <PUBCHEM_EFFECTIVE_ROTOR_COUNT>
5

> <PUBCHEM_PHARMACOPHORE_FEATURES>
8
1 2 acceptor
1 20 hydrophobe
1 3 cation
1 3 donor
1 4 acceptor
5 3 5 6 7 8 rings
6 4 5 7 9 12 14 rings
6 6 8 10 13 17 18 rings

> <PUBCHEM_HEAVY_ATOM_COUNT>
20

> <PUBCHEM_ATOM_DEF_STEREO_COUNT>
0

> <PUBCHEM_ATOM_UDEF_STEREO_COUNT>
0

> <PUBCHEM_BOND_DEF_STEREO_COUNT>
0

> <PUBCHEM_BOND_UDEF_STEREO_COUNT>
0

> <PUBCHEM_ISOTOPIC_ATOM_COUNT>
0

> <PUBCHEM_COMPONENT_COUNT>
1

> <PUBCHEM_CACTVS_TAUTO_COUNT>
3

> <PUBCHEM_CONFORMER_ID>
0001F66A00000001

> <PUBCHEM_MMFF94_ENERGY>
37.3807

> <PUBCHEM_FEATURE_SELFOVERLAP>
40.78

> <PUBCHEM_SHAPE_FINGERPRINT>
10299344 5 18131632301424033562
10411042 1 18050285861420097063
11315181 36 17894908512593478640
11524674 6 17312824870668702870
11578080 2 16700071563104334839
12091667 2 18408040706361603975
12236239 1 18060699477262823292
12516196 113 18040154020530177616
13288520 33 18410573976566804316
13533116 47 4967340054961912204
13862211 1 18409731742449950910
13914758 101 15502646148557694730
14251752 14 18342175583729252220
14251764 18 18343021082321995886
15042514 8 18123468285569721507
15099037 51 18410291398052556532
15183329 4 18342178886379624874
15196674 1 18338514144856202884
15927050 60 18343023285272305466
17093844 174 18411704270515399904
17492 89 17981041916687646987
17834072 8 18335138696152212356
18006028 8 17967533480849730312
18681886 176 18334584507536494776
19489759 90 17530963596457068833
20281389 69 18272090491908302620
21267235 1 18341326709017868275
21709351 56 18412553085086952293
23035841 295 18343866632628505114
23402539 116 18187369809098566645
23536379 177 18342457045704990520
23559900 14 18189060811043777920
3004659 81 18343863317230374028
335352 9 18410856551081679309
350125 39 18412546526260615973
3545911 37 18408322194196719401
4073 2 18059852802218429514
4214541 1 18410573968267240901
4463277 17 18412826876636123680
5104073 3 18338515222903784945
5385378 56 18263916808050224907
559249 180 18410857659389093030
6138700 20 18411698820534463666
6328613 192 18343014450977510780
7226269 152 18114179752480938176
9965369 4 18410576214577101160

> <PUBCHEM_SHAPE_MULTIPOLES>
389.89
16.84
1.76
0.6
26.93
0.03
0
-0.08
-0.13
-1.05
0
-0.02
0
-0.02

> <PUBCHEM_SHAPE_SELFOVERLAP>
849.347

> <PUBCHEM_SHAPE_VOLUME>
213.2

> <PUBCHEM_COORDINATE_TYPE>
2
5
10

$$$$

