17395493
  -OEChem-06241222503D

 47 50  0     0  0  0  0  0  0999 V2000
    2.7668    1.0825    0.0860 S   0  0  0  0  0  0  0  0  0  0  0  0
    3.1721    1.5345    1.3982 O   0  0  0  0  0  0  0  0  0  0  0  0
    3.1938    1.7583   -1.1187 O   0  0  0  0  0  0  0  0  0  0  0  0
   -3.1058    2.7081   -0.0554 O   0  0  0  0  0  0  0  0  0  0  0  0
    1.0591    0.9369    0.0583 N   0  0  0  0  0  0  0  0  0  0  0  0
   -3.1198    0.3308   -0.0045 N   0  0  0  0  0  0  0  0  0  0  0  0
   -5.0983    1.4344   -0.0662 N   0  0  0  0  0  0  0  0  0  0  0  0
   -1.7077    0.0358    0.0290 C   0  0  0  0  0  0  0  0  0  0  0  0
   -1.0111    0.5635   -1.2283 C   0  0  0  0  0  0  0  0  0  0  0  0
   -1.0576    0.6245    1.2842 C   0  0  0  0  0  0  0  0  0  0  0  0
    0.4930    0.3165   -1.1752 C   0  0  0  0  0  0  0  0  0  0  0  0
    0.4474    0.3768    1.2988 C   0  0  0  0  0  0  0  0  0  0  0  0
   -4.1482   -0.6208   -0.0040 C   0  0  0  0  0  0  0  0  0  0  0  0
   -3.6883    1.6327   -0.0433 C   0  0  0  0  0  0  0  0  0  0  0  0
    3.1983   -0.6317   -0.0627 C   0  0  0  0  0  0  0  0  0  0  0  0
   -5.3611    0.0645   -0.0419 C   0  0  0  0  0  0  0  0  0  0  0  0
   -4.0993   -1.9989    0.0259 C   0  0  0  0  0  0  0  0  0  0  0  0
    4.6928   -0.7277   -0.0583 C   0  0  0  0  0  0  0  0  0  0  0  0
   -6.5759   -0.5843   -0.0516 C   0  0  0  0  0  0  0  0  0  0  0  0
   -5.3208   -2.6805    0.0170 C   0  0  0  0  0  0  0  0  0  0  0  0
   -6.5454   -1.9810   -0.0214 C   0  0  0  0  0  0  0  0  0  0  0  0
    5.3783   -0.8794    1.1470 C   0  0  0  0  0  0  0  0  0  0  0  0
    5.3993   -0.6653   -1.2593 C   0  0  0  0  0  0  0  0  0  0  0  0
    6.7703   -0.9689    1.1512 C   0  0  0  0  0  0  0  0  0  0  0  0
    6.7913   -0.7548   -1.2550 C   0  0  0  0  0  0  0  0  0  0  0  0
    7.4769   -0.9065   -0.0498 C   0  0  0  0  0  0  0  0  0  0  0  0
   -1.5674   -1.0506    0.0582 H   0  0  0  0  0  0  0  0  0  0  0  0
   -1.1834    1.6400   -1.3465 H   0  0  0  0  0  0  0  0  0  0  0  0
   -1.4316    0.0815   -2.1194 H   0  0  0  0  0  0  0  0  0  0  0  0
   -1.5109    0.1857    2.1814 H   0  0  0  0  0  0  0  0  0  0  0  0
   -1.2332    1.7053    1.3440 H   0  0  0  0  0  0  0  0  0  0  0  0
    0.6746   -0.7630   -1.1814 H   0  0  0  0  0  0  0  0  0  0  0  0
    0.9537    0.7555   -2.0658 H   0  0  0  0  0  0  0  0  0  0  0  0
    0.8663    0.8658    2.1837 H   0  0  0  0  0  0  0  0  0  0  0  0
    0.6459   -0.6978    1.3697 H   0  0  0  0  0  0  0  0  0  0  0  0
    2.7753   -1.1931    0.7741 H   0  0  0  0  0  0  0  0  0  0  0  0
    2.8098   -1.0353   -1.0002 H   0  0  0  0  0  0  0  0  0  0  0  0
   -5.8047    2.1592   -0.0955 H   0  0  0  0  0  0  0  0  0  0  0  0
   -3.1699   -2.5537    0.0554 H   0  0  0  0  0  0  0  0  0  0  0  0
   -7.5155   -0.0455   -0.0812 H   0  0  0  0  0  0  0  0  0  0  0  0
   -5.3294   -3.7674    0.0398 H   0  0  0  0  0  0  0  0  0  0  0  0
   -7.4779   -2.5395   -0.0275 H   0  0  0  0  0  0  0  0  0  0  0  0
    4.8399   -0.9298    2.0897 H   0  0  0  0  0  0  0  0  0  0  0  0
    4.8780   -0.5475   -2.2055 H   0  0  0  0  0  0  0  0  0  0  0  0
    7.3041   -1.0870    2.0896 H   0  0  0  0  0  0  0  0  0  0  0  0
    7.3415   -0.7061   -2.1901 H   0  0  0  0  0  0  0  0  0  0  0  0
    8.5607   -0.9761   -0.0465 H   0  0  0  0  0  0  0  0  0  0  0  0
  1  2  2  0  0  0  0
  1  3  2  0  0  0  0
  1  5  1  0  0  0  0
  1 15  1  0  0  0  0
  4 14  2  0  0  0  0
  5 11  1  0  0  0  0
  5 12  1  0  0  0  0
  6  8  1  0  0  0  0
  6 13  1  0  0  0  0
  6 14  1  0  0  0  0
  7 14  1  0  0  0  0
  7 16  1  0  0  0  0
  7 38  1  0  0  0  0
  8  9  1  0  0  0  0
  8 10  1  0  0  0  0
  8 27  1  0  0  0  0
  9 11  1  0  0  0  0
  9 28  1  0  0  0  0
  9 29  1  0  0  0  0
 10 12  1  0  0  0  0
 10 30  1  0  0  0  0
 10 31  1  0  0  0  0
 11 32  1  0  0  0  0
 11 33  1  0  0  0  0
 12 34  1  0  0  0  0
 12 35  1  0  0  0  0
 13 16  1  0  0  0  0
 13 17  2  0  0  0  0
 15 18  1  0  0  0  0
 15 36  1  0  0  0  0
 15 37  1  0  0  0  0
 16 19  2  0  0  0  0
 17 20  1  0  0  0  0
 17 39  1  0  0  0  0
 18 22  2  0  0  0  0
 18 23  1  0  0  0  0
 19 21  1  0  0  0  0
 19 40  1  0  0  0  0
 20 21  2  0  0  0  0
 20 41  1  0  0  0  0
 21 42  1  0  0  0  0
 22 24  1  0  0  0  0
 22 43  1  0  0  0  0
 23 25  2  0  0  0  0
 23 44  1  0  0  0  0
 24 26  2  0  0  0  0
 24 45  1  0  0  0  0
 25 26  1  0  0  0  0
 25 46  1  0  0  0  0
 26 47  1  0  0  0  0
M  END
> <PUBCHEM_COMPOUND_CID>
17395493

> <PUBCHEM_CONFORMER_RMSD>
0.8

> <PUBCHEM_CONFORMER_DIVERSEORDER>
1
81
65
10
30
28
45
41
21
44
38
60
74
29
61
14
36
66
15
42
54
76
49
56
58
40
68
8
19
64
37
17
47
79
43
23
57
26
12
69
80
33
55
18
63
46
70
71
48
53
27
72
67
2
4
50
6
78
7
62
39
51
16
5
24
75
34
31
77
20
32
52
9
25
59
22
13
73
35
3
11

> <PUBCHEM_MMFF94_PARTIAL_CHARGES>
34
1 1.33
11 0.36
12 0.36
13 0.12
14 0.69
15 0.25
16 0.12
17 -0.15
18 -0.14
19 -0.15
2 -0.65
20 -0.15
21 -0.15
22 -0.15
23 -0.15
24 -0.15
25 -0.15
26 -0.15
3 -0.65
38 0.37
39 0.15
4 -0.57
40 0.15
41 0.15
42 0.15
43 0.15
44 0.15
45 0.15
46 0.15
47 0.15
5 -0.85
6 -0.48
7 -0.55
8 0.3

> <PUBCHEM_EFFECTIVE_ROTOR_COUNT>
5.2

> <PUBCHEM_PHARMACOPHORE_FEATURES>
8
1 2 acceptor
1 3 acceptor
1 4 acceptor
1 7 donor
5 6 7 13 14 16 rings
6 13 16 17 19 20 21 rings
6 18 22 23 24 25 26 rings
6 5 8 9 10 11 12 rings

> <PUBCHEM_HEAVY_ATOM_COUNT>
26

> <PUBCHEM_ATOM_DEF_STEREO_COUNT>
0

> <PUBCHEM_ATOM_UDEF_STEREO_COUNT>
0

> <PUBCHEM_BOND_DEF_STEREO_COUNT>
0

> <PUBCHEM_BOND_UDEF_STEREO_COUNT>
0

> <PUBCHEM_ISOTOPIC_ATOM_COUNT>
0

> <PUBCHEM_COMPONENT_COUNT>
1

> <PUBCHEM_CACTVS_TAUTO_COUNT>
2

> <PUBCHEM_CONFORMER_ID>
01096F2500000001

> <PUBCHEM_MMFF94_ENERGY>
67.6409

> <PUBCHEM_FEATURE_SELFOVERLAP>
40.712

> <PUBCHEM_SHAPE_FINGERPRINT>
10 15 17822018592864834874
10299344 5 18131630101820626742
10319926 262 18334584554923787201
10595046 47 18344142592556237700
10670039 82 14405196096436039142
11315181 36 18343863321092837661
11524674 6 17240483594193978335
11545043 162 18261115174933684457
11646440 116 16660362584839931970
11991303 11 14836114425450409258
12166972 35 18343298145893287084
12236239 1 17846500297462805365
12516196 113 18114181951989236704
13288520 33 18411699881544009317
13668630 136 18261105292773072942
13673619 4 18334575716213232553
13685833 64 18334013891583343026
13782708 43 18114465574143750687
14068700 675 18272651259992139468
14251751 18 18334858307522854030
14251764 18 18202561778892908956
14347332 77 18202288021487437925
14556957 393 15554159376057099542
14856354 85 18342451543699293551
15183329 4 17632858633527959738
15348495 7 17313674741290239866
15352257 5 18413108363986449098
15419008 42 17973446795284290620
15419008 47 17821734956992587240
15419008 91 18189637036815341032
16992828 155 16914821598726417237
17844677 252 18410289203082181873
17857418 61 18343865519525392362
18222031 100 17561089076865612365
18681886 176 18410860936638739074
18927931 339 18410572877941530031
19377110 9 5400804947010368654
2026 5 18187082866940686383
21150785 3 15339116823419466315
21267235 1 18272366439715413827
21315759 40 17846500370197655114
21623969 137 17167577202706273278
21792934 111 17095243627276449537
221357 26 16343704344374037284
2297311 6 18410291411391255945
23035841 295 18342738512054934187
23081809 10 17561079246175796128
23198884 109 17489301996936760888
23522609 53 17772726459899970076
23559900 14 18339083674921444737
23569914 152 13825407178112196266
23569943 247 17345484858354100858
23576562 1 14045165304957632463
249057 3 18412828010544705709
3004659 81 18412825763885997354
335352 9 18412548726480961301
3383291 50 18114181904539836127
394071 54 15357701881902385090
397830 11 17895770486775832474
4073 2 18130783413326685730
465052 167 17967809436408064572
5104073 3 18186519882410566873
559249 180 18342178877985109407
5718773 13 17970353620854138911
7495541 125 18041279864027614417
8863177 126 18261958431722557882

> <PUBCHEM_SHAPE_MULTIPOLES>
506.37
20.63
2.09
1.18
10.97
0.03
-0.04
11.27
0.61
-3.02
-0.02
1.65
-0.1
0

> <PUBCHEM_SHAPE_SELFOVERLAP>
1083.788

> <PUBCHEM_SHAPE_VOLUME>
280.7

> <PUBCHEM_COORDINATE_TYPE>
2
5
10

$$$$

