47205509
  -OEChem-06241222593D

 37 39  0     1  0  0  0  0  0999 V2000
   -4.8761   -0.6640    0.0302 O   0  0  0  0  0  0  0  0  0  0  0  0
   -0.0486   -1.6727   -0.2748 O   0  0  0  0  0  0  0  0  0  0  0  0
   -2.1014   -0.6027   -0.4522 N   0  0  0  0  0  0  0  0  0  0  0  0
    3.4907    0.4736   -0.5649 N   0  0  0  0  0  0  0  0  0  0  0  0
    2.2785    0.7754   -1.0882 N   0  0  0  0  0  0  0  0  0  0  0  0
    2.0523    0.0594    1.0647 N   0  0  0  0  0  0  0  0  0  0  0  0
    4.4131   -0.3303    1.5029 N   0  0  0  0  0  0  0  0  0  0  0  0
   -4.1479    0.5451    0.2841 C   0  0  1  0  0  0  0  0  0  0  0  0
   -2.9124    0.6090   -0.6175 C   0  0  0  0  0  0  0  0  0  0  0  0
   -2.8544   -1.8497   -0.5782 C   0  0  0  0  0  0  0  0  0  0  0  0
   -4.0830   -1.8180    0.3189 C   0  0  0  0  0  0  0  0  0  0  0  0
   -5.0824    1.7163    0.0181 C   0  0  0  0  0  0  0  0  0  0  0  0
   -0.7162   -0.6360   -0.3069 C   0  0  0  0  0  0  0  0  0  0  0  0
   -6.3326    1.6390    0.8763 C   0  0  0  0  0  0  0  0  0  0  0  0
   -0.0207    0.6959   -0.1799 C   0  0  0  0  0  0  0  0  0  0  0  0
    1.4607    0.5096   -0.0729 C   0  0  0  0  0  0  0  0  0  0  0  0
    3.3326    0.0367    0.7532 C   0  0  0  0  0  0  0  0  0  0  0  0
    4.7431    0.5525   -1.1602 C   0  0  0  0  0  0  0  0  0  0  0  0
    5.8350    0.2064   -0.4713 C   0  0  0  0  0  0  0  0  0  0  0  0
    5.5697   -0.2456    0.9186 C   0  0  0  0  0  0  0  0  0  0  0  0
   -3.8435    0.5531    1.3393 H   0  0  0  0  0  0  0  0  0  0  0  0
   -2.3434    1.5164   -0.4074 H   0  0  0  0  0  0  0  0  0  0  0  0
   -3.2063    0.6349   -1.6740 H   0  0  0  0  0  0  0  0  0  0  0  0
   -2.2291   -2.7150   -0.3389 H   0  0  0  0  0  0  0  0  0  0  0  0
   -3.1549   -1.9271   -1.6297 H   0  0  0  0  0  0  0  0  0  0  0  0
   -4.7011   -2.7036    0.1418 H   0  0  0  0  0  0  0  0  0  0  0  0
   -3.8047   -1.8094    1.3794 H   0  0  0  0  0  0  0  0  0  0  0  0
   -5.3920    1.7208   -1.0342 H   0  0  0  0  0  0  0  0  0  0  0  0
   -4.5637    2.6619    0.2129 H   0  0  0  0  0  0  0  0  0  0  0  0
   -6.9324    0.7544    0.6406 H   0  0  0  0  0  0  0  0  0  0  0  0
   -6.9604    2.5193    0.7044 H   0  0  0  0  0  0  0  0  0  0  0  0
   -6.0784    1.6099    1.9407 H   0  0  0  0  0  0  0  0  0  0  0  0
   -0.3818    1.2071    0.7191 H   0  0  0  0  0  0  0  0  0  0  0  0
   -0.2483    1.3115   -1.0571 H   0  0  0  0  0  0  0  0  0  0  0  0
    4.7860    0.9007   -2.1849 H   0  0  0  0  0  0  0  0  0  0  0  0
    6.8419    0.2392   -0.8603 H   0  0  0  0  0  0  0  0  0  0  0  0
    6.4682   -0.5326    1.4893 H   0  0  0  0  0  0  0  0  0  0  0  0
  1  8  1  0  0  0  0
  1 11  1  0  0  0  0
  2 13  2  0  0  0  0
  3  9  1  0  0  0  0
  3 10  1  0  0  0  0
  3 13  1  0  0  0  0
  4  5  1  0  0  0  0
  4 17  1  0  0  0  0
  4 18  1  0  0  0  0
  5 16  2  0  0  0  0
  6 16  1  0  0  0  0
  6 17  2  0  0  0  0
  7 17  1  0  0  0  0
  7 20  2  0  0  0  0
  8  9  1  0  0  0  0
  8 12  1  0  0  0  0
  8 21  1  0  0  0  0
  9 22  1  0  0  0  0
  9 23  1  0  0  0  0
 10 11  1  0  0  0  0
 10 24  1  0  0  0  0
 10 25  1  0  0  0  0
 11 26  1  0  0  0  0
 11 27  1  0  0  0  0
 12 14  1  0  0  0  0
 12 28  1  0  0  0  0
 12 29  1  0  0  0  0
 13 15  1  0  0  0  0
 14 30  1  0  0  0  0
 14 31  1  0  0  0  0
 14 32  1  0  0  0  0
 15 16  1  0  0  0  0
 15 33  1  0  0  0  0
 15 34  1  0  0  0  0
 18 19  2  0  0  0  0
 18 35  1  0  0  0  0
 19 20  1  0  0  0  0
 19 36  1  0  0  0  0
 20 37  1  0  0  0  0
M  END
> <PUBCHEM_COMPOUND_CID>
47205509

> <PUBCHEM_CONFORMER_RMSD>
0.8

> <PUBCHEM_CONFORMER_DIVERSEORDER>
1
112
30
49
109
136
132
99
121
2
6
79
147
63
141
36
82
42
108
8
94
126
114
137
52
110
120
28
142
123
9
97
55
122
7
21
25
98
100
124
103
77
67
3
127
138
19
50
143
92
84
140
131
95
53
81
17
5
62
41
93
90
65
26
146
31
70
37
80
139
46
11
40
58
113
75
133
145
27
33
34
88
22
35
71
15
107
76
72
78
32
135
73
66
14
43
54
69
128
60
106
116
44
87
47
83
74
102
61
130
38
13
119
96
118
105
64
24
86
57
125
16
91
56
48
101
129
18
20
39
10
117
85
104
115
51
144
4
23
134
29
45
68
12
111
89
59

> <PUBCHEM_MMFF94_PARTIAL_CHARGES>
21
1 -0.56
10 0.3
11 0.28
13 0.57
15 0.24
16 0.34
17 0.31
18 -0.18
19 -0.14
2 -0.57
20 0.38
3 -0.66
35 0.15
36 0.15
37 0.06
4 0.6
5 -0.71
6 -0.57
7 -0.58
8 0.28
9 0.3

> <PUBCHEM_EFFECTIVE_ROTOR_COUNT>
5.2

> <PUBCHEM_PHARMACOPHORE_FEATURES>
8
1 1 acceptor
1 14 hydrophobe
1 2 acceptor
1 7 acceptor
4 4 6 7 17 cation
5 4 5 6 16 17 rings
6 1 3 8 9 10 11 rings
6 4 7 17 18 19 20 rings

> <PUBCHEM_HEAVY_ATOM_COUNT>
20

> <PUBCHEM_ATOM_DEF_STEREO_COUNT>
0

> <PUBCHEM_ATOM_UDEF_STEREO_COUNT>
1

> <PUBCHEM_BOND_DEF_STEREO_COUNT>
0

> <PUBCHEM_BOND_UDEF_STEREO_COUNT>
0

> <PUBCHEM_ISOTOPIC_ATOM_COUNT>
0

> <PUBCHEM_COMPONENT_COUNT>
1

> <PUBCHEM_CACTVS_TAUTO_COUNT>
1

> <PUBCHEM_CONFORMER_ID>
02D04C8500000001

> <PUBCHEM_MMFF94_ENERGY>
36.9184

> <PUBCHEM_FEATURE_SELFOVERLAP>
40.739

> <PUBCHEM_SHAPE_FINGERPRINT>
10354089 29 17561359591270367284
10912923 1 17989209209327965634
11089746 13 17822303387355464625
11315181 36 18343303626661134805
11545043 162 18040718017822726995
11646440 116 17676198075134166601
11796584 16 18113896066287309382
12107183 9 17340145728520899800
12236239 1 18202562874051696436
12403259 415 17749391420942317523
12596602 18 18411139104480251440
12616971 3 17632577145339065724
13167823 11 18131354076983354338
13533116 47 17386847386358623974
13675066 3 17821729394777303214
13760787 5 17418098702233137126
14251764 18 18201998816138962169
14341114 176 16558745736832246749
14573314 32 17676200295115013948
15142383 8 17346044470964970940
15788980 27 17022904527648257140
1601671 61 18410575102027778932
16079462 125 17168154437689116608
17093844 174 18261117356745162418
17834072 33 17703792488016811366
17844677 252 18261389988373953392
1813 80 16773792644893609182
19489759 90 18040437681407669991
19784866 170 18341327877343762423
20281389 69 18343866632317853325
20621476 66 18410568500705535201
20645477 56 18334293189191073589
20645477 70 16128384809121698746
20681677 155 18413107234504567210
21033648 29 17386019350749023386
21421861 104 17987525990476263210
21623969 137 15697997461353414384
220451 1 17917990577311958442
22950370 63 17989490705942965174
23081809 10 18130508556889101710
23402539 116 17894919520367947757
23522609 53 17773854506815557572
23536379 177 18413388731193276632
23559900 14 17894907417672282052
26918003 58 15719388400316982086
3545911 37 18259700121212757189
4214541 1 18411138017774371197
4325135 7 10663806482456289602
5104073 3 18272373014434898024
5385378 56 18116141350535165083
542803 24 18202001023361892084
633830 44 18113910320613383940
7226269 152 18040996258736621185
90127 26 18261392187402269480

> <PUBCHEM_SHAPE_MULTIPOLES>
374.95
15.36
1.57
1.06
0.62
0.42
-0.13
-4.12
-2.44
-2.99
0.04
1.07
-0.07
-0.9

> <PUBCHEM_SHAPE_SELFOVERLAP>
792.247

> <PUBCHEM_SHAPE_VOLUME>
208.4

> <PUBCHEM_COORDINATE_TYPE>
2
5
10

$$$$

