656736
  -OEChem-07051213042D

 62 66  0     0  0  0  0  0  0999 V2000
    3.7370    0.6914    0.0000 N   0  0  0  0  0  0  0  0  0  0  0  0
    7.8961   -0.6130    0.0000 C   0  0  0  0  0  0  0  0  0  0  0  0
    8.7052   -1.2008    0.0000 C   0  0  0  0  0  0  0  0  0  0  0  0
    7.0871   -1.2008    0.0000 C   0  0  0  0  0  0  0  0  0  0  0  0
    8.4839    0.1960    0.0000 C   0  0  0  0  0  0  0  0  0  0  0  0
    7.3084    0.1960    0.0000 C   0  0  0  0  0  0  0  0  0  0  0  0
    7.3961   -2.1519    0.0000 C   0  0  0  0  0  0  0  0  0  0  0  0
    8.3961   -2.1519    0.0000 C   0  0  0  0  0  0  0  0  0  0  0  0
    6.0717   -0.9686    0.0000 C   0  0  0  0  0  0  0  0  0  0  0  0
    9.7206   -0.9686    0.0000 C   0  0  0  0  0  0  0  0  0  0  0  0
    8.0772    1.1095    0.0000 C   0  0  0  0  0  0  0  0  0  0  0  0
    9.0811   -2.9366    0.0000 C   0  0  0  0  0  0  0  0  0  0  0  0
    6.7112   -2.9366    0.0000 C   0  0  0  0  0  0  0  0  0  0  0  0
    4.2109    1.5720    0.0000 C   0  0  0  0  0  0  0  0  0  0  0  0
    2.7531    0.5129    0.0000 C   0  0  0  0  0  0  0  0  0  0  0  0
    3.8178    2.4915    0.0000 C   0  0  0  0  0  0  0  0  0  0  0  0
    2.0000    1.1708    0.0000 C   0  0  0  0  0  0  0  0  0  0  0  0
    2.8539    2.7576    0.0000 C   0  0  0  0  0  0  0  0  0  0  0  0
    2.0449    2.1698    0.0000 C   0  0  0  0  0  0  0  0  0  0  0  0
    6.3138    0.0915    0.0000 C   0  0  0  0  0  0  0  0  0  0  0  0
   10.4235   -1.7373    0.0000 C   0  0  0  0  0  0  0  0  0  0  0  0
    5.3688   -1.7373    0.0000 C   0  0  0  0  0  0  0  0  0  0  0  0
    4.3248   -0.1176    0.0000 C   0  0  0  0  0  0  0  0  0  0  0  0
    5.6907   -2.7279    0.0000 C   0  0  0  0  0  0  0  0  0  0  0  0
   10.1016   -2.7279    0.0000 C   0  0  0  0  0  0  0  0  0  0  0  0
    8.6650    1.9185    0.0000 C   0  0  0  0  0  0  0  0  0  0  0  0
    7.0827    1.2140    0.0000 C   0  0  0  0  0  0  0  0  0  0  0  0
    5.3193   -0.0131    0.0000 C   0  0  0  0  0  0  0  0  0  0  0  0
    8.2582    2.8321    0.0000 C   0  0  0  0  0  0  0  0  0  0  0  0
    6.6759    2.1276    0.0000 C   0  0  0  0  0  0  0  0  0  0  0  0
    7.2637    2.9366    0.0000 C   0  0  0  0  0  0  0  0  0  0  0  0
    8.9146   -0.2500    0.0000 H   0  0  0  0  0  0  0  0  0  0  0  0
    8.9979    0.5427    0.0000 H   0  0  0  0  0  0  0  0  0  0  0  0
    7.8656    0.4678    0.0000 H   0  0  0  0  0  0  0  0  0  0  0  0
    7.1375    0.7920    0.0000 H   0  0  0  0  0  0  0  0  0  0  0  0
    5.8870   -0.3767    0.0000 H   0  0  0  0  0  0  0  0  0  0  0  0
    9.9053   -0.3767    0.0000 H   0  0  0  0  0  0  0  0  0  0  0  0
    6.9096   -3.5240    0.0000 H   0  0  0  0  0  0  0  0  0  0  0  0
    8.8827   -3.5240    0.0000 H   0  0  0  0  0  0  0  0  0  0  0  0
    4.6778    1.1641    0.0000 H   0  0  0  0  0  0  0  0  0  0  0  0
    4.7125    1.9364    0.0000 H   0  0  0  0  0  0  0  0  0  0  0  0
    2.2515    0.1484    0.0000 H   0  0  0  0  0  0  0  0  0  0  0  0
    2.9968   -0.0573    0.0000 H   0  0  0  0  0  0  0  0  0  0  0  0
    4.4279    2.6022    0.0000 H   0  0  0  0  0  0  0  0  0  0  0  0
    3.8457    3.1109    0.0000 H   0  0  0  0  0  0  0  0  0  0  0  0
    1.4023    1.3357    0.0000 H   0  0  0  0  0  0  0  0  0  0  0  0
    1.7062    0.6248    0.0000 H   0  0  0  0  0  0  0  0  0  0  0  0
    3.1477    3.3035    0.0000 H   0  0  0  0  0  0  0  0  0  0  0  0
    2.3870    3.1655    0.0000 H   0  0  0  0  0  0  0  0  0  0  0  0
    1.8012    2.7399    0.0000 H   0  0  0  0  0  0  0  0  0  0  0  0
    1.4348    2.0591    0.0000 H   0  0  0  0  0  0  0  0  0  0  0  0
    4.7628   -1.6060    0.0000 H   0  0  0  0  0  0  0  0  0  0  0  0
   11.0294   -1.6060    0.0000 H   0  0  0  0  0  0  0  0  0  0  0  0
    3.7675   -0.3894    0.0000 H   0  0  0  0  0  0  0  0  0  0  0  0
    4.4957   -0.7136    0.0000 H   0  0  0  0  0  0  0  0  0  0  0  0
    5.2776   -3.1902    0.0000 H   0  0  0  0  0  0  0  0  0  0  0  0
   10.5147   -3.1902    0.0000 H   0  0  0  0  0  0  0  0  0  0  0  0
    9.2816    1.8537    0.0000 H   0  0  0  0  0  0  0  0  0  0  0  0
    6.7182    0.7125    0.0000 H   0  0  0  0  0  0  0  0  0  0  0  0
    8.6227    3.3337    0.0000 H   0  0  0  0  0  0  0  0  0  0  0  0
    6.0593    2.1924    0.0000 H   0  0  0  0  0  0  0  0  0  0  0  0
    7.0115    3.5030    0.0000 H   0  0  0  0  0  0  0  0  0  0  0  0
  1 14  1  0  0  0  0
  1 15  1  0  0  0  0
  1 23  1  0  0  0  0
  2  3  1  0  0  0  0
  2  4  1  0  0  0  0
  2  5  1  0  0  0  0
  2  6  1  0  0  0  0
  3  8  1  0  0  0  0
  3 10  2  0  0  0  0
  4  7  1  0  0  0  0
  4  9  2  0  0  0  0
  5 11  1  0  0  0  0
  5 32  1  0  0  0  0
  5 33  1  0  0  0  0
  6 20  1  0  0  0  0
  6 34  1  0  0  0  0
  6 35  1  0  0  0  0
  7  8  1  0  0  0  0
  7 13  2  0  0  0  0
  8 12  2  0  0  0  0
  9 22  1  0  0  0  0
  9 36  1  0  0  0  0
 10 21  1  0  0  0  0
 10 37  1  0  0  0  0
 11 26  2  0  0  0  0
 11 27  1  0  0  0  0
 12 25  1  0  0  0  0
 12 39  1  0  0  0  0
 13 24  1  0  0  0  0
 13 38  1  0  0  0  0
 14 16  1  0  0  0  0
 14 40  1  0  0  0  0
 14 41  1  0  0  0  0
 15 17  1  0  0  0  0
 15 42  1  0  0  0  0
 15 43  1  0  0  0  0
 16 18  1  0  0  0  0
 16 44  1  0  0  0  0
 16 45  1  0  0  0  0
 17 19  1  0  0  0  0
 17 46  1  0  0  0  0
 17 47  1  0  0  0  0
 18 19  1  0  0  0  0
 18 48  1  0  0  0  0
 18 49  1  0  0  0  0
 19 50  1  0  0  0  0
 19 51  1  0  0  0  0
 20 28  3  0  0  0  0
 21 25  2  0  0  0  0
 21 53  1  0  0  0  0
 22 24  2  0  0  0  0
 22 52  1  0  0  0  0
 23 28  1  0  0  0  0
 23 54  1  0  0  0  0
 23 55  1  0  0  0  0
 24 56  1  0  0  0  0
 25 57  1  0  0  0  0
 26 29  1  0  0  0  0
 26 58  1  0  0  0  0
 27 30  2  0  0  0  0
 27 59  1  0  0  0  0
 29 31  2  0  0  0  0
 29 60  1  0  0  0  0
 30 31  1  0  0  0  0
 30 61  1  0  0  0  0
 31 62  1  0  0  0  0
M  END
> <PUBCHEM_COMPOUND_CID>
656736

> <PUBCHEM_COMPOUND_CANONICALIZED>
1

> <PUBCHEM_CACTVS_COMPLEXITY>
601

> <PUBCHEM_CACTVS_HBOND_ACCEPTOR>
1

> <PUBCHEM_CACTVS_HBOND_DONOR>
0

> <PUBCHEM_CACTVS_ROTATABLE_BOND>
4

> <PUBCHEM_CACTVS_SUBSKEYS>
AAADceB6AAAAAAAAAAAAAAAAAAAAAYAAAAAwYMAABYAAAGABUAAAHAAAAAAADgDBGAQwAIMAAADAEiBCAAgCAAAgAAAIiAAIAIgIICKAkRCEIAAggACIiAcQgMAPgAAAAAAQAAAAAAAAACAAAQAACAAAAA==

> <PUBCHEM_IUPAC_OPENEYE_NAME>
1-[4-(9-benzylfluoren-9-yl)but-2-ynyl]azepane

> <PUBCHEM_IUPAC_CAS_NAME>
1-[4-[9-(phenylmethyl)-9-fluorenyl]but-2-ynyl]azepane

> <PUBCHEM_IUPAC_NAME>
1-[4-(9-benzylfluoren-9-yl)but-2-ynyl]azepane

> <PUBCHEM_IUPAC_SYSTEMATIC_NAME>
1-[4-[9-(phenylmethyl)fluoren-9-yl]but-2-ynyl]azepane

> <PUBCHEM_IUPAC_TRADITIONAL_NAME>
1-[4-(9-benzylfluoren-9-yl)but-2-ynyl]azepane

> <PUBCHEM_IUPAC_INCHI>
InChI=1S/C30H31N/c1-2-12-22-31(21-11-1)23-13-10-20-30(24-25-14-4-3-5-15-25)28-18-8-6-16-26(28)27-17-7-9-19-29(27)30/h3-9,14-19H,1-2,11-12,20-24H2

> <PUBCHEM_IUPAC_INCHIKEY>
ZKLIBSYZMKSRJE-UHFFFAOYSA-N

> <PUBCHEM_XLOGP3_AA>
7.1

> <PUBCHEM_EXACT_MASS>
405.24565

> <PUBCHEM_MOLECULAR_FORMULA>
C30H31N

> <PUBCHEM_MOLECULAR_WEIGHT>
405.57384

> <PUBCHEM_OPENEYE_CAN_SMILES>
C1CCCN(CC1)CC#CCC2(C3=CC=CC=C3C4=CC=CC=C42)CC5=CC=CC=C5

> <PUBCHEM_OPENEYE_ISO_SMILES>
C1CCCN(CC1)CC#CCC2(C3=CC=CC=C3C4=CC=CC=C42)CC5=CC=CC=C5

> <PUBCHEM_CACTVS_TPSA>
3.2

> <PUBCHEM_MONOISOTOPIC_WEIGHT>
405.24565

> <PUBCHEM_TOTAL_CHARGE>
0

> <PUBCHEM_HEAVY_ATOM_COUNT>
31

> <PUBCHEM_ATOM_DEF_STEREO_COUNT>
0

> <PUBCHEM_ATOM_UDEF_STEREO_COUNT>
0

> <PUBCHEM_BOND_DEF_STEREO_COUNT>
0

> <PUBCHEM_BOND_UDEF_STEREO_COUNT>
0

> <PUBCHEM_ISOTOPIC_ATOM_COUNT>
0

> <PUBCHEM_COMPONENT_COUNT>
1

> <PUBCHEM_CACTVS_TAUTO_COUNT>
1

> <PUBCHEM_COORDINATE_TYPE>
1
5
255

> <PUBCHEM_BONDANNOTATIONS>
10  21  8
11  26  8
11  27  8
12  25  8
13  24  8
21  25  8
22  24  8
26  29  8
27  30  8
29  31  8
3  10  8
3  8  8
30  31  8
4  7  8
4  9  8
7  13  8
8  12  8
9  22  8

$$$$

