441928
  -OEChem-07051212562D

 99104  0     1  0  0  0  0  0999 V2000
    5.9998   -1.8922    0.0000 O   0  0  0  0  0  0  0  0  0  0  0  0
    7.8141   -3.6701    0.0000 O   0  0  0  0  0  0  0  0  0  0  0  0
   14.9249    1.1943    0.0000 O   0  0  0  0  0  0  0  0  0  0  0  0
   14.0705   -0.3123    0.0000 O   0  0  0  0  0  0  0  0  0  0  0  0
    5.1396   -0.3889    0.0000 O   0  0  0  0  0  0  0  0  0  0  0  0
    4.2639   -2.8855    0.0000 O   0  0  0  0  0  0  0  0  0  0  0  0
    2.5357   -1.8788    0.0000 O   0  0  0  0  0  0  0  0  0  0  0  0
    2.5434    0.1212    0.0000 O   0  0  0  0  0  0  0  0  0  0  0  0
   10.5269   -0.3398    0.0000 C   0  0  2  0  0  0  0  0  0  0  0  0
    9.6608    0.1601    0.0000 C   0  0  1  0  0  0  0  0  0  0  0  0
    8.7508   -0.3467    0.0000 C   0  0  2  0  0  0  0  0  0  0  0  0
   11.3929    0.1601    0.0000 C   0  0  1  0  0  0  0  0  0  0  0  0
    8.7428   -1.3883    0.0000 C   0  0  2  0  0  0  0  0  0  0  0  0
   10.5429   -1.3814    0.0000 C   0  0  0  0  0  0  0  0  0  0  0  0
    7.8074   -1.9380    0.0000 C   0  0  1  0  0  0  0  0  0  0  0  0
    9.6449   -1.9091    0.0000 C   0  0  0  0  0  0  0  0  0  0  0  0
   11.3929    1.1602    0.0000 C   0  0  0  0  0  0  0  0  0  0  0  0
    7.8240    0.2174    0.0000 C   0  0  0  0  0  0  0  0  0  0  0  0
    9.6608    1.1602    0.0000 C   0  0  0  0  0  0  0  0  0  0  0  0
   12.2868    1.6948    0.0000 C   0  0  1  0  0  0  0  0  0  0  0  0
   12.2868   -0.3745    0.0000 C   0  0  0  0  0  0  0  0  0  0  0  0
   13.1929    1.1810    0.0000 C   0  0  1  0  0  0  0  0  0  0  0  0
    6.8678   -1.3955    0.0000 C   0  0  2  0  0  0  0  0  0  0  0  0
   11.1697   -1.1059    0.0000 C   0  0  0  0  0  0  0  0  0  0  0  0
   13.1929    0.1393    0.0000 C   0  0  0  0  0  0  0  0  0  0  0  0
    8.7586    0.6533    0.0000 C   0  0  0  0  0  0  0  0  0  0  0  0
    6.8761   -0.3106    0.0000 C   0  0  0  0  0  0  0  0  0  0  0  0
   10.5269    1.6602    0.0000 C   0  0  0  0  0  0  0  0  0  0  0  0
   11.7350   -0.7795    0.0000 C   0  0  0  0  0  0  0  0  0  0  0  0
   12.2617    2.7795    0.0000 C   0  0  0  0  0  0  0  0  0  0  0  0
   14.1367    1.7162    0.0000 C   0  0  0  0  0  0  0  0  0  0  0  0
   13.1929    3.3364    0.0000 C   0  0  0  0  0  0  0  0  0  0  0  0
    7.3107   -2.8060    0.0000 C   0  0  0  0  0  0  0  0  0  0  0  0
    8.3107   -2.8021    0.0000 C   0  0  0  0  0  0  0  0  0  0  0  0
   14.1367    2.8012    0.0000 C   0  0  0  0  0  0  0  0  0  0  0  0
   14.0628    0.6877    0.0000 C   0  0  0  0  0  0  0  0  0  0  0  0
   13.6829    4.2082    0.0000 C   0  0  0  0  0  0  0  0  0  0  0  0
   12.6829    4.1966    0.0000 C   0  0  0  0  0  0  0  0  0  0  0  0
    5.1357   -1.3888    0.0000 C   0  0  2  0  0  0  0  0  0  0  0  0
    4.2678   -1.8855    0.0000 C   0  0  1  0  0  0  0  0  0  0  0  0
    3.4037   -1.3822    0.0000 C   0  0  2  0  0  0  0  0  0  0  0  0
    4.2755    0.1145    0.0000 C   0  0  0  0  0  0  0  0  0  0  0  0
    3.4075   -0.3822    0.0000 C   0  0  2  0  0  0  0  0  0  0  0  0
   10.3970    0.5851    0.0000 H   0  0  0  0  0  0  0  0  0  0  0  0
    8.7461   -2.2383    0.0000 H   0  0  0  0  0  0  0  0  0  0  0  0
   10.7610   -1.9618    0.0000 H   0  0  0  0  0  0  0  0  0  0  0  0
   11.1521   -1.2659    0.0000 H   0  0  0  0  0  0  0  0  0  0  0  0
    9.2476   -2.3851    0.0000 H   0  0  0  0  0  0  0  0  0  0  0  0
   10.0459   -2.3820    0.0000 H   0  0  0  0  0  0  0  0  0  0  0  0
    8.2322    0.6840    0.0000 H   0  0  0  0  0  0  0  0  0  0  0  0
    7.4341    0.6994    0.0000 H   0  0  0  0  0  0  0  0  0  0  0  0
    9.4488    1.7428    0.0000 H   0  0  0  0  0  0  0  0  0  0  0  0
    9.0503    1.0525    0.0000 H   0  0  0  0  0  0  0  0  0  0  0  0
   13.0163    2.1311    0.0000 H   0  0  0  0  0  0  0  0  0  0  0  0
   11.8822   -0.8443    0.0000 H   0  0  0  0  0  0  0  0  0  0  0  0
   12.6805   -0.8535    0.0000 H   0  0  0  0  0  0  0  0  0  0  0  0
    6.8666   -2.0155    0.0000 H   0  0  0  0  0  0  0  0  0  0  0  0
   10.6947   -1.5044    0.0000 H   0  0  0  0  0  0  0  0  0  0  0  0
   11.5682   -1.5808    0.0000 H   0  0  0  0  0  0  0  0  0  0  0  0
   11.6446   -0.7074    0.0000 H   0  0  0  0  0  0  0  0  0  0  0  0
   13.4020   -0.4444    0.0000 H   0  0  0  0  0  0  0  0  0  0  0  0
   13.8038    0.2454    0.0000 H   0  0  0  0  0  0  0  0  0  0  0  0
    9.3785    0.6485    0.0000 H   0  0  0  0  0  0  0  0  0  0  0  0
    8.7633    1.2733    0.0000 H   0  0  0  0  0  0  0  0  0  0  0  0
    8.1386    0.6581    0.0000 H   0  0  0  0  0  0  0  0  0  0  0  0
    6.6716    0.2747    0.0000 H   0  0  0  0  0  0  0  0  0  0  0  0
    6.2645   -0.4119    0.0000 H   0  0  0  0  0  0  0  0  0  0  0  0
   10.5269    2.2802    0.0000 H   0  0  0  0  0  0  0  0  0  0  0  0
   11.1524   -0.9916    0.0000 H   0  0  0  0  0  0  0  0  0  0  0  0
   11.9471   -1.3621    0.0000 H   0  0  0  0  0  0  0  0  0  0  0  0
   12.3176   -0.5674    0.0000 H   0  0  0  0  0  0  0  0  0  0  0  0
   12.0393    3.3582    0.0000 H   0  0  0  0  0  0  0  0  0  0  0  0
   11.6535    2.6593    0.0000 H   0  0  0  0  0  0  0  0  0  0  0  0
   14.3457    1.1325    0.0000 H   0  0  0  0  0  0  0  0  0  0  0  0
   14.7475    1.8223    0.0000 H   0  0  0  0  0  0  0  0  0  0  0  0
    6.8342   -2.4093    0.0000 H   0  0  0  0  0  0  0  0  0  0  0  0
    6.8373   -3.2063    0.0000 H   0  0  0  0  0  0  0  0  0  0  0  0
    7.7750   -3.1142    0.0000 H   0  0  0  0  0  0  0  0  0  0  0  0
    8.6228   -3.3378    0.0000 H   0  0  0  0  0  0  0  0  0  0  0  0
    8.8465   -2.4900    0.0000 H   0  0  0  0  0  0  0  0  0  0  0  0
   14.7475    2.6951    0.0000 H   0  0  0  0  0  0  0  0  0  0  0  0
   14.3457    3.3849    0.0000 H   0  0  0  0  0  0  0  0  0  0  0  0
   14.2233    3.9044    0.0000 H   0  0  0  0  0  0  0  0  0  0  0  0
   13.9866    4.7487    0.0000 H   0  0  0  0  0  0  0  0  0  0  0  0
   13.2162    4.5128    0.0000 H   0  0  0  0  0  0  0  0  0  0  0  0
   12.3667    4.7299    0.0000 H   0  0  0  0  0  0  0  0  0  0  0  0
   12.1496    3.8804    0.0000 H   0  0  0  0  0  0  0  0  0  0  0  0
   13.1424    4.5120    0.0000 H   0  0  0  0  0  0  0  0  0  0  0  0
    5.1333   -2.0088    0.0000 H   0  0  0  0  0  0  0  0  0  0  0  0
    7.5061   -4.2082    0.0000 H   0  0  0  0  0  0  0  0  0  0  0  0
   15.4642    0.8885    0.0000 H   0  0  0  0  0  0  0  0  0  0  0  0
    3.7296   -2.1934    0.0000 H   0  0  0  0  0  0  0  0  0  0  0  0
    2.8680   -1.0701    0.0000 H   0  0  0  0  0  0  0  0  0  0  0  0
    4.6758    0.5879    0.0000 H   0  0  0  0  0  0  0  0  0  0  0  0
    3.8788    0.5910    0.0000 H   0  0  0  0  0  0  0  0  0  0  0  0
    2.8694   -0.6901    0.0000 H   0  0  0  0  0  0  0  0  0  0  0  0
    3.7258   -3.1934    0.0000 H   0  0  0  0  0  0  0  0  0  0  0  0
    2.0000   -1.5668    0.0000 H   0  0  0  0  0  0  0  0  0  0  0  0
    2.5458    0.7412    0.0000 H   0  0  0  0  0  0  0  0  0  0  0  0
 23  1  1  1  0  0  0
 39  1  1  1  0  0  0
  2 33  1  0  0  0  0
  2 90  1  0  0  0  0
  3 36  1  0  0  0  0
  3 91  1  0  0  0  0
  4 36  2  0  0  0  0
  5 39  1  0  0  0  0
  5 42  1  0  0  0  0
 40  6  1  6  0  0  0
  6 97  1  0  0  0  0
 41  7  1  1  0  0  0
  7 98  1  0  0  0  0
 43  8  1  1  0  0  0
  8 99  1  0  0  0  0
  9 10  1  0  0  0  0
  9 12  1  0  0  0  0
  9 14  1  0  0  0  0
  9 24  1  1  0  0  0
 10 11  1  0  0  0  0
 10 19  1  0  0  0  0
 10 44  1  6  0  0  0
 11 13  1  0  0  0  0
 11 18  1  0  0  0  0
 11 26  1  1  0  0  0
 12 17  1  0  0  0  0
 12 21  1  0  0  0  0
 12 29  1  6  0  0  0
 13 15  1  0  0  0  0
 13 16  1  0  0  0  0
 13 45  1  6  0  0  0
 14 16  1  0  0  0  0
 14 46  1  0  0  0  0
 14 47  1  0  0  0  0
 15 23  1  0  0  0  0
 15 33  1  0  0  0  0
 15 34  1  1  0  0  0
 16 48  1  0  0  0  0
 16 49  1  0  0  0  0
 17 20  1  0  0  0  0
 17 28  2  0  0  0  0
 18 27  1  0  0  0  0
 18 50  1  0  0  0  0
 18 51  1  0  0  0  0
 19 28  1  0  0  0  0
 19 52  1  0  0  0  0
 19 53  1  0  0  0  0
 20 22  1  0  0  0  0
 20 30  1  0  0  0  0
 20 54  1  1  0  0  0
 21 25  1  0  0  0  0
 21 55  1  0  0  0  0
 21 56  1  0  0  0  0
 22 25  1  0  0  0  0
 22 31  1  0  0  0  0
 22 36  1  1  0  0  0
 23 27  1  0  0  0  0
 23 57  1  0  0  0  0
 24 58  1  0  0  0  0
 24 59  1  0  0  0  0
 24 60  1  0  0  0  0
 25 61  1  0  0  0  0
 25 62  1  0  0  0  0
 26 63  1  0  0  0  0
 26 64  1  0  0  0  0
 26 65  1  0  0  0  0
 27 66  1  0  0  0  0
 27 67  1  0  0  0  0
 28 68  1  0  0  0  0
 29 69  1  0  0  0  0
 29 70  1  0  0  0  0
 29 71  1  0  0  0  0
 30 32  1  0  0  0  0
 30 72  1  0  0  0  0
 30 73  1  0  0  0  0
 31 35  1  0  0  0  0
 31 74  1  0  0  0  0
 31 75  1  0  0  0  0
 32 35  1  0  0  0  0
 32 37  1  0  0  0  0
 32 38  1  0  0  0  0
 33 76  1  0  0  0  0
 33 77  1  0  0  0  0
 34 78  1  0  0  0  0
 34 79  1  0  0  0  0
 34 80  1  0  0  0  0
 35 81  1  0  0  0  0
 35 82  1  0  0  0  0
 37 83  1  0  0  0  0
 37 84  1  0  0  0  0
 37 88  1  0  0  0  0
 38 85  1  0  0  0  0
 38 86  1  0  0  0  0
 38 87  1  0  0  0  0
 39 40  1  0  0  0  0
 39 89  1  0  0  0  0
 40 41  1  0  0  0  0
 40 92  1  0  0  0  0
 41 43  1  0  0  0  0
 41 93  1  0  0  0  0
 42 43  1  0  0  0  0
 42 94  1  0  0  0  0
 42 95  1  0  0  0  0
 43 96  1  0  0  0  0
M  END
> <PUBCHEM_COMPOUND_CID>
441928

> <PUBCHEM_COMPOUND_CANONICALIZED>
1

> <PUBCHEM_CACTVS_COMPLEXITY>
1150

> <PUBCHEM_CACTVS_HBOND_ACCEPTOR>
8

> <PUBCHEM_CACTVS_HBOND_DONOR>
5

> <PUBCHEM_CACTVS_ROTATABLE_BOND>
4

> <PUBCHEM_CACTVS_SUBSKEYS>
AAADcfB8PAAAAAAAAAAAAAAAAAAAAAAAAAA0YMGCAAAAAADAAAAAGgAACAAADxSwgAMCCAAABgCIAiDSCAAAAAAgAAAACAEAAAgREBIAAQAiQAAFgAAPAAPI6PiPgAAAAAAAAADAAAYAADAAAAAAAAAAAA==

> <PUBCHEM_IUPAC_OPENEYE_NAME>
(4aS,6aR,6aS,6bR,8aR,9R,10S,12aR,14bS)-9-(hydroxymethyl)-2,2,6a,6b,9,12a-hexamethyl-10-[(2S,3R,4S,5S)-3,4,5-trihydroxytetrahydropyran-2-yl]oxy-1,3,4,5,6,6a,7,8,8a,10,11,12,13,14b-tetradecahydropicene-4a-carboxylic acid

> <PUBCHEM_IUPAC_CAS_NAME>
(4aS,6aR,6aS,6bR,8aR,9R,10S,12aR,14bS)-9-(hydroxymethyl)-2,2,6a,6b,9,12a-hexamethyl-10-[[(2S,3R,4S,5S)-3,4,5-trihydroxy-2-oxanyl]oxy]-1,3,4,5,6,6a,7,8,8a,10,11,12,13,14b-tetradecahydropicene-4a-carboxylic acid

> <PUBCHEM_IUPAC_NAME>
(4aS,6aR,6aS,6bR,8aR,9R,10S,12aR,14bS)-9-(hydroxymethyl)-2,2,6a,6b,9,12a-hexamethyl-10-[(2S,3R,4S,5S)-3,4,5-trihydroxyoxan-2-yl]oxy-1,3,4,5,6,6a,7,8,8a,10,11,12,13,14b-tetradecahydropicene-4a-carboxylic acid

> <PUBCHEM_IUPAC_SYSTEMATIC_NAME>
(4aS,6aR,6aS,6bR,8aR,9R,10S,12aR,14bS)-9-(hydroxymethyl)-2,2,6a,6b,9,12a-hexamethyl-10-[(2S,3R,4S,5S)-3,4,5-tris(oxidanyl)oxan-2-yl]oxy-1,3,4,5,6,6a,7,8,8a,10,11,12,13,14b-tetradecahydropicene-4a-carboxylic acid

> <PUBCHEM_IUPAC_TRADITIONAL_NAME>
(4aS,6aR,6aS,6bR,8aR,9R,10S,12aR,14bS)-2,2,6a,6b,9,12a-hexamethyl-9-methylol-10-[(2S,3R,4S,5S)-3,4,5-trihydroxytetrahydropyran-2-yl]oxy-1,3,4,5,6,6a,7,8,8a,10,11,12,13,14b-tetradecahydropicene-4a-carboxylic acid

> <PUBCHEM_IUPAC_INCHI>
InChI=1S/C35H56O8/c1-30(2)13-15-35(29(40)41)16-14-33(5)20(21(35)17-30)7-8-24-31(3)11-10-25(43-28-27(39)26(38)22(37)18-42-28)32(4,19-36)23(31)9-12-34(24,33)6/h7,21-28,36-39H,8-19H2,1-6H3,(H,40,41)/t21-,22-,23+,24+,25-,26-,27+,28-,31-,32-,33+,34+,35-/m0/s1

> <PUBCHEM_IUPAC_INCHIKEY>
QUBNLZCADIYAFW-RITZIESXSA-N

> <PUBCHEM_XLOGP3_AA>
4.7

> <PUBCHEM_EXACT_MASS>
604.397519

> <PUBCHEM_MOLECULAR_FORMULA>
C35H56O8

> <PUBCHEM_MOLECULAR_WEIGHT>
604.81434

> <PUBCHEM_OPENEYE_CAN_SMILES>
CC1(CCC2(CCC3(C(=CCC4C3(CCC5C4(CCC(C5(C)CO)OC6C(C(C(CO6)O)O)O)C)C)C2C1)C)C(=O)O)C

> <PUBCHEM_OPENEYE_ISO_SMILES>
C[C@]12CC[C@@H]([C@@]([C@@H]1CC[C@@]3([C@@H]2CC=C4[C@]3(CC[C@@]5([C@H]4CC(CC5)(C)C)C(=O)O)C)C)(C)CO)O[C@H]6[C@@H]([C@H]([C@H](CO6)O)O)O

> <PUBCHEM_CACTVS_TPSA>
137

> <PUBCHEM_MONOISOTOPIC_WEIGHT>
604.397519

> <PUBCHEM_TOTAL_CHARGE>
0

> <PUBCHEM_HEAVY_ATOM_COUNT>
43

> <PUBCHEM_ATOM_DEF_STEREO_COUNT>
13

> <PUBCHEM_ATOM_UDEF_STEREO_COUNT>
0

> <PUBCHEM_BOND_DEF_STEREO_COUNT>
0

> <PUBCHEM_BOND_UDEF_STEREO_COUNT>
0

> <PUBCHEM_ISOTOPIC_ATOM_COUNT>
0

> <PUBCHEM_COMPONENT_COUNT>
1

> <PUBCHEM_CACTVS_TAUTO_COUNT>
1

> <PUBCHEM_COORDINATE_TYPE>
1
5
255

> <PUBCHEM_BONDANNOTATIONS>
23  1  5
39  1  5
10  44  6
11  26  5
12  29  6
13  45  6
15  34  5
20  54  5
22  36  5
40  6  6
41  7  5
43  8  5
9  24  5

$$$$

