441729
  -OEChem-07051212552D

 58 63  0     1  0  0  0  0  0999 V2000
    3.9271    2.3640    0.0000 O   0  0  0  0  0  0  0  0  0  0  0  0
    4.5520    0.2569    0.0000 O   0  0  0  0  0  0  0  0  0  0  0  0
    5.1764   -1.6469    0.0000 N   0  0  3  0  0  0  0  0  0  0  0  0
    3.8831    0.3572    0.0000 C   0  0  1  0  0  0  0  0  0  0  0  0
    5.6591    0.3640    0.0000 C   0  0  1  0  0  0  0  0  0  0  0  0
    4.7931    0.8640    0.0000 C   0  0  1  0  0  0  0  0  0  0  0  0
    5.6752   -0.6775    0.0000 C   0  0  3  0  0  0  0  0  0  0  0  0
    4.6829   -0.2476    0.0000 C   0  0  1  0  0  0  0  0  0  0  0  0
    3.8751   -0.6844    0.0000 C   0  0  2  0  0  0  0  0  0  0  0  0
    4.7771   -1.2053    0.0000 C   0  0  0  0  0  0  0  0  0  0  0  0
    2.9396   -1.2342    0.0000 C   0  0  2  0  0  0  0  0  0  0  0  0
    2.9562    0.9212    0.0000 C   0  0  0  0  0  0  0  0  0  0  0  0
    4.7931    1.8640    0.0000 C   0  0  2  0  0  0  0  0  0  0  0  0
    6.5251    0.8640    0.0000 C   0  0  0  0  0  0  0  0  0  0  0  0
    5.2591    0.9640    0.0000 C   0  0  1  0  0  0  0  0  0  0  0  0
    5.6591    2.3640    0.0000 C   0  0  2  0  0  0  0  0  0  0  0  0
    3.8851   -2.3777    0.0000 C   0  0  0  0  0  0  0  0  0  0  0  0
    2.0000   -0.6917    0.0000 C   0  0  0  0  0  0  0  0  0  0  0  0
    6.5251    1.8640    0.0000 C   0  0  0  0  0  0  0  0  0  0  0  0
    2.0084    0.3933    0.0000 C   0  0  0  0  0  0  0  0  0  0  0  0
    5.2591    1.7640    0.0000 C   0  0  0  0  0  0  0  0  0  0  0  0
    2.2941   -1.9979    0.0000 C   0  0  0  0  0  0  0  0  0  0  0  0
    6.1129   -1.9976    0.0000 C   0  0  0  0  0  0  0  0  0  0  0  0
    4.5520    2.4711    0.0000 C   0  0  0  0  0  0  0  0  0  0  0  0
    6.2774   -2.9840    0.0000 C   0  0  0  0  0  0  0  0  0  0  0  0
    4.0570    1.2890    0.0000 H   0  0  0  0  0  0  0  0  0  0  0  0
    6.4162   -1.0940    0.0000 H   0  0  0  0  0  0  0  0  0  0  0  0
    4.3886   -1.0451    0.0000 H   0  0  0  0  0  0  0  0  0  0  0  0
    3.8685   -1.5344    0.0000 H   0  0  0  0  0  0  0  0  0  0  0  0
    4.3798   -1.6812    0.0000 H   0  0  0  0  0  0  0  0  0  0  0  0
    5.1781   -1.6782    0.0000 H   0  0  0  0  0  0  0  0  0  0  0  0
    3.3645    1.3879    0.0000 H   0  0  0  0  0  0  0  0  0  0  0  0
    2.5663    1.4033    0.0000 H   0  0  0  0  0  0  0  0  0  0  0  0
    4.7931    2.4840    0.0000 H   0  0  0  0  0  0  0  0  0  0  0  0
    6.7372    0.2814    0.0000 H   0  0  0  0  0  0  0  0  0  0  0  0
    7.1357    0.9717    0.0000 H   0  0  0  0  0  0  0  0  0  0  0  0
    4.6863    1.2013    0.0000 H   0  0  0  0  0  0  0  0  0  0  0  0
    5.6591    3.2140    0.0000 H   0  0  0  0  0  0  0  0  0  0  0  0
    3.3850   -2.7441    0.0000 H   0  0  0  0  0  0  0  0  0  0  0  0
    4.2216   -2.8984    0.0000 H   0  0  0  0  0  0  0  0  0  0  0  0
    1.3900   -0.5809    0.0000 H   0  0  0  0  0  0  0  0  0  0  0  0
    1.7864   -1.2737    0.0000 H   0  0  0  0  0  0  0  0  0  0  0  0
    7.1357    1.7563    0.0000 H   0  0  0  0  0  0  0  0  0  0  0  0
    6.7372    2.4466    0.0000 H   0  0  0  0  0  0  0  0  0  0  0  0
    1.8038    0.9786    0.0000 H   0  0  0  0  0  0  0  0  0  0  0  0
    1.3967    0.2919    0.0000 H   0  0  0  0  0  0  0  0  0  0  0  0
    1.8206   -1.5976    0.0000 H   0  0  0  0  0  0  0  0  0  0  0  0
    1.8938   -2.4714    0.0000 H   0  0  0  0  0  0  0  0  0  0  0  0
    2.7676   -2.3981    0.0000 H   0  0  0  0  0  0  0  0  0  0  0  0
    6.7329   -2.0034    0.0000 H   0  0  0  0  0  0  0  0  0  0  0  0
    6.2262   -1.3881    0.0000 H   0  0  0  0  0  0  0  0  0  0  0  0
    3.9271    2.9840    0.0000 H   0  0  0  0  0  0  0  0  0  0  0  0
    5.1509    0.0964    0.0000 H   0  0  0  0  0  0  0  0  0  0  0  0
    4.7125    3.0700    0.0000 H   0  0  0  0  0  0  0  0  0  0  0  0
    3.9531    2.3106    0.0000 H   0  0  0  0  0  0  0  0  0  0  0  0
    5.6658   -3.0860    0.0000 H   0  0  0  0  0  0  0  0  0  0  0  0
    6.3794   -3.5956    0.0000 H   0  0  0  0  0  0  0  0  0  0  0  0
    6.8889   -2.8820    0.0000 H   0  0  0  0  0  0  0  0  0  0  0  0
 13  1  1  1  0  0  0
  1 52  1  0  0  0  0
 15  2  1  6  0  0  0
  2 53  1  0  0  0  0
  3  8  1  0  0  0  0
  3 17  1  0  0  0  0
  3 23  1  0  0  0  0
  4  6  1  0  0  0  0
  4  8  1  0  0  0  0
  4  9  1  0  0  0  0
  4 12  1  6  0  0  0
  5  6  1  0  0  0  0
  5  7  1  0  0  0  0
  5 14  1  6  0  0  0
  5 15  1  0  0  0  0
  6 13  1  0  0  0  0
  6 26  1  1  0  0  0
  7  8  1  0  0  0  0
  7 10  1  0  0  0  0
  7 27  1  0  0  0  0
  8 28  1  6  0  0  0
  9 10  1  0  0  0  0
  9 11  1  0  0  0  0
  9 29  1  1  0  0  0
 10 30  1  0  0  0  0
 10 31  1  0  0  0  0
 11 17  1  0  0  0  0
 11 18  1  0  0  0  0
 11 22  1  1  0  0  0
 12 20  1  0  0  0  0
 12 32  1  0  0  0  0
 12 33  1  0  0  0  0
 13 16  1  0  0  0  0
 13 34  1  0  0  0  0
 14 19  1  0  0  0  0
 14 35  1  0  0  0  0
 14 36  1  0  0  0  0
 15 21  1  0  0  0  0
 15 37  1  0  0  0  0
 16 19  1  0  0  0  0
 16 21  1  0  0  0  0
 16 38  1  1  0  0  0
 17 39  1  0  0  0  0
 17 40  1  0  0  0  0
 18 20  1  0  0  0  0
 18 41  1  0  0  0  0
 18 42  1  0  0  0  0
 19 43  1  0  0  0  0
 19 44  1  0  0  0  0
 20 45  1  0  0  0  0
 20 46  1  0  0  0  0
 21 24  2  0  0  0  0
 22 47  1  0  0  0  0
 22 48  1  0  0  0  0
 22 49  1  0  0  0  0
 23 25  1  0  0  0  0
 23 50  1  0  0  0  0
 23 51  1  0  0  0  0
 24 54  1  0  0  0  0
 24 55  1  0  0  0  0
 25 56  1  0  0  0  0
 25 57  1  0  0  0  0
 25 58  1  0  0  0  0
M  END
> <PUBCHEM_COMPOUND_CID>
441729

> <PUBCHEM_COMPOUND_CANONICALIZED>
1

> <PUBCHEM_CACTVS_COMPLEXITY>
662

> <PUBCHEM_CACTVS_HBOND_ACCEPTOR>
3

> <PUBCHEM_CACTVS_HBOND_DONOR>
2

> <PUBCHEM_CACTVS_ROTATABLE_BOND>
1

> <PUBCHEM_CACTVS_SUBSKEYS>
AAADcfB6MAAAAAAAAAAAAAAAAAAAAYMAAAA8YMGDBYAWAGDAAAAAHgAACAAADzzhgAYCAAMAAgCAAgBCAAAAAAAgAAAAAAAIAAgAFAIAgQAEQAAEwACAEAHw0PMPgAAAAAAAAACCAAYAADAAASAACQAAAA==

> <PUBCHEM_IUPAC_INCHI>
InChI=1S/C22H33NO2/c1-4-23-11-20(3)7-5-8-22-15(20)10-14(18(22)23)21-9-6-13(12(2)19(21)25)16(24)17(21)22/h13-19,24-25H,2,4-11H2,1,3H3/t13-,14?,15-,16+,17-,18-,19-,20+,21+,22+/m1/s1

> <PUBCHEM_IUPAC_INCHIKEY>
OVXLNQAYPUEDSI-CNEDWAKUSA-N

> <PUBCHEM_XLOGP3_AA>
2.4

> <PUBCHEM_EXACT_MASS>
343.251129

> <PUBCHEM_MOLECULAR_FORMULA>
C22H33NO2

> <PUBCHEM_MOLECULAR_WEIGHT>
343.50292

> <PUBCHEM_OPENEYE_CAN_SMILES>
CCN1CC2(CCCC34C2CC(C31)C56C4C(C(CC5)C(=C)C6O)O)C

> <PUBCHEM_OPENEYE_ISO_SMILES>
CCN1C[C@@]2(CCC[C@@]34[C@@H]2CC([C@H]31)[C@]56[C@H]4[C@H]([C@H](CC5)C(=C)[C@H]6O)O)C

> <PUBCHEM_CACTVS_TPSA>
43.7

> <PUBCHEM_MONOISOTOPIC_WEIGHT>
343.251129

> <PUBCHEM_TOTAL_CHARGE>
0

> <PUBCHEM_HEAVY_ATOM_COUNT>
25

> <PUBCHEM_ATOM_DEF_STEREO_COUNT>
9

> <PUBCHEM_ATOM_UDEF_STEREO_COUNT>
1

> <PUBCHEM_BOND_DEF_STEREO_COUNT>
0

> <PUBCHEM_BOND_UDEF_STEREO_COUNT>
0

> <PUBCHEM_ISOTOPIC_ATOM_COUNT>
0

> <PUBCHEM_COMPONENT_COUNT>
1

> <PUBCHEM_CACTVS_TAUTO_COUNT>
1

> <PUBCHEM_COORDINATE_TYPE>
1
5
255

> <PUBCHEM_BONDANNOTATIONS>
13  1  5
11  22  5
16  38  5
15  2  6
4  12  6
5  14  6
6  26  5
7  27  3
8  28  6
9  29  5

$$$$

