5282256
  -OEChem-07051213042D

 57 56  0     0  0  0  0  0  0999 V2000
    2.5369   -4.1900    0.0000 O   0  0  0  0  0  0  0  0  0  0  0  0
    3.4030   -2.6900    0.0000 O   0  0  0  0  0  0  0  0  0  0  0  0
   11.1972    1.8100    0.0000 C   0  0  0  0  0  0  0  0  0  0  0  0
   11.1972    0.8100    0.0000 C   0  0  0  0  0  0  0  0  0  0  0  0
   12.0632    2.3100    0.0000 C   0  0  0  0  0  0  0  0  0  0  0  0
   10.3312    0.3100    0.0000 C   0  0  0  0  0  0  0  0  0  0  0  0
   12.0632    3.3100    0.0000 C   0  0  0  0  0  0  0  0  0  0  0  0
   10.3312   -0.6900    0.0000 C   0  0  0  0  0  0  0  0  0  0  0  0
   12.9292    3.8100    0.0000 C   0  0  0  0  0  0  0  0  0  0  0  0
    9.4651   -1.1900    0.0000 C   0  0  0  0  0  0  0  0  0  0  0  0
    9.4651   -2.1900    0.0000 C   0  0  0  0  0  0  0  0  0  0  0  0
   12.9292    4.8100    0.0000 C   0  0  0  0  0  0  0  0  0  0  0  0
   13.7953    3.3100    0.0000 C   0  0  0  0  0  0  0  0  0  0  0  0
    8.5991   -2.6900    0.0000 C   0  0  0  0  0  0  0  0  0  0  0  0
    8.5991   -3.6900    0.0000 C   0  0  0  0  0  0  0  0  0  0  0  0
    6.8671   -3.6900    0.0000 C   0  0  0  0  0  0  0  0  0  0  0  0
    6.0010   -4.1900    0.0000 C   0  0  0  0  0  0  0  0  0  0  0  0
    7.7331   -4.1900    0.0000 C   0  0  0  0  0  0  0  0  0  0  0  0
    5.1350   -3.6900    0.0000 C   0  0  0  0  0  0  0  0  0  0  0  0
    4.2690   -4.1900    0.0000 C   0  0  0  0  0  0  0  0  0  0  0  0
    3.4030   -3.6900    0.0000 C   0  0  0  0  0  0  0  0  0  0  0  0
   10.9851    2.3926    0.0000 H   0  0  0  0  0  0  0  0  0  0  0  0
   10.5866    1.7023    0.0000 H   0  0  0  0  0  0  0  0  0  0  0  0
   11.4092    0.2274    0.0000 H   0  0  0  0  0  0  0  0  0  0  0  0
   11.8078    0.9177    0.0000 H   0  0  0  0  0  0  0  0  0  0  0  0
   12.2753    1.7274    0.0000 H   0  0  0  0  0  0  0  0  0  0  0  0
   12.6738    2.4177    0.0000 H   0  0  0  0  0  0  0  0  0  0  0  0
   10.1191    0.8926    0.0000 H   0  0  0  0  0  0  0  0  0  0  0  0
    9.7206    0.2023    0.0000 H   0  0  0  0  0  0  0  0  0  0  0  0
   11.8512    3.8926    0.0000 H   0  0  0  0  0  0  0  0  0  0  0  0
   11.4526    3.2023    0.0000 H   0  0  0  0  0  0  0  0  0  0  0  0
   10.5432   -1.2726    0.0000 H   0  0  0  0  0  0  0  0  0  0  0  0
   10.9417   -0.5823    0.0000 H   0  0  0  0  0  0  0  0  0  0  0  0
   12.3923    4.1200    0.0000 H   0  0  0  0  0  0  0  0  0  0  0  0
    9.2531   -0.6074    0.0000 H   0  0  0  0  0  0  0  0  0  0  0  0
    8.8546   -1.2977    0.0000 H   0  0  0  0  0  0  0  0  0  0  0  0
    9.6772   -2.7726    0.0000 H   0  0  0  0  0  0  0  0  0  0  0  0
   10.0757   -2.0823    0.0000 H   0  0  0  0  0  0  0  0  0  0  0  0
   13.5492    4.8100    0.0000 H   0  0  0  0  0  0  0  0  0  0  0  0
   12.9292    5.4300    0.0000 H   0  0  0  0  0  0  0  0  0  0  0  0
   12.3092    4.8100    0.0000 H   0  0  0  0  0  0  0  0  0  0  0  0
   13.4853    2.7731    0.0000 H   0  0  0  0  0  0  0  0  0  0  0  0
   14.3322    3.0000    0.0000 H   0  0  0  0  0  0  0  0  0  0  0  0
   14.1053    3.8469    0.0000 H   0  0  0  0  0  0  0  0  0  0  0  0
    8.3871   -2.1074    0.0000 H   0  0  0  0  0  0  0  0  0  0  0  0
    7.9885   -2.7977    0.0000 H   0  0  0  0  0  0  0  0  0  0  0  0
    9.1360   -4.0000    0.0000 H   0  0  0  0  0  0  0  0  0  0  0  0
    7.2656   -3.2151    0.0000 H   0  0  0  0  0  0  0  0  0  0  0  0
    6.4685   -3.2151    0.0000 H   0  0  0  0  0  0  0  0  0  0  0  0
    5.6025   -4.6650    0.0000 H   0  0  0  0  0  0  0  0  0  0  0  0
    6.3996   -4.6650    0.0000 H   0  0  0  0  0  0  0  0  0  0  0  0
    7.7331   -4.8100    0.0000 H   0  0  0  0  0  0  0  0  0  0  0  0
    5.5335   -3.2151    0.0000 H   0  0  0  0  0  0  0  0  0  0  0  0
    4.7365   -3.2151    0.0000 H   0  0  0  0  0  0  0  0  0  0  0  0
    3.8705   -4.6650    0.0000 H   0  0  0  0  0  0  0  0  0  0  0  0
    4.6675   -4.6650    0.0000 H   0  0  0  0  0  0  0  0  0  0  0  0
    2.0000   -3.8800    0.0000 H   0  0  0  0  0  0  0  0  0  0  0  0
  1 21  1  0  0  0  0
  1 57  1  0  0  0  0
  2 21  2  0  0  0  0
  3  4  1  0  0  0  0
  3  5  1  0  0  0  0
  3 22  1  0  0  0  0
  3 23  1  0  0  0  0
  4  6  1  0  0  0  0
  4 24  1  0  0  0  0
  4 25  1  0  0  0  0
  5  7  1  0  0  0  0
  5 26  1  0  0  0  0
  5 27  1  0  0  0  0
  6  8  1  0  0  0  0
  6 28  1  0  0  0  0
  6 29  1  0  0  0  0
  7  9  1  0  0  0  0
  7 30  1  0  0  0  0
  7 31  1  0  0  0  0
  8 10  1  0  0  0  0
  8 32  1  0  0  0  0
  8 33  1  0  0  0  0
  9 12  1  0  0  0  0
  9 13  1  0  0  0  0
  9 34  1  0  0  0  0
 10 11  1  0  0  0  0
 10 35  1  0  0  0  0
 10 36  1  0  0  0  0
 11 14  1  0  0  0  0
 11 37  1  0  0  0  0
 11 38  1  0  0  0  0
 12 39  1  0  0  0  0
 12 40  1  0  0  0  0
 12 41  1  0  0  0  0
 13 42  1  0  0  0  0
 13 43  1  0  0  0  0
 13 44  1  0  0  0  0
 14 15  1  0  0  0  0
 14 45  1  0  0  0  0
 14 46  1  0  0  0  0
 15 18  2  0  0  0  0
 15 47  1  0  0  0  0
 16 17  1  0  0  0  0
 16 18  1  0  0  0  0
 16 48  1  0  0  0  0
 16 49  1  0  0  0  0
 17 19  1  0  0  0  0
 17 50  1  0  0  0  0
 17 51  1  0  0  0  0
 18 52  1  0  0  0  0
 19 20  1  0  0  0  0
 19 53  1  0  0  0  0
 19 54  1  0  0  0  0
 20 21  1  0  0  0  0
 20 55  1  0  0  0  0
 20 56  1  0  0  0  0
M  END
> <PUBCHEM_COMPOUND_CID>
5282256

> <PUBCHEM_COMPOUND_CANONICALIZED>
1

> <PUBCHEM_CACTVS_COMPLEXITY>
256

> <PUBCHEM_CACTVS_HBOND_ACCEPTOR>
2

> <PUBCHEM_CACTVS_HBOND_DONOR>
1

> <PUBCHEM_CACTVS_ROTATABLE_BOND>
15

> <PUBCHEM_CACTVS_SUBSKEYS>
AAADcfB4MAAAAAAAAAAAAAAAAAAAAAAAAAAAAAAAAAAAAAAAAAAAGgAACAAADQCAgAACCAAAAgCIACDSCAAAAAAgAAAICAEAAAgAABIAAQAAQAAEgAAIAAOIyMAMAAAAAAAAAAAAAAAAAAAAAAAAAAAAAA==

> <PUBCHEM_IUPAC_OPENEYE_NAME>
(Z)-17-methyloctadec-6-enoic acid

> <PUBCHEM_IUPAC_CAS_NAME>
(Z)-17-methyl-6-octadecenoic acid

> <PUBCHEM_IUPAC_NAME>
(Z)-17-methyloctadec-6-enoic acid

> <PUBCHEM_IUPAC_SYSTEMATIC_NAME>
(Z)-17-methyloctadec-6-enoic acid

> <PUBCHEM_IUPAC_TRADITIONAL_NAME>
(Z)-17-methyloctadec-6-enoic acid

> <PUBCHEM_IUPAC_INCHI>
InChI=1S/C19H36O2/c1-18(2)16-14-12-10-8-6-4-3-5-7-9-11-13-15-17-19(20)21/h7,9,18H,3-6,8,10-17H2,1-2H3,(H,20,21)/b9-7-

> <PUBCHEM_IUPAC_INCHIKEY>
QWCJNFBLSZGETP-CLFYSBASSA-N

> <PUBCHEM_XLOGP3_AA>
7.5

> <PUBCHEM_EXACT_MASS>
296.27153

> <PUBCHEM_MOLECULAR_FORMULA>
C19H36O2

> <PUBCHEM_MOLECULAR_WEIGHT>
296.48794

> <PUBCHEM_OPENEYE_CAN_SMILES>
CC(C)CCCCCCCCCC=CCCCCC(=O)O

> <PUBCHEM_OPENEYE_ISO_SMILES>
CC(C)CCCCCCCCC/C=C\CCCCC(=O)O

> <PUBCHEM_CACTVS_TPSA>
37.3

> <PUBCHEM_MONOISOTOPIC_WEIGHT>
296.27153

> <PUBCHEM_TOTAL_CHARGE>
0

> <PUBCHEM_HEAVY_ATOM_COUNT>
21

> <PUBCHEM_ATOM_DEF_STEREO_COUNT>
0

> <PUBCHEM_ATOM_UDEF_STEREO_COUNT>
0

> <PUBCHEM_BOND_DEF_STEREO_COUNT>
1

> <PUBCHEM_BOND_UDEF_STEREO_COUNT>
0

> <PUBCHEM_ISOTOPIC_ATOM_COUNT>
0

> <PUBCHEM_COMPONENT_COUNT>
1

> <PUBCHEM_CACTVS_TAUTO_COUNT>
1

> <PUBCHEM_COORDINATE_TYPE>
1
5
255

$$$$

