440723
  -OEChem-07051212502D

 45 46  0     1  0  0  0  0  0999 V2000
   11.0853    0.5888    0.0000 S   0  0  0  0  0  0  0  0  0  0  0  0
    8.4203   -1.4329    0.0000 O   0  0  0  0  0  0  0  0  0  0  0  0
   10.7252   -2.7234    0.0000 O   0  0  0  0  0  0  0  0  0  0  0  0
   12.3724   -2.1882    0.0000 O   0  0  0  0  0  0  0  0  0  0  0  0
    7.1930   -0.2297    0.0000 O   0  0  0  0  0  0  0  0  0  0  0  0
    2.4375    2.0908    0.0000 O   0  0  0  0  0  0  0  0  0  0  0  0
    3.6648    3.3131    0.0000 O   0  0  0  0  0  0  0  0  0  0  0  0
   10.1342   -0.7202    0.0000 N   0  0  0  0  0  0  0  0  0  0  0  0
    8.4203    0.9925    0.0000 N   0  0  0  0  0  0  0  0  0  0  0  0
    3.8488    0.6737    0.0000 N   0  0  0  0  0  0  0  0  0  0  0  0
   10.1342    0.2798    0.0000 C   0  0  1  0  0  0  0  0  0  0  0  0
   11.6731   -0.2202    0.0000 C   0  0  0  0  0  0  0  0  0  0  0  0
   11.0853   -1.0292    0.0000 C   0  0  2  0  0  0  0  0  0  0  0  0
    9.1259    0.2839    0.0000 C   0  0  1  0  0  0  0  0  0  0  0  0
    9.1259   -0.7243    0.0000 C   0  0  0  0  0  0  0  0  0  0  0  0
   12.4821    0.3676    0.0000 C   0  0  0  0  0  0  0  0  0  0  0  0
   12.4821   -0.8080    0.0000 C   0  0  0  0  0  0  0  0  0  0  0  0
   11.3943   -1.9803    0.0000 C   0  0  0  0  0  0  0  0  0  0  0  0
    7.4538    0.7357    0.0000 C   0  0  0  0  0  0  0  0  0  0  0  0
    6.7482    1.4442    0.0000 C   0  0  0  0  0  0  0  0  0  0  0  0
    5.7817    1.1874    0.0000 C   0  0  0  0  0  0  0  0  0  0  0  0
    5.0761    1.8960    0.0000 C   0  0  0  0  0  0  0  0  0  0  0  0
    4.1096    1.6391    0.0000 C   0  0  1  0  0  0  0  0  0  0  0  0
    3.4040    2.3477    0.0000 C   0  0  0  0  0  0  0  0  0  0  0  0
   10.0030    1.1196    0.0000 H   0  0  0  0  0  0  0  0  0  0  0  0
   10.6469   -1.4676    0.0000 H   0  0  0  0  0  0  0  0  0  0  0  0
    9.3650    0.8560    0.0000 H   0  0  0  0  0  0  0  0  0  0  0  0
   12.8465   -0.1340    0.0000 H   0  0  0  0  0  0  0  0  0  0  0  0
   12.9837    0.7320    0.0000 H   0  0  0  0  0  0  0  0  0  0  0  0
   12.1176    0.8692    0.0000 H   0  0  0  0  0  0  0  0  0  0  0  0
   12.1176   -1.3096    0.0000 H   0  0  0  0  0  0  0  0  0  0  0  0
   12.9837   -1.1724    0.0000 H   0  0  0  0  0  0  0  0  0  0  0  0
   12.8465   -0.3064    0.0000 H   0  0  0  0  0  0  0  0  0  0  0  0
    8.5820    1.5910    0.0000 H   0  0  0  0  0  0  0  0  0  0  0  0
    7.2568    1.7988    0.0000 H   0  0  0  0  0  0  0  0  0  0  0  0
    6.4873    2.0067    0.0000 H   0  0  0  0  0  0  0  0  0  0  0  0
   10.9167   -3.3131    0.0000 H   0  0  0  0  0  0  0  0  0  0  0  0
    5.2731    0.8328    0.0000 H   0  0  0  0  0  0  0  0  0  0  0  0
    6.0426    0.6249    0.0000 H   0  0  0  0  0  0  0  0  0  0  0  0
    5.5847    2.2505    0.0000 H   0  0  0  0  0  0  0  0  0  0  0  0
    4.8152    2.4584    0.0000 H   0  0  0  0  0  0  0  0  0  0  0  0
    3.5104    1.4799    0.0000 H   0  0  0  0  0  0  0  0  0  0  0  0
    3.2496    0.5145    0.0000 H   0  0  0  0  0  0  0  0  0  0  0  0
    4.2863    0.2344    0.0000 H   0  0  0  0  0  0  0  0  0  0  0  0
    2.0000    2.5302    0.0000 H   0  0  0  0  0  0  0  0  0  0  0  0
  1 11  1  0  0  0  0
  1 12  1  0  0  0  0
  2 15  2  0  0  0  0
  3 18  1  0  0  0  0
  3 37  1  0  0  0  0
  4 18  2  0  0  0  0
  5 19  2  0  0  0  0
  6 24  1  0  0  0  0
  6 45  1  0  0  0  0
  7 24  2  0  0  0  0
  8 11  1  0  0  0  0
  8 13  1  0  0  0  0
  8 15  1  0  0  0  0
 14  9  1  1  0  0  0
  9 19  1  0  0  0  0
  9 34  1  0  0  0  0
 23 10  1  6  0  0  0
 10 43  1  0  0  0  0
 10 44  1  0  0  0  0
 11 14  1  0  0  0  0
 11 25  1  6  0  0  0
 12 13  1  0  0  0  0
 12 16  1  0  0  0  0
 12 17  1  0  0  0  0
 13 18  1  6  0  0  0
 13 26  1  0  0  0  0
 14 15  1  0  0  0  0
 14 27  1  0  0  0  0
 16 28  1  0  0  0  0
 16 29  1  0  0  0  0
 16 30  1  0  0  0  0
 17 31  1  0  0  0  0
 17 32  1  0  0  0  0
 17 33  1  0  0  0  0
 19 20  1  0  0  0  0
 20 21  1  0  0  0  0
 20 35  1  0  0  0  0
 20 36  1  0  0  0  0
 21 22  1  0  0  0  0
 21 38  1  0  0  0  0
 21 39  1  0  0  0  0
 22 23  1  0  0  0  0
 22 40  1  0  0  0  0
 22 41  1  0  0  0  0
 23 24  1  0  0  0  0
 23 42  1  0  0  0  0
M  END
> <PUBCHEM_COMPOUND_CID>
440723

> <PUBCHEM_COMPOUND_CANONICALIZED>
1

> <PUBCHEM_CACTVS_COMPLEXITY>
581

> <PUBCHEM_CACTVS_HBOND_ACCEPTOR>
8

> <PUBCHEM_CACTVS_HBOND_DONOR>
4

> <PUBCHEM_CACTVS_ROTATABLE_BOND>
7

> <PUBCHEM_CACTVS_SUBSKEYS>
AAADceBzOABAAAAAAAAAAAAAAABYAWAAAAAAAAAABYAAAAAAAAAAHgQQCAAADCjFwASCCAPAAggIAAGQGAAAAABAABAAAIGIAAACQBoggCAUQAAEFgCwAAGYSQAYAAAAAAAAAAAAAAAAAAAAAAAAAAAAAA==

> <PUBCHEM_IUPAC_OPENEYE_NAME>
(2S,5R,6R)-6-[[(5S)-5-amino-5-carboxy-pentanoyl]amino]-3,3-dimethyl-7-oxo-4-thia-1-azabicyclo[3.2.0]heptane-2-carboxylic acid

> <PUBCHEM_IUPAC_CAS_NAME>
(2S,5R,6R)-6-[[(5S)-5-amino-5-carboxy-1-oxopentyl]amino]-3,3-dimethyl-7-oxo-4-thia-1-azabicyclo[3.2.0]heptane-2-carboxylic acid

> <PUBCHEM_IUPAC_NAME>
(2S,5R,6R)-6-[[(5S)-5-amino-5-carboxypentanoyl]amino]-3,3-dimethyl-7-oxo-4-thia-1-azabicyclo[3.2.0]heptane-2-carboxylic acid

> <PUBCHEM_IUPAC_SYSTEMATIC_NAME>
(2S,5R,6R)-6-[[(5S)-5-azanyl-6-oxidanyl-6-oxidanylidene-hexanoyl]amino]-3,3-dimethyl-7-oxidanylidene-4-thia-1-azabicyclo[3.2.0]heptane-2-carboxylic acid

> <PUBCHEM_IUPAC_TRADITIONAL_NAME>
(2S,5R,6R)-6-[[(5S)-5-amino-5-carboxy-pentanoyl]amino]-7-keto-3,3-dimethyl-4-thia-1-azabicyclo[3.2.0]heptane-2-carboxylic acid

> <PUBCHEM_IUPAC_INCHI>
InChI=1S/C14H21N3O6S/c1-14(2)9(13(22)23)17-10(19)8(11(17)24-14)16-7(18)5-3-4-6(15)12(20)21/h6,8-9,11H,3-5,15H2,1-2H3,(H,16,18)(H,20,21)(H,22,23)/t6-,8+,9-,11+/m0/s1

> <PUBCHEM_IUPAC_INCHIKEY>
MIFYHUACUWQUKT-GTQWGBSQSA-N

> <PUBCHEM_XLOGP3>
-2.5

> <PUBCHEM_EXACT_MASS>
359.115106

> <PUBCHEM_MOLECULAR_FORMULA>
C14H21N3O6S

> <PUBCHEM_MOLECULAR_WEIGHT>
359.39804

> <PUBCHEM_OPENEYE_CAN_SMILES>
CC1(C(N2C(S1)C(C2=O)NC(=O)CCCC(C(=O)O)N)C(=O)O)C

> <PUBCHEM_OPENEYE_ISO_SMILES>
CC1([C@@H](N2[C@H](S1)[C@@H](C2=O)NC(=O)CCC[C@@H](C(=O)O)N)C(=O)O)C

> <PUBCHEM_CACTVS_TPSA>
175

> <PUBCHEM_MONOISOTOPIC_WEIGHT>
359.115106

> <PUBCHEM_TOTAL_CHARGE>
0

> <PUBCHEM_HEAVY_ATOM_COUNT>
24

> <PUBCHEM_ATOM_DEF_STEREO_COUNT>
4

> <PUBCHEM_ATOM_UDEF_STEREO_COUNT>
0

> <PUBCHEM_BOND_DEF_STEREO_COUNT>
0

> <PUBCHEM_BOND_UDEF_STEREO_COUNT>
0

> <PUBCHEM_ISOTOPIC_ATOM_COUNT>
0

> <PUBCHEM_COMPONENT_COUNT>
1

> <PUBCHEM_CACTVS_TAUTO_COUNT>
4

> <PUBCHEM_COORDINATE_TYPE>
1
5
255

> <PUBCHEM_BONDANNOTATIONS>
23  10  6
11  25  6
13  18  6
14  9  5

$$$$

