12835
  -OEChem-06261207263D

 27 28  0     0  0  0  0  0  0999 V2000
   -3.0624   -1.4850   -0.0842 O   0  0  0  0  0  0  0  0  0  0  0  0
    3.8260   -0.9437    1.1178 O   0  0  0  0  0  0  0  0  0  0  0  0
    1.0172    2.1756    0.0385 N   0  0  0  0  0  0  0  0  0  0  0  0
    1.6389    0.1137   -0.4994 C   0  0  0  0  0  0  0  0  0  0  0  0
    0.2338    0.1103   -0.2748 C   0  0  0  0  0  0  0  0  0  0  0  0
   -0.1307    1.4158    0.0613 C   0  0  0  0  0  0  0  0  0  0  0  0
    2.4712   -1.0452   -0.8800 C   0  0  0  0  0  0  0  0  0  0  0  0
    2.0917    1.3975   -0.2997 C   0  0  0  0  0  0  0  0  0  0  0  0
   -0.7660   -0.8813   -0.3252 C   0  0  0  0  0  0  0  0  0  0  0  0
   -1.4503    1.7808    0.3508 C   0  0  0  0  0  0  0  0  0  0  0  0
    3.0382   -1.8183    0.3201 C   0  0  0  0  0  0  0  0  0  0  0  0
   -2.0902   -0.5309   -0.0381 C   0  0  0  0  0  0  0  0  0  0  0  0
   -2.4250    0.7803    0.2944 C   0  0  0  0  0  0  0  0  0  0  0  0
   -4.3925   -1.0693    0.2185 C   0  0  0  0  0  0  0  0  0  0  0  0
    1.8968   -1.7355   -1.5088 H   0  0  0  0  0  0  0  0  0  0  0  0
    3.3080   -0.6906   -1.4961 H   0  0  0  0  0  0  0  0  0  0  0  0
    3.0809    1.8287   -0.3669 H   0  0  0  0  0  0  0  0  0  0  0  0
    1.0595    3.1646    0.2419 H   0  0  0  0  0  0  0  0  0  0  0  0
   -0.5161   -1.9071   -0.5821 H   0  0  0  0  0  0  0  0  0  0  0  0
   -1.7107    2.8016    0.6098 H   0  0  0  0  0  0  0  0  0  0  0  0
    2.2339   -2.2166    0.9468 H   0  0  0  0  0  0  0  0  0  0  0  0
    3.6641   -2.6516   -0.0136 H   0  0  0  0  0  0  0  0  0  0  0  0
   -3.4356    1.1020    0.5251 H   0  0  0  0  0  0  0  0  0  0  0  0
    4.5487   -0.6098    0.5595 H   0  0  0  0  0  0  0  0  0  0  0  0
   -5.0336   -1.9531    0.1343 H   0  0  0  0  0  0  0  0  0  0  0  0
   -4.7620   -0.3381   -0.5085 H   0  0  0  0  0  0  0  0  0  0  0  0
   -4.4785   -0.7114    1.2501 H   0  0  0  0  0  0  0  0  0  0  0  0
  1 12  1  0  0  0  0
  1 14  1  0  0  0  0
  2 11  1  0  0  0  0
  2 24  1  0  0  0  0
  3  6  1  0  0  0  0
  3  8  1  0  0  0  0
  3 18  1  0  0  0  0
  4  5  1  0  0  0  0
  4  7  1  0  0  0  0
  4  8  2  0  0  0  0
  5  6  2  0  0  0  0
  5  9  1  0  0  0  0
  6 10  1  0  0  0  0
  7 11  1  0  0  0  0
  7 15  1  0  0  0  0
  7 16  1  0  0  0  0
  8 17  1  0  0  0  0
  9 12  2  0  0  0  0
  9 19  1  0  0  0  0
 10 13  2  0  0  0  0
 10 20  1  0  0  0  0
 11 21  1  0  0  0  0
 11 22  1  0  0  0  0
 12 13  1  0  0  0  0
 13 23  1  0  0  0  0
 14 25  1  0  0  0  0
 14 26  1  0  0  0  0
 14 27  1  0  0  0  0
M  END
> <PUBCHEM_COMPOUND_CID>
12835

> <PUBCHEM_CONFORMER_RMSD>
0.6

> <PUBCHEM_CONFORMER_DIVERSEORDER>
3
8
2
9
5
4
1
7
6

> <PUBCHEM_MMFF94_PARTIAL_CHARGES>
19
1 -0.36
10 -0.15
11 0.28
12 0.08
13 -0.15
14 0.28
17 0.15
18 0.27
19 0.15
2 -0.68
20 0.15
23 0.15
24 0.4
3 0.03
4 -0.18
6 -0.15
7 0.18
8 -0.3
9 -0.15

> <PUBCHEM_EFFECTIVE_ROTOR_COUNT>
3

> <PUBCHEM_PHARMACOPHORE_FEATURES>
7
1 1 acceptor
1 2 acceptor
1 2 donor
1 3 cation
1 3 donor
5 3 4 5 6 8 rings
6 5 6 9 10 12 13 rings

> <PUBCHEM_HEAVY_ATOM_COUNT>
14

> <PUBCHEM_ATOM_DEF_STEREO_COUNT>
0

> <PUBCHEM_ATOM_UDEF_STEREO_COUNT>
0

> <PUBCHEM_BOND_DEF_STEREO_COUNT>
0

> <PUBCHEM_BOND_UDEF_STEREO_COUNT>
0

> <PUBCHEM_ISOTOPIC_ATOM_COUNT>
0

> <PUBCHEM_COMPONENT_COUNT>
1

> <PUBCHEM_CACTVS_TAUTO_COUNT>
1

> <PUBCHEM_CONFORMER_ID>
0000322300000003

> <PUBCHEM_MMFF94_ENERGY>
31.4564

> <PUBCHEM_FEATURE_SELFOVERLAP>
35.612

> <PUBCHEM_SHAPE_FINGERPRINT>
10130415 120 18409725149611796067
11769659 78 18413670218627679783
12202030 40 16916486069913379841
12382932 28 18190182480381050594
13140716 1 18335979878018454977
14178342 30 18118964930269534298
14252887 29 18187075170295403102
15375462 189 18130500959060469258
15442244 35 18336819870869189945
16945 1 18120362413621962605
17834072 14 18337408113489274629
20559304 39 18335978688443992796
20645477 70 18337389340720376783
20715346 28 17531810289351388198
20871998 184 18042128815668445790
20871998 22 18262230127227436798
21501502 16 18410001144004820485
21501925 9 18408609157978201442
21650355 55 18123482823869656888
232386 152 18339918320384928742
2334 1 18408598141397864173
23463225 33 18409725170828046351
23552423 10 18341601569212323180
23559900 14 17974003153291288374
2748010 2 17112955921590882013
4990 188 12895353313015943947
5104073 3 18335692798905664387
53812654 25 18040439854080944767
5902787 121 18412545435517939626
7364860 26 18261107410002168988

> <PUBCHEM_SHAPE_MULTIPOLES>
271.39
6.11
2.13
0.79
1.96
0.53
-0.04
-3.88
-1.06
-0.33
-0.14
-0.46
-0.12
-0.38

> <PUBCHEM_SHAPE_SELFOVERLAP>
581.951

> <PUBCHEM_SHAPE_VOLUME>
152.2

> <PUBCHEM_COORDINATE_TYPE>
2
5
10

$$$$

