13684
  -OEChem-06241222392D

 23 22  0     0  0  0  0  0  0999 V2000
    3.5562    5.4004    0.0000 Cl  0  0  0  0  0  0  0  0  0  0  0  0
    2.5032    0.6994    0.0000 O   0  0  0  0  0  0  0  0  0  0  0  0
    0.0000    1.6473    0.0000 O   0  5  0  0  0  0  0  0  0  0  0  0
    0.5352    0.0000    0.0000 O   0  0  0  0  0  0  0  0  0  0  0  0
    0.7431    0.9781    0.0000 N   0  3  0  0  0  0  0  0  0  0  0  0
    5.0064    1.6473    0.0000 N   0  0  0  0  0  0  0  0  0  0  0  0
    5.9575    1.3383    0.0000 N   0  0  0  0  0  0  0  0  0  0  0  0
    7.6517    1.6984    0.0000 N   0  0  0  0  0  0  0  0  0  0  0  0
    6.4927    2.9855    0.0000 N   0  0  0  0  0  0  0  0  0  0  0  0
    3.3122    1.2872    0.0000 C   0  0  0  0  0  0  0  0  0  0  0  0
    3.0032    2.2382    0.0000 C   0  0  0  0  0  0  0  0  0  0  0  0
    1.6942    1.2872    0.0000 C   0  0  0  0  0  0  0  0  0  0  0  0
    2.0032    2.2382    0.0000 C   0  0  0  0  0  0  0  0  0  0  0  0
    4.2633    0.9781    0.0000 C   0  0  0  0  0  0  0  0  0  0  0  0
    6.7006    2.0074    0.0000 C   0  0  0  0  0  0  0  0  0  0  0  0
    3.3676    2.7398    0.0000 H   0  0  0  0  0  0  0  0  0  0  0  0
    1.6388    2.7398    0.0000 H   0  0  0  0  0  0  0  0  0  0  0  0
    4.3922    0.3717    0.0000 H   0  0  0  0  0  0  0  0  0  0  0  0
    8.1124    2.1132    0.0000 H   0  0  0  0  0  0  0  0  0  0  0  0
    7.7806    1.0919    0.0000 H   0  0  0  0  0  0  0  0  0  0  0  0
    6.9535    3.4004    0.0000 H   0  0  0  0  0  0  0  0  0  0  0  0
    5.9031    3.1771    0.0000 H   0  0  0  0  0  0  0  0  0  0  0  0
    4.5562    5.4004    0.0000 H   0  0  0  0  0  0  0  0  0  0  0  0
  1 23  1  0  0  0  0
  2 10  1  0  0  0  0
  2 12  1  0  0  0  0
  3  5  1  0  0  0  0
  4  5  2  0  0  0  0
  5 12  1  0  0  0  0
  6  7  1  0  0  0  0
  6 14  2  3  0  0  0
  7 15  2  0  0  0  0
  8 15  1  0  0  0  0
  8 19  1  0  0  0  0
  8 20  1  0  0  0  0
  9 15  1  0  0  0  0
  9 21  1  0  0  0  0
  9 22  1  0  0  0  0
 10 11  2  0  0  0  0
 10 14  1  0  0  0  0
 11 13  1  0  0  0  0
 11 16  1  0  0  0  0
 12 13  2  0  0  0  0
 13 17  1  0  0  0  0
 14 18  1  0  0  0  0
M  CHG  2   3  -1   5   1
M  END
> <PUBCHEM_COMPOUND_CID>
13684

> <PUBCHEM_COMPOUND_CANONICALIZED>
1

> <PUBCHEM_CACTVS_COMPLEXITY>
267

> <PUBCHEM_CACTVS_HBOND_ACCEPTOR>
5

> <PUBCHEM_CACTVS_HBOND_DONOR>
3

> <PUBCHEM_CACTVS_ROTATABLE_BOND>
2

> <PUBCHEM_CACTVS_SUBSKEYS>
AAADccBjsAAEAAAAAAAAAAAAAAAAASAAAAAAAAAAAAAAAAABgAAAHgAcAAAACATBkAQxhIBQRECpALFzcwSCCAAsIgAoiAEmbNoMJrKEtZuKGSDkwBEI6Ya8AAAAAAAAAAAAAAAAAAAAAAAAAAAAAAAAAA==

> <PUBCHEM_IUPAC_OPENEYE_NAME>
2-[(5-nitro-2-furyl)methyleneamino]guanidine hydrochloride

> <PUBCHEM_IUPAC_CAS_NAME>
2-[(5-nitro-2-furanyl)methylideneamino]guanidine hydrochloride

> <PUBCHEM_IUPAC_NAME>
2-[(5-nitrofuran-2-yl)methylideneamino]guanidine hydrochloride

> <PUBCHEM_IUPAC_SYSTEMATIC_NAME>
2-[(5-nitrofuran-2-yl)methylideneamino]guanidine hydrochloride

> <PUBCHEM_IUPAC_TRADITIONAL_NAME>
2-[(5-nitro-2-furyl)methyleneamino]guanidine hydrochloride

> <PUBCHEM_IUPAC_INCHI>
InChI=1S/C6H7N5O3.ClH/c7-6(8)10-9-3-4-1-2-5(14-4)11(12)13;/h1-3H,(H4,7,8,10);1H

> <PUBCHEM_IUPAC_INCHIKEY>
CHJIFAUFPHYNTD-UHFFFAOYSA-N

> <PUBCHEM_XLOGP3_AA>
1.465

> <PUBCHEM_EXACT_MASS>
233.031567

> <PUBCHEM_MOLECULAR_FORMULA>
C6H8ClN5O3

> <PUBCHEM_MOLECULAR_WEIGHT>
233.61242

> <PUBCHEM_OPENEYE_CAN_SMILES>
C1=C(OC(=C1)[N+](=O)[O-])C=NN=C(N)N.Cl

> <PUBCHEM_OPENEYE_ISO_SMILES>
C1=C(OC(=C1)[N+](=O)[O-])C=NN=C(N)N.Cl

> <PUBCHEM_CACTVS_TPSA>
136

> <PUBCHEM_MONOISOTOPIC_WEIGHT>
233.031567

> <PUBCHEM_TOTAL_CHARGE>
0

> <PUBCHEM_HEAVY_ATOM_COUNT>
15

> <PUBCHEM_ATOM_DEF_STEREO_COUNT>
0

> <PUBCHEM_ATOM_UDEF_STEREO_COUNT>
0

> <PUBCHEM_BOND_DEF_STEREO_COUNT>
0

> <PUBCHEM_BOND_UDEF_STEREO_COUNT>
1

> <PUBCHEM_ISOTOPIC_ATOM_COUNT>
0

> <PUBCHEM_COMPONENT_COUNT>
2

> <PUBCHEM_CACTVS_TAUTO_COUNT>
2

> <PUBCHEM_COORDINATE_TYPE>
1
5
255

> <PUBCHEM_BONDANNOTATIONS>
10  11  8
11  13  8
12  13  8
2  10  8
2  12  8
6  14  1

$$$$

