904
  -OEChem-07051212533D

 19 19  0     0  0  0  0  0  0999 V2000
    2.2892    1.3289    0.0015 O   0  0  0  0  0  0  0  0  0  0  0  0
    1.1479   -0.7341    0.0002 N   0  0  0  0  0  0  0  0  0  0  0  0
   -0.1984   -0.3677    0.0006 C   0  0  0  0  0  0  0  0  0  0  0  0
   -0.5543    0.9810   -0.0001 C   0  0  0  0  0  0  0  0  0  0  0  0
   -1.1883   -1.3502    0.0008 C   0  0  0  0  0  0  0  0  0  0  0  0
   -1.9003    1.3471   -0.0006 C   0  0  0  0  0  0  0  0  0  0  0  0
   -2.5344   -0.9842    0.0001 C   0  0  0  0  0  0  0  0  0  0  0  0
   -2.8903    0.3645   -0.0006 C   0  0  0  0  0  0  0  0  0  0  0  0
    2.2721    0.1023   -0.0009 C   0  0  0  0  0  0  0  0  0  0  0  0
    3.5568   -0.6877   -0.0010 C   0  0  0  0  0  0  0  0  0  0  0  0
    0.1541    1.7975   -0.0005 H   0  0  0  0  0  0  0  0  0  0  0  0
   -0.9256   -2.4051    0.0011 H   0  0  0  0  0  0  0  0  0  0  0  0
    1.3250   -1.7365    0.0004 H   0  0  0  0  0  0  0  0  0  0  0  0
   -2.1789    2.3970   -0.0011 H   0  0  0  0  0  0  0  0  0  0  0  0
   -3.3053   -1.7491    0.0000 H   0  0  0  0  0  0  0  0  0  0  0  0
   -3.9383    0.6495   -0.0012 H   0  0  0  0  0  0  0  0  0  0  0  0
    3.6172   -1.2946    0.9068 H   0  0  0  0  0  0  0  0  0  0  0  0
    4.4113   -0.0061   -0.0308 H   0  0  0  0  0  0  0  0  0  0  0  0
    3.5924   -1.3386   -0.8792 H   0  0  0  0  0  0  0  0  0  0  0  0
  1  9  2  0  0  0  0
  2  3  1  0  0  0  0
  2  9  1  0  0  0  0
  2 13  1  0  0  0  0
  3  4  2  0  0  0  0
  3  5  1  0  0  0  0
  4  6  1  0  0  0  0
  4 11  1  0  0  0  0
  5  7  2  0  0  0  0
  5 12  1  0  0  0  0
  6  8  2  0  0  0  0
  6 14  1  0  0  0  0
  7  8  1  0  0  0  0
  7 15  1  0  0  0  0
  8 16  1  0  0  0  0
  9 10  1  0  0  0  0
 10 17  1  0  0  0  0
 10 18  1  0  0  0  0
 10 19  1  0  0  0  0
M  END
> <PUBCHEM_COMPOUND_CID>
904

> <PUBCHEM_CONFORMER_RMSD>
0.4

> <PUBCHEM_CONFORMER_DIVERSEORDER>
1
2

> <PUBCHEM_MMFF94_PARTIAL_CHARGES>
16
1 -0.57
10 0.06
11 0.15
12 0.15
13 0.37
14 0.15
15 0.15
16 0.15
2 -0.55
3 0.12
4 -0.15
5 -0.15
6 -0.15
7 -0.15
8 -0.15
9 0.57

> <PUBCHEM_EFFECTIVE_ROTOR_COUNT>
2

> <PUBCHEM_PHARMACOPHORE_FEATURES>
3
1 1 acceptor
1 2 donor
6 3 4 5 6 7 8 rings

> <PUBCHEM_HEAVY_ATOM_COUNT>
10

> <PUBCHEM_ATOM_DEF_STEREO_COUNT>
0

> <PUBCHEM_ATOM_UDEF_STEREO_COUNT>
0

> <PUBCHEM_BOND_DEF_STEREO_COUNT>
0

> <PUBCHEM_BOND_UDEF_STEREO_COUNT>
0

> <PUBCHEM_ISOTOPIC_ATOM_COUNT>
0

> <PUBCHEM_COMPONENT_COUNT>
1

> <PUBCHEM_CACTVS_TAUTO_COUNT>
2

> <PUBCHEM_CONFORMER_ID>
0000038800000001

> <PUBCHEM_MMFF94_ENERGY>
27.2476

> <PUBCHEM_FEATURE_SELFOVERLAP>
15.223

> <PUBCHEM_SHAPE_FINGERPRINT>
10857977 72 18337962181629565601
12032990 46 18340199700867252803
12897270 3 18410293605396701774
12932764 1 17418102030716662272
13024252 1 15769772468497941315
14144814 61 18340770428969316154
14325111 11 18410855460312895040
14390081 3 18408888429568143497
15775835 57 18129658728658061112
16945 1 18410855494693647971
19973954 147 18410291389394296868
20201158 50 18260547857072343430
20645464 45 18114456846675116655
20871998 184 18187641337226815191
23402539 116 18187939403841038181
23552423 10 18200876175526825670
3248919 1 17095515201804746982
369184 2 18343022181379949515
5084963 1 18334013904040931632
6333449 129 18408325497095161303

> <PUBCHEM_SHAPE_MULTIPOLES>
194.94
5.1
1.44
0.6
3.07
0.12
0
-0.27
0
-0.38
0
-0.03
-0.01
0

> <PUBCHEM_SHAPE_SELFOVERLAP>
399.229

> <PUBCHEM_SHAPE_VOLUME>
112.2

> <PUBCHEM_COORDINATE_TYPE>
2
5
10

$$$$

