36474
  -OEChem-07051213013D

 22 24  0     0  0  0  0  0  0999 V2000
   -2.3848    3.1413   -0.0012 Cl  0  0  0  0  0  0  0  0  0  0  0  0
    2.3845   -3.1412   -0.0006 Cl  0  0  0  0  0  0  0  0  0  0  0  0
   -5.0756   -1.5205    0.0001 Cl  0  0  0  0  0  0  0  0  0  0  0  0
    5.0763    1.5206    0.0000 Cl  0  0  0  0  0  0  0  0  0  0  0  0
    0.0102    1.4269    0.0001 O   0  0  0  0  0  0  0  0  0  0  0  0
   -0.0104   -1.4268   -0.0003 O   0  0  0  0  0  0  0  0  0  0  0  0
   -1.1567    0.7054    0.0001 C   0  0  0  0  0  0  0  0  0  0  0  0
    1.1565   -0.7055    0.0000 C   0  0  0  0  0  0  0  0  0  0  0  0
    1.1666    0.6887    0.0001 C   0  0  0  0  0  0  0  0  0  0  0  0
   -1.1667   -0.6886   -0.0001 C   0  0  0  0  0  0  0  0  0  0  0  0
   -2.3566    1.4154    0.0005 C   0  0  0  0  0  0  0  0  0  0  0  0
    2.3567   -1.4155    0.0001 C   0  0  0  0  0  0  0  0  0  0  0  0
    2.3768    1.3813    0.0002 C   0  0  0  0  0  0  0  0  0  0  0  0
   -2.3769   -1.3814   -0.0001 C   0  0  0  0  0  0  0  0  0  0  0  0
   -3.5683    0.7238    0.0004 C   0  0  0  0  0  0  0  0  0  0  0  0
    3.5683   -0.7238    0.0002 C   0  0  0  0  0  0  0  0  0  0  0  0
   -3.5783   -0.6722    0.0001 C   0  0  0  0  0  0  0  0  0  0  0  0
    3.5783    0.6722    0.0002 C   0  0  0  0  0  0  0  0  0  0  0  0
    2.3771    2.4686    0.0002 H   0  0  0  0  0  0  0  0  0  0  0  0
   -2.3770   -2.4687   -0.0004 H   0  0  0  0  0  0  0  0  0  0  0  0
   -4.5083    1.2719    0.0004 H   0  0  0  0  0  0  0  0  0  0  0  0
    4.5083   -1.2718    0.0001 H   0  0  0  0  0  0  0  0  0  0  0  0
  1 11  1  0  0  0  0
  2 12  1  0  0  0  0
  3 17  1  0  0  0  0
  4 18  1  0  0  0  0
  5  7  1  0  0  0  0
  5  9  1  0  0  0  0
  6  8  1  0  0  0  0
  6 10  1  0  0  0  0
  7 10  2  0  0  0  0
  7 11  1  0  0  0  0
  8  9  2  0  0  0  0
  8 12  1  0  0  0  0
  9 13  1  0  0  0  0
 10 14  1  0  0  0  0
 11 15  2  0  0  0  0
 12 16  2  0  0  0  0
 13 18  2  0  0  0  0
 13 19  1  0  0  0  0
 14 17  2  0  0  0  0
 14 20  1  0  0  0  0
 15 17  1  0  0  0  0
 15 21  1  0  0  0  0
 16 18  1  0  0  0  0
 16 22  1  0  0  0  0
M  END
> <PUBCHEM_COMPOUND_CID>
36474

> <PUBCHEM_CONFORMER_RMSD>
0.6

> <PUBCHEM_CONFORMER_DIVERSEORDER>
1

> <PUBCHEM_MMFF94_PARTIAL_CHARGES>
22
1 -0.18
10 0.08
11 0.18
12 0.18
13 -0.15
14 -0.15
15 -0.15
16 -0.15
17 0.18
18 0.18
19 0.15
2 -0.18
20 0.15
21 0.15
22 0.15
3 -0.18
4 -0.18
5 -0.17
6 -0.17
7 0.08
8 0.08
9 0.08

> <PUBCHEM_EFFECTIVE_ROTOR_COUNT>
0.4

> <PUBCHEM_PHARMACOPHORE_FEATURES>
5
1 5 acceptor
1 6 acceptor
6 5 6 7 8 9 10 rings
6 7 10 11 14 15 17 rings
6 8 9 12 13 16 18 rings

> <PUBCHEM_HEAVY_ATOM_COUNT>
18

> <PUBCHEM_ATOM_DEF_STEREO_COUNT>
0

> <PUBCHEM_ATOM_UDEF_STEREO_COUNT>
0

> <PUBCHEM_BOND_DEF_STEREO_COUNT>
0

> <PUBCHEM_BOND_UDEF_STEREO_COUNT>
0

> <PUBCHEM_ISOTOPIC_ATOM_COUNT>
0

> <PUBCHEM_COMPONENT_COUNT>
1

> <PUBCHEM_CACTVS_TAUTO_COUNT>
1

> <PUBCHEM_CONFORMER_ID>
00008E7A00000001

> <PUBCHEM_MMFF94_ENERGY>
47.3622

> <PUBCHEM_FEATURE_SELFOVERLAP>
25.449

> <PUBCHEM_SHAPE_FINGERPRINT>
10366900 7 18338234864597218480
10608611 8 18338238270606815820
10616163 171 18409165528020873247
10670039 82 18272073991002869292
10967382 1 18338517434795896358
11471102 20 18411140216776553734
11578080 2 17201937035563411238
11806522 49 18341050735614597935
12553582 1 18263938648127580535
13140716 1 17978228262010093881
13380535 76 18342457002565653866
14144814 61 18410575119022817411
14178342 30 18267881638579480600
14223421 5 18410856606884436350
14289901 80 18410574023806157123
14576447 43 18044389240251689439
14790565 3 18194391195817531105
15196674 1 18410575106137915397
15375462 6 18410855464460110967
15442244 35 18122344841850714170
15536298 74 18335420196914641958
15927050 60 14228987688553296390
16945 1 18410573950791712774
17492 89 18338799034633497235
18186145 218 18115863182166054168
19591789 44 17905886972518513938
200 152 18260553290654151375
20286276 3 18265607873928906039
20510252 161 18334856138706846713
20645477 70 18334294296728647094
21267235 1 18410566288718198014
21501502 16 18338797934809710624
21618674 54 18339363066743869740
21652331 79 18410011009533851021
221490 88 18339354283657432514
2334 1 18410575131907719175
23366157 5 18059007419220543554
23402539 116 18334863762553144583
23402655 69 18335425681355829053
23463225 33 18339079392696359334
23557571 272 18260820484337277189
23558518 356 18271516619715527321
23559900 14 18047478000257787210
2748010 2 18338516464127967437
2871803 45 18412547595723102127
335352 9 17762338410866934205
33824 294 18411982442741842178
34934 24 18409736123248274415
350125 39 18410291380815210672
4214541 1 18338799025826693600
474 4 17560513989846315516
474229 33 18339924797195558898
5104073 3 18410575123317785522
7097593 13 17481999234021442699
7364860 26 18336264656399970414
77779 3 18410009974346382478
9709674 26 18412257363229245939

> <PUBCHEM_SHAPE_MULTIPOLES>
366.17
8.91
2.93
0.62
0
0
0
0
0
0
0
0
0
0

> <PUBCHEM_SHAPE_SELFOVERLAP>
780.584

> <PUBCHEM_SHAPE_VOLUME>
207

> <PUBCHEM_COORDINATE_TYPE>
2
5
10

$$$$

