443672
  -OEChem-07051213023D

 43 47  0     1  0  0  0  0  0999 V2000
   -1.3000   -1.6006   -0.7785 O   0  0  0  0  0  0  0  0  0  0  0  0
   -2.9927   -1.0531    2.3631 O   0  0  0  0  0  0  0  0  0  0  0  0
    4.0021   -1.7422    0.6507 O   0  0  0  0  0  0  0  0  0  0  0  0
    4.9749    0.2227   -0.3471 O   0  0  0  0  0  0  0  0  0  0  0  0
   -2.1420   -3.6738   -0.2046 O   0  0  0  0  0  0  0  0  0  0  0  0
   -0.7004    2.5518   -0.0447 N   0  0  2  0  0  0  0  0  0  0  0  0
   -1.2702    1.2243   -0.2603 C   0  0  1  0  0  0  0  0  0  0  0  0
   -0.5839    0.2185    0.6623 C   0  0  1  0  0  0  0  0  0  0  0  0
   -2.7102    1.4128    0.0442 C   0  0  0  0  0  0  0  0  0  0  0  0
   -1.3692   -1.1119    0.5619 C   0  0  1  0  0  0  0  0  0  0  0  0
   -1.6943    3.4599   -0.6273 C   0  0  0  0  0  0  0  0  0  0  0  0
   -3.0499    2.8521   -0.2034 C   0  0  0  0  0  0  0  0  0  0  0  0
    0.9062    0.2232    0.3418 C   0  0  0  0  0  0  0  0  0  0  0  0
    0.6392    2.6063   -0.6251 C   0  0  0  0  0  0  0  0  0  0  0  0
   -2.8640   -0.9077    0.9472 C   0  0  2  0  0  0  0  0  0  0  0  0
    1.4932    1.4027   -0.2281 C   0  0  0  0  0  0  0  0  0  0  0  0
   -3.4478    0.4449    0.6010 C   0  0  0  0  0  0  0  0  0  0  0  0
    1.7244   -0.8676    0.6723 C   0  0  0  0  0  0  0  0  0  0  0  0
    2.8716    1.4488   -0.4924 C   0  0  0  0  0  0  0  0  0  0  0  0
    3.0752   -0.7760    0.4009 C   0  0  0  0  0  0  0  0  0  0  0  0
    3.6316    0.3460   -0.1655 C   0  0  0  0  0  0  0  0  0  0  0  0
   -1.9581   -2.7727   -1.0116 C   0  0  0  0  0  0  0  0  0  0  0  0
    5.2029   -1.1023    0.1739 C   0  0  0  0  0  0  0  0  0  0  0  0
   -2.4388   -2.8059   -2.4307 C   0  0  0  0  0  0  0  0  0  0  0  0
   -1.1799    0.9324   -1.3192 H   0  0  0  0  0  0  0  0  0  0  0  0
   -0.6578    0.5607    1.7069 H   0  0  0  0  0  0  0  0  0  0  0  0
   -0.9107   -1.8535    1.2278 H   0  0  0  0  0  0  0  0  0  0  0  0
   -1.6297    3.4827   -1.7232 H   0  0  0  0  0  0  0  0  0  0  0  0
   -1.5804    4.4821   -0.2532 H   0  0  0  0  0  0  0  0  0  0  0  0
   -3.7939    2.9670   -0.9969 H   0  0  0  0  0  0  0  0  0  0  0  0
   -3.4105    3.3215    0.7181 H   0  0  0  0  0  0  0  0  0  0  0  0
    1.1330    3.5233   -0.2830 H   0  0  0  0  0  0  0  0  0  0  0  0
    0.5928    2.6305   -1.7218 H   0  0  0  0  0  0  0  0  0  0  0  0
   -3.5232   -1.6557    0.4979 H   0  0  0  0  0  0  0  0  0  0  0  0
   -4.4824    0.6394    0.8683 H   0  0  0  0  0  0  0  0  0  0  0  0
    1.3248   -1.7628    1.1348 H   0  0  0  0  0  0  0  0  0  0  0  0
    3.3274    2.3248   -0.9419 H   0  0  0  0  0  0  0  0  0  0  0  0
   -2.7324   -1.9628    2.5878 H   0  0  0  0  0  0  0  0  0  0  0  0
    5.6394   -1.7209   -0.6187 H   0  0  0  0  0  0  0  0  0  0  0  0
    5.9178   -1.0357    1.0021 H   0  0  0  0  0  0  0  0  0  0  0  0
   -1.5861   -2.7507   -3.1121 H   0  0  0  0  0  0  0  0  0  0  0  0
   -3.1278   -1.9760   -2.6073 H   0  0  0  0  0  0  0  0  0  0  0  0
   -2.9703   -3.7445   -2.6118 H   0  0  0  0  0  0  0  0  0  0  0  0
  1 10  1  0  0  0  0
  1 22  1  0  0  0  0
  2 15  1  0  0  0  0
  2 38  1  0  0  0  0
  3 20  1  0  0  0  0
  3 23  1  0  0  0  0
  4 21  1  0  0  0  0
  4 23  1  0  0  0  0
  5 22  2  0  0  0  0
  6  7  1  0  0  0  0
  6 11  1  0  0  0  0
  6 14  1  0  0  0  0
  7  8  1  0  0  0  0
  7  9  1  0  0  0  0
  7 25  1  0  0  0  0
  8 10  1  0  0  0  0
  8 13  1  0  0  0  0
  8 26  1  0  0  0  0
  9 12  1  0  0  0  0
  9 17  2  0  0  0  0
 10 15  1  0  0  0  0
 10 27  1  0  0  0  0
 11 12  1  0  0  0  0
 11 28  1  0  0  0  0
 11 29  1  0  0  0  0
 12 30  1  0  0  0  0
 12 31  1  0  0  0  0
 13 16  1  0  0  0  0
 13 18  2  0  0  0  0
 14 16  1  0  0  0  0
 14 32  1  0  0  0  0
 14 33  1  0  0  0  0
 15 17  1  0  0  0  0
 15 34  1  0  0  0  0
 16 19  2  0  0  0  0
 17 35  1  0  0  0  0
 18 20  1  0  0  0  0
 18 36  1  0  0  0  0
 19 21  1  0  0  0  0
 19 37  1  0  0  0  0
 20 21  2  0  0  0  0
 22 24  1  0  0  0  0
 23 39  1  0  0  0  0
 23 40  1  0  0  0  0
 24 41  1  0  0  0  0
 24 42  1  0  0  0  0
 24 43  1  0  0  0  0
M  END
> <PUBCHEM_COMPOUND_CID>
443672

> <PUBCHEM_CONFORMER_RMSD>
0.6

> <PUBCHEM_CONFORMER_DIVERSEORDER>
1
3
2

> <PUBCHEM_MMFF94_PARTIAL_CHARGES>
28
1 -0.43
10 0.28
11 0.27
12 0.14
13 -0.14
14 0.41
15 0.42
16 -0.14
17 -0.29
18 -0.15
19 -0.15
2 -0.68
20 0.08
21 0.08
22 0.66
23 0.56
24 0.06
3 -0.36
35 0.15
36 0.15
37 0.15
38 0.4
4 -0.36
5 -0.57
6 -0.81
7 0.41
8 0.14
9 -0.28

> <PUBCHEM_EFFECTIVE_ROTOR_COUNT>
3.6

> <PUBCHEM_PHARMACOPHORE_FEATURES>
11
1 2 acceptor
1 2 donor
1 3 acceptor
1 4 acceptor
1 5 acceptor
1 6 cation
5 3 4 20 21 23 rings
5 6 7 9 11 12 rings
6 13 16 18 19 20 21 rings
6 6 7 8 13 14 16 rings
6 7 8 9 10 15 17 rings

> <PUBCHEM_HEAVY_ATOM_COUNT>
24

> <PUBCHEM_ATOM_DEF_STEREO_COUNT>
4

> <PUBCHEM_ATOM_UDEF_STEREO_COUNT>
0

> <PUBCHEM_BOND_DEF_STEREO_COUNT>
0

> <PUBCHEM_BOND_UDEF_STEREO_COUNT>
0

> <PUBCHEM_ISOTOPIC_ATOM_COUNT>
0

> <PUBCHEM_COMPONENT_COUNT>
1

> <PUBCHEM_CACTVS_TAUTO_COUNT>
1

> <PUBCHEM_CONFORMER_ID>
0006C51800000001

> <PUBCHEM_MMFF94_ENERGY>
65.1463

> <PUBCHEM_FEATURE_SELFOVERLAP>
56.191

> <PUBCHEM_SHAPE_FINGERPRINT>
10616163 171 18342734169668788298
10906281 52 18125421245985683217
10967382 1 17911238643572296840
11014199 57 18050003294756613894
11552529 35 17241329062516130950
11578080 2 17750810851931472881
11720765 8 17320737897451226005
12403814 3 18410287012927929275
12422481 6 18122595475126241489
12553582 1 18268709398899671970
12633257 1 17676755505305162184
12715332 25 18335703887746499593
13004483 165 18044675112958263551
13140716 1 18263921046992587275
14790565 3 17694215973467942676
15042514 8 18410851045392658387
15131766 46 15624500547171834022
15196674 1 18200308944008364768
15420108 30 17897715686523766667
16752209 62 18339376265236334233
16945 1 18339925896491298609
19141452 34 18260825990485330954
19591789 44 18267305528450683458
20261772 1 18336256877686540474
20602899 9 17676499384074371983
20775438 99 17325258010979858565
21033648 29 18042421285877830096
21267235 1 18200580492914487616
21634736 98 18272643524824331700
22033318 11 17540786445406804779
22112679 90 17973149648135205783
22182313 1 18119510283610068591
23419403 2 16612867938252882680
23559900 14 18196093459809336576
23598288 3 18272076202219286239
23728640 28 18336833086261916163
2748010 2 18048300434643763679
3027735 51 17676786321986383031
335352 9 18056196014779410148
34934 24 18058452165484468152
352729 6 18124027098831183849
38695281 34 17975706296612971757
5104073 3 18271804679230960192
559249 180 18055921145936992098
6438754 60 17902537899251640359
6992083 37 18190163625516747859
81228 2 18191892040689647563
90525 40 18410291457992213999
9709674 26 18268705198548036098

> <PUBCHEM_SHAPE_MULTIPOLES>
459.58
7.67
3.92
1.3
10.14
0.28
0.13
1.84
-0.65
-3.97
1.74
-1.31
1.05
-0.88

> <PUBCHEM_SHAPE_SELFOVERLAP>
1026.304

> <PUBCHEM_SHAPE_VOLUME>
244.2

> <PUBCHEM_COORDINATE_TYPE>
2
5
10

$$$$

