442396
  -OEChem-07051212582D

 38 40  0     1  0  0  0  0  0999 V2000
    6.0290    0.9226    0.0000 O   0  0  0  0  0  0  0  0  0  0  0  0
    6.0174   -2.1467    0.0000 O   0  0  0  0  0  0  0  0  0  0  0  0
    4.2690   -2.1121    0.0000 O   0  0  0  0  0  0  0  0  0  0  0  0
    2.5369    0.8879    0.0000 O   0  0  0  0  0  0  0  0  0  0  0  0
   10.3914    2.4221    0.0000 O   0  0  0  0  0  0  0  0  0  0  0  0
    6.9350    0.4087    0.0000 C   0  0  1  0  0  0  0  0  0  0  0  0
    6.9350   -0.6329    0.0000 C   0  0  0  0  0  0  0  0  0  0  0  0
    5.1350   -0.6121    0.0000 C   0  0  0  0  0  0  0  0  0  0  0  0
    5.1350    0.3879    0.0000 C   0  0  0  0  0  0  0  0  0  0  0  0
    6.0290   -1.1467    0.0000 C   0  0  0  0  0  0  0  0  0  0  0  0
    7.7991    0.9121    0.0000 C   0  0  0  0  0  0  0  0  0  0  0  0
    4.2690    0.8879    0.0000 C   0  0  0  0  0  0  0  0  0  0  0  0
    4.2690   -1.1121    0.0000 C   0  0  0  0  0  0  0  0  0  0  0  0
    3.4030   -0.6121    0.0000 C   0  0  0  0  0  0  0  0  0  0  0  0
    3.4030    0.3879    0.0000 C   0  0  0  0  0  0  0  0  0  0  0  0
    4.2690    1.8879    0.0000 C   0  0  0  0  0  0  0  0  0  0  0  0
    8.6671    0.4154    0.0000 C   0  0  0  0  0  0  0  0  0  0  0  0
    7.7953    1.9121    0.0000 C   0  0  0  0  0  0  0  0  0  0  0  0
    2.5369   -1.1121    0.0000 C   0  0  0  0  0  0  0  0  0  0  0  0
    9.5312    0.9188    0.0000 C   0  0  0  0  0  0  0  0  0  0  0  0
    8.6594    2.4154    0.0000 C   0  0  0  0  0  0  0  0  0  0  0  0
    9.5273    1.9187    0.0000 C   0  0  0  0  0  0  0  0  0  0  0  0
    7.4726    0.0998    0.0000 H   0  0  0  0  0  0  0  0  0  0  0  0
    7.1441   -1.2166    0.0000 H   0  0  0  0  0  0  0  0  0  0  0  0
    7.5459   -0.5268    0.0000 H   0  0  0  0  0  0  0  0  0  0  0  0
    4.8890    1.8879    0.0000 H   0  0  0  0  0  0  0  0  0  0  0  0
    4.2690    2.5079    0.0000 H   0  0  0  0  0  0  0  0  0  0  0  0
    3.6490    1.8879    0.0000 H   0  0  0  0  0  0  0  0  0  0  0  0
    8.6694   -0.2046    0.0000 H   0  0  0  0  0  0  0  0  0  0  0  0
    7.2571    2.2200    0.0000 H   0  0  0  0  0  0  0  0  0  0  0  0
    2.2269   -0.5751    0.0000 H   0  0  0  0  0  0  0  0  0  0  0  0
    2.0000   -1.4221    0.0000 H   0  0  0  0  0  0  0  0  0  0  0  0
    2.8469   -1.6490    0.0000 H   0  0  0  0  0  0  0  0  0  0  0  0
   10.0693    0.6108    0.0000 H   0  0  0  0  0  0  0  0  0  0  0  0
    8.6570    3.0354    0.0000 H   0  0  0  0  0  0  0  0  0  0  0  0
    3.7320   -2.4221    0.0000 H   0  0  0  0  0  0  0  0  0  0  0  0
    2.0000    0.5779    0.0000 H   0  0  0  0  0  0  0  0  0  0  0  0
   10.9295    2.1142    0.0000 H   0  0  0  0  0  0  0  0  0  0  0  0
  1  6  1  0  0  0  0
  1  9  1  0  0  0  0
  2 10  2  0  0  0  0
  3 13  1  0  0  0  0
  3 36  1  0  0  0  0
  4 15  1  0  0  0  0
  4 37  1  0  0  0  0
  5 22  1  0  0  0  0
  5 38  1  0  0  0  0
  6  7  1  0  0  0  0
  6 11  1  6  0  0  0
  6 23  1  0  0  0  0
  7 10  1  0  0  0  0
  7 24  1  0  0  0  0
  7 25  1  0  0  0  0
  8  9  1  0  0  0  0
  8 10  1  0  0  0  0
  8 13  2  0  0  0  0
  9 12  2  0  0  0  0
 11 17  2  0  0  0  0
 11 18  1  0  0  0  0
 12 15  1  0  0  0  0
 12 16  1  0  0  0  0
 13 14  1  0  0  0  0
 14 15  2  0  0  0  0
 14 19  1  0  0  0  0
 16 26  1  0  0  0  0
 16 27  1  0  0  0  0
 16 28  1  0  0  0  0
 17 20  1  0  0  0  0
 17 29  1  0  0  0  0
 18 21  2  0  0  0  0
 18 30  1  0  0  0  0
 19 31  1  0  0  0  0
 19 32  1  0  0  0  0
 19 33  1  0  0  0  0
 20 22  2  0  0  0  0
 20 34  1  0  0  0  0
 21 22  1  0  0  0  0
 21 35  1  0  0  0  0
M  END
> <PUBCHEM_COMPOUND_CID>
442396

> <PUBCHEM_COMPOUND_CANONICALIZED>
1

> <PUBCHEM_CACTVS_COMPLEXITY>
417

> <PUBCHEM_CACTVS_HBOND_ACCEPTOR>
5

> <PUBCHEM_CACTVS_HBOND_DONOR>
3

> <PUBCHEM_CACTVS_ROTATABLE_BOND>
1

> <PUBCHEM_CACTVS_SUBSKEYS>
AAADceB4OAAAAAAAAAAAAAAAAAAAAAAAAAA0YIAAAAAAAACRQAAAGgAACAAADBSgmAIyBoAABgCIAqBSAAACCAAkIAAIiAEGCMgMJzaGNRqCeWCl4BUIuQeI7OzOIAACCAAIAABAAAQQABAAAAAAAAAAAA==

> <PUBCHEM_IUPAC_OPENEYE_NAME>
(2S)-5,7-dihydroxy-2-(4-hydroxyphenyl)-6,8-dimethyl-chroman-4-one

> <PUBCHEM_IUPAC_CAS_NAME>
(2S)-5,7-dihydroxy-2-(4-hydroxyphenyl)-6,8-dimethyl-3,4-dihydro-2H-1-benzopyran-4-one

> <PUBCHEM_IUPAC_NAME>
(2S)-5,7-dihydroxy-2-(4-hydroxyphenyl)-6,8-dimethyl-2,3-dihydrochromen-4-one

> <PUBCHEM_IUPAC_SYSTEMATIC_NAME>
(2S)-2-(4-hydroxyphenyl)-6,8-dimethyl-5,7-bis(oxidanyl)-2,3-dihydrochromen-4-one

> <PUBCHEM_IUPAC_TRADITIONAL_NAME>
(2S)-5,7-dihydroxy-2-(4-hydroxyphenyl)-6,8-dimethyl-chroman-4-one

> <PUBCHEM_IUPAC_INCHI>
InChI=1S/C17H16O5/c1-8-15(20)9(2)17-14(16(8)21)12(19)7-13(22-17)10-3-5-11(18)6-4-10/h3-6,13,18,20-21H,7H2,1-2H3/t13-/m0/s1

> <PUBCHEM_IUPAC_INCHIKEY>
DYHOLQACRGJEHX-ZDUSSCGKSA-N

> <PUBCHEM_XLOGP3_AA>
3.1

> <PUBCHEM_EXACT_MASS>
300.099774

> <PUBCHEM_MOLECULAR_FORMULA>
C17H16O5

> <PUBCHEM_MOLECULAR_WEIGHT>
300.30594

> <PUBCHEM_OPENEYE_CAN_SMILES>
CC1=C(C2=C(C(=C1O)C)OC(CC2=O)C3=CC=C(C=C3)O)O

> <PUBCHEM_OPENEYE_ISO_SMILES>
CC1=C(C2=C(C(=C1O)C)O[C@@H](CC2=O)C3=CC=C(C=C3)O)O

> <PUBCHEM_CACTVS_TPSA>
87

> <PUBCHEM_MONOISOTOPIC_WEIGHT>
300.099774

> <PUBCHEM_TOTAL_CHARGE>
0

> <PUBCHEM_HEAVY_ATOM_COUNT>
22

> <PUBCHEM_ATOM_DEF_STEREO_COUNT>
1

> <PUBCHEM_ATOM_UDEF_STEREO_COUNT>
0

> <PUBCHEM_BOND_DEF_STEREO_COUNT>
0

> <PUBCHEM_BOND_UDEF_STEREO_COUNT>
0

> <PUBCHEM_ISOTOPIC_ATOM_COUNT>
0

> <PUBCHEM_COMPONENT_COUNT>
1

> <PUBCHEM_CACTVS_TAUTO_COUNT>
42

> <PUBCHEM_COORDINATE_TYPE>
1
5
255

> <PUBCHEM_BONDANNOTATIONS>
11  17  8
11  18  8
12  15  8
13  14  8
14  15  8
17  20  8
18  21  8
20  22  8
21  22  8
6  11  6
8  13  8
8  9  8
9  12  8

$$$$

