16174
  -OEChem-07051212463D

 52 54  0     1  0  0  0  0  0999 V2000
    1.0848    1.3340    0.7812 O   0  0  0  0  0  0  0  0  0  0  0  0
   -3.3100    2.4848   -1.3894 O   0  0  0  0  0  0  0  0  0  0  0  0
   -1.8183    3.1210    1.7817 O   0  0  0  0  0  0  0  0  0  0  0  0
   -0.9033    1.1629    2.5057 O   0  0  0  0  0  0  0  0  0  0  0  0
    4.8654    1.1905    0.8060 O   0  0  0  0  0  0  0  0  0  0  0  0
   -1.3677    1.2815   -0.9643 N   0  0  0  0  0  0  0  0  0  0  0  0
   -2.5080   -2.9118    0.2372 N   0  0  0  0  0  0  0  0  0  0  0  0
   -2.8456   -0.5930    0.7929 N   0  0  0  0  0  0  0  0  0  0  0  0
    2.9532    0.3326   -0.1595 N   0  0  0  0  0  0  0  0  0  0  0  0
   -1.1999   -1.8095    1.8521 N   0  0  0  0  0  0  0  0  0  0  0  0
    4.9384   -0.9916    0.1855 N   0  0  0  0  0  0  0  0  0  0  0  0
    5.0073   -3.2264   -0.4542 N   0  0  0  0  0  0  0  0  0  0  0  0
   -3.9261   -0.5132   -0.1988 C   0  0  2  0  0  0  0  0  0  0  0  0
   -0.4980    2.4062   -0.7137 C   0  0  1  0  0  0  0  0  0  0  0  0
   -4.6152   -1.8631   -0.3879 C   0  0  0  0  0  0  0  0  0  0  0  0
    0.1222    2.3798    0.6894 C   0  0  1  0  0  0  0  0  0  0  0  0
   -3.3665    0.0687   -1.4937 C   0  0  0  0  0  0  0  0  0  0  0  0
   -3.6087   -2.9524   -0.7225 C   0  0  0  0  0  0  0  0  0  0  0  0
    2.2131    1.5627   -0.0689 C   0  0  1  0  0  0  0  0  0  0  0  0
    0.5789    2.3749   -1.7578 C   0  0  0  0  0  0  0  0  0  0  0  0
   -2.7108    1.4182   -1.2834 C   0  0  0  0  0  0  0  0  0  0  0  0
    1.8303    2.0007   -1.4548 C   0  0  0  0  0  0  0  0  0  0  0  0
   -2.2243   -1.7314    0.9348 C   0  0  0  0  0  0  0  0  0  0  0  0
   -0.8956    2.1283    1.7567 C   0  0  0  0  0  0  0  0  0  0  0  0
   -1.7056   -4.1268    0.3299 C   0  0  0  0  0  0  0  0  0  0  0  0
    2.3355   -0.7737   -0.7195 C   0  0  0  0  0  0  0  0  0  0  0  0
    4.2874    0.2245    0.3046 C   0  0  0  0  0  0  0  0  0  0  0  0
    2.9446   -1.9512   -0.8441 C   0  0  0  0  0  0  0  0  0  0  0  0
    4.3423   -2.0270   -0.3451 C   0  0  0  0  0  0  0  0  0  0  0  0
   -4.6721    0.1870    0.1978 H   0  0  0  0  0  0  0  0  0  0  0  0
   -1.0689    3.3352   -0.8272 H   0  0  0  0  0  0  0  0  0  0  0  0
   -5.1303   -2.1304    0.5444 H   0  0  0  0  0  0  0  0  0  0  0  0
   -5.3807   -1.8032   -1.1697 H   0  0  0  0  0  0  0  0  0  0  0  0
    0.6215    3.3292    0.9273 H   0  0  0  0  0  0  0  0  0  0  0  0
   -2.6370   -0.6067   -1.9564 H   0  0  0  0  0  0  0  0  0  0  0  0
   -4.1717    0.2019   -2.2262 H   0  0  0  0  0  0  0  0  0  0  0  0
   -3.2143   -2.8260   -1.7367 H   0  0  0  0  0  0  0  0  0  0  0  0
   -4.1152   -3.9242   -0.6873 H   0  0  0  0  0  0  0  0  0  0  0  0
    2.8299    2.3438    0.3894 H   0  0  0  0  0  0  0  0  0  0  0  0
   -0.9649    0.3504   -0.9038 H   0  0  0  0  0  0  0  0  0  0  0  0
    0.3362    2.6819   -2.7706 H   0  0  0  0  0  0  0  0  0  0  0  0
    2.5944    2.0272   -2.2270 H   0  0  0  0  0  0  0  0  0  0  0  0
   -1.7699   -4.5500    1.3374 H   0  0  0  0  0  0  0  0  0  0  0  0
   -2.0462   -4.8944   -0.3735 H   0  0  0  0  0  0  0  0  0  0  0  0
   -0.6577   -3.9135    0.0942 H   0  0  0  0  0  0  0  0  0  0  0  0
    1.3099   -0.6578   -1.0528 H   0  0  0  0  0  0  0  0  0  0  0  0
   -0.6840   -2.6628    2.0305 H   0  0  0  0  0  0  0  0  0  0  0  0
   -0.9353   -0.9967    2.3981 H   0  0  0  0  0  0  0  0  0  0  0  0
    2.4672   -2.8211   -1.2749 H   0  0  0  0  0  0  0  0  0  0  0  0
   -2.4976    2.9723    2.4735 H   0  0  0  0  0  0  0  0  0  0  0  0
    4.5721   -4.0477   -0.8611 H   0  0  0  0  0  0  0  0  0  0  0  0
    5.9624   -3.3237   -0.1268 H   0  0  0  0  0  0  0  0  0  0  0  0
  1 16  1  0  0  0  0
  1 19  1  0  0  0  0
  2 21  2  0  0  0  0
  3 24  1  0  0  0  0
  3 50  1  0  0  0  0
  4 24  2  0  0  0  0
  5 27  2  0  0  0  0
  6 14  1  0  0  0  0
  6 21  1  0  0  0  0
  6 40  1  0  0  0  0
  7 18  1  0  0  0  0
  7 23  1  0  0  0  0
  7 25  1  0  0  0  0
  8 13  1  0  0  0  0
  8 23  2  0  0  0  0
  9 19  1  0  0  0  0
  9 26  1  0  0  0  0
  9 27  1  0  0  0  0
 10 23  1  0  0  0  0
 10 47  1  0  0  0  0
 10 48  1  0  0  0  0
 11 27  1  0  0  0  0
 11 29  2  0  0  0  0
 12 29  1  0  0  0  0
 12 51  1  0  0  0  0
 12 52  1  0  0  0  0
 13 15  1  0  0  0  0
 13 17  1  0  0  0  0
 13 30  1  0  0  0  0
 14 16  1  0  0  0  0
 14 20  1  0  0  0  0
 14 31  1  0  0  0  0
 15 18  1  0  0  0  0
 15 32  1  0  0  0  0
 15 33  1  0  0  0  0
 16 24  1  0  0  0  0
 16 34  1  0  0  0  0
 17 21  1  0  0  0  0
 17 35  1  0  0  0  0
 17 36  1  0  0  0  0
 18 37  1  0  0  0  0
 18 38  1  0  0  0  0
 19 22  1  0  0  0  0
 19 39  1  0  0  0  0
 20 22  2  0  0  0  0
 20 41  1  0  0  0  0
 22 42  1  0  0  0  0
 25 43  1  0  0  0  0
 25 44  1  0  0  0  0
 25 45  1  0  0  0  0
 26 28  2  0  0  0  0
 26 46  1  0  0  0  0
 28 29  1  0  0  0  0
 28 49  1  0  0  0  0
M  END
> <PUBCHEM_COMPOUND_CID>
16174

> <PUBCHEM_CONFORMER_RMSD>
1.2

> <PUBCHEM_CONFORMER_DIVERSEORDER>
1
443
284
67
292
79
334
271
43
133
309
435
261
382
111
341
259
40
332
104
166
417
311
415
279
102
242
229
302
393
112
376
221
199
304
137
196
25
238
159
162
151
11
71
188
362
295
253
33
114
288
82
315
361
171
366
107
19
212
392
189
78
143
294
396
216
136
379
32
281
94
85
342
325
438
351
144
12
214
35
63
211
293
391
83
29
344
34
178
290
72
205
180
64
352
161
218
239
223
313
227
53
70
406
168
398
172
283
364
365
419
36
140
323
185
110
336
190
41
272
164
165
429
181
339
134
347
256
410
285
87
286
97
154
50
298
158
5
86
383
153
408
350
65
105
24
208
444
127
424
314
222
346
232
68
440
187
28
55
54
414
89
403
191
215
194
156
206
333
195
39
265
93
30
262
240
412
146
95
106
263
327
394
328
76
377
254
402
37
183
213
75
125
103
129
160
18
51
192
220
252
210
109
198
371
278
150
442
374
73
340
428
121
138
368
241
308
46
38
420
88
305
326
197
13
226
66
270
120
182
407
303
343
353
425
431
312
21
250
356
96
207
321
296
9
335
173
248
139
257
441
90
132
179
69
411
135
2
141
152
388
289
45
58
77
395
291
324
244
148
15
169
418
234
445
117
80
184
91
276
345
203
387
101
348
26
128
231
369
118
319
360
423
56
236
7
130
60
149
20
273
124
390
274
23
275
409
131
287
177
258
100
175
329
264
14
228
4
27
116
119
243
17
338
237
81
330
219
349
446
439
282
6
400
163
386
373
434
126
413
277
363
299
426
375
16
306
49
432
142
147
99
399
174
331
167
113
115
200
297
401
224
108
193
84
384
170
267
31
355
385
260
422
74
430
372
316
251
322
98
22
337
280
235
155
317
367
397
381
52
380
405
307
217
157
300
370
378
247
230
421
427
204
10
145
437
318
59
310
3
416
233
249
47
255
8
202
122
301
354
436
433
266
389
209
176
358
201
48
320
245
92
57
357
42
269
404
61
359
44
62
186
225
123
246
268

> <PUBCHEM_MMFF94_PARTIAL_CHARGES>
38
1 -0.56
10 -0.85
11 -0.66
12 -0.85
13 0.25
14 0.44
16 0.34
17 0.06
18 0.37
19 0.72
2 -0.57
20 -0.29
21 0.57
22 -0.29
23 0.55
24 0.66
25 0.37
26 -0.04
27 0.84
28 -0.14
29 0.49
3 -0.65
4 -0.57
40 0.37
41 0.15
42 0.15
46 0.15
47 0.4
48 0.4
49 0.15
5 -0.57
50 0.5
51 0.4
52 0.4
6 -0.73
7 -0.79
8 -0.7
9 -0.47

> <PUBCHEM_EFFECTIVE_ROTOR_COUNT>
7.6

> <PUBCHEM_PHARMACOPHORE_FEATURES>
14
1 1 acceptor
1 10 donor
1 11 donor
1 12 donor
1 2 acceptor
1 3 acceptor
1 4 acceptor
1 5 acceptor
1 6 donor
3 3 4 24 anion
4 7 8 10 23 cation
6 1 14 16 19 20 22 rings
6 7 8 13 15 18 23 rings
6 9 11 26 27 28 29 rings

> <PUBCHEM_HEAVY_ATOM_COUNT>
29

> <PUBCHEM_ATOM_DEF_STEREO_COUNT>
0

> <PUBCHEM_ATOM_UDEF_STEREO_COUNT>
4

> <PUBCHEM_BOND_DEF_STEREO_COUNT>
0

> <PUBCHEM_BOND_UDEF_STEREO_COUNT>
0

> <PUBCHEM_ISOTOPIC_ATOM_COUNT>
0

> <PUBCHEM_COMPONENT_COUNT>
1

> <PUBCHEM_CACTVS_TAUTO_COUNT>
12

> <PUBCHEM_CONFORMER_ID>
00003F2E00000001

> <PUBCHEM_MMFF94_ENERGY>
67.2489

> <PUBCHEM_FEATURE_SELFOVERLAP>
71.152

> <PUBCHEM_SHAPE_FINGERPRINT>
10764073 3 17698964593105995323
107951 10 17130988840610890713
12422481 6 18055319618692748777
12506688 2 18263641753906982365
13402501 40 18411423886445006407
13544653 18 18260275143939862036
14251740 79 18268991058391359754
14251757 17 18342466940766438451
19315092 285 16810397337472625719
20775438 99 17325814333794636679
20775530 9 18338230440792102223
22907989 373 12966832499893278785
23559900 14 18125450713292019237
3027735 51 18120657087349704359
3493558 16 9286566660945422740
392239 28 17315100804320134464
463206 1 18046628910650592383
484985 159 18117835718826959319
9709674 26 18411987974643603172
9981440 41 14926485695725162344

> <PUBCHEM_SHAPE_MULTIPOLES>
532.59
9.21
4.62
1.71
6.53
2.21
-0.56
7.06
1.41
-1.28
-0.02
-0.85
-1.18
0.59

> <PUBCHEM_SHAPE_SELFOVERLAP>
1125.238

> <PUBCHEM_SHAPE_VOLUME>
291.4

> <PUBCHEM_COORDINATE_TYPE>
2
5
10

$$$$

