443831
  -OEChem-07051213033D

 64 68  0     1  0  0  0  0  0999 V2000
    2.1550    0.7270   -0.2008 O   0  0  0  0  0  0  0  0  0  0  0  0
    4.3857    1.1141   -0.9087 O   0  0  0  0  0  0  0  0  0  0  0  0
    2.8404   -1.7221    1.0610 O   0  0  0  0  0  0  0  0  0  0  0  0
    5.9621    3.1266    0.4282 O   0  0  0  0  0  0  0  0  0  0  0  0
   -0.4934    1.6480   -1.3925 O   0  0  0  0  0  0  0  0  0  0  0  0
   -1.6925   -3.2410    0.8705 O   0  0  0  0  0  0  0  0  0  0  0  0
    3.9498   -3.6756   -1.3393 O   0  0  0  0  0  0  0  0  0  0  0  0
   -2.9105    2.2914   -1.0640 O   0  0  0  0  0  0  0  0  0  0  0  0
   -4.0653   -2.4382    1.1368 O   0  0  0  0  0  0  0  0  0  0  0  0
   -5.3336    3.0920   -0.8250 O   0  0  0  0  0  0  0  0  0  0  0  0
    3.7653    4.1524    1.9411 N   0  0  0  0  0  0  0  0  0  0  0  0
    1.5884   -0.1750   -1.1492 C   0  0  1  0  0  0  0  0  0  0  0  0
    2.3714   -2.3595   -0.1206 C   0  0  2  0  0  0  0  0  0  0  0  0
    2.4888   -1.4047   -1.3109 C   0  0  0  0  0  0  0  0  0  0  0  0
    0.9287   -2.8434    0.0580 C   0  0  0  0  0  0  0  0  0  0  0  0
    0.1928   -0.5160   -0.6895 C   0  0  0  0  0  0  0  0  0  0  0  0
   -0.1080   -1.7537   -0.0955 C   0  0  0  0  0  0  0  0  0  0  0  0
    3.0575    1.6349   -0.8262 C   0  0  2  0  0  0  0  0  0  0  0  0
    3.0351    2.9739   -0.0868 C   0  0  0  0  0  0  0  0  0  0  0  0
    3.7040    2.8468    1.2867 C   0  0  1  0  0  0  0  0  0  0  0  0
    5.1040    2.2340    1.1408 C   0  0  1  0  0  0  0  0  0  0  0  0
    5.0128    0.9118    0.3648 C   0  0  2  0  0  0  0  0  0  0  0  0
   -0.8227    0.4458   -0.8295 C   0  0  0  0  0  0  0  0  0  0  0  0
    3.2766   -3.5420   -0.3186 C   0  0  0  0  0  0  0  0  0  0  0  0
   -1.4230   -2.0166    0.3240 C   0  0  0  0  0  0  0  0  0  0  0  0
   -2.1276    0.1778   -0.4006 C   0  0  0  0  0  0  0  0  0  0  0  0
   -2.4282   -1.0544    0.1748 C   0  0  0  0  0  0  0  0  0  0  0  0
    6.3839    0.2984    0.1011 C   0  0  0  0  0  0  0  0  0  0  0  0
    3.3212   -4.5537    0.7945 C   0  0  0  0  0  0  0  0  0  0  0  0
   -3.1764    1.2055   -0.5641 C   0  0  0  0  0  0  0  0  0  0  0  0
   -3.8018   -1.3558    0.6278 C   0  0  0  0  0  0  0  0  0  0  0  0
   -4.5516    0.9036   -0.1172 C   0  0  0  0  0  0  0  0  0  0  0  0
   -4.8535   -0.3326    0.4576 C   0  0  0  0  0  0  0  0  0  0  0  0
   -5.5568    1.8657   -0.2724 C   0  0  0  0  0  0  0  0  0  0  0  0
   -6.1607   -0.6073    0.8769 C   0  0  0  0  0  0  0  0  0  0  0  0
   -6.8583    1.5879    0.1466 C   0  0  0  0  0  0  0  0  0  0  0  0
   -7.1596    0.3541    0.7200 C   0  0  0  0  0  0  0  0  0  0  0  0
    1.5068    0.2790   -2.1466 H   0  0  0  0  0  0  0  0  0  0  0  0
    2.1922   -1.9362   -2.2264 H   0  0  0  0  0  0  0  0  0  0  0  0
    3.5310   -1.1005   -1.4477 H   0  0  0  0  0  0  0  0  0  0  0  0
    0.8266   -3.2796    1.0597 H   0  0  0  0  0  0  0  0  0  0  0  0
    0.7070   -3.6212   -0.6851 H   0  0  0  0  0  0  0  0  0  0  0  0
    2.7404    1.8509   -1.8534 H   0  0  0  0  0  0  0  0  0  0  0  0
    2.0011    3.3199    0.0324 H   0  0  0  0  0  0  0  0  0  0  0  0
    3.5712    3.7196   -0.6883 H   0  0  0  0  0  0  0  0  0  0  0  0
    3.0971    2.1854    1.9175 H   0  0  0  0  0  0  0  0  0  0  0  0
    5.5438    2.0671    2.1318 H   0  0  0  0  0  0  0  0  0  0  0  0
    4.4241    0.1947    0.9439 H   0  0  0  0  0  0  0  0  0  0  0  0
    2.5281   -2.2165    1.8369 H   0  0  0  0  0  0  0  0  0  0  0  0
    6.2674   -0.6840   -0.3706 H   0  0  0  0  0  0  0  0  0  0  0  0
    6.9719    0.9030   -0.5974 H   0  0  0  0  0  0  0  0  0  0  0  0
    6.9491    0.1699    1.0289 H   0  0  0  0  0  0  0  0  0  0  0  0
    2.8332    4.5635    1.9754 H   0  0  0  0  0  0  0  0  0  0  0  0
    4.3349    4.7896    1.3854 H   0  0  0  0  0  0  0  0  0  0  0  0
    3.6569   -4.0936    1.7260 H   0  0  0  0  0  0  0  0  0  0  0  0
    2.3462   -5.0263    0.9282 H   0  0  0  0  0  0  0  0  0  0  0  0
    4.0395   -5.3372    0.5323 H   0  0  0  0  0  0  0  0  0  0  0  0
    6.8777    2.8319    0.5682 H   0  0  0  0  0  0  0  0  0  0  0  0
    0.4413    1.8517   -1.2361 H   0  0  0  0  0  0  0  0  0  0  0  0
   -1.0881   -3.9154    0.5230 H   0  0  0  0  0  0  0  0  0  0  0  0
   -6.4211   -1.5615    1.3269 H   0  0  0  0  0  0  0  0  0  0  0  0
   -7.6442    2.3294    0.0292 H   0  0  0  0  0  0  0  0  0  0  0  0
   -8.1737    0.1404    1.0455 H   0  0  0  0  0  0  0  0  0  0  0  0
   -4.4058    3.1880   -1.0863 H   0  0  0  0  0  0  0  0  0  0  0  0
  1 12  1  0  0  0  0
  1 18  1  0  0  0  0
  2 18  1  0  0  0  0
  2 22  1  0  0  0  0
  3 13  1  0  0  0  0
  3 49  1  0  0  0  0
  4 21  1  0  0  0  0
  4 58  1  0  0  0  0
  5 23  1  0  0  0  0
  5 59  1  0  0  0  0
  6 25  1  0  0  0  0
  6 60  1  0  0  0  0
  7 24  2  0  0  0  0
  8 30  2  0  0  0  0
  9 31  2  0  0  0  0
 10 34  1  0  0  0  0
 10 64  1  0  0  0  0
 11 20  1  0  0  0  0
 11 53  1  0  0  0  0
 11 54  1  0  0  0  0
 12 14  1  0  0  0  0
 12 16  1  0  0  0  0
 12 38  1  0  0  0  0
 13 14  1  0  0  0  0
 13 15  1  0  0  0  0
 13 24  1  0  0  0  0
 14 39  1  0  0  0  0
 14 40  1  0  0  0  0
 15 17  1  0  0  0  0
 15 41  1  0  0  0  0
 15 42  1  0  0  0  0
 16 17  2  0  0  0  0
 16 23  1  0  0  0  0
 17 25  1  0  0  0  0
 18 19  1  0  0  0  0
 18 43  1  0  0  0  0
 19 20  1  0  0  0  0
 19 44  1  0  0  0  0
 19 45  1  0  0  0  0
 20 21  1  0  0  0  0
 20 46  1  0  0  0  0
 21 22  1  0  0  0  0
 21 47  1  0  0  0  0
 22 28  1  0  0  0  0
 22 48  1  0  0  0  0
 23 26  2  0  0  0  0
 24 29  1  0  0  0  0
 25 27  2  0  0  0  0
 26 27  1  0  0  0  0
 26 30  1  0  0  0  0
 27 31  1  0  0  0  0
 28 50  1  0  0  0  0
 28 51  1  0  0  0  0
 28 52  1  0  0  0  0
 29 55  1  0  0  0  0
 29 56  1  0  0  0  0
 29 57  1  0  0  0  0
 30 32  1  0  0  0  0
 31 33  1  0  0  0  0
 32 33  2  0  0  0  0
 32 34  1  0  0  0  0
 33 35  1  0  0  0  0
 34 36  2  0  0  0  0
 35 37  2  0  0  0  0
 35 61  1  0  0  0  0
 36 37  1  0  0  0  0
 36 62  1  0  0  0  0
 37 63  1  0  0  0  0
M  END
> <PUBCHEM_COMPOUND_CID>
443831

> <PUBCHEM_CONFORMER_RMSD>
0.8

> <PUBCHEM_CONFORMER_DIVERSEORDER>
1
10
16
4
13
17
3
7
12
14
6
11
8
9
5
15
2

> <PUBCHEM_MMFF94_PARTIAL_CHARGES>
44
1 -0.56
10 -0.53
11 -0.99
12 0.42
13 0.34
15 0.14
16 -0.14
17 -0.14
18 0.56
2 -0.56
20 0.27
21 0.28
22 0.28
23 0.08
24 0.45
25 0.08
26 0.09
27 0.09
29 0.06
3 -0.68
30 0.4
31 0.4
32 0.09
33 0.09
34 0.08
35 -0.15
36 -0.15
37 -0.15
4 -0.68
49 0.4
5 -0.53
53 0.36
54 0.36
58 0.4
59 0.45
6 -0.53
60 0.45
61 0.15
62 0.15
63 0.15
64 0.45
7 -0.57
8 -0.57
9 -0.57

> <PUBCHEM_EFFECTIVE_ROTOR_COUNT>
5

> <PUBCHEM_PHARMACOPHORE_FEATURES>
19
1 1 acceptor
1 10 donor
1 11 cation
1 11 donor
1 2 acceptor
1 3 acceptor
1 3 donor
1 4 acceptor
1 4 donor
1 5 donor
1 6 donor
1 7 acceptor
1 8 acceptor
1 9 acceptor
6 12 13 14 15 16 17 rings
6 16 17 23 25 26 27 rings
6 2 18 19 20 21 22 rings
6 26 27 30 31 32 33 rings
6 32 33 34 35 36 37 rings

> <PUBCHEM_HEAVY_ATOM_COUNT>
37

> <PUBCHEM_ATOM_DEF_STEREO_COUNT>
6

> <PUBCHEM_ATOM_UDEF_STEREO_COUNT>
0

> <PUBCHEM_BOND_DEF_STEREO_COUNT>
0

> <PUBCHEM_BOND_UDEF_STEREO_COUNT>
0

> <PUBCHEM_ISOTOPIC_ATOM_COUNT>
0

> <PUBCHEM_COMPONENT_COUNT>
1

> <PUBCHEM_CACTVS_TAUTO_COUNT>
372

> <PUBCHEM_CONFORMER_ID>
0006C5B700000001

> <PUBCHEM_MMFF94_ENERGY>
113.3768

> <PUBCHEM_FEATURE_SELFOVERLAP>
96.521

> <PUBCHEM_SHAPE_FINGERPRINT>
10006869 2 18260830453420912973
10050765 1 18410293614673192119
10319926 262 18270684164738112064
1100329 8 17615968146392781600
11578080 2 18334293137361608523
12166972 35 18043532926519603787
12422481 6 18130507435623042920
12741549 16 17680721620437016802
12788726 201 17618214457665810062
12925494 130 18411423890692195633
131258 43 17462266239705477558
13140716 1 18200593721756949167
13383668 362 18272371975211594218
13402501 40 18409449150666276905
13533116 47 18337667615766713831
13540713 4 18059022816467193485
13757389 114 17475496289016394964
14068700 686 18120650236750773403
14790565 3 17983000159992576092
14955137 171 18047473618953542734
15420108 30 18264778662290382046
15927050 60 18337111163809479718
16112460 7 18191857041049119297
17913733 40 18334573516741460531
21033648 144 18343025532034904247
21033648 29 18117007572582970016
21452121 103 18412544322889470230
21792934 111 18130220563012196905
21859007 373 17344926319790989101
22122407 14 17241312600191381337
22149856 69 18127103426204264169
22182313 1 17846227695271441455
22889206 1 18200882876109293010
23559900 14 18272080643231470447
244849 19 17915999370054250667
249999 5 18409731781284017550
2838139 119 18259991448596954045
3178227 256 18409735067440518384
3298306 158 18334579001488810192
3411729 13 18412545410059469618
34797466 226 17822002143171720511
350125 39 18128808823740238335
376196 1 17678742220465552580
392239 28 18262227829515093489
4073 2 18272359854871328403
4093350 32 17603860156516498935
4144715 1 18270390711324336355
4340502 62 18411134736145076565
5104073 3 18270952557834977841
5109719 28 18264477399903044593
5265222 85 18052526687502222604
5385378 56 18409167714554683928
9896288 288 17765439751845761818
9981440 41 18268430127009329499

> <PUBCHEM_SHAPE_MULTIPOLES>
697.77
15.95
5.05
1.21
13.28
1.71
0.07
-9.65
3.53
-7.19
1.24
-0.65
-0.34
2.79

> <PUBCHEM_SHAPE_SELFOVERLAP>
1552.48

> <PUBCHEM_SHAPE_VOLUME>
364.9

> <PUBCHEM_COORDINATE_TYPE>
2
5
10

$$$$

