4520
  -OEChem-06261200112D

 28 27  0     1  0  0  0  0  0999 V2000
    5.1350    2.5185    0.0000 O   0  5  0  0  0  0  0  0  0  0  0  0
    6.8671    1.5185    0.0000 O   0  0  0  0  0  0  0  0  0  0  0  0
    4.2690    1.0185    0.0000 N   0  0  3  0  0  0  0  0  0  0  0  0
    5.1350    1.5185    0.0000 N   0  0  0  0  0  0  0  0  0  0  0  0
    2.5369   -1.9815    0.0000 N   0  3  0  0  0  0  0  0  0  0  0  0
    6.0010    1.0185    0.0000 N   0  0  0  0  0  0  0  0  0  0  0  0
    3.4030    1.5185    0.0000 C   0  0  0  0  0  0  0  0  0  0  0  0
    4.2690    0.0185    0.0000 C   0  0  0  0  0  0  0  0  0  0  0  0
    3.4030   -0.4815    0.0000 C   0  0  0  0  0  0  0  0  0  0  0  0
    3.4030   -1.4815    0.0000 C   0  0  0  0  0  0  0  0  0  0  0  0
    2.5369    1.0185    0.0000 C   0  0  0  0  0  0  0  0  0  0  0  0
    3.4030    2.5185    0.0000 C   0  0  0  0  0  0  0  0  0  0  0  0
    3.4030    0.8985    0.0000 H   0  0  0  0  0  0  0  0  0  0  0  0
    4.4810   -0.5641    0.0000 H   0  0  0  0  0  0  0  0  0  0  0  0
    4.8796    0.1261    0.0000 H   0  0  0  0  0  0  0  0  0  0  0  0
    3.1909    0.1011    0.0000 H   0  0  0  0  0  0  0  0  0  0  0  0
    2.7924   -0.5892    0.0000 H   0  0  0  0  0  0  0  0  0  0  0  0
    3.6150   -2.0641    0.0000 H   0  0  0  0  0  0  0  0  0  0  0  0
    4.0135   -1.3739    0.0000 H   0  0  0  0  0  0  0  0  0  0  0  0
    2.2269    1.5554    0.0000 H   0  0  0  0  0  0  0  0  0  0  0  0
    2.0000    0.7085    0.0000 H   0  0  0  0  0  0  0  0  0  0  0  0
    2.8469    0.4815    0.0000 H   0  0  0  0  0  0  0  0  0  0  0  0
    4.0230    2.5185    0.0000 H   0  0  0  0  0  0  0  0  0  0  0  0
    3.4030    3.1385    0.0000 H   0  0  0  0  0  0  0  0  0  0  0  0
    2.7830    2.5185    0.0000 H   0  0  0  0  0  0  0  0  0  0  0  0
    2.0000   -2.2915    0.0000 H   0  0  0  0  0  0  0  0  0  0  0  0
    2.8469   -2.5185    0.0000 H   0  0  0  0  0  0  0  0  0  0  0  0
    2.2269   -1.4446    0.0000 H   0  0  0  0  0  0  0  0  0  0  0  0
  1  4  1  0  0  0  0
  2  6  2  0  0  0  0
  3  4  1  0  0  0  0
  3  7  1  0  0  0  0
  3  8  1  0  0  0  0
  4  6  1  0  0  0  0
  5 10  1  0  0  0  0
  5 26  1  0  0  0  0
  5 27  1  0  0  0  0
  5 28  1  0  0  0  0
  7 11  1  0  0  0  0
  7 12  1  0  0  0  0
  7 13  1  0  0  0  0
  8  9  1  0  0  0  0
  8 14  1  0  0  0  0
  8 15  1  0  0  0  0
  9 10  1  0  0  0  0
  9 16  1  0  0  0  0
  9 17  1  0  0  0  0
 10 18  1  0  0  0  0
 10 19  1  0  0  0  0
 11 20  1  0  0  0  0
 11 21  1  0  0  0  0
 11 22  1  0  0  0  0
 12 23  1  0  0  0  0
 12 24  1  0  0  0  0
 12 25  1  0  0  0  0
M  CHG  2   1  -1   5   1
M  END
> <PUBCHEM_COMPOUND_CID>
4520

> <PUBCHEM_COMPOUND_CANONICALIZED>
1

> <PUBCHEM_CACTVS_COMPLEXITY>
131

> <PUBCHEM_CACTVS_HBOND_ACCEPTOR>
5

> <PUBCHEM_CACTVS_HBOND_DONOR>
1

> <PUBCHEM_CACTVS_ROTATABLE_BOND>
5

> <PUBCHEM_CACTVS_SUBSKEYS>
AAADceBjsAAAAAAAAAAAAAAAAAAAAAAAAAAAAAAAAAAAAAAAAAAAHAAcAAAACCjBAAQCAAJAAAABAAAAAAAAAAAAAAAQAIAIAAAAAAAAQAAEAAAAEACAAAAAAAAAAAAAAAAAAAAAAAAAAAAAAAAAAAAAAA==

> <PUBCHEM_IUPAC_OPENEYE_NAME>
3-[isopropyl-[nitroso(oxido)amino]amino]propylammonium

> <PUBCHEM_IUPAC_CAS_NAME>
3-[[nitroso(oxido)amino]-propan-2-ylamino]propylammonium

> <PUBCHEM_IUPAC_NAME>
3-[[nitroso(oxido)amino]-propan-2-ylamino]propylazanium

> <PUBCHEM_IUPAC_SYSTEMATIC_NAME>
3-[[nitroso(oxidanidyl)amino]-propan-2-yl-amino]propylazanium

> <PUBCHEM_IUPAC_TRADITIONAL_NAME>
3-[isopropyl-[nitroso(oxido)amino]amino]propylammonium

> <PUBCHEM_IUPAC_INCHI>
InChI=1S/C6H15N4O2/c1-6(2)9(5-3-4-7)10(12)8-11/h6H,3-5,7H2,1-2H3/q-1/p+1

> <PUBCHEM_IUPAC_INCHIKEY>
OVLXFGFJJBLBNQ-UHFFFAOYSA-O

> <PUBCHEM_XLOGP3_AA>
0.1

> <PUBCHEM_EXACT_MASS>
176.127326

> <PUBCHEM_MOLECULAR_FORMULA>
C6H16N4O2

> <PUBCHEM_MOLECULAR_WEIGHT>
176.21684

> <PUBCHEM_OPENEYE_CAN_SMILES>
CC(C)N(CCC[NH3+])N(N=O)[O-]

> <PUBCHEM_OPENEYE_ISO_SMILES>
CC(C)N(CCC[NH3+])N(N=O)[O-]

> <PUBCHEM_CACTVS_TPSA>
86.6

> <PUBCHEM_MONOISOTOPIC_WEIGHT>
176.127326

> <PUBCHEM_TOTAL_CHARGE>
0

> <PUBCHEM_HEAVY_ATOM_COUNT>
12

> <PUBCHEM_ATOM_DEF_STEREO_COUNT>
0

> <PUBCHEM_ATOM_UDEF_STEREO_COUNT>
0

> <PUBCHEM_BOND_DEF_STEREO_COUNT>
0

> <PUBCHEM_BOND_UDEF_STEREO_COUNT>
0

> <PUBCHEM_ISOTOPIC_ATOM_COUNT>
0

> <PUBCHEM_COMPONENT_COUNT>
1

> <PUBCHEM_CACTVS_TAUTO_COUNT>
1

> <PUBCHEM_COORDINATE_TYPE>
1
5
255

$$$$

