6315
  -OEChem-06261201143D

 14 13  0     1  0  0  0  0  0999 V2000
    1.8056   -0.0204   -0.0113 P   0  0  2  0  0  0  0  0  0  0  0  0
    0.2636   -0.5145   -0.0051 O   0  0  0  0  0  0  0  0  0  0  0  0
    2.5066   -1.4806    0.2008 O   0  0  0  0  0  0  0  0  0  0  0  0
    2.0739    0.8180    1.2196 O   0  5  0  0  0  0  0  0  0  0  0  0
    2.1707    0.4855   -1.3900 O   0  0  0  0  0  0  0  0  0  0  0  0
   -2.1175   -1.5772    0.0043 O   0  0  0  0  0  0  0  0  0  0  0  0
   -3.1731    0.4348   -0.0011 O   0  0  0  0  0  0  0  0  0  0  0  0
   -0.7913    0.3774   -0.0055 C   0  0  0  0  0  0  0  0  0  0  0  0
   -2.1440   -0.2258   -0.0005 C   0  0  0  0  0  0  0  0  0  0  0  0
   -0.5944    1.7029   -0.0112 C   0  0  0  0  0  0  0  0  0  0  0  0
    0.3781    2.1758   -0.0352 H   0  0  0  0  0  0  0  0  0  0  0  0
   -1.4391    2.3861   -0.0097 H   0  0  0  0  0  0  0  0  0  0  0  0
    2.5776   -2.0804   -0.5722 H   0  0  0  0  0  0  0  0  0  0  0  0
   -3.0195   -1.9630    0.0073 H   0  0  0  0  0  0  0  0  0  0  0  0
  1  2  1  0  0  0  0
  1  3  1  0  0  0  0
  1  4  1  0  0  0  0
  1  5  2  0  0  0  0
  2  8  1  0  0  0  0
  3 13  1  0  0  0  0
  6  9  1  0  0  0  0
  6 14  1  0  0  0  0
  7  9  2  0  0  0  0
  8  9  1  0  0  0  0
  8 10  2  0  0  0  0
 10 11  1  0  0  0  0
 10 12  1  0  0  0  0
M  CHG  1   4  -1
M  END
> <PUBCHEM_COMPOUND_CID>
6315

> <PUBCHEM_CONFORMER_RMSD>
0.6

> <PUBCHEM_CONFORMER_DIVERSEORDER>
1
9
11
10
8
7
6
2
4
3
5

> <PUBCHEM_MMFF94_PARTIAL_CHARGES>
14
1 1.44
10 -0.3
11 0.15
12 0.15
13 0.5
14 0.5
2 -0.35
3 -0.77
4 -0.95
5 -0.95
6 -0.65
7 -0.57
8 0.09
9 0.71

> <PUBCHEM_EFFECTIVE_ROTOR_COUNT>
3

> <PUBCHEM_PHARMACOPHORE_FEATURES>
7
1 3 acceptor
1 4 acceptor
1 5 acceptor
1 6 acceptor
1 7 acceptor
3 6 7 9 anion
4 1 3 4 5 anion

> <PUBCHEM_HEAVY_ATOM_COUNT>
10

> <PUBCHEM_ATOM_DEF_STEREO_COUNT>
0

> <PUBCHEM_ATOM_UDEF_STEREO_COUNT>
0

> <PUBCHEM_BOND_DEF_STEREO_COUNT>
0

> <PUBCHEM_BOND_UDEF_STEREO_COUNT>
0

> <PUBCHEM_ISOTOPIC_ATOM_COUNT>
0

> <PUBCHEM_COMPONENT_COUNT>
1

> <PUBCHEM_CACTVS_TAUTO_COUNT>
1

> <PUBCHEM_CONFORMER_ID>
000018AB00000001

> <PUBCHEM_MMFF94_ENERGY>
-2.2668

> <PUBCHEM_FEATURE_SELFOVERLAP>
35.619

> <PUBCHEM_SHAPE_FINGERPRINT>
10857977 72 18264217923817025321
12716758 59 18341621459580098889
12897270 3 18339913853391996596
12932741 1 17822005380891220109
12932764 1 18259980453353724679
15310529 11 16487256556294157293
20711985 344 17606656266136317280
21040471 1 18194964273382425021
23235687 12 17346607339255718303
23552423 10 18131069354768722866
29004967 10 18336267838416524193
3248919 1 17917998239359547715
369184 2 18261119581759780577
5084963 1 18201156679962272688

> <PUBCHEM_SHAPE_MULTIPOLES>
174.43
4.2
1.43
0.86
0.75
0.06
-0.07
0.77
-0.01
0.09
0.08
-0.63
-0.19
-0.01

> <PUBCHEM_SHAPE_SELFOVERLAP>
326.431

> <PUBCHEM_SHAPE_VOLUME>
108.9

> <PUBCHEM_COORDINATE_TYPE>
2
5
10

$$$$

