10753
  -OEChem-06261204553D

 24 25  0     0  0  0  0  0  0999 V2000
   -2.0507   -2.4225    0.0010 S   0  0  0  0  0  0  0  0  0  0  0  0
    2.2122   -0.5248   -0.0003 O   0  0  0  0  0  0  0  0  0  0  0  0
   -3.8728    1.8733    0.0009 O   0  0  0  0  0  0  0  0  0  0  0  0
    5.4298    0.8450    0.0008 O   0  5  0  0  0  0  0  0  0  0  0  0
    4.7301   -1.2358    0.0011 O   0  0  0  0  0  0  0  0  0  0  0  0
   -1.4862    0.1003   -0.0012 N   0  0  0  0  0  0  0  0  0  0  0  0
   -3.8220   -0.4896    0.0007 N   0  0  0  0  0  0  0  0  0  0  0  0
    4.4812    0.0060    0.0005 N   0  3  0  0  0  0  0  0  0  0  0  0
    1.0065    0.1021   -0.0008 C   0  0  0  0  0  0  0  0  0  0  0  0
   -0.2929   -0.5950   -0.0011 C   0  0  0  0  0  0  0  0  0  0  0  0
    1.1719    1.4675   -0.0009 C   0  0  0  0  0  0  0  0  0  0  0  0
   -2.4795   -0.7608   -0.0005 C   0  0  0  0  0  0  0  0  0  0  0  0
   -0.3965   -1.9702   -0.0010 C   0  0  0  0  0  0  0  0  0  0  0  0
    3.1577    0.4510    0.0000 C   0  0  0  0  0  0  0  0  0  0  0  0
    2.5688    1.6941   -0.0003 C   0  0  0  0  0  0  0  0  0  0  0  0
   -4.4260    0.7788    0.0014 C   0  0  0  0  0  0  0  0  0  0  0  0
   -5.9315    0.6806   -0.0004 C   0  0  0  0  0  0  0  0  0  0  0  0
    0.3928    2.2174   -0.0013 H   0  0  0  0  0  0  0  0  0  0  0  0
    0.3871   -2.7154   -0.0009 H   0  0  0  0  0  0  0  0  0  0  0  0
    3.0769    2.6482   -0.0002 H   0  0  0  0  0  0  0  0  0  0  0  0
   -4.4262   -1.3076    0.0009 H   0  0  0  0  0  0  0  0  0  0  0  0
   -6.2667    0.1709   -0.9079 H   0  0  0  0  0  0  0  0  0  0  0  0
   -6.3691    1.6824    0.0277 H   0  0  0  0  0  0  0  0  0  0  0  0
   -6.2676    0.1222    0.8778 H   0  0  0  0  0  0  0  0  0  0  0  0
  1 12  1  0  0  0  0
  1 13  1  0  0  0  0
  2  9  1  0  0  0  0
  2 14  1  0  0  0  0
  3 16  2  0  0  0  0
  4  8  1  0  0  0  0
  5  8  2  0  0  0  0
  6 10  1  0  0  0  0
  6 12  2  0  0  0  0
  7 12  1  0  0  0  0
  7 16  1  0  0  0  0
  7 21  1  0  0  0  0
  8 14  1  0  0  0  0
  9 10  1  0  0  0  0
  9 11  2  0  0  0  0
 10 13  2  0  0  0  0
 11 15  1  0  0  0  0
 11 18  1  0  0  0  0
 13 19  1  0  0  0  0
 14 15  2  0  0  0  0
 15 20  1  0  0  0  0
 16 17  1  0  0  0  0
 17 22  1  0  0  0  0
 17 23  1  0  0  0  0
 17 24  1  0  0  0  0
M  CHG  2   4  -1   8   1
M  END
> <PUBCHEM_COMPOUND_CID>
10753

> <PUBCHEM_CONFORMER_RMSD>
0.6

> <PUBCHEM_CONFORMER_DIVERSEORDER>
1
11
2
12
5
7
4
6
3
8
10
13
9
16
14
15

> <PUBCHEM_MMFF94_PARTIAL_CHARGES>
21
1 -0.08
10 0.23
11 -0.15
12 0.44
13 -0.11
14 0.22
15 -0.15
16 0.57
17 0.06
18 0.15
19 0.15
2 -0.28
20 0.15
21 0.37
3 -0.57
4 -0.52
5 -0.52
6 -0.57
7 -0.49
8 0.96
9 0.14

> <PUBCHEM_EFFECTIVE_ROTOR_COUNT>
4

> <PUBCHEM_PHARMACOPHORE_FEATURES>
8
1 2 acceptor
1 3 acceptor
1 4 acceptor
1 4 anion
1 5 acceptor
1 7 donor
5 1 6 10 12 13 rings
5 2 9 11 14 15 rings

> <PUBCHEM_HEAVY_ATOM_COUNT>
17

> <PUBCHEM_ATOM_DEF_STEREO_COUNT>
0

> <PUBCHEM_ATOM_UDEF_STEREO_COUNT>
0

> <PUBCHEM_BOND_DEF_STEREO_COUNT>
0

> <PUBCHEM_BOND_UDEF_STEREO_COUNT>
0

> <PUBCHEM_ISOTOPIC_ATOM_COUNT>
0

> <PUBCHEM_COMPONENT_COUNT>
1

> <PUBCHEM_CACTVS_TAUTO_COUNT>
3

> <PUBCHEM_CONFORMER_ID>
00002A0100000001

> <PUBCHEM_MMFF94_ENERGY>
21.2715

> <PUBCHEM_FEATURE_SELFOVERLAP>
40.687

> <PUBCHEM_SHAPE_FINGERPRINT>
10447042 23 8430318991866069889
10608611 8 18191870024286484921
11401426 45 18113339699763793696
11458722 120 18342178890384532770
124424 183 17822007584056455800
12500047 106 18335141942699413466
13533116 47 17604148233290725990
13675066 3 18334295318977913874
14251764 18 18342743996596217938
15048467 5 18131066001143115532
15099037 51 18409729568869399583
15196674 1 18338517439085549927
15242433 33 18413106143925719790
15375358 24 18114177527940897734
15442244 35 18339924809880046188
15531645 54 18409165541037468470
17834072 8 18334570261488637510
18186145 218 18130518439387245111
187816 3 17385722500169174843
19141452 34 18411421683131863278
200 152 17385725781334310679
20621476 66 18408036329901173545
20645477 56 18410855439106966997
20645477 70 17023172881790211414
20681677 155 18272091556917481794
21279426 13 18121216742867686988
212847 35 18413386527453463508
21524375 3 18410011044458117783
2215653 11 18040707100358719766
23218964 4 18413390959811882806
23402539 116 18187652388256314813
23402655 69 18410293571480042708
23558518 356 17841711803094501115
23559900 14 18187086118615070016
293599 30 18411981368656594039
300161 21 18334580110128137416
3004659 81 18343298206882295502
335352 9 18410574002779941022
34934 24 18409453553497774538
351380 180 18334859411630149005
3545911 37 18410291415564676507
366044 4 18411138039360152835
4214541 1 18410855421700322439
4463277 17 18411698760742492684
495365 180 17313396591103162338
5104073 3 18341053995521072256
532947 4 18116706507453534615
633830 44 17632298908947076610
6430166 295 18411700984664899573
7495541 125 12175617357066250926
77779 3 18340767027265481774
9981440 41 17190097120551757736

> <PUBCHEM_SHAPE_MULTIPOLES>
315.28
11.29
2.05
0.58
0.35
0.65
0
-3.8
0
0.91
0
0.06
0.02
0

> <PUBCHEM_SHAPE_SELFOVERLAP>
661.449

> <PUBCHEM_SHAPE_VOLUME>
180.5

> <PUBCHEM_COORDINATE_TYPE>
2
5
10

$$$$

