10099075
  -OEChem-07051213083D

 95 95  0     0  0  0  0  0  0999 V2000
   15.0496   -2.0216   -1.4792 O   0  0  0  0  0  0  0  0  0  0  0  0
   13.6622   -2.3495   -1.3805 C   0  0  0  0  0  0  0  0  0  0  0  0
   12.9107   -1.2101   -0.6600 C   0  0  0  0  0  0  0  0  0  0  0  0
   13.4708   -0.8665    0.7269 C   0  0  0  0  0  0  0  0  0  0  0  0
   12.7531    0.3177    1.3887 C   0  0  0  0  0  0  0  0  0  0  0  0
   13.1167   -2.5149   -2.8023 C   0  0  0  0  0  0  0  0  0  0  0  0
   13.5589   -3.6776   -0.6293 C   0  0  0  0  0  0  0  0  0  0  0  0
   11.2636    0.1368    1.5933 C   0  0  0  0  0  0  0  0  0  0  0  0
   10.8850   -0.9860    2.5251 C   0  0  0  0  0  0  0  0  0  0  0  0
   10.3021    0.8827    1.0127 C   0  0  0  0  0  0  0  0  0  0  0  0
    8.8669    0.7577    1.1604 C   0  0  0  0  0  0  0  0  0  0  0  0
    7.9596    1.5380    0.5500 C   0  0  0  0  0  0  0  0  0  0  0  0
  -11.9116    0.4043   -0.4689 C   0  0  0  0  0  0  0  0  0  0  0  0
  -11.3347   -0.4965    0.4265 C   0  0  0  0  0  0  0  0  0  0  0  0
  -13.2838    0.6503   -0.4237 C   0  0  0  0  0  0  0  0  0  0  0  0
  -12.1300   -1.1515    1.3667 C   0  0  0  0  0  0  0  0  0  0  0  0
  -14.0791   -0.0046    0.5167 C   0  0  0  0  0  0  0  0  0  0  0  0
  -13.5023   -0.9056    1.4119 C   0  0  0  0  0  0  0  0  0  0  0  0
    6.5069    1.4353    0.6706 C   0  0  0  0  0  0  0  0  0  0  0  0
  -11.0712    1.1150   -1.4848 C   0  0  0  0  0  0  0  0  0  0  0  0
   -9.8864   -0.7584    0.3814 C   0  0  0  0  0  0  0  0  0  0  0  0
  -13.9286    1.6102   -1.3694 C   0  0  0  0  0  0  0  0  0  0  0  0
  -11.5506   -2.1236    2.3440 C   0  0  0  0  0  0  0  0  0  0  0  0
    5.9558    0.3342    1.5459 C   0  0  0  0  0  0  0  0  0  0  0  0
   -9.3130   -1.7417   -0.3316 C   0  0  0  0  0  0  0  0  0  0  0  0
    5.6408    2.2502    0.0308 C   0  0  0  0  0  0  0  0  0  0  0  0
   -7.8824   -2.0412   -0.3571 C   0  0  0  0  0  0  0  0  0  0  0  0
    4.1907    2.2374    0.0783 C   0  0  0  0  0  0  0  0  0  0  0  0
   -7.5925   -3.5176   -0.2900 C   0  0  0  0  0  0  0  0  0  0  0  0
   -6.9626   -1.0544   -0.3768 C   0  0  0  0  0  0  0  0  0  0  0  0
    3.4431    3.1121   -0.6129 C   0  0  0  0  0  0  0  0  0  0  0  0
   -5.5203   -1.1978   -0.4028 C   0  0  0  0  0  0  0  0  0  0  0  0
    1.9913    3.1628   -0.5776 C   0  0  0  0  0  0  0  0  0  0  0  0
   -4.6850   -0.1439   -0.4211 C   0  0  0  0  0  0  0  0  0  0  0  0
   -3.2239   -0.2049   -0.4569 C   0  0  0  0  0  0  0  0  0  0  0  0
    1.1706    2.0945   -0.5595 C   0  0  0  0  0  0  0  0  0  0  0  0
    1.4357    4.5617   -0.6286 C   0  0  0  0  0  0  0  0  0  0  0  0
   -2.4333    0.8883   -0.4740 C   0  0  0  0  0  0  0  0  0  0  0  0
   -2.5751   -1.5676   -0.5097 C   0  0  0  0  0  0  0  0  0  0  0  0
   -0.2791    2.0928   -0.5243 C   0  0  0  0  0  0  0  0  0  0  0  0
   -0.9889    0.9533   -0.5091 C   0  0  0  0  0  0  0  0  0  0  0  0
   11.8489   -1.4733   -0.5845 H   0  0  0  0  0  0  0  0  0  0  0  0
   12.9743   -0.3027   -1.2754 H   0  0  0  0  0  0  0  0  0  0  0  0
   14.5355   -0.6173    0.6454 H   0  0  0  0  0  0  0  0  0  0  0  0
   13.4021   -1.7390    1.3857 H   0  0  0  0  0  0  0  0  0  0  0  0
   12.9336    1.2151    0.7827 H   0  0  0  0  0  0  0  0  0  0  0  0
   13.2191    0.5179    2.3619 H   0  0  0  0  0  0  0  0  0  0  0  0
   13.6614   -3.2957   -3.3454 H   0  0  0  0  0  0  0  0  0  0  0  0
   12.0530   -2.7747   -2.7979 H   0  0  0  0  0  0  0  0  0  0  0  0
   13.2471   -1.5917   -3.3785 H   0  0  0  0  0  0  0  0  0  0  0  0
   14.0398   -4.4846   -1.1949 H   0  0  0  0  0  0  0  0  0  0  0  0
   12.5158   -3.9596   -0.4526 H   0  0  0  0  0  0  0  0  0  0  0  0
   14.0803   -3.6369    0.3328 H   0  0  0  0  0  0  0  0  0  0  0  0
   15.4992   -2.7443   -1.9496 H   0  0  0  0  0  0  0  0  0  0  0  0
   10.7357   -1.9139    1.9639 H   0  0  0  0  0  0  0  0  0  0  0  0
   11.6837   -1.1614    3.2553 H   0  0  0  0  0  0  0  0  0  0  0  0
    9.9920   -0.7760    3.1198 H   0  0  0  0  0  0  0  0  0  0  0  0
   10.6259    1.6808    0.3454 H   0  0  0  0  0  0  0  0  0  0  0  0
    8.5183   -0.0429    1.8031 H   0  0  0  0  0  0  0  0  0  0  0  0
    8.3150    2.3356   -0.1014 H   0  0  0  0  0  0  0  0  0  0  0  0
  -15.1495    0.1764    0.5666 H   0  0  0  0  0  0  0  0  0  0  0  0
  -14.1376   -1.4069    2.1373 H   0  0  0  0  0  0  0  0  0  0  0  0
  -11.0711    0.5562   -2.4265 H   0  0  0  0  0  0  0  0  0  0  0  0
  -11.4292    2.1309   -1.6790 H   0  0  0  0  0  0  0  0  0  0  0  0
  -10.0343    1.2461   -1.1597 H   0  0  0  0  0  0  0  0  0  0  0  0
   -9.2910   -0.0961    1.0053 H   0  0  0  0  0  0  0  0  0  0  0  0
  -13.6358    2.6381   -1.1324 H   0  0  0  0  0  0  0  0  0  0  0  0
  -13.6621    1.3801   -2.4063 H   0  0  0  0  0  0  0  0  0  0  0  0
  -15.0218    1.5604   -1.3096 H   0  0  0  0  0  0  0  0  0  0  0  0
  -12.2989   -2.4682    3.0665 H   0  0  0  0  0  0  0  0  0  0  0  0
  -10.7430   -1.6609    2.9211 H   0  0  0  0  0  0  0  0  0  0  0  0
  -11.1682   -3.0087    1.8251 H   0  0  0  0  0  0  0  0  0  0  0  0
   -9.9406   -2.4051   -0.9241 H   0  0  0  0  0  0  0  0  0  0  0  0
    6.2894    0.4762    2.5807 H   0  0  0  0  0  0  0  0  0  0  0  0
    4.8715    0.2415    1.5877 H   0  0  0  0  0  0  0  0  0  0  0  0
    6.3198   -0.6400    1.1975 H   0  0  0  0  0  0  0  0  0  0  0  0
    6.0650    3.0286   -0.6048 H   0  0  0  0  0  0  0  0  0  0  0  0
    3.6841    1.5178    0.7085 H   0  0  0  0  0  0  0  0  0  0  0  0
   -6.5337   -3.7511   -0.1595 H   0  0  0  0  0  0  0  0  0  0  0  0
   -8.1206   -3.9738    0.5556 H   0  0  0  0  0  0  0  0  0  0  0  0
   -7.9263   -4.0115   -1.2093 H   0  0  0  0  0  0  0  0  0  0  0  0
   -7.3087   -0.0211   -0.4075 H   0  0  0  0  0  0  0  0  0  0  0  0
    3.9243    3.8634   -1.2364 H   0  0  0  0  0  0  0  0  0  0  0  0
   -5.1226   -2.2055   -0.4139 H   0  0  0  0  0  0  0  0  0  0  0  0
   -5.1057    0.8609   -0.4094 H   0  0  0  0  0  0  0  0  0  0  0  0
    1.6264    1.1042   -0.5630 H   0  0  0  0  0  0  0  0  0  0  0  0
    2.1270    5.2766   -0.1653 H   0  0  0  0  0  0  0  0  0  0  0  0
    0.4956    4.6726   -0.0812 H   0  0  0  0  0  0  0  0  0  0  0  0
    1.2806    4.8725   -1.6674 H   0  0  0  0  0  0  0  0  0  0  0  0
   -2.9239    1.8622   -0.4513 H   0  0  0  0  0  0  0  0  0  0  0  0
   -2.9572   -2.1311   -1.3696 H   0  0  0  0  0  0  0  0  0  0  0  0
   -2.8136   -2.1295    0.4012 H   0  0  0  0  0  0  0  0  0  0  0  0
   -1.4910   -1.5923   -0.6081 H   0  0  0  0  0  0  0  0  0  0  0  0
   -0.8041    3.0421   -0.5249 H   0  0  0  0  0  0  0  0  0  0  0  0
   -0.4282    0.0260   -0.5113 H   0  0  0  0  0  0  0  0  0  0  0  0
  1  2  1  0  0  0  0
  1 54  1  0  0  0  0
  2  3  1  0  0  0  0
  2  6  1  0  0  0  0
  2  7  1  0  0  0  0
  3  4  1  0  0  0  0
  3 42  1  0  0  0  0
  3 43  1  0  0  0  0
  4  5  1  0  0  0  0
  4 44  1  0  0  0  0
  4 45  1  0  0  0  0
  5  8  1  0  0  0  0
  5 46  1  0  0  0  0
  5 47  1  0  0  0  0
  6 48  1  0  0  0  0
  6 49  1  0  0  0  0
  6 50  1  0  0  0  0
  7 51  1  0  0  0  0
  7 52  1  0  0  0  0
  7 53  1  0  0  0  0
  8  9  1  0  0  0  0
  8 10  2  0  0  0  0
  9 55  1  0  0  0  0
  9 56  1  0  0  0  0
  9 57  1  0  0  0  0
 10 11  1  0  0  0  0
 10 58  1  0  0  0  0
 11 12  2  0  0  0  0
 11 59  1  0  0  0  0
 12 19  1  0  0  0  0
 12 60  1  0  0  0  0
 13 14  1  0  0  0  0
 13 15  2  0  0  0  0
 13 20  1  0  0  0  0
 14 16  2  0  0  0  0
 14 21  1  0  0  0  0
 15 17  1  0  0  0  0
 15 22  1  0  0  0  0
 16 18  1  0  0  0  0
 16 23  1  0  0  0  0
 17 18  2  0  0  0  0
 17 61  1  0  0  0  0
 18 62  1  0  0  0  0
 19 24  1  0  0  0  0
 19 26  2  0  0  0  0
 20 63  1  0  0  0  0
 20 64  1  0  0  0  0
 20 65  1  0  0  0  0
 21 25  2  0  0  0  0
 21 66  1  0  0  0  0
 22 67  1  0  0  0  0
 22 68  1  0  0  0  0
 22 69  1  0  0  0  0
 23 70  1  0  0  0  0
 23 71  1  0  0  0  0
 23 72  1  0  0  0  0
 24 74  1  0  0  0  0
 24 75  1  0  0  0  0
 24 76  1  0  0  0  0
 25 27  1  0  0  0  0
 25 73  1  0  0  0  0
 26 28  1  0  0  0  0
 26 77  1  0  0  0  0
 27 29  1  0  0  0  0
 27 30  2  0  0  0  0
 28 31  2  0  0  0  0
 28 78  1  0  0  0  0
 29 79  1  0  0  0  0
 29 80  1  0  0  0  0
 29 81  1  0  0  0  0
 30 32  1  0  0  0  0
 30 82  1  0  0  0  0
 31 33  1  0  0  0  0
 31 83  1  0  0  0  0
 32 34  2  0  0  0  0
 32 84  1  0  0  0  0
 33 36  2  0  0  0  0
 33 37  1  0  0  0  0
 34 35  1  0  0  0  0
 34 85  1  0  0  0  0
 35 38  2  0  0  0  0
 35 39  1  0  0  0  0
 36 40  1  0  0  0  0
 36 86  1  0  0  0  0
 37 87  1  0  0  0  0
 37 88  1  0  0  0  0
 37 89  1  0  0  0  0
 38 41  1  0  0  0  0
 38 90  1  0  0  0  0
 39 91  1  0  0  0  0
 39 92  1  0  0  0  0
 39 93  1  0  0  0  0
 40 41  2  0  0  0  0
 40 94  1  0  0  0  0
 41 95  1  0  0  0  0
M  END
> <PUBCHEM_COMPOUND_CID>
10099075

> <PUBCHEM_CONFORMER_RMSD>
1.6

> <PUBCHEM_CONFORMER_DIVERSEORDER>
1
17
25
21
38
42
22
32
34
18
28
16
14
26
33
39
20
36
12
15
41
4
10
30
35
3
31
24
11
29
37
40
13
2
8
7
27
6
23
19
9
5

> <PUBCHEM_MMFF94_PARTIAL_CHARGES>
55
1 -0.68
10 -0.15
11 -0.15
12 -0.15
13 -0.14
14 0.03
15 -0.14
16 -0.14
17 -0.15
18 -0.15
19 -0.14
2 0.28
20 0.14
21 -0.18
22 0.14
23 0.14
24 0.14
25 -0.15
26 -0.15
27 -0.14
28 -0.15
29 0.14
30 -0.15
31 -0.15
32 -0.15
33 -0.14
34 -0.15
35 -0.14
36 -0.15
37 0.14
38 -0.15
39 0.14
40 -0.15
41 -0.15
5 0.14
54 0.4
58 0.15
59 0.15
60 0.15
61 0.15
62 0.15
66 0.15
73 0.15
77 0.15
78 0.15
8 -0.28
82 0.15
83 0.15
84 0.15
85 0.15
86 0.15
9 0.14
90 0.15
94 0.15
95 0.15

> <PUBCHEM_EFFECTIVE_ROTOR_COUNT>
14

> <PUBCHEM_PHARMACOPHORE_FEATURES>
10
1 1 acceptor
1 1 donor
1 24 hydrophobe
1 29 hydrophobe
1 37 hydrophobe
1 39 hydrophobe
1 9 hydrophobe
3 2 6 7 hydrophobe
4 3 4 5 8 hydrophobe
6 13 14 15 16 17 18 rings

> <PUBCHEM_HEAVY_ATOM_COUNT>
41

> <PUBCHEM_ATOM_DEF_STEREO_COUNT>
0

> <PUBCHEM_ATOM_UDEF_STEREO_COUNT>
0

> <PUBCHEM_BOND_DEF_STEREO_COUNT>
10

> <PUBCHEM_BOND_UDEF_STEREO_COUNT>
0

> <PUBCHEM_ISOTOPIC_ATOM_COUNT>
0

> <PUBCHEM_COMPONENT_COUNT>
1

> <PUBCHEM_CACTVS_TAUTO_COUNT>
1

> <PUBCHEM_CONFORMER_ID>
009A198300000001

> <PUBCHEM_MMFF94_ENERGY>
110.1901

> <PUBCHEM_FEATURE_SELFOVERLAP>
50.761

> <PUBCHEM_SHAPE_FINGERPRINT>
11146346 178 18341618126395743181
12559415 90 14056709155015122417
14251920 17 8430317948035997033
14359421 15 17131286744159587944
15343295 29 18410016538660507453
15538507 75 17822008701291479614
2851757 41 18411139143889233150
306946 40 14779540176652940969
3092352 35 18339364060290057347
3430473 40 18334857238661735350
44389302 135 18260831475364634206

> <PUBCHEM_SHAPE_MULTIPOLES>
837.89
91.7
3.93
1.77
45.7
1.06
0.25
-62.7
3.83
7.43
-1.57
4.03
-1
8.24

> <PUBCHEM_SHAPE_SELFOVERLAP>
1683.967

> <PUBCHEM_SHAPE_VOLUME>
495.4

> <PUBCHEM_COORDINATE_TYPE>
2
5
10

$$$$

