5281635
  -OEChem-07051212583D

 26 28  0     0  0  0  0  0  0999 V2000
    0.0262   -1.6537    0.0004 O   0  0  0  0  0  0  0  0  0  0  0  0
   -2.3063    2.6112    0.0000 O   0  0  0  0  0  0  0  0  0  0  0  0
    0.3223    2.4273    0.0002 O   0  0  0  0  0  0  0  0  0  0  0  0
   -4.7122   -1.4817   -0.0001 O   0  0  0  0  0  0  0  0  0  0  0  0
    5.0622    0.6220    0.0004 O   0  0  0  0  0  0  0  0  0  0  0  0
   -1.0828    0.5221    0.0001 C   0  0  0  0  0  0  0  0  0  0  0  0
    1.4147    0.3553   -0.0001 C   0  0  0  0  0  0  0  0  0  0  0  0
   -1.1031   -0.8723    0.0002 C   0  0  0  0  0  0  0  0  0  0  0  0
    1.2493   -1.0294    0.0001 C   0  0  0  0  0  0  0  0  0  0  0  0
    0.2175    1.2097    0.0002 C   0  0  0  0  0  0  0  0  0  0  0  0
   -2.2759    1.2494   -0.0001 C   0  0  0  0  0  0  0  0  0  0  0  0
   -2.3263   -1.5457    0.0001 C   0  0  0  0  0  0  0  0  0  0  0  0
    2.6940    0.9175   -0.0004 C   0  0  0  0  0  0  0  0  0  0  0  0
    2.3723   -1.8595    0.0000 C   0  0  0  0  0  0  0  0  0  0  0  0
   -3.4950    0.5711   -0.0003 C   0  0  0  0  0  0  0  0  0  0  0  0
   -3.5204   -0.8237   -0.0001 C   0  0  0  0  0  0  0  0  0  0  0  0
    3.8119    0.0831   -0.0005 C   0  0  0  0  0  0  0  0  0  0  0  0
    3.6517   -1.3027   -0.0003 C   0  0  0  0  0  0  0  0  0  0  0  0
   -2.3511   -2.6327    0.0003 H   0  0  0  0  0  0  0  0  0  0  0  0
    2.8259    1.9963   -0.0003 H   0  0  0  0  0  0  0  0  0  0  0  0
    2.2587   -2.9404    0.0002 H   0  0  0  0  0  0  0  0  0  0  0  0
   -4.4246    1.1355   -0.0004 H   0  0  0  0  0  0  0  0  0  0  0  0
    4.5209   -1.9550   -0.0001 H   0  0  0  0  0  0  0  0  0  0  0  0
   -1.4058    2.9705    0.0002 H   0  0  0  0  0  0  0  0  0  0  0  0
   -5.4332   -0.8288   -0.0002 H   0  0  0  0  0  0  0  0  0  0  0  0
    4.9881    1.5918    0.0004 H   0  0  0  0  0  0  0  0  0  0  0  0
  1  8  1  0  0  0  0
  1  9  1  0  0  0  0
  2 11  1  0  0  0  0
  2 24  1  0  0  0  0
  3 10  2  0  0  0  0
  4 16  1  0  0  0  0
  4 25  1  0  0  0  0
  5 17  1  0  0  0  0
  5 26  1  0  0  0  0
  6  8  1  0  0  0  0
  6 10  1  0  0  0  0
  6 11  2  0  0  0  0
  7  9  2  0  0  0  0
  7 10  1  0  0  0  0
  7 13  1  0  0  0  0
  8 12  2  0  0  0  0
  9 14  1  0  0  0  0
 11 15  1  0  0  0  0
 12 16  1  0  0  0  0
 12 19  1  0  0  0  0
 13 17  2  0  0  0  0
 13 20  1  0  0  0  0
 14 18  2  0  0  0  0
 14 21  1  0  0  0  0
 15 16  2  0  0  0  0
 15 22  1  0  0  0  0
 17 18  1  0  0  0  0
 18 23  1  0  0  0  0
M  END
> <PUBCHEM_COMPOUND_CID>
5281635

> <PUBCHEM_CONFORMER_RMSD>
0.4

> <PUBCHEM_CONFORMER_DIVERSEORDER>
1

> <PUBCHEM_MMFF94_PARTIAL_CHARGES>
26
1 -0.17
10 0.4
11 0.08
12 -0.15
13 -0.15
14 -0.15
15 -0.15
16 0.08
17 0.08
18 -0.15
19 0.15
2 -0.53
20 0.15
21 0.15
22 0.15
23 0.15
24 0.45
25 0.45
26 0.45
3 -0.57
4 -0.53
5 -0.53
6 0.09
7 0.09
8 0.08
9 0.08

> <PUBCHEM_EFFECTIVE_ROTOR_COUNT>
0

> <PUBCHEM_PHARMACOPHORE_FEATURES>
8
1 1 acceptor
1 2 donor
1 3 acceptor
1 4 donor
1 5 donor
6 1 6 7 8 9 10 rings
6 6 8 11 12 15 16 rings
6 7 9 13 14 17 18 rings

> <PUBCHEM_HEAVY_ATOM_COUNT>
18

> <PUBCHEM_ATOM_DEF_STEREO_COUNT>
0

> <PUBCHEM_ATOM_UDEF_STEREO_COUNT>
0

> <PUBCHEM_BOND_DEF_STEREO_COUNT>
0

> <PUBCHEM_BOND_UDEF_STEREO_COUNT>
0

> <PUBCHEM_ISOTOPIC_ATOM_COUNT>
0

> <PUBCHEM_COMPONENT_COUNT>
1

> <PUBCHEM_CACTVS_TAUTO_COUNT>
36

> <PUBCHEM_CONFORMER_ID>
0050976300000001

> <PUBCHEM_MMFF94_ENERGY>
54.2529

> <PUBCHEM_FEATURE_SELFOVERLAP>
40.652

> <PUBCHEM_SHAPE_FINGERPRINT>
10411042 1 15816781697939874630
10608611 8 18409451426982567296
10616163 171 18409445890574686982
10967382 1 18266458711186824839
11132069 177 18410859888360841344
11471102 20 18411422799854924206
11806522 49 18412545379593700471
12032990 46 18409726278929822966
12236239 1 17846782901810108496
13140716 1 17978229357248009323
13221675 6 18410293601112485319
13583140 156 14129337425236126351
138480 1 15456213033819807881
13862211 1 18338522945276354095
14115302 16 17774996830819471895
14144814 61 18410293639793480386
15196674 1 18410292544650685798
15442244 35 18123471841448747042
15536298 74 18335138730591266854
16945 1 18338798901277637447
17492 89 18339361988597159746
17804303 29 18335136475358922553
18522853 276 18409730646948317379
200 152 18114189618584896919
20510252 161 18333730255715947305
21029758 11 18335988601439716353
21267235 1 18410846651271992246
21501502 16 18339643463747021218
221490 88 18053660270625574435
2334 1 18410575114743726211
23402539 116 18336273370313477951
23463225 33 18412262861013659982
23557571 272 18260539048479346470
23559900 14 18046913959556869470
2748010 2 18337674221062359791
2871803 45 18341618117789899247
3312278 4 18336546109295079336
335352 9 17906453581958223126
34934 24 18411426136764736847
350125 39 18410289194988080401
4214541 1 18338799021710885984
474 4 17202474503913857876
5104073 3 18337955692108165770
537710 114 18411975832728735660
7097593 13 17338167737304848298
7364860 26 18191870019970736920
8809292 202 18129378211686229419
9709674 26 18410568509300855014

> <PUBCHEM_SHAPE_MULTIPOLES>
341.08
7.83
2.25
0.59
1.76
0.61
0
-1.36
0
-0.76
0
0.01
-0.01
0

> <PUBCHEM_SHAPE_SELFOVERLAP>
774.409

> <PUBCHEM_SHAPE_VOLUME>
177.6

> <PUBCHEM_COORDINATE_TYPE>
2
5
10

$$$$

