15643
  -OEChem-07051213132D

 26 26  0     0  0  0  0  0  0999 V2000
    3.7320    1.0000    0.0000 P   0  0  0  0  0  0  0  0  0  0  0  0
    2.8660    0.5000    0.0000 O   0  0  0  0  0  0  0  0  0  0  0  0
    4.2320    0.1340    0.0000 O   0  0  0  0  0  0  0  0  0  0  0  0
    4.5981    1.5000    0.0000 N   0  0  0  0  0  0  0  0  0  0  0  0
    3.2320    1.8660    0.0000 N   0  0  0  0  0  0  0  0  0  0  0  0
    2.8660   -0.5000    0.0000 C   0  0  0  0  0  0  0  0  0  0  0  0
    4.5981    2.5000    0.0000 C   0  0  0  0  0  0  0  0  0  0  0  0
    2.2320    1.8660    0.0000 C   0  0  0  0  0  0  0  0  0  0  0  0
    2.0000   -1.0000    0.0000 C   0  0  0  0  0  0  0  0  0  0  0  0
    3.7320   -1.0000    0.0000 C   0  0  0  0  0  0  0  0  0  0  0  0
    2.0000   -2.0000    0.0000 C   0  0  0  0  0  0  0  0  0  0  0  0
    3.7320   -2.0000    0.0000 C   0  0  0  0  0  0  0  0  0  0  0  0
    2.8660   -2.5000    0.0000 C   0  0  0  0  0  0  0  0  0  0  0  0
    5.1350    1.1900    0.0000 H   0  0  0  0  0  0  0  0  0  0  0  0
    3.5420    2.4030    0.0000 H   0  0  0  0  0  0  0  0  0  0  0  0
    5.2181    2.5000    0.0000 H   0  0  0  0  0  0  0  0  0  0  0  0
    4.5981    3.1200    0.0000 H   0  0  0  0  0  0  0  0  0  0  0  0
    3.9781    2.5000    0.0000 H   0  0  0  0  0  0  0  0  0  0  0  0
    2.2320    2.4860    0.0000 H   0  0  0  0  0  0  0  0  0  0  0  0
    1.6120    1.8660    0.0000 H   0  0  0  0  0  0  0  0  0  0  0  0
    2.2320    1.2460    0.0000 H   0  0  0  0  0  0  0  0  0  0  0  0
    1.4631   -0.6900    0.0000 H   0  0  0  0  0  0  0  0  0  0  0  0
    4.2690   -0.6900    0.0000 H   0  0  0  0  0  0  0  0  0  0  0  0
    1.4631   -2.3100    0.0000 H   0  0  0  0  0  0  0  0  0  0  0  0
    4.2690   -2.3100    0.0000 H   0  0  0  0  0  0  0  0  0  0  0  0
    2.8660   -3.1200    0.0000 H   0  0  0  0  0  0  0  0  0  0  0  0
  1  2  1  0  0  0  0
  1  3  2  0  0  0  0
  1  4  1  0  0  0  0
  1  5  1  0  0  0  0
  2  6  1  0  0  0  0
  4  7  1  0  0  0  0
  4 14  1  0  0  0  0
  5  8  1  0  0  0  0
  5 15  1  0  0  0  0
  6  9  2  0  0  0  0
  6 10  1  0  0  0  0
  7 16  1  0  0  0  0
  7 17  1  0  0  0  0
  7 18  1  0  0  0  0
  8 19  1  0  0  0  0
  8 20  1  0  0  0  0
  8 21  1  0  0  0  0
  9 11  1  0  0  0  0
  9 22  1  0  0  0  0
 10 12  2  0  0  0  0
 10 23  1  0  0  0  0
 11 13  2  0  0  0  0
 11 24  1  0  0  0  0
 12 13  1  0  0  0  0
 12 25  1  0  0  0  0
 13 26  1  0  0  0  0
M  END
> <PUBCHEM_COMPOUND_CID>
15643

> <PUBCHEM_COMPOUND_CANONICALIZED>
1

> <PUBCHEM_CACTVS_COMPLEXITY>
185

> <PUBCHEM_CACTVS_HBOND_ACCEPTOR>
4

> <PUBCHEM_CACTVS_HBOND_DONOR>
2

> <PUBCHEM_CACTVS_ROTATABLE_BOND>
4

> <PUBCHEM_CACTVS_SUBSKEYS>
AAADccBzMAIAAAAAAAAAAAAAAAAAAAAAAAAwAAAAAAAAAAABAAAAHgAQgCAACASAkAQyBoBAARCAQCBCAIACAAAgIAAIiIAGCIgIJiKAERKAMAAkwBEIiAeAQAAAAAAAAAAAAAAAAAAAAAAAAAAAAAAAAA==

> <PUBCHEM_IUPAC_OPENEYE_NAME>
N-[methylamino(phenoxy)phosphoryl]methanamine

> <PUBCHEM_IUPAC_CAS_NAME>
N-[methylamino(phenoxy)phosphoryl]methanamine

> <PUBCHEM_IUPAC_NAME>
N-[methylamino(phenoxy)phosphoryl]methanamine

> <PUBCHEM_IUPAC_SYSTEMATIC_NAME>
N-[methylamino(phenoxy)phosphoryl]methanamine

> <PUBCHEM_IUPAC_TRADITIONAL_NAME>
methyl-[methylamino(phenoxy)phosphoryl]amine

> <PUBCHEM_IUPAC_INCHI>
InChI=1S/C8H13N2O2P/c1-9-13(11,10-2)12-8-6-4-3-5-7-8/h3-7H,1-2H3,(H2,9,10,11)

> <PUBCHEM_IUPAC_INCHIKEY>
ZKIBFASDNPOJFP-UHFFFAOYSA-N

> <PUBCHEM_XLOGP3_AA>
0.8

> <PUBCHEM_EXACT_MASS>
200.071464

> <PUBCHEM_MOLECULAR_FORMULA>
C8H13N2O2P

> <PUBCHEM_MOLECULAR_WEIGHT>
200.174782

> <PUBCHEM_OPENEYE_CAN_SMILES>
CNP(=O)(NC)OC1=CC=CC=C1

> <PUBCHEM_OPENEYE_ISO_SMILES>
CNP(=O)(NC)OC1=CC=CC=C1

> <PUBCHEM_CACTVS_TPSA>
50.4

> <PUBCHEM_MONOISOTOPIC_WEIGHT>
200.071464

> <PUBCHEM_TOTAL_CHARGE>
0

> <PUBCHEM_HEAVY_ATOM_COUNT>
13

> <PUBCHEM_ATOM_DEF_STEREO_COUNT>
0

> <PUBCHEM_ATOM_UDEF_STEREO_COUNT>
0

> <PUBCHEM_BOND_DEF_STEREO_COUNT>
0

> <PUBCHEM_BOND_UDEF_STEREO_COUNT>
0

> <PUBCHEM_ISOTOPIC_ATOM_COUNT>
0

> <PUBCHEM_COMPONENT_COUNT>
1

> <PUBCHEM_CACTVS_TAUTO_COUNT>
2

> <PUBCHEM_COORDINATE_TYPE>
1
5
255

> <PUBCHEM_BONDANNOTATIONS>
10  12  8
11  13  8
12  13  8
6  10  8
6  9  8
9  11  8

$$$$

