107722
  -OEChem-07051212483D

 75 78  0     1  0  0  0  0  0999 V2000
   -1.4562   -2.5252    0.9965 O   0  0  0  0  0  0  0  0  0  0  0  0
   -7.4896   -0.8437   -1.2175 O   0  0  0  0  0  0  0  0  0  0  0  0
    0.8752    1.0592    0.4686 C   0  0  1  0  0  0  0  0  0  0  0  0
    0.1718   -0.2059    0.9989 C   0  0  2  0  0  0  0  0  0  0  0  0
   -1.3574   -0.0818    1.0421 C   0  0  1  0  0  0  0  0  0  0  0  0
   -1.8915    0.2437   -0.3867 C   0  0  1  0  0  0  0  0  0  0  0  0
    2.3488    0.6122    0.6320 C   0  0  2  0  0  0  0  0  0  0  0  0
    0.4237    1.2568   -0.9846 C   0  0  0  0  0  0  0  0  0  0  0  0
   -3.4605    0.4599   -0.3803 C   0  0  2  0  0  0  0  0  0  0  0  0
    0.9143   -0.5164    2.2955 C   0  0  0  0  0  0  0  0  0  0  0  0
   -1.1048    1.3898   -1.0836 C   0  0  0  0  0  0  0  0  0  0  0  0
    2.3668   -0.0940    2.0079 C   0  0  0  0  0  0  0  0  0  0  0  0
   -2.0306   -1.3594    1.5861 C   0  0  1  0  0  0  0  0  0  0  0  0
    3.4074    1.6988    0.5104 C   0  0  1  0  0  0  0  0  0  0  0  0
    0.5846    2.3372    1.2934 C   0  0  0  0  0  0  0  0  0  0  0  0
   -4.1623   -0.6001    0.4800 C   0  0  0  0  0  0  0  0  0  0  0  0
   -3.9737    0.3448   -1.8469 C   0  0  0  0  0  0  0  0  0  0  0  0
   -3.5054   -1.4021    1.3355 C   0  0  0  0  0  0  0  0  0  0  0  0
   -3.8347    1.8522    0.1848 C   0  0  0  0  0  0  0  0  0  0  0  0
   -5.6600   -0.7332    0.3242 C   0  0  0  0  0  0  0  0  0  0  0  0
   -5.4946    0.2725   -1.9780 C   0  0  0  0  0  0  0  0  0  0  0  0
    4.8430    1.1545    0.6661 C   0  0  0  0  0  0  0  0  0  0  0  0
   -6.0680   -0.8656   -1.1397 C   0  0  2  0  0  0  0  0  0  0  0  0
    3.2805    2.4069   -0.8444 C   0  0  0  0  0  0  0  0  0  0  0  0
    5.2530    0.0479   -0.3146 C   0  0  0  0  0  0  0  0  0  0  0  0
    6.6605   -0.5021   -0.0618 C   0  0  0  0  0  0  0  0  0  0  0  0
    7.0983   -1.5628   -1.0907 C   0  0  0  0  0  0  0  0  0  0  0  0
    7.0520   -1.0411   -2.5278 C   0  0  0  0  0  0  0  0  0  0  0  0
    6.2095   -2.8031   -0.9655 C   0  0  0  0  0  0  0  0  0  0  0  0
    0.4063   -1.0317    0.3069 H   0  0  0  0  0  0  0  0  0  0  0  0
   -1.6325    0.7372    1.7166 H   0  0  0  0  0  0  0  0  0  0  0  0
   -1.6927   -0.6538   -0.9943 H   0  0  0  0  0  0  0  0  0  0  0  0
    2.5340   -0.1549   -0.1324 H   0  0  0  0  0  0  0  0  0  0  0  0
    0.7435    0.4084   -1.6030 H   0  0  0  0  0  0  0  0  0  0  0  0
    0.8395    2.1533   -1.4443 H   0  0  0  0  0  0  0  0  0  0  0  0
    0.8541   -1.5771    2.5594 H   0  0  0  0  0  0  0  0  0  0  0  0
    0.5096    0.0576    3.1365 H   0  0  0  0  0  0  0  0  0  0  0  0
   -1.3874    2.3599   -0.6649 H   0  0  0  0  0  0  0  0  0  0  0  0
   -1.3738    1.4260   -2.1455 H   0  0  0  0  0  0  0  0  0  0  0  0
    2.7219    0.5650    2.8082 H   0  0  0  0  0  0  0  0  0  0  0  0
    3.0283   -0.9671    1.9836 H   0  0  0  0  0  0  0  0  0  0  0  0
   -1.8498   -1.4164    2.6660 H   0  0  0  0  0  0  0  0  0  0  0  0
    3.2758    2.4512    1.2980 H   0  0  0  0  0  0  0  0  0  0  0  0
   -0.4847    2.5500    1.3753 H   0  0  0  0  0  0  0  0  0  0  0  0
    0.9668    2.2675    2.3169 H   0  0  0  0  0  0  0  0  0  0  0  0
    1.0378    3.2235    0.8397 H   0  0  0  0  0  0  0  0  0  0  0  0
   -3.5533   -0.5569   -2.3128 H   0  0  0  0  0  0  0  0  0  0  0  0
   -3.6190    1.1937   -2.4435 H   0  0  0  0  0  0  0  0  0  0  0  0
   -4.0602   -2.1474    1.9013 H   0  0  0  0  0  0  0  0  0  0  0  0
   -3.5087    2.6596   -0.4787 H   0  0  0  0  0  0  0  0  0  0  0  0
   -4.9161    1.9786    0.3026 H   0  0  0  0  0  0  0  0  0  0  0  0
   -3.3885    2.0244    1.1697 H   0  0  0  0  0  0  0  0  0  0  0  0
   -6.0490   -1.5982    0.8771 H   0  0  0  0  0  0  0  0  0  0  0  0
   -6.1547    0.1345    0.7786 H   0  0  0  0  0  0  0  0  0  0  0  0
   -5.9513    1.2271   -1.6891 H   0  0  0  0  0  0  0  0  0  0  0  0
   -5.7705    0.1262   -3.0296 H   0  0  0  0  0  0  0  0  0  0  0  0
    5.5526    1.9874    0.5741 H   0  0  0  0  0  0  0  0  0  0  0  0
    4.9684    0.7765    1.6887 H   0  0  0  0  0  0  0  0  0  0  0  0
   -5.7301   -1.8291   -1.5387 H   0  0  0  0  0  0  0  0  0  0  0  0
    3.1186    1.7072   -1.6703 H   0  0  0  0  0  0  0  0  0  0  0  0
    4.1987    2.9619   -1.0727 H   0  0  0  0  0  0  0  0  0  0  0  0
    2.4932    3.1628   -0.8349 H   0  0  0  0  0  0  0  0  0  0  0  0
   -1.8540   -3.3025    1.4250 H   0  0  0  0  0  0  0  0  0  0  0  0
    4.5430   -0.7791   -0.2412 H   0  0  0  0  0  0  0  0  0  0  0  0
    5.1845    0.4487   -1.3302 H   0  0  0  0  0  0  0  0  0  0  0  0
   -7.7971    0.0150   -0.8803 H   0  0  0  0  0  0  0  0  0  0  0  0
    6.7129   -0.9256    0.9489 H   0  0  0  0  0  0  0  0  0  0  0  0
    7.3768    0.3289   -0.0890 H   0  0  0  0  0  0  0  0  0  0  0  0
    8.1309   -1.8500   -0.8568 H   0  0  0  0  0  0  0  0  0  0  0  0
    6.0291   -0.8825   -2.8831 H   0  0  0  0  0  0  0  0  0  0  0  0
    7.5203   -1.7633   -3.2059 H   0  0  0  0  0  0  0  0  0  0  0  0
    7.6006   -0.0978   -2.6179 H   0  0  0  0  0  0  0  0  0  0  0  0
    5.1846   -2.6198   -1.3026 H   0  0  0  0  0  0  0  0  0  0  0  0
    6.6108   -3.6164   -1.5805 H   0  0  0  0  0  0  0  0  0  0  0  0
    6.1744   -3.1600    0.0692 H   0  0  0  0  0  0  0  0  0  0  0  0
  1 13  1  0  0  0  0
  1 63  1  0  0  0  0
  2 23  1  0  0  0  0
  2 66  1  0  0  0  0
  3  4  1  0  0  0  0
  3  7  1  0  0  0  0
  3  8  1  0  0  0  0
  3 15  1  0  0  0  0
  4  5  1  0  0  0  0
  4 10  1  0  0  0  0
  4 30  1  0  0  0  0
  5  6  1  0  0  0  0
  5 13  1  0  0  0  0
  5 31  1  0  0  0  0
  6  9  1  0  0  0  0
  6 11  1  0  0  0  0
  6 32  1  0  0  0  0
  7 12  1  0  0  0  0
  7 14  1  0  0  0  0
  7 33  1  0  0  0  0
  8 11  1  0  0  0  0
  8 34  1  0  0  0  0
  8 35  1  0  0  0  0
  9 16  1  0  0  0  0
  9 17  1  0  0  0  0
  9 19  1  0  0  0  0
 10 12  1  0  0  0  0
 10 36  1  0  0  0  0
 10 37  1  0  0  0  0
 11 38  1  0  0  0  0
 11 39  1  0  0  0  0
 12 40  1  0  0  0  0
 12 41  1  0  0  0  0
 13 18  1  0  0  0  0
 13 42  1  0  0  0  0
 14 22  1  0  0  0  0
 14 24  1  0  0  0  0
 14 43  1  0  0  0  0
 15 44  1  0  0  0  0
 15 45  1  0  0  0  0
 15 46  1  0  0  0  0
 16 18  2  0  0  0  0
 16 20  1  0  0  0  0
 17 21  1  0  0  0  0
 17 47  1  0  0  0  0
 17 48  1  0  0  0  0
 18 49  1  0  0  0  0
 19 50  1  0  0  0  0
 19 51  1  0  0  0  0
 19 52  1  0  0  0  0
 20 23  1  0  0  0  0
 20 53  1  0  0  0  0
 20 54  1  0  0  0  0
 21 23  1  0  0  0  0
 21 55  1  0  0  0  0
 21 56  1  0  0  0  0
 22 25  1  0  0  0  0
 22 57  1  0  0  0  0
 22 58  1  0  0  0  0
 23 59  1  0  0  0  0
 24 60  1  0  0  0  0
 24 61  1  0  0  0  0
 24 62  1  0  0  0  0
 25 26  1  0  0  0  0
 25 64  1  0  0  0  0
 25 65  1  0  0  0  0
 26 27  1  0  0  0  0
 26 67  1  0  0  0  0
 26 68  1  0  0  0  0
 27 28  1  0  0  0  0
 27 29  1  0  0  0  0
 27 69  1  0  0  0  0
 28 70  1  0  0  0  0
 28 71  1  0  0  0  0
 28 72  1  0  0  0  0
 29 73  1  0  0  0  0
 29 74  1  0  0  0  0
 29 75  1  0  0  0  0
M  END
> <PUBCHEM_COMPOUND_CID>
107722

> <PUBCHEM_CONFORMER_RMSD>
0.8

> <PUBCHEM_CONFORMER_DIVERSEORDER>
1
3
5
6
4
2

> <PUBCHEM_MMFF94_PARTIAL_CHARGES>
11
1 -0.68
13 0.42
16 -0.28
18 -0.29
2 -0.68
20 0.14
23 0.28
49 0.15
63 0.4
66 0.4
9 0.14

> <PUBCHEM_EFFECTIVE_ROTOR_COUNT>
7

> <PUBCHEM_PHARMACOPHORE_FEATURES>
11
1 1 acceptor
1 1 donor
1 2 acceptor
1 2 donor
1 24 hydrophobe
3 27 28 29 hydrophobe
5 14 22 25 26 27 hydrophobe
5 3 4 7 10 12 rings
6 3 4 5 6 8 11 rings
6 5 6 9 13 16 18 rings
6 9 16 17 20 21 23 rings

> <PUBCHEM_HEAVY_ATOM_COUNT>
29

> <PUBCHEM_ATOM_DEF_STEREO_COUNT>
9

> <PUBCHEM_ATOM_UDEF_STEREO_COUNT>
0

> <PUBCHEM_BOND_DEF_STEREO_COUNT>
0

> <PUBCHEM_BOND_UDEF_STEREO_COUNT>
0

> <PUBCHEM_ISOTOPIC_ATOM_COUNT>
0

> <PUBCHEM_COMPONENT_COUNT>
1

> <PUBCHEM_CACTVS_TAUTO_COUNT>
1

> <PUBCHEM_CONFORMER_ID>
0001A4CA00000001

> <PUBCHEM_MMFF94_ENERGY>
88.1468

> <PUBCHEM_FEATURE_SELFOVERLAP>
55.917

> <PUBCHEM_SHAPE_FINGERPRINT>
10670039 82 17917996117493138796
10906281 52 15338839819530279245
12011746 2 18059866038874845801
12166972 35 17167867430699765240
12236239 1 16443344239302667593
12596602 18 14923947864633614606
12760667 363 18113892801979639218
12788726 201 18340220656477284241
12954195 1 18272087257560629772
13383665 225 16701187542221903495
13533116 47 17603587414025815960
13690498 29 17487599854148273379
13782708 43 18040436568431164734
13914758 101 17531240695083696353
14117953 113 17632307757323382311
14251757 52 14045743720844934054
14931854 50 18130238116047540293
15052358 14 18131632292295924786
15131766 46 13254786894495040350
15183329 4 18060137669934174746
15475509 35 16732993046201352866
15575132 122 14979963579284095470
16728300 4 15719947068166651172
16994733 274 13470692537694461886
17349148 13 15285635439388081409
1813 80 16805592652005737992
19958102 18 18201154447112334082
2026 5 18040995198012159350
20567600 247 17967819370688941486
21267235 1 17775280526715871777
21279426 13 17989207006089104464
21307412 95 18341038675647812678
21344244 181 18410294692330116914
21637258 2 17603870013835441592
21682296 61 18187921820139459214
21792934 111 5833723352516831995
22061861 79 18408319978310170798
2215653 11 18413387640371946646
22393880 68 17775008933957781784
23559900 14 18343300328274464320
23569914 152 17546472405535546966
23569943 247 18041839639668563383
23576562 1 16343129213471774327
335352 9 17560531620059116480
3418910 222 14476954628207560047
34797466 226 18272374118494875604
350125 39 17632025169808008617
392239 28 8718820977586436414
4058900 60 15913333536588055056
4258327 124 14764622011013064603
437815 12 18407757045521158088
474113 269 15936693760964164597
5104073 3 4822642245297109971
513202 73 17749666393576288960
5265222 85 17417522519401281966
5364581 5 7781212449648328314
6608658 132 15984824891001919900

> <PUBCHEM_SHAPE_MULTIPOLES>
585.07
17.95
2.26
2.06
11.14
0.1
0.1
10.51
11.18
2.48
0.08
-0.01
0.45
1.83

> <PUBCHEM_SHAPE_SELFOVERLAP>
1214.191

> <PUBCHEM_SHAPE_VOLUME>
333.1

> <PUBCHEM_COORDINATE_TYPE>
2
5
10

$$$$

