51090975
  -OEChem-06241223012D

 41 43  0     0  0  0  0  0  0999 V2000
    2.0000    2.6651    0.0000 Cl  0  0  0  0  0  0  0  0  0  0  0  0
    5.5443    0.8603    0.0000 O   0  0  0  0  0  0  0  0  0  0  0  0
    7.1279   -1.7990    0.0000 O   0  0  0  0  0  0  0  0  0  0  0  0
    7.6279    2.5311    0.0000 O   0  0  0  0  0  0  0  0  0  0  0  0
    7.6279    0.7990    0.0000 N   0  0  0  0  0  0  0  0  0  0  0  0
    8.6279   -0.9330    0.0000 N   0  0  0  0  0  0  0  0  0  0  0  0
    7.1279   -0.0670    0.0000 C   0  0  0  0  0  0  0  0  0  0  0  0
    8.6279    0.7990    0.0000 C   0  0  0  0  0  0  0  0  0  0  0  0
    7.1279    1.6651    0.0000 C   0  0  0  0  0  0  0  0  0  0  0  0
    6.1279    1.6651    0.0000 C   0  0  0  0  0  0  0  0  0  0  0  0
    7.6279   -0.9330    0.0000 C   0  0  0  0  0  0  0  0  0  0  0  0
    4.5981    2.1651    0.0000 C   0  0  0  0  0  0  0  0  0  0  0  0
    9.1279   -0.0670    0.0000 C   0  0  0  0  0  0  0  0  0  0  0  0
    5.5443    2.4698    0.0000 C   0  0  0  0  0  0  0  0  0  0  0  0
    4.5981    1.1651    0.0000 C   0  0  0  0  0  0  0  0  0  0  0  0
    3.7320    2.6651    0.0000 C   0  0  0  0  0  0  0  0  0  0  0  0
    3.7320    0.6651    0.0000 C   0  0  0  0  0  0  0  0  0  0  0  0
   10.1279   -0.0670    0.0000 C   0  0  0  0  0  0  0  0  0  0  0  0
    2.8660    2.1651    0.0000 C   0  0  0  0  0  0  0  0  0  0  0  0
    2.8660    1.1651    0.0000 C   0  0  0  0  0  0  0  0  0  0  0  0
   10.6279   -0.9330    0.0000 C   0  0  0  0  0  0  0  0  0  0  0  0
    9.1279   -1.7990    0.0000 C   0  0  0  0  0  0  0  0  0  0  0  0
   10.1279   -1.7990    0.0000 C   0  0  0  0  0  0  0  0  0  0  0  0
    7.6279   -2.6651    0.0000 C   0  0  0  0  0  0  0  0  0  0  0  0
    6.6530    0.3315    0.0000 H   0  0  0  0  0  0  0  0  0  0  0  0
    6.6530   -0.4655    0.0000 H   0  0  0  0  0  0  0  0  0  0  0  0
    9.2105    1.0111    0.0000 H   0  0  0  0  0  0  0  0  0  0  0  0
    8.5202    1.4096    0.0000 H   0  0  0  0  0  0  0  0  0  0  0  0
    8.1028   -1.3315    0.0000 H   0  0  0  0  0  0  0  0  0  0  0  0
    8.1028   -0.5345    0.0000 H   0  0  0  0  0  0  0  0  0  0  0  0
    5.7369    3.0591    0.0000 H   0  0  0  0  0  0  0  0  0  0  0  0
    3.7320    3.2851    0.0000 H   0  0  0  0  0  0  0  0  0  0  0  0
    3.7320    0.0451    0.0000 H   0  0  0  0  0  0  0  0  0  0  0  0
   10.4379    0.4699    0.0000 H   0  0  0  0  0  0  0  0  0  0  0  0
    2.3291    0.8551    0.0000 H   0  0  0  0  0  0  0  0  0  0  0  0
   11.2479   -0.9330    0.0000 H   0  0  0  0  0  0  0  0  0  0  0  0
    8.8179   -2.3360    0.0000 H   0  0  0  0  0  0  0  0  0  0  0  0
   10.4379   -2.3360    0.0000 H   0  0  0  0  0  0  0  0  0  0  0  0
    7.0910   -2.9751    0.0000 H   0  0  0  0  0  0  0  0  0  0  0  0
    7.9379   -3.2020    0.0000 H   0  0  0  0  0  0  0  0  0  0  0  0
    8.1648   -2.3551    0.0000 H   0  0  0  0  0  0  0  0  0  0  0  0
  1 19  1  0  0  0  0
  2 10  1  0  0  0  0
  2 15  1  0  0  0  0
  3 11  1  0  0  0  0
  3 24  1  0  0  0  0
  4  9  2  0  0  0  0
  5  7  1  0  0  0  0
  5  8  1  0  0  0  0
  5  9  1  0  0  0  0
  6 13  1  0  0  0  0
  6 22  2  0  0  0  0
  7 11  1  0  0  0  0
  7 25  1  0  0  0  0
  7 26  1  0  0  0  0
  8 13  1  0  0  0  0
  8 27  1  0  0  0  0
  8 28  1  0  0  0  0
  9 10  1  0  0  0  0
 10 14  2  0  0  0  0
 11 29  1  0  0  0  0
 11 30  1  0  0  0  0
 12 14  1  0  0  0  0
 12 15  2  0  0  0  0
 12 16  1  0  0  0  0
 13 18  2  0  0  0  0
 14 31  1  0  0  0  0
 15 17  1  0  0  0  0
 16 19  2  0  0  0  0
 16 32  1  0  0  0  0
 17 20  2  0  0  0  0
 17 33  1  0  0  0  0
 18 21  1  0  0  0  0
 18 34  1  0  0  0  0
 19 20  1  0  0  0  0
 20 35  1  0  0  0  0
 21 23  2  0  0  0  0
 21 36  1  0  0  0  0
 22 23  1  0  0  0  0
 22 37  1  0  0  0  0
 23 38  1  0  0  0  0
 24 39  1  0  0  0  0
 24 40  1  0  0  0  0
 24 41  1  0  0  0  0
M  END
> <PUBCHEM_COMPOUND_CID>
51090975

> <PUBCHEM_COMPOUND_CANONICALIZED>
1

> <PUBCHEM_CACTVS_COMPLEXITY>
423

> <PUBCHEM_CACTVS_HBOND_ACCEPTOR>
4

> <PUBCHEM_CACTVS_HBOND_DONOR>
0

> <PUBCHEM_CACTVS_ROTATABLE_BOND>
6

> <PUBCHEM_CACTVS_SUBSKEYS>
AAADceB7MAAEAAAAAAAAAAAAAAAAASAAAAA8QAAAAAAAAEgB/AAAHgIAAAAADA7hniY+htMIFECoA7V3VAKCiCA1JyAI2CH+btgOZvLFt7+XOSjkxhHY6YeY36LuACAAIAAIAAAAQABAABAAAAAAAAAAAA==

> <PUBCHEM_IUPAC_OPENEYE_NAME>
5-chloro-N-(2-methoxyethyl)-N-(2-pyridylmethyl)benzofuran-2-carboxamide

> <PUBCHEM_IUPAC_CAS_NAME>
5-chloro-N-(2-methoxyethyl)-N-(2-pyridinylmethyl)-2-benzofurancarboxamide

> <PUBCHEM_IUPAC_NAME>
5-chloro-N-(2-methoxyethyl)-N-(pyridin-2-ylmethyl)-1-benzofuran-2-carboxamide

> <PUBCHEM_IUPAC_SYSTEMATIC_NAME>
5-chloranyl-N-(2-methoxyethyl)-N-(pyridin-2-ylmethyl)-1-benzofuran-2-carboxamide

> <PUBCHEM_IUPAC_TRADITIONAL_NAME>
5-chloro-N-(2-methoxyethyl)-N-(2-pyridylmethyl)coumarilamide

> <PUBCHEM_IUPAC_INCHI>
InChI=1S/C18H17ClN2O3/c1-23-9-8-21(12-15-4-2-3-7-20-15)18(22)17-11-13-10-14(19)5-6-16(13)24-17/h2-7,10-11H,8-9,12H2,1H3

> <PUBCHEM_IUPAC_INCHIKEY>
FDIRXFNMWMDFFA-UHFFFAOYSA-N

> <PUBCHEM_XLOGP3_AA>
3.1

> <PUBCHEM_EXACT_MASS>
344.09277

> <PUBCHEM_MOLECULAR_FORMULA>
C18H17ClN2O3

> <PUBCHEM_MOLECULAR_WEIGHT>
344.79218

> <PUBCHEM_OPENEYE_CAN_SMILES>
COCCN(CC1=CC=CC=N1)C(=O)C2=CC3=C(O2)C=CC(=C3)Cl

> <PUBCHEM_OPENEYE_ISO_SMILES>
COCCN(CC1=CC=CC=N1)C(=O)C2=CC3=C(O2)C=CC(=C3)Cl

> <PUBCHEM_CACTVS_TPSA>
55.6

> <PUBCHEM_MONOISOTOPIC_WEIGHT>
344.09277

> <PUBCHEM_TOTAL_CHARGE>
0

> <PUBCHEM_HEAVY_ATOM_COUNT>
24

> <PUBCHEM_ATOM_DEF_STEREO_COUNT>
0

> <PUBCHEM_ATOM_UDEF_STEREO_COUNT>
0

> <PUBCHEM_BOND_DEF_STEREO_COUNT>
0

> <PUBCHEM_BOND_UDEF_STEREO_COUNT>
0

> <PUBCHEM_ISOTOPIC_ATOM_COUNT>
0

> <PUBCHEM_COMPONENT_COUNT>
1

> <PUBCHEM_CACTVS_TAUTO_COUNT>
1

> <PUBCHEM_COORDINATE_TYPE>
1
5
255

> <PUBCHEM_BONDANNOTATIONS>
10  14  8
12  14  8
12  15  8
12  16  8
13  18  8
15  17  8
16  19  8
17  20  8
18  21  8
19  20  8
2  10  8
2  15  8
21  23  8
22  23  8
6  13  8
6  22  8

$$$$

