8401
  -OEChem-07051213053D

 26 27  0     1  0  0  0  0  0999 V2000
    4.8267   -1.4501   -0.0841 Cl  0  0  0  0  0  0  0  0  0  0  0  0
   -0.4907    2.3207   -0.9460 O   0  0  0  0  0  0  0  0  0  0  0  0
   -0.4597    1.3834    0.1438 C   0  0  2  0  0  0  0  0  0  0  0  0
    0.8823    0.6648    0.0847 C   0  0  0  0  0  0  0  0  0  0  0  0
   -1.6348    0.4647    0.1289 C   0  0  0  0  0  0  0  0  0  0  0  0
    0.9841   -0.4955   -0.6537 C   0  0  0  0  0  0  0  0  0  0  0  0
    1.9527    1.1969    0.7726 C   0  0  0  0  0  0  0  0  0  0  0  0
   -2.1329   -0.0500    1.3258 C   0  0  0  0  0  0  0  0  0  0  0  0
   -2.2353    0.1201   -1.0820 C   0  0  0  0  0  0  0  0  0  0  0  0
    2.2127   -1.1540   -0.7066 C   0  0  0  0  0  0  0  0  0  0  0  0
    3.1812    0.5385    0.7197 C   0  0  0  0  0  0  0  0  0  0  0  0
   -3.2315   -0.9094    1.3119 C   0  0  0  0  0  0  0  0  0  0  0  0
   -3.3340   -0.7392   -1.0960 C   0  0  0  0  0  0  0  0  0  0  0  0
    3.3113   -0.6370   -0.0199 C   0  0  0  0  0  0  0  0  0  0  0  0
   -3.8320   -1.2540    0.1010 C   0  0  0  0  0  0  0  0  0  0  0  0
   -0.5048    1.9894    1.0584 H   0  0  0  0  0  0  0  0  0  0  0  0
    0.1663   -0.9245   -1.2188 H   0  0  0  0  0  0  0  0  0  0  0  0
    1.8603    2.1123    1.3491 H   0  0  0  0  0  0  0  0  0  0  0  0
   -1.6732    0.2090    2.2759 H   0  0  0  0  0  0  0  0  0  0  0  0
   -1.8642    0.5021   -2.0291 H   0  0  0  0  0  0  0  0  0  0  0  0
    2.3010   -2.0670   -1.2900 H   0  0  0  0  0  0  0  0  0  0  0  0
    4.0287    0.9531    1.2595 H   0  0  0  0  0  0  0  0  0  0  0  0
   -3.6190   -1.3108    2.2437 H   0  0  0  0  0  0  0  0  0  0  0  0
   -3.8009   -1.0088   -2.0388 H   0  0  0  0  0  0  0  0  0  0  0  0
   -1.3653    2.7463   -0.9462 H   0  0  0  0  0  0  0  0  0  0  0  0
   -4.6871   -1.9236    0.0900 H   0  0  0  0  0  0  0  0  0  0  0  0
  1 14  1  0  0  0  0
  2  3  1  0  0  0  0
  2 25  1  0  0  0  0
  3  4  1  0  0  0  0
  3  5  1  0  0  0  0
  3 16  1  0  0  0  0
  4  6  2  0  0  0  0
  4  7  1  0  0  0  0
  5  8  2  0  0  0  0
  5  9  1  0  0  0  0
  6 10  1  0  0  0  0
  6 17  1  0  0  0  0
  7 11  2  0  0  0  0
  7 18  1  0  0  0  0
  8 12  1  0  0  0  0
  8 19  1  0  0  0  0
  9 13  2  0  0  0  0
  9 20  1  0  0  0  0
 10 14  2  0  0  0  0
 10 21  1  0  0  0  0
 11 14  1  0  0  0  0
 11 22  1  0  0  0  0
 12 15  2  0  0  0  0
 12 23  1  0  0  0  0
 13 15  1  0  0  0  0
 13 24  1  0  0  0  0
 15 26  1  0  0  0  0
M  END
> <PUBCHEM_COMPOUND_CID>
8401

> <PUBCHEM_CONFORMER_RMSD>
0.6

> <PUBCHEM_CONFORMER_DIVERSEORDER>
4
3
1
2

> <PUBCHEM_MMFF94_PARTIAL_CHARGES>
25
1 -0.18
10 -0.15
11 -0.15
12 -0.15
13 -0.15
14 0.18
15 -0.15
17 0.15
18 0.15
19 0.15
2 -0.68
20 0.15
21 0.15
22 0.15
23 0.15
24 0.15
25 0.4
26 0.15
3 0.57
4 -0.14
5 -0.14
6 -0.15
7 -0.15
8 -0.15
9 -0.15

> <PUBCHEM_EFFECTIVE_ROTOR_COUNT>
2

> <PUBCHEM_PHARMACOPHORE_FEATURES>
4
1 2 acceptor
1 2 donor
6 4 6 7 10 11 14 rings
6 5 8 9 12 13 15 rings

> <PUBCHEM_HEAVY_ATOM_COUNT>
15

> <PUBCHEM_ATOM_DEF_STEREO_COUNT>
0

> <PUBCHEM_ATOM_UDEF_STEREO_COUNT>
1

> <PUBCHEM_BOND_DEF_STEREO_COUNT>
0

> <PUBCHEM_BOND_UDEF_STEREO_COUNT>
0

> <PUBCHEM_ISOTOPIC_ATOM_COUNT>
0

> <PUBCHEM_COMPONENT_COUNT>
1

> <PUBCHEM_CACTVS_TAUTO_COUNT>
1

> <PUBCHEM_CONFORMER_ID>
000020D100000004

> <PUBCHEM_MMFF94_ENERGY>
42.7598

> <PUBCHEM_FEATURE_SELFOVERLAP>
20.297

> <PUBCHEM_SHAPE_FINGERPRINT>
10465860 71 16773795887498536397
10618630 7 18410570686616587309
11046707 91 18335701676012331014
11127187 94 17346599656023514315
11132069 177 17967827037026041126
11471102 22 18333731286597684424
11543360 7 16559022788493782974
11578080 2 17024906738855889313
12032990 46 18413107247141432170
12251169 10 17167858673113449647
12363563 72 18272647939449065354
13296908 3 18343024376023919657
13675066 3 14562528514031820286
13693222 15 18186522098476092578
14787075 74 15437672424264126313
15309172 13 17385726910863386526
15375462 189 18040151842438556410
15501101 241 18187646868949305504
15527383 91 18260257560206348785
16945 1 18114745919290887168
17844478 74 18408604781575474836
1813 80 18262219093535522964
18186145 218 16559030471694442293
19050596 39 17022901233355853435
19433438 48 17603309270978700510
200 152 17603879909308248877
20112054 13 7997972383676378643
20279233 1 18201444653182388795
20281407 28 18410854373527829172
20281475 54 18409724036903932530
20361792 2 18342453716809995509
20645477 70 18335433343482494255
20671657 53 17346880044104499852
20711985 344 18058740246005088549
20871999 31 17131830979959064159
21061003 4 18412821365829034185
21524375 3 9151170935227944233
22445834 79 17530959177120350223
23402539 116 17917427674719072620
23403322 49 18201721781568118234
23557571 272 17346326955195874684
23559900 14 17704083888905776672
26918003 58 18113901550554058835
27216 239 6699797692443678111
276578 36 5689603783537612684
2871803 45 18341620338409330046
3082319 5 14333130754013150139
3286 77 17676212346772050314
76465 3 18339933700673696474
81228 2 18129383859573842493
83771 10 18409725162290852681
90316 7 16370995313538415441

> <PUBCHEM_SHAPE_MULTIPOLES>
304.69
7.76
1.65
1.19
3.21
0.43
0.09
-4.52
0.84
0.45
-0.23
-0.91
0.01
0.45

> <PUBCHEM_SHAPE_SELFOVERLAP>
647.398

> <PUBCHEM_SHAPE_VOLUME>
170.8

> <PUBCHEM_COORDINATE_TYPE>
2
5
10

$$$$

