14138
  -OEChem-07051213053D

 37 37  0     0  0  0  0  0  0999 V2000
   -0.3214   -0.3783    0.0445 O   0  0  0  0  0  0  0  0  0  0  0  0
   -1.3545   -2.4194    0.3014 O   0  0  0  0  0  0  0  0  0  0  0  0
   -6.1842    1.6863   -0.1860 O   0  0  0  0  0  0  0  0  0  0  0  0
    4.5046    0.5642   -0.0385 C   0  0  0  0  0  0  0  0  0  0  0  0
    3.4338   -0.5246    0.0587 C   0  0  0  0  0  0  0  0  0  0  0  0
    5.9344    0.0182    0.0151 C   0  0  0  0  0  0  0  0  0  0  0  0
    2.0294    0.0721   -0.0234 C   0  0  0  0  0  0  0  0  0  0  0  0
    7.0042    1.0975   -0.1559 C   0  0  0  0  0  0  0  0  0  0  0  0
    0.9555   -0.9978    0.1141 C   0  0  0  0  0  0  0  0  0  0  0  0
    8.4014    0.4959   -0.1673 C   0  0  0  0  0  0  0  0  0  0  0  0
   -1.3961   -1.2080    0.1524 C   0  0  0  0  0  0  0  0  0  0  0  0
   -2.6646   -0.4416    0.0632 C   0  0  0  0  0  0  0  0  0  0  0  0
   -3.7806   -1.0578   -0.4648 C   0  0  0  0  0  0  0  0  0  0  0  0
   -2.6882    0.8635    0.5110 C   0  0  0  0  0  0  0  0  0  0  0  0
   -4.9722   -0.3374   -0.5489 C   0  0  0  0  0  0  0  0  0  0  0  0
   -3.8797    1.5839    0.4271 C   0  0  0  0  0  0  0  0  0  0  0  0
   -5.0219    0.9833   -0.1028 C   0  0  0  0  0  0  0  0  0  0  0  0
    4.3666    1.2854    0.7766 H   0  0  0  0  0  0  0  0  0  0  0  0
    4.3692    1.1171   -0.9765 H   0  0  0  0  0  0  0  0  0  0  0  0
    3.5516   -1.0671    1.0044 H   0  0  0  0  0  0  0  0  0  0  0  0
    3.5731   -1.2509   -0.7511 H   0  0  0  0  0  0  0  0  0  0  0  0
    6.0556   -0.7351   -0.7735 H   0  0  0  0  0  0  0  0  0  0  0  0
    6.0871   -0.4981    0.9710 H   0  0  0  0  0  0  0  0  0  0  0  0
    1.8962    0.6021   -0.9747 H   0  0  0  0  0  0  0  0  0  0  0  0
    1.8908    0.8259    0.7617 H   0  0  0  0  0  0  0  0  0  0  0  0
    6.9279    1.8271    0.6583 H   0  0  0  0  0  0  0  0  0  0  0  0
    6.8391    1.6390   -1.0945 H   0  0  0  0  0  0  0  0  0  0  0  0
    1.0589   -1.5116    1.0771 H   0  0  0  0  0  0  0  0  0  0  0  0
    1.0507   -1.7309   -0.6955 H   0  0  0  0  0  0  0  0  0  0  0  0
    8.6090   -0.0311    0.7694 H   0  0  0  0  0  0  0  0  0  0  0  0
    9.1517    1.2837   -0.2875 H   0  0  0  0  0  0  0  0  0  0  0  0
    8.5173   -0.2125   -0.9939 H   0  0  0  0  0  0  0  0  0  0  0  0
   -3.7536   -2.0841   -0.8184 H   0  0  0  0  0  0  0  0  0  0  0  0
   -1.8168    1.3494    0.9397 H   0  0  0  0  0  0  0  0  0  0  0  0
   -5.8582   -0.8102   -0.9638 H   0  0  0  0  0  0  0  0  0  0  0  0
   -3.9061    2.6112    0.7804 H   0  0  0  0  0  0  0  0  0  0  0  0
   -6.0372    2.5808    0.1666 H   0  0  0  0  0  0  0  0  0  0  0  0
  1  9  1  0  0  0  0
  1 11  1  0  0  0  0
  2 11  2  0  0  0  0
  3 17  1  0  0  0  0
  3 37  1  0  0  0  0
  4  5  1  0  0  0  0
  4  6  1  0  0  0  0
  4 18  1  0  0  0  0
  4 19  1  0  0  0  0
  5  7  1  0  0  0  0
  5 20  1  0  0  0  0
  5 21  1  0  0  0  0
  6  8  1  0  0  0  0
  6 22  1  0  0  0  0
  6 23  1  0  0  0  0
  7  9  1  0  0  0  0
  7 24  1  0  0  0  0
  7 25  1  0  0  0  0
  8 10  1  0  0  0  0
  8 26  1  0  0  0  0
  8 27  1  0  0  0  0
  9 28  1  0  0  0  0
  9 29  1  0  0  0  0
 10 30  1  0  0  0  0
 10 31  1  0  0  0  0
 10 32  1  0  0  0  0
 11 12  1  0  0  0  0
 12 13  2  0  0  0  0
 12 14  1  0  0  0  0
 13 15  1  0  0  0  0
 13 33  1  0  0  0  0
 14 16  2  0  0  0  0
 14 34  1  0  0  0  0
 15 17  2  0  0  0  0
 15 35  1  0  0  0  0
 16 17  1  0  0  0  0
 16 36  1  0  0  0  0
M  END
> <PUBCHEM_COMPOUND_CID>
14138

> <PUBCHEM_CONFORMER_RMSD>
0.8

> <PUBCHEM_CONFORMER_DIVERSEORDER>
1
121
23
127
167
21
85
216
44
146
210
118
25
179
9
211
131
159
175
129
74
107
223
204
12
116
170
20
163
155
58
114
2
169
104
125
145
82
78
148
224
5
222
157
52
209
185
30
28
92
102
122
168
183
11
14
10
15
87
72
143
3
38
130
100
120
113
156
35
27
95
24
150
64
154
50
109
108
49
166
73
194
4
198
193
32
110
6
57
217
26
13
192
119
34
18
106
206
221
93
140
181
42
177
164
55
190
189
139
98
187
142
17
40
226
158
182
152
45
71
16
172
174
36
33
196
89
201
46
111
83
19
61
214
188
41
186
219
132
43
99
8
136
123
65
207
88
180
53
153
117
48
176
141
124
227
202
173
37
212
225
165
56
178
228
205
137
62
161
218
68
76
51
81
22
128
115
75
90
171
203
66
84
67
149
162
69
200
135
59
101
54
133
215
138
94
195
191
96
63
112
208
86
220
97
151
60
77
105
29
7
31
47
70
213
160
197
39
147
199
103
134
126
80
184
144
91
79

> <PUBCHEM_MMFF94_PARTIAL_CHARGES>
16
1 -0.43
11 0.63
12 0.09
13 -0.15
14 -0.15
15 -0.15
16 -0.15
17 0.08
2 -0.57
3 -0.53
33 0.15
34 0.15
35 0.15
36 0.15
37 0.45
9 0.28

> <PUBCHEM_EFFECTIVE_ROTOR_COUNT>
8

> <PUBCHEM_PHARMACOPHORE_FEATURES>
5
1 10 hydrophobe
1 2 acceptor
1 3 donor
5 4 5 6 7 8 hydrophobe
6 12 13 14 15 16 17 rings

> <PUBCHEM_HEAVY_ATOM_COUNT>
17

> <PUBCHEM_ATOM_DEF_STEREO_COUNT>
0

> <PUBCHEM_ATOM_UDEF_STEREO_COUNT>
0

> <PUBCHEM_BOND_DEF_STEREO_COUNT>
0

> <PUBCHEM_BOND_UDEF_STEREO_COUNT>
0

> <PUBCHEM_ISOTOPIC_ATOM_COUNT>
0

> <PUBCHEM_COMPONENT_COUNT>
1

> <PUBCHEM_CACTVS_TAUTO_COUNT>
3

> <PUBCHEM_CONFORMER_ID>
0000373A00000001

> <PUBCHEM_MMFF94_ENERGY>
26.4931

> <PUBCHEM_FEATURE_SELFOVERLAP>
25.371

> <PUBCHEM_SHAPE_FINGERPRINT>
10411042 1 17906171755644494215
106641 1 17561357375589287337
10730089 173 18334294275206064648
10968037 39 18187082849395871145
11089746 13 18410295783641576500
11315181 36 18060136492469687078
117890 112 18411699881538715062
12091667 2 18408322159647414694
12236239 1 18201723959422291058
13288520 33 8862942775474289227
13533116 47 17417823876751862272
13668630 136 13984661443333218484
1420 363 11024109850419943112
14251764 18 18272937115977429458
14251764 46 18202002123437853343
14556957 393 15068892024072712848
14729087 3 18408889525518221912
15048467 5 18342176670202984220
15183329 4 18333729144110526440
15348495 7 14261057741549317732
15716309 27 10807933761070604008
15778101 99 18412261726952584707
167882 2 17969777660817115142
17780758 139 11887677281943690967
17834072 8 17894911819950476376
18335252 98 18335696127421435011
18643901 69 16081378397948666165
19489759 90 18187082841085362082
20281389 69 18130791170428031460
20526848 3 18341609338919080596
20621476 66 18411978070359386380
20621476 8 18272088327729588574
20645477 56 18410856555381927523
20645477 70 16878494744156703006
21150785 3 14417854731447599400
22224240 67 14979955856806140712
22288116 15 17968110685672728087
23035841 295 8718828691331635540
23198884 109 18335419067259056890
23402539 116 18334019384603915239
23559900 14 18041005011742631944
28498 318 18261388980428093942
300161 21 18411139139124916722
3545911 37 18334857212205856410
4073 2 18059570236441578810
441001 317 18334575741524009265
6328613 192 18271238323489934708
7062679 6 18342452647595422828

> <PUBCHEM_SHAPE_MULTIPOLES>
332.24
20.17
1.62
0.67
36.32
0.23
0.01
-9.38
2.32
-2
-0.12
-0.18
-0.01
-0.31

> <PUBCHEM_SHAPE_SELFOVERLAP>
663.181

> <PUBCHEM_SHAPE_VOLUME>
196.8

> <PUBCHEM_COORDINATE_TYPE>
2
5
10

$$$$

