21606896
  -OEChem-07051213093D

 83 87  0     1  0  0  0  0  0999 V2000
   -7.7261    0.6519    1.4397 N   0  0  0  0  0  0  0  0  0  0  0  0
    8.4699    0.4580    0.7735 N   0  0  1  0  0  0  0  0  0  0  0  0
   -0.1996   -0.7011   -0.0976 C   0  0  1  0  0  0  0  0  0  0  0  0
   -0.8491    0.5753    0.4769 C   0  0  2  0  0  0  0  0  0  0  0  0
   -3.1818   -0.4345    0.2253 C   0  0  2  0  0  0  0  0  0  0  0  0
   -4.6030   -0.2771   -0.4519 C   0  0  2  0  0  0  0  0  0  0  0  0
    1.1918   -0.6147    0.5766 C   0  0  2  0  0  0  0  0  0  0  0  0
   -2.2644    0.7764   -0.0037 C   0  0  0  0  0  0  0  0  0  0  0  0
   -1.0408   -1.9037    0.3613 C   0  0  0  0  0  0  0  0  0  0  0  0
   -5.0956    1.1756   -0.1703 C   0  0  1  0  0  0  0  0  0  0  0  0
   -2.4952   -1.7877   -0.1219 C   0  0  0  0  0  0  0  0  0  0  0  0
    0.2346    1.6398    0.2797 C   0  0  0  0  0  0  0  0  0  0  0  0
    1.5583    0.8829    0.4863 C   0  0  0  0  0  0  0  0  0  0  0  0
   -5.6063   -1.2779    0.1837 C   0  0  0  0  0  0  0  0  0  0  0  0
   -4.1593    2.2136   -0.8094 C   0  0  0  0  0  0  0  0  0  0  0  0
   -0.0850   -0.6843   -1.6424 C   0  0  0  0  0  0  0  0  0  0  0  0
   -6.5563    1.4224   -0.5878 C   0  0  0  0  0  0  0  0  0  0  0  0
   -2.7178    1.9419   -0.4982 C   0  0  0  0  0  0  0  0  0  0  0  0
    2.2744   -1.5246    0.0135 C   0  0  2  0  0  0  0  0  0  0  0  0
   -4.5274   -0.5523   -1.9787 C   0  0  0  0  0  0  0  0  0  0  0  0
   -7.0585   -1.0349   -0.2416 C   0  0  0  0  0  0  0  0  0  0  0  0
   -7.5341    0.4011    0.0084 C   0  0  1  0  0  0  0  0  0  0  0  0
    2.1167   -2.9507    0.5462 C   0  0  0  0  0  0  0  0  0  0  0  0
    3.6442   -0.9920    0.3622 C   0  0  0  0  0  0  0  0  0  0  0  0
    4.5554   -0.6288   -0.5518 C   0  0  0  0  0  0  0  0  0  0  0  0
   -8.9952    0.1047    1.8895 C   0  0  0  0  0  0  0  0  0  0  0  0
    5.8622   -0.1144   -0.2128 C   0  0  0  0  0  0  0  0  0  0  0  0
    6.1217   -0.0105    1.2750 C   0  0  0  0  0  0  0  0  0  0  0  0
    6.8044    0.2610   -1.1056 C   0  0  0  0  0  0  0  0  0  0  0  0
    7.3457    0.8408    1.6279 C   0  0  0  0  0  0  0  0  0  0  0  0
    8.1646    0.7514   -0.6353 C   0  0  0  0  0  0  0  0  0  0  0  0
    6.6528    0.2597   -2.6045 C   0  0  0  0  0  0  0  0  0  0  0  0
    9.6986    1.1327    1.1878 C   0  0  0  0  0  0  0  0  0  0  0  0
   -0.9431    0.4524    1.5695 H   0  0  0  0  0  0  0  0  0  0  0  0
   -3.3437   -0.4529    1.3146 H   0  0  0  0  0  0  0  0  0  0  0  0
    1.0722   -0.8342    1.6493 H   0  0  0  0  0  0  0  0  0  0  0  0
   -1.0341   -1.9819    1.4558 H   0  0  0  0  0  0  0  0  0  0  0  0
   -0.6415   -2.8434   -0.0264 H   0  0  0  0  0  0  0  0  0  0  0  0
   -5.0514    1.3319    0.9189 H   0  0  0  0  0  0  0  0  0  0  0  0
   -2.4996   -1.9597   -1.2024 H   0  0  0  0  0  0  0  0  0  0  0  0
   -3.0691   -2.6113    0.3190 H   0  0  0  0  0  0  0  0  0  0  0  0
    0.1300    2.4645    0.9927 H   0  0  0  0  0  0  0  0  0  0  0  0
    0.2072    2.0689   -0.7286 H   0  0  0  0  0  0  0  0  0  0  0  0
    2.2162    1.1161   -0.3581 H   0  0  0  0  0  0  0  0  0  0  0  0
    2.0570    1.2197    1.4025 H   0  0  0  0  0  0  0  0  0  0  0  0
   -5.3367   -2.3083   -0.0769 H   0  0  0  0  0  0  0  0  0  0  0  0
   -5.5472   -1.2138    1.2779 H   0  0  0  0  0  0  0  0  0  0  0  0
   -4.4174    3.2071   -0.4221 H   0  0  0  0  0  0  0  0  0  0  0  0
   -4.2904    2.2568   -1.8968 H   0  0  0  0  0  0  0  0  0  0  0  0
   -1.0361   -0.4391   -2.1252 H   0  0  0  0  0  0  0  0  0  0  0  0
    0.2181   -1.6650   -2.0254 H   0  0  0  0  0  0  0  0  0  0  0  0
    0.6443    0.0498   -2.0001 H   0  0  0  0  0  0  0  0  0  0  0  0
   -6.6421    1.3961   -1.6811 H   0  0  0  0  0  0  0  0  0  0  0  0
   -6.8537    2.4400   -0.3009 H   0  0  0  0  0  0  0  0  0  0  0  0
   -2.0413    2.7799   -0.6371 H   0  0  0  0  0  0  0  0  0  0  0  0
    2.2144   -1.5775   -1.0785 H   0  0  0  0  0  0  0  0  0  0  0  0
   -4.4145   -1.6220   -2.1864 H   0  0  0  0  0  0  0  0  0  0  0  0
   -3.6831   -0.0385   -2.4491 H   0  0  0  0  0  0  0  0  0  0  0  0
   -5.4309   -0.2342   -2.5060 H   0  0  0  0  0  0  0  0  0  0  0  0
   -7.1578   -1.2529   -1.3124 H   0  0  0  0  0  0  0  0  0  0  0  0
   -7.7040   -1.7660    0.2574 H   0  0  0  0  0  0  0  0  0  0  0  0
   -8.4898    0.5497   -0.5123 H   0  0  0  0  0  0  0  0  0  0  0  0
    1.2998   -3.4782    0.0518 H   0  0  0  0  0  0  0  0  0  0  0  0
    3.0200   -3.5411    0.3493 H   0  0  0  0  0  0  0  0  0  0  0  0
    1.9437   -2.9713    1.6276 H   0  0  0  0  0  0  0  0  0  0  0  0
    3.8350   -0.9536    1.4302 H   0  0  0  0  0  0  0  0  0  0  0  0
   -7.7324    1.6571    1.6128 H   0  0  0  0  0  0  0  0  0  0  0  0
    4.2883   -0.7218   -1.5984 H   0  0  0  0  0  0  0  0  0  0  0  0
   -9.1279    0.3395    2.9509 H   0  0  0  0  0  0  0  0  0  0  0  0
   -9.8427    0.5420    1.3511 H   0  0  0  0  0  0  0  0  0  0  0  0
   -9.0374   -0.9844    1.8015 H   0  0  0  0  0  0  0  0  0  0  0  0
    5.2853    0.4735    1.7940 H   0  0  0  0  0  0  0  0  0  0  0  0
    6.2519   -1.0182    1.6919 H   0  0  0  0  0  0  0  0  0  0  0  0
    7.5887    0.6716    2.6842 H   0  0  0  0  0  0  0  0  0  0  0  0
    7.1117    1.9084    1.5163 H   0  0  0  0  0  0  0  0  0  0  0  0
    8.9361    0.2717   -1.2511 H   0  0  0  0  0  0  0  0  0  0  0  0
    8.2162    1.8321   -0.8266 H   0  0  0  0  0  0  0  0  0  0  0  0
    7.3285   -0.4794   -3.0475 H   0  0  0  0  0  0  0  0  0  0  0  0
    5.6438    0.0379   -2.9551 H   0  0  0  0  0  0  0  0  0  0  0  0
    6.9142    1.2454   -3.0051 H   0  0  0  0  0  0  0  0  0  0  0  0
   10.5401    0.8186    0.5603 H   0  0  0  0  0  0  0  0  0  0  0  0
    9.6128    2.2239    1.1298 H   0  0  0  0  0  0  0  0  0  0  0  0
    9.9566    0.8621    2.2176 H   0  0  0  0  0  0  0  0  0  0  0  0
  1 22  1  0  0  0  0
  1 26  1  0  0  0  0
  1 67  1  0  0  0  0
  2 30  1  0  0  0  0
  2 31  1  0  0  0  0
  2 33  1  0  0  0  0
  3  4  1  0  0  0  0
  3  7  1  0  0  0  0
  3  9  1  0  0  0  0
  3 16  1  0  0  0  0
  4  8  1  0  0  0  0
  4 12  1  0  0  0  0
  4 34  1  0  0  0  0
  5  6  1  0  0  0  0
  5  8  1  0  0  0  0
  5 11  1  0  0  0  0
  5 35  1  0  0  0  0
  6 10  1  0  0  0  0
  6 14  1  0  0  0  0
  6 20  1  0  0  0  0
  7 13  1  0  0  0  0
  7 19  1  0  0  0  0
  7 36  1  0  0  0  0
  8 18  2  0  0  0  0
  9 11  1  0  0  0  0
  9 37  1  0  0  0  0
  9 38  1  0  0  0  0
 10 15  1  0  0  0  0
 10 17  1  0  0  0  0
 10 39  1  0  0  0  0
 11 40  1  0  0  0  0
 11 41  1  0  0  0  0
 12 13  1  0  0  0  0
 12 42  1  0  0  0  0
 12 43  1  0  0  0  0
 13 44  1  0  0  0  0
 13 45  1  0  0  0  0
 14 21  1  0  0  0  0
 14 46  1  0  0  0  0
 14 47  1  0  0  0  0
 15 18  1  0  0  0  0
 15 48  1  0  0  0  0
 15 49  1  0  0  0  0
 16 50  1  0  0  0  0
 16 51  1  0  0  0  0
 16 52  1  0  0  0  0
 17 22  1  0  0  0  0
 17 53  1  0  0  0  0
 17 54  1  0  0  0  0
 18 55  1  0  0  0  0
 19 23  1  0  0  0  0
 19 24  1  0  0  0  0
 19 56  1  0  0  0  0
 20 57  1  0  0  0  0
 20 58  1  0  0  0  0
 20 59  1  0  0  0  0
 21 22  1  0  0  0  0
 21 60  1  0  0  0  0
 21 61  1  0  0  0  0
 22 62  1  0  0  0  0
 23 63  1  0  0  0  0
 23 64  1  0  0  0  0
 23 65  1  0  0  0  0
 24 25  2  0  0  0  0
 24 66  1  0  0  0  0
 25 27  1  0  0  0  0
 25 68  1  0  0  0  0
 26 69  1  0  0  0  0
 26 70  1  0  0  0  0
 26 71  1  0  0  0  0
 27 28  1  0  0  0  0
 27 29  2  0  0  0  0
 28 30  1  0  0  0  0
 28 72  1  0  0  0  0
 28 73  1  0  0  0  0
 29 31  1  0  0  0  0
 29 32  1  0  0  0  0
 30 74  1  0  0  0  0
 30 75  1  0  0  0  0
 31 76  1  0  0  0  0
 31 77  1  0  0  0  0
 32 78  1  0  0  0  0
 32 79  1  0  0  0  0
 32 80  1  0  0  0  0
 33 81  1  0  0  0  0
 33 82  1  0  0  0  0
 33 83  1  0  0  0  0
M  END
> <PUBCHEM_COMPOUND_CID>
21606896

> <PUBCHEM_CONFORMER_RMSD>
1

> <PUBCHEM_CONFORMER_DIVERSEORDER>
1
8
11
9
16
5
13
15
7
4
12
6
3
10
14
2

> <PUBCHEM_MMFF94_PARTIAL_CHARGES>
23
1 -0.9
15 0.14
18 -0.29
19 0.14
2 -0.81
22 0.27
24 -0.29
25 -0.15
26 0.27
27 -0.14
28 0.14
29 -0.28
30 0.27
31 0.41
32 0.14
33 0.27
4 0.14
5 0.14
55 0.15
66 0.15
67 0.36
68 0.15
8 -0.28

> <PUBCHEM_EFFECTIVE_ROTOR_COUNT>
6.8

> <PUBCHEM_PHARMACOPHORE_FEATURES>
9
1 1 cation
1 1 donor
1 2 cation
1 23 hydrophobe
5 3 4 7 12 13 rings
6 2 27 28 29 30 31 rings
6 3 4 5 8 9 11 rings
6 5 6 8 10 15 18 rings
6 6 10 14 17 21 22 rings

> <PUBCHEM_HEAVY_ATOM_COUNT>
33

> <PUBCHEM_ATOM_DEF_STEREO_COUNT>
8

> <PUBCHEM_ATOM_UDEF_STEREO_COUNT>
0

> <PUBCHEM_BOND_DEF_STEREO_COUNT>
1

> <PUBCHEM_BOND_UDEF_STEREO_COUNT>
0

> <PUBCHEM_ISOTOPIC_ATOM_COUNT>
0

> <PUBCHEM_COMPONENT_COUNT>
1

> <PUBCHEM_CACTVS_TAUTO_COUNT>
1

> <PUBCHEM_CONFORMER_ID>
0149B1F000000001

> <PUBCHEM_MMFF94_ENERGY>
95.2369

> <PUBCHEM_FEATURE_SELFOVERLAP>
45.76

> <PUBCHEM_SHAPE_FINGERPRINT>
10 15 18272092707726026594
10050765 1 18051133889172766322
10076449 9 18113898234548935249
10369192 42 17968097547225337933
11135926 11 18343312469445702142
11181472 205 15285903836553282027
11456790 92 17060622196630647292
11638347 137 15267346232455737536
12741549 16 14836405839772844031
12838862 33 18339094738524700678
13560911 43 17703790318832376988
14251764 18 17989488519583123871
14675019 173 6050437115605435547
14856354 85 18201438043244025423
15131766 46 15408898334542541190
15183329 4 18272928323931597868
15392192 104 16773790399432782906
15419008 47 17967821548069108240
15849732 13 17530966865074958660
16728433 281 13985763248748059323
18608769 82 18343299250316703563
20105231 36 18113328722260551927
21150785 3 17704070689954194365
23559900 14 18335431131616768649
23576562 1 16806470027903670413
24771293 8 18411418436189387045
24771750 20 18057029212712867564
335352 9 18410580592124767509
335507 130 18272366465195073877
34797466 226 17458345230768473308
350125 39 18411982481712721085
3633792 109 16226042293365482234
4093350 32 16805040731232303124
4258327 124 17059473168008008622
4325135 7 18201720656892867406
4339292 15 16916784034504364731
44280117 145 17532380755413766631
44802255 64 14996283661321173069
5028188 123 16732990786251652253
504579 68 4895551900996135976
5758199 1 18408322198238927587
6394761 36 7420945365715272473

> <PUBCHEM_SHAPE_MULTIPOLES>
669.16
28.35
1.95
1.53
23.03
0.47
0.41
-8.78
-6.41
-0.98
-0.04
1.15
-0.16
0.42

> <PUBCHEM_SHAPE_SELFOVERLAP>
1404.628

> <PUBCHEM_SHAPE_VOLUME>
370.4

> <PUBCHEM_COORDINATE_TYPE>
2
5
10

$$$$

