9846
  -OEChem-06261204073D

 26 25  0     0  0  0  0  0  0999 V2000
   -6.5666    0.1584   -0.1779 Br  0  0  0  0  0  0  0  0  0  0  0  0
    4.8341   -1.3568   -0.5957 F   0  0  0  0  0  0  0  0  0  0  0  0
    2.4964   -0.1436    0.2325 O   0  0  0  0  0  0  0  0  0  0  0  0
    1.2992    1.7669   -0.2549 O   0  0  0  0  0  0  0  0  0  0  0  0
   -2.3727   -0.5655    0.1646 C   0  0  0  0  0  0  0  0  0  0  0  0
   -1.1769    0.3747   -0.0223 C   0  0  0  0  0  0  0  0  0  0  0  0
   -3.7224    0.1186   -0.0714 C   0  0  0  0  0  0  0  0  0  0  0  0
    0.1598   -0.3334    0.2032 C   0  0  0  0  0  0  0  0  0  0  0  0
   -4.9040   -0.8249    0.0821 C   0  0  0  0  0  0  0  0  0  0  0  0
    1.3544    0.5798    0.0357 C   0  0  0  0  0  0  0  0  0  0  0  0
    3.7200    0.5824    0.0772 C   0  0  0  0  0  0  0  0  0  0  0  0
    4.8787   -0.3568    0.3269 C   0  0  0  0  0  0  0  0  0  0  0  0
   -2.3519   -0.9795    1.1802 H   0  0  0  0  0  0  0  0  0  0  0  0
   -2.2750   -1.4124   -0.5258 H   0  0  0  0  0  0  0  0  0  0  0  0
   -1.1994    0.7984   -1.0341 H   0  0  0  0  0  0  0  0  0  0  0  0
   -1.2657    1.2200    0.6716 H   0  0  0  0  0  0  0  0  0  0  0  0
   -3.8224    0.9561    0.6311 H   0  0  0  0  0  0  0  0  0  0  0  0
   -3.7310    0.5572   -1.0774 H   0  0  0  0  0  0  0  0  0  0  0  0
    0.2602   -1.1569   -0.5131 H   0  0  0  0  0  0  0  0  0  0  0  0
    0.1887   -0.7429    1.2193 H   0  0  0  0  0  0  0  0  0  0  0  0
   -4.9521   -1.2597    1.0840 H   0  0  0  0  0  0  0  0  0  0  0  0
   -4.8893   -1.6236   -0.6643 H   0  0  0  0  0  0  0  0  0  0  0  0
    3.7491    1.4124    0.7913 H   0  0  0  0  0  0  0  0  0  0  0  0
    3.7742    0.9686   -0.9466 H   0  0  0  0  0  0  0  0  0  0  0  0
    5.8392    0.1558    0.2295 H   0  0  0  0  0  0  0  0  0  0  0  0
    4.8091   -0.8230    1.3137 H   0  0  0  0  0  0  0  0  0  0  0  0
  1  9  1  0  0  0  0
  2 12  1  0  0  0  0
  3 10  1  0  0  0  0
  3 11  1  0  0  0  0
  4 10  2  0  0  0  0
  5  6  1  0  0  0  0
  5  7  1  0  0  0  0
  5 13  1  0  0  0  0
  5 14  1  0  0  0  0
  6  8  1  0  0  0  0
  6 15  1  0  0  0  0
  6 16  1  0  0  0  0
  7  9  1  0  0  0  0
  7 17  1  0  0  0  0
  7 18  1  0  0  0  0
  8 10  1  0  0  0  0
  8 19  1  0  0  0  0
  8 20  1  0  0  0  0
  9 21  1  0  0  0  0
  9 22  1  0  0  0  0
 11 12  1  0  0  0  0
 11 23  1  0  0  0  0
 11 24  1  0  0  0  0
 12 25  1  0  0  0  0
 12 26  1  0  0  0  0
M  END
> <PUBCHEM_COMPOUND_CID>
9846

> <PUBCHEM_CONFORMER_RMSD>
0.8

> <PUBCHEM_CONFORMER_DIVERSEORDER>
1
243
412
152
361
65
399
95
369
104
401
179
85
73
78
184
56
18
237
403
64
48
374
366
256
363
39
268
305
51
392
312
416
263
316
169
14
352
323
411
79
364
8
212
348
249
173
28
413
385
96
200
106
196
394
414
303
10
128
334
354
176
320
239
381
311
410
89
137
233
365
3
370
171
300
407
248
117
13
296
82
387
298
9
61
375
110
12
25
376
19
397
189
404
222
338
153
126
107
358
389
294
313
172
146
99
162
384
340
76
132
205
91
52
118
341
373
265
116
308
164
409
93
160
220
250
408
11
143
335
400
103
247
218
380
227
193
406
22
58
135
38
388
379
362
272
124
177
87
377
66
378
245
269
318
260
230
210
415
33
386
157
396
122
72
371
84
102
405
310
337
94
321
31
127
223
356
289
307
90
229
302
367
130
339
15
216
36
154
349
359
83
113
283
182
55
16
372
206
92
214
134
100
391
43
398
60
299
271
50
306
123
114
382
174
17
136
5
166
131
336
395
138
402
351
120
255
235
68
23
282
2
286
204
35
77
280
121
304
70
244
225
101
266
258
332
57
187
261
208
195
347
40
284
279
141
139
159
238
108
360
326
291
6
186
53
145
158
346
7
129
188
236
4
234
290
342
350
328
331
194
183
59
45
343
62
254
219
327
142
241
240
75
54
314
34
27
246
24
209
148
309
47
111
167
333
253
115
147
221
275
355
383
344
277
228
270
20
287
165
21
29
86
345
252
109
161
140
185
144
213
324
88
295
41
74
232
150
191
63
368
211
37
149
276
32
273
151
170
175
133
357
125
353
97
242
69
26
202
281
226
192
231
44
292
390
112
80
317
217
278
259
293
190
180
199
330
257
315
201
168
319
329
30
325
197
215
46
181
301
274
207
322
81
393
264
267
105
156
297
285
203
71
155
42
49
119
262
163
251
67
98
178
288
224
198

> <PUBCHEM_MMFF94_PARTIAL_CHARGES>
9
1 -0.23
10 0.66
11 0.28
12 0.34
2 -0.34
3 -0.43
4 -0.57
8 0.06
9 0.23

> <PUBCHEM_EFFECTIVE_ROTOR_COUNT>
8

> <PUBCHEM_PHARMACOPHORE_FEATURES>
3
1 1 hydrophobe
1 4 acceptor
4 5 6 7 8 hydrophobe

> <PUBCHEM_HEAVY_ATOM_COUNT>
12

> <PUBCHEM_ATOM_DEF_STEREO_COUNT>
0

> <PUBCHEM_ATOM_UDEF_STEREO_COUNT>
0

> <PUBCHEM_BOND_DEF_STEREO_COUNT>
0

> <PUBCHEM_BOND_UDEF_STEREO_COUNT>
0

> <PUBCHEM_ISOTOPIC_ATOM_COUNT>
0

> <PUBCHEM_COMPONENT_COUNT>
1

> <PUBCHEM_CACTVS_TAUTO_COUNT>
1

> <PUBCHEM_CONFORMER_ID>
0000267600000001

> <PUBCHEM_MMFF94_ENERGY>
3.9875

> <PUBCHEM_FEATURE_SELFOVERLAP>
15.223

> <PUBCHEM_SHAPE_FINGERPRINT>
11287383 113 9007053574109256487
114248 4 9367349236822687047
11858739 19 18186518834295919951
13533116 47 16588019152038716150
13690532 89 18409166610384026906
14123238 8 6699810886841303955
1420 363 17846776300366337987
14251718 22 10735876171401463929
14251732 16 9079104567109563101
15242439 84 17917713483476034011
17834072 33 18337953393926102253
17834072 8 18343301474344644215
17834076 25 13758076298909805923
20279233 1 4750882584792813557
20605781 2 9583516516482075486
20621476 8 18341050822205046869
20645477 70 18408602587163892726
20767249 13 15574713586839941379
20767249 213 7204769302288678995
21354914 41 18202284697609713127
23218964 4 18342178873573837655
23402539 116 17894918417125673117
42 15 17967248697888092155
42788 4 18412546501086404465
8209 1 18410857659151417345

> <PUBCHEM_SHAPE_MULTIPOLES>
233.88
14.58
1.09
0.65
9.05
0.16
0
-2.52
0.76
-0.65
0.1
-0.01
-0.04
0.26

> <PUBCHEM_SHAPE_SELFOVERLAP>
415.998

> <PUBCHEM_SHAPE_VOLUME>
153.2

> <PUBCHEM_COORDINATE_TYPE>
2
5
10

$$$$

