47205106
  -OEChem-06241222583D

 29 31  0     0  0  0  0  0  0999 V2000
    1.7910   -1.6640   -0.5239 S   0  0  0  0  0  0  0  0  0  0  0  0
   -1.0515   -2.1061    0.1163 O   0  0  0  0  0  0  0  0  0  0  0  0
   -1.4729   -0.0827    1.1676 N   0  0  0  0  0  0  0  0  0  0  0  0
   -4.0690    1.3809    0.1009 N   0  0  0  0  0  0  0  0  0  0  0  0
   -4.8960    1.5579   -0.9436 N   0  0  0  0  0  0  0  0  0  0  0  0
    2.7457    0.6048    0.2681 C   0  0  0  0  0  0  0  0  0  0  0  0
    3.1173   -0.5697   -0.3939 C   0  0  0  0  0  0  0  0  0  0  0  0
    0.7360   -0.5981    0.2862 C   0  0  0  0  0  0  0  0  0  0  0  0
   -2.8620   -0.3390    1.4740 C   0  0  0  0  0  0  0  0  0  0  0  0
    1.3637    0.5684    0.6540 C   0  0  0  0  0  0  0  0  0  0  0  0
   -3.7703    0.0739    0.3521 C   0  0  0  0  0  0  0  0  0  0  0  0
   -0.6208   -0.9866    0.4956 C   0  0  0  0  0  0  0  0  0  0  0  0
    3.7279    1.6074    0.4545 C   0  0  0  0  0  0  0  0  0  0  0  0
    4.4295   -0.7643   -0.8680 C   0  0  0  0  0  0  0  0  0  0  0  0
    5.0304    1.4175   -0.0143 C   0  0  0  0  0  0  0  0  0  0  0  0
    5.3754    0.2434   -0.6685 C   0  0  0  0  0  0  0  0  0  0  0  0
   -4.4495   -0.6548   -0.5935 C   0  0  0  0  0  0  0  0  0  0  0  0
   -5.1250    0.3109   -1.3636 C   0  0  0  0  0  0  0  0  0  0  0  0
   -3.1078    0.2179    2.3845 H   0  0  0  0  0  0  0  0  0  0  0  0
   -2.9894   -1.4063    1.6852 H   0  0  0  0  0  0  0  0  0  0  0  0
    0.8819    1.3838    1.1790 H   0  0  0  0  0  0  0  0  0  0  0  0
   -1.1101    0.8196    1.4561 H   0  0  0  0  0  0  0  0  0  0  0  0
    3.4728    2.5329    0.9651 H   0  0  0  0  0  0  0  0  0  0  0  0
    4.7086   -1.6802   -1.3812 H   0  0  0  0  0  0  0  0  0  0  0  0
    5.7750    2.1944    0.1351 H   0  0  0  0  0  0  0  0  0  0  0  0
   -4.4546   -1.7286   -0.7103 H   0  0  0  0  0  0  0  0  0  0  0  0
    6.3908    0.1047   -1.0297 H   0  0  0  0  0  0  0  0  0  0  0  0
   -3.7446    2.2007    0.5988 H   0  0  0  0  0  0  0  0  0  0  0  0
   -5.7743    0.1575   -2.2136 H   0  0  0  0  0  0  0  0  0  0  0  0
  1  7  1  0  0  0  0
  1  8  1  0  0  0  0
  2 12  2  0  0  0  0
  3  9  1  0  0  0  0
  3 12  1  0  0  0  0
  3 22  1  0  0  0  0
  4  5  1  0  0  0  0
  4 11  1  0  0  0  0
  4 28  1  0  0  0  0
  5 18  2  0  0  0  0
  6  7  1  0  0  0  0
  6 10  1  0  0  0  0
  6 13  2  0  0  0  0
  7 14  2  0  0  0  0
  8 10  2  0  0  0  0
  8 12  1  0  0  0  0
  9 11  1  0  0  0  0
  9 19  1  0  0  0  0
  9 20  1  0  0  0  0
 10 21  1  0  0  0  0
 11 17  2  0  0  0  0
 13 15  1  0  0  0  0
 13 23  1  0  0  0  0
 14 16  1  0  0  0  0
 14 24  1  0  0  0  0
 15 16  2  0  0  0  0
 15 25  1  0  0  0  0
 16 27  1  0  0  0  0
 17 18  1  0  0  0  0
 17 26  1  0  0  0  0
 18 29  1  0  0  0  0
M  END
> <PUBCHEM_COMPOUND_CID>
47205106

> <PUBCHEM_CONFORMER_RMSD>
0.6

> <PUBCHEM_CONFORMER_DIVERSEORDER>
1
57
68
17
61
71
10
60
69
38
4
43
65
13
73
54
64
42
62
27
59
67
55
28
2
9
72
22
30
29
63
70
20
45
52
48
23
56
34
41
66
50
49
26
25
32
18
3
36
46
15
44
24
31
37
33
53
21
40
47
58
51
8
7
35
39
19
5
14
12
6
16
11

> <PUBCHEM_MMFF94_PARTIAL_CHARGES>
26
1 -0.08
10 -0.15
11 -0.33
12 0.71
13 -0.15
14 -0.15
15 -0.15
16 -0.15
17 -0.15
18 0.14
2 -0.57
21 0.15
22 0.37
23 0.15
24 0.15
25 0.15
26 0.15
27 0.15
28 0.27
29 0.15
3 -0.73
4 0.3
5 -0.71
7 0.04
8 -0.05
9 0.48

> <PUBCHEM_EFFECTIVE_ROTOR_COUNT>
4

> <PUBCHEM_PHARMACOPHORE_FEATURES>
7
1 2 acceptor
1 3 donor
1 4 donor
1 5 acceptor
5 1 6 7 8 10 rings
5 4 5 11 17 18 rings
6 6 7 13 14 15 16 rings

> <PUBCHEM_HEAVY_ATOM_COUNT>
18

> <PUBCHEM_ATOM_DEF_STEREO_COUNT>
0

> <PUBCHEM_ATOM_UDEF_STEREO_COUNT>
0

> <PUBCHEM_BOND_DEF_STEREO_COUNT>
0

> <PUBCHEM_BOND_UDEF_STEREO_COUNT>
0

> <PUBCHEM_ISOTOPIC_ATOM_COUNT>
0

> <PUBCHEM_COMPONENT_COUNT>
1

> <PUBCHEM_CACTVS_TAUTO_COUNT>
4

> <PUBCHEM_CONFORMER_ID>
02D04AF200000001

> <PUBCHEM_MMFF94_ENERGY>
26.883

> <PUBCHEM_FEATURE_SELFOVERLAP>
35.58

> <PUBCHEM_SHAPE_FINGERPRINT>
10014705 185 18341047415562745138
10498660 4 18200882867550492949
11089746 13 18342463629852821568
11128504 68 16443066071276714432
11370993 144 11239736192123387499
11471102 20 18260259751293647762
11796584 16 5761662438274187621
12236239 1 16588020225753646260
12403259 415 18409727327160235009
12555020 224 18040708191001104142
12596602 18 13542457674762075965
12633257 1 15123505900368961807
12670546 177 17894914031362566847
12730499 353 18411975875562753835
12969540 114 18271820020352591367
13103583 49 11527657640057460405
13583140 156 17917706860040625163
13740256 8 7709452840229666193
14123255 352 18131915948789065213
14251757 5 17024323928730929727
14251764 75 17622451962552581517
14252887 29 11743847962749070240
14455015 7 8790892882333867504
14528608 73 18334017180969213644
14573314 32 18343016705307183814
14576447 43 16660647362177072606
14790565 3 9508025148232912278
15003188 100 18339648841178295645
15188451 53 9655276143887559301
15209294 21 15554732157300851875
15238133 3 16056878048359625444
15375358 24 18272366464625296610
15475509 84 14117259272983121558
1601671 61 16989123158509110726
17349148 13 16443056205947935786
17834072 33 17531247240529244908
1813 80 6122500224470626283
193927 3 5689590628247710205
19489759 90 17418374662667070643
200 152 16950278511868683243
20645477 56 18131908265704470195
20645477 70 17967802865134975662
21033648 29 18342178834471259329
21054139 6 16732988626231288382
21503847 285 16845285000287814188
21709351 56 18337951195240444022
221357 26 18114187445163172641
22289505 5 18409730681878118868
22950370 63 8646768919281175299
231179 274 18272086093655699586
23402539 116 16732974349385267921
23402655 69 18186519933923358129
23557571 272 17845638301368025307
23559900 14 18187357719551709210
23590187 135 6122500194268509669
2838139 119 18272658956114409525
29717793 49 16805596001831763012
341906 21 17346882247391080413
351380 3 15140683570735389197
4028521 119 18410573985378311137
4072396 5 18337682992303723138
542803 24 15339116827708924840
5924683 9 12319156401329357273
633830 44 17824240778425587051
7495541 125 6411291330489104018
90127 26 17917138412755852856

> <PUBCHEM_SHAPE_MULTIPOLES>
353.47
12.98
1.65
1.12
4.18
0.11
0.02
-4.69
-4.62
-0.45
-0.1
1.02
-0.02
0.87

> <PUBCHEM_SHAPE_SELFOVERLAP>
760.649

> <PUBCHEM_SHAPE_VOLUME>
195.9

> <PUBCHEM_COORDINATE_TYPE>
2
5
10

$$$$

