243051
  -OEChem-07051213062D

 55 58  0     1  0  0  0  0  0999 V2000
   10.4020    2.5426    0.0000 O   0  0  0  0  0  0  0  0  0  0  0  0
    4.1166   -2.1324    0.0000 O   0  0  0  0  0  0  0  0  0  0  0  0
    7.4131    0.2874    0.0000 C   0  0  1  0  0  0  0  0  0  0  0  0
    8.2791   -0.2126    0.0000 C   0  0  2  0  0  0  0  0  0  0  0  0
    9.1451    0.2874    0.0000 C   0  0  1  0  0  0  0  0  0  0  0  0
    6.5031   -0.2195    0.0000 C   0  0  2  0  0  0  0  0  0  0  0  0
    9.1451    1.2874    0.0000 C   0  0  2  0  0  0  0  0  0  0  0  0
    6.4950   -1.2610    0.0000 C   0  0  1  0  0  0  0  0  0  0  0  0
    7.4131    1.2874    0.0000 C   0  0  0  0  0  0  0  0  0  0  0  0
    8.2791    1.7874    0.0000 C   0  0  0  0  0  0  0  0  0  0  0  0
    8.2952   -1.2541    0.0000 C   0  0  0  0  0  0  0  0  0  0  0  0
   10.0913   -0.0173    0.0000 C   0  0  0  0  0  0  0  0  0  0  0  0
    7.3971   -1.7819    0.0000 C   0  0  0  0  0  0  0  0  0  0  0  0
   10.0913    1.5921    0.0000 C   0  0  2  0  0  0  0  0  0  0  0  0
    5.5762    0.3446    0.0000 C   0  0  0  0  0  0  0  0  0  0  0  0
   10.6749    0.7874    0.0000 C   0  0  0  0  0  0  0  0  0  0  0  0
    5.5596   -1.8108    0.0000 C   0  0  0  0  0  0  0  0  0  0  0  0
    6.5108    0.7805    0.0000 C   0  0  0  0  0  0  0  0  0  0  0  0
    9.1451    2.2874    0.0000 C   0  0  0  0  0  0  0  0  0  0  0  0
    4.6283   -0.1833    0.0000 C   0  0  0  0  0  0  0  0  0  0  0  0
    4.6200   -1.2683    0.0000 C   0  0  2  0  0  0  0  0  0  0  0  0
    3.6200   -1.2644    0.0000 C   0  0  0  0  0  0  0  0  0  0  0  0
    2.6200   -1.2606    0.0000 C   0  0  0  0  0  0  0  0  0  0  0  0
    8.1492    0.7124    0.0000 H   0  0  0  0  0  0  0  0  0  0  0  0
    9.0185   -0.6319    0.0000 H   0  0  0  0  0  0  0  0  0  0  0  0
    9.2351   -0.5578    0.0000 H   0  0  0  0  0  0  0  0  0  0  0  0
    6.4983   -2.1110    0.0000 H   0  0  0  0  0  0  0  0  0  0  0  0
    7.2010    1.8700    0.0000 H   0  0  0  0  0  0  0  0  0  0  0  0
    6.8025    1.1797    0.0000 H   0  0  0  0  0  0  0  0  0  0  0  0
    8.6776    2.2623    0.0000 H   0  0  0  0  0  0  0  0  0  0  0  0
    7.8806    2.2623    0.0000 H   0  0  0  0  0  0  0  0  0  0  0  0
    8.5132   -1.8345    0.0000 H   0  0  0  0  0  0  0  0  0  0  0  0
    8.9043   -1.1386    0.0000 H   0  0  0  0  0  0  0  0  0  0  0  0
    9.8403   -0.5842    0.0000 H   0  0  0  0  0  0  0  0  0  0  0  0
   10.6287   -0.3266    0.0000 H   0  0  0  0  0  0  0  0  0  0  0  0
    6.9998   -2.2578    0.0000 H   0  0  0  0  0  0  0  0  0  0  0  0
    7.7981   -2.2548    0.0000 H   0  0  0  0  0  0  0  0  0  0  0  0
    9.6539    2.0315    0.0000 H   0  0  0  0  0  0  0  0  0  0  0  0
    5.9844    0.8113    0.0000 H   0  0  0  0  0  0  0  0  0  0  0  0
    5.1863    0.8267    0.0000 H   0  0  0  0  0  0  0  0  0  0  0  0
   11.1358    0.3727    0.0000 H   0  0  0  0  0  0  0  0  0  0  0  0
   11.1358    1.2021    0.0000 H   0  0  0  0  0  0  0  0  0  0  0  0
    5.1623   -2.2868    0.0000 H   0  0  0  0  0  0  0  0  0  0  0  0
    5.9606   -2.2837    0.0000 H   0  0  0  0  0  0  0  0  0  0  0  0
    7.1308    0.7757    0.0000 H   0  0  0  0  0  0  0  0  0  0  0  0
    6.5156    1.4005    0.0000 H   0  0  0  0  0  0  0  0  0  0  0  0
    5.8908    0.7853    0.0000 H   0  0  0  0  0  0  0  0  0  0  0  0
    9.7651    2.2874    0.0000 H   0  0  0  0  0  0  0  0  0  0  0  0
    9.1451    2.9074    0.0000 H   0  0  0  0  0  0  0  0  0  0  0  0
    8.5251    2.2874    0.0000 H   0  0  0  0  0  0  0  0  0  0  0  0
    4.4238    0.4020    0.0000 H   0  0  0  0  0  0  0  0  0  0  0  0
    4.0167   -0.2847    0.0000 H   0  0  0  0  0  0  0  0  0  0  0  0
   11.0087    2.6705    0.0000 H   0  0  0  0  0  0  0  0  0  0  0  0
    4.4246   -2.6705    0.0000 H   0  0  0  0  0  0  0  0  0  0  0  0
    2.0000   -1.2582    0.0000 H   0  0  0  0  0  0  0  0  0  0  0  0
 14  1  1  1  0  0  0
  1 53  1  0  0  0  0
 21  2  1  1  0  0  0
  2 54  1  0  0  0  0
  3  4  1  0  0  0  0
  3  6  1  0  0  0  0
  3  9  1  0  0  0  0
  3 24  1  6  0  0  0
  4  5  1  0  0  0  0
  4 11  1  0  0  0  0
  4 25  1  1  0  0  0
  5  7  1  0  0  0  0
  5 12  1  0  0  0  0
  5 26  1  6  0  0  0
  6  8  1  0  0  0  0
  6 15  1  0  0  0  0
  6 18  1  1  0  0  0
  7 10  1  0  0  0  0
  7 14  1  0  0  0  0
  7 19  1  1  0  0  0
  8 13  1  0  0  0  0
  8 17  1  0  0  0  0
  8 27  1  6  0  0  0
  9 10  1  0  0  0  0
  9 28  1  0  0  0  0
  9 29  1  0  0  0  0
 10 30  1  0  0  0  0
 10 31  1  0  0  0  0
 11 13  1  0  0  0  0
 11 32  1  0  0  0  0
 11 33  1  0  0  0  0
 12 16  1  0  0  0  0
 12 34  1  0  0  0  0
 12 35  1  0  0  0  0
 13 36  1  0  0  0  0
 13 37  1  0  0  0  0
 14 16  1  0  0  0  0
 14 38  1  0  0  0  0
 15 20  1  0  0  0  0
 15 39  1  0  0  0  0
 15 40  1  0  0  0  0
 16 41  1  0  0  0  0
 16 42  1  0  0  0  0
 17 21  1  0  0  0  0
 17 43  1  0  0  0  0
 17 44  1  0  0  0  0
 18 45  1  0  0  0  0
 18 46  1  0  0  0  0
 18 47  1  0  0  0  0
 19 48  1  0  0  0  0
 19 49  1  0  0  0  0
 19 50  1  0  0  0  0
 20 21  1  0  0  0  0
 20 51  1  0  0  0  0
 20 52  1  0  0  0  0
 21 22  1  0  0  0  0
 22 23  3  0  0  0  0
 23 55  1  0  0  0  0
M  END
> <PUBCHEM_COMPOUND_CID>
243051

> <PUBCHEM_COMPOUND_CANONICALIZED>
1

> <PUBCHEM_CACTVS_COMPLEXITY>
547

> <PUBCHEM_CACTVS_HBOND_ACCEPTOR>
2

> <PUBCHEM_CACTVS_HBOND_DONOR>
2

> <PUBCHEM_CACTVS_ROTATABLE_BOND>
1

> <PUBCHEM_CACTVS_SUBSKEYS>
AAADcfB4MAAAAAAAAAAAAAAAAAAAAYAAAAAwYMAAAAAAAGDAAAAAGgAACAAAD1SggAICAAAAAgBAGAAAAAgAAAAAAAAAAAAAAAAAEAIAAAAAQAAEAAAAAAGAwPAPgAAAAAAAAADAAAYAACAAAIAADAAAAA==

> <PUBCHEM_IUPAC_OPENEYE_NAME>
(3S,5S,8R,9S,10S,13S,14S,17S)-3-ethynyl-10,13-dimethyl-1,2,4,5,6,7,8,9,11,12,14,15,16,17-tetradecahydrocyclopenta[a]phenanthrene-3,17-diol

> <PUBCHEM_IUPAC_CAS_NAME>
(3S,5S,8R,9S,10S,13S,14S,17S)-3-ethynyl-10,13-dimethyl-1,2,4,5,6,7,8,9,11,12,14,15,16,17-tetradecahydrocyclopenta[a]phenanthrene-3,17-diol

> <PUBCHEM_IUPAC_NAME>
(3S,5S,8R,9S,10S,13S,14S,17S)-3-ethynyl-10,13-dimethyl-1,2,4,5,6,7,8,9,11,12,14,15,16,17-tetradecahydrocyclopenta[a]phenanthrene-3,17-diol

> <PUBCHEM_IUPAC_SYSTEMATIC_NAME>
(3S,5S,8R,9S,10S,13S,14S,17S)-3-ethynyl-10,13-dimethyl-1,2,4,5,6,7,8,9,11,12,14,15,16,17-tetradecahydrocyclopenta[a]phenanthrene-3,17-diol

> <PUBCHEM_IUPAC_TRADITIONAL_NAME>
(3S,5S,8R,9S,10S,13S,14S,17S)-3-ethynyl-10,13-dimethyl-1,2,4,5,6,7,8,9,11,12,14,15,16,17-tetradecahydrocyclopenta[a]phenanthrene-3,17-diol

> <PUBCHEM_IUPAC_INCHI>
InChI=1S/C21H32O2/c1-4-21(23)12-11-19(2)14(13-21)5-6-15-16-7-8-18(22)20(16,3)10-9-17(15)19/h1,14-18,22-23H,5-13H2,2-3H3/t14-,15-,16-,17-,18-,19-,20-,21-/m0/s1

> <PUBCHEM_IUPAC_INCHIKEY>
FOCZFVYLRBKYGM-QKSWPAOXSA-N

> <PUBCHEM_XLOGP3>
4.1

> <PUBCHEM_EXACT_MASS>
316.24023

> <PUBCHEM_MOLECULAR_FORMULA>
C21H32O2

> <PUBCHEM_MOLECULAR_WEIGHT>
316.47758

> <PUBCHEM_OPENEYE_CAN_SMILES>
CC12CCC(CC1CCC3C2CCC4(C3CCC4O)C)(C#C)O

> <PUBCHEM_OPENEYE_ISO_SMILES>
C[C@]12CC[C@](C[C@@H]1CC[C@@H]3[C@@H]2CC[C@]4([C@H]3CC[C@@H]4O)C)(C#C)O

> <PUBCHEM_CACTVS_TPSA>
40.5

> <PUBCHEM_MONOISOTOPIC_WEIGHT>
316.24023

> <PUBCHEM_TOTAL_CHARGE>
0

> <PUBCHEM_HEAVY_ATOM_COUNT>
23

> <PUBCHEM_ATOM_DEF_STEREO_COUNT>
8

> <PUBCHEM_ATOM_UDEF_STEREO_COUNT>
0

> <PUBCHEM_BOND_DEF_STEREO_COUNT>
0

> <PUBCHEM_BOND_UDEF_STEREO_COUNT>
0

> <PUBCHEM_ISOTOPIC_ATOM_COUNT>
0

> <PUBCHEM_COMPONENT_COUNT>
1

> <PUBCHEM_CACTVS_TAUTO_COUNT>
1

> <PUBCHEM_COORDINATE_TYPE>
1
5
255

> <PUBCHEM_BONDANNOTATIONS>
14  1  5
21  2  5
3  24  6
4  25  5
5  26  6
6  18  5
7  19  5
8  27  6

$$$$

