249266
  -OEChem-07051213053D

 22 23  0     0  0  0  0  0  0999 V2000
    0.7024   -2.5317    0.0013 Cl  0  0  0  0  0  0  0  0  0  0  0  0
    0.6639    0.2051    0.0009 C   0  0  0  0  0  0  0  0  0  0  0  0
   -0.7825    0.1720    0.0007 C   0  0  0  0  0  0  0  0  0  0  0  0
    1.4303   -0.9627    0.0003 C   0  0  0  0  0  0  0  0  0  0  0  0
    1.2982    1.4496    0.0006 C   0  0  0  0  0  0  0  0  0  0  0  0
   -1.4790    0.1556   -1.2078 C   0  0  0  0  0  0  0  0  0  0  0  0
   -1.4805    0.1569    1.2082 C   0  0  0  0  0  0  0  0  0  0  0  0
    2.8230   -0.8865   -0.0006 C   0  0  0  0  0  0  0  0  0  0  0  0
    2.6910    1.5259   -0.0004 C   0  0  0  0  0  0  0  0  0  0  0  0
   -2.8735    0.1240   -1.2087 C   0  0  0  0  0  0  0  0  0  0  0  0
   -2.8751    0.1253    1.2073 C   0  0  0  0  0  0  0  0  0  0  0  0
    3.4534    0.3579   -0.0008 C   0  0  0  0  0  0  0  0  0  0  0  0
   -3.5716    0.1088   -0.0011 C   0  0  0  0  0  0  0  0  0  0  0  0
    0.7219    2.3721    0.0008 H   0  0  0  0  0  0  0  0  0  0  0  0
   -0.9504    0.1667   -2.1581 H   0  0  0  0  0  0  0  0  0  0  0  0
   -0.9532    0.1690    2.1592 H   0  0  0  0  0  0  0  0  0  0  0  0
    3.4324   -1.7866   -0.0009 H   0  0  0  0  0  0  0  0  0  0  0  0
    3.1819    2.4947   -0.0007 H   0  0  0  0  0  0  0  0  0  0  0  0
   -3.4159    0.1109   -2.1495 H   0  0  0  0  0  0  0  0  0  0  0  0
   -3.4187    0.1133    2.1474 H   0  0  0  0  0  0  0  0  0  0  0  0
    4.5378    0.4174   -0.0015 H   0  0  0  0  0  0  0  0  0  0  0  0
   -4.6574    0.0841   -0.0018 H   0  0  0  0  0  0  0  0  0  0  0  0
  1  4  1  0  0  0  0
  2  3  1  0  0  0  0
  2  4  1  0  0  0  0
  2  5  2  0  0  0  0
  3  6  2  0  0  0  0
  3  7  1  0  0  0  0
  4  8  2  0  0  0  0
  5  9  1  0  0  0  0
  5 14  1  0  0  0  0
  6 10  1  0  0  0  0
  6 15  1  0  0  0  0
  7 11  2  0  0  0  0
  7 16  1  0  0  0  0
  8 12  1  0  0  0  0
  8 17  1  0  0  0  0
  9 12  2  0  0  0  0
  9 18  1  0  0  0  0
 10 13  2  0  0  0  0
 10 19  1  0  0  0  0
 11 13  1  0  0  0  0
 11 20  1  0  0  0  0
 12 21  1  0  0  0  0
 13 22  1  0  0  0  0
M  END
> <PUBCHEM_COMPOUND_CID>
249266

> <PUBCHEM_CONFORMER_RMSD>
0.4

> <PUBCHEM_CONFORMER_DIVERSEORDER>
1
2
3

> <PUBCHEM_MMFF94_PARTIAL_CHARGES>
20
1 -0.18
10 -0.15
11 -0.15
12 -0.15
13 -0.15
14 0.15
15 0.15
16 0.15
17 0.15
18 0.15
19 0.15
20 0.15
21 0.15
22 0.15
4 0.18
5 -0.15
6 -0.15
7 -0.15
8 -0.15
9 -0.15

> <PUBCHEM_EFFECTIVE_ROTOR_COUNT>
1

> <PUBCHEM_PHARMACOPHORE_FEATURES>
2
6 2 4 5 8 9 12 rings
6 3 6 7 10 11 13 rings

> <PUBCHEM_HEAVY_ATOM_COUNT>
13

> <PUBCHEM_ATOM_DEF_STEREO_COUNT>
0

> <PUBCHEM_ATOM_UDEF_STEREO_COUNT>
0

> <PUBCHEM_BOND_DEF_STEREO_COUNT>
0

> <PUBCHEM_BOND_UDEF_STEREO_COUNT>
0

> <PUBCHEM_ISOTOPIC_ATOM_COUNT>
0

> <PUBCHEM_COMPONENT_COUNT>
1

> <PUBCHEM_CACTVS_TAUTO_COUNT>
1

> <PUBCHEM_CONFORMER_ID>
0003CDB200000001

> <PUBCHEM_MMFF94_ENERGY>
40.3563

> <PUBCHEM_FEATURE_SELFOVERLAP>
10.149

> <PUBCHEM_SHAPE_FINGERPRINT>
10219947 1 18413107264516486660
10608611 8 17989494025784360917
107287 299 18201711864614887894
11471102 20 18411985783877836124
11578080 2 12677790580690722054
12236239 1 17676206883331036781
12326174 3 18272096053563695706
124424 183 17417542383735633512
12932764 1 17775287157454448979
13538477 17 17458071447566363671
13581323 91 15123510302568028225
14144814 61 17822009813218432689
14251717 144 18409733975453247151
15219456 202 17989208161313773349
15279307 12 17967818249370245951
15309172 13 18412542085279872946
15775835 57 18334013860996462620
16945 1 18410574015469501254
17844478 74 17917706915964941573
18175812 5 17703788098164602519
18186145 218 18334293150051103820
19049666 15 17630051691805447893
19422 9 17676204680086777671
200 152 18333740113140508605
20201158 50 18130787901351108403
20279233 1 17775568636926463475
204376 136 18340207367599939616
20645464 45 17561365084712711513
20645477 70 18339371875927736935
21639500 275 18337118869027729100
21730867 7 18343581845620176798
22802520 49 17843693398078492061
23236772 104 17748827410353572075
23402539 116 16773527594267223471
23557571 272 16988556948585951343
23559900 14 16558475287695922514
23728640 28 15170802917694023971
25 1 18341614844961191332
2748010 2 18267856186582444874
474 4 17679035798349302856
528886 8 18409170991387754064
53748568 43 17894629266493700351
77492 1 17676488354091920897
81228 2 8356890349820280030
8272917 22 18190454047147797199

> <PUBCHEM_SHAPE_MULTIPOLES>
269.4
5.67
1.64
1.07
0.92
0.92
0
-0.96
0
-1.36
0
0.97
-0.06
0

> <PUBCHEM_SHAPE_SELFOVERLAP>
576.589

> <PUBCHEM_SHAPE_VOLUME>
143.5

> <PUBCHEM_COORDINATE_TYPE>
2
5
10

$$$$

