656731
  -OEChem-07051213043D

 42 43  0     1  0  0  0  0  0999 V2000
    1.1370   -2.0910    0.3645 S   0  0  0  0  0  0  0  0  0  0  0  0
    0.1542    2.2661    0.9454 O   0  0  0  0  0  0  0  0  0  0  0  0
    2.8023    1.0109   -1.3077 O   0  0  0  0  0  0  0  0  0  0  0  0
    0.4292   -1.3858    1.4164 O   0  0  0  0  0  0  0  0  0  0  0  0
    0.9290   -3.5137    0.1713 O   0  0  0  0  0  0  0  0  0  0  0  0
    0.9042   -1.2827   -1.1279 N   0  0  1  0  0  0  0  0  0  0  0  0
   -5.1638   -1.5998   -0.5666 N   0  0  0  0  0  0  0  0  0  0  0  0
    0.5479    0.1649   -1.0818 C   0  0  2  0  0  0  0  0  0  0  0  0
    1.7017    0.9169   -0.4060 C   0  0  2  0  0  0  0  0  0  0  0  0
    1.2725    2.3291    0.0417 C   0  0  0  0  0  0  0  0  0  0  0  0
   -0.7530    0.4097   -0.3607 C   0  0  0  0  0  0  0  0  0  0  0  0
   -0.8682    1.4246    0.5970 C   0  0  0  0  0  0  0  0  0  0  0  0
    0.9260    3.2683   -1.1280 C   0  0  0  0  0  0  0  0  0  0  0  0
    2.4124    2.9807    0.8447 C   0  0  0  0  0  0  0  0  0  0  0  0
   -1.8874   -0.3608   -0.6634 C   0  0  0  0  0  0  0  0  0  0  0  0
    1.8258   -1.5869   -2.2456 C   0  0  0  0  0  0  0  0  0  0  0  0
    2.8789   -1.8379    0.6314 C   0  0  0  0  0  0  0  0  0  0  0  0
   -2.0742    1.6251    1.2766 C   0  0  0  0  0  0  0  0  0  0  0  0
   -3.0942   -0.1501    0.0055 C   0  0  0  0  0  0  0  0  0  0  0  0
   -3.1852    0.8383    0.9809 C   0  0  0  0  0  0  0  0  0  0  0  0
    3.3407   -2.4762    1.9222 C   0  0  0  0  0  0  0  0  0  0  0  0
   -4.2357   -0.9497   -0.3100 C   0  0  0  0  0  0  0  0  0  0  0  0
    0.4117    0.5249   -2.1105 H   0  0  0  0  0  0  0  0  0  0  0  0
    1.9980    0.4601    0.5276 H   0  0  0  0  0  0  0  0  0  0  0  0
    0.5755    4.2360   -0.7492 H   0  0  0  0  0  0  0  0  0  0  0  0
    1.7877    3.4520   -1.7773 H   0  0  0  0  0  0  0  0  0  0  0  0
    0.1110    2.8757   -1.7439 H   0  0  0  0  0  0  0  0  0  0  0  0
    2.6638    2.3789    1.7258 H   0  0  0  0  0  0  0  0  0  0  0  0
    3.3180    3.1107    0.2434 H   0  0  0  0  0  0  0  0  0  0  0  0
    2.1081    3.9634    1.2244 H   0  0  0  0  0  0  0  0  0  0  0  0
   -1.8233   -1.1344   -1.4268 H   0  0  0  0  0  0  0  0  0  0  0  0
    2.8442   -1.2396   -2.0717 H   0  0  0  0  0  0  0  0  0  0  0  0
    1.4567   -1.1459   -3.1771 H   0  0  0  0  0  0  0  0  0  0  0  0
    1.8528   -2.6701   -2.4041 H   0  0  0  0  0  0  0  0  0  0  0  0
    2.4788    1.3603   -2.1548 H   0  0  0  0  0  0  0  0  0  0  0  0
    3.3954   -2.3542   -0.1848 H   0  0  0  0  0  0  0  0  0  0  0  0
    3.2234   -0.8158    0.6314 H   0  0  0  0  0  0  0  0  0  0  0  0
   -2.1566    2.4033    2.0310 H   0  0  0  0  0  0  0  0  0  0  0  0
   -4.1163    1.0135    1.5144 H   0  0  0  0  0  0  0  0  0  0  0  0
    4.4241   -2.3688    2.0364 H   0  0  0  0  0  0  0  0  0  0  0  0
    2.8597   -2.0064    2.7863 H   0  0  0  0  0  0  0  0  0  0  0  0
    3.1037   -3.5447    1.9476 H   0  0  0  0  0  0  0  0  0  0  0  0
  1  4  2  0  0  0  0
  1  5  2  0  0  0  0
  1  6  1  0  0  0  0
  1 17  1  0  0  0  0
  2 10  1  0  0  0  0
  2 12  1  0  0  0  0
  3  9  1  0  0  0  0
  3 35  1  0  0  0  0
  6  8  1  0  0  0  0
  6 16  1  0  0  0  0
  7 22  3  0  0  0  0
  8  9  1  0  0  0  0
  8 11  1  0  0  0  0
  8 23  1  0  0  0  0
  9 10  1  0  0  0  0
  9 24  1  0  0  0  0
 10 13  1  0  0  0  0
 10 14  1  0  0  0  0
 11 12  2  0  0  0  0
 11 15  1  0  0  0  0
 12 18  1  0  0  0  0
 13 25  1  0  0  0  0
 13 26  1  0  0  0  0
 13 27  1  0  0  0  0
 14 28  1  0  0  0  0
 14 29  1  0  0  0  0
 14 30  1  0  0  0  0
 15 19  2  0  0  0  0
 15 31  1  0  0  0  0
 16 32  1  0  0  0  0
 16 33  1  0  0  0  0
 16 34  1  0  0  0  0
 17 21  1  0  0  0  0
 17 36  1  0  0  0  0
 17 37  1  0  0  0  0
 18 20  2  0  0  0  0
 18 38  1  0  0  0  0
 19 20  1  0  0  0  0
 19 22  1  0  0  0  0
 20 39  1  0  0  0  0
 21 40  1  0  0  0  0
 21 41  1  0  0  0  0
 21 42  1  0  0  0  0
M  END
> <PUBCHEM_COMPOUND_CID>
656731

> <PUBCHEM_CONFORMER_RMSD>
0.6

> <PUBCHEM_CONFORMER_DIVERSEORDER>
6
20
8
18
13
21
25
27
1
22
23
26
15
16
5
3
12
9
10
7
11
19
24
2
14
17
4

> <PUBCHEM_MMFF94_PARTIAL_CHARGES>
23
1 1.33
10 0.28
11 -0.14
12 0.08
15 -0.15
16 0.36
17 0.11
18 -0.15
19 0.07
2 -0.36
20 -0.15
22 0.48
3 -0.68
31 0.15
35 0.4
38 0.15
39 0.15
4 -0.65
5 -0.65
6 -0.85
7 -0.56
8 0.5
9 0.28

> <PUBCHEM_EFFECTIVE_ROTOR_COUNT>
3.8

> <PUBCHEM_PHARMACOPHORE_FEATURES>
9
1 2 acceptor
1 3 acceptor
1 3 donor
1 4 acceptor
1 5 acceptor
1 7 acceptor
3 10 13 14 hydrophobe
6 11 12 15 18 19 20 rings
6 2 8 9 10 11 12 rings

> <PUBCHEM_HEAVY_ATOM_COUNT>
22

> <PUBCHEM_ATOM_DEF_STEREO_COUNT>
0

> <PUBCHEM_ATOM_UDEF_STEREO_COUNT>
2

> <PUBCHEM_BOND_DEF_STEREO_COUNT>
0

> <PUBCHEM_BOND_UDEF_STEREO_COUNT>
0

> <PUBCHEM_ISOTOPIC_ATOM_COUNT>
0

> <PUBCHEM_COMPONENT_COUNT>
1

> <PUBCHEM_CACTVS_TAUTO_COUNT>
1

> <PUBCHEM_CONFORMER_ID>
000A055B00000006

> <PUBCHEM_MMFF94_ENERGY>
68.4412

> <PUBCHEM_FEATURE_SELFOVERLAP>
45.715

> <PUBCHEM_SHAPE_FINGERPRINT>
1100329 8 18267032656747628250
11578080 2 17845384403959812396
12202030 40 16915628507005505961
12553582 1 18123455335926358131
12592029 89 18198069083734173321
12716301 132 17255692888899753937
13004483 165 17336761470538109835
13083527 12 18337126617232795881
13140716 1 17974571290694452953
133893 2 18342165657532661361
14081887 123 17689446296521090602
14178342 30 17972317580037429259
14787075 74 18130222757239481402
15183329 4 17458635463853369047
16945 1 17968079932926640245
20567600 347 18121221978664980963
20600515 1 17827363485848048225
20645476 183 17547849655540000333
20645477 70 18260829246903991575
20905425 154 18335133232621918388
21421861 104 18335690651253048459
21452121 71 18272369831748073834
21524375 3 18046624503813472300
22112679 90 18122610923495668449
2255824 54 18341038632359997141
23419403 2 17414193292792303302
23557571 272 17680715027102456314
238 59 18197202673056012619
257057 1 18196095675052352257
2748010 2 17323209547365452404
2871803 45 18189330178792277157
34934 24 18048861181063022109
394222 165 18191588545051737041
4340502 62 18126005967159651599
7364860 26 18041268911655203317
81228 2 17401478746186568224
90316 7 17905890636173278976
9981440 41 16814336840285039136

> <PUBCHEM_SHAPE_MULTIPOLES>
423.16
5.94
3.87
1.61
6.88
0.92
0.2
-3.63
-0.65
-3.05
-0.53
-1.09
-0.39
-1.29

> <PUBCHEM_SHAPE_SELFOVERLAP>
875.665

> <PUBCHEM_SHAPE_VOLUME>
243.9

> <PUBCHEM_COORDINATE_TYPE>
2
5
10

$$$$

