46173917
  -OEChem-07051213102D

 73 76  0     1  0  0  0  0  0999 V2000
    6.0010   -0.9050    0.0000 O   0  0  0  0  0  0  0  0  0  0  0  0
    5.1350    2.5950    0.0000 O   0  0  0  0  0  0  0  0  0  0  0  0
    4.2690    1.0950    0.0000 O   0  0  0  0  0  0  0  0  0  0  0  0
    3.4030   -0.4050    0.0000 O   0  0  0  0  0  0  0  0  0  0  0  0
    6.8671   -2.4050    0.0000 O   0  0  0  0  0  0  0  0  0  0  0  0
    3.4030   -2.4050    0.0000 O   0  0  0  0  0  0  0  0  0  0  0  0
    5.1350   -3.4050    0.0000 O   0  0  0  0  0  0  0  0  0  0  0  0
    2.5369    2.0950    0.0000 O   0  0  0  0  0  0  0  0  0  0  0  0
    2.5369    4.0950    0.0000 O   0  0  0  0  0  0  0  0  0  0  0  0
    4.2690    5.0950    0.0000 O   0  0  0  0  0  0  0  0  0  0  0  0
    6.0010    5.0950    0.0000 O   0  0  0  0  0  0  0  0  0  0  0  0
   10.3591   -2.4397    0.0000 O   0  0  0  0  0  0  0  0  0  0  0  0
   12.1292   -2.4292    0.0000 O   0  0  0  0  0  0  0  0  0  0  0  0
    5.1350   -0.4050    0.0000 C   0  0  1  0  0  0  0  0  0  0  0  0
    4.2690   -0.9050    0.0000 C   0  0  2  0  0  0  0  0  0  0  0  0
    4.2690   -1.9050    0.0000 C   0  0  1  0  0  0  0  0  0  0  0  0
    5.1350   -2.4050    0.0000 C   0  0  2  0  0  0  0  0  0  0  0  0
    3.4030    2.5950    0.0000 C   0  0  2  0  0  0  0  0  0  0  0  0
    3.4030    3.5950    0.0000 C   0  0  2  0  0  0  0  0  0  0  0  0
    4.2690    2.0950    0.0000 C   0  0  1  0  0  0  0  0  0  0  0  0
    4.2690    4.0950    0.0000 C   0  0  1  0  0  0  0  0  0  0  0  0
    5.1350    3.5950    0.0000 C   0  0  1  0  0  0  0  0  0  0  0  0
    6.0010   -1.9050    0.0000 C   0  0  1  0  0  0  0  0  0  0  0  0
    5.1350    0.5950    0.0000 C   0  0  0  0  0  0  0  0  0  0  0  0
    6.0010    4.0950    0.0000 C   0  0  0  0  0  0  0  0  0  0  0  0
    7.7331   -1.9050    0.0000 C   0  0  0  0  0  0  0  0  0  0  0  0
    8.5991   -2.4050    0.0000 C   0  0  0  0  0  0  0  0  0  0  0  0
    7.7331   -0.9050    0.0000 C   0  0  0  0  0  0  0  0  0  0  0  0
    9.4651   -1.9050    0.0000 C   0  0  0  0  0  0  0  0  0  0  0  0
    8.5991   -3.4050    0.0000 C   0  0  0  0  0  0  0  0  0  0  0  0
    9.4651   -0.9050    0.0000 C   0  0  0  0  0  0  0  0  0  0  0  0
    8.5991   -0.4050    0.0000 C   0  0  0  0  0  0  0  0  0  0  0  0
    7.7331   -3.9050    0.0000 C   0  0  0  0  0  0  0  0  0  0  0  0
   10.3591   -0.3703    0.0000 C   0  0  0  0  0  0  0  0  0  0  0  0
    7.7331   -4.9050    0.0000 C   0  0  0  0  0  0  0  0  0  0  0  0
   11.2651   -0.8842    0.0000 C   0  0  0  0  0  0  0  0  0  0  0  0
   11.2651   -1.9258    0.0000 C   0  0  0  0  0  0  0  0  0  0  0  0
    8.5991   -5.4050    0.0000 C   0  0  0  0  0  0  0  0  0  0  0  0
    6.8671   -5.4050    0.0000 C   0  0  0  0  0  0  0  0  0  0  0  0
    5.6720   -0.0950    0.0000 H   0  0  0  0  0  0  0  0  0  0  0  0
    4.2690   -0.2850    0.0000 H   0  0  0  0  0  0  0  0  0  0  0  0
    4.2690   -2.5250    0.0000 H   0  0  0  0  0  0  0  0  0  0  0  0
    5.6720   -2.7150    0.0000 H   0  0  0  0  0  0  0  0  0  0  0  0
    3.4030    1.9750    0.0000 H   0  0  0  0  0  0  0  0  0  0  0  0
    3.4030    4.2150    0.0000 H   0  0  0  0  0  0  0  0  0  0  0  0
    3.7320    1.7850    0.0000 H   0  0  0  0  0  0  0  0  0  0  0  0
    4.8059    4.4050    0.0000 H   0  0  0  0  0  0  0  0  0  0  0  0
    5.6720    3.2850    0.0000 H   0  0  0  0  0  0  0  0  0  0  0  0
    6.0010   -2.5250    0.0000 H   0  0  0  0  0  0  0  0  0  0  0  0
    5.7456    0.4873    0.0000 H   0  0  0  0  0  0  0  0  0  0  0  0
    5.3471    1.1776    0.0000 H   0  0  0  0  0  0  0  0  0  0  0  0
    6.2131    3.5124    0.0000 H   0  0  0  0  0  0  0  0  0  0  0  0
    6.6116    4.2027    0.0000 H   0  0  0  0  0  0  0  0  0  0  0  0
    2.8660   -0.7150    0.0000 H   0  0  0  0  0  0  0  0  0  0  0  0
    2.8660   -2.0950    0.0000 H   0  0  0  0  0  0  0  0  0  0  0  0
    4.5981   -3.7150    0.0000 H   0  0  0  0  0  0  0  0  0  0  0  0
    2.0000    2.4050    0.0000 H   0  0  0  0  0  0  0  0  0  0  0  0
    2.5369    4.7150    0.0000 H   0  0  0  0  0  0  0  0  0  0  0  0
    3.7320    5.4050    0.0000 H   0  0  0  0  0  0  0  0  0  0  0  0
    6.5380    5.4050    0.0000 H   0  0  0  0  0  0  0  0  0  0  0  0
    7.1962   -0.5950    0.0000 H   0  0  0  0  0  0  0  0  0  0  0  0
    8.8112   -3.9876    0.0000 H   0  0  0  0  0  0  0  0  0  0  0  0
    9.2097   -3.2973    0.0000 H   0  0  0  0  0  0  0  0  0  0  0  0
    8.5991    0.2150    0.0000 H   0  0  0  0  0  0  0  0  0  0  0  0
    7.1962   -3.5950    0.0000 H   0  0  0  0  0  0  0  0  0  0  0  0
   10.3519    0.2496    0.0000 H   0  0  0  0  0  0  0  0  0  0  0  0
   11.8009   -0.5721    0.0000 H   0  0  0  0  0  0  0  0  0  0  0  0
    8.2891   -5.9419    0.0000 H   0  0  0  0  0  0  0  0  0  0  0  0
    9.1360   -5.7150    0.0000 H   0  0  0  0  0  0  0  0  0  0  0  0
    8.9091   -4.8681    0.0000 H   0  0  0  0  0  0  0  0  0  0  0  0
    6.5571   -4.8681    0.0000 H   0  0  0  0  0  0  0  0  0  0  0  0
    6.3301   -5.7150    0.0000 H   0  0  0  0  0  0  0  0  0  0  0  0
    7.1771   -5.9419    0.0000 H   0  0  0  0  0  0  0  0  0  0  0  0
  1 14  1  0  0  0  0
  1 23  1  0  0  0  0
  2 20  1  0  0  0  0
  2 22  1  0  0  0  0
 20  3  1  1  0  0  0
  3 24  1  0  0  0  0
 15  4  1  6  0  0  0
  4 54  1  0  0  0  0
 23  5  1  1  0  0  0
  5 26  1  0  0  0  0
 16  6  1  1  0  0  0
  6 55  1  0  0  0  0
 17  7  1  6  0  0  0
  7 56  1  0  0  0  0
 18  8  1  6  0  0  0
  8 57  1  0  0  0  0
 19  9  1  1  0  0  0
  9 58  1  0  0  0  0
 21 10  1  6  0  0  0
 10 59  1  0  0  0  0
 11 25  1  0  0  0  0
 11 60  1  0  0  0  0
 12 29  1  0  0  0  0
 12 37  1  0  0  0  0
 13 37  2  0  0  0  0
 14 15  1  0  0  0  0
 14 24  1  1  0  0  0
 14 40  1  0  0  0  0
 15 16  1  0  0  0  0
 15 41  1  0  0  0  0
 16 17  1  0  0  0  0
 16 42  1  0  0  0  0
 17 23  1  0  0  0  0
 17 43  1  0  0  0  0
 18 19  1  0  0  0  0
 18 20  1  0  0  0  0
 18 44  1  0  0  0  0
 19 21  1  0  0  0  0
 19 45  1  0  0  0  0
 20 46  1  0  0  0  0
 21 22  1  0  0  0  0
 21 47  1  0  0  0  0
 22 25  1  1  0  0  0
 22 48  1  0  0  0  0
 23 49  1  0  0  0  0
 24 50  1  0  0  0  0
 24 51  1  0  0  0  0
 25 52  1  0  0  0  0
 25 53  1  0  0  0  0
 26 27  2  0  0  0  0
 26 28  1  0  0  0  0
 27 29  1  0  0  0  0
 27 30  1  0  0  0  0
 28 32  2  0  0  0  0
 28 61  1  0  0  0  0
 29 31  2  0  0  0  0
 30 33  1  0  0  0  0
 30 62  1  0  0  0  0
 30 63  1  0  0  0  0
 31 32  1  0  0  0  0
 31 34  1  0  0  0  0
 32 64  1  0  0  0  0
 33 35  2  0  0  0  0
 33 65  1  0  0  0  0
 34 36  2  0  0  0  0
 34 66  1  0  0  0  0
 35 38  1  0  0  0  0
 35 39  1  0  0  0  0
 36 37  1  0  0  0  0
 36 67  1  0  0  0  0
 38 68  1  0  0  0  0
 38 69  1  0  0  0  0
 38 70  1  0  0  0  0
 39 71  1  0  0  0  0
 39 72  1  0  0  0  0
 39 73  1  0  0  0  0
M  END
> <PUBCHEM_COMPOUND_CID>
46173917

> <PUBCHEM_COMPOUND_CANONICALIZED>
1

> <PUBCHEM_CACTVS_COMPLEXITY>
891

> <PUBCHEM_CACTVS_HBOND_ACCEPTOR>
13

> <PUBCHEM_CACTVS_HBOND_DONOR>
7

> <PUBCHEM_CACTVS_ROTATABLE_BOND>
8

> <PUBCHEM_CACTVS_SUBSKEYS>
AAADcfB4PAAAAAAAAAAAAAAAAAAAAAAAAAA0SIEAAAAAAACBAAAAGgAACAAADBSwmAMyDoAABgCIAiDSCAACCAAgIAAIiAAGCMgdNyKEMRqieiClwBUPqYfA4OwOIAACCAAIAABAAAQQABAAAAAAAAAAAA==

> <PUBCHEM_IUPAC_OPENEYE_NAME>
8-(3-methylbut-2-enyl)-7-[(2S,3R,4S,5S,6R)-3,4,5-trihydroxy-6-[[(2R,3R,4S,5S,6R)-3,4,5-trihydroxy-6-(hydroxymethyl)tetrahydropyran-2-yl]oxymethyl]tetrahydropyran-2-yl]oxy-chromen-2-one

> <PUBCHEM_IUPAC_CAS_NAME>
8-(3-methylbut-2-enyl)-7-[[(2S,3R,4S,5S,6R)-3,4,5-trihydroxy-6-[[(2R,3R,4S,5S,6R)-3,4,5-trihydroxy-6-(hydroxymethyl)-2-oxanyl]oxymethyl]-2-oxanyl]oxy]-1-benzopyran-2-one

> <PUBCHEM_IUPAC_NAME>
8-(3-methylbut-2-enyl)-7-[(2S,3R,4S,5S,6R)-3,4,5-trihydroxy-6-[[(2R,3R,4S,5S,6R)-3,4,5-trihydroxy-6-(hydroxymethyl)oxan-2-yl]oxymethyl]oxan-2-yl]oxychromen-2-one

> <PUBCHEM_IUPAC_SYSTEMATIC_NAME>
7-[(2S,3R,4S,5S,6R)-6-[[(2R,3R,4S,5S,6R)-6-(hydroxymethyl)-3,4,5-tris(oxidanyl)oxan-2-yl]oxymethyl]-3,4,5-tris(oxidanyl)oxan-2-yl]oxy-8-(3-methylbut-2-enyl)chromen-2-one

> <PUBCHEM_IUPAC_TRADITIONAL_NAME>
8-(3-methylbut-2-enyl)-7-[(2S,3R,4S,5S,6R)-3,4,5-trihydroxy-6-[[(2R,3R,4S,5S,6R)-3,4,5-trihydroxy-6-methylol-tetrahydropyran-2-yl]oxymethyl]tetrahydropyran-2-yl]oxy-coumarin

> <PUBCHEM_IUPAC_INCHI>
InChI=1S/C26H34O13/c1-11(2)3-6-13-14(7-4-12-5-8-17(28)39-24(12)13)36-26-23(34)21(32)19(30)16(38-26)10-35-25-22(33)20(31)18(29)15(9-27)37-25/h3-5,7-8,15-16,18-23,25-27,29-34H,6,9-10H2,1-2H3/t15-,16-,18-,19-,20+,21+,22-,23-,25-,26-/m1/s1

> <PUBCHEM_IUPAC_INCHIKEY>
LCNBLLDTRINYAW-NXEOTYAVSA-N

> <PUBCHEM_XLOGP3_AA>
-0.5

> <PUBCHEM_EXACT_MASS>
554.199941

> <PUBCHEM_MOLECULAR_FORMULA>
C26H34O13

> <PUBCHEM_MOLECULAR_WEIGHT>
554.54036

> <PUBCHEM_OPENEYE_CAN_SMILES>
CC(=CCC1=C(C=CC2=C1OC(=O)C=C2)OC3C(C(C(C(O3)COC4C(C(C(C(O4)CO)O)O)O)O)O)O)C

> <PUBCHEM_OPENEYE_ISO_SMILES>
CC(=CCC1=C(C=CC2=C1OC(=O)C=C2)O[C@H]3[C@@H]([C@H]([C@@H]([C@H](O3)CO[C@H]4[C@@H]([C@H]([C@@H]([C@H](O4)CO)O)O)O)O)O)O)C

> <PUBCHEM_CACTVS_TPSA>
205

> <PUBCHEM_MONOISOTOPIC_WEIGHT>
554.199941

> <PUBCHEM_TOTAL_CHARGE>
0

> <PUBCHEM_HEAVY_ATOM_COUNT>
39

> <PUBCHEM_ATOM_DEF_STEREO_COUNT>
10

> <PUBCHEM_ATOM_UDEF_STEREO_COUNT>
0

> <PUBCHEM_BOND_DEF_STEREO_COUNT>
0

> <PUBCHEM_BOND_UDEF_STEREO_COUNT>
0

> <PUBCHEM_ISOTOPIC_ATOM_COUNT>
0

> <PUBCHEM_COMPONENT_COUNT>
1

> <PUBCHEM_CACTVS_TAUTO_COUNT>
1

> <PUBCHEM_COORDINATE_TYPE>
1
5
255

> <PUBCHEM_BONDANNOTATIONS>
21  10  6
12  29  8
12  37  8
14  24  5
22  25  5
26  27  8
26  28  8
27  29  8
28  32  8
29  31  8
20  3  5
31  32  8
31  34  8
34  36  8
36  37  8
15  4  6
23  5  5
16  6  5
17  7  6
18  8  6
19  9  5

$$$$

