14076601
  -OEChem-07051213093D

 40 41  0     1  0  0  0  0  0999 V2000
   -3.4230   -1.6821   -0.8764 O   0  0  0  0  0  0  0  0  0  0  0  0
   -0.6852    1.3330    0.2195 C   0  0  1  0  0  0  0  0  0  0  0  0
   -0.5009   -0.1618    0.5336 C   0  0  0  0  0  0  0  0  0  0  0  0
    0.1993    1.6688   -1.0080 C   0  0  0  0  0  0  0  0  0  0  0  0
   -2.1598    1.7123   -0.0813 C   0  0  0  0  0  0  0  0  0  0  0  0
    1.8245   -0.1996   -0.4176 C   0  0  1  0  0  0  0  0  0  0  0  0
    0.9441   -0.5546    0.7959 C   0  0  0  0  0  0  0  0  0  0  0  0
    1.6691    1.2722   -0.8282 C   0  0  0  0  0  0  0  0  0  0  0  0
   -2.8957    0.6202   -0.8312 C   0  0  0  0  0  0  0  0  0  0  0  0
   -1.5203   -1.0547    0.4911 C   0  0  0  0  0  0  0  0  0  0  0  0
   -2.8991   -0.6692   -0.0153 C   0  0  2  0  0  0  0  0  0  0  0  0
   -0.2640    2.2055    1.4281 C   0  0  0  0  0  0  0  0  0  0  0  0
    3.2643   -0.5221   -0.1449 C   0  0  0  0  0  0  0  0  0  0  0  0
   -1.3961   -2.4926    0.9319 C   0  0  0  0  0  0  0  0  0  0  0  0
    3.8916   -1.5525   -1.0362 C   0  0  0  0  0  0  0  0  0  0  0  0
    3.9511    0.0771    0.8390 C   0  0  0  0  0  0  0  0  0  0  0  0
    0.1494    2.7429   -1.2282 H   0  0  0  0  0  0  0  0  0  0  0  0
   -0.1869    1.1552   -1.8983 H   0  0  0  0  0  0  0  0  0  0  0  0
   -2.2064    2.6484   -0.6516 H   0  0  0  0  0  0  0  0  0  0  0  0
   -2.7020    1.9016    0.8557 H   0  0  0  0  0  0  0  0  0  0  0  0
    1.4777   -0.8103   -1.2642 H   0  0  0  0  0  0  0  0  0  0  0  0
    1.2862   -0.0637    1.7139 H   0  0  0  0  0  0  0  0  0  0  0  0
    1.0532   -1.6276    0.9821 H   0  0  0  0  0  0  0  0  0  0  0  0
    2.1989    1.4483   -1.7737 H   0  0  0  0  0  0  0  0  0  0  0  0
    2.1310    1.9456   -0.0971 H   0  0  0  0  0  0  0  0  0  0  0  0
   -3.9287    0.9319   -1.0299 H   0  0  0  0  0  0  0  0  0  0  0  0
   -2.4453    0.4529   -1.8180 H   0  0  0  0  0  0  0  0  0  0  0  0
   -3.5744   -0.5786    0.8442 H   0  0  0  0  0  0  0  0  0  0  0  0
    0.7915    2.0986    1.6932 H   0  0  0  0  0  0  0  0  0  0  0  0
   -0.4333    3.2682    1.2176 H   0  0  0  0  0  0  0  0  0  0  0  0
   -0.8460    1.9466    2.3208 H   0  0  0  0  0  0  0  0  0  0  0  0
   -0.6133   -2.6440    1.6795 H   0  0  0  0  0  0  0  0  0  0  0  0
   -1.1988   -3.1397    0.0718 H   0  0  0  0  0  0  0  0  0  0  0  0
   -2.3262   -2.8249    1.4070 H   0  0  0  0  0  0  0  0  0  0  0  0
   -4.3320   -1.4273   -1.1106 H   0  0  0  0  0  0  0  0  0  0  0  0
    3.3568   -2.5042   -0.9519 H   0  0  0  0  0  0  0  0  0  0  0  0
    3.8574   -1.2238   -2.0801 H   0  0  0  0  0  0  0  0  0  0  0  0
    4.9401   -1.7363   -0.7795 H   0  0  0  0  0  0  0  0  0  0  0  0
    4.9923   -0.1668    1.0236 H   0  0  0  0  0  0  0  0  0  0  0  0
    3.5017    0.8219    1.4866 H   0  0  0  0  0  0  0  0  0  0  0  0
  1 11  1  0  0  0  0
  1 35  1  0  0  0  0
  2  3  1  0  0  0  0
  2  4  1  0  0  0  0
  2  5  1  0  0  0  0
  2 12  1  0  0  0  0
  3  7  1  0  0  0  0
  3 10  2  0  0  0  0
  4  8  1  0  0  0  0
  4 17  1  0  0  0  0
  4 18  1  0  0  0  0
  5  9  1  0  0  0  0
  5 19  1  0  0  0  0
  5 20  1  0  0  0  0
  6  7  1  0  0  0  0
  6  8  1  0  0  0  0
  6 13  1  0  0  0  0
  6 21  1  0  0  0  0
  7 22  1  0  0  0  0
  7 23  1  0  0  0  0
  8 24  1  0  0  0  0
  8 25  1  0  0  0  0
  9 11  1  0  0  0  0
  9 26  1  0  0  0  0
  9 27  1  0  0  0  0
 10 11  1  0  0  0  0
 10 14  1  0  0  0  0
 11 28  1  0  0  0  0
 12 29  1  0  0  0  0
 12 30  1  0  0  0  0
 12 31  1  0  0  0  0
 13 15  1  0  0  0  0
 13 16  2  0  0  0  0
 14 32  1  0  0  0  0
 14 33  1  0  0  0  0
 14 34  1  0  0  0  0
 15 36  1  0  0  0  0
 15 37  1  0  0  0  0
 15 38  1  0  0  0  0
 16 39  1  0  0  0  0
 16 40  1  0  0  0  0
M  END
> <PUBCHEM_COMPOUND_CID>
14076601

> <PUBCHEM_CONFORMER_RMSD>
0.6

> <PUBCHEM_CONFORMER_DIVERSEORDER>
1
2

> <PUBCHEM_MMFF94_PARTIAL_CHARGES>
14
1 -0.68
10 -0.28
11 0.42
13 -0.28
14 0.14
15 0.14
16 -0.3
2 0.14
3 -0.28
35 0.4
39 0.15
40 0.15
6 0.14
7 0.14

> <PUBCHEM_EFFECTIVE_ROTOR_COUNT>
2.4

> <PUBCHEM_PHARMACOPHORE_FEATURES>
4
1 1 acceptor
1 1 donor
6 2 3 4 6 7 8 rings
6 2 3 5 9 10 11 rings

> <PUBCHEM_HEAVY_ATOM_COUNT>
16

> <PUBCHEM_ATOM_DEF_STEREO_COUNT>
3

> <PUBCHEM_ATOM_UDEF_STEREO_COUNT>
0

> <PUBCHEM_BOND_DEF_STEREO_COUNT>
0

> <PUBCHEM_BOND_UDEF_STEREO_COUNT>
0

> <PUBCHEM_ISOTOPIC_ATOM_COUNT>
0

> <PUBCHEM_COMPONENT_COUNT>
1

> <PUBCHEM_CACTVS_TAUTO_COUNT>
1

> <PUBCHEM_CONFORMER_ID>
00D6CAB900000001

> <PUBCHEM_MMFF94_ENERGY>
33.8102

> <PUBCHEM_FEATURE_SELFOVERLAP>
20.333

> <PUBCHEM_SHAPE_FINGERPRINT>
10465860 71 18272925029612346094
10756046 5 18201147763615675412
11132069 177 18340210790356604044
11769659 78 18409169917635354510
12592029 89 17559670827383166273
13024252 1 14189275089373312073
13296908 3 18187364350485147166
14115302 16 18201717319339275101
14289901 80 17386016074137278056
14713566 1 18340766052075927224
14993402 34 18059573649858806356
15001771 113 18341037558470512320
15775835 57 17560234859309552268
16752209 62 18272375303620707291
16945 1 18202280307704815297
17834072 14 18411707551923245660
18186145 218 18271529792000526508
18981168 100 13253932526398574566
19868273 293 17632009866206270550
200 152 18187089476952252814
20510252 161 18335701684444068976
20671657 53 18060143124089064044
21296965 67 18260551091261695625
21452121 199 17838904737086735963
21501502 16 18339355258498938189
22802520 49 17984698918415763675
2334 1 17767395790703462155
23402539 116 18339936977517153606
23419403 2 17906213635041909372
23557571 272 18334575737761817898
23559900 14 18261681484284507218
2748010 2 17767404587181528299
296302 2 16732987530650591313
528886 8 17916874633055132765
7364860 26 18193838128783954200
74978 22 17988634182179637654
81228 2 18338223959896994832
9709674 26 18409727353109672310

> <PUBCHEM_SHAPE_MULTIPOLES>
323.4
5.91
2.34
1.18
3.98
0.21
-0.08
2.39
1.3
-1.17
-0.29
0.16
-0.16
0.25

> <PUBCHEM_SHAPE_SELFOVERLAP>
663.613

> <PUBCHEM_SHAPE_VOLUME>
186.5

> <PUBCHEM_COORDINATE_TYPE>
2
5
10

$$$$

