440632
  -OEChem-07051212503D

 44 46  0     1  0  0  0  0  0999 V2000
    5.5558   -0.9316    0.0161 O   0  0  0  0  0  0  0  0  0  0  0  0
    3.5166   -2.8081    0.1842 O   0  0  0  0  0  0  0  0  0  0  0  0
   -4.6058   -2.1454    0.3250 O   0  0  0  0  0  0  0  0  0  0  0  0
   -6.1857    0.1337    0.1432 O   0  0  0  0  0  0  0  0  0  0  0  0
   -0.0234    2.1656    0.8313 N   0  0  0  0  0  0  0  0  0  0  0  0
    0.1413    0.7489    0.4541 C   0  0  2  0  0  0  0  0  0  0  0  0
    1.5897    0.3089    0.3458 C   0  0  0  0  0  0  0  0  0  0  0  0
    2.6253    1.2566    0.2518 C   0  0  0  0  0  0  0  0  0  0  0  0
    2.3228    2.7303    0.3316 C   0  0  0  0  0  0  0  0  0  0  0  0
    0.8536    3.0417    0.0530 C   0  0  0  0  0  0  0  0  0  0  0  0
   -0.6365    0.4483   -0.8329 C   0  0  0  0  0  0  0  0  0  0  0  0
    1.9085   -1.0578    0.3207 C   0  0  0  0  0  0  0  0  0  0  0  0
   -2.1126    0.3613   -0.5726 C   0  0  0  0  0  0  0  0  0  0  0  0
    3.9552    0.8258    0.1477 C   0  0  0  0  0  0  0  0  0  0  0  0
    3.2342   -1.4761    0.2067 C   0  0  0  0  0  0  0  0  0  0  0  0
    4.2565   -0.5351    0.1201 C   0  0  0  0  0  0  0  0  0  0  0  0
   -2.6810   -0.8629   -0.2415 C   0  0  0  0  0  0  0  0  0  0  0  0
   -2.8956    1.5058   -0.6659 C   0  0  0  0  0  0  0  0  0  0  0  0
   -4.0525   -0.9439   -0.0001 C   0  0  0  0  0  0  0  0  0  0  0  0
   -4.2669    1.4249   -0.4246 C   0  0  0  0  0  0  0  0  0  0  0  0
   -4.8454    0.2001   -0.0915 C   0  0  0  0  0  0  0  0  0  0  0  0
    6.0716   -1.1252   -1.2997 C   0  0  0  0  0  0  0  0  0  0  0  0
   -3.7261   -3.2658    0.3975 C   0  0  0  0  0  0  0  0  0  0  0  0
   -0.2942    0.1674    1.2790 H   0  0  0  0  0  0  0  0  0  0  0  0
    2.5888    3.0792    1.3375 H   0  0  0  0  0  0  0  0  0  0  0  0
    2.9433    3.2787   -0.3871 H   0  0  0  0  0  0  0  0  0  0  0  0
    0.6481    4.0830    0.3257 H   0  0  0  0  0  0  0  0  0  0  0  0
    0.6398    2.9631   -1.0186 H   0  0  0  0  0  0  0  0  0  0  0  0
   -0.3140   -0.5069   -1.2700 H   0  0  0  0  0  0  0  0  0  0  0  0
   -0.4361    1.1780   -1.6272 H   0  0  0  0  0  0  0  0  0  0  0  0
    0.2080    2.2699    1.8199 H   0  0  0  0  0  0  0  0  0  0  0  0
    1.1173   -1.8011    0.3920 H   0  0  0  0  0  0  0  0  0  0  0  0
    4.7589    1.5567    0.0925 H   0  0  0  0  0  0  0  0  0  0  0  0
   -2.0137   -1.7160   -0.1819 H   0  0  0  0  0  0  0  0  0  0  0  0
   -2.4581    2.4648   -0.9293 H   0  0  0  0  0  0  0  0  0  0  0  0
   -4.8731    2.3237   -0.5003 H   0  0  0  0  0  0  0  0  0  0  0  0
    4.4820   -2.9195    0.1441 H   0  0  0  0  0  0  0  0  0  0  0  0
    6.0674   -0.1809   -1.8533 H   0  0  0  0  0  0  0  0  0  0  0  0
    5.4889   -1.8787   -1.8391 H   0  0  0  0  0  0  0  0  0  0  0  0
    7.1037   -1.4762   -1.2147 H   0  0  0  0  0  0  0  0  0  0  0  0
   -6.5704    1.0203    0.0347 H   0  0  0  0  0  0  0  0  0  0  0  0
   -2.9805   -3.1432    1.1905 H   0  0  0  0  0  0  0  0  0  0  0  0
   -3.2705   -3.4853   -0.5741 H   0  0  0  0  0  0  0  0  0  0  0  0
   -4.3345   -4.1358    0.6661 H   0  0  0  0  0  0  0  0  0  0  0  0
  1 16  1  0  0  0  0
  1 22  1  0  0  0  0
  2 15  1  0  0  0  0
  2 37  1  0  0  0  0
  3 19  1  0  0  0  0
  3 23  1  0  0  0  0
  4 21  1  0  0  0  0
  4 41  1  0  0  0  0
  5  6  1  0  0  0  0
  5 10  1  0  0  0  0
  5 31  1  0  0  0  0
  6  7  1  0  0  0  0
  6 11  1  0  0  0  0
  6 24  1  0  0  0  0
  7  8  1  0  0  0  0
  7 12  2  0  0  0  0
  8  9  1  0  0  0  0
  8 14  2  0  0  0  0
  9 10  1  0  0  0  0
  9 25  1  0  0  0  0
  9 26  1  0  0  0  0
 10 27  1  0  0  0  0
 10 28  1  0  0  0  0
 11 13  1  0  0  0  0
 11 29  1  0  0  0  0
 11 30  1  0  0  0  0
 12 15  1  0  0  0  0
 12 32  1  0  0  0  0
 13 17  2  0  0  0  0
 13 18  1  0  0  0  0
 14 16  1  0  0  0  0
 14 33  1  0  0  0  0
 15 16  2  0  0  0  0
 17 19  1  0  0  0  0
 17 34  1  0  0  0  0
 18 20  2  0  0  0  0
 18 35  1  0  0  0  0
 19 21  2  0  0  0  0
 20 21  1  0  0  0  0
 20 36  1  0  0  0  0
 22 38  1  0  0  0  0
 22 39  1  0  0  0  0
 22 40  1  0  0  0  0
 23 42  1  0  0  0  0
 23 43  1  0  0  0  0
 23 44  1  0  0  0  0
M  END
> <PUBCHEM_COMPOUND_CID>
440632

> <PUBCHEM_CONFORMER_RMSD>
0.8

> <PUBCHEM_CONFORMER_DIVERSEORDER>
4
1
8
5
20
27
19
28
9
14
2
6
10
12
15
24
17
23
3
16
29
7
25
22
18
13
11
26
21

> <PUBCHEM_MMFF94_PARTIAL_CHARGES>
31
1 -0.36
10 0.27
11 0.14
12 -0.15
13 -0.14
14 -0.15
15 0.08
16 0.08
17 -0.15
18 -0.15
19 0.08
2 -0.53
20 -0.15
21 0.08
22 0.28
23 0.28
3 -0.36
31 0.36
32 0.15
33 0.15
34 0.15
35 0.15
36 0.15
37 0.45
4 -0.53
41 0.45
5 -0.9
6 0.41
7 -0.14
8 -0.14
9 0.14

> <PUBCHEM_EFFECTIVE_ROTOR_COUNT>
4.8

> <PUBCHEM_PHARMACOPHORE_FEATURES>
9
1 1 acceptor
1 2 donor
1 3 acceptor
1 4 donor
1 5 cation
1 5 donor
6 13 17 18 19 20 21 rings
6 5 6 7 8 9 10 rings
6 7 8 12 14 15 16 rings

> <PUBCHEM_HEAVY_ATOM_COUNT>
23

> <PUBCHEM_ATOM_DEF_STEREO_COUNT>
0

> <PUBCHEM_ATOM_UDEF_STEREO_COUNT>
1

> <PUBCHEM_BOND_DEF_STEREO_COUNT>
0

> <PUBCHEM_BOND_UDEF_STEREO_COUNT>
0

> <PUBCHEM_ISOTOPIC_ATOM_COUNT>
0

> <PUBCHEM_COMPONENT_COUNT>
1

> <PUBCHEM_CACTVS_TAUTO_COUNT>
8

> <PUBCHEM_CONFORMER_ID>
0006B93800000004

> <PUBCHEM_MMFF94_ENERGY>
79.4308

> <PUBCHEM_FEATURE_SELFOVERLAP>
45.69

> <PUBCHEM_SHAPE_FINGERPRINT>
10616163 171 18339081476130421015
11045515 52 18130787923243306756
11135609 187 18196646307937361516
11405975 8 18336264561852440585
11552529 35 17898006820760794739
11595378 159 14707474915291527859
12107183 9 18118960536977030753
12236239 1 17530685402967338321
12553582 1 18263098732944608606
12596602 18 15141259701600998727
12633257 1 18261381253196184083
12788726 201 17970632015520984216
13402501 40 18411417314981610299
13533116 47 18118690916305235311
13740256 8 18410573976856948156
14341114 176 18410007711357904273
14420673 8 18410006671717459783
14617045 38 18342452673159692963
14790565 3 17475793152392370044
14866123 147 17398672792717920203
14955137 171 18040431084084884316
15196674 1 18338801117391039465
15352361 1 18410295830195009832
15537594 2 17847063302728828899
15927050 60 17830457181499537300
17492 89 18195528087051683707
17804303 29 18412544302073659605
17844677 252 18410288108134429633
193927 3 17894901958594639124
21033648 29 17096388261334596105
21065198 57 18411141299435561197
21267235 1 18335415803031235868
221357 26 18412831304335936325
221490 88 18340486660173977936
2215653 11 18410022056706636525
22950370 63 18410571825104771644
23559900 14 18339368465707872889
23566358 27 18123751958914871813
239999 70 18333167272236276254
3004659 81 18272652372467114508
314173 41 18409729577728294580
335352 9 18410576210825758301
3421961 26 18408609141067702136
4073 2 18201435835530283819
4214541 1 18411703192747718045
46194498 28 17775283846341067700
465052 167 18186799184323352702
5104073 3 18336550408905464001
6823239 73 18410580561120915274
7495541 125 18342458123583461204
77779 3 18411984628911610389
8863177 126 18200021833918602211
9709674 26 18199187278828292067

> <PUBCHEM_SHAPE_MULTIPOLES>
444.87
12.91
3.12
0.82
1.43
0.34
-0.13
6.5
-1.6
0.09
0.46
-0.34
-0.01
1.05

> <PUBCHEM_SHAPE_SELFOVERLAP>
958.097

> <PUBCHEM_SHAPE_VOLUME>
245

> <PUBCHEM_COORDINATE_TYPE>
2
5
10

$$$$

