11953938
  -OEChem-07051212573D

 54 54  0     1  0  0  0  0  0999 V2000
    3.5652    0.2792    0.1387 O   0  0  0  0  0  0  0  0  0  0  0  0
   -0.1383   -0.7609   -0.3767 O   0  0  0  0  0  0  0  0  0  0  0  0
    4.7589   -1.5080    0.9621 O   0  0  0  0  0  0  0  0  0  0  0  0
    0.0165    4.6779   -1.1597 O   0  0  0  0  0  0  0  0  0  0  0  0
   -0.9138   -2.8161    0.3132 O   0  0  0  0  0  0  0  0  0  0  0  0
   -5.4273    1.9795    0.9442 O   0  0  0  0  0  0  0  0  0  0  0  0
    1.4954   -0.0547    1.2207 C   0  0  2  0  0  0  0  0  0  0  0  0
    0.0218   -0.3562    0.9806 C   0  0  1  0  0  0  0  0  0  0  0  0
    2.1676    0.5993    0.0185 C   0  0  1  0  0  0  0  0  0  0  0  0
    2.3982   -1.2273    1.4012 C   0  0  0  0  0  0  0  0  0  0  0  0
   -0.8413    0.8846    1.2421 C   0  0  0  0  0  0  0  0  0  0  0  0
    2.0148    2.0820   -0.0285 C   0  0  0  0  0  0  0  0  0  0  0  0
    3.7192   -0.8885    0.8298 C   0  0  0  0  0  0  0  0  0  0  0  0
   -2.3045    0.5504    1.4502 C   0  0  0  0  0  0  0  0  0  0  0  0
    1.5352    2.8393   -1.0338 C   0  0  0  0  0  0  0  0  0  0  0  0
    2.1531   -2.4265    1.9346 C   0  0  0  0  0  0  0  0  0  0  0  0
   -2.6164   -0.2889    2.6612 C   0  0  0  0  0  0  0  0  0  0  0  0
   -3.2981    0.9833    0.6494 C   0  0  0  0  0  0  0  0  0  0  0  0
   -0.6177   -2.0233   -0.5693 C   0  0  0  0  0  0  0  0  0  0  0  0
    1.3866    4.3363   -0.9941 C   0  0  0  0  0  0  0  0  0  0  0  0
    1.0707    2.1899   -2.3126 C   0  0  0  0  0  0  0  0  0  0  0  0
   -0.7240   -2.3025   -2.0335 C   0  0  0  0  0  0  0  0  0  0  0  0
   -4.7639    0.7288    0.8074 C   0  0  0  0  0  0  0  0  0  0  0  0
    0.5167   -2.1980   -2.8700 C   0  0  0  0  0  0  0  0  0  0  0  0
   -1.9559   -2.5998   -2.4867 C   0  0  0  0  0  0  0  0  0  0  0  0
   -3.2188   -2.6799   -1.6892 C   0  0  0  0  0  0  0  0  0  0  0  0
    1.6162    0.5597    2.1243 H   0  0  0  0  0  0  0  0  0  0  0  0
   -0.2886   -1.1319    1.6877 H   0  0  0  0  0  0  0  0  0  0  0  0
    1.8676    0.1414   -0.9268 H   0  0  0  0  0  0  0  0  0  0  0  0
   -0.4955    1.4166    2.1372 H   0  0  0  0  0  0  0  0  0  0  0  0
   -0.7562    1.5832    0.4022 H   0  0  0  0  0  0  0  0  0  0  0  0
    2.3382    2.6051    0.8713 H   0  0  0  0  0  0  0  0  0  0  0  0
    2.9191   -3.1938    1.9800 H   0  0  0  0  0  0  0  0  0  0  0  0
    1.1856   -2.6777    2.3529 H   0  0  0  0  0  0  0  0  0  0  0  0
   -2.6943   -1.3454    2.3857 H   0  0  0  0  0  0  0  0  0  0  0  0
   -1.8243   -0.1934    3.4126 H   0  0  0  0  0  0  0  0  0  0  0  0
   -3.5360    0.0214    3.1652 H   0  0  0  0  0  0  0  0  0  0  0  0
   -3.0276    1.5925   -0.2118 H   0  0  0  0  0  0  0  0  0  0  0  0
    1.7294    4.7470   -0.0388 H   0  0  0  0  0  0  0  0  0  0  0  0
    1.9692    4.7989   -1.7975 H   0  0  0  0  0  0  0  0  0  0  0  0
    1.7272    1.3756   -2.6324 H   0  0  0  0  0  0  0  0  0  0  0  0
    1.0737    2.9124   -3.1367 H   0  0  0  0  0  0  0  0  0  0  0  0
    0.0489    1.8133   -2.2022 H   0  0  0  0  0  0  0  0  0  0  0  0
   -5.1406    0.2387   -0.0965 H   0  0  0  0  0  0  0  0  0  0  0  0
   -5.0242    0.1013    1.6615 H   0  0  0  0  0  0  0  0  0  0  0  0
    1.3089   -2.8283   -2.4537 H   0  0  0  0  0  0  0  0  0  0  0  0
    0.8740   -1.1644   -2.9022 H   0  0  0  0  0  0  0  0  0  0  0  0
    0.3357   -2.5236   -3.8995 H   0  0  0  0  0  0  0  0  0  0  0  0
   -2.0698   -2.8096   -3.5487 H   0  0  0  0  0  0  0  0  0  0  0  0
   -0.0396    5.6485   -1.1401 H   0  0  0  0  0  0  0  0  0  0  0  0
   -6.3801    1.7926    0.9984 H   0  0  0  0  0  0  0  0  0  0  0  0
   -3.5149   -3.7256   -1.5633 H   0  0  0  0  0  0  0  0  0  0  0  0
   -4.0192   -2.1664   -2.2327 H   0  0  0  0  0  0  0  0  0  0  0  0
   -3.1587   -2.2105   -0.7047 H   0  0  0  0  0  0  0  0  0  0  0  0
  1  9  1  0  0  0  0
  1 13  1  0  0  0  0
  2  8  1  0  0  0  0
  2 19  1  0  0  0  0
  3 13  2  0  0  0  0
  4 20  1  0  0  0  0
  4 50  1  0  0  0  0
  5 19  2  0  0  0  0
  6 23  1  0  0  0  0
  6 51  1  0  0  0  0
  7  8  1  0  0  0  0
  7  9  1  0  0  0  0
  7 10  1  0  0  0  0
  7 27  1  0  0  0  0
  8 11  1  0  0  0  0
  8 28  1  0  0  0  0
  9 12  1  0  0  0  0
  9 29  1  0  0  0  0
 10 13  1  0  0  0  0
 10 16  2  0  0  0  0
 11 14  1  0  0  0  0
 11 30  1  0  0  0  0
 11 31  1  0  0  0  0
 12 15  2  0  0  0  0
 12 32  1  0  0  0  0
 14 17  1  0  0  0  0
 14 18  2  0  0  0  0
 15 20  1  0  0  0  0
 15 21  1  0  0  0  0
 16 33  1  0  0  0  0
 16 34  1  0  0  0  0
 17 35  1  0  0  0  0
 17 36  1  0  0  0  0
 17 37  1  0  0  0  0
 18 23  1  0  0  0  0
 18 38  1  0  0  0  0
 19 22  1  0  0  0  0
 20 39  1  0  0  0  0
 20 40  1  0  0  0  0
 21 41  1  0  0  0  0
 21 42  1  0  0  0  0
 21 43  1  0  0  0  0
 22 24  1  0  0  0  0
 22 25  2  0  0  0  0
 23 44  1  0  0  0  0
 23 45  1  0  0  0  0
 24 46  1  0  0  0  0
 24 47  1  0  0  0  0
 24 48  1  0  0  0  0
 25 26  1  0  0  0  0
 25 49  1  0  0  0  0
 26 52  1  0  0  0  0
 26 53  1  0  0  0  0
 26 54  1  0  0  0  0
M  END
> <PUBCHEM_COMPOUND_CID>
11953938

> <PUBCHEM_CONFORMER_RMSD>
1

> <PUBCHEM_CONFORMER_DIVERSEORDER>
1
42
26
51
47
20
15
67
19
13
61
68
8
40
49
64
30
34
10
14
25
46
11
22
37
45
28
59
17
2
53
55
41
62
18
33
56
35
29
6
32
57
38
27
58
7
24
16
31
54
52
63
39
3
44
21
50
23
5
60
66
65
43
48
4
9
12
36

> <PUBCHEM_MMFF94_PARTIAL_CHARGES>
33
1 -0.43
10 -0.12
11 0.14
12 -0.29
13 0.71
14 -0.28
15 -0.28
16 -0.3
17 0.14
18 -0.29
19 0.71
2 -0.43
20 0.42
21 0.14
22 -0.12
23 0.42
24 0.14
25 -0.29
26 0.14
3 -0.57
32 0.15
33 0.15
34 0.15
38 0.15
4 -0.68
49 0.15
5 -0.57
50 0.4
51 0.4
6 -0.68
7 0.14
8 0.28
9 0.42

> <PUBCHEM_EFFECTIVE_ROTOR_COUNT>
9.6

> <PUBCHEM_PHARMACOPHORE_FEATURES>
11
1 17 hydrophobe
1 21 hydrophobe
1 24 hydrophobe
1 26 hydrophobe
1 3 acceptor
1 4 acceptor
1 4 donor
1 5 acceptor
1 6 acceptor
1 6 donor
5 1 7 9 10 13 rings

> <PUBCHEM_HEAVY_ATOM_COUNT>
26

> <PUBCHEM_ATOM_DEF_STEREO_COUNT>
3

> <PUBCHEM_ATOM_UDEF_STEREO_COUNT>
0

> <PUBCHEM_BOND_DEF_STEREO_COUNT>
3

> <PUBCHEM_BOND_UDEF_STEREO_COUNT>
0

> <PUBCHEM_ISOTOPIC_ATOM_COUNT>
0

> <PUBCHEM_COMPONENT_COUNT>
1

> <PUBCHEM_CACTVS_TAUTO_COUNT>
1

> <PUBCHEM_CONFORMER_ID>
00B6671200000001

> <PUBCHEM_MMFF94_ENERGY>
48.8185

> <PUBCHEM_FEATURE_SELFOVERLAP>
55.818

> <PUBCHEM_SHAPE_FINGERPRINT>
10756046 70 18410571764753748372
11421498 54 17471298353078584055
11578080 2 17685827597643272048
12173636 292 17048493234202626376
12293681 25 15882936756418531567
12788726 201 17535741894045829623
13134695 92 18202558509874820081
13583140 156 18060138726506932451
13911987 19 17631744768858127498
14863182 85 17604705711423865003
15219462 58 17555989421682262291
15849732 13 18409163346504261682
16752209 62 17749686077490807127
17980427 23 18262810553471188232
19319366 153 17474406672455847927
20600515 1 17557963311648086253
20691752 17 17761743536464241562
21860390 5 18201423818581002293
23419403 2 16958997880043352804
23558518 356 18196372507222592714
23598288 3 18043527209659676014
23598291 2 18338242561542693846
266924 1 18046914775188750892
266924 78 17771062692331644126
3060560 45 18262224638037530317
394222 165 16619871728816883680
6992083 37 18335708255949480442

> <PUBCHEM_SHAPE_MULTIPOLES>
499.85
6.76
4.77
2.74
4.27
3.94
0.99
0.9
-2.91
-0.63
3.28
0.83
-1.32
-3.84

> <PUBCHEM_SHAPE_SELFOVERLAP>
1007.909

> <PUBCHEM_SHAPE_VOLUME>
293.9

> <PUBCHEM_COORDINATE_TYPE>
2
5
10

$$$$

