442836
  -OEChem-07051212592D

 73 77  0     1  0  0  0  0  0999 V2000
    7.3358   -0.9801    0.0000 O   0  0  0  0  0  0  0  0  0  0  0  0
   10.4045   -0.9801    0.0000 O   0  0  0  0  0  0  0  0  0  0  0  0
    6.6876    3.6332    0.0000 O   0  0  0  0  0  0  0  0  0  0  0  0
    5.0403    3.0980    0.0000 O   0  0  0  0  0  0  0  0  0  0  0  0
    5.3493    2.1469    0.0000 O   0  0  0  0  0  0  0  0  0  0  0  0
    8.6439    3.2174    0.0000 O   0  0  0  0  0  0  0  0  0  0  0  0
    9.1066   -5.1744    0.0000 O   0  0  0  0  0  0  0  0  0  0  0  0
    6.0695    5.5353    0.0000 O   0  0  0  0  0  0  0  0  0  0  0  0
    4.1132    5.9511    0.0000 O   0  0  0  0  0  0  0  0  0  0  0  0
    2.7750    4.4648    0.0000 O   0  0  0  0  0  0  0  0  0  0  0  0
   11.0636   -5.5869    0.0000 O   0  0  0  0  0  0  0  0  0  0  0  0
    2.4149    2.7706    0.0000 O   0  0  0  0  0  0  0  0  0  0  0  0
    8.8747   -0.4801    0.0000 C   0  0  1  0  0  0  0  0  0  0  0  0
    8.8747   -1.4801    0.0000 C   0  0  1  0  0  0  0  0  0  0  0  0
    7.9236   -0.1710    0.0000 C   0  0  1  0  0  0  0  0  0  0  0  0
    9.8209   -1.7848    0.0000 C   0  0  1  0  0  0  0  0  0  0  0  0
    7.9236   -1.7891    0.0000 C   0  0  0  0  0  0  0  0  0  0  0  0
    9.8209   -0.1753    0.0000 C   0  0  0  0  0  0  0  0  0  0  0  0
    7.6146    0.7800    0.0000 C   0  0  0  0  0  0  0  0  0  0  0  0
   10.1316   -2.7353    0.0000 C   0  0  0  0  0  0  0  0  0  0  0  0
    8.2838    1.5232    0.0000 C   0  0  0  0  0  0  0  0  0  0  0  0
    6.6365    0.9879    0.0000 C   0  0  0  0  0  0  0  0  0  0  0  0
    9.4637   -3.4796    0.0000 C   0  0  0  0  0  0  0  0  0  0  0  0
   11.1101   -2.9415    0.0000 C   0  0  0  0  0  0  0  0  0  0  0  0
    6.3274    1.9390    0.0000 C   0  0  0  0  0  0  0  0  0  0  0  0
    7.9747    2.4742    0.0000 C   0  0  0  0  0  0  0  0  0  0  0  0
    6.9966    2.6821    0.0000 C   0  0  0  0  0  0  0  0  0  0  0  0
    5.7094    3.8411    0.0000 C   0  0  2  0  0  0  0  0  0  0  0  0
    5.4004    4.7922    0.0000 C   0  0  1  0  0  0  0  0  0  0  0  0
    4.4222    5.0001    0.0000 C   0  0  2  0  0  0  0  0  0  0  0  0
    3.7531    4.2569    0.0000 C   0  0  1  0  0  0  0  0  0  0  0  0
    9.7744   -4.4301    0.0000 C   0  0  0  0  0  0  0  0  0  0  0  0
    4.0621    3.3059    0.0000 C   0  0  1  0  0  0  0  0  0  0  0  0
   11.4207   -3.8920    0.0000 C   0  0  0  0  0  0  0  0  0  0  0  0
   10.7529   -4.6364    0.0000 C   0  0  0  0  0  0  0  0  0  0  0  0
    3.3930    2.5627    0.0000 C   0  0  0  0  0  0  0  0  0  0  0  0
    4.6802    1.4038    0.0000 C   0  0  0  0  0  0  0  0  0  0  0  0
    9.6220    3.0094    0.0000 C   0  0  0  0  0  0  0  0  0  0  0  0
    9.4172   -6.1250    0.0000 C   0  0  0  0  0  0  0  0  0  0  0  0
    8.8758    0.3699    0.0000 H   0  0  0  0  0  0  0  0  0  0  0  0
    8.8758   -2.3301    0.0000 H   0  0  0  0  0  0  0  0  0  0  0  0
    7.3113   -0.0741    0.0000 H   0  0  0  0  0  0  0  0  0  0  0  0
   10.4334   -1.8810    0.0000 H   0  0  0  0  0  0  0  0  0  0  0  0
    7.3867   -2.0991    0.0000 H   0  0  0  0  0  0  0  0  0  0  0  0
    8.1758   -2.3555    0.0000 H   0  0  0  0  0  0  0  0  0  0  0  0
   10.3583    0.1339    0.0000 H   0  0  0  0  0  0  0  0  0  0  0  0
    9.5699    0.3916    0.0000 H   0  0  0  0  0  0  0  0  0  0  0  0
    8.8902    1.3943    0.0000 H   0  0  0  0  0  0  0  0  0  0  0  0
    6.2216    0.5272    0.0000 H   0  0  0  0  0  0  0  0  0  0  0  0
    8.8570   -3.3518    0.0000 H   0  0  0  0  0  0  0  0  0  0  0  0
   11.5241   -2.4801    0.0000 H   0  0  0  0  0  0  0  0  0  0  0  0
    6.1243    4.3018    0.0000 H   0  0  0  0  0  0  0  0  0  0  0  0
    5.2088    5.3818    0.0000 H   0  0  0  0  0  0  0  0  0  0  0  0
    3.8158    5.1290    0.0000 H   0  0  0  0  0  0  0  0  0  0  0  0
    3.3383    3.7962    0.0000 H   0  0  0  0  0  0  0  0  0  0  0  0
    4.2537    2.7162    0.0000 H   0  0  0  0  0  0  0  0  0  0  0  0
   12.0274   -4.0199    0.0000 H   0  0  0  0  0  0  0  0  0  0  0  0
    3.1608    1.9879    0.0000 H   0  0  0  0  0  0  0  0  0  0  0  0
    3.9188    2.2342    0.0000 H   0  0  0  0  0  0  0  0  0  0  0  0
    5.8779    6.1250    0.0000 H   0  0  0  0  0  0  0  0  0  0  0  0
    3.5068    6.0800    0.0000 H   0  0  0  0  0  0  0  0  0  0  0  0
    2.5834    5.0545    0.0000 H   0  0  0  0  0  0  0  0  0  0  0  0
   11.6702   -5.7147    0.0000 H   0  0  0  0  0  0  0  0  0  0  0  0
    4.2194    1.8186    0.0000 H   0  0  0  0  0  0  0  0  0  0  0  0
    4.2653    0.9430    0.0000 H   0  0  0  0  0  0  0  0  0  0  0  0
    5.1409    0.9889    0.0000 H   0  0  0  0  0  0  0  0  0  0  0  0
    9.4931    2.4030    0.0000 H   0  0  0  0  0  0  0  0  0  0  0  0
   10.2285    2.8806    0.0000 H   0  0  0  0  0  0  0  0  0  0  0  0
    9.7509    3.6159    0.0000 H   0  0  0  0  0  0  0  0  0  0  0  0
    2.0000    2.3099    0.0000 H   0  0  0  0  0  0  0  0  0  0  0  0
    8.8279   -6.3176    0.0000 H   0  0  0  0  0  0  0  0  0  0  0  0
    9.6098   -6.7143    0.0000 H   0  0  0  0  0  0  0  0  0  0  0  0
   10.0065   -5.9323    0.0000 H   0  0  0  0  0  0  0  0  0  0  0  0
  1 15  1  0  0  0  0
  1 17  1  0  0  0  0
  2 16  1  0  0  0  0
  2 18  1  0  0  0  0
  3 27  1  0  0  0  0
 28  3  1  6  0  0  0
  4 28  1  0  0  0  0
  4 33  1  0  0  0  0
  5 25  1  0  0  0  0
  5 37  1  0  0  0  0
  6 26  1  0  0  0  0
  6 38  1  0  0  0  0
  7 32  1  0  0  0  0
  7 39  1  0  0  0  0
 29  8  1  1  0  0  0
  8 60  1  0  0  0  0
 30  9  1  6  0  0  0
  9 61  1  0  0  0  0
 31 10  1  1  0  0  0
 10 62  1  0  0  0  0
 11 35  1  0  0  0  0
 11 63  1  0  0  0  0
 12 36  1  0  0  0  0
 12 70  1  0  0  0  0
 13 14  1  0  0  0  0
 13 15  1  0  0  0  0
 13 18  1  0  0  0  0
 13 40  1  6  0  0  0
 14 16  1  0  0  0  0
 14 17  1  0  0  0  0
 14 41  1  6  0  0  0
 15 19  1  6  0  0  0
 15 42  1  0  0  0  0
 16 20  1  6  0  0  0
 16 43  1  0  0  0  0
 17 44  1  0  0  0  0
 17 45  1  0  0  0  0
 18 46  1  0  0  0  0
 18 47  1  0  0  0  0
 19 21  2  0  0  0  0
 19 22  1  0  0  0  0
 20 23  2  0  0  0  0
 20 24  1  0  0  0  0
 21 26  1  0  0  0  0
 21 48  1  0  0  0  0
 22 25  2  0  0  0  0
 22 49  1  0  0  0  0
 23 32  1  0  0  0  0
 23 50  1  0  0  0  0
 24 34  2  0  0  0  0
 24 51  1  0  0  0  0
 25 27  1  0  0  0  0
 26 27  2  0  0  0  0
 28 29  1  0  0  0  0
 28 52  1  0  0  0  0
 29 30  1  0  0  0  0
 29 53  1  0  0  0  0
 30 31  1  0  0  0  0
 30 54  1  0  0  0  0
 31 33  1  0  0  0  0
 31 55  1  0  0  0  0
 32 35  2  0  0  0  0
 33 36  1  6  0  0  0
 33 56  1  0  0  0  0
 34 35  1  0  0  0  0
 34 57  1  0  0  0  0
 36 58  1  0  0  0  0
 36 59  1  0  0  0  0
 37 64  1  0  0  0  0
 37 65  1  0  0  0  0
 37 66  1  0  0  0  0
 38 67  1  0  0  0  0
 38 68  1  0  0  0  0
 38 69  1  0  0  0  0
 39 71  1  0  0  0  0
 39 72  1  0  0  0  0
 39 73  1  0  0  0  0
M  END
> <PUBCHEM_COMPOUND_CID>
442836

> <PUBCHEM_COMPOUND_CANONICALIZED>
1

> <PUBCHEM_CACTVS_COMPLEXITY>
774

> <PUBCHEM_CACTVS_HBOND_ACCEPTOR>
12

> <PUBCHEM_CACTVS_HBOND_DONOR>
5

> <PUBCHEM_CACTVS_ROTATABLE_BOND>
8

> <PUBCHEM_CACTVS_SUBSKEYS>
AAADcfB4PAAAAAAAAAAAAAAAAAAAASJAAAA0YIAAAAASAAABQAAAGgAACAAADRSwmAMyDoAABgCAAiBCAAACCAAgIAAIiAAGiIgdNyKGMRqieCOlwBUPuAfA4PwOoAABCAAAQABAAAIQAACAAAAAAAAAAA==

> <PUBCHEM_IUPAC_OPENEYE_NAME>
(2S,3R,4S,5S,6R)-2-[4-[(3S,3aR,6S,6aR)-3-(4-hydroxy-3-methoxy-phenyl)-1,3,3a,4,6,6a-hexahydrofuro[3,4-c]furan-6-yl]-2,6-dimethoxy-phenoxy]-6-(hydroxymethyl)tetrahydropyran-3,4,5-triol

> <PUBCHEM_IUPAC_CAS_NAME>
(2S,3R,4S,5S,6R)-2-[4-[(3S,3aR,6S,6aR)-3-(4-hydroxy-3-methoxyphenyl)-1,3,3a,4,6,6a-hexahydrofuro[3,4-c]furan-6-yl]-2,6-dimethoxyphenoxy]-6-(hydroxymethyl)oxane-3,4,5-triol

> <PUBCHEM_IUPAC_NAME>
(2S,3R,4S,5S,6R)-2-[4-[(3S,3aR,6S,6aR)-3-(4-hydroxy-3-methoxyphenyl)-1,3,3a,4,6,6a-hexahydrofuro[3,4-c]furan-6-yl]-2,6-dimethoxyphenoxy]-6-(hydroxymethyl)oxane-3,4,5-triol

> <PUBCHEM_IUPAC_SYSTEMATIC_NAME>
(2S,3R,4S,5S,6R)-2-[4-[(3S,3aR,6S,6aR)-3-(3-methoxy-4-oxidanyl-phenyl)-1,3,3a,4,6,6a-hexahydrofuro[3,4-c]furan-6-yl]-2,6-dimethoxy-phenoxy]-6-(hydroxymethyl)oxane-3,4,5-triol

> <PUBCHEM_IUPAC_TRADITIONAL_NAME>
(2S,3R,4S,5S,6R)-2-[4-[(3S,3aR,6S,6aR)-3-(4-hydroxy-3-methoxy-phenyl)-1,3,3a,4,6,6a-hexahydrofuro[3,4-c]furan-6-yl]-2,6-dimethoxy-phenoxy]-6-methylol-tetrahydropyran-3,4,5-triol

> <PUBCHEM_IUPAC_INCHI>
InChI=1S/C27H34O12/c1-33-17-6-12(4-5-16(17)29)24-14-10-37-25(15(14)11-36-24)13-7-18(34-2)26(19(8-13)35-3)39-27-23(32)22(31)21(30)20(9-28)38-27/h4-8,14-15,20-25,27-32H,9-11H2,1-3H3/t14-,15-,20+,21+,22-,23+,24+,25+,27-/m0/s1

> <PUBCHEM_IUPAC_INCHIKEY>
GLGVEKKQPFRBAS-UOVCOODASA-N

> <PUBCHEM_XLOGP3_AA>
0.4

> <PUBCHEM_EXACT_MASS>
550.205027

> <PUBCHEM_MOLECULAR_FORMULA>
C27H34O12

> <PUBCHEM_MOLECULAR_WEIGHT>
550.55166

> <PUBCHEM_OPENEYE_CAN_SMILES>
COC1=CC(=CC(=C1OC2C(C(C(C(O2)CO)O)O)O)OC)C3C4COC(C4CO3)C5=CC(=C(C=C5)O)OC

> <PUBCHEM_OPENEYE_ISO_SMILES>
COC1=CC(=CC(=C1O[C@H]2[C@@H]([C@H]([C@@H]([C@H](O2)CO)O)O)O)OC)[C@@H]3[C@H]4CO[C@@H]([C@H]4CO3)C5=CC(=C(C=C5)O)OC

> <PUBCHEM_CACTVS_TPSA>
166

> <PUBCHEM_MONOISOTOPIC_WEIGHT>
550.205027

> <PUBCHEM_TOTAL_CHARGE>
0

> <PUBCHEM_HEAVY_ATOM_COUNT>
39

> <PUBCHEM_ATOM_DEF_STEREO_COUNT>
9

> <PUBCHEM_ATOM_UDEF_STEREO_COUNT>
0

> <PUBCHEM_BOND_DEF_STEREO_COUNT>
0

> <PUBCHEM_BOND_UDEF_STEREO_COUNT>
0

> <PUBCHEM_ISOTOPIC_ATOM_COUNT>
0

> <PUBCHEM_COMPONENT_COUNT>
1

> <PUBCHEM_CACTVS_TAUTO_COUNT>
3

> <PUBCHEM_COORDINATE_TYPE>
1
5
255

> <PUBCHEM_BONDANNOTATIONS>
31  10  5
13  40  6
14  41  6
15  19  6
16  20  6
19  21  8
19  22  8
20  23  8
20  24  8
21  26  8
22  25  8
23  32  8
24  34  8
25  27  8
26  27  8
28  3  6
32  35  8
33  36  6
34  35  8
29  8  5
30  9  6

$$$$

