46173800
  -OEChem-07051213033D

 63 65  0     1  0  0  0  0  0999 V2000
    2.2611   -2.0094    1.3978 P   0  0  1  0  0  0  0  0  0  0  0  0
   -0.1357   -3.6155    0.8209 P   0  0  2  0  0  0  0  0  0  0  0  0
    1.5531    0.5937   -1.0162 O   0  0  0  0  0  0  0  0  0  0  0  0
   -3.4767   -1.1503   -0.3476 O   0  0  0  0  0  0  0  0  0  0  0  0
    4.7568    1.2513    0.2789 O   0  0  0  0  0  0  0  0  0  0  0  0
    3.7317    3.5444   -0.9878 O   0  0  0  0  0  0  0  0  0  0  0  0
    2.6641   -0.6118    0.6963 O   0  0  0  0  0  0  0  0  0  0  0  0
   -4.2412   -1.3066   -3.3079 O   0  0  0  0  0  0  0  0  0  0  0  0
   -1.5333   -3.0994    0.1906 O   0  0  0  0  0  0  0  0  0  0  0  0
    0.7214   -2.2531    0.9694 O   0  0  0  0  0  0  0  0  0  0  0  0
    3.0628   -3.1338    0.5548 O   0  0  0  0  0  0  0  0  0  0  0  0
    2.5028   -2.0564    2.8788 O   0  0  0  0  0  0  0  0  0  0  0  0
   -4.5097    2.8482   -0.2815 O   0  0  0  0  0  0  0  0  0  0  0  0
    0.5916   -4.3702   -0.4113 O   0  0  0  0  0  0  0  0  0  0  0  0
   -0.2483   -4.4231    2.0810 O   0  0  0  0  0  0  0  0  0  0  0  0
   -1.3616    3.4634    3.0139 O   0  0  0  0  0  0  0  0  0  0  0  0
   -3.0452    1.0889    0.1768 N   0  0  0  0  0  0  0  0  0  0  0  0
   -2.9347    3.1416    1.3596 N   0  0  0  0  0  0  0  0  0  0  0  0
    4.3886    1.1965   -1.1031 C   0  0  2  0  0  0  0  0  0  0  0  0
    3.2987    2.2477   -1.3855 C   0  0  1  0  0  0  0  0  0  0  0  0
    3.8295   -0.2053   -1.3934 C   0  0  0  0  0  0  0  0  0  0  0  0
    1.9991    1.9019   -0.6441 C   0  0  1  0  0  0  0  0  0  0  0  0
    2.4811   -0.4456   -0.7061 C   0  0  2  0  0  0  0  0  0  0  0  0
   -2.9811   -1.1238   -2.6659 C   0  0  2  0  0  0  0  0  0  0  0  0
   -2.9191   -1.9638   -1.3978 C   0  0  1  0  0  0  0  0  0  0  0  0
   -2.8756    0.2908   -2.1449 C   0  0  0  0  0  0  0  0  0  0  0  0
   -3.5939    0.2034   -0.8082 C   0  0  1  0  0  0  0  0  0  0  0  0
    5.6597    1.4406   -1.9212 C   0  0  0  0  0  0  0  0  0  0  0  0
    0.8762    2.8770   -0.9874 C   0  0  0  0  0  0  0  0  0  0  0  0
   -1.4957   -2.3315   -0.9996 C   0  0  0  0  0  0  0  0  0  0  0  0
   -1.9798    0.6428    0.9491 C   0  0  0  0  0  0  0  0  0  0  0  0
   -3.5672    2.3870    0.3656 C   0  0  0  0  0  0  0  0  0  0  0  0
   -1.3767    1.3677    1.8994 C   0  0  0  0  0  0  0  0  0  0  0  0
   -1.8708    2.7465    2.1565 C   0  0  0  0  0  0  0  0  0  0  0  0
   -0.2318    0.8664    2.7199 C   0  0  0  0  0  0  0  0  0  0  0  0
    3.0959    2.2728   -2.4645 H   0  0  0  0  0  0  0  0  0  0  0  0
    3.6880   -0.3088   -2.4768 H   0  0  0  0  0  0  0  0  0  0  0  0
    4.5415   -0.9721   -1.0646 H   0  0  0  0  0  0  0  0  0  0  0  0
    2.1475    1.9418    0.4422 H   0  0  0  0  0  0  0  0  0  0  0  0
    2.0536   -1.3645   -1.1215 H   0  0  0  0  0  0  0  0  0  0  0  0
   -2.2015   -1.3658   -3.3944 H   0  0  0  0  0  0  0  0  0  0  0  0
   -3.5358   -2.8671   -1.4619 H   0  0  0  0  0  0  0  0  0  0  0  0
   -3.3329    1.0402   -2.7985 H   0  0  0  0  0  0  0  0  0  0  0  0
   -1.8204    0.5582   -2.0096 H   0  0  0  0  0  0  0  0  0  0  0  0
   -4.6624    0.4116   -0.9397 H   0  0  0  0  0  0  0  0  0  0  0  0
    6.3985    0.6519   -1.7371 H   0  0  0  0  0  0  0  0  0  0  0  0
    5.4482    1.4681   -2.9950 H   0  0  0  0  0  0  0  0  0  0  0  0
    6.1425    2.3810   -1.6347 H   0  0  0  0  0  0  0  0  0  0  0  0
    0.6789    2.8807   -2.0652 H   0  0  0  0  0  0  0  0  0  0  0  0
    1.1154    3.8966   -0.6715 H   0  0  0  0  0  0  0  0  0  0  0  0
   -0.0570    2.5753   -0.5040 H   0  0  0  0  0  0  0  0  0  0  0  0
   -1.0549   -2.9363   -1.7983 H   0  0  0  0  0  0  0  0  0  0  0  0
   -0.8638   -1.4518   -0.8577 H   0  0  0  0  0  0  0  0  0  0  0  0
    5.4262    0.5648    0.4410 H   0  0  0  0  0  0  0  0  0  0  0  0
    4.4451    3.8166   -1.5889 H   0  0  0  0  0  0  0  0  0  0  0  0
   -4.2929   -2.2370   -3.5859 H   0  0  0  0  0  0  0  0  0  0  0  0
   -1.6188   -0.3577    0.7742 H   0  0  0  0  0  0  0  0  0  0  0  0
   -3.2940    4.0798    1.5128 H   0  0  0  0  0  0  0  0  0  0  0  0
    0.6688    1.4554    2.5204 H   0  0  0  0  0  0  0  0  0  0  0  0
   -0.0036   -0.1812    2.5071 H   0  0  0  0  0  0  0  0  0  0  0  0
   -0.4651    0.9388    3.7873 H   0  0  0  0  0  0  0  0  0  0  0  0
    3.0713   -4.0574    0.8850 H   0  0  0  0  0  0  0  0  0  0  0  0
    0.8123   -3.8698   -1.2252 H   0  0  0  0  0  0  0  0  0  0  0  0
  1  7  1  0  0  0  0
  1 10  1  0  0  0  0
  1 11  1  0  0  0  0
  1 12  2  0  0  0  0
  2  9  1  0  0  0  0
  2 10  1  0  0  0  0
  2 14  1  0  0  0  0
  2 15  2  0  0  0  0
  3 22  1  0  0  0  0
  3 23  1  0  0  0  0
  4 25  1  0  0  0  0
  4 27  1  0  0  0  0
  5 19  1  0  0  0  0
  5 54  1  0  0  0  0
  6 20  1  0  0  0  0
  6 55  1  0  0  0  0
  7 23  1  0  0  0  0
  8 24  1  0  0  0  0
  8 56  1  0  0  0  0
  9 30  1  0  0  0  0
 11 62  1  0  0  0  0
 13 32  2  0  0  0  0
 14 63  1  0  0  0  0
 16 34  2  0  0  0  0
 17 27  1  0  0  0  0
 17 31  1  0  0  0  0
 17 32  1  0  0  0  0
 18 32  1  0  0  0  0
 18 34  1  0  0  0  0
 18 58  1  0  0  0  0
 19 20  1  0  0  0  0
 19 21  1  0  0  0  0
 19 28  1  0  0  0  0
 20 22  1  0  0  0  0
 20 36  1  0  0  0  0
 21 23  1  0  0  0  0
 21 37  1  0  0  0  0
 21 38  1  0  0  0  0
 22 29  1  0  0  0  0
 22 39  1  0  0  0  0
 23 40  1  0  0  0  0
 24 25  1  0  0  0  0
 24 26  1  0  0  0  0
 24 41  1  0  0  0  0
 25 30  1  0  0  0  0
 25 42  1  0  0  0  0
 26 27  1  0  0  0  0
 26 43  1  0  0  0  0
 26 44  1  0  0  0  0
 27 45  1  0  0  0  0
 28 46  1  0  0  0  0
 28 47  1  0  0  0  0
 28 48  1  0  0  0  0
 29 49  1  0  0  0  0
 29 50  1  0  0  0  0
 29 51  1  0  0  0  0
 30 52  1  0  0  0  0
 30 53  1  0  0  0  0
 31 33  2  0  0  0  0
 31 57  1  0  0  0  0
 33 34  1  0  0  0  0
 33 35  1  0  0  0  0
 35 59  1  0  0  0  0
 35 60  1  0  0  0  0
 35 61  1  0  0  0  0
M  END
> <PUBCHEM_COMPOUND_CID>
46173800

> <PUBCHEM_CONFORMER_RMSD>
1.4

> <PUBCHEM_CONFORMER_DIVERSEORDER>
1
11
93
18
132
95
21
78
135
15
71
46
13
114
107
76
122
62
48
88
102
26
67
44
39
103
105
42
123
51
50
41
136
91
40
112
100
14
115
66
61
29
130
119
53
84
125
56
6
82
109
45
128
54
129
5
83
20
57
120
80
110
3
97
99
49
70
79
38
77
2
72
86
30
127
118
59
17
69
124
94
96
106
108
37
68
25
36
60
92
28
19
75
63
23
55
35
101
31
8
104
81
87
133
12
33
73
85
58
121
52
89
98
22
34
113
9
64
47
4
27
74
126
117
116
7
10
16
111
131
32
90
43
134
65
24

> <PUBCHEM_MMFF94_PARTIAL_CHARGES>
38
1 1.51
10 -0.54
11 -0.77
12 -0.7
13 -0.57
14 -0.77
15 -0.7
16 -0.57
17 -0.47
18 -0.49
19 0.28
2 1.51
20 0.28
22 0.28
23 0.56
24 0.28
25 0.28
27 0.58
3 -0.56
30 0.28
31 -0.04
32 0.69
33 -0.12
34 0.62
35 0.14
4 -0.56
5 -0.68
54 0.4
55 0.4
56 0.4
57 0.15
58 0.37
6 -0.68
62 0.5
63 0.5
7 -0.55
8 -0.68
9 -0.55

> <PUBCHEM_EFFECTIVE_ROTOR_COUNT>
10.2

> <PUBCHEM_PHARMACOPHORE_FEATURES>
18
1 11 acceptor
1 12 acceptor
1 13 acceptor
1 14 acceptor
1 15 acceptor
1 16 acceptor
1 18 donor
1 3 acceptor
1 4 acceptor
1 5 acceptor
1 5 donor
1 6 acceptor
1 6 donor
1 8 acceptor
1 8 donor
5 4 24 25 26 27 rings
6 17 18 31 32 33 34 rings
6 3 19 20 21 22 23 rings

> <PUBCHEM_HEAVY_ATOM_COUNT>
35

> <PUBCHEM_ATOM_DEF_STEREO_COUNT>
7

> <PUBCHEM_ATOM_UDEF_STEREO_COUNT>
0

> <PUBCHEM_BOND_DEF_STEREO_COUNT>
0

> <PUBCHEM_BOND_UDEF_STEREO_COUNT>
0

> <PUBCHEM_ISOTOPIC_ATOM_COUNT>
0

> <PUBCHEM_COMPONENT_COUNT>
1

> <PUBCHEM_CACTVS_TAUTO_COUNT>
3

> <PUBCHEM_CONFORMER_ID>
02C08E6800000001

> <PUBCHEM_MMFF94_ENERGY>
44.7562

> <PUBCHEM_FEATURE_SELFOVERLAP>
91.371

> <PUBCHEM_SHAPE_FINGERPRINT>
11513181 2 16232543937617497191
12166972 35 17982489080259383395
12788726 201 18260264127443407139
14114206 34 18260276213550281709
14279260 333 18335125502629955902
14289585 56 17476910728989475726
15463212 79 18336822078240209353
19311894 1 18341319029737941942
19319366 153 18336541716060260283
20511986 3 18336550524722556144
20775438 99 16023138112254123798
21796203 349 17551204678412928162
21860390 5 17552618666823196451
244849 19 15769219486757640402
3493558 16 16905530313196761036
35225 105 17550617259471658175
469060 322 16771249281304227315
474144 1 18194689387090976185
5895379 119 18260552272747337446
6609424 69 15958604016802758289

> <PUBCHEM_SHAPE_MULTIPOLES>
635.85
8.81
5.48
2.95
6
3
-0.54
-5.1
5.78
-0.82
-2.63
-1.57
-0.11
-3.96

> <PUBCHEM_SHAPE_SELFOVERLAP>
1293.346

> <PUBCHEM_SHAPE_VOLUME>
371.7

> <PUBCHEM_COORDINATE_TYPE>
2
5
10

$$$$

