46173996
  -OEChem-07051213113D

 67 72  0     1  0  0  0  0  0999 V2000
    1.5697   -0.9419    0.2849 O   0  0  0  0  0  0  0  0  0  0  0  0
   -3.1709   -0.3314    0.3133 O   0  0  0  0  0  0  0  0  0  0  0  0
   -0.2240    2.6140   -2.1781 O   0  0  0  0  0  0  0  0  0  0  0  0
   -5.3038    2.1529   -1.4062 O   0  0  0  0  0  0  0  0  0  0  0  0
    5.5003   -1.5938   -2.1001 O   0  0  0  0  0  0  0  0  0  0  0  0
    3.4599   -2.2447    2.1903 O   0  0  0  0  0  0  0  0  0  0  0  0
    2.8711    3.5571    2.9622 O   0  0  0  0  0  0  0  0  0  0  0  0
    4.2018    5.5212    1.5141 O   0  0  0  0  0  0  0  0  0  0  0  0
   -7.4472   -2.9353   -1.0056 O   0  0  0  0  0  0  0  0  0  0  0  0
    5.9347   -5.7700    0.1532 O   0  0  0  0  0  0  0  0  0  0  0  0
   -9.0726   -2.1979    1.1250 O   0  0  0  0  0  0  0  0  0  0  0  0
    2.0845    0.9792   -1.1318 C   0  0  1  0  0  0  0  0  0  0  0  0
    2.5598   -0.4145   -0.6395 C   0  0  1  0  0  0  0  0  0  0  0  0
    0.6199    0.7859   -0.9143 C   0  0  0  0  0  0  0  0  0  0  0  0
    0.4107   -0.3086   -0.0884 C   0  0  0  0  0  0  0  0  0  0  0  0
   -1.7459    1.1771   -0.9850 C   0  0  0  0  0  0  0  0  0  0  0  0
    3.9366   -0.4802    0.0046 C   0  0  0  0  0  0  0  0  0  0  0  0
   -0.4464    1.5402   -1.3731 C   0  0  0  0  0  0  0  0  0  0  0  0
   -2.9127    1.9856   -1.4686 C   0  0  0  0  0  0  0  0  0  0  0  0
    2.6487    2.1927   -0.4216 C   0  0  0  0  0  0  0  0  0  0  0  0
   -4.2256    1.2325   -1.2736 C   0  0  1  0  0  0  0  0  0  0  0  0
   -1.9375    0.0818   -0.1186 C   0  0  0  0  0  0  0  0  0  0  0  0
   -4.2455    0.6028    0.1257 C   0  0  1  0  0  0  0  0  0  0  0  0
   -0.8517   -0.6778    0.3295 C   0  0  0  0  0  0  0  0  0  0  0  0
    4.4691   -1.8881    0.0444 C   0  0  0  0  0  0  0  0  0  0  0  0
   -5.5374   -0.1483    0.3900 C   0  0  0  0  0  0  0  0  0  0  0  0
    2.5002    2.3244    0.9591 C   0  0  0  0  0  0  0  0  0  0  0  0
    3.3172    3.1778   -1.1484 C   0  0  0  0  0  0  0  0  0  0  0  0
    5.2293   -2.3765   -1.0182 C   0  0  0  0  0  0  0  0  0  0  0  0
    4.2011   -2.7043    1.1434 C   0  0  0  0  0  0  0  0  0  0  0  0
    3.0206    3.4412    1.6131 C   0  0  0  0  0  0  0  0  0  0  0  0
    3.8374    4.2948   -0.4943 C   0  0  0  0  0  0  0  0  0  0  0  0
   -5.9093   -1.2087   -0.4363 C   0  0  0  0  0  0  0  0  0  0  0  0
   -6.3526    0.2213    1.4598 C   0  0  0  0  0  0  0  0  0  0  0  0
    3.6891    4.4264    0.8864 C   0  0  0  0  0  0  0  0  0  0  0  0
    5.7216   -3.6811   -0.9818 C   0  0  0  0  0  0  0  0  0  0  0  0
    4.6935   -4.0089    1.1799 C   0  0  0  0  0  0  0  0  0  0  0  0
   -7.0962   -1.8998   -0.1928 C   0  0  0  0  0  0  0  0  0  0  0  0
   -7.5397   -0.4697    1.7032 C   0  0  0  0  0  0  0  0  0  0  0  0
    5.4538   -4.4973    0.1173 C   0  0  0  0  0  0  0  0  0  0  0  0
   -7.9115   -1.5302    0.8770 C   0  0  0  0  0  0  0  0  0  0  0  0
    2.3026    1.0470   -2.2056 H   0  0  0  0  0  0  0  0  0  0  0  0
    2.5377   -1.0935   -1.5075 H   0  0  0  0  0  0  0  0  0  0  0  0
    3.9161   -0.0824    1.0260 H   0  0  0  0  0  0  0  0  0  0  0  0
    4.6459    0.1512   -0.5447 H   0  0  0  0  0  0  0  0  0  0  0  0
   -2.8053    2.2332   -2.5320 H   0  0  0  0  0  0  0  0  0  0  0  0
   -2.9383    2.9383   -0.9238 H   0  0  0  0  0  0  0  0  0  0  0  0
   -4.3194    0.4668   -2.0535 H   0  0  0  0  0  0  0  0  0  0  0  0
   -4.1417    1.3916    0.8845 H   0  0  0  0  0  0  0  0  0  0  0  0
   -0.9947   -1.5288    0.9872 H   0  0  0  0  0  0  0  0  0  0  0  0
    1.9833    1.5647    1.5388 H   0  0  0  0  0  0  0  0  0  0  0  0
    3.4408    3.0888   -2.2243 H   0  0  0  0  0  0  0  0  0  0  0  0
    0.7212    2.6802   -2.3895 H   0  0  0  0  0  0  0  0  0  0  0  0
   -5.2484    2.5422   -2.2956 H   0  0  0  0  0  0  0  0  0  0  0  0
    4.3560    5.0547   -1.0726 H   0  0  0  0  0  0  0  0  0  0  0  0
   -5.2724   -1.5087   -1.2646 H   0  0  0  0  0  0  0  0  0  0  0  0
   -6.0767    1.0451    2.1125 H   0  0  0  0  0  0  0  0  0  0  0  0
    6.3143   -4.0631   -1.8096 H   0  0  0  0  0  0  0  0  0  0  0  0
    4.4891   -4.6515    2.0328 H   0  0  0  0  0  0  0  0  0  0  0  0
   -8.1655   -0.1713    2.5401 H   0  0  0  0  0  0  0  0  0  0  0  0
    6.0368   -2.1008   -2.7333 H   0  0  0  0  0  0  0  0  0  0  0  0
    3.3782   -2.9491    2.8558 H   0  0  0  0  0  0  0  0  0  0  0  0
    2.3850    2.7836    3.2958 H   0  0  0  0  0  0  0  0  0  0  0  0
    4.6287    6.0938    0.8539 H   0  0  0  0  0  0  0  0  0  0  0  0
   -6.7655   -3.0468   -1.6902 H   0  0  0  0  0  0  0  0  0  0  0  0
    6.4378   -5.9405   -0.6616 H   0  0  0  0  0  0  0  0  0  0  0  0
   -9.5042   -1.8045    1.9028 H   0  0  0  0  0  0  0  0  0  0  0  0
  1 13  1  0  0  0  0
  1 15  1  0  0  0  0
  2 22  1  0  0  0  0
  2 23  1  0  0  0  0
  3 18  1  0  0  0  0
  3 53  1  0  0  0  0
  4 21  1  0  0  0  0
  4 54  1  0  0  0  0
  5 29  1  0  0  0  0
  5 61  1  0  0  0  0
  6 30  1  0  0  0  0
  6 62  1  0  0  0  0
  7 31  1  0  0  0  0
  7 63  1  0  0  0  0
  8 35  1  0  0  0  0
  8 64  1  0  0  0  0
  9 38  1  0  0  0  0
  9 65  1  0  0  0  0
 10 40  1  0  0  0  0
 10 66  1  0  0  0  0
 11 41  1  0  0  0  0
 11 67  1  0  0  0  0
 12 13  1  0  0  0  0
 12 14  1  0  0  0  0
 12 20  1  0  0  0  0
 12 42  1  0  0  0  0
 13 17  1  0  0  0  0
 13 43  1  0  0  0  0
 14 15  2  0  0  0  0
 14 18  1  0  0  0  0
 15 24  1  0  0  0  0
 16 18  2  0  0  0  0
 16 19  1  0  0  0  0
 16 22  1  0  0  0  0
 17 25  1  0  0  0  0
 17 44  1  0  0  0  0
 17 45  1  0  0  0  0
 19 21  1  0  0  0  0
 19 46  1  0  0  0  0
 19 47  1  0  0  0  0
 20 27  2  0  0  0  0
 20 28  1  0  0  0  0
 21 23  1  0  0  0  0
 21 48  1  0  0  0  0
 22 24  2  0  0  0  0
 23 26  1  0  0  0  0
 23 49  1  0  0  0  0
 24 50  1  0  0  0  0
 25 29  2  0  0  0  0
 25 30  1  0  0  0  0
 26 33  2  0  0  0  0
 26 34  1  0  0  0  0
 27 31  1  0  0  0  0
 27 51  1  0  0  0  0
 28 32  2  0  0  0  0
 28 52  1  0  0  0  0
 29 36  1  0  0  0  0
 30 37  2  0  0  0  0
 31 35  2  0  0  0  0
 32 35  1  0  0  0  0
 32 55  1  0  0  0  0
 33 38  1  0  0  0  0
 33 56  1  0  0  0  0
 34 39  2  0  0  0  0
 34 57  1  0  0  0  0
 36 40  2  0  0  0  0
 36 58  1  0  0  0  0
 37 40  1  0  0  0  0
 37 59  1  0  0  0  0
 38 41  2  0  0  0  0
 39 41  1  0  0  0  0
 39 60  1  0  0  0  0
M  END
> <PUBCHEM_COMPOUND_CID>
46173996

> <PUBCHEM_CONFORMER_RMSD>
1

> <PUBCHEM_CONFORMER_DIVERSEORDER>
1
28
10
9
16
22
15
30
14
26
31
12
18
2
33
23
21
13
19
24
20
4
17
29
32
3
6
7
27
8
11
5
25

> <PUBCHEM_MMFF94_PARTIAL_CHARGES>
59
1 -0.36
10 -0.53
11 -0.53
12 0.29
13 0.28
14 -0.14
15 0.08
16 -0.14
17 0.14
18 0.08
19 0.14
2 -0.36
20 -0.14
21 0.28
22 0.08
23 0.42
24 -0.15
25 -0.14
26 -0.14
27 -0.15
28 -0.15
29 0.08
3 -0.53
30 0.08
31 0.08
32 -0.15
33 -0.15
34 -0.15
35 0.08
36 -0.15
37 -0.15
38 0.08
39 -0.15
4 -0.68
40 0.08
41 0.08
5 -0.53
50 0.15
51 0.15
52 0.15
53 0.45
54 0.4
55 0.15
56 0.15
57 0.15
58 0.15
59 0.15
6 -0.53
60 0.15
61 0.45
62 0.45
63 0.45
64 0.45
65 0.45
66 0.45
67 0.45
7 -0.53
8 -0.53
9 -0.53

> <PUBCHEM_EFFECTIVE_ROTOR_COUNT>
5.4

> <PUBCHEM_PHARMACOPHORE_FEATURES>
18
1 1 acceptor
1 10 donor
1 11 donor
1 2 acceptor
1 3 donor
1 4 acceptor
1 4 donor
1 5 donor
1 6 donor
1 7 donor
1 8 donor
1 9 donor
5 1 12 13 14 15 rings
6 14 15 16 18 22 24 rings
6 2 16 19 21 22 23 rings
6 20 27 28 31 32 35 rings
6 25 29 30 36 37 40 rings
6 26 33 34 38 39 41 rings

> <PUBCHEM_HEAVY_ATOM_COUNT>
41

> <PUBCHEM_ATOM_DEF_STEREO_COUNT>
4

> <PUBCHEM_ATOM_UDEF_STEREO_COUNT>
0

> <PUBCHEM_BOND_DEF_STEREO_COUNT>
0

> <PUBCHEM_BOND_UDEF_STEREO_COUNT>
0

> <PUBCHEM_ISOTOPIC_ATOM_COUNT>
0

> <PUBCHEM_COMPONENT_COUNT>
1

> <PUBCHEM_CACTVS_TAUTO_COUNT>
994

> <PUBCHEM_CONFORMER_ID>
02C08F2C00000001

> <PUBCHEM_MMFF94_ENERGY>
126.4725

> <PUBCHEM_FEATURE_SELFOVERLAP>
91.48

> <PUBCHEM_SHAPE_FINGERPRINT>
10165383 225 18194114115273054484
10169797 241 18060702783860277283
10721379 63 18261104137595792232
11062273 23 17474124562567360120
11297750 10 18271812375284729716
11399939 17 17896899680680680110
11411753 3 18202293511215564229
11621639 148 18336555984675600546
12166972 35 18334291011004416538
12342043 65 18272933864223028037
12522641 24 18261387806525422265
12788726 201 17402628831892764944
13008946 335 18046914775838221712
13533116 47 18411133606827159977
13540713 4 18130241427267366253
1361 4 18267302028965791767
13782708 43 18341894117237150063
14150023 79 18338235934962271524
14565420 104 18044941160375920032
14955137 171 18191877918784365838
15001296 14 18271251512912767539
15324884 4 17914925168753399428
15392192 104 17842832227461282393
15444296 121 17974285731442032953
16990366 60 18199758101578632122
18393751 57 17905339428640320009
19841028 212 18340492158872476479
20505436 4 17533497833700538692
20775438 99 18128263285141805467
21049683 271 18342167896001868372
21130935 74 18339917127106863011
21987483 16 18192427477721569179
23522609 53 17910918599773710772
23559900 14 18201162143129583941
23569943 247 18199742712943140355
24771750 20 18200021834514727404
25242607 90 18264495160147604386
32027 91 18339652225707334127
3504750 166 18408884062852415631
44317340 157 18408888408789996749
5104073 3 18410575098419029729
5912855 24 17972043539691650919
6086070 43 18267306611051870353
6697151 62 18121524558879044908
9831232 110 18272090521719775367
9962374 69 18335991891189999799

> <PUBCHEM_SHAPE_MULTIPOLES>
779.2
20.86
6.8
1.84
43.74
0.47
-0.5
-21.94
-4.1
-17.8
-1.98
-0.59
1.14
2.47

> <PUBCHEM_SHAPE_SELFOVERLAP>
1753.037

> <PUBCHEM_SHAPE_VOLUME>
407.7

> <PUBCHEM_COORDINATE_TYPE>
2
5
10

$$$$

