5280992
  -OEChem-07051212523D

 53 53  0     0  0  0  0  0  0999 V2000
  -10.2197   -1.0752   -0.5221 O   0  0  0  0  0  0  0  0  0  0  0  0
    5.4860    0.6873   -0.5180 C   0  0  0  0  0  0  0  0  0  0  0  0
    6.8299   -0.0875   -0.4381 C   0  0  0  0  0  0  0  0  0  0  0  0
    6.6623   -1.5629   -0.7546 C   0  0  0  0  0  0  0  0  0  0  0  0
    4.3396   -0.0884    0.1725 C   0  0  0  0  0  0  0  0  0  0  0  0
    5.7063   -2.2040    0.2399 C   0  0  0  0  0  0  0  0  0  0  0  0
    4.4620   -1.3904    0.5343 C   0  0  0  0  0  0  0  0  0  0  0  0
    5.1289    0.9227   -2.0039 C   0  0  0  0  0  0  0  0  0  0  0  0
    5.7452    2.0602    0.1491 C   0  0  0  0  0  0  0  0  0  0  0  0
    3.1122    0.6610    0.3854 C   0  0  0  0  0  0  0  0  0  0  0  0
    3.4170   -2.2075    1.2585 C   0  0  0  0  0  0  0  0  0  0  0  0
    1.8908    0.1392    0.1917 C   0  0  0  0  0  0  0  0  0  0  0  0
    0.6057    0.8213    0.3814 C   0  0  0  0  0  0  0  0  0  0  0  0
    0.6499    2.2545    0.8498 C   0  0  0  0  0  0  0  0  0  0  0  0
   -0.5275    0.1284    0.1350 C   0  0  0  0  0  0  0  0  0  0  0  0
   -1.8945    0.6025    0.2406 C   0  0  0  0  0  0  0  0  0  0  0  0
   -3.0080   -0.1072   -0.0104 C   0  0  0  0  0  0  0  0  0  0  0  0
   -4.3896    0.3378    0.0859 C   0  0  0  0  0  0  0  0  0  0  0  0
   -4.5380    1.7597    0.5564 C   0  0  0  0  0  0  0  0  0  0  0  0
   -5.4708   -0.4220   -0.1797 C   0  0  0  0  0  0  0  0  0  0  0  0
   -6.8609   -0.0188   -0.0965 C   0  0  0  0  0  0  0  0  0  0  0  0
   -7.8698   -0.8516   -0.3823 C   0  0  0  0  0  0  0  0  0  0  0  0
   -9.2571   -0.3590   -0.2748 C   0  0  0  0  0  0  0  0  0  0  0  0
    7.2570    0.0057    0.5703 H   0  0  0  0  0  0  0  0  0  0  0  0
    7.5665    0.3501   -1.1238 H   0  0  0  0  0  0  0  0  0  0  0  0
    7.6334   -2.0691   -0.7083 H   0  0  0  0  0  0  0  0  0  0  0  0
    6.2891   -1.6974   -1.7764 H   0  0  0  0  0  0  0  0  0  0  0  0
    6.2343   -2.3771    1.1867 H   0  0  0  0  0  0  0  0  0  0  0  0
    5.4204   -3.1889   -0.1499 H   0  0  0  0  0  0  0  0  0  0  0  0
    4.2520    1.5725   -2.1073 H   0  0  0  0  0  0  0  0  0  0  0  0
    5.9548    1.4074   -2.5370 H   0  0  0  0  0  0  0  0  0  0  0  0
    4.9009   -0.0149   -2.5223 H   0  0  0  0  0  0  0  0  0  0  0  0
    4.9362    2.7741   -0.0394 H   0  0  0  0  0  0  0  0  0  0  0  0
    5.8664    1.9600    1.2340 H   0  0  0  0  0  0  0  0  0  0  0  0
    6.6600    2.5194   -0.2452 H   0  0  0  0  0  0  0  0  0  0  0  0
    3.2181    1.6738    0.7559 H   0  0  0  0  0  0  0  0  0  0  0  0
    2.8382   -2.8096    0.5513 H   0  0  0  0  0  0  0  0  0  0  0  0
    2.7447   -1.6091    1.8785 H   0  0  0  0  0  0  0  0  0  0  0  0
    3.9038   -2.8987    1.9574 H   0  0  0  0  0  0  0  0  0  0  0  0
    1.8026   -0.8657   -0.2166 H   0  0  0  0  0  0  0  0  0  0  0  0
   -0.3313    2.7138    0.9805 H   0  0  0  0  0  0  0  0  0  0  0  0
    1.1552    2.3244    1.8197 H   0  0  0  0  0  0  0  0  0  0  0  0
    1.1903    2.8763    0.1269 H   0  0  0  0  0  0  0  0  0  0  0  0
   -0.4482   -0.9087   -0.1924 H   0  0  0  0  0  0  0  0  0  0  0  0
   -2.0013    1.6350    0.5514 H   0  0  0  0  0  0  0  0  0  0  0  0
   -2.8876   -1.1435   -0.3264 H   0  0  0  0  0  0  0  0  0  0  0  0
   -4.0725    1.8919    1.5408 H   0  0  0  0  0  0  0  0  0  0  0  0
   -4.0662    2.4506   -0.1527 H   0  0  0  0  0  0  0  0  0  0  0  0
   -5.5619    2.1145    0.6742 H   0  0  0  0  0  0  0  0  0  0  0  0
   -5.3044   -1.4500   -0.5013 H   0  0  0  0  0  0  0  0  0  0  0  0
   -7.1041    0.9934    0.2014 H   0  0  0  0  0  0  0  0  0  0  0  0
   -7.7194   -1.8798   -0.6910 H   0  0  0  0  0  0  0  0  0  0  0  0
   -9.3816    0.6901    0.0414 H   0  0  0  0  0  0  0  0  0  0  0  0
  1 23  2  0  0  0  0
  2  3  1  0  0  0  0
  2  5  1  0  0  0  0
  2  8  1  0  0  0  0
  2  9  1  0  0  0  0
  3  4  1  0  0  0  0
  3 24  1  0  0  0  0
  3 25  1  0  0  0  0
  4  6  1  0  0  0  0
  4 26  1  0  0  0  0
  4 27  1  0  0  0  0
  5  7  2  0  0  0  0
  5 10  1  0  0  0  0
  6  7  1  0  0  0  0
  6 28  1  0  0  0  0
  6 29  1  0  0  0  0
  7 11  1  0  0  0  0
  8 30  1  0  0  0  0
  8 31  1  0  0  0  0
  8 32  1  0  0  0  0
  9 33  1  0  0  0  0
  9 34  1  0  0  0  0
  9 35  1  0  0  0  0
 10 12  2  0  0  0  0
 10 36  1  0  0  0  0
 11 37  1  0  0  0  0
 11 38  1  0  0  0  0
 11 39  1  0  0  0  0
 12 13  1  0  0  0  0
 12 40  1  0  0  0  0
 13 14  1  0  0  0  0
 13 15  2  0  0  0  0
 14 41  1  0  0  0  0
 14 42  1  0  0  0  0
 14 43  1  0  0  0  0
 15 16  1  0  0  0  0
 15 44  1  0  0  0  0
 16 17  2  0  0  0  0
 16 45  1  0  0  0  0
 17 18  1  0  0  0  0
 17 46  1  0  0  0  0
 18 19  1  0  0  0  0
 18 20  2  0  0  0  0
 19 47  1  0  0  0  0
 19 48  1  0  0  0  0
 19 49  1  0  0  0  0
 20 21  1  0  0  0  0
 20 50  1  0  0  0  0
 21 22  2  0  0  0  0
 21 51  1  0  0  0  0
 22 23  1  0  0  0  0
 22 52  1  0  0  0  0
 23 53  1  0  0  0  0
M  END
> <PUBCHEM_COMPOUND_CID>
5280992

> <PUBCHEM_CONFORMER_RMSD>
0.8

> <PUBCHEM_CONFORMER_DIVERSEORDER>
16
13
7
14
4
31
24
12
26
22
11
21
3
20
23
32
5
34
33
18
27
17
1
19
15
8
2
29
28
35
6
36
10
9
25
30

> <PUBCHEM_MMFF94_PARTIAL_CHARGES>
28
1 -0.57
10 -0.15
11 0.14
12 -0.15
13 -0.14
14 0.14
15 -0.15
16 -0.15
17 -0.15
18 -0.14
19 0.14
2 0.14
20 -0.15
21 -0.15
22 -0.14
23 0.5
36 0.15
40 0.15
44 0.15
45 0.15
46 0.15
5 -0.14
50 0.15
51 0.15
52 0.15
53 0.06
6 0.14
7 -0.28

> <PUBCHEM_EFFECTIVE_ROTOR_COUNT>
6.8

> <PUBCHEM_PHARMACOPHORE_FEATURES>
5
1 1 acceptor
1 14 hydrophobe
1 19 hydrophobe
3 2 8 9 hydrophobe
6 2 3 4 5 6 7 rings

> <PUBCHEM_HEAVY_ATOM_COUNT>
23

> <PUBCHEM_ATOM_DEF_STEREO_COUNT>
0

> <PUBCHEM_ATOM_UDEF_STEREO_COUNT>
0

> <PUBCHEM_BOND_DEF_STEREO_COUNT>
5

> <PUBCHEM_BOND_UDEF_STEREO_COUNT>
0

> <PUBCHEM_ISOTOPIC_ATOM_COUNT>
0

> <PUBCHEM_COMPONENT_COUNT>
1

> <PUBCHEM_CACTVS_TAUTO_COUNT>
1

> <PUBCHEM_CONFORMER_ID>
005094E000000010

> <PUBCHEM_MMFF94_ENERGY>
54.183

> <PUBCHEM_FEATURE_SELFOVERLAP>
25.371

> <PUBCHEM_SHAPE_FINGERPRINT>
10 15 8214141867893400653
10299344 5 18408039624446505419
10595046 47 18341328989503389528
11135609 127 17845368852447839900
11315181 36 13470687058666619197
11408170 132 17988648540493250877
11524674 6 16008751291099686487
11638347 137 4751161808900647765
12082328 90 18343024411438816917
12166972 35 17967533454589732561
12236239 1 18336261331989625992
125118 31 9727640513979480367
12516196 113 18186523215468646984
12592606 108 18187087226964766479
13533116 47 18341328994330775538
13617811 41 18131354089805479020
13668630 136 18259983811949766990
13685833 64 18113618984491936249
13885169 127 18408886270244397273
14251764 18 18334572452264875737
14251764 46 18343585135876316392
15152005 1 17762622089981311786
15183329 4 18273214231050495625
15348495 7 4822915971867676927
15475509 35 14924498771682874486
15690457 1 18040158409839158487
16120349 18 18201440229593304245
17134984 74 17989489623564241234
1754908 1 5328459333299294415
1818759 1 18333728006187415967
20554085 129 13254799010054527901
20771845 140 17095812113538323366
21150785 3 17418095408473138901
21267235 1 18333449838140091193
21315763 28 18336264625738990000
21360442 33 17488471935011121490
21360442 67 17704070681312260155
21360443 126 17274818026161054403
21362267 313 9582701779568595941
22224240 67 7709458321262537877
22956985 138 16954202824094207830
23081809 10 18410288150936312417
23522609 53 18119217714760161281
23559900 14 18339366241347343553
246663 6 18040714758527786639
28498 318 18407762547695615031
3004659 81 18271525386139404458
33532 11 18335423478354428927
34797466 226 17095520669636238200
4073 2 18130503020444330930
4325135 7 18202563977425723110
465052 167 17967531290168125780
5283156 175 18410572890673418565

> <PUBCHEM_SHAPE_MULTIPOLES>
467.46
28.31
1.99
1.01
63.38
0.08
-0.25
10
-7.35
-3.05
0.47
-1.25
-0.06
-1.28

> <PUBCHEM_SHAPE_SELFOVERLAP>
935.835

> <PUBCHEM_SHAPE_VOLUME>
274.7

> <PUBCHEM_COORDINATE_TYPE>
2
5
10

$$$$

