23657839
  -OEChem-07051213153D

 28 29  0     1  0  0  0  0  0999 V2000
    1.8231   -1.3953    1.6216 O   0  0  0  0  0  0  0  0  0  0  0  0
    2.9014    2.6359   -0.2876 O   0  0  0  0  0  0  0  0  0  0  0  0
    3.5601   -1.4712    0.1662 O   0  0  0  0  0  0  0  0  0  0  0  0
   -1.5543   -1.9424   -0.5874 N   0  0  0  0  0  0  0  0  0  0  0  0
    3.3458    1.2661   -0.1329 N   0  0  0  0  0  0  0  0  0  0  0  0
   -0.0696   -0.3002   -0.7483 C   0  0  0  0  0  0  0  0  0  0  0  0
    1.1860    0.4345   -1.0037 C   0  0  0  0  0  0  0  0  0  0  0  0
   -1.2916    0.2502   -0.2701 C   0  0  0  0  0  0  0  0  0  0  0  0
    2.1386    0.5104    0.2119 C   0  0  1  0  0  0  0  0  0  0  0  0
   -2.2063   -0.8011   -0.1782 C   0  0  0  0  0  0  0  0  0  0  0  0
   -0.2625   -1.6498   -0.9338 C   0  0  0  0  0  0  0  0  0  0  0  0
   -1.7086    1.5457    0.0944 C   0  0  0  0  0  0  0  0  0  0  0  0
   -3.5224   -0.6207    0.2619 C   0  0  0  0  0  0  0  0  0  0  0  0
    2.5959   -0.8765    0.6316 C   0  0  0  0  0  0  0  0  0  0  0  0
   -3.0221    1.7412    0.5364 C   0  0  0  0  0  0  0  0  0  0  0  0
   -3.9135    0.6732    0.6180 C   0  0  0  0  0  0  0  0  0  0  0  0
    0.9383    1.4458   -1.3513 H   0  0  0  0  0  0  0  0  0  0  0  0
    1.7089   -0.0456   -1.8435 H   0  0  0  0  0  0  0  0  0  0  0  0
    1.6437    0.9823    1.0708 H   0  0  0  0  0  0  0  0  0  0  0  0
    0.4013   -2.4294   -1.2813 H   0  0  0  0  0  0  0  0  0  0  0  0
   -1.9700   -2.8628   -0.6262 H   0  0  0  0  0  0  0  0  0  0  0  0
   -1.0262    2.3891    0.0383 H   0  0  0  0  0  0  0  0  0  0  0  0
   -4.2170   -1.4515    0.3258 H   0  0  0  0  0  0  0  0  0  0  0  0
    3.9446    1.3542    0.6875 H   0  0  0  0  0  0  0  0  0  0  0  0
   -3.3491    2.7383    0.8192 H   0  0  0  0  0  0  0  0  0  0  0  0
   -4.9291    0.8476    0.9642 H   0  0  0  0  0  0  0  0  0  0  0  0
    2.1285   -2.2866    1.8944 H   0  0  0  0  0  0  0  0  0  0  0  0
    3.3049    2.8394   -1.1483 H   0  0  0  0  0  0  0  0  0  0  0  0
  1 14  1  0  0  0  0
  1 27  1  0  0  0  0
  2  5  1  0  0  0  0
  2 28  1  0  0  0  0
  3 14  2  0  0  0  0
  4 10  1  0  0  0  0
  4 11  1  0  0  0  0
  4 21  1  0  0  0  0
  5  9  1  0  0  0  0
  5 24  1  0  0  0  0
  6  7  1  0  0  0  0
  6  8  1  0  0  0  0
  6 11  2  0  0  0  0
  7  9  1  0  0  0  0
  7 17  1  0  0  0  0
  7 18  1  0  0  0  0
  8 10  1  0  0  0  0
  8 12  2  0  0  0  0
  9 14  1  0  0  0  0
  9 19  1  0  0  0  0
 10 13  2  0  0  0  0
 11 20  1  0  0  0  0
 12 15  1  0  0  0  0
 12 22  1  0  0  0  0
 13 16  1  0  0  0  0
 13 23  1  0  0  0  0
 15 16  2  0  0  0  0
 15 25  1  0  0  0  0
 16 26  1  0  0  0  0
M  END
> <PUBCHEM_COMPOUND_CID>
23657839

> <PUBCHEM_CONFORMER_RMSD>
0.6

> <PUBCHEM_CONFORMER_DIVERSEORDER>
1
44
3
28
17
41
33
31
34
8
35
37
42
20
45
25
24
39
2
36
46
14
4
13
47
18
40
26
32
21
30
5
22
7
19
23
38
6
16
43
29
9
11
10
27
12
15

> <PUBCHEM_MMFF94_PARTIAL_CHARGES>
24
1 -0.65
10 -0.15
11 -0.3
12 -0.15
13 -0.15
14 0.66
15 -0.15
16 -0.15
2 -0.3
20 0.15
21 0.27
22 0.15
23 0.15
24 0.36
25 0.15
26 0.15
27 0.5
28 0.4
3 -0.57
4 0.03
5 -0.73
6 -0.18
7 0.18
9 0.33

> <PUBCHEM_EFFECTIVE_ROTOR_COUNT>
4

> <PUBCHEM_PHARMACOPHORE_FEATURES>
8
1 1 acceptor
1 2 anion
1 3 acceptor
1 4 cation
1 4 donor
3 1 3 14 anion
5 4 6 8 10 11 rings
6 8 10 12 13 15 16 rings

> <PUBCHEM_HEAVY_ATOM_COUNT>
16

> <PUBCHEM_ATOM_DEF_STEREO_COUNT>
1

> <PUBCHEM_ATOM_UDEF_STEREO_COUNT>
0

> <PUBCHEM_BOND_DEF_STEREO_COUNT>
0

> <PUBCHEM_BOND_UDEF_STEREO_COUNT>
0

> <PUBCHEM_ISOTOPIC_ATOM_COUNT>
0

> <PUBCHEM_COMPONENT_COUNT>
1

> <PUBCHEM_CACTVS_TAUTO_COUNT>
1

> <PUBCHEM_CONFORMER_ID>
0168FD6F00000001

> <PUBCHEM_MMFF94_ENERGY>
20.4594

> <PUBCHEM_FEATURE_SELFOVERLAP>
40.745

> <PUBCHEM_SHAPE_FINGERPRINT>
12202030 40 15051464880451528274
12251169 10 18411421751640083378
12932764 1 17917716837238954286
13538477 17 18338240366476880039
13583140 156 17846499287823776393
14144814 61 18410292518854410885
14787075 74 17552635846829926635
15076042 46 18408888451101034703
15442244 35 18409730707357466820
15669948 3 18042407941334968799
15775835 57 18409162186483465512
16945 1 18268439112122772479
17804303 29 18337946921611042278
17846911 113 18040998488109256641
18186145 218 17314495114677379077
19422 9 18412545405310847722
201361 129 18341049627766418544
20233049 118 17748826311106039520
20510252 161 18113889430245702041
21501502 16 18261678086211138527
21524375 3 17968380147293712007
22445834 79 18201163246851496794
23236772 104 18196938768516320159
23402539 116 18186814582287595519
23463225 33 18411136965280543325
23559900 14 17968646237259692950
23598294 1 18115592517606541215
2748010 2 17398670585046779333
474 4 17843681063259809812
6333272 397 18333726948981480109
7097593 13 18270409419854003922
7364860 26 18409446977754989044
81228 2 16084494327079641527

> <PUBCHEM_SHAPE_MULTIPOLES>
301.7
6.48
2.15
0.99
0.24
0.56
0.13
1.48
1.54
0.66
-0.12
0.3
-0.26
-0.86

> <PUBCHEM_SHAPE_SELFOVERLAP>
646.622

> <PUBCHEM_SHAPE_VOLUME>
167.6

> <PUBCHEM_COORDINATE_TYPE>
2
5
10

$$$$

