53297434
  -OEChem-07051213142D

 37 41  0     1  0  0  0  0  0999 V2000
    7.4592   -2.9434    0.0000 O   0  0  0  0  0  0  0  0  0  0  0  0
    6.5929   -2.4429    0.0000 C   0  0  3  0  0  0  0  0  0  0  0  0
    7.4589   -1.9429    0.0000 C   0  0  3  0  0  0  0  0  0  0  0  0
    5.7269   -1.9429    0.0000 C   0  0  0  0  0  0  0  0  0  0  0  0
    5.7269   -0.9429    0.0000 C   0  0  0  0  0  0  0  0  0  0  0  0
    7.4589   -0.9429    0.0000 C   0  0  0  0  0  0  0  0  0  0  0  0
    4.8329   -0.4082    0.0000 C   0  0  0  0  0  0  0  0  0  0  0  0
    6.5929   -0.4429    0.0000 C   0  0  0  0  0  0  0  0  0  0  0  0
    3.9269   -0.9221    0.0000 C   0  0  0  0  0  0  0  0  0  0  0  0
    4.8329   -2.4776    0.0000 C   0  0  0  0  0  0  0  0  0  0  0  0
    4.8580    0.6765    0.0000 C   0  0  0  0  0  0  0  0  0  0  0  0
    3.9269   -1.9637    0.0000 C   0  0  0  0  0  0  0  0  0  0  0  0
    2.9831   -0.3869    0.0000 C   0  0  0  0  0  0  0  0  0  0  0  0
    3.9269    1.2334    0.0000 C   0  0  0  0  0  0  0  0  0  0  0  0
    2.9831    0.6981    0.0000 C   0  0  0  0  0  0  0  0  0  0  0  0
    5.7335    1.1597    0.0000 C   0  0  0  0  0  0  0  0  0  0  0  0
    2.1190   -0.8902    0.0000 C   0  0  0  0  0  0  0  0  0  0  0  0
    3.9530    2.3632    0.0000 C   0  0  0  0  0  0  0  0  0  0  0  0
    2.0000    1.2557    0.0000 C   0  0  0  0  0  0  0  0  0  0  0  0
    2.9831    2.9434    0.0000 C   0  0  0  0  0  0  0  0  0  0  0  0
    2.0000    2.3858    0.0000 C   0  0  0  0  0  0  0  0  0  0  0  0
    6.2828   -2.9798    0.0000 H   0  0  0  0  0  0  0  0  0  0  0  0
    8.0789   -1.9428    0.0000 H   0  0  0  0  0  0  0  0  0  0  0  0
    7.9959   -0.6329    0.0000 H   0  0  0  0  0  0  0  0  0  0  0  0
    6.5929    0.1771    0.0000 H   0  0  0  0  0  0  0  0  0  0  0  0
    4.8401   -3.0975    0.0000 H   0  0  0  0  0  0  0  0  0  0  0  0
    3.3911   -2.2758    0.0000 H   0  0  0  0  0  0  0  0  0  0  0  0
    6.0331    0.6169    0.0000 H   0  0  0  0  0  0  0  0  0  0  0  0
    6.2763    1.4593    0.0000 H   0  0  0  0  0  0  0  0  0  0  0  0
    5.4339    1.7025    0.0000 H   0  0  0  0  0  0  0  0  0  0  0  0
    1.8069   -0.3544    0.0000 H   0  0  0  0  0  0  0  0  0  0  0  0
    1.5832   -1.2022    0.0000 H   0  0  0  0  0  0  0  0  0  0  0  0
    2.4310   -1.4259    0.0000 H   0  0  0  0  0  0  0  0  0  0  0  0
    4.4958    2.6628    0.0000 H   0  0  0  0  0  0  0  0  0  0  0  0
    1.4643    0.9436    0.0000 H   0  0  0  0  0  0  0  0  0  0  0  0
    2.9902    3.5633    0.0000 H   0  0  0  0  0  0  0  0  0  0  0  0
    1.4643    2.6979    0.0000 H   0  0  0  0  0  0  0  0  0  0  0  0
  1  2  1  0  0  0  0
  1  3  1  0  0  0  0
  2  3  1  0  0  0  0
  2  4  1  0  0  0  0
  2 22  1  0  0  0  0
  3  6  1  0  0  0  0
  3 23  1  0  0  0  0
  4  5  2  0  0  0  0
  4 10  1  0  0  0  0
  5  7  1  0  0  0  0
  5  8  1  0  0  0  0
  6  8  2  0  0  0  0
  6 24  1  0  0  0  0
  7  9  1  0  0  0  0
  7 11  2  0  0  0  0
  8 25  1  0  0  0  0
  9 12  1  0  0  0  0
  9 13  2  0  0  0  0
 10 12  2  0  0  0  0
 10 26  1  0  0  0  0
 11 14  1  0  0  0  0
 11 16  1  0  0  0  0
 12 27  1  0  0  0  0
 13 15  1  0  0  0  0
 13 17  1  0  0  0  0
 14 15  1  0  0  0  0
 14 18  2  0  0  0  0
 15 19  2  0  0  0  0
 16 28  1  0  0  0  0
 16 29  1  0  0  0  0
 16 30  1  0  0  0  0
 17 31  1  0  0  0  0
 17 32  1  0  0  0  0
 17 33  1  0  0  0  0
 18 20  1  0  0  0  0
 18 34  1  0  0  0  0
 19 21  1  0  0  0  0
 19 35  1  0  0  0  0
 20 21  2  0  0  0  0
 20 36  1  0  0  0  0
 21 37  1  0  0  0  0
M  END
> <PUBCHEM_COMPOUND_CID>
53297434

> <PUBCHEM_COMPOUND_CANONICALIZED>
1

> <PUBCHEM_CACTVS_COMPLEXITY>
455

> <PUBCHEM_CACTVS_HBOND_ACCEPTOR>
1

> <PUBCHEM_CACTVS_HBOND_DONOR>
0

> <PUBCHEM_CACTVS_ROTATABLE_BOND>
0

> <PUBCHEM_CACTVS_SUBSKEYS>
AAADceB4IAAAAAAAAAAAAAAAEgAAAAAAAAAwYMEABAAAAADBVAAAGgAAAAAADBSgmAIyAMAABACAAiBCAAACAAAgAAAIiAAACIgIJiKAMRiCMAAkwAEIqAeAwPAOwAACAAAQAACAAAQAACAAAAAAAAAAAA==

> <PUBCHEM_IUPAC_INCHI>
InChI=1S/C20H16O/c1-11-13-5-3-4-6-14(13)12(2)19-15(11)7-8-17-16(19)9-10-18-20(17)21-18/h3-10,18,20H,1-2H3

> <PUBCHEM_IUPAC_INCHIKEY>
UZKWBBZEYBCHIN-UHFFFAOYSA-N

> <PUBCHEM_XLOGP3_AA>
4.7

> <PUBCHEM_EXACT_MASS>
272.120115

> <PUBCHEM_MOLECULAR_FORMULA>
C20H16O

> <PUBCHEM_MOLECULAR_WEIGHT>
272.34044

> <PUBCHEM_OPENEYE_CAN_SMILES>
CC1=C2C=CC3=C(C2=C(C4=CC=CC=C14)C)C=CC5C3O5

> <PUBCHEM_OPENEYE_ISO_SMILES>
CC1=C2C=CC3=C(C2=C(C4=CC=CC=C14)C)C=CC5C3O5

> <PUBCHEM_CACTVS_TPSA>
12.5

> <PUBCHEM_MONOISOTOPIC_WEIGHT>
272.120115

> <PUBCHEM_TOTAL_CHARGE>
0

> <PUBCHEM_HEAVY_ATOM_COUNT>
21

> <PUBCHEM_ATOM_DEF_STEREO_COUNT>
0

> <PUBCHEM_ATOM_UDEF_STEREO_COUNT>
2

> <PUBCHEM_BOND_DEF_STEREO_COUNT>
0

> <PUBCHEM_BOND_UDEF_STEREO_COUNT>
0

> <PUBCHEM_ISOTOPIC_ATOM_COUNT>
0

> <PUBCHEM_COMPONENT_COUNT>
1

> <PUBCHEM_CACTVS_TAUTO_COUNT>
1

> <PUBCHEM_COORDINATE_TYPE>
1
5
255

> <PUBCHEM_BONDANNOTATIONS>
2  1  3
10  12  8
11  14  8
13  15  8
14  15  8
14  18  8
15  19  8
18  20  8
19  21  8
20  21  8
3  6  3
4  10  8
4  5  8
5  7  8
7  11  8
7  9  8
9  12  8
9  13  8

$$$$

