9561686
  -OEChem-07051213063D

 23 23  0     0  0  0  0  0  0999 V2000
   -1.6576    0.6100    0.0332 O   0  0  0  0  0  0  0  0  0  0  0  0
    6.5110   -0.0490   -0.3549 O   0  0  0  0  0  0  0  0  0  0  0  0
   -5.0551   -0.1992   -0.1453 O   0  5  0  0  0  0  0  0  0  0  0  0
   -4.0172    1.7343   -0.0832 O   0  0  0  0  0  0  0  0  0  0  0  0
    2.9159    0.4262    0.2663 N   0  0  0  0  0  0  0  0  0  0  0  0
    1.7947   -0.3219    0.2108 N   0  0  0  0  0  0  0  0  0  0  0  0
   -3.9803    0.4683   -0.0869 N   0  3  0  0  0  0  0  0  0  0  0  0
    4.1318   -0.2312   -0.1892 C   0  0  0  0  0  0  0  0  0  0  0  0
   -0.6037   -0.2238    0.0839 C   0  0  0  0  0  0  0  0  0  0  0  0
    5.3481    0.6374    0.0893 C   0  0  0  0  0  0  0  0  0  0  0  0
   -0.9677   -1.5290    0.0601 C   0  0  0  0  0  0  0  0  0  0  0  0
   -2.7522   -0.1929   -0.0258 C   0  0  0  0  0  0  0  0  0  0  0  0
   -2.3811   -1.5174   -0.0120 C   0  0  0  0  0  0  0  0  0  0  0  0
    0.7133    0.3881    0.1537 C   0  0  0  0  0  0  0  0  0  0  0  0
    4.0697   -0.4520   -1.2618 H   0  0  0  0  0  0  0  0  0  0  0  0
    4.2571   -1.1959    0.3182 H   0  0  0  0  0  0  0  0  0  0  0  0
    5.4528    0.8376    1.1610 H   0  0  0  0  0  0  0  0  0  0  0  0
    5.2835    1.5909   -0.4454 H   0  0  0  0  0  0  0  0  0  0  0  0
   -0.3211   -2.3943    0.0897 H   0  0  0  0  0  0  0  0  0  0  0  0
   -3.0414   -2.3725   -0.0493 H   0  0  0  0  0  0  0  0  0  0  0  0
    2.8054    1.3293   -0.1940 H   0  0  0  0  0  0  0  0  0  0  0  0
    0.7306    1.4950    0.1595 H   0  0  0  0  0  0  0  0  0  0  0  0
    7.2716    0.5265   -0.1654 H   0  0  0  0  0  0  0  0  0  0  0  0
  1  9  1  0  0  0  0
  1 12  1  0  0  0  0
  2 10  1  0  0  0  0
  2 23  1  0  0  0  0
  3  7  1  0  0  0  0
  4  7  2  0  0  0  0
  5  6  1  0  0  0  0
  5  8  1  0  0  0  0
  5 21  1  0  0  0  0
  6 14  2  0  0  0  0
  7 12  1  0  0  0  0
  8 10  1  0  0  0  0
  8 15  1  0  0  0  0
  8 16  1  0  0  0  0
  9 11  2  0  0  0  0
  9 14  1  0  0  0  0
 10 17  1  0  0  0  0
 10 18  1  0  0  0  0
 11 13  1  0  0  0  0
 11 19  1  0  0  0  0
 12 13  2  0  0  0  0
 13 20  1  0  0  0  0
 14 22  1  0  0  0  0
M  CHG  2   3  -1   7   1
M  END
> <PUBCHEM_COMPOUND_CID>
9561686

> <PUBCHEM_CONFORMER_RMSD>
0.6

> <PUBCHEM_CONFORMER_DIVERSEORDER>
1
5
12
18
34
37
15
19
28
31
2
4
3
13
39
23
27
22
21
38
20
9
40
16
14
17
6
36
26
24
7
29
11
8
10
33
32
35
25
30

> <PUBCHEM_MMFF94_PARTIAL_CHARGES>
19
1 -0.28
10 0.28
11 -0.15
12 0.22
13 -0.15
14 0.47
19 0.15
2 -0.68
20 0.15
21 0.36
22 0.06
23 0.4
3 -0.52
4 -0.52
5 -0.58
6 -0.5
7 0.96
8 0.27
9 0.05

> <PUBCHEM_EFFECTIVE_ROTOR_COUNT>
5

> <PUBCHEM_PHARMACOPHORE_FEATURES>
9
1 1 acceptor
1 2 acceptor
1 2 donor
1 3 acceptor
1 3 anion
1 4 acceptor
1 5 donor
1 6 acceptor
5 1 9 11 12 13 rings

> <PUBCHEM_HEAVY_ATOM_COUNT>
14

> <PUBCHEM_ATOM_DEF_STEREO_COUNT>
0

> <PUBCHEM_ATOM_UDEF_STEREO_COUNT>
0

> <PUBCHEM_BOND_DEF_STEREO_COUNT>
1

> <PUBCHEM_BOND_UDEF_STEREO_COUNT>
0

> <PUBCHEM_ISOTOPIC_ATOM_COUNT>
0

> <PUBCHEM_COMPONENT_COUNT>
1

> <PUBCHEM_CACTVS_TAUTO_COUNT>
1

> <PUBCHEM_CONFORMER_ID>
0091E65600000001

> <PUBCHEM_MMFF94_ENERGY>
15.4228

> <PUBCHEM_FEATURE_SELFOVERLAP>
45.761

> <PUBCHEM_SHAPE_FINGERPRINT>
10014705 185 18410577253869671664
11315181 36 17821722815773434434
124424 183 17676204650201192250
14123238 8 17775287162013049704
15242433 33 18342458149564560418
15242439 84 18113618976302778888
15501527 16 18410008840528036848
17834076 25 18342739611561098758
187816 3 17240482511429195683
200 152 14996281431140610066
20279233 1 17676478437418720630
20281389 69 18131355215429457628
20621476 66 18261383512054290865
20645477 56 18411418410086870861
20645477 70 17313376885935899846
22485316 2 18261112959331926598
23218964 4 18410856581810899818
23402539 116 18187652404993221741
23559900 14 18114467773678572952
293599 30 18411701027846940993
300161 21 18341902879075714530
3545911 37 18409165511104527170
366044 4 18410857659426159275
42788 4 18410293605929523104

> <PUBCHEM_SHAPE_MULTIPOLES>
249.69
12.41
1.23
0.59
15.29
0.11
0
-2.53
1.21
-1.31
0
0.1
0.02
0.13

> <PUBCHEM_SHAPE_SELFOVERLAP>
507.857

> <PUBCHEM_SHAPE_VOLUME>
146.2

> <PUBCHEM_COORDINATE_TYPE>
2
5
10

$$$$

