5281326
  -OEChem-07051212563D

 78 81  0     1  0  0  0  0  0999 V2000
    8.0324   -1.1135    0.9807 O   0  0  0  0  0  0  0  0  0  0  0  0
   -0.3142    1.0860   -0.4088 C   0  0  1  0  0  0  0  0  0  0  0  0
    0.3039   -0.2524   -0.8598 C   0  0  2  0  0  0  0  0  0  0  0  0
    1.8263   -0.1931   -1.0204 C   0  0  1  0  0  0  0  0  0  0  0  0
    2.4745    0.2380    0.3276 C   0  0  1  0  0  0  0  0  0  0  0  0
   -1.8091    0.6830   -0.4138 C   0  0  2  0  0  0  0  0  0  0  0  0
    0.2585    1.4145    0.9771 C   0  0  0  0  0  0  0  0  0  0  0  0
    4.0469    0.3519    0.2031 C   0  0  2  0  0  0  0  0  0  0  0  0
   -0.5467   -0.6588   -2.0594 C   0  0  0  0  0  0  0  0  0  0  0  0
    1.7949    1.4899    0.9479 C   0  0  0  0  0  0  0  0  0  0  0  0
   -1.9581   -0.1537   -1.7063 C   0  0  0  0  0  0  0  0  0  0  0  0
    2.3802   -1.5562   -1.4613 C   0  0  0  0  0  0  0  0  0  0  0  0
   -2.8202    1.8168   -0.3225 C   0  0  1  0  0  0  0  0  0  0  0  0
   -0.0494    2.2621   -1.3814 C   0  0  0  0  0  0  0  0  0  0  0  0
    4.6220   -0.8468   -0.5646 C   0  0  0  0  0  0  0  0  0  0  0  0
    4.6496    0.3739    1.6397 C   0  0  0  0  0  0  0  0  0  0  0  0
    3.8590   -1.6873   -1.2848 C   0  0  0  0  0  0  0  0  0  0  0  0
    4.4602    1.6417   -0.5458 C   0  0  0  0  0  0  0  0  0  0  0  0
    6.1145   -1.0684   -0.4802 C   0  0  0  0  0  0  0  0  0  0  0  0
    6.1680    0.2088    1.6882 C   0  0  0  0  0  0  0  0  0  0  0  0
   -4.2566    1.2542   -0.3852 C   0  0  0  0  0  0  0  0  0  0  0  0
    6.6095   -1.0576    0.9635 C   0  0  2  0  0  0  0  0  0  0  0  0
   -2.5779    2.6347    0.9504 C   0  0  0  0  0  0  0  0  0  0  0  0
   -4.5564    0.2137    0.7033 C   0  0  0  0  0  0  0  0  0  0  0  0
   -5.9496   -0.3761    0.5866 C   0  0  0  0  0  0  0  0  0  0  0  0
   -6.1402   -1.8450    0.9621 C   0  0  0  0  0  0  0  0  0  0  0  0
   -7.0053    0.3293    0.1287 C   0  0  0  0  0  0  0  0  0  0  0  0
   -5.9605   -2.7650   -0.2491 C   0  0  0  0  0  0  0  0  0  0  0  0
   -5.2392   -2.2879    2.1166 C   0  0  0  0  0  0  0  0  0  0  0  0
   -8.4171   -0.1368   -0.0319 C   0  0  0  0  0  0  0  0  0  0  0  0
    0.1027   -1.0043   -0.0776 H   0  0  0  0  0  0  0  0  0  0  0  0
    2.0808    0.5347   -1.7990 H   0  0  0  0  0  0  0  0  0  0  0  0
    2.2690   -0.5828    1.0341 H   0  0  0  0  0  0  0  0  0  0  0  0
   -1.9392    0.0054    0.4401 H   0  0  0  0  0  0  0  0  0  0  0  0
   -0.0416    0.6503    1.7055 H   0  0  0  0  0  0  0  0  0  0  0  0
   -0.0890    2.3719    1.3658 H   0  0  0  0  0  0  0  0  0  0  0  0
   -0.5400   -1.7420   -2.2180 H   0  0  0  0  0  0  0  0  0  0  0  0
   -0.1913   -0.1864   -2.9820 H   0  0  0  0  0  0  0  0  0  0  0  0
    2.0834    2.3932    0.4025 H   0  0  0  0  0  0  0  0  0  0  0  0
    2.1464    1.6281    1.9767 H   0  0  0  0  0  0  0  0  0  0  0  0
   -2.3508    0.4373   -2.5416 H   0  0  0  0  0  0  0  0  0  0  0  0
   -2.6407   -0.9960   -1.5489 H   0  0  0  0  0  0  0  0  0  0  0  0
    2.1368   -1.7160   -2.5187 H   0  0  0  0  0  0  0  0  0  0  0  0
    1.9014   -2.3682   -0.9001 H   0  0  0  0  0  0  0  0  0  0  0  0
   -2.7188    2.4944   -1.1795 H   0  0  0  0  0  0  0  0  0  0  0  0
   -0.5151    2.1068   -2.3598 H   0  0  0  0  0  0  0  0  0  0  0  0
   -0.4364    3.2062   -0.9860 H   0  0  0  0  0  0  0  0  0  0  0  0
    1.0162    2.4221   -1.5664 H   0  0  0  0  0  0  0  0  0  0  0  0
    4.2048   -0.4339    2.2368 H   0  0  0  0  0  0  0  0  0  0  0  0
    4.3912    1.3107    2.1477 H   0  0  0  0  0  0  0  0  0  0  0  0
    4.3216   -2.5319   -1.7899 H   0  0  0  0  0  0  0  0  0  0  0  0
    3.9697    1.7204   -1.5214 H   0  0  0  0  0  0  0  0  0  0  0  0
    4.2125    2.5401    0.0287 H   0  0  0  0  0  0  0  0  0  0  0  0
    5.5387    1.6886   -0.7307 H   0  0  0  0  0  0  0  0  0  0  0  0
    6.4107   -2.0171   -0.9463 H   0  0  0  0  0  0  0  0  0  0  0  0
    6.6358   -0.2962   -1.0598 H   0  0  0  0  0  0  0  0  0  0  0  0
    6.6664    1.0860    1.2573 H   0  0  0  0  0  0  0  0  0  0  0  0
    6.5006    0.1709    2.7330 H   0  0  0  0  0  0  0  0  0  0  0  0
   -4.9338    2.1115   -0.2914 H   0  0  0  0  0  0  0  0  0  0  0  0
   -4.4460    0.8231   -1.3762 H   0  0  0  0  0  0  0  0  0  0  0  0
    6.2334   -1.9434    1.4900 H   0  0  0  0  0  0  0  0  0  0  0  0
   -3.4686    3.2276    1.1912 H   0  0  0  0  0  0  0  0  0  0  0  0
   -2.3702    2.0058    1.8216 H   0  0  0  0  0  0  0  0  0  0  0  0
   -1.7780    3.3656    0.8168 H   0  0  0  0  0  0  0  0  0  0  0  0
   -4.4256    0.6334    1.7063 H   0  0  0  0  0  0  0  0  0  0  0  0
   -3.8516   -0.6113    0.5904 H   0  0  0  0  0  0  0  0  0  0  0  0
    8.3149   -1.1245    1.9111 H   0  0  0  0  0  0  0  0  0  0  0  0
   -7.1591   -1.9898    1.3412 H   0  0  0  0  0  0  0  0  0  0  0  0
   -6.8805    1.3781   -0.1239 H   0  0  0  0  0  0  0  0  0  0  0  0
   -4.9410   -2.7039   -0.6463 H   0  0  0  0  0  0  0  0  0  0  0  0
   -6.6507   -2.5031   -1.0579 H   0  0  0  0  0  0  0  0  0  0  0  0
   -6.1514   -3.8079    0.0260 H   0  0  0  0  0  0  0  0  0  0  0  0
   -4.1886   -2.3731    1.8209 H   0  0  0  0  0  0  0  0  0  0  0  0
   -5.5479   -3.2761    2.4771 H   0  0  0  0  0  0  0  0  0  0  0  0
   -5.3066   -1.5953    2.9626 H   0  0  0  0  0  0  0  0  0  0  0  0
   -8.5388   -1.2213   -0.0347 H   0  0  0  0  0  0  0  0  0  0  0  0
   -9.0411    0.2847    0.7620 H   0  0  0  0  0  0  0  0  0  0  0  0
   -8.8057    0.2228   -0.9909 H   0  0  0  0  0  0  0  0  0  0  0  0
  1 22  1  0  0  0  0
  1 67  1  0  0  0  0
  2  3  1  0  0  0  0
  2  6  1  0  0  0  0
  2  7  1  0  0  0  0
  2 14  1  0  0  0  0
  3  4  1  0  0  0  0
  3  9  1  0  0  0  0
  3 31  1  0  0  0  0
  4  5  1  0  0  0  0
  4 12  1  0  0  0  0
  4 32  1  0  0  0  0
  5  8  1  0  0  0  0
  5 10  1  0  0  0  0
  5 33  1  0  0  0  0
  6 11  1  0  0  0  0
  6 13  1  0  0  0  0
  6 34  1  0  0  0  0
  7 10  1  0  0  0  0
  7 35  1  0  0  0  0
  7 36  1  0  0  0  0
  8 15  1  0  0  0  0
  8 16  1  0  0  0  0
  8 18  1  0  0  0  0
  9 11  1  0  0  0  0
  9 37  1  0  0  0  0
  9 38  1  0  0  0  0
 10 39  1  0  0  0  0
 10 40  1  0  0  0  0
 11 41  1  0  0  0  0
 11 42  1  0  0  0  0
 12 17  1  0  0  0  0
 12 43  1  0  0  0  0
 12 44  1  0  0  0  0
 13 21  1  0  0  0  0
 13 23  1  0  0  0  0
 13 45  1  0  0  0  0
 14 46  1  0  0  0  0
 14 47  1  0  0  0  0
 14 48  1  0  0  0  0
 15 17  2  0  0  0  0
 15 19  1  0  0  0  0
 16 20  1  0  0  0  0
 16 49  1  0  0  0  0
 16 50  1  0  0  0  0
 17 51  1  0  0  0  0
 18 52  1  0  0  0  0
 18 53  1  0  0  0  0
 18 54  1  0  0  0  0
 19 22  1  0  0  0  0
 19 55  1  0  0  0  0
 19 56  1  0  0  0  0
 20 22  1  0  0  0  0
 20 57  1  0  0  0  0
 20 58  1  0  0  0  0
 21 24  1  0  0  0  0
 21 59  1  0  0  0  0
 21 60  1  0  0  0  0
 22 61  1  0  0  0  0
 23 62  1  0  0  0  0
 23 63  1  0  0  0  0
 23 64  1  0  0  0  0
 24 25  1  0  0  0  0
 24 65  1  0  0  0  0
 24 66  1  0  0  0  0
 25 26  1  0  0  0  0
 25 27  2  0  0  0  0
 26 28  1  0  0  0  0
 26 29  1  0  0  0  0
 26 68  1  0  0  0  0
 27 30  1  0  0  0  0
 27 69  1  0  0  0  0
 28 70  1  0  0  0  0
 28 71  1  0  0  0  0
 28 72  1  0  0  0  0
 29 73  1  0  0  0  0
 29 74  1  0  0  0  0
 29 75  1  0  0  0  0
 30 76  1  0  0  0  0
 30 77  1  0  0  0  0
 30 78  1  0  0  0  0
M  END
> <PUBCHEM_COMPOUND_CID>
5281326

> <PUBCHEM_CONFORMER_RMSD>
0.8

> <PUBCHEM_CONFORMER_DIVERSEORDER>
6
14
17
15
16
5
12
10
11
3
7
13
4
9
1
2
8

> <PUBCHEM_MMFF94_PARTIAL_CHARGES>
15
1 -0.68
12 0.14
15 -0.28
17 -0.29
19 0.14
22 0.28
24 0.14
25 -0.28
26 0.14
27 -0.29
30 0.14
51 0.15
67 0.4
69 0.15
8 0.14

> <PUBCHEM_EFFECTIVE_ROTOR_COUNT>
7

> <PUBCHEM_PHARMACOPHORE_FEATURES>
10
1 1 acceptor
1 1 donor
1 23 hydrophobe
1 30 hydrophobe
3 26 28 29 hydrophobe
5 13 21 24 25 26 hydrophobe
5 2 3 6 9 11 rings
6 2 3 4 5 7 10 rings
6 4 5 8 12 15 17 rings
6 8 15 16 19 20 22 rings

> <PUBCHEM_HEAVY_ATOM_COUNT>
30

> <PUBCHEM_ATOM_DEF_STEREO_COUNT>
8

> <PUBCHEM_ATOM_UDEF_STEREO_COUNT>
0

> <PUBCHEM_BOND_DEF_STEREO_COUNT>
1

> <PUBCHEM_BOND_UDEF_STEREO_COUNT>
0

> <PUBCHEM_ISOTOPIC_ATOM_COUNT>
0

> <PUBCHEM_COMPONENT_COUNT>
1

> <PUBCHEM_CACTVS_TAUTO_COUNT>
1

> <PUBCHEM_CONFORMER_ID>
0050962E00000006

> <PUBCHEM_MMFF94_ENERGY>
91.4806

> <PUBCHEM_FEATURE_SELFOVERLAP>
50.843

> <PUBCHEM_SHAPE_FINGERPRINT>
10 15 18114186319765248480
10190206 1 10880002379804927775
10369192 42 10375875174094717153
106641 1 17167584882508419463
10670039 82 8430324519948091091
10763959 59 9583507725159300330
10906281 52 14779548938022279504
11135609 12 18408323276929735910
11135609 201 15068350007652870954
11646440 116 17240203244492988904
11796584 16 17917706865211122891
11963148 33 18201446904131290186
12166972 35 16702300152882961116
12236239 1 16343698876564294428
12422481 6 18040429967472457135
13540713 4 17388528590850203044
13782708 43 18202001044937195866
13811026 1 18333732429728904481
14068700 675 17989203729567290405
14251764 18 15791740693409246397
14294032 229 15840161098802072349
14461889 52 18334295396060686082
14849402 71 15864366691782020944
14955137 171 18334010575447272861
15183329 4 11527953357013680269
15188451 53 18131070433095378687
15352257 5 18202002144290841147
15510800 12 18271235020712961803
17913733 40 17167856478591390487
18608769 82 18260548901113471278
19611394 137 18334859415524307232
20028762 73 17988924479146431538
20105231 36 17749384906706557934
20281389 69 7276836766583283827
21267235 1 17822286938078925764
21424621 283 6194845869185507789
21623969 137 18040150729751772462
21637258 2 17775570831459618349
21781051 124 18261663836470142846
21792934 111 18186806906838652569
22122407 14 4678527039936007346
22149856 69 17822556288046526809
22224240 67 17167583795855313655
23559900 14 18058727988891092769
23576562 1 10735289018727399979
25222932 49 18341901787922510506
2747138 104 18113896078918548848
3009799 131 12175620676548540692
3178227 256 17749393659342965472
3633792 109 14117794739272049092
392239 28 18408876335430900667
397830 11 18263370204515238681
4073 2 18262794197924579769
4340502 62 17822012021248302598
465052 167 18341892974643889468
5104073 3 17823976938304629314
6009941 240 18264208178821730065
6086070 43 16773806925623153388

> <PUBCHEM_SHAPE_MULTIPOLES>
611.52
20.63
2.37
1.7
8.75
0.08
0.06
10.36
8.29
2.17
0.16
-0.62
0.41
1.32

> <PUBCHEM_SHAPE_SELFOVERLAP>
1267.827

> <PUBCHEM_SHAPE_VOLUME>
349

> <PUBCHEM_COORDINATE_TYPE>
2
5
10

$$$$

