439886
  -OEChem-07051212473D

 27 28  0     1  0  0  0  0  0999 V2000
   -4.1906   -0.1739   -0.4099 O   0  0  0  0  0  0  0  0  0  0  0  0
    2.0303    0.6086   -0.5581 N   0  0  2  0  0  0  0  0  0  0  0  0
   -2.4562    0.6727    0.8605 N   0  0  0  0  0  0  0  0  0  0  0  0
    1.2619    0.1576    0.6140 C   0  0  2  0  0  0  0  0  0  0  0  0
    1.8385   -1.2317    0.9284 C   0  0  0  0  0  0  0  0  0  0  0  0
    3.0737   -1.3699    0.0479 C   0  0  0  0  0  0  0  0  0  0  0  0
    3.3728    0.0470   -0.3960 C   0  0  0  0  0  0  0  0  0  0  0  0
   -0.2138    0.0988    0.3756 C   0  0  0  0  0  0  0  0  0  0  0  0
    2.0717    2.0606   -0.6934 C   0  0  0  0  0  0  0  0  0  0  0  0
   -1.1110    0.7609    1.1214 C   0  0  0  0  0  0  0  0  0  0  0  0
   -0.6906   -0.7194   -0.7219 C   0  0  0  0  0  0  0  0  0  0  0  0
   -1.9970   -0.8247   -1.0006 C   0  0  0  0  0  0  0  0  0  0  0  0
   -2.9897   -0.0867   -0.1678 C   0  0  0  0  0  0  0  0  0  0  0  0
    1.4818    0.8060    1.4750 H   0  0  0  0  0  0  0  0  0  0  0  0
    1.1551   -2.0713    0.7617 H   0  0  0  0  0  0  0  0  0  0  0  0
    2.1370   -1.2707    1.9837 H   0  0  0  0  0  0  0  0  0  0  0  0
    3.9128   -1.8275    0.5803 H   0  0  0  0  0  0  0  0  0  0  0  0
    2.8393   -1.9986   -0.8200 H   0  0  0  0  0  0  0  0  0  0  0  0
    3.9450    0.5728    0.3791 H   0  0  0  0  0  0  0  0  0  0  0  0
    3.9429    0.0646   -1.3301 H   0  0  0  0  0  0  0  0  0  0  0  0
    2.6568    2.3433   -1.5756 H   0  0  0  0  0  0  0  0  0  0  0  0
    2.5138    2.5495    0.1821 H   0  0  0  0  0  0  0  0  0  0  0  0
    1.0646    2.4651   -0.8404 H   0  0  0  0  0  0  0  0  0  0  0  0
   -0.8373    1.3926    1.9576 H   0  0  0  0  0  0  0  0  0  0  0  0
    0.0257   -1.2565   -1.3351 H   0  0  0  0  0  0  0  0  0  0  0  0
   -3.0861    1.1970    1.4605 H   0  0  0  0  0  0  0  0  0  0  0  0
   -2.3617   -1.4326   -1.8197 H   0  0  0  0  0  0  0  0  0  0  0  0
  1 13  2  0  0  0  0
  2  4  1  0  0  0  0
  2  7  1  0  0  0  0
  2  9  1  0  0  0  0
  3 10  1  0  0  0  0
  3 13  1  0  0  0  0
  3 26  1  0  0  0  0
  4  5  1  0  0  0  0
  4  8  1  0  0  0  0
  4 14  1  0  0  0  0
  5  6  1  0  0  0  0
  5 15  1  0  0  0  0
  5 16  1  0  0  0  0
  6  7  1  0  0  0  0
  6 17  1  0  0  0  0
  6 18  1  0  0  0  0
  7 19  1  0  0  0  0
  7 20  1  0  0  0  0
  8 10  2  0  0  0  0
  8 11  1  0  0  0  0
  9 21  1  0  0  0  0
  9 22  1  0  0  0  0
  9 23  1  0  0  0  0
 10 24  1  0  0  0  0
 11 12  2  0  0  0  0
 11 25  1  0  0  0  0
 12 13  1  0  0  0  0
 12 27  1  0  0  0  0
M  END
> <PUBCHEM_COMPOUND_CID>
439886

> <PUBCHEM_CONFORMER_RMSD>
0.6

> <PUBCHEM_CONFORMER_DIVERSEORDER>
1
5
4
6
9
2
3
8
7

> <PUBCHEM_MMFF94_PARTIAL_CHARGES>
15
1 -0.57
10 -0.04
11 -0.15
12 -0.14
13 0.62
2 -0.81
24 0.15
25 0.15
26 0.37
27 0.15
3 -0.54
4 0.41
7 0.27
8 -0.14
9 0.27

> <PUBCHEM_EFFECTIVE_ROTOR_COUNT>
2

> <PUBCHEM_PHARMACOPHORE_FEATURES>
5
1 1 acceptor
1 2 cation
1 3 donor
5 2 4 5 6 7 rings
6 3 8 10 11 12 13 rings

> <PUBCHEM_HEAVY_ATOM_COUNT>
13

> <PUBCHEM_ATOM_DEF_STEREO_COUNT>
1

> <PUBCHEM_ATOM_UDEF_STEREO_COUNT>
0

> <PUBCHEM_BOND_DEF_STEREO_COUNT>
0

> <PUBCHEM_BOND_UDEF_STEREO_COUNT>
0

> <PUBCHEM_ISOTOPIC_ATOM_COUNT>
0

> <PUBCHEM_COMPONENT_COUNT>
1

> <PUBCHEM_CACTVS_TAUTO_COUNT>
2

> <PUBCHEM_CONFORMER_ID>
0006B64E00000001

> <PUBCHEM_MMFF94_ENERGY>
27.7021

> <PUBCHEM_FEATURE_SELFOVERLAP>
25.371

> <PUBCHEM_SHAPE_FINGERPRINT>
11031198 65 17561078103461333438
11471102 20 18131915961890089062
11543360 7 18059024873978047983
12326174 3 17703802430976884770
12932764 1 18410862061556322693
13538477 17 18187370882845762751
13581323 91 17386010597653198218
14115302 16 18114184107461504055
14144814 61 18260547852671751114
14350558 41 17603580867889177198
14993402 34 18409163333450593774
15775835 57 18342172224563712604
16945 1 18202560692012962474
18175812 5 16558743499201745251
18186145 218 17346324812449791909
18522853 295 17312819364319882695
19026448 4 17703791401643234531
19422 9 18335416855319348347
20201158 50 16845573140589433786
20279233 1 16559029393726060482
20559304 39 18186240636531963936
20645464 45 16200154253033805481
20645476 183 18335420115083637887
20645477 70 18201443618190670603
232386 152 17531253850473454846
23402539 116 16226058833200103993
23463225 33 18114461261722298311
23552423 10 18262807250250875926
23559900 14 16733260261965281494
23598291 2 18263065764622793356
474 4 18196092140843569552
5084963 1 18335143128125873793
69090 78 14129352788323419589
7364860 26 17968382247601421512
74978 22 18412824659736660254
77492 1 18334290985234462896
8030462 33 18261388931890853432

> <PUBCHEM_SHAPE_MULTIPOLES>
251.7
5.9
1.42
1.07
2.36
0.39
-0.09
-0.56
0.86
-1.17
0.14
0.17
0.03
-0.79

> <PUBCHEM_SHAPE_SELFOVERLAP>
526.706

> <PUBCHEM_SHAPE_VOLUME>
144.4

> <PUBCHEM_COORDINATE_TYPE>
2
5
10

$$$$

