17395561
  -OEChem-06241222512D

 37 37  0     0  0  0  0  0  0999 V2000
    9.7942   -1.7500    0.0000 F   0  0  0  0  0  0  0  0  0  0  0  0
    6.3301    0.2500    0.0000 O   0  0  0  0  0  0  0  0  0  0  0  0
    4.5981    1.2500    0.0000 O   0  0  0  0  0  0  0  0  0  0  0  0
    7.1962    1.7500    0.0000 O   0  0  0  0  0  0  0  0  0  0  0  0
    3.7320   -0.2500    0.0000 N   0  0  0  0  0  0  0  0  0  0  0  0
    2.8660    0.2500    0.0000 C   0  0  0  0  0  0  0  0  0  0  0  0
    2.0000    0.7500    0.0000 C   0  0  0  0  0  0  0  0  0  0  0  0
    2.3660   -0.6160    0.0000 C   0  0  0  0  0  0  0  0  0  0  0  0
    3.3660    1.1160    0.0000 C   0  0  0  0  0  0  0  0  0  0  0  0
    4.5981    0.2500    0.0000 C   0  0  0  0  0  0  0  0  0  0  0  0
    5.4641   -0.2500    0.0000 C   0  0  0  0  0  0  0  0  0  0  0  0
    7.1962   -0.2500    0.0000 C   0  0  0  0  0  0  0  0  0  0  0  0
    8.0622    0.2500    0.0000 C   0  0  0  0  0  0  0  0  0  0  0  0
    7.1962   -1.2500    0.0000 C   0  0  0  0  0  0  0  0  0  0  0  0
    8.9282   -0.2500    0.0000 C   0  0  0  0  0  0  0  0  0  0  0  0
    8.0622    1.2500    0.0000 C   0  0  0  0  0  0  0  0  0  0  0  0
    8.0622   -1.7500    0.0000 C   0  0  0  0  0  0  0  0  0  0  0  0
    8.9282   -1.2500    0.0000 C   0  0  0  0  0  0  0  0  0  0  0  0
    8.9282    1.7500    0.0000 C   0  0  0  0  0  0  0  0  0  0  0  0
    2.3100    1.2869    0.0000 H   0  0  0  0  0  0  0  0  0  0  0  0
    1.4631    1.0600    0.0000 H   0  0  0  0  0  0  0  0  0  0  0  0
    1.6900    0.2131    0.0000 H   0  0  0  0  0  0  0  0  0  0  0  0
    1.8291   -0.3060    0.0000 H   0  0  0  0  0  0  0  0  0  0  0  0
    2.0560   -1.1530    0.0000 H   0  0  0  0  0  0  0  0  0  0  0  0
    2.9030   -0.9260    0.0000 H   0  0  0  0  0  0  0  0  0  0  0  0
    3.9030    0.8060    0.0000 H   0  0  0  0  0  0  0  0  0  0  0  0
    3.6760    1.6530    0.0000 H   0  0  0  0  0  0  0  0  0  0  0  0
    2.8291    1.4260    0.0000 H   0  0  0  0  0  0  0  0  0  0  0  0
    3.7320   -0.8700    0.0000 H   0  0  0  0  0  0  0  0  0  0  0  0
    5.0656   -0.7249    0.0000 H   0  0  0  0  0  0  0  0  0  0  0  0
    5.8626   -0.7249    0.0000 H   0  0  0  0  0  0  0  0  0  0  0  0
    6.6592   -1.5600    0.0000 H   0  0  0  0  0  0  0  0  0  0  0  0
    9.4651    0.0600    0.0000 H   0  0  0  0  0  0  0  0  0  0  0  0
    8.0622   -2.3700    0.0000 H   0  0  0  0  0  0  0  0  0  0  0  0
    9.2382    1.2131    0.0000 H   0  0  0  0  0  0  0  0  0  0  0  0
    9.4651    2.0600    0.0000 H   0  0  0  0  0  0  0  0  0  0  0  0
    8.6182    2.2869    0.0000 H   0  0  0  0  0  0  0  0  0  0  0  0
  1 18  1  0  0  0  0
  2 11  1  0  0  0  0
  2 12  1  0  0  0  0
  3 10  2  0  0  0  0
  4 16  2  0  0  0  0
  5  6  1  0  0  0  0
  5 10  1  0  0  0  0
  5 29  1  0  0  0  0
  6  7  1  0  0  0  0
  6  8  1  0  0  0  0
  6  9  1  0  0  0  0
  7 20  1  0  0  0  0
  7 21  1  0  0  0  0
  7 22  1  0  0  0  0
  8 23  1  0  0  0  0
  8 24  1  0  0  0  0
  8 25  1  0  0  0  0
  9 26  1  0  0  0  0
  9 27  1  0  0  0  0
  9 28  1  0  0  0  0
 10 11  1  0  0  0  0
 11 30  1  0  0  0  0
 11 31  1  0  0  0  0
 12 13  2  0  0  0  0
 12 14  1  0  0  0  0
 13 15  1  0  0  0  0
 13 16  1  0  0  0  0
 14 17  2  0  0  0  0
 14 32  1  0  0  0  0
 15 18  2  0  0  0  0
 15 33  1  0  0  0  0
 16 19  1  0  0  0  0
 17 18  1  0  0  0  0
 17 34  1  0  0  0  0
 19 35  1  0  0  0  0
 19 36  1  0  0  0  0
 19 37  1  0  0  0  0
M  END
> <PUBCHEM_COMPOUND_CID>
17395561

> <PUBCHEM_COMPOUND_CANONICALIZED>
1

> <PUBCHEM_CACTVS_COMPLEXITY>
338

> <PUBCHEM_CACTVS_HBOND_ACCEPTOR>
4

> <PUBCHEM_CACTVS_HBOND_DONOR>
1

> <PUBCHEM_CACTVS_ROTATABLE_BOND>
5

> <PUBCHEM_CACTVS_SUBSKEYS>
AAADceByMQAAAAAAAAAAAAAAAAAAAAAAAAAwAAAAAAAAAAABAAAAHwAQAAAADIyhmAoyBoLABACIAqFSEAICCAAkIAAIiAFGCMgOJjaENR6DOWCk9BGYqYeIyKCOAAAAAAAIAAAAAAAAABAAAAAAAAAAAA==

> <PUBCHEM_IUPAC_OPENEYE_NAME>
2-(2-acetyl-4-fluoro-phenoxy)-N-tert-butyl-acetamide

> <PUBCHEM_IUPAC_CAS_NAME>
2-(2-acetyl-4-fluorophenoxy)-N-tert-butylacetamide

> <PUBCHEM_IUPAC_NAME>
2-(2-acetyl-4-fluorophenoxy)-N-tert-butylacetamide

> <PUBCHEM_IUPAC_SYSTEMATIC_NAME>
N-tert-butyl-2-(2-ethanoyl-4-fluoranyl-phenoxy)ethanamide

> <PUBCHEM_IUPAC_TRADITIONAL_NAME>
2-(2-acetyl-4-fluoro-phenoxy)-N-tert-butyl-acetamide

> <PUBCHEM_IUPAC_INCHI>
InChI=1S/C14H18FNO3/c1-9(17)11-7-10(15)5-6-12(11)19-8-13(18)16-14(2,3)4/h5-7H,8H2,1-4H3,(H,16,18)

> <PUBCHEM_IUPAC_INCHIKEY>
XCNKKYAYDYPHLN-UHFFFAOYSA-N

> <PUBCHEM_XLOGP3_AA>
2

> <PUBCHEM_EXACT_MASS>
267.127072

> <PUBCHEM_MOLECULAR_FORMULA>
C14H18FNO3

> <PUBCHEM_MOLECULAR_WEIGHT>
267.296023

> <PUBCHEM_OPENEYE_CAN_SMILES>
CC(=O)C1=C(C=CC(=C1)F)OCC(=O)NC(C)(C)C

> <PUBCHEM_OPENEYE_ISO_SMILES>
CC(=O)C1=C(C=CC(=C1)F)OCC(=O)NC(C)(C)C

> <PUBCHEM_CACTVS_TPSA>
55.4

> <PUBCHEM_MONOISOTOPIC_WEIGHT>
267.127072

> <PUBCHEM_TOTAL_CHARGE>
0

> <PUBCHEM_HEAVY_ATOM_COUNT>
19

> <PUBCHEM_ATOM_DEF_STEREO_COUNT>
0

> <PUBCHEM_ATOM_UDEF_STEREO_COUNT>
0

> <PUBCHEM_BOND_DEF_STEREO_COUNT>
0

> <PUBCHEM_BOND_UDEF_STEREO_COUNT>
0

> <PUBCHEM_ISOTOPIC_ATOM_COUNT>
0

> <PUBCHEM_COMPONENT_COUNT>
1

> <PUBCHEM_CACTVS_TAUTO_COUNT>
4

> <PUBCHEM_COORDINATE_TYPE>
1
5
255

> <PUBCHEM_BONDANNOTATIONS>
12  13  8
12  14  8
13  15  8
14  17  8
15  18  8
17  18  8

$$$$

