5354212
  -OEChem-07051213072D

 54 57  0     1  0  0  0  0  0999 V2000
    4.7950    0.2019    0.0000 O   0  0  0  0  0  0  0  0  0  0  0  0
    2.0000   -3.3504    0.0000 O   0  0  0  0  0  0  0  0  0  0  0  0
    8.2928    2.6520    0.0000 O   0  0  0  0  0  0  0  0  0  0  0  0
    7.0036    1.4952    0.0000 O   0  0  0  0  0  0  0  0  0  0  0  0
    7.3931   -1.2981    0.0000 C   0  0  1  0  0  0  0  0  0  0  0  0
    6.5271   -1.7981    0.0000 C   0  0  1  0  0  0  0  0  0  0  0  0
    7.3931   -0.2981    0.0000 C   0  0  2  0  0  0  0  0  0  0  0  0
    5.6610   -1.2981    0.0000 C   0  0  1  0  0  0  0  0  0  0  0  0
    4.7510   -1.8050    0.0000 C   0  0  2  0  0  0  0  0  0  0  0  0
    8.3393   -1.6028    0.0000 C   0  0  0  0  0  0  0  0  0  0  0  0
    6.5271    0.2019    0.0000 C   0  0  0  0  0  0  0  0  0  0  0  0
    6.5431   -2.8396    0.0000 C   0  0  0  0  0  0  0  0  0  0  0  0
    5.6610   -0.2981    0.0000 C   0  0  0  0  0  0  0  0  0  0  0  0
    8.3393    0.0066    0.0000 C   0  0  0  0  0  0  0  0  0  0  0  0
    4.7430   -2.8466    0.0000 C   0  0  0  0  0  0  0  0  0  0  0  0
    8.9229   -0.7981    0.0000 C   0  0  0  0  0  0  0  0  0  0  0  0
    5.6451   -3.3674    0.0000 C   0  0  0  0  0  0  0  0  0  0  0  0
    3.8242   -1.2409    0.0000 C   0  0  0  0  0  0  0  0  0  0  0  0
    7.3931    0.7019    0.0000 C   0  0  0  0  0  0  0  0  0  0  0  0
    4.7587   -0.8050    0.0000 C   0  0  0  0  0  0  0  0  0  0  0  0
    2.8763   -1.7688    0.0000 C   0  0  0  0  0  0  0  0  0  0  0  0
    3.8076   -3.3963    0.0000 C   0  0  0  0  0  0  0  0  0  0  0  0
    8.6500    0.9572    0.0000 C   0  0  0  0  0  0  0  0  0  0  0  0
    2.8680   -2.8538    0.0000 C   0  0  0  0  0  0  0  0  0  0  0  0
    7.9821    1.7014    0.0000 C   0  0  0  0  0  0  0  0  0  0  0  0
    7.6249    3.3963    0.0000 C   0  0  0  0  0  0  0  0  0  0  0  0
    7.4830   -2.1433    0.0000 H   0  0  0  0  0  0  0  0  0  0  0  0
    7.2664   -2.2174    0.0000 H   0  0  0  0  0  0  0  0  0  0  0  0
    6.3972   -0.8731    0.0000 H   0  0  0  0  0  0  0  0  0  0  0  0
    8.0883   -2.1697    0.0000 H   0  0  0  0  0  0  0  0  0  0  0  0
    8.8767   -1.9121    0.0000 H   0  0  0  0  0  0  0  0  0  0  0  0
    6.9256    0.6768    0.0000 H   0  0  0  0  0  0  0  0  0  0  0  0
    6.1285    0.6768    0.0000 H   0  0  0  0  0  0  0  0  0  0  0  0
    6.7612   -3.4200    0.0000 H   0  0  0  0  0  0  0  0  0  0  0  0
    7.1523   -2.7241    0.0000 H   0  0  0  0  0  0  0  0  0  0  0  0
    9.3838   -1.2128    0.0000 H   0  0  0  0  0  0  0  0  0  0  0  0
    9.3838   -0.3834    0.0000 H   0  0  0  0  0  0  0  0  0  0  0  0
    5.2478   -3.8433    0.0000 H   0  0  0  0  0  0  0  0  0  0  0  0
    6.0460   -3.8403    0.0000 H   0  0  0  0  0  0  0  0  0  0  0  0
    4.2324   -0.7742    0.0000 H   0  0  0  0  0  0  0  0  0  0  0  0
    3.4343   -0.7588    0.0000 H   0  0  0  0  0  0  0  0  0  0  0  0
    8.0131    0.7019    0.0000 H   0  0  0  0  0  0  0  0  0  0  0  0
    7.3931    1.3219    0.0000 H   0  0  0  0  0  0  0  0  0  0  0  0
    6.7731    0.7019    0.0000 H   0  0  0  0  0  0  0  0  0  0  0  0
    5.3787   -0.8098    0.0000 H   0  0  0  0  0  0  0  0  0  0  0  0
    4.7635   -0.1850    0.0000 H   0  0  0  0  0  0  0  0  0  0  0  0
    4.1388   -0.8002    0.0000 H   0  0  0  0  0  0  0  0  0  0  0  0
    2.6718   -1.1835    0.0000 H   0  0  0  0  0  0  0  0  0  0  0  0
    2.2647   -1.8702    0.0000 H   0  0  0  0  0  0  0  0  0  0  0  0
    3.8100   -4.0163    0.0000 H   0  0  0  0  0  0  0  0  0  0  0  0
    9.2566    1.0850    0.0000 H   0  0  0  0  0  0  0  0  0  0  0  0
    8.0864    3.8103    0.0000 H   0  0  0  0  0  0  0  0  0  0  0  0
    7.2109    3.8577    0.0000 H   0  0  0  0  0  0  0  0  0  0  0  0
    7.1635    2.9822    0.0000 H   0  0  0  0  0  0  0  0  0  0  0  0
  1 13  2  0  0  0  0
  2 24  2  0  0  0  0
  3 25  1  0  0  0  0
  3 26  1  0  0  0  0
  4 25  2  0  0  0  0
  5  6  1  0  0  0  0
  5  7  1  0  0  0  0
  5 10  1  0  0  0  0
  5 27  1  6  0  0  0
  6  8  1  0  0  0  0
  6 12  1  0  0  0  0
  6 28  1  1  0  0  0
  7 11  1  0  0  0  0
  7 14  1  0  0  0  0
  7 19  1  1  0  0  0
  8  9  1  0  0  0  0
  8 13  1  0  0  0  0
  8 29  1  6  0  0  0
  9 15  1  0  0  0  0
  9 18  1  0  0  0  0
  9 20  1  1  0  0  0
 10 16  1  0  0  0  0
 10 30  1  0  0  0  0
 10 31  1  0  0  0  0
 11 13  1  0  0  0  0
 11 32  1  0  0  0  0
 11 33  1  0  0  0  0
 12 17  1  0  0  0  0
 12 34  1  0  0  0  0
 12 35  1  0  0  0  0
 14 16  1  0  0  0  0
 14 23  2  0  0  0  0
 15 17  1  0  0  0  0
 15 22  2  0  0  0  0
 16 36  1  0  0  0  0
 16 37  1  0  0  0  0
 17 38  1  0  0  0  0
 17 39  1  0  0  0  0
 18 21  1  0  0  0  0
 18 40  1  0  0  0  0
 18 41  1  0  0  0  0
 19 42  1  0  0  0  0
 19 43  1  0  0  0  0
 19 44  1  0  0  0  0
 20 45  1  0  0  0  0
 20 46  1  0  0  0  0
 20 47  1  0  0  0  0
 21 24  1  0  0  0  0
 21 48  1  0  0  0  0
 21 49  1  0  0  0  0
 22 24  1  0  0  0  0
 22 50  1  0  0  0  0
 23 25  1  0  0  0  0
 23 51  1  0  0  0  0
 26 52  1  0  0  0  0
 26 53  1  0  0  0  0
 26 54  1  0  0  0  0
M  END
> <PUBCHEM_COMPOUND_CID>
5354212

> <PUBCHEM_COMPOUND_CANONICALIZED>
1

> <PUBCHEM_CACTVS_COMPLEXITY>
745

> <PUBCHEM_CACTVS_HBOND_ACCEPTOR>
4

> <PUBCHEM_CACTVS_HBOND_DONOR>
0

> <PUBCHEM_CACTVS_ROTATABLE_BOND>
2

> <PUBCHEM_CACTVS_SUBSKEYS>
AAADceB4OAAAAAAAAAAAAAAAAAAAAYAAAAAwYIAAAAAAAGDAAAAAGgAAAAAADwSAgAICCAAABACIAqDSCAAAAAAgAAAACAEAAEgABBIAIQAAEAAAgAAIIQMIiMCPgAAAAAAAAACAAAQAACAAAAAACAAAAA==

> <PUBCHEM_IUPAC_OPENEYE_NAME>
methyl (2Z)-2-[(8S,9S,10R,13S,14S)-10,13-dimethyl-3,11-dioxo-1,2,6,7,8,9,12,14,15,16-decahydrocyclopenta[a]phenanthren-17-ylidene]acetate

> <PUBCHEM_IUPAC_CAS_NAME>
(2Z)-2-[(8S,9S,10R,13S,14S)-10,13-dimethyl-3,11-dioxo-1,2,6,7,8,9,12,14,15,16-decahydrocyclopenta[a]phenanthren-17-ylidene]acetic acid methyl ester

> <PUBCHEM_IUPAC_NAME>
methyl (2Z)-2-[(8S,9S,10R,13S,14S)-10,13-dimethyl-3,11-dioxo-1,2,6,7,8,9,12,14,15,16-decahydrocyclopenta[a]phenanthren-17-ylidene]acetate

> <PUBCHEM_IUPAC_SYSTEMATIC_NAME>
methyl (2Z)-2-[(8S,9S,10R,13S,14S)-10,13-dimethyl-3,11-bis(oxidanylidene)-1,2,6,7,8,9,12,14,15,16-decahydrocyclopenta[a]phenanthren-17-ylidene]ethanoate

> <PUBCHEM_IUPAC_TRADITIONAL_NAME>
(2Z)-2-[(8S,9S,10R,13S,14S)-3,11-diketo-10,13-dimethyl-1,2,6,7,8,9,12,14,15,16-decahydrocyclopenta[a]phenanthren-17-ylidene]acetic acid methyl ester

> <PUBCHEM_IUPAC_INCHI>
InChI=1S/C22H28O4/c1-21-9-8-15(23)10-13(21)4-6-16-17-7-5-14(11-19(25)26-3)22(17,2)12-18(24)20(16)21/h10-11,16-17,20H,4-9,12H2,1-3H3/b14-11-/t16-,17-,20+,21-,22+/m0/s1

> <PUBCHEM_IUPAC_INCHIKEY>
MVLYYRYIEZOWIZ-FLMHVLNXSA-N

> <PUBCHEM_XLOGP3_AA>
2.5

> <PUBCHEM_EXACT_MASS>
356.198759

> <PUBCHEM_MOLECULAR_FORMULA>
C22H28O4

> <PUBCHEM_MOLECULAR_WEIGHT>
356.45532

> <PUBCHEM_OPENEYE_CAN_SMILES>
CC12CCC(=O)C=C1CCC3C2C(=O)CC4(C3CCC4=CC(=O)OC)C

> <PUBCHEM_OPENEYE_ISO_SMILES>
C[C@]12CCC(=O)C=C1CC[C@@H]3[C@@H]2C(=O)C[C@]\4([C@H]3CC/C4=C/C(=O)OC)C

> <PUBCHEM_CACTVS_TPSA>
60.4

> <PUBCHEM_MONOISOTOPIC_WEIGHT>
356.198759

> <PUBCHEM_TOTAL_CHARGE>
0

> <PUBCHEM_HEAVY_ATOM_COUNT>
26

> <PUBCHEM_ATOM_DEF_STEREO_COUNT>
5

> <PUBCHEM_ATOM_UDEF_STEREO_COUNT>
0

> <PUBCHEM_BOND_DEF_STEREO_COUNT>
1

> <PUBCHEM_BOND_UDEF_STEREO_COUNT>
0

> <PUBCHEM_ISOTOPIC_ATOM_COUNT>
0

> <PUBCHEM_COMPONENT_COUNT>
1

> <PUBCHEM_CACTVS_TAUTO_COUNT>
15

> <PUBCHEM_COORDINATE_TYPE>
1
5
255

> <PUBCHEM_BONDANNOTATIONS>
5  27  6
6  28  5
7  19  5
8  29  6
9  20  5

$$$$

