17396511
  -OEChem-06241222573D

 42 43  0     0  0  0  0  0  0999 V2000
    2.1440    1.9915   -0.6865 O   0  0  0  0  0  0  0  0  0  0  0  0
    4.6188    0.8641   -1.1291 O   0  0  0  0  0  0  0  0  0  0  0  0
    5.1847   -1.6569   -0.1351 O   0  0  0  0  0  0  0  0  0  0  0  0
    0.0632    1.7022    1.3828 O   0  0  0  0  0  0  0  0  0  0  0  0
   -5.2711   -2.2738   -1.3120 O   0  0  0  0  0  0  0  0  0  0  0  0
   -0.9656   -0.0973    0.2730 N   0  0  0  0  0  0  0  0  0  0  0  0
   -6.9487   -0.8504   -0.6651 N   0  0  0  0  0  0  0  0  0  0  0  0
    1.4576    0.0478    0.5286 C   0  0  0  0  0  0  0  0  0  0  0  0
    2.4218    0.7494   -0.1951 C   0  0  0  0  0  0  0  0  0  0  0  0
    3.6753    0.1808   -0.4205 C   0  0  0  0  0  0  0  0  0  0  0  0
    3.9646   -1.0896    0.0779 C   0  0  0  0  0  0  0  0  0  0  0  0
    1.7468   -1.2224    1.0271 C   0  0  0  0  0  0  0  0  0  0  0  0
    0.1156    0.6350    0.7811 C   0  0  0  0  0  0  0  0  0  0  0  0
   -2.3231    0.2189    0.3369 C   0  0  0  0  0  0  0  0  0  0  0  0
    3.0004   -1.7911    0.8016 C   0  0  0  0  0  0  0  0  0  0  0  0
   -3.2667   -0.6373   -0.2303 C   0  0  0  0  0  0  0  0  0  0  0  0
   -4.6236   -0.3204   -0.1666 C   0  0  0  0  0  0  0  0  0  0  0  0
   -2.7363    1.3922    0.9681 C   0  0  0  0  0  0  0  0  0  0  0  0
   -5.0367    0.8528    0.4646 C   0  0  0  0  0  0  0  0  0  0  0  0
   -4.0931    1.7092    1.0320 C   0  0  0  0  0  0  0  0  0  0  0  0
   -5.6080   -1.2130   -0.7572 C   0  0  0  0  0  0  0  0  0  0  0  0
    1.5841    2.0581   -1.9955 C   0  0  0  0  0  0  0  0  0  0  0  0
    5.4976    1.7085   -0.3894 C   0  0  0  0  0  0  0  0  0  0  0  0
    5.3981   -2.9582    0.4084 C   0  0  0  0  0  0  0  0  0  0  0  0
    1.0068   -1.7784    1.5973 H   0  0  0  0  0  0  0  0  0  0  0  0
    3.1545   -2.7800    1.2193 H   0  0  0  0  0  0  0  0  0  0  0  0
   -0.7449   -0.9644   -0.2124 H   0  0  0  0  0  0  0  0  0  0  0  0
   -2.9339   -1.5497   -0.7204 H   0  0  0  0  0  0  0  0  0  0  0  0
   -2.0688    2.1054    1.4303 H   0  0  0  0  0  0  0  0  0  0  0  0
   -6.0712    1.1619    0.5522 H   0  0  0  0  0  0  0  0  0  0  0  0
   -4.4152    2.6228    1.5236 H   0  0  0  0  0  0  0  0  0  0  0  0
    2.2801    1.6458   -2.7329 H   0  0  0  0  0  0  0  0  0  0  0  0
    0.6313    1.5215   -2.0396 H   0  0  0  0  0  0  0  0  0  0  0  0
    1.4031    3.1091   -2.2369 H   0  0  0  0  0  0  0  0  0  0  0  0
    6.1885    2.1828   -1.0918 H   0  0  0  0  0  0  0  0  0  0  0  0
    6.0783    1.1240    0.3312 H   0  0  0  0  0  0  0  0  0  0  0  0
    4.9346    2.4909    0.1292 H   0  0  0  0  0  0  0  0  0  0  0  0
    6.4187   -3.2543    0.1438 H   0  0  0  0  0  0  0  0  0  0  0  0
    4.7265   -3.6982   -0.0399 H   0  0  0  0  0  0  0  0  0  0  0  0
    5.3427   -2.9528    1.5024 H   0  0  0  0  0  0  0  0  0  0  0  0
   -7.6560   -1.4602   -1.0634 H   0  0  0  0  0  0  0  0  0  0  0  0
   -7.3097   -0.0117   -0.2294 H   0  0  0  0  0  0  0  0  0  0  0  0
  1  9  1  0  0  0  0
  1 22  1  0  0  0  0
  2 10  1  0  0  0  0
  2 23  1  0  0  0  0
  3 11  1  0  0  0  0
  3 24  1  0  0  0  0
  4 13  2  0  0  0  0
  5 21  2  0  0  0  0
  6 13  1  0  0  0  0
  6 14  1  0  0  0  0
  6 27  1  0  0  0  0
  7 21  1  0  0  0  0
  7 41  1  0  0  0  0
  7 42  1  0  0  0  0
  8  9  2  0  0  0  0
  8 12  1  0  0  0  0
  8 13  1  0  0  0  0
  9 10  1  0  0  0  0
 10 11  2  0  0  0  0
 11 15  1  0  0  0  0
 12 15  2  0  0  0  0
 12 25  1  0  0  0  0
 14 16  1  0  0  0  0
 14 18  2  0  0  0  0
 15 26  1  0  0  0  0
 16 17  2  0  0  0  0
 16 28  1  0  0  0  0
 17 19  1  0  0  0  0
 17 21  1  0  0  0  0
 18 20  1  0  0  0  0
 18 29  1  0  0  0  0
 19 20  2  0  0  0  0
 19 30  1  0  0  0  0
 20 31  1  0  0  0  0
 22 32  1  0  0  0  0
 22 33  1  0  0  0  0
 22 34  1  0  0  0  0
 23 35  1  0  0  0  0
 23 36  1  0  0  0  0
 23 37  1  0  0  0  0
 24 38  1  0  0  0  0
 24 39  1  0  0  0  0
 24 40  1  0  0  0  0
M  END
> <PUBCHEM_COMPOUND_CID>
17396511

> <PUBCHEM_CONFORMER_RMSD>
0.8

> <PUBCHEM_CONFORMER_DIVERSEORDER>
1
15
55
44
13
20
37
49
31
36
29
3
11
35
25
7
48
4
53
54
26
40
39
52
28
10
6
27
17
47
8
2
24
46
21
41
43
32
23
16
38
30
45
5
50
22
51
33
18
9
34
14
19
56
12
42

> <PUBCHEM_MMFF94_PARTIAL_CHARGES>
33
1 -0.36
10 0.08
11 0.08
12 -0.15
13 0.54
14 0.12
15 -0.15
16 -0.15
17 0.09
18 -0.15
19 -0.15
2 -0.36
20 -0.15
21 0.54
22 0.28
23 0.28
24 0.28
25 0.15
26 0.15
27 0.37
28 0.15
29 0.15
3 -0.36
30 0.15
31 0.15
4 -0.57
41 0.37
42 0.37
5 -0.57
6 -0.55
7 -0.8
8 0.09
9 0.08

> <PUBCHEM_EFFECTIVE_ROTOR_COUNT>
7

> <PUBCHEM_PHARMACOPHORE_FEATURES>
9
1 1 acceptor
1 2 acceptor
1 3 acceptor
1 4 acceptor
1 5 acceptor
1 6 donor
1 7 donor
6 14 16 17 18 19 20 rings
6 8 9 10 11 12 15 rings

> <PUBCHEM_HEAVY_ATOM_COUNT>
24

> <PUBCHEM_ATOM_DEF_STEREO_COUNT>
0

> <PUBCHEM_ATOM_UDEF_STEREO_COUNT>
0

> <PUBCHEM_BOND_DEF_STEREO_COUNT>
0

> <PUBCHEM_BOND_UDEF_STEREO_COUNT>
0

> <PUBCHEM_ISOTOPIC_ATOM_COUNT>
0

> <PUBCHEM_COMPONENT_COUNT>
1

> <PUBCHEM_CACTVS_TAUTO_COUNT>
4

> <PUBCHEM_CONFORMER_ID>
0109731F00000001

> <PUBCHEM_MMFF94_ENERGY>
108.9951

> <PUBCHEM_FEATURE_SELFOVERLAP>
45.68

> <PUBCHEM_SHAPE_FINGERPRINT>
10366900 7 16200154317853921253
10595046 47 18408038498548259192
10693767 8 18336536231899453942
10912923 1 18260822726273276144
11135609 149 17559420113136724606
11524674 6 15430037643929382575
11796584 16 17895753027264307743
12107183 9 17833264603440514073
12166972 35 18411417319334385577
12236239 1 18408601487119196577
12616971 3 18339350980637210585
13167823 11 18408323298124815675
13533116 47 18409169900223558714
14528608 73 18411132528837860800
14576447 43 18408604734098654576
15081414 286 17917699206931558684
15183329 4 18410289237430968039
15250474 111 18335145310355122423
17357779 13 16845574235896070869
17834072 33 18408884040185348625
17857418 61 18333454240096486523
18222031 100 18272094936977589858
18681886 176 18187083949593048010
20028762 73 18335424629485370158
20612939 158 18131064948406278388
20645477 70 18343581876138829970
21033648 29 16200434671801833565
21065198 48 18335699459724829817
21709351 56 18201159948812173829
221357 26 17704077317162631077
23522609 53 18044064961683875449
23559900 14 18189347788358560105
29717793 49 18409449227764165542
3004659 81 18412831316904522195
338550 245 18187085061515649543
3411729 13 16806465595381234736
34797466 226 16878219767333752216
439807 62 18410013200875001007
46194498 28 17417813894266898869
465052 167 17968096370457396759
5104073 3 17458626692649241043
559249 180 18261396706557255515
7495541 125 17603590729128671504
9971528 1 18131064948691569900

> <PUBCHEM_SHAPE_MULTIPOLES>
454.6
15.29
2.49
1.24
10.17
0.61
-0.22
6.38
-3.44
-2.41
-0.31
0.35
-0.39
-2.76

> <PUBCHEM_SHAPE_SELFOVERLAP>
971.497

> <PUBCHEM_SHAPE_VOLUME>
252.2

> <PUBCHEM_COORDINATE_TYPE>
2
5
10

$$$$

