17396337
  -OEChem-06241222563D

 39 40  0     0  0  0  0  0  0999 V2000
   -4.2736   -0.8045   -2.2498 S   0  0  0  0  0  0  0  0  0  0  0  0
    5.3380    2.8634   -0.4324 S   0  0  0  0  0  0  0  0  0  0  0  0
   -0.1336   -0.8725    0.0054 O   0  0  0  0  0  0  0  0  0  0  0  0
    3.7854   -1.9306    0.5444 O   0  0  0  0  0  0  0  0  0  0  0  0
    1.1750   -2.2375    1.3180 O   0  0  0  0  0  0  0  0  0  0  0  0
   -5.0015    1.3460    1.8269 O   0  0  0  0  0  0  0  0  0  0  0  0
   -3.3309   -0.4330    0.1285 N   0  0  0  0  0  0  0  0  0  0  0  0
   -5.3989    0.6814   -0.4062 N   0  0  0  0  0  0  0  0  0  0  0  0
    2.0856   -0.2472    0.3723 C   0  0  0  0  0  0  0  0  0  0  0  0
    3.4258   -0.6323    0.3391 C   0  0  0  0  0  0  0  0  0  0  0  0
   -1.2473   -1.7547    0.1817 C   0  0  0  0  0  0  0  0  0  0  0  0
    1.7378    1.0868    0.1595 C   0  0  0  0  0  0  0  0  0  0  0  0
   -2.4596   -1.2706   -0.5403 C   0  0  0  0  0  0  0  0  0  0  0  0
    4.4183    0.3164    0.0931 C   0  0  0  0  0  0  0  0  0  0  0  0
    4.0705    1.6503   -0.1194 C   0  0  0  0  0  0  0  0  0  0  0  0
    1.0335   -1.2216    0.6265 C   0  0  0  0  0  0  0  0  0  0  0  0
    2.7303    2.0355   -0.0863 C   0  0  0  0  0  0  0  0  0  0  0  0
   -2.8023   -1.5844   -1.8388 C   0  0  0  0  0  0  0  0  0  0  0  0
   -4.3239   -0.1235   -0.6754 C   0  0  0  0  0  0  0  0  0  0  0  0
    5.1780   -2.2330    0.4924 C   0  0  0  0  0  0  0  0  0  0  0  0
   -5.6690    1.3525    0.7980 C   0  0  0  0  0  0  0  0  0  0  0  0
    6.6101    1.8641   -1.2560 C   0  0  0  0  0  0  0  0  0  0  0  0
   -6.9479    2.1490    0.7189 C   0  0  0  0  0  0  0  0  0  0  0  0
   -0.9747   -2.7521   -0.1844 H   0  0  0  0  0  0  0  0  0  0  0  0
   -1.4726   -1.8330    1.2523 H   0  0  0  0  0  0  0  0  0  0  0  0
    0.7042    1.4216    0.1924 H   0  0  0  0  0  0  0  0  0  0  0  0
    5.4663    0.0520    0.0955 H   0  0  0  0  0  0  0  0  0  0  0  0
    2.4406    3.0711   -0.2467 H   0  0  0  0  0  0  0  0  0  0  0  0
   -2.2783   -2.2125   -2.5452 H   0  0  0  0  0  0  0  0  0  0  0  0
   -6.0573    0.7908   -1.1734 H   0  0  0  0  0  0  0  0  0  0  0  0
    5.5998   -2.0361   -0.4994 H   0  0  0  0  0  0  0  0  0  0  0  0
    5.7317   -1.7313    1.2934 H   0  0  0  0  0  0  0  0  0  0  0  0
    5.2784   -3.3093    0.6680 H   0  0  0  0  0  0  0  0  0  0  0  0
    7.1590    1.2522   -0.5356 H   0  0  0  0  0  0  0  0  0  0  0  0
    7.3284    2.5416   -1.7269 H   0  0  0  0  0  0  0  0  0  0  0  0
    6.1779    1.2351   -2.0392 H   0  0  0  0  0  0  0  0  0  0  0  0
   -7.1416    2.6368    1.6782 H   0  0  0  0  0  0  0  0  0  0  0  0
   -6.8585    2.9138   -0.0577 H   0  0  0  0  0  0  0  0  0  0  0  0
   -7.7842    1.4849    0.4834 H   0  0  0  0  0  0  0  0  0  0  0  0
  1 18  1  0  0  0  0
  1 19  1  0  0  0  0
  2 15  1  0  0  0  0
  2 22  1  0  0  0  0
  3 11  1  0  0  0  0
  3 16  1  0  0  0  0
  4 10  1  0  0  0  0
  4 20  1  0  0  0  0
  5 16  2  0  0  0  0
  6 21  2  0  0  0  0
  7 13  1  0  0  0  0
  7 19  2  0  0  0  0
  8 19  1  0  0  0  0
  8 21  1  0  0  0  0
  8 30  1  0  0  0  0
  9 10  2  0  0  0  0
  9 12  1  0  0  0  0
  9 16  1  0  0  0  0
 10 14  1  0  0  0  0
 11 13  1  0  0  0  0
 11 24  1  0  0  0  0
 11 25  1  0  0  0  0
 12 17  2  0  0  0  0
 12 26  1  0  0  0  0
 13 18  2  0  0  0  0
 14 15  2  0  0  0  0
 14 27  1  0  0  0  0
 15 17  1  0  0  0  0
 17 28  1  0  0  0  0
 18 29  1  0  0  0  0
 20 31  1  0  0  0  0
 20 32  1  0  0  0  0
 20 33  1  0  0  0  0
 21 23  1  0  0  0  0
 22 34  1  0  0  0  0
 22 35  1  0  0  0  0
 22 36  1  0  0  0  0
 23 37  1  0  0  0  0
 23 38  1  0  0  0  0
 23 39  1  0  0  0  0
M  END
> <PUBCHEM_COMPOUND_CID>
17396337

> <PUBCHEM_CONFORMER_RMSD>
1

> <PUBCHEM_CONFORMER_DIVERSEORDER>
18
68
57
159
11
158
72
166
160
82
171
138
69
102
48
150
163
167
173
87
101
136
115
23
105
89
71
122
94
34
161
96
98
152
155
118
165
164
85
174
133
65
142
43
117
1
42
126
112
91
170
143
109
95
79
141
140
80
15
78
128
7
52
110
92
50
97
45
135
148
75
124
14
77
90
38
111
146
55
137
17
73
86
76
31
41
153
151
66
129
21
81
63
37
9
113
53
125
74
108
144
134
8
39
56
64
62
88
123
35
84
51
100
60
83
6
106
104
149
44
2
47
169
5
99
130
54
132
32
70
107
13
22
131
156
40
67
114
58
27
19
46
49
157
16
103
3
26
30
59
116
61
25
28
93
127
20
12
119
33
4
24
120
168
121
154
147
29
162
36
145
172
139
10

> <PUBCHEM_MMFF94_PARTIAL_CHARGES>
28
1 -0.08
10 0.08
11 0.46
12 -0.15
13 0.05
14 -0.15
15 0.1
16 0.63
17 -0.15
18 -0.11
19 0.44
2 -0.33
20 0.28
21 0.57
22 0.23
23 0.06
26 0.15
27 0.15
28 0.15
29 0.15
3 -0.43
30 0.37
4 -0.36
5 -0.57
6 -0.57
7 -0.57
8 -0.49
9 0.09

> <PUBCHEM_EFFECTIVE_ROTOR_COUNT>
8

> <PUBCHEM_PHARMACOPHORE_FEATURES>
7
1 22 hydrophobe
1 4 acceptor
1 5 acceptor
1 6 acceptor
1 8 donor
5 1 7 13 18 19 rings
6 9 10 12 14 15 17 rings

> <PUBCHEM_HEAVY_ATOM_COUNT>
23

> <PUBCHEM_ATOM_DEF_STEREO_COUNT>
0

> <PUBCHEM_ATOM_UDEF_STEREO_COUNT>
0

> <PUBCHEM_BOND_DEF_STEREO_COUNT>
0

> <PUBCHEM_BOND_UDEF_STEREO_COUNT>
0

> <PUBCHEM_ISOTOPIC_ATOM_COUNT>
0

> <PUBCHEM_COMPONENT_COUNT>
1

> <PUBCHEM_CACTVS_TAUTO_COUNT>
3

> <PUBCHEM_CONFORMER_ID>
0109727100000012

> <PUBCHEM_MMFF94_ENERGY>
61.1767

> <PUBCHEM_FEATURE_SELFOVERLAP>
35.525

> <PUBCHEM_SHAPE_FINGERPRINT>
10595046 47 18263089812065712215
10906281 52 18201154331438289568
11796584 16 16515691039464648390
12107183 9 18190183566744467595
12236239 1 18334018306910066963
12390115 104 18129376012367528946
12596602 18 18342172272446455161
12616971 3 18410018762039601531
12788726 201 17749379408183158985
13073987 5 18337956688340461819
13177829 73 17895197765755994699
13947920 75 17313372435716914632
14251764 75 18341046324472363772
15064981 113 17023465386243451229
15081414 286 18060422391721967588
15183329 4 17967810556983325429
15475509 8 18189890010515415798
1577012 14 18333452045505270421
16120349 67 16517065485287136889
1768 23 17823676699254632577
20612939 158 18342185457611353830
21033648 144 18201729422515352703
21033648 29 16845584144759954551
21033650 10 15285902715677613715
21315759 148 14261367863741673288
22122407 14 18268983371164940977
22393880 68 17531814511277840414
23402655 69 18335986368061750422
23559900 14 18340778061807131634
268830 7 18342187660518061471
34797466 226 15864921906567919618
38570 142 18338785771462399924
497634 4 18340217284954071247
5104073 3 18060144201957362626
543358 83 18410014321449488930
633830 44 18412832377803895422
90127 26 17489321809900544063

> <PUBCHEM_SHAPE_MULTIPOLES>
447.59
17.33
2.95
1.42
8.45
0.52
0.53
12.02
1.02
-2.32
-0.34
1.79
-0.22
-3.83

> <PUBCHEM_SHAPE_SELFOVERLAP>
912.194

> <PUBCHEM_SHAPE_VOLUME>
262.9

> <PUBCHEM_COORDINATE_TYPE>
2
5
10

$$$$

