72304
  -OEChem-07051212453D

 27 29  0     0  0  0  0  0  0999 V2000
    1.3320    1.8899   -0.0138 O   0  0  0  0  0  0  0  0  0  0  0  0
    0.0107   -1.9701   -0.0652 O   0  0  0  0  0  0  0  0  0  0  0  0
   -0.5423    0.3456   -0.0221 C   0  0  0  0  0  0  0  0  0  0  0  0
    1.8359   -0.4843   -0.0071 C   0  0  0  0  0  0  0  0  0  0  0  0
    0.3977   -0.8092   -0.0299 C   0  0  0  0  0  0  0  0  0  0  0  0
    2.2296    0.8534   -0.0016 C   0  0  0  0  0  0  0  0  0  0  0  0
   -2.0026    0.1611   -0.0038 C   0  0  0  0  0  0  0  0  0  0  0  0
   -0.0052    1.5749   -0.0135 C   0  0  0  0  0  0  0  0  0  0  0  0
    2.7957   -1.4998    0.0051 C   0  0  0  0  0  0  0  0  0  0  0  0
    3.5852    1.1833    0.0159 C   0  0  0  0  0  0  0  0  0  0  0  0
   -2.7150    0.0893   -1.2029 C   0  0  0  0  0  0  0  0  0  0  0  0
   -2.6808    0.0568    1.2125 C   0  0  0  0  0  0  0  0  0  0  0  0
    4.1509   -1.1673    0.0232 C   0  0  0  0  0  0  0  0  0  0  0  0
    4.5450    0.1712    0.0285 C   0  0  0  0  0  0  0  0  0  0  0  0
   -4.0988   -0.0861   -1.1858 C   0  0  0  0  0  0  0  0  0  0  0  0
   -4.0645   -0.1186    1.2298 C   0  0  0  0  0  0  0  0  0  0  0  0
   -4.7734   -0.1900    0.0306 C   0  0  0  0  0  0  0  0  0  0  0  0
   -0.5900    2.4867   -0.0029 H   0  0  0  0  0  0  0  0  0  0  0  0
    2.5099   -2.5478    0.0007 H   0  0  0  0  0  0  0  0  0  0  0  0
    3.9005    2.2231    0.0200 H   0  0  0  0  0  0  0  0  0  0  0  0
   -2.2034    0.1675   -2.1593 H   0  0  0  0  0  0  0  0  0  0  0  0
   -2.1425    0.1095    2.1560 H   0  0  0  0  0  0  0  0  0  0  0  0
    4.9012   -1.9527    0.0329 H   0  0  0  0  0  0  0  0  0  0  0  0
    5.6010    0.4253    0.0423 H   0  0  0  0  0  0  0  0  0  0  0  0
   -4.6508   -0.1420   -2.1194 H   0  0  0  0  0  0  0  0  0  0  0  0
   -4.5900   -0.1999    2.1768 H   0  0  0  0  0  0  0  0  0  0  0  0
   -5.8508   -0.3268    0.0440 H   0  0  0  0  0  0  0  0  0  0  0  0
  1  6  1  0  0  0  0
  1  8  1  0  0  0  0
  2  5  2  0  0  0  0
  3  5  1  0  0  0  0
  3  7  1  0  0  0  0
  3  8  2  0  0  0  0
  4  5  1  0  0  0  0
  4  6  1  0  0  0  0
  4  9  2  0  0  0  0
  6 10  2  0  0  0  0
  7 11  2  0  0  0  0
  7 12  1  0  0  0  0
  8 18  1  0  0  0  0
  9 13  1  0  0  0  0
  9 19  1  0  0  0  0
 10 14  1  0  0  0  0
 10 20  1  0  0  0  0
 11 15  1  0  0  0  0
 11 21  1  0  0  0  0
 12 16  2  0  0  0  0
 12 22  1  0  0  0  0
 13 14  2  0  0  0  0
 13 23  1  0  0  0  0
 14 24  1  0  0  0  0
 15 17  2  0  0  0  0
 15 25  1  0  0  0  0
 16 17  1  0  0  0  0
 16 26  1  0  0  0  0
 17 27  1  0  0  0  0
M  END
> <PUBCHEM_COMPOUND_CID>
72304

> <PUBCHEM_CONFORMER_RMSD>
0.6

> <PUBCHEM_CONFORMER_DIVERSEORDER>
1
2

> <PUBCHEM_MMFF94_PARTIAL_CHARGES>
27
1 -0.16
10 -0.15
11 -0.15
12 -0.15
13 -0.15
14 -0.15
15 -0.15
16 -0.15
17 -0.15
18 0.15
19 0.15
2 -0.57
20 0.15
21 0.15
22 0.15
23 0.15
24 0.15
25 0.15
26 0.15
27 0.15
3 -0.01
4 0.09
5 0.47
6 0.08
7 0.03
8 -0.07
9 -0.15

> <PUBCHEM_EFFECTIVE_ROTOR_COUNT>
1

> <PUBCHEM_PHARMACOPHORE_FEATURES>
5
1 1 acceptor
1 2 acceptor
6 1 3 4 5 6 8 rings
6 4 6 9 10 13 14 rings
6 7 11 12 15 16 17 rings

> <PUBCHEM_HEAVY_ATOM_COUNT>
17

> <PUBCHEM_ATOM_DEF_STEREO_COUNT>
0

> <PUBCHEM_ATOM_UDEF_STEREO_COUNT>
0

> <PUBCHEM_BOND_DEF_STEREO_COUNT>
0

> <PUBCHEM_BOND_UDEF_STEREO_COUNT>
0

> <PUBCHEM_ISOTOPIC_ATOM_COUNT>
0

> <PUBCHEM_COMPONENT_COUNT>
1

> <PUBCHEM_CACTVS_TAUTO_COUNT>
1

> <PUBCHEM_CONFORMER_ID>
00011A7000000001

> <PUBCHEM_MMFF94_ENERGY>
53.4417

> <PUBCHEM_FEATURE_SELFOVERLAP>
25.4

> <PUBCHEM_SHAPE_FINGERPRINT>
11132069 177 18336837419989406370
11471102 20 18411702075913692380
11615757 297 18334576841273000747
11796584 16 16630251402129915778
12032990 46 18342453776918269554
12236239 1 17748826311232197805
13140716 1 18194405481468952112
13760787 5 18409446985981076148
13862211 1 18410579521987288070
14251717 144 18408605863669726686
14252887 29 18260260889185869502
14289901 80 15213019332160966494
14386348 63 17918272052251622563
15196674 1 18338517546802825068
15219456 202 18060138739059258349
15309172 13 18408882936384275023
15375358 24 18060139833911922155
15375462 189 18113337522199648088
15653759 3 17203327801760820825
15848702 151 17822284751334183502
16945 1 18410573964209611468
17357779 13 18130519594908002461
17862501 102 17676207978547684355
1813 80 18261377997094334092
18186145 218 18334856108404438790
19026448 4 17132114636800279572
19026448 5 16950564376338808968
200 152 18260554424609952461
20279233 1 17847059982502551539
20645477 70 18340493351801999638
21267235 1 18409722998139330734
22094290 60 16415480467276618685
22646028 1 17894633651613072421
23175994 123 18202560683602850221
23184049 59 18408600361985341054
23402539 116 17967818266396770092
23402655 69 18335144210473645149
23557571 272 16988564645209446613
23559900 14 16845014618974381930
26918003 58 18272932725871876745
2748010 2 17978226059309276556
2871803 45 18272653493210972642
34797466 226 16128358385750125110
474 4 17679598739449097408
5104073 3 18340207500132263249
537710 114 18411132528969840140
573450 72 17022623087342449511
602551 16 16271637889022077203
69090 78 18408043987558628958
77492 1 17676486133994768501

> <PUBCHEM_SHAPE_MULTIPOLES>
338.11
9.33
1.5
0.96
1.83
0.02
-0.01
-0.9
-0.11
-1.37
0.01
1.2
-0.01
0.03

> <PUBCHEM_SHAPE_SELFOVERLAP>
754.503

> <PUBCHEM_SHAPE_VOLUME>
178.7

> <PUBCHEM_COORDINATE_TYPE>
2
5
10

$$$$

