3673
  -OEChem-06251223343D

 45 46  0     1  0  0  0  0  0999 V2000
   -2.1127   -0.0895   -0.0128 O   0  0  0  0  0  0  0  0  0  0  0  0
   -0.2495    1.0792    0.6711 O   0  0  0  0  0  0  0  0  0  0  0  0
   -4.8798    1.0091   -1.0175 N   0  0  0  0  0  0  0  0  0  0  0  0
    6.1852    1.0370    0.0700 C   0  0  0  0  0  0  0  0  0  0  0  0
    5.7298   -0.4355    0.0545 C   0  0  0  0  0  0  0  0  0  0  0  0
    4.2353   -0.6107   -0.0619 C   0  0  0  0  0  0  0  0  0  0  0  0
    0.0139   -1.1039   -0.3908 C   0  0  1  0  0  0  0  0  0  0  0  0
    1.4905   -0.9311   -0.2758 C   0  0  0  0  0  0  0  0  0  0  0  0
    5.6982    1.8014   -1.1635 C   0  0  0  0  0  0  0  0  0  0  0  0
    5.6725    1.7244    1.3379 C   0  0  0  0  0  0  0  0  0  0  0  0
    3.4668   -0.6721    1.0897 C   0  0  0  0  0  0  0  0  0  0  0  0
    3.6583   -0.7064   -1.3185 C   0  0  0  0  0  0  0  0  0  0  0  0
    2.0854   -0.8334    0.9821 C   0  0  0  0  0  0  0  0  0  0  0  0
    2.2769   -0.8676   -1.4259 C   0  0  0  0  0  0  0  0  0  0  0  0
   -0.4992   -2.4040    0.2616 C   0  0  0  0  0  0  0  0  0  0  0  0
   -0.7691    0.0928    0.1651 C   0  0  0  0  0  0  0  0  0  0  0  0
   -2.9473    0.9808    0.4415 C   0  0  0  0  0  0  0  0  0  0  0  0
   -4.3819    0.6294    0.1767 C   0  0  0  0  0  0  0  0  0  0  0  0
   -5.0970   -0.0471    1.1463 C   0  0  0  0  0  0  0  0  0  0  0  0
   -6.4239   -0.3576    0.8699 C   0  0  0  0  0  0  0  0  0  0  0  0
   -6.1728    0.6900   -1.2506 C   0  0  0  0  0  0  0  0  0  0  0  0
   -6.9796    0.0145   -0.3492 C   0  0  0  0  0  0  0  0  0  0  0  0
    7.2819    1.0519    0.0846 H   0  0  0  0  0  0  0  0  0  0  0  0
    6.2164   -0.9533   -0.7832 H   0  0  0  0  0  0  0  0  0  0  0  0
    6.0911   -0.9488    0.9555 H   0  0  0  0  0  0  0  0  0  0  0  0
   -0.2484   -1.1487   -1.4573 H   0  0  0  0  0  0  0  0  0  0  0  0
    6.1577    2.7960   -1.1908 H   0  0  0  0  0  0  0  0  0  0  0  0
    5.9855    1.2841   -2.0846 H   0  0  0  0  0  0  0  0  0  0  0  0
    4.6142    1.9519   -1.1666 H   0  0  0  0  0  0  0  0  0  0  0  0
    5.9386    1.1541    2.2341 H   0  0  0  0  0  0  0  0  0  0  0  0
    4.5889    1.8763    1.3270 H   0  0  0  0  0  0  0  0  0  0  0  0
    6.1308    2.7154    1.4349 H   0  0  0  0  0  0  0  0  0  0  0  0
    3.9188   -0.6043    2.0749 H   0  0  0  0  0  0  0  0  0  0  0  0
    4.2604   -0.6642   -2.2214 H   0  0  0  0  0  0  0  0  0  0  0  0
    1.4903   -0.8822    1.8900 H   0  0  0  0  0  0  0  0  0  0  0  0
    1.8303   -0.9433   -2.4138 H   0  0  0  0  0  0  0  0  0  0  0  0
   -1.5532   -2.5789    0.0203 H   0  0  0  0  0  0  0  0  0  0  0  0
    0.0716   -3.2693   -0.0928 H   0  0  0  0  0  0  0  0  0  0  0  0
   -0.4168   -2.3663    1.3536 H   0  0  0  0  0  0  0  0  0  0  0  0
   -2.7842    1.1560    1.5120 H   0  0  0  0  0  0  0  0  0  0  0  0
   -2.6896    1.8980   -0.1021 H   0  0  0  0  0  0  0  0  0  0  0  0
   -4.6527   -0.3344    2.0930 H   0  0  0  0  0  0  0  0  0  0  0  0
   -7.0235   -0.8890    1.6027 H   0  0  0  0  0  0  0  0  0  0  0  0
   -6.5585    1.0021   -2.2155 H   0  0  0  0  0  0  0  0  0  0  0  0
   -8.0116   -0.2171   -0.5863 H   0  0  0  0  0  0  0  0  0  0  0  0
  1 16  1  0  0  0  0
  1 17  1  0  0  0  0
  2 16  2  0  0  0  0
  3 18  1  0  0  0  0
  3 21  2  0  0  0  0
  4  5  1  0  0  0  0
  4  9  1  0  0  0  0
  4 10  1  0  0  0  0
  4 23  1  0  0  0  0
  5  6  1  0  0  0  0
  5 24  1  0  0  0  0
  5 25  1  0  0  0  0
  6 11  2  0  0  0  0
  6 12  1  0  0  0  0
  7  8  1  0  0  0  0
  7 15  1  0  0  0  0
  7 16  1  0  0  0  0
  7 26  1  0  0  0  0
  8 13  2  0  0  0  0
  8 14  1  0  0  0  0
  9 27  1  0  0  0  0
  9 28  1  0  0  0  0
  9 29  1  0  0  0  0
 10 30  1  0  0  0  0
 10 31  1  0  0  0  0
 10 32  1  0  0  0  0
 11 13  1  0  0  0  0
 11 33  1  0  0  0  0
 12 14  2  0  0  0  0
 12 34  1  0  0  0  0
 13 35  1  0  0  0  0
 14 36  1  0  0  0  0
 15 37  1  0  0  0  0
 15 38  1  0  0  0  0
 15 39  1  0  0  0  0
 17 18  1  0  0  0  0
 17 40  1  0  0  0  0
 17 41  1  0  0  0  0
 18 19  2  0  0  0  0
 19 20  1  0  0  0  0
 19 42  1  0  0  0  0
 20 22  2  0  0  0  0
 20 43  1  0  0  0  0
 21 22  1  0  0  0  0
 21 44  1  0  0  0  0
 22 45  1  0  0  0  0
M  END
> <PUBCHEM_COMPOUND_CID>
3673

> <PUBCHEM_CONFORMER_RMSD>
0.8

> <PUBCHEM_CONFORMER_DIVERSEORDER>
1
175
231
254
165
206
309
261
91
307
311
303
310
149
64
185
20
89
285
113
105
298
201
238
53
257
230
292
326
265
170
228
132
269
17
215
137
4
16
236
337
267
118
18
129
330
188
194
35
187
207
176
25
104
84
5
251
329
229
136
182
255
247
203
241
81
34
171
69
234
242
2
76
88
38
65
102
320
174
68
315
78
324
259
282
283
11
36
42
219
209
130
120
46
12
211
334
111
227
22
339
106
327
306
66
164
299
33
86
202
163
200
93
179
212
67
338
273
218
80
7
333
82
49
79
108
95
155
249
92
3
24
318
287
57
13
37
63
240
152
141
232
6
195
214
204
143
314
54
220
83
151
284
28
115
178
157
77
58
123
235
191
10
56
47
177
41
169
192
70
159
239
286
19
100
180
168
224
9
134
98
258
44
312
323
302
173
332
60
39
27
167
260
335
156
40
146
61
21
196
154
340
74
278
199
190
189
109
172
158
97
226
29
213
300
313
112
116
142
85
133
127
186
162
131
276
331
72
52
71
274
14
237
208
161
48
289
94
223
75
140
328
15
160
31
210
321
124
246
197
198
293
8
122
73
264
325
336
135
117
301
103
205
128
139
99
62
245
55
126
304
145
270
43
110
266
121
277
166
150
291
308
319
51
322
114
262
288
216
275
147
184
144
96
271
119
268
153
280
244
45
341
250
248
23
32
316
243
87
281
295
101
221
90
297
296
253
305
59
272
279
233
256
317
30
183
181
225
263
217
50
125
148
252
193
290
138
26
222
294
107

> <PUBCHEM_MMFF94_PARTIAL_CHARGES>
26
1 -0.43
11 -0.15
12 -0.15
13 -0.15
14 -0.15
16 0.66
17 0.42
18 0.17
19 -0.15
2 -0.57
20 -0.15
21 0.16
22 -0.15
3 -0.62
33 0.15
34 0.15
35 0.15
36 0.15
42 0.15
43 0.15
44 0.15
45 0.15
5 0.14
6 -0.14
7 0.2
8 -0.14

> <PUBCHEM_EFFECTIVE_ROTOR_COUNT>
7

> <PUBCHEM_PHARMACOPHORE_FEATURES>
6
1 15 hydrophobe
1 2 acceptor
1 3 acceptor
3 4 9 10 hydrophobe
6 3 18 19 20 21 22 rings
6 6 8 11 12 13 14 rings

> <PUBCHEM_HEAVY_ATOM_COUNT>
22

> <PUBCHEM_ATOM_DEF_STEREO_COUNT>
0

> <PUBCHEM_ATOM_UDEF_STEREO_COUNT>
1

> <PUBCHEM_BOND_DEF_STEREO_COUNT>
0

> <PUBCHEM_BOND_UDEF_STEREO_COUNT>
0

> <PUBCHEM_ISOTOPIC_ATOM_COUNT>
0

> <PUBCHEM_COMPONENT_COUNT>
1

> <PUBCHEM_CACTVS_TAUTO_COUNT>
1

> <PUBCHEM_CONFORMER_ID>
00000E5900000001

> <PUBCHEM_MMFF94_ENERGY>
51.9202

> <PUBCHEM_FEATURE_SELFOVERLAP>
30.446

> <PUBCHEM_SHAPE_FINGERPRINT>
10 15 17632576020379556228
10299344 5 15791731910543679903
10638233 991 17167581566161048129
11089746 13 14333405649527120829
11719270 70 16415481562293021138
11796584 16 9151165459566901348
12236239 1 17632577166830018714
125118 31 18202001057600967661
12516196 113 17561363989469761893
12596602 18 17418095420751756664
12730499 353 17603300462507230630
13533116 47 17845376703642587202
13899415 154 17385439903921423608
13914758 101 13110971933417716599
14123256 10 17749109993252529325
14251758 9 9727632787164210821
14251764 30 6555404327941760637
14347424 109 13614522935817241852
14461889 52 17988639662225943018
14528608 73 17022905644582496432
14856354 85 14996285791313403789
15183329 4 6411303428989730146
15475509 35 10087372067488723580
17844677 252 14201402677300996291
19489759 90 16343699950627832589
19784866 140 6627471791719453030
20157964 124 18410572907858705414
20511986 3 16773526520652013323
20567600 234 17703507705894469900
21150785 3 17748831791526026309
21267235 1 8358262557521688842
21344244 181 5184073643535060036
21521721 280 18113052723129454891
21774942 28 15625681521555355599
220451 1 15864069892926454295
22079108 93 17917993854445897594
22224240 67 18343863316924750427
2297311 6 4823215009640686395
23035841 295 14779548997924689111
23081809 10 17604146029782319899
23522609 53 16153968184798234169
23536379 177 16343983637338523411
249057 3 18407757041795890342
2838139 119 18040723575726653000
28498 318 10015591601250104521
300161 21 17561366192824927483
33382 64 9223239546452903732
3472631 163 18341608175605007292
34797466 226 18334849532830659813
4072396 5 15195566810285159530
4325135 7 17894351085620015613
4340502 62 17203609293901830354
46194498 28 14201398283723487048
5207 217 18261111863687842279
53794403 172 18190746319530755560
5385378 56 10375601438528377605

> <PUBCHEM_SHAPE_MULTIPOLES>
436.03
19.24
1.63
1.29
13.92
0.11
-0.12
-7.56
-0.58
-1.66
0.02
-0.36
-0.13
0.67

> <PUBCHEM_SHAPE_SELFOVERLAP>
910.075

> <PUBCHEM_SHAPE_VOLUME>
246.2

> <PUBCHEM_COORDINATE_TYPE>
2
5
10

$$$$

