37034
  -OEChem-07051213043D

 22 23  0     0  0  0  0  0  0999 V2000
    0.4969    1.9690   -1.9959 Cl  0  0  0  0  0  0  0  0  0  0  0  0
   -0.4969    1.9687    1.9961 Cl  0  0  0  0  0  0  0  0  0  0  0  0
    3.7203   -1.9650    1.6324 Cl  0  0  0  0  0  0  0  0  0  0  0  0
   -3.7203   -1.9648   -1.6326 Cl  0  0  0  0  0  0  0  0  0  0  0  0
    5.2213   -0.0209   -0.4739 Cl  0  0  0  0  0  0  0  0  0  0  0  0
   -5.2213   -0.0209    0.4739 Cl  0  0  0  0  0  0  0  0  0  0  0  0
    0.7218    0.0345   -0.0728 C   0  0  0  0  0  0  0  0  0  0  0  0
   -0.7218    0.0344    0.0727 C   0  0  0  0  0  0  0  0  0  0  0  0
    1.3689    0.8721   -0.9812 C   0  0  0  0  0  0  0  0  0  0  0  0
   -1.3689    0.8720    0.9814 C   0  0  0  0  0  0  0  0  0  0  0  0
    1.4648   -0.8348    0.7258 C   0  0  0  0  0  0  0  0  0  0  0  0
   -1.4648   -0.8347   -0.7260 C   0  0  0  0  0  0  0  0  0  0  0  0
    2.8550   -0.8663    0.6161 C   0  0  0  0  0  0  0  0  0  0  0  0
   -2.8550   -0.8663   -0.6162 C   0  0  0  0  0  0  0  0  0  0  0  0
    2.7591    0.8404   -1.0910 C   0  0  0  0  0  0  0  0  0  0  0  0
   -2.7591    0.8403    1.0911 C   0  0  0  0  0  0  0  0  0  0  0  0
    3.5021   -0.0288   -0.2924 C   0  0  0  0  0  0  0  0  0  0  0  0
   -3.5021   -0.0288    0.2924 C   0  0  0  0  0  0  0  0  0  0  0  0
    0.9615   -1.4894    1.4355 H   0  0  0  0  0  0  0  0  0  0  0  0
   -0.9615   -1.4892   -1.4357 H   0  0  0  0  0  0  0  0  0  0  0  0
    3.2634    1.4942   -1.7998 H   0  0  0  0  0  0  0  0  0  0  0  0
   -3.2634    1.4941    1.8000 H   0  0  0  0  0  0  0  0  0  0  0  0
  1  9  1  0  0  0  0
  2 10  1  0  0  0  0
  3 13  1  0  0  0  0
  4 14  1  0  0  0  0
  5 17  1  0  0  0  0
  6 18  1  0  0  0  0
  7  8  1  0  0  0  0
  7  9  1  0  0  0  0
  7 11  2  0  0  0  0
  8 10  1  0  0  0  0
  8 12  2  0  0  0  0
  9 15  2  0  0  0  0
 10 16  2  0  0  0  0
 11 13  1  0  0  0  0
 11 19  1  0  0  0  0
 12 14  1  0  0  0  0
 12 20  1  0  0  0  0
 13 17  2  0  0  0  0
 14 18  2  0  0  0  0
 15 17  1  0  0  0  0
 15 21  1  0  0  0  0
 16 18  1  0  0  0  0
 16 22  1  0  0  0  0
M  END
> <PUBCHEM_COMPOUND_CID>
37034

> <PUBCHEM_CONFORMER_RMSD>
0.6

> <PUBCHEM_CONFORMER_DIVERSEORDER>
1
2

> <PUBCHEM_MMFF94_PARTIAL_CHARGES>
20
1 -0.18
10 0.18
11 -0.15
12 -0.15
13 0.18
14 0.18
15 -0.15
16 -0.15
17 0.18
18 0.18
19 0.15
2 -0.18
20 0.15
21 0.15
22 0.15
3 -0.18
4 -0.18
5 -0.18
6 -0.18
9 0.18

> <PUBCHEM_EFFECTIVE_ROTOR_COUNT>
1

> <PUBCHEM_PHARMACOPHORE_FEATURES>
2
6 7 9 11 13 15 17 rings
6 8 10 12 14 16 18 rings

> <PUBCHEM_HEAVY_ATOM_COUNT>
18

> <PUBCHEM_ATOM_DEF_STEREO_COUNT>
0

> <PUBCHEM_ATOM_UDEF_STEREO_COUNT>
0

> <PUBCHEM_BOND_DEF_STEREO_COUNT>
0

> <PUBCHEM_BOND_UDEF_STEREO_COUNT>
0

> <PUBCHEM_ISOTOPIC_ATOM_COUNT>
0

> <PUBCHEM_COMPONENT_COUNT>
1

> <PUBCHEM_CACTVS_TAUTO_COUNT>
1

> <PUBCHEM_CONFORMER_ID>
000090AA00000001

> <PUBCHEM_MMFF94_ENERGY>
48.5235

> <PUBCHEM_FEATURE_SELFOVERLAP>
10.149

> <PUBCHEM_SHAPE_FINGERPRINT>
10062212 137 18335140869543178039
10366900 7 15502650529033952670
11578080 2 18122662471667645188
11582403 64 15690999911830608213
12236239 1 18410849966864996714
12553582 1 18040439875904174459
13134695 92 17775568624073470444
13140716 1 17630878301902423472
13911987 19 16915632871077452534
14115302 16 18336259051319533903
14178342 30 16588568830791060623
14576447 43 18200320913786943166
14787075 74 18044382625938548576
15375358 24 16056874720065880224
15375462 189 18409166593172528995
16945 1 18410581686027903813
17357779 13 17203334424584541724
1813 80 18128527357453812406
18175812 5 15719113547831454632
18186145 218 15338844204438336703
200 152 18202565081174198177
20279233 1 15697991946958115426
20600515 1 17313089848623288105
20645477 70 17203331152025612562
22112679 90 18262219067428355389
2297311 6 17385710409868014748
23175994 123 16702294663693113012
232386 152 18040714719403543733
23366157 5 17973457503070652401
23402539 116 17167864179562353165
23419403 2 17683855039048840925
23557571 272 16805593811076857745
23559900 14 17240754134130575204
2748010 2 17271700816913273484
474 4 18126842699492451404
5281201 14 15985105227601546567
5902787 121 17749957648367209771
77492 1 18410849962570029413
81228 2 16806701015423454417
90316 7 17967816101833707753
9999458 23 14707212119696955012

> <PUBCHEM_SHAPE_MULTIPOLES>
381.65
9.01
1.85
1.78
0
0.01
0
-3.35
0
0
0
0
0.44
-2.27

> <PUBCHEM_SHAPE_SELFOVERLAP>
773.574

> <PUBCHEM_SHAPE_VOLUME>
215.2

> <PUBCHEM_COORDINATE_TYPE>
2
5
10

$$$$

