5462441
  -OEChem-07051212583D

 49 52  0     1  0  0  0  0  0999 V2000
   -3.2422   -0.0290    2.0019 O   0  0  0  0  0  0  0  0  0  0  0  0
    2.4853   -1.2714   -0.8710 N   0  0  0  0  0  0  0  0  0  0  0  0
   -2.3056   -0.2388   -0.1525 N   0  0  0  0  0  0  0  0  0  0  0  0
    1.5532   -0.2140   -0.4292 C   0  0  1  0  0  0  0  0  0  0  0  0
    1.8406    0.0656    1.0705 C   0  0  1  0  0  0  0  0  0  0  0  0
    0.8908    1.1685    1.5430 C   0  0  1  0  0  0  0  0  0  0  0  0
    1.9370    1.0725   -1.2196 C   0  0  0  0  0  0  0  0  0  0  0  0
    1.1854    2.4717    0.7688 C   0  0  0  0  0  0  0  0  0  0  0  0
    0.0508   -0.5012   -0.6947 C   0  0  0  0  0  0  0  0  0  0  0  0
    1.1548    2.3196   -0.7601 C   0  0  1  0  0  0  0  0  0  0  0  0
    1.7650   -1.2045    1.9364 C   0  0  0  0  0  0  0  0  0  0  0  0
   -0.5729    0.7126    1.4049 C   0  0  0  0  0  0  0  0  0  0  0  0
   -0.9290   -0.0728    0.1495 C   0  0  0  0  0  0  0  0  0  0  0  0
    2.6902   -2.2745    1.3708 C   0  0  0  0  0  0  0  0  0  0  0  0
    2.4029   -2.5126   -0.1067 C   0  0  0  0  0  0  0  0  0  0  0  0
   -0.2764   -1.2073   -1.9972 C   0  0  0  0  0  0  0  0  0  0  0  0
    1.7015    3.5769   -1.4378 C   0  0  0  0  0  0  0  0  0  0  0  0
   -1.6961   -1.7386   -2.0271 C   0  0  0  0  0  0  0  0  0  0  0  0
   -2.6487   -0.6796   -1.5180 C   0  0  0  0  0  0  0  0  0  0  0  0
   -3.3313    0.0548    0.7745 C   0  0  0  0  0  0  0  0  0  0  0  0
   -4.6550    0.5021    0.1935 C   0  0  0  0  0  0  0  0  0  0  0  0
    2.8698    0.4451    1.1720 H   0  0  0  0  0  0  0  0  0  0  0  0
    1.0765    1.3797    2.6046 H   0  0  0  0  0  0  0  0  0  0  0  0
    1.7814    0.9256   -2.2970 H   0  0  0  0  0  0  0  0  0  0  0  0
    3.0115    1.2733   -1.0965 H   0  0  0  0  0  0  0  0  0  0  0  0
    0.4789    3.2534    1.0749 H   0  0  0  0  0  0  0  0  0  0  0  0
    2.1800    2.8269    1.0717 H   0  0  0  0  0  0  0  0  0  0  0  0
    0.1101    2.2212   -1.0794 H   0  0  0  0  0  0  0  0  0  0  0  0
    0.7476   -1.6080    1.9786 H   0  0  0  0  0  0  0  0  0  0  0  0
    2.0562   -0.9730    2.9676 H   0  0  0  0  0  0  0  0  0  0  0  0
   -1.2130    1.6010    1.4790 H   0  0  0  0  0  0  0  0  0  0  0  0
   -0.8045    0.0827    2.2731 H   0  0  0  0  0  0  0  0  0  0  0  0
    3.4426   -0.9212   -0.8206 H   0  0  0  0  0  0  0  0  0  0  0  0
    3.7346   -1.9635    1.5004 H   0  0  0  0  0  0  0  0  0  0  0  0
    2.5642   -3.2083    1.9302 H   0  0  0  0  0  0  0  0  0  0  0  0
    3.1325   -3.2242   -0.5088 H   0  0  0  0  0  0  0  0  0  0  0  0
    1.4191   -2.9796   -0.2286 H   0  0  0  0  0  0  0  0  0  0  0  0
   -0.1305   -0.5012   -2.8238 H   0  0  0  0  0  0  0  0  0  0  0  0
    0.3956   -2.0516   -2.1770 H   0  0  0  0  0  0  0  0  0  0  0  0
    1.1245    4.4590   -1.1409 H   0  0  0  0  0  0  0  0  0  0  0  0
    2.7491    3.7516   -1.1703 H   0  0  0  0  0  0  0  0  0  0  0  0
    1.6407    3.4871   -2.5274 H   0  0  0  0  0  0  0  0  0  0  0  0
   -1.9654   -2.0383   -3.0459 H   0  0  0  0  0  0  0  0  0  0  0  0
   -1.7678   -2.6342   -1.3963 H   0  0  0  0  0  0  0  0  0  0  0  0
   -2.6359    0.2077   -2.1630 H   0  0  0  0  0  0  0  0  0  0  0  0
   -3.6648   -1.0859   -1.5334 H   0  0  0  0  0  0  0  0  0  0  0  0
   -5.2735   -0.3716   -0.0271 H   0  0  0  0  0  0  0  0  0  0  0  0
   -4.5081    1.0969   -0.7118 H   0  0  0  0  0  0  0  0  0  0  0  0
   -5.1753    1.1295    0.9237 H   0  0  0  0  0  0  0  0  0  0  0  0
  1 20  2  0  0  0  0
  2  4  1  0  0  0  0
  2 15  1  0  0  0  0
  2 33  1  0  0  0  0
  3 13  1  0  0  0  0
  3 19  1  0  0  0  0
  3 20  1  0  0  0  0
  4  5  1  0  0  0  0
  4  7  1  0  0  0  0
  4  9  1  0  0  0  0
  5  6  1  0  0  0  0
  5 11  1  0  0  0  0
  5 22  1  0  0  0  0
  6  8  1  0  0  0  0
  6 12  1  0  0  0  0
  6 23  1  0  0  0  0
  7 10  1  0  0  0  0
  7 24  1  0  0  0  0
  7 25  1  0  0  0  0
  8 10  1  0  0  0  0
  8 26  1  0  0  0  0
  8 27  1  0  0  0  0
  9 13  2  0  0  0  0
  9 16  1  0  0  0  0
 10 17  1  0  0  0  0
 10 28  1  0  0  0  0
 11 14  1  0  0  0  0
 11 29  1  0  0  0  0
 11 30  1  0  0  0  0
 12 13  1  0  0  0  0
 12 31  1  0  0  0  0
 12 32  1  0  0  0  0
 14 15  1  0  0  0  0
 14 34  1  0  0  0  0
 14 35  1  0  0  0  0
 15 36  1  0  0  0  0
 15 37  1  0  0  0  0
 16 18  1  0  0  0  0
 16 38  1  0  0  0  0
 16 39  1  0  0  0  0
 17 40  1  0  0  0  0
 17 41  1  0  0  0  0
 17 42  1  0  0  0  0
 18 19  1  0  0  0  0
 18 43  1  0  0  0  0
 18 44  1  0  0  0  0
 19 45  1  0  0  0  0
 19 46  1  0  0  0  0
 20 21  1  0  0  0  0
 21 47  1  0  0  0  0
 21 48  1  0  0  0  0
 21 49  1  0  0  0  0
M  END
> <PUBCHEM_COMPOUND_CID>
5462441

> <PUBCHEM_CONFORMER_RMSD>
0.6

> <PUBCHEM_CONFORMER_DIVERSEORDER>
1
2

> <PUBCHEM_MMFF94_PARTIAL_CHARGES>
13
1 -0.57
12 0.14
13 -0.03
15 0.27
16 0.14
19 0.3
2 -0.9
20 0.57
21 0.06
3 -0.47
33 0.36
4 0.41
9 -0.28

> <PUBCHEM_EFFECTIVE_ROTOR_COUNT>
3.4

> <PUBCHEM_PHARMACOPHORE_FEATURES>
7
1 1 acceptor
1 2 cation
1 2 donor
6 2 4 5 11 14 15 rings
6 3 9 13 16 18 19 rings
6 4 5 6 7 8 10 rings
6 4 5 6 9 12 13 rings

> <PUBCHEM_HEAVY_ATOM_COUNT>
21

> <PUBCHEM_ATOM_DEF_STEREO_COUNT>
4

> <PUBCHEM_ATOM_UDEF_STEREO_COUNT>
0

> <PUBCHEM_BOND_DEF_STEREO_COUNT>
0

> <PUBCHEM_BOND_UDEF_STEREO_COUNT>
0

> <PUBCHEM_ISOTOPIC_ATOM_COUNT>
0

> <PUBCHEM_COMPONENT_COUNT>
1

> <PUBCHEM_CACTVS_TAUTO_COUNT>
1

> <PUBCHEM_CONFORMER_ID>
005359A900000001

> <PUBCHEM_MMFF94_ENERGY>
47.7052

> <PUBCHEM_FEATURE_SELFOVERLAP>
37.098

> <PUBCHEM_SHAPE_FINGERPRINT>
10863032 1 17984116189773979834
10948715 1 17840571609731663060
11086676 242 18115313413535992314
11578080 2 16343437196743841324
11582403 64 14132748264723603945
11640471 11 18045797679870192501
12326174 3 18129960983039880208
12423570 1 16964586654629235944
12788726 201 17337334298974145392
13134695 92 18339930414775665205
13172582 1 17749679587726235303
133893 2 18054818129130358822
13583140 156 18200580416238000843
13681431 1 18272102607841921332
14181834 199 18188794767615204764
14713325 29 16758014314239321012
14817 1 5176512022506948916
15906896 17 17191808476134558598
16945 1 18196060340620360044
17093844 170 16966307476079086001
17349148 13 17386300865129610175
17980427 23 15576438707319387961
1813 80 18266462182048382038
18981168 100 17702961227151061237
19765921 60 18048586028383731224
20361792 2 18269283519915317682
20559304 39 17677911036360528991
20645476 183 18260822645111996175
21330990 113 17025709558216122438
21524375 3 17552925022788669428
21756936 100 17550654522650896084
2255824 54 18340768147993567774
23419403 2 15730733212488850494
23559900 14 17060617794262255879
2748010 2 16884395977285757149
298252 57 17535154823186997156
3286 77 17561084734922500067
3797600 57 17830162511861320123
394222 165 18191282932300943608
404807 78 16193985160217554325
5845 1 11562375071617395324
6786 2 17411874216679556276
6992083 37 17968958485861857507
81228 2 17337625648196999856

> <PUBCHEM_SHAPE_MULTIPOLES>
416.34
5.17
2.93
2.13
6.38
1.71
0.03
-0.96
-1.1
-3.19
0.9
0.25
-0.31
-1.4

> <PUBCHEM_SHAPE_SELFOVERLAP>
886.556

> <PUBCHEM_SHAPE_VOLUME>
228.1

> <PUBCHEM_COORDINATE_TYPE>
2
5
10

$$$$

