12255
  -OEChem-06261206432D

 14 13  0     0  0  0  0  0  0999 V2000
    4.5981   -0.9050    0.0000 S   0  0  0  0  0  0  0  0  0  0  0  0
    3.7321    0.5950    0.0000 N   0  0  0  0  0  0  0  0  0  0  0  0
    5.4641    0.5950    0.0000 N   0  0  0  0  0  0  0  0  0  0  0  0
    2.8660    0.0950    0.0000 C   0  0  0  0  0  0  0  0  0  0  0  0
    2.0000    0.5950    0.0000 C   0  0  0  0  0  0  0  0  0  0  0  0
    4.5981    0.0950    0.0000 C   0  0  0  0  0  0  0  0  0  0  0  0
    2.4675   -0.3799    0.0000 H   0  0  0  0  0  0  0  0  0  0  0  0
    3.2646   -0.3799    0.0000 H   0  0  0  0  0  0  0  0  0  0  0  0
    2.3100    1.1319    0.0000 H   0  0  0  0  0  0  0  0  0  0  0  0
    1.4631    0.9050    0.0000 H   0  0  0  0  0  0  0  0  0  0  0  0
    1.6900    0.0581    0.0000 H   0  0  0  0  0  0  0  0  0  0  0  0
    6.0010    0.2850    0.0000 H   0  0  0  0  0  0  0  0  0  0  0  0
    5.4641    1.2150    0.0000 H   0  0  0  0  0  0  0  0  0  0  0  0
    4.0611   -1.2150    0.0000 H   0  0  0  0  0  0  0  0  0  0  0  0
  1  6  1  0  0  0  0
  1 14  1  0  0  0  0
  2  4  1  0  0  0  0
  2  6  2  0  0  0  0
  3  6  1  0  0  0  0
  3 12  1  0  0  0  0
  3 13  1  0  0  0  0
  4  5  1  0  0  0  0
  4  7  1  0  0  0  0
  4  8  1  0  0  0  0
  5  9  1  0  0  0  0
  5 10  1  0  0  0  0
  5 11  1  0  0  0  0
M  END
> <PUBCHEM_COMPOUND_CID>
12255

> <PUBCHEM_COMPOUND_CANONICALIZED>
1

> <PUBCHEM_CACTVS_COMPLEXITY>
59.8

> <PUBCHEM_CACTVS_HBOND_ACCEPTOR>
2

> <PUBCHEM_CACTVS_HBOND_DONOR>
2

> <PUBCHEM_CACTVS_ROTATABLE_BOND>
1

> <PUBCHEM_CACTVS_SUBSKEYS>
AAADccBDAABAAAAAAAAAAAAAAAAAAAAAAAAAAAAAAAAAAAAAAAAAHAQQAAAAAADBAAQDAAJAAAQgAAAAJAAAEAEAAAAAAAAAAAAAAAAAAAAAAAAAAAAAAAAAAAAAAAAAAAAAAAAAAAAAAAAAAAAAAAAAAA==

> <PUBCHEM_IUPAC_OPENEYE_NAME>
3-ethylisothiourea

> <PUBCHEM_IUPAC_CAS_NAME>
N'-ethylcarbamimidothioic acid

> <PUBCHEM_IUPAC_NAME>
N'-ethylcarbamimidothioic acid

> <PUBCHEM_IUPAC_SYSTEMATIC_NAME>
N'-ethylcarbamimidothioic acid

> <PUBCHEM_IUPAC_TRADITIONAL_NAME>
3-ethylisothiourea

> <PUBCHEM_IUPAC_INCHI>
InChI=1S/C3H8N2S/c1-2-5-3(4)6/h2H2,1H3,(H3,4,5,6)

> <PUBCHEM_IUPAC_INCHIKEY>
GMEHFXXZSWDEDB-UHFFFAOYSA-N

> <PUBCHEM_XLOGP3_AA>
0.2

> <PUBCHEM_EXACT_MASS>
104.040819

> <PUBCHEM_MOLECULAR_FORMULA>
C3H8N2S

> <PUBCHEM_MOLECULAR_WEIGHT>
104.17402

> <PUBCHEM_OPENEYE_CAN_SMILES>
CCN=C(N)S

> <PUBCHEM_OPENEYE_ISO_SMILES>
CCN=C(N)S

> <PUBCHEM_CACTVS_TPSA>
39.4

> <PUBCHEM_MONOISOTOPIC_WEIGHT>
104.040819

> <PUBCHEM_TOTAL_CHARGE>
0

> <PUBCHEM_HEAVY_ATOM_COUNT>
6

> <PUBCHEM_ATOM_DEF_STEREO_COUNT>
0

> <PUBCHEM_ATOM_UDEF_STEREO_COUNT>
0

> <PUBCHEM_BOND_DEF_STEREO_COUNT>
0

> <PUBCHEM_BOND_UDEF_STEREO_COUNT>
0

> <PUBCHEM_ISOTOPIC_ATOM_COUNT>
0

> <PUBCHEM_COMPONENT_COUNT>
1

> <PUBCHEM_CACTVS_TAUTO_COUNT>
3

> <PUBCHEM_COORDINATE_TYPE>
1
5
255

$$$$

