586024
  -OEChem-06241222453D

 43 43  0     1  0  0  0  0  0999 V2000
    2.8565   -0.3872   -0.1533 O   0  0  0  0  0  0  0  0  0  0  0  0
    4.7198    0.8096   -0.8111 O   0  0  0  0  0  0  0  0  0  0  0  0
   -2.4045    1.0563   -0.2490 C   0  0  0  0  0  0  0  0  0  0  0  0
   -3.7774    0.7362    0.3994 C   0  0  0  0  0  0  0  0  0  0  0  0
   -1.4538   -0.1575   -0.1921 C   0  0  0  0  0  0  0  0  0  0  0  0
   -4.3207   -0.6108   -0.0481 C   0  0  0  0  0  0  0  0  0  0  0  0
   -1.8965   -1.4042    0.1046 C   0  0  0  0  0  0  0  0  0  0  0  0
   -3.3568   -1.7229    0.3411 C   0  0  0  0  0  0  0  0  0  0  0  0
    0.0007    0.1245   -0.4991 C   0  0  0  0  0  0  0  0  0  0  0  0
   -1.8214    2.2640    0.5172 C   0  0  0  0  0  0  0  0  0  0  0  0
   -2.6242    1.4696   -1.7212 C   0  0  0  0  0  0  0  0  0  0  0  0
    0.7831    0.4165    0.7759 C   0  0  0  0  0  0  0  0  0  0  0  0
   -1.0055   -2.6117    0.2604 C   0  0  0  0  0  0  0  0  0  0  0  0
    2.2482    0.7415    0.4682 C   0  0  1  0  0  0  0  0  0  0  0  0
    3.0175    1.0775    1.7387 C   0  0  0  0  0  0  0  0  0  0  0  0
    4.1702   -0.2375   -0.4969 C   0  0  0  0  0  0  0  0  0  0  0  0
    4.8648   -1.5641   -0.4347 C   0  0  0  0  0  0  0  0  0  0  0  0
   -4.5067    1.5209    0.1615 H   0  0  0  0  0  0  0  0  0  0  0  0
   -3.6833    0.7275    1.4943 H   0  0  0  0  0  0  0  0  0  0  0  0
   -4.4843   -0.6176   -1.1318 H   0  0  0  0  0  0  0  0  0  0  0  0
   -5.2975   -0.7936    0.4146 H   0  0  0  0  0  0  0  0  0  0  0  0
   -3.6338   -2.6271   -0.2148 H   0  0  0  0  0  0  0  0  0  0  0  0
   -3.4874   -1.9525    1.4065 H   0  0  0  0  0  0  0  0  0  0  0  0
    0.0920    0.9669   -1.1936 H   0  0  0  0  0  0  0  0  0  0  0  0
    0.4445   -0.7161   -1.0452 H   0  0  0  0  0  0  0  0  0  0  0  0
   -1.6404    2.0245    1.5706 H   0  0  0  0  0  0  0  0  0  0  0  0
   -0.8976    2.6448    0.0700 H   0  0  0  0  0  0  0  0  0  0  0  0
   -2.5321    3.1002    0.5039 H   0  0  0  0  0  0  0  0  0  0  0  0
   -3.3789    2.2608   -1.8000 H   0  0  0  0  0  0  0  0  0  0  0  0
   -1.7074    1.8582   -2.1778 H   0  0  0  0  0  0  0  0  0  0  0  0
   -2.9601    0.6272   -2.3356 H   0  0  0  0  0  0  0  0  0  0  0  0
    0.7459   -0.4632    1.4312 H   0  0  0  0  0  0  0  0  0  0  0  0
    0.3597    1.2449    1.3456 H   0  0  0  0  0  0  0  0  0  0  0  0
   -1.2275   -3.3425   -0.5244 H   0  0  0  0  0  0  0  0  0  0  0  0
   -1.1876   -3.0858    1.2312 H   0  0  0  0  0  0  0  0  0  0  0  0
    0.0630   -2.3945    0.2149 H   0  0  0  0  0  0  0  0  0  0  0  0
    2.2833    1.5960   -0.2198 H   0  0  0  0  0  0  0  0  0  0  0  0
    2.5128    1.8684    2.3034 H   0  0  0  0  0  0  0  0  0  0  0  0
    4.0332    1.4275    1.5328 H   0  0  0  0  0  0  0  0  0  0  0  0
    3.1100    0.1970    2.3847 H   0  0  0  0  0  0  0  0  0  0  0  0
    4.3984   -2.2598   -1.1367 H   0  0  0  0  0  0  0  0  0  0  0  0
    4.8209   -1.9572    0.5841 H   0  0  0  0  0  0  0  0  0  0  0  0
    5.9145   -1.4375   -0.7147 H   0  0  0  0  0  0  0  0  0  0  0  0
  1 14  1  0  0  0  0
  1 16  1  0  0  0  0
  2 16  2  0  0  0  0
  3  4  1  0  0  0  0
  3  5  1  0  0  0  0
  3 10  1  0  0  0  0
  3 11  1  0  0  0  0
  4  6  1  0  0  0  0
  4 18  1  0  0  0  0
  4 19  1  0  0  0  0
  5  7  2  0  0  0  0
  5  9  1  0  0  0  0
  6  8  1  0  0  0  0
  6 20  1  0  0  0  0
  6 21  1  0  0  0  0
  7  8  1  0  0  0  0
  7 13  1  0  0  0  0
  8 22  1  0  0  0  0
  8 23  1  0  0  0  0
  9 12  1  0  0  0  0
  9 24  1  0  0  0  0
  9 25  1  0  0  0  0
 10 26  1  0  0  0  0
 10 27  1  0  0  0  0
 10 28  1  0  0  0  0
 11 29  1  0  0  0  0
 11 30  1  0  0  0  0
 11 31  1  0  0  0  0
 12 14  1  0  0  0  0
 12 32  1  0  0  0  0
 12 33  1  0  0  0  0
 13 34  1  0  0  0  0
 13 35  1  0  0  0  0
 13 36  1  0  0  0  0
 14 15  1  0  0  0  0
 14 37  1  0  0  0  0
 15 38  1  0  0  0  0
 15 39  1  0  0  0  0
 15 40  1  0  0  0  0
 16 17  1  0  0  0  0
 17 41  1  0  0  0  0
 17 42  1  0  0  0  0
 17 43  1  0  0  0  0
M  END
> <PUBCHEM_COMPOUND_CID>
586024

> <PUBCHEM_CONFORMER_RMSD>
0.8

> <PUBCHEM_CONFORMER_DIVERSEORDER>
9
24
26
23
21
17
3
18
25
12
1
15
5
11
7
20
13
4
19
14
10
2
22
8
16
6

> <PUBCHEM_MMFF94_PARTIAL_CHARGES>
11
1 -0.43
13 0.14
14 0.28
16 0.66
17 0.06
2 -0.57
3 0.14
5 -0.28
7 -0.28
8 0.14
9 0.14

> <PUBCHEM_EFFECTIVE_ROTOR_COUNT>
5.8

> <PUBCHEM_PHARMACOPHORE_FEATURES>
3
1 2 acceptor
3 3 10 11 hydrophobe
6 3 4 5 6 7 8 rings

> <PUBCHEM_HEAVY_ATOM_COUNT>
17

> <PUBCHEM_ATOM_DEF_STEREO_COUNT>
0

> <PUBCHEM_ATOM_UDEF_STEREO_COUNT>
1

> <PUBCHEM_BOND_DEF_STEREO_COUNT>
0

> <PUBCHEM_BOND_UDEF_STEREO_COUNT>
0

> <PUBCHEM_ISOTOPIC_ATOM_COUNT>
0

> <PUBCHEM_COMPONENT_COUNT>
1

> <PUBCHEM_CACTVS_TAUTO_COUNT>
1

> <PUBCHEM_CONFORMER_ID>
0008F12800000009

> <PUBCHEM_MMFF94_ENERGY>
32.4339

> <PUBCHEM_FEATURE_SELFOVERLAP>
15.223

> <PUBCHEM_SHAPE_FINGERPRINT>
10498660 4 17988934395888073828
11132069 177 18339086995331675441
11458722 379 18411979186787314755
12186901 62 18202005455826099077
12236239 1 17275103916442583895
12707595 3 17385720292893575064
13296908 3 18114468872715407848
13675066 3 4750882537141893686
14251751 93 18130509742157799878
15295992 7 17748827418874967865
15653759 3 18334014964934854896
16752209 62 18201175281692640907
16945 1 17775015570225572651
17804303 29 18335416854976314067
17834074 16 18409727370162869446
18186145 218 18335431183040169168
1986462 14 18411980282151226572
200 152 16805325496064252695
20325693 3 18272363187486174015
20510252 161 18408045091639433577
20645477 56 18340211799721469512
20645477 70 17458061556636417772
20871999 31 18343019978003866940
22094290 60 18272368672096107292
2297311 6 18337659850112343445
23175994 123 17385435522943933640
23402539 116 18333735732279291093
23557571 272 18411695500002452917
23559900 14 18335423456910929200
23598291 2 16844463785123358392
2838139 119 16226320539043908025
3004659 81 18341043121450452798
3286 77 16805610209683597203
4214541 1 18412823616460300268
43471831 8 18272098227086562763
474 4 16414060869243520516
5104073 3 18334857221017324962
559249 180 18128542746416683346
6049 1 18261681380704522152
633830 44 18041009461402765585
77779 3 18411695478838651036
81228 2 18051990120931383683
8809292 202 18335417958920163282
9709674 26 18190748535374508258

> <PUBCHEM_SHAPE_MULTIPOLES>
338.11
9.38
2.19
1.13
9.26
0.68
0.02
1.16
1.22
-1.19
-0.19
0.31
-0.5
0.95

> <PUBCHEM_SHAPE_SELFOVERLAP>
667.25

> <PUBCHEM_SHAPE_VOLUME>
201.6

> <PUBCHEM_COORDINATE_TYPE>
2
5
10

$$$$

