11954107
  -OEChem-07051213063D

 52 56  0     1  0  0  0  0  0999 V2000
    2.1341    2.2563    1.2914 O   0  0  0  0  0  0  0  0  0  0  0  0
   -5.5409   -0.0020    0.3762 O   0  0  0  0  0  0  0  0  0  0  0  0
    5.0930   -1.6325   -1.6931 O   0  0  0  0  0  0  0  0  0  0  0  0
   -0.0331    0.9922    0.0053 C   0  0  1  0  0  0  0  0  0  0  0  0
   -1.3470    0.6725   -0.7008 C   0  0  1  0  0  0  0  0  0  0  0  0
    0.7208   -0.3589    0.2683 C   0  0  1  0  0  0  0  0  0  0  0  0
   -2.2737   -0.2119    0.1695 C   0  0  2  0  0  0  0  0  0  0  0  0
    2.1566   -0.1067    0.8431 C   0  0  1  0  0  0  0  0  0  0  0  0
   -0.1604   -1.3264    1.0892 C   0  0  0  0  0  0  0  0  0  0  0  0
   -1.5510   -1.5402    0.4512 C   0  0  0  0  0  0  0  0  0  0  0  0
    0.8654    1.9955   -0.7507 C   0  0  0  0  0  0  0  0  0  0  0  0
   -3.4819   -0.3062   -0.7882 C   0  0  2  0  0  0  0  0  0  0  0  0
   -2.2550    1.8100   -1.1471 C   0  0  0  0  0  0  0  0  0  0  0  0
    2.2730    2.0386   -0.1290 C   0  0  2  0  0  0  0  0  0  0  0  0
    2.8665    0.6781   -0.2191 C   0  0  0  0  0  0  0  0  0  0  0  0
   -3.6134    1.1192   -1.3712 C   0  0  0  0  0  0  0  0  0  0  0  0
    2.1846    0.9629    1.9448 C   0  0  0  0  0  0  0  0  0  0  0  0
    2.9549   -1.3609    1.2174 C   0  0  0  0  0  0  0  0  0  0  0  0
   -2.6907    0.4390    1.5161 C   0  0  0  0  0  0  0  0  0  0  0  0
    3.4341   -2.1121   -0.0214 C   0  0  0  0  0  0  0  0  0  0  0  0
   -4.7541   -0.7822   -0.1575 C   0  0  0  0  0  0  0  0  0  0  0  0
    3.8324    0.2364   -1.0276 C   0  0  0  0  0  0  0  0  0  0  0  0
    4.2093   -1.1989   -0.9558 C   0  0  0  0  0  0  0  0  0  0  0  0
   -5.0236   -2.2617   -0.2110 C   0  0  0  0  0  0  0  0  0  0  0  0
   -0.2680    1.4599    0.9682 H   0  0  0  0  0  0  0  0  0  0  0  0
   -1.0872    0.1145   -1.6159 H   0  0  0  0  0  0  0  0  0  0  0  0
    0.8508   -0.8450   -0.7124 H   0  0  0  0  0  0  0  0  0  0  0  0
   -0.2675   -0.9592    2.1156 H   0  0  0  0  0  0  0  0  0  0  0  0
    0.3218   -2.3076    1.1572 H   0  0  0  0  0  0  0  0  0  0  0  0
   -1.4215   -2.0997   -0.4844 H   0  0  0  0  0  0  0  0  0  0  0  0
   -2.1503   -2.1759    1.1125 H   0  0  0  0  0  0  0  0  0  0  0  0
    0.4098    2.9910   -0.6847 H   0  0  0  0  0  0  0  0  0  0  0  0
    0.9294    1.7319   -1.8137 H   0  0  0  0  0  0  0  0  0  0  0  0
   -3.2504   -0.9811   -1.6240 H   0  0  0  0  0  0  0  0  0  0  0  0
   -1.8946    2.2898   -2.0626 H   0  0  0  0  0  0  0  0  0  0  0  0
   -2.3386    2.5853   -0.3776 H   0  0  0  0  0  0  0  0  0  0  0  0
    2.8911    2.8278   -0.5659 H   0  0  0  0  0  0  0  0  0  0  0  0
   -4.4112    1.7157   -0.9167 H   0  0  0  0  0  0  0  0  0  0  0  0
   -3.8371    1.0601   -2.4430 H   0  0  0  0  0  0  0  0  0  0  0  0
    1.3484    0.8817    2.6463 H   0  0  0  0  0  0  0  0  0  0  0  0
    3.1122    0.9428    2.5290 H   0  0  0  0  0  0  0  0  0  0  0  0
    2.3823   -2.0247    1.8725 H   0  0  0  0  0  0  0  0  0  0  0  0
    3.8450   -1.0742    1.7953 H   0  0  0  0  0  0  0  0  0  0  0  0
   -1.8366    0.6648    2.1597 H   0  0  0  0  0  0  0  0  0  0  0  0
   -3.2423    1.3743    1.3797 H   0  0  0  0  0  0  0  0  0  0  0  0
   -3.3352   -0.2376    2.0894 H   0  0  0  0  0  0  0  0  0  0  0  0
    2.5952   -2.5448   -0.5761 H   0  0  0  0  0  0  0  0  0  0  0  0
    4.0962   -2.9277    0.2897 H   0  0  0  0  0  0  0  0  0  0  0  0
    4.3187    0.8695   -1.7589 H   0  0  0  0  0  0  0  0  0  0  0  0
   -5.0305   -2.5985   -1.2506 H   0  0  0  0  0  0  0  0  0  0  0  0
   -4.2660   -2.8041    0.3568 H   0  0  0  0  0  0  0  0  0  0  0  0
   -6.0039   -2.4694    0.2272 H   0  0  0  0  0  0  0  0  0  0  0  0
  1 14  1  0  0  0  0
  1 17  1  0  0  0  0
  2 21  2  0  0  0  0
  3 23  2  0  0  0  0
  4  5  1  0  0  0  0
  4  6  1  0  0  0  0
  4 11  1  0  0  0  0
  4 25  1  0  0  0  0
  5  7  1  0  0  0  0
  5 13  1  0  0  0  0
  5 26  1  0  0  0  0
  6  8  1  0  0  0  0
  6  9  1  0  0  0  0
  6 27  1  0  0  0  0
  7 10  1  0  0  0  0
  7 12  1  0  0  0  0
  7 19  1  0  0  0  0
  8 15  1  0  0  0  0
  8 17  1  0  0  0  0
  8 18  1  0  0  0  0
  9 10  1  0  0  0  0
  9 28  1  0  0  0  0
  9 29  1  0  0  0  0
 10 30  1  0  0  0  0
 10 31  1  0  0  0  0
 11 14  1  0  0  0  0
 11 32  1  0  0  0  0
 11 33  1  0  0  0  0
 12 16  1  0  0  0  0
 12 21  1  0  0  0  0
 12 34  1  0  0  0  0
 13 16  1  0  0  0  0
 13 35  1  0  0  0  0
 13 36  1  0  0  0  0
 14 15  1  0  0  0  0
 14 37  1  0  0  0  0
 15 22  2  0  0  0  0
 16 38  1  0  0  0  0
 16 39  1  0  0  0  0
 17 40  1  0  0  0  0
 17 41  1  0  0  0  0
 18 20  1  0  0  0  0
 18 42  1  0  0  0  0
 18 43  1  0  0  0  0
 19 44  1  0  0  0  0
 19 45  1  0  0  0  0
 19 46  1  0  0  0  0
 20 23  1  0  0  0  0
 20 47  1  0  0  0  0
 20 48  1  0  0  0  0
 21 24  1  0  0  0  0
 22 23  1  0  0  0  0
 22 49  1  0  0  0  0
 24 50  1  0  0  0  0
 24 51  1  0  0  0  0
 24 52  1  0  0  0  0
M  END
> <PUBCHEM_COMPOUND_CID>
11954107

> <PUBCHEM_CONFORMER_RMSD>
0.6

> <PUBCHEM_CONFORMER_DIVERSEORDER>
1
2

> <PUBCHEM_MMFF94_PARTIAL_CHARGES>
14
1 -0.56
12 0.06
14 0.42
15 -0.28
17 0.28
2 -0.57
20 0.06
21 0.45
22 -0.14
23 0.49
24 0.06
3 -0.57
49 0.15
8 0.14

> <PUBCHEM_EFFECTIVE_ROTOR_COUNT>
3

> <PUBCHEM_PHARMACOPHORE_FEATURES>
7
1 1 acceptor
1 2 acceptor
1 3 acceptor
5 5 7 12 13 16 rings
6 4 5 6 7 9 10 rings
6 8 15 18 20 22 23 rings
8 1 4 6 8 11 14 15 17 rings

> <PUBCHEM_HEAVY_ATOM_COUNT>
24

> <PUBCHEM_ATOM_DEF_STEREO_COUNT>
7

> <PUBCHEM_ATOM_UDEF_STEREO_COUNT>
0

> <PUBCHEM_BOND_DEF_STEREO_COUNT>
0

> <PUBCHEM_BOND_UDEF_STEREO_COUNT>
0

> <PUBCHEM_ISOTOPIC_ATOM_COUNT>
0

> <PUBCHEM_COMPONENT_COUNT>
1

> <PUBCHEM_CACTVS_TAUTO_COUNT>
6

> <PUBCHEM_CONFORMER_ID>
00B667BB00000001

> <PUBCHEM_MMFF94_ENERGY>
85.4802

> <PUBCHEM_FEATURE_SELFOVERLAP>
35.622

> <PUBCHEM_SHAPE_FINGERPRINT>
10366900 7 17560797728054136675
10498660 4 17275112763975247349
11552529 35 17315920958221628815
11961588 58 16486684771640532974
12236239 1 18113612375069985265
12403259 226 18342470252439541645
12403259 415 18272657857066881965
12553582 1 18338229492094336386
12916754 54 18335701624699310401
13134695 92 17748828514503428848
13140716 1 17626391121196839865
13224815 77 17560808736002711241
13533116 47 18041276565603195379
13583140 156 14924794573990014746
13675066 3 15140680293332483175
14251764 30 17968927734260360030
14790565 3 17476078406834806429
15196674 1 18202572795294294445
15238133 3 16701755937366082540
15420108 30 15171049496113286387
15536298 74 18339931424261381961
15848702 151 18187359965223499623
16752209 62 17846788420394827401
16945 1 18059298651777271544
17349148 13 17167579384565334271
17980427 23 6699222622166180314
1813 80 16878208862464307948
18186145 218 18410018732154022745
19784866 240 17531235193151579310
19862831 5 18201439211421901468
20645477 70 18335981991432066638
20691752 17 16917073299306648113
20871999 31 17988634237861348702
21069387 34 16877951554825317206
21756936 100 9726188046761995634
221357 26 18342176691398194197
22182313 1 18200333068386018445
22393880 68 18201165424589475805
22907989 373 16844464871760706117
23493267 7 16702013210096332144
23559900 14 18341052934521906549
2748010 2 18201733850505217652
296302 2 11312053244771663477
3004659 81 17773877683208191834
312423 11 17895183390194590977
3286 77 17894347769767950504
3323516 105 18341898501807805159
34797466 226 13973959918166604851
350125 39 18342173427618934653
394222 165 14420132820334032882
46194498 28 18342168939098211476
465052 167 17967807232641890799
4990 188 18412546513375317998
5104073 3 18271535251494972929
5281201 14 18412267228884786333
633830 44 18341344326968454997
6786 2 7658628074519380712
7495541 125 18408039598186396550
7970288 3 18042678580447640150
9709674 26 18200596882694344235

> <PUBCHEM_SHAPE_MULTIPOLES>
476.3
9.92
2.3
1.47
5.6
0.05
-0.25
-4.44
2.92
-0.55
0.19
-0.92
0.14
0.99

> <PUBCHEM_SHAPE_SELFOVERLAP>
1046.743

> <PUBCHEM_SHAPE_VOLUME>
256.7

> <PUBCHEM_COORDINATE_TYPE>
2
5
10

$$$$

