9776837
  -OEChem-07051212513D

 19 18  0     0  0  0  0  0  0999 V2000
    1.8289    2.0719    0.1087 O   0  0  0  0  0  0  0  0  0  0  0  0
   -3.1763    0.3564    1.1290 O   0  0  0  0  0  0  0  0  0  0  0  0
    2.6918   -0.6342   -1.2610 O   0  0  0  0  0  0  0  0  0  0  0  0
    2.8790   -0.8962    0.9917 O   0  0  0  0  0  0  0  0  0  0  0  0
   -0.4223   -0.9141    0.0279 C   0  0  0  0  0  0  0  0  0  0  0  0
   -1.7330   -1.1915    0.0292 C   0  0  0  0  0  0  0  0  0  0  0  0
    0.0885    0.4417    0.0683 C   0  0  0  0  0  0  0  0  0  0  0  0
   -2.7411   -0.0954    0.0733 C   0  0  0  0  0  0  0  0  0  0  0  0
    1.3926    0.7632    0.0685 C   0  0  0  0  0  0  0  0  0  0  0  0
   -3.1983    0.4329   -1.2600 C   0  0  0  0  0  0  0  0  0  0  0  0
    2.3902   -0.3347    0.0245 C   0  0  0  0  0  0  0  0  0  0  0  0
    0.2702   -1.7492   -0.0027 H   0  0  0  0  0  0  0  0  0  0  0  0
   -0.6197    1.2651    0.1031 H   0  0  0  0  0  0  0  0  0  0  0  0
   -2.1031   -2.2095    0.0042 H   0  0  0  0  0  0  0  0  0  0  0  0
   -2.9317    1.4900   -1.3402 H   0  0  0  0  0  0  0  0  0  0  0  0
   -2.7277   -0.1099   -2.0848 H   0  0  0  0  0  0  0  0  0  0  0  0
   -4.2818    0.3116   -1.3410 H   0  0  0  0  0  0  0  0  0  0  0  0
    2.8016    2.0515    0.0999 H   0  0  0  0  0  0  0  0  0  0  0  0
    3.3500   -1.3588   -1.3245 H   0  0  0  0  0  0  0  0  0  0  0  0
  1  9  1  0  0  0  0
  1 18  1  0  0  0  0
  2  8  2  0  0  0  0
  3 11  1  0  0  0  0
  3 19  1  0  0  0  0
  4 11  2  0  0  0  0
  5  6  2  0  0  0  0
  5  7  1  0  0  0  0
  5 12  1  0  0  0  0
  6  8  1  0  0  0  0
  6 14  1  0  0  0  0
  7  9  2  0  0  0  0
  7 13  1  0  0  0  0
  8 10  1  0  0  0  0
  9 11  1  0  0  0  0
 10 15  1  0  0  0  0
 10 16  1  0  0  0  0
 10 17  1  0  0  0  0
M  END
> <PUBCHEM_COMPOUND_CID>
9776837

> <PUBCHEM_CONFORMER_RMSD>
0.6

> <PUBCHEM_CONFORMER_DIVERSEORDER>
2
3
4
1

> <PUBCHEM_MMFF94_PARTIAL_CHARGES>
16
1 -0.53
10 0.06
11 0.71
12 0.15
13 0.15
14 0.15
18 0.45
19 0.5
2 -0.57
3 -0.65
4 -0.57
5 -0.15
6 -0.14
7 -0.15
8 0.49
9 0.09

> <PUBCHEM_EFFECTIVE_ROTOR_COUNT>
3

> <PUBCHEM_PHARMACOPHORE_FEATURES>
5
1 1 donor
1 2 acceptor
1 3 acceptor
1 4 acceptor
3 3 4 11 anion

> <PUBCHEM_HEAVY_ATOM_COUNT>
11

> <PUBCHEM_ATOM_DEF_STEREO_COUNT>
0

> <PUBCHEM_ATOM_UDEF_STEREO_COUNT>
0

> <PUBCHEM_BOND_DEF_STEREO_COUNT>
2

> <PUBCHEM_BOND_UDEF_STEREO_COUNT>
0

> <PUBCHEM_ISOTOPIC_ATOM_COUNT>
0

> <PUBCHEM_COMPONENT_COUNT>
1

> <PUBCHEM_CACTVS_TAUTO_COUNT>
7

> <PUBCHEM_CONFORMER_ID>
00952EC500000002

> <PUBCHEM_MMFF94_ENERGY>
30.1231

> <PUBCHEM_FEATURE_SELFOVERLAP>
25.429

> <PUBCHEM_SHAPE_FINGERPRINT>
10130415 120 18272375312373996970
10922523 26 17313934355109922821
11062470 55 14562531790727980811
124424 183 17988655141372232615
12932764 1 18131067104390359099
14144814 61 18409166623247836459
14325111 11 18410856512801337739
16945 1 18409729599002781295
18186145 218 18409728456636270201
19422 9 15339113559027978499
20653085 51 18412269428435451981
20711983 171 16917065602957278255
20715346 28 17917714552590743629
21524375 3 17545884828551204028
23552423 10 18199466554322687543
3248919 1 17967534540957384127
74978 22 18410294679265282155

> <PUBCHEM_SHAPE_MULTIPOLES>
202.9
5.57
1.33
1.02
1.34
0.39
0.15
0.02
0.25
-0.59
-0.07
0.25
-0.02
0.15

> <PUBCHEM_SHAPE_SELFOVERLAP>
396.953

> <PUBCHEM_SHAPE_VOLUME>
121.7

> <PUBCHEM_COORDINATE_TYPE>
2
5
10

$$$$

