183679
  -OEChem-07051213053D

 33 34  0     1  0  0  0  0  0999 V2000
   -0.6429   -2.4096   -1.8858 Cl  0  0  0  0  0  0  0  0  0  0  0  0
   -2.0443   -3.2039    0.5102 Cl  0  0  0  0  0  0  0  0  0  0  0  0
    0.8273   -3.4910    0.3886 Cl  0  0  0  0  0  0  0  0  0  0  0  0
    4.6347    1.5373    0.1246 O   0  0  0  0  0  0  0  0  0  0  0  0
   -4.6843    2.5611   -0.5054 O   0  0  0  0  0  0  0  0  0  0  0  0
   -0.4056   -0.9622    0.5480 C   0  0  1  0  0  0  0  0  0  0  0  0
    0.9791   -0.2758    0.4317 C   0  0  0  0  0  0  0  0  0  0  0  0
   -1.5362   -0.0308    0.2695 C   0  0  0  0  0  0  0  0  0  0  0  0
   -0.5311   -2.4063   -0.0963 C   0  0  0  0  0  0  0  0  0  0  0  0
    1.4497    0.4015    1.5210 C   0  0  0  0  0  0  0  0  0  0  0  0
    1.6497   -0.3873   -0.7538 C   0  0  0  0  0  0  0  0  0  0  0  0
   -2.3835    0.3663    1.3038 C   0  0  0  0  0  0  0  0  0  0  0  0
   -1.7466    0.4431   -1.0255 C   0  0  0  0  0  0  0  0  0  0  0  0
    2.6958    1.0195    1.4162 C   0  0  0  0  0  0  0  0  0  0  0  0
    2.8959    0.2306   -0.8587 C   0  0  0  0  0  0  0  0  0  0  0  0
    3.4191    0.9340    0.2265 C   0  0  0  0  0  0  0  0  0  0  0  0
   -3.4414    1.2373    1.0433 C   0  0  0  0  0  0  0  0  0  0  0  0
   -2.8044    1.3143   -1.2861 C   0  0  0  0  0  0  0  0  0  0  0  0
   -3.6518    1.7115   -0.2517 C   0  0  0  0  0  0  0  0  0  0  0  0
    5.3205    1.4104   -1.1201 C   0  0  0  0  0  0  0  0  0  0  0  0
   -0.4646   -1.1950    1.6256 H   0  0  0  0  0  0  0  0  0  0  0  0
    0.8920    0.4744    2.4487 H   0  0  0  0  0  0  0  0  0  0  0  0
    1.2886   -0.8854   -1.6356 H   0  0  0  0  0  0  0  0  0  0  0  0
   -2.2359    0.0082    2.3192 H   0  0  0  0  0  0  0  0  0  0  0  0
   -1.0806    0.2064   -1.8469 H   0  0  0  0  0  0  0  0  0  0  0  0
    3.0978    1.5667    2.2646 H   0  0  0  0  0  0  0  0  0  0  0  0
    3.4015    0.1314   -1.8134 H   0  0  0  0  0  0  0  0  0  0  0  0
   -4.0945    1.5390    1.8578 H   0  0  0  0  0  0  0  0  0  0  0  0
   -2.9562    1.6901   -2.2943 H   0  0  0  0  0  0  0  0  0  0  0  0
   -5.1656    2.7284    0.3230 H   0  0  0  0  0  0  0  0  0  0  0  0
    5.5665    0.3659   -1.3394 H   0  0  0  0  0  0  0  0  0  0  0  0
    6.2692    1.9485   -1.0227 H   0  0  0  0  0  0  0  0  0  0  0  0
    4.7654    1.8863   -1.9356 H   0  0  0  0  0  0  0  0  0  0  0  0
  1  9  1  0  0  0  0
  2  9  1  0  0  0  0
  3  9  1  0  0  0  0
  4 16  1  0  0  0  0
  4 20  1  0  0  0  0
  5 19  1  0  0  0  0
  5 30  1  0  0  0  0
  6  7  1  0  0  0  0
  6  8  1  0  0  0  0
  6  9  1  0  0  0  0
  6 21  1  0  0  0  0
  7 10  2  0  0  0  0
  7 11  1  0  0  0  0
  8 12  2  0  0  0  0
  8 13  1  0  0  0  0
 10 14  1  0  0  0  0
 10 22  1  0  0  0  0
 11 15  2  0  0  0  0
 11 23  1  0  0  0  0
 12 17  1  0  0  0  0
 12 24  1  0  0  0  0
 13 18  2  0  0  0  0
 13 25  1  0  0  0  0
 14 16  2  0  0  0  0
 14 26  1  0  0  0  0
 15 16  1  0  0  0  0
 15 27  1  0  0  0  0
 17 19  2  0  0  0  0
 17 28  1  0  0  0  0
 18 19  1  0  0  0  0
 18 29  1  0  0  0  0
 20 31  1  0  0  0  0
 20 32  1  0  0  0  0
 20 33  1  0  0  0  0
M  END
> <PUBCHEM_COMPOUND_CID>
183679

> <PUBCHEM_CONFORMER_RMSD>
0.6

> <PUBCHEM_CONFORMER_DIVERSEORDER>
1
6
8
3
7
2
4
5

> <PUBCHEM_MMFF94_PARTIAL_CHARGES>
29
1 -0.29
10 -0.15
11 -0.15
12 -0.15
13 -0.15
14 -0.15
15 -0.15
16 0.08
17 -0.15
18 -0.15
19 0.08
2 -0.29
20 0.28
22 0.15
23 0.15
24 0.15
25 0.15
26 0.15
27 0.15
28 0.15
29 0.15
3 -0.29
30 0.45
4 -0.36
5 -0.53
6 0.29
7 -0.14
8 -0.14
9 0.87

> <PUBCHEM_EFFECTIVE_ROTOR_COUNT>
4

> <PUBCHEM_PHARMACOPHORE_FEATURES>
4
1 4 acceptor
1 5 donor
6 7 10 11 14 15 16 rings
6 8 12 13 17 18 19 rings

> <PUBCHEM_HEAVY_ATOM_COUNT>
20

> <PUBCHEM_ATOM_DEF_STEREO_COUNT>
0

> <PUBCHEM_ATOM_UDEF_STEREO_COUNT>
1

> <PUBCHEM_BOND_DEF_STEREO_COUNT>
0

> <PUBCHEM_BOND_UDEF_STEREO_COUNT>
0

> <PUBCHEM_ISOTOPIC_ATOM_COUNT>
0

> <PUBCHEM_COMPONENT_COUNT>
1

> <PUBCHEM_CACTVS_TAUTO_COUNT>
2

> <PUBCHEM_CONFORMER_ID>
0002CD7F00000001

> <PUBCHEM_MMFF94_ENERGY>
73.9136

> <PUBCHEM_FEATURE_SELFOVERLAP>
20.297

> <PUBCHEM_SHAPE_FINGERPRINT>
10165383 225 18337372903553292569
10498660 4 18409172133865606425
105312 117 18410288108223899524
107951 10 18339630171166703454
12173636 292 18268435637636583334
12500047 106 18336264549035928242
12633257 1 14907890570313324348
12707595 3 8286186262969619273
12730499 353 18266170807451375809
12788726 201 18124609591028265947
12892183 10 15195290888358771197
13134695 92 17548709924599049783
13294875 104 18042425658317872482
13681431 1 17469884849408593975
14142880 1 18270409291110038463
14341114 328 15984524664024290868
15163728 17 18267293412586000565
15342168 16 18270403909764416893
15534591 1 18131352960407681322
16752209 62 18193295004325783378
16945 1 18341333280339216091
17357779 13 17754752528450738831
1741750 31 18410015420597003112
17980427 23 17060330817474605037
18186145 218 18113893896584603696
18785283 64 18127692849054527618
19765921 60 18187941624244152019
200 152 6194843674510265620
204376 136 18412825802313966545
20600515 1 17545021715891417115
20645477 56 18337096861910495752
20671657 53 7637389744396758379
20871999 31 18264487287286628508
21120745 212 17408217193697532086
21524375 3 18262245511652526259
21756936 100 17131259148746868132
2255824 54 17903644317244492559
22907989 373 18045220431801617149
23419403 2 17538512873469504383
23493267 7 18335135342014902034
23557571 272 18191293893563767892
23559900 14 16985731302771774535
238 59 18043250335019901943
25 1 17967807288481363200
283562 15 18195816154318215419
3729539 64 17978766216045916830
3759504 43 18411698764188043074
458136 41 18338230591468924483
474 4 18264494056007458937
495365 180 18053393381552557417
559249 180 18408321069754441110
6049 1 17606681314707023096
633830 44 17823964835403611849
6442390 28 18410282615161324219
7364860 26 17976548522028944987
7808743 9 18343300332195112524
7970288 3 8790877488808173285
81228 2 17976265633950199235
84936 182 18045789141538459833

> <PUBCHEM_SHAPE_MULTIPOLES>
405.46
7.86
3.38
1.51
5.66
3.4
0.15
-8.37
1.33
-2.31
0.23
0
0
0.24

> <PUBCHEM_SHAPE_SELFOVERLAP>
834.618

> <PUBCHEM_SHAPE_VOLUME>
232.2

> <PUBCHEM_COORDINATE_TYPE>
2
5
10

$$$$

