117443
  -OEChem-07051212593D

 46 50  0     1  0  0  0  0  0999 V2000
    0.0992    2.7618    0.4622 O   0  0  0  0  0  0  0  0  0  0  0  0
    1.3195    1.9347   -1.3637 O   0  0  0  0  0  0  0  0  0  0  0  0
    6.0162    0.5544   -1.3432 O   0  0  0  0  0  0  0  0  0  0  0  0
   -6.4150    0.7624    0.7450 O   0  0  0  0  0  0  0  0  0  0  0  0
    6.9040   -0.6951    0.5164 O   0  0  0  0  0  0  0  0  0  0  0  0
   -6.8474   -0.7957   -1.0419 O   0  0  0  0  0  0  0  0  0  0  0  0
    0.6908    0.4756    0.4781 C   0  0  2  0  0  0  0  0  0  0  0  0
   -0.8118    0.5748    0.2483 C   0  0  2  0  0  0  0  0  0  0  0  0
    1.1451    1.8691    0.0467 C   0  0  2  0  0  0  0  0  0  0  0  0
   -1.0892    1.9956    0.7173 C   0  0  0  0  0  0  0  0  0  0  0  0
    1.3606   -0.6767   -0.2533 C   0  0  0  0  0  0  0  0  0  0  0  0
   -1.6391   -0.4678    0.9803 C   0  0  0  0  0  0  0  0  0  0  0  0
    2.8482   -0.7033   -0.0159 C   0  0  0  0  0  0  0  0  0  0  0  0
   -3.0299   -0.5821    0.4116 C   0  0  0  0  0  0  0  0  0  0  0  0
    3.6859   -0.0039   -0.8767 C   0  0  0  0  0  0  0  0  0  0  0  0
   -4.0428    0.2163    0.9292 C   0  0  0  0  0  0  0  0  0  0  0  0
    3.3522   -1.4320    1.0667 C   0  0  0  0  0  0  0  0  0  0  0  0
   -3.2688   -1.4901   -0.6254 C   0  0  0  0  0  0  0  0  0  0  0  0
    5.0403   -0.0582   -0.6189 C   0  0  0  0  0  0  0  0  0  0  0  0
   -5.2991    0.0760    0.3763 C   0  0  0  0  0  0  0  0  0  0  0  0
    4.7280   -1.4704    1.3055 C   0  0  0  0  0  0  0  0  0  0  0  0
   -4.5503   -1.6125   -1.1675 C   0  0  0  0  0  0  0  0  0  0  0  0
    5.5473   -0.7717    0.4429 C   0  0  0  0  0  0  0  0  0  0  0  0
   -5.5461   -0.8138   -0.6439 C   0  0  0  0  0  0  0  0  0  0  0  0
    7.1942    0.1471   -0.6178 C   0  0  0  0  0  0  0  0  0  0  0  0
   -7.3918    0.2054   -0.1583 C   0  0  0  0  0  0  0  0  0  0  0  0
    0.8661    0.3794    1.5600 H   0  0  0  0  0  0  0  0  0  0  0  0
   -1.0115    0.5134   -0.8304 H   0  0  0  0  0  0  0  0  0  0  0  0
    2.0791    2.1772    0.5254 H   0  0  0  0  0  0  0  0  0  0  0  0
   -1.9286    2.4535    0.1855 H   0  0  0  0  0  0  0  0  0  0  0  0
   -1.2877    2.0523    1.7929 H   0  0  0  0  0  0  0  0  0  0  0  0
    1.1592   -0.6477   -1.3316 H   0  0  0  0  0  0  0  0  0  0  0  0
    0.9364   -1.6319    0.0805 H   0  0  0  0  0  0  0  0  0  0  0  0
   -1.6902   -0.2528    2.0557 H   0  0  0  0  0  0  0  0  0  0  0  0
   -1.1633   -1.4538    0.9127 H   0  0  0  0  0  0  0  0  0  0  0  0
    0.6101    1.4361   -1.7991 H   0  0  0  0  0  0  0  0  0  0  0  0
    3.3173    0.5399   -1.7371 H   0  0  0  0  0  0  0  0  0  0  0  0
   -3.8638    0.9205    1.7339 H   0  0  0  0  0  0  0  0  0  0  0  0
    2.6832   -1.9715    1.7320 H   0  0  0  0  0  0  0  0  0  0  0  0
   -2.4646   -2.1053   -1.0208 H   0  0  0  0  0  0  0  0  0  0  0  0
    5.1314   -2.0310    2.1411 H   0  0  0  0  0  0  0  0  0  0  0  0
   -4.7490   -2.3119   -1.9716 H   0  0  0  0  0  0  0  0  0  0  0  0
    7.7164    1.0438   -0.2647 H   0  0  0  0  0  0  0  0  0  0  0  0
    7.8552   -0.3992   -1.3004 H   0  0  0  0  0  0  0  0  0  0  0  0
   -7.8126    1.0165   -0.7636 H   0  0  0  0  0  0  0  0  0  0  0  0
   -8.1970   -0.2476    0.4316 H   0  0  0  0  0  0  0  0  0  0  0  0
  1  9  1  0  0  0  0
  1 10  1  0  0  0  0
  2  9  1  0  0  0  0
  2 36  1  0  0  0  0
  3 19  1  0  0  0  0
  3 25  1  0  0  0  0
  4 20  1  0  0  0  0
  4 26  1  0  0  0  0
  5 23  1  0  0  0  0
  5 25  1  0  0  0  0
  6 24  1  0  0  0  0
  6 26  1  0  0  0  0
  7  8  1  0  0  0  0
  7  9  1  0  0  0  0
  7 11  1  0  0  0  0
  7 27  1  0  0  0  0
  8 10  1  0  0  0  0
  8 12  1  0  0  0  0
  8 28  1  0  0  0  0
  9 29  1  0  0  0  0
 10 30  1  0  0  0  0
 10 31  1  0  0  0  0
 11 13  1  0  0  0  0
 11 32  1  0  0  0  0
 11 33  1  0  0  0  0
 12 14  1  0  0  0  0
 12 34  1  0  0  0  0
 12 35  1  0  0  0  0
 13 15  2  0  0  0  0
 13 17  1  0  0  0  0
 14 16  2  0  0  0  0
 14 18  1  0  0  0  0
 15 19  1  0  0  0  0
 15 37  1  0  0  0  0
 16 20  1  0  0  0  0
 16 38  1  0  0  0  0
 17 21  2  0  0  0  0
 17 39  1  0  0  0  0
 18 22  2  0  0  0  0
 18 40  1  0  0  0  0
 19 23  2  0  0  0  0
 20 24  2  0  0  0  0
 21 23  1  0  0  0  0
 21 41  1  0  0  0  0
 22 24  1  0  0  0  0
 22 42  1  0  0  0  0
 25 43  1  0  0  0  0
 25 44  1  0  0  0  0
 26 45  1  0  0  0  0
 26 46  1  0  0  0  0
M  END
> <PUBCHEM_COMPOUND_CID>
117443

> <PUBCHEM_CONFORMER_RMSD>
0.8

> <PUBCHEM_CONFORMER_DIVERSEORDER>
1
5
93
89
63
59
60
45
31
100
15
50
38
102
81
75
23
6
21
88
12
4
39
85
64
98
8
74
13
101
36
104
43
62
55
30
94
17
67
92
25
99
7
3
95
10
69
44
105
57
66
19
2
34
78
54
86
82
37
14
72
42
47
91
20
96
77
16
76
22
24
87
71
46
61
49
26
103
18
79
90
68
33
65
80
70
11
83
35
56
29
41
9
48
58
84
73
27
97
32
40
52
53
28
51

> <PUBCHEM_MMFF94_PARTIAL_CHARGES>
31
1 -0.56
10 0.28
11 0.14
12 0.14
13 -0.14
14 -0.14
15 -0.15
16 -0.15
17 -0.15
18 -0.15
19 0.08
2 -0.68
20 0.08
21 -0.15
22 -0.15
23 0.08
24 0.08
25 0.56
26 0.56
3 -0.36
36 0.4
37 0.15
38 0.15
39 0.15
4 -0.36
40 0.15
41 0.15
42 0.15
5 -0.36
6 -0.36
9 0.56

> <PUBCHEM_EFFECTIVE_ROTOR_COUNT>
6.2

> <PUBCHEM_PHARMACOPHORE_FEATURES>
12
1 1 acceptor
1 2 acceptor
1 2 donor
1 3 acceptor
1 4 acceptor
1 5 acceptor
1 6 acceptor
5 1 7 8 9 10 rings
5 3 5 19 23 25 rings
5 4 6 20 24 26 rings
6 13 15 17 19 21 23 rings
6 14 16 18 20 22 24 rings

> <PUBCHEM_HEAVY_ATOM_COUNT>
26

> <PUBCHEM_ATOM_DEF_STEREO_COUNT>
3

> <PUBCHEM_ATOM_UDEF_STEREO_COUNT>
0

> <PUBCHEM_BOND_DEF_STEREO_COUNT>
0

> <PUBCHEM_BOND_UDEF_STEREO_COUNT>
0

> <PUBCHEM_ISOTOPIC_ATOM_COUNT>
0

> <PUBCHEM_COMPONENT_COUNT>
1

> <PUBCHEM_CACTVS_TAUTO_COUNT>
1

> <PUBCHEM_CONFORMER_ID>
0001CAC300000001

> <PUBCHEM_MMFF94_ENERGY>
71.0051

> <PUBCHEM_FEATURE_SELFOVERLAP>
61.247

> <PUBCHEM_SHAPE_FINGERPRINT>
10 15 15502386625597112570
10165383 225 16702021989900905323
10299344 5 18412544314463085415
10447042 23 18131634500109802522
10613725 11 18131914858199538543
10730089 173 12895074020399532135
10835480 77 17417805089895314260
10906281 52 18339342141573604539
11045977 3 15791739576538589810
11135609 127 16845002399776276574
11265709 11 18409167718412132721
11315181 36 16805319981822292595
11524674 6 15502380023672826847
12236239 1 18412542119608092666
12516196 113 17821729437742839592
12788726 201 18337668727794173849
12916748 109 12751241414922024782
13533116 47 18200880677338861458
13782708 43 16950831631290954094
14068700 675 18259706692006929017
14251752 14 18060143171528889485
14251764 18 18411699885786443463
1454969 45 18334290960071314164
14840074 17 18408041827148011158
15119646 104 18202003274093872418
15183329 4 17917997178550026917
15276724 80 18060139872852069149
15301273 46 16732699471715804300
15439362 3 17843677760108556988
15461852 350 16153717514308508805
15849732 13 17530685398724989037
15927050 60 17684653121983378060
16087824 20 18264205989211764009
17492 89 18053387888390191170
17857418 61 18408884040116926265
18006028 8 18261111880635817409
18222031 100 18186518800257707520
18681886 176 17894639115196958763
19489759 90 16588021325629433691
200 152 18131349730803206186
20157964 124 17060617803015863418
20281389 69 8430314628226906146
20612939 158 18272084951199985405
21033648 29 13829556568224277988
21267235 1 18260546681174502779
21298829 104 18041274474391998265
21641784 216 17845359089670489764
21756936 100 12463571751530862273
21781055 127 16589123006405416531
22224240 67 16587748637839403470
23198884 109 16558752330318981613
23522609 53 18195218157458272769
23536379 177 16056881342325240971
23559900 14 18059010571061907345
249057 3 18260552200233631207
25147074 1 18337655477804858096
2838139 119 9367343725973847683
3004659 81 18334858294811902073
3009799 131 17988926665036325560
335352 9 18334861619902592397
3383291 50 17749672884032146295
339767 52 18187643596110295063
3411729 13 17751092310324419856
34797466 226 17312818265325336504
397830 11 15792594957909246954
4017518 198 16877940537976248103
4098825 35 17275105037566425981
4325135 7 18411980274125716510
504579 68 18131057261106104046
5104073 3 18041558015311379827
5283156 175 18341051904347148346
5385378 56 10375603606911985456
5486654 2 18410570683002537322
559249 180 18186803565738886871
5969126 39 18343024427527247468
7237137 82 18271809076760622997

> <PUBCHEM_SHAPE_MULTIPOLES>
499.85
19.78
1.81
1.17
2.84
0.94
0.06
-4.98
2.92
0.11
-0.05
-0.38
-0.12
-1.85

> <PUBCHEM_SHAPE_SELFOVERLAP>
1114.818

> <PUBCHEM_SHAPE_VOLUME>
266.5

> <PUBCHEM_COORDINATE_TYPE>
2
5
10

$$$$

