47898
  -OEChem-07051213123D

 39 40  0     0  0  0  0  0  0999 V2000
   -3.4177   -1.9366   -2.0723 F   0  0  0  0  0  0  0  0  0  0  0  0
   -2.5947    0.0431   -2.4002 F   0  0  0  0  0  0  0  0  0  0  0  0
   -1.3970   -1.4792   -1.4118 F   0  0  0  0  0  0  0  0  0  0  0  0
    4.6384   -0.2270    0.7104 O   0  0  0  0  0  0  0  0  0  0  0  0
   -1.4120    2.1301   -0.5834 O   0  0  0  0  0  0  0  0  0  0  0  0
   -0.1058    0.4732    0.4430 N   0  0  0  0  0  0  0  0  0  0  0  0
    4.7076   -1.5856    0.2796 C   0  0  0  0  0  0  0  0  0  0  0  0
   -2.5222    0.4548    0.5879 C   0  0  0  0  0  0  0  0  0  0  0  0
    1.2156    0.8738    0.1272 C   0  0  0  0  0  0  0  0  0  0  0  0
    3.5808    0.5087    0.2720 C   0  0  0  0  0  0  0  0  0  0  0  0
   -3.1763   -0.5303   -0.1521 C   0  0  0  0  0  0  0  0  0  0  0  0
    2.2794    0.1132    0.5813 C   0  0  0  0  0  0  0  0  0  0  0  0
   -1.3114    1.0925    0.0889 C   0  0  0  0  0  0  0  0  0  0  0  0
    5.9815   -1.7911   -0.5258 C   0  0  0  0  0  0  0  0  0  0  0  0
    4.6512   -2.4996    1.4942 C   0  0  0  0  0  0  0  0  0  0  0  0
    1.4134    2.0179   -0.6268 C   0  0  0  0  0  0  0  0  0  0  0  0
    3.7983    1.6587   -0.4871 C   0  0  0  0  0  0  0  0  0  0  0  0
   -3.0266    0.8452    1.8285 C   0  0  0  0  0  0  0  0  0  0  0  0
   -4.3346   -1.1248    0.3486 C   0  0  0  0  0  0  0  0  0  0  0  0
    2.7146    2.4133   -0.9362 C   0  0  0  0  0  0  0  0  0  0  0  0
   -2.6587   -0.9665   -1.4841 C   0  0  0  0  0  0  0  0  0  0  0  0
   -4.1848    0.2506    2.3290 C   0  0  0  0  0  0  0  0  0  0  0  0
   -4.8389   -0.7343    1.5891 C   0  0  0  0  0  0  0  0  0  0  0  0
    3.8642   -1.8373   -0.3777 H   0  0  0  0  0  0  0  0  0  0  0  0
    2.1020   -0.7756    1.1802 H   0  0  0  0  0  0  0  0  0  0  0  0
   -0.1750   -0.3744    1.0030 H   0  0  0  0  0  0  0  0  0  0  0  0
    6.0715   -2.8245   -0.8742 H   0  0  0  0  0  0  0  0  0  0  0  0
    5.9945   -1.1266   -1.3965 H   0  0  0  0  0  0  0  0  0  0  0  0
    6.8659   -1.5438    0.0717 H   0  0  0  0  0  0  0  0  0  0  0  0
    4.7057   -3.5528    1.2020 H   0  0  0  0  0  0  0  0  0  0  0  0
    3.7263   -2.3437    2.0584 H   0  0  0  0  0  0  0  0  0  0  0  0
    5.4769   -2.2848    2.1817 H   0  0  0  0  0  0  0  0  0  0  0  0
    0.6300    2.6535   -1.0108 H   0  0  0  0  0  0  0  0  0  0  0  0
    4.8099    1.9713   -0.7317 H   0  0  0  0  0  0  0  0  0  0  0  0
   -2.5261    1.6118    2.4148 H   0  0  0  0  0  0  0  0  0  0  0  0
   -4.8603   -1.8937   -0.2106 H   0  0  0  0  0  0  0  0  0  0  0  0
    2.8856    3.3084   -1.5273 H   0  0  0  0  0  0  0  0  0  0  0  0
   -4.5775    0.5546    3.2950 H   0  0  0  0  0  0  0  0  0  0  0  0
   -5.7408   -1.1970    1.9790 H   0  0  0  0  0  0  0  0  0  0  0  0
  1 21  1  0  0  0  0
  2 21  1  0  0  0  0
  3 21  1  0  0  0  0
  4  7  1  0  0  0  0
  4 10  1  0  0  0  0
  5 13  2  0  0  0  0
  6  9  1  0  0  0  0
  6 13  1  0  0  0  0
  6 26  1  0  0  0  0
  7 14  1  0  0  0  0
  7 15  1  0  0  0  0
  7 24  1  0  0  0  0
  8 11  1  0  0  0  0
  8 13  1  0  0  0  0
  8 18  2  0  0  0  0
  9 12  2  0  0  0  0
  9 16  1  0  0  0  0
 10 12  1  0  0  0  0
 10 17  2  0  0  0  0
 11 19  2  0  0  0  0
 11 21  1  0  0  0  0
 12 25  1  0  0  0  0
 14 27  1  0  0  0  0
 14 28  1  0  0  0  0
 14 29  1  0  0  0  0
 15 30  1  0  0  0  0
 15 31  1  0  0  0  0
 15 32  1  0  0  0  0
 16 20  2  0  0  0  0
 16 33  1  0  0  0  0
 17 20  1  0  0  0  0
 17 34  1  0  0  0  0
 18 22  1  0  0  0  0
 18 35  1  0  0  0  0
 19 23  1  0  0  0  0
 19 36  1  0  0  0  0
 20 37  1  0  0  0  0
 22 23  2  0  0  0  0
 22 38  1  0  0  0  0
 23 39  1  0  0  0  0
M  END
> <PUBCHEM_COMPOUND_CID>
47898

> <PUBCHEM_CONFORMER_RMSD>
0.8

> <PUBCHEM_CONFORMER_DIVERSEORDER>
3
7
24
5
18
23
22
11
21
9
20
10
25
14
4
12
19
17
8
15
16
1
13
6
2

> <PUBCHEM_MMFF94_PARTIAL_CHARGES>
30
1 -0.34
10 0.08
11 -0.14
12 -0.15
13 0.54
16 -0.15
17 -0.15
18 -0.15
19 -0.15
2 -0.34
20 -0.15
21 1.16
22 -0.15
23 -0.15
25 0.15
26 0.37
3 -0.34
33 0.15
34 0.15
35 0.15
36 0.15
37 0.15
38 0.15
39 0.15
4 -0.36
5 -0.57
6 -0.55
7 0.28
8 0.09
9 0.12

> <PUBCHEM_EFFECTIVE_ROTOR_COUNT>
6

> <PUBCHEM_PHARMACOPHORE_FEATURES>
6
1 4 acceptor
1 5 acceptor
1 6 donor
3 7 14 15 hydrophobe
6 8 11 18 19 22 23 rings
6 9 10 12 16 17 20 rings

> <PUBCHEM_HEAVY_ATOM_COUNT>
23

> <PUBCHEM_ATOM_DEF_STEREO_COUNT>
0

> <PUBCHEM_ATOM_UDEF_STEREO_COUNT>
0

> <PUBCHEM_BOND_DEF_STEREO_COUNT>
0

> <PUBCHEM_BOND_UDEF_STEREO_COUNT>
0

> <PUBCHEM_ISOTOPIC_ATOM_COUNT>
0

> <PUBCHEM_COMPONENT_COUNT>
1

> <PUBCHEM_CACTVS_TAUTO_COUNT>
2

> <PUBCHEM_CONFORMER_ID>
0000BB1A00000003

> <PUBCHEM_MMFF94_ENERGY>
71.0357

> <PUBCHEM_FEATURE_SELFOVERLAP>
30.446

> <PUBCHEM_SHAPE_FINGERPRINT>
10319926 262 16009022904446304430
10622 236 18043830696602658095
10928967 22 18340491170486582086
11036077 4 17385726932470299383
12107183 9 18196357346178319025
12236239 1 18334287635687583937
12422481 6 17896032312061210614
12553582 1 18271529797055214154
12623949 98 16411503370684243763
12633257 1 17240481398869168336
13167823 11 18334574646702935752
13533116 47 18339917117514472329
13551218 46 18261104205682409035
14178342 30 16949998132045277685
14767858 380 17916847107522226462
15537594 2 18337100186304769348
15806764 133 16630528405776730141
17780758 139 17458630063934914714
1813 80 18341320193668427660
19377110 9 18114468847230752904
193927 3 18201995556137556392
20281475 54 18187931625222826068
20554085 129 16299223683166460827
20645477 70 17917993841687674192
20693207 138 16845285008313291640
20871999 31 14908177564507230400
212916 134 16443614783782678185
2297311 6 15267336310880765217
23503953 91 17458060473750966080
235170 7 15554159376584541218
23557571 272 15769501906859498685
23559900 14 15697717012979407845
23598288 3 18337386136495685369
2838139 119 7491358043921179195
312425 54 17240490251583307482
314194 84 18342177791463898290
3268164 11 14260803737061852891
34797466 226 15410599359917377382
351380 3 18410006676487109362
46194498 28 16343125945312638270
5104073 3 17313386673538671810
5281201 14 17060621070974331644
573450 72 17603867788551895235
5924683 9 15936424316211721543
602551 16 16878220862075243308
7064713 232 17458063793808418318
7970288 3 18202001075150225874

> <PUBCHEM_SHAPE_MULTIPOLES>
434.79
12.28
2.41
1.84
7.6
0.21
-0.52
-7.68
2.34
3.25
-0.25
-2.89
-0.64
-1.07

> <PUBCHEM_SHAPE_SELFOVERLAP>
929.03

> <PUBCHEM_SHAPE_VOLUME>
242.8

> <PUBCHEM_COORDINATE_TYPE>
2
5
10

$$$$

