6682
  -OEChem-06261201263D

 28 30  0     0  0  0  0  0  0999 V2000
    1.7882   -2.9929   -0.0004 O   0  0  0  0  0  0  0  0  0  0  0  0
   -0.3445    2.6357   -0.0010 O   0  0  0  0  0  0  0  0  0  0  0  0
   -0.7783   -2.6899    0.0010 O   0  0  0  0  0  0  0  0  0  0  0  0
    4.4587    0.9071    0.0007 O   0  0  0  0  0  0  0  0  0  0  0  0
    2.2518    2.5566    0.0015 N   0  0  0  0  0  0  0  0  0  0  0  0
    0.8004    0.5591   -0.0006 C   0  0  0  0  0  0  0  0  0  0  0  0
    0.6830   -0.8325   -0.0007 C   0  0  0  0  0  0  0  0  0  0  0  0
   -1.7367    0.7730   -0.0005 C   0  0  0  0  0  0  0  0  0  0  0  0
   -1.8540   -0.6185   -0.0003 C   0  0  0  0  0  0  0  0  0  0  0  0
   -0.4052    1.4126   -0.0008 C   0  0  0  0  0  0  0  0  0  0  0  0
   -0.6485   -1.4721   -0.0002 C   0  0  0  0  0  0  0  0  0  0  0  0
    2.0683    1.1528    0.0000 C   0  0  0  0  0  0  0  0  0  0  0  0
    1.8335   -1.6302   -0.0005 C   0  0  0  0  0  0  0  0  0  0  0  0
    3.2122    0.3540    0.0003 C   0  0  0  0  0  0  0  0  0  0  0  0
    3.0950   -1.0345    0.0000 C   0  0  0  0  0  0  0  0  0  0  0  0
   -2.8873    1.5707   -0.0002 C   0  0  0  0  0  0  0  0  0  0  0  0
   -3.1219   -1.2123    0.0003 C   0  0  0  0  0  0  0  0  0  0  0  0
   -4.1488    0.9750    0.0006 C   0  0  0  0  0  0  0  0  0  0  0  0
   -4.2659   -0.4136    0.0008 C   0  0  0  0  0  0  0  0  0  0  0  0
    3.9949   -1.6454    0.0002 H   0  0  0  0  0  0  0  0  0  0  0  0
   -2.8257    2.6557   -0.0004 H   0  0  0  0  0  0  0  0  0  0  0  0
   -3.2419   -2.2923    0.0005 H   0  0  0  0  0  0  0  0  0  0  0  0
   -5.0410    1.5944    0.0010 H   0  0  0  0  0  0  0  0  0  0  0  0
   -5.2492   -0.8749    0.0014 H   0  0  0  0  0  0  0  0  0  0  0  0
    3.1485    2.9677    0.2162 H   0  0  0  0  0  0  0  0  0  0  0  0
    1.4477    3.1685   -0.0154 H   0  0  0  0  0  0  0  0  0  0  0  0
    2.6928   -3.3497   -0.0003 H   0  0  0  0  0  0  0  0  0  0  0  0
    4.4097    1.8225   -0.3159 H   0  0  0  0  0  0  0  0  0  0  0  0
  1 13  1  0  0  0  0
  1 27  1  0  0  0  0
  2 10  2  0  0  0  0
  3 11  2  0  0  0  0
  4 14  1  0  0  0  0
  4 28  1  0  0  0  0
  5 12  1  0  0  0  0
  5 25  1  0  0  0  0
  5 26  1  0  0  0  0
  6  7  2  0  0  0  0
  6 10  1  0  0  0  0
  6 12  1  0  0  0  0
  7 11  1  0  0  0  0
  7 13  1  0  0  0  0
  8  9  1  0  0  0  0
  8 10  1  0  0  0  0
  8 16  2  0  0  0  0
  9 11  1  0  0  0  0
  9 17  2  0  0  0  0
 12 14  2  0  0  0  0
 13 15  2  0  0  0  0
 14 15  1  0  0  0  0
 15 20  1  0  0  0  0
 16 18  1  0  0  0  0
 16 21  1  0  0  0  0
 17 19  1  0  0  0  0
 17 22  1  0  0  0  0
 18 19  2  0  0  0  0
 18 23  1  0  0  0  0
 19 24  1  0  0  0  0
M  END
> <PUBCHEM_COMPOUND_CID>
6682

> <PUBCHEM_CONFORMER_RMSD>
0.4

> <PUBCHEM_CONFORMER_DIVERSEORDER>
1

> <PUBCHEM_MMFF94_PARTIAL_CHARGES>
28
1 -0.53
10 0.4
11 0.4
12 0.1
13 0.08
14 0.08
15 -0.15
16 -0.15
17 -0.15
18 -0.15
19 -0.15
2 -0.57
20 0.15
21 0.15
22 0.15
23 0.15
24 0.15
25 0.4
26 0.4
27 0.45
28 0.45
3 -0.57
4 -0.53
5 -0.9
6 0.09
7 0.09
8 0.09
9 0.09

> <PUBCHEM_EFFECTIVE_ROTOR_COUNT>
0

> <PUBCHEM_PHARMACOPHORE_FEATURES>
9
1 1 donor
1 2 acceptor
1 3 acceptor
1 4 donor
1 5 cation
1 5 donor
6 6 7 12 13 14 15 rings
6 6 7 8 9 10 11 rings
6 8 9 16 17 18 19 rings

> <PUBCHEM_HEAVY_ATOM_COUNT>
19

> <PUBCHEM_ATOM_DEF_STEREO_COUNT>
0

> <PUBCHEM_ATOM_UDEF_STEREO_COUNT>
0

> <PUBCHEM_BOND_DEF_STEREO_COUNT>
0

> <PUBCHEM_BOND_UDEF_STEREO_COUNT>
0

> <PUBCHEM_ISOTOPIC_ATOM_COUNT>
0

> <PUBCHEM_COMPONENT_COUNT>
1

> <PUBCHEM_CACTVS_TAUTO_COUNT>
30

> <PUBCHEM_CONFORMER_ID>
00001A1A00000001

> <PUBCHEM_MMFF94_ENERGY>
73.2214

> <PUBCHEM_FEATURE_SELFOVERLAP>
45.716

> <PUBCHEM_SHAPE_FINGERPRINT>
10411042 1 17689998264032788587
10608611 8 18412547638925930677
10616163 171 18338233752391027703
10967382 1 18410575106143196646
10980938 120 18411699902301661418
11132069 177 18409173211674920945
11471102 20 18410859879654797286
12011746 2 18410572894324755884
13140716 1 18266746779312927096
13221675 6 18410855455843789518
13380535 76 18411700963200930946
138480 1 18050567640637437026
13897977 150 18411140255399565349
14790565 3 18339068294728544836
15196674 1 18410856585420175335
15230672 131 13442559820014963971
15442244 35 18121499321577314715
15536298 74 18334575780236873430
16945 1 18410573989657531942
18186145 218 18335133249906879709
193761 8 17762336912039424485
19591789 44 18338514132034883855
200 152 18113908143655717469
20510252 161 18261109707477402369
20645477 70 18337114583119710503
21267235 1 18410846651271862327
21421861 104 17914902173286869634
21501502 16 18265332987421094755
221490 88 18340196500731722811
2334 1 18410572842705981167
23402539 116 18334021566130738518
23463225 33 18411981390310843549
23559900 14 18335705009202377798
238 59 17838661964398128893
2748010 2 18411417340961826119
335352 9 17906453586421898045
34934 24 18410018749244279511
350125 39 18123182411886369705
5104073 3 18411138068986828059
53812653 166 18335423456330576632
69090 78 18408608037176385999
7364860 26 18336264651777897078
9709674 26 18410288107976284599

> <PUBCHEM_SHAPE_MULTIPOLES>
362.55
6.83
2.77
0.59
1.51
0.42
0
-0.97
0
-0.89
0
0.04
0
0

> <PUBCHEM_SHAPE_SELFOVERLAP>
826.113

> <PUBCHEM_SHAPE_VOLUME>
186.6

> <PUBCHEM_COORDINATE_TYPE>
2
5
10

$$$$

