442455
  -OEChem-07051212583D

 67 70  0     1  0  0  0  0  0999 V2000
   -0.3657   -1.3059    1.3731 O   0  0  0  0  0  0  0  0  0  0  0  0
   -2.8291   -2.4034    2.1073 O   0  0  0  0  0  0  0  0  0  0  0  0
   -3.3118   -0.4454   -2.1870 O   0  0  0  0  0  0  0  0  0  0  0  0
   -4.4284    1.9301    0.4970 O   0  0  0  0  0  0  0  0  0  0  0  0
    0.1778   -3.6398   -2.8147 O   0  0  0  0  0  0  0  0  0  0  0  0
    1.1420   -4.4935   -0.0970 O   0  0  0  0  0  0  0  0  0  0  0  0
    1.5411    2.7782   -1.1242 O   0  0  0  0  0  0  0  0  0  0  0  0
    1.1530    4.9141   -0.3584 O   0  0  0  0  0  0  0  0  0  0  0  0
   -1.4561   -0.4705    1.8481 C   0  0  1  0  0  0  0  0  0  0  0  0
   -2.2925    0.0209    0.6354 C   0  0  2  0  0  0  0  0  0  0  0  0
   -2.2874   -1.2974    2.8295 C   0  0  0  0  0  0  0  0  0  0  0  0
   -1.7863   -0.9162   -0.4061 C   0  0  0  0  0  0  0  0  0  0  0  0
   -0.6941   -1.6173    0.0801 C   0  0  0  0  0  0  0  0  0  0  0  0
   -2.0832    1.4810    0.2881 C   0  0  0  0  0  0  0  0  0  0  0  0
   -3.4420   -0.4666    3.3867 C   0  0  0  0  0  0  0  0  0  0  0  0
   -1.4082   -1.8354    3.9569 C   0  0  0  0  0  0  0  0  0  0  0  0
   -2.2405   -1.1217   -1.6984 C   0  0  0  0  0  0  0  0  0  0  0  0
   -0.0073   -2.5314   -0.6962 C   0  0  0  0  0  0  0  0  0  0  0  0
   -3.1629    2.3627    0.2369 C   0  0  0  0  0  0  0  0  0  0  0  0
   -0.7940    1.9407    0.0196 C   0  0  0  0  0  0  0  0  0  0  0  0
   -0.4551   -2.7467   -2.0006 C   0  0  0  0  0  0  0  0  0  0  0  0
   -1.5663   -2.0476   -2.4984 C   0  0  0  0  0  0  0  0  0  0  0  0
    1.1422   -3.2478   -0.1632 C   0  0  0  0  0  0  0  0  0  0  0  0
   -0.5843    3.2822   -0.3001 C   0  0  0  0  0  0  0  0  0  0  0  0
   -2.9533    3.7042   -0.0830 C   0  0  0  0  0  0  0  0  0  0  0  0
    2.3748   -2.4660    0.3262 C   0  0  0  0  0  0  0  0  0  0  0  0
   -1.6640    4.1639   -0.3514 C   0  0  0  0  0  0  0  0  0  0  0  0
    2.6072   -1.1597   -0.4365 C   0  0  0  0  0  0  0  0  0  0  0  0
   -3.7035   -0.7269   -3.5314 C   0  0  0  0  0  0  0  0  0  0  0  0
    0.7595    3.7614   -0.5815 C   0  0  0  0  0  0  0  0  0  0  0  0
    3.8262   -0.4303    0.0662 C   0  0  0  0  0  0  0  0  0  0  0  0
    3.7064    0.4977    1.1007 C   0  0  0  0  0  0  0  0  0  0  0  0
    5.0741   -0.6827   -0.5032 C   0  0  0  0  0  0  0  0  0  0  0  0
    4.8347    1.1733    1.5658 C   0  0  0  0  0  0  0  0  0  0  0  0
    6.2025   -0.0073   -0.0380 C   0  0  0  0  0  0  0  0  0  0  0  0
    2.8917    3.1284   -1.4450 C   0  0  0  0  0  0  0  0  0  0  0  0
    6.0827    0.9207    0.9965 C   0  0  0  0  0  0  0  0  0  0  0  0
   -1.0054    0.3723    2.3889 H   0  0  0  0  0  0  0  0  0  0  0  0
   -3.3578   -0.1849    0.7615 H   0  0  0  0  0  0  0  0  0  0  0  0
   -3.0892    0.4756    3.8188 H   0  0  0  0  0  0  0  0  0  0  0  0
   -4.2139   -0.2488    2.6436 H   0  0  0  0  0  0  0  0  0  0  0  0
   -3.9600   -1.0219    4.1785 H   0  0  0  0  0  0  0  0  0  0  0  0
   -2.0048   -2.4184    4.6683 H   0  0  0  0  0  0  0  0  0  0  0  0
   -0.6407   -2.5207    3.5805 H   0  0  0  0  0  0  0  0  0  0  0  0
   -0.9170   -1.0260    4.5069 H   0  0  0  0  0  0  0  0  0  0  0  0
   -3.3663   -2.9293    2.7241 H   0  0  0  0  0  0  0  0  0  0  0  0
    0.0486    1.2582    0.0792 H   0  0  0  0  0  0  0  0  0  0  0  0
   -1.8551   -2.2691   -3.5212 H   0  0  0  0  0  0  0  0  0  0  0  0
   -3.7853    4.4019   -0.1272 H   0  0  0  0  0  0  0  0  0  0  0  0
    3.2464   -3.1202    0.1984 H   0  0  0  0  0  0  0  0  0  0  0  0
    2.2531   -2.2837    1.4001 H   0  0  0  0  0  0  0  0  0  0  0  0
   -1.5184    5.2115   -0.6020 H   0  0  0  0  0  0  0  0  0  0  0  0
    2.7163   -1.3660   -1.5094 H   0  0  0  0  0  0  0  0  0  0  0  0
    1.7502   -0.4836   -0.3576 H   0  0  0  0  0  0  0  0  0  0  0  0
   -5.0432    2.6792    0.4145 H   0  0  0  0  0  0  0  0  0  0  0  0
    0.9327   -4.0410   -2.3546 H   0  0  0  0  0  0  0  0  0  0  0  0
   -4.5729   -0.0992   -3.7524 H   0  0  0  0  0  0  0  0  0  0  0  0
   -4.0219   -1.7684   -3.6470 H   0  0  0  0  0  0  0  0  0  0  0  0
   -2.9189   -0.4508   -4.2439 H   0  0  0  0  0  0  0  0  0  0  0  0
    2.7390    0.7028    1.5519 H   0  0  0  0  0  0  0  0  0  0  0  0
    5.1802   -1.4044   -1.3087 H   0  0  0  0  0  0  0  0  0  0  0  0
    4.7412    1.8963    2.3707 H   0  0  0  0  0  0  0  0  0  0  0  0
    7.1744   -0.2040   -0.4811 H   0  0  0  0  0  0  0  0  0  0  0  0
    3.3811    2.2478   -1.8689 H   0  0  0  0  0  0  0  0  0  0  0  0
    3.4279    3.4316   -0.5411 H   0  0  0  0  0  0  0  0  0  0  0  0
    2.9058    3.9306   -2.1888 H   0  0  0  0  0  0  0  0  0  0  0  0
    6.9612    1.4469    1.3585 H   0  0  0  0  0  0  0  0  0  0  0  0
  1  9  1  0  0  0  0
  1 13  1  0  0  0  0
  2 11  1  0  0  0  0
  2 46  1  0  0  0  0
  3 17  1  0  0  0  0
  3 29  1  0  0  0  0
  4 19  1  0  0  0  0
  4 55  1  0  0  0  0
  5 21  1  0  0  0  0
  5 56  1  0  0  0  0
  6 23  2  0  0  0  0
  7 30  1  0  0  0  0
  7 36  1  0  0  0  0
  8 30  2  0  0  0  0
  9 10  1  0  0  0  0
  9 11  1  0  0  0  0
  9 38  1  0  0  0  0
 10 12  1  0  0  0  0
 10 14  1  0  0  0  0
 10 39  1  0  0  0  0
 11 15  1  0  0  0  0
 11 16  1  0  0  0  0
 12 13  1  0  0  0  0
 12 17  2  0  0  0  0
 13 18  2  0  0  0  0
 14 19  2  0  0  0  0
 14 20  1  0  0  0  0
 15 40  1  0  0  0  0
 15 41  1  0  0  0  0
 15 42  1  0  0  0  0
 16 43  1  0  0  0  0
 16 44  1  0  0  0  0
 16 45  1  0  0  0  0
 17 22  1  0  0  0  0
 18 21  1  0  0  0  0
 18 23  1  0  0  0  0
 19 25  1  0  0  0  0
 20 24  2  0  0  0  0
 20 47  1  0  0  0  0
 21 22  2  0  0  0  0
 22 48  1  0  0  0  0
 23 26  1  0  0  0  0
 24 27  1  0  0  0  0
 24 30  1  0  0  0  0
 25 27  2  0  0  0  0
 25 49  1  0  0  0  0
 26 28  1  0  0  0  0
 26 50  1  0  0  0  0
 26 51  1  0  0  0  0
 27 52  1  0  0  0  0
 28 31  1  0  0  0  0
 28 53  1  0  0  0  0
 28 54  1  0  0  0  0
 29 57  1  0  0  0  0
 29 58  1  0  0  0  0
 29 59  1  0  0  0  0
 31 32  2  0  0  0  0
 31 33  1  0  0  0  0
 32 34  1  0  0  0  0
 32 60  1  0  0  0  0
 33 35  2  0  0  0  0
 33 61  1  0  0  0  0
 34 37  2  0  0  0  0
 34 62  1  0  0  0  0
 35 37  1  0  0  0  0
 35 63  1  0  0  0  0
 36 64  1  0  0  0  0
 36 65  1  0  0  0  0
 36 66  1  0  0  0  0
 37 67  1  0  0  0  0
M  END
> <PUBCHEM_COMPOUND_CID>
442455

> <PUBCHEM_CONFORMER_RMSD>
1.2

> <PUBCHEM_CONFORMER_DIVERSEORDER>
1
41
52
60
16
29
34
2
6
50
38
28
54
66
62
20
65
46
35
15
5
53
44
37
8
40
49
26
30
10
13
55
57
56
7
4
19
39
51
67
61
18
23
31
21
36
24
59
42
32
33
58
14
3
17
48
22
25
63
27
43
11
47
12
9
45
64

> <PUBCHEM_MMFF94_PARTIAL_CHARGES>
47
1 -0.36
10 0.29
11 0.28
12 -0.14
13 0.08
14 -0.14
17 0.08
18 0.09
19 0.08
2 -0.68
20 -0.15
21 0.08
22 -0.15
23 0.42
24 0.09
25 -0.15
26 0.06
27 -0.15
28 0.14
29 0.28
3 -0.36
30 0.63
31 -0.14
32 -0.15
33 -0.15
34 -0.15
35 -0.15
36 0.28
37 -0.15
4 -0.53
46 0.4
47 0.15
48 0.15
49 0.15
5 -0.53
52 0.15
55 0.45
56 0.45
6 -0.57
60 0.15
61 0.15
62 0.15
63 0.15
67 0.15
7 -0.43
8 -0.57
9 0.28

> <PUBCHEM_EFFECTIVE_ROTOR_COUNT>
9.6

> <PUBCHEM_PHARMACOPHORE_FEATURES>
13
1 1 acceptor
1 2 acceptor
1 2 donor
1 3 acceptor
1 4 donor
1 5 donor
1 6 acceptor
1 8 acceptor
3 11 15 16 hydrophobe
5 1 9 10 12 13 rings
6 12 13 17 18 21 22 rings
6 14 19 20 24 25 27 rings
6 31 32 33 34 35 37 rings

> <PUBCHEM_HEAVY_ATOM_COUNT>
37

> <PUBCHEM_ATOM_DEF_STEREO_COUNT>
2

> <PUBCHEM_ATOM_UDEF_STEREO_COUNT>
0

> <PUBCHEM_BOND_DEF_STEREO_COUNT>
0

> <PUBCHEM_BOND_UDEF_STEREO_COUNT>
0

> <PUBCHEM_ISOTOPIC_ATOM_COUNT>
0

> <PUBCHEM_COMPONENT_COUNT>
1

> <PUBCHEM_CACTVS_TAUTO_COUNT>
36

> <PUBCHEM_CONFORMER_ID>
0006C05700000001

> <PUBCHEM_MMFF94_ENERGY>
128.5011

> <PUBCHEM_FEATURE_SELFOVERLAP>
66.07

> <PUBCHEM_SHAPE_FINGERPRINT>
10764073 3 17845360069360395531
10871710 139 18334869324108518678
12128747 34 17769922795432917666
12156800 1 5069322248881409180
12422481 6 18194370425582087185
12539773 59 17245800690158659777
12633257 1 16773501244527012814
13583140 156 17761475286103811315
1361 2 18263371446098695909
13642711 20 17484535782162266181
14468879 13 18338515377622717130
15968369 153 18336259055124722225
16067690 210 18129961043565815776
17974551 9 17626656455976830162
17980427 26 17482842555535161427
20764821 26 18268701723687749172
21033648 29 18260834787327466336
21927370 108 17905043652081812242
23419403 2 17701537304017199939
376196 1 17835808873067885084
469060 322 18337105644734235107
508706 21 18334865991862632738
6036956 94 17982741779272112340
7288768 16 17916582196989222882
9981440 41 18340496663438180010

> <PUBCHEM_SHAPE_MULTIPOLES>
714.49
8.81
5.84
3.13
14.64
4
1.17
2.8
1.66
-0.9
-2.14
-4.11
-2.98
0.23

> <PUBCHEM_SHAPE_SELFOVERLAP>
1558.178

> <PUBCHEM_SHAPE_VOLUME>
388.8

> <PUBCHEM_COORDINATE_TYPE>
2
5
10

$$$$

