3025
  -OEChem-07051212543D

 54 55  0     0  0  0  0  0  0999 V2000
    3.5524   -1.3311   -0.1336 O   0  0  0  0  0  0  0  0  0  0  0  0
   -1.6824    0.1783   -1.7485 O   0  0  0  0  0  0  0  0  0  0  0  0
   -5.3488   -1.4112    0.4884 N   0  0  0  0  0  0  0  0  0  0  0  0
   -1.6487   -1.1759    0.1335 N   0  0  0  0  0  0  0  0  0  0  0  0
    2.9167    0.8907    0.0711 N   0  0  0  0  0  0  0  0  0  0  0  0
   -4.0135   -0.8623    0.6866 C   0  0  0  0  0  0  0  0  0  0  0  0
   -2.9782   -1.7192   -0.0271 C   0  0  0  0  0  0  0  0  0  0  0  0
   -6.2640   -0.9305    1.5255 C   0  0  0  0  0  0  0  0  0  0  0  0
   -5.8588   -1.0619   -0.8390 C   0  0  0  0  0  0  0  0  0  0  0  0
    0.2796    0.1833   -0.4642 C   0  0  0  0  0  0  0  0  0  0  0  0
   -6.4232    0.5790    1.4605 C   0  0  0  0  0  0  0  0  0  0  0  0
   -7.2229   -1.6841   -1.0844 C   0  0  0  0  0  0  0  0  0  0  0  0
    0.6101    1.5235   -0.2225 C   0  0  0  0  0  0  0  0  0  0  0  0
   -1.0842   -0.2520   -0.7498 C   0  0  0  0  0  0  0  0  0  0  0  0
    1.9592    1.8371    0.0445 C   0  0  0  0  0  0  0  0  0  0  0  0
    1.2640   -0.7941   -0.4376 C   0  0  0  0  0  0  0  0  0  0  0  0
    5.8256   -2.0431    0.1224 C   0  0  0  0  0  0  0  0  0  0  0  0
    2.5560   -0.3911   -0.1674 C   0  0  0  0  0  0  0  0  0  0  0  0
    4.8654   -0.8622    0.1491 C   0  0  0  0  0  0  0  0  0  0  0  0
    7.2561   -1.6132    0.4346 C   0  0  0  0  0  0  0  0  0  0  0  0
   -0.3635    2.5367   -0.2423 C   0  0  0  0  0  0  0  0  0  0  0  0
    2.2870    3.1685    0.2846 C   0  0  0  0  0  0  0  0  0  0  0  0
   -0.0077    3.8601    0.0013 C   0  0  0  0  0  0  0  0  0  0  0  0
    1.3193    4.1761    0.2649 C   0  0  0  0  0  0  0  0  0  0  0  0
    8.2043   -2.8015    0.4494 C   0  0  0  0  0  0  0  0  0  0  0  0
   -3.7497   -0.8585    1.7532 H   0  0  0  0  0  0  0  0  0  0  0  0
   -3.9313    0.1771    0.3430 H   0  0  0  0  0  0  0  0  0  0  0  0
   -3.1732   -1.8027   -1.1001 H   0  0  0  0  0  0  0  0  0  0  0  0
   -2.9622   -2.7322    0.3905 H   0  0  0  0  0  0  0  0  0  0  0  0
   -5.8700   -1.2075    2.5122 H   0  0  0  0  0  0  0  0  0  0  0  0
   -7.2395   -1.4255    1.4760 H   0  0  0  0  0  0  0  0  0  0  0  0
   -5.8843    0.0151   -1.0397 H   0  0  0  0  0  0  0  0  0  0  0  0
   -5.1990   -1.4857   -1.6043 H   0  0  0  0  0  0  0  0  0  0  0  0
   -1.1093   -1.4819    0.9383 H   0  0  0  0  0  0  0  0  0  0  0  0
   -5.4810    1.1247    1.5612 H   0  0  0  0  0  0  0  0  0  0  0  0
   -6.9411    0.9228    0.5610 H   0  0  0  0  0  0  0  0  0  0  0  0
   -7.0472    0.8985    2.3041 H   0  0  0  0  0  0  0  0  0  0  0  0
   -7.2365   -2.7475   -0.8217 H   0  0  0  0  0  0  0  0  0  0  0  0
   -8.0225   -1.1742   -0.5388 H   0  0  0  0  0  0  0  0  0  0  0  0
   -7.4732   -1.6099   -2.1487 H   0  0  0  0  0  0  0  0  0  0  0  0
    5.4900   -2.7981    0.8446 H   0  0  0  0  0  0  0  0  0  0  0  0
    5.7802   -2.5282   -0.8607 H   0  0  0  0  0  0  0  0  0  0  0  0
    1.0391   -1.8390   -0.6261 H   0  0  0  0  0  0  0  0  0  0  0  0
    4.8884   -0.3952    1.1418 H   0  0  0  0  0  0  0  0  0  0  0  0
    5.1729   -0.1282   -0.6063 H   0  0  0  0  0  0  0  0  0  0  0  0
    7.5984   -0.8875   -0.3122 H   0  0  0  0  0  0  0  0  0  0  0  0
    7.2915   -1.1155    1.4107 H   0  0  0  0  0  0  0  0  0  0  0  0
   -1.4125    2.3268   -0.4315 H   0  0  0  0  0  0  0  0  0  0  0  0
    3.3196    3.4420    0.4940 H   0  0  0  0  0  0  0  0  0  0  0  0
   -0.7628    4.6401   -0.0116 H   0  0  0  0  0  0  0  0  0  0  0  0
    7.9087   -3.5301    1.2110 H   0  0  0  0  0  0  0  0  0  0  0  0
    9.2233   -2.4706    0.6735 H   0  0  0  0  0  0  0  0  0  0  0  0
    8.2166   -3.3054   -0.5223 H   0  0  0  0  0  0  0  0  0  0  0  0
    1.6058    5.2060    0.4569 H   0  0  0  0  0  0  0  0  0  0  0  0
  1 18  1  0  0  0  0
  1 19  1  0  0  0  0
  2 14  2  0  0  0  0
  3  6  1  0  0  0  0
  3  8  1  0  0  0  0
  3  9  1  0  0  0  0
  4  7  1  0  0  0  0
  4 14  1  0  0  0  0
  4 34  1  0  0  0  0
  5 15  1  0  0  0  0
  5 18  2  0  0  0  0
  6  7  1  0  0  0  0
  6 26  1  0  0  0  0
  6 27  1  0  0  0  0
  7 28  1  0  0  0  0
  7 29  1  0  0  0  0
  8 11  1  0  0  0  0
  8 30  1  0  0  0  0
  8 31  1  0  0  0  0
  9 12  1  0  0  0  0
  9 32  1  0  0  0  0
  9 33  1  0  0  0  0
 10 13  1  0  0  0  0
 10 14  1  0  0  0  0
 10 16  2  0  0  0  0
 11 35  1  0  0  0  0
 11 36  1  0  0  0  0
 11 37  1  0  0  0  0
 12 38  1  0  0  0  0
 12 39  1  0  0  0  0
 12 40  1  0  0  0  0
 13 15  1  0  0  0  0
 13 21  2  0  0  0  0
 15 22  2  0  0  0  0
 16 18  1  0  0  0  0
 16 43  1  0  0  0  0
 17 19  1  0  0  0  0
 17 20  1  0  0  0  0
 17 41  1  0  0  0  0
 17 42  1  0  0  0  0
 19 44  1  0  0  0  0
 19 45  1  0  0  0  0
 20 25  1  0  0  0  0
 20 46  1  0  0  0  0
 20 47  1  0  0  0  0
 21 23  1  0  0  0  0
 21 48  1  0  0  0  0
 22 24  1  0  0  0  0
 22 49  1  0  0  0  0
 23 24  2  0  0  0  0
 23 50  1  0  0  0  0
 24 54  1  0  0  0  0
 25 51  1  0  0  0  0
 25 52  1  0  0  0  0
 25 53  1  0  0  0  0
M  END
> <PUBCHEM_COMPOUND_CID>
3025

> <PUBCHEM_CONFORMER_RMSD>
1

> <PUBCHEM_CONFORMER_DIVERSEORDER>
1
66
44
93
100
74
50
43
90
113
76
73
39
30
96
52
92
108
78
48
65
81
25
98
118
86
102
103
28
32
14
83
116
27
20
40
64
67
112
24
105
2
10
3
110
107
82
70
68
45
111
11
55
8
71
117
57
53
88
46
94
104
89
109
9
75
51
91
80
54
79
22
61
13
47
5
60
72
17
35
34
85
99
95
97
77
69
84
59
115
23
106
6
58
42
31
29
49
114
33
19
4
37
63
26
56
41
38
21
12
15
101
18
16
36
87
62
7

> <PUBCHEM_MMFF94_PARTIAL_CHARGES>
25
1 -0.36
10 0.09
14 0.54
15 0.31
16 -0.15
18 0.39
19 0.28
2 -0.57
21 -0.15
22 -0.15
23 -0.15
24 -0.15
3 -0.81
34 0.37
4 -0.73
43 0.15
48 0.15
49 0.15
5 -0.62
50 0.15
54 0.15
6 0.27
7 0.3
8 0.27
9 0.27

> <PUBCHEM_EFFECTIVE_ROTOR_COUNT>
11

> <PUBCHEM_PHARMACOPHORE_FEATURES>
6
1 2 acceptor
1 25 hydrophobe
1 3 cation
1 4 donor
6 13 15 21 22 23 24 rings
6 5 10 13 15 16 18 rings

> <PUBCHEM_HEAVY_ATOM_COUNT>
25

> <PUBCHEM_ATOM_DEF_STEREO_COUNT>
0

> <PUBCHEM_ATOM_UDEF_STEREO_COUNT>
0

> <PUBCHEM_BOND_DEF_STEREO_COUNT>
0

> <PUBCHEM_BOND_UDEF_STEREO_COUNT>
0

> <PUBCHEM_ISOTOPIC_ATOM_COUNT>
0

> <PUBCHEM_COMPONENT_COUNT>
1

> <PUBCHEM_CACTVS_TAUTO_COUNT>
2

> <PUBCHEM_CONFORMER_ID>
00000BD100000001

> <PUBCHEM_MMFF94_ENERGY>
56.9798

> <PUBCHEM_FEATURE_SELFOVERLAP>
30.477

> <PUBCHEM_SHAPE_FINGERPRINT>
10369192 42 7853853879970550259
10411042 1 18410296930334560540
12107183 9 18334849533474387443
12616971 3 17969205786669861611
12645989 146 18410015399692340439
12760667 363 18342739645462414410
13140716 1 18335140951332523800
13540713 4 18267890374586204364
13590594 115 18411695500446006089
13631057 29 18199752600157711018
13673619 4 18060701701581168358
13911852 28 18338238266254183687
14739800 52 17097498587854112681
14790565 3 17403448577472563085
15021287 119 18260834778521344383
15042514 8 18265893751811552004
15419008 145 18338784737504807065
15475509 84 18040707082641397841
15927050 60 17760081823103678206
16087824 20 18123189263130386061
16992752 21 18410282641437212094
17492 89 18050847724245567819
17980427 26 17756716230385164716
18006028 8 18411983572270670846
20157964 124 18192434074716703415
20832881 197 18343860004871722283
21033648 29 17559970831634697397
21267235 1 18411416255089863966
21304253 13 18334573559643927096
21792961 116 18130233773783181430
23559900 14 18267587914419559499
249057 25 17822287930522299811
3421961 26 18338235960167559824
437815 12 18341896298616306159
5104073 3 18191573178402674235
5219985 9 18411980278267722366
6371380 46 18201722842952684595
77188 2 18410857646900382308
8863177 126 17916012470000123091

> <PUBCHEM_SHAPE_MULTIPOLES>
487.81
18.8
4.14
1.06
0.75
5.48
0.04
-23.38
4.54
4.51
0.32
-1.86
-0.2
-0.94

> <PUBCHEM_SHAPE_SELFOVERLAP>
1004.049

> <PUBCHEM_SHAPE_VOLUME>
282.3

> <PUBCHEM_COORDINATE_TYPE>
2
5
10

$$$$

