65305
  -OEChem-07051212592D

 44 48  0     1  0  0  0  0  0999 V2000
    2.9350   -0.8055    0.0000 O   0  0  0  0  0  0  0  0  0  0  0  0
    3.9641   -2.7140    0.0000 O   0  0  0  0  0  0  0  0  0  0  0  0
    2.0000    2.2295    0.0000 O   0  0  0  0  0  0  0  0  0  0  0  0
    3.0453    3.5402    0.0000 O   0  0  0  0  0  0  0  0  0  0  0  0
    6.4132   -0.2178    0.0000 N   0  0  3  0  0  0  0  0  0  0  0  0
    5.5123   -0.6516    0.0000 C   0  0  1  0  0  0  0  0  0  0  0  0
    4.6113   -0.2178    0.0000 C   0  0  1  0  0  0  0  0  0  0  0  0
    6.1224   -1.4364    0.0000 C   0  0  0  0  0  0  0  0  0  0  0  0
    3.9262   -0.9381    0.0000 C   0  0  1  0  0  0  0  0  0  0  0  0
    7.3667   -0.4990    0.0000 C   0  0  0  0  0  0  0  0  0  0  0  0
    7.2268   -1.2965    0.0000 C   0  0  0  0  0  0  0  0  0  0  0  0
    5.3763   -1.6364    0.0000 C   0  0  0  0  0  0  0  0  0  0  0  0
    4.3888    0.7572    0.0000 C   0  0  0  0  0  0  0  0  0  0  0  0
    6.6358    0.7572    0.0000 C   0  0  0  0  0  0  0  0  0  0  0  0
    4.3980   -1.8130    0.0000 C   0  0  0  0  0  0  0  0  0  0  0  0
    6.0123    1.5390    0.0000 C   0  0  0  0  0  0  0  0  0  0  0  0
    5.0123    1.5390    0.0000 C   0  0  0  0  0  0  0  0  0  0  0  0
    3.3565    0.8965    0.0000 C   0  0  0  0  0  0  0  0  0  0  0  0
    4.6467    2.5144    0.0000 C   0  0  0  0  0  0  0  0  0  0  0  0
    2.9685    1.8632    0.0000 C   0  0  0  0  0  0  0  0  0  0  0  0
    3.6179    2.6776    0.0000 C   0  0  0  0  0  0  0  0  0  0  0  0
    4.5274   -3.5402    0.0000 C   0  0  0  0  0  0  0  0  0  0  0  0
    2.0473    3.2639    0.0000 C   0  0  0  0  0  0  0  0  0  0  0  0
    5.2758    0.3122    0.0000 H   0  0  0  0  0  0  0  0  0  0  0  0
    5.5732   -1.7242    0.0000 H   0  0  0  0  0  0  0  0  0  0  0  0
    6.3082   -2.0280    0.0000 H   0  0  0  0  0  0  0  0  0  0  0  0
    3.7202   -0.3533    0.0000 H   0  0  0  0  0  0  0  0  0  0  0  0
    7.9729   -0.6291    0.0000 H   0  0  0  0  0  0  0  0  0  0  0  0
    7.5196    0.1019    0.0000 H   0  0  0  0  0  0  0  0  0  0  0  0
    7.2430   -1.9163    0.0000 H   0  0  0  0  0  0  0  0  0  0  0  0
    7.8451   -1.3422    0.0000 H   0  0  0  0  0  0  0  0  0  0  0  0
    5.8237   -2.0656    0.0000 H   0  0  0  0  0  0  0  0  0  0  0  0
    7.1944    0.4882    0.0000 H   0  0  0  0  0  0  0  0  0  0  0  0
    7.0223    1.2419    0.0000 H   0  0  0  0  0  0  0  0  0  0  0  0
    6.5709    1.8080    0.0000 H   0  0  0  0  0  0  0  0  0  0  0  0
    5.8743    2.1434    0.0000 H   0  0  0  0  0  0  0  0  0  0  0  0
    2.9756    0.4073    0.0000 H   0  0  0  0  0  0  0  0  0  0  0  0
    2.5566   -1.2967    0.0000 H   0  0  0  0  0  0  0  0  0  0  0  0
    5.0388    2.9946    0.0000 H   0  0  0  0  0  0  0  0  0  0  0  0
    4.0152   -3.8895    0.0000 H   0  0  0  0  0  0  0  0  0  0  0  0
    4.8767   -4.0525    0.0000 H   0  0  0  0  0  0  0  0  0  0  0  0
    5.0397   -3.1910    0.0000 H   0  0  0  0  0  0  0  0  0  0  0  0
    1.9456    3.8755    0.0000 H   0  0  0  0  0  0  0  0  0  0  0  0
    1.4284    3.2270    0.0000 H   0  0  0  0  0  0  0  0  0  0  0  0
  9  1  1  1  0  0  0
  1 38  1  0  0  0  0
  2 15  1  0  0  0  0
  2 22  1  0  0  0  0
  3 20  1  0  0  0  0
  3 23  1  0  0  0  0
  4 21  1  0  0  0  0
  4 23  1  0  0  0  0
  5  6  1  0  0  0  0
  5 10  1  0  0  0  0
  5 14  1  0  0  0  0
  6  7  1  0  0  0  0
  6  8  1  6  0  0  0
  6 12  1  0  0  0  0
  7  9  1  0  0  0  0
  7 13  1  0  0  0  0
  7 24  1  6  0  0  0
  8 11  1  0  0  0  0
  8 25  1  0  0  0  0
  8 26  1  0  0  0  0
  9 15  1  0  0  0  0
  9 27  1  0  0  0  0
 10 11  1  0  0  0  0
 10 28  1  0  0  0  0
 10 29  1  0  0  0  0
 11 30  1  0  0  0  0
 11 31  1  0  0  0  0
 12 15  2  0  0  0  0
 12 32  1  0  0  0  0
 13 17  1  0  0  0  0
 13 18  2  0  0  0  0
 14 16  1  0  0  0  0
 14 33  1  0  0  0  0
 14 34  1  0  0  0  0
 16 17  1  0  0  0  0
 16 35  1  0  0  0  0
 16 36  1  0  0  0  0
 17 19  2  0  0  0  0
 18 20  1  0  0  0  0
 18 37  1  0  0  0  0
 19 21  1  0  0  0  0
 19 39  1  0  0  0  0
 20 21  2  0  0  0  0
 22 40  1  0  0  0  0
 22 41  1  0  0  0  0
 22 42  1  0  0  0  0
 23 43  1  0  0  0  0
 23 44  1  0  0  0  0
M  END
> <PUBCHEM_COMPOUND_CID>
65305

> <PUBCHEM_COMPOUND_CANONICALIZED>
1

> <PUBCHEM_CACTVS_COMPLEXITY>
523

> <PUBCHEM_CACTVS_HBOND_ACCEPTOR>
5

> <PUBCHEM_CACTVS_HBOND_DONOR>
1

> <PUBCHEM_CACTVS_ROTATABLE_BOND>
1

> <PUBCHEM_CACTVS_SUBSKEYS>
AAADceB6OAAAAAAAAAAAAAAAAAAAAWJEAAAwAAAABYAAAEixAAAAHgAACAAADZzhmAcyDoMABgCAAiBCAACCCAAgIAAAiAAOiIgdNiKEsRukcCImwBGPuAew8P8OoAABAAAQQABAAAIAACCAAAAAAAAAAA==

> <PUBCHEM_IUPAC_INCHI>
InChI=1S/C18H21NO4/c1-21-15-9-18-4-2-5-19(18)6-3-11-7-13-14(23-10-22-13)8-12(11)16(18)17(15)20/h7-9,16-17,20H,2-6,10H2,1H3/t16-,17-,18+/m1/s1

> <PUBCHEM_IUPAC_INCHIKEY>
YMNCVRSYJBNGLD-KURKYZTESA-N

> <PUBCHEM_XLOGP3>
0.2

> <PUBCHEM_EXACT_MASS>
315.147058

> <PUBCHEM_MOLECULAR_FORMULA>
C18H21NO4

> <PUBCHEM_MOLECULAR_WEIGHT>
315.36364

> <PUBCHEM_OPENEYE_CAN_SMILES>
COC1=CC23CCCN2CCC4=CC5=C(C=C4C3C1O)OCO5

> <PUBCHEM_OPENEYE_ISO_SMILES>
COC1=C[C@]23CCCN2CCC4=CC5=C(C=C4[C@@H]3[C@@H]1O)OCO5

> <PUBCHEM_CACTVS_TPSA>
51.2

> <PUBCHEM_MONOISOTOPIC_WEIGHT>
315.147058

> <PUBCHEM_TOTAL_CHARGE>
0

> <PUBCHEM_HEAVY_ATOM_COUNT>
23

> <PUBCHEM_ATOM_DEF_STEREO_COUNT>
3

> <PUBCHEM_ATOM_UDEF_STEREO_COUNT>
0

> <PUBCHEM_BOND_DEF_STEREO_COUNT>
0

> <PUBCHEM_BOND_UDEF_STEREO_COUNT>
0

> <PUBCHEM_ISOTOPIC_ATOM_COUNT>
0

> <PUBCHEM_COMPONENT_COUNT>
1

> <PUBCHEM_CACTVS_TAUTO_COUNT>
1

> <PUBCHEM_COORDINATE_TYPE>
1
5
255

> <PUBCHEM_BONDANNOTATIONS>
9  1  5
13  17  8
13  18  8
17  19  8
18  20  8
19  21  8
20  21  8
6  8  6
7  24  6

$$$$

