14353
  -OEChem-06241222433D

 28 30  0     0  0  0  0  0  0999 V2000
    0.2489    4.8377   -0.3035 Cl  0  0  0  0  0  0  0  0  0  0  0  0
    0.0350    0.8234    0.3239 N   0  0  0  0  0  0  0  0  0  0  0  0
   -1.1303    0.1073    0.1837 C   0  0  0  0  0  0  0  0  0  0  0  0
    1.1314    0.0054    0.1842 C   0  0  0  0  0  0  0  0  0  0  0  0
   -0.7732   -1.2202   -0.0542 C   0  0  0  0  0  0  0  0  0  0  0  0
    0.6565   -1.2846   -0.0539 C   0  0  0  0  0  0  0  0  0  0  0  0
    0.0984    2.2484    0.5828 C   0  0  0  0  0  0  0  0  0  0  0  0
   -2.4620    0.5328    0.2496 C   0  0  0  0  0  0  0  0  0  0  0  0
    2.4958    0.3095    0.2506 C   0  0  0  0  0  0  0  0  0  0  0  0
   -1.7983   -2.1721   -0.2359 C   0  0  0  0  0  0  0  0  0  0  0  0
    1.5919   -2.3248   -0.2352 C   0  0  0  0  0  0  0  0  0  0  0  0
    0.1374    3.1012   -0.6808 C   0  0  0  0  0  0  0  0  0  0  0  0
   -3.4595   -0.4287    0.0663 C   0  0  0  0  0  0  0  0  0  0  0  0
    3.4029   -0.7376    0.0672 C   0  0  0  0  0  0  0  0  0  0  0  0
   -3.1348   -1.7617   -0.1729 C   0  0  0  0  0  0  0  0  0  0  0  0
    2.9599   -2.0362   -0.1720 C   0  0  0  0  0  0  0  0  0  0  0  0
    0.9810    2.4382    1.2046 H   0  0  0  0  0  0  0  0  0  0  0  0
   -0.7629    2.5182    1.2047 H   0  0  0  0  0  0  0  0  0  0  0  0
   -2.7279    1.5687    0.4304 H   0  0  0  0  0  0  0  0  0  0  0  0
    2.8537    1.3173    0.4314 H   0  0  0  0  0  0  0  0  0  0  0  0
   -1.5612   -3.2155   -0.4234 H   0  0  0  0  0  0  0  0  0  0  0  0
    1.2620   -3.3427   -0.4228 H   0  0  0  0  0  0  0  0  0  0  0  0
    1.0014    2.8436   -1.3017 H   0  0  0  0  0  0  0  0  0  0  0  0
   -0.7640    2.9510   -1.2835 H   0  0  0  0  0  0  0  0  0  0  0  0
   -4.5037   -0.1301    0.1102 H   0  0  0  0  0  0  0  0  0  0  0  0
    4.4697   -0.5341    0.1112 H   0  0  0  0  0  0  0  0  0  0  0  0
   -3.9268   -2.4926   -0.3128 H   0  0  0  0  0  0  0  0  0  0  0  0
    3.6831   -2.8352   -0.3117 H   0  0  0  0  0  0  0  0  0  0  0  0
  1 12  1  0  0  0  0
  2  3  1  0  0  0  0
  2  4  1  0  0  0  0
  2  7  1  0  0  0  0
  3  5  1  0  0  0  0
  3  8  2  0  0  0  0
  4  6  1  0  0  0  0
  4  9  2  0  0  0  0
  5  6  1  0  0  0  0
  5 10  2  0  0  0  0
  6 11  2  0  0  0  0
  7 12  1  0  0  0  0
  7 17  1  0  0  0  0
  7 18  1  0  0  0  0
  8 13  1  0  0  0  0
  8 19  1  0  0  0  0
  9 14  1  0  0  0  0
  9 20  1  0  0  0  0
 10 15  1  0  0  0  0
 10 21  1  0  0  0  0
 11 16  1  0  0  0  0
 11 22  1  0  0  0  0
 12 23  1  0  0  0  0
 12 24  1  0  0  0  0
 13 15  2  0  0  0  0
 13 25  1  0  0  0  0
 14 16  2  0  0  0  0
 14 26  1  0  0  0  0
 15 27  1  0  0  0  0
 16 28  1  0  0  0  0
M  END
> <PUBCHEM_COMPOUND_CID>
14353

> <PUBCHEM_CONFORMER_RMSD>
0.6

> <PUBCHEM_CONFORMER_DIVERSEORDER>
1
3
2

> <PUBCHEM_MMFF94_PARTIAL_CHARGES>
22
1 -0.29
10 -0.15
11 -0.15
12 0.29
13 -0.15
14 -0.15
15 -0.15
16 -0.15
19 0.15
2 0.05
20 0.15
21 0.15
22 0.15
25 0.15
26 0.15
27 0.15
28 0.15
3 -0.15
4 -0.15
7 0.26
8 -0.15
9 -0.15

> <PUBCHEM_EFFECTIVE_ROTOR_COUNT>
2

> <PUBCHEM_PHARMACOPHORE_FEATURES>
4
1 2 cation
5 2 3 4 5 6 rings
6 3 5 8 10 13 15 rings
6 4 6 9 11 14 16 rings

> <PUBCHEM_HEAVY_ATOM_COUNT>
16

> <PUBCHEM_ATOM_DEF_STEREO_COUNT>
0

> <PUBCHEM_ATOM_UDEF_STEREO_COUNT>
0

> <PUBCHEM_BOND_DEF_STEREO_COUNT>
0

> <PUBCHEM_BOND_UDEF_STEREO_COUNT>
0

> <PUBCHEM_ISOTOPIC_ATOM_COUNT>
0

> <PUBCHEM_COMPONENT_COUNT>
1

> <PUBCHEM_CACTVS_TAUTO_COUNT>
1

> <PUBCHEM_CONFORMER_ID>
0000381100000001

> <PUBCHEM_MMFF94_ENERGY>
32.9237

> <PUBCHEM_FEATURE_SELFOVERLAP>
20.477

> <PUBCHEM_SHAPE_FINGERPRINT>
10967382 1 18265335010335139690
13132413 78 18336261262742641637
13140716 1 18339079401239198331
14648413 74 18196936556914118091
15490181 7 17402039497206326979
15490181 8 17618232706168765802
16945 1 18265613169787151283
17134986 127 17548700673213049165
18785283 64 17982723078862088081
193761 8 17473264275774449090
19591789 44 17256238770848299817
19868273 325 18411419531073529987
20510252 161 18045786951131135850
20645477 70 17980212881258664135
20739085 24 18047719815474383923
21029758 27 18340756092241874883
21267235 1 18335692853875796071
21501502 16 18047468916422931763
21524375 3 17047405800044044217
2255824 54 18121779422217101655
2334 1 18408604738362317586
23366157 5 17912937075414531088
23402539 116 18261685877424569639
23419403 2 17340452217619374436
23463225 33 18409166623322105010
23552423 10 18120938296075346415
23558518 356 17839171167030905154
2748010 2 18335425672549824278
3071541 12 18122340168826153677
3071541 158 18340772533323923621
3091708 16 9066837315277306984
34934 24 18410020956630960675
350125 39 17473253757130269080
352729 6 17256526842831304768
43471831 8 17330840114959167491
458136 41 17618769268212171393
6992083 37 18262502806248002625
7364860 26 18121499051057717441
81228 2 18266169720085957360
90316 7 18268729331774113512

> <PUBCHEM_SHAPE_MULTIPOLES>
326.16
4.64
4.55
0.7
1.24
7.45
0.01
-3.45
-0.03
-1.7
0.88
-0.02
0.15
-0.11

> <PUBCHEM_SHAPE_SELFOVERLAP>
711.762

> <PUBCHEM_SHAPE_VOLUME>
180.7

> <PUBCHEM_COORDINATE_TYPE>
2
5
10

$$$$

