222304
  -OEChem-07051213072D

 24 25  0     0  0  0  0  0  0999 V2000
    3.0852    2.5475    0.0000 O   0  0  0  0  0  0  0  0  0  0  0  0
    2.5896   -0.2306    0.0000 N   0  0  0  0  0  0  0  0  0  0  0  0
    4.2077   -0.2306    0.0000 N   0  0  0  0  0  0  0  0  0  0  0  0
    2.8987    0.7204    0.0000 N   0  0  0  0  0  0  0  0  0  0  0  0
    4.4865    1.5294    0.0000 N   0  0  0  0  0  0  0  0  0  0  0  0
    4.6675    3.2520    0.0000 N   0  0  0  0  0  0  0  0  0  0  0  0
    3.3987   -1.8184    0.0000 C   0  0  0  0  0  0  0  0  0  0  0  0
    3.3987   -0.8184    0.0000 C   0  0  0  0  0  0  0  0  0  0  0  0
    2.5326   -2.3184    0.0000 C   0  0  0  0  0  0  0  0  0  0  0  0
    4.2647   -2.3184    0.0000 C   0  0  0  0  0  0  0  0  0  0  0  0
    3.8987    0.7204    0.0000 C   0  0  0  0  0  0  0  0  0  0  0  0
    2.5326   -3.3184    0.0000 C   0  0  0  0  0  0  0  0  0  0  0  0
    4.2647   -3.3184    0.0000 C   0  0  0  0  0  0  0  0  0  0  0  0
    3.3987   -3.8184    0.0000 C   0  0  0  0  0  0  0  0  0  0  0  0
    4.0797    2.4430    0.0000 C   0  0  0  0  0  0  0  0  0  0  0  0
    1.9957   -2.0084    0.0000 H   0  0  0  0  0  0  0  0  0  0  0  0
    4.8016   -2.0084    0.0000 H   0  0  0  0  0  0  0  0  0  0  0  0
    2.0000   -0.4222    0.0000 H   0  0  0  0  0  0  0  0  0  0  0  0
    1.9957   -3.6284    0.0000 H   0  0  0  0  0  0  0  0  0  0  0  0
    4.8016   -3.6284    0.0000 H   0  0  0  0  0  0  0  0  0  0  0  0
    3.3987   -4.4384    0.0000 H   0  0  0  0  0  0  0  0  0  0  0  0
    5.1031    1.4646    0.0000 H   0  0  0  0  0  0  0  0  0  0  0  0
    4.4153    3.8184    0.0000 H   0  0  0  0  0  0  0  0  0  0  0  0
    5.2841    3.1872    0.0000 H   0  0  0  0  0  0  0  0  0  0  0  0
  1 15  2  0  0  0  0
  2  4  1  0  0  0  0
  2  8  1  0  0  0  0
  2 18  1  0  0  0  0
  3  8  2  0  0  0  0
  3 11  1  0  0  0  0
  4 11  2  0  0  0  0
  5 11  1  0  0  0  0
  5 15  1  0  0  0  0
  5 22  1  0  0  0  0
  6 15  1  0  0  0  0
  6 23  1  0  0  0  0
  6 24  1  0  0  0  0
  7  8  1  0  0  0  0
  7  9  2  0  0  0  0
  7 10  1  0  0  0  0
  9 12  1  0  0  0  0
  9 16  1  0  0  0  0
 10 13  2  0  0  0  0
 10 17  1  0  0  0  0
 12 14  2  0  0  0  0
 12 19  1  0  0  0  0
 13 14  1  0  0  0  0
 13 20  1  0  0  0  0
 14 21  1  0  0  0  0
M  END
> <PUBCHEM_COMPOUND_CID>
222304

> <PUBCHEM_COMPOUND_CANONICALIZED>
1

> <PUBCHEM_CACTVS_COMPLEXITY>
229

> <PUBCHEM_CACTVS_HBOND_ACCEPTOR>
3

> <PUBCHEM_CACTVS_HBOND_DONOR>
3

> <PUBCHEM_CACTVS_ROTATABLE_BOND>
2

> <PUBCHEM_CACTVS_SUBSKEYS>
AAADccBzoAAAAAAAAAAAAAAAAAAAAWAAAAAwAAAAAAAAAAABwAAAHgAYAAAADACBGwAxEIbrEACqAiJiNACSgAugAKAdqCAgBJiIKKKAmRGEIAh4iQIIiAcQgAAOAAAAAAAAAAAAAAAAAAAAAAAAAAAAAA==

> <PUBCHEM_IUPAC_OPENEYE_NAME>
(5-phenyl-1H-1,2,4-triazol-3-yl)urea

> <PUBCHEM_IUPAC_CAS_NAME>
(5-phenyl-1H-1,2,4-triazol-3-yl)urea

> <PUBCHEM_IUPAC_NAME>
(5-phenyl-1H-1,2,4-triazol-3-yl)urea

> <PUBCHEM_IUPAC_SYSTEMATIC_NAME>
1-(5-phenyl-1H-1,2,4-triazol-3-yl)urea

> <PUBCHEM_IUPAC_TRADITIONAL_NAME>
(5-phenyl-1H-1,2,4-triazol-3-yl)urea

> <PUBCHEM_IUPAC_INCHI>
InChI=1S/C9H9N5O/c10-8(15)12-9-11-7(13-14-9)6-4-2-1-3-5-6/h1-5H,(H4,10,11,12,13,14,15)

> <PUBCHEM_IUPAC_INCHIKEY>
RUQGXFJIPMDCFD-UHFFFAOYSA-N

> <PUBCHEM_XLOGP3_AA>
0.6

> <PUBCHEM_EXACT_MASS>
203.08071

> <PUBCHEM_MOLECULAR_FORMULA>
C9H9N5O

> <PUBCHEM_MOLECULAR_WEIGHT>
203.20066

> <PUBCHEM_OPENEYE_CAN_SMILES>
C1=CC=C(C=C1)C2=NC(=NN2)NC(=O)N

> <PUBCHEM_OPENEYE_ISO_SMILES>
C1=CC=C(C=C1)C2=NC(=NN2)NC(=O)N

> <PUBCHEM_CACTVS_TPSA>
96.7

> <PUBCHEM_MONOISOTOPIC_WEIGHT>
203.08071

> <PUBCHEM_TOTAL_CHARGE>
0

> <PUBCHEM_HEAVY_ATOM_COUNT>
15

> <PUBCHEM_ATOM_DEF_STEREO_COUNT>
0

> <PUBCHEM_ATOM_UDEF_STEREO_COUNT>
0

> <PUBCHEM_BOND_DEF_STEREO_COUNT>
0

> <PUBCHEM_BOND_UDEF_STEREO_COUNT>
0

> <PUBCHEM_ISOTOPIC_ATOM_COUNT>
0

> <PUBCHEM_COMPONENT_COUNT>
1

> <PUBCHEM_CACTVS_TAUTO_COUNT>
13

> <PUBCHEM_COORDINATE_TYPE>
1
5
255

> <PUBCHEM_BONDANNOTATIONS>
10  13  8
12  14  8
13  14  8
2  4  8
2  8  8
3  11  8
3  8  8
4  11  8
7  10  8
7  9  8
9  12  8

$$$$

