5462518
  -OEChem-07051213022D

 37 39  0     1  0  0  0  0  0999 V2000
    5.3667    2.4101    0.0000 S   0  0  0  0  0  0  0  0  0  0  0  0
    6.9544   -0.3010    0.0000 S   0  0  0  0  0  0  0  0  0  0  0  0
    2.5896    3.6972    0.0000 O   0  0  0  0  0  0  0  0  0  0  0  0
    2.0544    2.0500    0.0000 O   0  0  0  0  0  0  0  0  0  0  0  0
    4.4134   -1.8888    0.0000 O   0  0  0  0  0  0  0  0  0  0  0  0
    4.0576    1.4590    0.0000 N   0  0  3  0  0  0  0  0  0  0  0  0
    5.3364   -0.3010    0.0000 N   0  0  0  0  0  0  0  0  0  0  0  0
    5.0576    1.4590    0.0000 C   0  0  3  0  0  0  0  0  0  0  0  0
    5.6454    0.6500    0.0000 C   0  0  1  0  0  0  0  0  0  0  0  0
    3.7486    2.4101    0.0000 C   0  0  1  0  0  0  0  0  0  0  0  0
    4.5576    2.9979    0.0000 C   0  0  0  0  0  0  0  0  0  0  0  0
    6.6454    0.6500    0.0000 C   0  0  0  0  0  0  0  0  0  0  0  0
    3.4699    0.6500    0.0000 C   0  0  0  0  0  0  0  0  0  0  0  0
    6.1454   -0.8888    0.0000 C   0  0  0  0  0  0  0  0  0  0  0  0
    2.7976    2.7191    0.0000 C   0  0  0  0  0  0  0  0  0  0  0  0
    6.1454   -1.8888    0.0000 C   0  0  0  0  0  0  0  0  0  0  0  0
    5.2794   -2.3888    0.0000 C   0  0  0  0  0  0  0  0  0  0  0  0
    7.0114   -2.3888    0.0000 C   0  0  0  0  0  0  0  0  0  0  0  0
    5.2794   -3.3888    0.0000 C   0  0  0  0  0  0  0  0  0  0  0  0
    7.0114   -3.3888    0.0000 C   0  0  0  0  0  0  0  0  0  0  0  0
    6.1454   -3.8888    0.0000 C   0  0  0  0  0  0  0  0  0  0  0  0
    4.7762    0.9066    0.0000 H   0  0  0  0  0  0  0  0  0  0  0  0
    4.8059    0.5170    0.0000 H   0  0  0  0  0  0  0  0  0  0  0  0
    3.3102    1.9717    0.0000 H   0  0  0  0  0  0  0  0  0  0  0  0
    4.9725    3.4586    0.0000 H   0  0  0  0  0  0  0  0  0  0  0  0
    4.1428    3.4586    0.0000 H   0  0  0  0  0  0  0  0  0  0  0  0
    7.2519    0.7789    0.0000 H   0  0  0  0  0  0  0  0  0  0  0  0
    6.5806    1.2666    0.0000 H   0  0  0  0  0  0  0  0  0  0  0  0
    4.7467   -0.4926    0.0000 H   0  0  0  0  0  0  0  0  0  0  0  0
    2.9683    1.0144    0.0000 H   0  0  0  0  0  0  0  0  0  0  0  0
    3.1054    0.1484    0.0000 H   0  0  0  0  0  0  0  0  0  0  0  0
    3.9714    0.2856    0.0000 H   0  0  0  0  0  0  0  0  0  0  0  0
    7.5484   -2.0788    0.0000 H   0  0  0  0  0  0  0  0  0  0  0  0
    2.0000    3.8888    0.0000 H   0  0  0  0  0  0  0  0  0  0  0  0
    4.7425   -3.6988    0.0000 H   0  0  0  0  0  0  0  0  0  0  0  0
    7.5484   -3.6988    0.0000 H   0  0  0  0  0  0  0  0  0  0  0  0
    6.1454   -4.5088    0.0000 H   0  0  0  0  0  0  0  0  0  0  0  0
  1  8  1  0  0  0  0
  1 11  1  0  0  0  0
  2 12  1  0  0  0  0
  2 14  1  0  0  0  0
  3 15  1  0  0  0  0
  3 34  1  0  0  0  0
  4 15  2  0  0  0  0
  5 17  2  0  0  0  0
  6  8  1  0  0  0  0
  6 10  1  0  0  0  0
  6 13  1  0  0  0  0
  7  9  1  0  0  0  0
  7 14  1  0  0  0  0
  7 29  1  0  0  0  0
  8  9  1  0  0  0  0
  8 22  1  0  0  0  0
  9 12  1  0  0  0  0
  9 23  1  6  0  0  0
 10 11  1  0  0  0  0
 10 15  1  6  0  0  0
 10 24  1  0  0  0  0
 11 25  1  0  0  0  0
 11 26  1  0  0  0  0
 12 27  1  0  0  0  0
 12 28  1  0  0  0  0
 13 30  1  0  0  0  0
 13 31  1  0  0  0  0
 13 32  1  0  0  0  0
 14 16  2  0  0  0  0
 16 17  1  0  0  0  0
 16 18  1  0  0  0  0
 17 19  1  0  0  0  0
 18 20  2  0  0  0  0
 18 33  1  0  0  0  0
 19 21  2  0  0  0  0
 19 35  1  0  0  0  0
 20 21  1  0  0  0  0
 20 36  1  0  0  0  0
 21 37  1  0  0  0  0
M  END
> <PUBCHEM_COMPOUND_CID>
5462518

> <PUBCHEM_COMPOUND_CANONICALIZED>
1

> <PUBCHEM_CACTVS_COMPLEXITY>
571

> <PUBCHEM_CACTVS_HBOND_ACCEPTOR>
7

> <PUBCHEM_CACTVS_HBOND_DONOR>
2

> <PUBCHEM_CACTVS_ROTATABLE_BOND>
2

> <PUBCHEM_CACTVS_SUBSKEYS>
AAADceBzMABgAAAAAAAAAAAAAAAAAWLAAAAgAAAAAAAAAAAAAAAAHgQQCAAADCzFwASCCAPAAgiIAqDSSAAAAABgABAICIGIAEgKQAAgASAUQAAAkAC4gcIAAAAAAAAAAAAAAAAAAAAAAAAAAAAAAAAAAA==

> <PUBCHEM_IUPAC_OPENEYE_NAME>
(4R)-3-methyl-2-[(2E,4R)-2-(6-oxocyclohexa-2,4-dien-1-ylidene)thiazolidin-4-yl]thiazolidine-4-carboxylic acid

> <PUBCHEM_IUPAC_CAS_NAME>
(4R)-3-methyl-2-[(2E,4R)-2-(6-oxo-1-cyclohexa-2,4-dienylidene)-4-thiazolidinyl]-4-thiazolidinecarboxylic acid

> <PUBCHEM_IUPAC_NAME>
(4R)-3-methyl-2-[(2E,4R)-2-(6-oxocyclohexa-2,4-dien-1-ylidene)-1,3-thiazolidin-4-yl]-1,3-thiazolidine-4-carboxylic acid

> <PUBCHEM_IUPAC_SYSTEMATIC_NAME>
(4R)-3-methyl-2-[(2E,4R)-2-(6-oxidanylidenecyclohexa-2,4-dien-1-ylidene)-1,3-thiazolidin-4-yl]-1,3-thiazolidine-4-carboxylic acid

> <PUBCHEM_IUPAC_TRADITIONAL_NAME>
(4R)-2-[(2E,4R)-2-(6-ketocyclohexa-2,4-dien-1-ylidene)thiazolidin-4-yl]-3-methyl-thiazolidine-4-carboxylic acid

> <PUBCHEM_IUPAC_INCHI>
InChI=1S/C14H16N2O3S2/c1-16-10(14(18)19)7-21-13(16)9-6-20-12(15-9)8-4-2-3-5-11(8)17/h2-5,9-10,13,15H,6-7H2,1H3,(H,18,19)/b12-8+/t9-,10+,13?/m1/s1

> <PUBCHEM_IUPAC_INCHIKEY>
VRTHPBIMOLQLGL-MXZFKARLSA-N

> <PUBCHEM_XLOGP3_AA>
-0.2

> <PUBCHEM_EXACT_MASS>
324.060234

> <PUBCHEM_MOLECULAR_FORMULA>
C14H16N2O3S2

> <PUBCHEM_MOLECULAR_WEIGHT>
324.41844

> <PUBCHEM_OPENEYE_CAN_SMILES>
CN1C(CSC1C2CSC(=C3C=CC=CC3=O)N2)C(=O)O

> <PUBCHEM_OPENEYE_ISO_SMILES>
CN1[C@@H](CSC1[C@H]2CS/C(=C/3\C=CC=CC3=O)/N2)C(=O)O

> <PUBCHEM_CACTVS_TPSA>
120

> <PUBCHEM_MONOISOTOPIC_WEIGHT>
324.060234

> <PUBCHEM_TOTAL_CHARGE>
0

> <PUBCHEM_HEAVY_ATOM_COUNT>
21

> <PUBCHEM_ATOM_DEF_STEREO_COUNT>
2

> <PUBCHEM_ATOM_UDEF_STEREO_COUNT>
1

> <PUBCHEM_BOND_DEF_STEREO_COUNT>
1

> <PUBCHEM_BOND_UDEF_STEREO_COUNT>
0

> <PUBCHEM_ISOTOPIC_ATOM_COUNT>
0

> <PUBCHEM_COMPONENT_COUNT>
1

> <PUBCHEM_CACTVS_TAUTO_COUNT>
4

> <PUBCHEM_COORDINATE_TYPE>
1
5
255

> <PUBCHEM_BONDANNOTATIONS>
8  1  3
10  15  6
9  23  6

$$$$

