5281646
  -OEChem-07051212583D

 51 54  0     0  0  0  0  0  0999 V2000
   -3.3424    0.7434    0.0611 O   0  0  0  0  0  0  0  0  0  0  0  0
    1.3562    0.7205    0.0873 O   0  0  0  0  0  0  0  0  0  0  0  0
   -1.0335   -3.4860   -0.1377 O   0  0  0  0  0  0  0  0  0  0  0  0
    1.5614   -3.3601   -0.1181 O   0  0  0  0  0  0  0  0  0  0  0  0
    3.5915    2.2283    0.1723 O   0  0  0  0  0  0  0  0  0  0  0  0
    6.0943    1.0566    0.1219 O   0  0  0  0  0  0  0  0  0  0  0  0
   -0.9910    2.1636    0.1458 C   0  0  0  0  0  0  0  0  0  0  0  0
   -0.9975    0.6675    0.0715 C   0  0  0  0  0  0  0  0  0  0  0  0
   -2.2120   -0.0238    0.0306 C   0  0  0  0  0  0  0  0  0  0  0  0
   -4.6338    0.0983    0.0364 C   0  0  0  0  0  0  0  0  0  0  0  0
    0.2093   -0.0331    0.0430 C   0  0  0  0  0  0  0  0  0  0  0  0
   -2.2253   -1.4186   -0.0393 C   0  0  0  0  0  0  0  0  0  0  0  0
    0.1961   -1.4242   -0.0270 C   0  0  0  0  0  0  0  0  0  0  0  0
   -1.0147   -2.1222   -0.0685 C   0  0  0  0  0  0  0  0  0  0  0  0
   -2.4051    2.8358    0.1135 C   0  0  0  0  0  0  0  0  0  0  0  0
   -0.3618    2.6203    1.5015 C   0  0  0  0  0  0  0  0  0  0  0  0
   -4.6186   -1.4098   -0.0461 C   0  0  0  0  0  0  0  0  0  0  0  0
   -3.4935   -2.1264   -0.0821 C   0  0  0  0  0  0  0  0  0  0  0  0
   -0.2604    2.7717   -1.0713 C   0  0  0  0  0  0  0  0  0  0  0  0
   -5.3759    0.6646   -1.1797 C   0  0  0  0  0  0  0  0  0  0  0  0
   -5.3528    0.5265    1.3211 C   0  0  0  0  0  0  0  0  0  0  0  0
    1.4799   -2.1422   -0.0569 C   0  0  0  0  0  0  0  0  0  0  0  0
    2.6973   -1.3178   -0.0105 C   0  0  0  0  0  0  0  0  0  0  0  0
    2.5645    0.0686    0.0594 C   0  0  0  0  0  0  0  0  0  0  0  0
    3.7066    0.8708    0.1039 C   0  0  0  0  0  0  0  0  0  0  0  0
    0.8256    3.5552   -1.0837 C   0  0  0  0  0  0  0  0  0  0  0  0
    3.9628   -1.9095   -0.0364 C   0  0  0  0  0  0  0  0  0  0  0  0
    4.9725    0.2847    0.0791 C   0  0  0  0  0  0  0  0  0  0  0  0
    5.1001   -1.1027    0.0090 C   0  0  0  0  0  0  0  0  0  0  0  0
   -2.9529    2.6781   -0.8243 H   0  0  0  0  0  0  0  0  0  0  0  0
   -2.2697    3.9292    0.1395 H   0  0  0  0  0  0  0  0  0  0  0  0
   -3.0051    2.6437    1.0116 H   0  0  0  0  0  0  0  0  0  0  0  0
    0.6883    2.3468    1.6283 H   0  0  0  0  0  0  0  0  0  0  0  0
   -0.4197    3.7095    1.6195 H   0  0  0  0  0  0  0  0  0  0  0  0
   -0.9079    2.1763    2.3437 H   0  0  0  0  0  0  0  0  0  0  0  0
   -5.5729   -1.9297   -0.0840 H   0  0  0  0  0  0  0  0  0  0  0  0
   -3.5508   -3.2039   -0.1614 H   0  0  0  0  0  0  0  0  0  0  0  0
   -0.6734    2.4977   -2.0428 H   0  0  0  0  0  0  0  0  0  0  0  0
   -6.3996    0.2808   -1.2522 H   0  0  0  0  0  0  0  0  0  0  0  0
   -5.4221    1.7591   -1.1355 H   0  0  0  0  0  0  0  0  0  0  0  0
   -4.8484    0.4163   -2.1085 H   0  0  0  0  0  0  0  0  0  0  0  0
   -6.3750    0.1355    1.3699 H   0  0  0  0  0  0  0  0  0  0  0  0
   -4.8084    0.1785    2.2073 H   0  0  0  0  0  0  0  0  0  0  0  0
   -5.3995    1.6191    1.3983 H   0  0  0  0  0  0  0  0  0  0  0  0
    1.2413    3.8925   -2.0274 H   0  0  0  0  0  0  0  0  0  0  0  0
    1.2996    3.9075   -0.1771 H   0  0  0  0  0  0  0  0  0  0  0  0
    4.0831   -2.9877   -0.0910 H   0  0  0  0  0  0  0  0  0  0  0  0
   -1.7605   -3.8298    0.4061 H   0  0  0  0  0  0  0  0  0  0  0  0
    6.0814   -1.5694   -0.0113 H   0  0  0  0  0  0  0  0  0  0  0  0
    2.6685    2.4320    0.3924 H   0  0  0  0  0  0  0  0  0  0  0  0
    6.8773    0.4801    0.0956 H   0  0  0  0  0  0  0  0  0  0  0  0
  1  9  1  0  0  0  0
  1 10  1  0  0  0  0
  2 11  1  0  0  0  0
  2 24  1  0  0  0  0
  3 14  1  0  0  0  0
  3 48  1  0  0  0  0
  4 22  2  0  0  0  0
  5 25  1  0  0  0  0
  5 50  1  0  0  0  0
  6 28  1  0  0  0  0
  6 51  1  0  0  0  0
  7  8  1  0  0  0  0
  7 15  1  0  0  0  0
  7 16  1  0  0  0  0
  7 19  1  0  0  0  0
  8  9  2  0  0  0  0
  8 11  1  0  0  0  0
  9 12  1  0  0  0  0
 10 17  1  0  0  0  0
 10 20  1  0  0  0  0
 10 21  1  0  0  0  0
 11 13  2  0  0  0  0
 12 14  2  0  0  0  0
 12 18  1  0  0  0  0
 13 14  1  0  0  0  0
 13 22  1  0  0  0  0
 15 30  1  0  0  0  0
 15 31  1  0  0  0  0
 15 32  1  0  0  0  0
 16 33  1  0  0  0  0
 16 34  1  0  0  0  0
 16 35  1  0  0  0  0
 17 18  2  0  0  0  0
 17 36  1  0  0  0  0
 18 37  1  0  0  0  0
 19 26  2  0  0  0  0
 19 38  1  0  0  0  0
 20 39  1  0  0  0  0
 20 40  1  0  0  0  0
 20 41  1  0  0  0  0
 21 42  1  0  0  0  0
 21 43  1  0  0  0  0
 21 44  1  0  0  0  0
 22 23  1  0  0  0  0
 23 24  2  0  0  0  0
 23 27  1  0  0  0  0
 24 25  1  0  0  0  0
 25 28  2  0  0  0  0
 26 45  1  0  0  0  0
 26 46  1  0  0  0  0
 27 29  2  0  0  0  0
 27 47  1  0  0  0  0
 28 29  1  0  0  0  0
 29 49  1  0  0  0  0
M  END
> <PUBCHEM_COMPOUND_CID>
5281646

> <PUBCHEM_CONFORMER_RMSD>
0.6

> <PUBCHEM_CONFORMER_DIVERSEORDER>
1
2
3
6
4
5

> <PUBCHEM_MMFF94_PARTIAL_CHARGES>
35
1 -0.36
10 0.42
11 0.08
12 0.03
13 0.09
14 0.08
17 -0.29
18 -0.18
19 -0.29
2 -0.17
22 0.4
23 0.09
24 0.08
25 0.08
26 -0.3
27 -0.15
28 0.08
29 -0.15
3 -0.53
36 0.15
37 0.15
38 0.15
4 -0.57
45 0.15
46 0.15
47 0.15
48 0.45
49 0.15
5 -0.53
50 0.45
51 0.45
6 -0.53
7 0.28
8 -0.14
9 0.08

> <PUBCHEM_EFFECTIVE_ROTOR_COUNT>
2.4

> <PUBCHEM_PHARMACOPHORE_FEATURES>
13
1 1 acceptor
1 2 acceptor
1 26 hydrophobe
1 3 donor
1 4 acceptor
1 5 donor
1 6 donor
3 10 20 21 hydrophobe
3 7 15 16 hydrophobe
6 1 9 10 12 17 18 rings
6 2 11 13 22 23 24 rings
6 23 24 25 27 28 29 rings
6 8 9 11 12 13 14 rings

> <PUBCHEM_HEAVY_ATOM_COUNT>
29

> <PUBCHEM_ATOM_DEF_STEREO_COUNT>
0

> <PUBCHEM_ATOM_UDEF_STEREO_COUNT>
0

> <PUBCHEM_BOND_DEF_STEREO_COUNT>
0

> <PUBCHEM_BOND_UDEF_STEREO_COUNT>
0

> <PUBCHEM_ISOTOPIC_ATOM_COUNT>
0

> <PUBCHEM_COMPONENT_COUNT>
1

> <PUBCHEM_CACTVS_TAUTO_COUNT>
58

> <PUBCHEM_CONFORMER_ID>
0050976E00000001

> <PUBCHEM_MMFF94_ENERGY>
119.678

> <PUBCHEM_FEATURE_SELFOVERLAP>
66.061

> <PUBCHEM_SHAPE_FINGERPRINT>
10411042 1 17689437083442590318
10670039 82 18199169837551399734
10675989 125 17408258310005162245
10906281 52 18340749490666033894
10967382 1 18410855460128187798
1100329 8 18267300928509034945
11112241 14 16663763223601461056
11513181 2 17750795639468326039
11578080 2 17058101153226388519
12236239 1 17846503612802966010
12403259 226 18267307719517026644
12788726 201 18335987570309819392
12838862 33 18338537277576816172
13140716 1 18193830453925004569
13402501 40 18410014325148259818
138480 1 14952940198844940324
14117953 113 18413390964423699812
14223421 5 18194400224012165670
14765038 42 18115007693716679545
14787075 74 18260270767251811297
14790565 3 18409442553501220441
14955137 171 18340471288992551393
15081414 286 18410283731462047685
15196674 1 18410012117556642899
15840311 113 17607784391727776649
15927050 60 17615123283302009244
1601671 61 18410856538175502617
1813 80 17561080302136533661
18336668 15 18131069290470970461
19591789 44 18409731780761622288
20510252 161 18262236728433590434
20600515 1 18335125471705626917
20642791 178 18198892639819172965
20715895 44 18127702736596750981
20739085 24 18122880257174989473
21267235 1 18410284826536672994
21421861 104 18128539460154909146
21857420 4 15801069834865130638
22113638 7 18339362959274592822
23402539 116 18408329873340106862
23559900 14 18336552629213839712
238 59 16832655218977434868
3178227 256 18340754972120730419
335352 9 18410575088963392863
338550 245 18342450448192482708
34934 24 18411706504083425535
350125 39 18409730660540205016
3680242 22 18413110588958655746
392239 28 18409164428493207147
484989 97 18124041122933555887
5104073 3 18410856538197187186
5486654 2 18409727344282075134
9709674 26 18191020303651458910

> <PUBCHEM_SHAPE_MULTIPOLES>
561.59
10.7
3.89
0.88
2.29
0.64
0.06
-0.7
0.43
0.22
-0.47
-0.63
0.54
-0.1

> <PUBCHEM_SHAPE_SELFOVERLAP>
1259.808

> <PUBCHEM_SHAPE_VOLUME>
297.2

> <PUBCHEM_COORDINATE_TYPE>
2
5
10

$$$$

