443965
  -OEChem-07051213032D

 27 25  0     0  0  0  0  0  0999 V2000
    4.5505    0.8660    0.0000 P   0  0  0  0  0  0  0  0  0  0  0  0
    5.4165    1.3660    0.0000 O   0  0  0  0  0  0  0  0  0  0  0  0
    3.6844    0.3660    0.0000 O   0  0  0  0  0  0  0  0  0  0  0  0
    4.0505    1.7320    0.0000 O   0  0  0  0  0  0  0  0  0  0  0  0
    5.0505    0.0000    0.0000 O   0  0  0  0  0  0  0  0  0  0  0  0
    0.5369    3.5045    0.0000 O   0  0  0  0  0  0  0  0  0  0  0  0
    4.5505    4.8890    0.0000 N   0  0  0  0  0  0  0  0  0  0  0  0
    4.5505    6.8890    0.0000 N   0  0  0  0  0  0  0  0  0  0  0  0
    5.4165    6.3890    0.0000 C   0  0  0  0  0  0  0  0  0  0  0  0
    3.6844    5.3890    0.0000 C   0  0  0  0  0  0  0  0  0  0  0  0
    3.6844    6.3890    0.0000 C   0  0  0  0  0  0  0  0  0  0  0  0
    5.4165    5.3890    0.0000 C   0  0  0  0  0  0  0  0  0  0  0  0
    6.0271    6.2813    0.0000 H   0  0  0  0  0  0  0  0  0  0  0  0
    5.6286    6.9716    0.0000 H   0  0  0  0  0  0  0  0  0  0  0  0
    3.0739    5.4966    0.0000 H   0  0  0  0  0  0  0  0  0  0  0  0
    3.4724    4.8064    0.0000 H   0  0  0  0  0  0  0  0  0  0  0  0
    3.4724    6.9716    0.0000 H   0  0  0  0  0  0  0  0  0  0  0  0
    3.0739    6.2813    0.0000 H   0  0  0  0  0  0  0  0  0  0  0  0
    5.6286    4.8064    0.0000 H   0  0  0  0  0  0  0  0  0  0  0  0
    6.0271    5.4966    0.0000 H   0  0  0  0  0  0  0  0  0  0  0  0
    4.5505    4.2690    0.0000 H   0  0  0  0  0  0  0  0  0  0  0  0
    4.5505    7.5090    0.0000 H   0  0  0  0  0  0  0  0  0  0  0  0
    4.3605    2.2690    0.0000 H   0  0  0  0  0  0  0  0  0  0  0  0
    3.1475    0.6760    0.0000 H   0  0  0  0  0  0  0  0  0  0  0  0
    5.9534    1.0560    0.0000 H   0  0  0  0  0  0  0  0  0  0  0  0
    1.0739    3.8145    0.0000 H   0  0  0  0  0  0  0  0  0  0  0  0
    0.0000    3.8145    0.0000 H   0  0  0  0  0  0  0  0  0  0  0  0
  1  2  1  0  0  0  0
  1  3  1  0  0  0  0
  1  4  1  0  0  0  0
  1  5  2  0  0  0  0
  2 25  1  0  0  0  0
  3 24  1  0  0  0  0
  4 23  1  0  0  0  0
  6 26  1  0  0  0  0
  6 27  1  0  0  0  0
  7 10  1  0  0  0  0
  7 12  1  0  0  0  0
  7 21  1  0  0  0  0
  8  9  1  0  0  0  0
  8 11  1  0  0  0  0
  8 22  1  0  0  0  0
  9 12  1  0  0  0  0
  9 13  1  0  0  0  0
  9 14  1  0  0  0  0
 10 11  1  0  0  0  0
 10 15  1  0  0  0  0
 10 16  1  0  0  0  0
 11 17  1  0  0  0  0
 11 18  1  0  0  0  0
 12 19  1  0  0  0  0
 12 20  1  0  0  0  0
M  END
> <PUBCHEM_COMPOUND_CID>
443965

> <PUBCHEM_COMPOUND_CANONICALIZED>
1

> <PUBCHEM_CACTVS_COMPLEXITY>
76.3

> <PUBCHEM_CACTVS_HBOND_ACCEPTOR>
7

> <PUBCHEM_CACTVS_HBOND_DONOR>
6

> <PUBCHEM_CACTVS_ROTATABLE_BOND>
0

> <PUBCHEM_CACTVS_SUBSKEYS>
AAADccBjOAIAAAAAAAAAAAAAAAAAAAAAAAAsAAAAAAAAAAAAAAAAHAAQCCAAAADBAAQAAALAABAAQAAAAIAAAAAAAAAAAIAIAAAAQAAAAAAQAAAAEACAAAAAAAAAAAAAAAAAAAAAAAAAAAAAAAAAAAAAAA==

> <PUBCHEM_IUPAC_OPENEYE_NAME>
phosphoric acid; piperazine; hydrate

> <PUBCHEM_IUPAC_CAS_NAME>
phosphoric acid; piperazine; hydrate

> <PUBCHEM_IUPAC_NAME>
phosphoric acid; piperazine; hydrate

> <PUBCHEM_IUPAC_SYSTEMATIC_NAME>
phosphoric acid; piperazine; hydrate

> <PUBCHEM_IUPAC_TRADITIONAL_NAME>
phosphoric acid; piperazine; hydrate

> <PUBCHEM_IUPAC_INCHI>
InChI=1S/C4H10N2.H3O4P.H2O/c1-2-6-4-3-5-1;1-5(2,3)4;/h5-6H,1-4H2;(H3,1,2,3,4);1H2

> <PUBCHEM_IUPAC_INCHIKEY>
PMGABIJVFLPSLS-UHFFFAOYSA-N

> <PUBCHEM_EXACT_MASS>
202.071858

> <PUBCHEM_MOLECULAR_FORMULA>
C4H15N2O5P

> <PUBCHEM_MOLECULAR_WEIGHT>
202.146062

> <PUBCHEM_OPENEYE_CAN_SMILES>
C1CNCCN1.O.OP(=O)(O)O

> <PUBCHEM_OPENEYE_ISO_SMILES>
C1CNCCN1.O.OP(=O)(O)O

> <PUBCHEM_CACTVS_TPSA>
103

> <PUBCHEM_MONOISOTOPIC_WEIGHT>
202.071858

> <PUBCHEM_TOTAL_CHARGE>
0

> <PUBCHEM_HEAVY_ATOM_COUNT>
12

> <PUBCHEM_ATOM_DEF_STEREO_COUNT>
0

> <PUBCHEM_ATOM_UDEF_STEREO_COUNT>
0

> <PUBCHEM_BOND_DEF_STEREO_COUNT>
0

> <PUBCHEM_BOND_UDEF_STEREO_COUNT>
0

> <PUBCHEM_ISOTOPIC_ATOM_COUNT>
0

> <PUBCHEM_COMPONENT_COUNT>
3

> <PUBCHEM_CACTVS_TAUTO_COUNT>
1

> <PUBCHEM_COORDINATE_TYPE>
1
5
255

$$$$

