14328
  -OEChem-06241222433D

 25 25  0     0  0  0  0  0  0999 V2000
   -1.7310    1.6660   -0.3498 O   0  0  0  0  0  0  0  0  0  0  0  0
   -2.7015   -0.8631    0.2736 O   0  0  0  0  0  0  0  0  0  0  0  0
    3.6410   -0.8977    0.1197 O   0  0  0  0  0  0  0  0  0  0  0  0
    1.3893   -0.2033    0.0123 C   0  0  0  0  0  0  0  0  0  0  0  0
   -0.8738    0.6310   -0.1270 C   0  0  0  0  0  0  0  0  0  0  0  0
   -1.3609   -0.6381    0.1855 C   0  0  0  0  0  0  0  0  0  0  0  0
    0.5012    0.8484   -0.2136 C   0  0  0  0  0  0  0  0  0  0  0  0
    0.9021   -1.4725    0.3249 C   0  0  0  0  0  0  0  0  0  0  0  0
   -0.4730   -1.6899    0.4116 C   0  0  0  0  0  0  0  0  0  0  0  0
    2.8230    0.0230   -0.0778 C   0  0  0  0  0  0  0  0  0  0  0  0
    3.3626    1.4077   -0.4191 C   0  0  0  0  0  0  0  0  0  0  0  0
   -2.1072    2.4507    0.7803 C   0  0  0  0  0  0  0  0  0  0  0  0
   -3.3716   -1.2621   -0.9206 C   0  0  0  0  0  0  0  0  0  0  0  0
    0.8449    1.8487   -0.4600 H   0  0  0  0  0  0  0  0  0  0  0  0
    1.5737   -2.3076    0.5054 H   0  0  0  0  0  0  0  0  0  0  0  0
   -0.8456   -2.6809    0.6563 H   0  0  0  0  0  0  0  0  0  0  0  0
    3.0629    2.1294    0.3452 H   0  0  0  0  0  0  0  0  0  0  0  0
    3.0186    1.7140   -1.4103 H   0  0  0  0  0  0  0  0  0  0  0  0
    4.4565    1.3706   -0.4379 H   0  0  0  0  0  0  0  0  0  0  0  0
   -1.2286    2.9294    1.2242 H   0  0  0  0  0  0  0  0  0  0  0  0
   -2.6160    1.8324    1.5267 H   0  0  0  0  0  0  0  0  0  0  0  0
   -2.7967    3.2292    0.4426 H   0  0  0  0  0  0  0  0  0  0  0  0
   -2.9706   -2.2129   -1.2858 H   0  0  0  0  0  0  0  0  0  0  0  0
   -3.2752   -0.4920   -1.6925 H   0  0  0  0  0  0  0  0  0  0  0  0
   -4.4322   -1.3952   -0.6901 H   0  0  0  0  0  0  0  0  0  0  0  0
  1  5  1  0  0  0  0
  1 12  1  0  0  0  0
  2  6  1  0  0  0  0
  2 13  1  0  0  0  0
  3 10  2  0  0  0  0
  4  7  2  0  0  0  0
  4  8  1  0  0  0  0
  4 10  1  0  0  0  0
  5  6  2  0  0  0  0
  5  7  1  0  0  0  0
  6  9  1  0  0  0  0
  7 14  1  0  0  0  0
  8  9  2  0  0  0  0
  8 15  1  0  0  0  0
  9 16  1  0  0  0  0
 10 11  1  0  0  0  0
 11 17  1  0  0  0  0
 11 18  1  0  0  0  0
 11 19  1  0  0  0  0
 12 20  1  0  0  0  0
 12 21  1  0  0  0  0
 12 22  1  0  0  0  0
 13 23  1  0  0  0  0
 13 24  1  0  0  0  0
 13 25  1  0  0  0  0
M  END
> <PUBCHEM_COMPOUND_CID>
14328

> <PUBCHEM_CONFORMER_RMSD>
0.6

> <PUBCHEM_CONFORMER_DIVERSEORDER>
1
8
11
10
6
9
12
5
7
4
2
3

> <PUBCHEM_MMFF94_PARTIAL_CHARGES>
16
1 -0.36
10 0.42
11 0.06
12 0.28
13 0.28
14 0.15
15 0.15
16 0.15
2 -0.36
3 -0.57
4 0.09
5 0.08
6 0.08
7 -0.15
8 -0.15
9 -0.15

> <PUBCHEM_EFFECTIVE_ROTOR_COUNT>
3

> <PUBCHEM_PHARMACOPHORE_FEATURES>
4
1 1 acceptor
1 2 acceptor
1 3 acceptor
6 4 5 6 7 8 9 rings

> <PUBCHEM_HEAVY_ATOM_COUNT>
13

> <PUBCHEM_ATOM_DEF_STEREO_COUNT>
0

> <PUBCHEM_ATOM_UDEF_STEREO_COUNT>
0

> <PUBCHEM_BOND_DEF_STEREO_COUNT>
0

> <PUBCHEM_BOND_UDEF_STEREO_COUNT>
0

> <PUBCHEM_ISOTOPIC_ATOM_COUNT>
0

> <PUBCHEM_COMPONENT_COUNT>
1

> <PUBCHEM_CACTVS_TAUTO_COUNT>
2

> <PUBCHEM_CONFORMER_ID>
000037F800000001

> <PUBCHEM_MMFF94_ENERGY>
55.6475

> <PUBCHEM_FEATURE_SELFOVERLAP>
20.302

> <PUBCHEM_SHAPE_FINGERPRINT>
11206711 2 18413390938389800741
12032990 46 18269832017435936051
12932764 1 17385448704567621926
13380535 21 18193545903271577331
13380535 76 18267305528603703219
14325111 11 18412543232405419052
14614273 12 18130514140372979989
14897335 6 18195531617234927277
16945 1 18339636742075827626
193761 8 18123753324809676875
20510252 161 18335419054142261152
20525323 117 18410571807808805907
21501502 16 18339643459510154114
21524375 3 18122058977481061873
2334 1 18341048600947247522
23402539 116 18336557031417986294
23402655 69 18269295563889631751
23552423 10 18199468929608725634
23559900 14 18339364038129171616
25610 137 18341609257382864495
2748010 2 18268425913661917526
353137 74 18272095967606041355
5084963 1 18333449837491075842
6333449 129 18337955696086679493

> <PUBCHEM_SHAPE_MULTIPOLES>
249.93
5.35
2.18
0.77
2.21
0.96
-0.03
-0.09
-0.85
-1.17
0.33
-0.29
0.02
-0.7

> <PUBCHEM_SHAPE_SELFOVERLAP>
514.571

> <PUBCHEM_SHAPE_VOLUME>
145.3

> <PUBCHEM_COORDINATE_TYPE>
2
5
10

$$$$

