10549
  -OEChem-06261204403D

 18 17  0     0  0  0  0  0  0999 V2000
   -0.3525   -0.0057   -0.1786 S   0  0  0  0  0  0  0  0  0  0  0  0
   -0.4735    0.6008   -1.4932 O   0  0  0  0  0  0  0  0  0  0  0  0
   -0.1355   -1.4354   -0.0400 O   0  0  0  0  0  0  0  0  0  0  0  0
    2.6121   -0.7779    0.0708 O   0  0  0  0  0  0  0  0  0  0  0  0
    0.9291    0.8342    0.7001 C   0  0  0  0  0  0  0  0  0  0  0  0
   -1.8175    0.4070    0.7404 C   0  0  0  0  0  0  0  0  0  0  0  0
    2.2869    0.6062    0.0648 C   0  0  0  0  0  0  0  0  0  0  0  0
   -3.0491   -0.2290    0.1356 C   0  0  0  0  0  0  0  0  0  0  0  0
    0.6851    1.9001    0.7140 H   0  0  0  0  0  0  0  0  0  0  0  0
    0.9164    0.4428    1.7224 H   0  0  0  0  0  0  0  0  0  0  0  0
   -1.6724    0.0590    1.7674 H   0  0  0  0  0  0  0  0  0  0  0  0
   -1.9109    1.4970    0.7412 H   0  0  0  0  0  0  0  0  0  0  0  0
    2.2991    0.9565   -0.9722 H   0  0  0  0  0  0  0  0  0  0  0  0
    3.0584    1.1436    0.6249 H   0  0  0  0  0  0  0  0  0  0  0  0
   -3.9383    0.0370    0.7152 H   0  0  0  0  0  0  0  0  0  0  0  0
   -3.2022    0.1059   -0.8954 H   0  0  0  0  0  0  0  0  0  0  0  0
   -2.9655   -1.3205    0.1225 H   0  0  0  0  0  0  0  0  0  0  0  0
    3.4884   -0.8668   -0.3411 H   0  0  0  0  0  0  0  0  0  0  0  0
  1  2  2  0  0  0  0
  1  3  2  0  0  0  0
  1  5  1  0  0  0  0
  1  6  1  0  0  0  0
  4  7  1  0  0  0  0
  4 18  1  0  0  0  0
  5  7  1  0  0  0  0
  5  9  1  0  0  0  0
  5 10  1  0  0  0  0
  6  8  1  0  0  0  0
  6 11  1  0  0  0  0
  6 12  1  0  0  0  0
  7 13  1  0  0  0  0
  7 14  1  0  0  0  0
  8 15  1  0  0  0  0
  8 16  1  0  0  0  0
  8 17  1  0  0  0  0
M  END
> <PUBCHEM_COMPOUND_CID>
10549

> <PUBCHEM_CONFORMER_RMSD>
0.6

> <PUBCHEM_CONFORMER_DIVERSEORDER>
1
14
7
21
15
10
19
3
12
20
17
9
18
16
11
2
5
8
6
4
13

> <PUBCHEM_MMFF94_PARTIAL_CHARGES>
8
1 1.09
18 0.4
2 -0.65
3 -0.65
4 -0.68
5 0.11
6 0.11
7 0.28

> <PUBCHEM_EFFECTIVE_ROTOR_COUNT>
3

> <PUBCHEM_PHARMACOPHORE_FEATURES>
4
1 2 acceptor
1 3 acceptor
1 4 acceptor
1 4 donor

> <PUBCHEM_HEAVY_ATOM_COUNT>
8

> <PUBCHEM_ATOM_DEF_STEREO_COUNT>
0

> <PUBCHEM_ATOM_UDEF_STEREO_COUNT>
0

> <PUBCHEM_BOND_DEF_STEREO_COUNT>
0

> <PUBCHEM_BOND_UDEF_STEREO_COUNT>
0

> <PUBCHEM_ISOTOPIC_ATOM_COUNT>
0

> <PUBCHEM_COMPONENT_COUNT>
1

> <PUBCHEM_CACTVS_TAUTO_COUNT>
1

> <PUBCHEM_CONFORMER_ID>
0000293500000001

> <PUBCHEM_MMFF94_ENERGY>
1.0672

> <PUBCHEM_FEATURE_SELFOVERLAP>
20.318

> <PUBCHEM_SHAPE_FINGERPRINT>
10219947 1 18060132129152030105
10857977 72 16916789535154560297
11062470 55 12823297892447504977
12897270 3 10952054450445645872
14128692 85 13110092276295900961
14325111 11 18333730200055426097
14390081 3 5689603757899521747
16714656 1 17775567532935251936
21040471 1 18261391100844076120
23235685 24 18260553303401929208
24536 1 17899158043293362448
29004967 10 16702300126717472344
5084963 1 18343021094653120377
5460574 1 11887959838845965089

> <PUBCHEM_SHAPE_MULTIPOLES>
150.88
3.85
1.07
0.95
0.5
0.15
-0.37
0.07
0.53
-0.24
0.17
0.14
-0.07
-0.09

> <PUBCHEM_SHAPE_SELFOVERLAP>
261.94

> <PUBCHEM_SHAPE_VOLUME>
100.1

> <PUBCHEM_COORDINATE_TYPE>
2
5
10

$$$$

