9183
  -OEChem-07051213132D

 35 39  0     0  0  0  0  0  0999 V2000
    4.6501   -0.5000    0.0000 N   0  0  0  0  0  0  0  0  0  0  0  0
    3.7841    1.0000    0.0000 C   0  0  0  0  0  0  0  0  0  0  0  0
    3.7841   -1.0000    0.0000 C   0  0  0  0  0  0  0  0  0  0  0  0
    2.9180   -0.5000    0.0000 C   0  0  0  0  0  0  0  0  0  0  0  0
    3.7680    2.0415    0.0000 C   0  0  0  0  0  0  0  0  0  0  0  0
    4.6501    0.5000    0.0000 C   0  0  0  0  0  0  0  0  0  0  0  0
    3.8001   -2.0415    0.0000 C   0  0  0  0  0  0  0  0  0  0  0  0
    2.9180    0.5000    0.0000 C   0  0  0  0  0  0  0  0  0  0  0  0
    4.6660    2.5693    0.0000 C   0  0  0  0  0  0  0  0  0  0  0  0
    2.9021   -2.5693    0.0000 C   0  0  0  0  0  0  0  0  0  0  0  0
    2.0080   -1.0068    0.0000 C   0  0  0  0  0  0  0  0  0  0  0  0
    5.5601    1.0068    0.0000 C   0  0  0  0  0  0  0  0  0  0  0  0
    2.0000   -2.0484    0.0000 C   0  0  0  0  0  0  0  0  0  0  0  0
    5.5681    2.0484    0.0000 C   0  0  0  0  0  0  0  0  0  0  0  0
    2.8161    2.5621    0.0000 C   0  0  0  0  0  0  0  0  0  0  0  0
    4.7520   -2.5621    0.0000 C   0  0  0  0  0  0  0  0  0  0  0  0
    4.6744    3.6542    0.0000 C   0  0  0  0  0  0  0  0  0  0  0  0
    2.8937   -3.6542    0.0000 C   0  0  0  0  0  0  0  0  0  0  0  0
    2.7993    3.6470    0.0000 C   0  0  0  0  0  0  0  0  0  0  0  0
    4.7688   -3.6470    0.0000 C   0  0  0  0  0  0  0  0  0  0  0  0
    3.7348    4.1967    0.0000 C   0  0  0  0  0  0  0  0  0  0  0  0
    3.8334   -4.1967    0.0000 C   0  0  0  0  0  0  0  0  0  0  0  0
    2.3811    0.8100    0.0000 H   0  0  0  0  0  0  0  0  0  0  0  0
    1.4747   -0.6907    0.0000 H   0  0  0  0  0  0  0  0  0  0  0  0
    6.0934    0.6907    0.0000 H   0  0  0  0  0  0  0  0  0  0  0  0
    1.4619   -2.3564    0.0000 H   0  0  0  0  0  0  0  0  0  0  0  0
    6.1062    2.3564    0.0000 H   0  0  0  0  0  0  0  0  0  0  0  0
    2.2852    2.2418    0.0000 H   0  0  0  0  0  0  0  0  0  0  0  0
    5.2829   -2.2418    0.0000 H   0  0  0  0  0  0  0  0  0  0  0  0
    5.2125    3.9622    0.0000 H   0  0  0  0  0  0  0  0  0  0  0  0
    2.3556   -3.9622    0.0000 H   0  0  0  0  0  0  0  0  0  0  0  0
    2.2589    3.9508    0.0000 H   0  0  0  0  0  0  0  0  0  0  0  0
    5.3093   -3.9508    0.0000 H   0  0  0  0  0  0  0  0  0  0  0  0
    3.7324    4.8167    0.0000 H   0  0  0  0  0  0  0  0  0  0  0  0
    3.8357   -4.8167    0.0000 H   0  0  0  0  0  0  0  0  0  0  0  0
  1  3  2  0  0  0  0
  1  6  1  0  0  0  0
  2  5  1  0  0  0  0
  2  6  2  0  0  0  0
  2  8  1  0  0  0  0
  3  4  1  0  0  0  0
  3  7  1  0  0  0  0
  4  8  2  0  0  0  0
  4 11  1  0  0  0  0
  5  9  1  0  0  0  0
  5 15  2  0  0  0  0
  6 12  1  0  0  0  0
  7 10  1  0  0  0  0
  7 16  2  0  0  0  0
  8 23  1  0  0  0  0
  9 14  1  0  0  0  0
  9 17  2  0  0  0  0
 10 13  1  0  0  0  0
 10 18  2  0  0  0  0
 11 13  2  0  0  0  0
 11 24  1  0  0  0  0
 12 14  2  0  0  0  0
 12 25  1  0  0  0  0
 13 26  1  0  0  0  0
 14 27  1  0  0  0  0
 15 19  1  0  0  0  0
 15 28  1  0  0  0  0
 16 20  1  0  0  0  0
 16 29  1  0  0  0  0
 17 21  1  0  0  0  0
 17 30  1  0  0  0  0
 18 22  1  0  0  0  0
 18 31  1  0  0  0  0
 19 21  2  0  0  0  0
 19 32  1  0  0  0  0
 20 22  2  0  0  0  0
 20 33  1  0  0  0  0
 21 34  1  0  0  0  0
 22 35  1  0  0  0  0
M  END
> <PUBCHEM_COMPOUND_CID>
9183

> <PUBCHEM_COMPOUND_CANONICALIZED>
1

> <PUBCHEM_CACTVS_COMPLEXITY>
405

> <PUBCHEM_CACTVS_HBOND_ACCEPTOR>
1

> <PUBCHEM_CACTVS_HBOND_DONOR>
0

> <PUBCHEM_CACTVS_ROTATABLE_BOND>
0

> <PUBCHEM_CACTVS_SUBSKEYS>
AAADccB6AAAAAAAAAAAAAAAAAAAAAAAAAAA8YMGCAAAAAADx/AAAHAAAAAAADAiBHgAwwPIIEACgAyRiRACCgCAhAiAImCAwZJgIIOLAkZGEIAhggADIyAcQgMAOyAACQAASAACQAASAACQAAAAAAAAAAA==

> <PUBCHEM_IUPAC_INCHI>
InChI=1S/C21H13N/c1-3-7-17-14(5-1)11-12-20-19(17)13-16-10-9-15-6-2-4-8-18(15)21(16)22-20/h1-13H

> <PUBCHEM_IUPAC_INCHIKEY>
JNCSIWAONQTVCF-UHFFFAOYSA-N

> <PUBCHEM_XLOGP3_AA>
6

> <PUBCHEM_EXACT_MASS>
279.104799

> <PUBCHEM_MOLECULAR_FORMULA>
C21H13N

> <PUBCHEM_MOLECULAR_WEIGHT>
279.33462

> <PUBCHEM_OPENEYE_CAN_SMILES>
C1=CC=C2C(=C1)C=CC3=C2C=C4C=CC5=CC=CC=C5C4=N3

> <PUBCHEM_OPENEYE_ISO_SMILES>
C1=CC=C2C(=C1)C=CC3=C2C=C4C=CC5=CC=CC=C5C4=N3

> <PUBCHEM_CACTVS_TPSA>
12.9

> <PUBCHEM_MONOISOTOPIC_WEIGHT>
279.104799

> <PUBCHEM_TOTAL_CHARGE>
0

> <PUBCHEM_HEAVY_ATOM_COUNT>
22

> <PUBCHEM_ATOM_DEF_STEREO_COUNT>
0

> <PUBCHEM_ATOM_UDEF_STEREO_COUNT>
0

> <PUBCHEM_BOND_DEF_STEREO_COUNT>
0

> <PUBCHEM_BOND_UDEF_STEREO_COUNT>
0

> <PUBCHEM_ISOTOPIC_ATOM_COUNT>
0

> <PUBCHEM_COMPONENT_COUNT>
1

> <PUBCHEM_CACTVS_TAUTO_COUNT>
1

> <PUBCHEM_COORDINATE_TYPE>
1
5
255

> <PUBCHEM_BONDANNOTATIONS>
1  3  8
1  6  8
10  13  8
10  18  8
11  13  8
12  14  8
15  19  8
16  20  8
17  21  8
18  22  8
19  21  8
2  5  8
2  6  8
2  8  8
20  22  8
3  4  8
3  7  8
4  11  8
4  8  8
5  15  8
5  9  8
6  12  8
7  10  8
7  16  8
9  14  8
9  17  8

$$$$

