11748655
  -OEChem-07051213153D

 44 44  0     0  0  0  0  0  0999 V2000
   -2.0018   -0.8261    0.8930 O   0  0  0  0  0  0  0  0  0  0  0  0
   -4.3146    1.1124   -1.9752 O   0  0  0  0  0  0  0  0  0  0  0  0
   -3.0398    0.3259    2.5411 O   0  0  0  0  0  0  0  0  0  0  0  0
   -4.9592    2.0917    1.8881 O   0  0  0  0  0  0  0  0  0  0  0  0
    2.3081   -3.3709    0.3527 C   0  0  0  0  0  0  0  0  0  0  0  0
    2.8776   -2.0838   -0.2578 C   0  0  0  0  0  0  0  0  0  0  0  0
    0.9199   -3.7269   -0.1904 C   0  0  0  0  0  0  0  0  0  0  0  0
    4.2690   -1.7314    0.2794 C   0  0  0  0  0  0  0  0  0  0  0  0
   -0.1207   -2.6929    0.1324 C   0  0  0  0  0  0  0  0  0  0  0  0
    4.8415   -0.4883   -0.3400 C   0  0  0  0  0  0  0  0  0  0  0  0
   -0.8646   -2.0745   -0.7952 C   0  0  0  0  0  0  0  0  0  0  0  0
   -1.8612   -1.0905   -0.4831 C   0  0  0  0  0  0  0  0  0  0  0  0
    5.1161    0.6271    0.3527 C   0  0  0  0  0  0  0  0  0  0  0  0
   -2.6067   -0.4640   -1.3979 C   0  0  0  0  0  0  0  0  0  0  0  0
   -3.5805    0.5074   -0.9760 C   0  0  0  0  0  0  0  0  0  0  0  0
   -3.7509    0.7938    0.3283 C   0  0  0  0  0  0  0  0  0  0  0  0
   -2.9142    0.0898    1.3431 C   0  0  0  0  0  0  0  0  0  0  0  0
    5.6646    1.8190   -0.2530 C   0  0  0  0  0  0  0  0  0  0  0  0
   -4.7574    1.7898    0.7210 C   0  0  0  0  0  0  0  0  0  0  0  0
    5.9388    2.9339    0.4398 C   0  0  0  0  0  0  0  0  0  0  0  0
   -3.6714    2.2872   -2.4295 C   0  0  0  0  0  0  0  0  0  0  0  0
    6.5074    4.1714   -0.1732 C   0  0  0  0  0  0  0  0  0  0  0  0
    2.9912   -4.2029    0.1420 H   0  0  0  0  0  0  0  0  0  0  0  0
    2.2620   -3.2678    1.4441 H   0  0  0  0  0  0  0  0  0  0  0  0
    2.2024   -1.2435   -0.0549 H   0  0  0  0  0  0  0  0  0  0  0  0
    2.9247   -2.1947   -1.3488 H   0  0  0  0  0  0  0  0  0  0  0  0
    0.9856   -3.8930   -1.2727 H   0  0  0  0  0  0  0  0  0  0  0  0
    0.6036   -4.6785    0.2538 H   0  0  0  0  0  0  0  0  0  0  0  0
    4.9577   -2.5607    0.0769 H   0  0  0  0  0  0  0  0  0  0  0  0
    4.2181   -1.6292    1.3706 H   0  0  0  0  0  0  0  0  0  0  0  0
   -0.2502   -2.4795    1.1906 H   0  0  0  0  0  0  0  0  0  0  0  0
    5.0357   -0.5257   -1.4097 H   0  0  0  0  0  0  0  0  0  0  0  0
   -0.7158   -2.3156   -1.8449 H   0  0  0  0  0  0  0  0  0  0  0  0
    4.9202    0.6556    1.4216 H   0  0  0  0  0  0  0  0  0  0  0  0
   -2.5031   -0.6670   -2.4590 H   0  0  0  0  0  0  0  0  0  0  0  0
    5.8583    1.7915   -1.3225 H   0  0  0  0  0  0  0  0  0  0  0  0
   -5.3462    2.2529   -0.0861 H   0  0  0  0  0  0  0  0  0  0  0  0
    5.7488    2.9711    1.5099 H   0  0  0  0  0  0  0  0  0  0  0  0
   -2.7114    2.0547   -2.9038 H   0  0  0  0  0  0  0  0  0  0  0  0
   -4.3117    2.7541   -3.1841 H   0  0  0  0  0  0  0  0  0  0  0  0
   -3.5213    3.0132   -1.6229 H   0  0  0  0  0  0  0  0  0  0  0  0
    5.8248    5.0121   -0.0161 H   0  0  0  0  0  0  0  0  0  0  0  0
    7.4653    4.4135    0.2971 H   0  0  0  0  0  0  0  0  0  0  0  0
    6.6734    4.0634   -1.2498 H   0  0  0  0  0  0  0  0  0  0  0  0
  1 12  1  0  0  0  0
  1 17  1  0  0  0  0
  2 15  1  0  0  0  0
  2 21  1  0  0  0  0
  3 17  2  0  0  0  0
  4 19  2  0  0  0  0
  5  6  1  0  0  0  0
  5  7  1  0  0  0  0
  5 23  1  0  0  0  0
  5 24  1  0  0  0  0
  6  8  1  0  0  0  0
  6 25  1  0  0  0  0
  6 26  1  0  0  0  0
  7  9  1  0  0  0  0
  7 27  1  0  0  0  0
  7 28  1  0  0  0  0
  8 10  1  0  0  0  0
  8 29  1  0  0  0  0
  8 30  1  0  0  0  0
  9 11  2  0  0  0  0
  9 31  1  0  0  0  0
 10 13  2  0  0  0  0
 10 32  1  0  0  0  0
 11 12  1  0  0  0  0
 11 33  1  0  0  0  0
 12 14  2  0  0  0  0
 13 18  1  0  0  0  0
 13 34  1  0  0  0  0
 14 15  1  0  0  0  0
 14 35  1  0  0  0  0
 15 16  2  0  0  0  0
 16 17  1  0  0  0  0
 16 19  1  0  0  0  0
 18 20  2  0  0  0  0
 18 36  1  0  0  0  0
 19 37  1  0  0  0  0
 20 22  1  0  0  0  0
 20 38  1  0  0  0  0
 21 39  1  0  0  0  0
 21 40  1  0  0  0  0
 21 41  1  0  0  0  0
 22 42  1  0  0  0  0
 22 43  1  0  0  0  0
 22 44  1  0  0  0  0
M  END
> <PUBCHEM_COMPOUND_CID>
11748655

> <PUBCHEM_CONFORMER_RMSD>
0.8

> <PUBCHEM_CONFORMER_DIVERSEORDER>
3
122
146
125
167
34
172
48
181
139
182
131
88
153
60
170
173
130
120
71
194
92
40
37
183
64
90
133
193
141
123
196
165
219
112
99
158
62
50
105
4
142
214
43
111
176
98
15
166
163
7
27
79
108
157
13
230
199
190
31
33
198
102
148
209
155
103
110
58
162
19
54
216
200
126
81
175
128
72
97
86
192
9
65
8
207
89
218
38
55
222
26
22
195
151
95
96
117
161
124
93
138
154
115
23
12
116
101
73
74
174
197
233
28
143
180
160
168
191
83
208
32
77
145
46
109
24
107
144
189
16
66
211
67
80
220
57
201
53
224
229
75
25
20
87
152
227
1
203
221
42
76
135
121
70
106
188
119
185
100
204
82
35
18
202
184
21
213
178
44
127
228
137
104
14
134
140
212
171
85
232
39
52
29
226
177
11
47
215
59
217
91
187
234
156
132
5
118
150
225
30
179
6
69
205
147
114
223
56
164
84
45
63
149
210
2
136
36
231
68
206
129
61
17
78
10
159
94
41
49
186
113
51
169

> <PUBCHEM_MMFF94_PARTIAL_CHARGES>
28
1 -0.23
10 -0.29
11 -0.15
12 0.08
13 -0.15
14 -0.15
15 0.08
16 0.03
17 0.71
18 -0.15
19 0.5
2 -0.36
20 -0.29
21 0.28
22 0.14
3 -0.57
31 0.15
32 0.15
33 0.15
34 0.15
35 0.15
36 0.15
37 0.06
38 0.15
4 -0.57
7 0.14
8 0.14
9 -0.29

> <PUBCHEM_EFFECTIVE_ROTOR_COUNT>
9

> <PUBCHEM_PHARMACOPHORE_FEATURES>
8
1 16 anion
1 2 acceptor
1 22 hydrophobe
1 3 acceptor
1 4 acceptor
3 5 7 9 hydrophobe
3 6 8 10 hydrophobe
6 1 12 14 15 16 17 rings

> <PUBCHEM_HEAVY_ATOM_COUNT>
22

> <PUBCHEM_ATOM_DEF_STEREO_COUNT>
0

> <PUBCHEM_ATOM_UDEF_STEREO_COUNT>
0

> <PUBCHEM_BOND_DEF_STEREO_COUNT>
3

> <PUBCHEM_BOND_UDEF_STEREO_COUNT>
0

> <PUBCHEM_ISOTOPIC_ATOM_COUNT>
0

> <PUBCHEM_COMPONENT_COUNT>
1

> <PUBCHEM_CACTVS_TAUTO_COUNT>
1

> <PUBCHEM_CONFORMER_ID>
00B3452F00000003

> <PUBCHEM_MMFF94_ENERGY>
40.8818

> <PUBCHEM_FEATURE_SELFOVERLAP>
40.602

> <PUBCHEM_SHAPE_FINGERPRINT>
10319926 262 16271077292948753586
10794284 68 17532645742839280567
10928967 22 10519982699527008200
10937287 8 18336830801909695990
11112241 14 18343302574067255485
133061 13 17630633273622964772
13911852 28 9583520914998260394
14251764 75 18408880724898000464
14848178 96 18335144176868319634
14950920 106 14979397253918610244
15142526 21 18342170085765653130
15274700 21 18120363260000000803
15342168 16 18261953080272675071
1768 210 18263378996708997476
20238998 120 17327740596098195538
21388113 180 18342465854641061220
21401589 2 18272932679002140322
22122407 14 18120358015860288825
2748736 6 18335148549182158312
283562 15 18123757460874680842
3472631 163 18114177583432750318
474 4 18262520428045962155
6034566 193 18337669724500645666
88748 71 8790887410714642798

> <PUBCHEM_SHAPE_MULTIPOLES>
429.27
15.66
4.88
1.72
19.02
0.22
-0.06
-19.87
-0.89
7.34
0.31
-3.75
-1.15
0.01

> <PUBCHEM_SHAPE_SELFOVERLAP>
861.761

> <PUBCHEM_SHAPE_VOLUME>
250.2

> <PUBCHEM_COORDINATE_TYPE>
2
5
10

$$$$

