448580
  -OEChem-07051212473D

 25 24  0     1  0  0  0  0  0999 V2000
    3.2142   -1.3059    0.5680 S   0  0  0  0  0  0  0  0  0  0  0  0
   -0.5826    2.1631   -1.3081 O   0  0  0  0  0  0  0  0  0  0  0  0
    0.4256    2.8197    0.6064 O   0  0  0  0  0  0  0  0  0  0  0  0
   -2.6209   -1.2886    1.1796 O   0  0  0  0  0  0  0  0  0  0  0  0
   -1.2874   -0.2024   -0.3901 N   0  0  0  0  0  0  0  0  0  0  0  0
   -0.5019    0.5848    0.5254 C   0  0  1  0  0  0  0  0  0  0  0  0
    0.7414   -0.1771    1.0045 C   0  0  0  0  0  0  0  0  0  0  0  0
    1.7887   -0.3916   -0.0907 C   0  0  0  0  0  0  0  0  0  0  0  0
   -0.1528    1.9533   -0.0406 C   0  0  0  0  0  0  0  0  0  0  0  0
   -2.2845   -1.0758    0.0177 C   0  0  0  0  0  0  0  0  0  0  0  0
   -2.9648   -1.7520   -1.1425 C   0  0  0  0  0  0  0  0  0  0  0  0
    4.2251   -1.3275   -0.9297 C   0  0  0  0  0  0  0  0  0  0  0  0
   -1.1398    0.7816    1.3970 H   0  0  0  0  0  0  0  0  0  0  0  0
    0.4314   -1.1460    1.4176 H   0  0  0  0  0  0  0  0  0  0  0  0
    1.1978    0.3892    1.8275 H   0  0  0  0  0  0  0  0  0  0  0  0
    1.3599   -0.9630   -0.9200 H   0  0  0  0  0  0  0  0  0  0  0  0
    2.1434    0.5691   -0.4764 H   0  0  0  0  0  0  0  0  0  0  0  0
   -1.0897   -0.1137   -1.3829 H   0  0  0  0  0  0  0  0  0  0  0  0
   -3.5978   -2.5647   -0.7758 H   0  0  0  0  0  0  0  0  0  0  0  0
   -3.5839   -1.0256   -1.6760 H   0  0  0  0  0  0  0  0  0  0  0  0
   -2.2205   -2.1694   -1.8268 H   0  0  0  0  0  0  0  0  0  0  0  0
    4.4666   -0.3082   -1.2420 H   0  0  0  0  0  0  0  0  0  0  0  0
    3.7003   -1.8455   -1.7367 H   0  0  0  0  0  0  0  0  0  0  0  0
    5.1589   -1.8583   -0.7264 H   0  0  0  0  0  0  0  0  0  0  0  0
   -0.3595    3.0637   -1.6266 H   0  0  0  0  0  0  0  0  0  0  0  0
  1  8  1  0  0  0  0
  1 12  1  0  0  0  0
  2  9  1  0  0  0  0
  2 25  1  0  0  0  0
  3  9  2  0  0  0  0
  4 10  2  0  0  0  0
  5  6  1  0  0  0  0
  5 10  1  0  0  0  0
  5 18  1  0  0  0  0
  6  7  1  0  0  0  0
  6  9  1  0  0  0  0
  6 13  1  0  0  0  0
  7  8  1  0  0  0  0
  7 14  1  0  0  0  0
  7 15  1  0  0  0  0
  8 16  1  0  0  0  0
  8 17  1  0  0  0  0
 10 11  1  0  0  0  0
 11 19  1  0  0  0  0
 11 20  1  0  0  0  0
 11 21  1  0  0  0  0
 12 22  1  0  0  0  0
 12 23  1  0  0  0  0
 12 24  1  0  0  0  0
M  END
> <PUBCHEM_COMPOUND_CID>
448580

> <PUBCHEM_CONFORMER_RMSD>
0.6

> <PUBCHEM_CONFORMER_DIVERSEORDER>
1
67
83
51
92
59
68
65
81
79
33
53
28
87
3
12
89
10
86
48
91
61
40
14
38
78
13
82
88
66
90
24
26
9
47
21
84
37
18
8
27
75
43
5
17
32
20
69
42
72
76
85
34
60
49
11
55
50
52
16
7
22
77
29
70
80
36
63
35
74
23
39
71
25
19
30
58
73
62
15
56
45
46
41
54
64
44
6
4
57
31
2

> <PUBCHEM_MMFF94_PARTIAL_CHARGES>
13
1 -0.46
10 0.57
11 0.06
12 0.23
18 0.37
2 -0.65
25 0.5
3 -0.57
4 -0.57
5 -0.73
6 0.36
8 0.23
9 0.66

> <PUBCHEM_EFFECTIVE_ROTOR_COUNT>
6

> <PUBCHEM_PHARMACOPHORE_FEATURES>
6
1 12 hydrophobe
1 2 acceptor
1 3 acceptor
1 4 acceptor
1 5 donor
3 2 3 9 anion

> <PUBCHEM_HEAVY_ATOM_COUNT>
12

> <PUBCHEM_ATOM_DEF_STEREO_COUNT>
1

> <PUBCHEM_ATOM_UDEF_STEREO_COUNT>
0

> <PUBCHEM_BOND_DEF_STEREO_COUNT>
0

> <PUBCHEM_BOND_UDEF_STEREO_COUNT>
0

> <PUBCHEM_ISOTOPIC_ATOM_COUNT>
0

> <PUBCHEM_COMPONENT_COUNT>
1

> <PUBCHEM_CACTVS_TAUTO_COUNT>
2

> <PUBCHEM_CONFORMER_ID>
0006D84400000001

> <PUBCHEM_MMFF94_ENERGY>
17.9303

> <PUBCHEM_FEATURE_SELFOVERLAP>
30.507

> <PUBCHEM_SHAPE_FINGERPRINT>
1 1 17618789054731163681
12138202 97 17979643660187981238
12932764 1 18196366142750771530
18534176 82 18046633570916234324
20281407 28 18186805802815623674
20361792 2 18409169883054485735
20645477 70 17978249162033976831
20653085 51 13542186138165341826
20711985 327 18187641366974750094
20711985 344 18269570496729037545
20871998 184 18190735534386943458
20871998 22 18336274444044550930
20871999 31 18270971244646877815
21061003 4 18411411787274005779
21524375 3 17264129957337774032
228727 97 17845931930991284034
23557571 272 18335714887785304120
23598294 1 18267584796072894730
449060 23 18187080659179224294
81228 2 18268716184678896648

> <PUBCHEM_SHAPE_MULTIPOLES>
228.21
5.51
2.61
1.17
4.81
2.02
-0.09
-5.29
-1.2
-1.01
-0.38
-0.14
-0.13
0.13

> <PUBCHEM_SHAPE_SELFOVERLAP>
415.794

> <PUBCHEM_SHAPE_VOLUME>
147

> <PUBCHEM_COORDINATE_TYPE>
2
5
10

$$$$

