445888
  -OEChem-07051212493D

 62 64  0     1  0  0  0  0  0999 V2000
   -1.8335    2.1799   -1.4826 P   0  0  2  0  0  0  0  0  0  0  0  0
   -2.0040    0.1381    0.5563 O   0  0  0  0  0  0  0  0  0  0  0  0
    1.7311    1.2636    0.7832 O   0  0  0  0  0  0  0  0  0  0  0  0
   -3.1485    1.7894   -0.6350 O   0  0  0  0  0  0  0  0  0  0  0  0
   -1.3015   -2.2438   -0.9126 O   0  0  0  0  0  0  0  0  0  0  0  0
   -3.9399   -2.8917   -1.5439 O   0  0  0  0  0  0  0  0  0  0  0  0
   -0.6307    2.2270   -0.3991 O   0  0  0  0  0  0  0  0  0  0  0  0
    3.6480    3.5301    1.2059 O   0  0  0  0  0  0  0  0  0  0  0  0
    5.0582    1.8530   -0.4179 O   0  0  0  0  0  0  0  0  0  0  0  0
   -0.4921   -2.6520    2.3230 O   0  0  0  0  0  0  0  0  0  0  0  0
   -5.4304    1.2169    0.4434 O   0  0  0  0  0  0  0  0  0  0  0  0
   -2.0460    3.7392   -1.8616 O   0  0  0  0  0  0  0  0  0  0  0  0
    1.0371   -0.5237    3.3047 O   0  0  0  0  0  0  0  0  0  0  0  0
   -4.1516    0.5504    2.2087 O   0  0  0  0  0  0  0  0  0  0  0  0
   -1.5742    1.2916   -2.6656 O   0  0  0  0  0  0  0  0  0  0  0  0
    4.1133   -1.6278    1.4224 O   0  0  0  0  0  0  0  0  0  0  0  0
    2.9070   -0.5051   -0.1932 N   0  0  0  0  0  0  0  0  0  0  0  0
    3.3111   -2.8822   -0.2906 N   0  0  0  0  0  0  0  0  0  0  0  0
    2.4878   -4.1616   -2.0495 N   0  0  0  0  0  0  0  0  0  0  0  0
   -1.9646   -1.1697    1.1446 C   0  0  1  0  0  0  0  0  0  0  0  0
   -2.3038   -2.2447    0.1057 C   0  0  1  0  0  0  0  0  0  0  0  0
   -3.6691   -1.9495   -0.5135 C   0  0  1  0  0  0  0  0  0  0  0  0
   -3.2441    0.4953   -0.0335 C   0  0  1  0  0  0  0  0  0  0  0  0
   -3.7067   -0.5303   -1.0732 C   0  0  0  0  0  0  0  0  0  0  0  0
    1.6040    2.6377    0.3565 C   0  0  1  0  0  0  0  0  0  0  0  0
    3.0121    3.0974    0.0035 C   0  0  2  0  0  0  0  0  0  0  0  0
    3.6479    1.8171   -0.4953 C   0  0  2  0  0  0  0  0  0  0  0  0
    3.0379    0.7801    0.4319 C   0  0  1  0  0  0  0  0  0  0  0  0
   -0.5710   -1.3556    1.7351 C   0  0  1  0  0  0  0  0  0  0  0  0
    0.6429    2.6810   -0.8239 C   0  0  0  0  0  0  0  0  0  0  0  0
   -4.2934    0.7451    1.0106 C   0  0  0  0  0  0  0  0  0  0  0  0
   -0.2835   -0.3202    2.8129 C   0  0  0  0  0  0  0  0  0  0  0  0
    2.2006   -0.5982   -1.3825 C   0  0  0  0  0  0  0  0  0  0  0  0
    3.4778   -1.6757    0.3676 C   0  0  0  0  0  0  0  0  0  0  0  0
    2.0301   -1.7485   -2.0313 C   0  0  0  0  0  0  0  0  0  0  0  0
    2.6417   -2.9527   -1.4112 C   0  0  0  0  0  0  0  0  0  0  0  0
   -2.6920   -1.2477    1.9598 H   0  0  0  0  0  0  0  0  0  0  0  0
   -2.3061   -3.2477    0.5451 H   0  0  0  0  0  0  0  0  0  0  0  0
   -4.4462   -2.0671    0.2513 H   0  0  0  0  0  0  0  0  0  0  0  0
   -4.7118   -0.3026   -1.4505 H   0  0  0  0  0  0  0  0  0  0  0  0
   -3.0778   -0.4914   -1.9683 H   0  0  0  0  0  0  0  0  0  0  0  0
    1.1801    3.1905    1.2025 H   0  0  0  0  0  0  0  0  0  0  0  0
    3.0599    3.9185   -0.7173 H   0  0  0  0  0  0  0  0  0  0  0  0
    3.3832    1.6854   -1.5484 H   0  0  0  0  0  0  0  0  0  0  0  0
    3.6174    0.6951    1.3580 H   0  0  0  0  0  0  0  0  0  0  0  0
    0.2015   -1.2927    0.9617 H   0  0  0  0  0  0  0  0  0  0  0  0
    0.9665    2.0883   -1.6766 H   0  0  0  0  0  0  0  0  0  0  0  0
    0.5440    3.7172   -1.1655 H   0  0  0  0  0  0  0  0  0  0  0  0
   -0.3560    0.7022    2.4318 H   0  0  0  0  0  0  0  0  0  0  0  0
   -0.9694   -0.4366    3.6587 H   0  0  0  0  0  0  0  0  0  0  0  0
   -1.1518   -1.3259   -1.1952 H   0  0  0  0  0  0  0  0  0  0  0  0
   -4.8096   -2.6728   -1.9200 H   0  0  0  0  0  0  0  0  0  0  0  0
    3.1832    4.3287    1.5092 H   0  0  0  0  0  0  0  0  0  0  0  0
    5.3852    0.9711   -0.6648 H   0  0  0  0  0  0  0  0  0  0  0  0
    0.3981   -2.7461    2.7030 H   0  0  0  0  0  0  0  0  0  0  0  0
    1.7654    0.2940   -1.7960 H   0  0  0  0  0  0  0  0  0  0  0  0
   -6.1302    1.3846    1.1101 H   0  0  0  0  0  0  0  0  0  0  0  0
   -1.4547    4.1513   -2.5269 H   0  0  0  0  0  0  0  0  0  0  0  0
    1.1936    0.1501    3.9882 H   0  0  0  0  0  0  0  0  0  0  0  0
    1.4763   -1.8290   -2.9571 H   0  0  0  0  0  0  0  0  0  0  0  0
    2.8880   -5.0094   -1.6622 H   0  0  0  0  0  0  0  0  0  0  0  0
    1.9736   -4.2487   -2.9198 H   0  0  0  0  0  0  0  0  0  0  0  0
  1  4  1  0  0  0  0
  1  7  1  0  0  0  0
  1 12  1  0  0  0  0
  1 15  2  0  0  0  0
  2 20  1  0  0  0  0
  2 23  1  0  0  0  0
  3 25  1  0  0  0  0
  3 28  1  0  0  0  0
  4 23  1  0  0  0  0
  5 21  1  0  0  0  0
  5 51  1  0  0  0  0
  6 22  1  0  0  0  0
  6 52  1  0  0  0  0
  7 30  1  0  0  0  0
  8 26  1  0  0  0  0
  8 53  1  0  0  0  0
  9 27  1  0  0  0  0
  9 54  1  0  0  0  0
 10 29  1  0  0  0  0
 10 55  1  0  0  0  0
 11 31  1  0  0  0  0
 11 57  1  0  0  0  0
 12 58  1  0  0  0  0
 13 32  1  0  0  0  0
 13 59  1  0  0  0  0
 14 31  2  0  0  0  0
 16 34  2  0  0  0  0
 17 28  1  0  0  0  0
 17 33  1  0  0  0  0
 17 34  1  0  0  0  0
 18 34  1  0  0  0  0
 18 36  2  0  0  0  0
 19 36  1  0  0  0  0
 19 61  1  0  0  0  0
 19 62  1  0  0  0  0
 20 21  1  0  0  0  0
 20 29  1  0  0  0  0
 20 37  1  0  0  0  0
 21 22  1  0  0  0  0
 21 38  1  0  0  0  0
 22 24  1  0  0  0  0
 22 39  1  0  0  0  0
 23 24  1  0  0  0  0
 23 31  1  0  0  0  0
 24 40  1  0  0  0  0
 24 41  1  0  0  0  0
 25 26  1  0  0  0  0
 25 30  1  0  0  0  0
 25 42  1  0  0  0  0
 26 27  1  0  0  0  0
 26 43  1  0  0  0  0
 27 28  1  0  0  0  0
 27 44  1  0  0  0  0
 28 45  1  0  0  0  0
 29 32  1  0  0  0  0
 29 46  1  0  0  0  0
 30 47  1  0  0  0  0
 30 48  1  0  0  0  0
 32 49  1  0  0  0  0
 32 50  1  0  0  0  0
 33 35  2  0  0  0  0
 33 56  1  0  0  0  0
 35 36  1  0  0  0  0
 35 60  1  0  0  0  0
M  END
> <PUBCHEM_COMPOUND_CID>
445888

> <PUBCHEM_CONFORMER_RMSD>
1.2

> <PUBCHEM_CONFORMER_DIVERSEORDER>
2
50
97
31
19
81
114
130
58
137
24
80
60
77
41
49
15
89
127
13
126
139
32
28
5
22
96
107
70
57
66
27
93
133
116
59
100
122
76
75
40
101
131
140
121
112
23
61
38
119
51
30
48
6
73
98
110
132
67
42
118
7
128
134
69
35
91
138
43
39
78
36
20
8
33
71
135
26
90
53
115
82
37
95
84
113
87
18
104
105
10
85
94
72
17
92
25
64
52
55
21
136
16
62
65
99
141
12
44
106
120
124
117
3
123
63
86
54
34
47
102
125
79
46
129
45
88
11
68
108
29
74
109
4
111
9
83
14
103
56
1

> <PUBCHEM_MMFF94_PARTIAL_CHARGES>
47
1 1.51
10 -0.68
11 -0.65
12 -0.77
13 -0.68
14 -0.57
15 -0.7
16 -0.57
17 -0.47
18 -0.66
19 -0.85
2 -0.56
20 0.28
21 0.28
22 0.28
23 0.62
25 0.28
26 0.28
27 0.28
28 0.58
29 0.28
3 -0.56
30 0.28
31 0.66
32 0.28
33 -0.04
34 0.84
35 -0.14
36 0.49
4 -0.55
5 -0.68
51 0.4
52 0.4
53 0.4
54 0.4
55 0.4
56 0.15
57 0.5
58 0.5
59 0.4
6 -0.68
60 0.15
61 0.4
62 0.4
7 -0.55
8 -0.68
9 -0.68

> <PUBCHEM_EFFECTIVE_ROTOR_COUNT>
11.2

> <PUBCHEM_PHARMACOPHORE_FEATURES>
25
1 10 acceptor
1 10 donor
1 11 acceptor
1 12 acceptor
1 13 acceptor
1 13 donor
1 14 acceptor
1 15 acceptor
1 16 acceptor
1 18 donor
1 19 donor
1 2 acceptor
1 3 acceptor
1 5 acceptor
1 5 donor
1 6 acceptor
1 6 donor
1 8 acceptor
1 8 donor
1 9 acceptor
1 9 donor
3 11 14 31 anion
5 3 25 26 27 28 rings
6 17 18 33 34 35 36 rings
6 2 20 21 22 23 24 rings

> <PUBCHEM_HEAVY_ATOM_COUNT>
36

> <PUBCHEM_ATOM_DEF_STEREO_COUNT>
9

> <PUBCHEM_ATOM_UDEF_STEREO_COUNT>
0

> <PUBCHEM_BOND_DEF_STEREO_COUNT>
0

> <PUBCHEM_BOND_UDEF_STEREO_COUNT>
0

> <PUBCHEM_ISOTOPIC_ATOM_COUNT>
0

> <PUBCHEM_COMPONENT_COUNT>
1

> <PUBCHEM_CACTVS_TAUTO_COUNT>
3

> <PUBCHEM_CONFORMER_ID>
0006CDC000000002

> <PUBCHEM_MMFF94_ENERGY>
82.5362

> <PUBCHEM_FEATURE_SELFOVERLAP>
127.013

> <PUBCHEM_SHAPE_FINGERPRINT>
11370993 70 17898009027656235216
11828532 37 17989203738173127371
12422481 6 18266764462157749096
12633257 1 18335983150704068847
13383661 66 17174307120201782094
13402501 40 18272081699941273736
1361 2 17689446983652242655
14251757 17 18122347049437523966
17809404 112 17346046554277375311
17921350 177 18125176054290744118
19930381 70 18335699472715181527
20600515 1 17202762570979572236
20691752 17 17775007847415542377
20764821 26 18411145752905028718
22393880 68 17969494927456326772
23559900 14 18187080689175254918
3493558 16 15364713737850945761
35225 105 17340161078728487742
469060 322 17542822739895713116
513532 50 17324409492429480141

> <PUBCHEM_SHAPE_MULTIPOLES>
641.73
8.76
4.69
2.45
2.07
0.09
1
-0.8
-0.06
-3
-2.05
0.44
0.85
1.18

> <PUBCHEM_SHAPE_SELFOVERLAP>
1338.415

> <PUBCHEM_SHAPE_VOLUME>
364.7

> <PUBCHEM_COORDINATE_TYPE>
2
5
10

$$$$

