442940
  -OEChem-07051213003D

 42 45  0     1  0  0  0  0  0999 V2000
   -0.7514   -2.7747   -0.3318 O   0  0  0  0  0  0  0  0  0  0  0  0
    1.9224    0.9307    0.1712 N   0  0  2  0  0  0  0  0  0  0  0  0
   -1.7826   -0.6454    0.0910 N   0  0  0  0  0  0  0  0  0  0  0  0
   -0.4630    1.4362   -0.8488 C   0  0  2  0  0  0  0  0  0  0  0  0
    0.4397   -0.7126   -0.7443 C   0  0  1  0  0  0  0  0  0  0  0  0
    1.9091   -0.3898   -0.5467 C   0  0  2  0  0  0  0  0  0  0  0  0
   -1.5394    0.8720    0.1880 C   0  0  1  0  0  0  0  0  0  0  0  0
   -0.1182    0.2876   -1.7616 C   0  0  0  0  0  0  0  0  0  0  0  0
    0.9324    1.9442   -0.2902 C   0  0  0  0  0  0  0  0  0  0  0  0
   -0.7362   -1.5524   -0.3311 C   0  0  0  0  0  0  0  0  0  0  0  0
    2.6768   -1.4316    0.2670 C   0  0  0  0  0  0  0  0  0  0  0  0
   -2.8643    1.6286   -0.0160 C   0  0  0  0  0  0  0  0  0  0  0  0
    3.2753    1.4480    0.3420 C   0  0  0  0  0  0  0  0  0  0  0  0
   -2.9368   -1.2018    0.7856 C   0  0  0  0  0  0  0  0  0  0  0  0
    4.1086   -0.9529    0.5099 C   0  0  0  0  0  0  0  0  0  0  0  0
   -3.9922    1.0728    0.8453 C   0  0  0  0  0  0  0  0  0  0  0  0
    4.1277    0.4457    1.1283 C   0  0  0  0  0  0  0  0  0  0  0  0
   -4.2079   -0.4044    0.5422 C   0  0  0  0  0  0  0  0  0  0  0  0
   -0.8972    2.2629   -1.4243 H   0  0  0  0  0  0  0  0  0  0  0  0
    0.7088   -1.5009   -1.4883 H   0  0  0  0  0  0  0  0  0  0  0  0
    2.4145   -0.2575   -1.5158 H   0  0  0  0  0  0  0  0  0  0  0  0
   -1.1758    1.0467    1.2084 H   0  0  0  0  0  0  0  0  0  0  0  0
    0.6092    0.5824   -2.5288 H   0  0  0  0  0  0  0  0  0  0  0  0
   -1.0019   -0.0736   -2.3045 H   0  0  0  0  0  0  0  0  0  0  0  0
    1.3975    2.5199   -1.1025 H   0  0  0  0  0  0  0  0  0  0  0  0
    0.7396    2.6475    0.5283 H   0  0  0  0  0  0  0  0  0  0  0  0
    2.6948   -2.3906   -0.2632 H   0  0  0  0  0  0  0  0  0  0  0  0
    2.1793   -1.6048    1.2298 H   0  0  0  0  0  0  0  0  0  0  0  0
   -3.1659    1.5645   -1.0699 H   0  0  0  0  0  0  0  0  0  0  0  0
   -2.7212    2.6915    0.2119 H   0  0  0  0  0  0  0  0  0  0  0  0
    3.2535    2.3910    0.9009 H   0  0  0  0  0  0  0  0  0  0  0  0
    3.7373    1.6550   -0.6312 H   0  0  0  0  0  0  0  0  0  0  0  0
   -2.6903   -1.2068    1.8541 H   0  0  0  0  0  0  0  0  0  0  0  0
   -3.0827   -2.2445    0.4842 H   0  0  0  0  0  0  0  0  0  0  0  0
    4.6535   -0.9355   -0.4421 H   0  0  0  0  0  0  0  0  0  0  0  0
    4.6314   -1.6578    1.1658 H   0  0  0  0  0  0  0  0  0  0  0  0
   -4.9155    1.6282    0.6462 H   0  0  0  0  0  0  0  0  0  0  0  0
   -3.7544    1.2087    1.9071 H   0  0  0  0  0  0  0  0  0  0  0  0
    3.7552    0.3851    2.1592 H   0  0  0  0  0  0  0  0  0  0  0  0
    5.1606    0.8076    1.1858 H   0  0  0  0  0  0  0  0  0  0  0  0
   -5.0179   -0.7988    1.1658 H   0  0  0  0  0  0  0  0  0  0  0  0
   -4.5191   -0.5196   -0.5035 H   0  0  0  0  0  0  0  0  0  0  0  0
  1 10  2  0  0  0  0
  2  6  1  0  0  0  0
  2  9  1  0  0  0  0
  2 13  1  0  0  0  0
  3  7  1  0  0  0  0
  3 10  1  0  0  0  0
  3 14  1  0  0  0  0
  4  7  1  0  0  0  0
  4  8  1  0  0  0  0
  4  9  1  0  0  0  0
  4 19  1  0  0  0  0
  5  6  1  0  0  0  0
  5  8  1  0  0  0  0
  5 10  1  0  0  0  0
  5 20  1  0  0  0  0
  6 11  1  0  0  0  0
  6 21  1  0  0  0  0
  7 12  1  0  0  0  0
  7 22  1  0  0  0  0
  8 23  1  0  0  0  0
  8 24  1  0  0  0  0
  9 25  1  0  0  0  0
  9 26  1  0  0  0  0
 11 15  1  0  0  0  0
 11 27  1  0  0  0  0
 11 28  1  0  0  0  0
 12 16  1  0  0  0  0
 12 29  1  0  0  0  0
 12 30  1  0  0  0  0
 13 17  1  0  0  0  0
 13 31  1  0  0  0  0
 13 32  1  0  0  0  0
 14 18  1  0  0  0  0
 14 33  1  0  0  0  0
 14 34  1  0  0  0  0
 15 17  1  0  0  0  0
 15 35  1  0  0  0  0
 15 36  1  0  0  0  0
 16 18  1  0  0  0  0
 16 37  1  0  0  0  0
 16 38  1  0  0  0  0
 17 39  1  0  0  0  0
 17 40  1  0  0  0  0
 18 41  1  0  0  0  0
 18 42  1  0  0  0  0
M  END
> <PUBCHEM_COMPOUND_CID>
442940

> <PUBCHEM_CONFORMER_RMSD>
0.6

> <PUBCHEM_CONFORMER_DIVERSEORDER>
1

> <PUBCHEM_MMFF94_PARTIAL_CHARGES>
10
1 -0.57
10 0.57
13 0.27
14 0.3
2 -0.81
3 -0.66
5 0.06
6 0.27
7 0.3
9 0.27

> <PUBCHEM_EFFECTIVE_ROTOR_COUNT>
2

> <PUBCHEM_PHARMACOPHORE_FEATURES>
6
1 1 acceptor
1 2 cation
6 2 4 5 6 8 9 rings
6 2 6 11 13 15 17 rings
6 3 4 5 7 8 10 rings
6 3 7 12 14 16 18 rings

> <PUBCHEM_HEAVY_ATOM_COUNT>
18

> <PUBCHEM_ATOM_DEF_STEREO_COUNT>
4

> <PUBCHEM_ATOM_UDEF_STEREO_COUNT>
0

> <PUBCHEM_BOND_DEF_STEREO_COUNT>
0

> <PUBCHEM_BOND_UDEF_STEREO_COUNT>
0

> <PUBCHEM_ISOTOPIC_ATOM_COUNT>
0

> <PUBCHEM_COMPONENT_COUNT>
1

> <PUBCHEM_CACTVS_TAUTO_COUNT>
1

> <PUBCHEM_CONFORMER_ID>
0006C23C00000001

> <PUBCHEM_MMFF94_ENERGY>
83.518

> <PUBCHEM_FEATURE_SELFOVERLAP>
31.267

> <PUBCHEM_SHAPE_FINGERPRINT>
11132069 177 18342173418643605389
12011746 2 18410854386454922908
12077114 3 18410577296872066185
12119455 92 17095526218300941900
12251169 10 18410294679407570552
12382932 28 18409450288847895440
12507560 40 18409449202157872512
12633257 1 18335419075537807600
12644460 14 17773572980320220812
12670546 177 9007057967554969040
12892183 10 18339922619240815360
13140716 1 18338795740181759713
13299463 15 10519983785710699876
13581323 91 18272931626328704125
14178342 30 18120953706676383242
14787075 74 17822581516747590195
14790565 3 17981879749439552996
15196674 1 18410854369232920489
15209289 33 17703792548204610274
15209294 21 18113618984280952817
15309172 13 18337398230822287054
15375462 189 17989214788928404946
15375462 478 18333731308157092253
15536298 74 18334853935209106522
16945 1 18266175024302022012
17804303 29 18340759450737508446
17862501 102 18409450263431493515
1813 80 16988842791623393422
19765921 60 5545204900002538135
19862831 5 7997973466002661160
200 152 18187094944820264685
20361792 2 15913327974610466511
21501502 16 18337958861799187276
21637258 2 15698001829350913592
21731228 192 18260268550922319807
22854114 59 18259984885533153473
23184049 59 18410855477313331734
23402539 116 18261119526495009183
23419403 2 17175790404331380525
23463225 33 18342452642783373773
23559900 14 18262779878825160998
24859131 72 18343301500436045419
2748010 2 18339075020377337495
3082319 5 9367352534904032704
351380 180 18335141999045418537
5104073 3 18410291406373440664
633830 44 17750229360688415693
69090 78 18407764728980020427
7097593 13 18341053999869000632
7364860 26 17973433592992905527
84936 31 16517088638659471950
90316 7 17703227437561112789

> <PUBCHEM_SHAPE_MULTIPOLES>
354.6
7.32
2.16
1.09
0.44
0.45
0.22
-0.35
-3.55
-0.2
0.11
0.07
-0.08
0.09

> <PUBCHEM_SHAPE_SELFOVERLAP>
746.571

> <PUBCHEM_SHAPE_VOLUME>
195.1

> <PUBCHEM_COORDINATE_TYPE>
2
5
10

$$$$

