9835
  -OEChem-06261204062D

 27 27  0     0  0  0  0  0  0999 V2000
    4.5032   -0.2341    0.0000 O   0  0  0  0  0  0  0  0  0  0  0  0
    9.3244   -1.8605    0.0000 O   0  0  0  0  0  0  0  0  0  0  0  0
    8.4927    2.0521    0.0000 O   0  0  0  0  0  0  0  0  0  0  0  0
    2.0000    0.7138    0.0000 O   0  5  0  0  0  0  0  0  0  0  0  0
    2.5352   -0.9334    0.0000 O   0  0  0  0  0  0  0  0  0  0  0  0
    7.9575    0.4048    0.0000 N   0  0  0  0  0  0  0  0  0  0  0  0
    7.0064    0.7138    0.0000 N   0  0  0  0  0  0  0  0  0  0  0  0
    2.7431    0.0447    0.0000 N   0  3  0  0  0  0  0  0  0  0  0  0
    9.6517    0.7649    0.0000 N   0  0  0  0  0  0  0  0  0  0  0  0
    8.1654   -0.5733    0.0000 C   0  0  0  0  0  0  0  0  0  0  0  0
    9.1165   -0.8824    0.0000 C   0  0  0  0  0  0  0  0  0  0  0  0
    5.3122    0.3537    0.0000 C   0  0  0  0  0  0  0  0  0  0  0  0
    6.2633    0.0447    0.0000 C   0  0  0  0  0  0  0  0  0  0  0  0
    5.0032    1.3048    0.0000 C   0  0  0  0  0  0  0  0  0  0  0  0
    3.6942    0.3537    0.0000 C   0  0  0  0  0  0  0  0  0  0  0  0
    4.0032    1.3048    0.0000 C   0  0  0  0  0  0  0  0  0  0  0  0
    8.7006    1.0739    0.0000 C   0  0  0  0  0  0  0  0  0  0  0  0
    7.5458   -0.5950    0.0000 H   0  0  0  0  0  0  0  0  0  0  0  0
    8.0791   -1.1873    0.0000 H   0  0  0  0  0  0  0  0  0  0  0  0
    9.7361   -0.8607    0.0000 H   0  0  0  0  0  0  0  0  0  0  0  0
    9.2028   -0.2684    0.0000 H   0  0  0  0  0  0  0  0  0  0  0  0
    6.3922   -0.5618    0.0000 H   0  0  0  0  0  0  0  0  0  0  0  0
    5.3676    1.8064    0.0000 H   0  0  0  0  0  0  0  0  0  0  0  0
    3.6388    1.8064    0.0000 H   0  0  0  0  0  0  0  0  0  0  0  0
    9.9140   -2.0521    0.0000 H   0  0  0  0  0  0  0  0  0  0  0  0
   10.1124    1.1798    0.0000 H   0  0  0  0  0  0  0  0  0  0  0  0
    9.7806    0.1585    0.0000 H   0  0  0  0  0  0  0  0  0  0  0  0
  1 12  1  0  0  0  0
  1 15  1  0  0  0  0
  2 11  1  0  0  0  0
  2 25  1  0  0  0  0
  3 17  2  0  0  0  0
  4  8  1  0  0  0  0
  5  8  2  0  0  0  0
  6  7  1  0  0  0  0
  6 10  1  0  0  0  0
  6 17  1  0  0  0  0
  7 13  2  3  0  0  0
  8 15  1  0  0  0  0
  9 17  1  0  0  0  0
  9 26  1  0  0  0  0
  9 27  1  0  0  0  0
 10 11  1  0  0  0  0
 10 18  1  0  0  0  0
 10 19  1  0  0  0  0
 11 20  1  0  0  0  0
 11 21  1  0  0  0  0
 12 13  1  0  0  0  0
 12 14  2  0  0  0  0
 13 22  1  0  0  0  0
 14 16  1  0  0  0  0
 14 23  1  0  0  0  0
 15 16  2  0  0  0  0
 16 24  1  0  0  0  0
M  CHG  2   4  -1   8   1
M  END
> <PUBCHEM_COMPOUND_CID>
9835

> <PUBCHEM_COMPOUND_CANONICALIZED>
1

> <PUBCHEM_CACTVS_COMPLEXITY>
316

> <PUBCHEM_CACTVS_HBOND_ACCEPTOR>
6

> <PUBCHEM_CACTVS_HBOND_DONOR>
2

> <PUBCHEM_CACTVS_ROTATABLE_BOND>
4

> <PUBCHEM_CACTVS_SUBSKEYS>
AAADccBzuAAAAAAAAAAAAAAAAAAAASAAAAAAAAAAAAAAAAABgAAAHgAcCAAACAThkAYxhIJQRkCpALFzUwSSCAAsIgA+iAEubNqONrKEtZuKGSD0zhMY6Ya8AAAAAAAAAAAAAAAAAAAAAAAAAAAAAAAAAA==

> <PUBCHEM_IUPAC_OPENEYE_NAME>
1-(2-hydroxyethyl)-1-[(5-nitro-2-furyl)methyleneamino]urea

> <PUBCHEM_IUPAC_CAS_NAME>
1-(2-hydroxyethyl)-1-[(5-nitro-2-furanyl)methylideneamino]urea

> <PUBCHEM_IUPAC_NAME>
1-(2-hydroxyethyl)-1-[(5-nitrofuran-2-yl)methylideneamino]urea

> <PUBCHEM_IUPAC_SYSTEMATIC_NAME>
1-(2-hydroxyethyl)-1-[(5-nitrofuran-2-yl)methylideneamino]urea

> <PUBCHEM_IUPAC_TRADITIONAL_NAME>
1-(2-hydroxyethyl)-1-[(5-nitro-2-furyl)methyleneamino]urea

> <PUBCHEM_IUPAC_INCHI>
InChI=1S/C8H10N4O5/c9-8(14)11(3-4-13)10-5-6-1-2-7(17-6)12(15)16/h1-2,5,13H,3-4H2,(H2,9,14)

> <PUBCHEM_IUPAC_INCHIKEY>
FJVAAURIDNIYAE-UHFFFAOYSA-N

> <PUBCHEM_XLOGP3_AA>
-0.3

> <PUBCHEM_EXACT_MASS>
242.065119

> <PUBCHEM_MOLECULAR_FORMULA>
C8H10N4O5

> <PUBCHEM_MOLECULAR_WEIGHT>
242.1888

> <PUBCHEM_OPENEYE_CAN_SMILES>
C1=C(OC(=C1)[N+](=O)[O-])C=NN(CCO)C(=O)N

> <PUBCHEM_OPENEYE_ISO_SMILES>
C1=C(OC(=C1)[N+](=O)[O-])C=NN(CCO)C(=O)N

> <PUBCHEM_CACTVS_TPSA>
138

> <PUBCHEM_MONOISOTOPIC_WEIGHT>
242.065119

> <PUBCHEM_TOTAL_CHARGE>
0

> <PUBCHEM_HEAVY_ATOM_COUNT>
17

> <PUBCHEM_ATOM_DEF_STEREO_COUNT>
0

> <PUBCHEM_ATOM_UDEF_STEREO_COUNT>
0

> <PUBCHEM_BOND_DEF_STEREO_COUNT>
0

> <PUBCHEM_BOND_UDEF_STEREO_COUNT>
1

> <PUBCHEM_ISOTOPIC_ATOM_COUNT>
0

> <PUBCHEM_COMPONENT_COUNT>
1

> <PUBCHEM_CACTVS_TAUTO_COUNT>
2

> <PUBCHEM_COORDINATE_TYPE>
1
5
255

> <PUBCHEM_BONDANNOTATIONS>
1  12  8
1  15  8
12  14  8
14  16  8
15  16  8
7  13  1

$$$$

