14076604
  -OEChem-07051213093D

 40 41  0     1  0  0  0  0  0999 V2000
   -3.1633   -1.1109   -1.5290 O   0  0  0  0  0  0  0  0  0  0  0  0
   -0.7119    1.1336    0.1580 C   0  0  1  0  0  0  0  0  0  0  0  0
   -0.4903   -0.3699   -0.1982 C   0  0  1  0  0  0  0  0  0  0  0  0
    0.3921    1.9828   -0.5222 C   0  0  0  0  0  0  0  0  0  0  0  0
    0.9316   -0.8412    0.1750 C   0  0  0  0  0  0  0  0  0  0  0  0
   -2.0923    1.5870   -0.3941 C   0  0  0  0  0  0  0  0  0  0  0  0
    2.0053    0.0251   -0.5004 C   0  0  1  0  0  0  0  0  0  0  0  0
    1.8110    1.5141   -0.1940 C   0  0  0  0  0  0  0  0  0  0  0  0
   -1.6417   -1.2180    0.3311 C   0  0  0  0  0  0  0  0  0  0  0  0
   -3.2582    0.7075    0.0780 C   0  0  0  0  0  0  0  0  0  0  0  0
   -0.6753    1.3861    1.6862 C   0  0  0  0  0  0  0  0  0  0  0  0
   -3.0142   -0.7893   -0.1459 C   0  0  1  0  0  0  0  0  0  0  0  0
    3.3745   -0.4300   -0.0971 C   0  0  0  0  0  0  0  0  0  0  0  0
   -1.5116   -2.2541    1.1755 C   0  0  0  0  0  0  0  0  0  0  0  0
    4.2555   -0.9354   -1.2009 C   0  0  0  0  0  0  0  0  0  0  0  0
    3.7889   -0.3874    1.1778 C   0  0  0  0  0  0  0  0  0  0  0  0
   -0.5456   -0.4584   -1.2949 H   0  0  0  0  0  0  0  0  0  0  0  0
    0.2874    3.0379   -0.2392 H   0  0  0  0  0  0  0  0  0  0  0  0
    0.2633    1.9444   -1.6123 H   0  0  0  0  0  0  0  0  0  0  0  0
    1.0498   -0.8375    1.2651 H   0  0  0  0  0  0  0  0  0  0  0  0
    1.0647   -1.8832   -0.1475 H   0  0  0  0  0  0  0  0  0  0  0  0
   -2.0703    1.5647   -1.4920 H   0  0  0  0  0  0  0  0  0  0  0  0
   -2.2912    2.6288   -0.1129 H   0  0  0  0  0  0  0  0  0  0  0  0
    1.8937   -0.1025   -1.5866 H   0  0  0  0  0  0  0  0  0  0  0  0
    2.5222    2.1075   -0.7834 H   0  0  0  0  0  0  0  0  0  0  0  0
    2.0283    1.7416    0.8558 H   0  0  0  0  0  0  0  0  0  0  0  0
   -3.4419    0.8920    1.1431 H   0  0  0  0  0  0  0  0  0  0  0  0
   -4.1633    1.0176   -0.4584 H   0  0  0  0  0  0  0  0  0  0  0  0
   -0.8521    2.4454    1.9061 H   0  0  0  0  0  0  0  0  0  0  0  0
   -1.4369    0.8124    2.2227 H   0  0  0  0  0  0  0  0  0  0  0  0
    0.2879    1.1216    2.1313 H   0  0  0  0  0  0  0  0  0  0  0  0
   -3.8033   -1.3387    0.3819 H   0  0  0  0  0  0  0  0  0  0  0  0
   -2.3791   -2.8083    1.5198 H   0  0  0  0  0  0  0  0  0  0  0  0
   -0.5497   -2.5826    1.5502 H   0  0  0  0  0  0  0  0  0  0  0  0
   -3.0139   -2.0669   -1.6279 H   0  0  0  0  0  0  0  0  0  0  0  0
    3.7931   -1.7979   -1.6918 H   0  0  0  0  0  0  0  0  0  0  0  0
    4.4154   -0.1519   -1.9488 H   0  0  0  0  0  0  0  0  0  0  0  0
    5.2381   -1.2495   -0.8330 H   0  0  0  0  0  0  0  0  0  0  0  0
    4.7842   -0.7207    1.4539 H   0  0  0  0  0  0  0  0  0  0  0  0
    3.1568   -0.0227    1.9799 H   0  0  0  0  0  0  0  0  0  0  0  0
  1 12  1  0  0  0  0
  1 35  1  0  0  0  0
  2  3  1  0  0  0  0
  2  4  1  0  0  0  0
  2  6  1  0  0  0  0
  2 11  1  0  0  0  0
  3  5  1  0  0  0  0
  3  9  1  0  0  0  0
  3 17  1  0  0  0  0
  4  8  1  0  0  0  0
  4 18  1  0  0  0  0
  4 19  1  0  0  0  0
  5  7  1  0  0  0  0
  5 20  1  0  0  0  0
  5 21  1  0  0  0  0
  6 10  1  0  0  0  0
  6 22  1  0  0  0  0
  6 23  1  0  0  0  0
  7  8  1  0  0  0  0
  7 13  1  0  0  0  0
  7 24  1  0  0  0  0
  8 25  1  0  0  0  0
  8 26  1  0  0  0  0
  9 12  1  0  0  0  0
  9 14  2  0  0  0  0
 10 12  1  0  0  0  0
 10 27  1  0  0  0  0
 10 28  1  0  0  0  0
 11 29  1  0  0  0  0
 11 30  1  0  0  0  0
 11 31  1  0  0  0  0
 12 32  1  0  0  0  0
 13 15  1  0  0  0  0
 13 16  2  0  0  0  0
 14 33  1  0  0  0  0
 14 34  1  0  0  0  0
 15 36  1  0  0  0  0
 15 37  1  0  0  0  0
 15 38  1  0  0  0  0
 16 39  1  0  0  0  0
 16 40  1  0  0  0  0
M  END
> <PUBCHEM_COMPOUND_CID>
14076604

> <PUBCHEM_CONFORMER_RMSD>
0.6

> <PUBCHEM_CONFORMER_DIVERSEORDER>
1
3
2

> <PUBCHEM_MMFF94_PARTIAL_CHARGES>
14
1 -0.68
12 0.42
13 -0.28
14 -0.3
15 0.14
16 -0.3
3 0.14
33 0.15
34 0.15
35 0.4
39 0.15
40 0.15
7 0.14
9 -0.28

> <PUBCHEM_EFFECTIVE_ROTOR_COUNT>
2.4

> <PUBCHEM_PHARMACOPHORE_FEATURES>
4
1 1 acceptor
1 1 donor
6 2 3 4 5 7 8 rings
6 2 3 6 9 10 12 rings

> <PUBCHEM_HEAVY_ATOM_COUNT>
16

> <PUBCHEM_ATOM_DEF_STEREO_COUNT>
4

> <PUBCHEM_ATOM_UDEF_STEREO_COUNT>
0

> <PUBCHEM_BOND_DEF_STEREO_COUNT>
0

> <PUBCHEM_BOND_UDEF_STEREO_COUNT>
0

> <PUBCHEM_ISOTOPIC_ATOM_COUNT>
0

> <PUBCHEM_COMPONENT_COUNT>
1

> <PUBCHEM_CACTVS_TAUTO_COUNT>
1

> <PUBCHEM_CONFORMER_ID>
00D6CABC00000001

> <PUBCHEM_MMFF94_ENERGY>
38.2028

> <PUBCHEM_FEATURE_SELFOVERLAP>
20.311

> <PUBCHEM_SHAPE_FINGERPRINT>
10062212 137 18337120033153698871
10130415 120 18341613689667781824
11132069 177 18334862757003373744
11315181 36 18041275574035520558
11543360 7 15554158177845287310
11769659 78 18334862688204821316
12553582 1 18272085024235073552
12592029 89 17987512796352092881
13024252 1 13398621749907214593
13140716 1 18341608153386372320
13296908 3 18199744756782342562
14115302 16 17988634168994250567
14144814 61 18273496792796467130
14289901 80 17240206521457894962
14993402 34 18201435917155611676
15536298 74 18335420128248179052
15775835 57 17988074616312409292
16752209 62 18272100434224427171
16945 1 18272373057442222403
17804303 29 18411412921266561012
17834072 14 18409738330892879224
18175812 5 17603870030909906812
18186145 218 17988927742835636214
200 152 17821732749173044342
20201158 50 18409166610289269807
20645476 183 17489292088553093706
20671657 53 18271814496961344948
21501502 16 18338794499078908725
22802520 49 18197214746298843457
232386 152 18411409609904779004
2334 1 18053939550435601178
23402539 116 18338809995172927494
23419403 2 17756472280147185456
23557571 272 17530963579155860566
23559900 14 18336547218266793814
2748010 2 18054505798918754475
7364860 26 18191864527177148100
74978 22 18131065987693424982
81228 2 18264193876395686584
8809292 202 18343294842909942411
9709674 26 18408885097042780454

> <PUBCHEM_SHAPE_MULTIPOLES>
323.4
6.31
2.05
1.22
4.47
0.08
0.18
-1.92
-1.25
-0.94
0.24
0.09
-0.13
0.03

> <PUBCHEM_SHAPE_SELFOVERLAP>
661.418

> <PUBCHEM_SHAPE_VOLUME>
185.9

> <PUBCHEM_COORDINATE_TYPE>
2
5
10

$$$$

