7030
  -OEChem-06261201413D

 24 25  0     0  0  0  0  0  0999 V2000
    5.1863    1.1183    0.0009 Br  0  0  0  0  0  0  0  0  0  0  0  0
   -0.6285   -2.3951   -0.0015 O   0  0  0  0  0  0  0  0  0  0  0  0
    0.8794   -0.6070   -0.0004 C   0  0  0  0  0  0  0  0  0  0  0  0
   -1.6875   -0.3096    0.0000 C   0  0  0  0  0  0  0  0  0  0  0  0
   -0.5085   -1.1608   -0.0007 C   0  0  0  0  0  0  0  0  0  0  0  0
    1.4902   -0.3644    1.2077 C   0  0  0  0  0  0  0  0  0  0  0  0
    1.4894   -0.3608   -1.2082 C   0  0  0  0  0  0  0  0  0  0  0  0
   -1.5457    1.0781    0.0003 C   0  0  0  0  0  0  0  0  0  0  0  0
   -2.9602   -0.8806    0.0000 C   0  0  0  0  0  0  0  0  0  0  0  0
    2.7851    0.1543    1.2080 C   0  0  0  0  0  0  0  0  0  0  0  0
    2.7843    0.1577   -1.2081 C   0  0  0  0  0  0  0  0  0  0  0  0
   -2.6766    1.8948    0.0007 C   0  0  0  0  0  0  0  0  0  0  0  0
   -4.0910   -0.0639    0.0004 C   0  0  0  0  0  0  0  0  0  0  0  0
    3.4323    0.4152    0.0001 C   0  0  0  0  0  0  0  0  0  0  0  0
   -3.9491    1.3238    0.0007 C   0  0  0  0  0  0  0  0  0  0  0  0
    0.9898   -0.5661    2.1498 H   0  0  0  0  0  0  0  0  0  0  0  0
    0.9883   -0.5599   -2.1505 H   0  0  0  0  0  0  0  0  0  0  0  0
   -0.5752    1.5645    0.0002 H   0  0  0  0  0  0  0  0  0  0  0  0
   -3.0982   -1.9587   -0.0003 H   0  0  0  0  0  0  0  0  0  0  0  0
    3.2756    0.3495    2.1582 H   0  0  0  0  0  0  0  0  0  0  0  0
    3.2742    0.3556   -2.1580 H   0  0  0  0  0  0  0  0  0  0  0  0
   -2.5667    2.9754    0.0009 H   0  0  0  0  0  0  0  0  0  0  0  0
   -5.0821   -0.5080    0.0005 H   0  0  0  0  0  0  0  0  0  0  0  0
   -4.8295    1.9597    0.0010 H   0  0  0  0  0  0  0  0  0  0  0  0
  1 14  1  0  0  0  0
  2  5  2  0  0  0  0
  3  5  1  0  0  0  0
  3  6  2  0  0  0  0
  3  7  1  0  0  0  0
  4  5  1  0  0  0  0
  4  8  2  0  0  0  0
  4  9  1  0  0  0  0
  6 10  1  0  0  0  0
  6 16  1  0  0  0  0
  7 11  2  0  0  0  0
  7 17  1  0  0  0  0
  8 12  1  0  0  0  0
  8 18  1  0  0  0  0
  9 13  2  0  0  0  0
  9 19  1  0  0  0  0
 10 14  2  0  0  0  0
 10 20  1  0  0  0  0
 11 14  1  0  0  0  0
 11 21  1  0  0  0  0
 12 15  2  0  0  0  0
 12 22  1  0  0  0  0
 13 15  1  0  0  0  0
 13 23  1  0  0  0  0
 15 24  1  0  0  0  0
M  END
> <PUBCHEM_COMPOUND_CID>
7030

> <PUBCHEM_CONFORMER_RMSD>
0.6

> <PUBCHEM_CONFORMER_DIVERSEORDER>
1

> <PUBCHEM_MMFF94_PARTIAL_CHARGES>
24
1 -0.11
10 -0.15
11 -0.15
12 -0.15
13 -0.15
14 0.11
15 -0.15
16 0.15
17 0.15
18 0.15
19 0.15
2 -0.57
20 0.15
21 0.15
22 0.15
23 0.15
24 0.15
3 0.09
4 0.09
5 0.4
6 -0.15
7 -0.15
8 -0.15
9 -0.15

> <PUBCHEM_EFFECTIVE_ROTOR_COUNT>
2

> <PUBCHEM_PHARMACOPHORE_FEATURES>
4
1 1 hydrophobe
1 2 acceptor
6 3 6 7 10 11 14 rings
6 4 8 9 12 13 15 rings

> <PUBCHEM_HEAVY_ATOM_COUNT>
15

> <PUBCHEM_ATOM_DEF_STEREO_COUNT>
0

> <PUBCHEM_ATOM_UDEF_STEREO_COUNT>
0

> <PUBCHEM_BOND_DEF_STEREO_COUNT>
0

> <PUBCHEM_BOND_UDEF_STEREO_COUNT>
0

> <PUBCHEM_ISOTOPIC_ATOM_COUNT>
0

> <PUBCHEM_COMPONENT_COUNT>
1

> <PUBCHEM_CACTVS_TAUTO_COUNT>
1

> <PUBCHEM_CONFORMER_ID>
00001B7600000001

> <PUBCHEM_MMFF94_ENERGY>
48.4369

> <PUBCHEM_FEATURE_SELFOVERLAP>
20.297

> <PUBCHEM_SHAPE_FINGERPRINT>
10498660 4 18337673126152271469
11132069 177 18272085028572459909
11471102 22 14979960276469730598
11543360 7 15719689700962808325
12236239 1 17775570818701336458
12251169 10 15267059237871031800
12346645 44 18341050800023322107
12500047 106 18334297522670949310
12507557 5 17274822433002890301
12788726 201 17054404273591916114
13538477 17 17988082184018703554
13764800 53 18340475742799647819
13965767 371 17627508568460656196
14252887 29 15195294148771270448
14739800 52 18266476312939536808
14943859 89 18407759231353238378
15209294 21 18060144202558573048
15775835 57 18201719574002186360
16945 1 18410856542977112423
18186145 218 17749661982481059803
19862831 5 5184345218047155980
200 152 15769781225888869611
20233049 118 18408888438596227024
20374829 77 9727636098351952440
20510252 161 18334571360916077145
20645477 56 18408882902388306156
20645477 70 16733250327516093966
21524375 3 18343582962190510387
21713013 43 14707510082747595525
22926399 65 18334857216780483096
23048698 100 17132116848576542256
23402539 116 18335427837307930086
23402655 69 16588020246801422889
23557571 272 18114457842886067710
23559900 14 18187640332726363022
25 1 17312818303383793686
26918003 58 14333408947798578285
4028521 119 18114181955751616249
474 4 17202195206327486140
7364860 26 18046629189897183151
77492 1 17704073975461835330

> <PUBCHEM_SHAPE_MULTIPOLES>
308.77
8.69
1.63
1.01
3.37
0.11
0
-4.08
0
-1.11
0
0.84
0.05
0

> <PUBCHEM_SHAPE_SELFOVERLAP>
655.973

> <PUBCHEM_SHAPE_VOLUME>
177.6

> <PUBCHEM_COORDINATE_TYPE>
2
5
10

$$$$

