14367555
  -OEChem-07051213103D

 38 38  0     1  0  0  0  0  0999 V2000
   -1.5116    0.1596   -2.0544 O   0  0  0  0  0  0  0  0  0  0  0  0
   -0.1506    1.8756    0.6785 C   0  0  2  0  0  0  0  0  0  0  0  0
    0.8949    0.8223    0.4652 C   0  0  0  0  0  0  0  0  0  0  0  0
    1.8614    1.0653   -0.6662 C   0  0  0  0  0  0  0  0  0  0  0  0
   -1.0213    2.0051   -0.5789 C   0  0  0  0  0  0  0  0  0  0  0  0
    0.9673   -0.2755    1.2370 C   0  0  0  0  0  0  0  0  0  0  0  0
    1.9963   -1.3541    1.0586 C   0  0  0  0  0  0  0  0  0  0  0  0
    0.5122    3.2047    1.0468 C   0  0  0  0  0  0  0  0  0  0  0  0
    2.9628   -1.1111   -0.0727 C   0  0  0  0  0  0  0  0  0  0  0  0
    2.8905   -0.0134   -0.8444 C   0  0  0  0  0  0  0  0  0  0  0  0
   -1.6959    0.6995   -0.9672 C   0  0  0  0  0  0  0  0  0  0  0  0
    4.0084   -2.1655   -0.2868 C   0  0  0  0  0  0  0  0  0  0  0  0
   -2.6559    0.1451    0.0299 C   0  0  0  0  0  0  0  0  0  0  0  0
   -2.9043   -1.1631    0.2163 C   0  0  0  0  0  0  0  0  0  0  0  0
   -3.9262   -1.5944    1.2358 C   0  0  0  0  0  0  0  0  0  0  0  0
   -2.2281   -2.3002   -0.4974 C   0  0  0  0  0  0  0  0  0  0  0  0
   -0.7912    1.5933    1.5244 H   0  0  0  0  0  0  0  0  0  0  0  0
    2.4033    2.0031   -0.5044 H   0  0  0  0  0  0  0  0  0  0  0  0
    1.3263    1.1485   -1.6173 H   0  0  0  0  0  0  0  0  0  0  0  0
   -1.8119    2.7478   -0.4097 H   0  0  0  0  0  0  0  0  0  0  0  0
   -0.4549    2.3766   -1.4406 H   0  0  0  0  0  0  0  0  0  0  0  0
    0.2534   -0.4192    2.0439 H   0  0  0  0  0  0  0  0  0  0  0  0
    2.5580   -1.4523    1.9952 H   0  0  0  0  0  0  0  0  0  0  0  0
    1.4732   -2.3021    0.8854 H   0  0  0  0  0  0  0  0  0  0  0  0
   -0.2502    3.9288    1.3556 H   0  0  0  0  0  0  0  0  0  0  0  0
    1.2115    3.0859    1.8818 H   0  0  0  0  0  0  0  0  0  0  0  0
    1.0521    3.6505    0.2048 H   0  0  0  0  0  0  0  0  0  0  0  0
    3.6050    0.1278   -1.6515 H   0  0  0  0  0  0  0  0  0  0  0  0
    3.5363   -3.1292   -0.5037 H   0  0  0  0  0  0  0  0  0  0  0  0
    4.6263   -2.2748    0.6103 H   0  0  0  0  0  0  0  0  0  0  0  0
    4.6735   -1.9241   -1.1226 H   0  0  0  0  0  0  0  0  0  0  0  0
   -3.1633    0.8873    0.6406 H   0  0  0  0  0  0  0  0  0  0  0  0
   -3.4531   -2.2004    2.0153 H   0  0  0  0  0  0  0  0  0  0  0  0
   -4.7087   -2.1920    0.7565 H   0  0  0  0  0  0  0  0  0  0  0  0
   -4.4123   -0.7439    1.7255 H   0  0  0  0  0  0  0  0  0  0  0  0
   -1.3100   -2.0057   -1.0105 H   0  0  0  0  0  0  0  0  0  0  0  0
   -2.9095   -2.7452   -1.2292 H   0  0  0  0  0  0  0  0  0  0  0  0
   -1.9401   -3.0771    0.2197 H   0  0  0  0  0  0  0  0  0  0  0  0
  1 11  2  0  0  0  0
  2  3  1  0  0  0  0
  2  5  1  0  0  0  0
  2  8  1  0  0  0  0
  2 17  1  0  0  0  0
  3  4  1  0  0  0  0
  3  6  2  0  0  0  0
  4 10  1  0  0  0  0
  4 18  1  0  0  0  0
  4 19  1  0  0  0  0
  5 11  1  0  0  0  0
  5 20  1  0  0  0  0
  5 21  1  0  0  0  0
  6  7  1  0  0  0  0
  6 22  1  0  0  0  0
  7  9  1  0  0  0  0
  7 23  1  0  0  0  0
  7 24  1  0  0  0  0
  8 25  1  0  0  0  0
  8 26  1  0  0  0  0
  8 27  1  0  0  0  0
  9 10  2  0  0  0  0
  9 12  1  0  0  0  0
 10 28  1  0  0  0  0
 11 13  1  0  0  0  0
 12 29  1  0  0  0  0
 12 30  1  0  0  0  0
 12 31  1  0  0  0  0
 13 14  2  0  0  0  0
 13 32  1  0  0  0  0
 14 15  1  0  0  0  0
 14 16  1  0  0  0  0
 15 33  1  0  0  0  0
 15 34  1  0  0  0  0
 15 35  1  0  0  0  0
 16 36  1  0  0  0  0
 16 37  1  0  0  0  0
 16 38  1  0  0  0  0
M  END
> <PUBCHEM_COMPOUND_CID>
14367555

> <PUBCHEM_CONFORMER_RMSD>
0.6

> <PUBCHEM_CONFORMER_DIVERSEORDER>
2
19
32
25
66
24
44
39
38
55
37
47
11
62
33
28
27
46
21
6
63
43
16
26
57
64
29
15
41
13
3
61
23
1
52
18
5
50
14
48
59
49
8
65
12
17
70
31
30
51
56
69
35
60
10
20
7
45
67
54
40
58
68
22
36
71
4
42
53
9
73
72
34

> <PUBCHEM_MMFF94_PARTIAL_CHARGES>
18
1 -0.57
10 -0.29
11 0.49
12 0.14
13 -0.14
14 -0.28
15 0.14
16 0.14
2 0.14
22 0.15
28 0.15
3 -0.28
32 0.15
4 0.28
5 0.06
6 -0.29
7 0.28
9 -0.28

> <PUBCHEM_EFFECTIVE_ROTOR_COUNT>
4.4

> <PUBCHEM_PHARMACOPHORE_FEATURES>
4
1 1 acceptor
1 8 hydrophobe
3 14 15 16 hydrophobe
6 3 4 6 7 9 10 rings

> <PUBCHEM_HEAVY_ATOM_COUNT>
16

> <PUBCHEM_ATOM_DEF_STEREO_COUNT>
1

> <PUBCHEM_ATOM_UDEF_STEREO_COUNT>
0

> <PUBCHEM_BOND_DEF_STEREO_COUNT>
0

> <PUBCHEM_BOND_UDEF_STEREO_COUNT>
0

> <PUBCHEM_ISOTOPIC_ATOM_COUNT>
0

> <PUBCHEM_COMPONENT_COUNT>
1

> <PUBCHEM_CACTVS_TAUTO_COUNT>
5

> <PUBCHEM_CONFORMER_ID>
00DB3B4300000002

> <PUBCHEM_MMFF94_ENERGY>
17.2919

> <PUBCHEM_FEATURE_SELFOVERLAP>
20.297

> <PUBCHEM_SHAPE_FINGERPRINT>
12400797 292 18060132129078248796
12506688 2 18411413973417341691
12553582 1 18334575720017875022
13533116 47 18049713033020595203
14115302 16 18199471141374439029
14251745 187 17698436629038008578
14863182 85 17045415675571215911
15276787 5 14779538002455048319
15375462 189 18336818680772709347
15906896 17 17828202430321068265
16752209 62 18123768705361838053
16945 1 17843419606729766724
19766037 51 18272929401820689363
20291156 8 18412539920595503546
20361792 2 18041573493413502621
20645476 183 17839185460476208093
20645477 70 18122359986396068975
21452121 199 18338814350644273064
21524375 3 9583509936618941556
21634736 98 18272081721605994886
21713013 43 17775284975827645855
21731516 1 18337115579161719799
23557571 272 18264505038513219792
23559900 14 18119543274161315018
2748010 2 18127715763111025709
3323516 105 18195236729049172452
458136 41 17835229052530540961
568465 68 17022903471149846134
576247 118 18186515518633830236
7364860 26 18046064861100582217
81228 2 17754757231128893104
83771 10 18339635659764940643

> <PUBCHEM_SHAPE_MULTIPOLES>
323.4
5.96
2.98
1.36
0.04
1.16
-0.18
-5.44
0.06
0.14
0.64
-0.36
0.11
0.48

> <PUBCHEM_SHAPE_SELFOVERLAP>
643.756

> <PUBCHEM_SHAPE_VOLUME>
192.2

> <PUBCHEM_COORDINATE_TYPE>
2
5
10

$$$$

