13465
  -OEChem-06261214303D

 40 41  0     0  0  0  0  0  0999 V2000
   -3.8434   -1.7578    0.1514 N   0  0  0  0  0  0  0  0  0  0  0  0
   -1.6142   -1.3400    1.0801 C   0  0  0  0  0  0  0  0  0  0  0  0
   -2.4173   -1.7478   -0.1544 C   0  0  0  0  0  0  0  0  0  0  0  0
    0.6150   -0.3092    0.3194 C   0  0  0  0  0  0  0  0  0  0  0  0
   -0.1360   -1.3320    0.7848 C   0  0  0  0  0  0  0  0  0  0  0  0
    2.0657   -0.4923    0.0886 C   0  0  0  0  0  0  0  0  0  0  0  0
   -0.0672    0.9867    0.0648 C   0  0  0  0  0  0  0  0  0  0  0  0
   -4.6179   -2.1754   -1.0184 C   0  0  0  0  0  0  0  0  0  0  0  0
   -4.2820   -0.4374    0.6061 C   0  0  0  0  0  0  0  0  0  0  0  0
    2.9479   -0.2340    1.1209 C   0  0  0  0  0  0  0  0  0  0  0  0
   -0.5966    1.2255   -1.1862 C   0  0  0  0  0  0  0  0  0  0  0  0
    2.5002   -0.9172   -1.1527 C   0  0  0  0  0  0  0  0  0  0  0  0
   -0.1494    1.9080    1.0876 C   0  0  0  0  0  0  0  0  0  0  0  0
    4.3150   -0.4069    0.9038 C   0  0  0  0  0  0  0  0  0  0  0  0
   -1.2373    2.4412   -1.4253 C   0  0  0  0  0  0  0  0  0  0  0  0
    3.8672   -1.0903   -1.3699 C   0  0  0  0  0  0  0  0  0  0  0  0
   -0.7902    3.1237    0.8488 C   0  0  0  0  0  0  0  0  0  0  0  0
    4.7745   -0.8351   -0.3416 C   0  0  0  0  0  0  0  0  0  0  0  0
   -1.3342    3.3902   -0.4077 C   0  0  0  0  0  0  0  0  0  0  0  0
   -1.7966   -2.0454    1.9011 H   0  0  0  0  0  0  0  0  0  0  0  0
   -1.8950   -0.3562    1.4640 H   0  0  0  0  0  0  0  0  0  0  0  0
   -2.2055   -1.0826   -0.9992 H   0  0  0  0  0  0  0  0  0  0  0  0
   -2.1035   -2.7552   -0.4586 H   0  0  0  0  0  0  0  0  0  0  0  0
    0.3558   -2.2884    0.9648 H   0  0  0  0  0  0  0  0  0  0  0  0
   -4.3101   -3.1742   -1.3475 H   0  0  0  0  0  0  0  0  0  0  0  0
   -4.5015   -1.4831   -1.8603 H   0  0  0  0  0  0  0  0  0  0  0  0
   -5.6834   -2.2433   -0.7715 H   0  0  0  0  0  0  0  0  0  0  0  0
   -3.9473   -0.2228    1.6254 H   0  0  0  0  0  0  0  0  0  0  0  0
   -5.3771   -0.3976    0.6605 H   0  0  0  0  0  0  0  0  0  0  0  0
   -3.9565    0.3678   -0.0628 H   0  0  0  0  0  0  0  0  0  0  0  0
    2.6025    0.0991    2.0957 H   0  0  0  0  0  0  0  0  0  0  0  0
   -0.5234    0.4965   -1.9882 H   0  0  0  0  0  0  0  0  0  0  0  0
    1.8034   -1.1203   -1.9613 H   0  0  0  0  0  0  0  0  0  0  0  0
    0.2694    1.7111    2.0705 H   0  0  0  0  0  0  0  0  0  0  0  0
    5.0215   -0.2084    1.7045 H   0  0  0  0  0  0  0  0  0  0  0  0
   -1.6603    2.6490   -2.4037 H   0  0  0  0  0  0  0  0  0  0  0  0
    4.2252   -1.4239   -2.3395 H   0  0  0  0  0  0  0  0  0  0  0  0
   -0.8661    3.8626    1.6411 H   0  0  0  0  0  0  0  0  0  0  0  0
    5.8389   -0.9699   -0.5106 H   0  0  0  0  0  0  0  0  0  0  0  0
   -1.8333    4.3367   -0.5937 H   0  0  0  0  0  0  0  0  0  0  0  0
  1  3  1  0  0  0  0
  1  8  1  0  0  0  0
  1  9  1  0  0  0  0
  2  3  1  0  0  0  0
  2  5  1  0  0  0  0
  2 20  1  0  0  0  0
  2 21  1  0  0  0  0
  3 22  1  0  0  0  0
  3 23  1  0  0  0  0
  4  5  2  0  0  0  0
  4  6  1  0  0  0  0
  4  7  1  0  0  0  0
  5 24  1  0  0  0  0
  6 10  2  0  0  0  0
  6 12  1  0  0  0  0
  7 11  2  0  0  0  0
  7 13  1  0  0  0  0
  8 25  1  0  0  0  0
  8 26  1  0  0  0  0
  8 27  1  0  0  0  0
  9 28  1  0  0  0  0
  9 29  1  0  0  0  0
  9 30  1  0  0  0  0
 10 14  1  0  0  0  0
 10 31  1  0  0  0  0
 11 15  1  0  0  0  0
 11 32  1  0  0  0  0
 12 16  2  0  0  0  0
 12 33  1  0  0  0  0
 13 17  2  0  0  0  0
 13 34  1  0  0  0  0
 14 18  2  0  0  0  0
 14 35  1  0  0  0  0
 15 19  2  0  0  0  0
 15 36  1  0  0  0  0
 16 18  1  0  0  0  0
 16 37  1  0  0  0  0
 17 19  1  0  0  0  0
 17 38  1  0  0  0  0
 18 39  1  0  0  0  0
 19 40  1  0  0  0  0
M  END
> <PUBCHEM_COMPOUND_CID>
13465

> <PUBCHEM_CONFORMER_RMSD>
0.6

> <PUBCHEM_CONFORMER_DIVERSEORDER>
6
17
22
19
24
16
21
18
23
25
20
10
4
11
3
12
9
15
14
5
2
7
1
8
13

> <PUBCHEM_MMFF94_PARTIAL_CHARGES>
30
1 -0.81
10 -0.15
11 -0.15
12 -0.15
13 -0.15
14 -0.15
15 -0.15
16 -0.15
17 -0.15
18 -0.15
19 -0.15
2 0.14
24 0.15
3 0.27
31 0.15
32 0.15
33 0.15
34 0.15
35 0.15
36 0.15
37 0.15
38 0.15
39 0.15
4 -0.06
40 0.15
5 -0.29
6 0.03
7 0.03
8 0.27
9 0.27

> <PUBCHEM_EFFECTIVE_ROTOR_COUNT>
5

> <PUBCHEM_PHARMACOPHORE_FEATURES>
3
1 1 cation
6 6 10 12 14 16 18 rings
6 7 11 13 15 17 19 rings

> <PUBCHEM_HEAVY_ATOM_COUNT>
19

> <PUBCHEM_ATOM_DEF_STEREO_COUNT>
0

> <PUBCHEM_ATOM_UDEF_STEREO_COUNT>
0

> <PUBCHEM_BOND_DEF_STEREO_COUNT>
0

> <PUBCHEM_BOND_UDEF_STEREO_COUNT>
0

> <PUBCHEM_ISOTOPIC_ATOM_COUNT>
0

> <PUBCHEM_COMPONENT_COUNT>
1

> <PUBCHEM_CACTVS_TAUTO_COUNT>
1

> <PUBCHEM_CONFORMER_ID>
0000349900000006

> <PUBCHEM_MMFF94_ENERGY>
60.789

> <PUBCHEM_FEATURE_SELFOVERLAP>
15.223

> <PUBCHEM_SHAPE_FINGERPRINT>
104564 63 18270678779012341211
10764073 3 15651232045221935435
116883 192 18409443687282604020
11833330 49 18272652363260534196
12173636 292 17762054736936358068
12553582 1 18343300349427515075
12788726 201 18272087214652830370
13134695 92 18192994820803340541
13149001 5 17842274766186253003
13681431 1 18124584284911593961
13899415 180 18265632991266892663
14181834 199 17975693892266820339
14347329 18 16197937711509020127
15420108 30 17250353695006099480
15848700 24 18410296865298309743
16752209 62 18131355236677376066
17357779 13 18336559247831847671
17980427 23 15574980768123365507
1813 80 18337384950931243903
20510252 161 18412547638983699880
20600515 1 18201158733020080274
21285901 2 18333723645856653263
21330990 113 17968362559149479303
21524375 3 17552631865542793464
22620623 9 18263915695479225743
23402539 116 18412547617140098182
23419403 2 18124063172203403036
23557571 272 18409448098799416938
23558518 356 17914334833993435794
23559900 14 18119248613529497358
25147074 1 17773879895010601274
283562 15 18342177795131280626
3027735 51 18269273628542792891
314173 85 18408881815408418883
350125 39 17981598583204180258
6049 1 18040715918068703904
621550 34 18040443153264700554
6442390 28 17613420556281281273
68521 5 18413388756477855225
7164475 11 18272374234569619306
7364860 26 17904198127406859057
7495541 125 17559101083066283083
81228 2 18270103716913535320
9971528 1 18189056404459793635

> <PUBCHEM_SHAPE_MULTIPOLES>
386.03
8.05
3.3
1.37
2.2
3.17
-0.2
-6.83
-0.95
-3.77
-0.34
0.28
0.15
0.29

> <PUBCHEM_SHAPE_SELFOVERLAP>
810.905

> <PUBCHEM_SHAPE_VOLUME>
217.9

> <PUBCHEM_COORDINATE_TYPE>
2
5
10

$$$$

