5282307
  -OEChem-07051213042D

102101  0     1  0  0  0  0  0999 V2000
    6.3301   -6.5670    0.0000 P   0  0  3  0  0  0  0  0  0  0  0  0
    5.4641   -7.0670    0.0000 O   0  0  0  0  0  0  0  0  0  0  0  0
    9.7942   -4.5670    0.0000 O   0  0  0  0  0  0  0  0  0  0  0  0
    7.1962   -6.0670    0.0000 O   0  0  0  0  0  0  0  0  0  0  0  0
    9.7942   -6.5670    0.0000 O   0  0  0  0  0  0  0  0  0  0  0  0
    8.9282   -3.0670    0.0000 O   0  0  0  0  0  0  0  0  0  0  0  0
    5.8301   -5.7010    0.0000 O   0  5  0  0  0  0  0  0  0  0  0  0
    6.8301   -7.4330    0.0000 O   0  0  0  0  0  0  0  0  0  0  0  0
   10.6603   -5.0670    0.0000 O   0  0  0  0  0  0  0  0  0  0  0  0
   14.1244   -5.0670    0.0000 O   0  0  0  0  0  0  0  0  0  0  0  0
   17.5885   -6.0670    0.0000 O   0  0  0  0  0  0  0  0  0  0  0  0
    2.8660   -6.5670    0.0000 N   0  3  0  0  0  0  0  0  0  0  0  0
   13.2583    1.4330    0.0000 C   0  0  0  0  0  0  0  0  0  0  0  0
   13.2583    2.4330    0.0000 C   0  0  0  0  0  0  0  0  0  0  0  0
   12.3923    0.9330    0.0000 C   0  0  0  0  0  0  0  0  0  0  0  0
   14.1244    2.9330    0.0000 C   0  0  0  0  0  0  0  0  0  0  0  0
   12.3923   -0.0670    0.0000 C   0  0  0  0  0  0  0  0  0  0  0  0
   14.1244    3.9330    0.0000 C   0  0  0  0  0  0  0  0  0  0  0  0
   11.5263   -0.5670    0.0000 C   0  0  0  0  0  0  0  0  0  0  0  0
   14.9904    4.4330    0.0000 C   0  0  0  0  0  0  0  0  0  0  0  0
    3.7320   -7.0670    0.0000 C   0  0  0  0  0  0  0  0  0  0  0  0
   11.5263   -1.5670    0.0000 C   0  0  0  0  0  0  0  0  0  0  0  0
   14.9904    5.4330    0.0000 C   0  0  0  0  0  0  0  0  0  0  0  0
   10.6603   -2.0670    0.0000 C   0  0  0  0  0  0  0  0  0  0  0  0
   15.8564    5.9330    0.0000 C   0  0  0  0  0  0  0  0  0  0  0  0
    2.0000   -6.0670    0.0000 C   0  0  0  0  0  0  0  0  0  0  0  0
    2.3660   -7.4330    0.0000 C   0  0  0  0  0  0  0  0  0  0  0  0
    3.3660   -5.7010    0.0000 C   0  0  0  0  0  0  0  0  0  0  0  0
    4.5981   -6.5670    0.0000 C   0  0  0  0  0  0  0  0  0  0  0  0
   15.8564    6.9330    0.0000 C   0  0  0  0  0  0  0  0  0  0  0  0
   10.6603   -3.0670    0.0000 C   0  0  0  0  0  0  0  0  0  0  0  0
   16.7224    7.4330    0.0000 C   0  0  0  0  0  0  0  0  0  0  0  0
    9.7942   -3.5670    0.0000 C   0  0  0  0  0  0  0  0  0  0  0  0
    8.9282   -6.0670    0.0000 C   0  0  3  0  0  0  0  0  0  0  0  0
    8.9282   -5.0670    0.0000 C   0  0  0  0  0  0  0  0  0  0  0  0
    8.0622   -6.5670    0.0000 C   0  0  0  0  0  0  0  0  0  0  0  0
   10.6603   -6.0670    0.0000 C   0  0  0  0  0  0  0  0  0  0  0  0
   11.5263   -6.5670    0.0000 C   0  0  0  0  0  0  0  0  0  0  0  0
   12.3923   -6.0670    0.0000 C   0  0  0  0  0  0  0  0  0  0  0  0
   13.2583   -6.5670    0.0000 C   0  0  0  0  0  0  0  0  0  0  0  0
   14.1244   -6.0670    0.0000 C   0  0  0  0  0  0  0  0  0  0  0  0
   14.9904   -6.5670    0.0000 C   0  0  0  0  0  0  0  0  0  0  0  0
   15.8564   -6.0670    0.0000 C   0  0  0  0  0  0  0  0  0  0  0  0
   16.7224   -6.5670    0.0000 C   0  0  0  0  0  0  0  0  0  0  0  0
   13.4704    0.8504    0.0000 H   0  0  0  0  0  0  0  0  0  0  0  0
   13.8689    1.5407    0.0000 H   0  0  0  0  0  0  0  0  0  0  0  0
   13.0463    3.0156    0.0000 H   0  0  0  0  0  0  0  0  0  0  0  0
   12.6477    2.3253    0.0000 H   0  0  0  0  0  0  0  0  0  0  0  0
   12.1803    1.5156    0.0000 H   0  0  0  0  0  0  0  0  0  0  0  0
   11.7817    0.8254    0.0000 H   0  0  0  0  0  0  0  0  0  0  0  0
   14.3364    2.3504    0.0000 H   0  0  0  0  0  0  0  0  0  0  0  0
   14.7349    3.0407    0.0000 H   0  0  0  0  0  0  0  0  0  0  0  0
   12.6044   -0.6496    0.0000 H   0  0  0  0  0  0  0  0  0  0  0  0
   13.0029    0.0407    0.0000 H   0  0  0  0  0  0  0  0  0  0  0  0
   13.9123    4.5156    0.0000 H   0  0  0  0  0  0  0  0  0  0  0  0
   13.5138    3.8254    0.0000 H   0  0  0  0  0  0  0  0  0  0  0  0
   11.3142    0.0156    0.0000 H   0  0  0  0  0  0  0  0  0  0  0  0
   10.9157   -0.6746    0.0000 H   0  0  0  0  0  0  0  0  0  0  0  0
   15.2024    3.8504    0.0000 H   0  0  0  0  0  0  0  0  0  0  0  0
   15.6010    4.5407    0.0000 H   0  0  0  0  0  0  0  0  0  0  0  0
    3.3335   -7.5419    0.0000 H   0  0  0  0  0  0  0  0  0  0  0  0
    4.1306   -7.5419    0.0000 H   0  0  0  0  0  0  0  0  0  0  0  0
   11.7383   -2.1496    0.0000 H   0  0  0  0  0  0  0  0  0  0  0  0
   12.1369   -1.4593    0.0000 H   0  0  0  0  0  0  0  0  0  0  0  0
   14.7783    6.0156    0.0000 H   0  0  0  0  0  0  0  0  0  0  0  0
   14.3798    5.3254    0.0000 H   0  0  0  0  0  0  0  0  0  0  0  0
   10.4482   -1.4844    0.0000 H   0  0  0  0  0  0  0  0  0  0  0  0
   10.0497   -2.1747    0.0000 H   0  0  0  0  0  0  0  0  0  0  0  0
   16.0685    5.3504    0.0000 H   0  0  0  0  0  0  0  0  0  0  0  0
   16.4670    6.0407    0.0000 H   0  0  0  0  0  0  0  0  0  0  0  0
    3.9030   -6.0110    0.0000 H   0  0  0  0  0  0  0  0  0  0  0  0
    3.6760   -5.1640    0.0000 H   0  0  0  0  0  0  0  0  0  0  0  0
    2.8291   -5.3910    0.0000 H   0  0  0  0  0  0  0  0  0  0  0  0
    1.8291   -7.1230    0.0000 H   0  0  0  0  0  0  0  0  0  0  0  0
    2.0560   -7.9700    0.0000 H   0  0  0  0  0  0  0  0  0  0  0  0
    2.9030   -7.7430    0.0000 H   0  0  0  0  0  0  0  0  0  0  0  0
    2.3100   -5.5300    0.0000 H   0  0  0  0  0  0  0  0  0  0  0  0
    1.4631   -5.7570    0.0000 H   0  0  0  0  0  0  0  0  0  0  0  0
    1.6900   -6.6039    0.0000 H   0  0  0  0  0  0  0  0  0  0  0  0
    4.9966   -6.0920    0.0000 H   0  0  0  0  0  0  0  0  0  0  0  0
    4.1996   -6.0920    0.0000 H   0  0  0  0  0  0  0  0  0  0  0  0
   15.6444    7.5156    0.0000 H   0  0  0  0  0  0  0  0  0  0  0  0
   15.2458    6.8254    0.0000 H   0  0  0  0  0  0  0  0  0  0  0  0
   10.8723   -3.6496    0.0000 H   0  0  0  0  0  0  0  0  0  0  0  0
   11.2708   -2.9593    0.0000 H   0  0  0  0  0  0  0  0  0  0  0  0
   17.0324    6.8961    0.0000 H   0  0  0  0  0  0  0  0  0  0  0  0
   17.2594    7.7430    0.0000 H   0  0  0  0  0  0  0  0  0  0  0  0
   16.4124    7.9700    0.0000 H   0  0  0  0  0  0  0  0  0  0  0  0
    9.4651   -5.7570    0.0000 H   0  0  0  0  0  0  0  0  0  0  0  0
    8.7162   -4.4844    0.0000 H   0  0  0  0  0  0  0  0  0  0  0  0
    8.3176   -5.1746    0.0000 H   0  0  0  0  0  0  0  0  0  0  0  0
    7.6636   -7.0419    0.0000 H   0  0  0  0  0  0  0  0  0  0  0  0
    8.4607   -7.0419    0.0000 H   0  0  0  0  0  0  0  0  0  0  0  0
   11.1278   -7.0419    0.0000 H   0  0  0  0  0  0  0  0  0  0  0  0
   11.9248   -7.0419    0.0000 H   0  0  0  0  0  0  0  0  0  0  0  0
   12.7908   -5.5920    0.0000 H   0  0  0  0  0  0  0  0  0  0  0  0
   11.9938   -5.5920    0.0000 H   0  0  0  0  0  0  0  0  0  0  0  0
   12.8598   -7.0419    0.0000 H   0  0  0  0  0  0  0  0  0  0  0  0
   13.6569   -7.0419    0.0000 H   0  0  0  0  0  0  0  0  0  0  0  0
   14.9904   -7.1870    0.0000 H   0  0  0  0  0  0  0  0  0  0  0  0
   15.8564   -5.4470    0.0000 H   0  0  0  0  0  0  0  0  0  0  0  0
   16.7224   -7.1870    0.0000 H   0  0  0  0  0  0  0  0  0  0  0  0
  1  2  1  0  0  0  0
  1  4  1  0  0  0  0
  1  7  1  0  0  0  0
  1  8  2  0  0  0  0
  2 29  1  0  0  0  0
  3 33  1  0  0  0  0
  3 35  1  0  0  0  0
  4 36  1  0  0  0  0
  5 34  1  0  0  0  0
  5 37  1  0  0  0  0
  6 33  2  0  0  0  0
  9 37  2  0  0  0  0
 10 41  2  0  0  0  0
 11 44  2  0  0  0  0
 12 21  1  0  0  0  0
 12 26  1  0  0  0  0
 12 27  1  0  0  0  0
 12 28  1  0  0  0  0
 13 14  1  0  0  0  0
 13 15  1  0  0  0  0
 13 45  1  0  0  0  0
 13 46  1  0  0  0  0
 14 16  1  0  0  0  0
 14 47  1  0  0  0  0
 14 48  1  0  0  0  0
 15 17  1  0  0  0  0
 15 49  1  0  0  0  0
 15 50  1  0  0  0  0
 16 18  1  0  0  0  0
 16 51  1  0  0  0  0
 16 52  1  0  0  0  0
 17 19  1  0  0  0  0
 17 53  1  0  0  0  0
 17 54  1  0  0  0  0
 18 20  1  0  0  0  0
 18 55  1  0  0  0  0
 18 56  1  0  0  0  0
 19 22  1  0  0  0  0
 19 57  1  0  0  0  0
 19 58  1  0  0  0  0
 20 23  1  0  0  0  0
 20 59  1  0  0  0  0
 20 60  1  0  0  0  0
 21 29  1  0  0  0  0
 21 61  1  0  0  0  0
 21 62  1  0  0  0  0
 22 24  1  0  0  0  0
 22 63  1  0  0  0  0
 22 64  1  0  0  0  0
 23 25  1  0  0  0  0
 23 65  1  0  0  0  0
 23 66  1  0  0  0  0
 24 31  1  0  0  0  0
 24 67  1  0  0  0  0
 24 68  1  0  0  0  0
 25 30  1  0  0  0  0
 25 69  1  0  0  0  0
 25 70  1  0  0  0  0
 26 77  1  0  0  0  0
 26 78  1  0  0  0  0
 26 79  1  0  0  0  0
 27 74  1  0  0  0  0
 27 75  1  0  0  0  0
 27 76  1  0  0  0  0
 28 71  1  0  0  0  0
 28 72  1  0  0  0  0
 28 73  1  0  0  0  0
 29 80  1  0  0  0  0
 29 81  1  0  0  0  0
 30 32  1  0  0  0  0
 30 82  1  0  0  0  0
 30 83  1  0  0  0  0
 31 33  1  0  0  0  0
 31 84  1  0  0  0  0
 31 85  1  0  0  0  0
 32 86  1  0  0  0  0
 32 87  1  0  0  0  0
 32 88  1  0  0  0  0
 34 35  1  0  0  0  0
 34 36  1  0  0  0  0
 34 89  1  0  0  0  0
 35 90  1  0  0  0  0
 35 91  1  0  0  0  0
 36 92  1  0  0  0  0
 36 93  1  0  0  0  0
 37 38  1  0  0  0  0
 38 39  1  0  0  0  0
 38 94  1  0  0  0  0
 38 95  1  0  0  0  0
 39 40  1  0  0  0  0
 39 96  1  0  0  0  0
 39 97  1  0  0  0  0
 40 41  1  0  0  0  0
 40 98  1  0  0  0  0
 40 99  1  0  0  0  0
 41 42  1  0  0  0  0
 42 43  2  0  0  0  0
 42100  1  0  0  0  0
 43 44  1  0  0  0  0
 43101  1  0  0  0  0
 44102  1  0  0  0  0
M  CHG  2   7  -1  12   1
M  END
> <PUBCHEM_COMPOUND_CID>
5282307

> <PUBCHEM_COMPOUND_CANONICALIZED>
1

> <PUBCHEM_CACTVS_COMPLEXITY>
863

> <PUBCHEM_CACTVS_HBOND_ACCEPTOR>
10

> <PUBCHEM_CACTVS_HBOND_DONOR>
0

> <PUBCHEM_CACTVS_ROTATABLE_BOND>
32

> <PUBCHEM_CACTVS_SUBSKEYS>
AAADcfB+PAIAAAAAAAAAAAAAAAAAAAAAAAAAAAAAAAAAAAAAAAAAHgAAACAACBThgAYCCAMABRCIQKjSiIAAAAAgAAAICAEIAEgDABIAAQACAAAFgAAaAYOIzqCgAAAAAAAAAAAAAAAAAAAAAAAAAAAAAA==

> <PUBCHEM_IUPAC_OPENEYE_NAME>
[2-[(E)-5,8-dioxooct-6-enoyl]oxy-3-hexadecanoyloxy-propyl] 2-(trimethylammonio)ethyl phosphate

> <PUBCHEM_IUPAC_CAS_NAME>
[3-(1-oxohexadecoxy)-2-[(E)-1,5,8-trioxooct-6-enoxy]propyl] 2-(trimethylammonio)ethyl phosphate

> <PUBCHEM_IUPAC_NAME>
[2-[(E)-5,8-dioxooct-6-enoyl]oxy-3-hexadecanoyloxypropyl] 2-(trimethylazaniumyl)ethyl phosphate

> <PUBCHEM_IUPAC_SYSTEMATIC_NAME>
[2-[(E)-5,8-bis(oxidanylidene)oct-6-enoyl]oxy-3-hexadecanoyloxy-propyl] 2-(trimethylazaniumyl)ethyl phosphate

> <PUBCHEM_IUPAC_TRADITIONAL_NAME>
[2-[(E)-5,8-diketooct-6-enoyl]oxy-3-hexadecanoyloxy-propyl] 2-(trimethylammonio)ethyl phosphate

> <PUBCHEM_IUPAC_INCHI>
InChI=1S/C32H58NO10P/c1-5-6-7-8-9-10-11-12-13-14-15-16-17-22-31(36)40-27-30(28-42-44(38,39)41-26-24-33(2,3)4)43-32(37)23-18-20-29(35)21-19-25-34/h19,21,25,30H,5-18,20,22-24,26-28H2,1-4H3/b21-19+

> <PUBCHEM_IUPAC_INCHIKEY>
VZSPQCMFLSGTPO-XUTLUUPISA-N

> <PUBCHEM_XLOGP3_AA>
5.8

> <PUBCHEM_EXACT_MASS>
647.379834

> <PUBCHEM_MOLECULAR_FORMULA>
C32H58NO10P

> <PUBCHEM_MOLECULAR_WEIGHT>
647.777382

> <PUBCHEM_OPENEYE_CAN_SMILES>
CCCCCCCCCCCCCCCC(=O)OCC(COP(=O)([O-])OCC[N+](C)(C)C)OC(=O)CCCC(=O)C=CC=O

> <PUBCHEM_OPENEYE_ISO_SMILES>
CCCCCCCCCCCCCCCC(=O)OCC(COP(=O)([O-])OCC[N+](C)(C)C)OC(=O)CCCC(=O)/C=C/C=O

> <PUBCHEM_CACTVS_TPSA>
145

> <PUBCHEM_MONOISOTOPIC_WEIGHT>
647.379834

> <PUBCHEM_TOTAL_CHARGE>
0

> <PUBCHEM_HEAVY_ATOM_COUNT>
44

> <PUBCHEM_ATOM_DEF_STEREO_COUNT>
0

> <PUBCHEM_ATOM_UDEF_STEREO_COUNT>
1

> <PUBCHEM_BOND_DEF_STEREO_COUNT>
1

> <PUBCHEM_BOND_UDEF_STEREO_COUNT>
0

> <PUBCHEM_ISOTOPIC_ATOM_COUNT>
0

> <PUBCHEM_COMPONENT_COUNT>
1

> <PUBCHEM_CACTVS_TAUTO_COUNT>
18

> <PUBCHEM_COORDINATE_TYPE>
1
5
255

> <PUBCHEM_BONDANNOTATIONS>
34  36  3

$$$$

