13659
  -OEChem-06241222392D

 38 38  0     1  0  0  0  0  0999 V2000
    3.0200    0.0000    0.0000 I   0  5  0  0  0  0  0  0  0  0  0  0
    1.6200    4.9567    0.0000 N   0  3  0  0  0  0  0  0  0  0  0  0
    4.0687    5.7931    0.0000 C   0  0  3  0  0  0  0  0  0  0  0  0
    3.5909    7.7416    0.0000 C   0  0  0  0  0  0  0  0  0  0  0  0
    4.3275    6.7590    0.0000 C   0  0  3  0  0  0  0  0  0  0  0  0
    2.5336    4.5500    0.0000 C   0  0  0  0  0  0  0  0  0  0  0  0
    5.9006    5.0343    0.0000 C   0  0  0  0  0  0  0  0  0  0  0  0
    1.7245    5.9512    0.0000 C   0  0  0  0  0  0  0  0  0  0  0  0
    6.1595    6.0002    0.0000 C   0  0  0  0  0  0  0  0  0  0  0  0
    3.8099    4.8272    0.0000 C   0  0  0  0  0  0  0  0  0  0  0  0
    3.6954    8.7362    0.0000 C   0  0  0  0  0  0  0  0  0  0  0  0
    2.6774    8.1484    0.0000 C   0  0  0  0  0  0  0  0  0  0  0  0
    0.6200    4.9567    0.0000 C   0  0  0  0  0  0  0  0  0  0  0  0
    1.1200    4.0907    0.0000 C   0  0  0  0  0  0  0  0  0  0  0  0
    4.7077    7.2488    0.0000 H   0  0  0  0  0  0  0  0  0  0  0  0
    2.1959    4.0300    0.0000 H   0  0  0  0  0  0  0  0  0  0  0  0
    2.9943    4.1351    0.0000 H   0  0  0  0  0  0  0  0  0  0  0  0
    5.6886    4.4517    0.0000 H   0  0  0  0  0  0  0  0  0  0  0  0
    6.4920    4.8478    0.0000 H   0  0  0  0  0  0  0  0  0  0  0  0
    1.6223    6.5627    0.0000 H   0  0  0  0  0  0  0  0  0  0  0  0
    1.1048    5.9323    0.0000 H   0  0  0  0  0  0  0  0  0  0  0  0
    6.7508    5.8138    0.0000 H   0  0  0  0  0  0  0  0  0  0  0  0
    6.3715    6.5828    0.0000 H   0  0  0  0  0  0  0  0  0  0  0  0
    3.2110    4.9876    0.0000 H   0  0  0  0  0  0  0  0  0  0  0  0
    3.6494    4.2283    0.0000 H   0  0  0  0  0  0  0  0  0  0  0  0
    4.4088    4.6667    0.0000 H   0  0  0  0  0  0  0  0  0  0  0  0
    4.3120    8.6714    0.0000 H   0  0  0  0  0  0  0  0  0  0  0  0
    3.7602    9.3528    0.0000 H   0  0  0  0  0  0  0  0  0  0  0  0
    2.9295    8.7148    0.0000 H   0  0  0  0  0  0  0  0  0  0  0  0
    2.1110    8.4006    0.0000 H   0  0  0  0  0  0  0  0  0  0  0  0
    2.4252    7.5820    0.0000 H   0  0  0  0  0  0  0  0  0  0  0  0
    3.0788    8.8010    0.0000 H   0  0  0  0  0  0  0  0  0  0  0  0
    0.6200    5.5767    0.0000 H   0  0  0  0  0  0  0  0  0  0  0  0
    0.0000    4.9567    0.0000 H   0  0  0  0  0  0  0  0  0  0  0  0
    0.6200    4.3367    0.0000 H   0  0  0  0  0  0  0  0  0  0  0  0
    0.5831    4.4007    0.0000 H   0  0  0  0  0  0  0  0  0  0  0  0
    0.8100    3.5537    0.0000 H   0  0  0  0  0  0  0  0  0  0  0  0
    1.6569    3.7807    0.0000 H   0  0  0  0  0  0  0  0  0  0  0  0
  2  6  1  0  0  0  0
  2  8  1  0  0  0  0
  2 13  1  0  0  0  0
  2 14  1  0  0  0  0
  3  4  1  0  0  0  0
  3  6  1  0  0  0  0
  3  7  1  0  0  0  0
  3 10  1  0  0  0  0
  4  5  1  0  0  0  0
  4 11  1  0  0  0  0
  4 12  1  0  0  0  0
  5  8  1  0  0  0  0
  5  9  1  0  0  0  0
  5 15  1  0  0  0  0
  6 16  1  0  0  0  0
  6 17  1  0  0  0  0
  7  9  1  0  0  0  0
  7 18  1  0  0  0  0
  7 19  1  0  0  0  0
  8 20  1  0  0  0  0
  8 21  1  0  0  0  0
  9 22  1  0  0  0  0
  9 23  1  0  0  0  0
 10 24  1  0  0  0  0
 10 25  1  0  0  0  0
 10 26  1  0  0  0  0
 11 27  1  0  0  0  0
 11 28  1  0  0  0  0
 11 32  1  0  0  0  0
 12 29  1  0  0  0  0
 12 30  1  0  0  0  0
 12 31  1  0  0  0  0
 13 33  1  0  0  0  0
 13 34  1  0  0  0  0
 13 35  1  0  0  0  0
 14 36  1  0  0  0  0
 14 37  1  0  0  0  0
 14 38  1  0  0  0  0
M  CHG  2   1  -1   2   1
M  END
> <PUBCHEM_COMPOUND_CID>
13659

> <PUBCHEM_COMPOUND_CANONICALIZED>
1

> <PUBCHEM_CACTVS_COMPLEXITY>
229

> <PUBCHEM_CACTVS_HBOND_ACCEPTOR>
1

> <PUBCHEM_CACTVS_HBOND_DONOR>
0

> <PUBCHEM_CACTVS_ROTATABLE_BOND>
0

> <PUBCHEM_CACTVS_SUBSKEYS>
AAADceByAAAAAgAAAAAAAAAAAAAAAYAAAAAsAAAABYAAAAAAAAAAHAAAAAAADwDBAAQCAAMAAAAAAAAAAAAAAAAAAAAAAAAIAAAAAAIAgAAEAAAAAACAAAEQgEAPgAAAAAAAAAAAAAAAAAAAAQAACAAAAA==

> <PUBCHEM_IUPAC_OPENEYE_NAME>
3,3,5,8,8-pentamethyl-3-azoniabicyclo[3.2.1]octane iodide

> <PUBCHEM_IUPAC_CAS_NAME>
3,3,5,8,8-pentamethyl-3-azoniabicyclo[3.2.1]octane iodide

> <PUBCHEM_IUPAC_NAME>
3,3,5,8,8-pentamethyl-3-azoniabicyclo[3.2.1]octane iodide

> <PUBCHEM_IUPAC_SYSTEMATIC_NAME>
3,3,5,8,8-pentamethyl-3-azoniabicyclo[3.2.1]octane iodide

> <PUBCHEM_IUPAC_TRADITIONAL_NAME>
3,3,5,8,8-pentamethyl-3-azoniabicyclo[3.2.1]octane iodide

> <PUBCHEM_IUPAC_INCHI>
InChI=1S/C12H24N.HI/c1-11(2)10-6-7-12(11,3)9-13(4,5)8-10;/h10H,6-9H2,1-5H3;1H/q+1;/p-1

> <PUBCHEM_IUPAC_INCHIKEY>
WTCYLTWABCZDFF-UHFFFAOYSA-M

> <PUBCHEM_EXACT_MASS>
309.095348

> <PUBCHEM_MOLECULAR_FORMULA>
C12H24IN

> <PUBCHEM_MOLECULAR_WEIGHT>
309.23013

> <PUBCHEM_OPENEYE_CAN_SMILES>
CC1(C2CCC1(C[N+](C2)(C)C)C)C.[I-]

> <PUBCHEM_OPENEYE_ISO_SMILES>
CC1(C2CCC1(C[N+](C2)(C)C)C)C.[I-]

> <PUBCHEM_CACTVS_TPSA>
0

> <PUBCHEM_MONOISOTOPIC_WEIGHT>
309.095348

> <PUBCHEM_TOTAL_CHARGE>
0

> <PUBCHEM_HEAVY_ATOM_COUNT>
14

> <PUBCHEM_ATOM_DEF_STEREO_COUNT>
0

> <PUBCHEM_ATOM_UDEF_STEREO_COUNT>
2

> <PUBCHEM_BOND_DEF_STEREO_COUNT>
0

> <PUBCHEM_BOND_UDEF_STEREO_COUNT>
0

> <PUBCHEM_ISOTOPIC_ATOM_COUNT>
0

> <PUBCHEM_COMPONENT_COUNT>
2

> <PUBCHEM_CACTVS_TAUTO_COUNT>
1

> <PUBCHEM_COORDINATE_TYPE>
1
5
255

> <PUBCHEM_BONDANNOTATIONS>
3  10  3
5  4  3

$$$$

