440623
  -OEChem-07051212503D

 43 46  0     1  0  0  0  0  0999 V2000
   -5.0839   -1.3837   -0.2513 O   0  0  0  0  0  0  0  0  0  0  0  0
    4.5960   -2.1583   -0.1550 O   0  0  0  0  0  0  0  0  0  0  0  0
    5.6206    0.3645    0.3909 O   0  0  0  0  0  0  0  0  0  0  0  0
   -2.2672    0.6494   -0.3125 C   0  0  2  0  0  0  0  0  0  0  0  0
   -2.8307   -0.6500    0.2999 C   0  0  2  0  0  0  0  0  0  0  0  0
   -0.8032    0.8531    0.0735 C   0  0  1  0  0  0  0  0  0  0  0  0
    0.0266   -0.3274   -0.5207 C   0  0  2  0  0  0  0  0  0  0  0  0
   -2.0846   -1.8231   -0.3263 C   0  0  0  0  0  0  0  0  0  0  0  0
   -3.3057    1.7084    0.0391 C   0  0  0  0  0  0  0  0  0  0  0  0
   -0.5643   -1.7024   -0.1034 C   0  0  0  0  0  0  0  0  0  0  0  0
   -0.2297    2.1729   -0.4440 C   0  0  0  0  0  0  0  0  0  0  0  0
   -4.2825   -0.4703   -0.1049 C   0  0  0  0  0  0  0  0  0  0  0  0
   -4.6317    0.9989   -0.2744 C   0  0  0  0  0  0  0  0  0  0  0  0
   -2.8124   -0.7377    1.8372 C   0  0  0  0  0  0  0  0  0  0  0  0
    1.5165   -0.1510   -0.2414 C   0  0  0  0  0  0  0  0  0  0  0  0
    1.1871    2.3663    0.0891 C   0  0  0  0  0  0  0  0  0  0  0  0
    2.0525    1.1327    0.0016 C   0  0  0  0  0  0  0  0  0  0  0  0
    2.4031   -1.2406   -0.3055 C   0  0  0  0  0  0  0  0  0  0  0  0
    3.4327    1.2848    0.2233 C   0  0  0  0  0  0  0  0  0  0  0  0
    3.7731   -1.0740   -0.0921 C   0  0  0  0  0  0  0  0  0  0  0  0
    4.2878    0.1876    0.1769 C   0  0  0  0  0  0  0  0  0  0  0  0
   -2.2967    0.5636   -1.4127 H   0  0  0  0  0  0  0  0  0  0  0  0
   -0.7083    0.8578    1.1671 H   0  0  0  0  0  0  0  0  0  0  0  0
   -0.0633   -0.2764   -1.6171 H   0  0  0  0  0  0  0  0  0  0  0  0
   -2.2873   -1.8666   -1.4045 H   0  0  0  0  0  0  0  0  0  0  0  0
   -2.4425   -2.7751    0.0843 H   0  0  0  0  0  0  0  0  0  0  0  0
   -3.1986    2.6187   -0.5588 H   0  0  0  0  0  0  0  0  0  0  0  0
   -3.2514    1.9946    1.0949 H   0  0  0  0  0  0  0  0  0  0  0  0
   -0.3299   -1.8984    0.9502 H   0  0  0  0  0  0  0  0  0  0  0  0
   -0.0906   -2.5076   -0.6768 H   0  0  0  0  0  0  0  0  0  0  0  0
   -0.8436    3.0238   -0.1290 H   0  0  0  0  0  0  0  0  0  0  0  0
   -0.2197    2.1747   -1.5416 H   0  0  0  0  0  0  0  0  0  0  0  0
   -4.9354    1.1724   -1.3107 H   0  0  0  0  0  0  0  0  0  0  0  0
   -5.4212    1.2973    0.4185 H   0  0  0  0  0  0  0  0  0  0  0  0
   -1.8013   -0.7177    2.2521 H   0  0  0  0  0  0  0  0  0  0  0  0
   -3.3778    0.0728    2.3093 H   0  0  0  0  0  0  0  0  0  0  0  0
   -3.2805   -1.6729    2.1681 H   0  0  0  0  0  0  0  0  0  0  0  0
    1.1331    2.6638    1.1443 H   0  0  0  0  0  0  0  0  0  0  0  0
    1.6581    3.1901   -0.4607 H   0  0  0  0  0  0  0  0  0  0  0  0
    2.0411   -2.2398   -0.5308 H   0  0  0  0  0  0  0  0  0  0  0  0
    3.8335    2.2748    0.4319 H   0  0  0  0  0  0  0  0  0  0  0  0
    5.5069   -1.8617    0.0156 H   0  0  0  0  0  0  0  0  0  0  0  0
    5.7927    1.3066    0.5608 H   0  0  0  0  0  0  0  0  0  0  0  0
  1 12  2  0  0  0  0
  2 20  1  0  0  0  0
  2 42  1  0  0  0  0
  3 21  1  0  0  0  0
  3 43  1  0  0  0  0
  4  5  1  0  0  0  0
  4  6  1  0  0  0  0
  4  9  1  0  0  0  0
  4 22  1  0  0  0  0
  5  8  1  0  0  0  0
  5 12  1  0  0  0  0
  5 14  1  0  0  0  0
  6  7  1  0  0  0  0
  6 11  1  0  0  0  0
  6 23  1  0  0  0  0
  7 10  1  0  0  0  0
  7 15  1  0  0  0  0
  7 24  1  0  0  0  0
  8 10  1  0  0  0  0
  8 25  1  0  0  0  0
  8 26  1  0  0  0  0
  9 13  1  0  0  0  0
  9 27  1  0  0  0  0
  9 28  1  0  0  0  0
 10 29  1  0  0  0  0
 10 30  1  0  0  0  0
 11 16  1  0  0  0  0
 11 31  1  0  0  0  0
 11 32  1  0  0  0  0
 12 13  1  0  0  0  0
 13 33  1  0  0  0  0
 13 34  1  0  0  0  0
 14 35  1  0  0  0  0
 14 36  1  0  0  0  0
 14 37  1  0  0  0  0
 15 17  1  0  0  0  0
 15 18  2  0  0  0  0
 16 17  1  0  0  0  0
 16 38  1  0  0  0  0
 16 39  1  0  0  0  0
 17 19  2  0  0  0  0
 18 20  1  0  0  0  0
 18 40  1  0  0  0  0
 19 21  1  0  0  0  0
 19 41  1  0  0  0  0
 20 21  2  0  0  0  0
M  END
> <PUBCHEM_COMPOUND_CID>
440623

> <PUBCHEM_CONFORMER_RMSD>
0.6

> <PUBCHEM_CONFORMER_DIVERSEORDER>
1

> <PUBCHEM_MMFF94_PARTIAL_CHARGES>
18
1 -0.57
12 0.45
13 0.06
15 -0.14
16 0.14
17 -0.14
18 -0.15
19 -0.15
2 -0.53
20 0.08
21 0.08
3 -0.53
40 0.15
41 0.15
42 0.45
43 0.45
5 0.06
7 0.14

> <PUBCHEM_EFFECTIVE_ROTOR_COUNT>
1.2

> <PUBCHEM_PHARMACOPHORE_FEATURES>
7
1 1 acceptor
1 2 donor
1 3 donor
5 4 5 9 12 13 rings
6 15 17 18 19 20 21 rings
6 4 5 6 7 8 10 rings
6 6 7 11 15 16 17 rings

> <PUBCHEM_HEAVY_ATOM_COUNT>
21

> <PUBCHEM_ATOM_DEF_STEREO_COUNT>
4

> <PUBCHEM_ATOM_UDEF_STEREO_COUNT>
0

> <PUBCHEM_BOND_DEF_STEREO_COUNT>
0

> <PUBCHEM_BOND_UDEF_STEREO_COUNT>
0

> <PUBCHEM_ISOTOPIC_ATOM_COUNT>
0

> <PUBCHEM_COMPONENT_COUNT>
1

> <PUBCHEM_CACTVS_TAUTO_COUNT>
62

> <PUBCHEM_CONFORMER_ID>
0006B92F00000001

> <PUBCHEM_MMFF94_ENERGY>
63.2294

> <PUBCHEM_FEATURE_SELFOVERLAP>
35.624

> <PUBCHEM_SHAPE_FINGERPRINT>
10 15 18339372864561551560
10967382 1 18410012126357138966
11132069 177 18407761434755746772
12011746 2 18412267246265057189
12107183 9 17832704951879414874
12236239 1 17458344130375799574
12251169 10 18335420132173524044
12403259 226 18337395950775258781
12403260 363 18335703810953903653
12596602 18 16950282867092122138
13140716 1 18120651336061122761
13544653 18 18412538825494725184
13675066 3 18272366451608480322
13862211 1 18410862057277387630
14115302 16 17417801833866823126
14386348 63 18413670205927374760
14790565 3 17763460613583486076
14866123 147 17397256608988376538
15099037 51 18412829096812274165
15196674 1 18410012160500586460
15375358 24 18409167731328273742
15442244 35 18409448080949784236
15536298 74 18334858311791259204
15788980 27 18272086106292616432
15848702 151 17968371350778800727
16945 1 18195517091687180805
17349148 13 17748826306573337831
17492 89 18266178327396441519
17804303 29 18410290307036190685
1813 80 17418094325893701420
19141452 34 18334576823977333999
19591789 44 18339082695536960894
200 152 18040720264253814965
20028762 73 18114184069387937711
20645477 70 18335702780009038334
21029758 11 18335424573370512369
21033648 29 17894927229718187049
21267235 1 18410285900505149014
21279426 13 18196376033516998933
21421861 104 17987528185478591818
21682296 61 18042960068308986046
221490 88 18269830913354469265
23184049 59 18334290976560164806
23402539 116 18334584542244321277
23559900 14 18409172112305912784
26918003 58 17917994958115199626
3004659 81 18201437026096060966
335352 9 18338516460355473749
34934 24 18410580586938379670
350125 39 18410008819781323869
351380 180 18410857655262670951
3545911 37 18334295349327456366
4214541 1 18410293627109109949
4921388 177 16128362741078708457
5104073 3 18409167735559899298
69090 78 18334579023053388975
9709674 26 18341328886392272435

> <PUBCHEM_SHAPE_MULTIPOLES>
414.56
10.1
2.26
0.83
3.11
0.32
0.28
-1.92
0.53
0.24
-0.15
-0.47
-0.12
0.38

> <PUBCHEM_SHAPE_SELFOVERLAP>
910.725

> <PUBCHEM_SHAPE_VOLUME>
223.9

> <PUBCHEM_COORDINATE_TYPE>
2
5
10

$$$$

