439752
  -OEChem-07051212473D

 24 25  0     0  0  0  0  0  0999 V2000
   -0.3888    1.0005   -0.3268 N   0  0  0  0  0  0  0  0  0  0  0  0
   -4.8648    0.1151    0.4340 N   0  0  0  0  0  0  0  0  0  0  0  0
   -1.1696   -0.1206   -0.4155 C   0  0  0  0  0  0  0  0  0  0  0  0
   -2.6239   -0.0258   -0.6424 C   0  0  0  0  0  0  0  0  0  0  0  0
    0.9251    0.6484   -0.1146 C   0  0  0  0  0  0  0  0  0  0  0  0
    0.9743   -0.7465   -0.0676 C   0  0  0  0  0  0  0  0  0  0  0  0
   -0.3545   -1.2178   -0.2592 C   0  0  0  0  0  0  0  0  0  0  0  0
   -3.4266    0.0521    0.6713 C   0  0  0  0  0  0  0  0  0  0  0  0
    2.0620    1.4498    0.0380 C   0  0  0  0  0  0  0  0  0  0  0  0
    2.2181   -1.3745    0.1419 C   0  0  0  0  0  0  0  0  0  0  0  0
    3.2847    0.8048    0.2446 C   0  0  0  0  0  0  0  0  0  0  0  0
    3.3639   -0.5856    0.2962 C   0  0  0  0  0  0  0  0  0  0  0  0
   -2.8499    0.8519   -1.2621 H   0  0  0  0  0  0  0  0  0  0  0  0
   -2.9569   -0.8997   -1.2176 H   0  0  0  0  0  0  0  0  0  0  0  0
   -0.7244    1.9509   -0.4042 H   0  0  0  0  0  0  0  0  0  0  0  0
   -0.6775   -2.2500   -0.2795 H   0  0  0  0  0  0  0  0  0  0  0  0
   -3.1184    0.9347    1.2443 H   0  0  0  0  0  0  0  0  0  0  0  0
   -3.2104   -0.8254    1.2916 H   0  0  0  0  0  0  0  0  0  0  0  0
    2.0014    2.5323   -0.0019 H   0  0  0  0  0  0  0  0  0  0  0  0
    2.2942   -2.4572    0.1842 H   0  0  0  0  0  0  0  0  0  0  0  0
    4.1872    1.3981    0.3670 H   0  0  0  0  0  0  0  0  0  0  0  0
    4.3260   -1.0644    0.4581 H   0  0  0  0  0  0  0  0  0  0  0  0
   -5.0838    0.9426   -0.1190 H   0  0  0  0  0  0  0  0  0  0  0  0
   -5.3495    0.2282    1.3234 H   0  0  0  0  0  0  0  0  0  0  0  0
  1  3  1  0  0  0  0
  1  5  1  0  0  0  0
  1 15  1  0  0  0  0
  2  8  1  0  0  0  0
  2 23  1  0  0  0  0
  2 24  1  0  0  0  0
  3  4  1  0  0  0  0
  3  7  2  0  0  0  0
  4  8  1  0  0  0  0
  4 13  1  0  0  0  0
  4 14  1  0  0  0  0
  5  6  1  0  0  0  0
  5  9  2  0  0  0  0
  6  7  1  0  0  0  0
  6 10  2  0  0  0  0
  7 16  1  0  0  0  0
  8 17  1  0  0  0  0
  8 18  1  0  0  0  0
  9 11  1  0  0  0  0
  9 19  1  0  0  0  0
 10 12  1  0  0  0  0
 10 20  1  0  0  0  0
 11 12  2  0  0  0  0
 11 21  1  0  0  0  0
 12 22  1  0  0  0  0
M  END
> <PUBCHEM_COMPOUND_CID>
439752

> <PUBCHEM_CONFORMER_RMSD>
0.6

> <PUBCHEM_CONFORMER_DIVERSEORDER>
1
6
3
5
2
4

> <PUBCHEM_MMFF94_PARTIAL_CHARGES>
19
1 0.03
10 -0.15
11 -0.15
12 -0.15
15 0.27
16 0.15
19 0.15
2 -0.99
20 0.15
21 0.15
22 0.15
23 0.36
24 0.36
3 -0.33
4 0.18
5 -0.15
7 -0.15
8 0.27
9 -0.15

> <PUBCHEM_EFFECTIVE_ROTOR_COUNT>
2

> <PUBCHEM_PHARMACOPHORE_FEATURES>
6
1 1 cation
1 1 donor
1 2 cation
1 2 donor
5 1 3 5 6 7 rings
6 5 6 9 10 11 12 rings

> <PUBCHEM_HEAVY_ATOM_COUNT>
12

> <PUBCHEM_ATOM_DEF_STEREO_COUNT>
0

> <PUBCHEM_ATOM_UDEF_STEREO_COUNT>
0

> <PUBCHEM_BOND_DEF_STEREO_COUNT>
0

> <PUBCHEM_BOND_UDEF_STEREO_COUNT>
0

> <PUBCHEM_ISOTOPIC_ATOM_COUNT>
0

> <PUBCHEM_COMPONENT_COUNT>
1

> <PUBCHEM_CACTVS_TAUTO_COUNT>
1

> <PUBCHEM_CONFORMER_ID>
0006B5C800000001

> <PUBCHEM_MMFF94_ENERGY>
12.2357

> <PUBCHEM_FEATURE_SELFOVERLAP>
30.538

> <PUBCHEM_SHAPE_FINGERPRINT>
10219947 1 18411981364519862879
10465860 228 17678160793156473075
11062470 55 4823212814268813011
11471102 20 18410860966292085676
12032990 46 18270398411942267382
12251169 10 18409448085503214323
12346645 6 18187362151187780070
12932764 1 17917724499376435063
13380535 21 18340763724467461678
14252887 29 18271235101615219995
14325111 11 18410296882525326941
15219456 202 18201446912482905661
15501101 241 18343586235034672524
15775835 57 18187083914505530073
16945 1 18339374014926581318
17844478 74 17917434249939664557
18186145 218 18261115166301337404
20279233 1 17704355472483042795
20645477 70 18268163100645454791
20871998 22 18118403088797827670
21501502 16 18196094343749971926
23402539 116 14635157858189697561
23402655 69 18334867129717957381
2748010 2 18050018980161009494
449060 62 18409448059870560596
528886 8 18337400348626188362

> <PUBCHEM_SHAPE_MULTIPOLES>
236.99
6.78
1.32
0.73
6.44
0.02
0.01
-0.49
1.54
-0.98
-0.01
0.26
0
-0.08

> <PUBCHEM_SHAPE_SELFOVERLAP>
507.86

> <PUBCHEM_SHAPE_VOLUME>
131.9

> <PUBCHEM_COORDINATE_TYPE>
2
5
10

$$$$

