188242
  -OEChem-07051212493D

 16 16  0     0  0  0  0  0  0999 V2000
    1.8940    1.4768    0.0274 S   0  0  0  0  0  0  0  0  0  0  0  0
   -1.9408    0.6020   -1.2657 O   0  0  0  0  0  0  0  0  0  0  0  0
   -2.6085   -0.3473    0.7194 O   0  0  0  0  0  0  0  0  0  0  0  0
    0.2472   -1.2123   -0.1530 N   0  0  0  0  0  0  0  0  0  0  0  0
    2.4459   -0.1730   -0.5126 C   0  0  0  0  0  0  0  0  0  0  0  0
    1.6764   -1.2995    0.1586 C   0  0  0  0  0  0  0  0  0  0  0  0
    0.3687    1.0329    0.8970 C   0  0  0  0  0  0  0  0  0  0  0  0
   -0.3127   -0.1061    0.1997 C   0  0  0  0  0  0  0  0  0  0  0  0
   -1.7702    0.0266   -0.0708 C   0  0  0  0  0  0  0  0  0  0  0  0
    3.5153   -0.2657   -0.2989 H   0  0  0  0  0  0  0  0  0  0  0  0
    2.3207   -0.2243   -1.5995 H   0  0  0  0  0  0  0  0  0  0  0  0
    2.0472   -2.2568   -0.2251 H   0  0  0  0  0  0  0  0  0  0  0  0
    1.8403   -1.3204    1.2435 H   0  0  0  0  0  0  0  0  0  0  0  0
   -0.2865    1.9079    0.9290 H   0  0  0  0  0  0  0  0  0  0  0  0
    0.5969    0.7408    1.9266 H   0  0  0  0  0  0  0  0  0  0  0  0
   -2.8884    0.7159   -1.4925 H   0  0  0  0  0  0  0  0  0  0  0  0
  1  5  1  0  0  0  0
  1  7  1  0  0  0  0
  2  9  1  0  0  0  0
  2 16  1  0  0  0  0
  3  9  2  0  0  0  0
  4  6  1  0  0  0  0
  4  8  2  0  0  0  0
  5  6  1  0  0  0  0
  5 10  1  0  0  0  0
  5 11  1  0  0  0  0
  6 12  1  0  0  0  0
  6 13  1  0  0  0  0
  7  8  1  0  0  0  0
  7 14  1  0  0  0  0
  7 15  1  0  0  0  0
  8  9  1  0  0  0  0
M  END
> <PUBCHEM_COMPOUND_CID>
188242

> <PUBCHEM_CONFORMER_RMSD>
0.4

> <PUBCHEM_CONFORMER_DIVERSEORDER>
1
7
2
8
6
3
4
5

> <PUBCHEM_MMFF94_PARTIAL_CHARGES>
10
1 -0.46
16 0.5
2 -0.65
3 -0.57
4 -0.7
5 0.23
6 0.25
7 0.29
8 0.39
9 0.72

> <PUBCHEM_EFFECTIVE_ROTOR_COUNT>
1.8

> <PUBCHEM_PHARMACOPHORE_FEATURES>
5
1 2 acceptor
1 3 acceptor
1 4 acceptor
3 2 3 9 anion
6 1 4 5 6 7 8 rings

> <PUBCHEM_HEAVY_ATOM_COUNT>
9

> <PUBCHEM_ATOM_DEF_STEREO_COUNT>
0

> <PUBCHEM_ATOM_UDEF_STEREO_COUNT>
0

> <PUBCHEM_BOND_DEF_STEREO_COUNT>
0

> <PUBCHEM_BOND_UDEF_STEREO_COUNT>
0

> <PUBCHEM_ISOTOPIC_ATOM_COUNT>
0

> <PUBCHEM_COMPONENT_COUNT>
1

> <PUBCHEM_CACTVS_TAUTO_COUNT>
1

> <PUBCHEM_CONFORMER_ID>
0002DF5200000001

> <PUBCHEM_MMFF94_ENERGY>
18.7816

> <PUBCHEM_FEATURE_SELFOVERLAP>
25.424

> <PUBCHEM_SHAPE_FINGERPRINT>
10857977 72 17346028962101432107
12897270 3 18343864424266326196
15310529 11 17703788119892678926
16945 1 18408888446985311506
18185500 45 18116712013785294954
21040471 1 18119813517149459560
23235685 24 18262797342136169384
23552423 10 18408881849767825858
29004967 10 18409447028783004146
5084963 1 17917983975657002692

> <PUBCHEM_SHAPE_MULTIPOLES>
172.35
3.43
1.41
0.91
0.92
0.04
0.1
0.09
0.34
-0.85
-0.1
0.28
0.16
0.17

> <PUBCHEM_SHAPE_SELFOVERLAP>
330.746

> <PUBCHEM_SHAPE_VOLUME>
105.4

> <PUBCHEM_COORDINATE_TYPE>
2
5
10

$$$$

