440096
  -OEChem-07051212483D

 50 49  0     1  0  0  0  0  0999 V2000
    3.6198   -1.0021   -0.5493 S   0  0  0  0  0  0  0  0  0  0  0  0
    0.7005    3.2236   -0.8063 P   0  0  0  0  0  0  0  0  0  0  0  0
   -0.2747    2.6982    0.3702 O   0  0  0  0  0  0  0  0  0  0  0  0
   -4.2871    1.2239    0.4473 O   0  0  0  0  0  0  0  0  0  0  0  0
   -3.1869   -0.2186   -1.5570 O   0  0  0  0  0  0  0  0  0  0  0  0
    1.0295    1.8695   -1.6269 O   0  0  0  0  0  0  0  0  0  0  0  0
   -0.2910    4.0282   -1.7986 O   0  0  0  0  0  0  0  0  0  0  0  0
    1.9034    3.9907   -0.3407 O   0  0  0  0  0  0  0  0  0  0  0  0
   -0.3570   -3.3066    0.9214 O   0  0  0  0  0  0  0  0  0  0  0  0
    4.1599    0.3864    1.6353 O   0  0  0  0  0  0  0  0  0  0  0  0
   -2.6761   -1.8869   -0.0276 N   0  0  0  0  0  0  0  0  0  0  0  0
    1.3304   -3.2177   -0.6719 N   0  0  0  0  0  0  0  0  0  0  0  0
   -1.9677    1.1302    1.1977 C   0  0  0  0  0  0  0  0  0  0  0  0
   -3.2395    0.3239    0.7996 C   0  0  2  0  0  0  0  0  0  0  0  0
   -1.4372    1.9622    0.0045 C   0  0  0  0  0  0  0  0  0  0  0  0
   -2.2538    2.0593    2.3941 C   0  0  0  0  0  0  0  0  0  0  0  0
   -0.8694    0.1322    1.6368 C   0  0  0  0  0  0  0  0  0  0  0  0
   -3.0456   -0.6039   -0.3978 C   0  0  0  0  0  0  0  0  0  0  0  0
   -2.4103   -2.9364   -0.9844 C   0  0  0  0  0  0  0  0  0  0  0  0
   -0.9477   -2.9756   -1.4054 C   0  0  0  0  0  0  0  0  0  0  0  0
    0.0108   -3.1886   -0.2442 C   0  0  0  0  0  0  0  0  0  0  0  0
    2.4430   -3.3947    0.2324 C   0  0  0  0  0  0  0  0  0  0  0  0
    2.9865   -2.0789    0.7725 C   0  0  0  0  0  0  0  0  0  0  0  0
    4.2259    0.3426    0.4129 C   0  0  0  0  0  0  0  0  0  0  0  0
    4.8343    1.4391   -0.4146 C   0  0  0  0  0  0  0  0  0  0  0  0
   -3.5938   -0.2574    1.6600 H   0  0  0  0  0  0  0  0  0  0  0  0
   -2.1952    2.6796   -0.3286 H   0  0  0  0  0  0  0  0  0  0  0  0
   -1.2007    1.3091   -0.8401 H   0  0  0  0  0  0  0  0  0  0  0  0
   -2.6609    1.4932    3.2396 H   0  0  0  0  0  0  0  0  0  0  0  0
   -1.3475    2.5659    2.7438 H   0  0  0  0  0  0  0  0  0  0  0  0
   -2.9829    2.8327    2.1293 H   0  0  0  0  0  0  0  0  0  0  0  0
   -0.4902   -0.4482    0.7907 H   0  0  0  0  0  0  0  0  0  0  0  0
   -1.2431   -0.5632    2.3965 H   0  0  0  0  0  0  0  0  0  0  0  0
   -0.0081    0.6543    2.0701 H   0  0  0  0  0  0  0  0  0  0  0  0
   -5.1014    0.7012    0.3490 H   0  0  0  0  0  0  0  0  0  0  0  0
   -2.5770   -2.1129    0.9576 H   0  0  0  0  0  0  0  0  0  0  0  0
   -3.0468   -2.7913   -1.8637 H   0  0  0  0  0  0  0  0  0  0  0  0
   -2.6970   -3.8804   -0.5086 H   0  0  0  0  0  0  0  0  0  0  0  0
   -0.6758   -2.0328   -1.8960 H   0  0  0  0  0  0  0  0  0  0  0  0
   -0.7987   -3.7864   -2.1277 H   0  0  0  0  0  0  0  0  0  0  0  0
    1.5365   -3.0983   -1.6595 H   0  0  0  0  0  0  0  0  0  0  0  0
    3.2199   -3.9459   -0.3091 H   0  0  0  0  0  0  0  0  0  0  0  0
    2.1184   -4.0228    1.0696 H   0  0  0  0  0  0  0  0  0  0  0  0
    1.6910    1.9016   -2.3504 H   0  0  0  0  0  0  0  0  0  0  0  0
    0.0894    4.4984   -2.5707 H   0  0  0  0  0  0  0  0  0  0  0  0
    3.7988   -2.2899    1.4760 H   0  0  0  0  0  0  0  0  0  0  0  0
    2.1990   -1.5409    1.3117 H   0  0  0  0  0  0  0  0  0  0  0  0
    5.7082    1.0649   -0.9548 H   0  0  0  0  0  0  0  0  0  0  0  0
    5.1570    2.2511    0.2441 H   0  0  0  0  0  0  0  0  0  0  0  0
    4.0980    1.8401   -1.1166 H   0  0  0  0  0  0  0  0  0  0  0  0
  1 23  1  0  0  0  0
  1 24  1  0  0  0  0
  2  3  1  0  0  0  0
  2  6  1  0  0  0  0
  2  7  1  0  0  0  0
  2  8  2  0  0  0  0
  3 15  1  0  0  0  0
  4 14  1  0  0  0  0
  4 35  1  0  0  0  0
  5 18  2  0  0  0  0
  6 44  1  0  0  0  0
  7 45  1  0  0  0  0
  9 21  2  0  0  0  0
 10 24  2  0  0  0  0
 11 18  1  0  0  0  0
 11 19  1  0  0  0  0
 11 36  1  0  0  0  0
 12 21  1  0  0  0  0
 12 22  1  0  0  0  0
 12 41  1  0  0  0  0
 13 14  1  0  0  0  0
 13 15  1  0  0  0  0
 13 16  1  0  0  0  0
 13 17  1  0  0  0  0
 14 18  1  0  0  0  0
 14 26  1  0  0  0  0
 15 27  1  0  0  0  0
 15 28  1  0  0  0  0
 16 29  1  0  0  0  0
 16 30  1  0  0  0  0
 16 31  1  0  0  0  0
 17 32  1  0  0  0  0
 17 33  1  0  0  0  0
 17 34  1  0  0  0  0
 19 20  1  0  0  0  0
 19 37  1  0  0  0  0
 19 38  1  0  0  0  0
 20 21  1  0  0  0  0
 20 39  1  0  0  0  0
 20 40  1  0  0  0  0
 22 23  1  0  0  0  0
 22 42  1  0  0  0  0
 22 43  1  0  0  0  0
 23 46  1  0  0  0  0
 23 47  1  0  0  0  0
 24 25  1  0  0  0  0
 25 48  1  0  0  0  0
 25 49  1  0  0  0  0
 25 50  1  0  0  0  0
M  END
> <PUBCHEM_COMPOUND_CID>
440096

> <PUBCHEM_CONFORMER_RMSD>
1.4

> <PUBCHEM_CONFORMER_DIVERSEORDER>
1
50
19
95
81
14
104
66
4
98
65
29
71
49
101
51
2
64
15
78
75
45
94
48
7
79
67
68
63
89
25
26
92
55
60
93
17
53
54
96
100
70
52
61
36
33
83
57
13
88
72
35
22
58
28
46
90
62
102
41
103
39
20
87
27
85
16
86
30
74
21
106
12
40
10
6
43
31
77
80
59
84
9
105
91
38
34
82
42
99
32
44
23
11
76
47
5
69
24
97
3
18
73
56
37
8

> <PUBCHEM_MMFF94_PARTIAL_CHARGES>
27
1 -0.37
10 -0.57
11 -0.73
12 -0.73
14 0.34
15 0.28
18 0.57
19 0.3
2 1.51
20 0.06
21 0.57
22 0.3
23 0.23
24 0.65
25 0.06
3 -0.55
35 0.4
36 0.37
4 -0.68
41 0.37
44 0.5
45 0.5
5 -0.57
6 -0.77
7 -0.77
8 -0.7
9 -0.57

> <PUBCHEM_EFFECTIVE_ROTOR_COUNT>
14

> <PUBCHEM_PHARMACOPHORE_FEATURES>
11
1 11 donor
1 12 donor
1 4 acceptor
1 4 donor
1 5 acceptor
1 6 acceptor
1 7 acceptor
1 8 acceptor
1 9 acceptor
3 13 16 17 hydrophobe
4 2 6 7 8 anion

> <PUBCHEM_HEAVY_ATOM_COUNT>
25

> <PUBCHEM_ATOM_DEF_STEREO_COUNT>
1

> <PUBCHEM_ATOM_UDEF_STEREO_COUNT>
0

> <PUBCHEM_BOND_DEF_STEREO_COUNT>
0

> <PUBCHEM_BOND_UDEF_STEREO_COUNT>
0

> <PUBCHEM_ISOTOPIC_ATOM_COUNT>
0

> <PUBCHEM_COMPONENT_COUNT>
1

> <PUBCHEM_CACTVS_TAUTO_COUNT>
4

> <PUBCHEM_CONFORMER_ID>
0006B72000000001

> <PUBCHEM_MMFF94_ENERGY>
1.5681

> <PUBCHEM_FEATURE_SELFOVERLAP>
55.861

> <PUBCHEM_SHAPE_FINGERPRINT>
10708813 3 18337953385726427838
10871710 139 18264202530828796742
11513181 2 17531246192468243478
12038231 1 18410293635904707918
12100795 323 17692246756958201620
12539773 59 17749393693154038461
12712778 12 16175121367278945856
12788726 201 17538819426960138161
13122387 1 18410575097943704214
13615921 28 17898860032339056973
14117953 113 18338523061630465412
14251740 79 16612772113780978244
14840074 17 18342162397678733980
15297060 5 17967801726979003530
161222 10 18051383238053066788
17977149 70 18190441927040290710
19930381 70 18267866275107110960
20764821 26 14879474371187982070
20765182 5 18264489499384871844
22113638 7 18339364063376554286
238 59 17258242072285677542
3187 122 17622984100135067137
463206 1 17543909005902350560
6287921 2 17972026196217745234

> <PUBCHEM_SHAPE_MULTIPOLES>
465.27
7.38
5.86
1.68
5.26
0.21
0.27
0.73
1.26
1.1
-2.06
-0.68
0.8
-1.46

> <PUBCHEM_SHAPE_SELFOVERLAP>
876.638

> <PUBCHEM_SHAPE_VOLUME>
289.8

> <PUBCHEM_COORDINATE_TYPE>
2
5
10

$$$$

