21596475
  -OEChem-07051213112D

 51 54  0     1  0  0  0  0  0999 V2000
    5.8626   -1.0582    0.0000 O   0  0  0  0  0  0  0  0  0  0  0  0
    3.5005   -3.3491    0.0000 O   0  0  0  0  0  0  0  0  0  0  0  0
    5.8440   -2.8158    0.0000 O   0  0  0  0  0  0  0  0  0  0  0  0
    3.5126   -0.2799    0.0000 C   0  0  1  0  0  0  0  0  0  0  0  0
    4.3786   -0.7799    0.0000 C   0  0  2  0  0  0  0  0  0  0  0  0
    4.3947   -1.8214    0.0000 C   0  0  2  0  0  0  0  0  0  0  0  0
    3.5126    0.7201    0.0000 C   0  0  1  0  0  0  0  0  0  0  0  0
    5.2446   -0.2799    0.0000 C   0  0  1  0  0  0  0  0  0  0  0  0
    2.6026   -0.7867    0.0000 C   0  0  0  0  0  0  0  0  0  0  0  0
    3.4966   -2.3491    0.0000 C   0  0  2  0  0  0  0  0  0  0  0  0
    4.3786    1.2201    0.0000 C   0  0  0  0  0  0  0  0  0  0  0  0
    2.5946   -1.8283    0.0000 C   0  0  0  0  0  0  0  0  0  0  0  0
    2.6026    1.2270    0.0000 C   0  0  0  0  0  0  0  0  0  0  0  0
    2.6466    0.2201    0.0000 C   0  0  0  0  0  0  0  0  0  0  0  0
    5.2446    0.7201    0.0000 C   0  0  0  0  0  0  0  0  0  0  0  0
    5.3827   -1.9285    0.0000 C   0  0  0  0  0  0  0  0  0  0  0  0
    4.3947    2.2616    0.0000 C   0  0  0  0  0  0  0  0  0  0  0  0
    3.4966    2.7894    0.0000 C   0  0  2  0  0  0  0  0  0  0  0  0
    4.9047   -2.6816    0.0000 C   0  0  0  0  0  0  0  0  0  0  0  0
    2.5946    2.2686    0.0000 C   0  0  0  0  0  0  0  0  0  0  0  0
    4.0000    3.6535    0.0000 C   0  0  0  0  0  0  0  0  0  0  0  0
    3.0000    3.6573    0.0000 C   0  0  0  0  0  0  0  0  0  0  0  0
    2.0000    3.6612    0.0000 C   0  0  0  0  0  0  0  0  0  0  0  0
    3.6425   -1.2049    0.0000 H   0  0  0  0  0  0  0  0  0  0  0  0
    2.7798    0.2895    0.0000 H   0  0  0  0  0  0  0  0  0  0  0  0
    6.0473    0.0000    0.0000 H   0  0  0  0  0  0  0  0  0  0  0  0
    2.3980   -0.2014    0.0000 H   0  0  0  0  0  0  0  0  0  0  0  0
    1.9910   -0.8881    0.0000 H   0  0  0  0  0  0  0  0  0  0  0  0
    2.9603   -2.6602    0.0000 H   0  0  0  0  0  0  0  0  0  0  0  0
    1.9846   -1.7175    0.0000 H   0  0  0  0  0  0  0  0  0  0  0  0
    2.3810   -2.4104    0.0000 H   0  0  0  0  0  0  0  0  0  0  0  0
    1.9910    1.3284    0.0000 H   0  0  0  0  0  0  0  0  0  0  0  0
    2.3980    0.6417    0.0000 H   0  0  0  0  0  0  0  0  0  0  0  0
    2.9566    0.7571    0.0000 H   0  0  0  0  0  0  0  0  0  0  0  0
    2.1096    0.5301    0.0000 H   0  0  0  0  0  0  0  0  0  0  0  0
    2.3366   -0.3168    0.0000 H   0  0  0  0  0  0  0  0  0  0  0  0
    5.7816    1.0301    0.0000 H   0  0  0  0  0  0  0  0  0  0  0  0
    5.0038    2.1461    0.0000 H   0  0  0  0  0  0  0  0  0  0  0  0
    4.6127    2.8420    0.0000 H   0  0  0  0  0  0  0  0  0  0  0  0
    4.3713   -2.9978    0.0000 H   0  0  0  0  0  0  0  0  0  0  0  0
    5.2209   -3.2149    0.0000 H   0  0  0  0  0  0  0  0  0  0  0  0
    5.4380   -2.3654    0.0000 H   0  0  0  0  0  0  0  0  0  0  0  0
    2.3810    2.8506    0.0000 H   0  0  0  0  0  0  0  0  0  0  0  0
    1.9846    2.1578    0.0000 H   0  0  0  0  0  0  0  0  0  0  0  0
    2.9648   -3.6612    0.0000 H   0  0  0  0  0  0  0  0  0  0  0  0
    4.5357    3.3414    0.0000 H   0  0  0  0  0  0  0  0  0  0  0  0
    4.3120    4.1892    0.0000 H   0  0  0  0  0  0  0  0  0  0  0  0
    3.4642    3.9656    0.0000 H   0  0  0  0  0  0  0  0  0  0  0  0
    3.3121    4.1931    0.0000 H   0  0  0  0  0  0  0  0  0  0  0  0
    1.6921    4.1993    0.0000 H   0  0  0  0  0  0  0  0  0  0  0  0
    1.6879    3.1254    0.0000 H   0  0  0  0  0  0  0  0  0  0  0  0
  1  8  1  0  0  0  0
  1 16  1  0  0  0  0
 10  2  1  1  0  0  0
  2 45  1  0  0  0  0
  3 16  2  0  0  0  0
  4  5  1  0  0  0  0
  4  7  1  0  0  0  0
  4  9  1  0  0  0  0
  4 14  1  1  0  0  0
  5  6  1  0  0  0  0
  5  8  1  0  0  0  0
  5 24  1  6  0  0  0
  6 10  1  0  0  0  0
  6 16  1  0  0  0  0
  6 19  1  6  0  0  0
  7 11  1  0  0  0  0
  7 13  1  0  0  0  0
  7 25  1  1  0  0  0
  8 15  1  0  0  0  0
  8 26  1  6  0  0  0
  9 12  1  0  0  0  0
  9 27  1  0  0  0  0
  9 28  1  0  0  0  0
 10 12  1  0  0  0  0
 10 29  1  0  0  0  0
 11 15  2  0  0  0  0
 11 17  1  0  0  0  0
 12 30  1  0  0  0  0
 12 31  1  0  0  0  0
 13 20  1  0  0  0  0
 13 32  1  0  0  0  0
 13 33  1  0  0  0  0
 14 34  1  0  0  0  0
 14 35  1  0  0  0  0
 14 36  1  0  0  0  0
 15 37  1  0  0  0  0
 17 18  1  0  0  0  0
 17 38  1  0  0  0  0
 17 39  1  0  0  0  0
 18 20  1  0  0  0  0
 18 21  1  6  0  0  0
 18 22  1  0  0  0  0
 19 40  1  0  0  0  0
 19 41  1  0  0  0  0
 19 42  1  0  0  0  0
 20 43  1  0  0  0  0
 20 44  1  0  0  0  0
 21 46  1  0  0  0  0
 21 47  1  0  0  0  0
 21 48  1  0  0  0  0
 22 23  2  0  0  0  0
 22 49  1  0  0  0  0
 23 50  1  0  0  0  0
 23 51  1  0  0  0  0
M  END
> <PUBCHEM_COMPOUND_CID>
21596475

> <PUBCHEM_COMPOUND_CANONICALIZED>
1

> <PUBCHEM_CACTVS_COMPLEXITY>
608

> <PUBCHEM_CACTVS_HBOND_ACCEPTOR>
3

> <PUBCHEM_CACTVS_HBOND_DONOR>
1

> <PUBCHEM_CACTVS_ROTATABLE_BOND>
1

> <PUBCHEM_CACTVS_SUBSKEYS>
AAADceB4MAAAAAAAAAAAAAAAAAAAASAAAAAwYIAAAAAAAEiAAAAAGgAACAAADxSggAICCAAABgCIAiDSCAAAAAAgAAAICAEAAAgAFBYAIQACUAAFoAAIIAPKyPCPgAAAAAAAAADAAAYAADAAAAAAAAAAAA==

> <PUBCHEM_IUPAC_INCHI>
InChI=1S/C20H28O3/c1-5-18(2)8-6-13-12(11-18)10-14-16-19(13,3)9-7-15(21)20(16,4)17(22)23-14/h5,10,13-16,21H,1,6-9,11H2,2-4H3/t13-,14-,15+,16-,18-,19-,20+/m1/s1

> <PUBCHEM_IUPAC_INCHIKEY>
SPZLJXUKZRAIQP-KSYFULEYSA-N

> <PUBCHEM_XLOGP3_AA>
3.6

> <PUBCHEM_EXACT_MASS>
316.203845

> <PUBCHEM_MOLECULAR_FORMULA>
C20H28O3

> <PUBCHEM_MOLECULAR_WEIGHT>
316.43452

> <PUBCHEM_OPENEYE_CAN_SMILES>
CC1(CCC2C(=CC3C4C2(CCC(C4(C(=O)O3)C)O)C)C1)C=C

> <PUBCHEM_OPENEYE_ISO_SMILES>
C[C@]1(CC[C@@H]2C(=C[C@@H]3[C@@H]4[C@@]2(CC[C@@H]([C@@]4(C(=O)O3)C)O)C)C1)C=C

> <PUBCHEM_CACTVS_TPSA>
46.5

> <PUBCHEM_MONOISOTOPIC_WEIGHT>
316.203845

> <PUBCHEM_TOTAL_CHARGE>
0

> <PUBCHEM_HEAVY_ATOM_COUNT>
23

> <PUBCHEM_ATOM_DEF_STEREO_COUNT>
7

> <PUBCHEM_ATOM_UDEF_STEREO_COUNT>
0

> <PUBCHEM_BOND_DEF_STEREO_COUNT>
0

> <PUBCHEM_BOND_UDEF_STEREO_COUNT>
0

> <PUBCHEM_ISOTOPIC_ATOM_COUNT>
0

> <PUBCHEM_COMPONENT_COUNT>
1

> <PUBCHEM_CACTVS_TAUTO_COUNT>
1

> <PUBCHEM_COORDINATE_TYPE>
1
5
255

> <PUBCHEM_BONDANNOTATIONS>
18  21  6
10  2  5
4  14  5
5  24  6
6  19  6
7  25  5
8  26  6

$$$$

