5284054
  -OEChem-07051213083D

 70 73  0     1  0  0  0  0  0999 V2000
   -1.1885   -1.6266   -1.2319 O   0  0  0  0  0  0  0  0  0  0  0  0
    1.2878    2.4056   -1.1976 O   0  0  0  0  0  0  0  0  0  0  0  0
    7.0718   -0.3164   -1.1637 O   0  0  0  0  0  0  0  0  0  0  0  0
   -7.0033    0.4203   -2.7417 O   0  0  0  0  0  0  0  0  0  0  0  0
   -1.4320   -0.3293    0.8513 C   0  0  1  0  0  0  0  0  0  0  0  0
   -0.6725    0.9155    0.3331 C   0  0  2  0  0  0  0  0  0  0  0  0
    0.8339    0.8734    0.6355 C   0  0  1  0  0  0  0  0  0  0  0  0
    1.4414   -0.3971   -0.0461 C   0  0  1  0  0  0  0  0  0  0  0  0
    3.0007   -0.5080    0.1732 C   0  0  2  0  0  0  0  0  0  0  0  0
   -2.8718    0.0851    0.4491 C   0  0  2  0  0  0  0  0  0  0  0  0
   -0.8686   -1.5882    0.1578 C   0  0  2  0  0  0  0  0  0  0  0  0
    0.6616   -1.6915    0.3334 C   0  0  0  0  0  0  0  0  0  0  0  0
    3.6647    0.8256   -0.2858 C   0  0  1  0  0  0  0  0  0  0  0  0
   -1.4923    2.0881    0.8683 C   0  0  0  0  0  0  0  0  0  0  0  0
    1.5537    2.1577    0.1824 C   0  0  1  0  0  0  0  0  0  0  0  0
   -2.9454    1.5814    0.8328 C   0  0  0  0  0  0  0  0  0  0  0  0
    3.0644    2.0651    0.3963 C   0  0  0  0  0  0  0  0  0  0  0  0
    3.5758   -1.6716   -0.6984 C   0  0  0  0  0  0  0  0  0  0  0  0
   -1.3243   -0.5197    2.3896 C   0  0  0  0  0  0  0  0  0  0  0  0
   -4.0047   -0.7368    1.0472 C   0  0  1  0  0  0  0  0  0  0  0  0
    5.1989    0.8216   -0.1419 C   0  0  0  0  0  0  0  0  0  0  0  0
    3.3188   -0.8018    1.6637 C   0  0  0  0  0  0  0  0  0  0  0  0
    4.9395   -1.3949   -1.3402 C   0  0  0  0  0  0  0  0  0  0  0  0
    5.8414   -0.5283   -0.4765 C   0  0  1  0  0  0  0  0  0  0  0  0
   -5.3670   -0.1753    0.5893 C   0  0  0  0  0  0  0  0  0  0  0  0
   -3.8345   -2.2133    0.6740 C   0  0  0  0  0  0  0  0  0  0  0  0
   -5.5504   -0.1638   -0.9289 C   0  0  0  0  0  0  0  0  0  0  0  0
   -6.8992    0.4230   -1.3245 C   0  0  0  0  0  0  0  0  0  0  0  0
   -0.7772    0.9472   -0.7636 H   0  0  0  0  0  0  0  0  0  0  0  0
    0.9743    0.8015    1.7189 H   0  0  0  0  0  0  0  0  0  0  0  0
    1.2877   -0.2855   -1.1295 H   0  0  0  0  0  0  0  0  0  0  0  0
   -2.9228    0.0313   -0.6453 H   0  0  0  0  0  0  0  0  0  0  0  0
   -1.2786   -2.5014    0.5917 H   0  0  0  0  0  0  0  0  0  0  0  0
    1.0278   -2.5245   -0.2778 H   0  0  0  0  0  0  0  0  0  0  0  0
    0.8685   -1.9555    1.3747 H   0  0  0  0  0  0  0  0  0  0  0  0
    3.4734    0.9266   -1.3639 H   0  0  0  0  0  0  0  0  0  0  0  0
   -1.3709    2.9853    0.2527 H   0  0  0  0  0  0  0  0  0  0  0  0
   -1.2021    2.3483    1.8923 H   0  0  0  0  0  0  0  0  0  0  0  0
    1.1712    3.0195    0.7398 H   0  0  0  0  0  0  0  0  0  0  0  0
   -3.4092    1.7378    1.8135 H   0  0  0  0  0  0  0  0  0  0  0  0
   -3.5320    2.1431    0.0976 H   0  0  0  0  0  0  0  0  0  0  0  0
    3.2865    2.0588    1.4696 H   0  0  0  0  0  0  0  0  0  0  0  0
    3.5391    2.9611   -0.0238 H   0  0  0  0  0  0  0  0  0  0  0  0
    2.8887   -1.9123   -1.5195 H   0  0  0  0  0  0  0  0  0  0  0  0
    3.6459   -2.5875   -0.0977 H   0  0  0  0  0  0  0  0  0  0  0  0
   -0.2899   -0.6106    2.7313 H   0  0  0  0  0  0  0  0  0  0  0  0
   -1.7664    0.3110    2.9484 H   0  0  0  0  0  0  0  0  0  0  0  0
   -1.8338   -1.4319    2.7160 H   0  0  0  0  0  0  0  0  0  0  0  0
   -3.9971   -0.6644    2.1418 H   0  0  0  0  0  0  0  0  0  0  0  0
    5.6169    1.6106   -0.7813 H   0  0  0  0  0  0  0  0  0  0  0  0
    5.4897    1.0991    0.8796 H   0  0  0  0  0  0  0  0  0  0  0  0
    4.3929   -0.8307    1.8630 H   0  0  0  0  0  0  0  0  0  0  0  0
    2.8950   -0.0518    2.3365 H   0  0  0  0  0  0  0  0  0  0  0  0
    2.9293   -1.7761    1.9752 H   0  0  0  0  0  0  0  0  0  0  0  0
    5.4346   -2.3451   -1.5763 H   0  0  0  0  0  0  0  0  0  0  0  0
    4.7939   -0.9056   -2.3130 H   0  0  0  0  0  0  0  0  0  0  0  0
    6.0860   -1.0603    0.4493 H   0  0  0  0  0  0  0  0  0  0  0  0
   -0.8229   -2.4502   -1.5971 H   0  0  0  0  0  0  0  0  0  0  0  0
   -6.1653   -0.7801    1.0391 H   0  0  0  0  0  0  0  0  0  0  0  0
   -5.5075    0.8385    0.9829 H   0  0  0  0  0  0  0  0  0  0  0  0
    1.5800    1.6505   -1.7303 H   0  0  0  0  0  0  0  0  0  0  0  0
   -3.5470   -2.3588   -0.3706 H   0  0  0  0  0  0  0  0  0  0  0  0
   -4.7846   -2.7430    0.8149 H   0  0  0  0  0  0  0  0  0  0  0  0
   -3.1309   -2.7207    1.3359 H   0  0  0  0  0  0  0  0  0  0  0  0
   -4.7808    0.4331   -1.4278 H   0  0  0  0  0  0  0  0  0  0  0  0
   -5.4654   -1.1763   -1.3404 H   0  0  0  0  0  0  0  0  0  0  0  0
    7.4669   -1.1881   -1.3361 H   0  0  0  0  0  0  0  0  0  0  0  0
   -6.9957    1.4546   -0.9710 H   0  0  0  0  0  0  0  0  0  0  0  0
   -7.7199   -0.1735   -0.9136 H   0  0  0  0  0  0  0  0  0  0  0  0
   -7.8708    0.7988   -2.9645 H   0  0  0  0  0  0  0  0  0  0  0  0
  1 11  1  0  0  0  0
  1 58  1  0  0  0  0
  2 15  1  0  0  0  0
  2 61  1  0  0  0  0
  3 24  1  0  0  0  0
  3 67  1  0  0  0  0
  4 28  1  0  0  0  0
  4 70  1  0  0  0  0
  5  6  1  0  0  0  0
  5 10  1  0  0  0  0
  5 11  1  0  0  0  0
  5 19  1  0  0  0  0
  6  7  1  0  0  0  0
  6 14  1  0  0  0  0
  6 29  1  0  0  0  0
  7  8  1  0  0  0  0
  7 15  1  0  0  0  0
  7 30  1  0  0  0  0
  8  9  1  0  0  0  0
  8 12  1  0  0  0  0
  8 31  1  0  0  0  0
  9 13  1  0  0  0  0
  9 18  1  0  0  0  0
  9 22  1  0  0  0  0
 10 16  1  0  0  0  0
 10 20  1  0  0  0  0
 10 32  1  0  0  0  0
 11 12  1  0  0  0  0
 11 33  1  0  0  0  0
 12 34  1  0  0  0  0
 12 35  1  0  0  0  0
 13 17  1  0  0  0  0
 13 21  1  0  0  0  0
 13 36  1  0  0  0  0
 14 16  1  0  0  0  0
 14 37  1  0  0  0  0
 14 38  1  0  0  0  0
 15 17  1  0  0  0  0
 15 39  1  0  0  0  0
 16 40  1  0  0  0  0
 16 41  1  0  0  0  0
 17 42  1  0  0  0  0
 17 43  1  0  0  0  0
 18 23  1  0  0  0  0
 18 44  1  0  0  0  0
 18 45  1  0  0  0  0
 19 46  1  0  0  0  0
 19 47  1  0  0  0  0
 19 48  1  0  0  0  0
 20 25  1  0  0  0  0
 20 26  1  0  0  0  0
 20 49  1  0  0  0  0
 21 24  1  0  0  0  0
 21 50  1  0  0  0  0
 21 51  1  0  0  0  0
 22 52  1  0  0  0  0
 22 53  1  0  0  0  0
 22 54  1  0  0  0  0
 23 24  1  0  0  0  0
 23 55  1  0  0  0  0
 23 56  1  0  0  0  0
 24 57  1  0  0  0  0
 25 27  1  0  0  0  0
 25 59  1  0  0  0  0
 25 60  1  0  0  0  0
 26 62  1  0  0  0  0
 26 63  1  0  0  0  0
 26 64  1  0  0  0  0
 27 28  1  0  0  0  0
 27 65  1  0  0  0  0
 27 66  1  0  0  0  0
 28 68  1  0  0  0  0
 28 69  1  0  0  0  0
M  END
> <PUBCHEM_COMPOUND_CID>
5284054

> <PUBCHEM_CONFORMER_RMSD>
0.8

> <PUBCHEM_CONFORMER_DIVERSEORDER>
2
3
1

> <PUBCHEM_MMFF94_PARTIAL_CHARGES>
12
1 -0.68
11 0.28
15 0.28
2 -0.68
24 0.28
28 0.28
3 -0.68
4 -0.68
58 0.4
61 0.4
67 0.4
70 0.4

> <PUBCHEM_EFFECTIVE_ROTOR_COUNT>
6.2

> <PUBCHEM_PHARMACOPHORE_FEATURES>
13
1 1 acceptor
1 1 donor
1 2 acceptor
1 2 donor
1 26 hydrophobe
1 3 acceptor
1 3 donor
1 4 acceptor
1 4 donor
5 5 6 10 14 16 rings
6 5 6 7 8 11 12 rings
6 7 8 9 13 15 17 rings
6 9 13 18 21 23 24 rings

> <PUBCHEM_HEAVY_ATOM_COUNT>
28

> <PUBCHEM_ATOM_DEF_STEREO_COUNT>
11

> <PUBCHEM_ATOM_UDEF_STEREO_COUNT>
0

> <PUBCHEM_BOND_DEF_STEREO_COUNT>
0

> <PUBCHEM_BOND_UDEF_STEREO_COUNT>
0

> <PUBCHEM_ISOTOPIC_ATOM_COUNT>
0

> <PUBCHEM_COMPONENT_COUNT>
1

> <PUBCHEM_CACTVS_TAUTO_COUNT>
1

> <PUBCHEM_CONFORMER_ID>
0050A0D600000002

> <PUBCHEM_MMFF94_ENERGY>
107.8347

> <PUBCHEM_FEATURE_SELFOVERLAP>
66.056

> <PUBCHEM_SHAPE_FINGERPRINT>
106641 1 13912612658668729726
10693767 8 18115034111718353407
11315181 36 18272639139672999104
11578080 2 14188140282057758564
12011746 2 18343579646712926808
12166972 35 17385724694533720024
12236239 1 17313099756811769529
12403259 415 17775281634770045585
12633257 1 14490473106021476266
12788726 201 18341331188220554217
12838862 33 18410022014131489984
13533116 47 17603301540564867776
13583140 156 17417804020427125161
13782708 43 16805320024144335134
14931854 50 18272643584943285230
15183329 4 18272940453272591301
15188451 53 14996291301729895453
15196674 1 18336819793253635392
15238133 3 15913335671260939372
15439362 3 17271991075109499444
16994733 274 15769199545978892220
17349148 13 17313373526638146179
18222031 100 18260834812400768282
18681886 176 18333733489884239610
200 152 17967526879004675889
20028762 73 17530969102489481671
21033648 29 16988565663275340505
21236236 1 18188200013840595505
21267235 1 18337094705536232970
21279426 13 18412544275987519963
21521239 73 18187374216251918647
21637258 2 15647061460590375317
21709351 56 18271244915974135399
21859007 373 17987539085420436109
22122407 14 14979657914840291709
221357 26 18334856138564473560
2215653 11 18409449189214727455
22393880 68 18272092652208261507
23402539 116 16081363081282930689
23522609 53 16662024998649332992
23559900 14 18410853226776901337
23569914 152 17400941077022724887
23576562 1 18129661877306907503
29717793 49 18186517713309507469
3004659 81 18413109437680345841
3009799 131 18343584048822257671
335352 9 18409440384879923725
350125 39 18335127700656373640
3633792 109 18113901571744065377
4058900 60 17560798887669244899
4098825 35 15913057559718030610
484989 97 18266736892610000075
5104073 3 18334285492345929600
9709674 26 18268980991029833050

> <PUBCHEM_SHAPE_MULTIPOLES>
552.75
14.82
2.19
1.61
6.04
0.52
0.25
-1.76
8.74
-0.66
-0.02
1.88
-0.14
0.76

> <PUBCHEM_SHAPE_SELFOVERLAP>
1152.805

> <PUBCHEM_SHAPE_VOLUME>
310.7

> <PUBCHEM_COORDINATE_TYPE>
2
5
10

$$$$

