442036
  -OEChem-07051212562D

 54 59  0     1  0  0  0  0  0999 V2000
    2.9999   -3.0560    0.0000 S   0  0  0  0  0  0  0  0  0  0  0  0
    3.9048   -0.5351    0.0000 O   0  0  0  0  0  0  0  0  0  0  0  0
    6.5554    4.0559    0.0000 O   0  0  0  0  0  0  0  0  0  0  0  0
    3.2871    2.2437    0.0000 O   0  0  0  0  0  0  0  0  0  0  0  0
    5.6530   -1.6039    0.0000 O   0  0  0  0  0  0  0  0  0  0  0  0
    3.3057    4.0013    0.0000 O   0  0  0  0  0  0  0  0  0  0  0  0
    4.3732   -2.4378    0.0000 O   0  0  0  0  0  0  0  0  0  0  0  0
    7.4231   -1.5797    0.0000 O   0  0  0  0  0  0  0  0  0  0  0  0
    2.0000   -3.0444    0.0000 O   0  0  0  0  0  0  0  0  0  0  0  0
    3.9999   -3.0675    0.0000 O   0  0  0  0  0  0  0  0  0  0  0  0
    4.7710    1.9654    0.0000 C   0  0  2  0  0  0  0  0  0  0  0  0
    5.6371    1.4654    0.0000 C   0  0  1  0  0  0  0  0  0  0  0  0
    4.7710   -0.0346    0.0000 C   0  0  2  0  0  0  0  0  0  0  0  0
    4.7550    3.0069    0.0000 C   0  0  2  0  0  0  0  0  0  0  0  0
    3.9050    0.4654    0.0000 C   0  0  1  0  0  0  0  0  0  0  0  0
    3.9050    1.4654    0.0000 C   0  0  1  0  0  0  0  0  0  0  0  0
    5.6530    3.5346    0.0000 C   0  0  2  0  0  0  0  0  0  0  0  0
    6.5551    3.0138    0.0000 C   0  0  2  0  0  0  0  0  0  0  0  0
    5.6371    0.4654    0.0000 C   0  0  0  0  0  0  0  0  0  0  0  0
    6.5471    1.9722    0.0000 C   0  0  0  0  0  0  0  0  0  0  0  0
    4.7550   -1.0761    0.0000 C   0  0  1  0  0  0  0  0  0  0  0  0
    3.7670    3.1140    0.0000 C   0  0  0  0  0  0  0  0  0  0  0  0
    6.5031    0.9654    0.0000 C   0  0  0  0  0  0  0  0  0  0  0  0
    4.2450    3.8671    0.0000 C   0  0  0  0  0  0  0  0  0  0  0  0
    6.5471   -0.0415    0.0000 C   0  0  0  0  0  0  0  0  0  0  0  0
    3.8832   -1.5661    0.0000 C   0  0  2  0  0  0  0  0  0  0  0  0
    6.5551   -1.0831    0.0000 C   0  0  0  0  0  0  0  0  0  0  0  0
    3.0115   -2.0560    0.0000 C   0  0  0  0  0  0  0  0  0  0  0  0
    3.0231   -1.0561    0.0000 C   0  0  0  0  0  0  0  0  0  0  0  0
    2.9884   -4.0559    0.0000 C   0  0  0  0  0  0  0  0  0  0  0  0
    5.5072    2.3904    0.0000 H   0  0  0  0  0  0  0  0  0  0  0  0
    3.0550    0.4655    0.0000 H   0  0  0  0  0  0  0  0  0  0  0  0
    3.1024    1.1855    0.0000 H   0  0  0  0  0  0  0  0  0  0  0  0
    5.3409    4.0703    0.0000 H   0  0  0  0  0  0  0  0  0  0  0  0
    7.1751    3.0114    0.0000 H   0  0  0  0  0  0  0  0  0  0  0  0
    6.7516    1.3869    0.0000 H   0  0  0  0  0  0  0  0  0  0  0  0
    7.1587    2.0736    0.0000 H   0  0  0  0  0  0  0  0  0  0  0  0
    4.7468   -1.9261    0.0000 H   0  0  0  0  0  0  0  0  0  0  0  0
    6.1931    0.4284    0.0000 H   0  0  0  0  0  0  0  0  0  0  0  0
    7.0400    0.6554    0.0000 H   0  0  0  0  0  0  0  0  0  0  0  0
    6.8131    1.5023    0.0000 H   0  0  0  0  0  0  0  0  0  0  0  0
    4.7783    4.1832    0.0000 H   0  0  0  0  0  0  0  0  0  0  0  0
    3.9288    4.4004    0.0000 H   0  0  0  0  0  0  0  0  0  0  0  0
    3.7117    3.5509    0.0000 H   0  0  0  0  0  0  0  0  0  0  0  0
    7.0804    0.2747    0.0000 H   0  0  0  0  0  0  0  0  0  0  0  0
    2.8062   -1.4710    0.0000 H   0  0  0  0  0  0  0  0  0  0  0  0
    2.3997   -2.1566    0.0000 H   0  0  0  0  0  0  0  0  0  0  0  0
    3.3392   -0.5228    0.0000 H   0  0  0  0  0  0  0  0  0  0  0  0
    2.4897   -0.7399    0.0000 H   0  0  0  0  0  0  0  0  0  0  0  0
    2.7069   -1.5894    0.0000 H   0  0  0  0  0  0  0  0  0  0  0  0
    4.9932   -2.4450    0.0000 H   0  0  0  0  0  0  0  0  0  0  0  0
    2.3684   -4.0487    0.0000 H   0  0  0  0  0  0  0  0  0  0  0  0
    2.9812   -4.6759    0.0000 H   0  0  0  0  0  0  0  0  0  0  0  0
    3.6083   -4.0631    0.0000 H   0  0  0  0  0  0  0  0  0  0  0  0
  1  9  2  0  0  0  0
  1 10  2  0  0  0  0
  1 28  1  0  0  0  0
  1 30  1  0  0  0  0
 13  2  1  6  0  0  0
  2 15  1  0  0  0  0
 17  3  1  1  0  0  0
 18  3  1  1  0  0  0
  4 16  1  0  0  0  0
  4 22  1  0  0  0  0
  5 21  1  0  0  0  0
  5 27  1  0  0  0  0
  6 22  2  0  0  0  0
 26  7  1  6  0  0  0
  7 51  1  0  0  0  0
  8 27  2  0  0  0  0
 11 12  1  0  0  0  0
 11 14  1  0  0  0  0
 11 16  1  0  0  0  0
 11 31  1  6  0  0  0
 12 19  1  0  0  0  0
 12 20  1  0  0  0  0
 12 23  1  1  0  0  0
 13 15  1  0  0  0  0
 13 19  1  0  0  0  0
 13 21  1  0  0  0  0
 14 17  1  0  0  0  0
 14 22  1  0  0  0  0
 14 24  1  6  0  0  0
 15 16  1  0  0  0  0
 15 32  1  1  0  0  0
 16 33  1  6  0  0  0
 17 18  1  0  0  0  0
 17 34  1  0  0  0  0
 18 20  1  0  0  0  0
 18 35  1  0  0  0  0
 19 25  2  0  0  0  0
 20 36  1  0  0  0  0
 20 37  1  0  0  0  0
 21 26  1  0  0  0  0
 21 38  1  1  0  0  0
 23 39  1  0  0  0  0
 23 40  1  0  0  0  0
 23 41  1  0  0  0  0
 24 42  1  0  0  0  0
 24 43  1  0  0  0  0
 24 44  1  0  0  0  0
 25 27  1  0  0  0  0
 25 45  1  0  0  0  0
 26 28  1  0  0  0  0
 26 29  1  0  0  0  0
 28 46  1  0  0  0  0
 28 47  1  0  0  0  0
 29 48  1  0  0  0  0
 29 49  1  0  0  0  0
 29 50  1  0  0  0  0
 30 52  1  0  0  0  0
 30 53  1  0  0  0  0
 30 54  1  0  0  0  0
M  END
> <PUBCHEM_COMPOUND_CID>
442036

> <PUBCHEM_COMPOUND_CANONICALIZED>
1

> <PUBCHEM_CACTVS_COMPLEXITY>
1050

> <PUBCHEM_CACTVS_HBOND_ACCEPTOR>
9

> <PUBCHEM_CACTVS_HBOND_DONOR>
1

> <PUBCHEM_CACTVS_ROTATABLE_BOND>
3

> <PUBCHEM_CACTVS_SUBSKEYS>
AAADceB4PABAAAAAAAAAAAAAEiQAASAAAAAwYIAABIkAAEjAAAAAGgQACAAAD1SkwAKCCAAABgqIAiDSCHBAAAAgABAACAEAAEgBBBYgIAACUAAF4AALIQPK7PzPgAAAAAAAAADAAAYQADCAAAAAAAAAAA==

> <PUBCHEM_IUPAC_INCHI>
InChI=1S/C20H24O9S/c1-17-6-8-13(26-8)19(3)12(17)11(28-16(19)22)14-20(29-14)9(17)5-10(21)27-15(20)18(2,23)7-30(4,24)25/h5,8,11-15,23H,6-7H2,1-4H3/t8-,11-,12+,13-,14+,15+,17+,18-,19+,20-/m0/s1

> <PUBCHEM_IUPAC_INCHIKEY>
AVQGMZMZZORTNF-KTFIAZJISA-N

> <PUBCHEM_XLOGP3_AA>
-1.1

> <PUBCHEM_EXACT_MASS>
440.114103

> <PUBCHEM_MOLECULAR_FORMULA>
C20H24O9S

> <PUBCHEM_MOLECULAR_WEIGHT>
440.46416

> <PUBCHEM_OPENEYE_CAN_SMILES>
CC12CC3C(O3)C4(C1C(C5C6(C2=CC(=O)OC6C(C)(CS(=O)(=O)C)O)O5)OC4=O)C

> <PUBCHEM_OPENEYE_ISO_SMILES>
C[C@]12C[C@H]3[C@H](O3)[C@]4([C@@H]1[C@@H]([C@@H]5[C@]6(C2=CC(=O)O[C@@H]6[C@](C)(CS(=O)(=O)C)O)O5)OC4=O)C

> <PUBCHEM_CACTVS_TPSA>
140

> <PUBCHEM_MONOISOTOPIC_WEIGHT>
440.114103

> <PUBCHEM_TOTAL_CHARGE>
0

> <PUBCHEM_HEAVY_ATOM_COUNT>
30

> <PUBCHEM_ATOM_DEF_STEREO_COUNT>
10

> <PUBCHEM_ATOM_UDEF_STEREO_COUNT>
0

> <PUBCHEM_BOND_DEF_STEREO_COUNT>
0

> <PUBCHEM_BOND_UDEF_STEREO_COUNT>
0

> <PUBCHEM_ISOTOPIC_ATOM_COUNT>
0

> <PUBCHEM_COMPONENT_COUNT>
1

> <PUBCHEM_CACTVS_TAUTO_COUNT>
1

> <PUBCHEM_COORDINATE_TYPE>
1
5
255

> <PUBCHEM_BONDANNOTATIONS>
11  31  6
12  23  5
14  24  6
15  32  5
16  33  6
13  2  6
21  38  5
17  3  5
18  3  5
26  7  6

$$$$

