11954076
  -OEChem-07051213062D

 66 71  0     1  0  0  0  0  0999 V2000
    9.0594   -0.2668    0.0000 O   0  0  0  0  0  0  0  0  0  0  0  0
    8.4073   -1.7279    0.0000 O   0  0  0  0  0  0  0  0  0  0  0  0
    8.7828    1.4216    0.0000 O   0  0  0  0  0  0  0  0  0  0  0  0
    9.3549   -3.0135    0.0000 O   0  0  0  0  0  0  0  0  0  0  0  0
    2.0000    3.6513    0.0000 O   0  0  0  0  0  0  0  0  0  0  0  0
    7.3399    0.5069    0.0000 C   0  0  1  0  0  0  0  0  0  0  0  0
    6.4739    0.0069    0.0000 C   0  0  2  0  0  0  0  0  0  0  0  0
    5.6079    0.5069    0.0000 C   0  0  1  0  0  0  0  0  0  0  0  0
    8.0770   -0.1601    0.0000 C   0  0  1  0  0  0  0  0  0  0  0  0
    5.6079    1.5069    0.0000 C   0  0  2  0  0  0  0  0  0  0  0  0
    6.6831   -0.9649    0.0000 C   0  0  0  0  0  0  0  0  0  0  0  0
    7.6718   -1.0679    0.0000 C   0  0  1  0  0  0  0  0  0  0  0  0
    7.3399    1.5069    0.0000 C   0  0  0  0  0  0  0  0  0  0  0  0
    6.4739    2.0069    0.0000 C   0  0  0  0  0  0  0  0  0  0  0  0
    4.7140    2.0416    0.0000 C   0  0  2  0  0  0  0  0  0  0  0  0
    4.7140   -0.0277    0.0000 C   0  0  0  0  0  0  0  0  0  0  0  0
    8.2060    1.0069    0.0000 C   0  0  0  0  0  0  0  0  0  0  0  0
    3.8079    1.5278    0.0000 C   0  0  0  0  0  0  0  0  0  0  0  0
    3.8079    0.4861    0.0000 C   0  0  0  0  0  0  0  0  0  0  0  0
    8.8865    0.4269    0.0000 C   0  0  0  0  0  0  0  0  0  0  0  0
    9.2632   -1.2338    0.0000 C   0  0  3  0  0  0  0  0  0  0  0  0
    4.7390    3.1263    0.0000 C   0  0  0  0  0  0  0  0  0  0  0  0
    5.5838    2.5349    0.0000 C   0  0  0  0  0  0  0  0  0  0  0  0
    3.8079    3.6832    0.0000 C   0  0  0  0  0  0  0  0  0  0  0  0
    2.8641    2.0630    0.0000 C   0  0  0  0  0  0  0  0  0  0  0  0
    9.7997    0.0194    0.0000 C   0  0  0  0  0  0  0  0  0  0  0  0
   10.2415   -1.0267    0.0000 C   0  0  0  0  0  0  0  0  0  0  0  0
    9.7624   -2.1002    0.0000 C   0  0  0  0  0  0  0  0  0  0  0  0
    2.8641    3.1480    0.0000 C   0  0  0  0  0  0  0  0  0  0  0  0
   10.7568   -2.2056    0.0000 C   0  0  0  0  0  0  0  0  0  0  0  0
   10.9639   -3.1840    0.0000 C   0  0  0  0  0  0  0  0  0  0  0  0
   10.0974   -3.6832    0.0000 C   0  0  0  0  0  0  0  0  0  0  0  0
    5.7869   -0.4936    0.0000 H   0  0  0  0  0  0  0  0  0  0  0  0
    5.6144   -0.3430    0.0000 H   0  0  0  0  0  0  0  0  0  0  0  0
    6.3440    1.0819    0.0000 H   0  0  0  0  0  0  0  0  0  0  0  0
    6.0666   -1.0309    0.0000 H   0  0  0  0  0  0  0  0  0  0  0  0
    6.6840   -1.5849    0.0000 H   0  0  0  0  0  0  0  0  0  0  0  0
    7.3271   -1.8449    0.0000 H   0  0  0  0  0  0  0  0  0  0  0  0
    7.9505    1.3993    0.0000 H   0  0  0  0  0  0  0  0  0  0  0  0
    7.5520    2.0896    0.0000 H   0  0  0  0  0  0  0  0  0  0  0  0
    6.8724    2.4819    0.0000 H   0  0  0  0  0  0  0  0  0  0  0  0
    6.0754    2.4819    0.0000 H   0  0  0  0  0  0  0  0  0  0  0  0
    4.3203   -0.5067    0.0000 H   0  0  0  0  0  0  0  0  0  0  0  0
    5.1185   -0.4975    0.0000 H   0  0  0  0  0  0  0  0  0  0  0  0
    8.5160    0.4700    0.0000 H   0  0  0  0  0  0  0  0  0  0  0  0
    8.7429    1.3169    0.0000 H   0  0  0  0  0  0  0  0  0  0  0  0
    7.8960    1.5439    0.0000 H   0  0  0  0  0  0  0  0  0  0  0  0
    3.1970    0.5922    0.0000 H   0  0  0  0  0  0  0  0  0  0  0  0
    3.5988   -0.0976    0.0000 H   0  0  0  0  0  0  0  0  0  0  0  0
    5.3473    3.0061    0.0000 H   0  0  0  0  0  0  0  0  0  0  0  0
    4.9615    3.7050    0.0000 H   0  0  0  0  0  0  0  0  0  0  0  0
    5.8896    1.9956    0.0000 H   0  0  0  0  0  0  0  0  0  0  0  0
    6.1231    2.8408    0.0000 H   0  0  0  0  0  0  0  0  0  0  0  0
    5.2780    3.0742    0.0000 H   0  0  0  0  0  0  0  0  0  0  0  0
    4.2125    4.1530    0.0000 H   0  0  0  0  0  0  0  0  0  0  0  0
    3.4142    4.1622    0.0000 H   0  0  0  0  0  0  0  0  0  0  0  0
    2.3284    1.7509    0.0000 H   0  0  0  0  0  0  0  0  0  0  0  0
    9.5470   -0.5468    0.0000 H   0  0  0  0  0  0  0  0  0  0  0  0
   10.3659   -0.2333    0.0000 H   0  0  0  0  0  0  0  0  0  0  0  0
   10.0523    0.5856    0.0000 H   0  0  0  0  0  0  0  0  0  0  0  0
   10.3699   -1.6333    0.0000 H   0  0  0  0  0  0  0  0  0  0  0  0
   10.8480   -0.8984    0.0000 H   0  0  0  0  0  0  0  0  0  0  0  0
   10.1131   -0.4202    0.0000 H   0  0  0  0  0  0  0  0  0  0  0  0
   11.1721   -1.7452    0.0000 H   0  0  0  0  0  0  0  0  0  0  0  0
   11.5301   -3.4366    0.0000 H   0  0  0  0  0  0  0  0  0  0  0  0
   10.0321   -4.2998    0.0000 H   0  0  0  0  0  0  0  0  0  0  0  0
  1  9  1  0  0  0  0
  1 21  1  0  0  0  0
  2 12  1  0  0  0  0
  2 21  1  0  0  0  0
  3 20  2  0  0  0  0
  4 28  1  0  0  0  0
  4 32  1  0  0  0  0
  5 29  2  0  0  0  0
  6  7  1  0  0  0  0
  6  9  1  0  0  0  0
  6 13  1  0  0  0  0
  6 17  1  1  0  0  0
  7  8  1  0  0  0  0
  7 11  1  0  0  0  0
  7 33  1  6  0  0  0
  8 10  1  0  0  0  0
  8 16  1  0  0  0  0
  8 34  1  1  0  0  0
  9 12  1  0  0  0  0
  9 20  1  1  0  0  0
 10 14  1  0  0  0  0
 10 15  1  0  0  0  0
 10 35  1  6  0  0  0
 11 12  1  0  0  0  0
 11 36  1  0  0  0  0
 11 37  1  0  0  0  0
 12 38  1  1  0  0  0
 13 14  1  0  0  0  0
 13 39  1  0  0  0  0
 13 40  1  0  0  0  0
 14 41  1  0  0  0  0
 14 42  1  0  0  0  0
 15 18  1  0  0  0  0
 15 22  1  0  0  0  0
 15 23  1  1  0  0  0
 16 19  1  0  0  0  0
 16 43  1  0  0  0  0
 16 44  1  0  0  0  0
 17 45  1  0  0  0  0
 17 46  1  0  0  0  0
 17 47  1  0  0  0  0
 18 19  1  0  0  0  0
 18 25  2  0  0  0  0
 19 48  1  0  0  0  0
 19 49  1  0  0  0  0
 20 26  1  0  0  0  0
 21 27  1  0  0  0  0
 21 28  1  0  0  0  0
 22 24  1  0  0  0  0
 22 50  1  0  0  0  0
 22 51  1  0  0  0  0
 23 52  1  0  0  0  0
 23 53  1  0  0  0  0
 23 54  1  0  0  0  0
 24 29  1  0  0  0  0
 24 55  1  0  0  0  0
 24 56  1  0  0  0  0
 25 29  1  0  0  0  0
 25 57  1  0  0  0  0
 26 58  1  0  0  0  0
 26 59  1  0  0  0  0
 26 60  1  0  0  0  0
 27 61  1  0  0  0  0
 27 62  1  0  0  0  0
 27 63  1  0  0  0  0
 28 30  2  0  0  0  0
 30 31  1  0  0  0  0
 30 64  1  0  0  0  0
 31 32  2  0  0  0  0
 31 65  1  0  0  0  0
 32 66  1  0  0  0  0
M  END
> <PUBCHEM_COMPOUND_CID>
11954076

> <PUBCHEM_COMPOUND_CANONICALIZED>
1

> <PUBCHEM_CACTVS_COMPLEXITY>
895

> <PUBCHEM_CACTVS_HBOND_ACCEPTOR>
5

> <PUBCHEM_CACTVS_HBOND_DONOR>
0

> <PUBCHEM_CACTVS_ROTATABLE_BOND>
2

> <PUBCHEM_CACTVS_SUBSKEYS>
AAADcfB4OAAAAAAAAAAAAAAAAAAAAaJEAAAwYIAAAAASAGDBgAAAGgAAAAAAD1SgkAIyDIAABECIAqhSgAICCAAkIAAIiAFGCMgdJjaENR6iGSCk4BEOqYeI7PzPgAAAAAAAAACAAAQAACAAAYAADCAAAA==

> <PUBCHEM_IUPAC_INCHI>
InChI=1S/C27H34O5/c1-16(28)27-23(31-26(4,32-27)22-6-5-13-30-22)15-21-19-8-7-17-14-18(29)9-11-24(17,2)20(19)10-12-25(21,27)3/h5-6,13-14,19-21,23H,7-12,15H2,1-4H3/t19-,20+,21+,23-,24+,25+,26?,27-/m1/s1

> <PUBCHEM_IUPAC_INCHIKEY>
PDWGBWJIJZYLQQ-IIJNRFJRSA-N

> <PUBCHEM_XLOGP3_AA>
3.7

> <PUBCHEM_EXACT_MASS>
438.240624

> <PUBCHEM_MOLECULAR_FORMULA>
C27H34O5

> <PUBCHEM_MOLECULAR_WEIGHT>
438.55586

> <PUBCHEM_OPENEYE_CAN_SMILES>
CC(=O)C12C(CC3C1(CCC4C3CCC5=CC(=O)CCC45C)C)OC(O2)(C)C6=CC=CO6

> <PUBCHEM_OPENEYE_ISO_SMILES>
CC(=O)[C@@]12[C@@H](C[C@@H]3[C@@]1(CC[C@H]4[C@H]3CCC5=CC(=O)CC[C@]45C)C)OC(O2)(C)C6=CC=CO6

> <PUBCHEM_CACTVS_TPSA>
65.7

> <PUBCHEM_MONOISOTOPIC_WEIGHT>
438.240624

> <PUBCHEM_TOTAL_CHARGE>
0

> <PUBCHEM_HEAVY_ATOM_COUNT>
32

> <PUBCHEM_ATOM_DEF_STEREO_COUNT>
7

> <PUBCHEM_ATOM_UDEF_STEREO_COUNT>
1

> <PUBCHEM_BOND_DEF_STEREO_COUNT>
0

> <PUBCHEM_BOND_UDEF_STEREO_COUNT>
0

> <PUBCHEM_ISOTOPIC_ATOM_COUNT>
0

> <PUBCHEM_COMPONENT_COUNT>
1

> <PUBCHEM_CACTVS_TAUTO_COUNT>
10

> <PUBCHEM_COORDINATE_TYPE>
1
5
255

> <PUBCHEM_BONDANNOTATIONS>
10  35  6
12  38  5
15  23  5
21  27  3
28  30  8
30  31  8
31  32  8
4  28  8
4  32  8
6  17  5
7  33  6
8  34  5
9  20  5

$$$$

