51090990
  -OEChem-06241223012D

 49 52  0     1  0  0  0  0  0999 V2000
    8.0622   -3.5670    0.0000 O   0  0  0  0  0  0  0  0  0  0  0  0
    6.3301   -0.5670    0.0000 O   0  0  0  0  0  0  0  0  0  0  0  0
    8.9282   -2.0670    0.0000 N   0  0  0  0  0  0  0  0  0  0  0  0
    7.1962    0.9330    0.0000 N   0  0  0  0  0  0  0  0  0  0  0  0
    5.4641    0.9330    0.0000 N   0  0  0  0  0  0  0  0  0  0  0  0
    9.7942   -3.5670    0.0000 C   0  0  0  0  0  0  0  0  0  0  0  0
   10.2942   -4.4330    0.0000 C   0  0  0  0  0  0  0  0  0  0  0  0
   10.7942   -3.5670    0.0000 C   0  0  0  0  0  0  0  0  0  0  0  0
    8.9282   -3.0670    0.0000 C   0  0  0  0  0  0  0  0  0  0  0  0
    8.0622   -1.5670    0.0000 C   0  0  0  0  0  0  0  0  0  0  0  0
    8.0622   -0.5670    0.0000 C   0  0  3  0  0  0  0  0  0  0  0  0
    9.7942   -1.5670    0.0000 C   0  0  0  0  0  0  0  0  0  0  0  0
    8.9282   -0.0670    0.0000 C   0  0  0  0  0  0  0  0  0  0  0  0
    9.7942   -0.5670    0.0000 C   0  0  0  0  0  0  0  0  0  0  0  0
    7.1962   -0.0670    0.0000 C   0  0  0  0  0  0  0  0  0  0  0  0
    6.3301    1.4330    0.0000 C   0  0  0  0  0  0  0  0  0  0  0  0
    6.3301    2.4330    0.0000 C   0  0  0  0  0  0  0  0  0  0  0  0
    5.4641    2.9330    0.0000 C   0  0  0  0  0  0  0  0  0  0  0  0
    4.5981    2.4330    0.0000 C   0  0  0  0  0  0  0  0  0  0  0  0
    4.5981    1.4330    0.0000 C   0  0  0  0  0  0  0  0  0  0  0  0
    3.7320    2.9330    0.0000 C   0  0  0  0  0  0  0  0  0  0  0  0
    3.7320    3.9330    0.0000 C   0  0  0  0  0  0  0  0  0  0  0  0
    2.8660    2.4330    0.0000 C   0  0  0  0  0  0  0  0  0  0  0  0
    2.8660    4.4330    0.0000 C   0  0  0  0  0  0  0  0  0  0  0  0
    2.0000    2.9330    0.0000 C   0  0  0  0  0  0  0  0  0  0  0  0
    2.0000    3.9330    0.0000 C   0  0  0  0  0  0  0  0  0  0  0  0
    9.3558   -4.0054    0.0000 H   0  0  0  0  0  0  0  0  0  0  0  0
    9.8193   -4.8315    0.0000 H   0  0  0  0  0  0  0  0  0  0  0  0
   10.7692   -4.8315    0.0000 H   0  0  0  0  0  0  0  0  0  0  0  0
   11.3768   -3.7790    0.0000 H   0  0  0  0  0  0  0  0  0  0  0  0
   10.9019   -2.9564    0.0000 H   0  0  0  0  0  0  0  0  0  0  0  0
    7.4516   -1.4593    0.0000 H   0  0  0  0  0  0  0  0  0  0  0  0
    7.8501   -2.1496    0.0000 H   0  0  0  0  0  0  0  0  0  0  0  0
    8.0622    0.0530    0.0000 H   0  0  0  0  0  0  0  0  0  0  0  0
   10.0063   -2.1496    0.0000 H   0  0  0  0  0  0  0  0  0  0  0  0
   10.4048   -1.4593    0.0000 H   0  0  0  0  0  0  0  0  0  0  0  0
    9.3267    0.4080    0.0000 H   0  0  0  0  0  0  0  0  0  0  0  0
    8.5297    0.4080    0.0000 H   0  0  0  0  0  0  0  0  0  0  0  0
   10.4048   -0.6746    0.0000 H   0  0  0  0  0  0  0  0  0  0  0  0
   10.0063    0.0156    0.0000 H   0  0  0  0  0  0  0  0  0  0  0  0
    7.7331    1.2430    0.0000 H   0  0  0  0  0  0  0  0  0  0  0  0
    6.8671    2.7430    0.0000 H   0  0  0  0  0  0  0  0  0  0  0  0
    5.4641    3.5530    0.0000 H   0  0  0  0  0  0  0  0  0  0  0  0
    4.0611    1.1230    0.0000 H   0  0  0  0  0  0  0  0  0  0  0  0
    4.2690    4.2430    0.0000 H   0  0  0  0  0  0  0  0  0  0  0  0
    2.8660    1.8130    0.0000 H   0  0  0  0  0  0  0  0  0  0  0  0
    2.8660    5.0530    0.0000 H   0  0  0  0  0  0  0  0  0  0  0  0
    1.4631    2.6230    0.0000 H   0  0  0  0  0  0  0  0  0  0  0  0
    1.4631    4.2430    0.0000 H   0  0  0  0  0  0  0  0  0  0  0  0
  1  9  2  0  0  0  0
  2 15  2  0  0  0  0
  3  9  1  0  0  0  0
  3 10  1  0  0  0  0
  3 12  1  0  0  0  0
  4 15  1  0  0  0  0
  4 16  1  0  0  0  0
  4 41  1  0  0  0  0
  5 16  2  0  0  0  0
  5 20  1  0  0  0  0
  6  7  1  0  0  0  0
  6  8  1  0  0  0  0
  6  9  1  0  0  0  0
  6 27  1  0  0  0  0
  7  8  1  0  0  0  0
  7 28  1  0  0  0  0
  7 29  1  0  0  0  0
  8 30  1  0  0  0  0
  8 31  1  0  0  0  0
 10 11  1  0  0  0  0
 10 32  1  0  0  0  0
 10 33  1  0  0  0  0
 11 13  1  0  0  0  0
 11 15  1  0  0  0  0
 11 34  1  0  0  0  0
 12 14  1  0  0  0  0
 12 35  1  0  0  0  0
 12 36  1  0  0  0  0
 13 14  1  0  0  0  0
 13 37  1  0  0  0  0
 13 38  1  0  0  0  0
 14 39  1  0  0  0  0
 14 40  1  0  0  0  0
 16 17  1  0  0  0  0
 17 18  2  0  0  0  0
 17 42  1  0  0  0  0
 18 19  1  0  0  0  0
 18 43  1  0  0  0  0
 19 20  2  0  0  0  0
 19 21  1  0  0  0  0
 20 44  1  0  0  0  0
 21 22  2  0  0  0  0
 21 23  1  0  0  0  0
 22 24  1  0  0  0  0
 22 45  1  0  0  0  0
 23 25  2  0  0  0  0
 23 46  1  0  0  0  0
 24 26  2  0  0  0  0
 24 47  1  0  0  0  0
 25 26  1  0  0  0  0
 25 48  1  0  0  0  0
 26 49  1  0  0  0  0
M  END
> <PUBCHEM_COMPOUND_CID>
51090990

> <PUBCHEM_COMPOUND_CANONICALIZED>
1

> <PUBCHEM_CACTVS_COMPLEXITY>
513

> <PUBCHEM_CACTVS_HBOND_ACCEPTOR>
3

> <PUBCHEM_CACTVS_HBOND_DONOR>
1

> <PUBCHEM_CACTVS_ROTATABLE_BOND>
4

> <PUBCHEM_CACTVS_SUBSKEYS>
AAADceB7MAAAAAAAAAAAAAAAGAAAAAAAAAA8WIAAAAAAAAABwAAAHgAQAAAADQDBmgQ9sJPIEACoAjN3dACCgCkxAiAJ2CE4ZJiIIPrA2ZGEIAholwLIyCcYgcAOgAAAAAAAAAAAAAAAAAAAAAAAAAAAAA==

> <PUBCHEM_IUPAC_OPENEYE_NAME>
1-(cyclopropanecarbonyl)-N-(5-phenyl-2-pyridyl)piperidine-3-carboxamide

> <PUBCHEM_IUPAC_CAS_NAME>
1-[cyclopropyl(oxo)methyl]-N-(5-phenyl-2-pyridinyl)-3-piperidinecarboxamide

> <PUBCHEM_IUPAC_NAME>
1-(cyclopropanecarbonyl)-N-(5-phenylpyridin-2-yl)piperidine-3-carboxamide

> <PUBCHEM_IUPAC_SYSTEMATIC_NAME>
1-cyclopropylcarbonyl-N-(5-phenylpyridin-2-yl)piperidine-3-carboxamide

> <PUBCHEM_IUPAC_TRADITIONAL_NAME>
1-(cyclopropanecarbonyl)-N-(5-phenyl-2-pyridyl)nipecotamide

> <PUBCHEM_IUPAC_INCHI>
InChI=1S/C21H23N3O2/c25-20(18-7-4-12-24(14-18)21(26)16-8-9-16)23-19-11-10-17(13-22-19)15-5-2-1-3-6-15/h1-3,5-6,10-11,13,16,18H,4,7-9,12,14H2,(H,22,23,25)

> <PUBCHEM_IUPAC_INCHIKEY>
NUPWYSVLRGVNSZ-UHFFFAOYSA-N

> <PUBCHEM_XLOGP3_AA>
2.4

> <PUBCHEM_EXACT_MASS>
349.179027

> <PUBCHEM_MOLECULAR_FORMULA>
C21H23N3O2

> <PUBCHEM_MOLECULAR_WEIGHT>
349.42622

> <PUBCHEM_OPENEYE_CAN_SMILES>
C1CC(CN(C1)C(=O)C2CC2)C(=O)NC3=NC=C(C=C3)C4=CC=CC=C4

> <PUBCHEM_OPENEYE_ISO_SMILES>
C1CC(CN(C1)C(=O)C2CC2)C(=O)NC3=NC=C(C=C3)C4=CC=CC=C4

> <PUBCHEM_CACTVS_TPSA>
62.3

> <PUBCHEM_MONOISOTOPIC_WEIGHT>
349.179027

> <PUBCHEM_TOTAL_CHARGE>
0

> <PUBCHEM_HEAVY_ATOM_COUNT>
26

> <PUBCHEM_ATOM_DEF_STEREO_COUNT>
0

> <PUBCHEM_ATOM_UDEF_STEREO_COUNT>
1

> <PUBCHEM_BOND_DEF_STEREO_COUNT>
0

> <PUBCHEM_BOND_UDEF_STEREO_COUNT>
0

> <PUBCHEM_ISOTOPIC_ATOM_COUNT>
0

> <PUBCHEM_COMPONENT_COUNT>
1

> <PUBCHEM_CACTVS_TAUTO_COUNT>
5

> <PUBCHEM_COORDINATE_TYPE>
1
5
255

> <PUBCHEM_BONDANNOTATIONS>
11  15  3
16  17  8
17  18  8
18  19  8
19  20  8
21  22  8
21  23  8
22  24  8
23  25  8
24  26  8
25  26  8
5  16  8
5  20  8

$$$$

