439336
  -OEChem-07051212452D

 66 68  0     1  0  0  0  0  0999 V2000
    4.2690    1.2500    0.0000 O   0  0  0  0  0  0  0  0  0  0  0  0
    5.1350   -1.2500    0.0000 O   0  0  0  0  0  0  0  0  0  0  0  0
    6.0010    1.2500    0.0000 O   0  0  0  0  0  0  0  0  0  0  0  0
    6.8671   -0.2500    0.0000 O   0  0  0  0  0  0  0  0  0  0  0  0
    6.0010   -1.7500    0.0000 O   0  0  0  0  0  0  0  0  0  0  0  0
    2.5369    0.2500    0.0000 O   0  0  0  0  0  0  0  0  0  0  0  0
    2.5369   -1.7500    0.0000 O   0  0  0  0  0  0  0  0  0  0  0  0
    4.2690    3.2500    0.0000 O   0  0  0  0  0  0  0  0  0  0  0  0
    6.0010    4.2500    0.0000 O   0  0  0  0  0  0  0  0  0  0  0  0
    7.7331    3.2500    0.0000 O   0  0  0  0  0  0  0  0  0  0  0  0
    4.2690   -2.7500    0.0000 O   0  0  0  0  0  0  0  0  0  0  0  0
    8.5991   -1.2500    0.0000 O   0  0  0  0  0  0  0  0  0  0  0  0
    8.5991   -3.2500    0.0000 O   0  0  0  0  0  0  0  0  0  0  0  0
    6.8671   -4.2500    0.0000 O   0  0  0  0  0  0  0  0  0  0  0  0
    7.7331    0.2500    0.0000 O   0  0  0  0  0  0  0  0  0  0  0  0
    5.1350   -4.2500    0.0000 O   0  0  0  0  0  0  0  0  0  0  0  0
    4.2690    0.2500    0.0000 C   0  0  2  0  0  0  0  0  0  0  0  0
    5.1350   -0.2500    0.0000 C   0  0  1  0  0  0  0  0  0  0  0  0
    3.4030   -0.2500    0.0000 C   0  0  1  0  0  0  0  0  0  0  0  0
    5.1350    1.7500    0.0000 C   0  0  2  0  0  0  0  0  0  0  0  0
    3.4030   -1.2500    0.0000 C   0  0  1  0  0  0  0  0  0  0  0  0
    5.1350    2.7500    0.0000 C   0  0  2  0  0  0  0  0  0  0  0  0
    6.0010    3.2500    0.0000 C   0  0  2  0  0  0  0  0  0  0  0  0
    6.8671    2.7500    0.0000 C   0  0  1  0  0  0  0  0  0  0  0  0
    6.0010    0.2500    0.0000 C   0  0  0  0  0  0  0  0  0  0  0  0
    4.2690   -1.7500    0.0000 C   0  0  1  0  0  0  0  0  0  0  0  0
    6.8671    1.7500    0.0000 C   0  0  1  0  0  0  0  0  0  0  0  0
    6.8671   -1.2500    0.0000 C   0  0  1  0  0  0  0  0  0  0  0  0
    7.7331   -1.7500    0.0000 C   0  0  1  0  0  0  0  0  0  0  0  0
    7.7331   -2.7500    0.0000 C   0  0  2  0  0  0  0  0  0  0  0  0
    6.8671   -3.2500    0.0000 C   0  0  2  0  0  0  0  0  0  0  0  0
    6.0010   -2.7500    0.0000 C   0  0  1  0  0  0  0  0  0  0  0  0
    7.7331    1.2500    0.0000 C   0  0  0  0  0  0  0  0  0  0  0  0
    5.1350   -3.2500    0.0000 C   0  0  0  0  0  0  0  0  0  0  0  0
    4.8059    0.5600    0.0000 H   0  0  0  0  0  0  0  0  0  0  0  0
    5.6720   -0.5600    0.0000 H   0  0  0  0  0  0  0  0  0  0  0  0
    3.4030    0.3700    0.0000 H   0  0  0  0  0  0  0  0  0  0  0  0
    5.1350    1.1300    0.0000 H   0  0  0  0  0  0  0  0  0  0  0  0
    3.4030   -1.8700    0.0000 H   0  0  0  0  0  0  0  0  0  0  0  0
    5.1350    3.3700    0.0000 H   0  0  0  0  0  0  0  0  0  0  0  0
    6.5380    3.5600    0.0000 H   0  0  0  0  0  0  0  0  0  0  0  0
    7.4040    2.4400    0.0000 H   0  0  0  0  0  0  0  0  0  0  0  0
    6.3996    0.7249    0.0000 H   0  0  0  0  0  0  0  0  0  0  0  0
    5.6025    0.7249    0.0000 H   0  0  0  0  0  0  0  0  0  0  0  0
    3.7320   -2.0600    0.0000 H   0  0  0  0  0  0  0  0  0  0  0  0
    6.8671    1.1300    0.0000 H   0  0  0  0  0  0  0  0  0  0  0  0
    6.3301   -0.9400    0.0000 H   0  0  0  0  0  0  0  0  0  0  0  0
    7.7331   -1.1300    0.0000 H   0  0  0  0  0  0  0  0  0  0  0  0
    7.7331   -3.3700    0.0000 H   0  0  0  0  0  0  0  0  0  0  0  0
    6.3301   -3.5600    0.0000 H   0  0  0  0  0  0  0  0  0  0  0  0
    5.4641   -2.4400    0.0000 H   0  0  0  0  0  0  0  0  0  0  0  0
    8.3437    1.1423    0.0000 H   0  0  0  0  0  0  0  0  0  0  0  0
    7.9451    1.8326    0.0000 H   0  0  0  0  0  0  0  0  0  0  0  0
    2.0000   -0.0600    0.0000 H   0  0  0  0  0  0  0  0  0  0  0  0
    4.9230   -2.6674    0.0000 H   0  0  0  0  0  0  0  0  0  0  0  0
    4.5244   -3.3577    0.0000 H   0  0  0  0  0  0  0  0  0  0  0  0
    2.5369   -2.3700    0.0000 H   0  0  0  0  0  0  0  0  0  0  0  0
    4.2690    3.8700    0.0000 H   0  0  0  0  0  0  0  0  0  0  0  0
    6.5380    4.5600    0.0000 H   0  0  0  0  0  0  0  0  0  0  0  0
    8.2700    2.9400    0.0000 H   0  0  0  0  0  0  0  0  0  0  0  0
    3.7320   -3.0600    0.0000 H   0  0  0  0  0  0  0  0  0  0  0  0
    9.1360   -1.5600    0.0000 H   0  0  0  0  0  0  0  0  0  0  0  0
    8.5991   -3.8700    0.0000 H   0  0  0  0  0  0  0  0  0  0  0  0
    7.4040   -4.5600    0.0000 H   0  0  0  0  0  0  0  0  0  0  0  0
    8.2700   -0.0600    0.0000 H   0  0  0  0  0  0  0  0  0  0  0  0
    4.5981   -4.5600    0.0000 H   0  0  0  0  0  0  0  0  0  0  0  0
 17  1  1  6  0  0  0
 20  1  1  1  0  0  0
  2 18  1  0  0  0  0
  2 26  1  0  0  0  0
  3 20  1  0  0  0  0
  3 27  1  0  0  0  0
  4 25  1  0  0  0  0
 28  4  1  6  0  0  0
  5 28  1  0  0  0  0
  5 32  1  0  0  0  0
 19  6  1  1  0  0  0
  6 54  1  0  0  0  0
 21  7  1  1  0  0  0
  7 57  1  0  0  0  0
 22  8  1  1  0  0  0
  8 58  1  0  0  0  0
 23  9  1  1  0  0  0
  9 59  1  0  0  0  0
 24 10  1  6  0  0  0
 10 60  1  0  0  0  0
 26 11  1  1  0  0  0
 11 61  1  0  0  0  0
 29 12  1  6  0  0  0
 12 62  1  0  0  0  0
 30 13  1  1  0  0  0
 13 63  1  0  0  0  0
 31 14  1  1  0  0  0
 14 64  1  0  0  0  0
 15 33  1  0  0  0  0
 15 65  1  0  0  0  0
 16 34  1  0  0  0  0
 16 66  1  0  0  0  0
 17 18  1  0  0  0  0
 17 19  1  0  0  0  0
 17 35  1  0  0  0  0
 18 25  1  1  0  0  0
 18 36  1  0  0  0  0
 19 21  1  0  0  0  0
 19 37  1  0  0  0  0
 20 22  1  0  0  0  0
 20 38  1  0  0  0  0
 21 26  1  0  0  0  0
 21 39  1  0  0  0  0
 22 23  1  0  0  0  0
 22 40  1  0  0  0  0
 23 24  1  0  0  0  0
 23 41  1  0  0  0  0
 24 27  1  0  0  0  0
 24 42  1  0  0  0  0
 25 43  1  0  0  0  0
 25 44  1  0  0  0  0
 26 45  1  0  0  0  0
 27 33  1  1  0  0  0
 27 46  1  0  0  0  0
 28 29  1  0  0  0  0
 28 47  1  0  0  0  0
 29 30  1  0  0  0  0
 29 48  1  0  0  0  0
 30 31  1  0  0  0  0
 30 49  1  0  0  0  0
 31 32  1  0  0  0  0
 31 50  1  0  0  0  0
 32 34  1  1  0  0  0
 32 51  1  0  0  0  0
 33 52  1  0  0  0  0
 33 53  1  0  0  0  0
 34 55  1  0  0  0  0
 34 56  1  0  0  0  0
M  END
> <PUBCHEM_COMPOUND_CID>
439336

> <PUBCHEM_COMPOUND_CANONICALIZED>
1

> <PUBCHEM_CACTVS_COMPLEXITY>
641

> <PUBCHEM_CACTVS_HBOND_ACCEPTOR>
16

> <PUBCHEM_CACTVS_HBOND_DONOR>
11

> <PUBCHEM_CACTVS_ROTATABLE_BOND>
7

> <PUBCHEM_CACTVS_SUBSKEYS>
AAADcfB4PgAAAAAAAAAAAAAAAAAAAAAAAAAkSJAAAAAAAAAAAAAAGgAACAAACBSwgAMACAAABgAAAAAAAAAAAAAAAAAAAAAAAAAREAIAAAAiQAAFAAAHAAHAYAwAAAAAAAAAAAAAAAAAAAAAAAAAAAAAAA==

> <PUBCHEM_IUPAC_OPENEYE_NAME>
(2R,3R,4S,5R,6S)-2-(hydroxymethyl)-6-[[(2R,3S,4R,5S,6R)-4,5,6-trihydroxy-3-[(2S,3S,4S,5S,6R)-3,4,5-trihydroxy-6-(hydroxymethyl)tetrahydropyran-2-yl]oxy-tetrahydropyran-2-yl]methoxy]tetrahydropyran-3,4,5-triol

> <PUBCHEM_IUPAC_CAS_NAME>
(2R,3R,4S,5R,6S)-2-(hydroxymethyl)-6-[[(2R,3S,4R,5S,6R)-4,5,6-trihydroxy-3-[[(2S,3S,4S,5S,6R)-3,4,5-trihydroxy-6-(hydroxymethyl)-2-oxanyl]oxy]-2-oxanyl]methoxy]oxane-3,4,5-triol

> <PUBCHEM_IUPAC_NAME>
(2R,3R,4S,5R,6S)-2-(hydroxymethyl)-6-[[(2R,3S,4R,5S,6R)-4,5,6-trihydroxy-3-[(2S,3S,4S,5S,6R)-3,4,5-trihydroxy-6-(hydroxymethyl)oxan-2-yl]oxyoxan-2-yl]methoxy]oxane-3,4,5-triol

> <PUBCHEM_IUPAC_SYSTEMATIC_NAME>
(2R,3R,4S,5R,6S)-2-(hydroxymethyl)-6-[[(2R,3S,4R,5S,6R)-3-[(2S,3S,4S,5S,6R)-6-(hydroxymethyl)-3,4,5-tris(oxidanyl)oxan-2-yl]oxy-4,5,6-tris(oxidanyl)oxan-2-yl]methoxy]oxane-3,4,5-triol

> <PUBCHEM_IUPAC_TRADITIONAL_NAME>
(2R,3R,4S,5R,6S)-2-methylol-6-[[(2R,3S,4R,5S,6R)-4,5,6-trihydroxy-3-[(2S,3S,4S,5S,6R)-3,4,5-trihydroxy-6-methylol-tetrahydropyran-2-yl]oxy-tetrahydropyran-2-yl]methoxy]tetrahydropyran-3,4,5-triol

> <PUBCHEM_IUPAC_INCHI>
InChI=1S/C18H32O16/c19-1-4-7(21)9(23)13(27)17(32-4)30-3-6-15(11(25)12(26)16(29)31-6)34-18-14(28)10(24)8(22)5(2-20)33-18/h4-29H,1-3H2/t4-,5-,6-,7+,8-,9+,10+,11-,12+,13-,14+,15-,16-,17+,18+/m1/s1

> <PUBCHEM_IUPAC_INCHIKEY>
OMDQUFIYNPYJFM-XKDAHURESA-N

> <PUBCHEM_XLOGP3_AA>
-6.3

> <PUBCHEM_EXACT_MASS>
504.169035

> <PUBCHEM_MOLECULAR_FORMULA>
C18H32O16

> <PUBCHEM_MOLECULAR_WEIGHT>
504.43708

> <PUBCHEM_OPENEYE_CAN_SMILES>
C(C1C(C(C(C(O1)OCC2C(C(C(C(O2)O)O)O)OC3C(C(C(C(O3)CO)O)O)O)O)O)O)O

> <PUBCHEM_OPENEYE_ISO_SMILES>
C([C@@H]1[C@@H]([C@@H]([C@H]([C@H](O1)OC[C@@H]2[C@H]([C@@H]([C@@H]([C@@H](O2)O)O)O)O[C@H]3[C@H]([C@H]([C@@H]([C@H](O3)CO)O)O)O)O)O)O)O

> <PUBCHEM_CACTVS_TPSA>
269

> <PUBCHEM_MONOISOTOPIC_WEIGHT>
504.169035

> <PUBCHEM_TOTAL_CHARGE>
0

> <PUBCHEM_HEAVY_ATOM_COUNT>
34

> <PUBCHEM_ATOM_DEF_STEREO_COUNT>
15

> <PUBCHEM_ATOM_UDEF_STEREO_COUNT>
0

> <PUBCHEM_BOND_DEF_STEREO_COUNT>
0

> <PUBCHEM_BOND_UDEF_STEREO_COUNT>
0

> <PUBCHEM_ISOTOPIC_ATOM_COUNT>
0

> <PUBCHEM_COMPONENT_COUNT>
1

> <PUBCHEM_CACTVS_TAUTO_COUNT>
1

> <PUBCHEM_COORDINATE_TYPE>
1
5
255

> <PUBCHEM_BONDANNOTATIONS>
17  1  6
20  1  5
24  10  6
26  11  5
29  12  6
30  13  5
31  14  5
18  25  5
27  33  5
32  34  5
28  4  6
19  6  5
21  7  5
22  8  5
23  9  5

$$$$

