854067
  -OEChem-07051212463D

 25 25  0     1  0  0  0  0  0999 V2000
   -1.5334    2.3573   -0.3659 O   0  0  0  0  0  0  0  0  0  0  0  0
    3.8257   -0.8717   -0.2078 O   0  0  0  0  0  0  0  0  0  0  0  0
   -2.4465   -1.1715    0.4071 N   0  0  0  0  0  0  0  0  0  0  0  0
   -1.4369    1.0956    0.3087 C   0  0  1  0  0  0  0  0  0  0  0  0
   -2.4829    0.1224   -0.2708 C   0  0  0  0  0  0  0  0  0  0  0  0
   -0.0460    0.5760    0.1717 C   0  0  0  0  0  0  0  0  0  0  0  0
    0.7503    0.4083    1.3046 C   0  0  0  0  0  0  0  0  0  0  0  0
    0.4589    0.2568   -1.0889 C   0  0  0  0  0  0  0  0  0  0  0  0
    2.0512   -0.0785    1.1770 C   0  0  0  0  0  0  0  0  0  0  0  0
    1.7599   -0.2299   -1.2164 C   0  0  0  0  0  0  0  0  0  0  0  0
    2.5560   -0.3974   -0.0835 C   0  0  0  0  0  0  0  0  0  0  0  0
   -3.4563   -2.0673   -0.1359 C   0  0  0  0  0  0  0  0  0  0  0  0
   -1.6716    1.2883    1.3632 H   0  0  0  0  0  0  0  0  0  0  0  0
   -2.3347   -0.0020   -1.3507 H   0  0  0  0  0  0  0  0  0  0  0  0
   -3.4756    0.5783   -0.1576 H   0  0  0  0  0  0  0  0  0  0  0  0
    0.3715    0.6518    2.2936 H   0  0  0  0  0  0  0  0  0  0  0  0
   -0.1392    0.3909   -1.9859 H   0  0  0  0  0  0  0  0  0  0  0  0
   -2.6110   -1.0387    1.4045 H   0  0  0  0  0  0  0  0  0  0  0  0
    2.6613   -0.2046    2.0675 H   0  0  0  0  0  0  0  0  0  0  0  0
    2.1486   -0.4741   -2.2013 H   0  0  0  0  0  0  0  0  0  0  0  0
   -2.4441    2.6790   -0.2531 H   0  0  0  0  0  0  0  0  0  0  0  0
   -4.4660   -1.6665    0.0007 H   0  0  0  0  0  0  0  0  0  0  0  0
   -3.4046   -3.0304    0.3813 H   0  0  0  0  0  0  0  0  0  0  0  0
   -3.2871   -2.2575   -1.2007 H   0  0  0  0  0  0  0  0  0  0  0  0
    4.2305   -0.9239    0.6752 H   0  0  0  0  0  0  0  0  0  0  0  0
  1  4  1  0  0  0  0
  1 21  1  0  0  0  0
  2 11  1  0  0  0  0
  2 25  1  0  0  0  0
  3  5  1  0  0  0  0
  3 12  1  0  0  0  0
  3 18  1  0  0  0  0
  4  5  1  0  0  0  0
  4  6  1  0  0  0  0
  4 13  1  0  0  0  0
  5 14  1  0  0  0  0
  5 15  1  0  0  0  0
  6  7  2  0  0  0  0
  6  8  1  0  0  0  0
  7  9  1  0  0  0  0
  7 16  1  0  0  0  0
  8 10  2  0  0  0  0
  8 17  1  0  0  0  0
  9 11  2  0  0  0  0
  9 19  1  0  0  0  0
 10 11  1  0  0  0  0
 10 20  1  0  0  0  0
 12 22  1  0  0  0  0
 12 23  1  0  0  0  0
 12 24  1  0  0  0  0
M  END
> <PUBCHEM_COMPOUND_CID>
854067

> <PUBCHEM_CONFORMER_RMSD>
0.6

> <PUBCHEM_CONFORMER_DIVERSEORDER>
2
3
4
1
6
5
7

> <PUBCHEM_MMFF94_PARTIAL_CHARGES>
19
1 -0.68
10 -0.15
11 0.08
12 0.27
16 0.15
17 0.15
18 0.36
19 0.15
2 -0.53
20 0.15
21 0.4
25 0.45
3 -0.9
4 0.42
5 0.27
6 -0.14
7 -0.15
8 -0.15
9 -0.15

> <PUBCHEM_EFFECTIVE_ROTOR_COUNT>
3

> <PUBCHEM_PHARMACOPHORE_FEATURES>
6
1 1 acceptor
1 1 donor
1 2 donor
1 3 cation
1 3 donor
6 6 7 8 9 10 11 rings

> <PUBCHEM_HEAVY_ATOM_COUNT>
12

> <PUBCHEM_ATOM_DEF_STEREO_COUNT>
1

> <PUBCHEM_ATOM_UDEF_STEREO_COUNT>
0

> <PUBCHEM_BOND_DEF_STEREO_COUNT>
0

> <PUBCHEM_BOND_UDEF_STEREO_COUNT>
0

> <PUBCHEM_ISOTOPIC_ATOM_COUNT>
0

> <PUBCHEM_COMPONENT_COUNT>
1

> <PUBCHEM_CACTVS_TAUTO_COUNT>
2

> <PUBCHEM_CONFORMER_ID>
000D083300000002

> <PUBCHEM_MMFF94_ENERGY>
24.5131

> <PUBCHEM_FEATURE_SELFOVERLAP>
30.446

> <PUBCHEM_SHAPE_FINGERPRINT>
10857977 72 18113623373784910873
11471102 22 16588021316306256202
11543360 7 18340750616707062814
11769659 78 18342461482206085002
12138202 97 18194409020089441781
12500047 106 18123477334437456084
12716758 59 18120373417391380953
12932764 1 17775287213458069004
14128692 85 17917429787452663509
16945 1 18268999845767619408
17844478 74 17676206870546452768
18534176 82 18189621711981196629
20201158 50 17676769867739259111
20281407 28 18260542312306493895
20361792 2 18268710515897013567
20711985 344 18340214072022848185
20715346 28 17749969828815508992
20871998 22 18265053522979676091
21061003 4 16877939451459641088
23402539 116 16845291696310633270
23402655 69 15051469223054146975
2748010 2 15431991638878885492
29004967 10 16877942784470391616
568465 68 17022900142423753426
81228 2 18409448120285264329

> <PUBCHEM_SHAPE_MULTIPOLES>
230.23
5.2
1.65
1.15
0.41
0.23
-0.04
-3.24
0.05
1.76
0.12
-0.57
0.06
0.3

> <PUBCHEM_SHAPE_SELFOVERLAP>
467.161

> <PUBCHEM_SHAPE_VOLUME>
135.3

> <PUBCHEM_COORDINATE_TYPE>
2
5
10

$$$$

