42807
  -OEChem-07051213133D

 35 36  0     1  0  0  0  0  0999 V2000
   -0.4913   -3.3412    2.1123 Cl  0  0  0  0  0  0  0  0  0  0  0  0
    0.0957   -4.2798   -0.6381 F   0  0  0  0  0  0  0  0  0  0  0  0
    0.3230    3.2531    0.0491 O   0  0  0  0  0  0  0  0  0  0  0  0
   -4.1399    0.4928    0.2031 O   0  0  0  0  0  0  0  0  0  0  0  0
   -2.8194    1.3256    1.8392 O   0  0  0  0  0  0  0  0  0  0  0  0
   -0.7832    1.1647   -0.2923 N   0  0  0  0  0  0  0  0  0  0  0  0
   -2.1238    1.6642   -0.4509 C   0  0  1  0  0  0  0  0  0  0  0  0
   -0.5520   -0.2804   -0.3794 C   0  0  0  0  0  0  0  0  0  0  0  0
    0.3295    2.0271   -0.0531 C   0  0  0  0  0  0  0  0  0  0  0  0
   -2.6746    1.2929   -1.8194 C   0  0  0  0  0  0  0  0  0  0  0  0
    1.6563    1.3943    0.0743 C   0  0  0  0  0  0  0  0  0  0  0  0
   -3.0462    1.1581    0.6456 C   0  0  0  0  0  0  0  0  0  0  0  0
   -0.6298   -0.9986    0.7740 C   0  0  0  0  0  0  0  0  0  0  0  0
   -0.2751   -0.7975   -1.6075 C   0  0  0  0  0  0  0  0  0  0  0  0
   -0.4082   -2.3733    0.6908 C   0  0  0  0  0  0  0  0  0  0  0  0
   -0.0535   -2.1721   -1.6906 C   0  0  0  0  0  0  0  0  0  0  0  0
    2.4326    1.2175   -1.0582 C   0  0  0  0  0  0  0  0  0  0  0  0
    2.0963    0.9917    1.3237 C   0  0  0  0  0  0  0  0  0  0  0  0
   -0.1202   -2.9600   -0.5416 C   0  0  0  0  0  0  0  0  0  0  0  0
    3.6870    0.6195   -0.9379 C   0  0  0  0  0  0  0  0  0  0  0  0
    3.3508    0.3938    1.4439 C   0  0  0  0  0  0  0  0  0  0  0  0
    4.1461    0.2078    0.3131 C   0  0  0  0  0  0  0  0  0  0  0  0
   -2.1189    2.7580   -0.3745 H   0  0  0  0  0  0  0  0  0  0  0  0
   -3.6374    1.7882   -1.9938 H   0  0  0  0  0  0  0  0  0  0  0  0
   -1.9973    1.6233   -2.6153 H   0  0  0  0  0  0  0  0  0  0  0  0
   -2.8431    0.2179   -1.9461 H   0  0  0  0  0  0  0  0  0  0  0  0
   -0.8431   -0.5322    1.7302 H   0  0  0  0  0  0  0  0  0  0  0  0
   -0.2136   -0.1874   -2.5020 H   0  0  0  0  0  0  0  0  0  0  0  0
    0.1732   -2.6286   -2.6496 H   0  0  0  0  0  0  0  0  0  0  0  0
    2.0832    1.5378   -2.0357 H   0  0  0  0  0  0  0  0  0  0  0  0
    1.4840    1.1355    2.2094 H   0  0  0  0  0  0  0  0  0  0  0  0
    4.3063    0.4748   -1.8183 H   0  0  0  0  0  0  0  0  0  0  0  0
    3.7084    0.0732    2.4180 H   0  0  0  0  0  0  0  0  0  0  0  0
    5.1228   -0.2579    0.4069 H   0  0  0  0  0  0  0  0  0  0  0  0
   -4.7022    0.1786    0.9428 H   0  0  0  0  0  0  0  0  0  0  0  0
  1 15  1  0  0  0  0
  2 19  1  0  0  0  0
  3  9  2  0  0  0  0
  4 12  1  0  0  0  0
  4 35  1  0  0  0  0
  5 12  2  0  0  0  0
  6  7  1  0  0  0  0
  6  8  1  0  0  0  0
  6  9  1  0  0  0  0
  7 10  1  0  0  0  0
  7 12  1  0  0  0  0
  7 23  1  0  0  0  0
  8 13  2  0  0  0  0
  8 14  1  0  0  0  0
  9 11  1  0  0  0  0
 10 24  1  0  0  0  0
 10 25  1  0  0  0  0
 10 26  1  0  0  0  0
 11 17  2  0  0  0  0
 11 18  1  0  0  0  0
 13 15  1  0  0  0  0
 13 27  1  0  0  0  0
 14 16  2  0  0  0  0
 14 28  1  0  0  0  0
 15 19  2  0  0  0  0
 16 19  1  0  0  0  0
 16 29  1  0  0  0  0
 17 20  1  0  0  0  0
 17 30  1  0  0  0  0
 18 21  2  0  0  0  0
 18 31  1  0  0  0  0
 20 22  2  0  0  0  0
 20 32  1  0  0  0  0
 21 22  1  0  0  0  0
 21 33  1  0  0  0  0
 22 34  1  0  0  0  0
M  END
> <PUBCHEM_COMPOUND_CID>
42807

> <PUBCHEM_CONFORMER_RMSD>
0.8

> <PUBCHEM_CONFORMER_DIVERSEORDER>
1
36
42
10
27
37
21
15
3
31
25
39
40
11
30
29
43
38
33
24
14
8
20
17
13
9
32
35
34
5
7
16
4
41
18
26
12
22
28
19
23
6
2

> <PUBCHEM_MMFF94_PARTIAL_CHARGES>
30
1 -0.18
11 0.09
12 0.66
13 -0.15
14 -0.15
15 0.18
16 -0.15
17 -0.15
18 -0.15
19 0.19
2 -0.19
20 -0.15
21 -0.15
22 -0.15
27 0.15
28 0.15
29 0.15
3 -0.57
30 0.15
31 0.15
32 0.15
33 0.15
34 0.15
35 0.5
4 -0.65
5 -0.57
6 -0.48
7 0.36
8 0.12
9 0.54

> <PUBCHEM_EFFECTIVE_ROTOR_COUNT>
5

> <PUBCHEM_PHARMACOPHORE_FEATURES>
6
1 3 acceptor
1 4 acceptor
1 5 acceptor
3 4 5 12 anion
6 11 17 18 20 21 22 rings
6 8 13 14 15 16 19 rings

> <PUBCHEM_HEAVY_ATOM_COUNT>
22

> <PUBCHEM_ATOM_DEF_STEREO_COUNT>
0

> <PUBCHEM_ATOM_UDEF_STEREO_COUNT>
1

> <PUBCHEM_BOND_DEF_STEREO_COUNT>
0

> <PUBCHEM_BOND_UDEF_STEREO_COUNT>
0

> <PUBCHEM_ISOTOPIC_ATOM_COUNT>
0

> <PUBCHEM_COMPONENT_COUNT>
1

> <PUBCHEM_CACTVS_TAUTO_COUNT>
1

> <PUBCHEM_CONFORMER_ID>
0000A73700000001

> <PUBCHEM_MMFF94_ENERGY>
88.6505

> <PUBCHEM_FEATURE_SELFOVERLAP>
30.507

> <PUBCHEM_SHAPE_FINGERPRINT>
107951 10 17987783199188587062
10863032 1 14923953348763474228
12035759 4 17898607321180236397
12553582 1 17403450776679590162
12592029 89 18198924654473592877
12788726 201 17901956235750591727
13140716 1 18336267958718157178
133893 2 17835532882964611677
13681431 1 17617952768832519127
14178342 30 18262502802143439545
15309172 13 18410293626998625977
16752209 62 18198081195594662847
16945 1 18193005811234293447
19591789 44 18408885165388094214
20028762 73 18042683902128176679
20567600 347 18335979852591432023
20645476 183 18131633374633114340
20691752 17 18053635217738237581
20905425 154 17758675933624792020
21421861 104 17764858483308216225
21524375 3 18410577292439994263
21731516 1 17835520415059614750
22956985 138 17914618503978328123
23184049 29 17905902374656411260
23419403 2 17103908912110389558
23728640 28 18338532880126365410
3383291 50 18191301788015260838
35225 105 18199470973949783619
4340502 62 18261945337258549785
43471831 8 18265052624851729516
465052 167 17917415494260711705
5845 1 8320848895157635111
81228 2 17979370659023496217
9925002 15 17469660381559449966

> <PUBCHEM_SHAPE_MULTIPOLES>
424.76
5.24
3.97
1.77
2.54
4.02
-0.1
-3.2
-0.78
-1.76
-0.24
-0.36
0.69
0.07

> <PUBCHEM_SHAPE_SELFOVERLAP>
906.437

> <PUBCHEM_SHAPE_VOLUME>
236.2

> <PUBCHEM_COORDINATE_TYPE>
2
5
10

$$$$

