10357552
  -OEChem-07051213153D

 47 46  0     0  0  0  0  0  0999 V2000
   -3.7239   -0.4883   -0.6290 P   0  0  0  0  0  0  0  0  0  0  0  0
   -2.2738    0.1642   -0.3379 O   0  0  0  0  0  0  0  0  0  0  0  0
   -3.8486   -1.6112    0.5278 O   0  0  0  0  0  0  0  0  0  0  0  0
   -4.7634    0.6548   -0.1515 O   0  0  0  0  0  0  0  0  0  0  0  0
   -3.9242   -0.9941   -2.0277 O   0  0  0  0  0  0  0  0  0  0  0  0
    1.9199    2.8316   -0.5852 C   0  0  0  0  0  0  0  0  0  0  0  0
    3.1239   -0.9031   -1.2240 C   0  0  0  0  0  0  0  0  0  0  0  0
    1.1950    2.9662    0.7586 C   0  0  0  0  0  0  0  0  0  0  0  0
    3.0487    0.5253   -0.7262 C   0  0  0  0  0  0  0  0  0  0  0  0
    2.0502    1.3900   -0.9928 C   0  0  0  0  0  0  0  0  0  0  0  0
    3.2903   -1.9485   -0.1123 C   0  0  0  0  0  0  0  0  0  0  0  0
   -0.2315    2.4673    0.6862 C   0  0  0  0  0  0  0  0  0  0  0  0
    4.2348    0.9848    0.0853 C   0  0  0  0  0  0  0  0  0  0  0  0
    2.0916   -2.0351    0.7911 C   0  0  0  0  0  0  0  0  0  0  0  0
   -0.6189    1.2143    0.9933 C   0  0  0  0  0  0  0  0  0  0  0  0
   -1.2480    3.4935    0.2585 C   0  0  0  0  0  0  0  0  0  0  0  0
    0.9966   -2.8062    0.6519 C   0  0  0  0  0  0  0  0  0  0  0  0
   -2.0092    0.6661    0.9664 C   0  0  0  0  0  0  0  0  0  0  0  0
   -0.1697   -2.8425    1.5977 C   0  0  0  0  0  0  0  0  0  0  0  0
    0.8599   -3.7292   -0.5303 C   0  0  0  0  0  0  0  0  0  0  0  0
    2.8918    3.3311   -0.5346 H   0  0  0  0  0  0  0  0  0  0  0  0
    1.3688    3.3635   -1.3712 H   0  0  0  0  0  0  0  0  0  0  0  0
    2.2363   -1.1406   -1.8241 H   0  0  0  0  0  0  0  0  0  0  0  0
    3.9805   -0.9808   -1.9058 H   0  0  0  0  0  0  0  0  0  0  0  0
    1.2007    4.0158    1.0773 H   0  0  0  0  0  0  0  0  0  0  0  0
    1.7423    2.4150    1.5346 H   0  0  0  0  0  0  0  0  0  0  0  0
    1.2223    1.0169   -1.5953 H   0  0  0  0  0  0  0  0  0  0  0  0
    3.5006   -2.9235   -0.5663 H   0  0  0  0  0  0  0  0  0  0  0  0
    4.1755   -1.7364    0.4990 H   0  0  0  0  0  0  0  0  0  0  0  0
    4.2828    2.0604    0.2609 H   0  0  0  0  0  0  0  0  0  0  0  0
    5.1647    0.7125   -0.4262 H   0  0  0  0  0  0  0  0  0  0  0  0
    4.2306    0.5045    1.0691 H   0  0  0  0  0  0  0  0  0  0  0  0
    2.1317   -1.3771    1.6584 H   0  0  0  0  0  0  0  0  0  0  0  0
    0.1490    0.5058    1.2974 H   0  0  0  0  0  0  0  0  0  0  0  0
   -1.3997    4.2254    1.0586 H   0  0  0  0  0  0  0  0  0  0  0  0
   -2.2210    3.0766   -0.0117 H   0  0  0  0  0  0  0  0  0  0  0  0
   -0.8911    4.0295   -0.6278 H   0  0  0  0  0  0  0  0  0  0  0  0
   -2.0800   -0.1499    1.6932 H   0  0  0  0  0  0  0  0  0  0  0  0
   -2.7546    1.4146    1.2491 H   0  0  0  0  0  0  0  0  0  0  0  0
   -0.2941   -3.8481    2.0117 H   0  0  0  0  0  0  0  0  0  0  0  0
   -0.0311   -2.1498    2.4343 H   0  0  0  0  0  0  0  0  0  0  0  0
   -1.0911   -2.5605    1.0791 H   0  0  0  0  0  0  0  0  0  0  0  0
   -0.1062   -3.5634   -1.0203 H   0  0  0  0  0  0  0  0  0  0  0  0
    0.8969   -4.7714   -0.1960 H   0  0  0  0  0  0  0  0  0  0  0  0
    1.6219   -3.5978   -1.3011 H   0  0  0  0  0  0  0  0  0  0  0  0
   -4.6154   -2.2228    0.5151 H   0  0  0  0  0  0  0  0  0  0  0  0
   -5.7236    0.5110   -0.2908 H   0  0  0  0  0  0  0  0  0  0  0  0
  1  2  1  0  0  0  0
  1  3  1  0  0  0  0
  1  4  1  0  0  0  0
  1  5  2  0  0  0  0
  2 18  1  0  0  0  0
  3 46  1  0  0  0  0
  4 47  1  0  0  0  0
  6  8  1  0  0  0  0
  6 10  1  0  0  0  0
  6 21  1  0  0  0  0
  6 22  1  0  0  0  0
  7  9  1  0  0  0  0
  7 11  1  0  0  0  0
  7 23  1  0  0  0  0
  7 24  1  0  0  0  0
  8 12  1  0  0  0  0
  8 25  1  0  0  0  0
  8 26  1  0  0  0  0
  9 10  2  0  0  0  0
  9 13  1  0  0  0  0
 10 27  1  0  0  0  0
 11 14  1  0  0  0  0
 11 28  1  0  0  0  0
 11 29  1  0  0  0  0
 12 15  2  0  0  0  0
 12 16  1  0  0  0  0
 13 30  1  0  0  0  0
 13 31  1  0  0  0  0
 13 32  1  0  0  0  0
 14 17  2  0  0  0  0
 14 33  1  0  0  0  0
 15 18  1  0  0  0  0
 15 34  1  0  0  0  0
 16 35  1  0  0  0  0
 16 36  1  0  0  0  0
 16 37  1  0  0  0  0
 17 19  1  0  0  0  0
 17 20  1  0  0  0  0
 18 38  1  0  0  0  0
 18 39  1  0  0  0  0
 19 40  1  0  0  0  0
 19 41  1  0  0  0  0
 19 42  1  0  0  0  0
 20 43  1  0  0  0  0
 20 44  1  0  0  0  0
 20 45  1  0  0  0  0
M  END
> <PUBCHEM_COMPOUND_CID>
10357552

> <PUBCHEM_CONFORMER_RMSD>
1.2

> <PUBCHEM_CONFORMER_DIVERSEORDER>
5
79
28
69
108
13
85
74
4
66
2
50
45
15
96
102
80
30
42
99
21
18
49
104
93
20
48
10
62
77
39
27
34
83
76
60
64
70
101
19
12
86
17
73
82
94
90
25
71
55
87
103
109
61
33
75
95
58
78
57
31
59
111
7
37
53
6
91
22
81
47
16
89
107
56
41
110
26
46
65
8
67
24
32
29
72
40
51
35
3
36
97
14
92
100
9
43
98
23
1
84
38
105
88
106
11
63
52
44
68
54

> <PUBCHEM_MMFF94_PARTIAL_CHARGES>
25
1 1.51
10 -0.29
11 0.14
12 -0.28
13 0.14
14 -0.29
15 -0.29
16 0.14
17 -0.28
18 0.42
19 0.14
2 -0.55
20 0.14
27 0.15
3 -0.77
33 0.15
34 0.15
4 -0.77
46 0.5
47 0.5
5 -0.7
6 0.14
7 0.14
8 0.14
9 -0.28

> <PUBCHEM_EFFECTIVE_ROTOR_COUNT>
9

> <PUBCHEM_PHARMACOPHORE_FEATURES>
9
1 13 hydrophobe
1 16 hydrophobe
1 3 acceptor
1 4 acceptor
1 5 acceptor
3 17 19 20 hydrophobe
4 1 3 4 5 anion
4 6 8 10 12 hydrophobe
4 7 9 11 14 hydrophobe

> <PUBCHEM_HEAVY_ATOM_COUNT>
20

> <PUBCHEM_ATOM_DEF_STEREO_COUNT>
0

> <PUBCHEM_ATOM_UDEF_STEREO_COUNT>
0

> <PUBCHEM_BOND_DEF_STEREO_COUNT>
2

> <PUBCHEM_BOND_UDEF_STEREO_COUNT>
0

> <PUBCHEM_ISOTOPIC_ATOM_COUNT>
0

> <PUBCHEM_COMPONENT_COUNT>
1

> <PUBCHEM_CACTVS_TAUTO_COUNT>
1

> <PUBCHEM_CONFORMER_ID>
009E0B3000000005

> <PUBCHEM_MMFF94_ENERGY>
-10.0505

> <PUBCHEM_FEATURE_SELFOVERLAP>
45.73

> <PUBCHEM_SHAPE_FINGERPRINT>
11370993 70 18200596873782487494
12156800 1 14757092722752298040
12553582 1 18338228388029233067
12596599 1 17823681122421814190
12661589 4 15651586866141749191
13032168 30 18190730024656169944
13122387 1 15963147237423286218
14178342 30 18122914389327829888
14251757 5 16173112151149420974
14787075 74 18041560235667644056
14931854 50 18411413994855359622
19026451 147 18338818787235388919
192875 21 18199752608146369514
23557571 272 17826243066366850738
238 59 18340493244491029639
2871803 45 18408880767731810820
3323516 105 18269270180094984595
4283 87 18334019384582796757
4409770 3 15957546698769589133
444735 86 17033633365198644567
463206 1 18410009948798176865
7471813 234 18196108847981364818

> <PUBCHEM_SHAPE_MULTIPOLES>
391.96
7.25
4.9
1.34
5.53
0.35
-0.17
1.32
-2.57
-1.6
0.99
0.44
0.46
-0.67

> <PUBCHEM_SHAPE_SELFOVERLAP>
732.905

> <PUBCHEM_SHAPE_VOLUME>
246.2

> <PUBCHEM_COORDINATE_TYPE>
2
5
10

$$$$

