7176
  -OEChem-06261201523D

 29 29  0     0  0  0  0  0  0999 V2000
   -1.4364   -0.0633    0.1220 O   0  0  0  0  0  0  0  0  0  0  0  0
   -0.7003   -2.2141   -0.1751 O   0  0  0  0  0  0  0  0  0  0  0  0
    4.7860    1.0831    0.0634 N   0  0  0  0  0  0  0  0  0  0  0  0
   -3.7392    0.6556    0.2895 C   0  0  0  0  0  0  0  0  0  0  0  0
   -2.7809   -0.5247    0.1080 C   0  0  0  0  0  0  0  0  0  0  0  0
   -3.5883    1.6750   -0.8416 C   0  0  0  0  0  0  0  0  0  0  0  0
   -5.1823    0.1626    0.3706 C   0  0  0  0  0  0  0  0  0  0  0  0
    0.8977   -0.4742   -0.0078 C   0  0  0  0  0  0  0  0  0  0  0  0
   -0.4623   -1.0193   -0.0315 C   0  0  0  0  0  0  0  0  0  0  0  0
    1.9827   -1.3300   -0.1526 C   0  0  0  0  0  0  0  0  0  0  0  0
    1.0871    0.8919    0.1603 C   0  0  0  0  0  0  0  0  0  0  0  0
    3.4770    0.5586    0.0396 C   0  0  0  0  0  0  0  0  0  0  0  0
    3.2774   -0.8116   -0.1288 C   0  0  0  0  0  0  0  0  0  0  0  0
    2.3818    1.4104    0.1838 C   0  0  0  0  0  0  0  0  0  0  0  0
   -3.4881    1.1673    1.2273 H   0  0  0  0  0  0  0  0  0  0  0  0
   -2.9202   -1.2416    0.9265 H   0  0  0  0  0  0  0  0  0  0  0  0
   -2.9819   -1.0332   -0.8430 H   0  0  0  0  0  0  0  0  0  0  0  0
   -4.2799    2.5129   -0.7028 H   0  0  0  0  0  0  0  0  0  0  0  0
   -3.7989    1.2206   -1.8158 H   0  0  0  0  0  0  0  0  0  0  0  0
   -2.5739    2.0861   -0.8714 H   0  0  0  0  0  0  0  0  0  0  0  0
   -5.8707    0.9989    0.5318 H   0  0  0  0  0  0  0  0  0  0  0  0
   -5.3078   -0.5377    1.2032 H   0  0  0  0  0  0  0  0  0  0  0  0
   -5.4807   -0.3491   -0.5508 H   0  0  0  0  0  0  0  0  0  0  0  0
    1.8491   -2.4001   -0.2845 H   0  0  0  0  0  0  0  0  0  0  0  0
    0.2604    1.5866    0.2759 H   0  0  0  0  0  0  0  0  0  0  0  0
    4.1227   -1.4855   -0.2424 H   0  0  0  0  0  0  0  0  0  0  0  0
    2.5247    2.4800    0.3155 H   0  0  0  0  0  0  0  0  0  0  0  0
    4.9313    2.0764    0.1860 H   0  0  0  0  0  0  0  0  0  0  0  0
    5.5805    0.4660   -0.0405 H   0  0  0  0  0  0  0  0  0  0  0  0
  1  5  1  0  0  0  0
  1  9  1  0  0  0  0
  2  9  2  0  0  0  0
  3 12  1  0  0  0  0
  3 28  1  0  0  0  0
  3 29  1  0  0  0  0
  4  5  1  0  0  0  0
  4  6  1  0  0  0  0
  4  7  1  0  0  0  0
  4 15  1  0  0  0  0
  5 16  1  0  0  0  0
  5 17  1  0  0  0  0
  6 18  1  0  0  0  0
  6 19  1  0  0  0  0
  6 20  1  0  0  0  0
  7 21  1  0  0  0  0
  7 22  1  0  0  0  0
  7 23  1  0  0  0  0
  8  9  1  0  0  0  0
  8 10  2  0  0  0  0
  8 11  1  0  0  0  0
 10 13  1  0  0  0  0
 10 24  1  0  0  0  0
 11 14  2  0  0  0  0
 11 25  1  0  0  0  0
 12 13  2  0  0  0  0
 12 14  1  0  0  0  0
 13 26  1  0  0  0  0
 14 27  1  0  0  0  0
M  END
> <PUBCHEM_COMPOUND_CID>
7176

> <PUBCHEM_CONFORMER_RMSD>
0.6

> <PUBCHEM_CONFORMER_DIVERSEORDER>
1
8
16
15
7
17
6
2
13
10
12
3
11
5
4
9
14

> <PUBCHEM_MMFF94_PARTIAL_CHARGES>
17
1 -0.43
10 -0.15
11 -0.15
12 0.1
13 -0.15
14 -0.15
2 -0.57
24 0.15
25 0.15
26 0.15
27 0.15
28 0.4
29 0.4
3 -0.9
5 0.28
8 0.09
9 0.63

> <PUBCHEM_EFFECTIVE_ROTOR_COUNT>
4

> <PUBCHEM_PHARMACOPHORE_FEATURES>
5
1 2 acceptor
1 3 cation
1 3 donor
3 4 6 7 hydrophobe
6 8 10 11 12 13 14 rings

> <PUBCHEM_HEAVY_ATOM_COUNT>
14

> <PUBCHEM_ATOM_DEF_STEREO_COUNT>
0

> <PUBCHEM_ATOM_UDEF_STEREO_COUNT>
0

> <PUBCHEM_BOND_DEF_STEREO_COUNT>
0

> <PUBCHEM_BOND_UDEF_STEREO_COUNT>
0

> <PUBCHEM_ISOTOPIC_ATOM_COUNT>
0

> <PUBCHEM_COMPONENT_COUNT>
1

> <PUBCHEM_CACTVS_TAUTO_COUNT>
2

> <PUBCHEM_CONFORMER_ID>
00001C0800000001

> <PUBCHEM_MMFF94_ENERGY>
42.2701

> <PUBCHEM_FEATURE_SELFOVERLAP>
25.371

> <PUBCHEM_SHAPE_FINGERPRINT>
10608611 8 18337955584370024616
10980938 120 18412265060005448906
11471102 20 18335702762665216310
11543360 7 14996292383286187368
12500047 106 18335144137802092242
13081056 2 18411697712195349125
13380535 76 18335137574897118990
13922767 16 18336269023795758360
14252887 29 13038913252515815648
14325111 11 18410011035477741115
14897335 6 18334859394123206158
15196674 1 18339079397213138981
15775835 57 18335420162391249887
17834072 8 18260537936357019604
18186145 218 18260824934044598007
20645477 56 18337671923239090568
20645477 70 18041272274820571478
212847 35 18408885148429524280
21524375 3 18409448072776762823
21652331 79 18412826902173955389
22854114 59 18341891905270736393
231179 274 18272091620972641228
23402539 116 18040439871260891821
23402655 69 18186240653738434229
23559900 14 17967532342788697088
25 1 18334859436925075671
293599 30 18337669720722896332
351380 180 18201721756309731393
3545911 37 18335698329931919251
366044 4 18409448072613245643
4047638 21 18408881837067637714
5104073 3 18410293596812406619
633830 44 17968369177883778663
6430166 295 18412548708251357616
69090 78 18335704923123768327

> <PUBCHEM_SHAPE_MULTIPOLES>
271.39
9.34
1.71
0.68
5.05
0.23
-0.04
-3.46
0.39
-0.25
-0.19
0.26
-0.09
0.46

> <PUBCHEM_SHAPE_SELFOVERLAP>
553.207

> <PUBCHEM_SHAPE_VOLUME>
158.7

> <PUBCHEM_COORDINATE_TYPE>
2
5
10

$$$$

