11954104
  -OEChem-07051213062D

 56 59  0     1  0  0  0  0  0999 V2000
    5.0182    0.6870    0.0000 F   0  0  0  0  0  0  0  0  0  0  0  0
    9.1493    1.8120    0.0000 O   0  0  0  0  0  0  0  0  0  0  0  0
    4.7950    1.4209    0.0000 O   0  0  0  0  0  0  0  0  0  0  0  0
    2.0000   -2.1314    0.0000 O   0  0  0  0  0  0  0  0  0  0  0  0
    7.3931    0.9209    0.0000 C   0  0  1  0  0  0  0  0  0  0  0  0
    7.3931   -0.0791    0.0000 C   0  0  2  0  0  0  0  0  0  0  0  0
    6.5271   -0.5791    0.0000 C   0  0  1  0  0  0  0  0  0  0  0  0
    5.6610   -0.0791    0.0000 C   0  0  2  0  0  0  0  0  0  0  0  0
    8.3393    1.2257    0.0000 C   0  0  2  0  0  0  0  0  0  0  0  0
    4.7510   -0.5859    0.0000 C   0  0  2  0  0  0  0  0  0  0  0  0
    6.5271    1.4209    0.0000 C   0  0  0  0  0  0  0  0  0  0  0  0
    5.6610    0.9209    0.0000 C   0  0  2  0  0  0  0  0  0  0  0  0
    8.3393   -0.3838    0.0000 C   0  0  0  0  0  0  0  0  0  0  0  0
    8.9229    0.4209    0.0000 C   0  0  0  0  0  0  0  0  0  0  0  0
    6.5431   -1.6206    0.0000 C   0  0  0  0  0  0  0  0  0  0  0  0
    7.3931    1.9209    0.0000 C   0  0  0  0  0  0  0  0  0  0  0  0
    4.7430   -1.6275    0.0000 C   0  0  0  0  0  0  0  0  0  0  0  0
    5.6451   -2.1483    0.0000 C   0  0  0  0  0  0  0  0  0  0  0  0
    3.8242   -0.0218    0.0000 C   0  0  0  0  0  0  0  0  0  0  0  0
    8.0319    2.1772    0.0000 C   0  0  0  0  0  0  0  0  0  0  0  0
    4.4163    0.3564    0.0000 C   0  0  0  0  0  0  0  0  0  0  0  0
    2.8763   -0.5498    0.0000 C   0  0  3  0  0  0  0  0  0  0  0  0
    3.8076   -2.1772    0.0000 C   0  0  0  0  0  0  0  0  0  0  0  0
    2.8680   -1.6348    0.0000 C   0  0  0  0  0  0  0  0  0  0  0  0
    2.0161   -0.0398    0.0000 C   0  0  0  0  0  0  0  0  0  0  0  0
    7.4830   -0.9243    0.0000 H   0  0  0  0  0  0  0  0  0  0  0  0
    7.2664   -0.9984    0.0000 H   0  0  0  0  0  0  0  0  0  0  0  0
    6.9256    1.8959    0.0000 H   0  0  0  0  0  0  0  0  0  0  0  0
    6.1285    1.8959    0.0000 H   0  0  0  0  0  0  0  0  0  0  0  0
    5.6610    1.5409    0.0000 H   0  0  0  0  0  0  0  0  0  0  0  0
    8.0883   -0.9507    0.0000 H   0  0  0  0  0  0  0  0  0  0  0  0
    8.8767   -0.6930    0.0000 H   0  0  0  0  0  0  0  0  0  0  0  0
    9.3838    0.0062    0.0000 H   0  0  0  0  0  0  0  0  0  0  0  0
    9.3838    0.8357    0.0000 H   0  0  0  0  0  0  0  0  0  0  0  0
    6.7612   -2.2010    0.0000 H   0  0  0  0  0  0  0  0  0  0  0  0
    7.1523   -1.5051    0.0000 H   0  0  0  0  0  0  0  0  0  0  0  0
    8.0131    1.9209    0.0000 H   0  0  0  0  0  0  0  0  0  0  0  0
    7.3931    2.5409    0.0000 H   0  0  0  0  0  0  0  0  0  0  0  0
    6.7731    1.9209    0.0000 H   0  0  0  0  0  0  0  0  0  0  0  0
    5.2478   -2.6243    0.0000 H   0  0  0  0  0  0  0  0  0  0  0  0
    6.0460   -2.6212    0.0000 H   0  0  0  0  0  0  0  0  0  0  0  0
    4.2324    0.4448    0.0000 H   0  0  0  0  0  0  0  0  0  0  0  0
    3.4343    0.4602    0.0000 H   0  0  0  0  0  0  0  0  0  0  0  0
    8.6219    2.3678    0.0000 H   0  0  0  0  0  0  0  0  0  0  0  0
    7.8414    2.7672    0.0000 H   0  0  0  0  0  0  0  0  0  0  0  0
    7.4420    1.9867    0.0000 H   0  0  0  0  0  0  0  0  0  0  0  0
    5.0005    0.5639    0.0000 H   0  0  0  0  0  0  0  0  0  0  0  0
    4.2087    0.9406    0.0000 H   0  0  0  0  0  0  0  0  0  0  0  0
    3.8320    0.1488    0.0000 H   0  0  0  0  0  0  0  0  0  0  0  0
    2.8878    0.3001    0.0000 H   0  0  0  0  0  0  0  0  0  0  0  0
    9.7153    1.5589    0.0000 H   0  0  0  0  0  0  0  0  0  0  0  0
    3.8100   -2.7972    0.0000 H   0  0  0  0  0  0  0  0  0  0  0  0
    4.7950    2.0409    0.0000 H   0  0  0  0  0  0  0  0  0  0  0  0
    2.3323    0.4935    0.0000 H   0  0  0  0  0  0  0  0  0  0  0  0
    1.4828    0.2764    0.0000 H   0  0  0  0  0  0  0  0  0  0  0  0
    1.6999   -0.5731    0.0000 H   0  0  0  0  0  0  0  0  0  0  0  0
  8  1  1  6  0  0  0
  9  2  1  1  0  0  0
  2 51  1  0  0  0  0
 12  3  1  1  0  0  0
  3 53  1  0  0  0  0
  4 24  2  0  0  0  0
  5  6  1  0  0  0  0
  5  9  1  0  0  0  0
  5 11  1  0  0  0  0
  5 16  1  1  0  0  0
  6  7  1  0  0  0  0
  6 13  1  0  0  0  0
  6 26  1  6  0  0  0
  7  8  1  0  0  0  0
  7 15  1  0  0  0  0
  7 27  1  1  0  0  0
  8 10  1  0  0  0  0
  8 12  1  0  0  0  0
  9 14  1  0  0  0  0
  9 20  1  0  0  0  0
 10 17  1  0  0  0  0
 10 19  1  0  0  0  0
 10 21  1  1  0  0  0
 11 12  1  0  0  0  0
 11 28  1  0  0  0  0
 11 29  1  0  0  0  0
 12 30  1  0  0  0  0
 13 14  1  0  0  0  0
 13 31  1  0  0  0  0
 13 32  1  0  0  0  0
 14 33  1  0  0  0  0
 14 34  1  0  0  0  0
 15 18  1  0  0  0  0
 15 35  1  0  0  0  0
 15 36  1  0  0  0  0
 16 37  1  0  0  0  0
 16 38  1  0  0  0  0
 16 39  1  0  0  0  0
 17 18  1  0  0  0  0
 17 23  2  0  0  0  0
 18 40  1  0  0  0  0
 18 41  1  0  0  0  0
 19 22  1  0  0  0  0
 19 42  1  0  0  0  0
 19 43  1  0  0  0  0
 20 44  1  0  0  0  0
 20 45  1  0  0  0  0
 20 46  1  0  0  0  0
 21 47  1  0  0  0  0
 21 48  1  0  0  0  0
 21 49  1  0  0  0  0
 22 24  1  0  0  0  0
 22 25  1  0  0  0  0
 22 50  1  0  0  0  0
 23 24  1  0  0  0  0
 23 52  1  0  0  0  0
 25 54  1  0  0  0  0
 25 55  1  0  0  0  0
 25 56  1  0  0  0  0
M  END
> <PUBCHEM_COMPOUND_CID>
11954104

> <PUBCHEM_COMPOUND_CANONICALIZED>
1

> <PUBCHEM_CACTVS_COMPLEXITY>
660

> <PUBCHEM_CACTVS_HBOND_ACCEPTOR>
4

> <PUBCHEM_CACTVS_HBOND_DONOR>
2

> <PUBCHEM_CACTVS_ROTATABLE_BOND>
0

> <PUBCHEM_CACTVS_SUBSKEYS>
AAADceB4MQAAAAAAAAAAAAAAAAAAAYAAAAAwYIAAAAAAAGDAAAAAGwAACAAAD1SggAICAAAAAgCIAqBSAAAAAAAgAAAACAEAAEgAEBIAAQAAQAAEgAAIAQPIyPCPgAAAAAAAAADAAAYAADAAAYAADAAAAA==

> <PUBCHEM_IUPAC_OPENEYE_NAME>
(8S,9R,10S,11S,13S,14S,17S)-9-fluoro-11,17-dihydroxy-2,10,13,17-tetramethyl-1,2,6,7,8,11,12,14,15,16-decahydrocyclopenta[a]phenanthren-3-one

> <PUBCHEM_IUPAC_CAS_NAME>
(8S,9R,10S,11S,13S,14S,17S)-9-fluoro-11,17-dihydroxy-2,10,13,17-tetramethyl-1,2,6,7,8,11,12,14,15,16-decahydrocyclopenta[a]phenanthren-3-one

> <PUBCHEM_IUPAC_NAME>
(8S,9R,10S,11S,13S,14S,17S)-9-fluoro-11,17-dihydroxy-2,10,13,17-tetramethyl-1,2,6,7,8,11,12,14,15,16-decahydrocyclopenta[a]phenanthren-3-one

> <PUBCHEM_IUPAC_SYSTEMATIC_NAME>
(8S,9R,10S,11S,13S,14S,17S)-9-fluoranyl-2,10,13,17-tetramethyl-11,17-bis(oxidanyl)-1,2,6,7,8,11,12,14,15,16-decahydrocyclopenta[a]phenanthren-3-one

> <PUBCHEM_IUPAC_TRADITIONAL_NAME>
(8S,9R,10S,11S,13S,14S,17S)-9-fluoro-11,17-dihydroxy-2,10,13,17-tetramethyl-1,2,6,7,8,11,12,14,15,16-decahydrocyclopenta[a]phenanthren-3-one

> <PUBCHEM_IUPAC_INCHI>
InChI=1S/C21H31FO3/c1-12-10-18(2)13(9-16(12)23)5-6-15-14-7-8-20(4,25)19(14,3)11-17(24)21(15,18)22/h9,12,14-15,17,24-25H,5-8,10-11H2,1-4H3/t12?,14-,15-,17-,18-,19-,20-,21-/m0/s1

> <PUBCHEM_IUPAC_INCHIKEY>
ZVKKSLFHXTYQQE-BEEPJJAKSA-N

> <PUBCHEM_XLOGP3>
3

> <PUBCHEM_EXACT_MASS>
350.225723

> <PUBCHEM_MOLECULAR_FORMULA>
C21H31FO3

> <PUBCHEM_MOLECULAR_WEIGHT>
350.467443

> <PUBCHEM_OPENEYE_CAN_SMILES>
CC1CC2(C(=CC1=O)CCC3C2(C(CC4(C3CCC4(C)O)C)O)F)C

> <PUBCHEM_OPENEYE_ISO_SMILES>
CC1C[C@]2(C(=CC1=O)CC[C@@H]3[C@@]2([C@H](C[C@]4([C@H]3CC[C@]4(C)O)C)O)F)C

> <PUBCHEM_CACTVS_TPSA>
57.5

> <PUBCHEM_MONOISOTOPIC_WEIGHT>
350.225723

> <PUBCHEM_TOTAL_CHARGE>
0

> <PUBCHEM_HEAVY_ATOM_COUNT>
25

> <PUBCHEM_ATOM_DEF_STEREO_COUNT>
7

> <PUBCHEM_ATOM_UDEF_STEREO_COUNT>
1

> <PUBCHEM_BOND_DEF_STEREO_COUNT>
0

> <PUBCHEM_BOND_UDEF_STEREO_COUNT>
0

> <PUBCHEM_ISOTOPIC_ATOM_COUNT>
0

> <PUBCHEM_COMPONENT_COUNT>
1

> <PUBCHEM_CACTVS_TAUTO_COUNT>
5

> <PUBCHEM_COORDINATE_TYPE>
1
5
255

> <PUBCHEM_BONDANNOTATIONS>
8  1  6
10  21  5
9  2  5
22  50  3
12  3  5
5  16  5
6  26  6
7  27  5

$$$$

