9789
  -OEChem-06261204043D

 10  9  0     0  0  0  0  0  0999 V2000
    0.6676    1.5506   -0.0020 F   0  0  0  0  0  0  0  0  0  0  0  0
    1.6645   -0.0502   -1.0966 F   0  0  0  0  0  0  0  0  0  0  0  0
    1.6999   -0.0315    1.0799 F   0  0  0  0  0  0  0  0  0  0  0  0
   -2.6126    0.6938    0.0009 N   0  0  0  0  0  0  0  0  0  0  0  0
    0.9105    0.2141    0.0021 C   0  0  0  0  0  0  0  0  0  0  0  0
   -0.3590   -0.5782    0.0046 C   0  0  0  0  0  0  0  0  0  0  0  0
   -0.3676   -1.9194    0.0087 C   0  0  0  0  0  0  0  0  0  0  0  0
   -1.6034    0.1208    0.0025 C   0  0  0  0  0  0  0  0  0  0  0  0
    0.5614   -2.4809    0.0105 H   0  0  0  0  0  0  0  0  0  0  0  0
   -1.2919   -2.4889    0.0104 H   0  0  0  0  0  0  0  0  0  0  0  0
  1  5  1  0  0  0  0
  2  5  1  0  0  0  0
  3  5  1  0  0  0  0
  4  8  3  0  0  0  0
  5  6  1  0  0  0  0
  6  7  2  0  0  0  0
  6  8  1  0  0  0  0
  7  9  1  0  0  0  0
  7 10  1  0  0  0  0
M  END
> <PUBCHEM_COMPOUND_CID>
9789

> <PUBCHEM_CONFORMER_RMSD>
0.4

> <PUBCHEM_CONFORMER_DIVERSEORDER>
1

> <PUBCHEM_MMFF94_PARTIAL_CHARGES>
10
1 -0.34
10 0.15
2 -0.34
3 -0.34
4 -0.56
5 1.16
6 -0.07
7 -0.3
8 0.49
9 0.15

> <PUBCHEM_EFFECTIVE_ROTOR_COUNT>
1

> <PUBCHEM_PHARMACOPHORE_FEATURES>
2
1 4 acceptor
1 7 hydrophobe

> <PUBCHEM_HEAVY_ATOM_COUNT>
8

> <PUBCHEM_ATOM_DEF_STEREO_COUNT>
0

> <PUBCHEM_ATOM_UDEF_STEREO_COUNT>
0

> <PUBCHEM_BOND_DEF_STEREO_COUNT>
0

> <PUBCHEM_BOND_UDEF_STEREO_COUNT>
0

> <PUBCHEM_ISOTOPIC_ATOM_COUNT>
0

> <PUBCHEM_COMPONENT_COUNT>
1

> <PUBCHEM_CACTVS_TAUTO_COUNT>
1

> <PUBCHEM_CONFORMER_ID>
0000263D00000001

> <PUBCHEM_MMFF94_ENERGY>
3.8129

> <PUBCHEM_FEATURE_SELFOVERLAP>
10.148

> <PUBCHEM_SHAPE_FINGERPRINT>
137420 1 6824043846380286540
20096714 4 18412262800873581257
21040471 1 18410855460286560259
24536 1 17823971247425482459
5084963 1 18114170926539051875

> <PUBCHEM_SHAPE_MULTIPOLES>
137.83
2.45
1.44
0.79
1.01
0.52
-0.01
-0.77
0.01
0.15
0
-0.38
0.02
0

> <PUBCHEM_SHAPE_SELFOVERLAP>
269.266

> <PUBCHEM_SHAPE_VOLUME>
83

> <PUBCHEM_COORDINATE_TYPE>
2
5
10

$$$$

