10814
  -OEChem-06261204593D

 33 34  0     0  0  0  0  0  0999 V2000
    0.5671   -0.3478    0.3444 O   0  0  0  0  0  0  0  0  0  0  0  0
   -1.8081    2.9003   -0.4905 O   0  0  0  0  0  0  0  0  0  0  0  0
   -4.5430    2.6284   -0.1972 O   0  0  0  0  0  0  0  0  0  0  0  0
    4.5874   -1.6345   -1.8716 O   0  0  0  0  0  0  0  0  0  0  0  0
    4.7652    1.2219    1.9689 O   0  0  0  0  0  0  0  0  0  0  0  0
    6.0640   -0.1584   -0.0512 O   0  0  0  0  0  0  0  0  0  0  0  0
    0.4754    1.5190   -1.0495 O   0  0  0  0  0  0  0  0  0  0  0  0
   -3.1282   -3.1524    0.3964 O   0  0  0  0  0  0  0  0  0  0  0  0
   -5.2681   -2.3939    0.5049 O   0  0  0  0  0  0  0  0  0  0  0  0
   -1.5328    0.5386   -0.2177 C   0  0  0  0  0  0  0  0  0  0  0  0
   -2.3512    1.6664   -0.2828 C   0  0  0  0  0  0  0  0  0  0  0  0
   -2.0953   -0.7201   -0.0058 C   0  0  0  0  0  0  0  0  0  0  0  0
   -3.4761   -0.8510    0.1414 C   0  0  0  0  0  0  0  0  0  0  0  0
    1.9601   -0.2997    0.2441 C   0  0  0  0  0  0  0  0  0  0  0  0
   -3.7321    1.5354   -0.1356 C   0  0  0  0  0  0  0  0  0  0  0  0
   -4.2946    0.2766    0.0764 C   0  0  0  0  0  0  0  0  0  0  0  0
   -0.0887    0.6522   -0.3691 C   0  0  0  0  0  0  0  0  0  0  0  0
    2.6638    0.4433    1.1651 C   0  0  0  0  0  0  0  0  0  0  0  0
    2.5742   -0.9975   -0.7720 C   0  0  0  0  0  0  0  0  0  0  0  0
    3.9647   -0.9497   -0.8721 C   0  0  0  0  0  0  0  0  0  0  0  0
    4.0543    0.4914    1.0651 C   0  0  0  0  0  0  0  0  0  0  0  0
    4.7048   -0.2052    0.0465 C   0  0  0  0  0  0  0  0  0  0  0  0
   -4.0629   -2.1633    0.3618 C   0  0  0  0  0  0  0  0  0  0  0  0
   -1.4515   -1.5949    0.0245 H   0  0  0  0  0  0  0  0  0  0  0  0
   -5.3725    0.1889    0.1893 H   0  0  0  0  0  0  0  0  0  0  0  0
    2.1446    0.9802    1.9537 H   0  0  0  0  0  0  0  0  0  0  0  0
    1.9919   -1.5757   -1.4832 H   0  0  0  0  0  0  0  0  0  0  0  0
   -0.8393    2.8532   -0.5059 H   0  0  0  0  0  0  0  0  0  0  0  0
   -3.9877    3.4130   -0.3488 H   0  0  0  0  0  0  0  0  0  0  0  0
    5.5462   -1.4900   -1.7901 H   0  0  0  0  0  0  0  0  0  0  0  0
    4.1487    1.6338    2.5984 H   0  0  0  0  0  0  0  0  0  0  0  0
    6.4042    0.4029    0.6671 H   0  0  0  0  0  0  0  0  0  0  0  0
   -3.5339   -4.0330    0.5450 H   0  0  0  0  0  0  0  0  0  0  0  0
  1 14  1  0  0  0  0
  1 17  1  0  0  0  0
  2 11  1  0  0  0  0
  2 28  1  0  0  0  0
  3 15  1  0  0  0  0
  3 29  1  0  0  0  0
  4 20  1  0  0  0  0
  4 30  1  0  0  0  0
  5 21  1  0  0  0  0
  5 31  1  0  0  0  0
  6 22  1  0  0  0  0
  6 32  1  0  0  0  0
  7 17  2  0  0  0  0
  8 23  1  0  0  0  0
  8 33  1  0  0  0  0
  9 23  2  0  0  0  0
 10 11  2  0  0  0  0
 10 12  1  0  0  0  0
 10 17  1  0  0  0  0
 11 15  1  0  0  0  0
 12 13  2  0  0  0  0
 12 24  1  0  0  0  0
 13 16  1  0  0  0  0
 13 23  1  0  0  0  0
 14 18  2  0  0  0  0
 14 19  1  0  0  0  0
 15 16  2  0  0  0  0
 16 25  1  0  0  0  0
 18 21  1  0  0  0  0
 18 26  1  0  0  0  0
 19 20  2  0  0  0  0
 19 27  1  0  0  0  0
 20 22  1  0  0  0  0
 21 22  2  0  0  0  0
M  END
> <PUBCHEM_COMPOUND_CID>
10814

> <PUBCHEM_CONFORMER_RMSD>
0.8

> <PUBCHEM_CONFORMER_DIVERSEORDER>
1
32
6
28
38
35
36
15
13
41
39
2
30
3
31
25
21
4
26
24
8
29
40
5
18
22
19
14
43
9
16
37
17
20
7
33
23
34
42
27
12
10
11

> <PUBCHEM_MMFF94_PARTIAL_CHARGES>
33
1 -0.23
10 0.09
11 0.08
12 -0.15
13 0.09
14 0.08
15 0.08
16 -0.15
17 0.63
18 -0.15
19 -0.15
2 -0.53
20 0.08
21 0.08
22 0.08
23 0.63
24 0.15
25 0.15
26 0.15
27 0.15
28 0.45
29 0.45
3 -0.53
30 0.45
31 0.45
32 0.45
33 0.5
4 -0.53
5 -0.53
6 -0.53
7 -0.57
8 -0.65
9 -0.57

> <PUBCHEM_EFFECTIVE_ROTOR_COUNT>
4

> <PUBCHEM_PHARMACOPHORE_FEATURES>
11
1 2 donor
1 3 donor
1 4 donor
1 5 donor
1 6 donor
1 7 acceptor
1 8 acceptor
1 9 acceptor
3 8 9 23 anion
6 10 11 12 13 15 16 rings
6 14 18 19 20 21 22 rings

> <PUBCHEM_HEAVY_ATOM_COUNT>
23

> <PUBCHEM_ATOM_DEF_STEREO_COUNT>
0

> <PUBCHEM_ATOM_UDEF_STEREO_COUNT>
0

> <PUBCHEM_BOND_DEF_STEREO_COUNT>
0

> <PUBCHEM_BOND_UDEF_STEREO_COUNT>
0

> <PUBCHEM_ISOTOPIC_ATOM_COUNT>
0

> <PUBCHEM_COMPONENT_COUNT>
1

> <PUBCHEM_CACTVS_TAUTO_COUNT>
120

> <PUBCHEM_CONFORMER_ID>
00002A3E00000001

> <PUBCHEM_MMFF94_ENERGY>
74.5295

> <PUBCHEM_FEATURE_SELFOVERLAP>
55.89

> <PUBCHEM_SHAPE_FINGERPRINT>
10319926 262 18338254746781670770
10366900 7 18042138677055944337
10369192 42 17897736353938679976
105312 117 17844259621445748957
10616163 171 18413386553402881571
10912923 1 17561367279409351376
11045977 3 18259989296586106488
11370993 144 17676758864217630707
11405975 8 18261111936770832442
11545043 162 18334293184368624746
11552529 35 15937549030576235111
11796584 16 18267302226386431966
12236239 1 16988842804671805664
12403259 415 18113622257673688976
12507560 40 18113620075186737005
12553582 1 18202278079118260563
12616971 3 16415476082136010948
12730499 353 17967249768295057658
13583140 156 17821734935264016164
13675066 3 18187086139440929828
13760787 5 15769772472618848318
14178342 30 18271815647864880651
15042514 8 18341603812224280217
15099037 37 18411142411462578951
15537594 2 17846493768542803739
15788980 27 15841557391925662806
15961568 22 18200877254308422860
17349148 13 16702025287892281242
1768 85 17315649400155574216
17844677 252 18410851036591707848
1813 80 17775286023693891949
193927 3 18200864068531392339
200 152 15339125649424077340
21033648 29 17749686141698480697
21065198 57 18335140929282076608
21065199 12 18259988166998917920
21065201 7 18340488958213680738
21267235 1 18271800182299759347
21792961 116 17894624899408726734
22943178 12 18260270784684803580
2297311 6 18410284805056172093
23402539 116 18202568380067920614
23557571 272 18409445877694734944
23559900 14 18336825411461131742
25147074 1 17988346088838205021
268830 7 14129069088511451858
2838139 119 15069463925228673753
314173 85 18340202999676358403
335352 9 18342176649366308711
4073 2 18408321116376394370
4214541 1 18410855485977275273
5104073 3 18261396680249427770
602551 16 18342177752323993378
7495541 125 18335421262467295720
90127 26 17894352202306179128
9709674 26 18334579044443589095

> <PUBCHEM_SHAPE_MULTIPOLES>
420.51
12.66
2.59
1.12
6.7
0.28
-0.07
2.8
-1.15
-4.51
0.12
1.7
0
2.14

> <PUBCHEM_SHAPE_SELFOVERLAP>
925.095

> <PUBCHEM_SHAPE_VOLUME>
224.1

> <PUBCHEM_COORDINATE_TYPE>
2
5
10

$$$$

