46173964
  -OEChem-07051213102D

 57 60  0     1  0  0  0  0  0999 V2000
    5.2881    1.0565    0.0000 O   0  0  0  0  0  0  0  0  0  0  0  0
    7.7105   -0.6162    0.0000 O   0  0  0  0  0  0  0  0  0  0  0  0
    4.1189    1.1794    0.0000 O   0  0  0  0  0  0  0  0  0  0  0  0
    5.6049   -1.9893    0.0000 O   0  0  0  0  0  0  0  0  0  0  0  0
    5.3356    2.1498    0.0000 O   0  0  0  0  0  0  0  0  0  0  0  0
    6.8402   -1.0139    0.0000 O   0  0  0  0  0  0  0  0  0  0  0  0
    2.1404   -1.6950    0.0000 O   0  0  0  0  0  0  0  0  0  0  0  0
    6.2016    0.6498    0.0000 C   0  0  2  0  0  0  0  0  0  0  0  0
    7.0676    0.1498    0.0000 C   0  0  2  0  0  0  0  0  0  0  0  0
    5.1189   -0.5527    0.0000 C   0  0  1  0  0  0  0  0  0  0  0  0
    2.9318   -0.2170    0.0000 C   0  0  3  0  0  0  0  0  0  0  0  0
    4.6189    0.3134    0.0000 C   0  0  2  0  0  0  0  0  0  0  0  0
    3.6481    0.4530    0.0000 C   0  0  0  0  0  0  0  0  0  0  0  0
    4.7545   -1.4632    0.0000 C   0  0  1  0  0  0  0  0  0  0  0  0
    6.0971   -0.3448    0.0000 C   0  0  0  0  0  0  0  0  0  0  0  0
    6.2016    1.6498    0.0000 C   0  0  1  0  0  0  0  0  0  0  0  0
    7.9336    0.6498    0.0000 C   0  0  0  0  0  0  0  0  0  0  0  0
    3.8161   -1.7485    0.0000 C   0  0  0  0  0  0  0  0  0  0  0  0
    3.0065   -1.1950    0.0000 C   0  0  0  0  0  0  0  0  0  0  0  0
    7.0676    2.1498    0.0000 C   0  0  2  0  0  0  0  0  0  0  0  0
    7.9336    1.6498    0.0000 C   0  0  0  0  0  0  0  0  0  0  0  0
    5.8860   -1.1942    0.0000 C   0  0  0  0  0  0  0  0  0  0  0  0
    2.0000    0.1458    0.0000 C   0  0  0  0  0  0  0  0  0  0  0  0
    5.0441   -2.4204    0.0000 C   0  0  0  0  0  0  0  0  0  0  0  0
    7.0676    3.1498    0.0000 C   0  0  0  0  0  0  0  0  0  0  0  0
    4.3600   -3.1498    0.0000 C   0  0  0  0  0  0  0  0  0  0  0  0
    6.0178   -2.6481    0.0000 C   0  0  0  0  0  0  0  0  0  0  0  0
    3.8713    1.0315    0.0000 H   0  0  0  0  0  0  0  0  0  0  0  0
    3.1341    0.7997    0.0000 H   0  0  0  0  0  0  0  0  0  0  0  0
    6.2016    2.2698    0.0000 H   0  0  0  0  0  0  0  0  0  0  0  0
    8.1457    0.0672    0.0000 H   0  0  0  0  0  0  0  0  0  0  0  0
    8.5442    0.7574    0.0000 H   0  0  0  0  0  0  0  0  0  0  0  0
    3.3606   -2.1692    0.0000 H   0  0  0  0  0  0  0  0  0  0  0  0
    4.1244   -2.2864    0.0000 H   0  0  0  0  0  0  0  0  0  0  0  0
    7.6046    2.4598    0.0000 H   0  0  0  0  0  0  0  0  0  0  0  0
    8.5442    1.5421    0.0000 H   0  0  0  0  0  0  0  0  0  0  0  0
    8.1457    2.2324    0.0000 H   0  0  0  0  0  0  0  0  0  0  0  0
    5.4883   -1.6698    0.0000 H   0  0  0  0  0  0  0  0  0  0  0  0
    6.3616   -1.5920    0.0000 H   0  0  0  0  0  0  0  0  0  0  0  0
    6.2838   -0.7186    0.0000 H   0  0  0  0  0  0  0  0  0  0  0  0
    2.2250    0.7236    0.0000 H   0  0  0  0  0  0  0  0  0  0  0  0
    1.4222    0.3708    0.0000 H   0  0  0  0  0  0  0  0  0  0  0  0
    1.7750   -0.4319    0.0000 H   0  0  0  0  0  0  0  0  0  0  0  0
    5.4682   -1.9682    0.0000 H   0  0  0  0  0  0  0  0  0  0  0  0
    8.3210   -0.5086    0.0000 H   0  0  0  0  0  0  0  0  0  0  0  0
    3.4989    1.1794    0.0000 H   0  0  0  0  0  0  0  0  0  0  0  0
    6.2247   -2.0080    0.0000 H   0  0  0  0  0  0  0  0  0  0  0  0
    7.6876    3.1498    0.0000 H   0  0  0  0  0  0  0  0  0  0  0  0
    7.0676    3.7698    0.0000 H   0  0  0  0  0  0  0  0  0  0  0  0
    6.4476    3.1498    0.0000 H   0  0  0  0  0  0  0  0  0  0  0  0
    5.3356    2.7698    0.0000 H   0  0  0  0  0  0  0  0  0  0  0  0
    3.9078   -2.7256    0.0000 H   0  0  0  0  0  0  0  0  0  0  0  0
    3.9358   -3.6020    0.0000 H   0  0  0  0  0  0  0  0  0  0  0  0
    4.8122   -3.5739    0.0000 H   0  0  0  0  0  0  0  0  0  0  0  0
    5.8766   -3.2518    0.0000 H   0  0  0  0  0  0  0  0  0  0  0  0
    6.6215   -2.7894    0.0000 H   0  0  0  0  0  0  0  0  0  0  0  0
    6.1590   -2.0444    0.0000 H   0  0  0  0  0  0  0  0  0  0  0  0
  8  1  1  6  0  0  0
  1 12  1  0  0  0  0
  9  2  1  1  0  0  0
  2 45  1  0  0  0  0
 12  3  1  1  0  0  0
  3 46  1  0  0  0  0
 14  4  1  6  0  0  0
  4 47  1  0  0  0  0
 16  5  1  6  0  0  0
  5 51  1  0  0  0  0
  6 15  2  0  0  0  0
  7 19  2  0  0  0  0
  8  9  1  0  0  0  0
  8 15  1  0  0  0  0
  8 16  1  0  0  0  0
  9 11  1  0  0  0  0
  9 17  1  0  0  0  0
 10 12  1  0  0  0  0
 10 14  1  0  0  0  0
 10 15  1  0  0  0  0
 10 22  1  1  0  0  0
 11 13  1  0  0  0  0
 11 19  1  0  0  0  0
 11 23  1  0  0  0  0
 12 13  1  0  0  0  0
 13 28  1  0  0  0  0
 13 29  1  0  0  0  0
 14 18  1  0  0  0  0
 14 24  1  0  0  0  0
 16 20  1  0  0  0  0
 16 30  1  0  0  0  0
 17 21  1  0  0  0  0
 17 31  1  0  0  0  0
 17 32  1  0  0  0  0
 18 19  1  0  0  0  0
 18 33  1  0  0  0  0
 18 34  1  0  0  0  0
 20 21  1  0  0  0  0
 20 25  1  1  0  0  0
 20 35  1  0  0  0  0
 21 36  1  0  0  0  0
 21 37  1  0  0  0  0
 22 38  1  0  0  0  0
 22 39  1  0  0  0  0
 22 40  1  0  0  0  0
 23 41  1  0  0  0  0
 23 42  1  0  0  0  0
 23 43  1  0  0  0  0
 24 26  1  0  0  0  0
 24 27  1  0  0  0  0
 24 44  1  0  0  0  0
 25 48  1  0  0  0  0
 25 49  1  0  0  0  0
 25 50  1  0  0  0  0
 26 52  1  0  0  0  0
 26 53  1  0  0  0  0
 26 54  1  0  0  0  0
 27 55  1  0  0  0  0
 27 56  1  0  0  0  0
 27 57  1  0  0  0  0
M  END
> <PUBCHEM_COMPOUND_CID>
46173964

> <PUBCHEM_COMPOUND_CANONICALIZED>
1

> <PUBCHEM_CACTVS_COMPLEXITY>
751

> <PUBCHEM_CACTVS_HBOND_ACCEPTOR>
7

> <PUBCHEM_CACTVS_HBOND_DONOR>
4

> <PUBCHEM_CACTVS_ROTATABLE_BOND>
1

> <PUBCHEM_CACTVS_SUBSKEYS>
AAADceB4OAAAAAAAAAAAAAAAAAAAASAAAAA0QAAABgAYAACQAAAAGgAACAAAD1SggAICCAAABgAIAIAQAAIAAAAAAAAAAAFAAAAREBYAAAQCQAAFIAAHAAHK7vTvgAAAAAAAAADAAAYQADCAAAAAAAAAAA==

> <PUBCHEM_IUPAC_INCHI>
InChI=1S/C20H30O7/c1-10(2)17(24)8-12(21)15(4)9-19(26)16(17,5)14(23)20(27-19)13(22)11(3)6-7-18(15,20)25/h10-11,13,22,24-26H,6-9H2,1-5H3/t11-,13+,15?,16+,17-,18-,19-,20-/m0/s1

> <PUBCHEM_IUPAC_INCHIKEY>
IJPNDQQOKFKBRG-ZPZYUIKSSA-N

> <PUBCHEM_XLOGP3_AA>
-0.4

> <PUBCHEM_EXACT_MASS>
382.199153

> <PUBCHEM_MOLECULAR_FORMULA>
C20H30O7

> <PUBCHEM_MOLECULAR_WEIGHT>
382.448

> <PUBCHEM_OPENEYE_CAN_SMILES>
CC1CCC2(C3(CC4(C(C(=O)C2(C1O)O4)(C(CC3=O)(C(C)C)O)C)O)C)O

> <PUBCHEM_OPENEYE_ISO_SMILES>
C[C@H]1CC[C@]2([C@]3([C@@H]1O)C(=O)[C@@]4([C@](CC(=O)C2(C[C@@]4(O3)O)C)(C(C)C)O)C)O

> <PUBCHEM_CACTVS_TPSA>
124

> <PUBCHEM_MONOISOTOPIC_WEIGHT>
382.199153

> <PUBCHEM_TOTAL_CHARGE>
0

> <PUBCHEM_HEAVY_ATOM_COUNT>
27

> <PUBCHEM_ATOM_DEF_STEREO_COUNT>
7

> <PUBCHEM_ATOM_UDEF_STEREO_COUNT>
1

> <PUBCHEM_BOND_DEF_STEREO_COUNT>
0

> <PUBCHEM_BOND_UDEF_STEREO_COUNT>
0

> <PUBCHEM_ISOTOPIC_ATOM_COUNT>
0

> <PUBCHEM_COMPONENT_COUNT>
1

> <PUBCHEM_CACTVS_TAUTO_COUNT>
2

> <PUBCHEM_COORDINATE_TYPE>
1
5
255

> <PUBCHEM_BONDANNOTATIONS>
8  1  6
10  22  5
11  23  3
9  2  5
20  25  5
12  3  5
14  4  6
16  5  6

$$$$

