86962
  -OEChem-07051213093D

 22 21  0     0  0  0  0  0  0999 V2000
   -5.1076    0.6991    0.0051 O   0  0  0  0  0  0  0  0  0  0  0  0
    2.4680    1.6015   -0.0432 O   0  0  0  0  0  0  0  0  0  0  0  0
   -4.1459   -1.3558   -0.0694 O   0  0  0  0  0  0  0  0  0  0  0  0
    4.6701    0.3789   -0.0713 O   0  0  0  0  0  0  0  0  0  0  0  0
    3.5874   -1.6426    0.0179 O   0  0  0  0  0  0  0  0  0  0  0  0
   -0.1910    0.5243    0.0578 C   0  0  0  0  0  0  0  0  0  0  0  0
   -1.5004   -0.2747    0.0236 C   0  0  0  0  0  0  0  0  0  0  0  0
    1.0421   -0.3798    0.0525 C   0  0  0  0  0  0  0  0  0  0  0  0
   -2.7348    0.6283    0.0265 C   0  0  0  0  0  0  0  0  0  0  0  0
    2.3447    0.3876    0.0186 C   0  0  0  0  0  0  0  0  0  0  0  0
   -4.0377   -0.1383   -0.0261 C   0  0  0  0  0  0  0  0  0  0  0  0
    3.6050   -0.4286    0.0080 C   0  0  0  0  0  0  0  0  0  0  0  0
   -0.1718    1.1621    0.9503 H   0  0  0  0  0  0  0  0  0  0  0  0
   -0.1544    1.1978   -0.8077 H   0  0  0  0  0  0  0  0  0  0  0  0
   -1.5398   -0.9496    0.8877 H   0  0  0  0  0  0  0  0  0  0  0  0
   -1.5163   -0.9111   -0.8702 H   0  0  0  0  0  0  0  0  0  0  0  0
    1.0133   -1.0308   -0.8286 H   0  0  0  0  0  0  0  0  0  0  0  0
    1.0390   -1.0067    0.9511 H   0  0  0  0  0  0  0  0  0  0  0  0
   -2.7386    1.2372    0.9376 H   0  0  0  0  0  0  0  0  0  0  0  0
   -2.7030    1.2944   -0.8430 H   0  0  0  0  0  0  0  0  0  0  0  0
   -5.9565    0.2082   -0.0179 H   0  0  0  0  0  0  0  0  0  0  0  0
    5.5137   -0.1205   -0.1058 H   0  0  0  0  0  0  0  0  0  0  0  0
  1 11  1  0  0  0  0
  1 21  1  0  0  0  0
  2 10  2  0  0  0  0
  3 11  2  0  0  0  0
  4 12  1  0  0  0  0
  4 22  1  0  0  0  0
  5 12  2  0  0  0  0
  6  7  1  0  0  0  0
  6  8  1  0  0  0  0
  6 13  1  0  0  0  0
  6 14  1  0  0  0  0
  7  9  1  0  0  0  0
  7 15  1  0  0  0  0
  7 16  1  0  0  0  0
  8 10  1  0  0  0  0
  8 17  1  0  0  0  0
  8 18  1  0  0  0  0
  9 11  1  0  0  0  0
  9 19  1  0  0  0  0
  9 20  1  0  0  0  0
 10 12  1  0  0  0  0
M  END
> <PUBCHEM_COMPOUND_CID>
86962

> <PUBCHEM_CONFORMER_RMSD>
0.6

> <PUBCHEM_CONFORMER_DIVERSEORDER>
1
83
105
8
78
61
94
3
103
31
118
100
115
12
6
107
5
102
35
120
38
86
73
116
87
114
30
9
111
80
90
59
36
52
119
40
75
18
110
109
74
121
85
19
10
27
112
2
20
68
84
63
34
108
25
22
7
88
43
55
99
14
96
47
76
89
23
113
39
93
82
51
97
69
16
77
53
101
11
4
58
26
46
62
24
71
15
33
45
98
95
72
117
70
29
64
17
65
50
13
32
48
54
79
67
42
57
28
21
60
91
41
56
44
81
104
106
37
92
49
66

> <PUBCHEM_MMFF94_PARTIAL_CHARGES>
12
1 -0.65
10 0.51
11 0.66
12 0.72
2 -0.57
21 0.5
22 0.5
3 -0.57
4 -0.65
5 -0.57
8 0.06
9 0.06

> <PUBCHEM_EFFECTIVE_ROTOR_COUNT>
6

> <PUBCHEM_PHARMACOPHORE_FEATURES>
8
1 1 acceptor
1 2 acceptor
1 3 acceptor
1 4 acceptor
1 5 acceptor
3 1 3 11 anion
3 4 5 12 anion
4 6 7 8 9 hydrophobe

> <PUBCHEM_HEAVY_ATOM_COUNT>
12

> <PUBCHEM_ATOM_DEF_STEREO_COUNT>
0

> <PUBCHEM_ATOM_UDEF_STEREO_COUNT>
0

> <PUBCHEM_BOND_DEF_STEREO_COUNT>
0

> <PUBCHEM_BOND_UDEF_STEREO_COUNT>
0

> <PUBCHEM_ISOTOPIC_ATOM_COUNT>
0

> <PUBCHEM_COMPONENT_COUNT>
1

> <PUBCHEM_CACTVS_TAUTO_COUNT>
2

> <PUBCHEM_CONFORMER_ID>
000153B200000001

> <PUBCHEM_MMFF94_ENERGY>
10.0803

> <PUBCHEM_FEATURE_SELFOVERLAP>
40.723

> <PUBCHEM_SHAPE_FINGERPRINT>
11987891 38 18409728465147414795
13167823 11 18409450271710451599
14123238 8 18113056030079939292
14251717 144 18411981398996165450
14252887 29 17749101214940750198
15477762 27 18411417324108926532
17834072 33 18339358570092426612
17834074 16 18412542098244331411
17834076 25 15410897370871404037
18186145 218 17775012271326757353
190213 19 17676203572190780961
200 152 18114185237633767785
20279233 1 17846773010226197530
20645477 70 18339079401745678110
22485316 2 18409169908992828163
23402539 116 18334864917667258021
23402655 69 18411138051822873229
42 15 18410574002336608094
42788 4 18411136939547636737
522135 26 18342175583402068110
77779 3 18411136931110650477

> <PUBCHEM_SHAPE_MULTIPOLES>
217.61
10.57
1.21
0.58
4.36
0.14
0
0.86
-0.21
-0.43
-0.01
0.01
0
-0.06

> <PUBCHEM_SHAPE_SELFOVERLAP>
417.31

> <PUBCHEM_SHAPE_VOLUME>
131.5

> <PUBCHEM_COORDINATE_TYPE>
2
5
10

$$$$

