5281638
  -OEChem-07051212583D

 32 34  0     0  0  0  0  0  0999 V2000
    0.1296   -0.8688   -0.0019 O   0  0  0  0  0  0  0  0  0  0  0  0
    1.2872    2.6309   -0.0191 O   0  0  0  0  0  0  0  0  0  0  0  0
   -3.8760    1.8506    0.0028 O   0  0  0  0  0  0  0  0  0  0  0  0
   -1.4836    2.8731   -0.0055 O   0  0  0  0  0  0  0  0  0  0  0  0
   -5.3755   -0.4272    0.0021 O   0  0  0  0  0  0  0  0  0  0  0  0
   -4.1510   -2.9057   -0.0005 O   0  0  0  0  0  0  0  0  0  0  0  0
    6.4246   -0.9355   -0.0049 O   0  0  0  0  0  0  0  0  0  0  0  0
   -1.8451    0.5426    0.0009 C   0  0  0  0  0  0  0  0  0  0  0  0
   -1.2319   -0.7083   -0.0002 C   0  0  0  0  0  0  0  0  0  0  0  0
    0.9291    0.2633    0.0097 C   0  0  0  0  0  0  0  0  0  0  0  0
   -1.0021    1.7481   -0.0005 C   0  0  0  0  0  0  0  0  0  0  0  0
    0.4639    1.5258    0.0025 C   0  0  0  0  0  0  0  0  0  0  0  0
   -3.2384    0.6455    0.0014 C   0  0  0  0  0  0  0  0  0  0  0  0
    2.3691   -0.0500    0.0059 C   0  0  0  0  0  0  0  0  0  0  0  0
   -2.0094   -1.8666   -0.0013 C   0  0  0  0  0  0  0  0  0  0  0  0
   -4.0139   -0.5146    0.0010 C   0  0  0  0  0  0  0  0  0  0  0  0
   -3.4009   -1.7682   -0.0005 C   0  0  0  0  0  0  0  0  0  0  0  0
    3.0562   -0.1894    1.2120 C   0  0  0  0  0  0  0  0  0  0  0  0
    3.0456   -0.2082   -1.2039 C   0  0  0  0  0  0  0  0  0  0  0  0
    4.4190   -0.4867    1.2085 C   0  0  0  0  0  0  0  0  0  0  0  0
    4.4083   -0.5058   -1.2074 C   0  0  0  0  0  0  0  0  0  0  0  0
    5.0951   -0.6448   -0.0012 C   0  0  0  0  0  0  0  0  0  0  0  0
   -1.5336   -2.8441   -0.0025 H   0  0  0  0  0  0  0  0  0  0  0  0
    2.5424   -0.0696    2.1629 H   0  0  0  0  0  0  0  0  0  0  0  0
    2.5238   -0.1033   -2.1520 H   0  0  0  0  0  0  0  0  0  0  0  0
    4.9424   -0.5928    2.1549 H   0  0  0  0  0  0  0  0  0  0  0  0
    4.9296   -0.6282   -2.1529 H   0  0  0  0  0  0  0  0  0  0  0  0
    2.2163    2.3499   -0.0184 H   0  0  0  0  0  0  0  0  0  0  0  0
   -3.2360    2.5782    0.0097 H   0  0  0  0  0  0  0  0  0  0  0  0
   -5.6225    0.5139    0.0030 H   0  0  0  0  0  0  0  0  0  0  0  0
   -5.0906   -2.6524    0.0004 H   0  0  0  0  0  0  0  0  0  0  0  0
    6.7366   -0.9955    0.9144 H   0  0  0  0  0  0  0  0  0  0  0  0
  1  9  1  0  0  0  0
  1 10  1  0  0  0  0
  2 12  1  0  0  0  0
  2 28  1  0  0  0  0
  3 13  1  0  0  0  0
  3 29  1  0  0  0  0
  4 11  2  0  0  0  0
  5 16  1  0  0  0  0
  5 30  1  0  0  0  0
  6 17  1  0  0  0  0
  6 31  1  0  0  0  0
  7 22  1  0  0  0  0
  7 32  1  0  0  0  0
  8  9  2  0  0  0  0
  8 11  1  0  0  0  0
  8 13  1  0  0  0  0
  9 15  1  0  0  0  0
 10 12  2  0  0  0  0
 10 14  1  0  0  0  0
 11 12  1  0  0  0  0
 13 16  2  0  0  0  0
 14 18  2  0  0  0  0
 14 19  1  0  0  0  0
 15 17  2  0  0  0  0
 15 23  1  0  0  0  0
 16 17  1  0  0  0  0
 18 20  1  0  0  0  0
 18 24  1  0  0  0  0
 19 21  2  0  0  0  0
 19 25  1  0  0  0  0
 20 22  2  0  0  0  0
 20 26  1  0  0  0  0
 21 22  1  0  0  0  0
 21 27  1  0  0  0  0
M  END
> <PUBCHEM_COMPOUND_CID>
5281638

> <PUBCHEM_CONFORMER_RMSD>
0.6

> <PUBCHEM_CONFORMER_DIVERSEORDER>
1

> <PUBCHEM_MMFF94_PARTIAL_CHARGES>
32
1 -0.16
10 0.05
11 0.47
12 0.09
13 0.08
14 0.03
15 -0.15
16 0.08
17 0.08
18 -0.15
19 -0.15
2 -0.53
20 -0.15
21 -0.15
22 0.08
23 0.15
24 0.15
25 0.15
26 0.15
27 0.15
28 0.45
29 0.45
3 -0.53
30 0.45
31 0.45
32 0.45
4 -0.57
5 -0.53
6 -0.53
7 -0.53
8 0.09
9 0.08

> <PUBCHEM_EFFECTIVE_ROTOR_COUNT>
1

> <PUBCHEM_PHARMACOPHORE_FEATURES>
10
1 1 acceptor
1 2 donor
1 3 donor
1 4 acceptor
1 5 donor
1 6 donor
1 7 donor
6 1 8 9 10 11 12 rings
6 14 18 19 20 21 22 rings
6 8 9 13 15 16 17 rings

> <PUBCHEM_HEAVY_ATOM_COUNT>
22

> <PUBCHEM_ATOM_DEF_STEREO_COUNT>
0

> <PUBCHEM_ATOM_UDEF_STEREO_COUNT>
0

> <PUBCHEM_BOND_DEF_STEREO_COUNT>
0

> <PUBCHEM_BOND_UDEF_STEREO_COUNT>
0

> <PUBCHEM_ISOTOPIC_ATOM_COUNT>
0

> <PUBCHEM_COMPONENT_COUNT>
1

> <PUBCHEM_CACTVS_TAUTO_COUNT>
364

> <PUBCHEM_CONFORMER_ID>
0050976600000001

> <PUBCHEM_MMFF94_ENERGY>
66.1405

> <PUBCHEM_FEATURE_SELFOVERLAP>
50.782

> <PUBCHEM_SHAPE_FINGERPRINT>
10 15 17895772733835051682
10062212 137 18273495676078557323
10319926 262 18191045554650006890
10411042 1 18266740178312650827
10616163 171 18410855490367558350
11046707 91 18411418405791890571
11315181 36 18272931622629666822
12107183 9 17478900836672487570
12236239 1 17775001328145667534
12403814 3 17346317145933331333
12553582 1 18341902878490360059
12788726 201 18272374229852458225
13140716 1 18336826399245957849
13288520 33 18410292514522585303
13675066 3 17894353254488601738
13862211 1 18410577275608440655
14386348 63 17894910754624461646
14790565 3 17688020229919363497
15196674 1 18338797818909104997
15536298 74 18263927644046899809
16752209 62 18343309196706223123
16945 1 18410856602995930245
17492 89 17977386036615751639
17804303 29 18408324384493208697
1813 80 17704066326404676126
19141452 34 17821730498879635527
200 152 16702303477292889180
20028762 73 18043249046715343463
20374829 77 18410292488810972695
21033648 29 17095818692752325050
21065201 7 18335703901127163298
21267235 1 18412538795751831075
221490 88 18197209248566637763
2297311 6 18335413591254823862
23366157 5 17986392174823569180
23402539 116 18410298033624067782
23557571 272 18187643661009518988
23559900 14 18337116669936025360
26918003 58 17095241414957049090
2748010 2 18265904557790954797
3004659 81 18131071511200871798
335352 9 18411139126492969429
3411729 13 18192158088513817512
4214541 1 18410856576851372232
4325135 7 18341330008059361836
474 4 17058915668822026572
5104073 3 18263637360751401899
559249 180 18200317735257676554
602551 16 18408606972320064818
7970288 3 18339081475909563506
8863177 126 17700398192902043883
9709674 26 18124313801056880795

> <PUBCHEM_SHAPE_MULTIPOLES>
411.66
11.29
2.34
0.88
7.12
0.74
0
-5.23
0.01
-2.75
-0.01
1.09
-0.1
0.01

> <PUBCHEM_SHAPE_SELFOVERLAP>
924.509

> <PUBCHEM_SHAPE_VOLUME>
216.3

> <PUBCHEM_COORDINATE_TYPE>
2
5
10

$$$$

