5280527
  -OEChem-07051212473D

 31 31  0     0  0  0  0  0  0999 V2000
    4.8119    1.2473    0.2082 O   0  0  0  0  0  0  0  0  0  0  0  0
    5.2276   -1.4914   -0.0119 O   0  0  0  0  0  0  0  0  0  0  0  0
   -2.5782    1.6803    0.1672 O   0  0  0  0  0  0  0  0  0  0  0  0
   -4.7843   -0.6936   -1.4036 O   0  0  0  0  0  0  0  0  0  0  0  0
   -6.7415    0.0662   -0.5433 O   0  0  0  0  0  0  0  0  0  0  0  0
   -3.4182   -0.3918    0.8030 N   0  0  0  0  0  0  0  0  0  0  0  0
    1.3843    0.0251    0.0852 C   0  0  0  0  0  0  0  0  0  0  0  0
    2.4563    0.8990    0.1645 C   0  0  0  0  0  0  0  0  0  0  0  0
    3.7552    0.3913    0.1318 C   0  0  0  0  0  0  0  0  0  0  0  0
    1.5752   -1.3425   -0.0263 C   0  0  0  0  0  0  0  0  0  0  0  0
    3.9641   -0.9833    0.0198 C   0  0  0  0  0  0  0  0  0  0  0  0
    0.0122    0.5614    0.1202 C   0  0  0  0  0  0  0  0  0  0  0  0
    2.8740   -1.8502   -0.0593 C   0  0  0  0  0  0  0  0  0  0  0  0
   -1.0773   -0.1555    0.4328 C   0  0  0  0  0  0  0  0  0  0  0  0
   -2.4179    0.4965    0.4455 C   0  0  0  0  0  0  0  0  0  0  0  0
   -4.8115   -0.0163    0.8929 C   0  0  0  0  0  0  0  0  0  0  0  0
    5.3220    1.7590   -1.0216 C   0  0  0  0  0  0  0  0  0  0  0  0
   -5.5542   -0.2016   -0.4052 C   0  0  0  0  0  0  0  0  0  0  0  0
    2.3023    1.9716    0.2537 H   0  0  0  0  0  0  0  0  0  0  0  0
    0.7588   -2.0522   -0.1131 H   0  0  0  0  0  0  0  0  0  0  0  0
   -0.0789    1.6179   -0.1216 H   0  0  0  0  0  0  0  0  0  0  0  0
    3.0231   -2.9227   -0.1515 H   0  0  0  0  0  0  0  0  0  0  0  0
   -1.0355   -1.2030    0.7075 H   0  0  0  0  0  0  0  0  0  0  0  0
   -4.8820    1.0350    1.1874 H   0  0  0  0  0  0  0  0  0  0  0  0
   -5.2708   -0.6542    1.6530 H   0  0  0  0  0  0  0  0  0  0  0  0
   -3.1862   -1.3609    1.0009 H   0  0  0  0  0  0  0  0  0  0  0  0
    4.5542    2.3393   -1.5430 H   0  0  0  0  0  0  0  0  0  0  0  0
    5.6764    0.9443   -1.6611 H   0  0  0  0  0  0  0  0  0  0  0  0
    6.1648    2.4177   -0.7953 H   0  0  0  0  0  0  0  0  0  0  0  0
    5.1778   -2.4594   -0.0926 H   0  0  0  0  0  0  0  0  0  0  0  0
   -5.2902   -0.8054   -2.2365 H   0  0  0  0  0  0  0  0  0  0  0  0
  1  9  1  0  0  0  0
  1 17  1  0  0  0  0
  2 11  1  0  0  0  0
  2 30  1  0  0  0  0
  3 15  2  0  0  0  0
  4 18  1  0  0  0  0
  4 31  1  0  0  0  0
  5 18  2  0  0  0  0
  6 15  1  0  0  0  0
  6 16  1  0  0  0  0
  6 26  1  0  0  0  0
  7  8  2  0  0  0  0
  7 10  1  0  0  0  0
  7 12  1  0  0  0  0
  8  9  1  0  0  0  0
  8 19  1  0  0  0  0
  9 11  2  0  0  0  0
 10 13  2  0  0  0  0
 10 20  1  0  0  0  0
 11 13  1  0  0  0  0
 12 14  2  0  0  0  0
 12 21  1  0  0  0  0
 13 22  1  0  0  0  0
 14 15  1  0  0  0  0
 14 23  1  0  0  0  0
 16 18  1  0  0  0  0
 16 24  1  0  0  0  0
 16 25  1  0  0  0  0
 17 27  1  0  0  0  0
 17 28  1  0  0  0  0
 17 29  1  0  0  0  0
M  END
> <PUBCHEM_COMPOUND_CID>
5280527

> <PUBCHEM_CONFORMER_RMSD>
0.8

> <PUBCHEM_CONFORMER_DIVERSEORDER>
1
8
6
18
7
10
4
3
16
20
9
13
2
19
11
17
14
15
12
5

> <PUBCHEM_MMFF94_PARTIAL_CHARGES>
26
1 -0.36
10 -0.15
11 0.08
12 -0.18
13 -0.15
14 -0.14
15 0.62
16 0.36
17 0.28
18 0.66
19 0.15
2 -0.53
20 0.15
21 0.15
22 0.15
23 0.15
26 0.37
3 -0.57
30 0.45
31 0.5
4 -0.65
5 -0.57
6 -0.73
7 0.03
8 -0.15
9 0.08

> <PUBCHEM_EFFECTIVE_ROTOR_COUNT>
6

> <PUBCHEM_PHARMACOPHORE_FEATURES>
8
1 1 acceptor
1 2 donor
1 3 acceptor
1 4 acceptor
1 5 acceptor
1 6 donor
3 4 5 18 anion
6 7 8 9 10 11 13 rings

> <PUBCHEM_HEAVY_ATOM_COUNT>
18

> <PUBCHEM_ATOM_DEF_STEREO_COUNT>
0

> <PUBCHEM_ATOM_UDEF_STEREO_COUNT>
0

> <PUBCHEM_BOND_DEF_STEREO_COUNT>
1

> <PUBCHEM_BOND_UDEF_STEREO_COUNT>
0

> <PUBCHEM_ISOTOPIC_ATOM_COUNT>
0

> <PUBCHEM_COMPONENT_COUNT>
1

> <PUBCHEM_CACTVS_TAUTO_COUNT>
6

> <PUBCHEM_CONFORMER_ID>
0050930F00000001

> <PUBCHEM_MMFF94_ENERGY>
50.7365

> <PUBCHEM_FEATURE_SELFOVERLAP>
40.653

> <PUBCHEM_SHAPE_FINGERPRINT>
10366900 7 18260264122884683465
10447042 23 18410298020633709582
10912923 1 17894906356277179627
11287383 113 17917709076417601705
11471102 20 18411416211612189674
12107183 9 17395563348175737547
12236239 1 18040715870634146435
13167823 11 18186803612471739575
13533116 47 18334859441304660058
14123238 8 18040433291513295689
14123256 10 18334574616221699364
14528608 73 18261391122414039908
15475509 35 14129612342198430846
15961568 22 17274815823354560972
16079462 125 17560529421373627197
17834072 33 18186522102834395801
19489759 90 15626226819008430017
200 152 18260551130343682297
20281389 69 15195576714764606981
20645477 70 18337107968801678014
21065198 48 18114737234988230425
21267235 1 18334849563259667666
220451 1 17967246490802487659
22646028 1 18113057151335441971
2297311 6 15140671471860034673
23081809 10 18187359948180637705
23402539 116 18334297604312043273
23402655 69 18408885126833283851
23557571 272 16988280992341607367
23559900 14 18340771429834106233
2871803 45 18272933859727541971
29717793 49 18260545666665318390
300161 21 18340771455112981043
33824 294 18342737442471271994
34797466 226 15791729659685788048
4072396 5 13398637138722412288
42630746 31 18408885140477737050
4325135 7 18334013886734676404
5104073 3 18339357573639065160
5283173 99 17845945151027670197
542803 24 18272650151737115321
602551 16 15140976010367994079
6025842 7 18410852170985410830
7495541 125 17095531672930656530

> <PUBCHEM_SHAPE_MULTIPOLES>
336.1
15.04
1.57
0.86
13.93
0.06
-0.13
-0.86
-3.02
-2.47
-0.16
0.67
-0.03
-0.59

> <PUBCHEM_SHAPE_SELFOVERLAP>
694.811

> <PUBCHEM_SHAPE_VOLUME>
191.9

> <PUBCHEM_COORDINATE_TYPE>
2
5
10

$$$$

