522777
  -OEChem-07051213043D

 18 18  0     0  0  0  0  0  0999 V2000
    0.6522   -1.8418   -0.0003 O   0  0  0  0  0  0  0  0  0  0  0  0
    2.8847   -0.5614    0.0003 O   0  0  0  0  0  0  0  0  0  0  0  0
   -1.3583   -0.5533    0.0002 C   0  0  0  0  0  0  0  0  0  0  0  0
    0.0346   -0.6252    0.0001 C   0  0  0  0  0  0  0  0  0  0  0  0
    0.7934    0.5452    0.0000 C   0  0  0  0  0  0  0  0  0  0  0  0
   -1.9926    0.6890    0.0000 C   0  0  0  0  0  0  0  0  0  0  0  0
    0.1592    1.7876    0.0000 C   0  0  0  0  0  0  0  0  0  0  0  0
   -2.1882   -1.7948    0.0000 C   0  0  0  0  0  0  0  0  0  0  0  0
   -1.2338    1.8595   -0.0001 C   0  0  0  0  0  0  0  0  0  0  0  0
    2.2489    0.4951   -0.0002 C   0  0  0  0  0  0  0  0  0  0  0  0
   -3.0769    0.7628    0.0000 H   0  0  0  0  0  0  0  0  0  0  0  0
    0.7350    2.7096   -0.0001 H   0  0  0  0  0  0  0  0  0  0  0  0
   -1.9788   -2.3920   -0.8937 H   0  0  0  0  0  0  0  0  0  0  0  0
   -1.9758   -2.3945    0.8912 H   0  0  0  0  0  0  0  0  0  0  0  0
   -3.2603   -1.5706    0.0023 H   0  0  0  0  0  0  0  0  0  0  0  0
   -1.7277    2.8268   -0.0002 H   0  0  0  0  0  0  0  0  0  0  0  0
    2.7791    1.4627   -0.0004 H   0  0  0  0  0  0  0  0  0  0  0  0
    1.6162   -1.7538   -0.0165 H   0  0  0  0  0  0  0  0  0  0  0  0
  1  4  1  0  0  0  0
  1 18  1  0  0  0  0
  2 10  2  0  0  0  0
  3  4  2  0  0  0  0
  3  6  1  0  0  0  0
  3  8  1  0  0  0  0
  4  5  1  0  0  0  0
  5  7  2  0  0  0  0
  5 10  1  0  0  0  0
  6  9  2  0  0  0  0
  6 11  1  0  0  0  0
  7  9  1  0  0  0  0
  7 12  1  0  0  0  0
  8 13  1  0  0  0  0
  8 14  1  0  0  0  0
  8 15  1  0  0  0  0
  9 16  1  0  0  0  0
 10 17  1  0  0  0  0
M  END
> <PUBCHEM_COMPOUND_CID>
522777

> <PUBCHEM_CONFORMER_RMSD>
0.4

> <PUBCHEM_CONFORMER_DIVERSEORDER>
1
2

> <PUBCHEM_MMFF94_PARTIAL_CHARGES>
15
1 -0.53
10 0.42
11 0.15
12 0.15
16 0.15
17 0.06
18 0.45
2 -0.57
3 -0.14
4 0.08
5 0.09
6 -0.15
7 -0.15
8 0.14
9 -0.15

> <PUBCHEM_EFFECTIVE_ROTOR_COUNT>
1

> <PUBCHEM_PHARMACOPHORE_FEATURES>
3
1 1 donor
1 2 acceptor
6 3 4 5 6 7 9 rings

> <PUBCHEM_HEAVY_ATOM_COUNT>
10

> <PUBCHEM_ATOM_DEF_STEREO_COUNT>
0

> <PUBCHEM_ATOM_UDEF_STEREO_COUNT>
0

> <PUBCHEM_BOND_DEF_STEREO_COUNT>
0

> <PUBCHEM_BOND_UDEF_STEREO_COUNT>
0

> <PUBCHEM_ISOTOPIC_ATOM_COUNT>
0

> <PUBCHEM_COMPONENT_COUNT>
1

> <PUBCHEM_CACTVS_TAUTO_COUNT>
5

> <PUBCHEM_CONFORMER_ID>
0007FA1900000001

> <PUBCHEM_MMFF94_ENERGY>
26.7183

> <PUBCHEM_FEATURE_SELFOVERLAP>
15.223

> <PUBCHEM_SHAPE_FINGERPRINT>
16945 1 18338517555060450277
18185500 45 18411700967532509637
193761 8 17041479986478875045
20871998 184 18259703376270655086
21040471 1 18194682798310671360
23552423 10 18272930505653307300
241688 4 18339081475882189681
2748010 2 18266465299835715421
369184 2 18334017202644574992
5084963 1 18115303363037998539

> <PUBCHEM_SHAPE_MULTIPOLES>
194.06
3.15
2.09
0.6
1.18
0.16
0
-0.93
0
-0.71
0
-0.03
0.03
0

> <PUBCHEM_SHAPE_SELFOVERLAP>
407.583

> <PUBCHEM_SHAPE_VOLUME>
109.9

> <PUBCHEM_COORDINATE_TYPE>
2
5
10

$$$$

