2734819
  -OEChem-07051213013D

 16 16  0     0  0  0  0  0  0999 V2000
    0.3115   -2.7319    0.0214 Cl  0  0  0  0  0  0  0  0  0  0  0  0
    0.3231    2.7291    0.0233 Cl  0  0  0  0  0  0  0  0  0  0  0  0
    2.6656    0.0009   -1.2897 S   0  0  0  0  0  0  0  0  0  0  0  0
    2.2246   -0.0055    1.3294 N   0  0  0  0  0  0  0  0  0  0  0  0
    0.1969   -0.0010    0.0181 C   0  0  0  0  0  0  0  0  0  0  0  0
   -0.5026   -1.2076   -0.0043 C   0  0  0  0  0  0  0  0  0  0  0  0
   -0.4976    1.2085   -0.0026 C   0  0  0  0  0  0  0  0  0  0  0  0
   -1.8968   -1.2047   -0.0473 C   0  0  0  0  0  0  0  0  0  0  0  0
   -1.8918    1.2114   -0.0455 C   0  0  0  0  0  0  0  0  0  0  0  0
   -2.5914    0.0049   -0.0677 C   0  0  0  0  0  0  0  0  0  0  0  0
    1.6584   -0.0042    0.0650 C   0  0  0  0  0  0  0  0  0  0  0  0
   -2.4576   -2.1359   -0.0650 H   0  0  0  0  0  0  0  0  0  0  0  0
   -2.4487    2.1449   -0.0621 H   0  0  0  0  0  0  0  0  0  0  0  0
   -3.6770    0.0072   -0.1011 H   0  0  0  0  0  0  0  0  0  0  0  0
    1.6624   -0.0066    2.1747 H   0  0  0  0  0  0  0  0  0  0  0  0
    3.2321   -0.0056    1.4501 H   0  0  0  0  0  0  0  0  0  0  0  0
  1  6  1  0  0  0  0
  2  7  1  0  0  0  0
  3 11  2  0  0  0  0
  4 11  1  0  0  0  0
  4 15  1  0  0  0  0
  4 16  1  0  0  0  0
  5  6  2  0  0  0  0
  5  7  1  0  0  0  0
  5 11  1  0  0  0  0
  6  8  1  0  0  0  0
  7  9  2  0  0  0  0
  8 10  2  0  0  0  0
  8 12  1  0  0  0  0
  9 10  1  0  0  0  0
  9 13  1  0  0  0  0
 10 14  1  0  0  0  0
M  END
> <PUBCHEM_COMPOUND_CID>
2734819

> <PUBCHEM_CONFORMER_RMSD>
0.4

> <PUBCHEM_CONFORMER_DIVERSEORDER>
1

> <PUBCHEM_MMFF94_PARTIAL_CHARGES>
16
1 -0.18
10 -0.15
11 0.35
12 0.15
13 0.15
14 0.15
15 0.37
16 0.37
2 -0.18
3 -0.38
4 -0.8
5 0.09
6 0.18
7 0.18
8 -0.15
9 -0.15

> <PUBCHEM_EFFECTIVE_ROTOR_COUNT>
1

> <PUBCHEM_PHARMACOPHORE_FEATURES>
2
1 3 acceptor
6 5 6 7 8 9 10 rings

> <PUBCHEM_HEAVY_ATOM_COUNT>
11

> <PUBCHEM_ATOM_DEF_STEREO_COUNT>
0

> <PUBCHEM_ATOM_UDEF_STEREO_COUNT>
0

> <PUBCHEM_BOND_DEF_STEREO_COUNT>
0

> <PUBCHEM_BOND_UDEF_STEREO_COUNT>
0

> <PUBCHEM_ISOTOPIC_ATOM_COUNT>
0

> <PUBCHEM_COMPONENT_COUNT>
1

> <PUBCHEM_CACTVS_TAUTO_COUNT>
2

> <PUBCHEM_CONFORMER_ID>
0029BAE300000001

> <PUBCHEM_MMFF94_ENERGY>
32.3395

> <PUBCHEM_FEATURE_SELFOVERLAP>
10.148

> <PUBCHEM_SHAPE_FINGERPRINT>
11206711 2 18413113840327623757
12423570 1 11274293223697769935
12524768 44 17904478506792460319
15310529 11 16773799177564888765
16945 1 18410577288403281951
193761 8 17690278639465268077
20645464 45 17968107390968620082
20645476 183 17774714277716344638
21040471 1 18266180715254949737
22802520 49 18044069436712054846
23402539 116 18335145289037749428
23552423 10 18054783159390869471
23559900 14 18189044443666860702
241688 4 18264198295721498043
2748010 2 18124318194961210453
4369600 1 18410567379628939140
5084963 1 17968648333303991995
5255222 1 17974848685478729624

> <PUBCHEM_SHAPE_MULTIPOLES>
228.98
3.29
2.61
0.91
0.47
0
-0.03
0
0.52
-0.16
-0.09
0.69
0
0

> <PUBCHEM_SHAPE_SELFOVERLAP>
450.275

> <PUBCHEM_SHAPE_VOLUME>
140.4

> <PUBCHEM_COORDINATE_TYPE>
2
5
10

$$$$

