13061
  -OEChem-06261207423D

 25 26  0     0  0  0  0  0  0999 V2000
    1.1040   -2.7229    0.4515 Br  0  0  0  0  0  0  0  0  0  0  0  0
   -0.0979   -0.3830   -1.3630 C   0  0  0  0  0  0  0  0  0  0  0  0
    1.1786   -0.0464   -0.6189 C   0  0  0  0  0  0  0  0  0  0  0  0
   -1.3421   -0.0736   -0.6006 C   0  0  0  0  0  0  0  0  0  0  0  0
    1.7969   -0.9756    0.1994 C   0  0  0  0  0  0  0  0  0  0  0  0
    1.6990    1.2259   -0.7911 C   0  0  0  0  0  0  0  0  0  0  0  0
   -1.4637    1.1424    0.0720 C   0  0  0  0  0  0  0  0  0  0  0  0
   -2.3837   -1.0002   -0.5599 C   0  0  0  0  0  0  0  0  0  0  0  0
    2.9705   -0.6234    0.8660 C   0  0  0  0  0  0  0  0  0  0  0  0
    2.8726    1.5780   -0.1243 C   0  0  0  0  0  0  0  0  0  0  0  0
   -2.6269    1.4316    0.7854 C   0  0  0  0  0  0  0  0  0  0  0  0
   -3.5470   -0.7111    0.1534 C   0  0  0  0  0  0  0  0  0  0  0  0
    3.5084    0.6534    0.7042 C   0  0  0  0  0  0  0  0  0  0  0  0
   -3.6686    0.5049    0.8260 C   0  0  0  0  0  0  0  0  0  0  0  0
   -0.0816   -1.4220   -1.7117 H   0  0  0  0  0  0  0  0  0  0  0  0
   -0.1286    0.1965   -2.2975 H   0  0  0  0  0  0  0  0  0  0  0  0
    1.2233    1.9541   -1.4418 H   0  0  0  0  0  0  0  0  0  0  0  0
   -0.6910    1.9020    0.0500 H   0  0  0  0  0  0  0  0  0  0  0  0
   -2.3039   -1.9512   -1.0798 H   0  0  0  0  0  0  0  0  0  0  0  0
    3.4802   -1.3303    1.5158 H   0  0  0  0  0  0  0  0  0  0  0  0
    3.2928    2.5712   -0.2523 H   0  0  0  0  0  0  0  0  0  0  0  0
   -2.7243    2.3803    1.3050 H   0  0  0  0  0  0  0  0  0  0  0  0
   -4.3585   -1.4323    0.1847 H   0  0  0  0  0  0  0  0  0  0  0  0
    4.4224    0.9276    1.2227 H   0  0  0  0  0  0  0  0  0  0  0  0
   -4.5749    0.7306    1.3804 H   0  0  0  0  0  0  0  0  0  0  0  0
  1  5  1  0  0  0  0
  2  3  1  0  0  0  0
  2  4  1  0  0  0  0
  2 15  1  0  0  0  0
  2 16  1  0  0  0  0
  3  5  1  0  0  0  0
  3  6  2  0  0  0  0
  4  7  2  0  0  0  0
  4  8  1  0  0  0  0
  5  9  2  0  0  0  0
  6 10  1  0  0  0  0
  6 17  1  0  0  0  0
  7 11  1  0  0  0  0
  7 18  1  0  0  0  0
  8 12  2  0  0  0  0
  8 19  1  0  0  0  0
  9 13  1  0  0  0  0
  9 20  1  0  0  0  0
 10 13  2  0  0  0  0
 10 21  1  0  0  0  0
 11 14  2  0  0  0  0
 11 22  1  0  0  0  0
 12 14  1  0  0  0  0
 12 23  1  0  0  0  0
 13 24  1  0  0  0  0
 14 25  1  0  0  0  0
M  END
> <PUBCHEM_COMPOUND_CID>
13061

> <PUBCHEM_CONFORMER_RMSD>
0.6

> <PUBCHEM_CONFORMER_DIVERSEORDER>
1
2
5
7
4
3
6

> <PUBCHEM_MMFF94_PARTIAL_CHARGES>
23
1 -0.11
10 -0.15
11 -0.15
12 -0.15
13 -0.15
14 -0.15
17 0.15
18 0.15
19 0.15
2 0.29
20 0.15
21 0.15
22 0.15
23 0.15
24 0.15
25 0.15
3 -0.14
4 -0.14
5 0.11
6 -0.15
7 -0.15
8 -0.15
9 -0.15

> <PUBCHEM_EFFECTIVE_ROTOR_COUNT>
2

> <PUBCHEM_PHARMACOPHORE_FEATURES>
3
1 1 hydrophobe
6 3 5 6 9 10 13 rings
6 4 7 8 11 12 14 rings

> <PUBCHEM_HEAVY_ATOM_COUNT>
14

> <PUBCHEM_ATOM_DEF_STEREO_COUNT>
0

> <PUBCHEM_ATOM_UDEF_STEREO_COUNT>
0

> <PUBCHEM_BOND_DEF_STEREO_COUNT>
0

> <PUBCHEM_BOND_UDEF_STEREO_COUNT>
0

> <PUBCHEM_ISOTOPIC_ATOM_COUNT>
0

> <PUBCHEM_COMPONENT_COUNT>
1

> <PUBCHEM_CACTVS_TAUTO_COUNT>
1

> <PUBCHEM_CONFORMER_ID>
0000330500000001

> <PUBCHEM_MMFF94_ENERGY>
40.015

> <PUBCHEM_FEATURE_SELFOVERLAP>
15.223

> <PUBCHEM_SHAPE_FINGERPRINT>
10465860 228 18335133254117470466
11031198 65 5039954061047782524
11132069 177 18040431079795178621
11471102 22 17846786212850137536
12202030 40 16127537149390537730
12251169 10 18410011069726631765
12382932 28 18334574672256591441
12696612 119 18412823624760188508
12932764 1 18271517701857343101
13296908 3 14476960060491751901
13693222 15 17917997169728042157
13764800 53 17095513007398225441
14144814 61 18410855468855369909
14787075 74 17472420950276499095
15309172 13 18201726119822346318
15775835 57 18113899342629476488
16945 1 18342178911637829870
19050596 39 18409448076929019785
200 152 18337409157688599879
201361 129 18335699481262807546
20233049 118 17095527331024558568
20279233 1 15985109591419791489
20361792 2 15339113546274939119
20525323 117 18041002825815060277
20559304 39 18410005572094737340
20645477 70 17988379133957812615
20671657 53 10015868686643638034
21730867 7 18131070437295419854
22445834 79 18340206405105350099
2748010 2 17838354217085518342
276578 36 18335416859635362654
305870 269 18409730698551358342
549884 4 7276829069479922767
7097593 13 18194402427240828363
7364860 26 18188484812747518110

> <PUBCHEM_SHAPE_MULTIPOLES>
294.06
6.3
2.06
1.08
2.08
1.09
-0.1
-1.3
1.96
-0.91
0.28
0.02
-0.02
-0.65

> <PUBCHEM_SHAPE_SELFOVERLAP>
617.211

> <PUBCHEM_SHAPE_VOLUME>
166.3

> <PUBCHEM_COORDINATE_TYPE>
2
5
10

$$$$

