8419
  -OEChem-07051212463D

 22 22  0     0  0  0  0  0  0999 V2000
    1.5939   -1.7715   -0.4520 O   0  0  0  0  0  0  0  0  0  0  0  0
    2.3805    0.8711   -0.1041 O   0  0  0  0  0  0  0  0  0  0  0  0
   -3.9553    0.3519    0.1548 O   0  0  0  0  0  0  0  0  0  0  0  0
    0.6660   -0.7930   -0.2594 C   0  0  0  0  0  0  0  0  0  0  0  0
    1.0609    0.5334   -0.0844 C   0  0  0  0  0  0  0  0  0  0  0  0
   -1.6477   -0.1326   -0.0410 C   0  0  0  0  0  0  0  0  0  0  0  0
   -0.6884   -1.1260   -0.2377 C   0  0  0  0  0  0  0  0  0  0  0  0
    0.1017    1.5267    0.1124 C   0  0  0  0  0  0  0  0  0  0  0  0
   -1.2526    1.1936    0.1341 C   0  0  0  0  0  0  0  0  0  0  0  0
   -3.0598   -0.4799   -0.0167 C   0  0  0  0  0  0  0  0  0  0  0  0
    2.1009   -2.4223    0.7115 C   0  0  0  0  0  0  0  0  0  0  0  0
    2.7000    2.2486    0.0824 C   0  0  0  0  0  0  0  0  0  0  0  0
   -0.9880   -2.1624   -0.3755 H   0  0  0  0  0  0  0  0  0  0  0  0
    0.3348    2.5762    0.2552 H   0  0  0  0  0  0  0  0  0  0  0  0
   -1.9835    1.9832    0.2891 H   0  0  0  0  0  0  0  0  0  0  0  0
   -3.3106   -1.5446   -0.1605 H   0  0  0  0  0  0  0  0  0  0  0  0
    2.5965   -1.7026    1.3708 H   0  0  0  0  0  0  0  0  0  0  0  0
    2.8344   -3.1686    0.3944 H   0  0  0  0  0  0  0  0  0  0  0  0
    1.2939   -2.9306    1.2487 H   0  0  0  0  0  0  0  0  0  0  0  0
    2.3933    2.6035    1.0723 H   0  0  0  0  0  0  0  0  0  0  0  0
    2.2986    2.8690   -0.7262 H   0  0  0  0  0  0  0  0  0  0  0  0
    3.7906    2.3352    0.0379 H   0  0  0  0  0  0  0  0  0  0  0  0
  1  4  1  0  0  0  0
  1 11  1  0  0  0  0
  2  5  1  0  0  0  0
  2 12  1  0  0  0  0
  3 10  2  0  0  0  0
  4  5  2  0  0  0  0
  4  7  1  0  0  0  0
  5  8  1  0  0  0  0
  6  7  2  0  0  0  0
  6  9  1  0  0  0  0
  6 10  1  0  0  0  0
  7 13  1  0  0  0  0
  8  9  2  0  0  0  0
  8 14  1  0  0  0  0
  9 15  1  0  0  0  0
 10 16  1  0  0  0  0
 11 17  1  0  0  0  0
 11 18  1  0  0  0  0
 11 19  1  0  0  0  0
 12 20  1  0  0  0  0
 12 21  1  0  0  0  0
 12 22  1  0  0  0  0
M  END
> <PUBCHEM_COMPOUND_CID>
8419

> <PUBCHEM_CONFORMER_RMSD>
0.6

> <PUBCHEM_CONFORMER_DIVERSEORDER>
3
2
4
1

> <PUBCHEM_MMFF94_PARTIAL_CHARGES>
16
1 -0.36
10 0.42
11 0.28
12 0.28
13 0.15
14 0.15
15 0.15
16 0.06
2 -0.36
3 -0.57
4 0.08
5 0.08
6 0.09
7 -0.15
8 -0.15
9 -0.15

> <PUBCHEM_EFFECTIVE_ROTOR_COUNT>
3

> <PUBCHEM_PHARMACOPHORE_FEATURES>
4
1 1 acceptor
1 2 acceptor
1 3 acceptor
6 4 5 6 7 8 9 rings

> <PUBCHEM_HEAVY_ATOM_COUNT>
12

> <PUBCHEM_ATOM_DEF_STEREO_COUNT>
0

> <PUBCHEM_ATOM_UDEF_STEREO_COUNT>
0

> <PUBCHEM_BOND_DEF_STEREO_COUNT>
0

> <PUBCHEM_BOND_UDEF_STEREO_COUNT>
0

> <PUBCHEM_ISOTOPIC_ATOM_COUNT>
0

> <PUBCHEM_COMPONENT_COUNT>
1

> <PUBCHEM_CACTVS_TAUTO_COUNT>
1

> <PUBCHEM_CONFORMER_ID>
000020E300000003

> <PUBCHEM_MMFF94_ENERGY>
49.2351

> <PUBCHEM_FEATURE_SELFOVERLAP>
20.302

> <PUBCHEM_SHAPE_FINGERPRINT>
1 1 18339364059023655692
10980938 120 18334856095777967061
13380535 76 18268432343227946595
14325111 11 18264487282654336821
15219456 202 18271815661103346957
161256 15 18339920514812484620
16945 1 18411141303107873989
17841504 4 18269556220194734354
19021347 11 18339081492898333374
193761 8 18194119839830859356
20645476 183 17627217967194841308
20645477 70 18409171039176135679
20653091 64 18267019634153176490
20871998 22 18046342208677388622
21501502 16 18265048205589000713
21501925 9 18337965604713479027
21650355 55 17550406462714511530
23235685 24 18338521811468103109
23402655 69 18261684718679977917
23552423 10 18340763827256266591
2748010 2 18266182922752329453
3071541 37 18341889671423629436
449060 62 18335134267835435689
528862 383 18411705382674623834
528886 8 18264211300861605081
53812653 166 18188773825354767081
7364860 26 18334857242597655582
81228 2 17254560916114596872
81539 233 18272655597491798724

> <PUBCHEM_SHAPE_MULTIPOLES>
229.35
4.58
2.38
0.67
3.23
0.52
0.02
-0.75
0.34
-2.48
0.28
-0.1
0.12
-0.24

> <PUBCHEM_SHAPE_SELFOVERLAP>
474.175

> <PUBCHEM_SHAPE_VOLUME>
132.1

> <PUBCHEM_COORDINATE_TYPE>
2
5
10

$$$$

