17395259
  -OEChem-06241222482D

 50 52  0     0  0  0  0  0  0999 V2000
    4.3211    3.3726    0.0000 S   0  0  0  0  0  0  0  0  0  0  0  0
    4.6783    0.0683    0.0000 O   0  0  0  0  0  0  0  0  0  0  0  0
    6.7619    1.7391    0.0000 O   0  0  0  0  0  0  0  0  0  0  0  0
    9.7619   -3.4571    0.0000 O   0  0  0  0  0  0  0  0  0  0  0  0
    6.7619    0.0070    0.0000 N   0  0  0  0  0  0  0  0  0  0  0  0
    4.6783    1.6778    0.0000 C   0  0  0  0  0  0  0  0  0  0  0  0
    3.7320    1.3730    0.0000 C   0  0  0  0  0  0  0  0  0  0  0  0
    5.2619    0.8730    0.0000 C   0  0  0  0  0  0  0  0  0  0  0  0
    3.7320    0.3730    0.0000 C   0  0  0  0  0  0  0  0  0  0  0  0
    7.7619    0.0070    0.0000 C   0  0  0  0  0  0  0  0  0  0  0  0
    6.2619    0.8730    0.0000 C   0  0  0  0  0  0  0  0  0  0  0  0
    4.9889    2.6283    0.0000 C   0  0  0  0  0  0  0  0  0  0  0  0
    8.2619   -0.8590    0.0000 C   0  0  0  0  0  0  0  0  0  0  0  0
    2.8660    1.8730    0.0000 C   0  0  0  0  0  0  0  0  0  0  0  0
    2.8660   -0.1270    0.0000 C   0  0  0  0  0  0  0  0  0  0  0  0
    6.2619   -0.8590    0.0000 C   0  0  0  0  0  0  0  0  0  0  0  0
    2.0000    1.3730    0.0000 C   0  0  0  0  0  0  0  0  0  0  0  0
    2.0000    0.3730    0.0000 C   0  0  0  0  0  0  0  0  0  0  0  0
    7.7619   -1.7250    0.0000 C   0  0  0  0  0  0  0  0  0  0  0  0
    9.2619   -0.8590    0.0000 C   0  0  0  0  0  0  0  0  0  0  0  0
    8.2619   -2.5911    0.0000 C   0  0  0  0  0  0  0  0  0  0  0  0
    9.7619   -1.7250    0.0000 C   0  0  0  0  0  0  0  0  0  0  0  0
    9.2619   -2.5911    0.0000 C   0  0  0  0  0  0  0  0  0  0  0  0
    4.6318    4.3231    0.0000 C   0  0  0  0  0  0  0  0  0  0  0  0
   10.7619   -3.4571    0.0000 C   0  0  0  0  0  0  0  0  0  0  0  0
   11.2619   -4.3231    0.0000 C   0  0  0  0  0  0  0  0  0  0  0  0
   12.2619   -4.3231    0.0000 C   0  0  0  0  0  0  0  0  0  0  0  0
    8.3445    0.2191    0.0000 H   0  0  0  0  0  0  0  0  0  0  0  0
    7.6542    0.6176    0.0000 H   0  0  0  0  0  0  0  0  0  0  0  0
    5.5359    2.3363    0.0000 H   0  0  0  0  0  0  0  0  0  0  0  0
    5.3715    3.1162    0.0000 H   0  0  0  0  0  0  0  0  0  0  0  0
    2.8660    2.4930    0.0000 H   0  0  0  0  0  0  0  0  0  0  0  0
    2.8660   -0.7470    0.0000 H   0  0  0  0  0  0  0  0  0  0  0  0
    5.7249   -0.5490    0.0000 H   0  0  0  0  0  0  0  0  0  0  0  0
    5.9519   -1.3960    0.0000 H   0  0  0  0  0  0  0  0  0  0  0  0
    6.7988   -1.1690    0.0000 H   0  0  0  0  0  0  0  0  0  0  0  0
    1.4631    1.6830    0.0000 H   0  0  0  0  0  0  0  0  0  0  0  0
    1.4631    0.0630    0.0000 H   0  0  0  0  0  0  0  0  0  0  0  0
    7.1419   -1.7250    0.0000 H   0  0  0  0  0  0  0  0  0  0  0  0
    9.5719   -0.3221    0.0000 H   0  0  0  0  0  0  0  0  0  0  0  0
    7.9519   -3.1280    0.0000 H   0  0  0  0  0  0  0  0  0  0  0  0
   10.3819   -1.7250    0.0000 H   0  0  0  0  0  0  0  0  0  0  0  0
    5.2211    4.1305    0.0000 H   0  0  0  0  0  0  0  0  0  0  0  0
    4.8244    4.9124    0.0000 H   0  0  0  0  0  0  0  0  0  0  0  0
    4.0424    4.5157    0.0000 H   0  0  0  0  0  0  0  0  0  0  0  0
   11.3445   -3.2450    0.0000 H   0  0  0  0  0  0  0  0  0  0  0  0
   10.6542   -2.8465    0.0000 H   0  0  0  0  0  0  0  0  0  0  0  0
   10.9519   -4.8600    0.0000 H   0  0  0  0  0  0  0  0  0  0  0  0
   12.5719   -4.8600    0.0000 H   0  0  0  0  0  0  0  0  0  0  0  0
   12.5719   -3.7862    0.0000 H   0  0  0  0  0  0  0  0  0  0  0  0
  1 12  1  0  0  0  0
  1 24  1  0  0  0  0
  2  8  1  0  0  0  0
  2  9  1  0  0  0  0
  3 11  2  0  0  0  0
  4 23  1  0  0  0  0
  4 25  1  0  0  0  0
  5 10  1  0  0  0  0
  5 11  1  0  0  0  0
  5 16  1  0  0  0  0
  6  7  1  0  0  0  0
  6  8  2  0  0  0  0
  6 12  1  0  0  0  0
  7  9  1  0  0  0  0
  7 14  2  0  0  0  0
  8 11  1  0  0  0  0
  9 15  2  0  0  0  0
 10 13  1  0  0  0  0
 10 28  1  0  0  0  0
 10 29  1  0  0  0  0
 12 30  1  0  0  0  0
 12 31  1  0  0  0  0
 13 19  2  0  0  0  0
 13 20  1  0  0  0  0
 14 17  1  0  0  0  0
 14 32  1  0  0  0  0
 15 18  1  0  0  0  0
 15 33  1  0  0  0  0
 16 34  1  0  0  0  0
 16 35  1  0  0  0  0
 16 36  1  0  0  0  0
 17 18  2  0  0  0  0
 17 37  1  0  0  0  0
 18 38  1  0  0  0  0
 19 21  1  0  0  0  0
 19 39  1  0  0  0  0
 20 22  2  0  0  0  0
 20 40  1  0  0  0  0
 21 23  2  0  0  0  0
 21 41  1  0  0  0  0
 22 23  1  0  0  0  0
 22 42  1  0  0  0  0
 24 43  1  0  0  0  0
 24 44  1  0  0  0  0
 24 45  1  0  0  0  0
 25 26  1  0  0  0  0
 25 46  1  0  0  0  0
 25 47  1  0  0  0  0
 26 27  2  0  0  0  0
 26 48  1  0  0  0  0
 27 49  1  0  0  0  0
 27 50  1  0  0  0  0
M  END
> <PUBCHEM_COMPOUND_CID>
17395259

> <PUBCHEM_COMPOUND_CANONICALIZED>
1

> <PUBCHEM_CACTVS_COMPLEXITY>
492

> <PUBCHEM_CACTVS_HBOND_ACCEPTOR>
4

> <PUBCHEM_CACTVS_HBOND_DONOR>
0

> <PUBCHEM_CACTVS_ROTATABLE_BOND>
8

> <PUBCHEM_CACTVS_SUBSKEYS>
AAADceB6MABAAAAAAAAAAAAAAAAAASAAAAAwYAAAAAAAAEgB9AAAHgQAAAAADATl2AayBsMABEiIAqFSEAKCCAAkIBAIiAHODMgOJjKktT+HOSjkxhGYqYeY3+LuoAAAAAAIAABAAAAAABAAAAAAAAAAAA==

> <PUBCHEM_IUPAC_OPENEYE_NAME>
N-[(4-allyloxyphenyl)methyl]-N-methyl-3-(methylsulfanylmethyl)benzofuran-2-carboxamide

> <PUBCHEM_IUPAC_CAS_NAME>
N-methyl-3-[(methylthio)methyl]-N-[(4-prop-2-enoxyphenyl)methyl]-2-benzofurancarboxamide

> <PUBCHEM_IUPAC_NAME>
N-methyl-3-(methylsulfanylmethyl)-N-[(4-prop-2-enoxyphenyl)methyl]-1-benzofuran-2-carboxamide

> <PUBCHEM_IUPAC_SYSTEMATIC_NAME>
N-methyl-3-(methylsulfanylmethyl)-N-[(4-prop-2-enoxyphenyl)methyl]-1-benzofuran-2-carboxamide

> <PUBCHEM_IUPAC_TRADITIONAL_NAME>
N-(4-allyloxybenzyl)-N-methyl-3-[(methylthio)methyl]coumarilamide

> <PUBCHEM_IUPAC_INCHI>
InChI=1S/C22H23NO3S/c1-4-13-25-17-11-9-16(10-12-17)14-23(2)22(24)21-19(15-27-3)18-7-5-6-8-20(18)26-21/h4-12H,1,13-15H2,2-3H3

> <PUBCHEM_IUPAC_INCHIKEY>
CJWQJXLKTKNENV-UHFFFAOYSA-N

> <PUBCHEM_XLOGP3_AA>
4.7

> <PUBCHEM_EXACT_MASS>
381.139865

> <PUBCHEM_MOLECULAR_FORMULA>
C22H23NO3S

> <PUBCHEM_MOLECULAR_WEIGHT>
381.48792

> <PUBCHEM_OPENEYE_CAN_SMILES>
CN(CC1=CC=C(C=C1)OCC=C)C(=O)C2=C(C3=CC=CC=C3O2)CSC

> <PUBCHEM_OPENEYE_ISO_SMILES>
CN(CC1=CC=C(C=C1)OCC=C)C(=O)C2=C(C3=CC=CC=C3O2)CSC

> <PUBCHEM_CACTVS_TPSA>
68

> <PUBCHEM_MONOISOTOPIC_WEIGHT>
381.139865

> <PUBCHEM_TOTAL_CHARGE>
0

> <PUBCHEM_HEAVY_ATOM_COUNT>
27

> <PUBCHEM_ATOM_DEF_STEREO_COUNT>
0

> <PUBCHEM_ATOM_UDEF_STEREO_COUNT>
0

> <PUBCHEM_BOND_DEF_STEREO_COUNT>
0

> <PUBCHEM_BOND_UDEF_STEREO_COUNT>
0

> <PUBCHEM_ISOTOPIC_ATOM_COUNT>
0

> <PUBCHEM_COMPONENT_COUNT>
1

> <PUBCHEM_CACTVS_TAUTO_COUNT>
1

> <PUBCHEM_COORDINATE_TYPE>
1
5
255

> <PUBCHEM_BONDANNOTATIONS>
13  19  8
13  20  8
14  17  8
15  18  8
17  18  8
19  21  8
2  8  8
2  9  8
20  22  8
21  23  8
22  23  8
6  7  8
6  8  8
7  14  8
7  9  8
9  15  8

$$$$

