4195
  -OEChem-06251223573D

 36 36  0     1  0  0  0  0  0999 V2000
    0.4999    0.6269    1.9851 O   0  0  0  0  0  0  0  0  0  0  0  0
   -0.7112   -2.5355    0.2463 O   0  0  0  0  0  0  0  0  0  0  0  0
   -3.8818    1.9223   -0.4409 O   0  0  0  0  0  0  0  0  0  0  0  0
    3.5067   -0.7490   -0.9943 O   0  0  0  0  0  0  0  0  0  0  0  0
    2.6092    1.0875    0.1083 N   0  0  0  0  0  0  0  0  0  0  0  0
    6.0350    0.2337   -0.5674 N   0  0  0  0  0  0  0  0  0  0  0  0
    0.4700    0.0278    0.6895 C   0  0  1  0  0  0  0  0  0  0  0  0
   -0.9730   -0.1533    0.2791 C   0  0  0  0  0  0  0  0  0  0  0  0
    1.2354    0.9042   -0.3022 C   0  0  0  0  0  0  0  0  0  0  0  0
   -1.4842   -1.4258    0.0803 C   0  0  0  0  0  0  0  0  0  0  0  0
   -1.7612    0.9741    0.1084 C   0  0  0  0  0  0  0  0  0  0  0  0
   -3.0952    0.8246   -0.2711 C   0  0  0  0  0  0  0  0  0  0  0  0
   -2.8181   -1.5752   -0.2991 C   0  0  0  0  0  0  0  0  0  0  0  0
   -3.6237   -0.4501   -0.4749 C   0  0  0  0  0  0  0  0  0  0  0  0
    3.6377    0.2390   -0.2751 C   0  0  0  0  0  0  0  0  0  0  0  0
    4.9651    0.6523    0.3268 C   0  0  0  0  0  0  0  0  0  0  0  0
   -1.3076   -3.7971    0.0244 C   0  0  0  0  0  0  0  0  0  0  0  0
   -3.3029    3.1935   -0.2232 C   0  0  0  0  0  0  0  0  0  0  0  0
    0.9815   -0.9362    0.7846 H   0  0  0  0  0  0  0  0  0  0  0  0
    0.8189    1.9148   -0.3627 H   0  0  0  0  0  0  0  0  0  0  0  0
    1.2149    0.4645   -1.3060 H   0  0  0  0  0  0  0  0  0  0  0  0
   -1.3174    1.9448    0.2961 H   0  0  0  0  0  0  0  0  0  0  0  0
    2.8144    1.8711    0.7214 H   0  0  0  0  0  0  0  0  0  0  0  0
   -3.2933   -2.5343   -0.4741 H   0  0  0  0  0  0  0  0  0  0  0  0
   -4.6624   -0.5717   -0.7703 H   0  0  0  0  0  0  0  0  0  0  0  0
    1.4335    0.7495    2.2281 H   0  0  0  0  0  0  0  0  0  0  0  0
    5.0734    0.1709    1.3034 H   0  0  0  0  0  0  0  0  0  0  0  0
    5.0110    1.7367    0.4659 H   0  0  0  0  0  0  0  0  0  0  0  0
   -1.6326   -3.9163   -1.0151 H   0  0  0  0  0  0  0  0  0  0  0  0
   -2.1201   -3.9933    0.7326 H   0  0  0  0  0  0  0  0  0  0  0  0
   -0.5413   -4.5584    0.2046 H   0  0  0  0  0  0  0  0  0  0  0  0
   -2.9838    3.3209    0.8169 H   0  0  0  0  0  0  0  0  0  0  0  0
   -4.0776    3.9442   -0.4113 H   0  0  0  0  0  0  0  0  0  0  0  0
   -2.4884    3.3949   -0.9277 H   0  0  0  0  0  0  0  0  0  0  0  0
    5.9086    0.6616   -1.4837 H   0  0  0  0  0  0  0  0  0  0  0  0
    5.9935   -0.7746   -0.7104 H   0  0  0  0  0  0  0  0  0  0  0  0
  1  7  1  0  0  0  0
  1 26  1  0  0  0  0
  2 10  1  0  0  0  0
  2 17  1  0  0  0  0
  3 12  1  0  0  0  0
  3 18  1  0  0  0  0
  4 15  2  0  0  0  0
  5  9  1  0  0  0  0
  5 15  1  0  0  0  0
  5 23  1  0  0  0  0
  6 16  1  0  0  0  0
  6 35  1  0  0  0  0
  6 36  1  0  0  0  0
  7  8  1  0  0  0  0
  7  9  1  0  0  0  0
  7 19  1  0  0  0  0
  8 10  2  0  0  0  0
  8 11  1  0  0  0  0
  9 20  1  0  0  0  0
  9 21  1  0  0  0  0
 10 13  1  0  0  0  0
 11 12  2  0  0  0  0
 11 22  1  0  0  0  0
 12 14  1  0  0  0  0
 13 14  2  0  0  0  0
 13 24  1  0  0  0  0
 14 25  1  0  0  0  0
 15 16  1  0  0  0  0
 16 27  1  0  0  0  0
 16 28  1  0  0  0  0
 17 29  1  0  0  0  0
 17 30  1  0  0  0  0
 17 31  1  0  0  0  0
 18 32  1  0  0  0  0
 18 33  1  0  0  0  0
 18 34  1  0  0  0  0
M  END
> <PUBCHEM_COMPOUND_CID>
4195

> <PUBCHEM_CONFORMER_RMSD>
0.8

> <PUBCHEM_CONFORMER_DIVERSEORDER>
1
14
42
44
52
27
36
32
43
3
51
24
17
18
23
6
30
4
29
48
46
2
40
15
22
38
45
41
35
47
13
20
7
53
50
11
34
5
26
31
49
8
37
25
9
19
33
16
39
28
10
12
21

> <PUBCHEM_MMFF94_PARTIAL_CHARGES>
25
1 -0.68
10 0.08
11 -0.15
12 0.08
13 -0.15
14 -0.15
15 0.57
16 0.33
17 0.28
18 0.28
2 -0.36
22 0.15
23 0.37
24 0.15
25 0.15
26 0.4
3 -0.36
35 0.36
36 0.36
4 -0.57
5 -0.73
6 -0.99
7 0.42
8 -0.14
9 0.3

> <PUBCHEM_EFFECTIVE_ROTOR_COUNT>
7

> <PUBCHEM_PHARMACOPHORE_FEATURES>
9
1 1 acceptor
1 1 donor
1 2 acceptor
1 3 acceptor
1 4 acceptor
1 5 donor
1 6 cation
1 6 donor
6 8 10 11 12 13 14 rings

> <PUBCHEM_HEAVY_ATOM_COUNT>
18

> <PUBCHEM_ATOM_DEF_STEREO_COUNT>
0

> <PUBCHEM_ATOM_UDEF_STEREO_COUNT>
1

> <PUBCHEM_BOND_DEF_STEREO_COUNT>
0

> <PUBCHEM_BOND_UDEF_STEREO_COUNT>
0

> <PUBCHEM_ISOTOPIC_ATOM_COUNT>
0

> <PUBCHEM_COMPONENT_COUNT>
1

> <PUBCHEM_CACTVS_TAUTO_COUNT>
2

> <PUBCHEM_CONFORMER_ID>
0000106300000001

> <PUBCHEM_MMFF94_ENERGY>
55.7736

> <PUBCHEM_FEATURE_SELFOVERLAP>
45.672

> <PUBCHEM_SHAPE_FINGERPRINT>
10726558 24 18338517559703382317
11370993 70 18408605872592165814
12173636 292 18411707599152016581
12500047 106 18409451379948735244
14251751 93 18412546526566129415
14508225 48 18048048367751409735
15042514 8 18197492918720659763
15375358 24 18259704489194594846
167882 2 18052823834086517655
16945 1 18194984967120179435
17870717 6 18261376837716745822
18186145 218 18187919629331708560
19489759 90 18261115171118667272
200 152 16081084896567802864
20510252 161 18335140860968970449
20645476 183 18343589537964866747
20645477 56 18410853265421427345
20645477 70 17095514137280560374
20871999 31 18407764724410811589
21524375 3 18131353042096650601
23175994 123 17313378998463736144
23402539 116 18408329877745889501
23557571 272 18334289847458922388
23559900 14 18186521038468399074
23598291 2 17773617055142354218
298252 57 18272651285397452857
3071541 12 17761775470120703511
4214541 1 18410856551503886516
5283173 99 18335142003457021672
559249 180 18341899627817451386
573450 72 18271821111569521218
81228 2 17903373511135253147
9709674 26 18261386707483253958

> <PUBCHEM_SHAPE_MULTIPOLES>
336.99
9.25
3.1
0.9
14.86
1.77
-0.29
-3.69
2.26
-4.33
0.13
0.3
-0.09
0.36

> <PUBCHEM_SHAPE_SELFOVERLAP>
686.938

> <PUBCHEM_SHAPE_VOLUME>
195.2

> <PUBCHEM_COORDINATE_TYPE>
2
5
10

$$$$

