582730
  -OEChem-06241222433D

 42 44  0     1  0  0  0  0  0999 V2000
    4.0330   -0.5845   -0.4847 O   0  0  0  0  0  0  0  0  0  0  0  0
   -1.8584    4.4631    0.0735 O   0  0  0  0  0  0  0  0  0  0  0  0
   -0.6320    3.6813    1.8141 O   0  0  0  0  0  0  0  0  0  0  0  0
    0.6901    1.4155   -1.9307 O   0  0  0  0  0  0  0  0  0  0  0  0
    0.0081    1.4580    0.2810 N   0  0  0  0  0  0  0  0  0  0  0  0
   -3.0303   -1.6855   -1.5082 N   0  0  0  0  0  0  0  0  0  0  0  0
   -2.4435    1.2847    0.5332 C   0  0  0  0  0  0  0  0  0  0  0  0
   -2.5159   -0.0467   -0.1022 C   0  0  0  0  0  0  0  0  0  0  0  0
   -1.2746    2.1564    0.0273 C   0  0  1  0  0  0  0  0  0  0  0  0
   -1.8844   -1.2379    0.3528 C   0  0  0  0  0  0  0  0  0  0  0  0
   -2.2233   -2.2508   -0.5468 C   0  0  0  0  0  0  0  0  0  0  0  0
   -3.2128   -0.3537   -1.2480 C   0  0  0  0  0  0  0  0  0  0  0  0
   -1.0544   -1.5525    1.4472 C   0  0  0  0  0  0  0  0  0  0  0  0
   -1.2043    3.4824    0.7506 C   0  0  0  0  0  0  0  0  0  0  0  0
   -1.7719   -3.5679   -0.4062 C   0  0  0  0  0  0  0  0  0  0  0  0
    0.8632    1.1595   -0.7419 C   0  0  0  0  0  0  0  0  0  0  0  0
    2.0921    0.4351   -0.3270 C   0  0  0  0  0  0  0  0  0  0  0  0
   -0.5952   -2.8657    1.6004 C   0  0  0  0  0  0  0  0  0  0  0  0
   -0.9497   -3.8563    0.6868 C   0  0  0  0  0  0  0  0  0  0  0  0
    3.0559    0.0503   -1.1837 C   0  0  0  0  0  0  0  0  0  0  0  0
    2.4312    0.0517    0.9579 C   0  0  0  0  0  0  0  0  0  0  0  0
    3.6453   -0.5793    0.8177 C   0  0  0  0  0  0  0  0  0  0  0  0
    3.2701    0.1620   -2.6349 C   0  0  0  0  0  0  0  0  0  0  0  0
    4.5617   -1.2194    1.7717 C   0  0  0  0  0  0  0  0  0  0  0  0
   -3.3846    1.8253    0.3647 H   0  0  0  0  0  0  0  0  0  0  0  0
   -2.3701    1.1691    1.6231 H   0  0  0  0  0  0  0  0  0  0  0  0
   -1.3694    2.3414   -1.0488 H   0  0  0  0  0  0  0  0  0  0  0  0
   -3.8217    0.2543   -1.9027 H   0  0  0  0  0  0  0  0  0  0  0  0
    0.2345    1.2482    1.2468 H   0  0  0  0  0  0  0  0  0  0  0  0
   -3.4297   -2.1824   -2.2924 H   0  0  0  0  0  0  0  0  0  0  0  0
   -0.7720   -0.7959    2.1735 H   0  0  0  0  0  0  0  0  0  0  0  0
   -2.0472   -4.3397   -1.1169 H   0  0  0  0  0  0  0  0  0  0  0  0
    0.0450   -3.1141    2.4428 H   0  0  0  0  0  0  0  0  0  0  0  0
   -0.5817   -4.8697    0.8250 H   0  0  0  0  0  0  0  0  0  0  0  0
    1.9070    0.1877    1.8926 H   0  0  0  0  0  0  0  0  0  0  0  0
    4.2197   -0.2930   -2.9348 H   0  0  0  0  0  0  0  0  0  0  0  0
    2.4702   -0.3448   -3.1837 H   0  0  0  0  0  0  0  0  0  0  0  0
    3.2922    1.2119   -2.9430 H   0  0  0  0  0  0  0  0  0  0  0  0
    4.7098   -2.2729    1.5147 H   0  0  0  0  0  0  0  0  0  0  0  0
    5.5364   -0.7220    1.7614 H   0  0  0  0  0  0  0  0  0  0  0  0
    4.1673   -1.1717    2.7914 H   0  0  0  0  0  0  0  0  0  0  0  0
   -1.8112    5.3239    0.5415 H   0  0  0  0  0  0  0  0  0  0  0  0
  1 20  1  0  0  0  0
  1 22  1  0  0  0  0
  2 14  1  0  0  0  0
  2 42  1  0  0  0  0
  3 14  2  0  0  0  0
  4 16  2  0  0  0  0
  5  9  1  0  0  0  0
  5 16  1  0  0  0  0
  5 29  1  0  0  0  0
  6 11  1  0  0  0  0
  6 12  1  0  0  0  0
  6 30  1  0  0  0  0
  7  8  1  0  0  0  0
  7  9  1  0  0  0  0
  7 25  1  0  0  0  0
  7 26  1  0  0  0  0
  8 10  1  0  0  0  0
  8 12  2  0  0  0  0
  9 14  1  0  0  0  0
  9 27  1  0  0  0  0
 10 11  1  0  0  0  0
 10 13  2  0  0  0  0
 11 15  2  0  0  0  0
 12 28  1  0  0  0  0
 13 18  1  0  0  0  0
 13 31  1  0  0  0  0
 15 19  1  0  0  0  0
 15 32  1  0  0  0  0
 16 17  1  0  0  0  0
 17 20  2  0  0  0  0
 17 21  1  0  0  0  0
 18 19  2  0  0  0  0
 18 33  1  0  0  0  0
 19 34  1  0  0  0  0
 20 23  1  0  0  0  0
 21 22  2  0  0  0  0
 21 35  1  0  0  0  0
 22 24  1  0  0  0  0
 23 36  1  0  0  0  0
 23 37  1  0  0  0  0
 23 38  1  0  0  0  0
 24 39  1  0  0  0  0
 24 40  1  0  0  0  0
 24 41  1  0  0  0  0
M  END
> <PUBCHEM_COMPOUND_CID>
582730

> <PUBCHEM_CONFORMER_RMSD>
0.8

> <PUBCHEM_CONFORMER_DIVERSEORDER>
3
154
123
60
14
78
77
39
6
45
117
44
175
184
50
57
92
134
181
167
51
178
35
38
95
61
5
85
26
128
113
176
27
137
110
10
122
20
119
118
79
31
47
91
146
19
140
73
116
170
144
75
127
63
2
89
42
133
16
189
80
108
147
173
15
156
24
177
36
74
70
12
151
86
166
112
21
96
162
58
107
157
65
87
159
131
30
153
23
83
149
34
109
103
52
187
1
11
68
161
43
143
135
145
188
94
121
171
41
163
105
76
88
46
66
172
49
29
185
56
54
126
115
90
22
55
53
9
25
64
155
183
8
82
168
40
28
59
182
180
141
98
152
129
84
101
136
67
132
100
142
69
165
186
97
4
32
62
130
169
179
174
7
125
164
48
106
81
13
124
18
71
120
139
99
104
102
148
37
114
72
111
160
17
158
93
138
33
150

> <PUBCHEM_MMFF94_PARTIAL_CHARGES>
32
1 -0.28
11 -0.15
12 -0.3
13 -0.15
14 0.66
15 -0.15
16 0.72
17 -0.09
18 -0.15
19 -0.15
2 -0.65
20 -0.04
21 -0.15
22 -0.04
23 0.18
24 0.18
28 0.15
29 0.37
3 -0.57
30 0.27
31 0.15
32 0.15
33 0.15
34 0.15
35 0.15
4 -0.57
42 0.5
5 -0.73
6 0.03
7 0.18
8 -0.18
9 0.36

> <PUBCHEM_EFFECTIVE_ROTOR_COUNT>
6

> <PUBCHEM_PHARMACOPHORE_FEATURES>
11
1 1 acceptor
1 2 acceptor
1 3 acceptor
1 4 acceptor
1 5 donor
1 6 cation
1 6 donor
3 2 3 14 anion
5 1 17 20 21 22 rings
5 6 8 10 11 12 rings
6 10 11 13 15 18 19 rings

> <PUBCHEM_HEAVY_ATOM_COUNT>
24

> <PUBCHEM_ATOM_DEF_STEREO_COUNT>
0

> <PUBCHEM_ATOM_UDEF_STEREO_COUNT>
1

> <PUBCHEM_BOND_DEF_STEREO_COUNT>
0

> <PUBCHEM_BOND_UDEF_STEREO_COUNT>
0

> <PUBCHEM_ISOTOPIC_ATOM_COUNT>
0

> <PUBCHEM_COMPONENT_COUNT>
1

> <PUBCHEM_CACTVS_TAUTO_COUNT>
2

> <PUBCHEM_CONFORMER_ID>
0008E44A00000003

> <PUBCHEM_MMFF94_ENERGY>
35.6141

> <PUBCHEM_FEATURE_SELFOVERLAP>
55.968

> <PUBCHEM_SHAPE_FINGERPRINT>
107951 10 17404811241450204959
114674 6 16613348248883129842
11578080 2 17843151158421001404
11582403 64 16018385366089548328
12156800 1 13056083560918316970
12160290 23 18263627619127725073
12363563 72 18189053096955258766
12422481 6 17120871293167567466
12553582 1 18337378336533823910
12788726 201 18410002247784976772
13140716 1 18341048493525846162
13149001 5 18124048827576694959
13681431 1 17829036615927678377
14081887 123 18338529534373170360
14787075 74 17259886439655544780
16120349 306 17841171135964064834
16752209 62 18341051925225807781
20600515 1 18055100712203688224
20775438 99 16896836478719165543
20832881 197 18338807693856706631
23419403 2 17188748127147427156
23559900 14 17476096635039403001
23728640 28 18339920514759860747
35225 105 17680954647665079152
5262128 65 17974003942826681595
6287921 2 16387078179213264347
81228 2 18188478155521880897

> <PUBCHEM_SHAPE_MULTIPOLES>
460.47
6.26
4.87
1.88
6.54
2.61
-0.56
-2.96
-0.94
-4.37
2.12
1.29
-0.06
-1.19

> <PUBCHEM_SHAPE_SELFOVERLAP>
1004.065

> <PUBCHEM_SHAPE_VOLUME>
251.7

> <PUBCHEM_COORDINATE_TYPE>
2
5
10

$$$$

