5316511
  -OEChem-07051213112D

 31 33  0     0  0  0  0  0  0999 V2000
    7.7331    1.6581    0.0000 O   0  0  0  0  0  0  0  0  0  0  0  0
    6.0010    1.6581    0.0000 O   0  0  0  0  0  0  0  0  0  0  0  0
    9.4815   -1.3765    0.0000 O   0  0  0  0  0  0  0  0  0  0  0  0
   11.2632    1.6822    0.0000 O   0  0  0  0  0  0  0  0  0  0  0  0
    7.7331   -1.3419    0.0000 O   0  0  0  0  0  0  0  0  0  0  0  0
    2.5369   -0.3419    0.0000 O   0  0  0  0  0  0  0  0  0  0  0  0
    8.5991    0.1581    0.0000 C   0  0  0  0  0  0  0  0  0  0  0  0
    8.5991    1.1581    0.0000 C   0  0  0  0  0  0  0  0  0  0  0  0
    9.4931   -0.3766    0.0000 C   0  0  0  0  0  0  0  0  0  0  0  0
    7.7331   -0.3419    0.0000 C   0  0  0  0  0  0  0  0  0  0  0  0
    9.4931    1.6927    0.0000 C   0  0  0  0  0  0  0  0  0  0  0  0
    6.8671    1.1581    0.0000 C   0  0  0  0  0  0  0  0  0  0  0  0
    6.8671    0.1581    0.0000 C   0  0  0  0  0  0  0  0  0  0  0  0
   10.3991    1.1789    0.0000 C   0  0  0  0  0  0  0  0  0  0  0  0
   10.3991    0.1372    0.0000 C   0  0  0  0  0  0  0  0  0  0  0  0
    5.1350    1.1581    0.0000 C   0  0  0  0  0  0  0  0  0  0  0  0
    4.2690    1.6581    0.0000 C   0  0  0  0  0  0  0  0  0  0  0  0
    5.1350    0.1581    0.0000 C   0  0  0  0  0  0  0  0  0  0  0  0
    3.4030    1.1581    0.0000 C   0  0  0  0  0  0  0  0  0  0  0  0
    4.2690   -0.3419    0.0000 C   0  0  0  0  0  0  0  0  0  0  0  0
    3.4030    0.1581    0.0000 C   0  0  0  0  0  0  0  0  0  0  0  0
    9.4859    2.3127    0.0000 H   0  0  0  0  0  0  0  0  0  0  0  0
    6.3301   -0.1519    0.0000 H   0  0  0  0  0  0  0  0  0  0  0  0
   10.9349   -0.1748    0.0000 H   0  0  0  0  0  0  0  0  0  0  0  0
    4.2690    2.2781    0.0000 H   0  0  0  0  0  0  0  0  0  0  0  0
    5.6720   -0.1519    0.0000 H   0  0  0  0  0  0  0  0  0  0  0  0
    2.8660    1.4681    0.0000 H   0  0  0  0  0  0  0  0  0  0  0  0
    4.2690   -0.9619    0.0000 H   0  0  0  0  0  0  0  0  0  0  0  0
   10.0148   -1.6927    0.0000 H   0  0  0  0  0  0  0  0  0  0  0  0
   11.8013    1.3743    0.0000 H   0  0  0  0  0  0  0  0  0  0  0  0
    2.0000   -0.0319    0.0000 H   0  0  0  0  0  0  0  0  0  0  0  0
  1  8  1  0  0  0  0
  1 12  1  0  0  0  0
  2 12  1  0  0  0  0
  2 16  1  0  0  0  0
  3  9  1  0  0  0  0
  3 29  1  0  0  0  0
  4 14  1  0  0  0  0
  4 30  1  0  0  0  0
  5 10  2  0  0  0  0
  6 21  1  0  0  0  0
  6 31  1  0  0  0  0
  7  8  1  0  0  0  0
  7  9  2  0  0  0  0
  7 10  1  0  0  0  0
  8 11  2  0  0  0  0
  9 15  1  0  0  0  0
 10 13  1  0  0  0  0
 11 14  1  0  0  0  0
 11 22  1  0  0  0  0
 12 13  2  0  0  0  0
 13 23  1  0  0  0  0
 14 15  2  0  0  0  0
 15 24  1  0  0  0  0
 16 17  2  0  0  0  0
 16 18  1  0  0  0  0
 17 19  1  0  0  0  0
 17 25  1  0  0  0  0
 18 20  2  0  0  0  0
 18 26  1  0  0  0  0
 19 21  2  0  0  0  0
 19 27  1  0  0  0  0
 20 21  1  0  0  0  0
 20 28  1  0  0  0  0
M  END
> <PUBCHEM_COMPOUND_CID>
5316511

> <PUBCHEM_COMPOUND_CANONICALIZED>
1

> <PUBCHEM_CACTVS_COMPLEXITY>
426

> <PUBCHEM_CACTVS_HBOND_ACCEPTOR>
6

> <PUBCHEM_CACTVS_HBOND_DONOR>
3

> <PUBCHEM_CACTVS_ROTATABLE_BOND>
2

> <PUBCHEM_CACTVS_SUBSKEYS>
AAADccBwOAAAAAAAAAAAAAAAAAAAAAAAAAAwYIAAAAAAAACBQAAAGgAACAAADASAmAAwDoAABgCIAqBSAAACCAAkIAAIiAEGCMgcJzaGNRqgcWAl4BUMuQfI7KzOIQAACAAIAABCAAAQABAAAAAAAAAAAA==

> <PUBCHEM_IUPAC_OPENEYE_NAME>
5,7-dihydroxy-2-(4-hydroxyphenoxy)chromen-4-one

> <PUBCHEM_IUPAC_CAS_NAME>
5,7-dihydroxy-2-(4-hydroxyphenoxy)-1-benzopyran-4-one

> <PUBCHEM_IUPAC_NAME>
5,7-dihydroxy-2-(4-hydroxyphenoxy)chromen-4-one

> <PUBCHEM_IUPAC_SYSTEMATIC_NAME>
5,7-bis(oxidanyl)-2-(4-oxidanylphenoxy)chromen-4-one

> <PUBCHEM_IUPAC_TRADITIONAL_NAME>
5,7-dihydroxy-2-(4-hydroxyphenoxy)chromone

> <PUBCHEM_IUPAC_INCHI>
InChI=1S/C15H10O6/c16-8-1-3-10(4-2-8)20-14-7-12(19)15-11(18)5-9(17)6-13(15)21-14/h1-7,16-18H

> <PUBCHEM_IUPAC_INCHIKEY>
UBSCDKPKWHYZNX-UHFFFAOYSA-N

> <PUBCHEM_XLOGP3>
1.8

> <PUBCHEM_EXACT_MASS>
286.047738

> <PUBCHEM_MOLECULAR_FORMULA>
C15H10O6

> <PUBCHEM_MOLECULAR_WEIGHT>
286.2363

> <PUBCHEM_OPENEYE_CAN_SMILES>
C1=CC(=CC=C1O)OC2=CC(=O)C3=C(C=C(C=C3O2)O)O

> <PUBCHEM_OPENEYE_ISO_SMILES>
C1=CC(=CC=C1O)OC2=CC(=O)C3=C(C=C(C=C3O2)O)O

> <PUBCHEM_CACTVS_TPSA>
96.2

> <PUBCHEM_MONOISOTOPIC_WEIGHT>
286.047738

> <PUBCHEM_TOTAL_CHARGE>
0

> <PUBCHEM_HEAVY_ATOM_COUNT>
21

> <PUBCHEM_ATOM_DEF_STEREO_COUNT>
0

> <PUBCHEM_ATOM_UDEF_STEREO_COUNT>
0

> <PUBCHEM_BOND_DEF_STEREO_COUNT>
0

> <PUBCHEM_BOND_UDEF_STEREO_COUNT>
0

> <PUBCHEM_ISOTOPIC_ATOM_COUNT>
0

> <PUBCHEM_COMPONENT_COUNT>
1

> <PUBCHEM_CACTVS_TAUTO_COUNT>
24

> <PUBCHEM_COORDINATE_TYPE>
1
5
255

> <PUBCHEM_BONDANNOTATIONS>
1  12  8
1  8  8
10  13  8
11  14  8
12  13  8
14  15  8
16  17  8
16  18  8
17  19  8
18  20  8
19  21  8
20  21  8
7  10  8
7  8  8
7  9  8
8  11  8
9  15  8

$$$$

