11954002
  -OEChem-07051213023D

 62 61  0     1  0  0  0  0  0999 V2000
   -6.0567   -0.3267   -1.6685 O   0  0  0  0  0  0  0  0  0  0  0  0
    9.6510   -1.0107    1.2242 O   0  0  0  0  0  0  0  0  0  0  0  0
    5.1014   -1.6951   -0.8237 O   0  0  0  0  0  0  0  0  0  0  0  0
    7.0367   -0.8127    0.0869 N   0  0  0  0  0  0  0  0  0  0  0  0
   -5.6651   -0.2210    0.7415 C   0  0  2  0  0  0  0  0  0  0  0  0
   -6.7142   -0.2279   -0.4021 C   0  0  2  0  0  0  0  0  0  0  0  0
   -7.7301   -1.3628   -0.3211 C   0  0  0  0  0  0  0  0  0  0  0  0
   -6.3323   -0.0544    2.1141 C   0  0  0  0  0  0  0  0  0  0  0  0
   -4.6654    0.8997    0.5501 C   0  0  0  0  0  0  0  0  0  0  0  0
   -3.3263    0.8088    0.4215 C   0  0  0  0  0  0  0  0  0  0  0  0
   -7.1225   -2.7393   -0.3153 C   0  0  0  0  0  0  0  0  0  0  0  0
   -9.0530   -1.1074   -0.2681 C   0  0  0  0  0  0  0  0  0  0  0  0
   -2.5257   -0.4628    0.4817 C   0  0  0  0  0  0  0  0  0  0  0  0
    7.7440   -2.0677    0.2021 C   0  0  2  0  0  0  0  0  0  0  0  0
   -2.5020    1.9999    0.2433 C   0  0  0  0  0  0  0  0  0  0  0  0
  -10.1868   -2.0765   -0.1796 C   0  0  0  0  0  0  0  0  0  0  0  0
    8.6902   -2.0455    1.4006 C   0  0  0  0  0  0  0  0  0  0  0  0
    8.4997   -2.3568   -1.0885 C   0  0  0  0  0  0  0  0  0  0  0  0
   -1.1661    1.9941    0.1082 C   0  0  0  0  0  0  0  0  0  0  0  0
    5.7528   -0.7315   -0.4252 C   0  0  0  0  0  0  0  0  0  0  0  0
    5.1934    0.6657   -0.4526 C   0  0  0  0  0  0  0  0  0  0  0  0
   -0.3853    3.2018   -0.0498 C   0  0  0  0  0  0  0  0  0  0  0  0
    3.8553    0.7555   -0.3226 C   0  0  0  0  0  0  0  0  0  0  0  0
    6.1482    1.8192   -0.5674 C   0  0  0  0  0  0  0  0  0  0  0  0
    0.9496    3.1962   -0.1847 C   0  0  0  0  0  0  0  0  0  0  0  0
    3.0723    1.9757   -0.3201 C   0  0  0  0  0  0  0  0  0  0  0  0
    1.7367    1.9819   -0.1852 C   0  0  0  0  0  0  0  0  0  0  0  0
   -5.1448   -1.1815    0.7371 H   0  0  0  0  0  0  0  0  0  0  0  0
   -7.2328    0.7403   -0.4024 H   0  0  0  0  0  0  0  0  0  0  0  0
   -6.9290    0.8636    2.1609 H   0  0  0  0  0  0  0  0  0  0  0  0
   -5.5806   -0.0075    2.9106 H   0  0  0  0  0  0  0  0  0  0  0  0
   -6.9924   -0.8975    2.3413 H   0  0  0  0  0  0  0  0  0  0  0  0
   -5.1151    1.8928    0.5063 H   0  0  0  0  0  0  0  0  0  0  0  0
   -6.3395   -2.8267   -1.0757 H   0  0  0  0  0  0  0  0  0  0  0  0
   -6.6832   -2.9630    0.6617 H   0  0  0  0  0  0  0  0  0  0  0  0
   -7.8502   -3.5236   -0.5382 H   0  0  0  0  0  0  0  0  0  0  0  0
   -9.3691   -0.0652   -0.2896 H   0  0  0  0  0  0  0  0  0  0  0  0
   -6.7369   -0.2671   -2.3612 H   0  0  0  0  0  0  0  0  0  0  0  0
   -1.9960   -0.6441   -0.4606 H   0  0  0  0  0  0  0  0  0  0  0  0
   -3.1422   -1.3487    0.6485 H   0  0  0  0  0  0  0  0  0  0  0  0
   -1.8092   -0.4461    1.3112 H   0  0  0  0  0  0  0  0  0  0  0  0
    7.0092   -2.8663    0.3596 H   0  0  0  0  0  0  0  0  0  0  0  0
   -3.0308    2.9517    0.2269 H   0  0  0  0  0  0  0  0  0  0  0  0
   -9.8682   -3.1089   -0.0235 H   0  0  0  0  0  0  0  0  0  0  0  0
  -10.8341   -1.8045    0.6605 H   0  0  0  0  0  0  0  0  0  0  0  0
  -10.7836   -2.0343   -1.0958 H   0  0  0  0  0  0  0  0  0  0  0  0
    9.2173   -2.9996    1.5025 H   0  0  0  0  0  0  0  0  0  0  0  0
    8.1387   -1.8457    2.3255 H   0  0  0  0  0  0  0  0  0  0  0  0
    9.0535   -3.2986   -1.0161 H   0  0  0  0  0  0  0  0  0  0  0  0
    7.8075   -2.4406   -1.9338 H   0  0  0  0  0  0  0  0  0  0  0  0
    9.2102   -1.5590   -1.3318 H   0  0  0  0  0  0  0  0  0  0  0  0
    7.5280    0.0246    0.3822 H   0  0  0  0  0  0  0  0  0  0  0  0
   -0.6469    1.0491    0.1218 H   0  0  0  0  0  0  0  0  0  0  0  0
   -0.9106    4.1530   -0.0588 H   0  0  0  0  0  0  0  0  0  0  0  0
    3.2699   -0.1569   -0.2146 H   0  0  0  0  0  0  0  0  0  0  0  0
    6.5883    2.0538    0.4071 H   0  0  0  0  0  0  0  0  0  0  0  0
    5.6737    2.7259   -0.9516 H   0  0  0  0  0  0  0  0  0  0  0  0
    6.9554    1.5830   -1.2697 H   0  0  0  0  0  0  0  0  0  0  0  0
   10.2323   -1.0262    2.0035 H   0  0  0  0  0  0  0  0  0  0  0  0
    1.4704    4.1430   -0.2990 H   0  0  0  0  0  0  0  0  0  0  0  0
    3.5965    2.9204   -0.4260 H   0  0  0  0  0  0  0  0  0  0  0  0
    1.2597    1.0159   -0.0788 H   0  0  0  0  0  0  0  0  0  0  0  0
  1  6  1  0  0  0  0
  1 38  1  0  0  0  0
  2 17  1  0  0  0  0
  2 59  1  0  0  0  0
  3 20  2  0  0  0  0
  4 14  1  0  0  0  0
  4 20  1  0  0  0  0
  4 52  1  0  0  0  0
  5  6  1  0  0  0  0
  5  8  1  0  0  0  0
  5  9  1  0  0  0  0
  5 28  1  0  0  0  0
  6  7  1  0  0  0  0
  6 29  1  0  0  0  0
  7 11  1  0  0  0  0
  7 12  2  0  0  0  0
  8 30  1  0  0  0  0
  8 31  1  0  0  0  0
  8 32  1  0  0  0  0
  9 10  2  0  0  0  0
  9 33  1  0  0  0  0
 10 13  1  0  0  0  0
 10 15  1  0  0  0  0
 11 34  1  0  0  0  0
 11 35  1  0  0  0  0
 11 36  1  0  0  0  0
 12 16  1  0  0  0  0
 12 37  1  0  0  0  0
 13 39  1  0  0  0  0
 13 40  1  0  0  0  0
 13 41  1  0  0  0  0
 14 17  1  0  0  0  0
 14 18  1  0  0  0  0
 14 42  1  0  0  0  0
 15 19  2  0  0  0  0
 15 43  1  0  0  0  0
 16 44  1  0  0  0  0
 16 45  1  0  0  0  0
 16 46  1  0  0  0  0
 17 47  1  0  0  0  0
 17 48  1  0  0  0  0
 18 49  1  0  0  0  0
 18 50  1  0  0  0  0
 18 51  1  0  0  0  0
 19 22  1  0  0  0  0
 19 53  1  0  0  0  0
 20 21  1  0  0  0  0
 21 23  2  0  0  0  0
 21 24  1  0  0  0  0
 22 25  2  0  0  0  0
 22 54  1  0  0  0  0
 23 26  1  0  0  0  0
 23 55  1  0  0  0  0
 24 56  1  0  0  0  0
 24 57  1  0  0  0  0
 24 58  1  0  0  0  0
 25 27  1  0  0  0  0
 25 60  1  0  0  0  0
 26 27  2  0  0  0  0
 26 61  1  0  0  0  0
 27 62  1  0  0  0  0
M  END
> <PUBCHEM_COMPOUND_CID>
11954002

> <PUBCHEM_CONFORMER_RMSD>
1

> <PUBCHEM_CONFORMER_DIVERSEORDER>
12
40
109
125
179
38
60
17
143
149
214
197
161
183
209
190
203
118
151
184
45
181
96
147
46
221
204
142
198
69
186
48
127
86
34
202
28
146
160
67
168
94
211
50
172
108
33
216
176
99
175
91
42
55
83
78
76
26
65
57
185
219
100
157
169
207
165
122
85
135
222
62
116
101
54
92
119
4
72
120
43
178
95
226
227
158
194
107
39
66
44
205
166
81
88
132
11
113
93
218
97
98
145
182
148
163
187
84
74
206
174
14
220
117
80
49
199
79
140
193
70
51
180
224
112
105
115
130
137
126
225
36
20
7
89
64
201
192
150
41
152
53
19
156
121
71
212
3
114
171
167
200
177
37
141
31
5
87
56
213
153
13
15
188
191
52
61
77
24
58
210
189
18
106
164
16
154
32
59
21
2
35
208
162
30
195
82
123
144
75
8
129
155
23
47
170
196
133
111
27
173
102
90
1
136
159
124
22
223
217
110
228
103
73
25
29
128
9
6
10
131
215
68
134
138
139
63
104

> <PUBCHEM_MMFF94_PARTIAL_CHARGES>
37
1 -0.68
10 -0.14
11 0.14
12 -0.29
13 0.14
14 0.3
15 -0.15
16 0.14
17 0.28
19 -0.15
2 -0.68
20 0.62
21 -0.12
22 -0.15
23 -0.15
24 0.14
25 -0.15
26 -0.15
27 -0.15
3 -0.57
33 0.15
37 0.15
38 0.4
4 -0.73
43 0.15
5 0.14
52 0.37
53 0.15
54 0.15
55 0.15
59 0.4
6 0.42
60 0.15
61 0.15
62 0.15
7 -0.28
9 -0.29

> <PUBCHEM_EFFECTIVE_ROTOR_COUNT>
11

> <PUBCHEM_PHARMACOPHORE_FEATURES>
11
1 1 acceptor
1 1 donor
1 11 hydrophobe
1 13 hydrophobe
1 16 hydrophobe
1 2 acceptor
1 2 donor
1 24 hydrophobe
1 3 acceptor
1 4 donor
1 8 hydrophobe

> <PUBCHEM_HEAVY_ATOM_COUNT>
27

> <PUBCHEM_ATOM_DEF_STEREO_COUNT>
3

> <PUBCHEM_ATOM_UDEF_STEREO_COUNT>
0

> <PUBCHEM_BOND_DEF_STEREO_COUNT>
6

> <PUBCHEM_BOND_UDEF_STEREO_COUNT>
0

> <PUBCHEM_ISOTOPIC_ATOM_COUNT>
0

> <PUBCHEM_COMPONENT_COUNT>
1

> <PUBCHEM_CACTVS_TAUTO_COUNT>
2

> <PUBCHEM_CONFORMER_ID>
00B667520000000C

> <PUBCHEM_MMFF94_ENERGY>
49.2248

> <PUBCHEM_FEATURE_SELFOVERLAP>
55.821

> <PUBCHEM_SHAPE_FINGERPRINT>
10 15 5978105734571355596
10669705 251 18041551546811486094
10917259 69 18195247939869454517
10930396 42 14490191614534926475
11211813 128 18261392300379921286
11273773 46 18201998807828960155
11421887 45 9871172892231979030
11828042 58 17703790371479571613
12522641 68 11167936966023217289
12539765 74 11167949069219659664
12838863 1 18413110580358255610
13248334 5 18050283670069501972
14026016 60 16128388129221369354
14216079 64 18409728439699390493
14359421 15 17917436444758124515
14428016 167 18410013221663736511
14617042 71 9295294950047207767
14931854 50 17275103937875560864
15183329 4 16200158668904270829
15198563 99 16773805813896556701
16126227 98 9079113354291280465
1768 124 18040709273015793206
19841028 212 18411420574855915832
20165401 70 18334577901855649047
2026 5 18341614853688893275
21095123 293 7420942089146310578
21130991 4 18342462546994094627
212700 22 18335425676987567543
21307412 95 17632570514616507793
21360443 89 18271531996658582130
22002106 203 18336274474289072674
23389318 12 18059846282727021612
23524908 199 12607412126815523400
23528940 14 18341056333028617314
23569943 247 18410289208262963795
25242607 90 18334581234850607904
2851757 41 18409724075612204430
306946 40 5183798710499935499
3383291 50 18410854373618253882
3711267 37 9078824225994454926
406291 66 18410291419258322054
5718773 13 18410011039556683988
9962374 69 18409172074078423116

> <PUBCHEM_SHAPE_MULTIPOLES>
533.06
36.99
3.5
1.14
5.03
1.02
0.32
-39.62
1.09
2.73
-0.33
-0.14
-0.37
-1.84

> <PUBCHEM_SHAPE_SELFOVERLAP>
1039.125

> <PUBCHEM_SHAPE_VOLUME>
321

> <PUBCHEM_COORDINATE_TYPE>
2
5
10

$$$$

