439480
  -OEChem-07051212453D

 39 40  0     1  0  0  0  0  0999 V2000
   -3.2203   -2.6152   -0.1615 P   0  0  0  0  0  0  0  0  0  0  0  0
   -0.8329    0.8343    0.8512 O   0  0  0  0  0  0  0  0  0  0  0  0
   -2.3046    3.4243    1.1612 O   0  0  0  0  0  0  0  0  0  0  0  0
   -0.7901    3.8656   -1.0622 O   0  0  0  0  0  0  0  0  0  0  0  0
   -2.6646   -1.2678    0.5440 O   0  0  0  0  0  0  0  0  0  0  0  0
   -2.5693   -2.5701   -1.6410 O   0  0  0  0  0  0  0  0  0  0  0  0
   -4.7768   -2.2675   -0.4291 O   0  0  0  0  0  0  0  0  0  0  0  0
   -2.9768   -3.8802    0.6085 O   0  0  0  0  0  0  0  0  0  0  0  0
    4.7491   -1.4974   -1.2429 O   0  0  0  0  0  0  0  0  0  0  0  0
    0.8673    1.1802   -0.7637 N   0  0  0  0  0  0  0  0  0  0  0  0
    1.9917    0.1676    1.0647 N   0  0  0  0  0  0  0  0  0  0  0  0
    2.8508   -0.0110   -2.4724 N   0  0  0  0  0  0  0  0  0  0  0  0
    3.9205   -1.1651    0.8653 N   0  0  0  0  0  0  0  0  0  0  0  0
    2.9412   -0.7266    2.9568 N   0  0  0  0  0  0  0  0  0  0  0  0
   -2.3875    2.4595    0.1125 C   0  0  1  0  0  0  0  0  0  0  0  0
   -1.1578    2.5330   -0.7676 C   0  0  2  0  0  0  0  0  0  0  0  0
   -2.2515    1.0774    0.7349 C   0  0  1  0  0  0  0  0  0  0  0  0
   -0.1174    1.8133    0.0761 C   0  0  1  0  0  0  0  0  0  0  0  0
   -2.8545   -0.0301   -0.1188 C   0  0  0  0  0  0  0  0  0  0  0  0
    1.8797    0.4095   -0.2890 C   0  0  0  0  0  0  0  0  0  0  0  0
    2.8035   -0.1416   -1.1129 C   0  0  0  0  0  0  0  0  0  0  0  0
    2.9956   -0.6018    1.5931 C   0  0  0  0  0  0  0  0  0  0  0  0
    3.9047   -0.9904   -0.5072 C   0  0  0  0  0  0  0  0  0  0  0  0
   -3.3253    2.6293   -0.4226 H   0  0  0  0  0  0  0  0  0  0  0  0
   -1.3476    2.0075   -1.7116 H   0  0  0  0  0  0  0  0  0  0  0  0
   -2.6641    1.0336    1.7493 H   0  0  0  0  0  0  0  0  0  0  0  0
    0.3771    2.5109    0.7640 H   0  0  0  0  0  0  0  0  0  0  0  0
   -2.3628   -0.0819   -1.0950 H   0  0  0  0  0  0  0  0  0  0  0  0
   -3.9243    0.1477   -0.2651 H   0  0  0  0  0  0  0  0  0  0  0  0
    0.8380    1.3578   -1.7617 H   0  0  0  0  0  0  0  0  0  0  0  0
   -1.5313    3.2249    1.7148 H   0  0  0  0  0  0  0  0  0  0  0  0
    0.0560    3.8347   -1.5406 H   0  0  0  0  0  0  0  0  0  0  0  0
    1.2894    0.5761    1.6699 H   0  0  0  0  0  0  0  0  0  0  0  0
    2.1549    0.5354   -2.9620 H   0  0  0  0  0  0  0  0  0  0  0  0
    3.5884   -0.4677   -2.9945 H   0  0  0  0  0  0  0  0  0  0  0  0
   -2.7092   -3.3306   -2.2445 H   0  0  0  0  0  0  0  0  0  0  0  0
   -5.3675   -2.9705   -0.7740 H   0  0  0  0  0  0  0  0  0  0  0  0
    2.2123   -0.2781    3.5010 H   0  0  0  0  0  0  0  0  0  0  0  0
    3.6312   -1.2718    3.4619 H   0  0  0  0  0  0  0  0  0  0  0  0
  1  5  1  0  0  0  0
  1  6  1  0  0  0  0
  1  7  1  0  0  0  0
  1  8  2  0  0  0  0
  2 17  1  0  0  0  0
  2 18  1  0  0  0  0
  3 15  1  0  0  0  0
  3 31  1  0  0  0  0
  4 16  1  0  0  0  0
  4 32  1  0  0  0  0
  5 19  1  0  0  0  0
  6 36  1  0  0  0  0
  7 37  1  0  0  0  0
  9 23  2  0  0  0  0
 10 18  1  0  0  0  0
 10 20  1  0  0  0  0
 10 30  1  0  0  0  0
 11 20  1  0  0  0  0
 11 22  1  0  0  0  0
 11 33  1  0  0  0  0
 12 21  1  0  0  0  0
 12 34  1  0  0  0  0
 12 35  1  0  0  0  0
 13 22  2  0  0  0  0
 13 23  1  0  0  0  0
 14 22  1  0  0  0  0
 14 38  1  0  0  0  0
 14 39  1  0  0  0  0
 15 16  1  0  0  0  0
 15 17  1  0  0  0  0
 15 24  1  0  0  0  0
 16 18  1  0  0  0  0
 16 25  1  0  0  0  0
 17 19  1  0  0  0  0
 17 26  1  0  0  0  0
 18 27  1  0  0  0  0
 19 28  1  0  0  0  0
 19 29  1  0  0  0  0
 20 21  2  0  0  0  0
 21 23  1  0  0  0  0
M  END
> <PUBCHEM_COMPOUND_CID>
439480

> <PUBCHEM_CONFORMER_RMSD>
0.8

> <PUBCHEM_CONFORMER_DIVERSEORDER>
1
2
148
97
111
115
53
39
16
132
109
116
134
127
136
101
141
76
87
64
46
124
145
150
15
118
45
62
85
138
152
137
48
41
22
99
52
108
93
123
126
96
107
63
130
80
151
147
19
94
7
106
71
103
142
32
92
149
135
131
84
44
144
37
35
154
140
90
128
100
38
120
65
104
26
81
79
119
105
146
23
42
83
57
88
133
153
4
56
70
51
31
117
129
73
60
89
17
114
12
28
50
58
121
125
20
75
66
9
61
40
102
27
112
74
82
72
77
122
3
55
21
69
13
5
59
25
34
43
155
98
86
67
143
8
36
30
68
78
54
139
18
6
110
91
113
47
33
24
95
49
10
14
11
29

> <PUBCHEM_MMFF94_PARTIAL_CHARGES>
33
1 1.51
10 -0.87
11 -0.55
12 -0.9
13 -0.66
14 -0.85
15 0.28
16 0.28
17 0.28
18 0.65
19 0.28
2 -0.56
20 0.2
21 0.11
22 0.55
23 0.77
3 -0.68
30 0.4
31 0.4
32 0.4
33 0.4
34 0.4
35 0.4
36 0.5
37 0.5
38 0.4
39 0.4
4 -0.68
5 -0.55
6 -0.77
7 -0.77
8 -0.7
9 -0.57

> <PUBCHEM_EFFECTIVE_ROTOR_COUNT>
6

> <PUBCHEM_PHARMACOPHORE_FEATURES>
19
1 10 cation
1 10 donor
1 11 donor
1 12 cation
1 12 donor
1 13 donor
1 14 donor
1 2 acceptor
1 3 acceptor
1 3 donor
1 4 acceptor
1 4 donor
1 6 acceptor
1 7 acceptor
1 8 acceptor
1 9 acceptor
4 1 6 7 8 anion
5 2 15 16 17 18 rings
6 11 13 20 21 22 23 rings

> <PUBCHEM_HEAVY_ATOM_COUNT>
23

> <PUBCHEM_ATOM_DEF_STEREO_COUNT>
4

> <PUBCHEM_ATOM_UDEF_STEREO_COUNT>
0

> <PUBCHEM_BOND_DEF_STEREO_COUNT>
0

> <PUBCHEM_BOND_UDEF_STEREO_COUNT>
0

> <PUBCHEM_ISOTOPIC_ATOM_COUNT>
0

> <PUBCHEM_COMPONENT_COUNT>
1

> <PUBCHEM_CACTVS_TAUTO_COUNT>
19

> <PUBCHEM_CONFORMER_ID>
0006B4B800000001

> <PUBCHEM_MMFF94_ENERGY>
35.077

> <PUBCHEM_FEATURE_SELFOVERLAP>
96.636

> <PUBCHEM_SHAPE_FINGERPRINT>
10366900 7 17241896586736192928
11582403 64 16022335915600103560
12363563 72 18264772069288372007
12403259 327 15793385575868733963
12553582 1 18342171125231744731
12788726 201 18341041948333004659
13004483 165 18336553724688592709
13083527 12 18051435997025200376
13931106 250 18127432222133843429
16752209 62 18341338902292793553
20291156 8 18339638915492887647
21452121 199 18120944910377736465
21634736 98 18130213883551814908
23184049 29 18411707555928264208
23557571 272 18336278850623046144
23559900 14 18333734632536009144
23598288 3 17630040696589417481
23598291 2 17272569692686000848
23728640 28 18269271438446432521
314173 41 18197215837326440859
602551 16 18335420231216299658
603831 33 17846489370607172284
633830 44 16843006919759005854
81228 2 18408605864133872521

> <PUBCHEM_SHAPE_MULTIPOLES>
405.32
8.15
4.15
1.8
3.45
0.48
0.41
-6.93
-0.48
-6.49
-0.42
2.14
-0.32
-0.74

> <PUBCHEM_SHAPE_SELFOVERLAP>
834.501

> <PUBCHEM_SHAPE_VOLUME>
234.1

> <PUBCHEM_COORDINATE_TYPE>
2
5
10

$$$$

