11972
  -OEChem-06261206213D

 20 20  0     0  0  0  0  0  0999 V2000
   -0.9705    2.3725    0.0000 O   0  0  0  0  0  0  0  0  0  0  0  0
    2.4665   -1.4012   -0.0021 O   0  0  0  0  0  0  0  0  0  0  0  0
    1.1915    0.5816    0.0004 N   0  0  0  0  0  0  0  0  0  0  0  0
   -0.1288    0.1255    0.0007 C   0  0  0  0  0  0  0  0  0  0  0  0
   -1.1928    1.0274   -0.0004 C   0  0  0  0  0  0  0  0  0  0  0  0
   -0.3779   -1.2470    0.0012 C   0  0  0  0  0  0  0  0  0  0  0  0
   -2.5059    0.5569   -0.0010 C   0  0  0  0  0  0  0  0  0  0  0  0
   -1.6910   -1.7175    0.0006 C   0  0  0  0  0  0  0  0  0  0  0  0
   -2.7551   -0.8156   -0.0003 C   0  0  0  0  0  0  0  0  0  0  0  0
    2.3675   -0.1783    0.0006 C   0  0  0  0  0  0  0  0  0  0  0  0
    3.5966    0.6958    0.0002 C   0  0  0  0  0  0  0  0  0  0  0  0
    0.3880   -2.0092    0.0023 H   0  0  0  0  0  0  0  0  0  0  0  0
    1.2980    1.5940    0.0002 H   0  0  0  0  0  0  0  0  0  0  0  0
   -3.3447    1.2479   -0.0017 H   0  0  0  0  0  0  0  0  0  0  0  0
   -1.8866   -2.7860    0.0011 H   0  0  0  0  0  0  0  0  0  0  0  0
   -3.7774   -1.1821   -0.0007 H   0  0  0  0  0  0  0  0  0  0  0  0
    3.6153    1.3063   -0.9068 H   0  0  0  0  0  0  0  0  0  0  0  0
    4.4947    0.0726    0.0282 H   0  0  0  0  0  0  0  0  0  0  0  0
    3.5895    1.3466    0.8791 H   0  0  0  0  0  0  0  0  0  0  0  0
   -1.8257    2.8358   -0.0007 H   0  0  0  0  0  0  0  0  0  0  0  0
  1  5  1  0  0  0  0
  1 20  1  0  0  0  0
  2 10  2  0  0  0  0
  3  4  1  0  0  0  0
  3 10  1  0  0  0  0
  3 13  1  0  0  0  0
  4  5  1  0  0  0  0
  4  6  2  0  0  0  0
  5  7  2  0  0  0  0
  6  8  1  0  0  0  0
  6 12  1  0  0  0  0
  7  9  1  0  0  0  0
  7 14  1  0  0  0  0
  8  9  2  0  0  0  0
  8 15  1  0  0  0  0
  9 16  1  0  0  0  0
 10 11  1  0  0  0  0
 11 17  1  0  0  0  0
 11 18  1  0  0  0  0
 11 19  1  0  0  0  0
M  END
> <PUBCHEM_COMPOUND_CID>
11972

> <PUBCHEM_CONFORMER_RMSD>
0.4

> <PUBCHEM_CONFORMER_DIVERSEORDER>
1
3
2
4

> <PUBCHEM_MMFF94_PARTIAL_CHARGES>
17
1 -0.53
10 0.57
11 0.06
12 0.15
13 0.37
14 0.15
15 0.15
16 0.15
2 -0.57
20 0.45
3 -0.55
4 0.12
5 0.08
6 -0.15
7 -0.15
8 -0.15
9 -0.15

> <PUBCHEM_EFFECTIVE_ROTOR_COUNT>
2

> <PUBCHEM_PHARMACOPHORE_FEATURES>
4
1 1 donor
1 2 acceptor
1 3 donor
6 4 5 6 7 8 9 rings

> <PUBCHEM_HEAVY_ATOM_COUNT>
11

> <PUBCHEM_ATOM_DEF_STEREO_COUNT>
0

> <PUBCHEM_ATOM_UDEF_STEREO_COUNT>
0

> <PUBCHEM_BOND_DEF_STEREO_COUNT>
0

> <PUBCHEM_BOND_UDEF_STEREO_COUNT>
0

> <PUBCHEM_ISOTOPIC_ATOM_COUNT>
0

> <PUBCHEM_COMPONENT_COUNT>
1

> <PUBCHEM_CACTVS_TAUTO_COUNT>
6

> <PUBCHEM_CONFORMER_ID>
00002EC400000001

> <PUBCHEM_MMFF94_ENERGY>
30.2054

> <PUBCHEM_FEATURE_SELFOVERLAP>
20.301

> <PUBCHEM_SHAPE_FINGERPRINT>
12897270 3 18410011001197000630
12932764 1 17386014957308728286
13024252 1 17561083592440035091
14325111 11 18410575119091447520
16945 1 18410575097637723047
193761 8 17689998260085025987
19973954 147 18337670922870426172
20201158 50 18408887304450339622
20871998 184 18187923937326526431
23402539 116 18260558805408126903
23552423 10 18272931592058694966
2748010 2 18121505648143100493
3312278 4 18342736265291276698
369184 2 18407760347860105979
5084963 1 18187930645827682497
6333449 129 18408326570504669364

> <PUBCHEM_SHAPE_MULTIPOLES>
209.66
4.81
1.83
0.59
3.53
0.38
0
-0.27
0
-0.66
0
-0.02
-0.01
0

> <PUBCHEM_SHAPE_SELFOVERLAP>
433.325

> <PUBCHEM_SHAPE_VOLUME>
119.6

> <PUBCHEM_COORDINATE_TYPE>
2
5
10

$$$$

