442887
  -OEChem-07051213003D

 53 55  0     0  0  0  0  0  0999 V2000
    2.7965    1.8611   -0.0090 O   0  0  0  0  0  0  0  0  0  0  0  0
    1.7226   -2.6181   -1.2036 O   0  0  0  0  0  0  0  0  0  0  0  0
   -0.7526   -3.3585   -0.9105 O   0  0  0  0  0  0  0  0  0  0  0  0
   -4.4126    0.8559    1.2137 O   0  0  0  0  0  0  0  0  0  0  0  0
   -1.7511    0.3146    0.4716 N   0  0  0  0  0  0  0  0  0  0  0  0
   -0.4151    0.0904    0.1148 C   0  0  0  0  0  0  0  0  0  0  0  0
    0.5416    1.1044    0.2323 C   0  0  0  0  0  0  0  0  0  0  0  0
   -0.0183   -1.1670   -0.3700 C   0  0  0  0  0  0  0  0  0  0  0  0
    2.2524   -0.3860   -0.6069 C   0  0  0  0  0  0  0  0  0  0  0  0
    1.8694    0.8663   -0.1270 C   0  0  0  0  0  0  0  0  0  0  0  0
    1.3108   -1.4070   -0.7307 C   0  0  0  0  0  0  0  0  0  0  0  0
    0.1603    2.4592    0.7442 C   0  0  0  0  0  0  0  0  0  0  0  0
   -2.7517   -0.6613    0.3759 C   0  0  0  0  0  0  0  0  0  0  0  0
   -2.4383   -1.9456   -0.0996 C   0  0  0  0  0  0  0  0  0  0  0  0
   -1.0363   -2.2429   -0.4945 C   0  0  0  0  0  0  0  0  0  0  0  0
    3.6780   -0.6309   -0.9892 C   0  0  0  0  0  0  0  0  0  0  0  0
   -4.0706   -0.3792    0.7475 C   0  0  0  0  0  0  0  0  0  0  0  0
   -3.4250   -2.9304   -0.2020 C   0  0  0  0  0  0  0  0  0  0  0  0
   -0.2658    3.3983   -0.3545 C   0  0  0  0  0  0  0  0  0  0  0  0
    4.5114   -1.1395    0.1592 C   0  0  0  0  0  0  0  0  0  0  0  0
   -5.0573   -1.3617    0.6462 C   0  0  0  0  0  0  0  0  0  0  0  0
   -4.7348   -2.6333    0.1728 C   0  0  0  0  0  0  0  0  0  0  0  0
   -1.4440    4.0364   -0.4899 C   0  0  0  0  0  0  0  0  0  0  0  0
    5.5890   -0.5607    0.7228 C   0  0  0  0  0  0  0  0  0  0  0  0
   -1.8043    4.9636   -1.6158 C   0  0  0  0  0  0  0  0  0  0  0  0
   -2.5366    3.8426    0.5280 C   0  0  0  0  0  0  0  0  0  0  0  0
    6.3765   -1.1255    1.8708 C   0  0  0  0  0  0  0  0  0  0  0  0
    6.1060    0.7547    0.2033 C   0  0  0  0  0  0  0  0  0  0  0  0
   -2.0231    1.2466    0.7340 H   0  0  0  0  0  0  0  0  0  0  0  0
   -0.5512    2.3625    1.5661 H   0  0  0  0  0  0  0  0  0  0  0  0
    1.0226    2.9231    1.2427 H   0  0  0  0  0  0  0  0  0  0  0  0
    3.7253   -1.3917   -1.7804 H   0  0  0  0  0  0  0  0  0  0  0  0
    4.0853    0.2483   -1.4933 H   0  0  0  0  0  0  0  0  0  0  0  0
    0.4895    3.5841   -1.1180 H   0  0  0  0  0  0  0  0  0  0  0  0
   -3.1956   -3.9269   -0.5682 H   0  0  0  0  0  0  0  0  0  0  0  0
    4.1922   -2.0984    0.5672 H   0  0  0  0  0  0  0  0  0  0  0  0
   -6.0815   -1.1414    0.9354 H   0  0  0  0  0  0  0  0  0  0  0  0
   -5.5063   -3.3941    0.0958 H   0  0  0  0  0  0  0  0  0  0  0  0
    3.6830    1.4877    0.0902 H   0  0  0  0  0  0  0  0  0  0  0  0
    0.9837   -3.2436   -1.2412 H   0  0  0  0  0  0  0  0  0  0  0  0
   -2.0227    5.9653   -1.2324 H   0  0  0  0  0  0  0  0  0  0  0  0
   -2.6851    4.5916   -2.1490 H   0  0  0  0  0  0  0  0  0  0  0  0
   -0.9880    5.0532   -2.3401 H   0  0  0  0  0  0  0  0  0  0  0  0
   -3.3371    3.2324    0.0983 H   0  0  0  0  0  0  0  0  0  0  0  0
   -2.9678    4.8162    0.7900 H   0  0  0  0  0  0  0  0  0  0  0  0
   -2.2287    3.3976    1.4733 H   0  0  0  0  0  0  0  0  0  0  0  0
   -3.6202    1.3114    1.5376 H   0  0  0  0  0  0  0  0  0  0  0  0
    5.9516   -2.0711    2.2234 H   0  0  0  0  0  0  0  0  0  0  0  0
    7.4116   -1.3156    1.5694 H   0  0  0  0  0  0  0  0  0  0  0  0
    6.3785   -0.4255    2.7125 H   0  0  0  0  0  0  0  0  0  0  0  0
    5.7580    1.0372   -0.7901 H   0  0  0  0  0  0  0  0  0  0  0  0
    5.8525    1.5584    0.9025 H   0  0  0  0  0  0  0  0  0  0  0  0
    7.1993    0.7144    0.1284 H   0  0  0  0  0  0  0  0  0  0  0  0
  1 10  1  0  0  0  0
  1 39  1  0  0  0  0
  2 11  1  0  0  0  0
  2 40  1  0  0  0  0
  3 15  2  0  0  0  0
  4 17  1  0  0  0  0
  4 47  1  0  0  0  0
  5  6  1  0  0  0  0
  5 13  1  0  0  0  0
  5 29  1  0  0  0  0
  6  7  2  0  0  0  0
  6  8  1  0  0  0  0
  7 10  1  0  0  0  0
  7 12  1  0  0  0  0
  8 11  2  0  0  0  0
  8 15  1  0  0  0  0
  9 10  2  0  0  0  0
  9 11  1  0  0  0  0
  9 16  1  0  0  0  0
 12 19  1  0  0  0  0
 12 30  1  0  0  0  0
 12 31  1  0  0  0  0
 13 14  2  0  0  0  0
 13 17  1  0  0  0  0
 14 15  1  0  0  0  0
 14 18  1  0  0  0  0
 16 20  1  0  0  0  0
 16 32  1  0  0  0  0
 16 33  1  0  0  0  0
 17 21  2  0  0  0  0
 18 22  2  0  0  0  0
 18 35  1  0  0  0  0
 19 23  2  0  0  0  0
 19 34  1  0  0  0  0
 20 24  2  0  0  0  0
 20 36  1  0  0  0  0
 21 22  1  0  0  0  0
 21 37  1  0  0  0  0
 22 38  1  0  0  0  0
 23 25  1  0  0  0  0
 23 26  1  0  0  0  0
 24 27  1  0  0  0  0
 24 28  1  0  0  0  0
 25 41  1  0  0  0  0
 25 42  1  0  0  0  0
 25 43  1  0  0  0  0
 26 44  1  0  0  0  0
 26 45  1  0  0  0  0
 26 46  1  0  0  0  0
 27 48  1  0  0  0  0
 27 49  1  0  0  0  0
 27 50  1  0  0  0  0
 28 51  1  0  0  0  0
 28 52  1  0  0  0  0
 28 53  1  0  0  0  0
M  END
> <PUBCHEM_COMPOUND_CID>
442887

> <PUBCHEM_CONFORMER_RMSD>
0.8

> <PUBCHEM_CONFORMER_DIVERSEORDER>
5
12
10
36
29
37
15
25
16
33
21
3
22
19
34
26
27
18
30
32
28
1
6
17
11
20
8
9
4
7
35
14
2
31
24
13
23

> <PUBCHEM_MMFF94_PARTIAL_CHARGES>
37
1 -0.53
10 0.08
11 0.08
12 0.28
13 0.1
14 0.09
15 0.4
16 0.28
17 0.08
18 -0.15
19 -0.29
2 -0.53
20 -0.29
21 -0.15
22 -0.15
23 -0.28
24 -0.28
25 0.14
26 0.14
27 0.14
28 0.14
29 0.4
3 -0.57
34 0.15
35 0.15
36 0.15
37 0.15
38 0.15
39 0.45
4 -0.53
40 0.45
47 0.45
5 -0.6
6 0.1
7 -0.14
8 0.09
9 -0.14

> <PUBCHEM_EFFECTIVE_ROTOR_COUNT>
4

> <PUBCHEM_PHARMACOPHORE_FEATURES>
11
1 1 donor
1 2 donor
1 3 acceptor
1 4 donor
1 5 cation
1 5 donor
3 23 25 26 hydrophobe
3 24 27 28 hydrophobe
6 13 14 17 18 21 22 rings
6 5 6 8 13 14 15 rings
6 6 7 8 9 10 11 rings

> <PUBCHEM_HEAVY_ATOM_COUNT>
28

> <PUBCHEM_ATOM_DEF_STEREO_COUNT>
0

> <PUBCHEM_ATOM_UDEF_STEREO_COUNT>
0

> <PUBCHEM_BOND_DEF_STEREO_COUNT>
0

> <PUBCHEM_BOND_UDEF_STEREO_COUNT>
0

> <PUBCHEM_ISOTOPIC_ATOM_COUNT>
0

> <PUBCHEM_COMPONENT_COUNT>
1

> <PUBCHEM_CACTVS_TAUTO_COUNT>
172

> <PUBCHEM_CONFORMER_ID>
0006C20700000005

> <PUBCHEM_MMFF94_ENERGY>
84.7183

> <PUBCHEM_FEATURE_SELFOVERLAP>
55.867

> <PUBCHEM_SHAPE_FINGERPRINT>
10074138 170 17909583814764884248
10290309 65 18187370986874946390
10688039 33 18342736295303332748
10930396 42 18048070452441545802
10940486 97 17900259706499716390
12293681 4 18200861907756589619
12422481 6 18260541255860382690
12741549 16 17703517592988060341
12788726 201 18342731910832514770
13004483 165 18339647741719135720
13140716 1 18263926544941336938
13540713 4 17971188369043143646
138480 1 15457614906871159213
13899415 180 18339088077299450279
14028597 1 17775573069253780946
14466204 15 18408601448522981075
15685185 35 17197399047088502684
1813 80 17846494825405750734
20600515 1 18041824165227846041
20642791 105 18270125737517251908
20739085 24 18265044726459483300
21033648 29 17095529474287826378
21285901 2 18115288064449036238
21641784 216 18199447948894205556
22182313 1 17970622111774649622
23366157 5 17620475709826131895
23559900 14 18047756993123014331
335352 9 18335416816981433439
345986 75 17844554208556811058
4409770 3 18270411619130505933
5104073 3 18118112585515122347
6086070 43 18127716863192781711
653340 110 18263641930095639144
7226269 152 18343586252272713226
9777508 108 18193275423627812088

> <PUBCHEM_SHAPE_MULTIPOLES>
547.77
11.15
5.31
1.13
13.37
7
0.06
-6.31
4.82
-6.21
-1.85
0.53
0.13
0.09

> <PUBCHEM_SHAPE_SELFOVERLAP>
1184.183

> <PUBCHEM_SHAPE_VOLUME>
301.3

> <PUBCHEM_COORDINATE_TYPE>
2
5
10

$$$$

