14826840
  -OEChem-07051213102D

 39 41  0     0  0  0  0  0  0999 V2000
    5.4920    1.3797    0.0000 O   0  0  0  0  0  0  0  0  0  0  0  0
    3.7320   -1.6550    0.0000 O   0  0  0  0  0  0  0  0  0  0  0  0
    5.4804   -1.6896    0.0000 O   0  0  0  0  0  0  0  0  0  0  0  0
    2.0000    1.3450    0.0000 O   0  0  0  0  0  0  0  0  0  0  0  0
   10.7340    1.3075    0.0000 O   0  0  0  0  0  0  0  0  0  0  0  0
    4.5981   -0.1550    0.0000 C   0  0  0  0  0  0  0  0  0  0  0  0
    6.3981   -0.1758    0.0000 C   0  0  0  0  0  0  0  0  0  0  0  0
    7.2622   -0.6792    0.0000 C   0  0  0  0  0  0  0  0  0  0  0  0
    5.4920   -0.6897    0.0000 C   0  0  0  0  0  0  0  0  0  0  0  0
    4.5981    0.8450    0.0000 C   0  0  0  0  0  0  0  0  0  0  0  0
    3.7320   -0.6550    0.0000 C   0  0  0  0  0  0  0  0  0  0  0  0
    8.1301   -0.1825    0.0000 C   0  0  0  0  0  0  0  0  0  0  0  0
    2.8660   -0.1550    0.0000 C   0  0  0  0  0  0  0  0  0  0  0  0
    6.3981    0.8658    0.0000 C   0  0  0  0  0  0  0  0  0  0  0  0
    3.7320    1.3450    0.0000 C   0  0  0  0  0  0  0  0  0  0  0  0
    2.8660    0.8450    0.0000 C   0  0  0  0  0  0  0  0  0  0  0  0
    8.9942   -0.6858    0.0000 C   0  0  0  0  0  0  0  0  0  0  0  0
    8.1340    0.8175    0.0000 C   0  0  0  0  0  0  0  0  0  0  0  0
    2.0000   -0.6550    0.0000 C   0  0  0  0  0  0  0  0  0  0  0  0
    9.8622   -0.1892    0.0000 C   0  0  0  0  0  0  0  0  0  0  0  0
    9.0019    1.3142    0.0000 C   0  0  0  0  0  0  0  0  0  0  0  0
    9.8660    0.8108    0.0000 C   0  0  0  0  0  0  0  0  0  0  0  0
   11.5981    0.8041    0.0000 C   0  0  0  0  0  0  0  0  0  0  0  0
    6.8618   -1.1526    0.0000 H   0  0  0  0  0  0  0  0  0  0  0  0
    7.6589   -1.1556    0.0000 H   0  0  0  0  0  0  0  0  0  0  0  0
    6.9338    1.1779    0.0000 H   0  0  0  0  0  0  0  0  0  0  0  0
    3.7320    1.9650    0.0000 H   0  0  0  0  0  0  0  0  0  0  0  0
    8.9918   -1.3058    0.0000 H   0  0  0  0  0  0  0  0  0  0  0  0
    7.5982    1.1296    0.0000 H   0  0  0  0  0  0  0  0  0  0  0  0
    1.6900   -0.1181    0.0000 H   0  0  0  0  0  0  0  0  0  0  0  0
    1.4631   -0.9650    0.0000 H   0  0  0  0  0  0  0  0  0  0  0  0
    2.3100   -1.1919    0.0000 H   0  0  0  0  0  0  0  0  0  0  0  0
   10.3979   -0.5012    0.0000 H   0  0  0  0  0  0  0  0  0  0  0  0
    9.0043    1.9342    0.0000 H   0  0  0  0  0  0  0  0  0  0  0  0
    3.1951   -1.9650    0.0000 H   0  0  0  0  0  0  0  0  0  0  0  0
    2.0000    1.9650    0.0000 H   0  0  0  0  0  0  0  0  0  0  0  0
   11.2860    0.2684    0.0000 H   0  0  0  0  0  0  0  0  0  0  0  0
   12.1338    0.4921    0.0000 H   0  0  0  0  0  0  0  0  0  0  0  0
   11.9101    1.3399    0.0000 H   0  0  0  0  0  0  0  0  0  0  0  0
  1 10  1  0  0  0  0
  1 14  1  0  0  0  0
  2 11  1  0  0  0  0
  2 35  1  0  0  0  0
  3  9  2  0  0  0  0
  4 16  1  0  0  0  0
  4 36  1  0  0  0  0
  5 22  1  0  0  0  0
  5 23  1  0  0  0  0
  6  9  1  0  0  0  0
  6 10  2  0  0  0  0
  6 11  1  0  0  0  0
  7  8  1  0  0  0  0
  7  9  1  0  0  0  0
  7 14  2  0  0  0  0
  8 12  1  0  0  0  0
  8 24  1  0  0  0  0
  8 25  1  0  0  0  0
 10 15  1  0  0  0  0
 11 13  2  0  0  0  0
 12 17  2  0  0  0  0
 12 18  1  0  0  0  0
 13 16  1  0  0  0  0
 13 19  1  0  0  0  0
 14 26  1  0  0  0  0
 15 16  2  0  0  0  0
 15 27  1  0  0  0  0
 17 20  1  0  0  0  0
 17 28  1  0  0  0  0
 18 21  2  0  0  0  0
 18 29  1  0  0  0  0
 19 30  1  0  0  0  0
 19 31  1  0  0  0  0
 19 32  1  0  0  0  0
 20 22  2  0  0  0  0
 20 33  1  0  0  0  0
 21 22  1  0  0  0  0
 21 34  1  0  0  0  0
 23 37  1  0  0  0  0
 23 38  1  0  0  0  0
 23 39  1  0  0  0  0
M  END
> <PUBCHEM_COMPOUND_CID>
14826840

> <PUBCHEM_COMPOUND_CANONICALIZED>
1

> <PUBCHEM_CACTVS_COMPLEXITY>
466

> <PUBCHEM_CACTVS_HBOND_ACCEPTOR>
5

> <PUBCHEM_CACTVS_HBOND_DONOR>
2

> <PUBCHEM_CACTVS_ROTATABLE_BOND>
3

> <PUBCHEM_CACTVS_SUBSKEYS>
AAADceB4OAAAAAAAAAAAAAAAAAAAAAAAAAAwYIAAAAAAAACBQAAAGgAACAAADASgmAIyBoAABgCIAqBSAAACCAAkIAAIiAEGCMgMJzaGNRqAcWAl4BUIuYeI7OzOIAACCAAIAABAAAQQABAAAAAAAAAAAA==

> <PUBCHEM_IUPAC_OPENEYE_NAME>
5,7-dihydroxy-3-[(4-methoxyphenyl)methyl]-6-methyl-chromen-4-one

> <PUBCHEM_IUPAC_CAS_NAME>
5,7-dihydroxy-3-[(4-methoxyphenyl)methyl]-6-methyl-1-benzopyran-4-one

> <PUBCHEM_IUPAC_NAME>
5,7-dihydroxy-3-[(4-methoxyphenyl)methyl]-6-methylchromen-4-one

> <PUBCHEM_IUPAC_SYSTEMATIC_NAME>
3-[(4-methoxyphenyl)methyl]-6-methyl-5,7-bis(oxidanyl)chromen-4-one

> <PUBCHEM_IUPAC_TRADITIONAL_NAME>
5,7-dihydroxy-6-methyl-3-p-anisyl-chromone

> <PUBCHEM_IUPAC_INCHI>
InChI=1S/C18H16O5/c1-10-14(19)8-15-16(17(10)20)18(21)12(9-23-15)7-11-3-5-13(22-2)6-4-11/h3-6,8-9,19-20H,7H2,1-2H3

> <PUBCHEM_IUPAC_INCHIKEY>
DVZDRBCAEIJEEA-UHFFFAOYSA-N

> <PUBCHEM_XLOGP3_AA>
3.7

> <PUBCHEM_EXACT_MASS>
312.099774

> <PUBCHEM_MOLECULAR_FORMULA>
C18H16O5

> <PUBCHEM_MOLECULAR_WEIGHT>
312.31664

> <PUBCHEM_OPENEYE_CAN_SMILES>
CC1=C(C=C2C(=C1O)C(=O)C(=CO2)CC3=CC=C(C=C3)OC)O

> <PUBCHEM_OPENEYE_ISO_SMILES>
CC1=C(C=C2C(=C1O)C(=O)C(=CO2)CC3=CC=C(C=C3)OC)O

> <PUBCHEM_CACTVS_TPSA>
76

> <PUBCHEM_MONOISOTOPIC_WEIGHT>
312.099774

> <PUBCHEM_TOTAL_CHARGE>
0

> <PUBCHEM_HEAVY_ATOM_COUNT>
23

> <PUBCHEM_ATOM_DEF_STEREO_COUNT>
0

> <PUBCHEM_ATOM_UDEF_STEREO_COUNT>
0

> <PUBCHEM_BOND_DEF_STEREO_COUNT>
0

> <PUBCHEM_BOND_UDEF_STEREO_COUNT>
0

> <PUBCHEM_ISOTOPIC_ATOM_COUNT>
0

> <PUBCHEM_COMPONENT_COUNT>
1

> <PUBCHEM_CACTVS_TAUTO_COUNT>
12

> <PUBCHEM_COORDINATE_TYPE>
1
5
255

> <PUBCHEM_BONDANNOTATIONS>
1  10  8
1  14  8
10  15  8
11  13  8
12  17  8
12  18  8
13  16  8
15  16  8
17  20  8
18  21  8
20  22  8
21  22  8
6  10  8
6  11  8
6  9  8
7  14  8
7  9  8

$$$$

