3996
  -OEChem-06251223482D

 53 55  0     0  0  0  0  0  0999 V2000
    6.0683   -0.1419    0.0000 O   0  0  0  0  0  0  0  0  0  0  0  0
    9.5984   -0.1661    0.0000 O   0  0  0  0  0  0  0  0  0  0  0  0
    7.8167    2.8927    0.0000 O   0  0  0  0  0  0  0  0  0  0  0  0
    6.0683    2.8581    0.0000 O   0  0  0  0  0  0  0  0  0  0  0  0
    2.5381    1.8822    0.0000 O   0  0  0  0  0  0  0  0  0  0  0  0
    2.5381   -0.1661    0.0000 O   0  0  0  0  0  0  0  0  0  0  0  0
    9.5984    1.8822    0.0000 C   0  0  0  0  0  0  0  0  0  0  0  0
    8.7343    1.3789    0.0000 C   0  0  0  0  0  0  0  0  0  0  0  0
    7.8282   -0.1766    0.0000 C   0  0  0  0  0  0  0  0  0  0  0  0
    8.7343    0.3372    0.0000 C   0  0  0  0  0  0  0  0  0  0  0  0
    7.8282    1.8927    0.0000 C   0  0  0  0  0  0  0  0  0  0  0  0
    6.9343    1.3581    0.0000 C   0  0  0  0  0  0  0  0  0  0  0  0
    6.9343    0.3581    0.0000 C   0  0  0  0  0  0  0  0  0  0  0  0
   10.1017    1.0181    0.0000 C   0  0  0  0  0  0  0  0  0  0  0  0
    9.0950    2.7463    0.0000 C   0  0  0  0  0  0  0  0  0  0  0  0
   10.4625    2.3855    0.0000 C   0  0  0  0  0  0  0  0  0  0  0  0
    7.8167   -1.1765    0.0000 C   0  0  0  0  0  0  0  0  0  0  0  0
    6.0683    1.8581    0.0000 C   0  0  0  0  0  0  0  0  0  0  0  0
    5.2022    1.3581    0.0000 C   0  0  0  0  0  0  0  0  0  0  0  0
    5.2022    0.3581    0.0000 C   0  0  0  0  0  0  0  0  0  0  0  0
    8.6768   -1.6865    0.0000 C   0  0  0  0  0  0  0  0  0  0  0  0
    4.3083    1.8927    0.0000 C   0  0  0  0  0  0  0  0  0  0  0  0
    4.3083   -0.1766    0.0000 C   0  0  0  0  0  0  0  0  0  0  0  0
   11.3304    1.8889    0.0000 C   0  0  0  0  0  0  0  0  0  0  0  0
    8.6653   -2.6864    0.0000 C   0  0  0  0  0  0  0  0  0  0  0  0
    3.4022    1.3789    0.0000 C   0  0  0  0  0  0  0  0  0  0  0  0
    3.4022    0.3372    0.0000 C   0  0  0  0  0  0  0  0  0  0  0  0
    9.5255   -3.1964    0.0000 C   0  0  0  0  0  0  0  0  0  0  0  0
    7.7935   -3.1764    0.0000 C   0  0  0  0  0  0  0  0  0  0  0  0
    9.5660    0.7061    0.0000 H   0  0  0  0  0  0  0  0  0  0  0  0
   10.4138    0.4824    0.0000 H   0  0  0  0  0  0  0  0  0  0  0  0
   10.6375    1.3302    0.0000 H   0  0  0  0  0  0  0  0  0  0  0  0
    9.6308    3.0584    0.0000 H   0  0  0  0  0  0  0  0  0  0  0  0
    8.7830    3.2820    0.0000 H   0  0  0  0  0  0  0  0  0  0  0  0
    8.5593    2.4342    0.0000 H   0  0  0  0  0  0  0  0  0  0  0  0
   10.4601    3.0055    0.0000 H   0  0  0  0  0  0  0  0  0  0  0  0
    7.2074   -1.0618    0.0000 H   0  0  0  0  0  0  0  0  0  0  0  0
    7.5979   -1.7567    0.0000 H   0  0  0  0  0  0  0  0  0  0  0  0
    9.2173   -1.3827    0.0000 H   0  0  0  0  0  0  0  0  0  0  0  0
    9.5960   -0.7861    0.0000 H   0  0  0  0  0  0  0  0  0  0  0  0
    7.2762    3.1964    0.0000 H   0  0  0  0  0  0  0  0  0  0  0  0
    4.3155    2.5127    0.0000 H   0  0  0  0  0  0  0  0  0  0  0  0
    4.3155   -0.7966    0.0000 H   0  0  0  0  0  0  0  0  0  0  0  0
   11.3328    1.2689    0.0000 H   0  0  0  0  0  0  0  0  0  0  0  0
   11.8662    2.2010    0.0000 H   0  0  0  0  0  0  0  0  0  0  0  0
    5.5313    3.1681    0.0000 H   0  0  0  0  0  0  0  0  0  0  0  0
    9.2093   -3.7297    0.0000 H   0  0  0  0  0  0  0  0  0  0  0  0
   10.0588   -3.5126    0.0000 H   0  0  0  0  0  0  0  0  0  0  0  0
    9.8417   -2.6631    0.0000 H   0  0  0  0  0  0  0  0  0  0  0  0
    7.4898   -2.6359    0.0000 H   0  0  0  0  0  0  0  0  0  0  0  0
    7.2530   -3.4802    0.0000 H   0  0  0  0  0  0  0  0  0  0  0  0
    8.0973   -3.7169    0.0000 H   0  0  0  0  0  0  0  0  0  0  0  0
    2.0000    1.5743    0.0000 H   0  0  0  0  0  0  0  0  0  0  0  0
  1 13  1  0  0  0  0
  1 20  1  0  0  0  0
  2 10  1  0  0  0  0
  2 40  1  0  0  0  0
  3 11  1  0  0  0  0
  3 41  1  0  0  0  0
  4 18  1  0  0  0  0
  4 46  1  0  0  0  0
  5 26  1  0  0  0  0
  5 53  1  0  0  0  0
  6 27  2  0  0  0  0
  7  8  1  0  0  0  0
  7 14  1  0  0  0  0
  7 15  1  0  0  0  0
  7 16  1  0  0  0  0
  8 10  1  0  0  0  0
  8 11  2  0  0  0  0
  9 10  2  0  0  0  0
  9 13  1  0  0  0  0
  9 17  1  0  0  0  0
 11 12  1  0  0  0  0
 12 13  2  0  0  0  0
 12 18  1  0  0  0  0
 14 30  1  0  0  0  0
 14 31  1  0  0  0  0
 14 32  1  0  0  0  0
 15 33  1  0  0  0  0
 15 34  1  0  0  0  0
 15 35  1  0  0  0  0
 16 24  2  0  0  0  0
 16 36  1  0  0  0  0
 17 21  1  0  0  0  0
 17 37  1  0  0  0  0
 17 38  1  0  0  0  0
 18 19  2  0  0  0  0
 19 20  1  0  0  0  0
 19 22  1  0  0  0  0
 20 23  2  0  0  0  0
 21 25  2  0  0  0  0
 21 39  1  0  0  0  0
 22 26  2  0  0  0  0
 22 42  1  0  0  0  0
 23 27  1  0  0  0  0
 23 43  1  0  0  0  0
 24 44  1  0  0  0  0
 24 45  1  0  0  0  0
 25 28  1  0  0  0  0
 25 29  1  0  0  0  0
 26 27  1  0  0  0  0
 28 47  1  0  0  0  0
 28 48  1  0  0  0  0
 28 49  1  0  0  0  0
 29 50  1  0  0  0  0
 29 51  1  0  0  0  0
 29 52  1  0  0  0  0
M  END
> <PUBCHEM_COMPOUND_CID>
3996

> <PUBCHEM_COMPOUND_CANONICALIZED>
1

> <PUBCHEM_CACTVS_COMPLEXITY>
839

> <PUBCHEM_CACTVS_HBOND_ACCEPTOR>
6

> <PUBCHEM_CACTVS_HBOND_DONOR>
4

> <PUBCHEM_CACTVS_ROTATABLE_BOND>
4

> <PUBCHEM_CACTVS_SUBSKEYS>
AAADceB4OAAAAAAAAAAAAAAAAAAAAAAAAAAwQIAAAAAAAACBAAAAGgAACAAADgSAmAACBoAABgCIAqBSAAICCAAgIAAIiABECMgMJyKGMRqCeCClwBUIuYeA4PwPoAACCAAIAABAAAQQABAAAAAAAAAAAA==

> <PUBCHEM_IUPAC_OPENEYE_NAME>
7-(1,1-dimethylallyl)-2,6,8,9-tetrahydroxy-5-(3-methylbut-2-enyl)xanthen-3-one

> <PUBCHEM_IUPAC_CAS_NAME>
2,6,8,9-tetrahydroxy-7-(2-methylbut-3-en-2-yl)-5-(3-methylbut-2-enyl)-3-xanthenone

> <PUBCHEM_IUPAC_NAME>
2,6,8,9-tetrahydroxy-7-(2-methylbut-3-en-2-yl)-5-(3-methylbut-2-enyl)xanthen-3-one

> <PUBCHEM_IUPAC_SYSTEMATIC_NAME>
7-(2-methylbut-3-en-2-yl)-5-(3-methylbut-2-enyl)-2,6,8,9-tetrakis(oxidanyl)xanthen-3-one

> <PUBCHEM_IUPAC_TRADITIONAL_NAME>
7-(1,1-dimethylallyl)-2,6,8,9-tetrahydroxy-5-(3-methylbut-2-enyl)fluorone

> <PUBCHEM_IUPAC_INCHI>
InChI=1S/C23H24O6/c1-6-23(4,5)18-20(27)12(8-7-11(2)3)22-17(21(18)28)19(26)13-9-14(24)15(25)10-16(13)29-22/h6-7,9-10,24,26-28H,1,8H2,2-5H3

> <PUBCHEM_IUPAC_INCHIKEY>
CQWYIKOEPCLEMS-UHFFFAOYSA-N

> <PUBCHEM_XLOGP3_AA>
5

> <PUBCHEM_EXACT_MASS>
396.157288

> <PUBCHEM_MOLECULAR_FORMULA>
C23H24O6

> <PUBCHEM_MOLECULAR_WEIGHT>
396.43306

> <PUBCHEM_OPENEYE_CAN_SMILES>
CC(=CCC1=C(C(=C(C2=C1OC3=CC(=O)C(=CC3=C2O)O)O)C(C)(C)C=C)O)C

> <PUBCHEM_OPENEYE_ISO_SMILES>
CC(=CCC1=C(C(=C(C2=C1OC3=CC(=O)C(=CC3=C2O)O)O)C(C)(C)C=C)O)C

> <PUBCHEM_CACTVS_TPSA>
107

> <PUBCHEM_MONOISOTOPIC_WEIGHT>
396.157288

> <PUBCHEM_TOTAL_CHARGE>
0

> <PUBCHEM_HEAVY_ATOM_COUNT>
29

> <PUBCHEM_ATOM_DEF_STEREO_COUNT>
0

> <PUBCHEM_ATOM_UDEF_STEREO_COUNT>
0

> <PUBCHEM_BOND_DEF_STEREO_COUNT>
0

> <PUBCHEM_BOND_UDEF_STEREO_COUNT>
0

> <PUBCHEM_ISOTOPIC_ATOM_COUNT>
0

> <PUBCHEM_COMPONENT_COUNT>
1

> <PUBCHEM_CACTVS_TAUTO_COUNT>
114

> <PUBCHEM_COORDINATE_TYPE>
1
5
255

> <PUBCHEM_BONDANNOTATIONS>
1  13  8
1  20  8
11  12  8
12  13  8
12  18  8
18  19  8
19  22  8
20  23  8
22  26  8
23  27  8
26  27  8
8  10  8
8  11  8
9  10  8
9  13  8

$$$$

