51090925
  -OEChem-06241223003D

 41 43  0     1  0  0  0  0  0999 V2000
   -6.1539   -2.6519   -0.2529 F   0  0  0  0  0  0  0  0  0  0  0  0
   -5.0415   -1.9755    1.4953 F   0  0  0  0  0  0  0  0  0  0  0  0
   -6.4152   -0.6141    0.4757 F   0  0  0  0  0  0  0  0  0  0  0  0
    1.2501    2.4381    1.0769 O   0  0  0  0  0  0  0  0  0  0  0  0
   -3.6738   -0.0164   -0.0414 N   0  0  1  0  0  0  0  0  0  0  0  0
    0.3601    1.4397   -0.8189 N   0  0  0  0  0  0  0  0  0  0  0  0
    3.5847    0.8146    0.9400 N   0  0  0  0  0  0  0  0  0  0  0  0
   -1.9602    1.5350   -0.0734 C   0  0  1  0  0  0  0  0  0  0  0  0
   -3.2776    2.3142   -0.0861 C   0  0  0  0  0  0  0  0  0  0  0  0
   -2.3409    0.1632   -0.6180 C   0  0  0  0  0  0  0  0  0  0  0  0
   -4.3650    1.2559   -0.2614 C   0  0  0  0  0  0  0  0  0  0  0  0
   -0.8512    2.2063   -0.8660 C   0  0  0  0  0  0  0  0  0  0  0  0
   -4.3854   -1.1446   -0.6228 C   0  0  0  0  0  0  0  0  0  0  0  0
   -5.5065   -1.5945    0.2864 C   0  0  0  0  0  0  0  0  0  0  0  0
    1.3287    1.6200    0.1641 C   0  0  0  0  0  0  0  0  0  0  0  0
    2.5388    0.7648    0.0580 C   0  0  0  0  0  0  0  0  0  0  0  0
    2.8299   -0.1882   -0.8906 C   0  0  0  0  0  0  0  0  0  0  0  0
    4.5542   -0.0936    0.5788 C   0  0  0  0  0  0  0  0  0  0  0  0
    4.1026   -0.7402   -0.5736 C   0  0  0  0  0  0  0  0  0  0  0  0
    5.7836   -0.3895    1.1782 C   0  0  0  0  0  0  0  0  0  0  0  0
    4.9162   -1.7309   -1.1585 C   0  0  0  0  0  0  0  0  0  0  0  0
    6.5738   -1.3753    0.5803 C   0  0  0  0  0  0  0  0  0  0  0  0
    6.1487   -2.0370   -0.5701 C   0  0  0  0  0  0  0  0  0  0  0  0
   -1.6387    1.4203    0.9722 H   0  0  0  0  0  0  0  0  0  0  0  0
   -3.4016    2.8585    0.8570 H   0  0  0  0  0  0  0  0  0  0  0  0
   -3.3211    3.0438   -0.9024 H   0  0  0  0  0  0  0  0  0  0  0  0
   -1.6457   -0.6127   -0.2805 H   0  0  0  0  0  0  0  0  0  0  0  0
   -2.3709    0.1617   -1.7155 H   0  0  0  0  0  0  0  0  0  0  0  0
   -4.7791    1.3326   -1.2747 H   0  0  0  0  0  0  0  0  0  0  0  0
   -5.1759    1.4145    0.4558 H   0  0  0  0  0  0  0  0  0  0  0  0
   -1.1287    2.3118   -1.9207 H   0  0  0  0  0  0  0  0  0  0  0  0
   -0.6589    3.2100   -0.4702 H   0  0  0  0  0  0  0  0  0  0  0  0
   -3.7011   -1.9960   -0.7287 H   0  0  0  0  0  0  0  0  0  0  0  0
   -4.7657   -0.9239   -1.6275 H   0  0  0  0  0  0  0  0  0  0  0  0
    0.4923    0.7422   -1.5433 H   0  0  0  0  0  0  0  0  0  0  0  0
    3.6399    1.4284    1.7412 H   0  0  0  0  0  0  0  0  0  0  0  0
    2.2125   -0.4760   -1.7305 H   0  0  0  0  0  0  0  0  0  0  0  0
    6.1153    0.1250    2.0738 H   0  0  0  0  0  0  0  0  0  0  0  0
    4.5971   -2.2545   -2.0551 H   0  0  0  0  0  0  0  0  0  0  0  0
    7.5348   -1.6289    1.0207 H   0  0  0  0  0  0  0  0  0  0  0  0
    6.7805   -2.8001   -1.0169 H   0  0  0  0  0  0  0  0  0  0  0  0
  1 14  1  0  0  0  0
  2 14  1  0  0  0  0
  3 14  1  0  0  0  0
  4 15  2  0  0  0  0
  5 10  1  0  0  0  0
  5 11  1  0  0  0  0
  5 13  1  0  0  0  0
  6 12  1  0  0  0  0
  6 15  1  0  0  0  0
  6 35  1  0  0  0  0
  7 16  1  0  0  0  0
  7 18  1  0  0  0  0
  7 36  1  0  0  0  0
  8  9  1  0  0  0  0
  8 10  1  0  0  0  0
  8 12  1  0  0  0  0
  8 24  1  0  0  0  0
  9 11  1  0  0  0  0
  9 25  1  0  0  0  0
  9 26  1  0  0  0  0
 10 27  1  0  0  0  0
 10 28  1  0  0  0  0
 11 29  1  0  0  0  0
 11 30  1  0  0  0  0
 12 31  1  0  0  0  0
 12 32  1  0  0  0  0
 13 14  1  0  0  0  0
 13 33  1  0  0  0  0
 13 34  1  0  0  0  0
 15 16  1  0  0  0  0
 16 17  2  0  0  0  0
 17 19  1  0  0  0  0
 17 37  1  0  0  0  0
 18 19  1  0  0  0  0
 18 20  2  0  0  0  0
 19 21  2  0  0  0  0
 20 22  1  0  0  0  0
 20 38  1  0  0  0  0
 21 23  1  0  0  0  0
 21 39  1  0  0  0  0
 22 23  2  0  0  0  0
 22 40  1  0  0  0  0
 23 41  1  0  0  0  0
M  END
> <PUBCHEM_COMPOUND_CID>
51090925

> <PUBCHEM_CONFORMER_RMSD>
0.8

> <PUBCHEM_CONFORMER_DIVERSEORDER>
1
98
17
66
57
191
95
140
121
168
170
43
40
174
137
127
55
26
205
193
93
206
162
80
156
19
122
86
33
157
79
159
196
29
28
188
128
102
152
154
178
131
214
105
148
46
211
90
173
201
169
189
101
53
208
142
74
175
117
166
14
207
155
15
183
125
70
38
134
164
50
36
97
37
143
42
179
82
145
96
112
151
203
138
20
103
24
99
198
54
194
49
92
120
71
18
139
83
61
11
199
135
190
27
186
10
69
81
64
171
163
124
41
160
88
13
34
56
25
68
85
72
144
109
150
165
126
177
141
153
213
47
16
114
51
89
106
115
197
104
30
111
75
123
48
116
136
23
35
209
180
32
130
39
5
31
210
118
108
212
22
7
73
76
172
192
133
147
12
6
78
132
176
158
62
94
77
21
200
184
149
45
185
161
9
110
60
44
202
187
129
3
8
58
100
195
63
87
2
204
107
4
59
181
84
119
91
167
67
52
146
113
65
182

> <PUBCHEM_MMFF94_PARTIAL_CHARGES>
27
1 -0.34
10 0.27
11 0.27
12 0.3
13 0.27
14 1.02
15 0.71
16 -0.24
17 -0.15
18 -0.15
2 -0.34
20 -0.15
21 -0.15
22 -0.15
23 -0.15
3 -0.34
35 0.37
36 0.27
37 0.15
38 0.15
39 0.15
4 -0.57
40 0.15
41 0.15
5 -0.81
6 -0.73
7 0.03

> <PUBCHEM_EFFECTIVE_ROTOR_COUNT>
7

> <PUBCHEM_PHARMACOPHORE_FEATURES>
8
1 4 acceptor
1 5 cation
1 6 donor
1 7 cation
1 7 donor
5 5 8 9 10 11 rings
5 7 16 17 18 19 rings
6 18 19 20 21 22 23 rings

> <PUBCHEM_HEAVY_ATOM_COUNT>
23

> <PUBCHEM_ATOM_DEF_STEREO_COUNT>
0

> <PUBCHEM_ATOM_UDEF_STEREO_COUNT>
1

> <PUBCHEM_BOND_DEF_STEREO_COUNT>
0

> <PUBCHEM_BOND_UDEF_STEREO_COUNT>
0

> <PUBCHEM_ISOTOPIC_ATOM_COUNT>
0

> <PUBCHEM_COMPONENT_COUNT>
1

> <PUBCHEM_CACTVS_TAUTO_COUNT>
11

> <PUBCHEM_CONFORMER_ID>
030B95ED00000001

> <PUBCHEM_MMFF94_ENERGY>
37.4912

> <PUBCHEM_FEATURE_SELFOVERLAP>
40.686

> <PUBCHEM_SHAPE_FINGERPRINT>
10 15 6843923888942388983
10378564 45 10951776309133956648
11545043 162 18334863843630372721
11796584 16 18197222649123297884
11809386 21 18059018392318471241
12166972 35 17346594153758971567
12596602 18 17748825224067662346
12633257 1 16588306034273471477
12760667 363 18411139117818690423
13103583 49 15719401615788777652
13402501 40 18408322207029445582
13685833 64 18408040719299149450
14123256 34 18411414025257863462
14216079 64 18411138014023015159
14251751 18 18408041809920207773
14251764 30 18411418431762310378
14420673 8 18337667615972396623
14528608 73 11455892446875910241
14556957 393 15338547362158657254
14950920 106 16588311527636843891
15183329 4 14979956995304659730
15188451 53 18341337738071819927
15238133 3 6411002176469466810
15519825 34 15141256352212122687
15537594 2 17917146229448684169
17138139 8 17775289365558224314
17492 89 18339642218681564477
17627616 140 17773603912764721947
17780758 139 18040150751696263617
190975 80 18334865983151352896
193927 3 18272365335418266673
20028762 73 18409167697117085982
20281389 69 8286198353270610276
20403669 9 18411697673277029295
20621476 21 18335133237201637910
21054139 6 17846499275102476570
21196832 93 17559377081764428050
21315759 148 18113904909534696696
21401589 2 7781518148630407653
21623969 137 17822012042855144422
21682296 61 18339640041365370803
229767 44 17894916170415517495
23424784 1240 18042117821016931078
23522609 53 18123998374106213341
23559900 14 18339932524095627069
25122255 55 18413103944622980339
270888 7 8574720091619541143
2748736 6 8214148421555065339
2838139 119 9943516393503855176
2916195 48 8790879692294246309
3004659 81 17846779598410662884
3014063 24 18188496770532614935
3089732 80 18410853261110759158
312425 54 18115019830903783281
316301 35 18410859819715308610
3472631 163 8790888480018698033
3862424 121 16054607415806139419
4073 2 18263082266019058984
465052 167 18334011683922751916
5104073 3 18114184159349590048
543368 44 9655582903320553471
559249 180 18343022220757582197
56633871 153 18189617151390813703
5718773 13 18337114450202993359
6009941 240 18043251438394487464
636775 8 18188761890838566510
7808743 9 7997969063919704181
7970288 3 18341051796793968431
8863177 126 18335984194534121830
999808 66 18411695499981522363

> <PUBCHEM_SHAPE_MULTIPOLES>
430.7
18.24
2.7
1.07
1.26
0.1
0.09
15.12
2.62
2.89
0.04
-0.63
0.13
1.51

> <PUBCHEM_SHAPE_SELFOVERLAP>
924.855

> <PUBCHEM_SHAPE_VOLUME>
241.1

> <PUBCHEM_COORDINATE_TYPE>
2
5
10

$$$$

