3082301
  -OEChem-07051213093D

 72 75  0     1  0  0  0  0  0999 V2000
   -2.0615   -1.9072   -0.6490 O   0  0  0  0  0  0  0  0  0  0  0  0
    0.2468   -1.7945   -0.3281 O   0  0  0  0  0  0  0  0  0  0  0  0
   -3.5922   -1.1995    0.9545 O   0  0  0  0  0  0  0  0  0  0  0  0
    2.3072   -0.0561    0.2092 O   0  0  0  0  0  0  0  0  0  0  0  0
    4.5699    0.4218    0.5191 O   0  0  0  0  0  0  0  0  0  0  0  0
   -2.0576   -4.5334    0.4050 O   0  0  0  0  0  0  0  0  0  0  0  0
    2.6984   -4.2076    0.9289 O   0  0  0  0  0  0  0  0  0  0  0  0
    0.5316   -5.8786   -0.0031 O   0  0  0  0  0  0  0  0  0  0  0  0
   -2.1659   -0.2562   -3.9553 O   0  0  0  0  0  0  0  0  0  0  0  0
    1.8951    2.5920   -0.6995 O   0  0  0  0  0  0  0  0  0  0  0  0
    3.8590    4.4660    0.4457 O   0  0  0  0  0  0  0  0  0  0  0  0
    6.5467    3.4717    0.0676 O   0  0  0  0  0  0  0  0  0  0  0  0
   -6.2161    2.6013    0.4614 O   0  0  0  0  0  0  0  0  0  0  0  0
   -5.8414    1.8971    2.6347 O   0  0  0  0  0  0  0  0  0  0  0  0
    7.0768   -0.7054    0.4896 O   0  0  0  0  0  0  0  0  0  0  0  0
   -3.2198    0.1507   -1.0974 C   0  0  2  0  0  0  0  0  0  0  0  0
   -4.0447    1.3116   -0.4958 C   0  0  2  0  0  0  0  0  0  0  0  0
   -2.6242   -0.7614   -0.0087 C   0  0  2  0  0  0  0  0  0  0  0  0
   -3.0792    2.5041   -0.4184 C   0  0  0  0  0  0  0  0  0  0  0  0
   -2.1644    0.9027   -1.8713 C   0  0  0  0  0  0  0  0  0  0  0  0
   -0.9593   -2.4267    0.0941 C   0  0  2  0  0  0  0  0  0  0  0  0
    1.3889   -2.2536    0.3970 C   0  0  1  0  0  0  0  0  0  0  0  0
   -0.8908   -3.9332   -0.1567 C   0  0  1  0  0  0  0  0  0  0  0  0
    1.6083   -3.7455    0.1356 C   0  0  2  0  0  0  0  0  0  0  0  0
    0.3542   -4.5474    0.4836 C   0  0  2  0  0  0  0  0  0  0  0  0
   -2.0929    2.1851   -1.4919 C   0  0  0  0  0  0  0  0  0  0  0  0
   -4.6672    0.9454    0.8089 C   0  0  0  0  0  0  0  0  0  0  0  0
    2.5847   -1.4197   -0.0524 C   0  0  0  0  0  0  0  0  0  0  0  0
   -1.3366    0.2498   -2.9200 C   0  0  0  0  0  0  0  0  0  0  0  0
    3.3872    0.7886   -0.1875 C   0  0  2  0  0  0  0  0  0  0  0  0
   -4.4437   -0.2288    1.4064 C   0  0  0  0  0  0  0  0  0  0  0  0
    2.9979    2.2318    0.1320 C   0  0  1  0  0  0  0  0  0  0  0  0
    4.1605    3.1910   -0.1234 C   0  0  2  0  0  0  0  0  0  0  0  0
    5.4506    2.6800    0.5182 C   0  0  1  0  0  0  0  0  0  0  0  0
    5.6983    1.2157    0.1482 C   0  0  1  0  0  0  0  0  0  0  0  0
   -5.6311    1.8536    1.4318 C   0  0  0  0  0  0  0  0  0  0  0  0
    6.9167    0.6491    0.8702 C   0  0  0  0  0  0  0  0  0  0  0  0
   -7.1904    3.5457    0.9168 C   0  0  0  0  0  0  0  0  0  0  0  0
   -3.8563   -0.4344   -1.7736 H   0  0  0  0  0  0  0  0  0  0  0  0
   -4.8327    1.5485   -1.2268 H   0  0  0  0  0  0  0  0  0  0  0  0
   -1.8389   -0.2106    0.5315 H   0  0  0  0  0  0  0  0  0  0  0  0
   -3.6009    3.4438   -0.6259 H   0  0  0  0  0  0  0  0  0  0  0  0
   -2.5734    2.5876    0.5499 H   0  0  0  0  0  0  0  0  0  0  0  0
   -1.1165   -2.2457    1.1672 H   0  0  0  0  0  0  0  0  0  0  0  0
    1.2242   -2.0604    1.4658 H   0  0  0  0  0  0  0  0  0  0  0  0
   -0.9102   -4.1472   -1.2319 H   0  0  0  0  0  0  0  0  0  0  0  0
    1.8711   -3.9188   -0.9152 H   0  0  0  0  0  0  0  0  0  0  0  0
    0.2382   -4.6286    1.5714 H   0  0  0  0  0  0  0  0  0  0  0  0
   -1.3980    2.9079   -1.8953 H   0  0  0  0  0  0  0  0  0  0  0  0
    2.7464   -1.5469   -1.1298 H   0  0  0  0  0  0  0  0  0  0  0  0
    3.4832   -1.7396    0.4860 H   0  0  0  0  0  0  0  0  0  0  0  0
    3.5417    0.6601   -1.2676 H   0  0  0  0  0  0  0  0  0  0  0  0
   -0.7567   -0.5790   -2.5090 H   0  0  0  0  0  0  0  0  0  0  0  0
   -0.6255    0.9522   -3.3680 H   0  0  0  0  0  0  0  0  0  0  0  0
    2.6540    2.3188    1.1696 H   0  0  0  0  0  0  0  0  0  0  0  0
   -4.9427   -0.5678    2.3045 H   0  0  0  0  0  0  0  0  0  0  0  0
    4.3081    3.3579   -1.1975 H   0  0  0  0  0  0  0  0  0  0  0  0
    5.3765    2.7995    1.6070 H   0  0  0  0  0  0  0  0  0  0  0  0
    5.8629    1.1067   -0.9324 H   0  0  0  0  0  0  0  0  0  0  0  0
   -2.0561   -4.3588    1.3616 H   0  0  0  0  0  0  0  0  0  0  0  0
    2.4796   -4.0472    1.8628 H   0  0  0  0  0  0  0  0  0  0  0  0
   -0.2819   -6.3719    0.1989 H   0  0  0  0  0  0  0  0  0  0  0  0
    7.8341    1.1825    0.6080 H   0  0  0  0  0  0  0  0  0  0  0  0
    6.7886    0.6782    1.9573 H   0  0  0  0  0  0  0  0  0  0  0  0
    2.1808    2.5227   -1.6264 H   0  0  0  0  0  0  0  0  0  0  0  0
   -2.6573    0.4929   -4.3342 H   0  0  0  0  0  0  0  0  0  0  0  0
    3.0236    4.7693    0.0506 H   0  0  0  0  0  0  0  0  0  0  0  0
    7.3003    3.2995    0.6566 H   0  0  0  0  0  0  0  0  0  0  0  0
    6.2577   -1.1752    0.7221 H   0  0  0  0  0  0  0  0  0  0  0  0
   -8.0163    3.0279    1.4136 H   0  0  0  0  0  0  0  0  0  0  0  0
   -6.7270    4.2715    1.5917 H   0  0  0  0  0  0  0  0  0  0  0  0
   -7.5822    4.0769    0.0453 H   0  0  0  0  0  0  0  0  0  0  0  0
  1 18  1  0  0  0  0
  1 21  1  0  0  0  0
  2 21  1  0  0  0  0
  2 22  1  0  0  0  0
  3 18  1  0  0  0  0
  3 31  1  0  0  0  0
  4 28  1  0  0  0  0
  4 30  1  0  0  0  0
  5 30  1  0  0  0  0
  5 35  1  0  0  0  0
  6 23  1  0  0  0  0
  6 60  1  0  0  0  0
  7 24  1  0  0  0  0
  7 61  1  0  0  0  0
  8 25  1  0  0  0  0
  8 62  1  0  0  0  0
  9 29  1  0  0  0  0
  9 66  1  0  0  0  0
 10 32  1  0  0  0  0
 10 65  1  0  0  0  0
 11 33  1  0  0  0  0
 11 67  1  0  0  0  0
 12 34  1  0  0  0  0
 12 68  1  0  0  0  0
 13 36  1  0  0  0  0
 13 38  1  0  0  0  0
 14 36  2  0  0  0  0
 15 37  1  0  0  0  0
 15 69  1  0  0  0  0
 16 17  1  0  0  0  0
 16 18  1  0  0  0  0
 16 20  1  0  0  0  0
 16 39  1  0  0  0  0
 17 19  1  0  0  0  0
 17 27  1  0  0  0  0
 17 40  1  0  0  0  0
 18 41  1  0  0  0  0
 19 26  1  0  0  0  0
 19 42  1  0  0  0  0
 19 43  1  0  0  0  0
 20 26  2  0  0  0  0
 20 29  1  0  0  0  0
 21 23  1  0  0  0  0
 21 44  1  0  0  0  0
 22 24  1  0  0  0  0
 22 28  1  0  0  0  0
 22 45  1  0  0  0  0
 23 25  1  0  0  0  0
 23 46  1  0  0  0  0
 24 25  1  0  0  0  0
 24 47  1  0  0  0  0
 25 48  1  0  0  0  0
 26 49  1  0  0  0  0
 27 31  2  0  0  0  0
 27 36  1  0  0  0  0
 28 50  1  0  0  0  0
 28 51  1  0  0  0  0
 29 53  1  0  0  0  0
 29 54  1  0  0  0  0
 30 32  1  0  0  0  0
 30 52  1  0  0  0  0
 31 56  1  0  0  0  0
 32 33  1  0  0  0  0
 32 55  1  0  0  0  0
 33 34  1  0  0  0  0
 33 57  1  0  0  0  0
 34 35  1  0  0  0  0
 34 58  1  0  0  0  0
 35 37  1  0  0  0  0
 35 59  1  0  0  0  0
 37 63  1  0  0  0  0
 37 64  1  0  0  0  0
 38 70  1  0  0  0  0
 38 71  1  0  0  0  0
 38 72  1  0  0  0  0
M  END
> <PUBCHEM_COMPOUND_CID>
3082301

> <PUBCHEM_CONFORMER_RMSD>
1.2

> <PUBCHEM_CONFORMER_DIVERSEORDER>
1
177
57
99
22
43
63
64
49
111
156
143
27
104
62
189
159
78
172
136
163
17
96
134
188
88
76
48
70
165
108
112
74
178
115
179
28
201
116
127
119
44
171
185
29
170
87
65
15
90
73
105
89
176
21
122
144
130
160
133
55
7
173
32
168
202
140
195
155
128
58
12
137
110
193
187
121
124
30
102
80
129
145
97
91
198
35
181
24
60
200
148
152
162
67
9
149
5
138
84
114
51
175
101
199
41
141
34
79
85
68
196
158
117
184
194
31
16
150
203
98
14
167
42
113
8
192
53
120
182
174
125
72
118
131
146
164
18
26
69
103
33
135
36
154
157
56
4
123
169
83
190
10
75
197
183
37
92
186
50
95
161
25
142
11
94
46
2
93
13
61
139
151
66
106
86
100
59
45
166
54
40
81
109
47
71
153
6
191
132
82
19
126
180
23
38
107
147
39
20
77
52
3

> <PUBCHEM_MMFF94_PARTIAL_CHARGES>
48
1 -0.56
10 -0.68
11 -0.68
12 -0.68
13 -0.43
14 -0.57
15 -0.68
16 0.14
17 0.14
18 0.56
19 0.14
2 -0.56
20 -0.28
21 0.56
22 0.28
23 0.28
24 0.28
25 0.28
26 -0.29
27 -0.12
28 0.28
29 0.42
3 -0.36
30 0.56
31 -0.07
32 0.28
33 0.28
34 0.28
35 0.28
36 0.71
37 0.28
38 0.28
4 -0.56
49 0.15
5 -0.56
56 0.15
6 -0.68
60 0.4
61 0.4
62 0.4
65 0.4
66 0.4
67 0.4
68 0.4
69 0.4
7 -0.68
8 -0.68
9 -0.68

> <PUBCHEM_EFFECTIVE_ROTOR_COUNT>
12

> <PUBCHEM_PHARMACOPHORE_FEATURES>
26
1 1 acceptor
1 10 acceptor
1 10 donor
1 11 acceptor
1 11 donor
1 12 acceptor
1 12 donor
1 14 acceptor
1 15 acceptor
1 15 donor
1 2 acceptor
1 3 acceptor
1 4 acceptor
1 5 acceptor
1 6 acceptor
1 6 donor
1 7 acceptor
1 7 donor
1 8 acceptor
1 8 donor
1 9 acceptor
1 9 donor
5 16 17 19 20 26 rings
6 2 21 22 23 24 25 rings
6 3 16 17 18 27 31 rings
6 5 30 32 33 34 35 rings

> <PUBCHEM_HEAVY_ATOM_COUNT>
38

> <PUBCHEM_ATOM_DEF_STEREO_COUNT>
13

> <PUBCHEM_ATOM_UDEF_STEREO_COUNT>
0

> <PUBCHEM_BOND_DEF_STEREO_COUNT>
0

> <PUBCHEM_BOND_UDEF_STEREO_COUNT>
0

> <PUBCHEM_ISOTOPIC_ATOM_COUNT>
0

> <PUBCHEM_COMPONENT_COUNT>
1

> <PUBCHEM_CACTVS_TAUTO_COUNT>
1

> <PUBCHEM_CONFORMER_ID>
002F083D00000001

> <PUBCHEM_MMFF94_ENERGY>
100.0738

> <PUBCHEM_FEATURE_SELFOVERLAP>
132.23

> <PUBCHEM_SHAPE_FINGERPRINT>
10305334 12 18261109652032983965
12107183 9 18341060632021407146
12422481 6 17632573829714354421
12677640 9 18191863432382039257
14363568 33 18124030397508349166
151778 21 18411419552701230603
15392192 29 18408325498171217412
15400415 2 18410855434449191745
16112460 7 18336827494684437344
18393751 57 18272084968517212747
19309040 13 18040150704261349268
19319366 153 18260830444561862393
20691028 202 18336268955414652152
22122407 14 17974274719704665905
25019877 29 17826495691996428871
3178227 256 18343021138478818144
469060 322 16557641715636535703
563151 74 18337379548342212977
6700243 42 17038621836616006318

> <PUBCHEM_SHAPE_MULTIPOLES>
693.98
15.82
6.88
1.82
6.53
7.83
1.67
-20.79
-8.04
3.18
-1.46
-3.06
-0.58
-1.18

> <PUBCHEM_SHAPE_SELFOVERLAP>
1459.829

> <PUBCHEM_SHAPE_VOLUME>
384.5

> <PUBCHEM_COORDINATE_TYPE>
2
5
10

$$$$

