9570225
  -OEChem-07051213133D

 39 41  0     0  0  0  0  0  0999 V2000
    2.7137    2.5644    0.1113 O   0  0  0  0  0  0  0  0  0  0  0  0
    3.8209   -2.8217   -0.2928 O   0  0  0  0  0  0  0  0  0  0  0  0
   -0.4986    2.2980   -0.4072 O   0  0  0  0  0  0  0  0  0  0  0  0
    0.6227    0.7050    0.3971 N   0  0  0  0  0  0  0  0  0  0  0  0
   -0.3645   -0.1995    0.5341 N   0  0  0  0  0  0  0  0  0  0  0  0
   -2.7842   -0.5260    0.1779 C   0  0  0  0  0  0  0  0  0  0  0  0
   -3.9527    0.1038   -0.2800 C   0  0  0  0  0  0  0  0  0  0  0  0
   -1.5170    0.2396    0.1468 C   0  0  0  0  0  0  0  0  0  0  0  0
   -2.8379   -1.8442    0.6473 C   0  0  0  0  0  0  0  0  0  0  0  0
   -3.9347    1.4809   -0.7777 C   0  0  0  0  0  0  0  0  0  0  0  0
    1.9423    0.2931    0.1535 C   0  0  0  0  0  0  0  0  0  0  0  0
   -1.5370    1.6549   -0.3745 C   0  0  0  0  0  0  0  0  0  0  0  0
   -5.1649   -0.6010   -0.2604 C   0  0  0  0  0  0  0  0  0  0  0  0
   -2.8210    2.2161   -0.8284 C   0  0  0  0  0  0  0  0  0  0  0  0
    2.9722    1.2296    0.0143 C   0  0  0  0  0  0  0  0  0  0  0  0
   -4.0519   -2.5330    0.6605 C   0  0  0  0  0  0  0  0  0  0  0  0
   -5.2132   -1.9137    0.2080 C   0  0  0  0  0  0  0  0  0  0  0  0
    2.2351   -1.0708    0.0495 C   0  0  0  0  0  0  0  0  0  0  0  0
    3.5425   -1.4934   -0.1911 C   0  0  0  0  0  0  0  0  0  0  0  0
    4.2796    0.8071   -0.2264 C   0  0  0  0  0  0  0  0  0  0  0  0
    4.5648   -0.5545   -0.3291 C   0  0  0  0  0  0  0  0  0  0  0  0
    2.8052    3.1489    1.4088 C   0  0  0  0  0  0  0  0  0  0  0  0
    5.1785   -3.1836   -0.5412 C   0  0  0  0  0  0  0  0  0  0  0  0
   -1.9432   -2.3466    1.0048 H   0  0  0  0  0  0  0  0  0  0  0  0
   -4.8721    1.9114   -1.1169 H   0  0  0  0  0  0  0  0  0  0  0  0
   -6.0844   -0.1363   -0.6094 H   0  0  0  0  0  0  0  0  0  0  0  0
   -2.8317    3.2336   -1.2010 H   0  0  0  0  0  0  0  0  0  0  0  0
    0.5132    1.6416    0.7702 H   0  0  0  0  0  0  0  0  0  0  0  0
   -4.0896   -3.5555    1.0253 H   0  0  0  0  0  0  0  0  0  0  0  0
    1.4613   -1.8279    0.1518 H   0  0  0  0  0  0  0  0  0  0  0  0
   -6.1564   -2.4520    0.2194 H   0  0  0  0  0  0  0  0  0  0  0  0
    5.0803    1.5337   -0.3356 H   0  0  0  0  0  0  0  0  0  0  0  0
    5.6012   -0.8130   -0.5171 H   0  0  0  0  0  0  0  0  0  0  0  0
    3.8414    3.1276    1.7609 H   0  0  0  0  0  0  0  0  0  0  0  0
    2.4817    4.1910    1.3381 H   0  0  0  0  0  0  0  0  0  0  0  0
    2.1580    2.6297    2.1226 H   0  0  0  0  0  0  0  0  0  0  0  0
    5.5251   -2.8059   -1.5091 H   0  0  0  0  0  0  0  0  0  0  0  0
    5.8334   -2.8788    0.2822 H   0  0  0  0  0  0  0  0  0  0  0  0
    5.2174   -4.2767   -0.5924 H   0  0  0  0  0  0  0  0  0  0  0  0
  1 15  1  0  0  0  0
  1 22  1  0  0  0  0
  2 19  1  0  0  0  0
  2 23  1  0  0  0  0
  3 12  2  0  0  0  0
  4  5  1  0  0  0  0
  4 11  1  0  0  0  0
  4 28  1  0  0  0  0
  5  8  2  0  0  0  0
  6  7  1  0  0  0  0
  6  8  1  0  0  0  0
  6  9  2  0  0  0  0
  7 10  1  0  0  0  0
  7 13  2  0  0  0  0
  8 12  1  0  0  0  0
  9 16  1  0  0  0  0
  9 24  1  0  0  0  0
 10 14  2  0  0  0  0
 10 25  1  0  0  0  0
 11 15  2  0  0  0  0
 11 18  1  0  0  0  0
 12 14  1  0  0  0  0
 13 17  1  0  0  0  0
 13 26  1  0  0  0  0
 14 27  1  0  0  0  0
 15 20  1  0  0  0  0
 16 17  2  0  0  0  0
 16 29  1  0  0  0  0
 17 31  1  0  0  0  0
 18 19  2  0  0  0  0
 18 30  1  0  0  0  0
 19 21  1  0  0  0  0
 20 21  2  0  0  0  0
 20 32  1  0  0  0  0
 21 33  1  0  0  0  0
 22 34  1  0  0  0  0
 22 35  1  0  0  0  0
 22 36  1  0  0  0  0
 23 37  1  0  0  0  0
 23 38  1  0  0  0  0
 23 39  1  0  0  0  0
M  END
> <PUBCHEM_COMPOUND_CID>
9570225

> <PUBCHEM_CONFORMER_RMSD>
0.6

> <PUBCHEM_CONFORMER_DIVERSEORDER>
1
21
3
11
19
10
20
15
6
9
8
5
22
13
16
7
18
4
14
17
12
2
23

> <PUBCHEM_MMFF94_PARTIAL_CHARGES>
33
1 -0.36
10 -0.18
11 0.1
12 0.56
13 -0.15
14 -0.14
15 0.08
16 -0.15
17 -0.15
18 -0.15
19 0.08
2 -0.36
20 -0.15
21 -0.15
22 0.28
23 0.28
24 0.15
25 0.15
26 0.15
27 0.15
28 0.4
29 0.15
3 -0.57
30 0.15
31 0.15
32 0.15
33 0.15
4 -0.46
5 -0.49
6 0.09
7 0.03
8 0.36
9 -0.15

> <PUBCHEM_EFFECTIVE_ROTOR_COUNT>
4

> <PUBCHEM_PHARMACOPHORE_FEATURES>
8
1 1 acceptor
1 2 acceptor
1 3 acceptor
1 4 donor
1 5 acceptor
6 11 15 18 19 20 21 rings
6 6 7 8 10 12 14 rings
6 6 7 9 13 16 17 rings

> <PUBCHEM_HEAVY_ATOM_COUNT>
23

> <PUBCHEM_ATOM_DEF_STEREO_COUNT>
0

> <PUBCHEM_ATOM_UDEF_STEREO_COUNT>
0

> <PUBCHEM_BOND_DEF_STEREO_COUNT>
1

> <PUBCHEM_BOND_UDEF_STEREO_COUNT>
0

> <PUBCHEM_ISOTOPIC_ATOM_COUNT>
0

> <PUBCHEM_COMPONENT_COUNT>
1

> <PUBCHEM_CACTVS_TAUTO_COUNT>
1

> <PUBCHEM_CONFORMER_ID>
009207B100000001

> <PUBCHEM_MMFF94_ENERGY>
113.6365

> <PUBCHEM_FEATURE_SELFOVERLAP>
40.625

> <PUBCHEM_SHAPE_FINGERPRINT>
10616163 171 18412544318926942247
10693767 8 18191042110182122663
11405975 8 18335137618015467417
11552529 35 17896036538609631947
12107183 9 17972584748451385569
12403259 226 18411140276916833740
12623949 98 18116697552704964511
12916754 54 18409164424477704025
13533116 47 18334293133087408571
13544653 18 18337667508555977289
13583140 156 18334582317082172332
13955234 65 18115591431290766448
14866123 147 17903071480002296481
14910302 57 18201728391511776349
15196674 1 18412262865134631967
15352361 1 18411980273413839207
15927050 60 16179875646698768453
15961568 22 17487902202987971524
17492 89 18411981360135848374
17844677 252 18335413548247401521
1813 80 17060063580209108813
200 152 18040999544170096937
20645477 70 18410575085001091778
20693207 138 18342176691155581789
21033650 10 16773518883746597253
21065198 57 18410012139268700325
21065201 7 18131075951901604793
21267235 1 18342168943425021427
21279426 13 18271253802577787325
221357 26 18411701010382085823
221490 88 18410853265874685690
22182313 1 18269572571367559629
22393880 68 18130513040587318022
23379529 103 18336539525358569854
23557571 272 18060424577633298549
23559900 14 18412550928575480276
2871803 45 18272654536645692443
3004659 81 18201437030111752110
335352 9 18267022954400513677
3421961 26 18335702719810521536
4073 2 18272646814257415323
4214541 1 18412826910600093293
4280585 95 17473823304729600414
44062 13 18268147737162301903
5104073 3 18335986449323355328
5281201 14 18412260644742061076
621550 34 18192721033343907704
6433294 58 18410291423817890926
6823239 73 18337961198567722058
7399639 24 18193287286327626656
9709674 26 18413388726450215299

> <PUBCHEM_SHAPE_MULTIPOLES>
445.76
12.14
3.58
0.85
0.37
0.24
0.1
7.28
-1.14
-2.54
0.24
0.01
-0.27
2.24

> <PUBCHEM_SHAPE_SELFOVERLAP>
974.973

> <PUBCHEM_SHAPE_VOLUME>
241.2

> <PUBCHEM_COORDINATE_TYPE>
2
5
10

$$$$

