36981
  -OEChem-07051213053D

 22 23  0     0  0  0  0  0  0999 V2000
    3.1517    2.6983   -0.0006 Cl  0  0  0  0  0  0  0  0  0  0  0  0
    3.1513   -2.6986   -0.0008 Cl  0  0  0  0  0  0  0  0  0  0  0  0
    0.1981    0.0000    0.0003 C   0  0  0  0  0  0  0  0  0  0  0  0
   -1.2488    0.0002    0.0001 C   0  0  0  0  0  0  0  0  0  0  0  0
    0.8957   -1.2079    0.0000 C   0  0  0  0  0  0  0  0  0  0  0  0
    0.8959    1.2080    0.0006 C   0  0  0  0  0  0  0  0  0  0  0  0
   -1.9461    0.0005   -1.2079 C   0  0  0  0  0  0  0  0  0  0  0  0
   -1.9463   -0.0003    1.2079 C   0  0  0  0  0  0  0  0  0  0  0  0
    2.2907    1.2079    0.0007 C   0  0  0  0  0  0  0  0  0  0  0  0
    2.2906   -1.2080   -0.0001 C   0  0  0  0  0  0  0  0  0  0  0  0
   -3.3410    0.0005   -1.2081 C   0  0  0  0  0  0  0  0  0  0  0  0
   -3.3412   -0.0005    1.2079 C   0  0  0  0  0  0  0  0  0  0  0  0
    2.9880    0.0000    0.0003 C   0  0  0  0  0  0  0  0  0  0  0  0
   -4.0385   -0.0001   -0.0002 C   0  0  0  0  0  0  0  0  0  0  0  0
    0.3537   -2.1518   -0.0004 H   0  0  0  0  0  0  0  0  0  0  0  0
    0.3541    2.1520    0.0006 H   0  0  0  0  0  0  0  0  0  0  0  0
   -1.4179    0.0008   -2.1586 H   0  0  0  0  0  0  0  0  0  0  0  0
   -1.4183   -0.0006    2.1586 H   0  0  0  0  0  0  0  0  0  0  0  0
    4.0759   -0.0002    0.0000 H   0  0  0  0  0  0  0  0  0  0  0  0
   -3.8841    0.0008   -2.1487 H   0  0  0  0  0  0  0  0  0  0  0  0
   -3.8845   -0.0009    2.1483 H   0  0  0  0  0  0  0  0  0  0  0  0
   -5.1246   -0.0002   -0.0003 H   0  0  0  0  0  0  0  0  0  0  0  0
  1  9  1  0  0  0  0
  2 10  1  0  0  0  0
  3  4  1  0  0  0  0
  3  5  2  0  0  0  0
  3  6  1  0  0  0  0
  4  7  2  0  0  0  0
  4  8  1  0  0  0  0
  5 10  1  0  0  0  0
  5 15  1  0  0  0  0
  6  9  2  0  0  0  0
  6 16  1  0  0  0  0
  7 11  1  0  0  0  0
  7 17  1  0  0  0  0
  8 12  2  0  0  0  0
  8 18  1  0  0  0  0
  9 13  1  0  0  0  0
 10 13  2  0  0  0  0
 11 14  2  0  0  0  0
 11 20  1  0  0  0  0
 12 14  1  0  0  0  0
 12 21  1  0  0  0  0
 13 19  1  0  0  0  0
 14 22  1  0  0  0  0
M  END
> <PUBCHEM_COMPOUND_CID>
36981

> <PUBCHEM_CONFORMER_RMSD>
0.4

> <PUBCHEM_CONFORMER_DIVERSEORDER>
1
2

> <PUBCHEM_MMFF94_PARTIAL_CHARGES>
20
1 -0.18
10 0.18
11 -0.15
12 -0.15
13 -0.15
14 -0.15
15 0.15
16 0.15
17 0.15
18 0.15
19 0.15
2 -0.18
20 0.15
21 0.15
22 0.15
5 -0.15
6 -0.15
7 -0.15
8 -0.15
9 0.18

> <PUBCHEM_EFFECTIVE_ROTOR_COUNT>
1

> <PUBCHEM_PHARMACOPHORE_FEATURES>
2
6 3 5 6 9 10 13 rings
6 4 7 8 11 12 14 rings

> <PUBCHEM_HEAVY_ATOM_COUNT>
14

> <PUBCHEM_ATOM_DEF_STEREO_COUNT>
0

> <PUBCHEM_ATOM_UDEF_STEREO_COUNT>
0

> <PUBCHEM_BOND_DEF_STEREO_COUNT>
0

> <PUBCHEM_BOND_UDEF_STEREO_COUNT>
0

> <PUBCHEM_ISOTOPIC_ATOM_COUNT>
0

> <PUBCHEM_COMPONENT_COUNT>
1

> <PUBCHEM_CACTVS_TAUTO_COUNT>
1

> <PUBCHEM_CONFORMER_ID>
0000907500000001

> <PUBCHEM_MMFF94_ENERGY>
39.7457

> <PUBCHEM_FEATURE_SELFOVERLAP>
10.149

> <PUBCHEM_SHAPE_FINGERPRINT>
10608611 8 18202570579017563701
107287 299 18201711817459898940
10980938 120 18408605829510584736
11031198 65 18341327795243784612
11471102 20 18411419509999444836
12236239 1 17676487250454039947
12553582 1 18120650486112045230
12707595 3 18200031888336860394
13296908 3 17704068508226898019
13538477 17 17386012736810649519
13581323 91 15051741862987496417
14144814 61 17531246162529376723
15219456 202 18060139821206478549
15279307 12 18114184068944111094
15442244 35 18191582166977965912
15669948 3 16805609123014770837
15775835 57 18114741525586926653
16945 1 18410573989910596614
1813 80 17897994975045794566
18186145 218 18335133146838500004
19026448 4 18131913758814498177
19026448 5 18113054939669851521
19049666 15 17774451614690784253
19422 9 18040154015718291079
19784866 34 18118403947564602520
200 152 18260557748819687591
20279233 1 17775569723621813123
204376 136 18123751959368902752
20645464 45 17417819396410200065
20645476 183 17749956548881910781
20645477 70 18340778112507787119
20671657 53 18267303329728446018
20715346 28 17846777390823703267
20871998 22 18045216304918664398
21499 59 18193558870078790756
21524375 3 18043815273654165460
21639500 275 18336837385371387084
21730867 7 18343581832745791926
22096605 113 18339651035637259509
22112679 90 17312822692819290921
2255824 54 18334855030784710166
22802520 49 18058739137750363933
22854114 111 18408884001588937968
22943178 12 17989486316555070907
23048698 100 18187080646431017785
23557571 272 17203605969712953613
23559900 14 16845296076765883450
23598291 2 17966968322386216365
25 1 18339077073799336188
458136 41 18269259184973412396
474 4 18190464852927305248
581208 293 18409453557296765720
6049 1 17846213397172266781
633830 44 18042951095953408428
7364860 26 18408603660984376548
7615 1 17821732757947731705
77492 1 17748545944035244161
81228 2 17402334166860433256
81539 233 18200875067974025940
88987 49 15719395044472853893

> <PUBCHEM_SHAPE_MULTIPOLES>
291.85
7
2.15
1.03
3.31
0
0
0
0
-4.14
0
1.09
0
0

> <PUBCHEM_SHAPE_SELFOVERLAP>
614.623

> <PUBCHEM_SHAPE_VOLUME>
159.1

> <PUBCHEM_COORDINATE_TYPE>
2
5
10

$$$$

