440165
  -OEChem-07051212493D

 21 20  0     1  0  0  0  0  0999 V2000
    0.2874   -2.1336    0.4964 O   0  0  0  0  0  0  0  0  0  0  0  0
    2.0834   -0.3248    1.7187 O   0  0  0  0  0  0  0  0  0  0  0  0
    2.8281    0.4041   -1.7236 O   0  0  0  0  0  0  0  0  0  0  0  0
   -1.9848   -1.2954   -0.8155 O   0  0  0  0  0  0  0  0  0  0  0  0
    2.9831    1.6679    0.1551 O   0  0  0  0  0  0  0  0  0  0  0  0
   -4.0309    0.2051   -0.3304 O   0  0  0  0  0  0  0  0  0  0  0  0
   -2.6885    1.7555    0.6806 O   0  0  0  0  0  0  0  0  0  0  0  0
    0.6831   -0.9232   -0.1575 C   0  0  2  0  0  0  0  0  0  0  0  0
    2.1016   -0.5917    0.3226 C   0  0  1  0  0  0  0  0  0  0  0  0
   -0.3389    0.1690    0.1726 C   0  0  0  0  0  0  0  0  0  0  0  0
   -1.7335   -0.2517   -0.2302 C   0  0  0  0  0  0  0  0  0  0  0  0
    2.6730    0.6175   -0.3919 C   0  0  0  0  0  0  0  0  0  0  0  0
   -2.8632    0.7014    0.1032 C   0  0  0  0  0  0  0  0  0  0  0  0
    0.6824   -1.1249   -1.2347 H   0  0  0  0  0  0  0  0  0  0  0  0
    2.7763   -1.4413    0.1742 H   0  0  0  0  0  0  0  0  0  0  0  0
   -0.0932    1.1017   -0.3444 H   0  0  0  0  0  0  0  0  0  0  0  0
   -0.3792    0.3488    1.2524 H   0  0  0  0  0  0  0  0  0  0  0  0
    0.2978   -1.9695    1.4551 H   0  0  0  0  0  0  0  0  0  0  0  0
    1.6287    0.5206    1.8688 H   0  0  0  0  0  0  0  0  0  0  0  0
    3.2058    1.1872   -2.1779 H   0  0  0  0  0  0  0  0  0  0  0  0
   -4.7845    0.8003   -0.1305 H   0  0  0  0  0  0  0  0  0  0  0  0
  1  8  1  0  0  0  0
  1 18  1  0  0  0  0
  2  9  1  0  0  0  0
  2 19  1  0  0  0  0
  3 12  1  0  0  0  0
  3 20  1  0  0  0  0
  4 11  2  0  0  0  0
  5 12  2  0  0  0  0
  6 13  1  0  0  0  0
  6 21  1  0  0  0  0
  7 13  2  0  0  0  0
  8  9  1  0  0  0  0
  8 10  1  0  0  0  0
  8 14  1  0  0  0  0
  9 12  1  0  0  0  0
  9 15  1  0  0  0  0
 10 11  1  0  0  0  0
 10 16  1  0  0  0  0
 10 17  1  0  0  0  0
 11 13  1  0  0  0  0
M  END
> <PUBCHEM_COMPOUND_CID>
440165

> <PUBCHEM_CONFORMER_RMSD>
0.6

> <PUBCHEM_CONFORMER_DIVERSEORDER>
2
53
47
30
29
1
45
36
35
20
44
17
23
49
31
42
12
56
34
27
40
4
54
52
22
51
8
26
19
6
41
10
28
46
21
5
13
43
37
11
55
38
25
9
3
15
33
14
32
48
50
18
7
39
16
24

> <PUBCHEM_MMFF94_PARTIAL_CHARGES>
17
1 -0.68
10 0.06
11 0.51
12 0.66
13 0.72
18 0.4
19 0.4
2 -0.68
20 0.5
21 0.5
3 -0.65
4 -0.57
5 -0.57
6 -0.65
7 -0.57
8 0.28
9 0.34

> <PUBCHEM_EFFECTIVE_ROTOR_COUNT>
5

> <PUBCHEM_PHARMACOPHORE_FEATURES>
11
1 1 acceptor
1 1 donor
1 2 acceptor
1 2 donor
1 3 acceptor
1 4 acceptor
1 5 acceptor
1 6 acceptor
1 7 acceptor
3 3 5 12 anion
3 6 7 13 anion

> <PUBCHEM_HEAVY_ATOM_COUNT>
13

> <PUBCHEM_ATOM_DEF_STEREO_COUNT>
2

> <PUBCHEM_ATOM_UDEF_STEREO_COUNT>
0

> <PUBCHEM_BOND_DEF_STEREO_COUNT>
0

> <PUBCHEM_BOND_UDEF_STEREO_COUNT>
0

> <PUBCHEM_ISOTOPIC_ATOM_COUNT>
0

> <PUBCHEM_COMPONENT_COUNT>
1

> <PUBCHEM_CACTVS_TAUTO_COUNT>
2

> <PUBCHEM_CONFORMER_ID>
0006B76500000002

> <PUBCHEM_MMFF94_ENERGY>
16.9432

> <PUBCHEM_FEATURE_SELFOVERLAP>
55.963

> <PUBCHEM_SHAPE_FINGERPRINT>
10149128 111 18343578542669039453
11715629 250 18335143085224089308
12932764 1 16630530660560765411
13764800 53 18271515395454747387
14390081 3 18407477764855737933
15775835 57 18272089370610355220
170605 34 18342454859002277251
17357990 137 18273214188396305844
177051 138 10447928364842028869
18186145 218 18334006198764321836
20279233 1 15864077550415357974
20559304 39 18339368577202540144
20653085 51 18187632605178013282
20671657 1 18339079405713493786
20671657 53 14562797885653605696
20715346 28 14333416661280241026
21524375 3 18342738515975478434
21730867 7 15985101937814385496
230 275 18260840339955086882
23402539 116 18187655652637343876
3248919 1 18342183305711302251

> <PUBCHEM_SHAPE_MULTIPOLES>
226.45
5.85
1.56
1.08
2.52
0.15
-0.01
-2.38
-0.63
-0.03
0.19
-0.79
0.01
-0.62

> <PUBCHEM_SHAPE_SELFOVERLAP>
447.25

> <PUBCHEM_SHAPE_VOLUME>
132.8

> <PUBCHEM_COORDINATE_TYPE>
2
5
10

$$$$

