73094
  -OEChem-07051212453D

 42 42  0     1  0  0  0  0  0999 V2000
    0.3991    3.9132    0.1372 Cl  0  0  0  0  0  0  0  0  0  0  0  0
    0.6158   -2.1487    0.0089 S   0  0  0  0  0  0  0  0  0  0  0  0
    0.3945   -2.6480   -1.3348 O   0  0  0  0  0  0  0  0  0  0  0  0
    0.7888   -3.0743    1.1120 O   0  0  0  0  0  0  0  0  0  0  0  0
   -0.2293    1.3778    1.4669 O   0  0  0  0  0  0  0  0  0  0  0  0
   -0.6093   -1.0404    0.4079 N   0  0  0  0  0  0  0  0  0  0  0  0
   -7.2463   -0.1599    0.0217 N   0  0  0  0  0  0  0  0  0  0  0  0
   -0.8776    0.1140   -0.4785 C   0  0  1  0  0  0  0  0  0  0  0  0
   -2.3162    0.0546   -1.0006 C   0  0  0  0  0  0  0  0  0  0  0  0
   -3.3848    0.0805    0.1014 C   0  0  0  0  0  0  0  0  0  0  0  0
   -4.8160   -0.0289   -0.4414 C   0  0  0  0  0  0  0  0  0  0  0  0
   -0.5741    1.3946    0.2850 C   0  0  0  0  0  0  0  0  0  0  0  0
   -5.9196   -0.0671    0.6180 C   0  0  0  0  0  0  0  0  0  0  0  0
    2.0475   -1.1123   -0.0235 C   0  0  0  0  0  0  0  0  0  0  0  0
   -0.6988    2.6813   -0.5054 C   0  0  0  0  0  0  0  0  0  0  0  0
    2.4099   -0.4982   -1.2098 C   0  0  0  0  0  0  0  0  0  0  0  0
    2.7796   -0.9344    1.1375 C   0  0  0  0  0  0  0  0  0  0  0  0
    4.2895    0.5101   -0.0751 C   0  0  0  0  0  0  0  0  0  0  0  0
    3.5397    0.3194   -1.2358 C   0  0  0  0  0  0  0  0  0  0  0  0
    3.9095   -0.1167    1.1116 C   0  0  0  0  0  0  0  0  0  0  0  0
    5.4982    1.3832   -0.1032 C   0  0  0  0  0  0  0  0  0  0  0  0
   -0.2173    0.0883   -1.3483 H   0  0  0  0  0  0  0  0  0  0  0  0
   -2.4403   -0.8657   -1.5860 H   0  0  0  0  0  0  0  0  0  0  0  0
   -2.4973    0.8889   -1.6891 H   0  0  0  0  0  0  0  0  0  0  0  0
   -3.2985    1.0067    0.6815 H   0  0  0  0  0  0  0  0  0  0  0  0
   -3.2206   -0.7486    0.7992 H   0  0  0  0  0  0  0  0  0  0  0  0
   -4.9959    0.8186   -1.1160 H   0  0  0  0  0  0  0  0  0  0  0  0
   -4.8875   -0.9349   -1.0575 H   0  0  0  0  0  0  0  0  0  0  0  0
   -0.9646   -0.9893    1.3703 H   0  0  0  0  0  0  0  0  0  0  0  0
   -5.7656   -0.9279    1.2776 H   0  0  0  0  0  0  0  0  0  0  0  0
   -5.8659    0.8348    1.2378 H   0  0  0  0  0  0  0  0  0  0  0  0
   -1.7255    3.0505   -0.4460 H   0  0  0  0  0  0  0  0  0  0  0  0
   -0.4218    2.5105   -1.5486 H   0  0  0  0  0  0  0  0  0  0  0  0
    1.8475   -0.6393   -2.1273 H   0  0  0  0  0  0  0  0  0  0  0  0
    2.4958   -1.4068    2.0728 H   0  0  0  0  0  0  0  0  0  0  0  0
   -7.9512   -0.1224    0.7568 H   0  0  0  0  0  0  0  0  0  0  0  0
   -7.4115    0.6498   -0.5748 H   0  0  0  0  0  0  0  0  0  0  0  0
    3.8279    0.7996   -2.1672 H   0  0  0  0  0  0  0  0  0  0  0  0
    4.4854    0.0241    2.0224 H   0  0  0  0  0  0  0  0  0  0  0  0
    6.3830    0.7917   -0.3583 H   0  0  0  0  0  0  0  0  0  0  0  0
    5.6636    1.8610    0.8684 H   0  0  0  0  0  0  0  0  0  0  0  0
    5.3881    2.1863   -0.8400 H   0  0  0  0  0  0  0  0  0  0  0  0
  1 15  1  0  0  0  0
  2  3  2  0  0  0  0
  2  4  2  0  0  0  0
  2  6  1  0  0  0  0
  2 14  1  0  0  0  0
  5 12  2  0  0  0  0
  6  8  1  0  0  0  0
  6 29  1  0  0  0  0
  7 13  1  0  0  0  0
  7 36  1  0  0  0  0
  7 37  1  0  0  0  0
  8  9  1  0  0  0  0
  8 12  1  0  0  0  0
  8 22  1  0  0  0  0
  9 10  1  0  0  0  0
  9 23  1  0  0  0  0
  9 24  1  0  0  0  0
 10 11  1  0  0  0  0
 10 25  1  0  0  0  0
 10 26  1  0  0  0  0
 11 13  1  0  0  0  0
 11 27  1  0  0  0  0
 11 28  1  0  0  0  0
 12 15  1  0  0  0  0
 13 30  1  0  0  0  0
 13 31  1  0  0  0  0
 14 16  2  0  0  0  0
 14 17  1  0  0  0  0
 15 32  1  0  0  0  0
 15 33  1  0  0  0  0
 16 19  1  0  0  0  0
 16 34  1  0  0  0  0
 17 20  2  0  0  0  0
 17 35  1  0  0  0  0
 18 19  2  0  0  0  0
 18 20  1  0  0  0  0
 18 21  1  0  0  0  0
 19 38  1  0  0  0  0
 20 39  1  0  0  0  0
 21 40  1  0  0  0  0
 21 41  1  0  0  0  0
 21 42  1  0  0  0  0
M  END
> <PUBCHEM_COMPOUND_CID>
73094

> <PUBCHEM_CONFORMER_RMSD>
0.8

> <PUBCHEM_CONFORMER_DIVERSEORDER>
2
50
97
233
225
179
41
87
8
191
190
165
67
172
228
209
316
10
292
108
104
263
31
113
116
62
317
306
211
330
302
342
318
283
141
131
128
159
85
45
21
344
180
78
278
102
40
319
273
226
210
310
241
262
38
340
324
334
96
6
72
166
205
309
86
346
282
308
314
213
44
56
325
163
114
100
332
201
91
259
290
34
237
170
58
99
240
71
257
130
16
174
212
52
328
76
286
199
331
27
111
348
118
349
53
284
1
238
305
82
146
215
49
184
155
288
161
206
95
242
192
277
33
258
149
208
126
135
77
73
280
89
350
246
343
291
3
79
236
133
148
125
32
30
119
14
304
115
147
300
219
347
11
254
269
195
243
244
323
5
230
110
298
83
197
202
101
43
183
36
333
92
121
162
169
75
341
178
336
90
61
338
25
69
4
143
93
168
60
194
24
29
177
175
299
272
248
285
9
124
13
22
47
140
160
293
274
139
59
48
129
80
227
55
249
94
345
156
132
154
352
157
311
265
134
301
313
109
239
63
19
287
28
267
173
351
105
326
188
276
252
223
218
171
196
18
15
256
122
65
46
42
264
26
167
138
320
214
207
123
120
64
68
127
193
235
70
221
81
37
303
217
189
12
271
222
279
74
88
247
145
142
151
204
182
117
106
136
224
322
103
245
84
234
150
270
39
232
35
321
54
200
231
216
255
266
164
198
137
7
312
51
181
268
144
251
107
66
57
253
289
296
329
337
281
176
260
294
229
112
275
220
17
23
158
335
20
261
250
327
187
185
186
203
315
307
152
153
339
98
297
295

> <PUBCHEM_MMFF94_PARTIAL_CHARGES>
25
1 -0.29
12 0.45
13 0.27
14 -0.01
15 0.35
16 -0.15
17 -0.15
18 -0.14
19 -0.15
2 1.45
20 -0.15
21 0.14
29 0.42
3 -0.65
34 0.15
35 0.15
36 0.36
37 0.36
38 0.15
39 0.15
4 -0.65
5 -0.57
6 -0.91
7 -0.99
8 0.42

> <PUBCHEM_EFFECTIVE_ROTOR_COUNT>
9

> <PUBCHEM_PHARMACOPHORE_FEATURES>
7
1 3 acceptor
1 4 acceptor
1 5 acceptor
1 6 donor
1 7 cation
1 7 donor
6 14 16 17 18 19 20 rings

> <PUBCHEM_HEAVY_ATOM_COUNT>
21

> <PUBCHEM_ATOM_DEF_STEREO_COUNT>
1

> <PUBCHEM_ATOM_UDEF_STEREO_COUNT>
0

> <PUBCHEM_BOND_DEF_STEREO_COUNT>
0

> <PUBCHEM_BOND_UDEF_STEREO_COUNT>
0

> <PUBCHEM_ISOTOPIC_ATOM_COUNT>
0

> <PUBCHEM_COMPONENT_COUNT>
1

> <PUBCHEM_CACTVS_TAUTO_COUNT>
3

> <PUBCHEM_CONFORMER_ID>
00011D8600000002

> <PUBCHEM_MMFF94_ENERGY>
19.8675

> <PUBCHEM_FEATURE_SELFOVERLAP>
35.538

> <PUBCHEM_SHAPE_FINGERPRINT>
10090160 65 18131358522211488027
10498660 4 18337952415096052236
1100329 8 18267021656845434828
12035758 1 18269835324539298305
12553582 1 18336275608465913567
13140716 1 18267305322851351043
13533116 47 17703234017899221578
13899415 154 18409439268051712017
14170010 4 18334576816089025865
14787075 74 18202286879316306843
14790565 3 18409442574918541297
14955137 171 18113611258125235159
15664445 248 18262222400370508820
15927050 60 17760364388169216773
1601671 61 18333733520297299799
17492 54 18269538478138742716
17492 89 18054517077455973011
18785283 64 18127121984083164533
20691752 17 18124063185240811216
20715895 44 17411922943047171957
21524375 3 18335985359029707642
23402539 116 18260836951806353630
23558518 356 17765432432551043377
4340502 62 16773800277039587210
44154327 71 18410856547197986502
537710 114 18342737416358277844
5486654 2 18341608196510222238
7495541 125 18059851715285436291

> <PUBCHEM_SHAPE_MULTIPOLES>
410.32
11.23
3.1
1.18
16.09
1.66
0.01
0.78
-0.59
-1.2
-0.21
-0.59
-0.26
-0.2

> <PUBCHEM_SHAPE_SELFOVERLAP>
799.722

> <PUBCHEM_SHAPE_VOLUME>
248.7

> <PUBCHEM_COORDINATE_TYPE>
2
5
10

$$$$

