5709
  -OEChem-07051212542D

 42 43  0     0  0  0  0  0  0999 V2000
    4.7026    3.0398    0.0000 N   0  0  0  0  0  0  0  0  0  0  0  0
    5.5116    1.6386    0.0000 N   0  0  0  0  0  0  0  0  0  0  0  0
    3.7320   -2.4547    0.0000 C   0  0  0  0  0  0  0  0  0  0  0  0
    3.7320   -1.4547    0.0000 C   0  0  0  0  0  0  0  0  0  0  0  0
    3.7320    0.5453    0.0000 C   0  0  0  0  0  0  0  0  0  0  0  0
    4.5981    0.0453    0.0000 C   0  0  0  0  0  0  0  0  0  0  0  0
    2.8660    0.0453    0.0000 C   0  0  0  0  0  0  0  0  0  0  0  0
    4.5981   -0.9547    0.0000 C   0  0  0  0  0  0  0  0  0  0  0  0
    2.8660   -0.9547    0.0000 C   0  0  0  0  0  0  0  0  0  0  0  0
    3.7320   -3.4547    0.0000 C   0  0  0  0  0  0  0  0  0  0  0  0
    2.7320   -2.4547    0.0000 C   0  0  0  0  0  0  0  0  0  0  0  0
    4.7320   -2.4547    0.0000 C   0  0  0  0  0  0  0  0  0  0  0  0
    3.7320    1.5453    0.0000 C   0  0  0  0  0  0  0  0  0  0  0  0
    4.5981    2.0453    0.0000 C   0  0  0  0  0  0  0  0  0  0  0  0
    5.4641    0.5453    0.0000 C   0  0  0  0  0  0  0  0  0  0  0  0
    2.0000    0.5453    0.0000 C   0  0  0  0  0  0  0  0  0  0  0  0
    5.6808    3.2477    0.0000 C   0  0  0  0  0  0  0  0  0  0  0  0
    6.1808    2.3817    0.0000 C   0  0  0  0  0  0  0  0  0  0  0  0
    5.1350   -1.2647    0.0000 H   0  0  0  0  0  0  0  0  0  0  0  0
    2.3291   -1.2647    0.0000 H   0  0  0  0  0  0  0  0  0  0  0  0
    3.1120   -3.4547    0.0000 H   0  0  0  0  0  0  0  0  0  0  0  0
    3.7320   -4.0747    0.0000 H   0  0  0  0  0  0  0  0  0  0  0  0
    4.3520   -3.4547    0.0000 H   0  0  0  0  0  0  0  0  0  0  0  0
    2.7320   -1.8347    0.0000 H   0  0  0  0  0  0  0  0  0  0  0  0
    2.1120   -2.4547    0.0000 H   0  0  0  0  0  0  0  0  0  0  0  0
    2.7320   -3.0747    0.0000 H   0  0  0  0  0  0  0  0  0  0  0  0
    4.7320   -3.0747    0.0000 H   0  0  0  0  0  0  0  0  0  0  0  0
    5.3520   -2.4547    0.0000 H   0  0  0  0  0  0  0  0  0  0  0  0
    4.7320   -1.8347    0.0000 H   0  0  0  0  0  0  0  0  0  0  0  0
    3.5200    2.1279    0.0000 H   0  0  0  0  0  0  0  0  0  0  0  0
    3.1215    1.4377    0.0000 H   0  0  0  0  0  0  0  0  0  0  0  0
    5.7741    0.0084    0.0000 H   0  0  0  0  0  0  0  0  0  0  0  0
    6.0010    0.8553    0.0000 H   0  0  0  0  0  0  0  0  0  0  0  0
    5.1541    1.0822    0.0000 H   0  0  0  0  0  0  0  0  0  0  0  0
    2.3100    1.0822    0.0000 H   0  0  0  0  0  0  0  0  0  0  0  0
    1.4631    0.8553    0.0000 H   0  0  0  0  0  0  0  0  0  0  0  0
    1.6900    0.0084    0.0000 H   0  0  0  0  0  0  0  0  0  0  0  0
    6.2472    3.4999    0.0000 H   0  0  0  0  0  0  0  0  0  0  0  0
    5.4892    3.8374    0.0000 H   0  0  0  0  0  0  0  0  0  0  0  0
    4.2418    3.4547    0.0000 H   0  0  0  0  0  0  0  0  0  0  0  0
    6.5956    1.9210    0.0000 H   0  0  0  0  0  0  0  0  0  0  0  0
    6.6823    2.7461    0.0000 H   0  0  0  0  0  0  0  0  0  0  0  0
  1 14  1  0  0  0  0
  1 17  1  0  0  0  0
  1 40  1  0  0  0  0
  2 14  2  0  0  0  0
  2 18  1  0  0  0  0
  3  4  1  0  0  0  0
  3 10  1  0  0  0  0
  3 11  1  0  0  0  0
  3 12  1  0  0  0  0
  4  8  2  0  0  0  0
  4  9  1  0  0  0  0
  5  6  2  0  0  0  0
  5  7  1  0  0  0  0
  5 13  1  0  0  0  0
  6  8  1  0  0  0  0
  6 15  1  0  0  0  0
  7  9  2  0  0  0  0
  7 16  1  0  0  0  0
  8 19  1  0  0  0  0
  9 20  1  0  0  0  0
 10 21  1  0  0  0  0
 10 22  1  0  0  0  0
 10 23  1  0  0  0  0
 11 24  1  0  0  0  0
 11 25  1  0  0  0  0
 11 26  1  0  0  0  0
 12 27  1  0  0  0  0
 12 28  1  0  0  0  0
 12 29  1  0  0  0  0
 13 14  1  0  0  0  0
 13 30  1  0  0  0  0
 13 31  1  0  0  0  0
 15 32  1  0  0  0  0
 15 33  1  0  0  0  0
 15 34  1  0  0  0  0
 16 35  1  0  0  0  0
 16 36  1  0  0  0  0
 16 37  1  0  0  0  0
 17 18  1  0  0  0  0
 17 38  1  0  0  0  0
 17 39  1  0  0  0  0
 18 41  1  0  0  0  0
 18 42  1  0  0  0  0
M  END
> <PUBCHEM_COMPOUND_CID>
5709

> <PUBCHEM_COMPOUND_CANONICALIZED>
1

> <PUBCHEM_CACTVS_COMPLEXITY>
302

> <PUBCHEM_CACTVS_HBOND_ACCEPTOR>
1

> <PUBCHEM_CACTVS_HBOND_DONOR>
1

> <PUBCHEM_CACTVS_ROTATABLE_BOND>
3

> <PUBCHEM_CACTVS_SUBSKEYS>
AAADceB7AAAAAAAAAAAAAAAAAAAAAQAAAAAwAAAAAAAAAAABAAAAHAAQAAAADgDBGAQzAILAAACgAiJiJAACAAEgAAABiIA4AIgIYCKAmRGUIAAgkACIiAcQgMAPwAACAAAQAACAAAQAACAAAAAAAAAAAA==

> <PUBCHEM_IUPAC_OPENEYE_NAME>
2-[(4-tert-butyl-2,6-dimethyl-phenyl)methyl]-4,5-dihydro-1H-imidazole

> <PUBCHEM_IUPAC_CAS_NAME>
2-[(4-tert-butyl-2,6-dimethylphenyl)methyl]-4,5-dihydro-1H-imidazole

> <PUBCHEM_IUPAC_NAME>
2-[(4-tert-butyl-2,6-dimethylphenyl)methyl]-4,5-dihydro-1H-imidazole

> <PUBCHEM_IUPAC_SYSTEMATIC_NAME>
2-[(4-tert-butyl-2,6-dimethyl-phenyl)methyl]-4,5-dihydro-1H-imidazole

> <PUBCHEM_IUPAC_TRADITIONAL_NAME>
2-(4-tert-butyl-2,6-dimethyl-benzyl)-2-imidazoline

> <PUBCHEM_IUPAC_INCHI>
InChI=1S/C16H24N2/c1-11-8-13(16(3,4)5)9-12(2)14(11)10-15-17-6-7-18-15/h8-9H,6-7,10H2,1-5H3,(H,17,18)

> <PUBCHEM_IUPAC_INCHIKEY>
HUCJFAOMUPXHDK-UHFFFAOYSA-N

> <PUBCHEM_XLOGP3_AA>
3.2

> <PUBCHEM_EXACT_MASS>
244.193949

> <PUBCHEM_MOLECULAR_FORMULA>
C16H24N2

> <PUBCHEM_MOLECULAR_WEIGHT>
244.37516

> <PUBCHEM_OPENEYE_CAN_SMILES>
CC1=CC(=CC(=C1CC2=NCCN2)C)C(C)(C)C

> <PUBCHEM_OPENEYE_ISO_SMILES>
CC1=CC(=CC(=C1CC2=NCCN2)C)C(C)(C)C

> <PUBCHEM_CACTVS_TPSA>
24.4

> <PUBCHEM_MONOISOTOPIC_WEIGHT>
244.193949

> <PUBCHEM_TOTAL_CHARGE>
0

> <PUBCHEM_HEAVY_ATOM_COUNT>
18

> <PUBCHEM_ATOM_DEF_STEREO_COUNT>
0

> <PUBCHEM_ATOM_UDEF_STEREO_COUNT>
0

> <PUBCHEM_BOND_DEF_STEREO_COUNT>
0

> <PUBCHEM_BOND_UDEF_STEREO_COUNT>
0

> <PUBCHEM_ISOTOPIC_ATOM_COUNT>
0

> <PUBCHEM_COMPONENT_COUNT>
1

> <PUBCHEM_CACTVS_TAUTO_COUNT>
1

> <PUBCHEM_COORDINATE_TYPE>
1
5
255

> <PUBCHEM_BONDANNOTATIONS>
4  8  8
4  9  8
5  6  8
5  7  8
6  8  8
7  9  8

$$$$

