83831
  -OEChem-07051212463D

 33 34  0     1  0  0  0  0  0999 V2000
   -2.4356   -1.9625   -1.0189 S   0  0  0  0  0  0  0  0  0  0  0  0
   -3.0247    2.7668   -0.8046 O   0  0  0  0  0  0  0  0  0  0  0  0
    5.2284    0.0600   -1.2074 O   0  0  0  0  0  0  0  0  0  0  0  0
   -1.6312    1.0802    0.0333 N   0  0  0  0  0  0  0  0  0  0  0  0
   -3.8576    0.8701    0.2893 N   0  0  0  0  0  0  0  0  0  0  0  0
    5.9607    0.7577    0.8563 N   0  0  0  0  0  0  0  0  0  0  0  0
   -1.7859   -0.1503    0.7857 C   0  0  1  0  0  0  0  0  0  0  0  0
   -3.3165   -0.3331    0.8904 C   0  0  2  0  0  0  0  0  0  0  0  0
   -1.1574   -1.3809    0.1261 C   0  0  2  0  0  0  0  0  0  0  0  0
   -3.7688   -1.5839    0.1405 C   0  0  0  0  0  0  0  0  0  0  0  0
    0.1717   -1.1473   -0.5726 C   0  0  0  0  0  0  0  0  0  0  0  0
    1.2432   -0.6678    0.4069 C   0  0  0  0  0  0  0  0  0  0  0  0
   -2.8581    1.6984   -0.2321 C   0  0  0  0  0  0  0  0  0  0  0  0
    2.5720   -0.4075   -0.3092 C   0  0  0  0  0  0  0  0  0  0  0  0
    3.6555    0.1002    0.6409 C   0  0  0  0  0  0  0  0  0  0  0  0
    5.0044    0.2998   -0.0246 C   0  0  0  0  0  0  0  0  0  0  0  0
   -1.3456    0.0289    1.7732 H   0  0  0  0  0  0  0  0  0  0  0  0
   -3.6605   -0.3588    1.9298 H   0  0  0  0  0  0  0  0  0  0  0  0
   -1.0376   -2.1672    0.8817 H   0  0  0  0  0  0  0  0  0  0  0  0
   -3.8592   -2.4282    0.8314 H   0  0  0  0  0  0  0  0  0  0  0  0
   -4.7220   -1.4573   -0.3811 H   0  0  0  0  0  0  0  0  0  0  0  0
    0.0681   -0.4214   -1.3891 H   0  0  0  0  0  0  0  0  0  0  0  0
    0.5128   -2.0838   -1.0338 H   0  0  0  0  0  0  0  0  0  0  0  0
   -0.7372    1.5014   -0.1991 H   0  0  0  0  0  0  0  0  0  0  0  0
   -4.8471    1.0949    0.2580 H   0  0  0  0  0  0  0  0  0  0  0  0
    1.3909   -1.4224    1.1890 H   0  0  0  0  0  0  0  0  0  0  0  0
    0.9297    0.2547    0.9068 H   0  0  0  0  0  0  0  0  0  0  0  0
    2.4224    0.3262   -1.1113 H   0  0  0  0  0  0  0  0  0  0  0  0
    2.9125   -1.3322   -0.7918 H   0  0  0  0  0  0  0  0  0  0  0  0
    3.7891   -0.6134    1.4632 H   0  0  0  0  0  0  0  0  0  0  0  0
    3.3453    1.0571    1.0779 H   0  0  0  0  0  0  0  0  0  0  0  0
    6.9127    0.9292    0.5502 H   0  0  0  0  0  0  0  0  0  0  0  0
    5.7548    0.9427    1.8329 H   0  0  0  0  0  0  0  0  0  0  0  0
  1  9  1  0  0  0  0
  1 10  1  0  0  0  0
  2 13  2  0  0  0  0
  3 16  2  0  0  0  0
  4  7  1  0  0  0  0
  4 13  1  0  0  0  0
  4 24  1  0  0  0  0
  5  8  1  0  0  0  0
  5 13  1  0  0  0  0
  5 25  1  0  0  0  0
  6 16  1  0  0  0  0
  6 32  1  0  0  0  0
  6 33  1  0  0  0  0
  7  8  1  0  0  0  0
  7  9  1  0  0  0  0
  7 17  1  0  0  0  0
  8 10  1  0  0  0  0
  8 18  1  0  0  0  0
  9 11  1  0  0  0  0
  9 19  1  0  0  0  0
 10 20  1  0  0  0  0
 10 21  1  0  0  0  0
 11 12  1  0  0  0  0
 11 22  1  0  0  0  0
 11 23  1  0  0  0  0
 12 14  1  0  0  0  0
 12 26  1  0  0  0  0
 12 27  1  0  0  0  0
 14 15  1  0  0  0  0
 14 28  1  0  0  0  0
 14 29  1  0  0  0  0
 15 16  1  0  0  0  0
 15 30  1  0  0  0  0
 15 31  1  0  0  0  0
M  END
> <PUBCHEM_COMPOUND_CID>
83831

> <PUBCHEM_CONFORMER_RMSD>
0.8

> <PUBCHEM_CONFORMER_DIVERSEORDER>
1
41
29
16
52
3
47
22
24
13
20
54
44
5
14
36
17
43
46
28
48
2
53
11
30
45
15
8
7
21
19
42
12
26
38
10
50
6
39
51
31
25
4
18
27
23
37
33
9
35
49
32
40
34

> <PUBCHEM_MMFF94_PARTIAL_CHARGES>
17
1 -0.46
10 0.23
13 0.69
15 0.06
16 0.57
2 -0.57
24 0.37
25 0.37
3 -0.57
32 0.37
33 0.37
4 -0.73
5 -0.73
6 -0.8
7 0.3
8 0.3
9 0.23

> <PUBCHEM_EFFECTIVE_ROTOR_COUNT>
6

> <PUBCHEM_PHARMACOPHORE_FEATURES>
8
1 2 acceptor
1 3 acceptor
1 4 donor
1 5 donor
1 6 donor
4 11 12 14 15 hydrophobe
5 1 7 8 9 10 rings
5 4 5 7 8 13 rings

> <PUBCHEM_HEAVY_ATOM_COUNT>
16

> <PUBCHEM_ATOM_DEF_STEREO_COUNT>
3

> <PUBCHEM_ATOM_UDEF_STEREO_COUNT>
0

> <PUBCHEM_BOND_DEF_STEREO_COUNT>
0

> <PUBCHEM_BOND_UDEF_STEREO_COUNT>
0

> <PUBCHEM_ISOTOPIC_ATOM_COUNT>
0

> <PUBCHEM_COMPONENT_COUNT>
1

> <PUBCHEM_CACTVS_TAUTO_COUNT>
6

> <PUBCHEM_CONFORMER_ID>
0001477700000001

> <PUBCHEM_MMFF94_ENERGY>
32.4408

> <PUBCHEM_FEATURE_SELFOVERLAP>
41.158

> <PUBCHEM_SHAPE_FINGERPRINT>
10014705 185 18334859411440011104
10680689 15 18408880716113042882
12107183 9 17625274378544920490
12186901 62 18260829297541687510
12390115 104 18116419526845266785
12596602 18 16630520705116652456
12916748 109 18341046329363462586
13214271 11 18412823577906152531
13897977 58 18342171154963809730
14123255 352 18410578413637429212
14142880 1 17988368173628392109
17802600 8 18336829693158637624
17834072 32 18338517550829059364
18186145 218 17603588517394736498
19489759 90 18342740706577390346
200 152 15123514670497274107
20645477 56 18333446551672406107
20645477 70 16733250319200667238
23402539 116 18342181020667641343
23466295 7 6049577362163767013
23557571 272 18114453500716238574
23559900 14 17899697049047533166
27216 239 18342736342927599225
2916195 48 18261400988697704848
3268164 11 18334020462303219927
3545911 37 18187358844479680278
4028521 119 18260547857241051064
4175511 318 18186801383135669895
4921388 177 14129348351231942757
5104073 3 18339920527861248794
633830 44 17632008741394766114
90127 26 18342447128889170304

> <PUBCHEM_SHAPE_MULTIPOLES>
306.44
11.19
2.01
0.98
19.56
0.8
-0.07
2.62
0.37
-3.13
-0.66
0.1
-0.04
0.45

> <PUBCHEM_SHAPE_SELFOVERLAP>
609.749

> <PUBCHEM_SHAPE_VOLUME>
183.5

> <PUBCHEM_COORDINATE_TYPE>
2
5
10

$$$$

