47205062
  -OEChem-06241222583D

 27 28  0     0  0  0  0  0  0999 V2000
   -0.6942    2.0082    0.5344 O   0  0  0  0  0  0  0  0  0  0  0  0
   -1.1440    0.4050   -1.0794 N   0  0  0  0  0  0  0  0  0  0  0  0
   -3.7801   -1.2538   -0.5149 N   0  0  0  0  0  0  0  0  0  0  0  0
   -4.6219   -1.7186    0.4240 N   0  0  0  0  0  0  0  0  0  0  0  0
    6.1433   -1.1614    0.2546 N   0  0  0  0  0  0  0  0  0  0  0  0
   -2.5242    0.7724   -1.3007 C   0  0  0  0  0  0  0  0  0  0  0  0
   -3.4527    0.0612   -0.3594 C   0  0  0  0  0  0  0  0  0  0  0  0
    1.0653    0.5831   -0.0747 C   0  0  0  0  0  0  0  0  0  0  0  0
   -0.3074    1.0548   -0.1644 C   0  0  0  0  0  0  0  0  0  0  0  0
   -4.1278    0.4863    0.7586 C   0  0  0  0  0  0  0  0  0  0  0  0
    2.0766    1.4524    0.3344 C   0  0  0  0  0  0  0  0  0  0  0  0
    1.3708   -0.7389   -0.3985 C   0  0  0  0  0  0  0  0  0  0  0  0
   -4.8306   -0.6511    1.1992 C   0  0  0  0  0  0  0  0  0  0  0  0
    3.3932    0.9996    0.4202 C   0  0  0  0  0  0  0  0  0  0  0  0
    2.6874   -1.1916   -0.3131 C   0  0  0  0  0  0  0  0  0  0  0  0
    3.6987   -0.3223    0.0962 C   0  0  0  0  0  0  0  0  0  0  0  0
    5.0477   -0.7854    0.1835 C   0  0  0  0  0  0  0  0  0  0  0  0
   -2.7713    0.5198   -2.3375 H   0  0  0  0  0  0  0  0  0  0  0  0
   -2.6299    1.8566   -1.1834 H   0  0  0  0  0  0  0  0  0  0  0  0
   -0.7778   -0.3347   -1.6689 H   0  0  0  0  0  0  0  0  0  0  0  0
   -4.1131    1.4751    1.1934 H   0  0  0  0  0  0  0  0  0  0  0  0
   -3.4664   -1.8926   -1.2351 H   0  0  0  0  0  0  0  0  0  0  0  0
    1.8603    2.4873    0.5868 H   0  0  0  0  0  0  0  0  0  0  0  0
    0.6109   -1.4578   -0.6902 H   0  0  0  0  0  0  0  0  0  0  0  0
   -5.4860   -0.7464    2.0529 H   0  0  0  0  0  0  0  0  0  0  0  0
    4.1708    1.6894    0.7399 H   0  0  0  0  0  0  0  0  0  0  0  0
    2.9092   -2.2267   -0.5620 H   0  0  0  0  0  0  0  0  0  0  0  0
  1  9  2  0  0  0  0
  2  6  1  0  0  0  0
  2  9  1  0  0  0  0
  2 20  1  0  0  0  0
  3  4  1  0  0  0  0
  3  7  1  0  0  0  0
  3 22  1  0  0  0  0
  4 13  2  0  0  0  0
  5 17  3  0  0  0  0
  6  7  1  0  0  0  0
  6 18  1  0  0  0  0
  6 19  1  0  0  0  0
  7 10  2  0  0  0  0
  8  9  1  0  0  0  0
  8 11  2  0  0  0  0
  8 12  1  0  0  0  0
 10 13  1  0  0  0  0
 10 21  1  0  0  0  0
 11 14  1  0  0  0  0
 11 23  1  0  0  0  0
 12 15  2  0  0  0  0
 12 24  1  0  0  0  0
 13 25  1  0  0  0  0
 14 16  2  0  0  0  0
 14 26  1  0  0  0  0
 15 16  1  0  0  0  0
 15 27  1  0  0  0  0
 16 17  1  0  0  0  0
M  END
> <PUBCHEM_COMPOUND_CID>
47205062

> <PUBCHEM_CONFORMER_RMSD>
0.6

> <PUBCHEM_CONFORMER_DIVERSEORDER>
1
7
23
9
22
18
21
5
25
17
10
20
19
15
3
8
13
12
16
2
24
14
4
11
6

> <PUBCHEM_MMFF94_PARTIAL_CHARGES>
25
1 -0.57
10 -0.15
11 -0.15
12 -0.15
13 0.14
14 -0.15
15 -0.15
16 0.07
17 0.48
2 -0.73
20 0.37
21 0.15
22 0.27
23 0.15
24 0.15
25 0.15
26 0.15
27 0.15
3 0.3
4 -0.71
5 -0.56
6 0.48
7 -0.33
8 0.09
9 0.54

> <PUBCHEM_EFFECTIVE_ROTOR_COUNT>
4

> <PUBCHEM_PHARMACOPHORE_FEATURES>
7
1 1 acceptor
1 2 donor
1 3 donor
1 4 acceptor
1 5 acceptor
5 3 4 7 10 13 rings
6 8 11 12 14 15 16 rings

> <PUBCHEM_HEAVY_ATOM_COUNT>
17

> <PUBCHEM_ATOM_DEF_STEREO_COUNT>
0

> <PUBCHEM_ATOM_UDEF_STEREO_COUNT>
0

> <PUBCHEM_BOND_DEF_STEREO_COUNT>
0

> <PUBCHEM_BOND_UDEF_STEREO_COUNT>
0

> <PUBCHEM_ISOTOPIC_ATOM_COUNT>
0

> <PUBCHEM_COMPONENT_COUNT>
1

> <PUBCHEM_CACTVS_TAUTO_COUNT>
4

> <PUBCHEM_CONFORMER_ID>
02D04AC600000001

> <PUBCHEM_MMFF94_ENERGY>
27.3765

> <PUBCHEM_FEATURE_SELFOVERLAP>
35.52

> <PUBCHEM_SHAPE_FINGERPRINT>
11089746 13 16443354199569444225
11128504 68 15984814930993754678
11796584 16 17558846206658207194
12032990 46 18413392029274836740
12507557 5 5545191749097825971
12596602 18 16877945992827241035
12670543 26 10735881712035798778
13103583 49 18041266708769419419
13288520 33 17846778524821676597
13675066 3 17095239232912923285
13740256 8 18413106147824924706
14123255 352 7132713889983413075
14251718 22 17489586775518736686
14251757 5 14044873942554406745
14252887 29 17676485086138806214
14350574 20 18272649052436334692
14455015 7 18413670223065104330
15375462 189 18040158400558010321
15527383 91 18259983773347854257
15880784 105 18338514140999215907
17780758 139 18186519916980924659
200 152 18343863333645313344
20281389 69 5689591680483478098
20281475 54 18340765923654026829
21150785 3 17846203485416733822
21267235 1 18334853961933835430
231179 274 8430314654012118404
23402539 116 15697719306576151956
23402655 69 11383839267953625227
23557571 272 17703518803805126733
23559900 14 18131358492056870852
26918003 58 18408325509922235777
270888 7 7204234905995864219
2838139 119 8646769976086119586
4028521 119 7781530187529323699
42 15 18334853909608081805
5104073 3 18043256945428245450
548570 60 7565345327545354411
7495541 125 18273495663578777380
83771 10 18412545401184594557

> <PUBCHEM_SHAPE_MULTIPOLES>
324.06
12.08
1.6
0.97
2.26
0.11
-0.07
-6.01
2.77
-0.08
0.15
-0.91
0.07
0.45

> <PUBCHEM_SHAPE_SELFOVERLAP>
693.433

> <PUBCHEM_SHAPE_VOLUME>
177.3

> <PUBCHEM_COORDINATE_TYPE>
2
5
10

$$$$

