3083909
  -OEChem-07051212562D

 52 57  0     1  0  0  0  0  0999 V2000
    6.9805    0.3590    0.0000 N   0  0  3  0  0  0  0  0  0  0  0  0
    2.9778    1.0578    0.0000 N   0  0  3  0  0  0  0  0  0  0  0  0
    5.8688    1.8964    0.0000 N   0  0  0  0  0  0  0  0  0  0  0  0
    3.1718   -0.8296    0.0000 N   0  0  0  0  0  0  0  0  0  0  0  0
    5.3688    0.3576    0.0000 C   0  0  2  0  0  0  0  0  0  0  0  0
    4.3743    0.2531    0.0000 C   0  0  2  0  0  0  0  0  0  0  0  0
    6.1778    0.9454    0.0000 C   0  0  2  0  0  0  0  0  0  0  0  0
    3.3797    0.1486    0.0000 C   0  0  2  0  0  0  0  0  0  0  0  0
    5.6784   -0.5870    0.0000 C   0  0  0  0  0  0  0  0  0  0  0  0
    4.5784    1.2260    0.0000 C   0  0  0  0  0  0  0  0  0  0  0  0
    4.5598    0.9454    0.0000 C   0  0  0  0  0  0  0  0  0  0  0  0
    4.7811   -0.6605    0.0000 C   0  0  0  0  0  0  0  0  0  0  0  0
    6.6725   -0.5862    0.0000 C   0  0  0  0  0  0  0  0  0  0  0  0
    3.7171    1.7223    0.0000 C   0  0  0  0  0  0  0  0  0  0  0  0
    4.8688    1.8964    0.0000 C   0  0  0  0  0  0  0  0  0  0  0  0
    4.0379   -1.3296    0.0000 C   0  0  0  0  0  0  0  0  0  0  0  0
    3.5444    0.7131    0.0000 C   0  0  0  0  0  0  0  0  0  0  0  0
    5.7765   -0.9670    0.0000 C   0  0  0  0  0  0  0  0  0  0  0  0
    7.9321    0.6664    0.0000 C   0  0  0  0  0  0  0  0  0  0  0  0
    2.0000    1.2674    0.0000 C   0  0  0  0  0  0  0  0  0  0  0  0
    4.1838    2.6812    0.0000 C   0  0  0  0  0  0  0  0  0  0  0  0
    4.2387   -2.3517    0.0000 C   0  0  0  0  0  0  0  0  0  0  0  0
    2.8414    1.4818    0.0000 C   0  0  0  0  0  0  0  0  0  0  0  0
    6.0009   -1.9842    0.0000 C   0  0  0  0  0  0  0  0  0  0  0  0
    3.1633    2.4725    0.0000 C   0  0  0  0  0  0  0  0  0  0  0  0
    5.2268   -2.6812    0.0000 C   0  0  0  0  0  0  0  0  0  0  0  0
    6.8661    1.4441    0.0000 H   0  0  0  0  0  0  0  0  0  0  0  0
    2.5343    0.0608    0.0000 H   0  0  0  0  0  0  0  0  0  0  0  0
    5.0722   -0.7171    0.0000 H   0  0  0  0  0  0  0  0  0  0  0  0
    5.7441   -1.2035    0.0000 H   0  0  0  0  0  0  0  0  0  0  0  0
    5.1685    1.0356    0.0000 H   0  0  0  0  0  0  0  0  0  0  0  0
    4.8298    1.7927    0.0000 H   0  0  0  0  0  0  0  0  0  0  0  0
    6.6079   -1.2028    0.0000 H   0  0  0  0  0  0  0  0  0  0  0  0
    7.2789   -0.7152    0.0000 H   0  0  0  0  0  0  0  0  0  0  0  0
    4.0814    2.2240    0.0000 H   0  0  0  0  0  0  0  0  0  0  0  0
    3.2565    2.1373    0.0000 H   0  0  0  0  0  0  0  0  0  0  0  0
    6.2332    2.3980    0.0000 H   0  0  0  0  0  0  0  0  0  0  0  0
    2.6054   -1.0818    0.0000 H   0  0  0  0  0  0  0  0  0  0  0  0
    3.3596    0.1213    0.0000 H   0  0  0  0  0  0  0  0  0  0  0  0
    6.2324   -0.5469    0.0000 H   0  0  0  0  0  0  0  0  0  0  0  0
    8.1227    0.0764    0.0000 H   0  0  0  0  0  0  0  0  0  0  0  0
    8.5221    0.8569    0.0000 H   0  0  0  0  0  0  0  0  0  0  0  0
    7.7415    1.2564    0.0000 H   0  0  0  0  0  0  0  0  0  0  0  0
    2.1300    1.8736    0.0000 H   0  0  0  0  0  0  0  0  0  0  0  0
    1.3938    1.3974    0.0000 H   0  0  0  0  0  0  0  0  0  0  0  0
    1.8700    0.6612    0.0000 H   0  0  0  0  0  0  0  0  0  0  0  0
    4.3822    3.2686    0.0000 H   0  0  0  0  0  0  0  0  0  0  0  0
    3.7732   -2.7612    0.0000 H   0  0  0  0  0  0  0  0  0  0  0  0
    2.2355    1.3506    0.0000 H   0  0  0  0  0  0  0  0  0  0  0  0
    6.5913   -2.1735    0.0000 H   0  0  0  0  0  0  0  0  0  0  0  0
    2.7502    2.9348    0.0000 H   0  0  0  0  0  0  0  0  0  0  0  0
    5.3534   -3.2881    0.0000 H   0  0  0  0  0  0  0  0  0  0  0  0
  1  7  1  0  0  0  0
  1 13  1  0  0  0  0
  1 19  1  0  0  0  0
  2  8  1  0  0  0  0
  2 14  1  0  0  0  0
  2 20  1  0  0  0  0
  3  7  1  0  0  0  0
  3 15  1  0  0  0  0
  3 37  1  0  0  0  0
  4  8  1  0  0  0  0
  4 16  1  0  0  0  0
  4 38  1  0  0  0  0
  5  6  1  0  0  0  0
  5  7  1  0  0  0  0
  5  9  1  1  0  0  0
  5 11  1  0  0  0  0
  6  8  1  0  0  0  0
  6 10  1  1  0  0  0
  6 12  1  0  0  0  0
  7 27  1  6  0  0  0
  8 28  1  6  0  0  0
  9 13  1  0  0  0  0
  9 29  1  0  0  0  0
  9 30  1  0  0  0  0
 10 14  1  0  0  0  0
 10 31  1  0  0  0  0
 10 32  1  0  0  0  0
 11 15  1  0  0  0  0
 11 17  2  0  0  0  0
 12 16  1  0  0  0  0
 12 18  2  0  0  0  0
 13 33  1  0  0  0  0
 13 34  1  0  0  0  0
 14 35  1  0  0  0  0
 14 36  1  0  0  0  0
 15 21  2  0  0  0  0
 16 22  2  0  0  0  0
 17 23  1  0  0  0  0
 17 39  1  0  0  0  0
 18 24  1  0  0  0  0
 18 40  1  0  0  0  0
 19 41  1  0  0  0  0
 19 42  1  0  0  0  0
 19 43  1  0  0  0  0
 20 44  1  0  0  0  0
 20 45  1  0  0  0  0
 20 46  1  0  0  0  0
 21 25  1  0  0  0  0
 21 47  1  0  0  0  0
 22 26  1  0  0  0  0
 22 48  1  0  0  0  0
 23 25  2  0  0  0  0
 23 49  1  0  0  0  0
 24 26  2  0  0  0  0
 24 50  1  0  0  0  0
 25 51  1  0  0  0  0
 26 52  1  0  0  0  0
M  END
> <PUBCHEM_COMPOUND_CID>
3083909

> <PUBCHEM_COMPOUND_CANONICALIZED>
1

> <PUBCHEM_CACTVS_COMPLEXITY>
531

> <PUBCHEM_CACTVS_HBOND_ACCEPTOR>
4

> <PUBCHEM_CACTVS_HBOND_DONOR>
2

> <PUBCHEM_CACTVS_ROTATABLE_BOND>
1

> <PUBCHEM_CACTVS_SUBSKEYS>
AAADceB7gAAAAAAAAAAAAAAAAAAAAWLFiwAwYAAAAAAWLFgBQAAAHAAQAAAADgjBGAQzwIPAAACAAiRCQACCAAAhAgAIiIAIZIiIICLAkZGEIAhokALIyCcQgMAPgAAAAAACAAAAAAAAAAQAAAAAAAAAAA==

> <PUBCHEM_IUPAC_OPENEYE_NAME>
(3aS,8bS)-8b-[(3aS,8bS)-3-methyl-1,2,3a,4-tetrahydropyrrolo[2,3-b]indol-8b-yl]-3-methyl-1,2,3a,4-tetrahydropyrrolo[2,3-b]indole

> <PUBCHEM_IUPAC_CAS_NAME>
(3aS,8bS)-8b-[(3aS,8bS)-3-methyl-1,2,3a,4-tetrahydropyrrolo[2,3-b]indol-8b-yl]-3-methyl-1,2,3a,4-tetrahydropyrrolo[2,3-b]indole

> <PUBCHEM_IUPAC_NAME>
(3aS,8bS)-8b-[(3aS,8bS)-3-methyl-1,2,3a,4-tetrahydropyrrolo[2,3-b]indol-8b-yl]-3-methyl-1,2,3a,4-tetrahydropyrrolo[2,3-b]indole

> <PUBCHEM_IUPAC_SYSTEMATIC_NAME>
(3aS,8bS)-8b-[(3aS,8bS)-3-methyl-1,2,3a,4-tetrahydropyrrolo[2,3-b]indol-8b-yl]-3-methyl-1,2,3a,4-tetrahydropyrrolo[2,3-b]indole

> <PUBCHEM_IUPAC_TRADITIONAL_NAME>
(3aS,8bS)-8b-[(3aS,8bS)-3-methyl-1,2,3a,4-tetrahydropyrrol[2,3-b]indol-8b-yl]-3-methyl-1,2,3a,4-tetrahydropyrrol[2,3-b]indole

> <PUBCHEM_IUPAC_INCHI>
InChI=1S/C22H26N4/c1-25-13-11-21(15-7-3-5-9-17(15)23-19(21)25)22-12-14-26(2)20(22)24-18-10-6-4-8-16(18)22/h3-10,19-20,23-24H,11-14H2,1-2H3/t19-,20-,21+,22+/m0/s1

> <PUBCHEM_IUPAC_INCHIKEY>
HOYXPMHLHJOGHD-FNAHDJPLSA-N

> <PUBCHEM_XLOGP3_AA>
3.9

> <PUBCHEM_EXACT_MASS>
346.215747

> <PUBCHEM_MOLECULAR_FORMULA>
C22H26N4

> <PUBCHEM_MOLECULAR_WEIGHT>
346.46864

> <PUBCHEM_OPENEYE_CAN_SMILES>
CN1CCC2(C1NC3=CC=CC=C32)C45CCN(C4NC6=CC=CC=C56)C

> <PUBCHEM_OPENEYE_ISO_SMILES>
CN1CC[C@@]2([C@H]1NC3=CC=CC=C32)[C@@]45CCN([C@@H]4NC6=CC=CC=C56)C

> <PUBCHEM_CACTVS_TPSA>
30.5

> <PUBCHEM_MONOISOTOPIC_WEIGHT>
346.215747

> <PUBCHEM_TOTAL_CHARGE>
0

> <PUBCHEM_HEAVY_ATOM_COUNT>
26

> <PUBCHEM_ATOM_DEF_STEREO_COUNT>
4

> <PUBCHEM_ATOM_UDEF_STEREO_COUNT>
0

> <PUBCHEM_BOND_DEF_STEREO_COUNT>
0

> <PUBCHEM_BOND_UDEF_STEREO_COUNT>
0

> <PUBCHEM_ISOTOPIC_ATOM_COUNT>
0

> <PUBCHEM_COMPONENT_COUNT>
1

> <PUBCHEM_CACTVS_TAUTO_COUNT>
1

> <PUBCHEM_COORDINATE_TYPE>
1
5
255

> <PUBCHEM_BONDANNOTATIONS>
11  15  8
11  17  8
12  16  8
12  18  8
15  21  8
16  22  8
17  23  8
18  24  8
21  25  8
22  26  8
23  25  8
24  26  8
5  9  5
6  10  5
7  27  6
8  28  6

$$$$

