46173991
  -OEChem-07051213102D

 64 67  0     1  0  0  0  0  0999 V2000
    6.0010    0.2500    0.0000 O   0  0  0  0  0  0  0  0  0  0  0  0
    8.5991   -0.2500    0.0000 O   0  0  0  0  0  0  0  0  0  0  0  0
    5.1350   -1.2500    0.0000 O   0  0  0  0  0  0  0  0  0  0  0  0
    7.7331    1.2500    0.0000 O   0  0  0  0  0  0  0  0  0  0  0  0
    6.0010   -1.7500    0.0000 O   0  0  0  0  0  0  0  0  0  0  0  0
    7.7331   -2.7500    0.0000 O   0  0  0  0  0  0  0  0  0  0  0  0
    4.2690    1.2500    0.0000 O   0  0  0  0  0  0  0  0  0  0  0  0
    2.5369    0.2500    0.0000 O   0  0  0  0  0  0  0  0  0  0  0  0
    2.5369   -1.7500    0.0000 O   0  0  0  0  0  0  0  0  0  0  0  0
    9.4651   -2.7500    0.0000 O   0  0  0  0  0  0  0  0  0  0  0  0
    3.4030   -3.2500    0.0000 O   0  0  0  0  0  0  0  0  0  0  0  0
    5.1350   -3.2500    0.0000 O   0  0  0  0  0  0  0  0  0  0  0  0
    7.7331    3.2500    0.0000 O   0  0  0  0  0  0  0  0  0  0  0  0
   13.3610    1.3840    0.0000 O   0  0  0  0  0  0  0  0  0  0  0  0
   13.3610    3.1160    0.0000 O   0  0  0  0  0  0  0  0  0  0  0  0
   11.2774    3.0547    0.0000 N   0  0  0  0  0  0  0  0  0  0  0  0
    6.8671   -0.2500    0.0000 C   0  0  2  0  0  0  0  0  0  0  0  0
    6.8671   -1.2500    0.0000 C   0  0  2  0  0  0  0  0  0  0  0  0
    7.7331   -1.7500    0.0000 C   0  0  1  0  0  0  0  0  0  0  0  0
    7.7331    0.2500    0.0000 C   0  0  1  0  0  0  0  0  0  0  0  0
    8.5991   -1.2500    0.0000 C   0  0  1  0  0  0  0  0  0  0  0  0
    5.1350   -0.2500    0.0000 C   0  0  2  0  0  0  0  0  0  0  0  0
    4.2690    0.2500    0.0000 C   0  0  1  0  0  0  0  0  0  0  0  0
    3.4030   -0.2500    0.0000 C   0  0  2  0  0  0  0  0  0  0  0  0
    3.4030   -1.2500    0.0000 C   0  0  1  0  0  0  0  0  0  0  0  0
    4.2690   -1.7500    0.0000 C   0  0  1  0  0  0  0  0  0  0  0  0
    9.4651   -1.7500    0.0000 C   0  0  0  0  0  0  0  0  0  0  0  0
    8.5991    1.7500    0.0000 C   0  0  0  0  0  0  0  0  0  0  0  0
    4.2690   -2.7500    0.0000 C   0  0  0  0  0  0  0  0  0  0  0  0
   10.3312    1.7500    0.0000 C   0  0  0  0  0  0  0  0  0  0  0  0
   11.2774    1.4453    0.0000 C   0  0  0  0  0  0  0  0  0  0  0  0
   11.8610    2.2500    0.0000 C   0  0  1  0  0  0  0  0  0  0  0  0
   10.3312    2.7500    0.0000 C   0  0  0  0  0  0  0  0  0  0  0  0
    9.4651    1.2500    0.0000 C   0  0  0  0  0  0  0  0  0  0  0  0
    8.5991    2.7500    0.0000 C   0  0  0  0  0  0  0  0  0  0  0  0
    9.4651    3.2500    0.0000 C   0  0  0  0  0  0  0  0  0  0  0  0
   12.8610    2.2500    0.0000 C   0  0  0  0  0  0  0  0  0  0  0  0
    6.3301   -0.5600    0.0000 H   0  0  0  0  0  0  0  0  0  0  0  0
    6.3301   -0.9400    0.0000 H   0  0  0  0  0  0  0  0  0  0  0  0
    8.2700   -2.0600    0.0000 H   0  0  0  0  0  0  0  0  0  0  0  0
    7.1962    0.5600    0.0000 H   0  0  0  0  0  0  0  0  0  0  0  0
    9.1360   -0.9400    0.0000 H   0  0  0  0  0  0  0  0  0  0  0  0
    5.1350    0.3700    0.0000 H   0  0  0  0  0  0  0  0  0  0  0  0
    4.8059    0.5600    0.0000 H   0  0  0  0  0  0  0  0  0  0  0  0
    3.4030    0.3700    0.0000 H   0  0  0  0  0  0  0  0  0  0  0  0
    3.4030   -1.8700    0.0000 H   0  0  0  0  0  0  0  0  0  0  0  0
    4.8059   -2.0600    0.0000 H   0  0  0  0  0  0  0  0  0  0  0  0
   10.0757   -1.8577    0.0000 H   0  0  0  0  0  0  0  0  0  0  0  0
    9.6772   -1.1674    0.0000 H   0  0  0  0  0  0  0  0  0  0  0  0
    6.0010   -2.3700    0.0000 H   0  0  0  0  0  0  0  0  0  0  0  0
    7.1962   -3.0600    0.0000 H   0  0  0  0  0  0  0  0  0  0  0  0
    3.7320    1.5600    0.0000 H   0  0  0  0  0  0  0  0  0  0  0  0
    2.5369    0.8700    0.0000 H   0  0  0  0  0  0  0  0  0  0  0  0
    2.0000   -1.4400    0.0000 H   0  0  0  0  0  0  0  0  0  0  0  0
   11.0264    0.8784    0.0000 H   0  0  0  0  0  0  0  0  0  0  0  0
   11.8148    1.1360    0.0000 H   0  0  0  0  0  0  0  0  0  0  0  0
   12.1427    2.8023    0.0000 H   0  0  0  0  0  0  0  0  0  0  0  0
    9.4651    0.6300    0.0000 H   0  0  0  0  0  0  0  0  0  0  0  0
   11.4700    3.6440    0.0000 H   0  0  0  0  0  0  0  0  0  0  0  0
   10.0021   -3.0600    0.0000 H   0  0  0  0  0  0  0  0  0  0  0  0
    9.4651    3.8700    0.0000 H   0  0  0  0  0  0  0  0  0  0  0  0
    3.4030   -3.8700    0.0000 H   0  0  0  0  0  0  0  0  0  0  0  0
    7.7331    3.8700    0.0000 H   0  0  0  0  0  0  0  0  0  0  0  0
   13.9810    1.3840    0.0000 H   0  0  0  0  0  0  0  0  0  0  0  0
 17  1  1  1  0  0  0
 22  1  1  6  0  0  0
  2 20  1  0  0  0  0
  2 21  1  0  0  0  0
  3 22  1  0  0  0  0
  3 26  1  0  0  0  0
 20  4  1  6  0  0  0
  4 28  1  0  0  0  0
 18  5  1  6  0  0  0
  5 50  1  0  0  0  0
 19  6  1  1  0  0  0
  6 51  1  0  0  0  0
 23  7  1  1  0  0  0
  7 52  1  0  0  0  0
 24  8  1  6  0  0  0
  8 53  1  0  0  0  0
 25  9  1  1  0  0  0
  9 54  1  0  0  0  0
 10 27  1  0  0  0  0
 10 60  1  0  0  0  0
 11 29  1  0  0  0  0
 11 62  1  0  0  0  0
 12 29  2  0  0  0  0
 13 35  1  0  0  0  0
 13 63  1  0  0  0  0
 14 37  1  0  0  0  0
 14 64  1  0  0  0  0
 15 37  2  0  0  0  0
 16 32  1  0  0  0  0
 16 33  1  0  0  0  0
 16 59  1  0  0  0  0
 17 18  1  0  0  0  0
 17 20  1  0  0  0  0
 17 38  1  0  0  0  0
 18 19  1  0  0  0  0
 18 39  1  0  0  0  0
 19 21  1  0  0  0  0
 19 40  1  0  0  0  0
 20 41  1  0  0  0  0
 21 27  1  6  0  0  0
 21 42  1  0  0  0  0
 22 23  1  0  0  0  0
 22 43  1  0  0  0  0
 23 24  1  0  0  0  0
 23 44  1  0  0  0  0
 24 25  1  0  0  0  0
 24 45  1  0  0  0  0
 25 26  1  0  0  0  0
 25 46  1  0  0  0  0
 26 29  1  6  0  0  0
 26 47  1  0  0  0  0
 27 48  1  0  0  0  0
 27 49  1  0  0  0  0
 28 34  1  0  0  0  0
 28 35  2  0  0  0  0
 30 31  1  0  0  0  0
 30 33  1  0  0  0  0
 30 34  2  0  0  0  0
 31 32  1  0  0  0  0
 31 55  1  0  0  0  0
 31 56  1  0  0  0  0
 32 37  1  6  0  0  0
 32 57  1  0  0  0  0
 33 36  2  0  0  0  0
 34 58  1  0  0  0  0
 35 36  1  0  0  0  0
 36 61  1  0  0  0  0
M  END
> <PUBCHEM_COMPOUND_CID>
46173991

> <PUBCHEM_COMPOUND_CANONICALIZED>
1

> <PUBCHEM_CACTVS_COMPLEXITY>
832

> <PUBCHEM_CACTVS_HBOND_ACCEPTOR>
16

> <PUBCHEM_CACTVS_HBOND_DONOR>
10

> <PUBCHEM_CACTVS_ROTATABLE_BOND>
7

> <PUBCHEM_CACTVS_SUBSKEYS>
AAADceB6PAAAAAAAAAAAAAAAAAAAAWAAAAA0SIAAAAAAAFgBAAAAHgAQCAAADDzxmAcwzoLABgCIAiTSSAKCCAAhIgAAiIHO7IgfNjbGsb+meCvn8Bnf+Af6/b/eIEABAgACQABAgAIEAASAAAAAAAAAAA==

> <PUBCHEM_IUPAC_OPENEYE_NAME>
(2S)-5-[(2S,3R,4S,5S,6R)-3-[(2R,3R,4S,5S,6S)-6-carboxy-3,4,5-trihydroxy-tetrahydropyran-2-yl]oxy-4,5-dihydroxy-6-(hydroxymethyl)tetrahydropyran-2-yl]oxy-6-hydroxy-indoline-2-carboxylic acid

> <PUBCHEM_IUPAC_CAS_NAME>
(2S)-5-[[(2S,3R,4S,5S,6R)-3-[[(2R,3R,4S,5S,6S)-6-carboxy-3,4,5-trihydroxy-2-oxanyl]oxy]-4,5-dihydroxy-6-(hydroxymethyl)-2-oxanyl]oxy]-6-hydroxy-2,3-dihydro-1H-indole-2-carboxylic acid

> <PUBCHEM_IUPAC_NAME>
(2S)-5-[(2S,3R,4S,5S,6R)-3-[(2R,3R,4S,5S,6S)-6-carboxy-3,4,5-trihydroxyoxan-2-yl]oxy-4,5-dihydroxy-6-(hydroxymethyl)oxan-2-yl]oxy-6-hydroxy-2,3-dihydro-1H-indole-2-carboxylic acid

> <PUBCHEM_IUPAC_SYSTEMATIC_NAME>
(2S)-5-[(2S,3R,4S,5S,6R)-3-[(2R,3R,4S,5S,6S)-6-carboxy-3,4,5-tris(oxidanyl)oxan-2-yl]oxy-6-(hydroxymethyl)-4,5-bis(oxidanyl)oxan-2-yl]oxy-6-oxidanyl-2,3-dihydro-1H-indole-2-carboxylic acid

> <PUBCHEM_IUPAC_TRADITIONAL_NAME>
(2S)-5-[(2S,3R,4S,5S,6R)-3-[(2R,3R,4S,5S,6S)-6-carboxy-3,4,5-trihydroxy-tetrahydropyran-2-yl]oxy-4,5-dihydroxy-6-methylol-tetrahydropyran-2-yl]oxy-6-hydroxy-indoline-2-carboxylic acid

> <PUBCHEM_IUPAC_INCHI>
InChI=1S/C21H27NO15/c23-4-10-11(25)13(27)17(37-20-15(29)12(26)14(28)16(36-20)19(32)33)21(35-10)34-9-2-5-1-7(18(30)31)22-6(5)3-8(9)24/h2-3,7,10-17,20-29H,1,4H2,(H,30,31)(H,32,33)/t7-,10+,11+,12-,13-,14-,15+,16-,17+,20-,21+/m0/s1

> <PUBCHEM_IUPAC_INCHIKEY>
NSZZLJRPLSVZFT-RZVKFFEFSA-N

> <PUBCHEM_XLOGP3_AA>
-2.3

> <PUBCHEM_EXACT_MASS>
533.138069

> <PUBCHEM_MOLECULAR_FORMULA>
C21H27NO15

> <PUBCHEM_MOLECULAR_WEIGHT>
533.43678

> <PUBCHEM_OPENEYE_CAN_SMILES>
C1C(NC2=CC(=C(C=C21)OC3C(C(C(C(O3)CO)O)O)OC4C(C(C(C(O4)C(=O)O)O)O)O)O)C(=O)O

> <PUBCHEM_OPENEYE_ISO_SMILES>
C1[C@H](NC2=CC(=C(C=C21)O[C@H]3[C@@H]([C@H]([C@@H]([C@H](O3)CO)O)O)O[C@H]4[C@@H]([C@H]([C@@H]([C@H](O4)C(=O)O)O)O)O)O)C(=O)O

> <PUBCHEM_CACTVS_TPSA>
265

> <PUBCHEM_MONOISOTOPIC_WEIGHT>
533.138069

> <PUBCHEM_TOTAL_CHARGE>
0

> <PUBCHEM_HEAVY_ATOM_COUNT>
37

> <PUBCHEM_ATOM_DEF_STEREO_COUNT>
11

> <PUBCHEM_ATOM_UDEF_STEREO_COUNT>
0

> <PUBCHEM_BOND_DEF_STEREO_COUNT>
0

> <PUBCHEM_BOND_UDEF_STEREO_COUNT>
0

> <PUBCHEM_ISOTOPIC_ATOM_COUNT>
0

> <PUBCHEM_COMPONENT_COUNT>
1

> <PUBCHEM_CACTVS_TAUTO_COUNT>
9

> <PUBCHEM_COORDINATE_TYPE>
1
5
255

> <PUBCHEM_BONDANNOTATIONS>
17  1  5
22  1  6
21  27  6
26  29  6
28  34  8
28  35  8
30  33  8
30  34  8
32  37  6
33  36  8
35  36  8
20  4  6
18  5  6
19  6  5
23  7  5
24  8  6
25  9  5

$$$$

