38853
  -OEChem-07051212533D

 28 28  0     1  0  0  0  0  0999 V2000
   -1.5314    1.0921    1.5978 O   0  0  0  0  0  0  0  0  0  0  0  0
   -2.7621    1.9338   -0.1006 O   0  0  0  0  0  0  0  0  0  0  0  0
    2.7513    2.0227   -0.4364 O   0  0  0  0  0  0  0  0  0  0  0  0
    4.1025   -0.1380    0.6718 O   0  0  0  0  0  0  0  0  0  0  0  0
   -3.6209   -0.6341   -0.7280 N   0  0  0  0  0  0  0  0  0  0  0  0
   -2.3067   -0.4643   -0.0901 C   0  0  2  0  0  0  0  0  0  0  0  0
   -1.2065   -0.7450   -1.1422 C   0  0  0  0  0  0  0  0  0  0  0  0
    0.2164   -0.5791   -0.6568 C   0  0  0  0  0  0  0  0  0  0  0  0
   -2.2570   -1.4665    1.0738 C   0  0  0  0  0  0  0  0  0  0  0  0
   -2.2417    0.9682    0.4469 C   0  0  0  0  0  0  0  0  0  0  0  0
    0.8304    0.6562   -0.7726 C   0  0  0  0  0  0  0  0  0  0  0  0
    0.8746   -1.6662   -0.1077 C   0  0  0  0  0  0  0  0  0  0  0  0
    2.1429    0.8091   -0.3255 C   0  0  0  0  0  0  0  0  0  0  0  0
    2.1870   -1.5132    0.3393 C   0  0  0  0  0  0  0  0  0  0  0  0
    2.8210   -0.2756    0.2305 C   0  0  0  0  0  0  0  0  0  0  0  0
   -1.3227   -1.7611   -1.5462 H   0  0  0  0  0  0  0  0  0  0  0  0
   -1.3493   -0.0800   -2.0067 H   0  0  0  0  0  0  0  0  0  0  0  0
   -2.3488   -2.4992    0.7162 H   0  0  0  0  0  0  0  0  0  0  0  0
   -3.0709   -1.2895    1.7884 H   0  0  0  0  0  0  0  0  0  0  0  0
   -1.3256   -1.4004    1.6456 H   0  0  0  0  0  0  0  0  0  0  0  0
   -4.3622   -0.5314   -0.0355 H   0  0  0  0  0  0  0  0  0  0  0  0
   -3.7084   -1.5811   -1.0956 H   0  0  0  0  0  0  0  0  0  0  0  0
    0.3065    1.5035   -1.2066 H   0  0  0  0  0  0  0  0  0  0  0  0
    0.3915   -2.6350   -0.0217 H   0  0  0  0  0  0  0  0  0  0  0  0
    2.7039   -2.3667    0.7698 H   0  0  0  0  0  0  0  0  0  0  0  0
   -1.5003    2.0215    1.9100 H   0  0  0  0  0  0  0  0  0  0  0  0
    3.6529    1.9468   -0.0785 H   0  0  0  0  0  0  0  0  0  0  0  0
    4.4092   -0.9909    1.0247 H   0  0  0  0  0  0  0  0  0  0  0  0
  1 10  1  0  0  0  0
  1 26  1  0  0  0  0
  2 10  2  0  0  0  0
  3 13  1  0  0  0  0
  3 27  1  0  0  0  0
  4 15  1  0  0  0  0
  4 28  1  0  0  0  0
  5  6  1  0  0  0  0
  5 21  1  0  0  0  0
  5 22  1  0  0  0  0
  6  7  1  0  0  0  0
  6  9  1  0  0  0  0
  6 10  1  0  0  0  0
  7  8  1  0  0  0  0
  7 16  1  0  0  0  0
  7 17  1  0  0  0  0
  8 11  2  0  0  0  0
  8 12  1  0  0  0  0
  9 18  1  0  0  0  0
  9 19  1  0  0  0  0
  9 20  1  0  0  0  0
 11 13  1  0  0  0  0
 11 23  1  0  0  0  0
 12 14  2  0  0  0  0
 12 24  1  0  0  0  0
 13 15  2  0  0  0  0
 14 15  1  0  0  0  0
 14 25  1  0  0  0  0
M  END
> <PUBCHEM_COMPOUND_CID>
38853

> <PUBCHEM_CONFORMER_RMSD>
0.6

> <PUBCHEM_CONFORMER_DIVERSEORDER>
1
11
3
7
6
10
4
8
5
9
2

> <PUBCHEM_MMFF94_PARTIAL_CHARGES>
22
1 -0.65
10 0.66
11 -0.15
12 -0.15
13 0.08
14 -0.15
15 0.08
2 -0.57
21 0.36
22 0.36
23 0.15
24 0.15
25 0.15
26 0.5
27 0.45
28 0.45
3 -0.53
4 -0.53
5 -0.99
6 0.33
7 0.14
8 -0.14

> <PUBCHEM_EFFECTIVE_ROTOR_COUNT>
3

> <PUBCHEM_PHARMACOPHORE_FEATURES>
8
1 1 acceptor
1 2 acceptor
1 3 donor
1 4 donor
1 5 cation
1 5 donor
3 1 2 10 anion
6 8 11 12 13 14 15 rings

> <PUBCHEM_HEAVY_ATOM_COUNT>
15

> <PUBCHEM_ATOM_DEF_STEREO_COUNT>
1

> <PUBCHEM_ATOM_UDEF_STEREO_COUNT>
0

> <PUBCHEM_BOND_DEF_STEREO_COUNT>
0

> <PUBCHEM_BOND_UDEF_STEREO_COUNT>
0

> <PUBCHEM_ISOTOPIC_ATOM_COUNT>
0

> <PUBCHEM_COMPONENT_COUNT>
1

> <PUBCHEM_CACTVS_TAUTO_COUNT>
18

> <PUBCHEM_CONFORMER_ID>
000097C500000001

> <PUBCHEM_MMFF94_ENERGY>
32.114

> <PUBCHEM_FEATURE_SELFOVERLAP>
40.66

> <PUBCHEM_SHAPE_FINGERPRINT>
11031198 65 6771867423942945050
11471102 22 18131626790279379378
12162725 195 18411420609115394663
12251169 10 18271804648406091210
12382932 28 18341332300753979906
12696612 119 18341607140074731668
13764800 53 17313928836198143745
14144814 61 18412826910378618686
15375462 478 18334018280496743655
15775835 57 17822290201610576739
16945 1 18337945710224581798
17802600 8 18260839171718889376
18186145 218 14851870461831458084
192875 21 18339938038268626069
200 152 18336278855377228599
20525323 117 18113890564101308747
20559304 39 18334294253878661404
22802520 49 14852983231759720984
23402539 116 17095818654313702111
23557571 272 16732987504986269615
305870 269 18262518207805982182
81228 2 15553619550175450863

> <PUBCHEM_SHAPE_MULTIPOLES>
280.23
5.74
1.84
1.07
1.14
0.36
0.14
0.62
0.7
-0.01
0.13
-0.46
-0.02
-0.38

> <PUBCHEM_SHAPE_SELFOVERLAP>
584.689

> <PUBCHEM_SHAPE_VOLUME>
159.2

> <PUBCHEM_COORDINATE_TYPE>
2
5
10

$$$$

