27476
  -OEChem-07051212472D

 35 37  0     1  0  0  0  0  0999 V2000
    5.2686    0.8919    0.0000 O   0  0  0  0  0  0  0  0  0  0  0  0
    7.6146   -0.2000    0.0000 O   0  0  0  0  0  0  0  0  0  0  0  0
    7.6183    1.9756    0.0000 O   0  0  0  0  0  0  0  0  0  0  0  0
    6.2208    3.3934    0.0000 O   0  0  0  0  0  0  0  0  0  0  0  0
    5.5443   -0.8687    0.0000 N   0  0  0  0  0  0  0  0  0  0  0  0
    5.5443   -2.4782    0.0000 N   0  0  0  0  0  0  0  0  0  0  0  0
    3.7320   -0.6734    0.0000 N   0  0  0  0  0  0  0  0  0  0  0  0
    2.8660   -2.1734    0.0000 N   0  0  0  0  0  0  0  0  0  0  0  0
    3.7320   -3.6734    0.0000 N   0  0  0  0  0  0  0  0  0  0  0  0
    6.8066    0.3892    0.0000 C   0  0  1  0  0  0  0  0  0  0  0  0
    5.8550    0.0818    0.0000 C   0  0  1  0  0  0  0  0  0  0  0  0
    6.8083    1.3892    0.0000 C   0  0  1  0  0  0  0  0  0  0  0  0
    5.8578    1.6999    0.0000 C   0  0  1  0  0  0  0  0  0  0  0  0
    5.5504    2.6514    0.0000 C   0  0  0  0  0  0  0  0  0  0  0  0
    4.5981   -1.1734    0.0000 C   0  0  0  0  0  0  0  0  0  0  0  0
    6.1279   -1.6734    0.0000 C   0  0  0  0  0  0  0  0  0  0  0  0
    4.5981   -2.1734    0.0000 C   0  0  0  0  0  0  0  0  0  0  0  0
    3.7320   -2.6734    0.0000 C   0  0  0  0  0  0  0  0  0  0  0  0
    2.8660   -1.1734    0.0000 C   0  0  0  0  0  0  0  0  0  0  0  0
    2.0000   -2.6734    0.0000 C   0  0  0  0  0  0  0  0  0  0  0  0
    7.3595    0.6697    0.0000 H   0  0  0  0  0  0  0  0  0  0  0  0
    6.2926   -0.3573    0.0000 H   0  0  0  0  0  0  0  0  0  0  0  0
    7.3602    1.1068    0.0000 H   0  0  0  0  0  0  0  0  0  0  0  0
    5.2456    1.7979    0.0000 H   0  0  0  0  0  0  0  0  0  0  0  0
    5.1695    3.1407    0.0000 H   0  0  0  0  0  0  0  0  0  0  0  0
    5.0025    2.3613    0.0000 H   0  0  0  0  0  0  0  0  0  0  0  0
    8.1814    0.0512    0.0000 H   0  0  0  0  0  0  0  0  0  0  0  0
    6.7479   -1.6734    0.0000 H   0  0  0  0  0  0  0  0  0  0  0  0
    8.1843    1.7224    0.0000 H   0  0  0  0  0  0  0  0  0  0  0  0
    6.0302    3.9834    0.0000 H   0  0  0  0  0  0  0  0  0  0  0  0
    2.3291   -0.8634    0.0000 H   0  0  0  0  0  0  0  0  0  0  0  0
    1.6900   -2.1365    0.0000 H   0  0  0  0  0  0  0  0  0  0  0  0
    1.4631   -2.9834    0.0000 H   0  0  0  0  0  0  0  0  0  0  0  0
    2.3100   -3.2104    0.0000 H   0  0  0  0  0  0  0  0  0  0  0  0
    3.1951   -3.9834    0.0000 H   0  0  0  0  0  0  0  0  0  0  0  0
  1 11  1  0  0  0  0
  1 13  1  0  0  0  0
 10  2  1  1  0  0  0
  2 27  1  0  0  0  0
 12  3  1  1  0  0  0
  3 29  1  0  0  0  0
  4 14  1  0  0  0  0
  4 30  1  0  0  0  0
 11  5  1  6  0  0  0
  5 15  1  0  0  0  0
  5 16  1  0  0  0  0
  6 16  2  0  0  0  0
  6 17  1  0  0  0  0
  7 15  1  0  0  0  0
  7 19  2  0  0  0  0
  8 18  1  0  0  0  0
  8 19  1  0  0  0  0
  8 20  1  0  0  0  0
  9 18  2  0  0  0  0
  9 35  1  0  0  0  0
 10 11  1  0  0  0  0
 10 12  1  0  0  0  0
 10 21  1  0  0  0  0
 11 22  1  0  0  0  0
 12 13  1  0  0  0  0
 12 23  1  0  0  0  0
 13 14  1  6  0  0  0
 13 24  1  0  0  0  0
 14 25  1  0  0  0  0
 14 26  1  0  0  0  0
 15 17  2  0  0  0  0
 16 28  1  0  0  0  0
 17 18  1  0  0  0  0
 19 31  1  0  0  0  0
 20 32  1  0  0  0  0
 20 33  1  0  0  0  0
 20 34  1  0  0  0  0
M  END
> <PUBCHEM_COMPOUND_CID>
27476

> <PUBCHEM_COMPOUND_CANONICALIZED>
1

> <PUBCHEM_CACTVS_COMPLEXITY>
433

> <PUBCHEM_CACTVS_HBOND_ACCEPTOR>
7

> <PUBCHEM_CACTVS_HBOND_DONOR>
4

> <PUBCHEM_CACTVS_ROTATABLE_BOND>
2

> <PUBCHEM_CACTVS_SUBSKEYS>
AAADccBzuAAAAAAAAAAAAAAAAAAAAWJAAAAgAAAAAAAAAEABgAAAHgAQCAAACBzhlgYHsBdMFgCgAQZhZACAgC2REKABUAAoVBCDWAJAyAAeQAgPAALTACDwMAIAAAAAAAAAAAAAAAAAAAAAAAAAAAAAAA==

> <PUBCHEM_IUPAC_OPENEYE_NAME>
(2R,3S,4R,5R)-2-(hydroxymethyl)-5-(6-imino-1-methyl-purin-9-yl)tetrahydrofuran-3,4-diol

> <PUBCHEM_IUPAC_CAS_NAME>
(2R,3S,4R,5R)-2-(hydroxymethyl)-5-(6-imino-1-methyl-9-purinyl)oxolane-3,4-diol

> <PUBCHEM_IUPAC_NAME>
(2R,3S,4R,5R)-2-(hydroxymethyl)-5-(6-imino-1-methylpurin-9-yl)oxolane-3,4-diol

> <PUBCHEM_IUPAC_SYSTEMATIC_NAME>
(2R,3R,4S,5R)-2-(6-azanylidene-1-methyl-purin-9-yl)-5-(hydroxymethyl)oxolane-3,4-diol

> <PUBCHEM_IUPAC_TRADITIONAL_NAME>
(2R,3R,4S,5R)-2-(6-imino-1-methyl-purin-9-yl)-5-methylol-tetrahydrofuran-3,4-diol

> <PUBCHEM_IUPAC_INCHI>
InChI=1S/C11H15N5O4/c1-15-3-14-10-6(9(15)12)13-4-16(10)11-8(19)7(18)5(2-17)20-11/h3-5,7-8,11-12,17-19H,2H2,1H3/t5-,7-,8-,11-/m1/s1

> <PUBCHEM_IUPAC_INCHIKEY>
GFYLSDSUCHVORB-IOSLPCCCSA-N

> <PUBCHEM_XLOGP3>
-1

> <PUBCHEM_EXACT_MASS>
281.112404

> <PUBCHEM_MOLECULAR_FORMULA>
C11H15N5O4

> <PUBCHEM_MOLECULAR_WEIGHT>
281.2679

> <PUBCHEM_OPENEYE_CAN_SMILES>
CN1C=NC2=C(C1=N)N=CN2C3C(C(C(O3)CO)O)O

> <PUBCHEM_OPENEYE_ISO_SMILES>
CN1C=NC2=C(C1=N)N=CN2[C@H]3[C@@H]([C@@H]([C@H](O3)CO)O)O

> <PUBCHEM_CACTVS_TPSA>
127

> <PUBCHEM_MONOISOTOPIC_WEIGHT>
281.112404

> <PUBCHEM_TOTAL_CHARGE>
0

> <PUBCHEM_HEAVY_ATOM_COUNT>
20

> <PUBCHEM_ATOM_DEF_STEREO_COUNT>
4

> <PUBCHEM_ATOM_UDEF_STEREO_COUNT>
0

> <PUBCHEM_BOND_DEF_STEREO_COUNT>
0

> <PUBCHEM_BOND_UDEF_STEREO_COUNT>
0

> <PUBCHEM_ISOTOPIC_ATOM_COUNT>
0

> <PUBCHEM_COMPONENT_COUNT>
1

> <PUBCHEM_CACTVS_TAUTO_COUNT>
1

> <PUBCHEM_COORDINATE_TYPE>
1
5
255

> <PUBCHEM_BONDANNOTATIONS>
13  14  6
15  17  8
17  18  8
10  2  5
12  3  5
11  5  6
5  15  8
5  16  8
6  16  8
6  17  8
7  15  8
7  19  8
8  18  8
8  19  8

$$$$

