17396186
  -OEChem-06241222553D

 47 48  0     1  0  0  0  0  0999 V2000
    1.5917   -0.9893   -0.8178 O   0  0  0  0  0  0  0  0  0  0  0  0
   -0.3959   -1.9041    0.7333 O   0  0  0  0  0  0  0  0  0  0  0  0
    5.4325   -0.8316    0.7636 O   0  0  0  0  0  0  0  0  0  0  0  0
   -5.9913    1.6227    0.6654 O   0  0  0  0  0  0  0  0  0  0  0  0
    1.5262    1.2674   -0.4189 O   0  0  0  0  0  0  0  0  0  0  0  0
   -2.4177    0.3564   -1.2423 N   0  0  0  0  0  0  0  0  0  0  0  0
    5.5228    0.5240    1.0553 N   0  0  0  0  0  0  0  0  0  0  0  0
   -2.0280   -0.4793   -0.2285 C   0  0  0  0  0  0  0  0  0  0  0  0
   -3.0559   -0.5405    0.6864 C   0  0  0  0  0  0  0  0  0  0  0  0
   -4.1003    0.2872    0.2055 C   0  0  0  0  0  0  0  0  0  0  0  0
   -3.6791    0.8288   -0.9887 C   0  0  0  0  0  0  0  0  0  0  0  0
    0.2692   -0.9312   -1.3405 C   0  0  2  0  0  0  0  0  0  0  0  0
   -0.7199   -1.1577   -0.1945 C   0  0  0  0  0  0  0  0  0  0  0  0
   -3.0682   -1.3245    1.9396 C   0  0  0  0  0  0  0  0  0  0  0  0
   -4.3449    1.7541   -1.9263 C   0  0  0  0  0  0  0  0  0  0  0  0
   -5.3755    0.5439    0.8132 C   0  0  0  0  0  0  0  0  0  0  0  0
    0.1498   -2.0228   -2.3918 C   0  0  0  0  0  0  0  0  0  0  0  0
    3.4864    0.0637    0.1454 C   0  0  0  0  0  0  0  0  0  0  0  0
    4.3488    1.0378    0.6774 C   0  0  0  0  0  0  0  0  0  0  0  0
    2.1246    0.1972   -0.3792 C   0  0  0  0  0  0  0  0  0  0  0  0
    4.0961    2.4788    0.8476 C   0  0  0  0  0  0  0  0  0  0  0  0
    4.2153   -1.0934    0.2222 C   0  0  0  0  0  0  0  0  0  0  0  0
   -6.0515   -0.5120    1.6874 C   0  0  0  0  0  0  0  0  0  0  0  0
    4.5103    3.3159   -0.3671 C   0  0  0  0  0  0  0  0  0  0  0  0
    3.9547   -2.4915   -0.1464 C   0  0  0  0  0  0  0  0  0  0  0  0
   -1.8763    0.5876   -2.0632 H   0  0  0  0  0  0  0  0  0  0  0  0
    0.1039    0.0348   -1.8257 H   0  0  0  0  0  0  0  0  0  0  0  0
   -3.5901   -0.7923    2.7392 H   0  0  0  0  0  0  0  0  0  0  0  0
   -2.0653   -1.5037    2.3341 H   0  0  0  0  0  0  0  0  0  0  0  0
   -3.5485   -2.2954    1.7850 H   0  0  0  0  0  0  0  0  0  0  0  0
   -5.3583    1.4099   -2.1571 H   0  0  0  0  0  0  0  0  0  0  0  0
   -3.8010    1.8351   -2.8734 H   0  0  0  0  0  0  0  0  0  0  0  0
   -4.4121    2.7565   -1.4917 H   0  0  0  0  0  0  0  0  0  0  0  0
    0.3422   -3.0099   -1.9560 H   0  0  0  0  0  0  0  0  0  0  0  0
   -0.8492   -2.0378   -2.8385 H   0  0  0  0  0  0  0  0  0  0  0  0
    0.8898   -1.8759   -3.1857 H   0  0  0  0  0  0  0  0  0  0  0  0
    3.0389    2.6633    1.0678 H   0  0  0  0  0  0  0  0  0  0  0  0
    4.6456    2.8484    1.7231 H   0  0  0  0  0  0  0  0  0  0  0  0
   -7.1369   -0.3906    1.6099 H   0  0  0  0  0  0  0  0  0  0  0  0
   -5.8115   -1.5189    1.3383 H   0  0  0  0  0  0  0  0  0  0  0  0
   -5.7588   -0.3776    2.7304 H   0  0  0  0  0  0  0  0  0  0  0  0
    3.9549    3.0124   -1.2608 H   0  0  0  0  0  0  0  0  0  0  0  0
    4.3097    4.3757   -0.1823 H   0  0  0  0  0  0  0  0  0  0  0  0
    5.5788    3.2006   -0.5781 H   0  0  0  0  0  0  0  0  0  0  0  0
    3.0957   -2.8861    0.4051 H   0  0  0  0  0  0  0  0  0  0  0  0
    4.8146   -3.1298    0.0820 H   0  0  0  0  0  0  0  0  0  0  0  0
    3.7538   -2.5806   -1.2185 H   0  0  0  0  0  0  0  0  0  0  0  0
  1 12  1  0  0  0  0
  1 20  1  0  0  0  0
  2 13  2  0  0  0  0
  3  7  1  0  0  0  0
  3 22  1  0  0  0  0
  4 16  2  0  0  0  0
  5 20  2  0  0  0  0
  6  8  1  0  0  0  0
  6 11  1  0  0  0  0
  6 26  1  0  0  0  0
  7 19  2  0  0  0  0
  8  9  2  0  0  0  0
  8 13  1  0  0  0  0
  9 10  1  0  0  0  0
  9 14  1  0  0  0  0
 10 11  2  0  0  0  0
 10 16  1  0  0  0  0
 11 15  1  0  0  0  0
 12 13  1  0  0  0  0
 12 17  1  0  0  0  0
 12 27  1  0  0  0  0
 14 28  1  0  0  0  0
 14 29  1  0  0  0  0
 14 30  1  0  0  0  0
 15 31  1  0  0  0  0
 15 32  1  0  0  0  0
 15 33  1  0  0  0  0
 16 23  1  0  0  0  0
 17 34  1  0  0  0  0
 17 35  1  0  0  0  0
 17 36  1  0  0  0  0
 18 19  1  0  0  0  0
 18 20  1  0  0  0  0
 18 22  2  0  0  0  0
 19 21  1  0  0  0  0
 21 24  1  0  0  0  0
 21 37  1  0  0  0  0
 21 38  1  0  0  0  0
 22 25  1  0  0  0  0
 23 39  1  0  0  0  0
 23 40  1  0  0  0  0
 23 41  1  0  0  0  0
 24 42  1  0  0  0  0
 24 43  1  0  0  0  0
 24 44  1  0  0  0  0
 25 45  1  0  0  0  0
 25 46  1  0  0  0  0
 25 47  1  0  0  0  0
M  END
> <PUBCHEM_COMPOUND_CID>
17396186

> <PUBCHEM_CONFORMER_RMSD>
1

> <PUBCHEM_CONFORMER_DIVERSEORDER>
2
87
171
17
228
117
167
113
217
111
128
158
223
149
251
230
11
137
234
151
25
157
201
75
150
63
219
161
10
66
139
250
64
229
190
54
243
173
72
224
168
196
132
21
183
155
104
97
163
5
71
180
20
177
240
112
136
98
185
169
18
135
233
143
91
214
231
184
203
50
256
35
130
115
23
129
226
252
260
62
187
93
15
9
79
119
92
69
174
56
47
86
194
103
51
166
80
246
133
100
153
36
162
197
207
65
176
27
19
152
244
94
262
73
175
222
195
46
237
53
48
49
26
212
154
127
206
22
258
159
110
7
192
263
141
34
142
40
6
146
106
225
216
200
120
188
8
13
67
4
99
114
126
96
74
209
118
248
89
181
83
172
84
58
241
37
105
59
60
107
259
16
245
202
255
138
78
3
164
109
122
253
123
33
198
81
38
204
43
257
261
182
134
193
52
220
242
116
227
14
39
249
170
236
85
76
238
213
131
247
108
156
95
101
178
148
29
1
232
210
61
221
55
140
24
90
125
44
28
77
191
189
254
179
88
42
145
82
68
235
57
165
12
45
70
205
124
218
199
160
215
211
121
239
186
41
144
32
30
102
147
208
31

> <PUBCHEM_MMFF94_PARTIAL_CHARGES>
24
1 -0.43
10 -0.09
11 -0.33
12 0.34
13 0.59
14 0.18
15 0.18
16 0.6
18 -0.09
19 0.11
2 -0.57
20 0.81
21 0.18
22 -0.04
23 0.06
25 0.18
26 0.27
3 -0.02
4 -0.57
5 -0.57
6 0.03
7 -0.41
8 -0.24
9 -0.18

> <PUBCHEM_EFFECTIVE_ROTOR_COUNT>
7

> <PUBCHEM_PHARMACOPHORE_FEATURES>
9
1 2 acceptor
1 24 hydrophobe
1 4 acceptor
1 5 acceptor
1 6 cation
1 6 donor
1 7 acceptor
5 3 7 18 19 22 rings
5 6 8 9 10 11 rings

> <PUBCHEM_HEAVY_ATOM_COUNT>
25

> <PUBCHEM_ATOM_DEF_STEREO_COUNT>
0

> <PUBCHEM_ATOM_UDEF_STEREO_COUNT>
1

> <PUBCHEM_BOND_DEF_STEREO_COUNT>
0

> <PUBCHEM_BOND_UDEF_STEREO_COUNT>
0

> <PUBCHEM_ISOTOPIC_ATOM_COUNT>
0

> <PUBCHEM_COMPONENT_COUNT>
1

> <PUBCHEM_CACTVS_TAUTO_COUNT>
52

> <PUBCHEM_CONFORMER_ID>
010971DA00000002

> <PUBCHEM_MMFF94_ENERGY>
33.7307

> <PUBCHEM_FEATURE_SELFOVERLAP>
45.669

> <PUBCHEM_SHAPE_FINGERPRINT>
10319926 262 17774998007893374233
10670039 82 16299205996122273312
12236239 1 16298387997983222015
12403259 415 18273214226876925493
12516196 113 12895067414280966679
12596602 18 17988641870039781521
12616971 3 17603589655196800101
12633257 1 17846211133898633341
12788726 201 17241030063946532328
12892183 10 17418103121506525637
13103583 49 14045456812750587021
13583140 156 18413110541513574282
13631057 29 16878804707925827303
13675066 3 18202566176654732822
14251764 38 18335982064236319536
14251764 75 17971754368138969672
14341114 176 17917706894310789388
14951699 99 17987509326040246644
15188451 53 16630523995573122219
15342168 16 17894624842693235869
15348495 7 18201435852715193945
1813 80 14117513281148789846
18222031 100 14405185040947482527
20871999 31 6050447003078624711
21033648 29 18131361825030587861
21033650 10 14924483287893469674
21065199 12 18130787807046353258
21792934 111 17774993597774591569
22122407 14 18041267825329385937
22849339 104 4823202936599043661
22950370 63 13110962049980692766
23402539 116 16153716422331488103
23522609 53 12822154520825485775
23559900 14 17916849296937767022
2838139 119 17749115486516026081
3004659 81 13840534224848037236
351380 3 13830133897031724376
4259306 186 10447934966111641976
474 4 17603580850535306023
5104073 3 18272374118452113016
5924683 9 18200312105136235731
7970288 3 12895074011440859249
960060 61 9727632786958320235

> <PUBCHEM_SHAPE_MULTIPOLES>
475.18
14.54
2.57
1.69
3.06
1.05
0.46
6.04
-5.89
-3.33
0.44
1.79
-0.38
1.35

> <PUBCHEM_SHAPE_SELFOVERLAP>
1001.64

> <PUBCHEM_SHAPE_VOLUME>
271.1

> <PUBCHEM_COORDINATE_TYPE>
2
5
10

$$$$

