5280826
  -OEChem-07051212502D

 94 94  0     0  0  0  0  0  0999 V2000
    2.0000   -9.5000    0.0000 O   0  0  0  0  0  0  0  0  0  0  0  0
    2.0000   -7.5000    0.0000 O   0  0  0  0  0  0  0  0  0  0  0  0
    5.4641   -9.5000    0.0000 O   0  0  0  0  0  0  0  0  0  0  0  0
    8.9282    1.5000    0.0000 C   0  0  0  0  0  0  0  0  0  0  0  0
    8.9282    2.5000    0.0000 C   0  0  0  0  0  0  0  0  0  0  0  0
    7.1962   -1.5000    0.0000 C   0  0  0  0  0  0  0  0  0  0  0  0
    7.1962   -0.5000    0.0000 C   0  0  0  0  0  0  0  0  0  0  0  0
    8.0622    1.0000    0.0000 C   0  0  0  0  0  0  0  0  0  0  0  0
   10.6603    4.5000    0.0000 C   0  0  0  0  0  0  0  0  0  0  0  0
    9.7942    4.0000    0.0000 C   0  0  0  0  0  0  0  0  0  0  0  0
    6.3301   -2.0000    0.0000 C   0  0  0  0  0  0  0  0  0  0  0  0
   10.6603    5.5000    0.0000 C   0  0  0  0  0  0  0  0  0  0  0  0
    8.0622    0.0000    0.0000 C   0  0  0  0  0  0  0  0  0  0  0  0
    9.7942    3.0000    0.0000 C   0  0  0  0  0  0  0  0  0  0  0  0
    5.4641   -3.5000    0.0000 C   0  0  0  0  0  0  0  0  0  0  0  0
    5.4641   -4.5000    0.0000 C   0  0  0  0  0  0  0  0  0  0  0  0
    6.3301   -3.0000    0.0000 C   0  0  0  0  0  0  0  0  0  0  0  0
   11.5263    7.0000    0.0000 C   0  0  0  0  0  0  0  0  0  0  0  0
   11.5263    6.0000    0.0000 C   0  0  0  0  0  0  0  0  0  0  0  0
   12.3923    7.5000    0.0000 C   0  0  0  0  0  0  0  0  0  0  0  0
    4.5981   -5.0000    0.0000 C   0  0  0  0  0  0  0  0  0  0  0  0
    7.1962    1.5000    0.0000 C   0  0  0  0  0  0  0  0  0  0  0  0
    8.9282    4.5000    0.0000 C   0  0  0  0  0  0  0  0  0  0  0  0
    5.4641   -1.5000    0.0000 C   0  0  0  0  0  0  0  0  0  0  0  0
   12.3923    8.5000    0.0000 C   0  0  0  0  0  0  0  0  0  0  0  0
    4.5981   -6.0000    0.0000 C   0  0  0  0  0  0  0  0  0  0  0  0
    3.7320   -6.5000    0.0000 C   0  0  0  0  0  0  0  0  0  0  0  0
   10.6603    7.5000    0.0000 C   0  0  0  0  0  0  0  0  0  0  0  0
    3.7320   -4.5000    0.0000 C   0  0  0  0  0  0  0  0  0  0  0  0
   13.2583    9.0000    0.0000 C   0  0  0  0  0  0  0  0  0  0  0  0
    3.7320   -7.5000    0.0000 C   0  0  0  0  0  0  0  0  0  0  0  0
   13.2583   10.0000    0.0000 C   0  0  0  0  0  0  0  0  0  0  0  0
    2.8660   -8.0000    0.0000 C   0  0  0  0  0  0  0  0  0  0  0  0
    4.5981   -8.0000    0.0000 C   0  0  0  0  0  0  0  0  0  0  0  0
    2.8660   -9.0000    0.0000 C   0  0  0  0  0  0  0  0  0  0  0  0
   14.1244   10.5000    0.0000 C   0  0  0  0  0  0  0  0  0  0  0  0
   12.3923   10.5000    0.0000 C   0  0  0  0  0  0  0  0  0  0  0  0
    4.5981   -9.0000    0.0000 C   0  0  0  0  0  0  0  0  0  0  0  0
    3.7320   -9.5000    0.0000 C   0  0  0  0  0  0  0  0  0  0  0  0
    2.0000  -10.5000    0.0000 C   0  0  0  0  0  0  0  0  0  0  0  0
    9.1403    0.9174    0.0000 H   0  0  0  0  0  0  0  0  0  0  0  0
    9.5388    1.6077    0.0000 H   0  0  0  0  0  0  0  0  0  0  0  0
    8.7162    3.0826    0.0000 H   0  0  0  0  0  0  0  0  0  0  0  0
    8.3176    2.3923    0.0000 H   0  0  0  0  0  0  0  0  0  0  0  0
    7.4082   -2.0826    0.0000 H   0  0  0  0  0  0  0  0  0  0  0  0
    7.8067   -1.3923    0.0000 H   0  0  0  0  0  0  0  0  0  0  0  0
    6.9841    0.0826    0.0000 H   0  0  0  0  0  0  0  0  0  0  0  0
    6.5856   -0.6077    0.0000 H   0  0  0  0  0  0  0  0  0  0  0  0
   10.8723    3.9174    0.0000 H   0  0  0  0  0  0  0  0  0  0  0  0
   11.2708    4.6077    0.0000 H   0  0  0  0  0  0  0  0  0  0  0  0
   10.4482    6.0826    0.0000 H   0  0  0  0  0  0  0  0  0  0  0  0
   10.0497    5.3923    0.0000 H   0  0  0  0  0  0  0  0  0  0  0  0
    8.5991   -0.3100    0.0000 H   0  0  0  0  0  0  0  0  0  0  0  0
   10.3312    2.6900    0.0000 H   0  0  0  0  0  0  0  0  0  0  0  0
    5.2520   -2.9174    0.0000 H   0  0  0  0  0  0  0  0  0  0  0  0
    4.8535   -3.6077    0.0000 H   0  0  0  0  0  0  0  0  0  0  0  0
    5.6762   -5.0826    0.0000 H   0  0  0  0  0  0  0  0  0  0  0  0
    6.0747   -4.3923    0.0000 H   0  0  0  0  0  0  0  0  0  0  0  0
    6.8671   -3.3100    0.0000 H   0  0  0  0  0  0  0  0  0  0  0  0
   12.0632    5.6900    0.0000 H   0  0  0  0  0  0  0  0  0  0  0  0
   12.6044    6.9174    0.0000 H   0  0  0  0  0  0  0  0  0  0  0  0
   13.0029    7.6077    0.0000 H   0  0  0  0  0  0  0  0  0  0  0  0
    7.5062    2.0369    0.0000 H   0  0  0  0  0  0  0  0  0  0  0  0
    6.6592    1.8100    0.0000 H   0  0  0  0  0  0  0  0  0  0  0  0
    6.8862    0.9631    0.0000 H   0  0  0  0  0  0  0  0  0  0  0  0
    9.2382    5.0369    0.0000 H   0  0  0  0  0  0  0  0  0  0  0  0
    8.3913    4.8100    0.0000 H   0  0  0  0  0  0  0  0  0  0  0  0
    8.6182    3.9631    0.0000 H   0  0  0  0  0  0  0  0  0  0  0  0
    5.7741   -0.9631    0.0000 H   0  0  0  0  0  0  0  0  0  0  0  0
    4.9272   -1.1900    0.0000 H   0  0  0  0  0  0  0  0  0  0  0  0
    5.1541   -2.0369    0.0000 H   0  0  0  0  0  0  0  0  0  0  0  0
   12.1803    9.0826    0.0000 H   0  0  0  0  0  0  0  0  0  0  0  0
   11.7817    8.3923    0.0000 H   0  0  0  0  0  0  0  0  0  0  0  0
    5.1350   -6.3100    0.0000 H   0  0  0  0  0  0  0  0  0  0  0  0
    3.5200   -5.9174    0.0000 H   0  0  0  0  0  0  0  0  0  0  0  0
    3.1215   -6.6077    0.0000 H   0  0  0  0  0  0  0  0  0  0  0  0
   10.9703    8.0369    0.0000 H   0  0  0  0  0  0  0  0  0  0  0  0
   10.1233    7.8100    0.0000 H   0  0  0  0  0  0  0  0  0  0  0  0
   10.3503    6.9631    0.0000 H   0  0  0  0  0  0  0  0  0  0  0  0
    4.0420   -3.9631    0.0000 H   0  0  0  0  0  0  0  0  0  0  0  0
    3.1951   -4.1900    0.0000 H   0  0  0  0  0  0  0  0  0  0  0  0
    3.4220   -5.0369    0.0000 H   0  0  0  0  0  0  0  0  0  0  0  0
   13.7953    8.6900    0.0000 H   0  0  0  0  0  0  0  0  0  0  0  0
    5.1350   -7.6900    0.0000 H   0  0  0  0  0  0  0  0  0  0  0  0
   14.4344    9.9631    0.0000 H   0  0  0  0  0  0  0  0  0  0  0  0
   14.6613   10.8100    0.0000 H   0  0  0  0  0  0  0  0  0  0  0  0
   13.8144   11.0369    0.0000 H   0  0  0  0  0  0  0  0  0  0  0  0
   12.7023   11.0369    0.0000 H   0  0  0  0  0  0  0  0  0  0  0  0
   11.8554   10.8100    0.0000 H   0  0  0  0  0  0  0  0  0  0  0  0
   12.0823    9.9631    0.0000 H   0  0  0  0  0  0  0  0  0  0  0  0
    3.7320  -10.1200    0.0000 H   0  0  0  0  0  0  0  0  0  0  0  0
    1.3800  -10.5000    0.0000 H   0  0  0  0  0  0  0  0  0  0  0  0
    2.0000  -11.1200    0.0000 H   0  0  0  0  0  0  0  0  0  0  0  0
    2.6200  -10.5000    0.0000 H   0  0  0  0  0  0  0  0  0  0  0  0
  1 35  1  0  0  0  0
  1 40  1  0  0  0  0
  2 33  2  0  0  0  0
  3 38  2  0  0  0  0
  4  5  1  0  0  0  0
  4  8  1  0  0  0  0
  4 41  1  0  0  0  0
  4 42  1  0  0  0  0
  5 14  1  0  0  0  0
  5 43  1  0  0  0  0
  5 44  1  0  0  0  0
  6  7  1  0  0  0  0
  6 11  1  0  0  0  0
  6 45  1  0  0  0  0
  6 46  1  0  0  0  0
  7 13  1  0  0  0  0
  7 47  1  0  0  0  0
  7 48  1  0  0  0  0
  8 13  2  0  0  0  0
  8 22  1  0  0  0  0
  9 10  1  0  0  0  0
  9 12  1  0  0  0  0
  9 49  1  0  0  0  0
  9 50  1  0  0  0  0
 10 14  2  0  0  0  0
 10 23  1  0  0  0  0
 11 17  2  0  0  0  0
 11 24  1  0  0  0  0
 12 19  1  0  0  0  0
 12 51  1  0  0  0  0
 12 52  1  0  0  0  0
 13 53  1  0  0  0  0
 14 54  1  0  0  0  0
 15 16  1  0  0  0  0
 15 17  1  0  0  0  0
 15 55  1  0  0  0  0
 15 56  1  0  0  0  0
 16 21  1  0  0  0  0
 16 57  1  0  0  0  0
 16 58  1  0  0  0  0
 17 59  1  0  0  0  0
 18 19  2  0  0  0  0
 18 20  1  0  0  0  0
 18 28  1  0  0  0  0
 19 60  1  0  0  0  0
 20 25  1  0  0  0  0
 20 61  1  0  0  0  0
 20 62  1  0  0  0  0
 21 26  2  0  0  0  0
 21 29  1  0  0  0  0
 22 63  1  0  0  0  0
 22 64  1  0  0  0  0
 22 65  1  0  0  0  0
 23 66  1  0  0  0  0
 23 67  1  0  0  0  0
 23 68  1  0  0  0  0
 24 69  1  0  0  0  0
 24 70  1  0  0  0  0
 24 71  1  0  0  0  0
 25 30  1  0  0  0  0
 25 72  1  0  0  0  0
 25 73  1  0  0  0  0
 26 27  1  0  0  0  0
 26 74  1  0  0  0  0
 27 31  1  0  0  0  0
 27 75  1  0  0  0  0
 27 76  1  0  0  0  0
 28 77  1  0  0  0  0
 28 78  1  0  0  0  0
 28 79  1  0  0  0  0
 29 80  1  0  0  0  0
 29 81  1  0  0  0  0
 29 82  1  0  0  0  0
 30 32  2  0  0  0  0
 30 83  1  0  0  0  0
 31 33  1  0  0  0  0
 31 34  2  0  0  0  0
 32 36  1  0  0  0  0
 32 37  1  0  0  0  0
 33 35  1  0  0  0  0
 34 38  1  0  0  0  0
 34 84  1  0  0  0  0
 35 39  2  0  0  0  0
 36 85  1  0  0  0  0
 36 86  1  0  0  0  0
 36 87  1  0  0  0  0
 37 88  1  0  0  0  0
 37 89  1  0  0  0  0
 37 90  1  0  0  0  0
 38 39  1  0  0  0  0
 39 91  1  0  0  0  0
 40 92  1  0  0  0  0
 40 93  1  0  0  0  0
 40 94  1  0  0  0  0
M  END
> <PUBCHEM_COMPOUND_CID>
5280826

> <PUBCHEM_COMPOUND_CANONICALIZED>
1

> <PUBCHEM_CACTVS_COMPLEXITY>
1090

> <PUBCHEM_CACTVS_HBOND_ACCEPTOR>
3

> <PUBCHEM_CACTVS_HBOND_DONOR>
0

> <PUBCHEM_CACTVS_ROTATABLE_BOND>
18

> <PUBCHEM_CACTVS_SUBSKEYS>
AAADcfB8MAAAAAAAAAAAAAAAAAAAAAAAAAAgAAAAAAAAAAAAAAAAGgAAAAAADASAgAICAAAABACIAqBSAAIACAAgIAAACAFAAEgAABIAAQQAAAAEwAAIAYKAAAAAAAAAAAAAAAAAAAAAAAAAAAAAAAAAAA==

> <PUBCHEM_IUPAC_OPENEYE_NAME>
2-[(2E,6E,10E,14E,18E)-3,7,11,15,19,23-hexamethyltetracosa-2,6,10,14,18,22-hexaenyl]-6-methoxy-1,4-benzoquinone

> <PUBCHEM_IUPAC_CAS_NAME>
2-[(2E,6E,10E,14E,18E)-3,7,11,15,19,23-hexamethyltetracosa-2,6,10,14,18,22-hexaenyl]-6-methoxycyclohexa-2,5-diene-1,4-dione

> <PUBCHEM_IUPAC_NAME>
2-[(2E,6E,10E,14E,18E)-3,7,11,15,19,23-hexamethyltetracosa-2,6,10,14,18,22-hexaenyl]-6-methoxycyclohexa-2,5-diene-1,4-dione

> <PUBCHEM_IUPAC_SYSTEMATIC_NAME>
2-[(2E,6E,10E,14E,18E)-3,7,11,15,19,23-hexamethyltetracosa-2,6,10,14,18,22-hexaenyl]-6-methoxy-cyclohexa-2,5-diene-1,4-dione

> <PUBCHEM_IUPAC_TRADITIONAL_NAME>
2-[(2E,6E,10E,14E,18E)-3,7,11,15,19,23-hexamethyltetracosa-2,6,10,14,18,22-hexaenyl]-6-methoxy-p-benzoquinone

> <PUBCHEM_IUPAC_INCHI>
InChI=1S/C37H54O3/c1-28(2)14-9-15-29(3)16-10-17-30(4)18-11-19-31(5)20-12-21-32(6)22-13-23-33(7)24-25-34-26-35(38)27-36(40-8)37(34)39/h14,16,18,20,22,24,26-27H,9-13,15,17,19,21,23,25H2,1-8H3/b29-16+,30-18+,31-20+,32-22+,33-24+

> <PUBCHEM_IUPAC_INCHIKEY>
SCPRZSDIZDIQOW-FRICUITQSA-N

> <PUBCHEM_XLOGP3_AA>
11.4

> <PUBCHEM_EXACT_MASS>
546.407296

> <PUBCHEM_MOLECULAR_FORMULA>
C37H54O3

> <PUBCHEM_MOLECULAR_WEIGHT>
546.82286

> <PUBCHEM_OPENEYE_CAN_SMILES>
CC(=CCCC(=CCCC(=CCCC(=CCCC(=CCCC(=CCC1=CC(=O)C=C(C1=O)OC)C)C)C)C)C)C

> <PUBCHEM_OPENEYE_ISO_SMILES>
CC(=CCC/C(=C/CC/C(=C/CC/C(=C/CC/C(=C/CC/C(=C/CC1=CC(=O)C=C(C1=O)OC)/C)/C)/C)/C)/C)C

> <PUBCHEM_CACTVS_TPSA>
43.4

> <PUBCHEM_MONOISOTOPIC_WEIGHT>
546.407296

> <PUBCHEM_TOTAL_CHARGE>
0

> <PUBCHEM_HEAVY_ATOM_COUNT>
40

> <PUBCHEM_ATOM_DEF_STEREO_COUNT>
0

> <PUBCHEM_ATOM_UDEF_STEREO_COUNT>
0

> <PUBCHEM_BOND_DEF_STEREO_COUNT>
5

> <PUBCHEM_BOND_UDEF_STEREO_COUNT>
0

> <PUBCHEM_ISOTOPIC_ATOM_COUNT>
0

> <PUBCHEM_COMPONENT_COUNT>
1

> <PUBCHEM_CACTVS_TAUTO_COUNT>
18

> <PUBCHEM_COORDINATE_TYPE>
1
5
255

$$$$

