159088
  -OEChem-07051212583D

 41 42  0     1  0  0  0  0  0999 V2000
    1.4389    0.6668   -1.5313 O   0  0  0  0  0  0  0  0  0  0  0  0
   -1.2569   -2.7962   -0.5586 O   0  0  0  0  0  0  0  0  0  0  0  0
    3.0093    2.1316   -0.1023 O   0  0  0  0  0  0  0  0  0  0  0  0
    4.0565   -0.6987   -0.1669 O   0  0  0  0  0  0  0  0  0  0  0  0
   -0.1131    0.7210    0.3866 C   0  0  2  0  0  0  0  0  0  0  0  0
   -1.0855   -0.3797   -0.1928 C   0  0  2  0  0  0  0  0  0  0  0  0
   -2.6356   -0.0895   -0.0143 C   0  0  0  0  0  0  0  0  0  0  0  0
   -0.5237    2.1533   -0.0931 C   0  0  0  0  0  0  0  0  0  0  0  0
    1.3468    0.3818   -0.1304 C   0  0  1  0  0  0  0  0  0  0  0  0
   -2.9163    1.4288    0.1206 C   0  0  0  0  0  0  0  0  0  0  0  0
   -0.6470   -1.8046    0.2663 C   0  0  2  0  0  0  0  0  0  0  0  0
   -1.9293    2.2644   -0.6716 C   0  0  0  0  0  0  0  0  0  0  0  0
   -0.1456    0.7118    1.9421 C   0  0  0  0  0  0  0  0  0  0  0  0
   -3.3936   -0.5950   -1.2719 C   0  0  0  0  0  0  0  0  0  0  0  0
   -3.2798   -0.7969    1.1969 C   0  0  0  0  0  0  0  0  0  0  0  0
    1.7342   -1.0619    0.0570 C   0  0  0  0  0  0  0  0  0  0  0  0
    0.8375   -2.0401    0.2461 C   0  0  0  0  0  0  0  0  0  0  0  0
    2.3643    1.2914    0.5160 C   0  0  0  0  0  0  0  0  0  0  0  0
    3.1390   -1.4883    0.0017 C   0  0  0  0  0  0  0  0  0  0  0  0
   -0.9233   -0.3599   -1.2829 H   0  0  0  0  0  0  0  0  0  0  0  0
    0.1592    2.5764   -0.8334 H   0  0  0  0  0  0  0  0  0  0  0  0
   -0.4548    2.8498    0.7540 H   0  0  0  0  0  0  0  0  0  0  0  0
   -2.8766    1.7393    1.1720 H   0  0  0  0  0  0  0  0  0  0  0  0
   -3.9359    1.6608   -0.2127 H   0  0  0  0  0  0  0  0  0  0  0  0
   -0.9807   -1.9906    1.2927 H   0  0  0  0  0  0  0  0  0  0  0  0
   -2.2403    3.3157   -0.6598 H   0  0  0  0  0  0  0  0  0  0  0  0
   -1.9244    1.9555   -1.7233 H   0  0  0  0  0  0  0  0  0  0  0  0
    0.2107   -0.2302    2.3683 H   0  0  0  0  0  0  0  0  0  0  0  0
    0.4738    1.5103    2.3650 H   0  0  0  0  0  0  0  0  0  0  0  0
   -1.1514    0.8875    2.3287 H   0  0  0  0  0  0  0  0  0  0  0  0
   -3.0228   -0.1175   -2.1852 H   0  0  0  0  0  0  0  0  0  0  0  0
   -3.2980   -1.6769   -1.3999 H   0  0  0  0  0  0  0  0  0  0  0  0
   -4.4659   -0.3769   -1.2016 H   0  0  0  0  0  0  0  0  0  0  0  0
   -3.2856   -1.8856    1.0790 H   0  0  0  0  0  0  0  0  0  0  0  0
   -2.7668   -0.5631    2.1330 H   0  0  0  0  0  0  0  0  0  0  0  0
   -4.3258   -0.4888    1.3161 H   0  0  0  0  0  0  0  0  0  0  0  0
    1.1620   -3.0681    0.3926 H   0  0  0  0  0  0  0  0  0  0  0  0
    2.5238    1.1638    1.6004 H   0  0  0  0  0  0  0  0  0  0  0  0
    1.6289    1.6090   -1.6680 H   0  0  0  0  0  0  0  0  0  0  0  0
   -1.0550   -3.6682   -0.1781 H   0  0  0  0  0  0  0  0  0  0  0  0
    3.3331   -2.5673    0.1237 H   0  0  0  0  0  0  0  0  0  0  0  0
  1  9  1  0  0  0  0
  1 39  1  0  0  0  0
  2 11  1  0  0  0  0
  2 40  1  0  0  0  0
  3 18  2  0  0  0  0
  4 19  2  0  0  0  0
  5  6  1  0  0  0  0
  5  8  1  0  0  0  0
  5  9  1  0  0  0  0
  5 13  1  0  0  0  0
  6  7  1  0  0  0  0
  6 11  1  0  0  0  0
  6 20  1  0  0  0  0
  7 10  1  0  0  0  0
  7 14  1  0  0  0  0
  7 15  1  0  0  0  0
  8 12  1  0  0  0  0
  8 21  1  0  0  0  0
  8 22  1  0  0  0  0
  9 16  1  0  0  0  0
  9 18  1  0  0  0  0
 10 12  1  0  0  0  0
 10 23  1  0  0  0  0
 10 24  1  0  0  0  0
 11 17  1  0  0  0  0
 11 25  1  0  0  0  0
 12 26  1  0  0  0  0
 12 27  1  0  0  0  0
 13 28  1  0  0  0  0
 13 29  1  0  0  0  0
 13 30  1  0  0  0  0
 14 31  1  0  0  0  0
 14 32  1  0  0  0  0
 14 33  1  0  0  0  0
 15 34  1  0  0  0  0
 15 35  1  0  0  0  0
 15 36  1  0  0  0  0
 16 17  2  0  0  0  0
 16 19  1  0  0  0  0
 17 37  1  0  0  0  0
 18 38  1  0  0  0  0
 19 41  1  0  0  0  0
M  END
> <PUBCHEM_COMPOUND_CID>
159088

> <PUBCHEM_CONFORMER_RMSD>
0.6

> <PUBCHEM_CONFORMER_DIVERSEORDER>
1
2

> <PUBCHEM_MMFF94_PARTIAL_CHARGES>
15
1 -0.68
11 0.42
16 -0.12
17 -0.29
18 0.45
19 0.5
2 -0.68
3 -0.57
37 0.15
38 0.06
39 0.4
4 -0.57
40 0.4
41 0.06
9 0.48

> <PUBCHEM_EFFECTIVE_ROTOR_COUNT>
3.2

> <PUBCHEM_PHARMACOPHORE_FEATURES>
9
1 1 acceptor
1 1 donor
1 2 acceptor
1 2 donor
1 3 acceptor
1 4 acceptor
3 7 14 15 hydrophobe
6 5 6 7 8 10 12 rings
6 5 6 9 11 16 17 rings

> <PUBCHEM_HEAVY_ATOM_COUNT>
19

> <PUBCHEM_ATOM_DEF_STEREO_COUNT>
4

> <PUBCHEM_ATOM_UDEF_STEREO_COUNT>
0

> <PUBCHEM_BOND_DEF_STEREO_COUNT>
0

> <PUBCHEM_BOND_UDEF_STEREO_COUNT>
0

> <PUBCHEM_ISOTOPIC_ATOM_COUNT>
0

> <PUBCHEM_COMPONENT_COUNT>
1

> <PUBCHEM_CACTVS_TAUTO_COUNT>
1

> <PUBCHEM_CONFORMER_ID>
00026D7000000001

> <PUBCHEM_MMFF94_ENERGY>
67.6647

> <PUBCHEM_FEATURE_SELFOVERLAP>
45.698

> <PUBCHEM_SHAPE_FINGERPRINT>
10062212 137 18197786711040706418
10863032 1 18411699846414163589
10967382 1 18267023860158376352
11132069 177 18186812386841992642
11206711 2 18339921648641561878
12423570 1 7081597401176646992
13132413 78 18192997251512165404
13140716 1 18339077219548701769
13172582 1 18336817620242854499
13583140 156 17059793134180932392
15219456 202 18410857667889434952
15775835 57 18265890439837560521
16945 1 18264773155635308641
17844478 74 18272077297610078747
18186145 218 18261108612265762872
21501502 16 18335143098040354320
22344851 262 17984694777735266821
22802520 49 18340764931374234473
2334 1 18411139142913579225
23402539 116 18116727407323143558
23419403 2 16756140041644089987
23493267 7 17560806571402426361
23559900 14 18187933949639059186
238 59 17479215228004495325
2748010 2 18412266168117606293
350125 39 18339353171134217881
528886 8 18269559514613699601
7364860 26 18408041810384606808
9709674 26 18408039624125167966

> <PUBCHEM_SHAPE_MULTIPOLES>
367.53
5.36
2.61
1.14
1.22
0.1
-0.23
0.25
0.52
0.02
0.25
-0.46
-0.1
0.08

> <PUBCHEM_SHAPE_SELFOVERLAP>
769.675

> <PUBCHEM_SHAPE_VOLUME>
204.3

> <PUBCHEM_COORDINATE_TYPE>
2
5
10

$$$$

