14061801
  -OEChem-07051213112D

 45 44  0     1  0  0  0  0  0999 V2000
    3.4030   -3.1270    0.0000 P   0  0  0  0  0  0  0  0  0  0  0  0
    7.7331   -2.6270    0.0000 O   0  0  0  0  0  0  0  0  0  0  0  0
    5.1350   -3.1270    0.0000 O   0  0  0  0  0  0  0  0  0  0  0  0
    6.8671   -3.1270    0.0000 O   0  0  0  0  0  0  0  0  0  0  0  0
    2.5369   -3.6270    0.0000 O   0  0  0  0  0  0  0  0  0  0  0  0
    2.9030   -2.2610    0.0000 O   0  0  0  0  0  0  0  0  0  0  0  0
    3.9030   -3.9930    0.0000 O   0  0  0  0  0  0  0  0  0  0  0  0
    6.8671   -1.1270    0.0000 N   0  0  0  0  0  0  0  0  0  0  0  0
    9.4651   -1.6270    0.0000 N   0  0  0  0  0  0  0  0  0  0  0  0
   10.3312    1.8730    0.0000 N   0  0  0  0  0  0  0  0  0  0  0  0
   11.1972    3.3730    0.0000 N   0  0  0  0  0  0  0  0  0  0  0  0
    9.4651    3.3730    0.0000 N   0  0  0  0  0  0  0  0  0  0  0  0
    8.5991   -0.1270    0.0000 C   0  0  0  0  0  0  0  0  0  0  0  0
    8.5991   -1.1270    0.0000 C   0  0  1  0  0  0  0  0  0  0  0  0
    9.4651    0.3730    0.0000 C   0  0  0  0  0  0  0  0  0  0  0  0
    7.7331   -1.6270    0.0000 C   0  0  0  0  0  0  0  0  0  0  0  0
    9.4651    1.3730    0.0000 C   0  0  0  0  0  0  0  0  0  0  0  0
    6.0010   -1.6270    0.0000 C   0  0  1  0  0  0  0  0  0  0  0  0
    5.1350   -1.1270    0.0000 C   0  0  0  0  0  0  0  0  0  0  0  0
    4.2690   -1.6270    0.0000 C   0  0  0  0  0  0  0  0  0  0  0  0
    4.2690   -2.6270    0.0000 C   0  0  0  0  0  0  0  0  0  0  0  0
    6.0010   -2.6270    0.0000 C   0  0  0  0  0  0  0  0  0  0  0  0
   10.3312    2.8730    0.0000 C   0  0  0  0  0  0  0  0  0  0  0  0
    8.3871    0.4556    0.0000 H   0  0  0  0  0  0  0  0  0  0  0  0
    7.9885   -0.2346    0.0000 H   0  0  0  0  0  0  0  0  0  0  0  0
    8.5991   -1.7470    0.0000 H   0  0  0  0  0  0  0  0  0  0  0  0
    9.6772   -0.2096    0.0000 H   0  0  0  0  0  0  0  0  0  0  0  0
   10.0757    0.4807    0.0000 H   0  0  0  0  0  0  0  0  0  0  0  0
    6.5380   -1.9370    0.0000 H   0  0  0  0  0  0  0  0  0  0  0  0
    9.2531    1.9556    0.0000 H   0  0  0  0  0  0  0  0  0  0  0  0
    8.8546    1.2654    0.0000 H   0  0  0  0  0  0  0  0  0  0  0  0
    6.8671   -0.5070    0.0000 H   0  0  0  0  0  0  0  0  0  0  0  0
   10.0021   -1.3170    0.0000 H   0  0  0  0  0  0  0  0  0  0  0  0
    9.4651   -2.2470    0.0000 H   0  0  0  0  0  0  0  0  0  0  0  0
    5.1350   -0.5070    0.0000 H   0  0  0  0  0  0  0  0  0  0  0  0
    3.7320   -1.3170    0.0000 H   0  0  0  0  0  0  0  0  0  0  0  0
    4.4810   -3.2096    0.0000 H   0  0  0  0  0  0  0  0  0  0  0  0
    4.8796   -2.5193    0.0000 H   0  0  0  0  0  0  0  0  0  0  0  0
    5.1350   -3.7470    0.0000 H   0  0  0  0  0  0  0  0  0  0  0  0
    2.0000   -3.3170    0.0000 H   0  0  0  0  0  0  0  0  0  0  0  0
    2.2830   -2.2610    0.0000 H   0  0  0  0  0  0  0  0  0  0  0  0
   11.1972    3.9930    0.0000 H   0  0  0  0  0  0  0  0  0  0  0  0
   11.7341    3.0630    0.0000 H   0  0  0  0  0  0  0  0  0  0  0  0
    9.4651    3.9930    0.0000 H   0  0  0  0  0  0  0  0  0  0  0  0
    8.9282    3.0630    0.0000 H   0  0  0  0  0  0  0  0  0  0  0  0
  1  5  1  0  0  0  0
  1  6  1  0  0  0  0
  1  7  2  0  0  0  0
  1 21  1  0  0  0  0
  2 16  2  0  0  0  0
  3 22  1  0  0  0  0
  3 39  1  0  0  0  0
  4 22  2  0  0  0  0
  5 40  1  0  0  0  0
  6 41  1  0  0  0  0
  8 16  1  0  0  0  0
 18  8  1  6  0  0  0
  8 32  1  0  0  0  0
 14  9  1  6  0  0  0
  9 33  1  0  0  0  0
  9 34  1  0  0  0  0
 10 17  1  0  0  0  0
 10 23  2  0  0  0  0
 11 23  1  0  0  0  0
 11 42  1  0  0  0  0
 11 43  1  0  0  0  0
 12 23  1  0  0  0  0
 12 44  1  0  0  0  0
 12 45  1  0  0  0  0
 13 14  1  0  0  0  0
 13 15  1  0  0  0  0
 13 24  1  0  0  0  0
 13 25  1  0  0  0  0
 14 16  1  0  0  0  0
 14 26  1  0  0  0  0
 15 17  1  0  0  0  0
 15 27  1  0  0  0  0
 15 28  1  0  0  0  0
 17 30  1  0  0  0  0
 17 31  1  0  0  0  0
 18 19  1  0  0  0  0
 18 22  1  0  0  0  0
 18 29  1  0  0  0  0
 19 20  2  0  0  0  0
 19 35  1  0  0  0  0
 20 21  1  0  0  0  0
 20 36  1  0  0  0  0
 21 37  1  0  0  0  0
 21 38  1  0  0  0  0
M  END
> <PUBCHEM_COMPOUND_CID>
14061801

> <PUBCHEM_COMPOUND_CANONICALIZED>
1

> <PUBCHEM_CACTVS_COMPLEXITY>
513

> <PUBCHEM_CACTVS_HBOND_ACCEPTOR>
8

> <PUBCHEM_CACTVS_HBOND_DONOR>
7

> <PUBCHEM_CACTVS_ROTATABLE_BOND>
10

> <PUBCHEM_CACTVS_SUBSKEYS>
AAADceBzuAIAAAAAAAAAAAAAAAAAAAAAAAAAAAAAAAAAAAAAAAAAHggQCCAACCjJgAQBCALAAhCoQCHSPICAAAEgAAAICIGIAAgCQBIAgSAUQAAAVgCYAAIYAQAAAAAAAAAAAAAAAAAAAAAAAAAAAAAAAA==

> <PUBCHEM_IUPAC_OPENEYE_NAME>
(Z,2S)-2-[[(2S)-2-amino-5-guanidino-pentanoyl]amino]-5-phosphono-pent-3-enoic acid

> <PUBCHEM_IUPAC_CAS_NAME>
(Z,2S)-2-[[(2S)-2-amino-5-(diaminomethylideneamino)-1-oxopentyl]amino]-5-phosphono-3-pentenoic acid

> <PUBCHEM_IUPAC_NAME>
(Z,2S)-2-[[(2S)-2-amino-5-(diaminomethylideneamino)pentanoyl]amino]-5-phosphonopent-3-enoic acid

> <PUBCHEM_IUPAC_SYSTEMATIC_NAME>
(Z,2S)-2-[[(2S)-2-azanyl-5-[bis(azanyl)methylideneamino]pentanoyl]amino]-5-phosphono-pent-3-enoic acid

> <PUBCHEM_IUPAC_TRADITIONAL_NAME>
(Z,2S)-2-[[(2S)-2-amino-5-guanidino-pentanoyl]amino]-5-phosphono-pent-3-enoic acid

> <PUBCHEM_IUPAC_INCHI>
InChI=1S/C11H22N5O6P/c12-7(3-1-5-15-11(13)14)9(17)16-8(10(18)19)4-2-6-23(20,21)22/h2,4,7-8H,1,3,5-6,12H2,(H,16,17)(H,18,19)(H4,13,14,15)(H2,20,21,22)/b4-2-/t7-,8-/m0/s1

> <PUBCHEM_IUPAC_INCHIKEY>
BLNRPHBKOMCMBX-ABXVWLFBSA-N

> <PUBCHEM_XLOGP3_AA>
-6.2

> <PUBCHEM_EXACT_MASS>
351.13077

> <PUBCHEM_MOLECULAR_FORMULA>
C11H22N5O6P

> <PUBCHEM_MOLECULAR_WEIGHT>
351.296042

> <PUBCHEM_OPENEYE_CAN_SMILES>
C(CC(C(=O)NC(C=CCP(=O)(O)O)C(=O)O)N)CN=C(N)N

> <PUBCHEM_OPENEYE_ISO_SMILES>
C(C[C@@H](C(=O)N[C@@H](/C=C\CP(=O)(O)O)C(=O)O)N)CN=C(N)N

> <PUBCHEM_CACTVS_TPSA>
214

> <PUBCHEM_MONOISOTOPIC_WEIGHT>
351.13077

> <PUBCHEM_TOTAL_CHARGE>
0

> <PUBCHEM_HEAVY_ATOM_COUNT>
23

> <PUBCHEM_ATOM_DEF_STEREO_COUNT>
2

> <PUBCHEM_ATOM_UDEF_STEREO_COUNT>
0

> <PUBCHEM_BOND_DEF_STEREO_COUNT>
1

> <PUBCHEM_BOND_UDEF_STEREO_COUNT>
0

> <PUBCHEM_ISOTOPIC_ATOM_COUNT>
0

> <PUBCHEM_COMPONENT_COUNT>
1

> <PUBCHEM_CACTVS_TAUTO_COUNT>
4

> <PUBCHEM_COORDINATE_TYPE>
1
5
255

> <PUBCHEM_BONDANNOTATIONS>
18  8  6
14  9  6

$$$$

