443718
  -OEChem-07051213032D

 49 52  0     0  0  0  0  0  0999 V2000
    2.9802   -3.3452    0.0000 O   0  0  0  0  0  0  0  0  0  0  0  0
    2.1360   -1.8137    0.0000 O   0  0  0  0  0  0  0  0  0  0  0  0
    4.7462   -4.3830    0.0000 O   0  0  0  0  0  0  0  0  0  0  0  0
    2.0116    3.3232    0.0000 O   0  0  0  0  0  0  0  0  0  0  0  0
    3.8149    4.3830    0.0000 O   0  0  0  0  0  0  0  0  0  0  0  0
    3.0020   -0.3137    0.0000 N   0  0  0  0  0  0  0  0  0  0  0  0
    3.8680    0.1863    0.0000 C   0  0  0  0  0  0  0  0  0  0  0  0
    4.7340   -0.3137    0.0000 C   0  0  0  0  0  0  0  0  0  0  0  0
    4.7340   -1.3137    0.0000 C   0  0  0  0  0  0  0  0  0  0  0  0
    3.8520    1.2278    0.0000 C   0  0  0  0  0  0  0  0  0  0  0  0
    3.8680   -1.8137    0.0000 C   0  0  0  0  0  0  0  0  0  0  0  0
    4.7500    1.7555    0.0000 C   0  0  0  0  0  0  0  0  0  0  0  0
    3.0020   -1.3137    0.0000 C   0  0  0  0  0  0  0  0  0  0  0  0
    5.6440    0.1931    0.0000 C   0  0  0  0  0  0  0  0  0  0  0  0
    5.6521    1.2347    0.0000 C   0  0  0  0  0  0  0  0  0  0  0  0
    3.8520   -2.8552    0.0000 C   0  0  0  0  0  0  0  0  0  0  0  0
    2.9000    1.7484    0.0000 C   0  0  0  0  0  0  0  0  0  0  0  0
    5.6440   -1.8206    0.0000 C   0  0  0  0  0  0  0  0  0  0  0  0
    2.1360    0.1863    0.0000 C   0  0  0  0  0  0  0  0  0  0  0  0
    4.7584    2.8405    0.0000 C   0  0  0  0  0  0  0  0  0  0  0  0
    4.7500   -3.3830    0.0000 C   0  0  0  0  0  0  0  0  0  0  0  0
    2.8833    2.8333    0.0000 C   0  0  0  0  0  0  0  0  0  0  0  0
    5.6521   -2.8622    0.0000 C   0  0  0  0  0  0  0  0  0  0  0  0
    3.8187    3.3830    0.0000 C   0  0  0  0  0  0  0  0  0  0  0  0
    2.9686   -4.3451    0.0000 C   0  0  0  0  0  0  0  0  0  0  0  0
    5.6102   -4.8863    0.0000 C   0  0  0  0  0  0  0  0  0  0  0  0
    2.0000    4.3232    0.0000 C   0  0  0  0  0  0  0  0  0  0  0  0
    4.6790    4.8863    0.0000 C   0  0  0  0  0  0  0  0  0  0  0  0
    6.1774   -0.1231    0.0000 H   0  0  0  0  0  0  0  0  0  0  0  0
    6.1902    1.5426    0.0000 H   0  0  0  0  0  0  0  0  0  0  0  0
    2.3692    1.4281    0.0000 H   0  0  0  0  0  0  0  0  0  0  0  0
    6.1774   -1.5044    0.0000 H   0  0  0  0  0  0  0  0  0  0  0  0
    2.4460    0.7232    0.0000 H   0  0  0  0  0  0  0  0  0  0  0  0
    1.5990    0.4963    0.0000 H   0  0  0  0  0  0  0  0  0  0  0  0
    1.8260   -0.3507    0.0000 H   0  0  0  0  0  0  0  0  0  0  0  0
    5.2965    3.1484    0.0000 H   0  0  0  0  0  0  0  0  0  0  0  0
    6.1902   -3.1701    0.0000 H   0  0  0  0  0  0  0  0  0  0  0  0
    2.3487   -4.3380    0.0000 H   0  0  0  0  0  0  0  0  0  0  0  0
    2.9615   -4.9651    0.0000 H   0  0  0  0  0  0  0  0  0  0  0  0
    3.5886   -4.3523    0.0000 H   0  0  0  0  0  0  0  0  0  0  0  0
    5.2982   -5.4220    0.0000 H   0  0  0  0  0  0  0  0  0  0  0  0
    6.1460   -5.1984    0.0000 H   0  0  0  0  0  0  0  0  0  0  0  0
    5.9223   -4.3506    0.0000 H   0  0  0  0  0  0  0  0  0  0  0  0
    2.6200    4.3303    0.0000 H   0  0  0  0  0  0  0  0  0  0  0  0
    1.9928    4.9431    0.0000 H   0  0  0  0  0  0  0  0  0  0  0  0
    1.3800    4.3160    0.0000 H   0  0  0  0  0  0  0  0  0  0  0  0
    4.9910    4.3506    0.0000 H   0  0  0  0  0  0  0  0  0  0  0  0
    5.2147    5.1984    0.0000 H   0  0  0  0  0  0  0  0  0  0  0  0
    4.3669    5.4221    0.0000 H   0  0  0  0  0  0  0  0  0  0  0  0
  1 16  1  0  0  0  0
  1 25  1  0  0  0  0
  2 13  2  0  0  0  0
  3 21  1  0  0  0  0
  3 26  1  0  0  0  0
  4 22  1  0  0  0  0
  4 27  1  0  0  0  0
  5 24  1  0  0  0  0
  5 28  1  0  0  0  0
  6  7  1  0  0  0  0
  6 13  1  0  0  0  0
  6 19  1  0  0  0  0
  7  8  2  0  0  0  0
  7 10  1  0  0  0  0
  8  9  1  0  0  0  0
  8 14  1  0  0  0  0
  9 11  2  0  0  0  0
  9 18  1  0  0  0  0
 10 12  1  0  0  0  0
 10 17  2  0  0  0  0
 11 13  1  0  0  0  0
 11 16  1  0  0  0  0
 12 15  1  0  0  0  0
 12 20  2  0  0  0  0
 14 15  2  0  0  0  0
 14 29  1  0  0  0  0
 15 30  1  0  0  0  0
 16 21  2  0  0  0  0
 17 22  1  0  0  0  0
 17 31  1  0  0  0  0
 18 23  2  0  0  0  0
 18 32  1  0  0  0  0
 19 33  1  0  0  0  0
 19 34  1  0  0  0  0
 19 35  1  0  0  0  0
 20 24  1  0  0  0  0
 20 36  1  0  0  0  0
 21 23  1  0  0  0  0
 22 24  2  0  0  0  0
 23 37  1  0  0  0  0
 25 38  1  0  0  0  0
 25 39  1  0  0  0  0
 25 40  1  0  0  0  0
 26 41  1  0  0  0  0
 26 42  1  0  0  0  0
 26 43  1  0  0  0  0
 27 44  1  0  0  0  0
 27 45  1  0  0  0  0
 27 46  1  0  0  0  0
 28 47  1  0  0  0  0
 28 48  1  0  0  0  0
 28 49  1  0  0  0  0
M  END
> <PUBCHEM_COMPOUND_CID>
443718

> <PUBCHEM_COMPOUND_CANONICALIZED>
1

> <PUBCHEM_CACTVS_COMPLEXITY>
571

> <PUBCHEM_CACTVS_HBOND_ACCEPTOR>
5

> <PUBCHEM_CACTVS_HBOND_DONOR>
0

> <PUBCHEM_CACTVS_ROTATABLE_BOND>
4

> <PUBCHEM_CACTVS_SUBSKEYS>
AAADceB6OAAAAAAAAAAAAAAAAAAAAAAAAAA8YMEAAAAAAADxVAAAHgAAAAAADAyBmAYyxsMABACIAiVSUACCCAAlIAAIiAEOzMgNJjbEtZuEMWpm5hHK6Qe62fOe4AADQAAaQADAAAaAADSAAAAAAAAAAA==

> <PUBCHEM_IUPAC_OPENEYE_NAME>
2,3,7,8-tetramethoxy-5-methyl-benzo[c]phenanthridin-6-one

> <PUBCHEM_IUPAC_CAS_NAME>
2,3,7,8-tetramethoxy-5-methyl-6-benzo[c]phenanthridinone

> <PUBCHEM_IUPAC_NAME>
2,3,7,8-tetramethoxy-5-methylbenzo[c]phenanthridin-6-one

> <PUBCHEM_IUPAC_SYSTEMATIC_NAME>
2,3,7,8-tetramethoxy-5-methyl-benzo[c]phenanthridin-6-one

> <PUBCHEM_IUPAC_TRADITIONAL_NAME>
2,3,7,8-tetramethoxy-5-methyl-benzo[c]phenanthridin-6-one

> <PUBCHEM_IUPAC_INCHI>
InChI=1S/C22H21NO5/c1-23-20-14(7-6-12-10-17(26-3)18(27-4)11-15(12)20)13-8-9-16(25-2)21(28-5)19(13)22(23)24/h6-11H,1-5H3

> <PUBCHEM_IUPAC_INCHIKEY>
OTYYIACHHIZJSL-UHFFFAOYSA-N

> <PUBCHEM_XLOGP3_AA>
3.8

> <PUBCHEM_EXACT_MASS>
379.141973

> <PUBCHEM_MOLECULAR_FORMULA>
C22H21NO5

> <PUBCHEM_MOLECULAR_WEIGHT>
379.40584

> <PUBCHEM_OPENEYE_CAN_SMILES>
CN1C2=C(C=CC3=CC(=C(C=C32)OC)OC)C4=C(C1=O)C(=C(C=C4)OC)OC

> <PUBCHEM_OPENEYE_ISO_SMILES>
CN1C2=C(C=CC3=CC(=C(C=C32)OC)OC)C4=C(C1=O)C(=C(C=C4)OC)OC

> <PUBCHEM_CACTVS_TPSA>
57.2

> <PUBCHEM_MONOISOTOPIC_WEIGHT>
379.141973

> <PUBCHEM_TOTAL_CHARGE>
0

> <PUBCHEM_HEAVY_ATOM_COUNT>
28

> <PUBCHEM_ATOM_DEF_STEREO_COUNT>
0

> <PUBCHEM_ATOM_UDEF_STEREO_COUNT>
0

> <PUBCHEM_BOND_DEF_STEREO_COUNT>
0

> <PUBCHEM_BOND_UDEF_STEREO_COUNT>
0

> <PUBCHEM_ISOTOPIC_ATOM_COUNT>
0

> <PUBCHEM_COMPONENT_COUNT>
1

> <PUBCHEM_CACTVS_TAUTO_COUNT>
1

> <PUBCHEM_COORDINATE_TYPE>
1
5
255

> <PUBCHEM_BONDANNOTATIONS>
10  12  8
10  17  8
11  13  8
11  16  8
12  15  8
12  20  8
14  15  8
16  21  8
17  22  8
18  23  8
20  24  8
21  23  8
22  24  8
6  13  8
6  7  8
7  10  8
7  8  8
8  14  8
8  9  8
9  11  8
9  18  8

$$$$

