17396489
  -OEChem-06241222562D

 65 68  0     0  0  0  0  0  0999 V2000
    5.4641    2.2500    0.0000 S   0  0  0  0  0  0  0  0  0  0  0  0
    5.4641    5.2500    0.0000 O   0  0  0  0  0  0  0  0  0  0  0  0
    6.4641    2.2500    0.0000 O   0  0  0  0  0  0  0  0  0  0  0  0
    4.4641    2.2500    0.0000 O   0  0  0  0  0  0  0  0  0  0  0  0
    3.7320    1.2500    0.0000 O   0  0  0  0  0  0  0  0  0  0  0  0
    6.3301   -2.2500    0.0000 O   0  0  0  0  0  0  0  0  0  0  0  0
    5.4641    3.2500    0.0000 N   0  0  0  0  0  0  0  0  0  0  0  0
    7.1962   -0.7500    0.0000 N   0  0  0  0  0  0  0  0  0  0  0  0
    4.5981    3.7500    0.0000 C   0  0  0  0  0  0  0  0  0  0  0  0
    6.3301    3.7500    0.0000 C   0  0  0  0  0  0  0  0  0  0  0  0
    4.5981    4.7500    0.0000 C   0  0  0  0  0  0  0  0  0  0  0  0
    6.3301    4.7500    0.0000 C   0  0  0  0  0  0  0  0  0  0  0  0
    5.4641    1.2500    0.0000 C   0  0  0  0  0  0  0  0  0  0  0  0
    8.0622   -3.2500    0.0000 C   0  0  0  0  0  0  0  0  0  0  0  0
    8.0622   -2.2500    0.0000 C   0  0  0  0  0  0  0  0  0  0  0  0
    6.3301    0.7500    0.0000 C   0  0  0  0  0  0  0  0  0  0  0  0
    4.5981    0.7500    0.0000 C   0  0  0  0  0  0  0  0  0  0  0  0
    6.3301   -0.2500    0.0000 C   0  0  0  0  0  0  0  0  0  0  0  0
    8.9282   -3.7500    0.0000 C   0  0  0  0  0  0  0  0  0  0  0  0
    7.1962   -3.7500    0.0000 C   0  0  0  0  0  0  0  0  0  0  0  0
    7.1962   -1.7500    0.0000 C   0  0  0  0  0  0  0  0  0  0  0  0
    4.5981   -0.2500    0.0000 C   0  0  0  0  0  0  0  0  0  0  0  0
    5.4641   -0.7500    0.0000 C   0  0  0  0  0  0  0  0  0  0  0  0
    6.3301   -3.2500    0.0000 C   0  0  0  0  0  0  0  0  0  0  0  0
    8.9282   -4.7500    0.0000 C   0  0  0  0  0  0  0  0  0  0  0  0
    9.7942   -3.2500    0.0000 C   0  0  0  0  0  0  0  0  0  0  0  0
    7.1962   -4.7500    0.0000 C   0  0  0  0  0  0  0  0  0  0  0  0
    2.8660    0.7500    0.0000 C   0  0  0  0  0  0  0  0  0  0  0  0
    5.4641   -3.7500    0.0000 C   0  0  0  0  0  0  0  0  0  0  0  0
    9.7942   -5.2500    0.0000 C   0  0  0  0  0  0  0  0  0  0  0  0
    6.3301   -5.2500    0.0000 C   0  0  0  0  0  0  0  0  0  0  0  0
   10.6603   -3.7500    0.0000 C   0  0  0  0  0  0  0  0  0  0  0  0
    5.4641   -4.7500    0.0000 C   0  0  0  0  0  0  0  0  0  0  0  0
   10.6603   -4.7500    0.0000 C   0  0  0  0  0  0  0  0  0  0  0  0
    2.0000    1.2500    0.0000 C   0  0  0  0  0  0  0  0  0  0  0  0
    6.5422    3.1674    0.0000 H   0  0  0  0  0  0  0  0  0  0  0  0
    6.9407    3.8577    0.0000 H   0  0  0  0  0  0  0  0  0  0  0  0
    3.9875    3.8577    0.0000 H   0  0  0  0  0  0  0  0  0  0  0  0
    4.3860    3.1674    0.0000 H   0  0  0  0  0  0  0  0  0  0  0  0
    6.9407    4.6423    0.0000 H   0  0  0  0  0  0  0  0  0  0  0  0
    6.5422    5.3326    0.0000 H   0  0  0  0  0  0  0  0  0  0  0  0
    4.3860    5.3326    0.0000 H   0  0  0  0  0  0  0  0  0  0  0  0
    3.9875    4.6423    0.0000 H   0  0  0  0  0  0  0  0  0  0  0  0
    7.5252   -2.9400    0.0000 H   0  0  0  0  0  0  0  0  0  0  0  0
    8.6728   -2.3577    0.0000 H   0  0  0  0  0  0  0  0  0  0  0  0
    8.2742   -1.6674    0.0000 H   0  0  0  0  0  0  0  0  0  0  0  0
    6.8671    1.0600    0.0000 H   0  0  0  0  0  0  0  0  0  0  0  0
    7.7331   -0.4400    0.0000 H   0  0  0  0  0  0  0  0  0  0  0  0
    4.0611   -0.5600    0.0000 H   0  0  0  0  0  0  0  0  0  0  0  0
    5.4641   -1.3700    0.0000 H   0  0  0  0  0  0  0  0  0  0  0  0
    6.3301   -2.6300    0.0000 H   0  0  0  0  0  0  0  0  0  0  0  0
    8.3913   -5.0600    0.0000 H   0  0  0  0  0  0  0  0  0  0  0  0
    7.7331   -5.0600    0.0000 H   0  0  0  0  0  0  0  0  0  0  0  0
    9.7942   -2.6300    0.0000 H   0  0  0  0  0  0  0  0  0  0  0  0
    2.4675    0.2751    0.0000 H   0  0  0  0  0  0  0  0  0  0  0  0
    3.2646    0.2751    0.0000 H   0  0  0  0  0  0  0  0  0  0  0  0
    9.7942   -5.8700    0.0000 H   0  0  0  0  0  0  0  0  0  0  0  0
    4.9272   -3.4400    0.0000 H   0  0  0  0  0  0  0  0  0  0  0  0
   11.1972   -3.4400    0.0000 H   0  0  0  0  0  0  0  0  0  0  0  0
    6.3301   -5.8700    0.0000 H   0  0  0  0  0  0  0  0  0  0  0  0
    4.9272   -5.0600    0.0000 H   0  0  0  0  0  0  0  0  0  0  0  0
   11.1972   -5.0600    0.0000 H   0  0  0  0  0  0  0  0  0  0  0  0
    2.3100    1.7869    0.0000 H   0  0  0  0  0  0  0  0  0  0  0  0
    1.4631    1.5600    0.0000 H   0  0  0  0  0  0  0  0  0  0  0  0
    1.6900    0.7131    0.0000 H   0  0  0  0  0  0  0  0  0  0  0  0
  1  3  2  0  0  0  0
  1  4  2  0  0  0  0
  1  7  1  0  0  0  0
  1 13  1  0  0  0  0
  2 11  1  0  0  0  0
  2 12  1  0  0  0  0
  5 17  1  0  0  0  0
  5 28  1  0  0  0  0
  6 21  2  0  0  0  0
  7  9  1  0  0  0  0
  7 10  1  0  0  0  0
  8 18  1  0  0  0  0
  8 21  1  0  0  0  0
  8 48  1  0  0  0  0
  9 11  1  0  0  0  0
  9 38  1  0  0  0  0
  9 39  1  0  0  0  0
 10 12  1  0  0  0  0
 10 36  1  0  0  0  0
 10 37  1  0  0  0  0
 11 42  1  0  0  0  0
 11 43  1  0  0  0  0
 12 40  1  0  0  0  0
 12 41  1  0  0  0  0
 13 16  1  0  0  0  0
 13 17  2  0  0  0  0
 14 15  1  0  0  0  0
 14 19  1  0  0  0  0
 14 20  1  0  0  0  0
 14 44  1  0  0  0  0
 15 21  1  0  0  0  0
 15 45  1  0  0  0  0
 15 46  1  0  0  0  0
 16 18  2  0  0  0  0
 16 47  1  0  0  0  0
 17 22  1  0  0  0  0
 18 23  1  0  0  0  0
 19 25  2  0  0  0  0
 19 26  1  0  0  0  0
 20 24  2  0  0  0  0
 20 27  1  0  0  0  0
 22 23  2  0  0  0  0
 22 49  1  0  0  0  0
 23 50  1  0  0  0  0
 24 29  1  0  0  0  0
 24 51  1  0  0  0  0
 25 30  1  0  0  0  0
 25 52  1  0  0  0  0
 26 32  2  0  0  0  0
 26 54  1  0  0  0  0
 27 31  2  0  0  0  0
 27 53  1  0  0  0  0
 28 35  1  0  0  0  0
 28 55  1  0  0  0  0
 28 56  1  0  0  0  0
 29 33  2  0  0  0  0
 29 58  1  0  0  0  0
 30 34  2  0  0  0  0
 30 57  1  0  0  0  0
 31 33  1  0  0  0  0
 31 60  1  0  0  0  0
 32 34  1  0  0  0  0
 32 59  1  0  0  0  0
 33 61  1  0  0  0  0
 34 62  1  0  0  0  0
 35 63  1  0  0  0  0
 35 64  1  0  0  0  0
 35 65  1  0  0  0  0
M  END
> <PUBCHEM_COMPOUND_CID>
17396489

> <PUBCHEM_COMPOUND_CANONICALIZED>
1

> <PUBCHEM_CACTVS_COMPLEXITY>
734

> <PUBCHEM_CACTVS_HBOND_ACCEPTOR>
6

> <PUBCHEM_CACTVS_HBOND_DONOR>
1

> <PUBCHEM_CACTVS_ROTATABLE_BOND>
9

> <PUBCHEM_CACTVS_SUBSKEYS>
AAADceB7OABAAAAAAAAAAAAAAAAAAAAAAAA8YMEAAAAAAAABUAAAHgQQQAAADQzh2AYyx4LABAKIAiVSUHDCCBAhIgAIiBsObIgOJjLEsZuHOCzk1BHY6Ae4yMCOgEAAACAAIAAAgAAAQABAAAAAAAAAAA==

> <PUBCHEM_IUPAC_OPENEYE_NAME>
N-(4-ethoxy-3-morpholinosulfonyl-phenyl)-3,3-diphenyl-propanamide

> <PUBCHEM_IUPAC_CAS_NAME>
N-[4-ethoxy-3-(4-morpholinylsulfonyl)phenyl]-3,3-diphenylpropanamide

> <PUBCHEM_IUPAC_NAME>
N-(4-ethoxy-3-morpholin-4-ylsulfonylphenyl)-3,3-diphenylpropanamide

> <PUBCHEM_IUPAC_SYSTEMATIC_NAME>
N-(4-ethoxy-3-morpholin-4-ylsulfonyl-phenyl)-3,3-diphenyl-propanamide

> <PUBCHEM_IUPAC_TRADITIONAL_NAME>
N-(4-ethoxy-3-morpholinosulfonyl-phenyl)-3,3-diphenyl-propionamide

> <PUBCHEM_IUPAC_INCHI>
InChI=1S/C27H30N2O5S/c1-2-34-25-14-13-23(19-26(25)35(31,32)29-15-17-33-18-16-29)28-27(30)20-24(21-9-5-3-6-10-21)22-11-7-4-8-12-22/h3-14,19,24H,2,15-18,20H2,1H3,(H,28,30)

> <PUBCHEM_IUPAC_INCHIKEY>
VTHLXBAFJPBDOC-UHFFFAOYSA-N

> <PUBCHEM_XLOGP3_AA>
3.6

> <PUBCHEM_EXACT_MASS>
494.187543

> <PUBCHEM_MOLECULAR_FORMULA>
C27H30N2O5S

> <PUBCHEM_MOLECULAR_WEIGHT>
494.6025

> <PUBCHEM_OPENEYE_CAN_SMILES>
CCOC1=C(C=C(C=C1)NC(=O)CC(C2=CC=CC=C2)C3=CC=CC=C3)S(=O)(=O)N4CCOCC4

> <PUBCHEM_OPENEYE_ISO_SMILES>
CCOC1=C(C=C(C=C1)NC(=O)CC(C2=CC=CC=C2)C3=CC=CC=C3)S(=O)(=O)N4CCOCC4

> <PUBCHEM_CACTVS_TPSA>
93.3

> <PUBCHEM_MONOISOTOPIC_WEIGHT>
494.187543

> <PUBCHEM_TOTAL_CHARGE>
0

> <PUBCHEM_HEAVY_ATOM_COUNT>
35

> <PUBCHEM_ATOM_DEF_STEREO_COUNT>
0

> <PUBCHEM_ATOM_UDEF_STEREO_COUNT>
0

> <PUBCHEM_BOND_DEF_STEREO_COUNT>
0

> <PUBCHEM_BOND_UDEF_STEREO_COUNT>
0

> <PUBCHEM_ISOTOPIC_ATOM_COUNT>
0

> <PUBCHEM_COMPONENT_COUNT>
1

> <PUBCHEM_CACTVS_TAUTO_COUNT>
3

> <PUBCHEM_COORDINATE_TYPE>
1
5
255

> <PUBCHEM_BONDANNOTATIONS>
13  16  8
13  17  8
16  18  8
17  22  8
18  23  8
19  25  8
19  26  8
20  24  8
20  27  8
22  23  8
24  29  8
25  30  8
26  32  8
27  31  8
29  33  8
30  34  8
31  33  8
32  34  8

$$$$

