443467
  -OEChem-07051213023D

 53 56  0     1  0  0  0  0  0999 V2000
    0.6818   -2.4654    1.4013 O   0  0  0  0  0  0  0  0  0  0  0  0
   -2.8785   -1.0440   -1.9717 O   0  0  0  0  0  0  0  0  0  0  0  0
   -3.9936    0.8544   -1.3559 O   0  0  0  0  0  0  0  0  0  0  0  0
    1.6887   -0.7261    0.0142 C   0  0  1  0  0  0  0  0  0  0  0  0
    1.0196    0.5496    0.6662 C   0  0  2  0  0  0  0  0  0  0  0  0
   -0.5085    0.8119    0.2858 C   0  0  1  0  0  0  0  0  0  0  0  0
   -1.2999   -0.5370    0.4476 C   0  0  2  0  0  0  0  0  0  0  0  0
    0.7643   -1.9569    0.0656 C   0  0  2  0  0  0  0  0  0  0  0  0
    2.1857   -0.4323   -1.4139 C   0  0  0  0  0  0  0  0  0  0  0  0
   -0.6632   -1.6606   -0.3963 C   0  0  0  0  0  0  0  0  0  0  0  0
    3.3434    0.5299   -1.1593 C   0  0  1  0  0  0  0  0  0  0  0  0
    1.9326    1.8052    0.5515 C   0  0  0  0  0  0  0  0  0  0  0  0
    3.0558   -1.0344    0.7116 C   0  0  0  0  0  0  0  0  0  0  0  0
   -2.8532   -0.4206    0.3248 C   0  0  2  0  0  0  0  0  0  0  0  0
   -1.1181    1.8279    1.3037 C   0  0  0  0  0  0  0  0  0  0  0  0
    2.7878    1.8865   -0.7218 C   0  0  0  0  0  0  0  0  0  0  0  0
    4.0410   -0.1577   -0.0154 C   0  0  0  0  0  0  0  0  0  0  0  0
   -0.6519    1.4249   -1.1262 C   0  0  0  0  0  0  0  0  0  0  0  0
   -3.3737    0.6646    1.2926 C   0  0  0  0  0  0  0  0  0  0  0  0
   -2.6339    1.9926    1.1938 C   0  0  0  0  0  0  0  0  0  0  0  0
   -3.5544   -1.7447    0.6968 C   0  0  0  0  0  0  0  0  0  0  0  0
   -3.3110   -0.1206   -1.0799 C   0  0  0  0  0  0  0  0  0  0  0  0
    5.3391   -0.0471    0.2851 C   0  0  0  0  0  0  0  0  0  0  0  0
    0.9874    0.3397    1.7467 H   0  0  0  0  0  0  0  0  0  0  0  0
   -1.1577   -0.8297    1.4991 H   0  0  0  0  0  0  0  0  0  0  0  0
    1.1743   -2.7683   -0.5467 H   0  0  0  0  0  0  0  0  0  0  0  0
    1.4377   -0.0080   -2.0812 H   0  0  0  0  0  0  0  0  0  0  0  0
    2.5532   -1.3488   -1.8970 H   0  0  0  0  0  0  0  0  0  0  0  0
   -1.2376   -2.5859   -0.2906 H   0  0  0  0  0  0  0  0  0  0  0  0
   -0.6317   -1.4129   -1.4597 H   0  0  0  0  0  0  0  0  0  0  0  0
    3.9790    0.6301   -2.0448 H   0  0  0  0  0  0  0  0  0  0  0  0
    2.6197    1.7907    1.4095 H   0  0  0  0  0  0  0  0  0  0  0  0
    1.3761    2.7390    0.6657 H   0  0  0  0  0  0  0  0  0  0  0  0
    3.3366   -2.0850    0.5679 H   0  0  0  0  0  0  0  0  0  0  0  0
    3.0284   -0.8200    1.7848 H   0  0  0  0  0  0  0  0  0  0  0  0
   -0.6671    2.8188    1.1848 H   0  0  0  0  0  0  0  0  0  0  0  0
   -0.8842    1.5043    2.3266 H   0  0  0  0  0  0  0  0  0  0  0  0
    2.1962    2.3095   -1.5412 H   0  0  0  0  0  0  0  0  0  0  0  0
    3.6114    2.5906   -0.5486 H   0  0  0  0  0  0  0  0  0  0  0  0
   -0.4466    0.7123   -1.9242 H   0  0  0  0  0  0  0  0  0  0  0  0
   -1.6499    1.8166   -1.3234 H   0  0  0  0  0  0  0  0  0  0  0  0
    0.0098    2.2839   -1.2598 H   0  0  0  0  0  0  0  0  0  0  0  0
   -3.2696    0.3007    2.3244 H   0  0  0  0  0  0  0  0  0  0  0  0
   -4.4470    0.8434    1.1470 H   0  0  0  0  0  0  0  0  0  0  0  0
   -2.8992    2.5161    0.2705 H   0  0  0  0  0  0  0  0  0  0  0  0
   -2.9751    2.6460    2.0066 H   0  0  0  0  0  0  0  0  0  0  0  0
   -3.3603   -2.5552   -0.0126 H   0  0  0  0  0  0  0  0  0  0  0  0
   -3.2416   -2.0895    1.6889 H   0  0  0  0  0  0  0  0  0  0  0  0
   -4.6438   -1.6155    0.7223 H   0  0  0  0  0  0  0  0  0  0  0  0
    0.6473   -1.7257    2.0281 H   0  0  0  0  0  0  0  0  0  0  0  0
    5.9948    0.5924   -0.2956 H   0  0  0  0  0  0  0  0  0  0  0  0
    5.7679   -0.5931    1.1183 H   0  0  0  0  0  0  0  0  0  0  0  0
   -3.1762   -0.8402   -2.8838 H   0  0  0  0  0  0  0  0  0  0  0  0
  1  8  1  0  0  0  0
  1 50  1  0  0  0  0
  2 22  1  0  0  0  0
  2 53  1  0  0  0  0
  3 22  2  0  0  0  0
  4  5  1  0  0  0  0
  4  8  1  0  0  0  0
  4  9  1  0  0  0  0
  4 13  1  0  0  0  0
  5  6  1  0  0  0  0
  5 12  1  0  0  0  0
  5 24  1  0  0  0  0
  6  7  1  0  0  0  0
  6 15  1  0  0  0  0
  6 18  1  0  0  0  0
  7 10  1  0  0  0  0
  7 14  1  0  0  0  0
  7 25  1  0  0  0  0
  8 10  1  0  0  0  0
  8 26  1  0  0  0  0
  9 11  1  0  0  0  0
  9 27  1  0  0  0  0
  9 28  1  0  0  0  0
 10 29  1  0  0  0  0
 10 30  1  0  0  0  0
 11 16  1  0  0  0  0
 11 17  1  0  0  0  0
 11 31  1  0  0  0  0
 12 16  1  0  0  0  0
 12 32  1  0  0  0  0
 12 33  1  0  0  0  0
 13 17  1  0  0  0  0
 13 34  1  0  0  0  0
 13 35  1  0  0  0  0
 14 19  1  0  0  0  0
 14 21  1  0  0  0  0
 14 22  1  0  0  0  0
 15 20  1  0  0  0  0
 15 36  1  0  0  0  0
 15 37  1  0  0  0  0
 16 38  1  0  0  0  0
 16 39  1  0  0  0  0
 17 23  2  0  0  0  0
 18 40  1  0  0  0  0
 18 41  1  0  0  0  0
 18 42  1  0  0  0  0
 19 20  1  0  0  0  0
 19 43  1  0  0  0  0
 19 44  1  0  0  0  0
 20 45  1  0  0  0  0
 20 46  1  0  0  0  0
 21 47  1  0  0  0  0
 21 48  1  0  0  0  0
 21 49  1  0  0  0  0
 23 51  1  0  0  0  0
 23 52  1  0  0  0  0
M  END
> <PUBCHEM_COMPOUND_CID>
443467

> <PUBCHEM_CONFORMER_RMSD>
0.6

> <PUBCHEM_CONFORMER_DIVERSEORDER>
1
2

> <PUBCHEM_MMFF94_PARTIAL_CHARGES>
14
1 -0.68
11 0.14
13 0.14
14 0.06
17 -0.28
2 -0.65
22 0.66
23 -0.3
3 -0.57
50 0.4
51 0.15
52 0.15
53 0.5
8 0.28

> <PUBCHEM_EFFECTIVE_ROTOR_COUNT>
3

> <PUBCHEM_PHARMACOPHORE_FEATURES>
8
1 1 acceptor
1 1 donor
1 2 acceptor
1 3 acceptor
3 2 3 22 anion
6 4 5 6 7 8 10 rings
6 6 7 14 15 19 20 rings
8 4 5 9 11 12 13 16 17 rings

> <PUBCHEM_HEAVY_ATOM_COUNT>
23

> <PUBCHEM_ATOM_DEF_STEREO_COUNT>
7

> <PUBCHEM_ATOM_UDEF_STEREO_COUNT>
0

> <PUBCHEM_BOND_DEF_STEREO_COUNT>
0

> <PUBCHEM_BOND_UDEF_STEREO_COUNT>
0

> <PUBCHEM_ISOTOPIC_ATOM_COUNT>
0

> <PUBCHEM_COMPONENT_COUNT>
1

> <PUBCHEM_CACTVS_TAUTO_COUNT>
1

> <PUBCHEM_CONFORMER_ID>
0006C44B00000001

> <PUBCHEM_MMFF94_ENERGY>
96.2221

> <PUBCHEM_FEATURE_SELFOVERLAP>
40.679

> <PUBCHEM_SHAPE_FINGERPRINT>
10062212 137 18261392273291124098
10863032 1 17560809818044397463
11132069 177 18334847363930255792
11315181 36 18411698782248776424
11578080 2 18046660959533278361
12035759 4 18187096069779838839
121448 382 18201719530978849067
12236239 1 18334858337408030197
12403814 3 18130780209328717625
12507557 5 18202002114289009432
12553582 1 17749661892292196781
12596599 1 17168140075244443791
12788726 201 17823987938254581321
128620 24 18186236225510912580
13134695 92 17418102048424208468
13140716 1 18191301572575091594
13221675 6 18260258663965451331
13224815 77 18410570673742234945
13583140 156 17131830954083824200
14178342 30 18263922322977942408
14289901 80 16877941659157246672
14787075 74 18124026837085936315
15209289 33 18408316683785450690
15309172 13 18202274805830603651
15788980 27 17275102834284905130
16752209 62 17895201051427113801
16945 1 18186514388999428590
17349148 13 18410015425150634562
17980427 23 18259983756669515212
18186145 218 18342166752748867052
192875 21 18408045095945008388
19862831 5 18409172103636681685
200 152 18261402147457860933
20691752 17 18200043832376581882
21267235 1 18336814321418139162
21634736 98 18042411239764460820
2334 1 17975978661288528098
23402539 116 18187365445902241644
23419403 2 16101150781784508588
23493267 7 17418381285211189985
23557571 272 16588025722921414792
23559900 14 18335977594129288870
2748010 2 17974287612462933570
296302 2 18060419131308578055
3286 77 18333733481626958232
34934 24 18116429430707366561
4340502 62 17701795861259176329
474 4 18343294890286230648
5104073 3 18336257968877168848
633830 44 18336529590945681140
7832392 63 17972302173583329280
90525 40 17894907477379688159
9709674 26 18040704866838432510

> <PUBCHEM_SHAPE_MULTIPOLES>
455.72
7.73
2.2
1.45
3.02
0.04
0.36
-0.11
0.5
-0.5
-0.53
-0.78
-0.04
-0.64

> <PUBCHEM_SHAPE_SELFOVERLAP>
983.609

> <PUBCHEM_SHAPE_VOLUME>
248.2

> <PUBCHEM_COORDINATE_TYPE>
2
5
10

$$$$

