443794
  -OEChem-07051213033D

 45 48  0     1  0  0  0  0  0999 V2000
   -1.6910    0.3084   -2.5860 O   0  0  0  0  0  0  0  0  0  0  0  0
   -1.8111   -3.0373    0.8565 O   0  0  0  0  0  0  0  0  0  0  0  0
   -3.4675    1.8420   -1.2885 O   0  0  0  0  0  0  0  0  0  0  0  0
   -0.7346    2.1564   -0.3076 O   0  0  0  0  0  0  0  0  0  0  0  0
   -3.9816   -1.7879    1.7750 O   0  0  0  0  0  0  0  0  0  0  0  0
    1.6166    2.4083    0.3293 O   0  0  0  0  0  0  0  0  0  0  0  0
   -6.1534    0.2277    0.1949 O   0  0  0  0  0  0  0  0  0  0  0  0
    4.0793    2.5954    0.9586 O   0  0  0  0  0  0  0  0  0  0  0  0
    6.8638   -1.1976    0.5133 O   0  0  0  0  0  0  0  0  0  0  0  0
   -1.5972   -1.3609   -0.8693 C   0  0  1  0  0  0  0  0  0  0  0  0
   -1.7645    0.1347   -1.1686 C   0  0  1  0  0  0  0  0  0  0  0  0
   -0.2156   -1.8639   -1.3177 C   0  0  0  0  0  0  0  0  0  0  0  0
   -1.8905   -1.6426    0.6069 C   0  0  1  0  0  0  0  0  0  0  0  0
    0.9099   -1.0175   -0.7915 C   0  0  0  0  0  0  0  0  0  0  0  0
   -0.6076    0.9699   -0.6027 C   0  0  0  0  0  0  0  0  0  0  0  0
   -3.0873    0.6735   -0.6480 C   0  0  0  0  0  0  0  0  0  0  0  0
    0.7293    0.3302   -0.4655 C   0  0  0  0  0  0  0  0  0  0  0  0
   -3.2916   -1.1777    0.9581 C   0  0  0  0  0  0  0  0  0  0  0  0
   -3.8151    0.0722    0.3169 C   0  0  0  0  0  0  0  0  0  0  0  0
    2.1891   -1.5821   -0.6693 C   0  0  0  0  0  0  0  0  0  0  0  0
    1.8082    1.0937    0.0020 C   0  0  0  0  0  0  0  0  0  0  0  0
    3.2798   -0.8297   -0.2040 C   0  0  0  0  0  0  0  0  0  0  0  0
    3.0857    0.5266    0.1384 C   0  0  0  0  0  0  0  0  0  0  0  0
   -5.1216    0.6042    0.7450 C   0  0  0  0  0  0  0  0  0  0  0  0
    4.1762    1.2796    0.6049 C   0  0  0  0  0  0  0  0  0  0  0  0
    4.5586   -1.3959   -0.0728 C   0  0  0  0  0  0  0  0  0  0  0  0
   -5.1366    1.6022    1.8694 C   0  0  0  0  0  0  0  0  0  0  0  0
    5.6308   -0.6340    0.3919 C   0  0  0  0  0  0  0  0  0  0  0  0
    5.4398    0.7019    0.7305 C   0  0  0  0  0  0  0  0  0  0  0  0
   -2.3230   -1.9288   -1.4726 H   0  0  0  0  0  0  0  0  0  0  0  0
   -0.1580   -1.8539   -2.4138 H   0  0  0  0  0  0  0  0  0  0  0  0
   -0.0808   -2.9068   -1.0067 H   0  0  0  0  0  0  0  0  0  0  0  0
   -1.1846   -1.1367    1.2746 H   0  0  0  0  0  0  0  0  0  0  0  0
    2.3337   -2.6273   -0.9403 H   0  0  0  0  0  0  0  0  0  0  0  0
   -1.9271    1.2290   -2.7928 H   0  0  0  0  0  0  0  0  0  0  0  0
   -1.9119   -3.1698    1.8147 H   0  0  0  0  0  0  0  0  0  0  0  0
   -4.3168    2.1398   -0.9231 H   0  0  0  0  0  0  0  0  0  0  0  0
    4.7170   -2.4405   -0.3353 H   0  0  0  0  0  0  0  0  0  0  0  0
    2.4531    2.8969    0.3031 H   0  0  0  0  0  0  0  0  0  0  0  0
   -4.1237    1.8027    2.2301 H   0  0  0  0  0  0  0  0  0  0  0  0
   -5.7276    1.2023    2.6974 H   0  0  0  0  0  0  0  0  0  0  0  0
   -5.5714    2.5395    1.5130 H   0  0  0  0  0  0  0  0  0  0  0  0
    6.2842    1.2844    1.0914 H   0  0  0  0  0  0  0  0  0  0  0  0
    4.9463    2.9236    1.2519 H   0  0  0  0  0  0  0  0  0  0  0  0
    6.8146   -2.1283    0.2353 H   0  0  0  0  0  0  0  0  0  0  0  0
  1 11  1  0  0  0  0
  1 35  1  0  0  0  0
  2 13  1  0  0  0  0
  2 36  1  0  0  0  0
  3 16  1  0  0  0  0
  3 37  1  0  0  0  0
  4 15  2  0  0  0  0
  5 18  2  0  0  0  0
  6 21  1  0  0  0  0
  6 39  1  0  0  0  0
  7 24  2  0  0  0  0
  8 25  1  0  0  0  0
  8 44  1  0  0  0  0
  9 28  1  0  0  0  0
  9 45  1  0  0  0  0
 10 11  1  0  0  0  0
 10 12  1  0  0  0  0
 10 13  1  0  0  0  0
 10 30  1  0  0  0  0
 11 15  1  0  0  0  0
 11 16  1  0  0  0  0
 12 14  1  0  0  0  0
 12 31  1  0  0  0  0
 12 32  1  0  0  0  0
 13 18  1  0  0  0  0
 13 33  1  0  0  0  0
 14 17  1  0  0  0  0
 14 20  2  0  0  0  0
 15 17  1  0  0  0  0
 16 19  2  0  0  0  0
 17 21  2  0  0  0  0
 18 19  1  0  0  0  0
 19 24  1  0  0  0  0
 20 22  1  0  0  0  0
 20 34  1  0  0  0  0
 21 23  1  0  0  0  0
 22 23  1  0  0  0  0
 22 26  2  0  0  0  0
 23 25  2  0  0  0  0
 24 27  1  0  0  0  0
 25 29  1  0  0  0  0
 26 28  1  0  0  0  0
 26 38  1  0  0  0  0
 27 40  1  0  0  0  0
 27 41  1  0  0  0  0
 27 42  1  0  0  0  0
 28 29  2  0  0  0  0
 29 43  1  0  0  0  0
M  END
> <PUBCHEM_COMPOUND_CID>
443794

> <PUBCHEM_CONFORMER_RMSD>
0.6

> <PUBCHEM_CONFORMER_DIVERSEORDER>
1
3
2
4

> <PUBCHEM_MMFF94_PARTIAL_CHARGES>
35
1 -0.68
11 0.48
12 0.14
13 0.34
14 -0.14
15 0.42
16 -0.06
17 0.09
18 0.49
19 0.03
2 -0.68
20 -0.15
21 0.08
24 0.49
25 0.08
26 -0.15
27 0.06
28 0.08
29 -0.15
3 -0.53
34 0.15
35 0.4
36 0.4
37 0.45
38 0.15
39 0.45
4 -0.57
43 0.15
44 0.45
45 0.45
5 -0.57
6 -0.53
7 -0.57
8 -0.53
9 -0.53

> <PUBCHEM_EFFECTIVE_ROTOR_COUNT>
1.4

> <PUBCHEM_PHARMACOPHORE_FEATURES>
16
1 1 acceptor
1 1 donor
1 19 anion
1 2 acceptor
1 2 donor
1 3 donor
1 4 acceptor
1 5 acceptor
1 6 donor
1 7 acceptor
1 8 donor
1 9 donor
6 10 11 12 14 15 17 rings
6 10 11 13 16 18 19 rings
6 14 17 20 21 22 23 rings
6 22 23 25 26 28 29 rings

> <PUBCHEM_HEAVY_ATOM_COUNT>
29

> <PUBCHEM_ATOM_DEF_STEREO_COUNT>
3

> <PUBCHEM_ATOM_UDEF_STEREO_COUNT>
0

> <PUBCHEM_BOND_DEF_STEREO_COUNT>
0

> <PUBCHEM_BOND_UDEF_STEREO_COUNT>
0

> <PUBCHEM_ISOTOPIC_ATOM_COUNT>
0

> <PUBCHEM_COMPONENT_COUNT>
1

> <PUBCHEM_CACTVS_TAUTO_COUNT>
999

> <PUBCHEM_CONFORMER_ID>
0006C59200000001

> <PUBCHEM_MMFF94_ENERGY>
82.7273

> <PUBCHEM_FEATURE_SELFOVERLAP>
81.325

> <PUBCHEM_SHAPE_FINGERPRINT>
10 15 18340778066038483640
11045977 3 18342175553026164762
11089746 13 16805330993728036312
11370993 144 18410008827685177122
11578080 2 16952274014088758194
11640471 11 16081360882476160671
12035758 1 18341883113462164803
12236239 1 16588027934792791943
12422481 6 18411697673403753208
12633257 1 18343860000776961425
13140716 1 18336548209781786014
13402501 40 18411701010366099093
13583140 156 17416431855627532668
14341114 176 18343585153420221444
15163728 17 15214401517641629889
15196674 1 18334868169268614014
15238133 3 18337376223489230548
15295992 7 17967820396621466993
15537594 2 16988848280396692114
1813 80 16630527280437068343
20739085 24 18408876339663077300
20775530 9 13181587951463294393
21033648 29 18200333098488024717
21033650 10 4822675183485536866
21267235 1 18336264648189538758
21304304 249 17987790814360775643
21403212 168 18339079402024863497
21637258 2 14979950333926402347
21792961 116 18340768265139534782
22122407 14 17530673299781134737
23559900 14 18197190702771805975
23569943 247 17097490058524291062
2838139 119 16805609200335050265
335352 9 18261115175635025260
350125 39 18408602553146993524
3633792 109 14924776972971475349
392239 28 18411694422213328059
5104073 3 18337121055761883570
5265222 85 17845354606452892030

> <PUBCHEM_SHAPE_MULTIPOLES>
543.98
12.9
2.43
1.42
5.95
0.07
-0.24
1.72
5.76
0.16
0.46
-1.63
-0.07
0.71

> <PUBCHEM_SHAPE_SELFOVERLAP>
1227.731

> <PUBCHEM_SHAPE_VOLUME>
280.4

> <PUBCHEM_COORDINATE_TYPE>
2
5
10

$$$$

