77338
  -OEChem-07051213123D

 20 21  0     0  0  0  0  0  0999 V2000
    2.9859    2.6866   -0.2903 Cl  0  0  0  0  0  0  0  0  0  0  0  0
    2.9859   -2.6866    0.2907 Cl  0  0  0  0  0  0  0  0  0  0  0  0
    0.8715    1.1979   -0.1294 N   0  0  0  0  0  0  0  0  0  0  0  0
    0.8714   -1.1980    0.1286 N   0  0  0  0  0  0  0  0  0  0  0  0
   -1.1697    0.0000   -0.0002 C   0  0  0  0  0  0  0  0  0  0  0  0
    0.2772   -0.0001   -0.0006 C   0  0  0  0  0  0  0  0  0  0  0  0
   -1.8670    1.1046    0.4889 C   0  0  0  0  0  0  0  0  0  0  0  0
   -1.8672   -1.1046   -0.4890 C   0  0  0  0  0  0  0  0  0  0  0  0
   -3.2619    1.1046    0.4893 C   0  0  0  0  0  0  0  0  0  0  0  0
   -3.2621   -1.1045   -0.4889 C   0  0  0  0  0  0  0  0  0  0  0  0
   -3.9594    0.0001    0.0003 C   0  0  0  0  0  0  0  0  0  0  0  0
    2.2202    1.1612   -0.1249 C   0  0  0  0  0  0  0  0  0  0  0  0
    2.2201   -1.1612    0.1253 C   0  0  0  0  0  0  0  0  0  0  0  0
    2.9551    0.0001    0.0004 C   0  0  0  0  0  0  0  0  0  0  0  0
   -1.3528    1.9766    0.8858 H   0  0  0  0  0  0  0  0  0  0  0  0
   -1.3532   -1.9766   -0.8861 H   0  0  0  0  0  0  0  0  0  0  0  0
   -3.8053    1.9636    0.8720 H   0  0  0  0  0  0  0  0  0  0  0  0
   -3.8057   -1.9635   -0.8715 H   0  0  0  0  0  0  0  0  0  0  0  0
   -5.0455    0.0001    0.0005 H   0  0  0  0  0  0  0  0  0  0  0  0
    4.0385    0.0000    0.0007 H   0  0  0  0  0  0  0  0  0  0  0  0
  1 12  1  0  0  0  0
  2 13  1  0  0  0  0
  3  6  1  0  0  0  0
  3 12  2  0  0  0  0
  4  6  2  0  0  0  0
  4 13  1  0  0  0  0
  5  6  1  0  0  0  0
  5  7  2  0  0  0  0
  5  8  1  0  0  0  0
  7  9  1  0  0  0  0
  7 15  1  0  0  0  0
  8 10  2  0  0  0  0
  8 16  1  0  0  0  0
  9 11  2  0  0  0  0
  9 17  1  0  0  0  0
 10 11  1  0  0  0  0
 10 18  1  0  0  0  0
 11 19  1  0  0  0  0
 12 14  1  0  0  0  0
 13 14  2  0  0  0  0
 14 20  1  0  0  0  0
M  END
> <PUBCHEM_COMPOUND_CID>
77338

> <PUBCHEM_CONFORMER_RMSD>
0.4

> <PUBCHEM_CONFORMER_DIVERSEORDER>
2
1
3

> <PUBCHEM_MMFF94_PARTIAL_CHARGES>
19
1 -0.18
10 -0.15
11 -0.15
12 0.49
13 0.49
14 -0.15
15 0.15
16 0.15
17 0.15
18 0.15
19 0.15
2 -0.18
20 0.15
3 -0.62
4 -0.62
6 0.62
7 -0.15
8 -0.15
9 -0.15

> <PUBCHEM_EFFECTIVE_ROTOR_COUNT>
1

> <PUBCHEM_PHARMACOPHORE_FEATURES>
4
1 3 acceptor
3 3 4 6 cation
6 3 4 6 12 13 14 rings
6 5 7 8 9 10 11 rings

> <PUBCHEM_HEAVY_ATOM_COUNT>
14

> <PUBCHEM_ATOM_DEF_STEREO_COUNT>
0

> <PUBCHEM_ATOM_UDEF_STEREO_COUNT>
0

> <PUBCHEM_BOND_DEF_STEREO_COUNT>
0

> <PUBCHEM_BOND_UDEF_STEREO_COUNT>
0

> <PUBCHEM_ISOTOPIC_ATOM_COUNT>
0

> <PUBCHEM_COMPONENT_COUNT>
1

> <PUBCHEM_CACTVS_TAUTO_COUNT>
1

> <PUBCHEM_CONFORMER_ID>
00012E1A00000002

> <PUBCHEM_MMFF94_ENERGY>
34.6078

> <PUBCHEM_FEATURE_SELFOVERLAP>
20.297

> <PUBCHEM_SHAPE_FINGERPRINT>
10465860 228 18410569587326856488
10608611 8 18341617018499947541
10980938 120 18411418388844383328
11471102 20 18413111679515981318
11769659 78 18335427897574901207
12251169 10 18336267937084805234
12346645 44 18265614286410005028
12553582 1 18053106412970459570
12932764 1 17489314126188285227
13380535 76 18198906907636849986
14144814 61 18408322211376666579
14325111 11 18409446968832894289
15279307 12 18263082132548012398
15375462 189 18187640259337236291
15442244 35 18265050417233095816
15536298 74 18333449846265503110
15669948 3 17749675078200297127
15775835 57 18334850572244698837
16945 1 18412826893330442860
18186145 218 17632298999231164491
19422 9 18335138704673808955
201361 129 18409725132374099424
20559304 39 18408042922580507640
20645477 70 18341338855043261967
20671657 1 18410851049676796878
20871998 22 18120374526036626022
21267235 1 18408594868780536047
21499 59 18126286337723073532
21501502 16 18334857216753875301
21501925 9 18337965579043960538
21524375 3 18191304867215959956
221490 88 18341322323461023018
22445834 79 18410011065447664139
2255824 54 18412823599328286934
22854114 111 18411416181104644616
22959321 4 18411418423309603827
23402655 69 18409731772451626525
23463225 33 18335984263190373095
23552423 10 18410575067488510487
23557571 272 14129063629745045033
23559900 14 18334867142196696642
25610 137 18266455400273467843
3071541 12 18411413995472485292
3071541 37 18272082765388341588
3312278 4 18264487274401817443
474 4 18128253389710799748
5104073 3 18409165524174026851
603831 33 18042698190998378631
6992083 37 17830160660487458952
7364860 26 18408604764690744834
74978 22 18410572920163293479
84936 182 18188772734691900800
9709674 26 18411133623886242411
9939556 21 18335140916402397463
9981440 41 18051700940830836880

> <PUBCHEM_SHAPE_MULTIPOLES>
281.89
6.78
2.47
0.7
3.01
0
0
0
0
-3.09
0
0.13
0
-0.83

> <PUBCHEM_SHAPE_SELFOVERLAP>
593.247

> <PUBCHEM_SHAPE_VOLUME>
160.5

> <PUBCHEM_COORDINATE_TYPE>
2
5
10

$$$$

