6447311
  -OEChem-07051213122D

110112  0     1  0  0  0  0  0999 V2000
    4.5981    2.0000    0.0000 O   0  0  0  0  0  0  0  0  0  0  0  0
    5.4641    3.5000    0.0000 O   0  0  0  0  0  0  0  0  0  0  0  0
    2.8660    3.0000    0.0000 O   0  0  0  0  0  0  0  0  0  0  0  0
   12.3923   -2.5000    0.0000 O   0  0  0  0  0  0  0  0  0  0  0  0
   10.6603   -2.5000    0.0000 O   0  0  0  0  0  0  0  0  0  0  0  0
   12.3923   -5.5000    0.0000 O   0  0  0  0  0  0  0  0  0  0  0  0
   10.6603   -4.5000    0.0000 O   0  0  0  0  0  0  0  0  0  0  0  0
   14.1244   -4.5000    0.0000 O   0  0  0  0  0  0  0  0  0  0  0  0
    8.9282    0.5000    0.0000 O   0  0  0  0  0  0  0  0  0  0  0  0
    5.4641   -2.5000    0.0000 O   0  0  0  0  0  0  0  0  0  0  0  0
    9.7942    2.0000    0.0000 O   0  0  0  0  0  0  0  0  0  0  0  0
    2.8660    5.0000    0.0000 N   0  0  0  0  0  0  0  0  0  0  0  0
    3.7320    4.5000    0.0000 C   0  0  2  0  0  0  0  0  0  0  0  0
    3.7320    3.5000    0.0000 C   0  0  2  0  0  0  0  0  0  0  0  0
    4.5981    3.0000    0.0000 C   0  0  2  0  0  0  0  0  0  0  0  0
    5.4641    1.5000    0.0000 C   0  0  1  0  0  0  0  0  0  0  0  0
    4.5981    5.0000    0.0000 C   0  0  0  0  0  0  0  0  0  0  0  0
    5.4641    0.5000    0.0000 C   0  0  2  0  0  0  0  0  0  0  0  0
    5.4641    4.5000    0.0000 C   0  0  1  0  0  0  0  0  0  0  0  0
    6.3301    2.0000    0.0000 C   0  0  1  0  0  0  0  0  0  0  0  0
    4.5981    0.0000    0.0000 C   0  0  0  0  0  0  0  0  0  0  0  0
    4.5981   -1.0000    0.0000 C   0  0  1  0  0  0  0  0  0  0  0  0
    6.4641    0.5000    0.0000 C   0  0  0  0  0  0  0  0  0  0  0  0
    6.3301    5.0000    0.0000 C   0  0  0  0  0  0  0  0  0  0  0  0
   12.3923   -4.5000    0.0000 C   0  0  1  0  0  0  0  0  0  0  0  0
   11.5263   -4.0000    0.0000 C   0  0  2  0  0  0  0  0  0  0  0  0
   13.2583   -4.0000    0.0000 C   0  0  1  0  0  0  0  0  0  0  0  0
   11.5263   -3.0000    0.0000 C   0  0  1  0  0  0  0  0  0  0  0  0
    6.3301    3.0000    0.0000 C   0  0  0  0  0  0  0  0  0  0  0  0
   13.2583   -3.0000    0.0000 C   0  0  1  0  0  0  0  0  0  0  0  0
    7.1962    1.5000    0.0000 C   0  0  0  0  0  0  0  0  0  0  0  0
    2.8660    6.0000    0.0000 C   0  0  0  0  0  0  0  0  0  0  0  0
    2.0000    4.5000    0.0000 C   0  0  0  0  0  0  0  0  0  0  0  0
    3.7320   -1.5000    0.0000 C   0  0  0  0  0  0  0  0  0  0  0  0
    5.4641   -1.5000    0.0000 C   0  0  0  0  0  0  0  0  0  0  0  0
    9.7942   -1.0000    0.0000 C   0  0  2  0  0  0  0  0  0  0  0  0
   10.6603   -1.5000    0.0000 C   0  0  0  0  0  0  0  0  0  0  0  0
   14.1244   -2.5000    0.0000 C   0  0  0  0  0  0  0  0  0  0  0  0
    9.7942    0.0000    0.0000 C   0  0  1  0  0  0  0  0  0  0  0  0
    8.0622    2.0000    0.0000 C   0  0  0  0  0  0  0  0  0  0  0  0
   10.6603    0.5000    0.0000 C   0  0  0  0  0  0  0  0  0  0  0  0
    8.9282   -1.5000    0.0000 C   0  0  0  0  0  0  0  0  0  0  0  0
    6.3301   -1.0000    0.0000 C   0  0  0  0  0  0  0  0  0  0  0  0
    8.9282    1.5000    0.0000 C   0  0  0  0  0  0  0  0  0  0  0  0
   13.2583   -6.0000    0.0000 C   0  0  0  0  0  0  0  0  0  0  0  0
   10.6603   -5.5000    0.0000 C   0  0  0  0  0  0  0  0  0  0  0  0
    8.0622   -1.0000    0.0000 C   0  0  0  0  0  0  0  0  0  0  0  0
    7.1962   -1.5000    0.0000 C   0  0  0  0  0  0  0  0  0  0  0  0
   11.5263    0.0000    0.0000 C   0  0  0  0  0  0  0  0  0  0  0  0
    3.7320    5.1200    0.0000 H   0  0  0  0  0  0  0  0  0  0  0  0
    3.7320    2.8800    0.0000 H   0  0  0  0  0  0  0  0  0  0  0  0
    4.0611    2.6900    0.0000 H   0  0  0  0  0  0  0  0  0  0  0  0
    5.4641    2.1200    0.0000 H   0  0  0  0  0  0  0  0  0  0  0  0
    4.9966    5.4750    0.0000 H   0  0  0  0  0  0  0  0  0  0  0  0
    4.1996    5.4750    0.0000 H   0  0  0  0  0  0  0  0  0  0  0  0
    5.6246   -0.0989    0.0000 H   0  0  0  0  0  0  0  0  0  0  0  0
    6.0010    4.1900    0.0000 H   0  0  0  0  0  0  0  0  0  0  0  0
    6.8671    2.3100    0.0000 H   0  0  0  0  0  0  0  0  0  0  0  0
    4.3860    0.5826    0.0000 H   0  0  0  0  0  0  0  0  0  0  0  0
    3.9875   -0.1077    0.0000 H   0  0  0  0  0  0  0  0  0  0  0  0
    4.5981   -1.6200    0.0000 H   0  0  0  0  0  0  0  0  0  0  0  0
    6.4641   -0.1200    0.0000 H   0  0  0  0  0  0  0  0  0  0  0  0
    7.0841    0.5000    0.0000 H   0  0  0  0  0  0  0  0  0  0  0  0
    6.4641    1.1200    0.0000 H   0  0  0  0  0  0  0  0  0  0  0  0
    6.6401    4.4631    0.0000 H   0  0  0  0  0  0  0  0  0  0  0  0
    6.8671    5.3100    0.0000 H   0  0  0  0  0  0  0  0  0  0  0  0
    6.0201    5.5369    0.0000 H   0  0  0  0  0  0  0  0  0  0  0  0
   11.8554   -4.8100    0.0000 H   0  0  0  0  0  0  0  0  0  0  0  0
   10.9893   -3.6900    0.0000 H   0  0  0  0  0  0  0  0  0  0  0  0
   13.7953   -3.6900    0.0000 H   0  0  0  0  0  0  0  0  0  0  0  0
   10.9893   -3.3100    0.0000 H   0  0  0  0  0  0  0  0  0  0  0  0
   13.2583   -2.3800    0.0000 H   0  0  0  0  0  0  0  0  0  0  0  0
    6.9501    3.0000    0.0000 H   0  0  0  0  0  0  0  0  0  0  0  0
    6.3301    3.6200    0.0000 H   0  0  0  0  0  0  0  0  0  0  0  0
    5.7101    3.0000    0.0000 H   0  0  0  0  0  0  0  0  0  0  0  0
    2.3291    3.3100    0.0000 H   0  0  0  0  0  0  0  0  0  0  0  0
    7.1962    0.8800    0.0000 H   0  0  0  0  0  0  0  0  0  0  0  0
    3.4860    6.0000    0.0000 H   0  0  0  0  0  0  0  0  0  0  0  0
    1.6900    5.0369    0.0000 H   0  0  0  0  0  0  0  0  0  0  0  0
    1.4631    4.1900    0.0000 H   0  0  0  0  0  0  0  0  0  0  0  0
    2.3100    3.9631    0.0000 H   0  0  0  0  0  0  0  0  0  0  0  0
    2.8660    6.6200    0.0000 H   0  0  0  0  0  0  0  0  0  0  0  0
    2.2460    6.0000    0.0000 H   0  0  0  0  0  0  0  0  0  0  0  0
    3.4220   -0.9631    0.0000 H   0  0  0  0  0  0  0  0  0  0  0  0
    3.1951   -1.8100    0.0000 H   0  0  0  0  0  0  0  0  0  0  0  0
    4.0420   -2.0369    0.0000 H   0  0  0  0  0  0  0  0  0  0  0  0
    9.7942   -1.6200    0.0000 H   0  0  0  0  0  0  0  0  0  0  0  0
   11.2708   -1.6077    0.0000 H   0  0  0  0  0  0  0  0  0  0  0  0
   10.8723   -0.9174    0.0000 H   0  0  0  0  0  0  0  0  0  0  0  0
   14.4344   -3.0369    0.0000 H   0  0  0  0  0  0  0  0  0  0  0  0
   14.6613   -2.1900    0.0000 H   0  0  0  0  0  0  0  0  0  0  0  0
   13.8144   -1.9631    0.0000 H   0  0  0  0  0  0  0  0  0  0  0  0
    9.7942    0.6200    0.0000 H   0  0  0  0  0  0  0  0  0  0  0  0
    8.0622    2.6200    0.0000 H   0  0  0  0  0  0  0  0  0  0  0  0
   14.6613   -4.1900    0.0000 H   0  0  0  0  0  0  0  0  0  0  0  0
   11.0588    0.9749    0.0000 H   0  0  0  0  0  0  0  0  0  0  0  0
   10.2617    0.9749    0.0000 H   0  0  0  0  0  0  0  0  0  0  0  0
    8.9282   -2.1200    0.0000 H   0  0  0  0  0  0  0  0  0  0  0  0
    6.6401   -0.4631    0.0000 H   0  0  0  0  0  0  0  0  0  0  0  0
   12.9483   -6.5369    0.0000 H   0  0  0  0  0  0  0  0  0  0  0  0
   13.7953   -6.3100    0.0000 H   0  0  0  0  0  0  0  0  0  0  0  0
   13.5683   -5.4631    0.0000 H   0  0  0  0  0  0  0  0  0  0  0  0
   10.0403   -5.5000    0.0000 H   0  0  0  0  0  0  0  0  0  0  0  0
   10.6603   -6.1200    0.0000 H   0  0  0  0  0  0  0  0  0  0  0  0
   11.2803   -5.5000    0.0000 H   0  0  0  0  0  0  0  0  0  0  0  0
    8.0622   -0.3800    0.0000 H   0  0  0  0  0  0  0  0  0  0  0  0
    7.1962   -2.1200    0.0000 H   0  0  0  0  0  0  0  0  0  0  0  0
   11.2163   -0.5369    0.0000 H   0  0  0  0  0  0  0  0  0  0  0  0
   12.0632   -0.3100    0.0000 H   0  0  0  0  0  0  0  0  0  0  0  0
   11.8363    0.5369    0.0000 H   0  0  0  0  0  0  0  0  0  0  0  0
 15  1  1  1  0  0  0
 16  1  1  6  0  0  0
  2 15  1  0  0  0  0
  2 19  1  0  0  0  0
 14  3  1  6  0  0  0
  3 76  1  0  0  0  0
  4 28  1  0  0  0  0
  4 30  1  0  0  0  0
 28  5  1  6  0  0  0
  5 37  1  0  0  0  0
 25  6  1  1  0  0  0
  6 45  1  0  0  0  0
 26  7  1  1  0  0  0
  7 46  1  0  0  0  0
 27  8  1  1  0  0  0
  8 95  1  0  0  0  0
  9 39  1  0  0  0  0
  9 44  1  0  0  0  0
 10 35  2  0  0  0  0
 11 44  2  0  0  0  0
 13 12  1  1  0  0  0
 12 32  1  0  0  0  0
 12 33  1  0  0  0  0
 13 14  1  0  0  0  0
 13 17  1  0  0  0  0
 13 50  1  0  0  0  0
 14 15  1  0  0  0  0
 14 51  1  0  0  0  0
 15 52  1  0  0  0  0
 16 18  1  0  0  0  0
 16 20  1  0  0  0  0
 16 53  1  0  0  0  0
 17 19  1  0  0  0  0
 17 54  1  0  0  0  0
 17 55  1  0  0  0  0
 18 21  1  0  0  0  0
 18 23  1  1  0  0  0
 18 56  1  0  0  0  0
 19 24  1  1  0  0  0
 19 57  1  0  0  0  0
 20 29  1  1  0  0  0
 20 31  1  0  0  0  0
 20 58  1  0  0  0  0
 21 22  1  0  0  0  0
 21 59  1  0  0  0  0
 21 60  1  0  0  0  0
 22 34  1  6  0  0  0
 22 35  1  0  0  0  0
 22 61  1  0  0  0  0
 23 62  1  0  0  0  0
 23 63  1  0  0  0  0
 23 64  1  0  0  0  0
 24 65  1  0  0  0  0
 24 66  1  0  0  0  0
 24 67  1  0  0  0  0
 25 26  1  0  0  0  0
 25 27  1  0  0  0  0
 25 68  1  0  0  0  0
 26 28  1  0  0  0  0
 26 69  1  0  0  0  0
 27 30  1  0  0  0  0
 27 70  1  0  0  0  0
 28 71  1  0  0  0  0
 29 73  1  0  0  0  0
 29 74  1  0  0  0  0
 29 75  1  0  0  0  0
 30 38  1  6  0  0  0
 30 72  1  0  0  0  0
 31 40  2  0  0  0  0
 31 77  1  0  0  0  0
 32 78  1  0  0  0  0
 32 82  1  0  0  0  0
 32 83  1  0  0  0  0
 33 79  1  0  0  0  0
 33 80  1  0  0  0  0
 33 81  1  0  0  0  0
 34 84  1  0  0  0  0
 34 85  1  0  0  0  0
 34 86  1  0  0  0  0
 35 43  1  0  0  0  0
 36 37  1  1  0  0  0
 36 39  1  0  0  0  0
 36 42  1  0  0  0  0
 36 87  1  0  0  0  0
 37 88  1  0  0  0  0
 37 89  1  0  0  0  0
 38 90  1  0  0  0  0
 38 91  1  0  0  0  0
 38 92  1  0  0  0  0
 39 41  1  6  0  0  0
 39 93  1  0  0  0  0
 40 44  1  0  0  0  0
 40 94  1  0  0  0  0
 41 49  1  0  0  0  0
 41 96  1  0  0  0  0
 41 97  1  0  0  0  0
 42 47  2  0  0  0  0
 42 98  1  0  0  0  0
 43 48  2  0  0  0  0
 43 99  1  0  0  0  0
 45100  1  0  0  0  0
 45101  1  0  0  0  0
 45102  1  0  0  0  0
 46103  1  0  0  0  0
 46104  1  0  0  0  0
 46105  1  0  0  0  0
 47 48  1  0  0  0  0
 47106  1  0  0  0  0
 48107  1  0  0  0  0
 49108  1  0  0  0  0
 49109  1  0  0  0  0
 49110  1  0  0  0  0
M  END
> <PUBCHEM_COMPOUND_CID>
6447311

> <PUBCHEM_COMPOUND_CANONICALIZED>
1

> <PUBCHEM_CACTVS_COMPLEXITY>
1130

> <PUBCHEM_CACTVS_HBOND_ACCEPTOR>
12

> <PUBCHEM_CACTVS_HBOND_DONOR>
2

> <PUBCHEM_CACTVS_ROTATABLE_BOND>
9

> <PUBCHEM_CACTVS_SUBSKEYS>
AAADcfB+PAAAAAAAAAAAAAAAAAAAAAAAAAAkSAAAAAAAAAAAAAAAHgAACAAADTzxgAcCCAMABgCIAKDSCAAAAAAgAAAICAEIAEgbFBIAoQAmUAAHwAAfoYPI7MzOAAAAAAAAAAAAAAAAAAAAAAAAAAAAAA==

> <PUBCHEM_IUPAC_OPENEYE_NAME>
(3E,5S,6S,7S,9R,11E,13E,15R,16R)-6-[(2S,3R,4S,6R)-4-(dimethylamino)-3-hydroxy-6-methyl-tetrahydropyran-2-yl]oxy-16-ethyl-15-[[(2R,3R,4R,5R,6R)-5-hydroxy-3,4-dimethoxy-6-methyl-tetrahydropyran-2-yl]oxymethyl]-5,7,9-trimethyl-1-oxacyclohexadeca-3,11,13-triene-2,10-dione

> <PUBCHEM_IUPAC_CAS_NAME>
(3E,5S,6S,7S,9R,11E,13E,15R,16R)-6-[[(2S,3R,4S,6R)-4-(dimethylamino)-3-hydroxy-6-methyl-2-oxanyl]oxy]-16-ethyl-15-[[(2R,3R,4R,5R,6R)-5-hydroxy-3,4-dimethoxy-6-methyl-2-oxanyl]oxymethyl]-5,7,9-trimethyl-1-oxacyclohexadeca-3,11,13-triene-2,10-dione

> <PUBCHEM_IUPAC_NAME>
(3E,5S,6S,7S,9R,11E,13E,15R,16R)-6-[(2S,3R,4S,6R)-4-(dimethylamino)-3-hydroxy-6-methyloxan-2-yl]oxy-16-ethyl-15-[[(2R,3R,4R,5R,6R)-5-hydroxy-3,4-dimethoxy-6-methyloxan-2-yl]oxymethyl]-5,7,9-trimethyl-1-oxacyclohexadeca-3,11,13-triene-2,10-dione

> <PUBCHEM_IUPAC_SYSTEMATIC_NAME>
(3E,5S,6S,7S,9R,11E,13E,15R,16R)-15-[[(2R,3R,4R,5R,6R)-3,4-dimethoxy-6-methyl-5-oxidanyl-oxan-2-yl]oxymethyl]-6-[(2S,3R,4S,6R)-4-(dimethylamino)-6-methyl-3-oxidanyl-oxan-2-yl]oxy-16-ethyl-5,7,9-trimethyl-1-oxacyclohexadeca-3,11,13-triene-2,10-dione

> <PUBCHEM_IUPAC_TRADITIONAL_NAME>
(3E,5S,6S,7S,9R,11E,13E,15R,16R)-6-[(2S,3R,4S,6R)-4-(dimethylamino)-3-hydroxy-6-methyl-tetrahydropyran-2-yl]oxy-16-ethyl-15-[[(2R,3R,4R,5R,6R)-5-hydroxy-3,4-dimethoxy-6-methyl-tetrahydropyran-2-yl]oxymethyl]-5,7,9-trimethyl-1-oxacyclohexadeca-3,11,13-triene-2,10-quinone

> <PUBCHEM_IUPAC_INCHI>
InChI=1S/C37H61NO11/c1-11-29-26(20-45-37-35(44-10)34(43-9)31(41)25(6)47-37)14-12-13-15-28(39)22(3)18-23(4)33(21(2)16-17-30(40)48-29)49-36-32(42)27(38(7)8)19-24(5)46-36/h12-17,21-27,29,31-37,41-42H,11,18-20H2,1-10H3/b14-12+,15-13+,17-16+/t21-,22+,23-,24+,25+,26+,27-,29+,31+,32+,33+,34+,35+,36-,37+/m0/s1

> <PUBCHEM_IUPAC_INCHIKEY>
DBTIHDIIXPQOFR-JMHKOBKLSA-N

> <PUBCHEM_XLOGP3_AA>
4.1

> <PUBCHEM_EXACT_MASS>
695.424462

> <PUBCHEM_MOLECULAR_FORMULA>
C37H61NO11

> <PUBCHEM_MOLECULAR_WEIGHT>
695.88034

> <PUBCHEM_OPENEYE_CAN_SMILES>
CCC1C(C=CC=CC(=O)C(CC(C(C(C=CC(=O)O1)C)OC2C(C(CC(O2)C)N(C)C)O)C)C)COC3C(C(C(C(O3)C)O)OC)OC

> <PUBCHEM_OPENEYE_ISO_SMILES>
CC[C@@H]1[C@H](/C=C/C=C/C(=O)[C@@H](C[C@@H]([C@@H]([C@H](/C=C/C(=O)O1)C)O[C@H]2[C@@H]([C@H](C[C@H](O2)C)N(C)C)O)C)C)CO[C@H]3[C@@H]([C@@H]([C@@H]([C@H](O3)C)O)OC)OC

> <PUBCHEM_CACTVS_TPSA>
142

> <PUBCHEM_MONOISOTOPIC_WEIGHT>
695.424462

> <PUBCHEM_TOTAL_CHARGE>
0

> <PUBCHEM_HEAVY_ATOM_COUNT>
49

> <PUBCHEM_ATOM_DEF_STEREO_COUNT>
15

> <PUBCHEM_ATOM_UDEF_STEREO_COUNT>
0

> <PUBCHEM_BOND_DEF_STEREO_COUNT>
3

> <PUBCHEM_BOND_UDEF_STEREO_COUNT>
0

> <PUBCHEM_ISOTOPIC_ATOM_COUNT>
0

> <PUBCHEM_COMPONENT_COUNT>
1

> <PUBCHEM_CACTVS_TAUTO_COUNT>
7

> <PUBCHEM_COORDINATE_TYPE>
1
5
255

> <PUBCHEM_BONDANNOTATIONS>
15  1  5
16  1  6
13  12  5
18  23  5
19  24  5
20  29  5
22  34  6
14  3  6
30  38  6
36  37  5
39  41  6
28  5  6
25  6  5
26  7  5
27  8  5

$$$$

