440727
  -OEChem-07051212502D

 30 30  0     1  0  0  0  0  0999 V2000
    5.8475    1.3044    0.0000 O   0  0  0  0  0  0  0  0  0  0  0  0
    4.1533    0.9442    0.0000 O   0  0  0  0  0  0  0  0  0  0  0  0
    6.2633   -0.6519    0.0000 N   0  3  0  0  0  0  0  0  0  0  0  0
    2.8090   -1.2908    0.0000 N   0  0  0  0  0  0  0  0  0  0  0  0
    2.3090    0.2480    0.0000 N   0  0  0  0  0  0  0  0  0  0  0  0
    5.3122   -0.3429    0.0000 C   0  0  1  0  0  0  0  0  0  0  0  0
    4.5691   -1.0120    0.0000 C   0  0  0  0  0  0  0  0  0  0  0  0
    7.2144   -0.9609    0.0000 C   0  0  0  0  0  0  0  0  0  0  0  0
    6.5723    0.2991    0.0000 C   0  0  0  0  0  0  0  0  0  0  0  0
    5.9543   -1.6030    0.0000 C   0  0  0  0  0  0  0  0  0  0  0  0
    5.1043    0.6352    0.0000 C   0  0  0  0  0  0  0  0  0  0  0  0
    3.6180   -0.7030    0.0000 C   0  0  0  0  0  0  0  0  0  0  0  0
    3.3090    0.2480    0.0000 C   0  0  0  0  0  0  0  0  0  0  0  0
    2.0000   -0.7030    0.0000 C   0  0  0  0  0  0  0  0  0  0  0  0
    5.7730    0.0719    0.0000 H   0  0  0  0  0  0  0  0  0  0  0  0
    4.2780   -1.5595    0.0000 H   0  0  0  0  0  0  0  0  0  0  0  0
    5.0577   -1.3938    0.0000 H   0  0  0  0  0  0  0  0  0  0  0  0
    7.0228   -1.5506    0.0000 H   0  0  0  0  0  0  0  0  0  0  0  0
    7.8040   -1.1525    0.0000 H   0  0  0  0  0  0  0  0  0  0  0  0
    7.4059   -0.3713    0.0000 H   0  0  0  0  0  0  0  0  0  0  0  0
    7.1620    0.1075    0.0000 H   0  0  0  0  0  0  0  0  0  0  0  0
    6.7639    0.8888    0.0000 H   0  0  0  0  0  0  0  0  0  0  0  0
    5.9826    0.4907    0.0000 H   0  0  0  0  0  0  0  0  0  0  0  0
    5.3646   -1.4114    0.0000 H   0  0  0  0  0  0  0  0  0  0  0  0
    5.7627   -2.1926    0.0000 H   0  0  0  0  0  0  0  0  0  0  0  0
    6.5439   -1.7946    0.0000 H   0  0  0  0  0  0  0  0  0  0  0  0
    2.8090   -1.9108    0.0000 H   0  0  0  0  0  0  0  0  0  0  0  0
    3.6734    0.7496    0.0000 H   0  0  0  0  0  0  0  0  0  0  0  0
    5.7186    1.9108    0.0000 H   0  0  0  0  0  0  0  0  0  0  0  0
    1.4103   -0.8946    0.0000 H   0  0  0  0  0  0  0  0  0  0  0  0
  1 11  1  0  0  0  0
  1 29  1  0  0  0  0
  2 11  2  0  0  0  0
  3  6  1  0  0  0  0
  3  8  1  0  0  0  0
  3  9  1  0  0  0  0
  3 10  1  0  0  0  0
  4 12  1  0  0  0  0
  4 14  1  0  0  0  0
  4 27  1  0  0  0  0
  5 13  1  0  0  0  0
  5 14  2  0  0  0  0
  6  7  1  0  0  0  0
  6 11  1  1  0  0  0
  6 15  1  0  0  0  0
  7 12  1  0  0  0  0
  7 16  1  0  0  0  0
  7 17  1  0  0  0  0
  8 18  1  0  0  0  0
  8 19  1  0  0  0  0
  8 20  1  0  0  0  0
  9 21  1  0  0  0  0
  9 22  1  0  0  0  0
  9 23  1  0  0  0  0
 10 24  1  0  0  0  0
 10 25  1  0  0  0  0
 10 26  1  0  0  0  0
 12 13  2  0  0  0  0
 13 28  1  0  0  0  0
 14 30  1  0  0  0  0
M  CHG  1   3   1
M  END
> <PUBCHEM_COMPOUND_CID>
440727

> <PUBCHEM_COMPOUND_CANONICALIZED>
1

> <PUBCHEM_CACTVS_COMPLEXITY>
213

> <PUBCHEM_CACTVS_HBOND_ACCEPTOR>
3

> <PUBCHEM_CACTVS_HBOND_DONOR>
2

> <PUBCHEM_CACTVS_ROTATABLE_BOND>
4

> <PUBCHEM_CACTVS_SUBSKEYS>
AAADceBzMAAAAAAAAAAAAAAAAAAAAWAAAAAAAAAAAAAAAAABgAAAHgAQCAAACCjBlgQvmBfJkgCoART3bAAAgC2xEqABUYG4cAiCaBJA2SGUQAAMkAJQQCC8EQIAAAAAAAAAAAAAAAAAAAAAAAAAAAAAAA==

> <PUBCHEM_IUPAC_OPENEYE_NAME>
[(1S)-1-carboxy-2-(1H-imidazol-5-yl)ethyl]-trimethyl-ammonium

> <PUBCHEM_IUPAC_CAS_NAME>
[(1S)-1-carboxy-2-(1H-imidazol-5-yl)ethyl]-trimethylammonium

> <PUBCHEM_IUPAC_NAME>
[(1S)-1-carboxy-2-(1H-imidazol-5-yl)ethyl]-trimethylazanium

> <PUBCHEM_IUPAC_SYSTEMATIC_NAME>
[(2S)-3-(1H-imidazol-5-yl)-1-oxidanyl-1-oxidanylidene-propan-2-yl]-trimethyl-azanium

> <PUBCHEM_IUPAC_TRADITIONAL_NAME>
[(1S)-1-carboxy-2-(1H-imidazol-5-yl)ethyl]-trimethyl-ammonium

> <PUBCHEM_IUPAC_INCHI>
InChI=1S/C9H15N3O2/c1-12(2,3)8(9(13)14)4-7-5-10-6-11-7/h5-6,8H,4H2,1-3H3,(H-,10,11,13,14)/p+1/t8-/m0/s1

> <PUBCHEM_IUPAC_INCHIKEY>
GPPYTCRVKHULJH-QMMMGPOBSA-O

> <PUBCHEM_XLOGP3_AA>
0

> <PUBCHEM_EXACT_MASS>
198.124252

> <PUBCHEM_MOLECULAR_FORMULA>
C9H16N3O2+

> <PUBCHEM_MOLECULAR_WEIGHT>
198.24224

> <PUBCHEM_OPENEYE_CAN_SMILES>
C[N+](C)(C)C(CC1=CN=CN1)C(=O)O

> <PUBCHEM_OPENEYE_ISO_SMILES>
C[N+](C)(C)[C@@H](CC1=CN=CN1)C(=O)O

> <PUBCHEM_CACTVS_TPSA>
66

> <PUBCHEM_MONOISOTOPIC_WEIGHT>
198.124252

> <PUBCHEM_TOTAL_CHARGE>
1

> <PUBCHEM_HEAVY_ATOM_COUNT>
14

> <PUBCHEM_ATOM_DEF_STEREO_COUNT>
1

> <PUBCHEM_ATOM_UDEF_STEREO_COUNT>
0

> <PUBCHEM_BOND_DEF_STEREO_COUNT>
0

> <PUBCHEM_BOND_UDEF_STEREO_COUNT>
0

> <PUBCHEM_ISOTOPIC_ATOM_COUNT>
0

> <PUBCHEM_COMPONENT_COUNT>
1

> <PUBCHEM_CACTVS_TAUTO_COUNT>
2

> <PUBCHEM_COORDINATE_TYPE>
1
5
255

> <PUBCHEM_BONDANNOTATIONS>
12  13  8
4  12  8
4  14  8
5  13  8
5  14  8
6  11  5

$$$$

