9121
  -OEChem-07051213143D

 44 50  0     0  0  0  0  0  0999 V2000
   -0.7156   -0.1909   -0.0001 C   0  0  0  0  0  0  0  0  0  0  0  0
    0.7156   -0.1909    0.0002 C   0  0  0  0  0  0  0  0  0  0  0  0
   -1.4208    1.0387    0.0001 C   0  0  0  0  0  0  0  0  0  0  0  0
    1.4209    1.0387    0.0008 C   0  0  0  0  0  0  0  0  0  0  0  0
   -1.4404   -1.4244   -0.0007 C   0  0  0  0  0  0  0  0  0  0  0  0
    1.4405   -1.4244   -0.0003 C   0  0  0  0  0  0  0  0  0  0  0  0
   -0.7093    2.2840   -0.0002 C   0  0  0  0  0  0  0  0  0  0  0  0
    0.7091    2.2841    0.0007 C   0  0  0  0  0  0  0  0  0  0  0  0
   -2.8756   -1.4456   -0.0005 C   0  0  0  0  0  0  0  0  0  0  0  0
    2.8757   -1.4455    0.0000 C   0  0  0  0  0  0  0  0  0  0  0  0
   -2.8343    0.9749    0.0011 C   0  0  0  0  0  0  0  0  0  0  0  0
    2.8342    0.9750    0.0012 C   0  0  0  0  0  0  0  0  0  0  0  0
   -3.5610   -0.2199    0.0009 C   0  0  0  0  0  0  0  0  0  0  0  0
    3.5610   -0.2198    0.0008 C   0  0  0  0  0  0  0  0  0  0  0  0
   -0.6950   -2.6098   -0.0013 C   0  0  0  0  0  0  0  0  0  0  0  0
    0.6952   -2.6097   -0.0010 C   0  0  0  0  0  0  0  0  0  0  0  0
   -1.3675    3.5485   -0.0023 C   0  0  0  0  0  0  0  0  0  0  0  0
    1.3672    3.5485    0.0011 C   0  0  0  0  0  0  0  0  0  0  0  0
   -3.6799   -2.6195   -0.0014 C   0  0  0  0  0  0  0  0  0  0  0  0
    3.6801   -2.6193   -0.0007 C   0  0  0  0  0  0  0  0  0  0  0  0
   -4.9687   -0.1804    0.0020 C   0  0  0  0  0  0  0  0  0  0  0  0
    4.9687   -0.1803    0.0010 C   0  0  0  0  0  0  0  0  0  0  0  0
   -0.6880    4.7645   -0.0024 C   0  0  0  0  0  0  0  0  0  0  0  0
    0.6877    4.7646   -0.0002 C   0  0  0  0  0  0  0  0  0  0  0  0
   -5.0767   -2.5723   -0.0002 C   0  0  0  0  0  0  0  0  0  0  0  0
    5.0768   -2.5721   -0.0003 C   0  0  0  0  0  0  0  0  0  0  0  0
   -5.7231   -1.3485    0.0016 C   0  0  0  0  0  0  0  0  0  0  0  0
    5.7231   -1.3483    0.0003 C   0  0  0  0  0  0  0  0  0  0  0  0
   -3.4213    1.8911    0.0022 H   0  0  0  0  0  0  0  0  0  0  0  0
    3.4212    1.8912    0.0018 H   0  0  0  0  0  0  0  0  0  0  0  0
   -1.1707   -3.5867   -0.0017 H   0  0  0  0  0  0  0  0  0  0  0  0
    1.1710   -3.5865   -0.0013 H   0  0  0  0  0  0  0  0  0  0  0  0
   -2.4513    3.6253   -0.0040 H   0  0  0  0  0  0  0  0  0  0  0  0
    2.4511    3.6253    0.0023 H   0  0  0  0  0  0  0  0  0  0  0  0
   -3.2324   -3.6099   -0.0028 H   0  0  0  0  0  0  0  0  0  0  0  0
    3.2326   -3.6097   -0.0014 H   0  0  0  0  0  0  0  0  0  0  0  0
   -5.4944    0.7731    0.0031 H   0  0  0  0  0  0  0  0  0  0  0  0
    5.4943    0.7732    0.0016 H   0  0  0  0  0  0  0  0  0  0  0  0
   -1.2395    5.6994   -0.0038 H   0  0  0  0  0  0  0  0  0  0  0  0
    1.2392    5.6995    0.0001 H   0  0  0  0  0  0  0  0  0  0  0  0
   -5.6510   -3.4939   -0.0008 H   0  0  0  0  0  0  0  0  0  0  0  0
    5.6512   -3.4937   -0.0008 H   0  0  0  0  0  0  0  0  0  0  0  0
   -6.8075   -1.3000    0.0024 H   0  0  0  0  0  0  0  0  0  0  0  0
    6.8074   -1.2997    0.0004 H   0  0  0  0  0  0  0  0  0  0  0  0
  1  2  1  0  0  0  0
  1  3  1  0  0  0  0
  1  5  2  0  0  0  0
  2  4  1  0  0  0  0
  2  6  2  0  0  0  0
  3  7  1  0  0  0  0
  3 11  2  0  0  0  0
  4  8  1  0  0  0  0
  4 12  2  0  0  0  0
  5  9  1  0  0  0  0
  5 15  1  0  0  0  0
  6 10  1  0  0  0  0
  6 16  1  0  0  0  0
  7  8  1  0  0  0  0
  7 17  2  0  0  0  0
  8 18  2  0  0  0  0
  9 13  1  0  0  0  0
  9 19  2  0  0  0  0
 10 14  1  0  0  0  0
 10 20  2  0  0  0  0
 11 13  1  0  0  0  0
 11 29  1  0  0  0  0
 12 14  1  0  0  0  0
 12 30  1  0  0  0  0
 13 21  2  0  0  0  0
 14 22  2  0  0  0  0
 15 16  2  0  0  0  0
 15 31  1  0  0  0  0
 16 32  1  0  0  0  0
 17 23  1  0  0  0  0
 17 33  1  0  0  0  0
 18 24  1  0  0  0  0
 18 34  1  0  0  0  0
 19 25  1  0  0  0  0
 19 35  1  0  0  0  0
 20 26  1  0  0  0  0
 20 36  1  0  0  0  0
 21 27  1  0  0  0  0
 21 37  1  0  0  0  0
 22 28  1  0  0  0  0
 22 38  1  0  0  0  0
 23 24  2  0  0  0  0
 23 39  1  0  0  0  0
 24 40  1  0  0  0  0
 25 27  2  0  0  0  0
 25 41  1  0  0  0  0
 26 28  2  0  0  0  0
 26 42  1  0  0  0  0
 27 43  1  0  0  0  0
 28 44  1  0  0  0  0
M  END
> <PUBCHEM_COMPOUND_CID>
9121

> <PUBCHEM_CONFORMER_RMSD>
0.6

> <PUBCHEM_CONFORMER_DIVERSEORDER>
1

> <PUBCHEM_MMFF94_PARTIAL_CHARGES>
32
11 -0.15
12 -0.15
15 -0.15
16 -0.15
17 -0.15
18 -0.15
19 -0.15
20 -0.15
21 -0.15
22 -0.15
23 -0.15
24 -0.15
25 -0.15
26 -0.15
27 -0.15
28 -0.15
29 0.15
30 0.15
31 0.15
32 0.15
33 0.15
34 0.15
35 0.15
36 0.15
37 0.15
38 0.15
39 0.15
40 0.15
41 0.15
42 0.15
43 0.15
44 0.15

> <PUBCHEM_EFFECTIVE_ROTOR_COUNT>
0

> <PUBCHEM_PHARMACOPHORE_FEATURES>
7
6 1 2 3 4 7 8 rings
6 1 2 5 6 15 16 rings
6 1 3 5 9 11 13 rings
6 10 14 20 22 26 28 rings
6 2 4 6 10 12 14 rings
6 7 8 17 18 23 24 rings
6 9 13 19 21 25 27 rings

> <PUBCHEM_HEAVY_ATOM_COUNT>
28

> <PUBCHEM_ATOM_DEF_STEREO_COUNT>
0

> <PUBCHEM_ATOM_UDEF_STEREO_COUNT>
0

> <PUBCHEM_BOND_DEF_STEREO_COUNT>
0

> <PUBCHEM_BOND_UDEF_STEREO_COUNT>
0

> <PUBCHEM_ISOTOPIC_ATOM_COUNT>
0

> <PUBCHEM_COMPONENT_COUNT>
1

> <PUBCHEM_CACTVS_TAUTO_COUNT>
1

> <PUBCHEM_CONFORMER_ID>
000023A100000001

> <PUBCHEM_MMFF94_ENERGY>
119.9547

> <PUBCHEM_FEATURE_SELFOVERLAP>
35.703

> <PUBCHEM_SHAPE_FINGERPRINT>
10050765 1 18122626330741611306
10319926 262 17976844283022178306
10411042 1 18410855460134073159
10967382 1 18122344583994531173
1100329 8 18267022747809559899
11045515 52 18272933847017018829
11115154 58 17534377641194111261
12107183 9 18335408081408045001
12166972 35 17918270948397893030
12403259 226 18410579482720470840
12516196 113 18410857646483300010
12553582 1 18338530689064984806
12788726 201 18199752603735202074
13004483 165 18410020952615412314
13140716 1 18409729603181645801
13590594 115 18411693301380130529
138480 1 14879752311090317696
14028597 1 17774739648810836554
14117953 113 18334293206350130223
14394314 77 18410003338712484088
14787075 74 18202279187003512362
14866123 147 17977665642869511059
14955137 171 18411975832707948379
15042514 8 18266177412435850008
15081414 286 18337670806579203161
15131766 46 15215027006666804466
15196674 1 18410575088958507430
15230672 131 17186992637308848190
15439362 3 18123755249466981797
15927050 60 17615966608598810966
16087824 20 18266739280976027693
17492 89 18050005489838459923
18336668 15 18131348605157823780
18681886 176 18336272236368771963
19591789 44 18410575088958299558
19611394 137 17913762818007566298
20028762 73 18114747032020584399
20775438 99 17325542793187246119
21049683 271 18128244602012338861
21133410 127 17627524731414706733
21133410 171 17479509828354789443
21267235 1 18410567388082334082
21478907 32 18411138081866428256
21641784 216 18058431236319851588
21796203 349 17981002463202105569
22113638 7 18335425599582892326
221490 88 18197494022342352659
23558518 356 17982722275655886642
23559900 14 18338525119178230307
24771293 8 18115880598501137008
24771750 20 17695898939137797212
283562 15 18269273632990201778
3004659 81 18131069329742854070
3091708 16 9209269151067043856
3103668 31 18198907105496237037
335352 9 18410856577737673911
3380486 145 18268977856205282449
3421961 26 18337111142318312153
350125 39 18337952406452999672
4015057 19 18268154158935039715
4409770 3 18054513775116622277
463206 1 18341891844635519667
469060 322 18337380655905906784
5104073 3 18335142028830953306
5309563 4 18409730651217255263
6004065 56 18265905665692349367
6443956 14 18340205202604223605
653340 110 18265060321923617832
6700243 42 17825075316709892998
79837 15 17688591984412777944
9709674 26 18125158226240603635
9777508 108 17977110389814326680
9981440 41 17187566581539088888

> <PUBCHEM_SHAPE_MULTIPOLES>
576.23
10.16
5.54
0.62
0
7.55
0
-10.68
0
0
0
0
0
0

> <PUBCHEM_SHAPE_SELFOVERLAP>
1367.581

> <PUBCHEM_SHAPE_VOLUME>
258.9

> <PUBCHEM_COORDINATE_TYPE>
2
5
10

$$$$

