441900
  -OEChem-07051212563D

 72 77  0     1  0  0  0  0  0999 V2000
   -3.3055   -1.0842   -0.3565 O   0  0  0  0  0  0  0  0  0  0  0  0
   -4.8382    0.0363    1.0964 O   0  0  0  0  0  0  0  0  0  0  0  0
    8.1553   -0.4459    0.2917 O   0  0  0  0  0  0  0  0  0  0  0  0
   -0.4955    0.8217   -0.1000 C   0  0  1  0  0  0  0  0  0  0  0  0
    0.1651   -0.5158    0.3085 C   0  0  2  0  0  0  0  0  0  0  0  0
   -1.9068    0.6359    0.5324 C   0  0  2  0  0  0  0  0  0  0  0  0
    1.5924   -0.6793   -0.2211 C   0  0  1  0  0  0  0  0  0  0  0  0
   -2.1620   -0.8854    0.4689 C   0  0  2  0  0  0  0  0  0  0  0  0
    2.4721    0.4970    0.2956 C   0  0  2  0  0  0  0  0  0  0  0  0
   -0.8924   -1.5480   -0.0671 C   0  0  0  0  0  0  0  0  0  0  0  0
    0.3345    1.9473    0.5360 C   0  0  0  0  0  0  0  0  0  0  0  0
   -3.1344    1.2424   -0.1568 C   0  0  1  0  0  0  0  0  0  0  0  0
    1.8067    1.8867    0.0905 C   0  0  0  0  0  0  0  0  0  0  0  0
    3.9501    0.3993   -0.2579 C   0  0  2  0  0  0  0  0  0  0  0  0
   -4.1447    0.0765   -0.1597 C   0  0  1  0  0  0  0  0  0  0  0  0
   -0.5524    1.0265   -1.6348 C   0  0  0  0  0  0  0  0  0  0  0  0
    2.1903   -2.0210    0.2290 C   0  0  0  0  0  0  0  0  0  0  0  0
    4.4758   -1.0398   -0.1553 C   0  0  0  0  0  0  0  0  0  0  0  0
    4.8546    1.3364    0.5976 C   0  0  0  0  0  0  0  0  0  0  0  0
   -3.6113    2.5203    0.5230 C   0  0  0  0  0  0  0  0  0  0  0  0
   -5.1421    0.1886   -1.3190 C   0  0  0  0  0  0  0  0  0  0  0  0
    3.6757   -2.0953    0.0759 C   0  0  0  0  0  0  0  0  0  0  0  0
    4.0250    0.8308   -1.7421 C   0  0  0  0  0  0  0  0  0  0  0  0
    5.9642   -1.2444   -0.3190 C   0  0  0  0  0  0  0  0  0  0  0  0
    6.3534    1.1506    0.3643 C   0  0  0  0  0  0  0  0  0  0  0  0
   -6.2098   -0.9021   -1.2461 C   0  0  0  0  0  0  0  0  0  0  0  0
    6.7669   -0.3025    0.5739 C   0  0  2  0  0  0  0  0  0  0  0  0
   -6.8489   -0.9828    0.1438 C   0  0  1  0  0  0  0  0  0  0  0  0
   -5.7536   -1.0524    1.2089 C   0  0  0  0  0  0  0  0  0  0  0  0
   -7.7844    0.2026    0.3990 C   0  0  0  0  0  0  0  0  0  0  0  0
    0.2396   -0.5383    1.4096 H   0  0  0  0  0  0  0  0  0  0  0  0
   -1.8702    0.9263    1.5915 H   0  0  0  0  0  0  0  0  0  0  0  0
    1.5785   -0.6774   -1.3164 H   0  0  0  0  0  0  0  0  0  0  0  0
   -2.3906   -1.2700    1.4714 H   0  0  0  0  0  0  0  0  0  0  0  0
    2.5326    0.3662    1.3887 H   0  0  0  0  0  0  0  0  0  0  0  0
   -0.9451   -1.7309   -1.1452 H   0  0  0  0  0  0  0  0  0  0  0  0
   -0.7179   -2.5126    0.4204 H   0  0  0  0  0  0  0  0  0  0  0  0
    0.2989    1.8729    1.6306 H   0  0  0  0  0  0  0  0  0  0  0  0
   -0.0875    2.9265    0.2794 H   0  0  0  0  0  0  0  0  0  0  0  0
   -2.9130    1.4913   -1.1974 H   0  0  0  0  0  0  0  0  0  0  0  0
    1.8604    2.1885   -0.9593 H   0  0  0  0  0  0  0  0  0  0  0  0
    2.3600    2.6465    0.6540 H   0  0  0  0  0  0  0  0  0  0  0  0
    0.4259    0.9445   -2.1151 H   0  0  0  0  0  0  0  0  0  0  0  0
   -1.2032    0.2979   -2.1284 H   0  0  0  0  0  0  0  0  0  0  0  0
   -0.9266    2.0278   -1.8778 H   0  0  0  0  0  0  0  0  0  0  0  0
    1.7358   -2.8292   -0.3568 H   0  0  0  0  0  0  0  0  0  0  0  0
    1.9500   -2.2186    1.2810 H   0  0  0  0  0  0  0  0  0  0  0  0
    4.6568    1.1636    1.6644 H   0  0  0  0  0  0  0  0  0  0  0  0
    4.6064    2.3869    0.4046 H   0  0  0  0  0  0  0  0  0  0  0  0
   -2.8424    3.2971    0.4544 H   0  0  0  0  0  0  0  0  0  0  0  0
   -4.5182    2.9025    0.0441 H   0  0  0  0  0  0  0  0  0  0  0  0
   -3.8295    2.3633    1.5843 H   0  0  0  0  0  0  0  0  0  0  0  0
   -4.6231    0.1078   -2.2817 H   0  0  0  0  0  0  0  0  0  0  0  0
   -5.6383    1.1655   -1.2936 H   0  0  0  0  0  0  0  0  0  0  0  0
    4.1097   -3.0889    0.1593 H   0  0  0  0  0  0  0  0  0  0  0  0
    5.0208    0.6757   -2.1710 H   0  0  0  0  0  0  0  0  0  0  0  0
    3.3226    0.2680   -2.3654 H   0  0  0  0  0  0  0  0  0  0  0  0
    3.8049    1.8960   -1.8656 H   0  0  0  0  0  0  0  0  0  0  0  0
    6.2586   -2.2780   -0.0952 H   0  0  0  0  0  0  0  0  0  0  0  0
    6.2418   -1.0943   -1.3700 H   0  0  0  0  0  0  0  0  0  0  0  0
    6.6310    1.4842   -0.6431 H   0  0  0  0  0  0  0  0  0  0  0  0
    6.9187    1.7948    1.0492 H   0  0  0  0  0  0  0  0  0  0  0  0
   -6.9728   -0.7299   -2.0143 H   0  0  0  0  0  0  0  0  0  0  0  0
   -5.7456   -1.8691   -1.4793 H   0  0  0  0  0  0  0  0  0  0  0  0
    6.6210   -0.5766    1.6257 H   0  0  0  0  0  0  0  0  0  0  0  0
   -7.4529   -1.8970    0.1993 H   0  0  0  0  0  0  0  0  0  0  0  0
   -6.1927   -1.0128    2.2116 H   0  0  0  0  0  0  0  0  0  0  0  0
   -5.2027   -1.9979    1.1408 H   0  0  0  0  0  0  0  0  0  0  0  0
   -7.2502    1.1578    0.4126 H   0  0  0  0  0  0  0  0  0  0  0  0
   -8.5588    0.2578   -0.3733 H   0  0  0  0  0  0  0  0  0  0  0  0
   -8.2871    0.0909    1.3657 H   0  0  0  0  0  0  0  0  0  0  0  0
    8.2990   -0.2017   -0.6385 H   0  0  0  0  0  0  0  0  0  0  0  0
  1  8  1  0  0  0  0
  1 15  1  0  0  0  0
  2 15  1  0  0  0  0
  2 29  1  0  0  0  0
  3 27  1  0  0  0  0
  3 72  1  0  0  0  0
  4  5  1  0  0  0  0
  4  6  1  0  0  0  0
  4 11  1  0  0  0  0
  4 16  1  0  0  0  0
  5  7  1  0  0  0  0
  5 10  1  0  0  0  0
  5 31  1  0  0  0  0
  6  8  1  0  0  0  0
  6 12  1  0  0  0  0
  6 32  1  0  0  0  0
  7  9  1  0  0  0  0
  7 17  1  0  0  0  0
  7 33  1  0  0  0  0
  8 10  1  0  0  0  0
  8 34  1  0  0  0  0
  9 13  1  0  0  0  0
  9 14  1  0  0  0  0
  9 35  1  0  0  0  0
 10 36  1  0  0  0  0
 10 37  1  0  0  0  0
 11 13  1  0  0  0  0
 11 38  1  0  0  0  0
 11 39  1  0  0  0  0
 12 15  1  0  0  0  0
 12 20  1  0  0  0  0
 12 40  1  0  0  0  0
 13 41  1  0  0  0  0
 13 42  1  0  0  0  0
 14 18  1  0  0  0  0
 14 19  1  0  0  0  0
 14 23  1  0  0  0  0
 15 21  1  0  0  0  0
 16 43  1  0  0  0  0
 16 44  1  0  0  0  0
 16 45  1  0  0  0  0
 17 22  1  0  0  0  0
 17 46  1  0  0  0  0
 17 47  1  0  0  0  0
 18 22  2  0  0  0  0
 18 24  1  0  0  0  0
 19 25  1  0  0  0  0
 19 48  1  0  0  0  0
 19 49  1  0  0  0  0
 20 50  1  0  0  0  0
 20 51  1  0  0  0  0
 20 52  1  0  0  0  0
 21 26  1  0  0  0  0
 21 53  1  0  0  0  0
 21 54  1  0  0  0  0
 22 55  1  0  0  0  0
 23 56  1  0  0  0  0
 23 57  1  0  0  0  0
 23 58  1  0  0  0  0
 24 27  1  0  0  0  0
 24 59  1  0  0  0  0
 24 60  1  0  0  0  0
 25 27  1  0  0  0  0
 25 61  1  0  0  0  0
 25 62  1  0  0  0  0
 26 28  1  0  0  0  0
 26 63  1  0  0  0  0
 26 64  1  0  0  0  0
 27 65  1  0  0  0  0
 28 29  1  0  0  0  0
 28 30  1  0  0  0  0
 28 66  1  0  0  0  0
 29 67  1  0  0  0  0
 29 68  1  0  0  0  0
 30 69  1  0  0  0  0
 30 70  1  0  0  0  0
 30 71  1  0  0  0  0
M  END
> <PUBCHEM_COMPOUND_CID>
441900

> <PUBCHEM_CONFORMER_RMSD>
0.8

> <PUBCHEM_CONFORMER_DIVERSEORDER>
1

> <PUBCHEM_MMFF94_PARTIAL_CHARGES>
14
1 -0.56
14 0.14
15 0.56
17 0.14
18 -0.28
2 -0.56
22 -0.29
24 0.14
27 0.28
29 0.28
3 -0.68
55 0.15
72 0.4
8 0.28

> <PUBCHEM_EFFECTIVE_ROTOR_COUNT>
3

> <PUBCHEM_PHARMACOPHORE_FEATURES>
10
1 1 acceptor
1 2 acceptor
1 3 acceptor
1 3 donor
5 1 6 8 12 15 rings
5 4 5 6 8 10 rings
6 14 18 19 24 25 27 rings
6 2 15 21 26 28 29 rings
6 4 5 7 9 11 13 rings
6 7 9 14 17 18 22 rings

> <PUBCHEM_HEAVY_ATOM_COUNT>
30

> <PUBCHEM_ATOM_DEF_STEREO_COUNT>
11

> <PUBCHEM_ATOM_UDEF_STEREO_COUNT>
0

> <PUBCHEM_BOND_DEF_STEREO_COUNT>
0

> <PUBCHEM_BOND_UDEF_STEREO_COUNT>
0

> <PUBCHEM_ISOTOPIC_ATOM_COUNT>
0

> <PUBCHEM_COMPONENT_COUNT>
1

> <PUBCHEM_CACTVS_TAUTO_COUNT>
1

> <PUBCHEM_CONFORMER_ID>
0006BE2C00000001

> <PUBCHEM_MMFF94_ENERGY>
103.1001

> <PUBCHEM_FEATURE_SELFOVERLAP>
51.158

> <PUBCHEM_SHAPE_FINGERPRINT>
10 15 18272657805965072544
10050765 1 18121780792190317387
10299344 5 17749108885441253759
106641 1 16877949308778895826
11135926 11 18341619222409254551
11315181 36 17989484117621654961
11646440 116 18259980462117869664
11719270 70 18272373079355532658
11963148 33 18130793317406161562
12107698 1 17603305942621789105
12166972 35 18409165506984218104
12236239 1 17531246153665174571
12516196 113 18186802478336577560
12596602 18 17530679926657072730
12838862 33 18338535074901820858
13073987 5 18336546117837417824
13533116 47 18186521025183005794
13685833 64 18411417306280314928
13782708 43 18058449970951663730
13914758 101 15410905084047124909
14170010 4 18412263913101474776
14251764 18 18040997327887772904
14849402 71 17604433977180392192
14856354 85 15502376691289933325
15183329 4 18334858316049433154
15196674 1 18337390542867821920
15419008 47 17632585945743529877
15840311 113 17417805112351125436
16090146 7 13182734900561858880
17349148 13 17822004307534387977
17492 89 18120937476137889742
17857418 61 18334296461681768583
1813 80 17346594192529819076
18608769 82 18341894044175506347
19319366 153 18342744009460819778
19489759 90 15554448509503245095
19841028 212 17988648557356966522
21033648 29 18201174182629614077
21150785 3 15626502791878833507
21236236 1 18336546109812206369
21267235 1 18408880759194435150
21521721 280 18187928331457566688
21781051 124 17845073117609922602
21792934 111 18335147517577474777
22149856 69 18336811061975435267
22224240 67 17240769471554091846
23516275 137 17241584235098135479
23522609 53 18044907183243186161
23559900 14 18266184933177092049
23569917 315 18343577447875489890
3004659 81 18131353012232164200
3178227 256 18338786841600528923
335352 9 18410575054651218094
3383291 50 18341891870500308667
34797466 226 17312817161349812956
350125 39 18408322203293478561
3545911 37 18412546500516906666
3633792 109 18343029908543320477
4073 2 18129940079044284690
4325135 7 18407761438708011279
4340502 62 17489872630893098010
5104073 3 18339641268834052416
6086070 43 17096102367501838737

> <PUBCHEM_SHAPE_MULTIPOLES>
599.78
19.65
2
1.09
1.72
0.27
0.34
-3.55
-1.4
-0.55
-0.19
0.6
0.14
-0.03

> <PUBCHEM_SHAPE_SELFOVERLAP>
1293.303

> <PUBCHEM_SHAPE_VOLUME>
328.8

> <PUBCHEM_COORDINATE_TYPE>
2
5
10

$$$$

