151108
  -OEChem-07051212543D

 27 27  0     1  0  0  0  0  0999 V2000
   -1.8066   -0.9212    0.4829 O   0  0  0  0  0  0  0  0  0  0  0  0
    0.1692   -2.6060   -0.4238 O   0  0  0  0  0  0  0  0  0  0  0  0
   -0.3675    1.4297   -1.9109 O   0  0  0  0  0  0  0  0  0  0  0  0
    2.5275   -1.2495    0.5431 O   0  0  0  0  0  0  0  0  0  0  0  0
   -0.6696    1.4323    1.7126 O   0  0  0  0  0  0  0  0  0  0  0  0
    2.1799    1.2449   -0.5623 O   0  0  0  0  0  0  0  0  0  0  0  0
   -1.0029   -0.5183   -0.6272 C   0  0  0  0  0  0  0  0  0  0  0  0
    0.3719   -1.2004   -0.5674 C   0  0  1  0  0  0  0  0  0  0  0  0
   -0.8911    1.0135   -0.6524 C   0  0  1  0  0  0  0  0  0  0  0  0
    1.2230   -0.6724    0.5929 C   0  0  2  0  0  0  0  0  0  0  0  0
    0.0103    1.5674    0.4673 C   0  0  2  0  0  0  0  0  0  0  0  0
    1.3693    0.8557    0.5477 C   0  0  0  0  0  0  0  0  0  0  0  0
   -3.1135   -0.3758    0.3976 C   0  0  0  0  0  0  0  0  0  0  0  0
   -1.4954   -0.8783   -1.5411 H   0  0  0  0  0  0  0  0  0  0  0  0
    0.9037   -1.0525   -1.5152 H   0  0  0  0  0  0  0  0  0  0  0  0
   -1.8678    1.4974   -0.5735 H   0  0  0  0  0  0  0  0  0  0  0  0
    0.7745   -0.9847    1.5439 H   0  0  0  0  0  0  0  0  0  0  0  0
    0.1834    2.6366    0.2922 H   0  0  0  0  0  0  0  0  0  0  0  0
    1.9041    1.1746    1.4509 H   0  0  0  0  0  0  0  0  0  0  0  0
    1.0467   -3.0205   -0.3614 H   0  0  0  0  0  0  0  0  0  0  0  0
   -0.9709    1.1071   -2.6018 H   0  0  0  0  0  0  0  0  0  0  0  0
    3.0285   -0.9083    1.3035 H   0  0  0  0  0  0  0  0  0  0  0  0
   -1.4641    1.9914    1.6742 H   0  0  0  0  0  0  0  0  0  0  0  0
    2.2808    2.2114   -0.5275 H   0  0  0  0  0  0  0  0  0  0  0  0
   -3.5015   -0.3741   -0.6264 H   0  0  0  0  0  0  0  0  0  0  0  0
   -3.1580    0.6242    0.8360 H   0  0  0  0  0  0  0  0  0  0  0  0
   -3.7724   -1.0097    0.9992 H   0  0  0  0  0  0  0  0  0  0  0  0
  1  7  1  0  0  0  0
  1 13  1  0  0  0  0
  2  8  1  0  0  0  0
  2 20  1  0  0  0  0
  3  9  1  0  0  0  0
  3 21  1  0  0  0  0
  4 10  1  0  0  0  0
  4 22  1  0  0  0  0
  5 11  1  0  0  0  0
  5 23  1  0  0  0  0
  6 12  1  0  0  0  0
  6 24  1  0  0  0  0
  7  8  1  0  0  0  0
  7  9  1  0  0  0  0
  7 14  1  0  0  0  0
  8 10  1  0  0  0  0
  8 15  1  0  0  0  0
  9 11  1  0  0  0  0
  9 16  1  0  0  0  0
 10 12  1  0  0  0  0
 10 17  1  0  0  0  0
 11 12  1  0  0  0  0
 11 18  1  0  0  0  0
 12 19  1  0  0  0  0
 13 25  1  0  0  0  0
 13 26  1  0  0  0  0
 13 27  1  0  0  0  0
M  END
> <PUBCHEM_COMPOUND_CID>
151108

> <PUBCHEM_CONFORMER_RMSD>
0.6

> <PUBCHEM_CONFORMER_DIVERSEORDER>
1
2

> <PUBCHEM_MMFF94_PARTIAL_CHARGES>
18
1 -0.56
10 0.28
11 0.28
12 0.28
13 0.28
2 -0.68
20 0.4
21 0.4
22 0.4
23 0.4
24 0.4
3 -0.68
4 -0.68
5 -0.68
6 -0.68
7 0.28
8 0.28
9 0.28

> <PUBCHEM_EFFECTIVE_ROTOR_COUNT>
2.2

> <PUBCHEM_PHARMACOPHORE_FEATURES>
12
1 1 acceptor
1 2 acceptor
1 2 donor
1 3 acceptor
1 3 donor
1 4 acceptor
1 4 donor
1 5 acceptor
1 5 donor
1 6 acceptor
1 6 donor
6 7 8 9 10 11 12 rings

> <PUBCHEM_HEAVY_ATOM_COUNT>
13

> <PUBCHEM_ATOM_DEF_STEREO_COUNT>
4

> <PUBCHEM_ATOM_UDEF_STEREO_COUNT>
0

> <PUBCHEM_BOND_DEF_STEREO_COUNT>
0

> <PUBCHEM_BOND_UDEF_STEREO_COUNT>
0

> <PUBCHEM_ISOTOPIC_ATOM_COUNT>
0

> <PUBCHEM_COMPONENT_COUNT>
1

> <PUBCHEM_CACTVS_TAUTO_COUNT>
1

> <PUBCHEM_CONFORMER_ID>
00024E4400000001

> <PUBCHEM_MMFF94_ENERGY>
42.8463

> <PUBCHEM_FEATURE_SELFOVERLAP>
60.92

> <PUBCHEM_SHAPE_FINGERPRINT>
10702982 57 16763354684668768461
12138202 97 17270051853712680815
12423570 1 9200555680335749820
13024252 1 15121804006608513322
16945 1 18195255407629606713
21040471 1 18047194055168056939
241688 4 16605213585039552464
2748010 2 18267325264131500220
29004967 10 17632018524760300769
5084963 1 18272093845997731314
528862 383 18342461383062829234
528886 8 17700135391735837844

> <PUBCHEM_SHAPE_MULTIPOLES>
232.32
2.85
2.09
1.24
0.86
0.61
-0.18
0.51
0.6
-0.41
-0.12
0.16
-0.57
-0.09

> <PUBCHEM_SHAPE_SELFOVERLAP>
466.037

> <PUBCHEM_SHAPE_VOLUME>
135.4

> <PUBCHEM_COORDINATE_TYPE>
2
5
10

$$$$

