67088
  -OEChem-07051213053D

 47 50  0     1  0  0  0  0  0999 V2000
   -0.7545   -3.8339    0.8275 Cl  0  0  0  0  0  0  0  0  0  0  0  0
   -5.1006   -0.6869   -0.2565 O   0  0  0  0  0  0  0  0  0  0  0  0
    5.9477    0.0215    0.1582 O   0  0  0  0  0  0  0  0  0  0  0  0
   -2.6699   -0.2434   -0.0349 C   0  0  2  0  0  0  0  0  0  0  0  0
   -1.9058    1.0685   -0.2983 C   0  0  2  0  0  0  0  0  0  0  0  0
   -0.4659    1.0176    0.2153 C   0  0  1  0  0  0  0  0  0  0  0  0
    0.2899   -0.0831   -0.5964 C   0  0  2  0  0  0  0  0  0  0  0  0
   -1.9403   -1.3893   -0.7573 C   0  0  0  0  0  0  0  0  0  0  0  0
   -0.4143   -1.4764   -0.4617 C   0  0  2  0  0  0  0  0  0  0  0  0
   -4.0291    0.1449   -0.6589 C   0  0  2  0  0  0  0  0  0  0  0  0
   -2.8650    2.1417    0.2044 C   0  0  0  0  0  0  0  0  0  0  0  0
   -4.2525    1.5996   -0.1913 C   0  0  0  0  0  0  0  0  0  0  0  0
    0.2557    2.3576    0.0650 C   0  0  0  0  0  0  0  0  0  0  0  0
   -2.8797   -0.5919    1.4601 C   0  0  0  0  0  0  0  0  0  0  0  0
    1.7986   -0.0578   -0.3645 C   0  0  0  0  0  0  0  0  0  0  0  0
    1.6436    2.2629    0.6903 C   0  0  0  0  0  0  0  0  0  0  0  0
   -0.1109   -2.1859    0.8651 C   0  0  0  0  0  0  0  0  0  0  0  0
    2.4252    1.0627    0.2199 C   0  0  0  0  0  0  0  0  0  0  0  0
    2.6126   -1.1090   -0.8242 C   0  0  0  0  0  0  0  0  0  0  0  0
    3.8186    1.0683    0.4062 C   0  0  0  0  0  0  0  0  0  0  0  0
    3.9971   -1.0862   -0.6460 C   0  0  0  0  0  0  0  0  0  0  0  0
    4.5996   -0.0015   -0.0220 C   0  0  0  0  0  0  0  0  0  0  0  0
   -1.8412    1.2217   -1.3892 H   0  0  0  0  0  0  0  0  0  0  0  0
   -0.4513    0.7621    1.2808 H   0  0  0  0  0  0  0  0  0  0  0  0
    0.1915    0.1935   -1.6591 H   0  0  0  0  0  0  0  0  0  0  0  0
   -2.0337   -1.2200   -1.8402 H   0  0  0  0  0  0  0  0  0  0  0  0
   -2.4581   -2.3382   -0.5852 H   0  0  0  0  0  0  0  0  0  0  0  0
   -0.0068   -2.1174   -1.2567 H   0  0  0  0  0  0  0  0  0  0  0  0
   -3.9745    0.1173   -1.7547 H   0  0  0  0  0  0  0  0  0  0  0  0
   -2.6736    3.1173   -0.2535 H   0  0  0  0  0  0  0  0  0  0  0  0
   -2.7969    2.2618    1.2914 H   0  0  0  0  0  0  0  0  0  0  0  0
   -4.9525    1.6663    0.6490 H   0  0  0  0  0  0  0  0  0  0  0  0
   -4.6797    2.1910   -1.0092 H   0  0  0  0  0  0  0  0  0  0  0  0
   -0.3001    3.1611    0.5609 H   0  0  0  0  0  0  0  0  0  0  0  0
    0.3367    2.6280   -0.9957 H   0  0  0  0  0  0  0  0  0  0  0  0
   -3.6742    0.0099    1.9163 H   0  0  0  0  0  0  0  0  0  0  0  0
   -3.1792   -1.6388    1.5816 H   0  0  0  0  0  0  0  0  0  0  0  0
   -2.0008   -0.4119    2.0773 H   0  0  0  0  0  0  0  0  0  0  0  0
    1.5514    2.2051    1.7822 H   0  0  0  0  0  0  0  0  0  0  0  0
    2.1937    3.1819    0.4541 H   0  0  0  0  0  0  0  0  0  0  0  0
   -0.4976   -1.6816    1.7464 H   0  0  0  0  0  0  0  0  0  0  0  0
    0.9649   -2.2945    1.0206 H   0  0  0  0  0  0  0  0  0  0  0  0
   -5.9165   -0.3151   -0.6327 H   0  0  0  0  0  0  0  0  0  0  0  0
    2.1815   -1.9670   -1.3324 H   0  0  0  0  0  0  0  0  0  0  0  0
    4.2975    1.9218    0.8818 H   0  0  0  0  0  0  0  0  0  0  0  0
    4.5915   -1.9228   -1.0034 H   0  0  0  0  0  0  0  0  0  0  0  0
    6.3278   -0.7988   -0.2006 H   0  0  0  0  0  0  0  0  0  0  0  0
  1 17  1  0  0  0  0
  2 10  1  0  0  0  0
  2 43  1  0  0  0  0
  3 22  1  0  0  0  0
  3 47  1  0  0  0  0
  4  5  1  0  0  0  0
  4  8  1  0  0  0  0
  4 10  1  0  0  0  0
  4 14  1  0  0  0  0
  5  6  1  0  0  0  0
  5 11  1  0  0  0  0
  5 23  1  0  0  0  0
  6  7  1  0  0  0  0
  6 13  1  0  0  0  0
  6 24  1  0  0  0  0
  7  9  1  0  0  0  0
  7 15  1  0  0  0  0
  7 25  1  0  0  0  0
  8  9  1  0  0  0  0
  8 26  1  0  0  0  0
  8 27  1  0  0  0  0
  9 17  1  0  0  0  0
  9 28  1  0  0  0  0
 10 12  1  0  0  0  0
 10 29  1  0  0  0  0
 11 12  1  0  0  0  0
 11 30  1  0  0  0  0
 11 31  1  0  0  0  0
 12 32  1  0  0  0  0
 12 33  1  0  0  0  0
 13 16  1  0  0  0  0
 13 34  1  0  0  0  0
 13 35  1  0  0  0  0
 14 36  1  0  0  0  0
 14 37  1  0  0  0  0
 14 38  1  0  0  0  0
 15 18  2  0  0  0  0
 15 19  1  0  0  0  0
 16 18  1  0  0  0  0
 16 39  1  0  0  0  0
 16 40  1  0  0  0  0
 17 41  1  0  0  0  0
 17 42  1  0  0  0  0
 18 20  1  0  0  0  0
 19 21  2  0  0  0  0
 19 44  1  0  0  0  0
 20 22  2  0  0  0  0
 20 45  1  0  0  0  0
 21 22  1  0  0  0  0
 21 46  1  0  0  0  0
M  END
> <PUBCHEM_COMPOUND_CID>
67088

> <PUBCHEM_CONFORMER_RMSD>
0.6

> <PUBCHEM_CONFORMER_DIVERSEORDER>
1

> <PUBCHEM_MMFF94_PARTIAL_CHARGES>
18
1 -0.29
10 0.28
15 -0.14
16 0.14
17 0.29
18 -0.14
19 -0.15
2 -0.68
20 -0.15
21 -0.15
22 0.08
3 -0.53
43 0.4
44 0.15
45 0.15
46 0.15
47 0.45
7 0.14

> <PUBCHEM_EFFECTIVE_ROTOR_COUNT>
2.4

> <PUBCHEM_PHARMACOPHORE_FEATURES>
7
1 2 acceptor
1 2 donor
1 3 donor
5 4 5 10 11 12 rings
6 15 18 19 20 21 22 rings
6 4 5 6 7 8 9 rings
6 6 7 13 15 16 18 rings

> <PUBCHEM_HEAVY_ATOM_COUNT>
22

> <PUBCHEM_ATOM_DEF_STEREO_COUNT>
6

> <PUBCHEM_ATOM_UDEF_STEREO_COUNT>
0

> <PUBCHEM_BOND_DEF_STEREO_COUNT>
0

> <PUBCHEM_BOND_UDEF_STEREO_COUNT>
0

> <PUBCHEM_ISOTOPIC_ATOM_COUNT>
0

> <PUBCHEM_COMPONENT_COUNT>
1

> <PUBCHEM_CACTVS_TAUTO_COUNT>
9

> <PUBCHEM_CONFORMER_ID>
0001061000000001

> <PUBCHEM_MMFF94_ENERGY>
82.3062

> <PUBCHEM_FEATURE_SELFOVERLAP>
35.616

> <PUBCHEM_SHAPE_FINGERPRINT>
10 15 18337121073337787880
10906281 52 18261656126634288652
10967382 1 18408323306503636836
11132069 177 18261114080059791588
11578080 2 16228314837428349363
11680986 33 18192713332535682400
12011746 2 18410858763005673861
12035758 1 18338509755415568290
12236239 1 17704072910916484012
12403259 226 18335426708196176737
12403259 415 18410582785993784021
12592029 89 18340769342411227315
12788726 201 18261954167447657488
13140716 1 18120649132785201922
13402501 40 18408323293766557860
13583140 156 16845573080343951040
14115302 16 18201148876428650484
14223421 5 17905606601522452354
14466204 15 18339087115185039176
14787075 74 18333735693128784429
14790565 3 18339072804296343580
15042514 8 18197775497382626715
15099037 51 18410856563977130420
15163728 17 16413535526213335341
15196674 1 18334858359014962996
15209289 33 18410855460413030925
15375358 24 18334857212717435926
15536298 74 18186241735959455492
15848702 151 17603859056909698159
16945 1 18265326210015644077
19591789 44 18339081608878527967
200 152 17530687618959459933
20028762 73 18188491255694906223
20905425 154 17904200673895243463
21029758 11 18259988184063164712
21033648 29 18340219530452040921
21267235 1 18334288769305631894
21279426 13 18192992840607068070
21421861 104 17695341873289285393
21524375 3 18409448094198845567
22393880 68 18337411399935724733
23402539 116 18334864930546917676
23419403 2 5326458311666514375
23558518 356 18053107228691641295
23559900 14 18335137644397070870
2748010 2 18409727378520702093
3004659 81 18342172328487108774
3084891 72 18410012169386173506
335352 9 18335422387026456820
34934 24 18261961858968894436
350125 39 18408600353875935117
351380 180 18407762538377862037
4214541 1 18334296487035276253
43471831 8 18198907096257176043
5104073 3 18261955249040587144
6138700 20 18265332987943853918
69090 78 18113622274252346847
7226269 152 18335143115911177504
7364860 26 18051695743830886471
81228 2 17698441023064437139
8809292 202 18338798910120805626
9709674 26 18192435164630847206

> <PUBCHEM_SHAPE_MULTIPOLES>
442.88
9.01
2.95
0.95
4.57
1.75
-0.12
-1.45
0.64
-0.98
-0.84
-0.23
0.29
0.61

> <PUBCHEM_SHAPE_SELFOVERLAP>
948.809

> <PUBCHEM_SHAPE_VOLUME>
247.1

> <PUBCHEM_COORDINATE_TYPE>
2
5
10

$$$$

