25244626
  -OEChem-07051213112D

 38 40  0     1  0  0  0  0  0999 V2000
    7.3321    0.9192    0.0000 O   0  0  0  0  0  0  0  0  0  0  0  0
    6.9160    2.3048    0.0000 O   0  0  0  0  0  0  0  0  0  0  0  0
    4.6660    2.3983    0.0000 O   0  0  0  0  0  0  0  0  0  0  0  0
    2.9176    2.4329    0.0000 O   0  0  0  0  0  0  0  0  0  0  0  0
    9.0564   -2.1291    0.0000 O   0  0  0  0  0  0  0  0  0  0  0  0
    7.3244   -2.1225    0.0000 O   0  0  0  0  0  0  0  0  0  0  0  0
    5.5321   -0.1017    0.0000 C   0  0  0  0  0  0  0  0  0  0  0  0
    6.4260   -0.6363    0.0000 C   0  0  0  0  0  0  0  0  0  0  0  0
    7.3321   -0.1225    0.0000 C   0  0  1  0  0  0  0  0  0  0  0  0
    6.4260    1.4330    0.0000 C   0  0  3  0  0  0  0  0  0  0  0  0
    5.5321    0.8983    0.0000 C   0  0  0  0  0  0  0  0  0  0  0  0
    4.6660   -0.6017    0.0000 C   0  0  0  0  0  0  0  0  0  0  0  0
    3.8000   -0.1017    0.0000 C   0  0  0  0  0  0  0  0  0  0  0  0
    4.6660    1.3983    0.0000 C   0  0  0  0  0  0  0  0  0  0  0  0
    8.1962   -0.6258    0.0000 C   0  0  0  0  0  0  0  0  0  0  0  0
    3.8000    0.8983    0.0000 C   0  0  0  0  0  0  0  0  0  0  0  0
    5.9160    2.2932    0.0000 C   0  0  0  0  0  0  0  0  0  0  0  0
    2.9061   -0.6363    0.0000 C   0  0  0  0  0  0  0  0  0  0  0  0
    2.9061    1.4330    0.0000 C   0  0  0  0  0  0  0  0  0  0  0  0
    8.1923   -1.6258    0.0000 C   0  0  0  0  0  0  0  0  0  0  0  0
    2.0000   -0.1225    0.0000 C   0  0  0  0  0  0  0  0  0  0  0  0
    2.0000    0.9192    0.0000 C   0  0  0  0  0  0  0  0  0  0  0  0
    6.0214   -1.1061    0.0000 H   0  0  0  0  0  0  0  0  0  0  0  0
    6.8196   -1.1153    0.0000 H   0  0  0  0  0  0  0  0  0  0  0  0
    7.8696    0.1865    0.0000 H   0  0  0  0  0  0  0  0  0  0  0  0
    4.2675   -1.0766    0.0000 H   0  0  0  0  0  0  0  0  0  0  0  0
    5.0646   -1.0766    0.0000 H   0  0  0  0  0  0  0  0  0  0  0  0
    8.8063   -0.7358    0.0000 H   0  0  0  0  0  0  0  0  0  0  0  0
    8.4105   -0.0440    0.0000 H   0  0  0  0  0  0  0  0  0  0  0  0
    6.4493    2.6094    0.0000 H   0  0  0  0  0  0  0  0  0  0  0  0
    5.5998    2.8265    0.0000 H   0  0  0  0  0  0  0  0  0  0  0  0
    5.3827    1.9770    0.0000 H   0  0  0  0  0  0  0  0  0  0  0  0
    2.9132   -1.2563    0.0000 H   0  0  0  0  0  0  0  0  0  0  0  0
    7.5359    2.3119    0.0000 H   0  0  0  0  0  0  0  0  0  0  0  0
    1.4643   -0.4345    0.0000 H   0  0  0  0  0  0  0  0  0  0  0  0
    1.4643    1.2312    0.0000 H   0  0  0  0  0  0  0  0  0  0  0  0
    2.3843    2.7491    0.0000 H   0  0  0  0  0  0  0  0  0  0  0  0
    9.0540   -2.7491    0.0000 H   0  0  0  0  0  0  0  0  0  0  0  0
  1  9  1  0  0  0  0
  1 10  1  0  0  0  0
  2 10  1  0  0  0  0
  2 34  1  0  0  0  0
  3 14  2  0  0  0  0
  4 19  1  0  0  0  0
  4 37  1  0  0  0  0
  5 20  1  0  0  0  0
  5 38  1  0  0  0  0
  6 20  2  0  0  0  0
  7  8  1  0  0  0  0
  7 11  2  0  0  0  0
  7 12  1  0  0  0  0
  8  9  1  0  0  0  0
  8 23  1  0  0  0  0
  8 24  1  0  0  0  0
  9 15  1  6  0  0  0
  9 25  1  0  0  0  0
 10 11  1  0  0  0  0
 10 17  1  0  0  0  0
 11 14  1  0  0  0  0
 12 13  1  0  0  0  0
 12 26  1  0  0  0  0
 12 27  1  0  0  0  0
 13 16  2  0  0  0  0
 13 18  1  0  0  0  0
 14 16  1  0  0  0  0
 15 20  1  0  0  0  0
 15 28  1  0  0  0  0
 15 29  1  0  0  0  0
 16 19  1  0  0  0  0
 17 30  1  0  0  0  0
 17 31  1  0  0  0  0
 17 32  1  0  0  0  0
 18 21  2  0  0  0  0
 18 33  1  0  0  0  0
 19 22  2  0  0  0  0
 21 22  1  0  0  0  0
 21 35  1  0  0  0  0
 22 36  1  0  0  0  0
M  END
> <PUBCHEM_COMPOUND_CID>
25244626

> <PUBCHEM_COMPOUND_CANONICALIZED>
1

> <PUBCHEM_CACTVS_COMPLEXITY>
539

> <PUBCHEM_CACTVS_HBOND_ACCEPTOR>
6

> <PUBCHEM_CACTVS_HBOND_DONOR>
3

> <PUBCHEM_CACTVS_ROTATABLE_BOND>
2

> <PUBCHEM_CACTVS_SUBSKEYS>
AAADceB4OAAAAAAAAAAAAAAAAAAAAAAAAAAwQIAAAAAAAACRAAAAGgAACAAADBSgmAIyDoAABgCIAqDSCAACAAAkIAAIiAEGCMgYJjaCNRKCcUAl4BEMuQeI6PyOgAABAAAYAAAAAAIAADAAAAAAAAAAAA==

> <PUBCHEM_IUPAC_OPENEYE_NAME>
2-[(3S)-1,9-dihydroxy-1-methyl-10-oxo-4,5-dihydro-3H-benzo[g]isochromen-3-yl]acetic acid

> <PUBCHEM_IUPAC_CAS_NAME>
2-[(3S)-1,9-dihydroxy-1-methyl-10-oxo-4,5-dihydro-3H-benzo[g][2]benzopyran-3-yl]acetic acid

> <PUBCHEM_IUPAC_NAME>
2-[(3S)-1,9-dihydroxy-1-methyl-10-oxo-4,5-dihydro-3H-benzo[g]isochromen-3-yl]acetic acid

> <PUBCHEM_IUPAC_SYSTEMATIC_NAME>
2-[(3S)-1-methyl-1,9-bis(oxidanyl)-10-oxidanylidene-4,5-dihydro-3H-benzo[g]isochromen-3-yl]ethanoic acid

> <PUBCHEM_IUPAC_TRADITIONAL_NAME>
2-[(3S)-1,9-dihydroxy-10-keto-1-methyl-4,5-dihydro-3H-benz[g]isochromen-3-yl]acetic acid

> <PUBCHEM_IUPAC_INCHI>
InChI=1S/C16H16O6/c1-16(21)14-9(6-10(22-16)7-12(18)19)5-8-3-2-4-11(17)13(8)15(14)20/h2-4,10,17,21H,5-7H2,1H3,(H,18,19)/t10-,16?/m0/s1

> <PUBCHEM_IUPAC_INCHIKEY>
YIEUIGLDTPWIHC-VQVVDHBBSA-N

> <PUBCHEM_XLOGP3_AA>
0.9

> <PUBCHEM_EXACT_MASS>
304.094688

> <PUBCHEM_MOLECULAR_FORMULA>
C16H16O6

> <PUBCHEM_MOLECULAR_WEIGHT>
304.29464

> <PUBCHEM_OPENEYE_CAN_SMILES>
CC1(C2=C(CC(O1)CC(=O)O)CC3=C(C2=O)C(=CC=C3)O)O

> <PUBCHEM_OPENEYE_ISO_SMILES>
CC1(C2=C(C[C@H](O1)CC(=O)O)CC3=C(C2=O)C(=CC=C3)O)O

> <PUBCHEM_CACTVS_TPSA>
104

> <PUBCHEM_MONOISOTOPIC_WEIGHT>
304.094688

> <PUBCHEM_TOTAL_CHARGE>
0

> <PUBCHEM_HEAVY_ATOM_COUNT>
22

> <PUBCHEM_ATOM_DEF_STEREO_COUNT>
1

> <PUBCHEM_ATOM_UDEF_STEREO_COUNT>
1

> <PUBCHEM_BOND_DEF_STEREO_COUNT>
0

> <PUBCHEM_BOND_UDEF_STEREO_COUNT>
0

> <PUBCHEM_ISOTOPIC_ATOM_COUNT>
0

> <PUBCHEM_COMPONENT_COUNT>
1

> <PUBCHEM_CACTVS_TAUTO_COUNT>
41

> <PUBCHEM_COORDINATE_TYPE>
1
5
255

> <PUBCHEM_BONDANNOTATIONS>
10  17  3
13  16  8
13  18  8
16  19  8
18  21  8
19  22  8
21  22  8
9  15  6

$$$$

