12652
  -OEChem-06261207123D

 29 30  0     0  0  0  0  0  0999 V2000
   -5.6718    1.0245   -0.1212 Cl  0  0  0  0  0  0  0  0  0  0  0  0
   -0.2639   -1.3631    0.2131 N   0  0  0  0  0  0  0  0  0  0  0  0
    1.1075    0.4877   -0.2258 N   0  0  0  0  0  0  0  0  0  0  0  0
    3.4901    0.2032   -0.2403 N   0  0  0  0  0  0  0  0  0  0  0  0
    2.0606   -1.6721    0.2039 N   0  0  0  0  0  0  0  0  0  0  0  0
    4.3927   -1.9189    0.1847 N   0  0  0  0  0  0  0  0  0  0  0  0
    2.5387    2.3787   -0.6716 C   0  0  0  0  0  0  0  0  0  0  0  0
    2.3679    0.9309   -0.3599 C   0  0  0  0  0  0  0  0  0  0  0  0
   -1.5521   -0.7946    0.1338 C   0  0  0  0  0  0  0  0  0  0  0  0
    1.0279   -0.8244    0.0559 C   0  0  0  0  0  0  0  0  0  0  0  0
    2.6477    3.2354    0.5876 C   0  0  0  0  0  0  0  0  0  0  0  0
   -2.6328   -1.5713   -0.2839 C   0  0  0  0  0  0  0  0  0  0  0  0
   -1.7454    0.5445    0.4730 C   0  0  0  0  0  0  0  0  0  0  0  0
    3.2594   -1.0891    0.0418 C   0  0  0  0  0  0  0  0  0  0  0  0
   -3.9068   -1.0088   -0.3624 C   0  0  0  0  0  0  0  0  0  0  0  0
   -3.0195    1.1070    0.3946 C   0  0  0  0  0  0  0  0  0  0  0  0
   -4.1001    0.3303   -0.0232 C   0  0  0  0  0  0  0  0  0  0  0  0
    3.4370    2.5188   -1.2845 H   0  0  0  0  0  0  0  0  0  0  0  0
    1.6913    2.7265   -1.2743 H   0  0  0  0  0  0  0  0  0  0  0  0
   -0.2575   -2.3759    0.2892 H   0  0  0  0  0  0  0  0  0  0  0  0
    1.7482    3.1425    1.2057 H   0  0  0  0  0  0  0  0  0  0  0  0
    2.7714    4.2892    0.3195 H   0  0  0  0  0  0  0  0  0  0  0  0
    3.5068    2.9335    1.1962 H   0  0  0  0  0  0  0  0  0  0  0  0
   -2.4951   -2.6157   -0.5519 H   0  0  0  0  0  0  0  0  0  0  0  0
   -0.9426    1.1734    0.8433 H   0  0  0  0  0  0  0  0  0  0  0  0
   -4.7396   -1.6258   -0.6899 H   0  0  0  0  0  0  0  0  0  0  0  0
   -3.1575    2.1493    0.6707 H   0  0  0  0  0  0  0  0  0  0  0  0
    4.2677   -2.8987    0.3983 H   0  0  0  0  0  0  0  0  0  0  0  0
    5.3158   -1.5230    0.0724 H   0  0  0  0  0  0  0  0  0  0  0  0
  1 17  1  0  0  0  0
  2  9  1  0  0  0  0
  2 10  1  0  0  0  0
  2 20  1  0  0  0  0
  3  8  1  0  0  0  0
  3 10  2  0  0  0  0
  4  8  2  0  0  0  0
  4 14  1  0  0  0  0
  5 10  1  0  0  0  0
  5 14  2  0  0  0  0
  6 14  1  0  0  0  0
  6 28  1  0  0  0  0
  6 29  1  0  0  0  0
  7  8  1  0  0  0  0
  7 11  1  0  0  0  0
  7 18  1  0  0  0  0
  7 19  1  0  0  0  0
  9 12  2  0  0  0  0
  9 13  1  0  0  0  0
 11 21  1  0  0  0  0
 11 22  1  0  0  0  0
 11 23  1  0  0  0  0
 12 15  1  0  0  0  0
 12 24  1  0  0  0  0
 13 16  2  0  0  0  0
 13 25  1  0  0  0  0
 15 17  2  0  0  0  0
 15 26  1  0  0  0  0
 16 17  1  0  0  0  0
 16 27  1  0  0  0  0
M  END
> <PUBCHEM_COMPOUND_CID>
12652

> <PUBCHEM_CONFORMER_RMSD>
0.6

> <PUBCHEM_CONFORMER_DIVERSEORDER>
1
13
4
18
9
17
11
16
2
7
19
8
15
12
14
3
6
10
5

> <PUBCHEM_MMFF94_PARTIAL_CHARGES>
23
1 -0.18
10 0.72
12 -0.15
13 -0.15
14 0.72
15 -0.15
16 -0.15
17 0.18
2 -0.6
20 0.4
24 0.15
25 0.15
26 0.15
27 0.15
28 0.4
29 0.4
3 -0.62
4 -0.62
5 -0.62
6 -0.9
7 0.14
8 0.48
9 0.1

> <PUBCHEM_EFFECTIVE_ROTOR_COUNT>
3

> <PUBCHEM_PHARMACOPHORE_FEATURES>
7
1 11 hydrophobe
1 2 donor
1 6 donor
4 2 3 5 10 cation
4 4 5 6 14 cation
6 3 4 5 8 10 14 rings
6 9 12 13 15 16 17 rings

> <PUBCHEM_HEAVY_ATOM_COUNT>
17

> <PUBCHEM_ATOM_DEF_STEREO_COUNT>
0

> <PUBCHEM_ATOM_UDEF_STEREO_COUNT>
0

> <PUBCHEM_BOND_DEF_STEREO_COUNT>
0

> <PUBCHEM_BOND_UDEF_STEREO_COUNT>
0

> <PUBCHEM_ISOTOPIC_ATOM_COUNT>
0

> <PUBCHEM_COMPONENT_COUNT>
1

> <PUBCHEM_CACTVS_TAUTO_COUNT>
17

> <PUBCHEM_CONFORMER_ID>
0000316C00000001

> <PUBCHEM_MMFF94_ENERGY>
49.9098

> <PUBCHEM_FEATURE_SELFOVERLAP>
35.564

> <PUBCHEM_SHAPE_FINGERPRINT>
10608611 8 18340769247673896525
11405975 8 18341894082708580915
11471102 20 18413670227386510422
12507557 5 18410577300924239147
14250199 8 18410852148856128135
15196674 1 18411136905609807125
15295992 7 18201988933155496555
15442244 35 18338514243941170064
15536298 74 18408885105289862612
17492 89 18337953381052711247
17802600 8 18342178907495992573
18186145 218 17775574126069000811
18335252 114 18195820785163113149
18681886 176 18260275148314132306
192875 21 18187365466876282249
200 152 18259708908610609671
20645477 70 18408319977830376463
20671657 1 18410290272813433348
21033648 29 17418105329726631237
21267235 1 18338507629807949043
212847 35 18273209824340287676
21478907 32 17836648900621691826
21618674 54 18265899055747684647
221490 88 18341041913678289354
2255824 54 18343581828830925114
23402539 116 18041571333730527671
23402655 69 18409728456493865135
23557571 272 16226321633321343601
23558518 356 17843119195279528914
23559900 14 18334018289308217826
335352 9 18339642351355799143
345986 75 17270907239974729634
351380 180 18411702105925715925
4214541 1 18411418419246764567
474 4 17916302740647453021
5104073 3 18341047437406756563
633830 44 17989491796975636027
7364860 26 18336546032523556168
77779 3 18411980235276072175
84936 182 18190178988562473016
9709674 26 18409441466869609599
9971528 1 18335424608051893706
9981440 41 17834682595668138368

> <PUBCHEM_SHAPE_MULTIPOLES>
326.82
9.84
2.62
0.7
6.93
1.55
0.01
1.22
0.47
-2.98
-0.18
-0.02
0.15
-0.34

> <PUBCHEM_SHAPE_SELFOVERLAP>
681.92

> <PUBCHEM_SHAPE_VOLUME>
184.8

> <PUBCHEM_COORDINATE_TYPE>
2
5
10

$$$$

