21637539
  -OEChem-07051213152D

 71 74  0     1  0  0  0  0  0999 V2000
    6.3981   -1.9831    0.0000 O   0  0  0  0  0  0  0  0  0  0  0  0
    3.7895   -2.5276    0.0000 O   0  0  0  0  0  0  0  0  0  0  0  0
    2.0000   -0.5105    0.0000 O   0  0  0  0  0  0  0  0  0  0  0  0
    8.1301   -1.9831    0.0000 O   0  0  0  0  0  0  0  0  0  0  0  0
    6.3981    1.0169    0.0000 C   0  0  2  0  0  0  0  0  0  0  0  0
    7.2641    0.5169    0.0000 C   0  0  1  0  0  0  0  0  0  0  0  0
    8.1741    1.0238    0.0000 C   0  0  2  0  0  0  0  0  0  0  0  0
    8.1821    2.0654    0.0000 C   0  0  1  0  0  0  0  0  0  0  0  0
    5.5320    0.5169    0.0000 C   0  0  1  0  0  0  0  0  0  0  0  0
    5.5320   -0.4831    0.0000 C   0  0  2  0  0  0  0  0  0  0  0  0
    6.3820    2.0584    0.0000 C   0  0  0  0  0  0  0  0  0  0  0  0
    7.2641   -0.4831    0.0000 C   0  0  0  0  0  0  0  0  0  0  0  0
    7.2800    2.5862    0.0000 C   0  0  0  0  0  0  0  0  0  0  0  0
    9.1176    2.6151    0.0000 C   0  0  0  0  0  0  0  0  0  0  0  0
    6.3981   -0.9831    0.0000 C   0  0  1  0  0  0  0  0  0  0  0  0
    9.1009    0.4597    0.0000 C   0  0  0  0  0  0  0  0  0  0  0  0
    5.5320    1.5169    0.0000 C   0  0  0  0  0  0  0  0  0  0  0  0
    4.6381    1.0516    0.0000 C   0  0  0  0  0  0  0  0  0  0  0  0
    8.1664    0.0238    0.0000 C   0  0  0  0  0  0  0  0  0  0  0  0
    4.6381   -1.0177    0.0000 C   0  0  2  0  0  0  0  0  0  0  0  0
   10.0572    2.0726    0.0000 C   0  0  0  0  0  0  0  0  0  0  0  0
   10.0488    0.9877    0.0000 C   0  0  0  0  0  0  0  0  0  0  0  0
    5.5320   -1.4831    0.0000 C   0  0  0  0  0  0  0  0  0  0  0  0
    9.6142    3.4831    0.0000 C   0  0  0  0  0  0  0  0  0  0  0  0
    8.6142    3.4792    0.0000 C   0  0  0  0  0  0  0  0  0  0  0  0
    3.7320   -0.5039    0.0000 C   0  0  0  0  0  0  0  0  0  0  0  0
    3.7320    0.5378    0.0000 C   0  0  0  0  0  0  0  0  0  0  0  0
    4.6497   -2.0176    0.0000 C   0  0  0  0  0  0  0  0  0  0  0  0
    2.8680   -1.0072    0.0000 C   0  0  0  0  0  0  0  0  0  0  0  0
    7.2641   -2.4831    0.0000 C   0  0  0  0  0  0  0  0  0  0  0  0
    7.2641   -3.4831    0.0000 C   0  0  0  0  0  0  0  0  0  0  0  0
    7.9969    0.0863    0.0000 H   0  0  0  0  0  0  0  0  0  0  0  0
    8.1788    2.9154    0.0000 H   0  0  0  0  0  0  0  0  0  0  0  0
    5.5386    1.3669    0.0000 H   0  0  0  0  0  0  0  0  0  0  0  0
    6.1640    2.6388    0.0000 H   0  0  0  0  0  0  0  0  0  0  0  0
    5.7729    1.9430    0.0000 H   0  0  0  0  0  0  0  0  0  0  0  0
    7.4762   -1.0657    0.0000 H   0  0  0  0  0  0  0  0  0  0  0  0
    7.8747   -0.3754    0.0000 H   0  0  0  0  0  0  0  0  0  0  0  0
    7.6774    3.0622    0.0000 H   0  0  0  0  0  0  0  0  0  0  0  0
    6.8791    3.0591    0.0000 H   0  0  0  0  0  0  0  0  0  0  0  0
    6.9350   -1.2931    0.0000 H   0  0  0  0  0  0  0  0  0  0  0  0
    8.6927   -0.0069    0.0000 H   0  0  0  0  0  0  0  0  0  0  0  0
    9.4909   -0.0223    0.0000 H   0  0  0  0  0  0  0  0  0  0  0  0
    5.8421    2.0539    0.0000 H   0  0  0  0  0  0  0  0  0  0  0  0
    4.9951    1.8269    0.0000 H   0  0  0  0  0  0  0  0  0  0  0  0
    5.2220    0.9800    0.0000 H   0  0  0  0  0  0  0  0  0  0  0  0
    5.0427    1.5214    0.0000 H   0  0  0  0  0  0  0  0  0  0  0  0
    4.2445    1.5306    0.0000 H   0  0  0  0  0  0  0  0  0  0  0  0
    7.5464    0.0286    0.0000 H   0  0  0  0  0  0  0  0  0  0  0  0
    8.1616   -0.5962    0.0000 H   0  0  0  0  0  0  0  0  0  0  0  0
    8.7864    0.0190    0.0000 H   0  0  0  0  0  0  0  0  0  0  0  0
    5.1792   -1.3204    0.0000 H   0  0  0  0  0  0  0  0  0  0  0  0
   10.6672    1.9618    0.0000 H   0  0  0  0  0  0  0  0  0  0  0  0
   10.2707    2.6547    0.0000 H   0  0  0  0  0  0  0  0  0  0  0  0
   10.2534    0.4024    0.0000 H   0  0  0  0  0  0  0  0  0  0  0  0
   10.6605    1.0890    0.0000 H   0  0  0  0  0  0  0  0  0  0  0  0
    4.9120   -1.4831    0.0000 H   0  0  0  0  0  0  0  0  0  0  0  0
    5.5320   -2.1031    0.0000 H   0  0  0  0  0  0  0  0  0  0  0  0
    6.1520   -1.4831    0.0000 H   0  0  0  0  0  0  0  0  0  0  0  0
    9.1500    3.7913    0.0000 H   0  0  0  0  0  0  0  0  0  0  0  0
    8.3021    4.0149    0.0000 H   0  0  0  0  0  0  0  0  0  0  0  0
    8.0785    3.1671    0.0000 H   0  0  0  0  0  0  0  0  0  0  0  0
   10.1523    3.1751    0.0000 H   0  0  0  0  0  0  0  0  0  0  0  0
    9.9221    4.0212    0.0000 H   0  0  0  0  0  0  0  0  0  0  0  0
    9.0761    3.7910    0.0000 H   0  0  0  0  0  0  0  0  0  0  0  0
    3.1963    0.8498    0.0000 H   0  0  0  0  0  0  0  0  0  0  0  0
    5.1902   -2.3214    0.0000 H   0  0  0  0  0  0  0  0  0  0  0  0
    2.8703   -1.6272    0.0000 H   0  0  0  0  0  0  0  0  0  0  0  0
    6.6441   -3.4831    0.0000 H   0  0  0  0  0  0  0  0  0  0  0  0
    7.2641   -4.1031    0.0000 H   0  0  0  0  0  0  0  0  0  0  0  0
    7.8841   -3.4831    0.0000 H   0  0  0  0  0  0  0  0  0  0  0  0
 15  1  1  1  0  0  0
  1 30  1  0  0  0  0
  2 28  2  0  0  0  0
  3 29  2  0  0  0  0
  4 30  2  0  0  0  0
  5  6  1  0  0  0  0
  5  9  1  0  0  0  0
  5 11  1  0  0  0  0
  5 17  1  1  0  0  0
  6  7  1  0  0  0  0
  6 12  1  0  0  0  0
  6 32  1  6  0  0  0
  7  8  1  0  0  0  0
  7 16  1  0  0  0  0
  7 19  1  1  0  0  0
  8 13  1  0  0  0  0
  8 14  1  0  0  0  0
  8 33  1  6  0  0  0
  9 10  1  0  0  0  0
  9 18  1  0  0  0  0
  9 34  1  6  0  0  0
 10 15  1  0  0  0  0
 10 20  1  0  0  0  0
 10 23  1  1  0  0  0
 11 13  1  0  0  0  0
 11 35  1  0  0  0  0
 11 36  1  0  0  0  0
 12 15  1  0  0  0  0
 12 37  1  0  0  0  0
 12 38  1  0  0  0  0
 13 39  1  0  0  0  0
 13 40  1  0  0  0  0
 14 21  1  0  0  0  0
 14 24  1  0  0  0  0
 14 25  1  0  0  0  0
 15 41  1  0  0  0  0
 16 22  1  0  0  0  0
 16 42  1  0  0  0  0
 16 43  1  0  0  0  0
 17 44  1  0  0  0  0
 17 45  1  0  0  0  0
 17 46  1  0  0  0  0
 18 27  1  0  0  0  0
 18 47  1  0  0  0  0
 18 48  1  0  0  0  0
 19 49  1  0  0  0  0
 19 50  1  0  0  0  0
 19 51  1  0  0  0  0
 20 26  1  0  0  0  0
 20 28  1  1  0  0  0
 20 52  1  0  0  0  0
 21 22  1  0  0  0  0
 21 53  1  0  0  0  0
 21 54  1  0  0  0  0
 22 55  1  0  0  0  0
 22 56  1  0  0  0  0
 23 57  1  0  0  0  0
 23 58  1  0  0  0  0
 23 59  1  0  0  0  0
 24 63  1  0  0  0  0
 24 64  1  0  0  0  0
 24 65  1  0  0  0  0
 25 60  1  0  0  0  0
 25 61  1  0  0  0  0
 25 62  1  0  0  0  0
 26 27  2  0  0  0  0
 26 29  1  0  0  0  0
 27 66  1  0  0  0  0
 28 67  1  0  0  0  0
 29 68  1  0  0  0  0
 30 31  1  0  0  0  0
 31 69  1  0  0  0  0
 31 70  1  0  0  0  0
 31 71  1  0  0  0  0
M  END
> <PUBCHEM_COMPOUND_CID>
21637539

> <PUBCHEM_COMPOUND_CANONICALIZED>
1

> <PUBCHEM_CACTVS_COMPLEXITY>
812

> <PUBCHEM_CACTVS_HBOND_ACCEPTOR>
4

> <PUBCHEM_CACTVS_HBOND_DONOR>
0

> <PUBCHEM_CACTVS_ROTATABLE_BOND>
4

> <PUBCHEM_CACTVS_SUBSKEYS>
AAADcfB4OAAAAAAAAAAAAAAAAAAAAAAAAAAwYMEAAAAAAADAAAAAGgAAAAAADxSggAICCAAABACIAijSiAAAAAAgAAAACAEAAEgAABIAAQACAAAEgAAIAYOLzPDPgAAAAAAAAADAAAYAADAAAAAAAAAAAA==

> <PUBCHEM_IUPAC_OPENEYE_NAME>
[(4aS,4bR,6R,6aS,7R,10aS,10bR,12aS)-7,8-diformyl-1,1,4a,6a,10b-pentamethyl-2,3,4,4b,5,6,7,10,10a,11,12,12a-dodecahydrochrysen-6-yl] acetate

> <PUBCHEM_IUPAC_CAS_NAME>
acetic acid [(4aS,4bR,6R,6aS,7R,10aS,10bR,12aS)-7,8-diformyl-1,1,4a,6a,10b-pentamethyl-2,3,4,4b,5,6,7,10,10a,11,12,12a-dodecahydrochrysen-6-yl] ester

> <PUBCHEM_IUPAC_NAME>
[(4aS,4bR,6R,6aS,7R,10aS,10bR,12aS)-7,8-diformyl-1,1,4a,6a,10b-pentamethyl-2,3,4,4b,5,6,7,10,10a,11,12,12a-dodecahydrochrysen-6-yl] acetate

> <PUBCHEM_IUPAC_SYSTEMATIC_NAME>
[(4aS,4bR,6R,6aS,7R,10aS,10bR,12aS)-7,8-dimethanoyl-1,1,4a,6a,10b-pentamethyl-2,3,4,4b,5,6,7,10,10a,11,12,12a-dodecahydrochrysen-6-yl] ethanoate

> <PUBCHEM_IUPAC_TRADITIONAL_NAME>
acetic acid [(4aS,4bR,6R,6aS,7R,10aS,10bR,12aS)-7,8-diformyl-1,1,4a,6a,10b-pentamethyl-2,3,4,4b,5,6,7,10,10a,11,12,12a-dodecahydrochrysen-6-yl] ester

> <PUBCHEM_IUPAC_INCHI>
InChI=1S/C27H40O4/c1-17(30)31-23-14-22-25(4)12-7-11-24(2,3)20(25)10-13-26(22,5)21-9-8-18(15-28)19(16-29)27(21,23)6/h8,15-16,19-23H,7,9-14H2,1-6H3/t19-,20-,21-,22+,23+,25-,26-,27+/m0/s1

> <PUBCHEM_IUPAC_INCHIKEY>
ADWFEADZGIHPDE-VYGQJASISA-N

> <PUBCHEM_XLOGP3_AA>
6

> <PUBCHEM_EXACT_MASS>
428.29266

> <PUBCHEM_MOLECULAR_FORMULA>
C27H40O4

> <PUBCHEM_MOLECULAR_WEIGHT>
428.6041

> <PUBCHEM_OPENEYE_CAN_SMILES>
CC(=O)OC1CC2C3(CCCC(C3CCC2(C4C1(C(C(=CC4)C=O)C=O)C)C)(C)C)C

> <PUBCHEM_OPENEYE_ISO_SMILES>
CC(=O)O[C@@H]1C[C@@H]2[C@]3(CCCC([C@@H]3CC[C@]2([C@H]4[C@]1([C@H](C(=CC4)C=O)C=O)C)C)(C)C)C

> <PUBCHEM_CACTVS_TPSA>
60.4

> <PUBCHEM_MONOISOTOPIC_WEIGHT>
428.29266

> <PUBCHEM_TOTAL_CHARGE>
0

> <PUBCHEM_HEAVY_ATOM_COUNT>
31

> <PUBCHEM_ATOM_DEF_STEREO_COUNT>
8

> <PUBCHEM_ATOM_UDEF_STEREO_COUNT>
0

> <PUBCHEM_BOND_DEF_STEREO_COUNT>
0

> <PUBCHEM_BOND_UDEF_STEREO_COUNT>
0

> <PUBCHEM_ISOTOPIC_ATOM_COUNT>
0

> <PUBCHEM_COMPONENT_COUNT>
1

> <PUBCHEM_CACTVS_TAUTO_COUNT>
3

> <PUBCHEM_COORDINATE_TYPE>
1
5
255

> <PUBCHEM_BONDANNOTATIONS>
15  1  5
10  23  5
20  28  5
5  17  5
6  32  6
7  19  5
8  33  6
9  34  6

$$$$

