11258
  -OEChem-06261205273D

 24 25  0     0  0  0  0  0  0999 V2000
   -2.0629   -0.4439    1.4694 S   0  0  0  0  0  0  0  0  0  0  0  0
   -2.0976    0.6311   -1.3355 S   0  0  0  0  0  0  0  0  0  0  0  0
    4.2695    0.5446    0.1520 F   0  0  0  0  0  0  0  0  0  0  0  0
   -1.2664   -0.5691   -0.1999 C   0  0  0  0  0  0  0  0  0  0  0  0
    0.2301   -0.2683   -0.1041 C   0  0  0  0  0  0  0  0  0  0  0  0
   -3.1800    0.9352    1.0978 C   0  0  0  0  0  0  0  0  0  0  0  0
   -3.6020    0.8354   -0.3527 C   0  0  0  0  0  0  0  0  0  0  0  0
   -1.6252   -1.9711   -0.7268 C   0  0  0  0  0  0  0  0  0  0  0  0
    1.1344   -1.3013    0.1394 C   0  0  0  0  0  0  0  0  0  0  0  0
    0.6888    1.0392   -0.2609 C   0  0  0  0  0  0  0  0  0  0  0  0
    2.4991   -1.0266    0.2262 C   0  0  0  0  0  0  0  0  0  0  0  0
    2.0536    1.3139   -0.1742 C   0  0  0  0  0  0  0  0  0  0  0  0
    2.9588    0.2810    0.0693 C   0  0  0  0  0  0  0  0  0  0  0  0
   -2.6587    1.8780    1.2979 H   0  0  0  0  0  0  0  0  0  0  0  0
   -4.0493    0.8913    1.7607 H   0  0  0  0  0  0  0  0  0  0  0  0
   -4.2682   -0.0175   -0.5220 H   0  0  0  0  0  0  0  0  0  0  0  0
   -4.1307    1.7395   -0.6688 H   0  0  0  0  0  0  0  0  0  0  0  0
   -1.2934   -2.7704   -0.0530 H   0  0  0  0  0  0  0  0  0  0  0  0
   -2.7061   -2.1087   -0.8603 H   0  0  0  0  0  0  0  0  0  0  0  0
   -1.1494   -2.1609   -1.6976 H   0  0  0  0  0  0  0  0  0  0  0  0
    0.8135   -2.3281    0.2796 H   0  0  0  0  0  0  0  0  0  0  0  0
    0.0305    1.8893   -0.4055 H   0  0  0  0  0  0  0  0  0  0  0  0
    3.2043   -1.8298    0.4185 H   0  0  0  0  0  0  0  0  0  0  0  0
    2.4117    2.3330   -0.2863 H   0  0  0  0  0  0  0  0  0  0  0  0
  1  4  1  0  0  0  0
  1  6  1  0  0  0  0
  2  4  1  0  0  0  0
  2  7  1  0  0  0  0
  3 13  1  0  0  0  0
  4  5  1  0  0  0  0
  4  8  1  0  0  0  0
  5  9  2  0  0  0  0
  5 10  1  0  0  0  0
  6  7  1  0  0  0  0
  6 14  1  0  0  0  0
  6 15  1  0  0  0  0
  7 16  1  0  0  0  0
  7 17  1  0  0  0  0
  8 18  1  0  0  0  0
  8 19  1  0  0  0  0
  8 20  1  0  0  0  0
  9 11  1  0  0  0  0
  9 21  1  0  0  0  0
 10 12  2  0  0  0  0
 10 22  1  0  0  0  0
 11 13  2  0  0  0  0
 11 23  1  0  0  0  0
 12 13  1  0  0  0  0
 12 24  1  0  0  0  0
M  END
> <PUBCHEM_COMPOUND_CID>
11258

> <PUBCHEM_CONFORMER_RMSD>
0.6

> <PUBCHEM_CONFORMER_DIVERSEORDER>
2
1

> <PUBCHEM_MMFF94_PARTIAL_CHARGES>
16
1 -0.46
10 -0.15
11 -0.15
12 -0.15
13 0.19
2 -0.46
21 0.15
22 0.15
23 0.15
24 0.15
3 -0.19
4 0.6
5 -0.14
6 0.23
7 0.23
9 -0.15

> <PUBCHEM_EFFECTIVE_ROTOR_COUNT>
2

> <PUBCHEM_PHARMACOPHORE_FEATURES>
2
5 1 2 4 6 7 rings
6 5 9 10 11 12 13 rings

> <PUBCHEM_HEAVY_ATOM_COUNT>
13

> <PUBCHEM_ATOM_DEF_STEREO_COUNT>
0

> <PUBCHEM_ATOM_UDEF_STEREO_COUNT>
0

> <PUBCHEM_BOND_DEF_STEREO_COUNT>
0

> <PUBCHEM_BOND_UDEF_STEREO_COUNT>
0

> <PUBCHEM_ISOTOPIC_ATOM_COUNT>
0

> <PUBCHEM_COMPONENT_COUNT>
1

> <PUBCHEM_CACTVS_TAUTO_COUNT>
1

> <PUBCHEM_CONFORMER_ID>
00002BFA00000002

> <PUBCHEM_MMFF94_ENERGY>
34.189

> <PUBCHEM_FEATURE_SELFOVERLAP>
10.149

> <PUBCHEM_SHAPE_FINGERPRINT>
10980938 120 18341330084455980970
11132069 177 18410582768945224920
11471102 20 18341336681541500540
12119455 92 18342744061242215069
12251169 10 18201427065576024953
124424 183 17775013413550713800
12491281 212 18333729130492440393
12696612 119 17988351577257471124
12932764 1 18202005421434822454
13024252 1 16056887914258180495
13214271 11 17846214432127399117
13380535 21 18412256238037277446
13581323 91 15195566809905279816
14144814 61 18335139812453325665
14897335 6 18335144193309560999
14993402 34 18186523232511086517
15219456 202 17988643042312125322
15309172 13 18410007771392292919
15653759 3 17131829880394851225
15775835 57 18409730659933446141
16945 1 18339368560006833588
17844478 74 17632571690878507173
18186145 218 18188488098497323541
18534176 82 14273461374886770149
19049666 15 17415848152217966107
200 152 18334584495274195367
20201158 50 18131069363463925241
20279233 1 17632576071707959347
20645464 45 17704352182348021161
20645477 70 18269285727381029327
21501502 16 18270683043471806526
23402539 116 17167868569182498845
23402655 69 18337687407176675757
23557571 272 14346666854911677123
2748010 2 18342741801757179542
305870 269 17970901391896353955
3248919 1 17530683203922905846
5084963 1 18193563263671812614
528886 8 18409455782021246826
69090 78 18341337742862704663
74978 22 18187647964054949204
77492 1 17604155929586829127
8030462 33 16660363701004115814

> <PUBCHEM_SHAPE_MULTIPOLES>
267.96
6
1.57
1.14
2.24
0.41
-0.13
-1.73
-0.73
-0.09
0.22
-1.1
0.02
-0.09

> <PUBCHEM_SHAPE_SELFOVERLAP>
534.34

> <PUBCHEM_SHAPE_VOLUME>
161.9

> <PUBCHEM_COORDINATE_TYPE>
2
5
10

$$$$

