10250
  -OEChem-07051212482D

 16 17  0     0  0  0  0  0  0999 V2000
    3.7320    1.8100    0.0000 O   0  0  0  0  0  0  0  0  0  0  0  0
    2.0000   -1.1900    0.0000 O   0  0  0  0  0  0  0  0  0  0  0  0
    3.7320   -1.1900    0.0000 N   0  0  0  0  0  0  0  0  0  0  0  0
    2.8660    0.3100    0.0000 N   0  0  0  0  0  0  0  0  0  0  0  0
    5.4920    0.8447    0.0000 N   0  0  0  0  0  0  0  0  0  0  0  0
    5.4920   -1.2247    0.0000 N   0  0  0  0  0  0  0  0  0  0  0  0
    4.5981    0.3100    0.0000 C   0  0  0  0  0  0  0  0  0  0  0  0
    4.5981   -0.6900    0.0000 C   0  0  0  0  0  0  0  0  0  0  0  0
    3.7320    0.8100    0.0000 C   0  0  0  0  0  0  0  0  0  0  0  0
    2.8660   -0.6900    0.0000 C   0  0  0  0  0  0  0  0  0  0  0  0
    6.3981    0.3308    0.0000 C   0  0  0  0  0  0  0  0  0  0  0  0
    6.3981   -0.7108    0.0000 C   0  0  0  0  0  0  0  0  0  0  0  0
    3.7320   -1.8100    0.0000 H   0  0  0  0  0  0  0  0  0  0  0  0
    2.3291    0.6200    0.0000 H   0  0  0  0  0  0  0  0  0  0  0  0
    6.9338    0.6429    0.0000 H   0  0  0  0  0  0  0  0  0  0  0  0
    6.9338   -1.0229    0.0000 H   0  0  0  0  0  0  0  0  0  0  0  0
  1  9  2  0  0  0  0
  2 10  2  0  0  0  0
  3  8  1  0  0  0  0
  3 10  1  0  0  0  0
  3 13  1  0  0  0  0
  4  9  1  0  0  0  0
  4 10  1  0  0  0  0
  4 14  1  0  0  0  0
  5  7  2  0  0  0  0
  5 11  1  0  0  0  0
  6  8  2  0  0  0  0
  6 12  1  0  0  0  0
  7  8  1  0  0  0  0
  7  9  1  0  0  0  0
 11 12  2  0  0  0  0
 11 15  1  0  0  0  0
 12 16  1  0  0  0  0
M  END
> <PUBCHEM_COMPOUND_CID>
10250

> <PUBCHEM_COMPOUND_CANONICALIZED>
1

> <PUBCHEM_CACTVS_COMPLEXITY>
230

> <PUBCHEM_CACTVS_HBOND_ACCEPTOR>
4

> <PUBCHEM_CACTVS_HBOND_DONOR>
2

> <PUBCHEM_CACTVS_ROTATABLE_BOND>
0

> <PUBCHEM_CACTVS_SUBSKEYS>
AAADcYBjsAAAAAAAAAAAAAAAAAAAAAAAAAAsWAAAAAAAAACxgAAAHgAQAAAACAjBlgQtsBLIEACoARd3dACAgC0XEiAJUAG4dECAQEhAQCAUAIgIBSLAAGAAAAAAAAAAAAAAAAAAAAAAAAAAAAAAAAAAAA==

> <PUBCHEM_IUPAC_OPENEYE_NAME>
1H-pteridine-2,4-dione

> <PUBCHEM_IUPAC_CAS_NAME>
1H-pteridine-2,4-dione

> <PUBCHEM_IUPAC_NAME>
1H-pteridine-2,4-dione

> <PUBCHEM_IUPAC_SYSTEMATIC_NAME>
1H-pteridine-2,4-dione

> <PUBCHEM_IUPAC_TRADITIONAL_NAME>
1H-pteridine-2,4-quinone

> <PUBCHEM_IUPAC_INCHI>
InChI=1S/C6H4N4O2/c11-5-3-4(8-2-1-7-3)9-6(12)10-5/h1-2H,(H2,8,9,10,11,12)

> <PUBCHEM_IUPAC_INCHIKEY>
UYEUUXMDVNYCAM-UHFFFAOYSA-N

> <PUBCHEM_XLOGP3_AA>
-1

> <PUBCHEM_EXACT_MASS>
164.033425

> <PUBCHEM_MOLECULAR_FORMULA>
C6H4N4O2

> <PUBCHEM_MOLECULAR_WEIGHT>
164.12156

> <PUBCHEM_OPENEYE_CAN_SMILES>
C1=CN=C2C(=N1)C(=O)NC(=O)N2

> <PUBCHEM_OPENEYE_ISO_SMILES>
C1=CN=C2C(=N1)C(=O)NC(=O)N2

> <PUBCHEM_CACTVS_TPSA>
84

> <PUBCHEM_MONOISOTOPIC_WEIGHT>
164.033425

> <PUBCHEM_TOTAL_CHARGE>
0

> <PUBCHEM_HEAVY_ATOM_COUNT>
12

> <PUBCHEM_ATOM_DEF_STEREO_COUNT>
0

> <PUBCHEM_ATOM_UDEF_STEREO_COUNT>
0

> <PUBCHEM_BOND_DEF_STEREO_COUNT>
0

> <PUBCHEM_BOND_UDEF_STEREO_COUNT>
0

> <PUBCHEM_ISOTOPIC_ATOM_COUNT>
0

> <PUBCHEM_COMPONENT_COUNT>
1

> <PUBCHEM_CACTVS_TAUTO_COUNT>
12

> <PUBCHEM_COORDINATE_TYPE>
1
5
255

> <PUBCHEM_BONDANNOTATIONS>
11  12  8
3  10  8
3  8  8
4  10  8
4  9  8
5  11  8
5  7  8
6  12  8
6  8  8
7  8  8
7  9  8

$$$$

