12932
  -OEChem-07051213123D

 47 47  0     0  0  0  0  0  0999 V2000
   -2.7968    0.9557   -1.1600 S   0  0  0  0  0  0  0  0  0  0  0  0
    1.4883    0.0056   -0.9581 S   0  0  0  0  0  0  0  0  0  0  0  0
    4.9098    0.2061   -1.7517 S   0  0  0  0  0  0  0  0  0  0  0  0
    3.5327    0.0030   -0.3689 P   0  0  0  0  0  0  0  0  0  0  0  0
    3.7663   -1.3382    0.5369 O   0  0  0  0  0  0  0  0  0  0  0  0
    3.6845    1.1108    0.8244 O   0  0  0  0  0  0  0  0  0  0  0  0
   -2.5698    0.1620   -2.3527 O   0  0  0  0  0  0  0  0  0  0  0  0
   -3.1840    2.3488   -1.2734 O   0  0  0  0  0  0  0  0  0  0  0  0
   -1.4418    0.8429   -0.1406 N   0  0  0  0  0  0  0  0  0  0  0  0
   -0.9388   -0.4859    0.2743 C   0  0  0  0  0  0  0  0  0  0  0  0
    0.5617   -0.4411    0.5242 C   0  0  0  0  0  0  0  0  0  0  0  0
    4.1494   -2.5589   -0.0747 C   0  0  0  0  0  0  0  0  0  0  0  0
    3.9818    2.4621    0.5145 C   0  0  0  0  0  0  0  0  0  0  0  0
   -4.0432    0.1510   -0.1988 C   0  0  0  0  0  0  0  0  0  0  0  0
    2.9332   -3.1930   -0.7324 C   0  0  0  0  0  0  0  0  0  0  0  0
    4.7674   -3.4717    0.9733 C   0  0  0  0  0  0  0  0  0  0  0  0
    4.6074    3.1289    1.7302 C   0  0  0  0  0  0  0  0  0  0  0  0
    2.7076    3.1667    0.0745 C   0  0  0  0  0  0  0  0  0  0  0  0
   -4.8276    0.8908    0.6863 C   0  0  0  0  0  0  0  0  0  0  0  0
   -4.2424   -1.2239   -0.3252 C   0  0  0  0  0  0  0  0  0  0  0  0
   -5.8106    0.2558    1.4452 C   0  0  0  0  0  0  0  0  0  0  0  0
   -5.2256   -1.8587    0.4336 C   0  0  0  0  0  0  0  0  0  0  0  0
   -6.0097   -1.1189    1.3189 C   0  0  0  0  0  0  0  0  0  0  0  0
   -1.1650   -1.2415   -0.4855 H   0  0  0  0  0  0  0  0  0  0  0  0
   -1.4474   -0.7722    1.2012 H   0  0  0  0  0  0  0  0  0  0  0  0
    0.7927    0.2934    1.3030 H   0  0  0  0  0  0  0  0  0  0  0  0
    0.9034   -1.4171    0.8792 H   0  0  0  0  0  0  0  0  0  0  0  0
    4.9192   -2.3938   -0.8317 H   0  0  0  0  0  0  0  0  0  0  0  0
    4.7192    2.5307   -0.2881 H   0  0  0  0  0  0  0  0  0  0  0  0
   -1.2553    1.6135    0.5133 H   0  0  0  0  0  0  0  0  0  0  0  0
    2.0963   -3.2706   -0.0313 H   0  0  0  0  0  0  0  0  0  0  0  0
    3.1676   -4.1974   -1.1001 H   0  0  0  0  0  0  0  0  0  0  0  0
    2.5953   -2.6066   -1.5903 H   0  0  0  0  0  0  0  0  0  0  0  0
    4.0548   -3.6784    1.7794 H   0  0  0  0  0  0  0  0  0  0  0  0
    5.0890   -4.4223    0.5373 H   0  0  0  0  0  0  0  0  0  0  0  0
    5.6344   -2.9881    1.4364 H   0  0  0  0  0  0  0  0  0  0  0  0
    3.9256    3.0955    2.5872 H   0  0  0  0  0  0  0  0  0  0  0  0
    4.8642    4.1730    1.5270 H   0  0  0  0  0  0  0  0  0  0  0  0
    5.5167    2.5970    2.0307 H   0  0  0  0  0  0  0  0  0  0  0  0
    1.8921    2.9901    0.7841 H   0  0  0  0  0  0  0  0  0  0  0  0
    2.8646    4.2464   -0.0166 H   0  0  0  0  0  0  0  0  0  0  0  0
    2.3759    2.8036   -0.9017 H   0  0  0  0  0  0  0  0  0  0  0  0
   -4.6850    1.9609    0.8063 H   0  0  0  0  0  0  0  0  0  0  0  0
   -3.6419   -1.8199   -1.0064 H   0  0  0  0  0  0  0  0  0  0  0  0
   -6.4200    0.8313    2.1358 H   0  0  0  0  0  0  0  0  0  0  0  0
   -5.3802   -2.9293    0.3361 H   0  0  0  0  0  0  0  0  0  0  0  0
   -6.7747   -1.6134    1.9102 H   0  0  0  0  0  0  0  0  0  0  0  0
  1  7  2  0  0  0  0
  1  8  2  0  0  0  0
  1  9  1  0  0  0  0
  1 14  1  0  0  0  0
  2  4  1  0  0  0  0
  2 11  1  0  0  0  0
  3  4  2  0  0  0  0
  4  5  1  0  0  0  0
  4  6  1  0  0  0  0
  5 12  1  0  0  0  0
  6 13  1  0  0  0  0
  9 10  1  0  0  0  0
  9 30  1  0  0  0  0
 10 11  1  0  0  0  0
 10 24  1  0  0  0  0
 10 25  1  0  0  0  0
 11 26  1  0  0  0  0
 11 27  1  0  0  0  0
 12 15  1  0  0  0  0
 12 16  1  0  0  0  0
 12 28  1  0  0  0  0
 13 17  1  0  0  0  0
 13 18  1  0  0  0  0
 13 29  1  0  0  0  0
 14 19  2  0  0  0  0
 14 20  1  0  0  0  0
 15 31  1  0  0  0  0
 15 32  1  0  0  0  0
 15 33  1  0  0  0  0
 16 34  1  0  0  0  0
 16 35  1  0  0  0  0
 16 36  1  0  0  0  0
 17 37  1  0  0  0  0
 17 38  1  0  0  0  0
 17 39  1  0  0  0  0
 18 40  1  0  0  0  0
 18 41  1  0  0  0  0
 18 42  1  0  0  0  0
 19 21  1  0  0  0  0
 19 43  1  0  0  0  0
 20 22  2  0  0  0  0
 20 44  1  0  0  0  0
 21 23  2  0  0  0  0
 21 45  1  0  0  0  0
 22 23  1  0  0  0  0
 22 46  1  0  0  0  0
 23 47  1  0  0  0  0
M  END
> <PUBCHEM_COMPOUND_CID>
12932

> <PUBCHEM_CONFORMER_RMSD>
1

> <PUBCHEM_CONFORMER_DIVERSEORDER>
1
90
179
98
135
164
3
73
72
87
10
155
34
126
38
108
163
71
124
121
28
183
30
37
16
170
112
123
24
139
12
75
76
85
149
177
83
150
48
80
97
63
57
176
65
156
64
142
79
82
94
7
151
103
145
92
15
130
33
102
52
67
144
140
8
60
152
161
169
32
134
2
131
100
175
136
35
138
95
62
133
181
105
147
50
54
74
116
167
5
21
53
111
22
114
153
96
86
11
41
66
59
120
43
29
125
146
159
182
49
19
171
117
40
58
172
6
173
31
118
99
14
44
9
129
119
84
78
113
107
162
101
180
26
137
17
104
42
141
46
25
143
168
18
56
69
166
81
4
89
165
127
23
47
27
88
160
20
51
106
39
61
91
178
36
174
128
110
132
184
77
154
70
68
13
45
122
157
158
55
148
93
115
109

> <PUBCHEM_MMFF94_PARTIAL_CHARGES>
25
1 1.45
10 0.36
11 0.23
12 0.28
13 0.28
14 -0.01
19 -0.15
2 -0.48
20 -0.15
21 -0.15
22 -0.15
23 -0.15
3 -0.68
30 0.42
4 1.47
43 0.15
44 0.15
45 0.15
46 0.15
47 0.15
5 -0.55
6 -0.55
7 -0.65
8 -0.65
9 -0.91

> <PUBCHEM_EFFECTIVE_ROTOR_COUNT>
10

> <PUBCHEM_PHARMACOPHORE_FEATURES>
6
1 7 acceptor
1 8 acceptor
1 9 donor
3 12 15 16 hydrophobe
3 13 17 18 hydrophobe
6 14 19 20 21 22 23 rings

> <PUBCHEM_HEAVY_ATOM_COUNT>
23

> <PUBCHEM_ATOM_DEF_STEREO_COUNT>
0

> <PUBCHEM_ATOM_UDEF_STEREO_COUNT>
0

> <PUBCHEM_BOND_DEF_STEREO_COUNT>
0

> <PUBCHEM_BOND_UDEF_STEREO_COUNT>
0

> <PUBCHEM_ISOTOPIC_ATOM_COUNT>
0

> <PUBCHEM_COMPONENT_COUNT>
1

> <PUBCHEM_CACTVS_TAUTO_COUNT>
1

> <PUBCHEM_CONFORMER_ID>
0000328400000001

> <PUBCHEM_MMFF94_ENERGY>
24.3017

> <PUBCHEM_FEATURE_SELFOVERLAP>
30.464

> <PUBCHEM_SHAPE_FINGERPRINT>
12403259 226 18271812383900966276
12403259 415 18342177764887245837
12596602 18 17604700076516534651
12616971 3 17676494951230188222
12730499 353 18339072705980769338
13533116 47 18341607135537561082
13583140 156 18338247062336000935
13955234 65 18408890629308973754
146900 427 18187923950237516042
14950920 106 18333448768265700339
17844677 252 18335133219989970777
18785283 64 18409166610616388918
19377110 9 17895489019993481883
23559900 14 18267597972784385162
239999 70 17968085409668949134
5104073 3 18409443704952986731
7495541 125 18340485659784474198

> <PUBCHEM_SHAPE_MULTIPOLES>
460.27
15.72
3.74
1.59
12.44
0.49
-0.38
2.57
4.39
-7.38
1.16
-0.05
-0.46
1.5

> <PUBCHEM_SHAPE_SELFOVERLAP>
854.434

> <PUBCHEM_SHAPE_VOLUME>
291.7

> <PUBCHEM_COORDINATE_TYPE>
2
5
10

$$$$

