47205046
  -OEChem-06241222583D

 36 38  0     0  0  0  0  0  0999 V2000
    1.0347   -2.0146   -1.7698 O   0  0  0  0  0  0  0  0  0  0  0  0
   -1.9870    0.2212    1.9905 N   0  0  0  0  0  0  0  0  0  0  0  0
    1.9238   -1.8415    0.3680 N   0  0  0  0  0  0  0  0  0  0  0  0
    1.8151    1.1383   -0.6917 N   0  0  0  0  0  0  0  0  0  0  0  0
    1.5780    2.4230   -0.3761 N   0  0  0  0  0  0  0  0  0  0  0  0
   -1.6684   -1.3852    0.4922 C   0  0  0  0  0  0  0  0  0  0  0  0
   -1.4612   -2.7160   -0.1141 C   0  0  0  0  0  0  0  0  0  0  0  0
   -1.7502   -0.1432   -0.1977 C   0  0  0  0  0  0  0  0  0  0  0  0
   -0.0172   -3.2235    0.0448 C   0  0  0  0  0  0  0  0  0  0  0  0
   -1.9503    0.8481    0.7653 C   0  0  0  0  0  0  0  0  0  0  0  0
   -1.8175   -1.1285    1.8357 C   0  0  0  0  0  0  0  0  0  0  0  0
   -1.6730    0.2337   -1.5532 C   0  0  0  0  0  0  0  0  0  0  0  0
    1.0183   -2.3031   -0.5762 C   0  0  0  0  0  0  0  0  0  0  0  0
   -2.0776    2.2030    0.4393 C   0  0  0  0  0  0  0  0  0  0  0  0
    3.0076   -0.9492    0.0300 C   0  0  0  0  0  0  0  0  0  0  0  0
   -1.7986    1.5854   -1.8941 C   0  0  0  0  0  0  0  0  0  0  0  0
   -1.9978    2.5532   -0.9116 C   0  0  0  0  0  0  0  0  0  0  0  0
    2.6220    0.4920    0.1982 C   0  0  0  0  0  0  0  0  0  0  0  0
    2.9348    1.4185    1.1628 C   0  0  0  0  0  0  0  0  0  0  0  0
    2.2645    2.5883    0.7577 C   0  0  0  0  0  0  0  0  0  0  0  0
   -2.1434   -3.4417    0.3461 H   0  0  0  0  0  0  0  0  0  0  0  0
   -1.7178   -2.6918   -1.1801 H   0  0  0  0  0  0  0  0  0  0  0  0
    0.0807   -4.1984   -0.4477 H   0  0  0  0  0  0  0  0  0  0  0  0
    0.1968   -3.3905    1.1073 H   0  0  0  0  0  0  0  0  0  0  0  0
   -1.8178   -1.7833    2.6960 H   0  0  0  0  0  0  0  0  0  0  0  0
   -2.1193    0.6905    2.8757 H   0  0  0  0  0  0  0  0  0  0  0  0
   -1.5175   -0.5058   -2.3333 H   0  0  0  0  0  0  0  0  0  0  0  0
   -2.2315    2.9573    1.2036 H   0  0  0  0  0  0  0  0  0  0  0  0
    3.3292   -1.1335   -1.0012 H   0  0  0  0  0  0  0  0  0  0  0  0
    3.8454   -1.1924    0.6921 H   0  0  0  0  0  0  0  0  0  0  0  0
    1.8231   -2.1098    1.3423 H   0  0  0  0  0  0  0  0  0  0  0  0
   -1.7386    1.8821   -2.9378 H   0  0  0  0  0  0  0  0  0  0  0  0
   -2.0915    3.5974   -1.1986 H   0  0  0  0  0  0  0  0  0  0  0  0
    3.5564    1.2700    2.0336 H   0  0  0  0  0  0  0  0  0  0  0  0
    1.3916    0.7660   -1.5325 H   0  0  0  0  0  0  0  0  0  0  0  0
    2.2472    3.5541    1.2418 H   0  0  0  0  0  0  0  0  0  0  0  0
  1 13  2  0  0  0  0
  2 10  1  0  0  0  0
  2 11  1  0  0  0  0
  2 26  1  0  0  0  0
  3 13  1  0  0  0  0
  3 15  1  0  0  0  0
  3 31  1  0  0  0  0
  4  5  1  0  0  0  0
  4 18  1  0  0  0  0
  4 35  1  0  0  0  0
  5 20  2  0  0  0  0
  6  7  1  0  0  0  0
  6  8  1  0  0  0  0
  6 11  2  0  0  0  0
  7  9  1  0  0  0  0
  7 21  1  0  0  0  0
  7 22  1  0  0  0  0
  8 10  1  0  0  0  0
  8 12  2  0  0  0  0
  9 13  1  0  0  0  0
  9 23  1  0  0  0  0
  9 24  1  0  0  0  0
 10 14  2  0  0  0  0
 11 25  1  0  0  0  0
 12 16  1  0  0  0  0
 12 27  1  0  0  0  0
 14 17  1  0  0  0  0
 14 28  1  0  0  0  0
 15 18  1  0  0  0  0
 15 29  1  0  0  0  0
 15 30  1  0  0  0  0
 16 17  2  0  0  0  0
 16 32  1  0  0  0  0
 17 33  1  0  0  0  0
 18 19  2  0  0  0  0
 19 20  1  0  0  0  0
 19 34  1  0  0  0  0
 20 36  1  0  0  0  0
M  END
> <PUBCHEM_COMPOUND_CID>
47205046

> <PUBCHEM_CONFORMER_RMSD>
0.8

> <PUBCHEM_CONFORMER_DIVERSEORDER>
1
235
68
206
81
131
120
149
93
177
22
170
27
5
174
110
132
8
124
46
107
215
222
102
233
99
119
178
77
142
193
7
76
40
71
67
121
208
10
101
89
98
169
173
66
133
205
194
85
160
180
213
165
35
70
198
224
103
192
189
134
86
21
50
82
250
4
42
230
60
256
214
36
52
88
151
217
238
30
28
100
105
249
246
108
49
14
147
18
241
6
239
16
137
23
51
252
141
31
211
2
240
237
63
20
126
199
161
112
162
48
3
109
225
58
221
135
182
69
90
136
15
37
38
228
78
13
242
203
207
143
168
96
153
11
204
186
9
187
202
129
138
118
184
188
12
163
41
164
17
34
130
47
158
171
154
145
115
54
157
244
152
72
219
243
39
210
245
87
167
223
200
253
227
236
172
255
125
248
190
106
234
144
55
94
212
56
196
25
251
185
148
117
123
116
64
191
97
218
209
19
216
179
139
91
79
254
159
43
232
183
24
75
226
140
195
181
44
84
53
104
146
83
111
26
127
113
95
73
176
166
57
220
74
128
229
201
122
29
197
33
61
114
156
231
45
59
80
65
32
155
62
247
175
150
92

> <PUBCHEM_MMFF94_PARTIAL_CHARGES>
29
1 -0.57
10 -0.15
11 -0.3
12 -0.15
13 0.57
14 -0.15
15 0.48
16 -0.15
17 -0.15
18 -0.33
19 -0.15
2 0.03
20 0.14
25 0.15
26 0.27
27 0.15
28 0.15
3 -0.73
31 0.37
32 0.15
33 0.15
34 0.15
35 0.27
36 0.15
4 0.3
5 -0.71
6 -0.18
7 0.18
9 0.06

> <PUBCHEM_EFFECTIVE_ROTOR_COUNT>
6

> <PUBCHEM_PHARMACOPHORE_FEATURES>
9
1 1 acceptor
1 2 cation
1 2 donor
1 3 donor
1 4 donor
1 5 acceptor
5 2 6 8 10 11 rings
5 4 5 18 19 20 rings
6 8 10 12 14 16 17 rings

> <PUBCHEM_HEAVY_ATOM_COUNT>
20

> <PUBCHEM_ATOM_DEF_STEREO_COUNT>
0

> <PUBCHEM_ATOM_UDEF_STEREO_COUNT>
0

> <PUBCHEM_BOND_DEF_STEREO_COUNT>
0

> <PUBCHEM_BOND_UDEF_STEREO_COUNT>
0

> <PUBCHEM_ISOTOPIC_ATOM_COUNT>
0

> <PUBCHEM_COMPONENT_COUNT>
1

> <PUBCHEM_CACTVS_TAUTO_COUNT>
4

> <PUBCHEM_CONFORMER_ID>
02D04AB600000001

> <PUBCHEM_MMFF94_ENERGY>
21.2236

> <PUBCHEM_FEATURE_SELFOVERLAP>
45.761

> <PUBCHEM_SHAPE_FINGERPRINT>
11640471 11 16661496275253070465
12156800 1 15956201132860171220
128993 33 18263344928933537496
13544592 271 18051982716191416130
14142880 1 17829046515932368763
14170010 4 18196365915534866411
1420 336 15959494659869582902
14251751 93 18129089036344775756
14386348 128 18265596724520658420
15881359 60 17981907240806925710
17492 54 16473194609854836724
18219364 16 18195799884939218139
18981168 100 18334013869887129378
19930381 70 18121786290202286281
21160774 45 17977673004591396068
23419403 2 17983556771080611881
238 59 18195831745191301485
2748010 2 18339918345996431190
2803657 2 16321726957322010896
3524813 1 17123938896127640295
44154327 71 17979899536996298083
81228 2 17471573222870035114

> <PUBCHEM_SHAPE_MULTIPOLES>
385.8
4.39
3.89
1.63
2.72
0.95
-0.03
-1.84
-0.7
0.12
0.47
-0.9
-0.16
1.08

> <PUBCHEM_SHAPE_SELFOVERLAP>
836.553

> <PUBCHEM_SHAPE_VOLUME>
211.7

> <PUBCHEM_COORDINATE_TYPE>
2
5
10

$$$$

