442249
  -OEChem-07051212572D

 75 78  0     1  0  0  0  0  0999 V2000
    7.5668   -0.9384    0.0000 O   0  0  0  0  0  0  0  0  0  0  0  0
    5.9392   -1.5308    0.0000 O   0  0  0  0  0  0  0  0  0  0  0  0
    8.8936   -2.0517    0.0000 O   0  0  0  0  0  0  0  0  0  0  0  0
    6.2812   -2.4705    0.0000 O   0  0  0  0  0  0  0  0  0  0  0  0
    6.9652   -4.3498    0.0000 O   0  0  0  0  0  0  0  0  0  0  0  0
    8.9349   -4.6971    0.0000 O   0  0  0  0  0  0  0  0  0  0  0  0
    2.9848   -1.0099    0.0000 O   0  0  0  0  0  0  0  0  0  0  0  0
   10.8632   -2.3990    0.0000 O   0  0  0  0  0  0  0  0  0  0  0  0
    3.1811    1.2883    0.0000 O   0  0  0  0  0  0  0  0  0  0  0  0
    3.2855    0.6959    0.0000 O   0  0  0  0  0  0  0  0  0  0  0  0
    8.4433    2.2642    0.0000 O   0  0  0  0  0  0  0  0  0  0  0  0
    8.4433    4.3125    0.0000 O   0  0  0  0  0  0  0  0  0  0  0  0
    4.0471    2.7883    0.0000 N   0  0  0  0  0  0  0  0  0  0  0  0
    5.2552    0.3486    0.0000 C   0  0  1  0  0  0  0  0  0  0  0  0
    4.9131    1.2883    0.0000 C   0  0  0  0  0  0  0  0  0  0  0  0
    4.9131    2.2883    0.0000 C   0  0  2  0  0  0  0  0  0  0  0  0
    6.2400    0.1750    0.0000 C   0  0  2  0  0  0  0  0  0  0  0  0
    6.5820   -0.7647    0.0000 C   0  0  2  0  0  0  0  0  0  0  0  0
    5.7791    2.7883    0.0000 C   0  0  0  0  0  0  0  0  0  0  0  0
    4.6124   -0.4174    0.0000 C   0  0  0  0  0  0  0  0  0  0  0  0
    7.9088   -1.8781    0.0000 C   0  0  2  0  0  0  0  0  0  0  0  0
    4.0471    3.7883    0.0000 C   0  0  0  0  0  0  0  0  0  0  0  0
    7.2660   -2.6441    0.0000 C   0  0  1  0  0  0  0  0  0  0  0  0
    7.6080   -3.5838    0.0000 C   0  0  2  0  0  0  0  0  0  0  0  0
    5.7791    3.7883    0.0000 C   0  0  0  0  0  0  0  0  0  0  0  0
    4.9131    4.2883    0.0000 C   0  0  0  0  0  0  0  0  0  0  0  0
    8.5928   -3.7574    0.0000 C   0  0  1  0  0  0  0  0  0  0  0  0
    9.2356   -2.9914    0.0000 C   0  0  1  0  0  0  0  0  0  0  0  0
    6.8827    0.9410    0.0000 C   0  0  0  0  0  0  0  0  0  0  0  0
    4.9544   -1.3571    0.0000 C   0  0  0  0  0  0  0  0  0  0  0  0
    6.6731    2.2536    0.0000 C   0  0  0  0  0  0  0  0  0  0  0  0
    3.1811    2.2883    0.0000 C   0  0  0  0  0  0  0  0  0  0  0  0
    6.6731    4.3230    0.0000 C   0  0  0  0  0  0  0  0  0  0  0  0
    3.6276   -0.2438    0.0000 C   0  0  0  0  0  0  0  0  0  0  0  0
   10.2204   -3.1650    0.0000 C   0  0  0  0  0  0  0  0  0  0  0  0
    7.5792    2.7675    0.0000 C   0  0  0  0  0  0  0  0  0  0  0  0
    7.5792    3.8091    0.0000 C   0  0  0  0  0  0  0  0  0  0  0  0
    7.8676    0.7674    0.0000 C   0  0  0  0  0  0  0  0  0  0  0  0
    2.3150    2.7883    0.0000 C   0  0  0  0  0  0  0  0  0  0  0  0
    2.0000   -0.8362    0.0000 C   0  0  0  0  0  0  0  0  0  0  0  0
    4.6446    0.4563    0.0000 H   0  0  0  0  0  0  0  0  0  0  0  0
    4.3438    1.5339    0.0000 H   0  0  0  0  0  0  0  0  0  0  0  0
    5.5237    1.3960    0.0000 H   0  0  0  0  0  0  0  0  0  0  0  0
    4.3762    1.9783    0.0000 H   0  0  0  0  0  0  0  0  0  0  0  0
    6.8505    0.0673    0.0000 H   0  0  0  0  0  0  0  0  0  0  0  0
    6.7940   -1.3473    0.0000 H   0  0  0  0  0  0  0  0  0  0  0  0
    7.2982   -1.7704    0.0000 H   0  0  0  0  0  0  0  0  0  0  0  0
    3.8350    4.3709    0.0000 H   0  0  0  0  0  0  0  0  0  0  0  0
    3.4365    3.6806    0.0000 H   0  0  0  0  0  0  0  0  0  0  0  0
    6.8675   -3.1191    0.0000 H   0  0  0  0  0  0  0  0  0  0  0  0
    6.9975   -3.4761    0.0000 H   0  0  0  0  0  0  0  0  0  0  0  0
    5.3117    4.7633    0.0000 H   0  0  0  0  0  0  0  0  0  0  0  0
    4.5146    4.7633    0.0000 H   0  0  0  0  0  0  0  0  0  0  0  0
    9.2034   -3.8651    0.0000 H   0  0  0  0  0  0  0  0  0  0  0  0
    9.6342   -2.5165    0.0000 H   0  0  0  0  0  0  0  0  0  0  0  0
    6.6707    1.5236    0.0000 H   0  0  0  0  0  0  0  0  0  0  0  0
    4.5559   -1.8321    0.0000 H   0  0  0  0  0  0  0  0  0  0  0  0
    6.6659    1.6337    0.0000 H   0  0  0  0  0  0  0  0  0  0  0  0
    6.6659    4.9429    0.0000 H   0  0  0  0  0  0  0  0  0  0  0  0
   10.0084   -3.7477    0.0000 H   0  0  0  0  0  0  0  0  0  0  0  0
   10.7574   -3.4750    0.0000 H   0  0  0  0  0  0  0  0  0  0  0  0
    5.8827   -2.9454    0.0000 H   0  0  0  0  0  0  0  0  0  0  0  0
    7.1773   -4.9325    0.0000 H   0  0  0  0  0  0  0  0  0  0  0  0
    8.0796    0.1848    0.0000 H   0  0  0  0  0  0  0  0  0  0  0  0
    8.2661    1.2423    0.0000 H   0  0  0  0  0  0  0  0  0  0  0  0
    9.5454   -4.8048    0.0000 H   0  0  0  0  0  0  0  0  0  0  0  0
    2.6250    3.3252    0.0000 H   0  0  0  0  0  0  0  0  0  0  0  0
    1.7781    3.0983    0.0000 H   0  0  0  0  0  0  0  0  0  0  0  0
    2.0051    2.2514    0.0000 H   0  0  0  0  0  0  0  0  0  0  0  0
   11.4738   -2.5067    0.0000 H   0  0  0  0  0  0  0  0  0  0  0  0
    8.9814    2.5721    0.0000 H   0  0  0  0  0  0  0  0  0  0  0  0
    8.4409    4.9325    0.0000 H   0  0  0  0  0  0  0  0  0  0  0  0
    2.1077   -0.2257    0.0000 H   0  0  0  0  0  0  0  0  0  0  0  0
    1.3894   -0.7286    0.0000 H   0  0  0  0  0  0  0  0  0  0  0  0
    1.8923   -1.4468    0.0000 H   0  0  0  0  0  0  0  0  0  0  0  0
 18  1  1  6  0  0  0
 21  1  1  6  0  0  0
  2 18  1  0  0  0  0
  2 30  1  0  0  0  0
  3 21  1  0  0  0  0
  3 28  1  0  0  0  0
 23  4  1  1  0  0  0
  4 62  1  0  0  0  0
 24  5  1  6  0  0  0
  5 63  1  0  0  0  0
 27  6  1  1  0  0  0
  6 66  1  0  0  0  0
  7 34  1  0  0  0  0
  7 40  1  0  0  0  0
  8 35  1  0  0  0  0
  8 70  1  0  0  0  0
  9 32  2  0  0  0  0
 10 34  2  0  0  0  0
 11 36  1  0  0  0  0
 11 71  1  0  0  0  0
 12 37  1  0  0  0  0
 12 72  1  0  0  0  0
 13 16  1  0  0  0  0
 13 22  1  0  0  0  0
 13 32  1  0  0  0  0
 14 15  1  1  0  0  0
 14 17  1  0  0  0  0
 14 20  1  0  0  0  0
 14 41  1  0  0  0  0
 16 15  1  1  0  0  0
 15 42  1  0  0  0  0
 15 43  1  0  0  0  0
 16 19  1  0  0  0  0
 16 44  1  0  0  0  0
 17 18  1  0  0  0  0
 17 29  1  1  0  0  0
 17 45  1  0  0  0  0
 18 46  1  0  0  0  0
 19 25  1  0  0  0  0
 19 31  2  0  0  0  0
 20 30  2  0  0  0  0
 20 34  1  0  0  0  0
 21 23  1  0  0  0  0
 21 47  1  0  0  0  0
 22 26  1  0  0  0  0
 22 48  1  0  0  0  0
 22 49  1  0  0  0  0
 23 24  1  0  0  0  0
 23 50  1  0  0  0  0
 24 27  1  0  0  0  0
 24 51  1  0  0  0  0
 25 26  1  0  0  0  0
 25 33  2  0  0  0  0
 26 52  1  0  0  0  0
 26 53  1  0  0  0  0
 27 28  1  0  0  0  0
 27 54  1  0  0  0  0
 28 35  1  6  0  0  0
 28 55  1  0  0  0  0
 29 38  2  0  0  0  0
 29 56  1  0  0  0  0
 30 57  1  0  0  0  0
 31 36  1  0  0  0  0
 31 58  1  0  0  0  0
 32 39  1  0  0  0  0
 33 37  1  0  0  0  0
 33 59  1  0  0  0  0
 35 60  1  0  0  0  0
 35 61  1  0  0  0  0
 36 37  2  0  0  0  0
 38 64  1  0  0  0  0
 38 65  1  0  0  0  0
 39 67  1  0  0  0  0
 39 68  1  0  0  0  0
 39 69  1  0  0  0  0
 40 73  1  0  0  0  0
 40 74  1  0  0  0  0
 40 75  1  0  0  0  0
M  END
> <PUBCHEM_COMPOUND_CID>
442249

> <PUBCHEM_COMPOUND_CANONICALIZED>
1

> <PUBCHEM_CACTVS_COMPLEXITY>
960

> <PUBCHEM_CACTVS_HBOND_ACCEPTOR>
12

> <PUBCHEM_CACTVS_HBOND_DONOR>
6

> <PUBCHEM_CACTVS_ROTATABLE_BOND>
8

> <PUBCHEM_CACTVS_SUBSKEYS>
AAADcfB6PAAAAAAAAAAAAAAAAAAAAAAAAAA8SIEAAAAAAACxAAAAHgAACAAADTzxmAcyDoMABgCIAiHSGACCCAAgIAAIiAEOjMgZNjKCsROmcAllxhGPuIf4/f+eoAABAAAQQABAAAIAACCAAAAAAAAAAA==

> <PUBCHEM_IUPAC_OPENEYE_NAME>
methyl (2S,3R,4S)-4-[[(1R)-2-acetyl-6,7-dihydroxy-3,4-dihydro-1H-isoquinolin-1-yl]methyl]-2-[(2S,3R,4S,5S,6R)-3,4,5-trihydroxy-6-(hydroxymethyl)tetrahydropyran-2-yl]oxy-3-vinyl-3,4-dihydro-2H-pyran-5-carboxylate

> <PUBCHEM_IUPAC_CAS_NAME>
(2S,3R,4S)-4-[[(1R)-2-acetyl-6,7-dihydroxy-3,4-dihydro-1H-isoquinolin-1-yl]methyl]-3-ethenyl-2-[[(2S,3R,4S,5S,6R)-3,4,5-trihydroxy-6-(hydroxymethyl)-2-oxanyl]oxy]-3,4-dihydro-2H-pyran-5-carboxylic acid methyl ester

> <PUBCHEM_IUPAC_NAME>
methyl (2S,3R,4S)-4-[[(1R)-2-acetyl-6,7-dihydroxy-3,4-dihydro-1H-isoquinolin-1-yl]methyl]-3-ethenyl-2-[(2S,3R,4S,5S,6R)-3,4,5-trihydroxy-6-(hydroxymethyl)oxan-2-yl]oxy-3,4-dihydro-2H-pyran-5-carboxylate

> <PUBCHEM_IUPAC_SYSTEMATIC_NAME>
methyl (2S,3R,4S)-4-[[(1R)-2-ethanoyl-6,7-bis(oxidanyl)-3,4-dihydro-1H-isoquinolin-1-yl]methyl]-3-ethenyl-2-[(2S,3R,4S,5S,6R)-6-(hydroxymethyl)-3,4,5-tris(oxidanyl)oxan-2-yl]oxy-3,4-dihydro-2H-pyran-5-carboxylate

> <PUBCHEM_IUPAC_TRADITIONAL_NAME>
(2S,3R,4S)-4-[[(1R)-2-acetyl-6,7-dihydroxy-3,4-dihydro-1H-isoquinolin-1-yl]methyl]-2-[(2S,3R,4S,5S,6R)-3,4,5-trihydroxy-6-methylol-tetrahydropyran-2-yl]oxy-3-vinyl-3,4-dihydro-2H-pyran-5-carboxylic acid methyl ester

> <PUBCHEM_IUPAC_INCHI>
InChI=1S/C27H35NO12/c1-4-14-16(8-18-15-9-20(32)19(31)7-13(15)5-6-28(18)12(2)30)17(25(36)37-3)11-38-26(14)40-27-24(35)23(34)22(33)21(10-29)39-27/h4,7,9,11,14,16,18,21-24,26-27,29,31-35H,1,5-6,8,10H2,2-3H3/t14-,16+,18-,21-,22-,23+,24-,26+,27+/m1/s1

> <PUBCHEM_IUPAC_INCHIKEY>
QISXROCIXKXUPS-OWVLCBNUSA-N

> <PUBCHEM_XLOGP3_AA>
-0.3

> <PUBCHEM_EXACT_MASS>
565.215926

> <PUBCHEM_MOLECULAR_FORMULA>
C27H35NO12

> <PUBCHEM_MOLECULAR_WEIGHT>
565.5663

> <PUBCHEM_OPENEYE_CAN_SMILES>
CC(=O)N1CCC2=CC(=C(C=C2C1CC3C(C(OC=C3C(=O)OC)OC4C(C(C(C(O4)CO)O)O)O)C=C)O)O

> <PUBCHEM_OPENEYE_ISO_SMILES>
CC(=O)N1CCC2=CC(=C(C=C2[C@H]1C[C@H]3[C@H]([C@@H](OC=C3C(=O)OC)O[C@H]4[C@@H]([C@H]([C@@H]([C@H](O4)CO)O)O)O)C=C)O)O

> <PUBCHEM_CACTVS_TPSA>
196

> <PUBCHEM_MONOISOTOPIC_WEIGHT>
565.215926

> <PUBCHEM_TOTAL_CHARGE>
0

> <PUBCHEM_HEAVY_ATOM_COUNT>
40

> <PUBCHEM_ATOM_DEF_STEREO_COUNT>
9

> <PUBCHEM_ATOM_UDEF_STEREO_COUNT>
0

> <PUBCHEM_BOND_DEF_STEREO_COUNT>
0

> <PUBCHEM_BOND_UDEF_STEREO_COUNT>
0

> <PUBCHEM_ISOTOPIC_ATOM_COUNT>
0

> <PUBCHEM_COMPONENT_COUNT>
1

> <PUBCHEM_CACTVS_TAUTO_COUNT>
18

> <PUBCHEM_COORDINATE_TYPE>
1
5
255

> <PUBCHEM_BONDANNOTATIONS>
18  1  6
21  1  6
14  15  5
16  15  5
17  29  5
19  25  8
19  31  8
25  33  8
28  35  6
31  36  8
33  37  8
36  37  8
23  4  5
24  5  6
27  6  5

$$$$

