250208
  -OEChem-07051213062D

 66 69  0     1  0  0  0  0  0999 V2000
    2.5357   -3.6451    0.0000 O   0  0  0  0  0  0  0  0  0  0  0  0
   11.4534    2.0255    0.0000 O   0  0  0  0  0  0  0  0  0  0  0  0
    8.1607    3.1016    0.0000 O   0  0  0  0  0  0  0  0  0  0  0  0
    9.1857    0.6625    0.0000 N   0  0  0  0  0  0  0  0  0  0  0  0
    7.9288   -0.5928    0.0000 C   0  0  1  0  0  0  0  0  0  0  0  0
    7.9288   -1.5928    0.0000 C   0  0  2  0  0  0  0  0  0  0  0  0
    7.0628   -2.0928    0.0000 C   0  0  1  0  0  0  0  0  0  0  0  0
    6.1968   -1.5928    0.0000 C   0  0  1  0  0  0  0  0  0  0  0  0
    8.8750   -0.2880    0.0000 C   0  0  2  0  0  0  0  0  0  0  0  0
    5.2868   -2.0996    0.0000 C   0  0  2  0  0  0  0  0  0  0  0  0
    7.0628   -0.0928    0.0000 C   0  0  0  0  0  0  0  0  0  0  0  0
    6.1968   -0.5928    0.0000 C   0  0  0  0  0  0  0  0  0  0  0  0
    8.8750   -1.8975    0.0000 C   0  0  0  0  0  0  0  0  0  0  0  0
    9.4586   -1.0928    0.0000 C   0  0  0  0  0  0  0  0  0  0  0  0
    7.0789   -3.1343    0.0000 C   0  0  0  0  0  0  0  0  0  0  0  0
    7.9288    0.4072    0.0000 C   0  0  0  0  0  0  0  0  0  0  0  0
    5.2787   -3.1412    0.0000 C   0  0  0  0  0  0  0  0  0  0  0  0
    4.3599   -1.5355    0.0000 C   0  0  0  0  0  0  0  0  0  0  0  0
    6.1808   -3.6620    0.0000 C   0  0  0  0  0  0  0  0  0  0  0  0
    5.2945   -1.0996    0.0000 C   0  0  0  0  0  0  0  0  0  0  0  0
    4.3433   -3.6909    0.0000 C   0  0  0  0  0  0  0  0  0  0  0  0
    3.4120   -2.0635    0.0000 C   0  0  0  0  0  0  0  0  0  0  0  0
    3.4037   -3.1484    0.0000 C   0  0  2  0  0  0  0  0  0  0  0  0
   10.1642    0.8687    0.0000 C   0  0  0  0  0  0  0  0  0  0  0  0
    8.5179    1.4068    0.0000 C   0  0  0  0  0  0  0  0  0  0  0  0
   10.4749    1.8192    0.0000 C   0  0  0  0  0  0  0  0  0  0  0  0
    8.8285    2.3573    0.0000 C   0  0  0  0  0  0  0  0  0  0  0  0
    8.0188   -2.4380    0.0000 H   0  0  0  0  0  0  0  0  0  0  0  0
    7.8022   -2.5121    0.0000 H   0  0  0  0  0  0  0  0  0  0  0  0
    6.9329   -1.1678    0.0000 H   0  0  0  0  0  0  0  0  0  0  0  0
    9.4875   -0.1918    0.0000 H   0  0  0  0  0  0  0  0  0  0  0  0
    7.4613    0.3822    0.0000 H   0  0  0  0  0  0  0  0  0  0  0  0
    6.6643    0.3822    0.0000 H   0  0  0  0  0  0  0  0  0  0  0  0
    5.9847   -0.0102    0.0000 H   0  0  0  0  0  0  0  0  0  0  0  0
    5.5862   -0.7004    0.0000 H   0  0  0  0  0  0  0  0  0  0  0  0
    8.6240   -2.4644    0.0000 H   0  0  0  0  0  0  0  0  0  0  0  0
    9.4124   -2.2067    0.0000 H   0  0  0  0  0  0  0  0  0  0  0  0
    9.9195   -1.5075    0.0000 H   0  0  0  0  0  0  0  0  0  0  0  0
    9.9195   -0.6780    0.0000 H   0  0  0  0  0  0  0  0  0  0  0  0
    7.2969   -3.7147    0.0000 H   0  0  0  0  0  0  0  0  0  0  0  0
    7.6880   -3.0188    0.0000 H   0  0  0  0  0  0  0  0  0  0  0  0
    8.5488    0.4072    0.0000 H   0  0  0  0  0  0  0  0  0  0  0  0
    7.9288    1.0272    0.0000 H   0  0  0  0  0  0  0  0  0  0  0  0
    7.3088    0.4072    0.0000 H   0  0  0  0  0  0  0  0  0  0  0  0
    4.7681   -1.0689    0.0000 H   0  0  0  0  0  0  0  0  0  0  0  0
    3.9700   -1.0535    0.0000 H   0  0  0  0  0  0  0  0  0  0  0  0
    6.1832   -4.2820    0.0000 H   0  0  0  0  0  0  0  0  0  0  0  0
    5.9145   -1.1044    0.0000 H   0  0  0  0  0  0  0  0  0  0  0  0
    5.2993   -0.4797    0.0000 H   0  0  0  0  0  0  0  0  0  0  0  0
    4.6745   -1.0949    0.0000 H   0  0  0  0  0  0  0  0  0  0  0  0
    3.9460   -4.1669    0.0000 H   0  0  0  0  0  0  0  0  0  0  0  0
    4.7443   -4.1638    0.0000 H   0  0  0  0  0  0  0  0  0  0  0  0
    3.2075   -1.4782    0.0000 H   0  0  0  0  0  0  0  0  0  0  0  0
    2.8004   -2.1649    0.0000 H   0  0  0  0  0  0  0  0  0  0  0  0
    2.8686   -2.8353    0.0000 H   0  0  0  0  0  0  0  0  0  0  0  0
   10.1848    0.2490    0.0000 H   0  0  0  0  0  0  0  0  0  0  0  0
   10.7780    0.7814    0.0000 H   0  0  0  0  0  0  0  0  0  0  0  0
    7.9709    1.6988    0.0000 H   0  0  0  0  0  0  0  0  0  0  0  0
    8.1353    0.9189    0.0000 H   0  0  0  0  0  0  0  0  0  0  0  0
   10.4543    2.4389    0.0000 H   0  0  0  0  0  0  0  0  0  0  0  0
    9.8611    1.9066    0.0000 H   0  0  0  0  0  0  0  0  0  0  0  0
    9.3754    2.0653    0.0000 H   0  0  0  0  0  0  0  0  0  0  0  0
    9.2111    2.8452    0.0000 H   0  0  0  0  0  0  0  0  0  0  0  0
    2.0000   -3.3330    0.0000 H   0  0  0  0  0  0  0  0  0  0  0  0
   11.6460    2.6148    0.0000 H   0  0  0  0  0  0  0  0  0  0  0  0
    8.3533    3.6909    0.0000 H   0  0  0  0  0  0  0  0  0  0  0  0
 23  1  1  1  0  0  0
  1 64  1  0  0  0  0
  2 26  1  0  0  0  0
  2 65  1  0  0  0  0
  3 27  1  0  0  0  0
  3 66  1  0  0  0  0
  9  4  1  1  0  0  0
  4 24  1  0  0  0  0
  4 25  1  0  0  0  0
  5  6  1  0  0  0  0
  5  9  1  0  0  0  0
  5 11  1  0  0  0  0
  5 16  1  1  0  0  0
  6  7  1  0  0  0  0
  6 13  1  0  0  0  0
  6 28  1  6  0  0  0
  7  8  1  0  0  0  0
  7 15  1  0  0  0  0
  7 29  1  1  0  0  0
  8 10  1  0  0  0  0
  8 12  1  0  0  0  0
  8 30  1  6  0  0  0
  9 14  1  0  0  0  0
  9 31  1  0  0  0  0
 10 17  1  0  0  0  0
 10 18  1  0  0  0  0
 10 20  1  1  0  0  0
 11 12  1  0  0  0  0
 11 32  1  0  0  0  0
 11 33  1  0  0  0  0
 12 34  1  0  0  0  0
 12 35  1  0  0  0  0
 13 14  1  0  0  0  0
 13 36  1  0  0  0  0
 13 37  1  0  0  0  0
 14 38  1  0  0  0  0
 14 39  1  0  0  0  0
 15 19  1  0  0  0  0
 15 40  1  0  0  0  0
 15 41  1  0  0  0  0
 16 42  1  0  0  0  0
 16 43  1  0  0  0  0
 16 44  1  0  0  0  0
 17 19  2  0  0  0  0
 17 21  1  0  0  0  0
 18 22  1  0  0  0  0
 18 45  1  0  0  0  0
 18 46  1  0  0  0  0
 19 47  1  0  0  0  0
 20 48  1  0  0  0  0
 20 49  1  0  0  0  0
 20 50  1  0  0  0  0
 21 23  1  0  0  0  0
 21 51  1  0  0  0  0
 21 52  1  0  0  0  0
 22 23  1  0  0  0  0
 22 53  1  0  0  0  0
 22 54  1  0  0  0  0
 23 55  1  0  0  0  0
 24 26  1  0  0  0  0
 24 56  1  0  0  0  0
 24 57  1  0  0  0  0
 25 27  1  0  0  0  0
 25 58  1  0  0  0  0
 25 59  1  0  0  0  0
 26 60  1  0  0  0  0
 26 61  1  0  0  0  0
 27 62  1  0  0  0  0
 27 63  1  0  0  0  0
M  END
> <PUBCHEM_COMPOUND_CID>
250208

> <PUBCHEM_COMPOUND_CANONICALIZED>
1

> <PUBCHEM_CACTVS_COMPLEXITY>
572

> <PUBCHEM_CACTVS_HBOND_ACCEPTOR>
4

> <PUBCHEM_CACTVS_HBOND_DONOR>
3

> <PUBCHEM_CACTVS_ROTATABLE_BOND>
5

> <PUBCHEM_CACTVS_SUBSKEYS>
AAADcfB6MAAAAAAAAAAAAAAAAAAAAYAAAAAwYIAAAAAAAGCAAAAAHgAACAAADzzhgAYCAAMAAgCAAiBCAAAAAAAgAAAACAAIAAgCEAIAgQAEQAAEwACYAAOQwPAPgAAAAAAAAADAAAQAACAAACAACQAAAA==

> <PUBCHEM_IUPAC_OPENEYE_NAME>
(3S,8R,9S,10R,13S,14S,17S)-17-[bis(2-hydroxyethyl)amino]-10,13-dimethyl-2,3,4,7,8,9,11,12,14,15,16,17-dodecahydro-1H-cyclopenta[a]phenanthren-3-ol

> <PUBCHEM_IUPAC_CAS_NAME>
(3S,8R,9S,10R,13S,14S,17S)-17-[bis(2-hydroxyethyl)amino]-10,13-dimethyl-2,3,4,7,8,9,11,12,14,15,16,17-dodecahydro-1H-cyclopenta[a]phenanthren-3-ol

> <PUBCHEM_IUPAC_NAME>
(3S,8R,9S,10R,13S,14S,17S)-17-[bis(2-hydroxyethyl)amino]-10,13-dimethyl-2,3,4,7,8,9,11,12,14,15,16,17-dodecahydro-1H-cyclopenta[a]phenanthren-3-ol

> <PUBCHEM_IUPAC_SYSTEMATIC_NAME>
(3S,8R,9S,10R,13S,14S,17S)-17-[bis(2-hydroxyethyl)amino]-10,13-dimethyl-2,3,4,7,8,9,11,12,14,15,16,17-dodecahydro-1H-cyclopenta[a]phenanthren-3-ol

> <PUBCHEM_IUPAC_TRADITIONAL_NAME>
(3S,8R,9S,10R,13S,14S,17S)-17-[bis(2-hydroxyethyl)amino]-10,13-dimethyl-2,3,4,7,8,9,11,12,14,15,16,17-dodecahydro-1H-cyclopenta[a]phenanthren-3-ol

> <PUBCHEM_IUPAC_INCHI>
InChI=1S/C23H39NO3/c1-22-9-7-17(27)15-16(22)3-4-18-19-5-6-21(24(11-13-25)12-14-26)23(19,2)10-8-20(18)22/h3,17-21,25-27H,4-15H2,1-2H3/t17-,18-,19-,20-,21-,22-,23-/m0/s1

> <PUBCHEM_IUPAC_INCHIKEY>
IEQZBQLFRAVFHT-FQJIPJFPSA-N

> <PUBCHEM_XLOGP3>
2.9

> <PUBCHEM_EXACT_MASS>
377.292994

> <PUBCHEM_MOLECULAR_FORMULA>
C23H39NO3

> <PUBCHEM_MOLECULAR_WEIGHT>
377.56066

> <PUBCHEM_OPENEYE_CAN_SMILES>
CC12CCC3C(C1CCC2N(CCO)CCO)CC=C4C3(CCC(C4)O)C

> <PUBCHEM_OPENEYE_ISO_SMILES>
C[C@]12CC[C@H]3[C@H]([C@@H]1CC[C@@H]2N(CCO)CCO)CC=C4[C@@]3(CC[C@@H](C4)O)C

> <PUBCHEM_CACTVS_TPSA>
63.9

> <PUBCHEM_MONOISOTOPIC_WEIGHT>
377.292994

> <PUBCHEM_TOTAL_CHARGE>
0

> <PUBCHEM_HEAVY_ATOM_COUNT>
27

> <PUBCHEM_ATOM_DEF_STEREO_COUNT>
7

> <PUBCHEM_ATOM_UDEF_STEREO_COUNT>
0

> <PUBCHEM_BOND_DEF_STEREO_COUNT>
0

> <PUBCHEM_BOND_UDEF_STEREO_COUNT>
0

> <PUBCHEM_ISOTOPIC_ATOM_COUNT>
0

> <PUBCHEM_COMPONENT_COUNT>
1

> <PUBCHEM_CACTVS_TAUTO_COUNT>
1

> <PUBCHEM_COORDINATE_TYPE>
1
5
255

> <PUBCHEM_BONDANNOTATIONS>
23  1  5
10  20  5
9  4  5
5  16  5
6  28  6
7  29  5
8  30  6

$$$$

