4411
  -OEChem-06261200063D

 49 50  0     1  0  0  0  0  0999 V2000
    2.8603    2.6352    1.3871 O   0  0  0  0  0  0  0  0  0  0  0  0
    3.9030    1.7169   -2.0092 O   0  0  0  0  0  0  0  0  0  0  0  0
   -0.1791   -0.8741    0.2421 O   0  0  0  0  0  0  0  0  0  0  0  0
   -3.0759   -2.3253   -1.4024 O   0  0  0  0  0  0  0  0  0  0  0  0
   -4.2429    0.1544   -0.6603 N   0  0  0  0  0  0  0  0  0  0  0  0
    2.7038    2.3494   -0.0010 C   0  0  1  0  0  0  0  0  0  0  0  0
    4.0373    1.9109   -0.6032 C   0  0  1  0  0  0  0  0  0  0  0  0
    1.6254    1.2755   -0.1679 C   0  0  0  0  0  0  0  0  0  0  0  0
    4.5464    0.6135    0.0302 C   0  0  0  0  0  0  0  0  0  0  0  0
    2.1076   -0.1220    0.1417 C   0  0  0  0  0  0  0  0  0  0  0  0
    3.4764   -0.4388    0.2011 C   0  0  0  0  0  0  0  0  0  0  0  0
    1.1573   -1.1393    0.3239 C   0  0  0  0  0  0  0  0  0  0  0  0
   -5.0264    0.9859    0.2434 C   0  0  0  0  0  0  0  0  0  0  0  0
    3.8656   -1.7592    0.4770 C   0  0  0  0  0  0  0  0  0  0  0  0
   -2.2361   -1.2779   -0.9084 C   0  0  1  0  0  0  0  0  0  0  0  0
   -3.0733   -0.3904    0.0157 C   0  0  0  0  0  0  0  0  0  0  0  0
   -1.0296   -1.9049   -0.2133 C   0  0  0  0  0  0  0  0  0  0  0  0
    1.5574   -2.4489    0.5870 C   0  0  0  0  0  0  0  0  0  0  0  0
    2.9114   -2.7583    0.6663 C   0  0  0  0  0  0  0  0  0  0  0  0
   -6.2446    1.5203   -0.5172 C   0  0  0  0  0  0  0  0  0  0  0  0
   -5.4813    0.1258    1.4272 C   0  0  0  0  0  0  0  0  0  0  0  0
   -4.1626    2.1513    0.7400 C   0  0  0  0  0  0  0  0  0  0  0  0
    2.3497    3.2672   -0.4851 H   0  0  0  0  0  0  0  0  0  0  0  0
    4.7977    2.6861   -0.4520 H   0  0  0  0  0  0  0  0  0  0  0  0
    1.2664    1.2808   -1.2047 H   0  0  0  0  0  0  0  0  0  0  0  0
    0.7813    1.5215    0.4883 H   0  0  0  0  0  0  0  0  0  0  0  0
    4.9569    0.8318    1.0239 H   0  0  0  0  0  0  0  0  0  0  0  0
    5.3534    0.2029   -0.5895 H   0  0  0  0  0  0  0  0  0  0  0  0
    4.9202   -2.0153    0.5464 H   0  0  0  0  0  0  0  0  0  0  0  0
   -1.8973   -0.6813   -1.7648 H   0  0  0  0  0  0  0  0  0  0  0  0
   -2.4109    0.3961    0.3873 H   0  0  0  0  0  0  0  0  0  0  0  0
   -3.3656   -1.0272    0.8562 H   0  0  0  0  0  0  0  0  0  0  0  0
   -3.9466    0.6965   -1.4716 H   0  0  0  0  0  0  0  0  0  0  0  0
   -0.5343   -2.5625   -0.9407 H   0  0  0  0  0  0  0  0  0  0  0  0
   -1.3598   -2.5219    0.6317 H   0  0  0  0  0  0  0  0  0  0  0  0
    0.8496   -3.2524    0.7664 H   0  0  0  0  0  0  0  0  0  0  0  0
    3.2262   -3.7752    0.8817 H   0  0  0  0  0  0  0  0  0  0  0  0
    3.5393    3.3265    1.4683 H   0  0  0  0  0  0  0  0  0  0  0  0
    3.5906    2.5547   -2.3912 H   0  0  0  0  0  0  0  0  0  0  0  0
   -6.8723    2.1448    0.1288 H   0  0  0  0  0  0  0  0  0  0  0  0
   -6.8704    0.7025   -0.8937 H   0  0  0  0  0  0  0  0  0  0  0  0
   -5.9438    2.1328   -1.3755 H   0  0  0  0  0  0  0  0  0  0  0  0
   -4.6839   -0.0910    2.1458 H   0  0  0  0  0  0  0  0  0  0  0  0
   -5.9220   -0.8224    1.0966 H   0  0  0  0  0  0  0  0  0  0  0  0
   -6.2577    0.6514    1.9975 H   0  0  0  0  0  0  0  0  0  0  0  0
   -4.7902    2.8973    1.2436 H   0  0  0  0  0  0  0  0  0  0  0  0
   -3.6612    2.6676   -0.0874 H   0  0  0  0  0  0  0  0  0  0  0  0
   -3.4061    1.8554    1.4743 H   0  0  0  0  0  0  0  0  0  0  0  0
   -2.5496   -2.8520   -2.0278 H   0  0  0  0  0  0  0  0  0  0  0  0
  1  6  1  0  0  0  0
  1 38  1  0  0  0  0
  2  7  1  0  0  0  0
  2 39  1  0  0  0  0
  3 12  1  0  0  0  0
  3 17  1  0  0  0  0
  4 15  1  0  0  0  0
  4 49  1  0  0  0  0
  5 13  1  0  0  0  0
  5 16  1  0  0  0  0
  5 33  1  0  0  0  0
  6  7  1  0  0  0  0
  6  8  1  0  0  0  0
  6 23  1  0  0  0  0
  7  9  1  0  0  0  0
  7 24  1  0  0  0  0
  8 10  1  0  0  0  0
  8 25  1  0  0  0  0
  8 26  1  0  0  0  0
  9 11  1  0  0  0  0
  9 27  1  0  0  0  0
  9 28  1  0  0  0  0
 10 11  2  0  0  0  0
 10 12  1  0  0  0  0
 11 14  1  0  0  0  0
 12 18  2  0  0  0  0
 13 20  1  0  0  0  0
 13 21  1  0  0  0  0
 13 22  1  0  0  0  0
 14 19  2  0  0  0  0
 14 29  1  0  0  0  0
 15 16  1  0  0  0  0
 15 17  1  0  0  0  0
 15 30  1  0  0  0  0
 16 31  1  0  0  0  0
 16 32  1  0  0  0  0
 17 34  1  0  0  0  0
 17 35  1  0  0  0  0
 18 19  1  0  0  0  0
 18 36  1  0  0  0  0
 19 37  1  0  0  0  0
 20 40  1  0  0  0  0
 20 41  1  0  0  0  0
 20 42  1  0  0  0  0
 21 43  1  0  0  0  0
 21 44  1  0  0  0  0
 21 45  1  0  0  0  0
 22 46  1  0  0  0  0
 22 47  1  0  0  0  0
 22 48  1  0  0  0  0
M  END
> <PUBCHEM_COMPOUND_CID>
4411

> <PUBCHEM_CONFORMER_RMSD>
0.8

> <PUBCHEM_CONFORMER_DIVERSEORDER>
16
125
102
203
243
173
184
183
246
235
200
50
160
3
117
202
233
237
55
249
73
248
54
22
64
90
207
179
106
216
32
212
228
177
257
131
156
140
136
219
91
170
24
56
214
172
42
130
48
41
96
92
169
242
43
85
254
229
186
252
103
23
193
8
5
174
82
113
211
162
152
78
101
236
185
46
144
84
149
147
72
187
166
39
128
188
44
218
100
224
190
115
159
198
178
255
206
245
122
196
189
205
111
176
28
171
155
199
197
146
52
232
89
93
129
239
20
244
256
37
6
47
227
126
148
25
143
153
27
13
158
45
137
86
12
123
201
182
240
217
134
70
97
69
7
251
62
220
167
164
31
181
51
195
135
223
110
80
105
165
209
118
1
120
151
150
208
124
35
60
238
210
30
168
250
71
180
114
98
133
175
59
247
226
138
49
127
231
67
213
81
65
121
33
15
108
4
145
230
53
132
63
77
157
161
141
119
76
68
253
29
38
215
74
163
34
94
88
79
87
104
192
17
19
221
191
107
116
9
58
99
10
66
11
83
142
18
36
95
26
222
112
57
75
139
21
40
2
61
234
225
241
194
14
154
109
204

> <PUBCHEM_MMFF94_PARTIAL_CHARGES>
26
1 -0.68
10 -0.14
11 -0.14
12 0.08
13 0.27
14 -0.15
15 0.28
16 0.27
17 0.28
18 -0.15
19 -0.15
2 -0.68
29 0.15
3 -0.36
33 0.36
36 0.15
37 0.15
38 0.4
39 0.4
4 -0.68
49 0.4
5 -0.9
6 0.28
7 0.28
8 0.14
9 0.14

> <PUBCHEM_EFFECTIVE_ROTOR_COUNT>
6.8

> <PUBCHEM_PHARMACOPHORE_FEATURES>
12
1 1 acceptor
1 1 donor
1 2 acceptor
1 2 donor
1 3 acceptor
1 4 acceptor
1 4 donor
1 5 cation
1 5 donor
4 13 20 21 22 hydrophobe
6 10 11 12 14 18 19 rings
6 6 7 8 9 10 11 rings

> <PUBCHEM_HEAVY_ATOM_COUNT>
22

> <PUBCHEM_ATOM_DEF_STEREO_COUNT>
0

> <PUBCHEM_ATOM_UDEF_STEREO_COUNT>
3

> <PUBCHEM_BOND_DEF_STEREO_COUNT>
0

> <PUBCHEM_BOND_UDEF_STEREO_COUNT>
0

> <PUBCHEM_ISOTOPIC_ATOM_COUNT>
0

> <PUBCHEM_COMPONENT_COUNT>
1

> <PUBCHEM_CACTVS_TAUTO_COUNT>
1

> <PUBCHEM_CONFORMER_ID>
0000113B00000010

> <PUBCHEM_MMFF94_ENERGY>
56.567

> <PUBCHEM_FEATURE_SELFOVERLAP>
60.916

> <PUBCHEM_SHAPE_FINGERPRINT>
10411042 1 17764593514134086026
10763959 59 18125724740963665645
10906281 52 18272086060055584010
11045977 3 17917422177367019715
11089746 13 18041286495166929836
11135609 201 17698425642797125508
12107183 9 18048883188939696707
12788726 201 17676479609876688889
13464513 79 9439412337267346224
13464514 151 18339357470834162142
13583140 156 18058731450571352115
13590594 115 18197499743201601440
13785724 45 17616532199995003715
13878862 14 18127435499489296453
14251764 75 17342356507492799436
14341114 176 18272079544194531147
14790565 3 17984130462373259580
14848178 96 18341056207245028348
15210252 30 18059286553377346772
15342168 16 18131345276568855127
15475509 8 17972019608233915670
17844677 252 18341043133912958723
17868525 174 17912656983422473722
17980427 26 17972623017069136228
19752476 56 17968660398289399352
20739085 24 17989485221354455892
21033648 29 17131281263469782405
21033650 10 15719658953387031827
21421861 104 17987532544875600466
21503847 285 18271526489144328146
22122407 14 18265043812470674657
22393880 68 18114742612361040420
23402655 69 18335702706888689846
23559900 14 17676479600917554062
335352 9 18411702114911672950
338550 245 18342455988863948092
350125 39 18342740762470253764
38570 142 18198317646713923212
474 4 18202284667054487558
5104073 3 18271534112711532499
543358 83 18410576197529451282
5895379 119 17386838585812268648
633830 44 18341895160640240966
8272917 22 18412543236711325702
84936 182 18190187784750018600

> <PUBCHEM_SHAPE_MULTIPOLES>
424.29
12.97
3.22
1.15
17.36
0.06
-0.17
-6.12
0.4
-2.55
0.1
0.23
-0.2
-1.48

> <PUBCHEM_SHAPE_SELFOVERLAP>
873.895

> <PUBCHEM_SHAPE_VOLUME>
244.3

> <PUBCHEM_COORDINATE_TYPE>
2
5
10

$$$$

