5287987
  -OEChem-07051213123D

 24 24  0     1  0  0  0  0  0999 V2000
    1.6903    1.9911    0.1615 O   0  0  0  0  0  0  0  0  0  0  0  0
    2.2780    0.2323    1.4746 O   0  0  0  0  0  0  0  0  0  0  0  0
   -0.7922    0.5510   -0.7690 N   0  0  0  0  0  0  0  0  0  0  0  0
   -2.5061   -0.4802    0.5376 N   0  0  0  0  0  0  0  0  0  0  0  0
    2.4215   -1.3134   -0.8553 N   0  0  0  0  0  0  0  0  0  0  0  0
   -2.6743    1.7280   -0.2015 N   0  0  0  0  0  0  0  0  0  0  0  0
    0.0880   -0.6006   -0.7935 C   0  0  2  0  0  0  0  0  0  0  0  0
   -0.2084   -1.4421    0.4481 C   0  0  0  0  0  0  0  0  0  0  0  0
    1.5407   -0.1473   -0.8269 C   0  0  1  0  0  0  0  0  0  0  0  0
   -1.7076   -1.7159    0.5352 C   0  0  0  0  0  0  0  0  0  0  0  0
   -2.0088    0.5300   -0.1147 C   0  0  0  0  0  0  0  0  0  0  0  0
    1.8790    0.6672    0.4038 C   0  0  0  0  0  0  0  0  0  0  0  0
   -0.1420   -1.1861   -1.6929 H   0  0  0  0  0  0  0  0  0  0  0  0
    0.0826   -0.9312    1.3722 H   0  0  0  0  0  0  0  0  0  0  0  0
    0.3186   -2.4016    0.4201 H   0  0  0  0  0  0  0  0  0  0  0  0
    1.7471    0.4557   -1.7188 H   0  0  0  0  0  0  0  0  0  0  0  0
   -2.0345   -2.3511   -0.2963 H   0  0  0  0  0  0  0  0  0  0  0  0
   -1.9179   -2.2634    1.4605 H   0  0  0  0  0  0  0  0  0  0  0  0
   -0.5323    1.3632   -1.3208 H   0  0  0  0  0  0  0  0  0  0  0  0
    2.1485   -1.9365   -1.6142 H   0  0  0  0  0  0  0  0  0  0  0  0
    2.3412   -1.8536    0.0040 H   0  0  0  0  0  0  0  0  0  0  0  0
   -3.5794    1.8578    0.2374 H   0  0  0  0  0  0  0  0  0  0  0  0
   -2.2836    2.5161   -0.7062 H   0  0  0  0  0  0  0  0  0  0  0  0
    1.9074    2.5403    0.9448 H   0  0  0  0  0  0  0  0  0  0  0  0
  1 12  1  0  0  0  0
  1 24  1  0  0  0  0
  2 12  2  0  0  0  0
  3  7  1  0  0  0  0
  3 11  1  0  0  0  0
  3 19  1  0  0  0  0
  4 10  1  0  0  0  0
  4 11  2  0  0  0  0
  5  9  1  0  0  0  0
  5 20  1  0  0  0  0
  5 21  1  0  0  0  0
  6 11  1  0  0  0  0
  6 22  1  0  0  0  0
  6 23  1  0  0  0  0
  7  8  1  0  0  0  0
  7  9  1  0  0  0  0
  7 13  1  0  0  0  0
  8 10  1  0  0  0  0
  8 14  1  0  0  0  0
  8 15  1  0  0  0  0
  9 12  1  0  0  0  0
  9 16  1  0  0  0  0
 10 17  1  0  0  0  0
 10 18  1  0  0  0  0
M  END
> <PUBCHEM_COMPOUND_CID>
5287987

> <PUBCHEM_CONFORMER_RMSD>
0.6

> <PUBCHEM_CONFORMER_DIVERSEORDER>
2
6
1
7
4
3
5

> <PUBCHEM_MMFF94_PARTIAL_CHARGES>
17
1 -0.65
10 0.25
11 0.55
12 0.66
19 0.4
2 -0.57
20 0.36
21 0.36
22 0.4
23 0.4
24 0.5
3 -0.82
4 -0.7
5 -0.99
6 -0.85
7 0.37
9 0.33

> <PUBCHEM_EFFECTIVE_ROTOR_COUNT>
2.8

> <PUBCHEM_PHARMACOPHORE_FEATURES>
9
1 1 acceptor
1 2 acceptor
1 3 donor
1 5 cation
1 5 donor
1 6 donor
3 1 2 12 anion
4 3 4 6 11 cation
6 3 4 7 8 10 11 rings

> <PUBCHEM_HEAVY_ATOM_COUNT>
12

> <PUBCHEM_ATOM_DEF_STEREO_COUNT>
2

> <PUBCHEM_ATOM_UDEF_STEREO_COUNT>
0

> <PUBCHEM_BOND_DEF_STEREO_COUNT>
0

> <PUBCHEM_BOND_UDEF_STEREO_COUNT>
0

> <PUBCHEM_ISOTOPIC_ATOM_COUNT>
0

> <PUBCHEM_COMPONENT_COUNT>
1

> <PUBCHEM_CACTVS_TAUTO_COUNT>
3

> <PUBCHEM_CONFORMER_ID>
0050B03300000002

> <PUBCHEM_MMFF94_ENERGY>
23.3165

> <PUBCHEM_FEATURE_SELFOVERLAP>
45.78

> <PUBCHEM_SHAPE_FINGERPRINT>
10857977 72 18270674243421576419
12423570 1 8348884964455870238
12524768 44 18196647393819379335
12932764 1 17968085404793914887
13839132 238 18411697668908059612
14648413 74 18409722946283173156
15775835 57 17918277570910311441
16945 1 18337670798068526279
19973954 147 18336259072377827269
20645464 45 18410018731943058586
21040471 1 18200588211086769415
21130352 189 18188206627878935500
21922407 69 16414918522160869796
21947302 44 18187367661525267029
230 275 18335710489111129713
2748010 2 18411694383442571215
369184 2 17844825697544419739
5084963 1 18261381252499987907
53812653 166 18195804287433618671

> <PUBCHEM_SHAPE_MULTIPOLES>
215.29
3.8
1.8
1.03
0.4
0.22
-0.1
0.69
-0.42
0.4
-0.09
-0.5
-0.1
0.65

> <PUBCHEM_SHAPE_SELFOVERLAP>
434.062

> <PUBCHEM_SHAPE_VOLUME>
123.6

> <PUBCHEM_COORDINATE_TYPE>
2
5
10

$$$$

