443056
  -OEChem-07051213013D

 83 86  0     1  0  0  0  0  0999 V2000
    3.4214   -2.7470    0.4663 O   0  0  0  0  0  0  0  0  0  0  0  0
    6.4793    3.1286   -0.5260 O   0  0  0  0  0  0  0  0  0  0  0  0
   -4.0386    1.2738    2.2774 O   0  0  0  0  0  0  0  0  0  0  0  0
    6.6718    1.1991    1.5413 O   0  0  0  0  0  0  0  0  0  0  0  0
    5.2115   -2.8984   -0.8579 O   0  0  0  0  0  0  0  0  0  0  0  0
   -6.6662    1.1715    1.4476 O   0  0  0  0  0  0  0  0  0  0  0  0
   -5.0249   -1.5013   -0.5250 O   0  0  0  0  0  0  0  0  0  0  0  0
   -0.5528    0.1954   -0.0110 C   0  0  1  0  0  0  0  0  0  0  0  0
    0.3044   -0.7452    0.8584 C   0  0  2  0  0  0  0  0  0  0  0  0
    1.7071   -1.0159    0.2773 C   0  0  1  0  0  0  0  0  0  0  0  0
    2.4668    0.3497    0.1071 C   0  0  1  0  0  0  0  0  0  0  0  0
   -1.8682    0.1779    0.8046 C   0  0  2  0  0  0  0  0  0  0  0  0
    3.9272    0.2678   -0.5402 C   0  0  2  0  0  0  0  0  0  0  0  0
    0.1502    1.5518   -0.0393 C   0  0  0  0  0  0  0  0  0  0  0  0
   -0.6321   -1.9294    1.1143 C   0  0  0  0  0  0  0  0  0  0  0  0
    1.5759    1.4295   -0.5907 C   0  0  0  0  0  0  0  0  0  0  0  0
   -2.0377   -1.3074    1.1859 C   0  0  0  0  0  0  0  0  0  0  0  0
   -3.0998    0.7584    0.1243 C   0  0  1  0  0  0  0  0  0  0  0  0
    4.8392   -0.7576    0.2223 C   0  0  2  0  0  0  0  0  0  0  0  0
   -0.7828   -0.3148   -1.4554 C   0  0  0  0  0  0  0  0  0  0  0  0
    2.4687   -1.9703    1.2062 C   0  0  0  0  0  0  0  0  0  0  0  0
    4.5570    1.7005   -0.4344 C   0  0  0  0  0  0  0  0  0  0  0  0
    3.8474   -0.1091   -2.0405 C   0  0  0  0  0  0  0  0  0  0  0  0
    6.3610   -0.5754   -0.0389 C   0  0  0  0  0  0  0  0  0  0  0  0
    6.0514    1.7841   -0.7300 C   0  0  2  0  0  0  0  0  0  0  0  0
   -4.3541    0.6366    1.0363 C   0  0  2  0  0  0  0  0  0  0  0  0
    6.8442    0.8493    0.1697 C   0  0  1  0  0  0  0  0  0  0  0  0
    4.5167   -2.2130   -0.1105 C   0  0  0  0  0  0  0  0  0  0  0  0
   -2.8273    2.2111   -0.2879 C   0  0  0  0  0  0  0  0  0  0  0  0
   -5.6437    1.2662    0.4542 C   0  0  1  0  0  0  0  0  0  0  0  0
   -6.1552    0.6451   -0.8876 C   0  0  1  0  0  0  0  0  0  0  0  0
   -6.2966   -0.9208   -0.8470 C   0  0  0  0  0  0  0  0  0  0  0  0
   -7.4549    1.3333   -1.3347 C   0  0  0  0  0  0  0  0  0  0  0  0
   -6.6542   -1.5022   -2.2228 C   0  0  0  0  0  0  0  0  0  0  0  0
   -7.3123   -1.4219    0.1865 C   0  0  0  0  0  0  0  0  0  0  0  0
    0.4624   -0.2668    1.8398 H   0  0  0  0  0  0  0  0  0  0  0  0
    1.6087   -1.4950   -0.7024 H   0  0  0  0  0  0  0  0  0  0  0  0
    2.6174    0.7258    1.1318 H   0  0  0  0  0  0  0  0  0  0  0  0
   -1.6860    0.7317    1.7380 H   0  0  0  0  0  0  0  0  0  0  0  0
    0.1997    1.9782    0.9710 H   0  0  0  0  0  0  0  0  0  0  0  0
   -0.3478    2.2912   -0.6642 H   0  0  0  0  0  0  0  0  0  0  0  0
   -0.3945   -2.4488    2.0482 H   0  0  0  0  0  0  0  0  0  0  0  0
   -0.5789   -2.6637    0.3026 H   0  0  0  0  0  0  0  0  0  0  0  0
    1.5188    1.2333   -1.6655 H   0  0  0  0  0  0  0  0  0  0  0  0
    2.0341    2.4181   -0.4828 H   0  0  0  0  0  0  0  0  0  0  0  0
   -2.6983   -1.8455    0.5000 H   0  0  0  0  0  0  0  0  0  0  0  0
   -2.4551   -1.4056    2.1940 H   0  0  0  0  0  0  0  0  0  0  0  0
   -3.3054    0.2038   -0.7962 H   0  0  0  0  0  0  0  0  0  0  0  0
    4.7215   -0.6152    1.3030 H   0  0  0  0  0  0  0  0  0  0  0  0
    0.1532   -0.5167   -1.9831 H   0  0  0  0  0  0  0  0  0  0  0  0
   -1.3607   -1.2442   -1.4818 H   0  0  0  0  0  0  0  0  0  0  0  0
   -1.3223    0.4180   -2.0627 H   0  0  0  0  0  0  0  0  0  0  0  0
    2.9423   -1.4684    2.0563 H   0  0  0  0  0  0  0  0  0  0  0  0
    1.7971   -2.7156    1.6401 H   0  0  0  0  0  0  0  0  0  0  0  0
    4.3750    2.1103    0.5690 H   0  0  0  0  0  0  0  0  0  0  0  0
    4.0525    2.3925   -1.1204 H   0  0  0  0  0  0  0  0  0  0  0  0
    4.8402   -0.2842   -2.4674 H   0  0  0  0  0  0  0  0  0  0  0  0
    3.2590   -1.0169   -2.2038 H   0  0  0  0  0  0  0  0  0  0  0  0
    3.3910    0.6868   -2.6373 H   0  0  0  0  0  0  0  0  0  0  0  0
    6.9095   -1.2441    0.6383 H   0  0  0  0  0  0  0  0  0  0  0  0
    6.6189   -0.8855   -1.0595 H   0  0  0  0  0  0  0  0  0  0  0  0
    6.2458    1.5392   -1.7804 H   0  0  0  0  0  0  0  0  0  0  0  0
   -4.5432   -0.3943    1.3373 H   0  0  0  0  0  0  0  0  0  0  0  0
    7.9154    0.9257   -0.0476 H   0  0  0  0  0  0  0  0  0  0  0  0
   -2.2339    2.2579   -1.2023 H   0  0  0  0  0  0  0  0  0  0  0  0
   -3.7383    2.7484   -0.5584 H   0  0  0  0  0  0  0  0  0  0  0  0
   -2.3415    2.7855    0.5070 H   0  0  0  0  0  0  0  0  0  0  0  0
   -5.5029    2.3434    0.3228 H   0  0  0  0  0  0  0  0  0  0  0  0
   -5.3908    0.8790   -1.6412 H   0  0  0  0  0  0  0  0  0  0  0  0
    5.9739    3.6940   -1.1346 H   0  0  0  0  0  0  0  0  0  0  0  0
   -3.9927    2.2324    2.1224 H   0  0  0  0  0  0  0  0  0  0  0  0
    6.9386    2.1292    1.6389 H   0  0  0  0  0  0  0  0  0  0  0  0
   -7.3748    1.7929    1.2111 H   0  0  0  0  0  0  0  0  0  0  0  0
   -8.3035    1.1015   -0.6859 H   0  0  0  0  0  0  0  0  0  0  0  0
   -7.3267    2.4216   -1.3356 H   0  0  0  0  0  0  0  0  0  0  0  0
   -7.7225    1.0471   -2.3562 H   0  0  0  0  0  0  0  0  0  0  0  0
   -6.5956   -2.5973   -2.2180 H   0  0  0  0  0  0  0  0  0  0  0  0
   -5.9435   -1.1604   -2.9839 H   0  0  0  0  0  0  0  0  0  0  0  0
   -7.6639   -1.2234   -2.5386 H   0  0  0  0  0  0  0  0  0  0  0  0
   -8.3064   -0.9904    0.0454 H   0  0  0  0  0  0  0  0  0  0  0  0
   -6.9774   -1.2347    1.2107 H   0  0  0  0  0  0  0  0  0  0  0  0
   -7.4173   -2.5122    0.1197 H   0  0  0  0  0  0  0  0  0  0  0  0
   -5.1358   -2.4648   -0.4551 H   0  0  0  0  0  0  0  0  0  0  0  0
  1 21  1  0  0  0  0
  1 28  1  0  0  0  0
  2 25  1  0  0  0  0
  2 70  1  0  0  0  0
  3 26  1  0  0  0  0
  3 71  1  0  0  0  0
  4 27  1  0  0  0  0
  4 72  1  0  0  0  0
  5 28  2  0  0  0  0
  6 30  1  0  0  0  0
  6 73  1  0  0  0  0
  7 32  1  0  0  0  0
  7 83  1  0  0  0  0
  8  9  1  0  0  0  0
  8 12  1  0  0  0  0
  8 14  1  0  0  0  0
  8 20  1  0  0  0  0
  9 10  1  0  0  0  0
  9 15  1  0  0  0  0
  9 36  1  0  0  0  0
 10 11  1  0  0  0  0
 10 21  1  0  0  0  0
 10 37  1  0  0  0  0
 11 13  1  0  0  0  0
 11 16  1  0  0  0  0
 11 38  1  0  0  0  0
 12 17  1  0  0  0  0
 12 18  1  0  0  0  0
 12 39  1  0  0  0  0
 13 19  1  0  0  0  0
 13 22  1  0  0  0  0
 13 23  1  0  0  0  0
 14 16  1  0  0  0  0
 14 40  1  0  0  0  0
 14 41  1  0  0  0  0
 15 17  1  0  0  0  0
 15 42  1  0  0  0  0
 15 43  1  0  0  0  0
 16 44  1  0  0  0  0
 16 45  1  0  0  0  0
 17 46  1  0  0  0  0
 17 47  1  0  0  0  0
 18 26  1  0  0  0  0
 18 29  1  0  0  0  0
 18 48  1  0  0  0  0
 19 24  1  0  0  0  0
 19 28  1  0  0  0  0
 19 49  1  0  0  0  0
 20 50  1  0  0  0  0
 20 51  1  0  0  0  0
 20 52  1  0  0  0  0
 21 53  1  0  0  0  0
 21 54  1  0  0  0  0
 22 25  1  0  0  0  0
 22 55  1  0  0  0  0
 22 56  1  0  0  0  0
 23 57  1  0  0  0  0
 23 58  1  0  0  0  0
 23 59  1  0  0  0  0
 24 27  1  0  0  0  0
 24 60  1  0  0  0  0
 24 61  1  0  0  0  0
 25 27  1  0  0  0  0
 25 62  1  0  0  0  0
 26 30  1  0  0  0  0
 26 63  1  0  0  0  0
 27 64  1  0  0  0  0
 29 65  1  0  0  0  0
 29 66  1  0  0  0  0
 29 67  1  0  0  0  0
 30 31  1  0  0  0  0
 30 68  1  0  0  0  0
 31 32  1  0  0  0  0
 31 33  1  0  0  0  0
 31 69  1  0  0  0  0
 32 34  1  0  0  0  0
 32 35  1  0  0  0  0
 33 74  1  0  0  0  0
 33 75  1  0  0  0  0
 33 76  1  0  0  0  0
 34 77  1  0  0  0  0
 34 78  1  0  0  0  0
 34 79  1  0  0  0  0
 35 80  1  0  0  0  0
 35 81  1  0  0  0  0
 35 82  1  0  0  0  0
M  END
> <PUBCHEM_COMPOUND_CID>
443056

> <PUBCHEM_CONFORMER_RMSD>
1

> <PUBCHEM_CONFORMER_DIVERSEORDER>
1
4
2
3

> <PUBCHEM_MMFF94_PARTIAL_CHARGES>
20
1 -0.43
19 0.06
2 -0.68
21 0.28
25 0.28
26 0.28
27 0.28
28 0.66
3 -0.68
30 0.28
32 0.28
4 -0.68
5 -0.57
6 -0.68
7 -0.68
70 0.4
71 0.4
72 0.4
73 0.4
83 0.4

> <PUBCHEM_EFFECTIVE_ROTOR_COUNT>
7.2

> <PUBCHEM_PHARMACOPHORE_FEATURES>
18
1 2 acceptor
1 2 donor
1 29 hydrophobe
1 3 acceptor
1 3 donor
1 33 hydrophobe
1 4 acceptor
1 4 donor
1 5 acceptor
1 6 acceptor
1 6 donor
1 7 acceptor
1 7 donor
3 32 34 35 hydrophobe
5 8 9 12 15 17 rings
6 13 19 22 24 25 27 rings
6 8 9 10 11 14 16 rings
7 1 10 11 13 19 21 28 rings

> <PUBCHEM_HEAVY_ATOM_COUNT>
35

> <PUBCHEM_ATOM_DEF_STEREO_COUNT>
13

> <PUBCHEM_ATOM_UDEF_STEREO_COUNT>
0

> <PUBCHEM_BOND_DEF_STEREO_COUNT>
0

> <PUBCHEM_BOND_UDEF_STEREO_COUNT>
0

> <PUBCHEM_ISOTOPIC_ATOM_COUNT>
0

> <PUBCHEM_COMPONENT_COUNT>
1

> <PUBCHEM_CACTVS_TAUTO_COUNT>
1

> <PUBCHEM_CONFORMER_ID>
0006C2B000000001

> <PUBCHEM_MMFF94_ENERGY>
148.7909

> <PUBCHEM_FEATURE_SELFOVERLAP>
91.431

> <PUBCHEM_SHAPE_FINGERPRINT>
10 15 17560795512020336424
10411042 1 17909267229027367842
10462674 296 17180250998368249295
10554248 39 18059851753750355382
10595046 47 18335701663058669081
11007060 377 18343018887578013835
11135609 187 18341899558475157489
11135926 11 18059860580383272171
11315181 36 18113057130583486833
12236239 1 18259703423726109745
12596602 18 18040152950223322250
13533116 47 18334853970090935144
1361 2 18410855494831616554
1361 4 18260548905319378831
13782708 43 17703511111413307715
13811026 1 18342177751986155667
14251764 18 18333448724910111620
14394314 77 18411412943348793217
14856354 85 17167865253942311941
15131766 46 14834123129037409350
15183329 4 18411984663318685295
15328829 1 18187367605806704805
1577012 14 18113613517209766545
18608769 82 18129938963170257379
18681886 176 17895484635375113913
20157964 124 18411979174582446478
20511986 3 18410301302031142502
21033648 29 16988840601422219633
21130935 74 18261107517123390867
21150785 3 18040716939606294997
21223535 225 16486707964975622341
21859007 373 16988293065531729836
22149856 69 18336535110310946945
23081809 10 17822006553554396841
23522609 53 17969199253228663041
23559900 14 18270684143390058001
24771293 8 18413107243306122028
24771750 20 17698145267195231125
249057 25 18041555965889091674
255183 451 18044647849381899910
2838139 119 17918275342392178949
335352 9 18343014503081198486
3633792 109 18342460386968227961
4073 2 18201996582128721434
4093350 32 17895469332411997406
4169191 19 18272362036456622212
4340502 62 18201715167903570466
4625314 4 18335422425638697975
4760202 170 18271256001433316517
504579 68 18409720764561061182
5104073 3 18201990024362208634
5265222 85 16660654998686915023
6004065 56 18340488846539645916
6328613 192 18410576189039490143
6371009 1 18131350799728661804
7226269 152 11887957662125792855
9962374 69 18336832004695782670

> <PUBCHEM_SHAPE_MULTIPOLES>
679.2
21.68
2.61
1.53
11.05
0.37
-0.16
-3.68
-4.02
-2.6
-0.07
1.62
0.12
-0.96

> <PUBCHEM_SHAPE_SELFOVERLAP>
1416.246

> <PUBCHEM_SHAPE_VOLUME>
383.9

> <PUBCHEM_COORDINATE_TYPE>
2
5
10

$$$$

