11954212
  -OEChem-07051213072D

 91 96  0     1  0  0  0  0  0999 V2000
    8.5991   -0.1900    0.0000 O   0  0  0  0  0  0  0  0  0  0  0  0
    6.8671    0.8100    0.0000 O   0  0  0  0  0  0  0  0  0  0  0  0
    7.7331   -1.6900    0.0000 O   0  0  0  0  0  0  0  0  0  0  0  0
    5.1350    0.8100    0.0000 O   0  0  0  0  0  0  0  0  0  0  0  0
   11.1972   -0.6900    0.0000 O   0  0  0  0  0  0  0  0  0  0  0  0
    5.1350   -0.1900    0.0000 O   0  0  0  0  0  0  0  0  0  0  0  0
    5.1350   -2.1900    0.0000 O   0  0  0  0  0  0  0  0  0  0  0  0
    8.5991   -2.1900    0.0000 O   0  0  0  0  0  0  0  0  0  0  0  0
   10.3312    0.8100    0.0000 O   0  0  0  0  0  0  0  0  0  0  0  0
   10.3312   -3.1900    0.0000 O   0  0  0  0  0  0  0  0  0  0  0  0
    6.8671    2.8100    0.0000 O   0  0  0  0  0  0  0  0  0  0  0  0
    5.1350    3.8100    0.0000 O   0  0  0  0  0  0  0  0  0  0  0  0
    3.4030    2.8100    0.0000 O   0  0  0  0  0  0  0  0  0  0  0  0
    6.0010   -3.6900    0.0000 O   0  0  0  0  0  0  0  0  0  0  0  0
   12.0632   -3.1900    0.0000 O   0  0  0  0  0  0  0  0  0  0  0  0
    2.5369    1.3100    0.0000 O   0  0  0  0  0  0  0  0  0  0  0  0
   12.0632    2.8100    0.0000 O   0  0  0  0  0  0  0  0  0  0  0  0
   12.0632   -0.1900    0.0000 O   0  0  0  0  0  0  0  0  0  0  0  0
    6.8671   -0.1900    0.0000 C   0  0  1  0  0  0  0  0  0  0  0  0
    7.7331   -0.6900    0.0000 C   0  0  2  0  0  0  0  0  0  0  0  0
    6.0010   -0.6900    0.0000 C   0  0  2  0  0  0  0  0  0  0  0  0
    6.0010   -1.6900    0.0000 C   0  0  1  0  0  0  0  0  0  0  0  0
    9.4651   -0.6900    0.0000 C   0  0  2  0  0  0  0  0  0  0  0  0
    6.8671   -2.1900    0.0000 C   0  0  1  0  0  0  0  0  0  0  0  0
    9.4651   -1.6900    0.0000 C   0  0  2  0  0  0  0  0  0  0  0  0
    6.0010    1.3100    0.0000 C   0  0  2  0  0  0  0  0  0  0  0  0
   10.3312   -2.1900    0.0000 C   0  0  1  0  0  0  0  0  0  0  0  0
   10.3312   -0.1900    0.0000 C   0  0  1  0  0  0  0  0  0  0  0  0
    6.0010    2.3100    0.0000 C   0  0  1  0  0  0  0  0  0  0  0  0
   11.1972   -1.6900    0.0000 C   0  0  1  0  0  0  0  0  0  0  0  0
    5.1350    2.8100    0.0000 C   0  0  2  0  0  0  0  0  0  0  0  0
    4.2690    2.3100    0.0000 C   0  0  1  0  0  0  0  0  0  0  0  0
    4.2690    1.3100    0.0000 C   0  0  1  0  0  0  0  0  0  0  0  0
    6.8671   -3.1900    0.0000 C   0  0  0  0  0  0  0  0  0  0  0  0
   12.0632   -2.1900    0.0000 C   0  0  0  0  0  0  0  0  0  0  0  0
    3.4030    0.8100    0.0000 C   0  0  0  0  0  0  0  0  0  0  0  0
   11.1972    1.3100    0.0000 C   0  0  0  0  0  0  0  0  0  0  0  0
   11.1972    2.3100    0.0000 C   0  0  0  0  0  0  0  0  0  0  0  0
   12.0632    0.8100    0.0000 C   0  0  0  0  0  0  0  0  0  0  0  0
   12.9292    1.3100    0.0000 C   0  0  0  0  0  0  0  0  0  0  0  0
   10.3312    2.8100    0.0000 C   0  0  0  0  0  0  0  0  0  0  0  0
   12.9292    2.3100    0.0000 C   0  0  0  0  0  0  0  0  0  0  0  0
   13.8232    0.7753    0.0000 C   0  0  0  0  0  0  0  0  0  0  0  0
   13.8232    2.8447    0.0000 C   0  0  0  0  0  0  0  0  0  0  0  0
   10.3312    3.8100    0.0000 C   0  0  0  0  0  0  0  0  0  0  0  0
    9.4651    2.3100    0.0000 C   0  0  0  0  0  0  0  0  0  0  0  0
   14.7292    1.2892    0.0000 C   0  0  0  0  0  0  0  0  0  0  0  0
   14.7292    2.3308    0.0000 C   0  0  0  0  0  0  0  0  0  0  0  0
    9.4651    4.3100    0.0000 C   0  0  0  0  0  0  0  0  0  0  0  0
    8.5991    2.8100    0.0000 C   0  0  0  0  0  0  0  0  0  0  0  0
    8.5991    3.8100    0.0000 C   0  0  0  0  0  0  0  0  0  0  0  0
    6.3301    0.1200    0.0000 H   0  0  0  0  0  0  0  0  0  0  0  0
    7.7331   -0.0700    0.0000 H   0  0  0  0  0  0  0  0  0  0  0  0
    5.4641   -1.0000    0.0000 H   0  0  0  0  0  0  0  0  0  0  0  0
    5.4641   -1.3800    0.0000 H   0  0  0  0  0  0  0  0  0  0  0  0
    9.4651   -0.0700    0.0000 H   0  0  0  0  0  0  0  0  0  0  0  0
    7.4040   -2.5000    0.0000 H   0  0  0  0  0  0  0  0  0  0  0  0
    9.4651   -2.3100    0.0000 H   0  0  0  0  0  0  0  0  0  0  0  0
    6.5380    1.6200    0.0000 H   0  0  0  0  0  0  0  0  0  0  0  0
   10.8681   -2.5000    0.0000 H   0  0  0  0  0  0  0  0  0  0  0  0
    9.7942    0.1200    0.0000 H   0  0  0  0  0  0  0  0  0  0  0  0
    6.5380    2.0000    0.0000 H   0  0  0  0  0  0  0  0  0  0  0  0
   11.7341   -1.3800    0.0000 H   0  0  0  0  0  0  0  0  0  0  0  0
    5.6720    3.1200    0.0000 H   0  0  0  0  0  0  0  0  0  0  0  0
    4.2690    2.9300    0.0000 H   0  0  0  0  0  0  0  0  0  0  0  0
    4.2690    0.6900    0.0000 H   0  0  0  0  0  0  0  0  0  0  0  0
    7.0791   -3.7726    0.0000 H   0  0  0  0  0  0  0  0  0  0  0  0
    7.4776   -3.0823    0.0000 H   0  0  0  0  0  0  0  0  0  0  0  0
    4.5981   -0.5000    0.0000 H   0  0  0  0  0  0  0  0  0  0  0  0
   12.6738   -2.2977    0.0000 H   0  0  0  0  0  0  0  0  0  0  0  0
   12.2753   -1.6074    0.0000 H   0  0  0  0  0  0  0  0  0  0  0  0
    4.5981   -1.8800    0.0000 H   0  0  0  0  0  0  0  0  0  0  0  0
    3.0044    0.3351    0.0000 H   0  0  0  0  0  0  0  0  0  0  0  0
    3.8015    0.3351    0.0000 H   0  0  0  0  0  0  0  0  0  0  0  0
    8.5991   -2.8100    0.0000 H   0  0  0  0  0  0  0  0  0  0  0  0
    9.7942   -3.5000    0.0000 H   0  0  0  0  0  0  0  0  0  0  0  0
    6.8671    3.4300    0.0000 H   0  0  0  0  0  0  0  0  0  0  0  0
    4.5981    4.1200    0.0000 H   0  0  0  0  0  0  0  0  0  0  0  0
    3.4030    3.4300    0.0000 H   0  0  0  0  0  0  0  0  0  0  0  0
    6.0010   -4.3100    0.0000 H   0  0  0  0  0  0  0  0  0  0  0  0
   12.6002   -3.5000    0.0000 H   0  0  0  0  0  0  0  0  0  0  0  0
    2.0000    1.0000    0.0000 H   0  0  0  0  0  0  0  0  0  0  0  0
   13.8160    0.1554    0.0000 H   0  0  0  0  0  0  0  0  0  0  0  0
   13.8160    3.4646    0.0000 H   0  0  0  0  0  0  0  0  0  0  0  0
   10.8681    4.1200    0.0000 H   0  0  0  0  0  0  0  0  0  0  0  0
    9.4651    1.6900    0.0000 H   0  0  0  0  0  0  0  0  0  0  0  0
   15.2650    0.9771    0.0000 H   0  0  0  0  0  0  0  0  0  0  0  0
   15.2650    2.6429    0.0000 H   0  0  0  0  0  0  0  0  0  0  0  0
    9.4651    4.9300    0.0000 H   0  0  0  0  0  0  0  0  0  0  0  0
    8.0622    2.5000    0.0000 H   0  0  0  0  0  0  0  0  0  0  0  0
    8.0622    4.1200    0.0000 H   0  0  0  0  0  0  0  0  0  0  0  0
 20  1  1  6  0  0  0
 23  1  1  1  0  0  0
 19  2  1  1  0  0  0
 26  2  1  6  0  0  0
  3 20  1  0  0  0  0
  3 24  1  0  0  0  0
  4 26  1  0  0  0  0
  4 33  1  0  0  0  0
  5 28  1  0  0  0  0
  5 30  1  0  0  0  0
 21  6  1  6  0  0  0
  6 69  1  0  0  0  0
 22  7  1  1  0  0  0
  7 72  1  0  0  0  0
 25  8  1  6  0  0  0
  8 75  1  0  0  0  0
 28  9  1  6  0  0  0
  9 37  1  0  0  0  0
 27 10  1  1  0  0  0
 10 76  1  0  0  0  0
 29 11  1  1  0  0  0
 11 77  1  0  0  0  0
 31 12  1  6  0  0  0
 12 78  1  0  0  0  0
 32 13  1  1  0  0  0
 13 79  1  0  0  0  0
 14 34  1  0  0  0  0
 14 80  1  0  0  0  0
 15 35  1  0  0  0  0
 15 81  1  0  0  0  0
 16 36  1  0  0  0  0
 16 82  1  0  0  0  0
 17 38  1  0  0  0  0
 17 42  1  0  0  0  0
 18 39  2  0  0  0  0
 19 20  1  0  0  0  0
 19 21  1  0  0  0  0
 19 52  1  0  0  0  0
 20 53  1  0  0  0  0
 21 22  1  0  0  0  0
 21 54  1  0  0  0  0
 22 24  1  0  0  0  0
 22 55  1  0  0  0  0
 23 25  1  0  0  0  0
 23 28  1  0  0  0  0
 23 56  1  0  0  0  0
 24 34  1  6  0  0  0
 24 57  1  0  0  0  0
 25 27  1  0  0  0  0
 25 58  1  0  0  0  0
 26 29  1  0  0  0  0
 26 59  1  0  0  0  0
 27 30  1  0  0  0  0
 27 60  1  0  0  0  0
 28 61  1  0  0  0  0
 29 31  1  0  0  0  0
 29 62  1  0  0  0  0
 30 35  1  6  0  0  0
 30 63  1  0  0  0  0
 31 32  1  0  0  0  0
 31 64  1  0  0  0  0
 32 33  1  0  0  0  0
 32 65  1  0  0  0  0
 33 36  1  6  0  0  0
 33 66  1  0  0  0  0
 34 67  1  0  0  0  0
 34 68  1  0  0  0  0
 35 70  1  0  0  0  0
 35 71  1  0  0  0  0
 36 73  1  0  0  0  0
 36 74  1  0  0  0  0
 37 38  2  0  0  0  0
 37 39  1  0  0  0  0
 38 41  1  0  0  0  0
 39 40  1  0  0  0  0
 40 42  1  0  0  0  0
 40 43  2  0  0  0  0
 41 45  2  0  0  0  0
 41 46  1  0  0  0  0
 42 44  2  0  0  0  0
 43 47  1  0  0  0  0
 43 83  1  0  0  0  0
 44 48  1  0  0  0  0
 44 84  1  0  0  0  0
 45 49  1  0  0  0  0
 45 85  1  0  0  0  0
 46 50  2  0  0  0  0
 46 86  1  0  0  0  0
 47 48  2  0  0  0  0
 47 87  1  0  0  0  0
 48 88  1  0  0  0  0
 49 51  2  0  0  0  0
 49 89  1  0  0  0  0
 50 51  1  0  0  0  0
 50 90  1  0  0  0  0
 51 91  1  0  0  0  0
M  END
> <PUBCHEM_COMPOUND_CID>
11954212

> <PUBCHEM_COMPOUND_CANONICALIZED>
1

> <PUBCHEM_CACTVS_COMPLEXITY>
1200

> <PUBCHEM_CACTVS_HBOND_ACCEPTOR>
18

> <PUBCHEM_CACTVS_HBOND_DONOR>
10

> <PUBCHEM_CACTVS_ROTATABLE_BOND>
10

> <PUBCHEM_CACTVS_SUBSKEYS>
AAADcfB8PgAAAAAAAAAAAAAAAAAAAAAAAAA0aJECAAAAAACBQAAAGgAACAAADBSwmAMwDoAABgCIAqBSAAICCAAkIAAIiAFGCMgdNjaENR6ieWCl4BEPqYfI6KyOAAAAAAAIAAAAAAAAABAAAAAAAAAAAA==

> <PUBCHEM_IUPAC_OPENEYE_NAME>
3-[(2S,3R,4S,5S,6R)-3-[(2S,3R,4S,5S,6R)-4,5-dihydroxy-6-(hydroxymethyl)-3-[(2S,3R,4S,5S,6R)-3,4,5-trihydroxy-6-(hydroxymethyl)tetrahydropyran-2-yl]oxy-tetrahydropyran-2-yl]oxy-4,5-dihydroxy-6-(hydroxymethyl)tetrahydropyran-2-yl]oxy-2-phenyl-chromen-4-one

> <PUBCHEM_IUPAC_CAS_NAME>
3-[[(2S,3R,4S,5S,6R)-3-[[(2S,3R,4S,5S,6R)-4,5-dihydroxy-6-(hydroxymethyl)-3-[[(2S,3R,4S,5S,6R)-3,4,5-trihydroxy-6-(hydroxymethyl)-2-oxanyl]oxy]-2-oxanyl]oxy]-4,5-dihydroxy-6-(hydroxymethyl)-2-oxanyl]oxy]-2-phenyl-1-benzopyran-4-one

> <PUBCHEM_IUPAC_NAME>
3-[(2S,3R,4S,5S,6R)-3-[(2S,3R,4S,5S,6R)-4,5-dihydroxy-6-(hydroxymethyl)-3-[(2S,3R,4S,5S,6R)-3,4,5-trihydroxy-6-(hydroxymethyl)oxan-2-yl]oxyoxan-2-yl]oxy-4,5-dihydroxy-6-(hydroxymethyl)oxan-2-yl]oxy-2-phenylchromen-4-one

> <PUBCHEM_IUPAC_SYSTEMATIC_NAME>
3-[(2S,3R,4S,5S,6R)-6-(hydroxymethyl)-3-[(2S,3R,4S,5S,6R)-6-(hydroxymethyl)-3-[(2S,3R,4S,5S,6R)-6-(hydroxymethyl)-3,4,5-tris(oxidanyl)oxan-2-yl]oxy-4,5-bis(oxidanyl)oxan-2-yl]oxy-4,5-bis(oxidanyl)oxan-2-yl]oxy-2-phenyl-chromen-4-one

> <PUBCHEM_IUPAC_TRADITIONAL_NAME>
3-[(2S,3R,4S,5S,6R)-3-[(2S,3R,4S,5S,6R)-4,5-dihydroxy-6-methylol-3-[(2S,3R,4S,5S,6R)-3,4,5-trihydroxy-6-methylol-tetrahydropyran-2-yl]oxy-tetrahydropyran-2-yl]oxy-4,5-dihydroxy-6-methylol-tetrahydropyran-2-yl]oxy-2-phenyl-chromone

> <PUBCHEM_IUPAC_INCHI>
InChI=1S/C33H40O18/c34-10-16-20(38)23(41)26(44)31(46-16)50-29-24(42)21(39)18(12-36)48-33(29)51-30-25(43)22(40)17(11-35)47-32(30)49-28-19(37)14-8-4-5-9-15(14)45-27(28)13-6-2-1-3-7-13/h1-9,16-18,20-26,29-36,38-44H,10-12H2/t16-,17-,18-,20-,21-,22-,23+,24+,25+,26-,29-,30-,31+,32+,33+/m1/s1

> <PUBCHEM_IUPAC_INCHIKEY>
LQYJTXHCPZHHLY-AAMLXSRYSA-N

> <PUBCHEM_XLOGP3_AA>
-2

> <PUBCHEM_EXACT_MASS>
724.221464

> <PUBCHEM_MOLECULAR_FORMULA>
C33H40O18

> <PUBCHEM_MOLECULAR_WEIGHT>
724.6599

> <PUBCHEM_OPENEYE_CAN_SMILES>
C1=CC=C(C=C1)C2=C(C(=O)C3=CC=CC=C3O2)OC4C(C(C(C(O4)CO)O)O)OC5C(C(C(C(O5)CO)O)O)OC6C(C(C(C(O6)CO)O)O)O

> <PUBCHEM_OPENEYE_ISO_SMILES>
C1=CC=C(C=C1)C2=C(C(=O)C3=CC=CC=C3O2)O[C@H]4[C@@H]([C@H]([C@@H]([C@H](O4)CO)O)O)O[C@H]5[C@@H]([C@H]([C@@H]([C@H](O5)CO)O)O)O[C@H]6[C@@H]([C@H]([C@@H]([C@H](O6)CO)O)O)O

> <PUBCHEM_CACTVS_TPSA>
284

> <PUBCHEM_MONOISOTOPIC_WEIGHT>
724.221464

> <PUBCHEM_TOTAL_CHARGE>
0

> <PUBCHEM_HEAVY_ATOM_COUNT>
51

> <PUBCHEM_ATOM_DEF_STEREO_COUNT>
15

> <PUBCHEM_ATOM_UDEF_STEREO_COUNT>
0

> <PUBCHEM_BOND_DEF_STEREO_COUNT>
0

> <PUBCHEM_BOND_UDEF_STEREO_COUNT>
0

> <PUBCHEM_ISOTOPIC_ATOM_COUNT>
0

> <PUBCHEM_COMPONENT_COUNT>
1

> <PUBCHEM_CACTVS_TAUTO_COUNT>
1

> <PUBCHEM_COORDINATE_TYPE>
1
5
255

> <PUBCHEM_BONDANNOTATIONS>
20  1  6
23  1  5
27  10  5
29  11  5
31  12  6
32  13  5
17  38  8
17  42  8
19  2  5
26  2  6
24  34  6
30  35  6
33  36  6
37  38  8
37  39  8
39  40  8
40  42  8
40  43  8
41  45  8
41  46  8
42  44  8
43  47  8
44  48  8
45  49  8
46  50  8
47  48  8
49  51  8
50  51  8
21  6  6
22  7  5
25  8  6
28  9  6

$$$$

