583113
  -OEChem-06241222442D

 23 24  0     1  0  0  0  0  0999 V2000
    4.6783   -1.5801    0.0000 O   0  0  0  0  0  0  0  0  0  0  0  0
    5.9674    1.1861    0.0000 O   0  0  0  0  0  0  0  0  0  0  0  0
    6.2619   -0.7754    0.0000 O   0  0  0  0  0  0  0  0  0  0  0  0
    4.6783    0.0293    0.0000 C   0  0  3  0  0  0  0  0  0  0  0  0
    4.9889    0.9799    0.0000 C   0  0  3  0  0  0  0  0  0  0  0  0
    3.7320   -0.2754    0.0000 C   0  0  0  0  0  0  0  0  0  0  0  0
    3.7320   -1.2754    0.0000 C   0  0  0  0  0  0  0  0  0  0  0  0
    5.2619   -0.7754    0.0000 C   0  0  0  0  0  0  0  0  0  0  0  0
    4.3211    1.7242    0.0000 C   0  0  0  0  0  0  0  0  0  0  0  0
    2.8660    0.2246    0.0000 C   0  0  0  0  0  0  0  0  0  0  0  0
    2.8660   -1.7754    0.0000 C   0  0  0  0  0  0  0  0  0  0  0  0
    2.0000   -0.2754    0.0000 C   0  0  0  0  0  0  0  0  0  0  0  0
    2.0000   -1.2754    0.0000 C   0  0  0  0  0  0  0  0  0  0  0  0
    5.2908    0.1255    0.0000 H   0  0  0  0  0  0  0  0  0  0  0  0
    5.1815    1.5692    0.0000 H   0  0  0  0  0  0  0  0  0  0  0  0
    4.7826    2.1382    0.0000 H   0  0  0  0  0  0  0  0  0  0  0  0
    3.9070    2.1856    0.0000 H   0  0  0  0  0  0  0  0  0  0  0  0
    3.8596    1.3101    0.0000 H   0  0  0  0  0  0  0  0  0  0  0  0
    2.8660    0.8446    0.0000 H   0  0  0  0  0  0  0  0  0  0  0  0
    2.8660   -2.3954    0.0000 H   0  0  0  0  0  0  0  0  0  0  0  0
    1.4631    0.0346    0.0000 H   0  0  0  0  0  0  0  0  0  0  0  0
    6.1600    1.7754    0.0000 H   0  0  0  0  0  0  0  0  0  0  0  0
    1.4631   -1.5854    0.0000 H   0  0  0  0  0  0  0  0  0  0  0  0
  1  7  1  0  0  0  0
  1  8  1  0  0  0  0
  2  5  1  0  0  0  0
  2 22  1  0  0  0  0
  3  8  2  0  0  0  0
  4  5  1  0  0  0  0
  4  6  1  0  0  0  0
  4  8  1  0  0  0  0
  4 14  1  0  0  0  0
  5  9  1  0  0  0  0
  5 15  1  0  0  0  0
  6  7  1  0  0  0  0
  6 10  2  0  0  0  0
  7 11  2  0  0  0  0
  9 16  1  0  0  0  0
  9 17  1  0  0  0  0
  9 18  1  0  0  0  0
 10 12  1  0  0  0  0
 10 19  1  0  0  0  0
 11 13  1  0  0  0  0
 11 20  1  0  0  0  0
 12 13  2  0  0  0  0
 12 21  1  0  0  0  0
 13 23  1  0  0  0  0
M  END
> <PUBCHEM_COMPOUND_CID>
583113

> <PUBCHEM_COMPOUND_CANONICALIZED>
1

> <PUBCHEM_CACTVS_COMPLEXITY>
214

> <PUBCHEM_CACTVS_HBOND_ACCEPTOR>
3

> <PUBCHEM_CACTVS_HBOND_DONOR>
1

> <PUBCHEM_CACTVS_ROTATABLE_BOND>
1

> <PUBCHEM_CACTVS_SUBSKEYS>
AAADccBwMAAAAAAAAAAAAAAAAAAAASAAAAAwAAAAAAAAAEgBAAAAGgAACAAADRSgmAIyDoAABgCIAiDSCAACCAAgIAAIiAEGCIgMNjaENRqCeiCl4BEIqAfKyOCOgAAAAAAIAAAAAAAAABAAAAAAAAAAAA==

> <PUBCHEM_IUPAC_OPENEYE_NAME>
3-(1-hydroxyethyl)-3H-benzofuran-2-one

> <PUBCHEM_IUPAC_CAS_NAME>
3-(1-hydroxyethyl)-3H-benzofuran-2-one

> <PUBCHEM_IUPAC_NAME>
3-(1-hydroxyethyl)-3H-1-benzofuran-2-one

> <PUBCHEM_IUPAC_SYSTEMATIC_NAME>
3-(1-hydroxyethyl)-3H-1-benzofuran-2-one

> <PUBCHEM_IUPAC_TRADITIONAL_NAME>
3-(1-hydroxyethyl)coumaran-2-one

> <PUBCHEM_IUPAC_INCHI>
InChI=1S/C10H10O3/c1-6(11)9-7-4-2-3-5-8(7)13-10(9)12/h2-6,9,11H,1H3

> <PUBCHEM_IUPAC_INCHIKEY>
NVHKLWCRPPDPQK-UHFFFAOYSA-N

> <PUBCHEM_XLOGP3_AA>
1.7

> <PUBCHEM_EXACT_MASS>
178.062994

> <PUBCHEM_MOLECULAR_FORMULA>
C10H10O3

> <PUBCHEM_MOLECULAR_WEIGHT>
178.1846

> <PUBCHEM_OPENEYE_CAN_SMILES>
CC(C1C2=CC=CC=C2OC1=O)O

> <PUBCHEM_OPENEYE_ISO_SMILES>
CC(C1C2=CC=CC=C2OC1=O)O

> <PUBCHEM_CACTVS_TPSA>
46.5

> <PUBCHEM_MONOISOTOPIC_WEIGHT>
178.062994

> <PUBCHEM_TOTAL_CHARGE>
0

> <PUBCHEM_HEAVY_ATOM_COUNT>
13

> <PUBCHEM_ATOM_DEF_STEREO_COUNT>
0

> <PUBCHEM_ATOM_UDEF_STEREO_COUNT>
2

> <PUBCHEM_BOND_DEF_STEREO_COUNT>
0

> <PUBCHEM_BOND_UDEF_STEREO_COUNT>
0

> <PUBCHEM_ISOTOPIC_ATOM_COUNT>
0

> <PUBCHEM_COMPONENT_COUNT>
1

> <PUBCHEM_CACTVS_TAUTO_COUNT>
2

> <PUBCHEM_COORDINATE_TYPE>
1
5
255

> <PUBCHEM_BONDANNOTATIONS>
10  12  8
11  13  8
12  13  8
5  2  3
4  8  3
6  10  8
6  7  8
7  11  8

$$$$

