15429182
  -OEChem-07051212512D

 53 54  0     1  0  0  0  0  0999 V2000
    8.9282   -1.3450    0.0000 O   0  0  0  0  0  0  0  0  0  0  0  0
    5.4641   -2.3450    0.0000 O   0  0  0  0  0  0  0  0  0  0  0  0
    5.4641    3.6550    0.0000 O   0  0  0  0  0  0  0  0  0  0  0  0
    4.5981   -3.8450    0.0000 O   0  0  0  0  0  0  0  0  0  0  0  0
    4.5981    5.1550    0.0000 O   0  0  0  0  0  0  0  0  0  0  0  0
    4.5981   -5.8450    0.0000 O   0  0  0  0  0  0  0  0  0  0  0  0
    2.8660    6.1550    0.0000 O   0  0  0  0  0  0  0  0  0  0  0  0
    7.1962   -2.3450    0.0000 N   0  0  0  0  0  0  0  0  0  0  0  0
    4.5981    2.1550    0.0000 N   0  0  0  0  0  0  0  0  0  0  0  0
    8.0622    0.1550    0.0000 N   0  0  0  0  0  0  0  0  0  0  0  0
    6.3301   -0.8450    0.0000 C   0  0  0  0  0  0  0  0  0  0  0  0
    6.3301    0.1550    0.0000 C   0  0  0  0  0  0  0  0  0  0  0  0
    7.1962   -1.3450    0.0000 C   0  0  1  0  0  0  0  0  0  0  0  0
    5.4641    0.6550    0.0000 C   0  0  0  0  0  0  0  0  0  0  0  0
    5.4641    1.6550    0.0000 C   0  0  0  0  0  0  0  0  0  0  0  0
    8.0622   -0.8450    0.0000 C   0  0  0  0  0  0  0  0  0  0  0  0
    6.3301   -2.8450    0.0000 C   0  0  0  0  0  0  0  0  0  0  0  0
    6.3301   -3.8450    0.0000 C   0  0  0  0  0  0  0  0  0  0  0  0
    4.5981    3.1550    0.0000 C   0  0  0  0  0  0  0  0  0  0  0  0
    3.7320    3.6550    0.0000 C   0  0  0  0  0  0  0  0  0  0  0  0
    5.4641   -4.3450    0.0000 C   0  0  0  0  0  0  0  0  0  0  0  0
    7.1962   -4.3450    0.0000 C   0  0  0  0  0  0  0  0  0  0  0  0
    3.7320    4.6550    0.0000 C   0  0  0  0  0  0  0  0  0  0  0  0
    2.8660    3.1550    0.0000 C   0  0  0  0  0  0  0  0  0  0  0  0
    5.4641   -5.3450    0.0000 C   0  0  0  0  0  0  0  0  0  0  0  0
    7.1962   -5.3450    0.0000 C   0  0  0  0  0  0  0  0  0  0  0  0
    6.3301   -5.8450    0.0000 C   0  0  0  0  0  0  0  0  0  0  0  0
    2.8660    5.1550    0.0000 C   0  0  0  0  0  0  0  0  0  0  0  0
    2.0000    3.6550    0.0000 C   0  0  0  0  0  0  0  0  0  0  0  0
    2.0000    4.6550    0.0000 C   0  0  0  0  0  0  0  0  0  0  0  0
    5.7196   -0.7373    0.0000 H   0  0  0  0  0  0  0  0  0  0  0  0
    6.1181   -1.4276    0.0000 H   0  0  0  0  0  0  0  0  0  0  0  0
    6.9407    0.0473    0.0000 H   0  0  0  0  0  0  0  0  0  0  0  0
    6.5422    0.7376    0.0000 H   0  0  0  0  0  0  0  0  0  0  0  0
    6.6592   -1.6550    0.0000 H   0  0  0  0  0  0  0  0  0  0  0  0
    4.8535    0.7627    0.0000 H   0  0  0  0  0  0  0  0  0  0  0  0
    5.2520    0.0724    0.0000 H   0  0  0  0  0  0  0  0  0  0  0  0
    6.0747    1.5473    0.0000 H   0  0  0  0  0  0  0  0  0  0  0  0
    5.6762    2.2376    0.0000 H   0  0  0  0  0  0  0  0  0  0  0  0
    7.7331   -2.6550    0.0000 H   0  0  0  0  0  0  0  0  0  0  0  0
    4.0611    1.8450    0.0000 H   0  0  0  0  0  0  0  0  0  0  0  0
    8.5991    0.4650    0.0000 H   0  0  0  0  0  0  0  0  0  0  0  0
    7.5252    0.4650    0.0000 H   0  0  0  0  0  0  0  0  0  0  0  0
    7.7331   -4.0350    0.0000 H   0  0  0  0  0  0  0  0  0  0  0  0
    2.8660    2.5350    0.0000 H   0  0  0  0  0  0  0  0  0  0  0  0
    7.7331   -5.6550    0.0000 H   0  0  0  0  0  0  0  0  0  0  0  0
    6.3301   -6.4650    0.0000 H   0  0  0  0  0  0  0  0  0  0  0  0
    1.4631    3.3450    0.0000 H   0  0  0  0  0  0  0  0  0  0  0  0
    1.4631    4.9650    0.0000 H   0  0  0  0  0  0  0  0  0  0  0  0
    4.0611   -4.1550    0.0000 H   0  0  0  0  0  0  0  0  0  0  0  0
    4.5981    5.7750    0.0000 H   0  0  0  0  0  0  0  0  0  0  0  0
    4.5981   -6.4650    0.0000 H   0  0  0  0  0  0  0  0  0  0  0  0
    2.3291    6.4650    0.0000 H   0  0  0  0  0  0  0  0  0  0  0  0
  1 16  2  0  0  0  0
  2 17  2  0  0  0  0
  3 19  2  0  0  0  0
  4 21  1  0  0  0  0
  4 50  1  0  0  0  0
  5 23  1  0  0  0  0
  5 51  1  0  0  0  0
  6 25  1  0  0  0  0
  6 52  1  0  0  0  0
  7 28  1  0  0  0  0
  7 53  1  0  0  0  0
 13  8  1  1  0  0  0
  8 17  1  0  0  0  0
  8 40  1  0  0  0  0
  9 15  1  0  0  0  0
  9 19  1  0  0  0  0
  9 41  1  0  0  0  0
 10 16  1  0  0  0  0
 10 42  1  0  0  0  0
 10 43  1  0  0  0  0
 11 12  1  0  0  0  0
 11 13  1  0  0  0  0
 11 31  1  0  0  0  0
 11 32  1  0  0  0  0
 12 14  1  0  0  0  0
 12 33  1  0  0  0  0
 12 34  1  0  0  0  0
 13 16  1  0  0  0  0
 13 35  1  0  0  0  0
 14 15  1  0  0  0  0
 14 36  1  0  0  0  0
 14 37  1  0  0  0  0
 15 38  1  0  0  0  0
 15 39  1  0  0  0  0
 17 18  1  0  0  0  0
 18 21  2  0  0  0  0
 18 22  1  0  0  0  0
 19 20  1  0  0  0  0
 20 23  2  0  0  0  0
 20 24  1  0  0  0  0
 21 25  1  0  0  0  0
 22 26  2  0  0  0  0
 22 44  1  0  0  0  0
 23 28  1  0  0  0  0
 24 29  2  0  0  0  0
 24 45  1  0  0  0  0
 25 27  2  0  0  0  0
 26 27  1  0  0  0  0
 26 46  1  0  0  0  0
 27 47  1  0  0  0  0
 28 30  2  0  0  0  0
 29 30  1  0  0  0  0
 29 48  1  0  0  0  0
 30 49  1  0  0  0  0
M  END
> <PUBCHEM_COMPOUND_CID>
15429182

> <PUBCHEM_COMPOUND_CANONICALIZED>
1

> <PUBCHEM_CACTVS_COMPLEXITY>
603

> <PUBCHEM_CACTVS_HBOND_ACCEPTOR>
7

> <PUBCHEM_CACTVS_HBOND_DONOR>
7

> <PUBCHEM_CACTVS_ROTATABLE_BOND>
9

> <PUBCHEM_CACTVS_SUBSKEYS>
AAADceB7OAAAAAAAAAAAAAAAAAAAAAAAAAAwYAAAAAAAAAABQAAAHgAQCAAADCzBmAQwBoLAAgCIAiFSEACCAAAkIAAIiIGOjMgJZjaClTOUcUlm9hGJmYe6yDCOAAABAAAIQAAAAAIAABCAAAAAAAAAAA==

> <PUBCHEM_IUPAC_OPENEYE_NAME>
N-[(5S)-6-amino-5-[(2,3-dihydroxybenzoyl)amino]-6-oxo-hexyl]-2,3-dihydroxy-benzamide

> <PUBCHEM_IUPAC_CAS_NAME>
N-[(5S)-6-amino-5-[[(2,3-dihydroxyphenyl)-oxomethyl]amino]-6-oxohexyl]-2,3-dihydroxybenzamide

> <PUBCHEM_IUPAC_NAME>
N-[(5S)-6-amino-5-[(2,3-dihydroxybenzoyl)amino]-6-oxohexyl]-2,3-dihydroxybenzamide

> <PUBCHEM_IUPAC_SYSTEMATIC_NAME>
N-[(5S)-6-azanyl-5-[[2,3-bis(oxidanyl)phenyl]carbonylamino]-6-oxidanylidene-hexyl]-2,3-bis(oxidanyl)benzamide

> <PUBCHEM_IUPAC_TRADITIONAL_NAME>
N-[(5S)-6-amino-5-[(2,3-dihydroxybenzoyl)amino]-6-keto-hexyl]-2,3-dihydroxy-benzamide

> <PUBCHEM_IUPAC_INCHI>
InChI=1S/C20H23N3O7/c21-18(28)13(23-20(30)12-6-4-9-15(25)17(12)27)7-1-2-10-22-19(29)11-5-3-8-14(24)16(11)26/h3-6,8-9,13,24-27H,1-2,7,10H2,(H2,21,28)(H,22,29)(H,23,30)/t13-/m0/s1

> <PUBCHEM_IUPAC_INCHIKEY>
NCOSLLNHKCFPFO-ZDUSSCGKSA-N

> <PUBCHEM_XLOGP3_AA>
1.9

> <PUBCHEM_EXACT_MASS>
417.1536

> <PUBCHEM_MOLECULAR_FORMULA>
C20H23N3O7

> <PUBCHEM_MOLECULAR_WEIGHT>
417.41252

> <PUBCHEM_OPENEYE_CAN_SMILES>
C1=CC(=C(C(=C1)O)O)C(=O)NCCCCC(C(=O)N)NC(=O)C2=C(C(=CC=C2)O)O

> <PUBCHEM_OPENEYE_ISO_SMILES>
C1=CC(=C(C(=C1)O)O)C(=O)NCCCC[C@@H](C(=O)N)NC(=O)C2=C(C(=CC=C2)O)O

> <PUBCHEM_CACTVS_TPSA>
182

> <PUBCHEM_MONOISOTOPIC_WEIGHT>
417.1536

> <PUBCHEM_TOTAL_CHARGE>
0

> <PUBCHEM_HEAVY_ATOM_COUNT>
30

> <PUBCHEM_ATOM_DEF_STEREO_COUNT>
1

> <PUBCHEM_ATOM_UDEF_STEREO_COUNT>
0

> <PUBCHEM_BOND_DEF_STEREO_COUNT>
0

> <PUBCHEM_BOND_UDEF_STEREO_COUNT>
0

> <PUBCHEM_ISOTOPIC_ATOM_COUNT>
0

> <PUBCHEM_COMPONENT_COUNT>
1

> <PUBCHEM_CACTVS_TAUTO_COUNT>
998

> <PUBCHEM_COORDINATE_TYPE>
1
5
255

> <PUBCHEM_BONDANNOTATIONS>
18  21  8
18  22  8
20  23  8
20  24  8
21  25  8
22  26  8
23  28  8
24  29  8
25  27  8
26  27  8
28  30  8
29  30  8
13  8  5

$$$$

