252
  -OEChem-07051212473D

 30 31  0     1  0  0  0  0  0999 V2000
    2.9562    0.2193    1.7786 O   0  0  0  0  0  0  0  0  0  0  0  0
    3.0955    0.0222   -1.8613 O   0  0  0  0  0  0  0  0  0  0  0  0
   -1.1898    2.5464    0.2318 O   0  0  0  0  0  0  0  0  0  0  0  0
   -0.5609   -2.1118    0.0241 N   0  0  0  0  0  0  0  0  0  0  0  0
    0.5375    0.4294    0.3003 N   0  0  0  0  0  0  0  0  0  0  0  0
   -2.7407   -1.0865   -0.1574 N   0  0  0  0  0  0  0  0  0  0  0  0
   -3.0592    1.2465   -0.0535 N   0  0  0  0  0  0  0  0  0  0  0  0
   -4.8667   -0.2306   -0.3442 N   0  0  0  0  0  0  0  0  0  0  0  0
    2.8021   -0.3749    0.5021 C   0  0  1  0  0  0  0  0  0  0  0  0
    1.3230   -0.6059    0.3223 C   0  0  0  0  0  0  0  0  0  0  0  0
    0.8688   -2.0456    0.1780 C   0  0  0  0  0  0  0  0  0  0  0  0
    3.3740    0.5510   -0.5654 C   0  0  1  0  0  0  0  0  0  0  0  0
   -1.3768   -1.0045   -0.0005 C   0  0  0  0  0  0  0  0  0  0  0  0
   -0.8094    0.2128    0.1357 C   0  0  0  0  0  0  0  0  0  0  0  0
    4.8752    0.7640   -0.4216 C   0  0  0  0  0  0  0  0  0  0  0  0
   -1.6966    1.4334    0.1098 C   0  0  0  0  0  0  0  0  0  0  0  0
   -3.5322    0.0348   -0.1788 C   0  0  0  0  0  0  0  0  0  0  0  0
    3.3188   -1.3405    0.4981 H   0  0  0  0  0  0  0  0  0  0  0  0
    1.3605   -2.4834   -0.6964 H   0  0  0  0  0  0  0  0  0  0  0  0
    1.1756   -2.6024    1.0690 H   0  0  0  0  0  0  0  0  0  0  0  0
    2.8897    1.5338   -0.5073 H   0  0  0  0  0  0  0  0  0  0  0  0
   -1.0088   -3.0156   -0.0802 H   0  0  0  0  0  0  0  0  0  0  0  0
    5.1294    1.2108    0.5441 H   0  0  0  0  0  0  0  0  0  0  0  0
    5.2476    1.4211   -1.2149 H   0  0  0  0  0  0  0  0  0  0  0  0
    5.4135   -0.1849   -0.5224 H   0  0  0  0  0  0  0  0  0  0  0  0
   -3.1353   -2.0150   -0.2574 H   0  0  0  0  0  0  0  0  0  0  0  0
    2.5634    1.1086    1.7515 H   0  0  0  0  0  0  0  0  0  0  0  0
    3.4471    0.6488   -2.5165 H   0  0  0  0  0  0  0  0  0  0  0  0
   -5.2096   -1.1803   -0.4391 H   0  0  0  0  0  0  0  0  0  0  0  0
   -5.5506    0.5175   -0.3759 H   0  0  0  0  0  0  0  0  0  0  0  0
  1  9  1  0  0  0  0
  1 27  1  0  0  0  0
  2 12  1  0  0  0  0
  2 28  1  0  0  0  0
  3 16  2  0  0  0  0
  4 11  1  0  0  0  0
  4 13  1  0  0  0  0
  4 22  1  0  0  0  0
  5 10  2  0  0  0  0
  5 14  1  0  0  0  0
  6 13  1  0  0  0  0
  6 17  1  0  0  0  0
  6 26  1  0  0  0  0
  7 16  1  0  0  0  0
  7 17  2  0  0  0  0
  8 17  1  0  0  0  0
  8 29  1  0  0  0  0
  8 30  1  0  0  0  0
  9 10  1  0  0  0  0
  9 12  1  0  0  0  0
  9 18  1  0  0  0  0
 10 11  1  0  0  0  0
 11 19  1  0  0  0  0
 11 20  1  0  0  0  0
 12 15  1  0  0  0  0
 12 21  1  0  0  0  0
 13 14  2  0  0  0  0
 14 16  1  0  0  0  0
 15 23  1  0  0  0  0
 15 24  1  0  0  0  0
 15 25  1  0  0  0  0
M  END
> <PUBCHEM_COMPOUND_CID>
252

> <PUBCHEM_CONFORMER_RMSD>
0.6

> <PUBCHEM_CONFORMER_DIVERSEORDER>
2
11
15
22
20
12
16
7
6
4
10
13
18
19
14
1
9
17
5
3
21
8

> <PUBCHEM_MMFF94_PARTIAL_CHARGES>
22
1 -0.68
10 0.33
11 0.43
12 0.28
13 0.2
14 0.19
16 0.77
17 0.55
2 -0.68
22 0.4
26 0.4
27 0.4
28 0.4
29 0.4
3 -0.57
30 0.4
4 -0.87
5 -0.62
6 -0.55
7 -0.66
8 -0.85
9 0.34

> <PUBCHEM_EFFECTIVE_ROTOR_COUNT>
2.4

> <PUBCHEM_PHARMACOPHORE_FEATURES>
13
1 1 acceptor
1 1 donor
1 2 acceptor
1 2 donor
1 3 acceptor
1 4 cation
1 4 donor
1 5 acceptor
1 6 donor
1 7 donor
1 8 donor
6 4 5 10 11 13 14 rings
6 6 7 13 14 16 17 rings

> <PUBCHEM_HEAVY_ATOM_COUNT>
17

> <PUBCHEM_ATOM_DEF_STEREO_COUNT>
0

> <PUBCHEM_ATOM_UDEF_STEREO_COUNT>
2

> <PUBCHEM_BOND_DEF_STEREO_COUNT>
0

> <PUBCHEM_BOND_UDEF_STEREO_COUNT>
0

> <PUBCHEM_ISOTOPIC_ATOM_COUNT>
0

> <PUBCHEM_COMPONENT_COUNT>
1

> <PUBCHEM_CACTVS_TAUTO_COUNT>
69

> <PUBCHEM_CONFORMER_ID>
000000FC00000002

> <PUBCHEM_MMFF94_ENERGY>
47.9862

> <PUBCHEM_FEATURE_SELFOVERLAP>
66.164

> <PUBCHEM_SHAPE_FINGERPRINT>
10498660 4 18410855511673615949
11132069 177 18261402121898969251
12119455 92 14261356825284929682
12236239 1 17775007873264370026
12403814 3 17489877033439771975
13538477 17 18130793309068537466
13583140 156 16415474926732000513
14289901 80 15482670165026534501
14993402 34 18272368659216473821
15342168 16 15840690869900568038
15775835 57 18060699481505069140
16945 1 18409452479233743659
18186145 218 17603871108561576450
20510252 161 18333729143293329688
20645476 183 17845934026597993362
20645477 70 16733534014437839830
21486144 27 16660657206373899538
21501502 16 18120655987843143611
21524375 3 18273212010848010194
23048698 100 17203613704859298416
23366157 5 17913204548851279986
23402539 116 18336270046425327486
23526113 38 17604133905437919814
23557571 272 18113331981633735893
23558518 356 17980482592050152979
23559900 14 18264212589715940078
2748010 2 17976548217112543379
4409770 3 15683100500890627442
474 4 17059486323830615124
4990 188 17675921014623959542
537710 114 18342738511833407629
53812653 8 18412826901709504354
7364860 26 18045225096310693098
77492 1 17775008976991889370

> <PUBCHEM_SHAPE_MULTIPOLES>
307.34
7.85
1.84
0.97
1.11
0
0.03
-1.8
1.46
-0.74
-0.11
1.08
-0.05
-0.31

> <PUBCHEM_SHAPE_SELFOVERLAP>
650.992

> <PUBCHEM_SHAPE_VOLUME>
169

> <PUBCHEM_COORDINATE_TYPE>
2
5
10

$$$$

