16773
  -OEChem-07051213132D

 34 34  0     0  0  0  0  0  0999 V2000
    2.0000   -1.5000    0.0000 Cl  0  0  0  0  0  0  0  0  0  0  0  0
    5.4641   -3.5000    0.0000 Cl  0  0  0  0  0  0  0  0  0  0  0  0
    4.5981    1.0000    0.0000 S   0  0  0  0  0  0  0  0  0  0  0  0
    3.7320   -0.5000    0.0000 S   0  0  0  0  0  0  0  0  0  0  0  0
    5.9641    0.6340    0.0000 S   0  0  0  0  0  0  0  0  0  0  0  0
    5.4641    1.5000    0.0000 P   0  0  0  0  0  0  0  0  0  0  0  0
    6.3301    2.0000    0.0000 O   0  0  0  0  0  0  0  0  0  0  0  0
    4.9641    2.3660    0.0000 O   0  0  0  0  0  0  0  0  0  0  0  0
    6.3301    3.0000    0.0000 C   0  0  0  0  0  0  0  0  0  0  0  0
    3.9641    2.3660    0.0000 C   0  0  0  0  0  0  0  0  0  0  0  0
    4.5981    0.0000    0.0000 C   0  0  0  0  0  0  0  0  0  0  0  0
    3.7320   -1.5000    0.0000 C   0  0  0  0  0  0  0  0  0  0  0  0
    7.1962    3.5000    0.0000 C   0  0  0  0  0  0  0  0  0  0  0  0
    3.4641    3.2320    0.0000 C   0  0  0  0  0  0  0  0  0  0  0  0
    2.8660   -2.0000    0.0000 C   0  0  0  0  0  0  0  0  0  0  0  0
    4.5981   -2.0000    0.0000 C   0  0  0  0  0  0  0  0  0  0  0  0
    4.5981   -3.0000    0.0000 C   0  0  0  0  0  0  0  0  0  0  0  0
    2.8660   -3.0000    0.0000 C   0  0  0  0  0  0  0  0  0  0  0  0
    3.7320   -3.5000    0.0000 C   0  0  0  0  0  0  0  0  0  0  0  0
    6.1181    3.5826    0.0000 H   0  0  0  0  0  0  0  0  0  0  0  0
    5.7196    2.8923    0.0000 H   0  0  0  0  0  0  0  0  0  0  0  0
    3.3815    2.1540    0.0000 H   0  0  0  0  0  0  0  0  0  0  0  0
    4.0718    1.7554    0.0000 H   0  0  0  0  0  0  0  0  0  0  0  0
    4.8101   -0.5826    0.0000 H   0  0  0  0  0  0  0  0  0  0  0  0
    5.2087    0.1077    0.0000 H   0  0  0  0  0  0  0  0  0  0  0  0
    4.0010    3.5420    0.0000 H   0  0  0  0  0  0  0  0  0  0  0  0
    3.1541    3.7690    0.0000 H   0  0  0  0  0  0  0  0  0  0  0  0
    2.9272    2.9220    0.0000 H   0  0  0  0  0  0  0  0  0  0  0  0
    7.5062    2.9631    0.0000 H   0  0  0  0  0  0  0  0  0  0  0  0
    7.7331    3.8100    0.0000 H   0  0  0  0  0  0  0  0  0  0  0  0
    6.8862    4.0369    0.0000 H   0  0  0  0  0  0  0  0  0  0  0  0
    5.1350   -1.6900    0.0000 H   0  0  0  0  0  0  0  0  0  0  0  0
    2.3291   -3.3100    0.0000 H   0  0  0  0  0  0  0  0  0  0  0  0
    3.7320   -4.1200    0.0000 H   0  0  0  0  0  0  0  0  0  0  0  0
  1 15  1  0  0  0  0
  2 17  1  0  0  0  0
  3  6  1  0  0  0  0
  3 11  1  0  0  0  0
  4 11  1  0  0  0  0
  4 12  1  0  0  0  0
  5  6  2  0  0  0  0
  6  7  1  0  0  0  0
  6  8  1  0  0  0  0
  7  9  1  0  0  0  0
  8 10  1  0  0  0  0
  9 13  1  0  0  0  0
  9 20  1  0  0  0  0
  9 21  1  0  0  0  0
 10 14  1  0  0  0  0
 10 22  1  0  0  0  0
 10 23  1  0  0  0  0
 11 24  1  0  0  0  0
 11 25  1  0  0  0  0
 12 15  2  0  0  0  0
 12 16  1  0  0  0  0
 13 29  1  0  0  0  0
 13 30  1  0  0  0  0
 13 31  1  0  0  0  0
 14 26  1  0  0  0  0
 14 27  1  0  0  0  0
 14 28  1  0  0  0  0
 15 18  1  0  0  0  0
 16 17  2  0  0  0  0
 16 32  1  0  0  0  0
 17 19  1  0  0  0  0
 18 19  2  0  0  0  0
 18 33  1  0  0  0  0
 19 34  1  0  0  0  0
M  END
> <PUBCHEM_COMPOUND_CID>
16773

> <PUBCHEM_COMPOUND_CANONICALIZED>
1

> <PUBCHEM_CACTVS_COMPLEXITY>
300

> <PUBCHEM_CACTVS_HBOND_ACCEPTOR>
5

> <PUBCHEM_CACTVS_HBOND_DONOR>
0

> <PUBCHEM_CACTVS_ROTATABLE_BOND>
8

> <PUBCHEM_CACTVS_SUBSKEYS>
AAADccBwMAJmAAAAAAAAAAAAAAAAAAAAAAAwAAAAAAAAAAABAAAAGgYAACAACAKg0CKyAYAAARiAACBCAAACAQAgDRAIiBgAAogIICKhExCAIAAggAAIiAcAAAAAAAAQABAAAIAAACAAIAABAAAAAAAAAA==

> <PUBCHEM_IUPAC_OPENEYE_NAME>
(2,5-dichlorophenyl)sulfanylmethylsulfanyl-diethoxy-thioxo-$l^{5}-phosphane

> <PUBCHEM_IUPAC_CAS_NAME>
[[(2,5-dichlorophenyl)thio]methylthio]-diethoxy-sulfanylidenephosphorane

> <PUBCHEM_IUPAC_NAME>
(2,5-dichlorophenyl)sulfanylmethylsulfanyl-diethoxy-sulfanylidene-$l^{5}-phosphane

> <PUBCHEM_IUPAC_SYSTEMATIC_NAME>
[2,5-bis(chloranyl)phenyl]sulfanylmethylsulfanyl-diethoxy-sulfanylidene-$l^{5}-phosphane

> <PUBCHEM_IUPAC_TRADITIONAL_NAME>
[[(2,5-dichlorophenyl)thio]methylthio]-diethoxy-thioxo-phosphorane

> <PUBCHEM_IUPAC_INCHI>
InChI=1S/C11H15Cl2O2PS3/c1-3-14-16(17,15-4-2)19-8-18-11-7-9(12)5-6-10(11)13/h5-7H,3-4,8H2,1-2H3

> <PUBCHEM_IUPAC_INCHIKEY>
GGNLTHFTYNDYNK-UHFFFAOYSA-N

> <PUBCHEM_XLOGP3>
6

> <PUBCHEM_EXACT_MASS>
375.934885

> <PUBCHEM_MOLECULAR_FORMULA>
C11H15Cl2O2PS3

> <PUBCHEM_MOLECULAR_WEIGHT>
377.310362

> <PUBCHEM_OPENEYE_CAN_SMILES>
CCOP(=S)(OCC)SCSC1=C(C=CC(=C1)Cl)Cl

> <PUBCHEM_OPENEYE_ISO_SMILES>
CCOP(=S)(OCC)SCSC1=C(C=CC(=C1)Cl)Cl

> <PUBCHEM_CACTVS_TPSA>
101

> <PUBCHEM_MONOISOTOPIC_WEIGHT>
375.934885

> <PUBCHEM_TOTAL_CHARGE>
0

> <PUBCHEM_HEAVY_ATOM_COUNT>
19

> <PUBCHEM_ATOM_DEF_STEREO_COUNT>
0

> <PUBCHEM_ATOM_UDEF_STEREO_COUNT>
0

> <PUBCHEM_BOND_DEF_STEREO_COUNT>
0

> <PUBCHEM_BOND_UDEF_STEREO_COUNT>
0

> <PUBCHEM_ISOTOPIC_ATOM_COUNT>
0

> <PUBCHEM_COMPONENT_COUNT>
1

> <PUBCHEM_CACTVS_TAUTO_COUNT>
1

> <PUBCHEM_COORDINATE_TYPE>
1
5
255

> <PUBCHEM_BONDANNOTATIONS>
12  15  8
12  16  8
15  18  8
16  17  8
17  19  8
18  19  8

$$$$

