4174
  -OEChem-07051212533D

 31 32  0     0  0  0  0  0  0999 V2000
    0.9339   -2.1697    1.3873 O   0  0  0  0  0  0  0  0  0  0  0  0
   -2.7086    1.5779   -1.1978 N   0  0  0  0  0  0  0  0  0  0  0  0
    3.5372    0.5188   -0.9154 N   0  0  0  0  0  0  0  0  0  0  0  0
   -0.6783   -1.4643   -0.2903 C   0  0  0  0  0  0  0  0  0  0  0  0
   -1.5851   -0.2332   -0.1467 C   0  0  0  0  0  0  0  0  0  0  0  0
   -0.2840   -1.8268   -1.7392 C   0  0  0  0  0  0  0  0  0  0  0  0
   -1.4700   -2.6807    0.2595 C   0  0  0  0  0  0  0  0  0  0  0  0
    0.6364   -1.3462    0.5198 C   0  0  0  0  0  0  0  0  0  0  0  0
    1.6157   -0.2525    0.2714 C   0  0  0  0  0  0  0  0  0  0  0  0
   -2.0417    0.1195    1.0917 C   0  0  0  0  0  0  0  0  0  0  0  0
   -1.9160    0.4842   -1.2552 C   0  0  0  0  0  0  0  0  0  0  0  0
   -2.8601    1.2392    1.1911 C   0  0  0  0  0  0  0  0  0  0  0  0
    1.5068    0.9282    0.9617 C   0  0  0  0  0  0  0  0  0  0  0  0
    2.6163   -0.4326   -0.6426 C   0  0  0  0  0  0  0  0  0  0  0  0
   -3.1611    1.9278    0.0271 C   0  0  0  0  0  0  0  0  0  0  0  0
    2.4359    1.9312    0.7085 C   0  0  0  0  0  0  0  0  0  0  0  0
    3.4228    1.6790   -0.2309 C   0  0  0  0  0  0  0  0  0  0  0  0
    0.2597   -1.0172   -2.2384 H   0  0  0  0  0  0  0  0  0  0  0  0
   -1.1626   -2.0672   -2.3496 H   0  0  0  0  0  0  0  0  0  0  0  0
    0.3744   -2.7043   -1.7590 H   0  0  0  0  0  0  0  0  0  0  0  0
   -2.4326   -2.7932   -0.2542 H   0  0  0  0  0  0  0  0  0  0  0  0
   -1.6748   -2.6054    1.3335 H   0  0  0  0  0  0  0  0  0  0  0  0
   -0.9113   -3.6140    0.1157 H   0  0  0  0  0  0  0  0  0  0  0  0
   -1.7803   -0.4255    1.9921 H   0  0  0  0  0  0  0  0  0  0  0  0
   -1.5857    0.2543   -2.2593 H   0  0  0  0  0  0  0  0  0  0  0  0
   -3.2465    1.5653    2.1500 H   0  0  0  0  0  0  0  0  0  0  0  0
    0.7289    1.0918    1.6999 H   0  0  0  0  0  0  0  0  0  0  0  0
    2.7339   -1.3550   -1.2010 H   0  0  0  0  0  0  0  0  0  0  0  0
   -3.7940    2.8088    0.0510 H   0  0  0  0  0  0  0  0  0  0  0  0
    2.3905    2.8794    1.2317 H   0  0  0  0  0  0  0  0  0  0  0  0
    4.1719    2.4285   -0.4641 H   0  0  0  0  0  0  0  0  0  0  0  0
  1  8  2  0  0  0  0
  2 11  1  0  0  0  0
  2 15  2  0  0  0  0
  3 14  1  0  0  0  0
  3 17  2  0  0  0  0
  4  5  1  0  0  0  0
  4  6  1  0  0  0  0
  4  7  1  0  0  0  0
  4  8  1  0  0  0  0
  5 10  1  0  0  0  0
  5 11  2  0  0  0  0
  6 18  1  0  0  0  0
  6 19  1  0  0  0  0
  6 20  1  0  0  0  0
  7 21  1  0  0  0  0
  7 22  1  0  0  0  0
  7 23  1  0  0  0  0
  8  9  1  0  0  0  0
  9 13  1  0  0  0  0
  9 14  2  0  0  0  0
 10 12  2  0  0  0  0
 10 24  1  0  0  0  0
 11 25  1  0  0  0  0
 12 15  1  0  0  0  0
 12 26  1  0  0  0  0
 13 16  2  0  0  0  0
 13 27  1  0  0  0  0
 14 28  1  0  0  0  0
 15 29  1  0  0  0  0
 16 17  1  0  0  0  0
 16 30  1  0  0  0  0
 17 31  1  0  0  0  0
M  END
> <PUBCHEM_COMPOUND_CID>
4174

> <PUBCHEM_CONFORMER_RMSD>
0.6

> <PUBCHEM_CONFORMER_DIVERSEORDER>
1
57
22
25
45
40
28
6
16
43
9
7
56
60
20
44
48
35
27
8
14
58
41
38
53
59
24
29
47
21
39
18
5
26
36
42
32
46
15
23
10
37
55
11
19
54
3
30
51
12
2
31
13
49
33
52
4
17
50
34

> <PUBCHEM_MMFF94_PARTIAL_CHARGES>
23
1 -0.57
10 -0.15
11 0.16
12 -0.15
13 -0.15
14 0.16
15 0.16
16 -0.15
17 0.16
2 -0.62
24 0.15
25 0.15
26 0.15
27 0.15
28 0.15
29 0.15
3 -0.62
30 0.15
31 0.15
4 0.2
5 -0.14
8 0.42
9 0.09

> <PUBCHEM_EFFECTIVE_ROTOR_COUNT>
3

> <PUBCHEM_PHARMACOPHORE_FEATURES>
6
1 1 acceptor
1 2 acceptor
1 3 acceptor
3 4 6 7 hydrophobe
6 2 5 10 11 12 15 rings
6 3 9 13 14 16 17 rings

> <PUBCHEM_HEAVY_ATOM_COUNT>
17

> <PUBCHEM_ATOM_DEF_STEREO_COUNT>
0

> <PUBCHEM_ATOM_UDEF_STEREO_COUNT>
0

> <PUBCHEM_BOND_DEF_STEREO_COUNT>
0

> <PUBCHEM_BOND_UDEF_STEREO_COUNT>
0

> <PUBCHEM_ISOTOPIC_ATOM_COUNT>
0

> <PUBCHEM_COMPONENT_COUNT>
1

> <PUBCHEM_CACTVS_TAUTO_COUNT>
1

> <PUBCHEM_CONFORMER_ID>
0000104E00000001

> <PUBCHEM_MMFF94_ENERGY>
65.2127

> <PUBCHEM_FEATURE_SELFOVERLAP>
30.446

> <PUBCHEM_SHAPE_FINGERPRINT>
10165383 225 18199164330385616700
10498660 4 18343872103895205237
12173636 292 17967806116055706457
12202030 40 6554250948987230317
12382932 28 12463572897838834485
12808571 1 17749381620196148019
128993 33 18412259523697938092
13134695 92 17550977091673402898
13294875 104 18265915681819269616
13693222 15 11671788130795894900
13693222 7 18337682935667197352
13764800 53 18272371914980947723
14142880 1 18196948685828253245
14386348 128 18412818079947145508
15775835 57 18411698807026991669
16945 1 18339363096914200930
17134986 127 18410861000636266109
17357990 137 17970638595278928027
18186145 218 18335692854381587628
18219364 16 18411129264462444417
18981168 100 18114752537877500466
20510252 161 17981329984470396442
20671657 53 6194837051559594144
21296965 12 18411133619585461279
21524375 3 18408888464054612351
21731516 1 9511177520513659505
22094290 62 18338802320377534378
22802520 49 18042396946419137832
23175994 123 17409653589369617107
23419403 2 17327958621295422602
23557571 272 17905325126693759622
23559900 14 18260824909366648412
238 59 18051159143443889093
25 1 18189324822371849416
2637199 183 18188195615361417841
2748010 2 18042404638610567504
305870 269 18130518478453505186
3060560 45 17970072351243801085
350125 39 18342175570106359482
430814 3 18413105082404081603
5262128 65 15213316200364094889
549884 4 17895202124662789256
6442390 28 18271226249719440579
74978 22 18335144185004352634
81228 2 17910389494093607035

> <PUBCHEM_SHAPE_MULTIPOLES>
334.02
5.33
2.65
1.38
2.02
0.77
0.17
-3.92
0.56
-0.74
-0.19
-0.36
0.2
0.09

> <PUBCHEM_SHAPE_SELFOVERLAP>
719.039

> <PUBCHEM_SHAPE_VOLUME>
183.3

> <PUBCHEM_COORDINATE_TYPE>
2
5
10

$$$$

