17395566
  -OEChem-06241222513D

 40 42  0     1  0  0  0  0  0999 V2000
    3.9607    0.2049    1.5447 O   0  0  0  0  0  0  0  0  0  0  0  0
    0.8159   -2.4886    1.0608 O   0  0  0  0  0  0  0  0  0  0  0  0
    0.3975    3.0698   -1.1022 O   0  0  0  0  0  0  0  0  0  0  0  0
    2.5436    0.4804   -0.3100 N   0  0  0  0  0  0  0  0  0  0  0  0
   -0.2156   -2.2585   -1.0134 N   0  0  0  0  0  0  0  0  0  0  0  0
    2.1185   -1.7611   -0.8039 C   0  0  1  0  0  0  0  0  0  0  0  0
    1.9797   -0.3507   -1.3483 C   0  0  0  0  0  0  0  0  0  0  0  0
    3.2642   -1.6870    0.2024 C   0  0  0  0  0  0  0  0  0  0  0  0
    3.3156   -0.2303    0.6018 C   0  0  0  0  0  0  0  0  0  0  0  0
    2.3973    1.9201   -0.3361 C   0  0  0  0  0  0  0  0  0  0  0  0
    0.8512   -2.2016   -0.1329 C   0  0  0  0  0  0  0  0  0  0  0  0
    0.9753    2.3447   -0.1090 C   0  0  0  0  0  0  0  0  0  0  0  0
   -1.5426   -2.6758   -0.6217 C   0  0  0  0  0  0  0  0  0  0  0  0
    0.0906    2.1535    0.9268 C   0  0  0  0  0  0  0  0  0  0  0  0
   -2.3824   -1.5193   -0.1620 C   0  0  0  0  0  0  0  0  0  0  0  0
   -1.1075    2.8030    0.5457 C   0  0  0  0  0  0  0  0  0  0  0  0
   -0.8699    3.3448   -0.6961 C   0  0  0  0  0  0  0  0  0  0  0  0
   -2.3850   -1.1505    1.1833 C   0  0  0  0  0  0  0  0  0  0  0  0
   -3.1598   -0.8133   -1.0802 C   0  0  0  0  0  0  0  0  0  0  0  0
   -3.1651   -0.0759    1.6105 C   0  0  0  0  0  0  0  0  0  0  0  0
   -3.9398    0.2614   -0.6529 C   0  0  0  0  0  0  0  0  0  0  0  0
   -3.9424    0.6300    0.6925 C   0  0  0  0  0  0  0  0  0  0  0  0
    2.3350   -2.4839   -1.5993 H   0  0  0  0  0  0  0  0  0  0  0  0
    0.9551   -0.0373   -1.5651 H   0  0  0  0  0  0  0  0  0  0  0  0
    2.5924   -0.2149   -2.2465 H   0  0  0  0  0  0  0  0  0  0  0  0
    4.2149   -1.9223   -0.2897 H   0  0  0  0  0  0  0  0  0  0  0  0
    3.1606   -2.3245    1.0835 H   0  0  0  0  0  0  0  0  0  0  0  0
    3.0290    2.3632    0.4415 H   0  0  0  0  0  0  0  0  0  0  0  0
    2.7620    2.2779   -1.3053 H   0  0  0  0  0  0  0  0  0  0  0  0
   -0.0721   -2.0141   -1.9889 H   0  0  0  0  0  0  0  0  0  0  0  0
   -2.0031   -3.1661   -1.4869 H   0  0  0  0  0  0  0  0  0  0  0  0
   -1.4677   -3.4310    0.1697 H   0  0  0  0  0  0  0  0  0  0  0  0
    0.2838    1.6159    1.8441 H   0  0  0  0  0  0  0  0  0  0  0  0
   -2.0235    2.8829    1.1115 H   0  0  0  0  0  0  0  0  0  0  0  0
   -1.4654    3.9264   -1.3844 H   0  0  0  0  0  0  0  0  0  0  0  0
   -1.7857   -1.6920    1.9100 H   0  0  0  0  0  0  0  0  0  0  0  0
   -3.1645   -1.0892   -2.1313 H   0  0  0  0  0  0  0  0  0  0  0  0
   -3.1663    0.2119    2.6577 H   0  0  0  0  0  0  0  0  0  0  0  0
   -4.5440    0.8122   -1.3678 H   0  0  0  0  0  0  0  0  0  0  0  0
   -4.5490    1.4672    1.0248 H   0  0  0  0  0  0  0  0  0  0  0  0
  1  9  2  0  0  0  0
  2 11  2  0  0  0  0
  3 12  1  0  0  0  0
  3 17  1  0  0  0  0
  4  7  1  0  0  0  0
  4  9  1  0  0  0  0
  4 10  1  0  0  0  0
  5 11  1  0  0  0  0
  5 13  1  0  0  0  0
  5 30  1  0  0  0  0
  6  7  1  0  0  0  0
  6  8  1  0  0  0  0
  6 11  1  0  0  0  0
  6 23  1  0  0  0  0
  7 24  1  0  0  0  0
  7 25  1  0  0  0  0
  8  9  1  0  0  0  0
  8 26  1  0  0  0  0
  8 27  1  0  0  0  0
 10 12  1  0  0  0  0
 10 28  1  0  0  0  0
 10 29  1  0  0  0  0
 12 14  2  0  0  0  0
 13 15  1  0  0  0  0
 13 31  1  0  0  0  0
 13 32  1  0  0  0  0
 14 16  1  0  0  0  0
 14 33  1  0  0  0  0
 15 18  2  0  0  0  0
 15 19  1  0  0  0  0
 16 17  2  0  0  0  0
 16 34  1  0  0  0  0
 17 35  1  0  0  0  0
 18 20  1  0  0  0  0
 18 36  1  0  0  0  0
 19 21  2  0  0  0  0
 19 37  1  0  0  0  0
 20 22  2  0  0  0  0
 20 38  1  0  0  0  0
 21 22  1  0  0  0  0
 21 39  1  0  0  0  0
 22 40  1  0  0  0  0
M  END
> <PUBCHEM_COMPOUND_CID>
17395566

> <PUBCHEM_CONFORMER_RMSD>
1

> <PUBCHEM_CONFORMER_DIVERSEORDER>
1
130
256
6
448
436
270
212
222
475
426
304
105
502
46
413
142
375
128
122
15
197
377
33
30
288
112
201
39
437
140
78
272
207
371
237
4
218
471
37
95
462
77
153
43
217
72
85
3
231
106
113
34
90
540
259
457
146
239
24
519
97
50
261
88
265
12
488
168
431
175
352
228
21
117
208
427
166
319
317
286
11
366
35
13
339
124
98
59
416
104
420
96
16
161
242
184
179
389
2
341
372
5
19
305
163
7
89
513
71
28
174
351
58
135
181
118
100
10
388
8
48
459
42
468
54
159
51
342
26
148
226
260

> <PUBCHEM_MMFF94_PARTIAL_CHARGES>
31
1 -0.57
10 0.48
11 0.57
12 -0.04
13 0.44
14 -0.15
15 -0.14
16 -0.15
17 -0.01
18 -0.15
19 -0.15
2 -0.57
20 -0.15
21 -0.15
22 -0.15
3 -0.28
30 0.37
33 0.15
34 0.15
35 0.15
36 0.15
37 0.15
38 0.15
39 0.15
4 -0.66
40 0.15
5 -0.73
6 0.06
7 0.3
8 0.06
9 0.57

> <PUBCHEM_EFFECTIVE_ROTOR_COUNT>
6.8

> <PUBCHEM_PHARMACOPHORE_FEATURES>
7
1 1 acceptor
1 2 acceptor
1 3 acceptor
1 5 donor
5 3 12 14 16 17 rings
5 4 6 7 8 9 rings
6 15 18 19 20 21 22 rings

> <PUBCHEM_HEAVY_ATOM_COUNT>
22

> <PUBCHEM_ATOM_DEF_STEREO_COUNT>
0

> <PUBCHEM_ATOM_UDEF_STEREO_COUNT>
1

> <PUBCHEM_BOND_DEF_STEREO_COUNT>
0

> <PUBCHEM_BOND_UDEF_STEREO_COUNT>
0

> <PUBCHEM_ISOTOPIC_ATOM_COUNT>
0

> <PUBCHEM_COMPONENT_COUNT>
1

> <PUBCHEM_CACTVS_TAUTO_COUNT>
4

> <PUBCHEM_CONFORMER_ID>
01096F6E00000001

> <PUBCHEM_MMFF94_ENERGY>
33.9907

> <PUBCHEM_FEATURE_SELFOVERLAP>
35.52

> <PUBCHEM_SHAPE_FINGERPRINT>
104564 63 18194390319601102012
10759866 29 17988633108654176260
12035759 4 18127385935703863660
12156800 1 14753432529936872057
12422481 6 17760051376044451865
12539773 59 17603584110895174453
12553582 1 18410281506553391973
12596599 1 17676478463056662279
128993 33 17619045258389193725
13075007 39 17914301686221445881
13122387 1 16465576733730711917
13140716 1 18338234847443716376
13965767 371 18042957855883597731
14081887 123 18115880757193556256
14790565 3 17836084473331688412
17093844 170 18266748067555656913
17357779 13 18335988682627266388
18219364 16 18342175527710178055
192875 21 17901125035077693839
19930381 70 17907018370679957703
20621476 7 18264757938988133337
20905425 154 18122061172034893519
21197605 99 17904188584554848649
21236236 1 18121777498826698814
22113638 7 18336552629392889053
22749437 52 18188493441352347563
238 59 17834127350859327679
3052486 1 18126277782533081974
35225 105 17545601613927603477
5939293 188 18336262323689247436
7832392 63 18334853883532855934
81228 2 18195796590720615545

> <PUBCHEM_SHAPE_MULTIPOLES>
425.18
6.45
4.03
1.34
1.17
2.05
-0.19
-1.25
-1.21
-0.22
0.71
0.19
-0.06
-0.21

> <PUBCHEM_SHAPE_SELFOVERLAP>
911.636

> <PUBCHEM_SHAPE_VOLUME>
236.9

> <PUBCHEM_COORDINATE_TYPE>
2
5
10

$$$$

