5280566
  -OEChem-07051212482D

 20 19  0     0  0  0  0  0  0999 V2000
    2.0000    1.9400    0.0000 O   0  0  0  0  0  0  0  0  0  0  0  0
    3.7320    1.9400    0.0000 O   0  0  0  0  0  0  0  0  0  0  0  0
    5.4641   -0.0600    0.0000 O   0  0  0  0  0  0  0  0  0  0  0  0
    7.1962   -1.0600    0.0000 O   0  0  0  0  0  0  0  0  0  0  0  0
    6.3301   -2.5600    0.0000 O   0  0  0  0  0  0  0  0  0  0  0  0
    3.7320   -0.0600    0.0000 C   0  0  0  0  0  0  0  0  0  0  0  0
    2.8660    0.4400    0.0000 C   0  0  0  0  0  0  0  0  0  0  0  0
    3.7320   -1.0600    0.0000 C   0  0  0  0  0  0  0  0  0  0  0  0
    2.8660    1.4400    0.0000 C   0  0  0  0  0  0  0  0  0  0  0  0
    4.5981   -1.5600    0.0000 C   0  0  0  0  0  0  0  0  0  0  0  0
    5.4641   -1.0600    0.0000 C   0  0  0  0  0  0  0  0  0  0  0  0
    6.3301   -1.5600    0.0000 C   0  0  0  0  0  0  0  0  0  0  0  0
    4.3426   -0.1677    0.0000 H   0  0  0  0  0  0  0  0  0  0  0  0
    3.9441    0.5226    0.0000 H   0  0  0  0  0  0  0  0  0  0  0  0
    2.2554    0.5477    0.0000 H   0  0  0  0  0  0  0  0  0  0  0  0
    2.6540   -0.1426    0.0000 H   0  0  0  0  0  0  0  0  0  0  0  0
    3.1951   -1.3700    0.0000 H   0  0  0  0  0  0  0  0  0  0  0  0
    4.5981   -2.1800    0.0000 H   0  0  0  0  0  0  0  0  0  0  0  0
    2.0000    2.5600    0.0000 H   0  0  0  0  0  0  0  0  0  0  0  0
    7.7331   -1.3700    0.0000 H   0  0  0  0  0  0  0  0  0  0  0  0
  1  9  1  0  0  0  0
  1 19  1  0  0  0  0
  2  9  2  0  0  0  0
  3 11  2  0  0  0  0
  4 12  1  0  0  0  0
  4 20  1  0  0  0  0
  5 12  2  0  0  0  0
  6  7  1  0  0  0  0
  6  8  1  0  0  0  0
  6 13  1  0  0  0  0
  6 14  1  0  0  0  0
  7  9  1  0  0  0  0
  7 15  1  0  0  0  0
  7 16  1  0  0  0  0
  8 10  2  0  0  0  0
  8 17  1  0  0  0  0
 10 11  1  0  0  0  0
 10 18  1  0  0  0  0
 11 12  1  0  0  0  0
M  END
> <PUBCHEM_COMPOUND_CID>
5280566

> <PUBCHEM_COMPOUND_CANONICALIZED>
1

> <PUBCHEM_CACTVS_COMPLEXITY>
228

> <PUBCHEM_CACTVS_HBOND_ACCEPTOR>
5

> <PUBCHEM_CACTVS_HBOND_DONOR>
2

> <PUBCHEM_CACTVS_ROTATABLE_BOND>
5

> <PUBCHEM_CACTVS_SUBSKEYS>
AAADccBgOAAAAAAAAAAAAAAAAAAAAAAAAAAAAAAAAAAAAAAAAAAAGgAACAAACASAgAAACAAAAgCIAKDSCAIAAAAgAAAICAFAAEgAABAAAQAAQAAEwAAIAYIAAAAAAAAAAAAAAAAAAAAAAAAAAAAAAAAAAA==

> <PUBCHEM_IUPAC_OPENEYE_NAME>
(Z)-2-oxohept-3-enedioic acid

> <PUBCHEM_IUPAC_CAS_NAME>
(Z)-2-oxo-3-heptenedioic acid

> <PUBCHEM_IUPAC_NAME>
(Z)-2-oxohept-3-enedioic acid

> <PUBCHEM_IUPAC_SYSTEMATIC_NAME>
(Z)-2-oxidanylidenehept-3-enedioic acid

> <PUBCHEM_IUPAC_TRADITIONAL_NAME>
(Z)-2-ketohept-3-enedioic acid

> <PUBCHEM_IUPAC_INCHI>
InChI=1S/C7H8O5/c8-5(7(11)12)3-1-2-4-6(9)10/h1,3H,2,4H2,(H,9,10)(H,11,12)/b3-1-

> <PUBCHEM_IUPAC_INCHIKEY>
HYVSZVZMTYIHKF-IWQZZHSRSA-N

> <PUBCHEM_XLOGP3_AA>
-0.1

> <PUBCHEM_EXACT_MASS>
172.037173

> <PUBCHEM_MOLECULAR_FORMULA>
C7H8O5

> <PUBCHEM_MOLECULAR_WEIGHT>
172.13542

> <PUBCHEM_OPENEYE_CAN_SMILES>
C(CC(=O)O)C=CC(=O)C(=O)O

> <PUBCHEM_OPENEYE_ISO_SMILES>
C(CC(=O)O)/C=C\C(=O)C(=O)O

> <PUBCHEM_CACTVS_TPSA>
91.7

> <PUBCHEM_MONOISOTOPIC_WEIGHT>
172.037173

> <PUBCHEM_TOTAL_CHARGE>
0

> <PUBCHEM_HEAVY_ATOM_COUNT>
12

> <PUBCHEM_ATOM_DEF_STEREO_COUNT>
0

> <PUBCHEM_ATOM_UDEF_STEREO_COUNT>
0

> <PUBCHEM_BOND_DEF_STEREO_COUNT>
1

> <PUBCHEM_BOND_UDEF_STEREO_COUNT>
0

> <PUBCHEM_ISOTOPIC_ATOM_COUNT>
0

> <PUBCHEM_COMPONENT_COUNT>
1

> <PUBCHEM_CACTVS_TAUTO_COUNT>
6

> <PUBCHEM_COORDINATE_TYPE>
1
5
255

$$$$

