151491
  -OEChem-07051212452D

 20 20  0     1  0  0  0  0  0999 V2000
    2.5369   -1.9594    0.0000 O   0  0  0  0  0  0  0  0  0  0  0  0
    4.2690   -1.9594    0.0000 O   0  0  0  0  0  0  0  0  0  0  0  0
    4.2690    1.0406    0.0000 N   0  0  0  0  0  0  0  0  0  0  0  0
    2.5369    0.0406    0.0000 N   0  0  0  0  0  0  0  0  0  0  0  0
    5.0780    1.6284    0.0000 N   0  0  0  0  0  0  0  0  0  0  0  0
    4.2690    0.0406    0.0000 C   0  0  0  0  0  0  0  0  0  0  0  0
    3.4030   -0.4594    0.0000 C   0  0  1  0  0  0  0  0  0  0  0  0
    3.4600    1.6284    0.0000 C   0  0  0  0  0  0  0  0  0  0  0  0
    3.4030   -1.4594    0.0000 C   0  0  0  0  0  0  0  0  0  0  0  0
    3.7690    2.5794    0.0000 C   0  0  0  0  0  0  0  0  0  0  0  0
    4.7690    2.5794    0.0000 C   0  0  0  0  0  0  0  0  0  0  0  0
    4.4810   -0.5420    0.0000 H   0  0  0  0  0  0  0  0  0  0  0  0
    4.8796    0.1482    0.0000 H   0  0  0  0  0  0  0  0  0  0  0  0
    3.4030    0.1606    0.0000 H   0  0  0  0  0  0  0  0  0  0  0  0
    2.8703    1.4368    0.0000 H   0  0  0  0  0  0  0  0  0  0  0  0
    2.0000   -0.2694    0.0000 H   0  0  0  0  0  0  0  0  0  0  0  0
    2.5369    0.6606    0.0000 H   0  0  0  0  0  0  0  0  0  0  0  0
    3.4046    3.0810    0.0000 H   0  0  0  0  0  0  0  0  0  0  0  0
    5.1334    3.0810    0.0000 H   0  0  0  0  0  0  0  0  0  0  0  0
    2.5369   -2.5794    0.0000 H   0  0  0  0  0  0  0  0  0  0  0  0
  1  9  1  0  0  0  0
  1 20  1  0  0  0  0
  2  9  2  0  0  0  0
  3  5  1  0  0  0  0
  3  6  1  0  0  0  0
  3  8  1  0  0  0  0
  7  4  1  1  0  0  0
  4 16  1  0  0  0  0
  4 17  1  0  0  0  0
  5 11  2  0  0  0  0
  6  7  1  0  0  0  0
  6 12  1  0  0  0  0
  6 13  1  0  0  0  0
  7  9  1  0  0  0  0
  7 14  1  0  0  0  0
  8 10  2  0  0  0  0
  8 15  1  0  0  0  0
 10 11  1  0  0  0  0
 10 18  1  0  0  0  0
 11 19  1  0  0  0  0
M  END
> <PUBCHEM_COMPOUND_CID>
151491

> <PUBCHEM_COMPOUND_CANONICALIZED>
1

> <PUBCHEM_CACTVS_COMPLEXITY>
151

> <PUBCHEM_CACTVS_HBOND_ACCEPTOR>
4

> <PUBCHEM_CACTVS_HBOND_DONOR>
2

> <PUBCHEM_CACTVS_ROTATABLE_BOND>
3

> <PUBCHEM_CACTVS_SUBSKEYS>
AAADccBjMAAAAAAAAAAAAAAAAAAAAWAAAAAAAAAAAAAAAAABgAAAHgAYCAAACCjBkgQ8iJJIAgCqADD3TACQBAARggAYUKG4ZBACQIhAQUAUxAgCGADAAAAAAAAAAAAAAAAAAAAAAAAAAAAAAAAAAAAAAA==

> <PUBCHEM_IUPAC_OPENEYE_NAME>
(2S)-2-amino-3-pyrazol-1-yl-propanoic acid

> <PUBCHEM_IUPAC_CAS_NAME>
(2S)-2-amino-3-(1-pyrazolyl)propanoic acid

> <PUBCHEM_IUPAC_NAME>
(2S)-2-amino-3-pyrazol-1-ylpropanoic acid

> <PUBCHEM_IUPAC_SYSTEMATIC_NAME>
(2S)-2-azanyl-3-pyrazol-1-yl-propanoic acid

> <PUBCHEM_IUPAC_TRADITIONAL_NAME>
(2S)-2-amino-3-pyrazol-1-yl-propionic acid

> <PUBCHEM_IUPAC_INCHI>
InChI=1S/C6H9N3O2/c7-5(6(10)11)4-9-3-1-2-8-9/h1-3,5H,4,7H2,(H,10,11)/t5-/m0/s1

> <PUBCHEM_IUPAC_INCHIKEY>
PIGOPELHGLPKLL-YFKPBYRVSA-N

> <PUBCHEM_XLOGP3_AA>
-3.4

> <PUBCHEM_EXACT_MASS>
155.069477

> <PUBCHEM_MOLECULAR_FORMULA>
C6H9N3O2

> <PUBCHEM_MOLECULAR_WEIGHT>
155.15456

> <PUBCHEM_OPENEYE_CAN_SMILES>
C1=CN(N=C1)CC(C(=O)O)N

> <PUBCHEM_OPENEYE_ISO_SMILES>
C1=CN(N=C1)C[C@@H](C(=O)O)N

> <PUBCHEM_CACTVS_TPSA>
81.1

> <PUBCHEM_MONOISOTOPIC_WEIGHT>
155.069477

> <PUBCHEM_TOTAL_CHARGE>
0

> <PUBCHEM_HEAVY_ATOM_COUNT>
11

> <PUBCHEM_ATOM_DEF_STEREO_COUNT>
1

> <PUBCHEM_ATOM_UDEF_STEREO_COUNT>
0

> <PUBCHEM_BOND_DEF_STEREO_COUNT>
0

> <PUBCHEM_BOND_UDEF_STEREO_COUNT>
0

> <PUBCHEM_ISOTOPIC_ATOM_COUNT>
0

> <PUBCHEM_COMPONENT_COUNT>
1

> <PUBCHEM_CACTVS_TAUTO_COUNT>
1

> <PUBCHEM_COORDINATE_TYPE>
1
5
255

> <PUBCHEM_BONDANNOTATIONS>
10  11  8
3  5  8
3  8  8
7  4  5
5  11  8
8  10  8

$$$$

