5282236
  -OEChem-07051213033D

 92 95  0     1  0  0  0  0  0999 V2000
    0.4522    3.9115    0.1370 O   0  0  0  0  0  0  0  0  0  0  0  0
    1.3482   -1.0992   -1.0244 O   0  0  0  0  0  0  0  0  0  0  0  0
   -2.2088    2.4496    1.7116 O   0  0  0  0  0  0  0  0  0  0  0  0
   -3.4211    3.2430   -0.5510 O   0  0  0  0  0  0  0  0  0  0  0  0
    8.1754   -0.3043   -2.4162 O   0  0  0  0  0  0  0  0  0  0  0  0
   -3.3793    1.0762   -1.3403 O   0  0  0  0  0  0  0  0  0  0  0  0
    0.7192    1.5018    0.5504 C   0  0  1  0  0  0  0  0  0  0  0  0
    2.0973    1.7346    1.2086 C   0  0  2  0  0  0  0  0  0  0  0  0
    3.0615    0.5493    1.0515 C   0  0  1  0  0  0  0  0  0  0  0  0
    3.3036    0.2955   -0.4782 C   0  0  2  0  0  0  0  0  0  0  0  0
    0.0181    2.8281    0.9539 C   0  0  1  0  0  0  0  0  0  0  0  0
    0.9567    1.2922   -0.9586 C   0  0  0  0  0  0  0  0  0  0  0  0
    1.7422    2.2162    2.6128 C   0  0  0  0  0  0  0  0  0  0  0  0
    1.9617    0.1593   -1.2652 C   0  0  2  0  0  0  0  0  0  0  0  0
    4.3748   -0.8382   -0.7328 C   0  0  1  0  0  0  0  0  0  0  0  0
    0.4731    3.0701    2.4112 C   0  0  0  0  0  0  0  0  0  0  0  0
    4.3849    0.8321    1.7851 C   0  0  0  0  0  0  0  0  0  0  0  0
   -0.0553    0.2991    1.1575 C   0  0  0  0  0  0  0  0  0  0  0  0
    5.4217   -0.2593    1.5505 C   0  0  0  0  0  0  0  0  0  0  0  0
    5.6267   -0.4734    0.0728 C   0  0  0  0  0  0  0  0  0  0  0  0
   -1.4728    2.8192    0.7979 C   0  0  0  0  0  0  0  0  0  0  0  0
    3.9156   -2.2476   -0.2956 C   0  0  0  0  0  0  0  0  0  0  0  0
    4.6866   -0.9359   -2.2192 C   0  0  0  0  0  0  0  0  0  0  0  0
    6.8409   -0.3006   -0.4727 C   0  0  0  0  0  0  0  0  0  0  0  0
   -2.0100    3.2872   -0.5378 C   0  0  0  0  0  0  0  0  0  0  0  0
    5.8927   -0.7634   -2.7688 C   0  0  0  0  0  0  0  0  0  0  0  0
    7.0603   -0.4467   -1.9261 C   0  0  0  0  0  0  0  0  0  0  0  0
   -3.9863    2.0695   -0.9772 C   0  0  0  0  0  0  0  0  0  0  0  0
   -5.4603    2.2177   -0.9043 C   0  0  0  0  0  0  0  0  0  0  0  0
   -6.3574    1.2623   -1.2119 C   0  0  0  0  0  0  0  0  0  0  0  0
   -6.0370   -0.1147   -1.7507 C   0  0  0  0  0  0  0  0  0  0  0  0
   -7.8303    1.5470   -1.0543 C   0  0  0  0  0  0  0  0  0  0  0  0
   -5.7958   -1.1284   -0.6285 C   0  0  0  0  0  0  0  0  0  0  0  0
   -5.4518   -2.4811   -1.1869 C   0  0  0  0  0  0  0  0  0  0  0  0
   -4.3542   -3.2227   -0.9402 C   0  0  0  0  0  0  0  0  0  0  0  0
   -3.1992   -2.7903   -0.0616 C   0  0  0  0  0  0  0  0  0  0  0  0
   -4.1941   -4.5719   -1.5929 C   0  0  0  0  0  0  0  0  0  0  0  0
   -3.3704   -3.1661    1.4162 C   0  0  0  0  0  0  0  0  0  0  0  0
   -2.2156   -2.7117    2.2652 C   0  0  0  0  0  0  0  0  0  0  0  0
   -1.0403   -3.3349    2.4731 C   0  0  0  0  0  0  0  0  0  0  0  0
    0.0749   -2.8210    3.3383 C   0  0  0  0  0  0  0  0  0  0  0  0
   -0.7485   -4.6504    1.8017 C   0  0  0  0  0  0  0  0  0  0  0  0
    2.5816    2.5904    0.7095 H   0  0  0  0  0  0  0  0  0  0  0  0
    2.6211   -0.3442    1.5059 H   0  0  0  0  0  0  0  0  0  0  0  0
    3.7544    1.2268   -0.8629 H   0  0  0  0  0  0  0  0  0  0  0  0
    1.3474    2.2118   -1.4109 H   0  0  0  0  0  0  0  0  0  0  0  0
    0.0033    1.0733   -1.4530 H   0  0  0  0  0  0  0  0  0  0  0  0
    1.5365    1.3755    3.2849 H   0  0  0  0  0  0  0  0  0  0  0  0
    2.5477    2.8077    3.0601 H   0  0  0  0  0  0  0  0  0  0  0  0
    2.1733    0.2009   -2.3394 H   0  0  0  0  0  0  0  0  0  0  0  0
   -0.2721    2.7750    3.1575 H   0  0  0  0  0  0  0  0  0  0  0  0
    0.7085    4.1259    2.5888 H   0  0  0  0  0  0  0  0  0  0  0  0
    4.2048    0.9184    2.8632 H   0  0  0  0  0  0  0  0  0  0  0  0
    4.7935    1.7968    1.4558 H   0  0  0  0  0  0  0  0  0  0  0  0
   -0.9691    0.1005    0.5855 H   0  0  0  0  0  0  0  0  0  0  0  0
    0.5253   -0.6242    1.1619 H   0  0  0  0  0  0  0  0  0  0  0  0
   -0.3565    0.4709    2.1959 H   0  0  0  0  0  0  0  0  0  0  0  0
    5.1001   -1.1948    2.0223 H   0  0  0  0  0  0  0  0  0  0  0  0
    6.3567    0.0273    2.0473 H   0  0  0  0  0  0  0  0  0  0  0  0
    3.1863   -2.6821   -0.9878 H   0  0  0  0  0  0  0  0  0  0  0  0
    4.7613   -2.9474   -0.2672 H   0  0  0  0  0  0  0  0  0  0  0  0
    3.4628   -2.2528    0.7006 H   0  0  0  0  0  0  0  0  0  0  0  0
    3.8694   -1.1938   -2.8891 H   0  0  0  0  0  0  0  0  0  0  0  0
    0.1760    4.7441    0.5572 H   0  0  0  0  0  0  0  0  0  0  0  0
    0.5454   -1.1482   -1.5706 H   0  0  0  0  0  0  0  0  0  0  0  0
    7.7041   -0.0320    0.1271 H   0  0  0  0  0  0  0  0  0  0  0  0
   -1.7444    4.3376   -0.6867 H   0  0  0  0  0  0  0  0  0  0  0  0
   -1.5793    2.7067   -1.3579 H   0  0  0  0  0  0  0  0  0  0  0  0
    6.0452   -0.8623   -3.8372 H   0  0  0  0  0  0  0  0  0  0  0  0
   -5.8147    3.1798   -0.5405 H   0  0  0  0  0  0  0  0  0  0  0  0
   -6.8661   -0.4545   -2.3865 H   0  0  0  0  0  0  0  0  0  0  0  0
   -5.1745   -0.0749   -2.4258 H   0  0  0  0  0  0  0  0  0  0  0  0
   -8.3361    1.4772   -2.0230 H   0  0  0  0  0  0  0  0  0  0  0  0
   -8.2855    0.8234   -0.3703 H   0  0  0  0  0  0  0  0  0  0  0  0
   -8.0225    2.5474   -0.6520 H   0  0  0  0  0  0  0  0  0  0  0  0
   -5.0219   -0.7629    0.0534 H   0  0  0  0  0  0  0  0  0  0  0  0
   -6.7078   -1.2342   -0.0274 H   0  0  0  0  0  0  0  0  0  0  0  0
   -6.2130   -2.8997   -1.8445 H   0  0  0  0  0  0  0  0  0  0  0  0
   -3.0503   -1.7064   -0.1483 H   0  0  0  0  0  0  0  0  0  0  0  0
   -2.2715   -3.2256   -0.4559 H   0  0  0  0  0  0  0  0  0  0  0  0
   -3.3097   -4.5783   -2.2383 H   0  0  0  0  0  0  0  0  0  0  0  0
   -4.0744   -5.3487   -0.8308 H   0  0  0  0  0  0  0  0  0  0  0  0
   -5.0571   -4.8438   -2.2098 H   0  0  0  0  0  0  0  0  0  0  0  0
   -4.2827   -2.7003    1.8111 H   0  0  0  0  0  0  0  0  0  0  0  0
   -3.5299   -4.2452    1.5254 H   0  0  0  0  0  0  0  0  0  0  0  0
   -2.3675   -1.7517    2.7570 H   0  0  0  0  0  0  0  0  0  0  0  0
    0.9849   -2.6788    2.7464 H   0  0  0  0  0  0  0  0  0  0  0  0
   -0.1805   -1.8593    3.7953 H   0  0  0  0  0  0  0  0  0  0  0  0
    0.2889   -3.5289    4.1453 H   0  0  0  0  0  0  0  0  0  0  0  0
   -0.5935   -5.4276    2.5579 H   0  0  0  0  0  0  0  0  0  0  0  0
    0.1676   -4.5674    1.2061 H   0  0  0  0  0  0  0  0  0  0  0  0
   -1.5324   -5.0031    1.1283 H   0  0  0  0  0  0  0  0  0  0  0  0
  1 11  1  0  0  0  0
  1 64  1  0  0  0  0
  2 14  1  0  0  0  0
  2 65  1  0  0  0  0
  3 21  2  0  0  0  0
  4 25  1  0  0  0  0
  4 28  1  0  0  0  0
  5 27  2  0  0  0  0
  6 28  2  0  0  0  0
  7  8  1  0  0  0  0
  7 11  1  0  0  0  0
  7 12  1  0  0  0  0
  7 18  1  0  0  0  0
  8  9  1  0  0  0  0
  8 13  1  0  0  0  0
  8 43  1  0  0  0  0
  9 10  1  0  0  0  0
  9 17  1  0  0  0  0
  9 44  1  0  0  0  0
 10 14  1  0  0  0  0
 10 15  1  0  0  0  0
 10 45  1  0  0  0  0
 11 16  1  0  0  0  0
 11 21  1  0  0  0  0
 12 14  1  0  0  0  0
 12 46  1  0  0  0  0
 12 47  1  0  0  0  0
 13 16  1  0  0  0  0
 13 48  1  0  0  0  0
 13 49  1  0  0  0  0
 14 50  1  0  0  0  0
 15 20  1  0  0  0  0
 15 22  1  0  0  0  0
 15 23  1  0  0  0  0
 16 51  1  0  0  0  0
 16 52  1  0  0  0  0
 17 19  1  0  0  0  0
 17 53  1  0  0  0  0
 17 54  1  0  0  0  0
 18 55  1  0  0  0  0
 18 56  1  0  0  0  0
 18 57  1  0  0  0  0
 19 20  1  0  0  0  0
 19 58  1  0  0  0  0
 19 59  1  0  0  0  0
 20 24  2  0  0  0  0
 21 25  1  0  0  0  0
 22 60  1  0  0  0  0
 22 61  1  0  0  0  0
 22 62  1  0  0  0  0
 23 26  2  0  0  0  0
 23 63  1  0  0  0  0
 24 27  1  0  0  0  0
 24 66  1  0  0  0  0
 25 67  1  0  0  0  0
 25 68  1  0  0  0  0
 26 27  1  0  0  0  0
 26 69  1  0  0  0  0
 28 29  1  0  0  0  0
 29 30  2  0  0  0  0
 29 70  1  0  0  0  0
 30 31  1  0  0  0  0
 30 32  1  0  0  0  0
 31 33  1  0  0  0  0
 31 71  1  0  0  0  0
 31 72  1  0  0  0  0
 32 73  1  0  0  0  0
 32 74  1  0  0  0  0
 32 75  1  0  0  0  0
 33 34  1  0  0  0  0
 33 76  1  0  0  0  0
 33 77  1  0  0  0  0
 34 35  2  0  0  0  0
 34 78  1  0  0  0  0
 35 36  1  0  0  0  0
 35 37  1  0  0  0  0
 36 38  1  0  0  0  0
 36 79  1  0  0  0  0
 36 80  1  0  0  0  0
 37 81  1  0  0  0  0
 37 82  1  0  0  0  0
 37 83  1  0  0  0  0
 38 39  1  0  0  0  0
 38 84  1  0  0  0  0
 38 85  1  0  0  0  0
 39 40  2  0  0  0  0
 39 86  1  0  0  0  0
 40 41  1  0  0  0  0
 40 42  1  0  0  0  0
 41 87  1  0  0  0  0
 41 88  1  0  0  0  0
 41 89  1  0  0  0  0
 42 90  1  0  0  0  0
 42 91  1  0  0  0  0
 42 92  1  0  0  0  0
M  END
> <PUBCHEM_COMPOUND_CID>
5282236

> <PUBCHEM_CONFORMER_RMSD>
1.2

> <PUBCHEM_CONFORMER_DIVERSEORDER>
1
192
125
59
399
153
216
269
345
91
86
247
179
23
24
131
278
187
376
245
196
227
230
135
409
6
322
34
258
202
267
239
119
312
253
265
141
26
170
109
189
158
112
40
349
44
397
181
372
106
394
159
104
128
404
73
133
282
350
246
382
354
224
413
199
252
171
156
261
207
31
200
259
344
147
238
39
264
249
294
8
212
232
27
139
231
63
188
175
289
309
90
356
108
226
11
120
210
271
194
408
7
198
81
85
13
74
103
405
314
54
275
263
132
151
136
43
197
235
406
295
339
296
325
166
69
101
260
20
243
118
323
19
310
304
155
193
67
221
293
184
388
113
137
162
70
237
268
129
255
29
160
283
292
89
95
145
270
396
334
204
64
236
305
152
208
244
82
359
336
110
407
77
163
93
311
10
79
340
360
213
28
173
138
284
300
254
281
299
134
303
94
126
272
100
274
46
111
92
36
298
164
154
402
57
313
174
369
367
98
337
211
124
383
38
273
327
384
341
280
176
9
343
348
362
338
266
161
229
241
333
365
251
203
35
315
105
240
195
42
172
342
364
72
143
60
371
288
411
358
53
287
379
290
121
127
357
335
33
30
387
228
140
50
361
62
142
3
355
48
380
393
205
329
242
386
146
206
115
302
346
395
178
308
412
319
150
352
99
328
385
318
167
180
32
248
65
96
276
186
22
201
307
75
66
279
403
219
225
332
392
366
301
233
373
297
25
215
88
400
234
123
183
277
37
56
117
168
177
122
16
377
165
71
378
331
363
291
368
107
87
102
15
214
41
250
375
52
61
218
12
390
51
191
262
21
217
223
130
148
116
83
76
157
317
185
182
391
17
220
347
2
321
353
47
5
222
97
4
14
55
209
398
316
78
114
286
330
320
49
351
68
190
324
58
45
84
149
306
285
169
18
381
410
389
374
257
256
80
326
401
144
370

> <PUBCHEM_MMFF94_PARTIAL_CHARGES>
40
1 -0.68
11 0.34
14 0.28
15 0.28
19 0.14
2 -0.68
20 -0.28
21 0.45
23 -0.29
24 -0.14
25 0.34
26 -0.14
27 0.54
28 0.71
29 -0.14
3 -0.57
30 -0.28
31 0.14
32 0.14
33 0.14
34 -0.29
35 -0.28
36 0.14
37 0.14
38 0.14
39 -0.29
4 -0.43
40 -0.28
41 0.14
42 0.14
5 -0.57
6 -0.57
63 0.15
64 0.4
65 0.4
66 0.15
69 0.15
70 0.15
78 0.15
86 0.15

> <PUBCHEM_EFFECTIVE_ROTOR_COUNT>
12.4

> <PUBCHEM_PHARMACOPHORE_FEATURES>
16
1 1 acceptor
1 1 donor
1 2 acceptor
1 2 donor
1 3 acceptor
1 32 hydrophobe
1 37 hydrophobe
1 5 acceptor
1 6 acceptor
3 40 41 42 hydrophobe
4 30 31 33 34 hydrophobe
4 35 36 38 39 hydrophobe
5 7 8 11 13 16 rings
6 15 20 23 24 26 27 rings
6 7 8 9 10 12 14 rings
6 9 10 15 17 19 20 rings

> <PUBCHEM_HEAVY_ATOM_COUNT>
42

> <PUBCHEM_ATOM_DEF_STEREO_COUNT>
7

> <PUBCHEM_ATOM_UDEF_STEREO_COUNT>
0

> <PUBCHEM_BOND_DEF_STEREO_COUNT>
2

> <PUBCHEM_BOND_UDEF_STEREO_COUNT>
0

> <PUBCHEM_ISOTOPIC_ATOM_COUNT>
0

> <PUBCHEM_COMPONENT_COUNT>
1

> <PUBCHEM_CACTVS_TAUTO_COUNT>
6

> <PUBCHEM_CONFORMER_ID>
005099BC00000001

> <PUBCHEM_MMFF94_ENERGY>
108.8172

> <PUBCHEM_FEATURE_SELFOVERLAP>
81.294

> <PUBCHEM_SHAPE_FINGERPRINT>
10864689 126 18263935496091077501
11170278 133 17695361660683704909
11285246 1 18341052939228161419
11513181 2 17905615393710878285
117089 54 18188778215476027903
11828532 37 17984428430631047855
12373685 5 17918276468248474122
13165053 182 16986005914406578108
13383668 254 14763481736599698366
1361 87 18260835886543714085
13636023 20 17969800595578406970
14340393 91 18334852775541543534
15351339 4 18271540779191982611
15361156 5 18268146466157586839
15392192 29 18114168749307508021
15399243 27 17390778222074857646
15781502 685 18060139800201972458
15975801 100 17702679881055076989
17627616 140 18127704935873240059
17852330 28 15435613433958822646
19319366 153 17987527090346755851
20511986 3 16415183582527475360
437795 70 18410296874294419819
4435113 14 18189342281524761925
484989 97 18040713663290248516
508180 173 18337107869738109283
5265222 85 18060134328186166765

> <PUBCHEM_SHAPE_MULTIPOLES>
829.12
17.7
5.54
2.91
4.06
2.73
-1.03
3.04
15.4
-8.68
-2.5
2.3
1.4
2.21

> <PUBCHEM_SHAPE_SELFOVERLAP>
1731.702

> <PUBCHEM_SHAPE_VOLUME>
465.4

> <PUBCHEM_COORDINATE_TYPE>
2
5
10

$$$$

