47205694
  -OEChem-06241222593D

 35 35  0     0  0  0  0  0  0999 V2000
   -3.3862    0.3631   -1.2948 O   0  0  0  0  0  0  0  0  0  0  0  0
   -0.7492   -1.0944    1.3774 O   0  0  0  0  0  0  0  0  0  0  0  0
    1.1177    0.8751   -1.0729 O   0  0  0  0  0  0  0  0  0  0  0  0
   -3.2796   -1.3292    0.2906 N   0  0  0  0  0  0  0  0  0  0  0  0
    0.1492   -1.6725   -0.6824 N   0  0  0  0  0  0  0  0  0  0  0  0
    1.4204   -1.2952   -0.3239 N   0  0  0  0  0  0  0  0  0  0  0  0
    3.9233   -0.6781    0.3796 N   0  0  0  0  0  0  0  0  0  0  0  0
   -4.9351    0.3930    0.5658 C   0  0  0  0  0  0  0  0  0  0  0  0
   -5.5133    1.6746   -0.0270 C   0  0  0  0  0  0  0  0  0  0  0  0
   -3.7922   -0.1651   -0.2631 C   0  0  0  0  0  0  0  0  0  0  0  0
   -2.1858   -2.0531   -0.3124 C   0  0  0  0  0  0  0  0  0  0  0  0
   -6.6331    2.2326    0.8361 C   0  0  0  0  0  0  0  0  0  0  0  0
   -0.8750   -1.5351    0.2373 C   0  0  0  0  0  0  0  0  0  0  0  0
    3.2128    0.3359   -0.1633 C   0  0  0  0  0  0  0  0  0  0  0  0
    1.8186    0.0068   -0.5592 C   0  0  0  0  0  0  0  0  0  0  0  0
    3.7100    1.6147   -0.3570 C   0  0  0  0  0  0  0  0  0  0  0  0
    5.0207    1.8689    0.0311 C   0  0  0  0  0  0  0  0  0  0  0  0
    5.7833    0.8512    0.5933 C   0  0  0  0  0  0  0  0  0  0  0  0
    5.1934   -0.3933    0.7447 C   0  0  0  0  0  0  0  0  0  0  0  0
   -5.7161   -0.3736    0.6348 H   0  0  0  0  0  0  0  0  0  0  0  0
   -4.5600    0.5847    1.5783 H   0  0  0  0  0  0  0  0  0  0  0  0
   -5.8953    1.4802   -1.0363 H   0  0  0  0  0  0  0  0  0  0  0  0
   -4.7247    2.4301   -0.1267 H   0  0  0  0  0  0  0  0  0  0  0  0
   -2.2873   -3.1101   -0.0495 H   0  0  0  0  0  0  0  0  0  0  0  0
   -2.2285   -1.9437   -1.4006 H   0  0  0  0  0  0  0  0  0  0  0  0
   -3.6689   -1.6850    1.1590 H   0  0  0  0  0  0  0  0  0  0  0  0
   -7.4533    1.5134    0.9274 H   0  0  0  0  0  0  0  0  0  0  0  0
   -7.0331    3.1494    0.3920 H   0  0  0  0  0  0  0  0  0  0  0  0
   -6.2717    2.4717    1.8413 H   0  0  0  0  0  0  0  0  0  0  0  0
    0.0330   -2.0599   -1.6128 H   0  0  0  0  0  0  0  0  0  0  0  0
    2.0127   -2.0059    0.0925 H   0  0  0  0  0  0  0  0  0  0  0  0
    3.1158    2.4092   -0.7952 H   0  0  0  0  0  0  0  0  0  0  0  0
    5.4474    2.8583   -0.1040 H   0  0  0  0  0  0  0  0  0  0  0  0
    6.8071    1.0266    0.9032 H   0  0  0  0  0  0  0  0  0  0  0  0
    5.7456   -1.2207    1.1780 H   0  0  0  0  0  0  0  0  0  0  0  0
  1 10  2  0  0  0  0
  2 13  2  0  0  0  0
  3 15  2  0  0  0  0
  4 10  1  0  0  0  0
  4 11  1  0  0  0  0
  4 26  1  0  0  0  0
  5  6  1  0  0  0  0
  5 13  1  0  0  0  0
  5 30  1  0  0  0  0
  6 15  1  0  0  0  0
  6 31  1  0  0  0  0
  7 14  1  0  0  0  0
  7 19  2  0  0  0  0
  8  9  1  0  0  0  0
  8 10  1  0  0  0  0
  8 20  1  0  0  0  0
  8 21  1  0  0  0  0
  9 12  1  0  0  0  0
  9 22  1  0  0  0  0
  9 23  1  0  0  0  0
 11 13  1  0  0  0  0
 11 24  1  0  0  0  0
 11 25  1  0  0  0  0
 12 27  1  0  0  0  0
 12 28  1  0  0  0  0
 12 29  1  0  0  0  0
 14 15  1  0  0  0  0
 14 16  2  0  0  0  0
 16 17  1  0  0  0  0
 16 32  1  0  0  0  0
 17 18  2  0  0  0  0
 17 33  1  0  0  0  0
 18 19  1  0  0  0  0
 18 34  1  0  0  0  0
 19 35  1  0  0  0  0
M  END
> <PUBCHEM_COMPOUND_CID>
47205694

> <PUBCHEM_CONFORMER_RMSD>
1

> <PUBCHEM_CONFORMER_DIVERSEORDER>
1
24
28
20
64
41
9
50
47
53
7
45
58
32
30
23
56
63
42
16
59
6
36
26
67
60
51
48
19
66
38
4
57
14
12
3
65
43
52
37
62
49
22
46
40
13
39
8
34
31
2
17
15
54
11
18
10
55
33
44
35
61
25
27
5
29
21

> <PUBCHEM_MMFF94_PARTIAL_CHARGES>
24
1 -0.57
10 0.57
11 0.36
13 0.57
14 0.4
15 0.54
16 -0.15
17 -0.15
18 -0.15
19 0.16
2 -0.57
26 0.37
3 -0.57
30 0.37
31 0.37
32 0.15
33 0.15
34 0.15
35 0.15
4 -0.73
5 -0.43
6 -0.43
7 -0.62
8 0.06

> <PUBCHEM_EFFECTIVE_ROTOR_COUNT>
9

> <PUBCHEM_PHARMACOPHORE_FEATURES>
9
1 1 acceptor
1 12 hydrophobe
1 2 acceptor
1 3 acceptor
1 4 donor
1 5 donor
1 6 donor
1 7 acceptor
6 7 14 16 17 18 19 rings

> <PUBCHEM_HEAVY_ATOM_COUNT>
19

> <PUBCHEM_ATOM_DEF_STEREO_COUNT>
0

> <PUBCHEM_ATOM_UDEF_STEREO_COUNT>
0

> <PUBCHEM_BOND_DEF_STEREO_COUNT>
0

> <PUBCHEM_BOND_UDEF_STEREO_COUNT>
0

> <PUBCHEM_ISOTOPIC_ATOM_COUNT>
0

> <PUBCHEM_COMPONENT_COUNT>
1

> <PUBCHEM_CACTVS_TAUTO_COUNT>
8

> <PUBCHEM_CONFORMER_ID>
02D04D3E00000001

> <PUBCHEM_MMFF94_ENERGY>
32.2657

> <PUBCHEM_FEATURE_SELFOVERLAP>
47.208

> <PUBCHEM_SHAPE_FINGERPRINT>
11089746 13 18115034000628685164
117890 112 18333733507285784480
12107183 9 18269000941480464322
12596602 18 17704069564593979921
12633257 1 15697701663320166985
12895836 83 17240769506203811733
13073987 5 18270121206121065570
13103583 49 12823295753959974063
13167372 99 18409449210705583304
13675066 3 17632298951965548662
13785724 45 17979078515934689482
14123255 352 18407758127573004057
14123256 34 9871459937954449289
14251732 17 18408885131117630374
14251764 18 18130509639315864150
14251764 30 12607413225404010776
14576447 43 8214148451861909766
15188451 53 15482379847635373771
15238133 3 18202555164543209036
15880784 105 11455883672569000335
18222031 100 7276827965668156851
19784866 240 9439111066928617713
200 152 8862673412400441982
20281389 69 18411138017610918969
20621476 66 18411414003619646084
20715895 44 18334855051890223097
20871999 31 4678821627832610811
21033648 29 18188498973386114048
21054139 6 7565353028733290476
21315759 148 14333417774056487832
21421861 104 17845387677463214154
21637258 2 11887952125490818221
21774942 28 16951119724089834632
22950370 63 10231762196856522726
23402539 116 18186807958588064813
23559900 14 17895183403754946926
270888 7 18334575802429401089
2838139 119 18333737914017390029
2916195 48 18409729552190528009
3014063 24 11671485765699916609
314194 84 8790884115988995189
351380 3 10592039150935122121
3680242 22 18342452677153999617
4259306 186 8646775482027938449
465052 167 11599996661368366985
5104073 3 18059300851148453384
5385378 56 18270398420332073499
6913067 236 4823216078918893642
7970288 3 10159688080681307233
8217 86 8790878588629926361

> <PUBCHEM_SHAPE_MULTIPOLES>
353.48
15.87
2.22
0.97
6.76
0.17
-0.01
11.82
-3.55
1.76
-0.09
0.2
0.02
-0.69

> <PUBCHEM_SHAPE_SELFOVERLAP>
715.516

> <PUBCHEM_SHAPE_VOLUME>
203.6

> <PUBCHEM_COORDINATE_TYPE>
2
5
10

$$$$

