17395980
  -OEChem-06241222532D

 48 49  0     1  0  0  0  0  0999 V2000
    7.5891   -0.8412    0.0000 S   0  0  0  0  0  0  0  0  0  0  0  0
    7.1733    1.1151    0.0000 O   0  0  0  0  0  0  0  0  0  0  0  0
    2.5878    2.4105    0.0000 O   0  0  0  0  0  0  0  0  0  0  0  0
    3.9890    3.4286    0.0000 O   0  0  0  0  0  0  0  0  0  0  0  0
    8.7106   -2.2261    0.0000 N   0  0  0  0  0  0  0  0  0  0  0  0
    4.6701    0.1672    0.0000 N   0  0  0  0  0  0  0  0  0  0  0  0
    8.6061   -3.2206    0.0000 N   0  0  0  0  0  0  0  0  0  0  0  0
    7.1279   -2.5625    0.0000 N   0  0  0  0  0  0  0  0  0  0  0  0
    7.6279   -3.4286    0.0000 N   0  0  0  0  0  0  0  0  0  0  0  0
    9.5766   -1.7261    0.0000 C   0  0  0  0  0  0  0  0  0  0  0  0
   10.4426   -1.2261    0.0000 C   0  0  0  0  0  0  0  0  0  0  0  0
   10.0766   -2.5922    0.0000 C   0  0  0  0  0  0  0  0  0  0  0  0
    9.0766   -0.8601    0.0000 C   0  0  0  0  0  0  0  0  0  0  0  0
    6.6381   -0.5322    0.0000 C   0  0  3  0  0  0  0  0  0  0  0  0
    5.4791    0.7549    0.0000 C   0  0  0  0  0  0  0  0  0  0  0  0
    7.7970   -1.8194    0.0000 C   0  0  0  0  0  0  0  0  0  0  0  0
    5.1701    1.7060    0.0000 C   0  0  0  0  0  0  0  0  0  0  0  0
    6.4302    0.4459    0.0000 C   0  0  0  0  0  0  0  0  0  0  0  0
    4.1701    1.7060    0.0000 C   0  0  0  0  0  0  0  0  0  0  0  0
    3.8611    0.7549    0.0000 C   0  0  0  0  0  0  0  0  0  0  0  0
    5.8949   -1.2014    0.0000 C   0  0  0  0  0  0  0  0  0  0  0  0
    5.7579    2.5150    0.0000 C   0  0  0  0  0  0  0  0  0  0  0  0
    2.9100    0.4459    0.0000 C   0  0  0  0  0  0  0  0  0  0  0  0
    3.5823    2.5150    0.0000 C   0  0  0  0  0  0  0  0  0  0  0  0
    2.0000    3.2195    0.0000 C   0  0  0  0  0  0  0  0  0  0  0  0
    9.6136   -0.5501    0.0000 H   0  0  0  0  0  0  0  0  0  0  0  0
    8.7666   -0.3232    0.0000 H   0  0  0  0  0  0  0  0  0  0  0  0
    8.5397   -1.1701    0.0000 H   0  0  0  0  0  0  0  0  0  0  0  0
    9.5397   -2.9021    0.0000 H   0  0  0  0  0  0  0  0  0  0  0  0
   10.3866   -3.1291    0.0000 H   0  0  0  0  0  0  0  0  0  0  0  0
   10.6136   -2.2822    0.0000 H   0  0  0  0  0  0  0  0  0  0  0  0
   10.7526   -1.7631    0.0000 H   0  0  0  0  0  0  0  0  0  0  0  0
   10.9796   -0.9161    0.0000 H   0  0  0  0  0  0  0  0  0  0  0  0
   10.1326   -0.6892    0.0000 H   0  0  0  0  0  0  0  0  0  0  0  0
    6.7670   -1.1387    0.0000 H   0  0  0  0  0  0  0  0  0  0  0  0
    4.6701   -0.4528    0.0000 H   0  0  0  0  0  0  0  0  0  0  0  0
    5.4801   -0.7406    0.0000 H   0  0  0  0  0  0  0  0  0  0  0  0
    5.4342   -1.6162    0.0000 H   0  0  0  0  0  0  0  0  0  0  0  0
    6.3098   -1.6621    0.0000 H   0  0  0  0  0  0  0  0  0  0  0  0
    6.2595    2.1506    0.0000 H   0  0  0  0  0  0  0  0  0  0  0  0
    6.1223    3.0166    0.0000 H   0  0  0  0  0  0  0  0  0  0  0  0
    5.2563    2.8794    0.0000 H   0  0  0  0  0  0  0  0  0  0  0  0
    2.7184    1.0356    0.0000 H   0  0  0  0  0  0  0  0  0  0  0  0
    2.3204    0.2543    0.0000 H   0  0  0  0  0  0  0  0  0  0  0  0
    3.1016   -0.1437    0.0000 H   0  0  0  0  0  0  0  0  0  0  0  0
    2.5016    3.5839    0.0000 H   0  0  0  0  0  0  0  0  0  0  0  0
    1.6356    3.7211    0.0000 H   0  0  0  0  0  0  0  0  0  0  0  0
    1.4984    2.8551    0.0000 H   0  0  0  0  0  0  0  0  0  0  0  0
  1 14  1  0  0  0  0
  1 16  1  0  0  0  0
  2 18  2  0  0  0  0
  3 24  1  0  0  0  0
  3 25  1  0  0  0  0
  4 24  2  0  0  0  0
  5  7  1  0  0  0  0
  5 10  1  0  0  0  0
  5 16  1  0  0  0  0
  6 15  1  0  0  0  0
  6 20  1  0  0  0  0
  6 36  1  0  0  0  0
  7  9  2  0  0  0  0
  8  9  1  0  0  0  0
  8 16  2  0  0  0  0
 10 11  1  0  0  0  0
 10 12  1  0  0  0  0
 10 13  1  0  0  0  0
 11 32  1  0  0  0  0
 11 33  1  0  0  0  0
 11 34  1  0  0  0  0
 12 29  1  0  0  0  0
 12 30  1  0  0  0  0
 12 31  1  0  0  0  0
 13 26  1  0  0  0  0
 13 27  1  0  0  0  0
 13 28  1  0  0  0  0
 14 18  1  0  0  0  0
 14 21  1  0  0  0  0
 14 35  1  0  0  0  0
 15 17  2  0  0  0  0
 15 18  1  0  0  0  0
 17 19  1  0  0  0  0
 17 22  1  0  0  0  0
 19 20  2  0  0  0  0
 19 24  1  0  0  0  0
 20 23  1  0  0  0  0
 21 37  1  0  0  0  0
 21 38  1  0  0  0  0
 21 39  1  0  0  0  0
 22 40  1  0  0  0  0
 22 41  1  0  0  0  0
 22 42  1  0  0  0  0
 23 43  1  0  0  0  0
 23 44  1  0  0  0  0
 23 45  1  0  0  0  0
 25 46  1  0  0  0  0
 25 47  1  0  0  0  0
 25 48  1  0  0  0  0
M  END
> <PUBCHEM_COMPOUND_CID>
17395980

> <PUBCHEM_COMPOUND_CANONICALIZED>
1

> <PUBCHEM_CACTVS_COMPLEXITY>
513

> <PUBCHEM_CACTVS_HBOND_ACCEPTOR>
7

> <PUBCHEM_CACTVS_HBOND_DONOR>
1

> <PUBCHEM_CACTVS_ROTATABLE_BOND>
7

> <PUBCHEM_CACTVS_SUBSKEYS>
AAADceB7sABAAAAAAAAAAAAAAAAAAWLAAAAAAAAAAAAAAAAB4AAAHgQYAAAADIyF3gKDmJbJlAiqA4TwbACCkCNnALAVmSGwTNiIJnrgvLmEEYhm0API6Ue8z+C+gAAAAAAAAAAAAAAAAAAAAAAAAAAAAA==

> <PUBCHEM_IUPAC_OPENEYE_NAME>
methyl 5-[2-(1-tert-butyltetrazol-5-yl)sulfanylpropanoyl]-2,4-dimethyl-1H-pyrrole-3-carboxylate

> <PUBCHEM_IUPAC_CAS_NAME>
5-[2-[(1-tert-butyl-5-tetrazolyl)thio]-1-oxopropyl]-2,4-dimethyl-1H-pyrrole-3-carboxylic acid methyl ester

> <PUBCHEM_IUPAC_NAME>
methyl 5-[2-(1-tert-butyltetrazol-5-yl)sulfanylpropanoyl]-2,4-dimethyl-1H-pyrrole-3-carboxylate

> <PUBCHEM_IUPAC_SYSTEMATIC_NAME>
methyl 5-[2-[(1-tert-butyl-1,2,3,4-tetrazol-5-yl)sulfanyl]propanoyl]-2,4-dimethyl-1H-pyrrole-3-carboxylate

> <PUBCHEM_IUPAC_TRADITIONAL_NAME>
5-[2-[(1-tert-butyltetrazol-5-yl)thio]propanoyl]-2,4-dimethyl-1H-pyrrole-3-carboxylic acid methyl ester

> <PUBCHEM_IUPAC_INCHI>
InChI=1S/C16H23N5O3S/c1-8-11(14(23)24-7)9(2)17-12(8)13(22)10(3)25-15-18-19-20-21(15)16(4,5)6/h10,17H,1-7H3

> <PUBCHEM_IUPAC_INCHIKEY>
GRYBNXFMRYYEFE-UHFFFAOYSA-N

> <PUBCHEM_XLOGP3_AA>
2.9

> <PUBCHEM_EXACT_MASS>
365.152161

> <PUBCHEM_MOLECULAR_FORMULA>
C16H23N5O3S

> <PUBCHEM_MOLECULAR_WEIGHT>
365.45052

> <PUBCHEM_OPENEYE_CAN_SMILES>
CC1=C(NC(=C1C(=O)OC)C)C(=O)C(C)SC2=NN=NN2C(C)(C)C

> <PUBCHEM_OPENEYE_ISO_SMILES>
CC1=C(NC(=C1C(=O)OC)C)C(=O)C(C)SC2=NN=NN2C(C)(C)C

> <PUBCHEM_CACTVS_TPSA>
128

> <PUBCHEM_MONOISOTOPIC_WEIGHT>
365.152161

> <PUBCHEM_TOTAL_CHARGE>
0

> <PUBCHEM_HEAVY_ATOM_COUNT>
25

> <PUBCHEM_ATOM_DEF_STEREO_COUNT>
0

> <PUBCHEM_ATOM_UDEF_STEREO_COUNT>
1

> <PUBCHEM_BOND_DEF_STEREO_COUNT>
0

> <PUBCHEM_BOND_UDEF_STEREO_COUNT>
0

> <PUBCHEM_ISOTOPIC_ATOM_COUNT>
0

> <PUBCHEM_COMPONENT_COUNT>
1

> <PUBCHEM_CACTVS_TAUTO_COUNT>
33

> <PUBCHEM_COORDINATE_TYPE>
1
5
255

> <PUBCHEM_BONDANNOTATIONS>
14  21  3
15  17  8
17  19  8
19  20  8
5  16  8
5  7  8
6  15  8
6  20  8
7  9  8
8  16  8
8  9  8

$$$$

