8861
  -OEChem-06261203113D

 15 15  0     0  0  0  0  0  0999 V2000
    0.0000    1.0559   -0.0003 N   0  0  0  0  0  0  0  0  0  0  0  0
   -2.3828    1.0400   -0.0003 N   0  0  0  0  0  0  0  0  0  0  0  0
    2.3828    1.0400    0.0009 N   0  0  0  0  0  0  0  0  0  0  0  0
   -1.1488    0.3432    0.0005 C   0  0  0  0  0  0  0  0  0  0  0  0
    1.1488    0.3431   -0.0008 C   0  0  0  0  0  0  0  0  0  0  0  0
   -1.2026   -1.0414    0.0006 C   0  0  0  0  0  0  0  0  0  0  0  0
    1.2026   -1.0414   -0.0006 C   0  0  0  0  0  0  0  0  0  0  0  0
    0.0000   -1.7394    0.0001 C   0  0  0  0  0  0  0  0  0  0  0  0
   -2.1449   -1.5796    0.0000 H   0  0  0  0  0  0  0  0  0  0  0  0
    2.1448   -1.5796   -0.0014 H   0  0  0  0  0  0  0  0  0  0  0  0
    0.0000   -2.8252   -0.0001 H   0  0  0  0  0  0  0  0  0  0  0  0
   -2.3389    2.0515    0.0055 H   0  0  0  0  0  0  0  0  0  0  0  0
   -3.1889    0.5926    0.4186 H   0  0  0  0  0  0  0  0  0  0  0  0
    3.1886    0.5921    0.4198 H   0  0  0  0  0  0  0  0  0  0  0  0
    2.3389    2.0515    0.0076 H   0  0  0  0  0  0  0  0  0  0  0  0
  1  4  2  0  0  0  0
  1  5  1  0  0  0  0
  2  4  1  0  0  0  0
  2 12  1  0  0  0  0
  2 13  1  0  0  0  0
  3  5  1  0  0  0  0
  3 14  1  0  0  0  0
  3 15  1  0  0  0  0
  4  6  1  0  0  0  0
  5  7  2  0  0  0  0
  6  8  2  0  0  0  0
  6  9  1  0  0  0  0
  7  8  1  0  0  0  0
  7 10  1  0  0  0  0
  8 11  1  0  0  0  0
M  END
> <PUBCHEM_COMPOUND_CID>
8861

> <PUBCHEM_CONFORMER_RMSD>
0.4

> <PUBCHEM_CONFORMER_DIVERSEORDER>
1

> <PUBCHEM_MMFF94_PARTIAL_CHARGES>
15
1 -0.62
10 0.15
11 0.15
12 0.4
13 0.4
14 0.4
15 0.4
2 -0.9
3 -0.9
4 0.41
5 0.41
6 -0.15
7 -0.15
8 -0.15
9 0.15

> <PUBCHEM_EFFECTIVE_ROTOR_COUNT>
0

> <PUBCHEM_PHARMACOPHORE_FEATURES>
5
1 2 donor
1 3 cation
1 3 donor
3 1 2 4 cation
6 1 4 5 6 7 8 rings

> <PUBCHEM_HEAVY_ATOM_COUNT>
8

> <PUBCHEM_ATOM_DEF_STEREO_COUNT>
0

> <PUBCHEM_ATOM_UDEF_STEREO_COUNT>
0

> <PUBCHEM_BOND_DEF_STEREO_COUNT>
0

> <PUBCHEM_BOND_UDEF_STEREO_COUNT>
0

> <PUBCHEM_ISOTOPIC_ATOM_COUNT>
0

> <PUBCHEM_COMPONENT_COUNT>
1

> <PUBCHEM_CACTVS_TAUTO_COUNT>
5

> <PUBCHEM_CONFORMER_ID>
0000229D00000001

> <PUBCHEM_MMFF94_ENERGY>
31.9361

> <PUBCHEM_FEATURE_SELFOVERLAP>
25.371

> <PUBCHEM_SHAPE_FINGERPRINT>
16714656 1 18122337969918767326
18185500 45 17329428857457015435
20096714 4 18410574032449001323
21040471 1 18410856546823472452
23552423 10 18200311018477373846
241688 4 16896236716373105259
29004967 10 17981318212049447099

> <PUBCHEM_SHAPE_MULTIPOLES>
149.69
2.53
1.66
0.58
0
0.44
0
-1.11
0
0
0
0
0.04
0

> <PUBCHEM_SHAPE_SELFOVERLAP>
308.884

> <PUBCHEM_SHAPE_VOLUME>
83.7

> <PUBCHEM_COORDINATE_TYPE>
2
5
10

$$$$

