252379
  -OEChem-07051212503D

 48 51  0     1  0  0  0  0  0999 V2000
   -4.9065   -1.0167   -1.0938 O   0  0  0  0  0  0  0  0  0  0  0  0
    2.8776   -0.6679    2.5867 O   0  0  0  0  0  0  0  0  0  0  0  0
    4.8590    0.2429   -2.0104 O   0  0  0  0  0  0  0  0  0  0  0  0
   -0.6748    0.7639    0.4590 C   0  0  2  0  0  0  0  0  0  0  0  0
    0.1890   -0.4340   -0.0846 C   0  0  1  0  0  0  0  0  0  0  0  0
   -2.0267    0.7372   -0.2574 C   0  0  1  0  0  0  0  0  0  0  0  0
   -2.7965   -0.5683    0.0315 C   0  0  2  0  0  0  0  0  0  0  0  0
    1.6213   -0.4527    0.5618 C   0  0  2  0  0  0  0  0  0  0  0  0
   -0.5772   -1.7819    0.0008 C   0  0  0  0  0  0  0  0  0  0  0  0
   -2.0054   -1.7223   -0.5750 C   0  0  0  0  0  0  0  0  0  0  0  0
    0.0470    2.1114    0.2765 C   0  0  0  0  0  0  0  0  0  0  0  0
   -3.0485    1.8387    0.0016 C   0  0  0  0  0  0  0  0  0  0  0  0
    2.2233    0.9299    0.2785 C   0  0  0  0  0  0  0  0  0  0  0  0
    1.4637    2.0991    0.8548 C   0  0  0  0  0  0  0  0  0  0  0  0
   -4.1032   -0.2063   -0.6514 C   0  0  0  0  0  0  0  0  0  0  0  0
   -4.3101    1.2988   -0.6883 C   0  0  0  0  0  0  0  0  0  0  0  0
    2.5435   -1.5663   -0.0116 C   0  0  0  0  0  0  0  0  0  0  0  0
   -3.1351   -0.8402    1.5089 C   0  0  0  0  0  0  0  0  0  0  0  0
    1.5600   -0.7165    2.0880 C   0  0  0  0  0  0  0  0  0  0  0  0
    3.0888   -1.2521   -1.3927 C   0  0  0  0  0  0  0  0  0  0  0  0
    3.2664    1.1521   -0.5384 C   0  0  0  0  0  0  0  0  0  0  0  0
    3.8444    0.0512   -1.3443 C   0  0  0  0  0  0  0  0  0  0  0  0
   -0.8407    0.6339    1.5338 H   0  0  0  0  0  0  0  0  0  0  0  0
    0.3271   -0.2476   -1.1616 H   0  0  0  0  0  0  0  0  0  0  0  0
   -1.8111    0.7862   -1.3390 H   0  0  0  0  0  0  0  0  0  0  0  0
   -0.6283   -2.1231    1.0395 H   0  0  0  0  0  0  0  0  0  0  0  0
   -0.0363   -2.5556   -0.5541 H   0  0  0  0  0  0  0  0  0  0  0  0
   -1.9501   -1.6111   -1.6660 H   0  0  0  0  0  0  0  0  0  0  0  0
   -2.5142   -2.6775   -0.3968 H   0  0  0  0  0  0  0  0  0  0  0  0
   -0.5251    2.9114    0.7612 H   0  0  0  0  0  0  0  0  0  0  0  0
    0.0947    2.3612   -0.7920 H   0  0  0  0  0  0  0  0  0  0  0  0
   -2.7485    2.8004   -0.4263 H   0  0  0  0  0  0  0  0  0  0  0  0
   -3.2188    1.9892    1.0731 H   0  0  0  0  0  0  0  0  0  0  0  0
    1.4358    2.0433    1.9478 H   0  0  0  0  0  0  0  0  0  0  0  0
    1.9509    3.0520    0.6141 H   0  0  0  0  0  0  0  0  0  0  0  0
   -4.3576    1.6231   -1.7317 H   0  0  0  0  0  0  0  0  0  0  0  0
   -5.2164    1.5837   -0.1497 H   0  0  0  0  0  0  0  0  0  0  0  0
    2.0324   -2.5341   -0.0296 H   0  0  0  0  0  0  0  0  0  0  0  0
    3.4201   -1.7245    0.6305 H   0  0  0  0  0  0  0  0  0  0  0  0
   -3.7158   -1.7663    1.5995 H   0  0  0  0  0  0  0  0  0  0  0  0
   -2.2462   -0.9525    2.1353 H   0  0  0  0  0  0  0  0  0  0  0  0
   -3.7494   -0.0478    1.9498 H   0  0  0  0  0  0  0  0  0  0  0  0
    1.1696   -1.7169    2.2987 H   0  0  0  0  0  0  0  0  0  0  0  0
    0.9462   -0.0060    2.6468 H   0  0  0  0  0  0  0  0  0  0  0  0
    2.2950   -1.1788   -2.1423 H   0  0  0  0  0  0  0  0  0  0  0  0
    3.7791   -2.0451   -1.7008 H   0  0  0  0  0  0  0  0  0  0  0  0
    3.6523    2.1487   -0.7235 H   0  0  0  0  0  0  0  0  0  0  0  0
    3.1565    0.2627    2.6181 H   0  0  0  0  0  0  0  0  0  0  0  0
  1 15  2  0  0  0  0
  2 19  1  0  0  0  0
  2 48  1  0  0  0  0
  3 22  2  0  0  0  0
  4  5  1  0  0  0  0
  4  6  1  0  0  0  0
  4 11  1  0  0  0  0
  4 23  1  0  0  0  0
  5  8  1  0  0  0  0
  5  9  1  0  0  0  0
  5 24  1  0  0  0  0
  6  7  1  0  0  0  0
  6 12  1  0  0  0  0
  6 25  1  0  0  0  0
  7 10  1  0  0  0  0
  7 15  1  0  0  0  0
  7 18  1  0  0  0  0
  8 13  1  0  0  0  0
  8 17  1  0  0  0  0
  8 19  1  0  0  0  0
  9 10  1  0  0  0  0
  9 26  1  0  0  0  0
  9 27  1  0  0  0  0
 10 28  1  0  0  0  0
 10 29  1  0  0  0  0
 11 14  1  0  0  0  0
 11 30  1  0  0  0  0
 11 31  1  0  0  0  0
 12 16  1  0  0  0  0
 12 32  1  0  0  0  0
 12 33  1  0  0  0  0
 13 14  1  0  0  0  0
 13 21  2  0  0  0  0
 14 34  1  0  0  0  0
 14 35  1  0  0  0  0
 15 16  1  0  0  0  0
 16 36  1  0  0  0  0
 16 37  1  0  0  0  0
 17 20  1  0  0  0  0
 17 38  1  0  0  0  0
 17 39  1  0  0  0  0
 18 40  1  0  0  0  0
 18 41  1  0  0  0  0
 18 42  1  0  0  0  0
 19 43  1  0  0  0  0
 19 44  1  0  0  0  0
 20 22  1  0  0  0  0
 20 45  1  0  0  0  0
 20 46  1  0  0  0  0
 21 22  1  0  0  0  0
 21 47  1  0  0  0  0
M  END
> <PUBCHEM_COMPOUND_CID>
252379

> <PUBCHEM_CONFORMER_RMSD>
0.6

> <PUBCHEM_CONFORMER_DIVERSEORDER>
1
2

> <PUBCHEM_MMFF94_PARTIAL_CHARGES>
15
1 -0.57
13 -0.28
14 0.14
15 0.45
16 0.06
19 0.28
2 -0.68
20 0.06
21 -0.14
22 0.49
3 -0.57
47 0.15
48 0.4
7 0.06
8 0.14

> <PUBCHEM_EFFECTIVE_ROTOR_COUNT>
2.6

> <PUBCHEM_PHARMACOPHORE_FEATURES>
8
1 1 acceptor
1 2 acceptor
1 2 donor
1 3 acceptor
5 6 7 12 15 16 rings
6 4 5 6 7 9 10 rings
6 4 5 8 11 13 14 rings
6 8 13 17 20 21 22 rings

> <PUBCHEM_HEAVY_ATOM_COUNT>
22

> <PUBCHEM_ATOM_DEF_STEREO_COUNT>
5

> <PUBCHEM_ATOM_UDEF_STEREO_COUNT>
0

> <PUBCHEM_BOND_DEF_STEREO_COUNT>
0

> <PUBCHEM_BOND_UDEF_STEREO_COUNT>
0

> <PUBCHEM_ISOTOPIC_ATOM_COUNT>
0

> <PUBCHEM_COMPONENT_COUNT>
1

> <PUBCHEM_CACTVS_TAUTO_COUNT>
10

> <PUBCHEM_CONFORMER_ID>
0003D9DB00000001

> <PUBCHEM_MMFF94_ENERGY>
67.037

> <PUBCHEM_FEATURE_SELFOVERLAP>
40.713

> <PUBCHEM_SHAPE_FINGERPRINT>
10366900 7 18201999885559633819
10498660 4 18272092720779973909
10759866 29 17846779645607726264
10863032 1 17060335232099650291
11578080 2 16878233068462444456
12236239 1 17988650722294009898
12553582 1 18335416872367413905
12788726 201 18267302225954045537
13134695 92 15936406728457950312
13140716 1 18339653333803738833
13221675 6 18339359669366508555
13224815 77 18272369767618619033
13544653 18 15936958765094534364
13583140 156 16988843848201178633
13760787 19 17632574946442495123
14289901 80 14129352766605918107
14787075 74 17342636891267676051
14790565 3 17757535722882690289
15163728 17 16772410606865731877
15238133 3 18129674130442628217
15536298 74 18113905926856649489
16752209 62 18335988670048397401
16945 1 18334581200432684801
1813 80 5039683547560977024
18186145 218 17676207983206720059
19078846 21 18199481011267190640
19765921 60 17775275046232113280
19862831 5 18410852178815586157
200 152 16660354896468559948
20645476 183 17775000163787874951
20645477 70 18261117309627551357
20871999 31 18408876347819754957
21069387 34 14490476395475873367
21637258 2 15357969136168578228
221357 26 18260829302437944405
22393880 68 18410018727880349613
23419403 2 15389127976559253165
23493267 7 18202555189964885523
23557571 272 17677349228757534907
23559900 14 18040440970767543560
23598291 2 17845377828338208832
2748010 2 18409738335161596177
2838139 119 16270782431180922404
296302 2 15052013446496177933
4280585 95 17323780641004830718
4340502 62 16630233779599401641
474 4 16773785957903472044
633830 44 17702944880563535203
6786 2 6940286470679746344
7364860 26 17896324618913767256
74978 22 18261114041262544187
9709674 26 18189904119287219687
9981440 41 17478880594745478124

> <PUBCHEM_SHAPE_MULTIPOLES>
435.14
8.4
2.05
1.64
2.51
0.47
-0.67
-0.27
3.79
0.32
-0.03
-1.6
-0.39
0.04

> <PUBCHEM_SHAPE_SELFOVERLAP>
940.125

> <PUBCHEM_SHAPE_VOLUME>
236.3

> <PUBCHEM_COORDINATE_TYPE>
2
5
10

$$$$

