5280525
  -OEChem-07051212472D

 19 18  0     0  0  0  0  0  0999 V2000
    6.0010    1.2500    0.0000 O   0  0  0  0  0  0  0  0  0  0  0  0
    4.2690    1.2500    0.0000 O   0  0  0  0  0  0  0  0  0  0  0  0
    2.5369    0.2500    0.0000 O   0  0  0  0  0  0  0  0  0  0  0  0
    3.4030   -1.2500    0.0000 O   0  0  0  0  0  0  0  0  0  0  0  0
    9.4651    0.2500    0.0000 O   0  0  0  0  0  0  0  0  0  0  0  0
    8.5991   -1.2500    0.0000 O   0  0  0  0  0  0  0  0  0  0  0  0
    5.1350   -0.2500    0.0000 C   0  0  0  0  0  0  0  0  0  0  0  0
    6.0010    0.2500    0.0000 C   0  0  0  0  0  0  0  0  0  0  0  0
    4.2690    0.2500    0.0000 C   0  0  0  0  0  0  0  0  0  0  0  0
    6.8671   -0.2500    0.0000 C   0  0  0  0  0  0  0  0  0  0  0  0
    7.7331    0.2500    0.0000 C   0  0  0  0  0  0  0  0  0  0  0  0
    3.4030   -0.2500    0.0000 C   0  0  0  0  0  0  0  0  0  0  0  0
    8.5991   -0.2500    0.0000 C   0  0  0  0  0  0  0  0  0  0  0  0
    4.7365   -0.7249    0.0000 H   0  0  0  0  0  0  0  0  0  0  0  0
    5.5335   -0.7249    0.0000 H   0  0  0  0  0  0  0  0  0  0  0  0
    6.8671   -0.8700    0.0000 H   0  0  0  0  0  0  0  0  0  0  0  0
    7.7331    0.8700    0.0000 H   0  0  0  0  0  0  0  0  0  0  0  0
    2.0000   -0.0600    0.0000 H   0  0  0  0  0  0  0  0  0  0  0  0
   10.0021   -0.0600    0.0000 H   0  0  0  0  0  0  0  0  0  0  0  0
  1  8  2  0  0  0  0
  2  9  2  0  0  0  0
  3 12  1  0  0  0  0
  3 18  1  0  0  0  0
  4 12  2  0  0  0  0
  5 13  1  0  0  0  0
  5 19  1  0  0  0  0
  6 13  2  0  0  0  0
  7  8  1  0  0  0  0
  7  9  1  0  0  0  0
  7 14  1  0  0  0  0
  7 15  1  0  0  0  0
  8 10  1  0  0  0  0
  9 12  1  0  0  0  0
 10 11  2  0  0  0  0
 10 16  1  0  0  0  0
 11 13  1  0  0  0  0
 11 17  1  0  0  0  0
M  END
> <PUBCHEM_COMPOUND_CID>
5280525

> <PUBCHEM_COMPOUND_CANONICALIZED>
1

> <PUBCHEM_CACTVS_COMPLEXITY>
287

> <PUBCHEM_CACTVS_HBOND_ACCEPTOR>
6

> <PUBCHEM_CACTVS_HBOND_DONOR>
2

> <PUBCHEM_CACTVS_ROTATABLE_BOND>
5

> <PUBCHEM_CACTVS_SUBSKEYS>
AAADcYBgOAAAAAAAAAAAAAAAAAAAAAAAAAAAAAAAAAAAAAAAAAAAGgAACAAACASAgAAACAAAAgCIAKDSCAIAAAAgAAAICAFAAEgABBIIAAAAUAAEgAAIEYKLAAAAAAAAAAAAAAAAAAAAAAAAAAAAAAAAAA==

> <PUBCHEM_IUPAC_OPENEYE_NAME>
(E)-4,6-dioxohept-2-enedioic acid

> <PUBCHEM_IUPAC_CAS_NAME>
(E)-4,6-dioxo-2-heptenedioic acid

> <PUBCHEM_IUPAC_NAME>
(E)-4,6-dioxohept-2-enedioic acid

> <PUBCHEM_IUPAC_SYSTEMATIC_NAME>
(E)-4,6-bis(oxidanylidene)hept-2-enedioic acid

> <PUBCHEM_IUPAC_TRADITIONAL_NAME>
(E)-4,6-diketohept-2-enedioic acid

> <PUBCHEM_IUPAC_INCHI>
InChI=1S/C7H6O6/c8-4(1-2-6(10)11)3-5(9)7(12)13/h1-2H,3H2,(H,10,11)(H,12,13)/b2-1+

> <PUBCHEM_IUPAC_INCHIKEY>
AZCFLHZUFANAOR-OWOJBTEDSA-N

> <PUBCHEM_XLOGP3_AA>
-0.7

> <PUBCHEM_EXACT_MASS>
186.016438

> <PUBCHEM_MOLECULAR_FORMULA>
C7H6O6

> <PUBCHEM_MOLECULAR_WEIGHT>
186.11894

> <PUBCHEM_OPENEYE_CAN_SMILES>
C(C(=O)C=CC(=O)O)C(=O)C(=O)O

> <PUBCHEM_OPENEYE_ISO_SMILES>
C(C(=O)/C=C/C(=O)O)C(=O)C(=O)O

> <PUBCHEM_CACTVS_TPSA>
109

> <PUBCHEM_MONOISOTOPIC_WEIGHT>
186.016438

> <PUBCHEM_TOTAL_CHARGE>
0

> <PUBCHEM_HEAVY_ATOM_COUNT>
13

> <PUBCHEM_ATOM_DEF_STEREO_COUNT>
0

> <PUBCHEM_ATOM_UDEF_STEREO_COUNT>
0

> <PUBCHEM_BOND_DEF_STEREO_COUNT>
1

> <PUBCHEM_BOND_UDEF_STEREO_COUNT>
0

> <PUBCHEM_ISOTOPIC_ATOM_COUNT>
0

> <PUBCHEM_COMPONENT_COUNT>
1

> <PUBCHEM_CACTVS_TAUTO_COUNT>
3

> <PUBCHEM_COORDINATE_TYPE>
1
5
255

$$$$

