17395389
  -OEChem-06241222503D

 56 58  0     1  0  0  0  0  0999 V2000
    0.7500    1.2546   -0.6723 N   0  0  0  0  0  0  0  0  0  0  0  0
    3.5578    0.4419   -0.1725 N   0  0  0  0  0  0  0  0  0  0  0  0
    2.6674   -1.5792   -1.1107 N   0  0  0  0  0  0  0  0  0  0  0  0
    4.5897   -1.6671    0.3225 N   0  0  0  0  0  0  0  0  0  0  0  0
    5.4384    0.3247    1.2234 N   0  0  0  0  0  0  0  0  0  0  0  0
    3.6980   -3.6252   -0.6105 N   0  0  0  0  0  0  0  0  0  0  0  0
   -1.7862    1.9136    0.6802 C   0  0  0  0  0  0  0  0  0  0  0  0
   -1.1570    2.8072   -0.3960 C   0  0  0  0  0  0  0  0  0  0  0  0
   -0.7038    1.0338    1.3181 C   0  0  0  0  0  0  0  0  0  0  0  0
   -0.2833    2.0229   -1.3785 C   0  0  0  0  0  0  0  0  0  0  0  0
    0.1552    0.3075    0.2797 C   0  0  0  0  0  0  0  0  0  0  0  0
   -2.9398    1.0776    0.1202 C   0  0  0  0  0  0  0  0  0  0  0  0
    1.6077    0.5517   -1.6262 C   0  0  1  0  0  0  0  0  0  0  0  0
   -3.8824    0.6221    1.2319 C   0  0  0  0  0  0  0  0  0  0  0  0
    2.2026    1.5579   -2.6140 C   0  0  0  0  0  0  0  0  0  0  0  0
    2.6839   -0.2499   -0.9214 C   0  0  0  0  0  0  0  0  0  0  0  0
   -5.0333   -0.1832    0.6851 C   0  0  0  0  0  0  0  0  0  0  0  0
   -4.9205   -1.5683    0.5645 C   0  0  0  0  0  0  0  0  0  0  0  0
   -6.2111    0.4568    0.2992 C   0  0  0  0  0  0  0  0  0  0  0  0
    4.4818   -0.3322    0.4193 C   0  0  0  0  0  0  0  0  0  0  0  0
    3.6490   -2.2223   -0.4583 C   0  0  0  0  0  0  0  0  0  0  0  0
   -5.9856   -2.3133    0.0581 C   0  0  0  0  0  0  0  0  0  0  0  0
   -7.2761   -0.2882   -0.2070 C   0  0  0  0  0  0  0  0  0  0  0  0
   -7.1633   -1.6731   -0.3277 C   0  0  0  0  0  0  0  0  0  0  0  0
    5.3978    1.7640    1.3821 C   0  0  0  0  0  0  0  0  0  0  0  0
    6.4632   -0.4345    1.9105 C   0  0  0  0  0  0  0  0  0  0  0  0
   -2.1904    2.5788    1.4549 H   0  0  0  0  0  0  0  0  0  0  0  0
   -1.9326    3.3554   -0.9440 H   0  0  0  0  0  0  0  0  0  0  0  0
   -0.5354    3.5664    0.0982 H   0  0  0  0  0  0  0  0  0  0  0  0
   -0.0493    1.6738    1.9259 H   0  0  0  0  0  0  0  0  0  0  0  0
   -1.1386    0.3045    2.0094 H   0  0  0  0  0  0  0  0  0  0  0  0
   -0.9106    1.3693   -1.9982 H   0  0  0  0  0  0  0  0  0  0  0  0
    0.1499    2.7840   -2.0343 H   0  0  0  0  0  0  0  0  0  0  0  0
    0.9246   -0.2242    0.8506 H   0  0  0  0  0  0  0  0  0  0  0  0
   -0.4390   -0.4548   -0.2393 H   0  0  0  0  0  0  0  0  0  0  0  0
   -3.5165    1.6852   -0.5901 H   0  0  0  0  0  0  0  0  0  0  0  0
   -2.5752    0.2159   -0.4500 H   0  0  0  0  0  0  0  0  0  0  0  0
    1.0052   -0.1571   -2.2132 H   0  0  0  0  0  0  0  0  0  0  0  0
   -4.2761    1.4898    1.7771 H   0  0  0  0  0  0  0  0  0  0  0  0
   -3.3511    0.0188    1.9770 H   0  0  0  0  0  0  0  0  0  0  0  0
    2.6361    2.4281   -2.1065 H   0  0  0  0  0  0  0  0  0  0  0  0
    1.4757    1.9037   -3.3557 H   0  0  0  0  0  0  0  0  0  0  0  0
    3.0147    1.0918   -3.1862 H   0  0  0  0  0  0  0  0  0  0  0  0
   -4.0072   -2.0780    0.8597 H   0  0  0  0  0  0  0  0  0  0  0  0
   -6.3103    1.5355    0.3864 H   0  0  0  0  0  0  0  0  0  0  0  0
   -5.8977   -3.3916   -0.0365 H   0  0  0  0  0  0  0  0  0  0  0  0
   -8.1930    0.2101   -0.5080 H   0  0  0  0  0  0  0  0  0  0  0  0
   -7.9924   -2.2532   -0.7222 H   0  0  0  0  0  0  0  0  0  0  0  0
    3.0101   -4.0865   -1.1896 H   0  0  0  0  0  0  0  0  0  0  0  0
    4.4203   -4.1514   -0.1384 H   0  0  0  0  0  0  0  0  0  0  0  0
    6.2059    2.1301    2.0242 H   0  0  0  0  0  0  0  0  0  0  0  0
    4.4530    2.0770    1.8401 H   0  0  0  0  0  0  0  0  0  0  0  0
    5.5034    2.2646    0.4132 H   0  0  0  0  0  0  0  0  0  0  0  0
    7.1321    0.2094    2.4914 H   0  0  0  0  0  0  0  0  0  0  0  0
    7.0849   -0.9839    1.1950 H   0  0  0  0  0  0  0  0  0  0  0  0
    6.0139   -1.1485    2.6096 H   0  0  0  0  0  0  0  0  0  0  0  0
  1 10  1  0  0  0  0
  1 11  1  0  0  0  0
  1 13  1  0  0  0  0
  2 16  1  0  0  0  0
  2 20  2  0  0  0  0
  3 16  2  0  0  0  0
  3 21  1  0  0  0  0
  4 20  1  0  0  0  0
  4 21  2  0  0  0  0
  5 20  1  0  0  0  0
  5 25  1  0  0  0  0
  5 26  1  0  0  0  0
  6 21  1  0  0  0  0
  6 49  1  0  0  0  0
  6 50  1  0  0  0  0
  7  8  1  0  0  0  0
  7  9  1  0  0  0  0
  7 12  1  0  0  0  0
  7 27  1  0  0  0  0
  8 10  1  0  0  0  0
  8 28  1  0  0  0  0
  8 29  1  0  0  0  0
  9 11  1  0  0  0  0
  9 30  1  0  0  0  0
  9 31  1  0  0  0  0
 10 32  1  0  0  0  0
 10 33  1  0  0  0  0
 11 34  1  0  0  0  0
 11 35  1  0  0  0  0
 12 14  1  0  0  0  0
 12 36  1  0  0  0  0
 12 37  1  0  0  0  0
 13 15  1  0  0  0  0
 13 16  1  0  0  0  0
 13 38  1  0  0  0  0
 14 17  1  0  0  0  0
 14 39  1  0  0  0  0
 14 40  1  0  0  0  0
 15 41  1  0  0  0  0
 15 42  1  0  0  0  0
 15 43  1  0  0  0  0
 17 18  2  0  0  0  0
 17 19  1  0  0  0  0
 18 22  1  0  0  0  0
 18 44  1  0  0  0  0
 19 23  2  0  0  0  0
 19 45  1  0  0  0  0
 22 24  2  0  0  0  0
 22 46  1  0  0  0  0
 23 24  1  0  0  0  0
 23 47  1  0  0  0  0
 24 48  1  0  0  0  0
 25 51  1  0  0  0  0
 25 52  1  0  0  0  0
 25 53  1  0  0  0  0
 26 54  1  0  0  0  0
 26 55  1  0  0  0  0
 26 56  1  0  0  0  0
M  END
> <PUBCHEM_COMPOUND_CID>
17395389

> <PUBCHEM_CONFORMER_RMSD>
1

> <PUBCHEM_CONFORMER_DIVERSEORDER>
5
22
12
45
6
50
41
120
116
4
23
59
111
101
47
86
9
39
40
16
63
85
67
34
104
7
29
20
24
87
11
98
118
99
71
13
80
51
18
62
60
117
28
58
105
119
110
8
107
46
33
44
14
78
90
109
52
49
2
53
103
93
21
88
56
36
25
32
55
76
106
27
65
112
77
97
19
79
115
73
81
10
89
108
61
35
72
37
17
38
83
48
42
70
15
96
57
64
68
94
114
30
113
100
91
1
66
84
43
95
102
26
31
3
82
92
54
75
69
74

> <PUBCHEM_MMFF94_PARTIAL_CHARGES>
28
1 -0.81
10 0.27
11 0.27
13 0.41
14 0.14
16 0.48
17 -0.14
18 -0.15
19 -0.15
2 -0.62
20 0.72
21 0.72
22 -0.15
23 -0.15
24 -0.15
25 0.37
26 0.37
3 -0.62
4 -0.62
44 0.15
45 0.15
46 0.15
47 0.15
48 0.15
49 0.4
5 -0.84
50 0.4
6 -0.9

> <PUBCHEM_EFFECTIVE_ROTOR_COUNT>
7.2

> <PUBCHEM_PHARMACOPHORE_FEATURES>
7
1 1 cation
1 6 donor
4 2 4 5 20 cation
4 3 4 6 21 cation
6 1 7 8 9 10 11 rings
6 17 18 19 22 23 24 rings
6 2 3 4 16 20 21 rings

> <PUBCHEM_HEAVY_ATOM_COUNT>
26

> <PUBCHEM_ATOM_DEF_STEREO_COUNT>
0

> <PUBCHEM_ATOM_UDEF_STEREO_COUNT>
1

> <PUBCHEM_BOND_DEF_STEREO_COUNT>
0

> <PUBCHEM_BOND_UDEF_STEREO_COUNT>
0

> <PUBCHEM_ISOTOPIC_ATOM_COUNT>
0

> <PUBCHEM_COMPONENT_COUNT>
1

> <PUBCHEM_CACTVS_TAUTO_COUNT>
4

> <PUBCHEM_CONFORMER_ID>
01096EBD00000005

> <PUBCHEM_MMFF94_ENERGY>
72.012

> <PUBCHEM_FEATURE_SELFOVERLAP>
35.564

> <PUBCHEM_SHAPE_FINGERPRINT>
10 15 16298387955112605305
10378564 45 12175620676928316190
10613725 11 14261636131588174265
10674148 151 8502375542906946208
10794284 68 16085044031501803268
11135609 201 14924239209297199522
11135609 99 18187926231224658862
11443803 9 18058154052854220092
11720765 8 12247683764720247502
12390115 104 7276822490133695253
12516196 113 18186238425119925697
12596602 18 17167855392106881451
12616971 3 17988343933007189153
12623949 98 18042677480888214870
12633257 1 16081096978321200431
13533116 47 18335977661984018082
13583140 156 18043543896124696260
13782708 43 18126005108240311954
13885169 86 5256108172970581162
14251751 18 18410009927861443013
1454969 45 18271514326598695596
14848178 5 18411412921735981559
14933364 13 9655578526410989633
14950920 106 17678735867707684402
15183329 4 13038912156798053569
15188451 53 18131077056030122280
15475509 8 9078844012501761898
15510800 12 18130773569225142539
17349148 13 17274812597417012528
17492 89 18118119397454286390
17857418 61 18410287004770452575
18222031 100 17846489374997033332
19315092 285 18057339472907711530
19377110 9 17458069265390966509
20028762 73 18341893008671961618
20465049 17 8935010277970023198
21304304 249 17846501461320244138
21315763 87 18334574650781865571
22224240 67 15719397209289430021
23559900 14 16056306229125216445
23572383 38 18413101750021676147
25222932 49 17821734913958036694
2838139 119 10303813160066163675
3004659 81 18131059420757014655
3009799 131 16558753390480052208
312425 54 18114452483294228121
339767 52 18410573968647042667
3633792 109 14692571039993899276
38570 142 8896543116685944224
4098825 35 11167643391964442352
4325135 7 17967253083202857872
4339292 15 15984555528983068258
4340502 62 17894633647597757970
439807 62 18199178487837930163
444735 79 18410300207478821688
5104073 3 17895753044438844353
613672 6 17917135165575856987
6438161 24 18336548223595356047
8988823 20 18260265235239326392

> <PUBCHEM_SHAPE_MULTIPOLES>
505.18
18.49
2.87
1.65
16.69
1.22
-0.42
10.27
5.91
-0.93
-0.74
-2.34
-0.67
0.1

> <PUBCHEM_SHAPE_SELFOVERLAP>
1052.648

> <PUBCHEM_SHAPE_VOLUME>
276.7

> <PUBCHEM_COORDINATE_TYPE>
2
5
10

$$$$

