6443228
  -OEChem-07051213103D

 26 26  0     1  0  0  0  0  0999 V2000
   -0.4054   -2.2972    0.3599 Cl  0  0  0  0  0  0  0  0  0  0  0  0
    2.8382   -1.5720    0.8725 Cl  0  0  0  0  0  0  0  0  0  0  0  0
   -4.5953   -0.0449    0.5817 Cl  0  0  0  0  0  0  0  0  0  0  0  0
   -0.5783    0.4469   -0.1480 C   0  0  1  0  0  0  0  0  0  0  0  0
   -0.1766   -0.9205   -0.7823 C   0  0  1  0  0  0  0  0  0  0  0  0
    0.4697    0.8748    0.9100 C   0  0  0  0  0  0  0  0  0  0  0  0
    1.2721   -0.9246   -1.3115 C   0  0  0  0  0  0  0  0  0  0  0  0
    2.3346   -0.3647   -0.3495 C   0  0  1  0  0  0  0  0  0  0  0  0
    1.8733    0.8884    0.3498 C   0  0  0  0  0  0  0  0  0  0  0  0
   -0.6865    1.5277   -1.2485 C   0  0  0  0  0  0  0  0  0  0  0  0
   -1.9439    0.3748    0.4980 C   0  0  0  0  0  0  0  0  0  0  0  0
    2.6518    1.9790    0.4293 C   0  0  0  0  0  0  0  0  0  0  0  0
   -3.0537    0.0323   -0.1614 C   0  0  0  0  0  0  0  0  0  0  0  0
   -0.8381   -1.1529   -1.6253 H   0  0  0  0  0  0  0  0  0  0  0  0
    0.4482    0.1933    1.7708 H   0  0  0  0  0  0  0  0  0  0  0  0
    0.2082    1.8645    1.3097 H   0  0  0  0  0  0  0  0  0  0  0  0
    1.2926   -0.3058   -2.2191 H   0  0  0  0  0  0  0  0  0  0  0  0
    1.5541   -1.9311   -1.6475 H   0  0  0  0  0  0  0  0  0  0  0  0
    3.2405   -0.1655   -0.9337 H   0  0  0  0  0  0  0  0  0  0  0  0
    0.2788    1.7349   -1.7219 H   0  0  0  0  0  0  0  0  0  0  0  0
   -1.3691    1.2317   -2.0537 H   0  0  0  0  0  0  0  0  0  0  0  0
   -1.0485    2.4791   -0.8387 H   0  0  0  0  0  0  0  0  0  0  0  0
   -2.0174    0.6231    1.5549 H   0  0  0  0  0  0  0  0  0  0  0  0
    3.6521    1.9899    0.0097 H   0  0  0  0  0  0  0  0  0  0  0  0
    2.3074    2.8846    0.9171 H   0  0  0  0  0  0  0  0  0  0  0  0
   -3.0953   -0.2327   -1.2090 H   0  0  0  0  0  0  0  0  0  0  0  0
  1  5  1  0  0  0  0
  2  8  1  0  0  0  0
  3 13  1  0  0  0  0
  4  5  1  0  0  0  0
  4  6  1  0  0  0  0
  4 10  1  0  0  0  0
  4 11  1  0  0  0  0
  5  7  1  0  0  0  0
  5 14  1  0  0  0  0
  6  9  1  0  0  0  0
  6 15  1  0  0  0  0
  6 16  1  0  0  0  0
  7  8  1  0  0  0  0
  7 17  1  0  0  0  0
  7 18  1  0  0  0  0
  8  9  1  0  0  0  0
  8 19  1  0  0  0  0
  9 12  2  0  0  0  0
 10 20  1  0  0  0  0
 10 21  1  0  0  0  0
 10 22  1  0  0  0  0
 11 13  2  0  0  0  0
 11 23  1  0  0  0  0
 12 24  1  0  0  0  0
 12 25  1  0  0  0  0
 13 26  1  0  0  0  0
M  END
> <PUBCHEM_COMPOUND_CID>
6443228

> <PUBCHEM_CONFORMER_RMSD>
0.6

> <PUBCHEM_CONFORMER_DIVERSEORDER>
1
6
5
8
3
7
4
2

> <PUBCHEM_MMFF94_PARTIAL_CHARGES>
15
1 -0.29
11 -0.29
12 -0.3
13 -0.01
2 -0.29
23 0.15
24 0.15
25 0.15
26 0.15
3 -0.14
4 0.14
5 0.29
6 0.14
8 0.43
9 -0.28

> <PUBCHEM_EFFECTIVE_ROTOR_COUNT>
2

> <PUBCHEM_PHARMACOPHORE_FEATURES>
1
6 4 5 6 7 8 9 rings

> <PUBCHEM_HEAVY_ATOM_COUNT>
13

> <PUBCHEM_ATOM_DEF_STEREO_COUNT>
3

> <PUBCHEM_ATOM_UDEF_STEREO_COUNT>
0

> <PUBCHEM_BOND_DEF_STEREO_COUNT>
1

> <PUBCHEM_BOND_UDEF_STEREO_COUNT>
0

> <PUBCHEM_ISOTOPIC_ATOM_COUNT>
0

> <PUBCHEM_COMPONENT_COUNT>
1

> <PUBCHEM_CACTVS_TAUTO_COUNT>
1

> <PUBCHEM_CONFORMER_ID>
006250DC00000001

> <PUBCHEM_MMFF94_ENERGY>
29.727

> <PUBCHEM_FEATURE_SELFOVERLAP>
5.074

> <PUBCHEM_SHAPE_FINGERPRINT>
10219947 1 18342454825122593237
10980938 120 18040434373787213825
12251169 10 18408047307620856058
12423570 1 5372708486398758460
12491281 212 17458899341178033075
13380535 21 18266456512569725200
13380535 76 18188773834055198374
14251717 144 18259706718240527359
14325111 11 18261392217878568297
14344429 50 18410006663259082158
15219456 202 18342186599835355709
15501101 241 18409725175408149085
15775835 57 18261112920023021704
16945 1 18041561441771985518
18175812 5 18342176674334427869
18186145 218 18335417976332095517
20511035 2 18117278056183832246
20645477 70 18260551160503464087
21501502 16 18189064096350679286
23235685 24 17967819318911794376
23557571 272 17131553955285871397
241688 4 17248624601507844002
2748010 2 18266448819972484134
31174 14 18412550915785569368
3286 77 18340206396356913041
5084963 1 18261970625150139048
528862 383 18334862697111240952
528886 8 17313106328232934684
5337951 7 18114174229110504590

> <PUBCHEM_SHAPE_MULTIPOLES>
273.14
5.43
2.01
1.14
5.63
0.38
-0.21
-0.11
1.54
-1.28
0.16
-0.19
0
0.19

> <PUBCHEM_SHAPE_SELFOVERLAP>
519.195

> <PUBCHEM_SHAPE_VOLUME>
166.2

> <PUBCHEM_COORDINATE_TYPE>
2
5
10

$$$$

