440146
  -OEChem-07051212483D

 45 46  0     1  0  0  0  0  0999 V2000
   -2.5850    0.5157    1.0530 O   0  0  0  0  0  0  0  0  0  0  0  0
    2.2425   -1.0349   -0.2387 O   0  0  0  0  0  0  0  0  0  0  0  0
   -0.0860   -0.7395    1.2591 O   0  0  0  0  0  0  0  0  0  0  0  0
    3.5280   -0.7567    1.7062 O   0  0  0  0  0  0  0  0  0  0  0  0
    2.6348    1.8166    1.9327 O   0  0  0  0  0  0  0  0  0  0  0  0
   -3.1516   -2.7989   -0.1263 O   0  0  0  0  0  0  0  0  0  0  0  0
   -3.1395   -0.6211   -2.3233 O   0  0  0  0  0  0  0  0  0  0  0  0
    2.7168    2.3887   -1.1063 O   0  0  0  0  0  0  0  0  0  0  0  0
   -1.4994    1.0809   -0.9506 O   0  0  0  0  0  0  0  0  0  0  0  0
   -3.1143    3.1203    0.0351 O   0  0  0  0  0  0  0  0  0  0  0  0
    3.3434   -1.7244   -2.7279 O   0  0  0  0  0  0  0  0  0  0  0  0
    2.2792   -0.4583    1.0801 C   0  0  1  0  0  0  0  0  0  0  0  0
   -2.4752   -0.9111    1.2333 C   0  0  1  0  0  0  0  0  0  0  0  0
    2.1754    1.0445    0.8411 C   0  0  2  0  0  0  0  0  0  0  0  0
   -2.5075   -1.5388   -0.1557 C   0  0  2  0  0  0  0  0  0  0  0  0
   -3.3117   -0.5120   -0.9244 C   0  0  1  0  0  0  0  0  0  0  0  0
    3.0367    1.2087   -0.3930 C   0  0  1  0  0  0  0  0  0  0  0  0
   -2.7620    0.7894   -0.3493 C   0  0  1  0  0  0  0  0  0  0  0  0
    2.6510   -0.0317   -1.1911 C   0  0  1  0  0  0  0  0  0  0  0  0
    1.1378   -1.0053    1.9228 C   0  0  0  0  0  0  0  0  0  0  0  0
   -1.2006   -1.2271    1.9965 C   0  0  0  0  0  0  0  0  0  0  0  0
   -3.7055    1.9668   -0.5383 C   0  0  0  0  0  0  0  0  0  0  0  0
    3.7926   -0.5716   -2.0350 C   0  0  0  0  0  0  0  0  0  0  0  0
   -3.3347   -1.2309    1.8347 H   0  0  0  0  0  0  0  0  0  0  0  0
    1.1475    1.3563    0.6191 H   0  0  0  0  0  0  0  0  0  0  0  0
   -1.5169   -1.6889   -0.5968 H   0  0  0  0  0  0  0  0  0  0  0  0
   -4.3809   -0.6240   -0.7028 H   0  0  0  0  0  0  0  0  0  0  0  0
    4.1034    1.2458   -0.1471 H   0  0  0  0  0  0  0  0  0  0  0  0
    1.7831    0.1541   -1.8361 H   0  0  0  0  0  0  0  0  0  0  0  0
    1.1440   -0.5518    2.9213 H   0  0  0  0  0  0  0  0  0  0  0  0
    1.2564   -2.0894    2.0423 H   0  0  0  0  0  0  0  0  0  0  0  0
   -1.1056   -2.3081    2.1494 H   0  0  0  0  0  0  0  0  0  0  0  0
   -1.2226   -0.7245    2.9704 H   0  0  0  0  0  0  0  0  0  0  0  0
   -4.6694    1.8000   -0.0471 H   0  0  0  0  0  0  0  0  0  0  0  0
   -3.8726    2.1750   -1.5994 H   0  0  0  0  0  0  0  0  0  0  0  0
    4.6453   -0.8681   -1.4155 H   0  0  0  0  0  0  0  0  0  0  0  0
    4.1279    0.1667   -2.7692 H   0  0  0  0  0  0  0  0  0  0  0  0
    4.1343   -0.0060    1.6021 H   0  0  0  0  0  0  0  0  0  0  0  0
    2.6508    2.7457    1.6464 H   0  0  0  0  0  0  0  0  0  0  0  0
   -4.0477   -2.6785    0.2312 H   0  0  0  0  0  0  0  0  0  0  0  0
   -3.4049   -1.5207   -2.5801 H   0  0  0  0  0  0  0  0  0  0  0  0
    1.7673    2.3749   -1.3145 H   0  0  0  0  0  0  0  0  0  0  0  0
   -1.1371    0.2786   -1.3592 H   0  0  0  0  0  0  0  0  0  0  0  0
   -2.9542    2.9310    0.9755 H   0  0  0  0  0  0  0  0  0  0  0  0
    3.0432   -2.3678   -2.0632 H   0  0  0  0  0  0  0  0  0  0  0  0
  1 13  1  0  0  0  0
  1 18  1  0  0  0  0
  2 12  1  0  0  0  0
  2 19  1  0  0  0  0
  3 20  1  0  0  0  0
  3 21  1  0  0  0  0
  4 12  1  0  0  0  0
  4 38  1  0  0  0  0
  5 14  1  0  0  0  0
  5 39  1  0  0  0  0
  6 15  1  0  0  0  0
  6 40  1  0  0  0  0
  7 16  1  0  0  0  0
  7 41  1  0  0  0  0
  8 17  1  0  0  0  0
  8 42  1  0  0  0  0
  9 18  1  0  0  0  0
  9 43  1  0  0  0  0
 10 22  1  0  0  0  0
 10 44  1  0  0  0  0
 11 23  1  0  0  0  0
 11 45  1  0  0  0  0
 12 14  1  0  0  0  0
 12 20  1  0  0  0  0
 13 15  1  0  0  0  0
 13 21  1  0  0  0  0
 13 24  1  0  0  0  0
 14 17  1  0  0  0  0
 14 25  1  0  0  0  0
 15 16  1  0  0  0  0
 15 26  1  0  0  0  0
 16 18  1  0  0  0  0
 16 27  1  0  0  0  0
 17 19  1  0  0  0  0
 17 28  1  0  0  0  0
 18 22  1  0  0  0  0
 19 23  1  0  0  0  0
 19 29  1  0  0  0  0
 20 30  1  0  0  0  0
 20 31  1  0  0  0  0
 21 32  1  0  0  0  0
 21 33  1  0  0  0  0
 22 34  1  0  0  0  0
 22 35  1  0  0  0  0
 23 36  1  0  0  0  0
 23 37  1  0  0  0  0
M  END
> <PUBCHEM_COMPOUND_CID>
440146

> <PUBCHEM_CONFORMER_RMSD>
0.8

> <PUBCHEM_CONFORMER_DIVERSEORDER>
3
14
40
54
18
32
27
21
39
43
31
57
11
7
5
48
55
41
47
13
16
56
49
26
51
29
53
37
42
33
4
17
23
44
22
36
46
2
28
30
50
45
25
10
24
38
6
15
35
52
20
1
8
9
34
19
12

> <PUBCHEM_MMFF94_PARTIAL_CHARGES>
31
1 -0.56
10 -0.68
11 -0.68
12 0.56
13 0.28
14 0.28
15 0.28
16 0.28
17 0.28
18 0.56
19 0.28
2 -0.56
20 0.28
21 0.28
22 0.28
23 0.28
3 -0.56
38 0.4
39 0.4
4 -0.68
40 0.4
41 0.4
42 0.4
43 0.4
44 0.4
45 0.4
5 -0.68
6 -0.68
7 -0.68
8 -0.68
9 -0.68

> <PUBCHEM_EFFECTIVE_ROTOR_COUNT>
8

> <PUBCHEM_PHARMACOPHORE_FEATURES>
21
1 1 acceptor
1 10 acceptor
1 10 donor
1 11 acceptor
1 11 donor
1 2 acceptor
1 3 acceptor
1 4 acceptor
1 4 donor
1 5 acceptor
1 5 donor
1 6 acceptor
1 6 donor
1 7 acceptor
1 7 donor
1 8 acceptor
1 8 donor
1 9 acceptor
1 9 donor
5 1 13 15 16 18 rings
5 2 12 14 17 19 rings

> <PUBCHEM_HEAVY_ATOM_COUNT>
23

> <PUBCHEM_ATOM_DEF_STEREO_COUNT>
8

> <PUBCHEM_ATOM_UDEF_STEREO_COUNT>
0

> <PUBCHEM_BOND_DEF_STEREO_COUNT>
0

> <PUBCHEM_BOND_UDEF_STEREO_COUNT>
0

> <PUBCHEM_ISOTOPIC_ATOM_COUNT>
0

> <PUBCHEM_COMPONENT_COUNT>
1

> <PUBCHEM_CACTVS_TAUTO_COUNT>
1

> <PUBCHEM_CONFORMER_ID>
0006B75200000003

> <PUBCHEM_MMFF94_ENERGY>
70.4133

> <PUBCHEM_FEATURE_SELFOVERLAP>
106.696

> <PUBCHEM_SHAPE_FINGERPRINT>
10498660 4 17703505489432589773
10764073 3 17835277732580995968
11578080 2 16082211982070132776
11615756 256 17131826586107319747
11640471 11 15769216016672049842
12156800 1 15961462785552037662
12173636 292 18340501040436667291
12596599 1 18410288112276136917
128993 33 17917982906120592133
13134695 92 17916605253059697546
13224815 77 18201157650535223923
13693222 7 16917347021819761074
14123250 116 18202562869683071017
14386348 128 17203317927335601672
14713325 29 14545026367951044058
15342168 16 16701731761432510199
192875 21 16557369062512166103
20715895 44 15264852544274063847
21475661 188 14905673023570135757
21731516 1 4678820562100329939
21864079 5 17989196027952359249
22749437 52 17131283362907020803
235170 7 17969222243934701590
23557571 272 18265901259023794307
238 59 18121790421576066892
2637199 183 18054774342034066017
312423 11 17489869345074246683
46194498 28 18192689216557819670
474 4 17274552047773928883
5161694 15 17968090988177247645
5262128 65 18338787927699766308
7615 1 17274833427776250827

> <PUBCHEM_SHAPE_MULTIPOLES>
408.77
7.93
2.49
2.32
0.21
0.57
-1.21
2.08
-2.38
-1.55
0.78
1.69
-0.11
-0.85

> <PUBCHEM_SHAPE_SELFOVERLAP>
842.936

> <PUBCHEM_SHAPE_VOLUME>
234.4

> <PUBCHEM_COORDINATE_TYPE>
2
5
10

$$$$

