582780
  -OEChem-06241222442D

 37 39  0     0  0  0  0  0  0999 V2000
    9.2136    2.0902    0.0000 O   0  0  0  0  0  0  0  0  0  0  0  0
    5.6103    2.2158    0.0000 O   0  0  0  0  0  0  0  0  0  0  0  0
    7.2566    1.6778    0.0000 N   0  0  0  0  0  0  0  0  0  0  0  0
    4.6783   -2.2452    0.0000 N   0  0  0  0  0  0  0  0  0  0  0  0
    7.5673    2.6283    0.0000 C   0  0  0  0  0  0  0  0  0  0  0  0
    7.9244    0.9335    0.0000 C   0  0  0  0  0  0  0  0  0  0  0  0
    5.9674    0.5210    0.0000 C   0  0  0  0  0  0  0  0  0  0  0  0
    4.9889    0.3148    0.0000 C   0  0  0  0  0  0  0  0  0  0  0  0
    6.2781    1.4715    0.0000 C   0  0  0  0  0  0  0  0  0  0  0  0
    4.6783   -0.6357    0.0000 C   0  0  0  0  0  0  0  0  0  0  0  0
    8.5458    2.8345    0.0000 C   0  0  0  0  0  0  0  0  0  0  0  0
    8.9030    1.1397    0.0000 C   0  0  0  0  0  0  0  0  0  0  0  0
    3.7320   -0.9404    0.0000 C   0  0  0  0  0  0  0  0  0  0  0  0
    3.7320   -1.9404    0.0000 C   0  0  0  0  0  0  0  0  0  0  0  0
    5.2619   -1.4404    0.0000 C   0  0  0  0  0  0  0  0  0  0  0  0
    2.8660   -0.4404    0.0000 C   0  0  0  0  0  0  0  0  0  0  0  0
    2.8660   -2.4404    0.0000 C   0  0  0  0  0  0  0  0  0  0  0  0
    2.0000   -0.9404    0.0000 C   0  0  0  0  0  0  0  0  0  0  0  0
    2.0000   -1.9404    0.0000 C   0  0  0  0  0  0  0  0  0  0  0  0
    7.5467    3.2479    0.0000 H   0  0  0  0  0  0  0  0  0  0  0  0
    6.9534    2.7156    0.0000 H   0  0  0  0  0  0  0  0  0  0  0  0
    7.3981    0.6058    0.0000 H   0  0  0  0  0  0  0  0  0  0  0  0
    8.1557    0.3582    0.0000 H   0  0  0  0  0  0  0  0  0  0  0  0
    5.9880   -0.0986    0.0000 H   0  0  0  0  0  0  0  0  0  0  0  0
    6.5812    0.4337    0.0000 H   0  0  0  0  0  0  0  0  0  0  0  0
    4.9684    0.9345    0.0000 H   0  0  0  0  0  0  0  0  0  0  0  0
    4.3751    0.4022    0.0000 H   0  0  0  0  0  0  0  0  0  0  0  0
    9.0721    3.1621    0.0000 H   0  0  0  0  0  0  0  0  0  0  0  0
    8.3145    3.4098    0.0000 H   0  0  0  0  0  0  0  0  0  0  0  0
    8.9235    0.5200    0.0000 H   0  0  0  0  0  0  0  0  0  0  0  0
    9.5168    1.0523    0.0000 H   0  0  0  0  0  0  0  0  0  0  0  0
    5.8819   -1.4404    0.0000 H   0  0  0  0  0  0  0  0  0  0  0  0
    4.8709   -2.8345    0.0000 H   0  0  0  0  0  0  0  0  0  0  0  0
    2.8660    0.1796    0.0000 H   0  0  0  0  0  0  0  0  0  0  0  0
    2.8660   -3.0604    0.0000 H   0  0  0  0  0  0  0  0  0  0  0  0
    1.4631   -0.6304    0.0000 H   0  0  0  0  0  0  0  0  0  0  0  0
    1.4631   -2.2504    0.0000 H   0  0  0  0  0  0  0  0  0  0  0  0
  1 11  1  0  0  0  0
  1 12  1  0  0  0  0
  2  9  2  0  0  0  0
  3  5  1  0  0  0  0
  3  6  1  0  0  0  0
  3  9  1  0  0  0  0
  4 14  1  0  0  0  0
  4 15  1  0  0  0  0
  4 33  1  0  0  0  0
  5 11  1  0  0  0  0
  5 20  1  0  0  0  0
  5 21  1  0  0  0  0
  6 12  1  0  0  0  0
  6 22  1  0  0  0  0
  6 23  1  0  0  0  0
  7  8  1  0  0  0  0
  7  9  1  0  0  0  0
  7 24  1  0  0  0  0
  7 25  1  0  0  0  0
  8 10  1  0  0  0  0
  8 26  1  0  0  0  0
  8 27  1  0  0  0  0
 10 13  1  0  0  0  0
 10 15  2  0  0  0  0
 11 28  1  0  0  0  0
 11 29  1  0  0  0  0
 12 30  1  0  0  0  0
 12 31  1  0  0  0  0
 13 14  1  0  0  0  0
 13 16  2  0  0  0  0
 14 17  2  0  0  0  0
 15 32  1  0  0  0  0
 16 18  1  0  0  0  0
 16 34  1  0  0  0  0
 17 19  1  0  0  0  0
 17 35  1  0  0  0  0
 18 19  2  0  0  0  0
 18 36  1  0  0  0  0
 19 37  1  0  0  0  0
M  END
> <PUBCHEM_COMPOUND_CID>
582780

> <PUBCHEM_COMPOUND_CANONICALIZED>
1

> <PUBCHEM_CACTVS_COMPLEXITY>
315

> <PUBCHEM_CACTVS_HBOND_ACCEPTOR>
2

> <PUBCHEM_CACTVS_HBOND_DONOR>
1

> <PUBCHEM_CACTVS_ROTATABLE_BOND>
3

> <PUBCHEM_CACTVS_SUBSKEYS>
AAADceBzMAAAAAAAAAAAAAAAAAAAAWAAAAA8QAAAAAAAAFgB8AAAHgAQAAAADAjhngY8wPPJlACoAzV3VACCgCAxAiAI2aE4ZJgKIPLAkZGHIAhglgDYyAcYicCOgAAAAAACAAAAAAAAAAQAAAAAAAAAAA==

> <PUBCHEM_IUPAC_OPENEYE_NAME>
3-(1H-indol-3-yl)-1-morpholino-propan-1-one

> <PUBCHEM_IUPAC_CAS_NAME>
3-(1H-indol-3-yl)-1-(4-morpholinyl)-1-propanone

> <PUBCHEM_IUPAC_NAME>
3-(1H-indol-3-yl)-1-morpholin-4-ylpropan-1-one

> <PUBCHEM_IUPAC_SYSTEMATIC_NAME>
3-(1H-indol-3-yl)-1-morpholin-4-yl-propan-1-one

> <PUBCHEM_IUPAC_TRADITIONAL_NAME>
3-(1H-indol-3-yl)-1-morpholino-propan-1-one

> <PUBCHEM_IUPAC_INCHI>
InChI=1S/C15H18N2O2/c18-15(17-7-9-19-10-8-17)6-5-12-11-16-14-4-2-1-3-13(12)14/h1-4,11,16H,5-10H2

> <PUBCHEM_IUPAC_INCHIKEY>
QAQKTOGMABHKME-UHFFFAOYSA-N

> <PUBCHEM_XLOGP3>
1.3

> <PUBCHEM_EXACT_MASS>
258.136828

> <PUBCHEM_MOLECULAR_FORMULA>
C15H18N2O2

> <PUBCHEM_MOLECULAR_WEIGHT>
258.31562

> <PUBCHEM_OPENEYE_CAN_SMILES>
C1COCCN1C(=O)CCC2=CNC3=CC=CC=C32

> <PUBCHEM_OPENEYE_ISO_SMILES>
C1COCCN1C(=O)CCC2=CNC3=CC=CC=C32

> <PUBCHEM_CACTVS_TPSA>
45.3

> <PUBCHEM_MONOISOTOPIC_WEIGHT>
258.136828

> <PUBCHEM_TOTAL_CHARGE>
0

> <PUBCHEM_HEAVY_ATOM_COUNT>
19

> <PUBCHEM_ATOM_DEF_STEREO_COUNT>
0

> <PUBCHEM_ATOM_UDEF_STEREO_COUNT>
0

> <PUBCHEM_BOND_DEF_STEREO_COUNT>
0

> <PUBCHEM_BOND_UDEF_STEREO_COUNT>
0

> <PUBCHEM_ISOTOPIC_ATOM_COUNT>
0

> <PUBCHEM_COMPONENT_COUNT>
1

> <PUBCHEM_CACTVS_TAUTO_COUNT>
1

> <PUBCHEM_COORDINATE_TYPE>
1
5
255

> <PUBCHEM_BONDANNOTATIONS>
10  13  8
10  15  8
13  14  8
13  16  8
14  17  8
16  18  8
17  19  8
18  19  8
4  14  8
4  15  8

$$$$

