3611
  -OEChem-07051212583D

 24 24  0     0  0  0  0  0  0999 V2000
   -3.3454    0.3519    0.5950 O   0  0  0  0  0  0  0  0  0  0  0  0
   -1.5705    2.1520   -0.4739 O   0  0  0  0  0  0  0  0  0  0  0  0
    2.5637   -0.1790    0.0933 C   0  0  0  0  0  0  0  0  0  0  0  0
    1.0698   -0.2471   -0.1042 C   0  0  0  0  0  0  0  0  0  0  0  0
    3.1758    0.7941   -0.9044 C   0  0  0  0  0  0  0  0  0  0  0  0
    2.8937    0.2182    1.5261 C   0  0  0  0  0  0  0  0  0  0  0  0
    0.3320    0.8691   -0.0082 C   0  0  0  0  0  0  0  0  0  0  0  0
    0.5864   -1.5603   -0.4713 C   0  0  0  0  0  0  0  0  0  0  0  0
   -1.1335    1.0445   -0.1601 C   0  0  0  0  0  0  0  0  0  0  0  0
   -0.6605   -2.0326   -0.3853 C   0  0  0  0  0  0  0  0  0  0  0  0
   -2.0811   -0.0496    0.1838 C   0  0  0  0  0  0  0  0  0  0  0  0
   -1.8304   -1.3612    0.1091 C   0  0  0  0  0  0  0  0  0  0  0  0
    3.0275   -1.1583   -0.0835 H   0  0  0  0  0  0  0  0  0  0  0  0
    2.8969    1.8360   -0.7139 H   0  0  0  0  0  0  0  0  0  0  0  0
    2.8890    0.5461   -1.9327 H   0  0  0  0  0  0  0  0  0  0  0  0
    4.2698    0.7459   -0.8523 H   0  0  0  0  0  0  0  0  0  0  0  0
    2.4357   -0.4721    2.2435 H   0  0  0  0  0  0  0  0  0  0  0  0
    2.5572    1.2317    1.7703 H   0  0  0  0  0  0  0  0  0  0  0  0
    3.9772    0.1893    1.6886 H   0  0  0  0  0  0  0  0  0  0  0  0
    0.8280    1.8156    0.2007 H   0  0  0  0  0  0  0  0  0  0  0  0
    1.3289   -2.2448   -0.8795 H   0  0  0  0  0  0  0  0  0  0  0  0
   -0.8342   -3.0583   -0.7065 H   0  0  0  0  0  0  0  0  0  0  0  0
   -2.6327   -2.0445    0.3871 H   0  0  0  0  0  0  0  0  0  0  0  0
   -3.3613    1.3246    0.5867 H   0  0  0  0  0  0  0  0  0  0  0  0
  1 11  1  0  0  0  0
  1 24  1  0  0  0  0
  2  9  2  0  0  0  0
  3  4  1  0  0  0  0
  3  5  1  0  0  0  0
  3  6  1  0  0  0  0
  3 13  1  0  0  0  0
  4  7  2  0  0  0  0
  4  8  1  0  0  0  0
  5 14  1  0  0  0  0
  5 15  1  0  0  0  0
  5 16  1  0  0  0  0
  6 17  1  0  0  0  0
  6 18  1  0  0  0  0
  6 19  1  0  0  0  0
  7  9  1  0  0  0  0
  7 20  1  0  0  0  0
  8 10  2  0  0  0  0
  8 21  1  0  0  0  0
  9 11  1  0  0  0  0
 10 12  1  0  0  0  0
 10 22  1  0  0  0  0
 11 12  2  0  0  0  0
 12 23  1  0  0  0  0
M  END
> <PUBCHEM_COMPOUND_CID>
3611

> <PUBCHEM_CONFORMER_RMSD>
0.4

> <PUBCHEM_CONFORMER_DIVERSEORDER>
3
5
2
6
1
4

> <PUBCHEM_MMFF94_PARTIAL_CHARGES>
15
1 -0.53
10 -0.15
11 0.09
12 -0.15
2 -0.57
20 0.15
21 0.15
22 0.15
23 0.15
24 0.45
3 0.14
4 -0.14
7 -0.14
8 -0.15
9 0.54

> <PUBCHEM_EFFECTIVE_ROTOR_COUNT>
1

> <PUBCHEM_PHARMACOPHORE_FEATURES>
4
1 1 donor
1 2 acceptor
3 3 5 6 hydrophobe
7 4 7 8 9 10 11 12 rings

> <PUBCHEM_HEAVY_ATOM_COUNT>
12

> <PUBCHEM_ATOM_DEF_STEREO_COUNT>
0

> <PUBCHEM_ATOM_UDEF_STEREO_COUNT>
0

> <PUBCHEM_BOND_DEF_STEREO_COUNT>
0

> <PUBCHEM_BOND_UDEF_STEREO_COUNT>
0

> <PUBCHEM_ISOTOPIC_ATOM_COUNT>
0

> <PUBCHEM_COMPONENT_COUNT>
1

> <PUBCHEM_CACTVS_TAUTO_COUNT>
11

> <PUBCHEM_CONFORMER_ID>
00000E1B00000003

> <PUBCHEM_MMFF94_ENERGY>
36.7442

> <PUBCHEM_FEATURE_SELFOVERLAP>
20.297

> <PUBCHEM_SHAPE_FINGERPRINT>
10857977 72 18337112267525559379
11132069 177 18334016064256513571
13380535 76 18196381535512575037
13538477 17 18131073675911926554
15310529 11 17060625477267697268
15775835 57 18409163303369998450
16945 1 18411705369742158302
17846911 113 18335710454819878737
20511035 2 17977398448680333878
20645464 45 17676779682061231946
20871998 184 18262231110690616471
21028194 46 18261396701660810498
21040471 1 18337113474712036846
23235685 24 18335417980357978877
23552423 10 17768249007526393196
23559900 14 18040991865950044950
2748010 2 18122903402405406047
369184 2 16630531725712290918
5084963 1 18261667164362518678
53812653 166 18186519912311423842
54338 74 18051429382569634471
6333449 129 18188216407313785630
81228 2 17900555483659584350

> <PUBCHEM_SHAPE_MULTIPOLES>
235.22
4.6
1.86
0.95
1.27
0.19
-0.22
-0.97
-0.74
-0.99
0.39
0.71
-0.08
-0.05

> <PUBCHEM_SHAPE_SELFOVERLAP>
480.572

> <PUBCHEM_SHAPE_VOLUME>
135

> <PUBCHEM_COORDINATE_TYPE>
2
5
10

$$$$

