23135
  -OEChem-07051212592D

 31 31  0     0  0  0  0  0  0999 V2000
    2.8660   -3.0950    0.0000 O   0  0  0  0  0  0  0  0  0  0  0  0
    3.7320    2.4050    0.0000 N   0  3  0  0  0  0  0  0  0  0  0  0
    3.7320    1.4050    0.0000 C   0  0  0  0  0  0  0  0  0  0  0  0
    2.8660    0.9050    0.0000 C   0  0  0  0  0  0  0  0  0  0  0  0
    3.7320    3.4050    0.0000 C   0  0  0  0  0  0  0  0  0  0  0  0
    4.7320    2.4050    0.0000 C   0  0  0  0  0  0  0  0  0  0  0  0
    2.7320    2.4050    0.0000 C   0  0  0  0  0  0  0  0  0  0  0  0
    2.8660   -0.0950    0.0000 C   0  0  0  0  0  0  0  0  0  0  0  0
    2.0000   -0.5950    0.0000 C   0  0  0  0  0  0  0  0  0  0  0  0
    3.7320   -0.5950    0.0000 C   0  0  0  0  0  0  0  0  0  0  0  0
    2.0000   -1.5950    0.0000 C   0  0  0  0  0  0  0  0  0  0  0  0
    3.7320   -1.5950    0.0000 C   0  0  0  0  0  0  0  0  0  0  0  0
    2.8660   -2.0950    0.0000 C   0  0  0  0  0  0  0  0  0  0  0  0
    3.9441    0.8224    0.0000 H   0  0  0  0  0  0  0  0  0  0  0  0
    4.3426    1.5127    0.0000 H   0  0  0  0  0  0  0  0  0  0  0  0
    2.6540    1.4876    0.0000 H   0  0  0  0  0  0  0  0  0  0  0  0
    2.2554    0.7973    0.0000 H   0  0  0  0  0  0  0  0  0  0  0  0
    4.3520    3.4050    0.0000 H   0  0  0  0  0  0  0  0  0  0  0  0
    2.7320    3.0250    0.0000 H   0  0  0  0  0  0  0  0  0  0  0  0
    2.1120    2.4050    0.0000 H   0  0  0  0  0  0  0  0  0  0  0  0
    2.7320    1.7850    0.0000 H   0  0  0  0  0  0  0  0  0  0  0  0
    4.7320    1.7850    0.0000 H   0  0  0  0  0  0  0  0  0  0  0  0
    5.3520    2.4050    0.0000 H   0  0  0  0  0  0  0  0  0  0  0  0
    4.7320    3.0250    0.0000 H   0  0  0  0  0  0  0  0  0  0  0  0
    3.7320    4.0250    0.0000 H   0  0  0  0  0  0  0  0  0  0  0  0
    3.1120    3.4050    0.0000 H   0  0  0  0  0  0  0  0  0  0  0  0
    1.4631   -0.2850    0.0000 H   0  0  0  0  0  0  0  0  0  0  0  0
    4.2690   -0.2850    0.0000 H   0  0  0  0  0  0  0  0  0  0  0  0
    1.4631   -1.9050    0.0000 H   0  0  0  0  0  0  0  0  0  0  0  0
    4.2690   -1.9050    0.0000 H   0  0  0  0  0  0  0  0  0  0  0  0
    2.3291   -3.4050    0.0000 H   0  0  0  0  0  0  0  0  0  0  0  0
  1 13  1  0  0  0  0
  1 31  1  0  0  0  0
  2  3  1  0  0  0  0
  2  5  1  0  0  0  0
  2  6  1  0  0  0  0
  2  7  1  0  0  0  0
  3  4  1  0  0  0  0
  3 14  1  0  0  0  0
  3 15  1  0  0  0  0
  4  8  1  0  0  0  0
  4 16  1  0  0  0  0
  4 17  1  0  0  0  0
  5 18  1  0  0  0  0
  5 25  1  0  0  0  0
  5 26  1  0  0  0  0
  6 22  1  0  0  0  0
  6 23  1  0  0  0  0
  6 24  1  0  0  0  0
  7 19  1  0  0  0  0
  7 20  1  0  0  0  0
  7 21  1  0  0  0  0
  8  9  2  0  0  0  0
  8 10  1  0  0  0  0
  9 11  1  0  0  0  0
  9 27  1  0  0  0  0
 10 12  2  0  0  0  0
 10 28  1  0  0  0  0
 11 13  2  0  0  0  0
 11 29  1  0  0  0  0
 12 13  1  0  0  0  0
 12 30  1  0  0  0  0
M  CHG  1   2   1
M  END
> <PUBCHEM_COMPOUND_CID>
23135

> <PUBCHEM_COMPOUND_CANONICALIZED>
1

> <PUBCHEM_CACTVS_COMPLEXITY>
143

> <PUBCHEM_CACTVS_HBOND_ACCEPTOR>
1

> <PUBCHEM_CACTVS_HBOND_DONOR>
1

> <PUBCHEM_CACTVS_ROTATABLE_BOND>
3

> <PUBCHEM_CACTVS_SUBSKEYS>
AAADceByIAAAAAAAAAAAAAAAAAAAAAAAAAAwAAAAAAAAAAABAAAAHgAACAAADATBmAQyBoMAAgCAAiBCAAACAAAgIAAIiAAOCIgIJiKCkROEcAAkwBEImAeQwIAOIAAAAAAAAABAAAAAAAAAAAAAAAAAAA==

> <PUBCHEM_IUPAC_OPENEYE_NAME>
2-(4-hydroxyphenyl)ethyl-trimethyl-ammonium

> <PUBCHEM_IUPAC_CAS_NAME>
2-(4-hydroxyphenyl)ethyl-trimethylammonium

> <PUBCHEM_IUPAC_NAME>
2-(4-hydroxyphenyl)ethyl-trimethylazanium

> <PUBCHEM_IUPAC_SYSTEMATIC_NAME>
2-(4-hydroxyphenyl)ethyl-trimethyl-azanium

> <PUBCHEM_IUPAC_TRADITIONAL_NAME>
2-(4-hydroxyphenyl)ethyl-trimethyl-ammonium

> <PUBCHEM_IUPAC_INCHI>
InChI=1S/C11H17NO/c1-12(2,3)9-8-10-4-6-11(13)7-5-10/h4-7H,8-9H2,1-3H3/p+1

> <PUBCHEM_IUPAC_INCHIKEY>
PTOJXIKSKSASRB-UHFFFAOYSA-O

> <PUBCHEM_XLOGP3>
2.1

> <PUBCHEM_EXACT_MASS>
180.138839

> <PUBCHEM_MOLECULAR_FORMULA>
C11H18NO+

> <PUBCHEM_MOLECULAR_WEIGHT>
180.26672

> <PUBCHEM_OPENEYE_CAN_SMILES>
C[N+](C)(C)CCC1=CC=C(C=C1)O

> <PUBCHEM_OPENEYE_ISO_SMILES>
C[N+](C)(C)CCC1=CC=C(C=C1)O

> <PUBCHEM_CACTVS_TPSA>
20.2

> <PUBCHEM_MONOISOTOPIC_WEIGHT>
180.138839

> <PUBCHEM_TOTAL_CHARGE>
1

> <PUBCHEM_HEAVY_ATOM_COUNT>
13

> <PUBCHEM_ATOM_DEF_STEREO_COUNT>
0

> <PUBCHEM_ATOM_UDEF_STEREO_COUNT>
0

> <PUBCHEM_BOND_DEF_STEREO_COUNT>
0

> <PUBCHEM_BOND_UDEF_STEREO_COUNT>
0

> <PUBCHEM_ISOTOPIC_ATOM_COUNT>
0

> <PUBCHEM_COMPONENT_COUNT>
1

> <PUBCHEM_CACTVS_TAUTO_COUNT>
2

> <PUBCHEM_COORDINATE_TYPE>
1
5
255

> <PUBCHEM_BONDANNOTATIONS>
10  12  8
11  13  8
12  13  8
8  10  8
8  9  8
9  11  8

$$$$

