37249
  -OEChem-07051213053D

 22 23  0     0  0  0  0  0  0999 V2000
   -0.6767    1.9121    1.7524 Cl  0  0  0  0  0  0  0  0  0  0  0  0
    0.6767   -1.9122    1.7523 Cl  0  0  0  0  0  0  0  0  0  0  0  0
   -3.8722    1.7524    1.6342 Cl  0  0  0  0  0  0  0  0  0  0  0  0
    3.8722   -1.7524    1.6341 Cl  0  0  0  0  0  0  0  0  0  0  0  0
   -3.5473   -2.0328   -2.1544 Cl  0  0  0  0  0  0  0  0  0  0  0  0
    3.5472    2.0329   -2.1543 Cl  0  0  0  0  0  0  0  0  0  0  0  0
   -0.7258   -0.0096   -0.1675 C   0  0  0  0  0  0  0  0  0  0  0  0
    0.7258    0.0096   -0.1675 C   0  0  0  0  0  0  0  0  0  0  0  0
   -1.4797    0.8155    0.6670 C   0  0  0  0  0  0  0  0  0  0  0  0
    1.4797   -0.8156    0.6670 C   0  0  0  0  0  0  0  0  0  0  0  0
   -1.3650   -0.8904   -1.0400 C   0  0  0  0  0  0  0  0  0  0  0  0
    1.3650    0.8905   -1.0399 C   0  0  0  0  0  0  0  0  0  0  0  0
   -2.8728    0.7598    0.6292 C   0  0  0  0  0  0  0  0  0  0  0  0
    2.8729   -0.7598    0.6292 C   0  0  0  0  0  0  0  0  0  0  0  0
   -2.7582   -0.9463   -1.0777 C   0  0  0  0  0  0  0  0  0  0  0  0
    2.7582    0.9462   -1.0777 C   0  0  0  0  0  0  0  0  0  0  0  0
   -3.5122   -0.1212   -0.2431 C   0  0  0  0  0  0  0  0  0  0  0  0
    3.5122    0.1212   -0.2431 C   0  0  0  0  0  0  0  0  0  0  0  0
   -0.7817   -1.5368   -1.6935 H   0  0  0  0  0  0  0  0  0  0  0  0
    0.7817    1.5370   -1.6934 H   0  0  0  0  0  0  0  0  0  0  0  0
   -4.5988   -0.1675   -0.2754 H   0  0  0  0  0  0  0  0  0  0  0  0
    4.5987    0.1676   -0.2755 H   0  0  0  0  0  0  0  0  0  0  0  0
  1  9  1  0  0  0  0
  2 10  1  0  0  0  0
  3 13  1  0  0  0  0
  4 14  1  0  0  0  0
  5 15  1  0  0  0  0
  6 16  1  0  0  0  0
  7  8  1  0  0  0  0
  7  9  2  0  0  0  0
  7 11  1  0  0  0  0
  8 10  2  0  0  0  0
  8 12  1  0  0  0  0
  9 13  1  0  0  0  0
 10 14  1  0  0  0  0
 11 15  2  0  0  0  0
 11 19  1  0  0  0  0
 12 16  2  0  0  0  0
 12 20  1  0  0  0  0
 13 17  2  0  0  0  0
 14 18  2  0  0  0  0
 15 17  1  0  0  0  0
 16 18  1  0  0  0  0
 17 21  1  0  0  0  0
 18 22  1  0  0  0  0
M  END
> <PUBCHEM_COMPOUND_CID>
37249

> <PUBCHEM_CONFORMER_RMSD>
0.6

> <PUBCHEM_CONFORMER_DIVERSEORDER>
1
2

> <PUBCHEM_MMFF94_PARTIAL_CHARGES>
20
1 -0.18
10 0.18
11 -0.15
12 -0.15
13 0.18
14 0.18
15 0.18
16 0.18
17 -0.15
18 -0.15
19 0.15
2 -0.18
20 0.15
21 0.15
22 0.15
3 -0.18
4 -0.18
5 -0.18
6 -0.18
9 0.18

> <PUBCHEM_EFFECTIVE_ROTOR_COUNT>
1

> <PUBCHEM_PHARMACOPHORE_FEATURES>
2
6 7 9 11 13 15 17 rings
6 8 10 12 14 16 18 rings

> <PUBCHEM_HEAVY_ATOM_COUNT>
18

> <PUBCHEM_ATOM_DEF_STEREO_COUNT>
0

> <PUBCHEM_ATOM_UDEF_STEREO_COUNT>
0

> <PUBCHEM_BOND_DEF_STEREO_COUNT>
0

> <PUBCHEM_BOND_UDEF_STEREO_COUNT>
0

> <PUBCHEM_ISOTOPIC_ATOM_COUNT>
0

> <PUBCHEM_COMPONENT_COUNT>
1

> <PUBCHEM_CACTVS_TAUTO_COUNT>
1

> <PUBCHEM_CONFORMER_ID>
0000918100000001

> <PUBCHEM_MMFF94_ENERGY>
49.3567

> <PUBCHEM_FEATURE_SELFOVERLAP>
10.149

> <PUBCHEM_SHAPE_FINGERPRINT>
10062212 137 18408889559339805667
11578080 2 17978834264716567060
11640471 11 18338781420745373313
12236239 1 18410573993741385804
12390115 104 17197664071823140764
12553582 1 17750799835820399799
12788726 201 18189048708095034183
13009979 54 18336551611459603898
13134695 92 17274835704768209358
13296908 3 15574709179570493326
13538477 17 18260550060342976553
13583140 156 17773584109123823233
13965767 371 17180790274308162216
14178342 30 17749398091195651583
15219456 202 16343982502844775516
15309172 13 17417800717291318640
15342168 16 17487593282847972412
15375358 24 15647346280660775113
15669948 3 18114175333201968973
15842332 3 18410855455843828703
16752209 62 17968391091139550719
16945 1 18266458711176249431
1813 80 17984134036086365902
18186145 218 17988918964244321054
18915476 22 17131828751219158180
19422 9 18410857659267806271
19765921 60 18341033147507639448
200 152 18130240327502010431
204376 136 17344614947483672436
20600515 1 17458917027510915601
20645477 70 17346609577050009674
20691752 17 18341339872634266616
20905425 154 17315651598857043457
21065201 7 17313098657326548302
21618674 53 18264468672756040345
21639500 275 17774723078225289684
21756936 100 18053351389430867188
22112679 90 18335143110993678633
2255824 54 18060135457989373170
22943178 12 15770057232939578805
23175994 123 16987722479458712946
232386 152 18042140820102096135
23419403 2 14444139539745510590
23557571 272 16805322184438875768
23559900 14 17022892506583538972
23598291 2 18412260653258090893
312423 11 18411416198205366751
4340502 62 17845348052084223001
474 4 18057876957879312260
495365 180 15912229562531241226
5902787 121 17750246811224688303
6049 1 15647325312646253492
633830 44 18200573853011014764
7615 1 18410863152425320564
77492 1 18410855464423129206
81228 2 17168132473268523897
88987 49 17749388195511652813
9981440 41 17541662717054634336

> <PUBCHEM_SHAPE_MULTIPOLES>
381.65
7.46
2.22
2.19
0
0
0.27
0
0.98
0
-0.16
0
0
-4.09

> <PUBCHEM_SHAPE_SELFOVERLAP>
773.693

> <PUBCHEM_SHAPE_VOLUME>
217.3

> <PUBCHEM_COORDINATE_TYPE>
2
5
10

$$$$

