11432
  -OEChem-06261205403D

 10 10  0     0  0  0  0  0  0999 V2000
   -0.7321    0.0000    0.0001 N   0  0  0  0  0  0  0  0  0  0  0  0
   -2.1381    0.0000   -0.0001 N   0  0  0  0  0  0  0  0  0  0  0  0
    1.3441   -0.6903   -0.0001 N   0  0  0  0  0  0  0  0  0  0  0  0
    1.3441    0.6903    0.0000 N   0  0  0  0  0  0  0  0  0  0  0  0
    0.0909   -1.0850    0.0001 C   0  0  0  0  0  0  0  0  0  0  0  0
    0.0910    1.0850    0.0000 C   0  0  0  0  0  0  0  0  0  0  0  0
   -0.2617   -2.1068    0.0001 H   0  0  0  0  0  0  0  0  0  0  0  0
   -0.2616    2.1068   -0.0001 H   0  0  0  0  0  0  0  0  0  0  0  0
   -2.5250    0.4744   -0.8151 H   0  0  0  0  0  0  0  0  0  0  0  0
   -2.5251    0.4744    0.8148 H   0  0  0  0  0  0  0  0  0  0  0  0
  1  2  1  0  0  0  0
  1  5  1  0  0  0  0
  1  6  1  0  0  0  0
  2  9  1  0  0  0  0
  2 10  1  0  0  0  0
  3  4  1  0  0  0  0
  3  5  2  0  0  0  0
  4  6  2  0  0  0  0
  5  7  1  0  0  0  0
  6  8  1  0  0  0  0
M  END
> <PUBCHEM_COMPOUND_CID>
11432

> <PUBCHEM_CONFORMER_RMSD>
0.4

> <PUBCHEM_CONFORMER_DIVERSEORDER>
1

> <PUBCHEM_MMFF94_PARTIAL_CHARGES>
10
1 0.45
10 0.36
2 -0.87
3 -0.34
4 -0.34
5 0.04
6 0.04
7 0.15
8 0.15
9 0.36

> <PUBCHEM_EFFECTIVE_ROTOR_COUNT>
0

> <PUBCHEM_PHARMACOPHORE_FEATURES>
4
1 2 donor
3 1 3 5 cation
3 1 4 6 cation
5 1 3 4 5 6 rings

> <PUBCHEM_HEAVY_ATOM_COUNT>
6

> <PUBCHEM_ATOM_DEF_STEREO_COUNT>
0

> <PUBCHEM_ATOM_UDEF_STEREO_COUNT>
0

> <PUBCHEM_BOND_DEF_STEREO_COUNT>
0

> <PUBCHEM_BOND_UDEF_STEREO_COUNT>
0

> <PUBCHEM_ISOTOPIC_ATOM_COUNT>
0

> <PUBCHEM_COMPONENT_COUNT>
1

> <PUBCHEM_CACTVS_TAUTO_COUNT>
1

> <PUBCHEM_CONFORMER_ID>
00002CA800000001

> <PUBCHEM_MMFF94_ENERGY>
1.6756

> <PUBCHEM_FEATURE_SELFOVERLAP>
22.8

> <PUBCHEM_SHAPE_FINGERPRINT>
139733 1 9294985977982603107
20096714 4 18337670785104431529
21015797 1 9222068557398904840
21040471 1 18266741285680515972
29004967 10 18343577464758712419
5943 1 10188072475361559318

> <PUBCHEM_SHAPE_MULTIPOLES>
103.55
1.87
1.17
0.55
0.82
0
0
0
0
-0.23
0
0
0
0

> <PUBCHEM_SHAPE_SELFOVERLAP>
208.068

> <PUBCHEM_SHAPE_VOLUME>
63.7

> <PUBCHEM_COORDINATE_TYPE>
2
5
10

$$$$

