11954140
  -OEChem-07051213073D

 50 53  0     1  0  0  0  0  0999 V2000
    5.2488    0.1633    0.6652 O   0  0  0  0  0  0  0  0  0  0  0  0
   -5.4727    1.3392   -1.0417 O   0  0  0  0  0  0  0  0  0  0  0  0
    1.1532   -0.9247   -0.4194 C   0  0  2  0  0  0  0  0  0  0  0  0
    2.0279    0.2445    0.0859 C   0  0  1  0  0  0  0  0  0  0  0  0
   -0.2293   -0.9650    0.2396 C   0  0  1  0  0  0  0  0  0  0  0  0
   -0.9603    0.3829   -0.0738 C   0  0  1  0  0  0  0  0  0  0  0  0
   -2.3963    0.4158    0.5298 C   0  0  2  0  0  0  0  0  0  0  0  0
    3.3161   -0.0444   -0.7162 C   0  0  2  0  0  0  0  0  0  0  0  0
    1.3214    1.5590   -0.2809 C   0  0  0  0  0  0  0  0  0  0  0  0
   -0.1027    1.6172    0.3007 C   0  0  0  0  0  0  0  0  0  0  0  0
    2.0718   -2.1347   -0.2934 C   0  0  0  0  0  0  0  0  0  0  0  0
   -1.0616   -2.1650   -0.2546 C   0  0  0  0  0  0  0  0  0  0  0  0
    3.4591   -1.5805   -0.6664 C   0  0  0  0  0  0  0  0  0  0  0  0
   -3.1302   -0.8407    0.1012 C   0  0  0  0  0  0  0  0  0  0  0  0
    2.3038    0.2066    1.6121 C   0  0  0  0  0  0  0  0  0  0  0  0
   -2.4761   -2.1655    0.3280 C   0  0  0  0  0  0  0  0  0  0  0  0
   -3.2616    1.5414   -0.0805 C   0  0  0  0  0  0  0  0  0  0  0  0
   -2.4128    0.5294    2.0659 C   0  0  0  0  0  0  0  0  0  0  0  0
    4.5347    0.6593   -0.2049 C   0  0  0  0  0  0  0  0  0  0  0  0
   -4.3051   -0.6472   -0.5030 C   0  0  0  0  0  0  0  0  0  0  0  0
   -4.4725    0.8071   -0.5841 C   0  0  0  0  0  0  0  0  0  0  0  0
    4.8444    2.0020   -0.8094 C   0  0  0  0  0  0  0  0  0  0  0  0
    0.9815   -0.7858   -1.5004 H   0  0  0  0  0  0  0  0  0  0  0  0
   -0.1110   -1.0772    1.3228 H   0  0  0  0  0  0  0  0  0  0  0  0
   -1.0728    0.4204   -1.1699 H   0  0  0  0  0  0  0  0  0  0  0  0
    3.1804    0.2383   -1.7694 H   0  0  0  0  0  0  0  0  0  0  0  0
    1.2604    1.6643   -1.3717 H   0  0  0  0  0  0  0  0  0  0  0  0
    1.8889    2.4215    0.0850 H   0  0  0  0  0  0  0  0  0  0  0  0
   -0.0377    1.7215    1.3882 H   0  0  0  0  0  0  0  0  0  0  0  0
   -0.5875    2.5302   -0.0642 H   0  0  0  0  0  0  0  0  0  0  0  0
    1.7765   -2.9488   -0.9631 H   0  0  0  0  0  0  0  0  0  0  0  0
    2.0771   -2.5306    0.7281 H   0  0  0  0  0  0  0  0  0  0  0  0
   -0.5674   -3.1042    0.0202 H   0  0  0  0  0  0  0  0  0  0  0  0
   -1.1204   -2.1477   -1.3509 H   0  0  0  0  0  0  0  0  0  0  0  0
    4.2057   -1.9382    0.0501 H   0  0  0  0  0  0  0  0  0  0  0  0
    3.7646   -1.9545   -1.6508 H   0  0  0  0  0  0  0  0  0  0  0  0
    2.8654   -0.6826    1.9153 H   0  0  0  0  0  0  0  0  0  0  0  0
    2.8867    1.0814    1.9226 H   0  0  0  0  0  0  0  0  0  0  0  0
    1.3874    0.2177    2.2080 H   0  0  0  0  0  0  0  0  0  0  0  0
   -2.4341   -2.3726    1.4037 H   0  0  0  0  0  0  0  0  0  0  0  0
   -3.0566   -2.9758   -0.1286 H   0  0  0  0  0  0  0  0  0  0  0  0
   -2.7813    2.0339   -0.9320 H   0  0  0  0  0  0  0  0  0  0  0  0
   -3.5649    2.2915    0.6561 H   0  0  0  0  0  0  0  0  0  0  0  0
   -3.4322    0.4337    2.4599 H   0  0  0  0  0  0  0  0  0  0  0  0
   -1.8092   -0.2463    2.5472 H   0  0  0  0  0  0  0  0  0  0  0  0
   -2.0337    1.5011    2.3994 H   0  0  0  0  0  0  0  0  0  0  0  0
   -4.9883   -1.3791   -0.8967 H   0  0  0  0  0  0  0  0  0  0  0  0
    4.9116    1.9128   -1.8965 H   0  0  0  0  0  0  0  0  0  0  0  0
    4.0758    2.7262   -0.5361 H   0  0  0  0  0  0  0  0  0  0  0  0
    5.8083    2.3564   -0.4327 H   0  0  0  0  0  0  0  0  0  0  0  0
  1 19  2  0  0  0  0
  2 21  2  0  0  0  0
  3  4  1  0  0  0  0
  3  5  1  0  0  0  0
  3 11  1  0  0  0  0
  3 23  1  0  0  0  0
  4  8  1  0  0  0  0
  4  9  1  0  0  0  0
  4 15  1  0  0  0  0
  5  6  1  0  0  0  0
  5 12  1  0  0  0  0
  5 24  1  0  0  0  0
  6  7  1  0  0  0  0
  6 10  1  0  0  0  0
  6 25  1  0  0  0  0
  7 14  1  0  0  0  0
  7 17  1  0  0  0  0
  7 18  1  0  0  0  0
  8 13  1  0  0  0  0
  8 19  1  0  0  0  0
  8 26  1  0  0  0  0
  9 10  1  0  0  0  0
  9 27  1  0  0  0  0
  9 28  1  0  0  0  0
 10 29  1  0  0  0  0
 10 30  1  0  0  0  0
 11 13  1  0  0  0  0
 11 31  1  0  0  0  0
 11 32  1  0  0  0  0
 12 16  1  0  0  0  0
 12 33  1  0  0  0  0
 12 34  1  0  0  0  0
 13 35  1  0  0  0  0
 13 36  1  0  0  0  0
 14 16  1  0  0  0  0
 14 20  2  0  0  0  0
 15 37  1  0  0  0  0
 15 38  1  0  0  0  0
 15 39  1  0  0  0  0
 16 40  1  0  0  0  0
 16 41  1  0  0  0  0
 17 21  1  0  0  0  0
 17 42  1  0  0  0  0
 17 43  1  0  0  0  0
 18 44  1  0  0  0  0
 18 45  1  0  0  0  0
 18 46  1  0  0  0  0
 19 22  1  0  0  0  0
 20 21  1  0  0  0  0
 20 47  1  0  0  0  0
 22 48  1  0  0  0  0
 22 49  1  0  0  0  0
 22 50  1  0  0  0  0
M  END
> <PUBCHEM_COMPOUND_CID>
11954140

> <PUBCHEM_CONFORMER_RMSD>
0.6

> <PUBCHEM_CONFORMER_DIVERSEORDER>
1
2

> <PUBCHEM_MMFF94_PARTIAL_CHARGES>
12
1 -0.57
14 -0.28
16 0.14
17 0.06
19 0.45
2 -0.57
20 -0.14
21 0.49
22 0.06
47 0.15
7 0.14
8 0.06

> <PUBCHEM_EFFECTIVE_ROTOR_COUNT>
2.6

> <PUBCHEM_PHARMACOPHORE_FEATURES>
6
1 1 acceptor
1 2 acceptor
5 3 4 8 11 13 rings
5 7 14 17 20 21 rings
6 3 4 5 6 9 10 rings
6 5 6 7 12 14 16 rings

> <PUBCHEM_HEAVY_ATOM_COUNT>
22

> <PUBCHEM_ATOM_DEF_STEREO_COUNT>
6

> <PUBCHEM_ATOM_UDEF_STEREO_COUNT>
0

> <PUBCHEM_BOND_DEF_STEREO_COUNT>
0

> <PUBCHEM_BOND_UDEF_STEREO_COUNT>
0

> <PUBCHEM_ISOTOPIC_ATOM_COUNT>
0

> <PUBCHEM_COMPONENT_COUNT>
1

> <PUBCHEM_CACTVS_TAUTO_COUNT>
15

> <PUBCHEM_CONFORMER_ID>
00B667DC00000001

> <PUBCHEM_MMFF94_ENERGY>
66.0737

> <PUBCHEM_FEATURE_SELFOVERLAP>
30.622

> <PUBCHEM_SHAPE_FINGERPRINT>
10014705 185 18343300349252986829
10366900 7 17458063759242581650
10411042 1 17185592417550438462
10498660 4 18410568479256747812
10906281 52 18115290263968234605
11132069 177 18411696586897989310
11315181 36 17894909612200123256
11370993 70 18410856559671776086
12011746 2 18259985985255797356
12236239 1 17847066562740485168
12403259 415 18260834748398479457
12403814 3 17775570827185828397
12500047 106 18410015407649115847
12788726 201 18189058749491235001
13140716 1 18192423069950253017
13224815 77 18260264157291971898
13533116 47 17749671904256661119
14790565 3 18048307040768435673
15196674 1 18410291423638010343
15238133 3 15697997491523498679
15375358 24 18342454850538852210
15536298 74 18261106413548592510
15788980 27 17704352165220996896
1601671 61 18411419492877844884
16945 1 18338504300785866323
17349148 13 18334585619874904368
18608769 82 18339921512104961195
19862831 5 18334858346383216575
200 152 17458068170717293749
20645477 70 18261109741916301062
20715895 44 18200037385847474837
21029758 11 18187086165311337345
21267235 1 18337096917613546014
21421861 104 17702679894087717346
22182313 1 18189875604688735471
23227448 37 18341610356778441781
23402539 116 18336273378897897446
23402655 69 18259987097726095639
23559900 14 18335700589797302238
2838139 119 17702963542444538957
296302 2 18272932726061728517
3004659 81 18342458188198147574
3286 77 17096096916560215410
335352 9 18339642343103624158
34797466 226 17823122442072353300
34934 24 18412830183243963974
350125 39 18266451015222680483
3545911 37 18408319969293072103
4028521 119 18409167723028580391
4072396 5 18340219565333388722
4340502 62 16559027220736392145
474 4 17417242105798510524
495365 180 17531546328971878690
5104073 3 18410570708192047714
5283173 99 18199192960732934317
633830 44 17060052606546366678
7495541 125 7709451741055616180
9709674 26 18335413577980097182

> <PUBCHEM_SHAPE_MULTIPOLES>
441.01
10.11
2.19
1.13
1.27
0.6
-0.49
-3.39
2.22
0.12
0.33
-0.23
-0.23
0.17

> <PUBCHEM_SHAPE_SELFOVERLAP>
953.018

> <PUBCHEM_SHAPE_VOLUME>
244.1

> <PUBCHEM_COORDINATE_TYPE>
2
5
10

$$$$

