582791
  -OEChem-06241222443D

 33 34  0     1  0  0  0  0  0999 V2000
   -1.3690   -1.9547    0.6242 S   0  0  0  0  0  0  0  0  0  0  0  0
   -3.6206    2.2713   -0.1737 O   0  0  0  0  0  0  0  0  0  0  0  0
   -0.9382   -1.4597    1.9170 O   0  0  0  0  0  0  0  0  0  0  0  0
   -0.6629   -3.0412   -0.0270 O   0  0  0  0  0  0  0  0  0  0  0  0
   -3.7702    0.3890   -1.4308 O   0  0  0  0  0  0  0  0  0  0  0  0
   -1.5071   -0.6466   -0.4739 N   0  0  0  0  0  0  0  0  0  0  0  0
    2.3085    1.2295    1.6843 N   0  0  0  0  0  0  0  0  0  0  0  0
   -0.7187    1.6999   -0.3028 C   0  0  0  0  0  0  0  0  0  0  0  0
   -1.8421    0.6840    0.0281 C   0  0  1  0  0  0  0  0  0  0  0  0
    0.5943    1.3558    0.2798 C   0  0  0  0  0  0  0  0  0  0  0  0
    1.6097    0.5648   -0.3274 C   0  0  0  0  0  0  0  0  0  0  0  0
    2.6738    0.5011    0.5748 C   0  0  0  0  0  0  0  0  0  0  0  0
    1.0535    1.7500    1.5153 C   0  0  0  0  0  0  0  0  0  0  0  0
   -3.1596    1.0739   -0.6200 C   0  0  0  0  0  0  0  0  0  0  0  0
    1.7256   -0.1053   -1.5615 C   0  0  0  0  0  0  0  0  0  0  0  0
    3.8529   -0.2020    0.3032 C   0  0  0  0  0  0  0  0  0  0  0  0
    2.8992   -0.8126   -1.8466 C   0  0  0  0  0  0  0  0  0  0  0  0
    3.9453   -0.8589   -0.9272 C   0  0  0  0  0  0  0  0  0  0  0  0
   -3.0744   -2.4383    0.7642 C   0  0  0  0  0  0  0  0  0  0  0  0
   -1.0198    2.6960    0.0476 H   0  0  0  0  0  0  0  0  0  0  0  0
   -0.6260    1.7946   -1.3932 H   0  0  0  0  0  0  0  0  0  0  0  0
   -2.0131    0.6583    1.1100 H   0  0  0  0  0  0  0  0  0  0  0  0
   -1.5689   -0.8187   -1.4845 H   0  0  0  0  0  0  0  0  0  0  0  0
    0.6011    2.3529    2.2904 H   0  0  0  0  0  0  0  0  0  0  0  0
    2.8840    1.3604    2.5047 H   0  0  0  0  0  0  0  0  0  0  0  0
    0.9215   -0.0792   -2.2912 H   0  0  0  0  0  0  0  0  0  0  0  0
    4.6678   -0.2386    1.0184 H   0  0  0  0  0  0  0  0  0  0  0  0
    2.9942   -1.3313   -2.7969 H   0  0  0  0  0  0  0  0  0  0  0  0
   -3.4477   -2.7112   -0.2246 H   0  0  0  0  0  0  0  0  0  0  0  0
   -3.1264   -3.3014    1.4315 H   0  0  0  0  0  0  0  0  0  0  0  0
   -3.6471   -1.6104    1.1858 H   0  0  0  0  0  0  0  0  0  0  0  0
    4.8479   -1.4142   -1.1693 H   0  0  0  0  0  0  0  0  0  0  0  0
   -4.4787    2.5090   -0.5855 H   0  0  0  0  0  0  0  0  0  0  0  0
  1  3  2  0  0  0  0
  1  4  2  0  0  0  0
  1  6  1  0  0  0  0
  1 19  1  0  0  0  0
  2 14  1  0  0  0  0
  2 33  1  0  0  0  0
  5 14  2  0  0  0  0
  6  9  1  0  0  0  0
  6 23  1  0  0  0  0
  7 12  1  0  0  0  0
  7 13  1  0  0  0  0
  7 25  1  0  0  0  0
  8  9  1  0  0  0  0
  8 10  1  0  0  0  0
  8 20  1  0  0  0  0
  8 21  1  0  0  0  0
  9 14  1  0  0  0  0
  9 22  1  0  0  0  0
 10 11  1  0  0  0  0
 10 13  2  0  0  0  0
 11 12  1  0  0  0  0
 11 15  2  0  0  0  0
 12 16  2  0  0  0  0
 13 24  1  0  0  0  0
 15 17  1  0  0  0  0
 15 26  1  0  0  0  0
 16 18  1  0  0  0  0
 16 27  1  0  0  0  0
 17 18  2  0  0  0  0
 17 28  1  0  0  0  0
 18 32  1  0  0  0  0
 19 29  1  0  0  0  0
 19 30  1  0  0  0  0
 19 31  1  0  0  0  0
M  END
> <PUBCHEM_COMPOUND_CID>
582791

> <PUBCHEM_CONFORMER_RMSD>
0.6

> <PUBCHEM_CONFORMER_DIVERSEORDER>
2
186
272
143
75
220
90
133
132
257
17
188
160
271
130
67
237
182
259
265
88
47
224
234
191
255
94
180
268
128
223
266
29
11
89
218
253
174
175
173
13
206
264
262
4
228
208
215
91
136
150
221
85
176
273
82
240
261
141
61
256
201
229
189
213
107
16
212
244
205
113
209
211
22
179
245
199
21
233
138
227
195
197
105
97
58
161
122
155
172
73
41
171
214
23
252
46
124
236
7
202
181
153
239
219
84
39
232
110
194
170
267
121
19
207
147
216
217
51
166
10
270
248
106
190
1
193
101
126
80
135
154
93
177
83
231
167
156
38
230
59
123
243
92
200
117
12
63
168
43
192
100
33
109
159
119
76
145
125
99
198
247
35
120
87
40
134
222
131
32
246
5
118
55
140
116
57
203
263
250
249
15
210
52
260
64
86
103
31
178
108
269
18
98
158
66
112
44
196
24
163
48
74
149
8
152
27
151
69
254
56
6
165
60
77
45
49
251
137
185
187
54
146
164
241
102
9
96
50
204
72
34
70
14
78
183
26
30
162
65
3
115
129
62
95
25
68
37
81
111
258
114
157
127
42
20
53
71
148
238
184
235
242
169
104
226
28
144
142
225
79
139
36

> <PUBCHEM_MMFF94_PARTIAL_CHARGES>
26
1 1.33
10 -0.18
12 -0.15
13 -0.3
14 0.66
15 -0.15
16 -0.15
17 -0.15
18 -0.15
19 0.11
2 -0.65
23 0.42
24 0.15
25 0.27
26 0.15
27 0.15
28 0.15
3 -0.65
32 0.15
33 0.5
4 -0.65
5 -0.57
6 -0.91
7 0.03
8 0.18
9 0.42

> <PUBCHEM_EFFECTIVE_ROTOR_COUNT>
5

> <PUBCHEM_PHARMACOPHORE_FEATURES>
10
1 2 acceptor
1 3 acceptor
1 4 acceptor
1 5 acceptor
1 6 donor
1 7 cation
1 7 donor
3 2 5 14 anion
5 7 10 11 12 13 rings
6 11 12 15 16 17 18 rings

> <PUBCHEM_HEAVY_ATOM_COUNT>
19

> <PUBCHEM_ATOM_DEF_STEREO_COUNT>
0

> <PUBCHEM_ATOM_UDEF_STEREO_COUNT>
1

> <PUBCHEM_BOND_DEF_STEREO_COUNT>
0

> <PUBCHEM_BOND_UDEF_STEREO_COUNT>
0

> <PUBCHEM_ISOTOPIC_ATOM_COUNT>
0

> <PUBCHEM_COMPONENT_COUNT>
1

> <PUBCHEM_CACTVS_TAUTO_COUNT>
1

> <PUBCHEM_CONFORMER_ID>
0008E48700000002

> <PUBCHEM_MMFF94_ENERGY>
26.3505

> <PUBCHEM_FEATURE_SELFOVERLAP>
50.911

> <PUBCHEM_SHAPE_FINGERPRINT>
10906281 52 17968368027028306896
11471102 22 17385442111951194984
11582403 64 16458627493773646561
116883 192 18194966227967019743
12202030 40 18262787476353320520
12592029 89 17201909543245575441
12714826 92 18198879475311796538
12716301 132 18341614793521960338
13538477 17 17632581539074901912
14115302 16 18271236214164600580
14251745 187 18334018314935453658
15207287 21 18114472244238277094
15279308 132 18409169951768479777
15375358 24 18260554420177913024
15415430 2 18263075668537861608
16752209 62 17845943914098005691
16945 1 18340475781264702492
18186145 218 18337120063260953989
19049666 15 18334293158435238571
19868273 293 17917711309531622205
200 152 15791740727526372340
20600515 1 18270702916507960072
20645476 183 16845570928670655561
20871999 31 18201709622610200652
23526113 38 18114185267287205776
23557571 272 18199462169678367776
23559900 14 18410292549847570838
23598291 2 16988556879676512278
2748010 2 18336266721640585605
74978 22 18201719522378338804
77492 1 16702026365612762436
81228 2 18056762014491427299
8272917 22 15266510693512708481
8809292 202 18334011722408691140
9709674 26 18260557679562322653
9981440 41 16810992237350210985

> <PUBCHEM_SHAPE_MULTIPOLES>
361.42
6.55
2.6
1.59
0.15
1.13
-0.08
0.38
1.65
-2.35
-0.64
0.58
0.05
1.73

> <PUBCHEM_SHAPE_SELFOVERLAP>
753.924

> <PUBCHEM_SHAPE_VOLUME>
207.3

> <PUBCHEM_COORDINATE_TYPE>
2
5
10

$$$$

