25811
  -OEChem-07051213132D

 14 13  0     0  0  0  0  0  0999 V2000
    6.3301    0.7500    0.0000 O   0  0  0  0  0  0  0  0  0  0  0  0
    5.4641   -0.7500    0.0000 O   0  0  0  0  0  0  0  0  0  0  0  0
    2.0000    0.2500    0.0000 O   0  0  0  0  0  0  0  0  0  0  0  0
    3.7320    0.2500    0.0000 N   0  0  0  0  0  0  0  0  0  0  0  0
    2.8660    0.7500    0.0000 N   0  0  0  0  0  0  0  0  0  0  0  0
    4.5981    0.7500    0.0000 C   0  0  0  0  0  0  0  0  0  0  0  0
    3.7320   -0.7500    0.0000 C   0  0  0  0  0  0  0  0  0  0  0  0
    5.4641    0.2500    0.0000 C   0  0  0  0  0  0  0  0  0  0  0  0
    4.9966    1.2250    0.0000 H   0  0  0  0  0  0  0  0  0  0  0  0
    4.1996    1.2250    0.0000 H   0  0  0  0  0  0  0  0  0  0  0  0
    3.1120   -0.7500    0.0000 H   0  0  0  0  0  0  0  0  0  0  0  0
    3.7320   -1.3700    0.0000 H   0  0  0  0  0  0  0  0  0  0  0  0
    4.3520   -0.7500    0.0000 H   0  0  0  0  0  0  0  0  0  0  0  0
    6.8671    0.4400    0.0000 H   0  0  0  0  0  0  0  0  0  0  0  0
  1  8  1  0  0  0  0
  1 14  1  0  0  0  0
  2  8  2  0  0  0  0
  3  5  2  0  0  0  0
  4  5  1  0  0  0  0
  4  6  1  0  0  0  0
  4  7  1  0  0  0  0
  6  8  1  0  0  0  0
  6  9  1  0  0  0  0
  6 10  1  0  0  0  0
  7 11  1  0  0  0  0
  7 12  1  0  0  0  0
  7 13  1  0  0  0  0
M  END
> <PUBCHEM_COMPOUND_CID>
25811

> <PUBCHEM_COMPOUND_CANONICALIZED>
1

> <PUBCHEM_CACTVS_COMPLEXITY>
103

> <PUBCHEM_CACTVS_HBOND_ACCEPTOR>
5

> <PUBCHEM_CACTVS_HBOND_DONOR>
1

> <PUBCHEM_CACTVS_ROTATABLE_BOND>
2

> <PUBCHEM_CACTVS_SUBSKEYS>
AAADcYBDMAAAAAAAAAAAAAAAAAAAAAAAAAAAAAAAAAAAAAAAAAAAHgAMCAAAAADBgAQCCAIAAgAJAACQCAAAAAAAAAAQAACIAAACAAAAACAAAAAAAAAQAAAAAAAAAAAAAAAAAAAAAAAAAAAAAAAAAAAAAA==

> <PUBCHEM_IUPAC_OPENEYE_NAME>
2-[methyl(nitroso)amino]acetic acid

> <PUBCHEM_IUPAC_CAS_NAME>
2-[methyl(nitroso)amino]acetic acid

> <PUBCHEM_IUPAC_NAME>
2-[methyl(nitroso)amino]acetic acid

> <PUBCHEM_IUPAC_SYSTEMATIC_NAME>
2-[methyl(nitroso)amino]ethanoic acid

> <PUBCHEM_IUPAC_TRADITIONAL_NAME>
2-[methyl(nitroso)amino]acetic acid

> <PUBCHEM_IUPAC_INCHI>
InChI=1S/C3H6N2O3/c1-5(4-8)2-3(6)7/h2H2,1H3,(H,6,7)

> <PUBCHEM_IUPAC_INCHIKEY>
HJMPSKKJHVWPBK-UHFFFAOYSA-N

> <PUBCHEM_XLOGP3_AA>
-0.2

> <PUBCHEM_EXACT_MASS>
118.037842

> <PUBCHEM_MOLECULAR_FORMULA>
C3H6N2O3

> <PUBCHEM_MOLECULAR_WEIGHT>
118.09134

> <PUBCHEM_OPENEYE_CAN_SMILES>
CN(CC(=O)O)N=O

> <PUBCHEM_OPENEYE_ISO_SMILES>
CN(CC(=O)O)N=O

> <PUBCHEM_CACTVS_TPSA>
70

> <PUBCHEM_MONOISOTOPIC_WEIGHT>
118.037842

> <PUBCHEM_TOTAL_CHARGE>
0

> <PUBCHEM_HEAVY_ATOM_COUNT>
8

> <PUBCHEM_ATOM_DEF_STEREO_COUNT>
0

> <PUBCHEM_ATOM_UDEF_STEREO_COUNT>
0

> <PUBCHEM_BOND_DEF_STEREO_COUNT>
0

> <PUBCHEM_BOND_UDEF_STEREO_COUNT>
0

> <PUBCHEM_ISOTOPIC_ATOM_COUNT>
0

> <PUBCHEM_COMPONENT_COUNT>
1

> <PUBCHEM_CACTVS_TAUTO_COUNT>
1

> <PUBCHEM_COORDINATE_TYPE>
1
5
255

$$$$

