439999
  -OEChem-07051212483D

 29 29  0     1  0  0  0  0  0999 V2000
    1.3070   -1.2450    0.1174 O   0  0  0  0  0  0  0  0  0  0  0  0
   -1.0399    2.1613   -0.0719 O   0  0  0  0  0  0  0  0  0  0  0  0
    1.2121    1.3427    1.2694 O   0  0  0  0  0  0  0  0  0  0  0  0
   -0.5603   -2.6030    0.4408 O   0  0  0  0  0  0  0  0  0  0  0  0
    3.9685    0.9249   -0.7578 O   0  0  0  0  0  0  0  0  0  0  0  0
    3.8411   -0.8549    0.6606 O   0  0  0  0  0  0  0  0  0  0  0  0
   -3.4409    0.7459    1.0912 O   0  0  0  0  0  0  0  0  0  0  0  0
   -2.2664   -0.4690   -0.5094 N   0  0  0  0  0  0  0  0  0  0  0  0
   -0.9373   -0.2673    0.0277 C   0  0  2  0  0  0  0  0  0  0  0  0
   -0.3277    1.0206   -0.5437 C   0  0  2  0  0  0  0  0  0  0  0  0
    1.1440    1.1560   -0.1476 C   0  0  2  0  0  0  0  0  0  0  0  0
    1.8802   -0.1215   -0.5409 C   0  0  1  0  0  0  0  0  0  0  0  0
   -0.0460   -1.4824   -0.2777 C   0  0  1  0  0  0  0  0  0  0  0  0
    3.3174   -0.0853   -0.1312 C   0  0  0  0  0  0  0  0  0  0  0  0
   -3.4035    0.0585    0.0740 C   0  0  0  0  0  0  0  0  0  0  0  0
   -4.6483   -0.2816   -0.7009 C   0  0  0  0  0  0  0  0  0  0  0  0
   -1.0436   -0.1491    1.1146 H   0  0  0  0  0  0  0  0  0  0  0  0
   -0.4014    1.0174   -1.6391 H   0  0  0  0  0  0  0  0  0  0  0  0
    1.5876    2.0441   -0.6111 H   0  0  0  0  0  0  0  0  0  0  0  0
    1.8475   -0.2923   -1.6246 H   0  0  0  0  0  0  0  0  0  0  0  0
   -0.0642   -1.7423   -1.3427 H   0  0  0  0  0  0  0  0  0  0  0  0
   -2.3530   -0.9669   -1.3910 H   0  0  0  0  0  0  0  0  0  0  0  0
   -1.9322    2.1287   -0.4555 H   0  0  0  0  0  0  0  0  0  0  0  0
    0.6960    2.1391    1.4820 H   0  0  0  0  0  0  0  0  0  0  0  0
   -0.8682   -2.2971    1.3101 H   0  0  0  0  0  0  0  0  0  0  0  0
   -5.5310   -0.0582   -0.0954 H   0  0  0  0  0  0  0  0  0  0  0  0
   -4.6800    0.3134   -1.6178 H   0  0  0  0  0  0  0  0  0  0  0  0
   -4.6602   -1.3453   -0.9557 H   0  0  0  0  0  0  0  0  0  0  0  0
    4.9142    0.9667   -0.5005 H   0  0  0  0  0  0  0  0  0  0  0  0
  1 12  1  0  0  0  0
  1 13  1  0  0  0  0
  2 10  1  0  0  0  0
  2 23  1  0  0  0  0
  3 11  1  0  0  0  0
  3 24  1  0  0  0  0
  4 13  1  0  0  0  0
  4 25  1  0  0  0  0
  5 14  1  0  0  0  0
  5 29  1  0  0  0  0
  6 14  2  0  0  0  0
  7 15  2  0  0  0  0
  8  9  1  0  0  0  0
  8 15  1  0  0  0  0
  8 22  1  0  0  0  0
  9 10  1  0  0  0  0
  9 13  1  0  0  0  0
  9 17  1  0  0  0  0
 10 11  1  0  0  0  0
 10 18  1  0  0  0  0
 11 12  1  0  0  0  0
 11 19  1  0  0  0  0
 12 14  1  0  0  0  0
 12 20  1  0  0  0  0
 13 21  1  0  0  0  0
 15 16  1  0  0  0  0
 16 26  1  0  0  0  0
 16 27  1  0  0  0  0
 16 28  1  0  0  0  0
M  END
> <PUBCHEM_COMPOUND_CID>
439999

> <PUBCHEM_CONFORMER_RMSD>
0.6

> <PUBCHEM_CONFORMER_DIVERSEORDER>
1
10
6
16
13
9
12
8
17
14
5
11
3
7
2
15
4

> <PUBCHEM_MMFF94_PARTIAL_CHARGES>
21
1 -0.56
10 0.28
11 0.28
12 0.34
13 0.56
14 0.66
15 0.57
16 0.06
2 -0.68
22 0.37
23 0.4
24 0.4
25 0.4
29 0.5
3 -0.68
4 -0.68
5 -0.65
6 -0.57
7 -0.57
8 -0.73
9 0.3

> <PUBCHEM_EFFECTIVE_ROTOR_COUNT>
4.2

> <PUBCHEM_PHARMACOPHORE_FEATURES>
13
1 1 acceptor
1 2 acceptor
1 2 donor
1 3 acceptor
1 3 donor
1 4 acceptor
1 4 donor
1 5 acceptor
1 6 acceptor
1 7 acceptor
1 8 donor
3 5 6 14 anion
6 1 9 10 11 12 13 rings

> <PUBCHEM_HEAVY_ATOM_COUNT>
16

> <PUBCHEM_ATOM_DEF_STEREO_COUNT>
5

> <PUBCHEM_ATOM_UDEF_STEREO_COUNT>
0

> <PUBCHEM_BOND_DEF_STEREO_COUNT>
0

> <PUBCHEM_BOND_UDEF_STEREO_COUNT>
0

> <PUBCHEM_ISOTOPIC_ATOM_COUNT>
0

> <PUBCHEM_COMPONENT_COUNT>
1

> <PUBCHEM_CACTVS_TAUTO_COUNT>
2

> <PUBCHEM_CONFORMER_ID>
0006B6BF00000001

> <PUBCHEM_MMFF94_ENERGY>
28.1345

> <PUBCHEM_FEATURE_SELFOVERLAP>
66.097

> <PUBCHEM_SHAPE_FINGERPRINT>
10130415 120 18411984654707515218
10219947 1 18273493476944447637
11132069 177 18260550055979391894
11471102 20 18413674607957610508
11806522 49 18333735689382404503
13380535 76 18409727356951160414
13760787 5 18272085010970435156
14115302 16 18201430346894226486
14251717 144 18410014359861744551
14911166 2 18409444761193122878
14993402 34 18412823560272369029
15309172 13 18342171176681427803
15775835 57 18261104210177388185
16945 1 18412537717567119350
17846911 113 18410578391988454342
17862501 102 18041006132955955583
19026448 4 15985101911838866220
193761 8 17691120440075410781
200 152 18187936062720420247
20510252 161 18262237832530745056
20511035 2 18046063753099064782
20588541 1 18408316683732852566
20645476 183 17630869539599668206
21501502 16 18124598840819543209
22344851 341 17978224190434065522
2334 1 17978791207811108926
23402539 116 18409176518905234166
23402655 69 18335991956246914437
23463225 33 18271246126906836950
23493267 7 17203336653820475029
23557571 272 14923933562254875547
23559900 14 18335696093362000532
2748010 2 18048878485702178206
3286 77 17822301158109253913
4072396 5 18199486504751771691
528886 8 18411983537736527763
53655031 270 18410856602716089113
537710 114 18412822478035692436
53812653 166 18408605842200229938
69090 78 17676776387726481015

> <PUBCHEM_SHAPE_MULTIPOLES>
283.21
6.92
1.8
0.87
2.16
0.39
0.11
-0.14
-0.48
-0.07
0.23
0.07
-0.14
-0.34

> <PUBCHEM_SHAPE_SELFOVERLAP>
575.531

> <PUBCHEM_SHAPE_VOLUME>
160.8

> <PUBCHEM_COORDINATE_TYPE>
2
5
10

$$$$

