443479
  -OEChem-07051213023D

 51 53  0     1  0  0  0  0  0999 V2000
   -5.1087   -1.4234   -1.1024 O   0  0  0  0  0  0  0  0  0  0  0  0
   -0.8348    0.8007    0.3008 C   0  0  1  0  0  0  0  0  0  0  0  0
   -1.7237   -0.4406   -0.0736 C   0  0  2  0  0  0  0  0  0  0  0  0
    0.6340    0.4590   -0.1867 C   0  0  2  0  0  0  0  0  0  0  0  0
   -3.2749   -0.2372   -0.0608 C   0  0  2  0  0  0  0  0  0  0  0  0
   -1.3534    2.0500   -0.4562 C   0  0  0  0  0  0  0  0  0  0  0  0
   -1.2520   -1.6981    0.6888 C   0  0  0  0  0  0  0  0  0  0  0  0
   -3.6532    1.0788   -0.7715 C   0  0  0  0  0  0  0  0  0  0  0  0
   -2.8522    2.2805   -0.2896 C   0  0  0  0  0  0  0  0  0  0  0  0
    1.1010   -0.9282    0.2487 C   0  0  0  0  0  0  0  0  0  0  0  0
   -0.8286    1.1095    1.8185 C   0  0  0  0  0  0  0  0  0  0  0  0
    1.6892    1.5173    0.1962 C   0  0  0  0  0  0  0  0  0  0  0  0
    0.2384   -1.8798    0.6482 C   0  0  0  0  0  0  0  0  0  0  0  0
   -3.9489   -0.3183    1.3171 C   0  0  0  0  0  0  0  0  0  0  0  0
    3.0681    1.1672   -0.3733 C   0  0  0  0  0  0  0  0  0  0  0  0
   -3.9028   -1.3360   -0.8964 C   0  0  0  0  0  0  0  0  0  0  0  0
    2.5285   -1.2005    0.1896 C   0  0  0  0  0  0  0  0  0  0  0  0
    3.4469   -0.2687   -0.1200 C   0  0  0  0  0  0  0  0  0  0  0  0
    4.9064   -0.5981   -0.2303 C   0  0  0  0  0  0  0  0  0  0  0  0
    5.4043   -0.3203   -1.6446 C   0  0  0  0  0  0  0  0  0  0  0  0
    5.7166    0.1862    0.7976 C   0  0  0  0  0  0  0  0  0  0  0  0
   -1.4843   -0.6387   -1.1335 H   0  0  0  0  0  0  0  0  0  0  0  0
    0.6094    0.4299   -1.2880 H   0  0  0  0  0  0  0  0  0  0  0  0
   -1.1380    1.9470   -1.5281 H   0  0  0  0  0  0  0  0  0  0  0  0
   -0.8250    2.9509   -0.1227 H   0  0  0  0  0  0  0  0  0  0  0  0
   -1.7119   -2.5933    0.2562 H   0  0  0  0  0  0  0  0  0  0  0  0
   -1.5565   -1.6629    1.7401 H   0  0  0  0  0  0  0  0  0  0  0  0
   -4.7236    1.2904   -0.6486 H   0  0  0  0  0  0  0  0  0  0  0  0
   -3.4961    0.9736   -1.8545 H   0  0  0  0  0  0  0  0  0  0  0  0
   -3.1443    3.1615   -0.8737 H   0  0  0  0  0  0  0  0  0  0  0  0
   -3.0960    2.5094    0.7531 H   0  0  0  0  0  0  0  0  0  0  0  0
   -1.8252    1.2872    2.2176 H   0  0  0  0  0  0  0  0  0  0  0  0
   -0.3780    0.3072    2.4098 H   0  0  0  0  0  0  0  0  0  0  0  0
   -0.2629    2.0230    2.0333 H   0  0  0  0  0  0  0  0  0  0  0  0
    1.7809    1.5924    1.2869 H   0  0  0  0  0  0  0  0  0  0  0  0
    1.4012    2.5078   -0.1714 H   0  0  0  0  0  0  0  0  0  0  0  0
    0.6058   -2.8542    0.9626 H   0  0  0  0  0  0  0  0  0  0  0  0
   -5.0396   -0.2349    1.2279 H   0  0  0  0  0  0  0  0  0  0  0  0
   -3.7591   -1.2785    1.8078 H   0  0  0  0  0  0  0  0  0  0  0  0
   -3.6408    0.4789    1.9921 H   0  0  0  0  0  0  0  0  0  0  0  0
    3.7858    1.8639    0.0690 H   0  0  0  0  0  0  0  0  0  0  0  0
    3.0664    1.3504   -1.4549 H   0  0  0  0  0  0  0  0  0  0  0  0
   -3.2224   -2.0713   -1.3569 H   0  0  0  0  0  0  0  0  0  0  0  0
    2.8468   -2.2207    0.3904 H   0  0  0  0  0  0  0  0  0  0  0  0
    5.0599   -1.6662   -0.0272 H   0  0  0  0  0  0  0  0  0  0  0  0
    5.3839    0.7467   -1.8924 H   0  0  0  0  0  0  0  0  0  0  0  0
    4.8033   -0.8539   -2.3894 H   0  0  0  0  0  0  0  0  0  0  0  0
    6.4410   -0.6584   -1.7546 H   0  0  0  0  0  0  0  0  0  0  0  0
    5.2895    0.0908    1.8021 H   0  0  0  0  0  0  0  0  0  0  0  0
    5.7953    1.2510    0.5558 H   0  0  0  0  0  0  0  0  0  0  0  0
    6.7407   -0.2024    0.8395 H   0  0  0  0  0  0  0  0  0  0  0  0
  1 16  2  0  0  0  0
  2  3  1  0  0  0  0
  2  4  1  0  0  0  0
  2  6  1  0  0  0  0
  2 11  1  0  0  0  0
  3  5  1  0  0  0  0
  3  7  1  0  0  0  0
  3 22  1  0  0  0  0
  4 10  1  0  0  0  0
  4 12  1  0  0  0  0
  4 23  1  0  0  0  0
  5  8  1  0  0  0  0
  5 14  1  0  0  0  0
  5 16  1  0  0  0  0
  6  9  1  0  0  0  0
  6 24  1  0  0  0  0
  6 25  1  0  0  0  0
  7 13  1  0  0  0  0
  7 26  1  0  0  0  0
  7 27  1  0  0  0  0
  8  9  1  0  0  0  0
  8 28  1  0  0  0  0
  8 29  1  0  0  0  0
  9 30  1  0  0  0  0
  9 31  1  0  0  0  0
 10 13  2  0  0  0  0
 10 17  1  0  0  0  0
 11 32  1  0  0  0  0
 11 33  1  0  0  0  0
 11 34  1  0  0  0  0
 12 15  1  0  0  0  0
 12 35  1  0  0  0  0
 12 36  1  0  0  0  0
 13 37  1  0  0  0  0
 14 38  1  0  0  0  0
 14 39  1  0  0  0  0
 14 40  1  0  0  0  0
 15 18  1  0  0  0  0
 15 41  1  0  0  0  0
 15 42  1  0  0  0  0
 16 43  1  0  0  0  0
 17 18  2  0  0  0  0
 17 44  1  0  0  0  0
 18 19  1  0  0  0  0
 19 20  1  0  0  0  0
 19 21  1  0  0  0  0
 19 45  1  0  0  0  0
 20 46  1  0  0  0  0
 20 47  1  0  0  0  0
 20 48  1  0  0  0  0
 21 49  1  0  0  0  0
 21 50  1  0  0  0  0
 21 51  1  0  0  0  0
M  END
> <PUBCHEM_COMPOUND_CID>
443479

> <PUBCHEM_CONFORMER_RMSD>
0.6

> <PUBCHEM_CONFORMER_DIVERSEORDER>
1
2
3
4

> <PUBCHEM_MMFF94_PARTIAL_CHARGES>
14
1 -0.57
10 -0.14
13 -0.29
15 0.14
16 0.45
17 -0.15
18 -0.28
19 0.14
37 0.15
4 0.14
43 0.06
44 0.15
5 0.06
7 0.14

> <PUBCHEM_EFFECTIVE_ROTOR_COUNT>
3.4

> <PUBCHEM_PHARMACOPHORE_FEATURES>
5
1 1 acceptor
3 19 20 21 hydrophobe
6 2 3 4 7 10 13 rings
6 2 3 5 6 8 9 rings
6 4 10 12 15 17 18 rings

> <PUBCHEM_HEAVY_ATOM_COUNT>
21

> <PUBCHEM_ATOM_DEF_STEREO_COUNT>
4

> <PUBCHEM_ATOM_UDEF_STEREO_COUNT>
0

> <PUBCHEM_BOND_DEF_STEREO_COUNT>
0

> <PUBCHEM_BOND_UDEF_STEREO_COUNT>
0

> <PUBCHEM_ISOTOPIC_ATOM_COUNT>
0

> <PUBCHEM_COMPONENT_COUNT>
1

> <PUBCHEM_CACTVS_TAUTO_COUNT>
1

> <PUBCHEM_CONFORMER_ID>
0006C45700000001

> <PUBCHEM_MMFF94_ENERGY>
57.5348

> <PUBCHEM_FEATURE_SELFOVERLAP>
25.405

> <PUBCHEM_SHAPE_FINGERPRINT>
10062212 137 18271533116341948683
11089746 13 12895072882296359510
11315181 36 18040995172737291568
11578080 2 17823723935336849241
12236239 1 17967810540009048019
12390115 104 18192415583996803409
12403259 226 18338241470362927601
12403259 415 18411699885364840168
12403260 363 18342462530156947652
128620 24 18260267473291385606
13140716 1 18197489628179170682
13288520 33 17676486146626488983
13583140 156 15985102989975956065
13862211 1 18412831274350435970
14251751 93 18334301976103415503
14787075 74 18261959552919642112
15163728 17 15768394849353875087
15196674 1 18341051925510501434
15209289 33 18410569591463230577
16752209 62 18413394241351662930
16945 1 18342179934182937611
17349148 13 18411698794674683842
17802600 8 18411704270620966080
17980427 23 17417797478807038956
18186145 218 18261111876340648817
19489759 90 18272093811764547952
19862831 5 18408601478761311988
200 152 18040156214498654478
20300324 65 18408324397393629485
20645477 70 17240473750587605222
20871999 31 18343293782569829156
21267235 1 18410849932990918903
21637258 2 16371015066293631879
221357 26 18408326575084525517
22393880 68 18338806705265090468
23175994 123 17530963592104332696
23366157 5 17486208117704790114
23379529 103 17897727552754197015
23402539 116 18412550915658696260
23402655 69 18341334512488271965
23493267 7 17418097615754195545
23557571 272 17967811656384046903
23559900 14 18335711498518511408
25147074 1 18128548248026624907
2838139 119 15697735786561190463
2871803 45 18340499880621398239
296302 2 14836401436950848602
3004659 81 18059571451959456078
3286 77 17386009403926609825
34934 24 18128261284271899445
350125 39 18342450456793109353
5104073 3 18270119153295016552
542803 24 16988839488851558292
9709674 26 18411131459359660982

> <PUBCHEM_SHAPE_MULTIPOLES>
426.3
10.63
2.02
1.21
8.76
0.36
0.11
-1.63
-2.81
-1.51
-0.04
-0.13
-0.02
-0.11

> <PUBCHEM_SHAPE_SELFOVERLAP>
893.232

> <PUBCHEM_SHAPE_VOLUME>
238

> <PUBCHEM_COORDINATE_TYPE>
2
5
10

$$$$

