321919
  -OEChem-07051213032D

 36 39  0     0  0  0  0  0  0999 V2000
    7.2482    0.2517    0.0000 O   0  0  0  0  0  0  0  0  0  0  0  0
    2.8641    1.7968    0.0000 O   0  0  0  0  0  0  0  0  0  0  0  0
    4.6380    2.8209    0.0000 O   0  0  0  0  0  0  0  0  0  0  0  0
    6.3821   -1.2483    0.0000 N   0  0  0  0  0  0  0  0  0  0  0  0
    5.5161   -1.7483    0.0000 C   0  0  0  0  0  0  0  0  0  0  0  0
    7.0000   -2.0267    0.0000 C   0  0  0  0  0  0  0  0  0  0  0  0
    6.5202   -2.8970    0.0000 C   0  0  0  0  0  0  0  0  0  0  0  0
    5.5322   -2.7898    0.0000 C   0  0  0  0  0  0  0  0  0  0  0  0
    4.6501   -1.2483    0.0000 C   0  0  0  0  0  0  0  0  0  0  0  0
    4.6501   -0.2483    0.0000 C   0  0  0  0  0  0  0  0  0  0  0  0
    6.3821   -0.2483    0.0000 C   0  0  0  0  0  0  0  0  0  0  0  0
    5.5161    0.2517    0.0000 C   0  0  0  0  0  0  0  0  0  0  0  0
    4.6341   -3.3176    0.0000 C   0  0  0  0  0  0  0  0  0  0  0  0
    3.7401   -1.7552    0.0000 C   0  0  0  0  0  0  0  0  0  0  0  0
    3.7320   -2.7968    0.0000 C   0  0  0  0  0  0  0  0  0  0  0  0
    3.7401    0.2585    0.0000 C   0  0  0  0  0  0  0  0  0  0  0  0
    5.5322    1.2932    0.0000 C   0  0  0  0  0  0  0  0  0  0  0  0
    3.7320    1.3001    0.0000 C   0  0  0  0  0  0  0  0  0  0  0  0
    4.6341    1.8209    0.0000 C   0  0  0  0  0  0  0  0  0  0  0  0
    2.0000    1.2934    0.0000 C   0  0  0  0  0  0  0  0  0  0  0  0
    5.5059    3.3176    0.0000 C   0  0  0  0  0  0  0  0  0  0  0  0
    7.4989   -2.3949    0.0000 H   0  0  0  0  0  0  0  0  0  0  0  0
    7.4307   -1.5807    0.0000 H   0  0  0  0  0  0  0  0  0  0  0  0
    6.3728   -3.4992    0.0000 H   0  0  0  0  0  0  0  0  0  0  0  0
    7.0978   -3.1223    0.0000 H   0  0  0  0  0  0  0  0  0  0  0  0
    4.6365   -3.9376    0.0000 H   0  0  0  0  0  0  0  0  0  0  0  0
    3.2068   -1.4390    0.0000 H   0  0  0  0  0  0  0  0  0  0  0  0
    3.1939   -3.1047    0.0000 H   0  0  0  0  0  0  0  0  0  0  0  0
    3.2068   -0.0577    0.0000 H   0  0  0  0  0  0  0  0  0  0  0  0
    6.0726    1.5970    0.0000 H   0  0  0  0  0  0  0  0  0  0  0  0
    1.6879    1.8292    0.0000 H   0  0  0  0  0  0  0  0  0  0  0  0
    1.4643    0.9814    0.0000 H   0  0  0  0  0  0  0  0  0  0  0  0
    2.3121    0.7577    0.0000 H   0  0  0  0  0  0  0  0  0  0  0  0
    5.8139    2.7795    0.0000 H   0  0  0  0  0  0  0  0  0  0  0  0
    6.0440    3.6255    0.0000 H   0  0  0  0  0  0  0  0  0  0  0  0
    5.1980    3.8557    0.0000 H   0  0  0  0  0  0  0  0  0  0  0  0
  1 11  2  0  0  0  0
  2 18  1  0  0  0  0
  2 20  1  0  0  0  0
  3 19  1  0  0  0  0
  3 21  1  0  0  0  0
  4  5  1  0  0  0  0
  4  6  1  0  0  0  0
  4 11  1  0  0  0  0
  5  8  2  0  0  0  0
  5  9  1  0  0  0  0
  6  7  1  0  0  0  0
  6 22  1  0  0  0  0
  6 23  1  0  0  0  0
  7  8  1  0  0  0  0
  7 24  1  0  0  0  0
  7 25  1  0  0  0  0
  8 13  1  0  0  0  0
  9 10  1  0  0  0  0
  9 14  2  0  0  0  0
 10 12  1  0  0  0  0
 10 16  2  0  0  0  0
 11 12  1  0  0  0  0
 12 17  2  0  0  0  0
 13 15  2  0  0  0  0
 13 26  1  0  0  0  0
 14 15  1  0  0  0  0
 14 27  1  0  0  0  0
 15 28  1  0  0  0  0
 16 18  1  0  0  0  0
 16 29  1  0  0  0  0
 17 19  1  0  0  0  0
 17 30  1  0  0  0  0
 18 19  2  0  0  0  0
 20 31  1  0  0  0  0
 20 32  1  0  0  0  0
 20 33  1  0  0  0  0
 21 34  1  0  0  0  0
 21 35  1  0  0  0  0
 21 36  1  0  0  0  0
M  END
> <PUBCHEM_COMPOUND_CID>
321919

> <PUBCHEM_COMPOUND_CANONICALIZED>
1

> <PUBCHEM_CACTVS_COMPLEXITY>
426

> <PUBCHEM_CACTVS_HBOND_ACCEPTOR>
3

> <PUBCHEM_CACTVS_HBOND_DONOR>
0

> <PUBCHEM_CACTVS_ROTATABLE_BOND>
2

> <PUBCHEM_CACTVS_SUBSKEYS>
AAADccB6MAAAAAAAAAAAAAAAAAAAAWAAAAA8YIAAAAAAAFixQAAAHgAAAAAADAzBmAYyxoMABACIAiVSUACCCAAlIAAIiAEOzMgNJjLEtZuEMSpkxhHK6Ye63fPeoAADAAASQABAAAYAACSAAAAAAAAAAA==

> <PUBCHEM_IUPAC_INCHI>
InChI=1S/C17H15NO3/c1-20-14-8-12-11-5-3-4-10-6-7-18(16(10)11)17(19)13(12)9-15(14)21-2/h3-5,8-9H,6-7H2,1-2H3

> <PUBCHEM_IUPAC_INCHIKEY>
PENHARRUWVHIOQ-UHFFFAOYSA-N

> <PUBCHEM_XLOGP3_AA>
2.6

> <PUBCHEM_EXACT_MASS>
281.105193

> <PUBCHEM_MOLECULAR_FORMULA>
C17H15NO3

> <PUBCHEM_MOLECULAR_WEIGHT>
281.3059

> <PUBCHEM_OPENEYE_CAN_SMILES>
COC1=C(C=C2C(=C1)C3=C4C(=CC=C3)CCN4C2=O)OC

> <PUBCHEM_OPENEYE_ISO_SMILES>
COC1=C(C=C2C(=C1)C3=C4C(=CC=C3)CCN4C2=O)OC

> <PUBCHEM_CACTVS_TPSA>
38.8

> <PUBCHEM_MONOISOTOPIC_WEIGHT>
281.105193

> <PUBCHEM_TOTAL_CHARGE>
0

> <PUBCHEM_HEAVY_ATOM_COUNT>
21

> <PUBCHEM_ATOM_DEF_STEREO_COUNT>
0

> <PUBCHEM_ATOM_UDEF_STEREO_COUNT>
0

> <PUBCHEM_BOND_DEF_STEREO_COUNT>
0

> <PUBCHEM_BOND_UDEF_STEREO_COUNT>
0

> <PUBCHEM_ISOTOPIC_ATOM_COUNT>
0

> <PUBCHEM_COMPONENT_COUNT>
1

> <PUBCHEM_CACTVS_TAUTO_COUNT>
1

> <PUBCHEM_COORDINATE_TYPE>
1
5
255

> <PUBCHEM_BONDANNOTATIONS>
10  12  8
10  16  8
11  12  8
12  17  8
13  15  8
14  15  8
16  18  8
17  19  8
18  19  8
4  11  8
4  5  8
5  8  8
5  9  8
8  13  8
9  10  8
9  14  8

$$$$

