5281206
  -OEChem-07051212553D

 46 47  0     1  0  0  0  0  0999 V2000
   -5.2269    1.8764    0.2610 O   0  0  0  0  0  0  0  0  0  0  0  0
   -3.5657   -2.5469    1.3978 O   0  0  0  0  0  0  0  0  0  0  0  0
    2.7927    3.3580   -0.3124 O   0  0  0  0  0  0  0  0  0  0  0  0
   -2.4309   -3.8585   -0.0647 O   0  0  0  0  0  0  0  0  0  0  0  0
    4.9296    3.3833    0.4804 O   0  0  0  0  0  0  0  0  0  0  0  0
    7.2403   -0.9214    1.2299 O   0  0  0  0  0  0  0  0  0  0  0  0
   -3.7599    3.4413    1.0098 O   0  0  0  0  0  0  0  0  0  0  0  0
    7.6741   -1.1245   -1.0063 O   0  0  0  0  0  0  0  0  0  0  0  0
   -7.6456    1.1296   -0.1843 O   0  0  0  0  0  0  0  0  0  0  0  0
   -7.0852   -0.9166   -1.0381 O   0  0  0  0  0  0  0  0  0  0  0  0
   -0.2378   -2.1768    0.2606 N   0  0  0  0  0  0  0  0  0  0  0  0
    5.4217    0.9350   -0.3230 N   0  0  0  0  0  0  0  0  0  0  0  0
   -1.5633   -1.6438    0.4668 C   0  0  1  0  0  0  0  0  0  0  0  0
    3.0009    0.5424    0.1519 C   0  0  0  0  0  0  0  0  0  0  0  0
   -1.9378   -0.7124   -0.6888 C   0  0  0  0  0  0  0  0  0  0  0  0
    4.0497    1.3938   -0.5648 C   0  0  1  0  0  0  0  0  0  0  0  0
    3.2608   -0.9243   -0.0615 C   0  0  0  0  0  0  0  0  0  0  0  0
   -3.0458    0.2269   -0.3401 C   0  0  0  0  0  0  0  0  0  0  0  0
    2.1329   -1.8180   -0.0151 C   0  0  0  0  0  0  0  0  0  0  0  0
    4.5059   -1.3685   -0.2805 C   0  0  0  0  0  0  0  0  0  0  0  0
    0.8802   -1.4083    0.2009 C   0  0  0  0  0  0  0  0  0  0  0  0
    5.5659   -0.3405   -0.2372 C   0  0  0  0  0  0  0  0  0  0  0  0
   -2.5362   -2.8041    0.5483 C   0  0  0  0  0  0  0  0  0  0  0  0
    4.0055    2.8034   -0.0701 C   0  0  0  0  0  0  0  0  0  0  0  0
   -4.3936   -0.2152   -0.5994 C   0  0  0  0  0  0  0  0  0  0  0  0
   -2.8341    1.4381    0.1931 C   0  0  0  0  0  0  0  0  0  0  0  0
   -5.4099    0.5995   -0.2994 C   0  0  0  0  0  0  0  0  0  0  0  0
   -3.9634    2.3340    0.5223 C   0  0  0  0  0  0  0  0  0  0  0  0
    6.9560   -0.8440   -0.0796 C   0  0  0  0  0  0  0  0  0  0  0  0
   -6.7803    0.1621   -0.5573 C   0  0  0  0  0  0  0  0  0  0  0  0
   -1.5737   -1.1196    1.4314 H   0  0  0  0  0  0  0  0  0  0  0  0
    2.9791    0.7566    1.2286 H   0  0  0  0  0  0  0  0  0  0  0  0
    2.0407    0.8624   -0.2654 H   0  0  0  0  0  0  0  0  0  0  0  0
   -2.2000   -1.2959   -1.5829 H   0  0  0  0  0  0  0  0  0  0  0  0
   -1.0792   -0.1064   -1.0063 H   0  0  0  0  0  0  0  0  0  0  0  0
    3.8785    1.4113   -1.6490 H   0  0  0  0  0  0  0  0  0  0  0  0
   -0.1238   -3.1716    0.0926 H   0  0  0  0  0  0  0  0  0  0  0  0
    2.3218   -2.8749   -0.1893 H   0  0  0  0  0  0  0  0  0  0  0  0
    4.7661   -2.4097   -0.4222 H   0  0  0  0  0  0  0  0  0  0  0  0
    0.6390   -0.3761    0.4177 H   0  0  0  0  0  0  0  0  0  0  0  0
   -4.5467   -1.1954   -1.0379 H   0  0  0  0  0  0  0  0  0  0  0  0
   -1.8336    1.8012    0.4027 H   0  0  0  0  0  0  0  0  0  0  0  0
   -4.1949   -3.2978    1.4471 H   0  0  0  0  0  0  0  0  0  0  0  0
    2.7426    4.2840    0.0072 H   0  0  0  0  0  0  0  0  0  0  0  0
    8.1499   -1.2503    1.3932 H   0  0  0  0  0  0  0  0  0  0  0  0
   -8.5785    0.8709   -0.3433 H   0  0  0  0  0  0  0  0  0  0  0  0
  1 27  1  0  0  0  0
  1 28  1  0  0  0  0
  2 23  1  0  0  0  0
  2 43  1  0  0  0  0
  3 24  1  0  0  0  0
  3 44  1  0  0  0  0
  4 23  2  0  0  0  0
  5 24  2  0  0  0  0
  6 29  1  0  0  0  0
  6 45  1  0  0  0  0
  7 28  2  0  0  0  0
  8 29  2  0  0  0  0
  9 30  1  0  0  0  0
  9 46  1  0  0  0  0
 10 30  2  0  0  0  0
 11 13  1  0  0  0  0
 11 21  1  0  0  0  0
 11 37  1  0  0  0  0
 12 16  1  0  0  0  0
 12 22  2  0  0  0  0
 13 15  1  0  0  0  0
 13 23  1  0  0  0  0
 13 31  1  0  0  0  0
 14 16  1  0  0  0  0
 14 17  1  0  0  0  0
 14 32  1  0  0  0  0
 14 33  1  0  0  0  0
 15 18  1  0  0  0  0
 15 34  1  0  0  0  0
 15 35  1  0  0  0  0
 16 24  1  0  0  0  0
 16 36  1  0  0  0  0
 17 19  1  0  0  0  0
 17 20  2  0  0  0  0
 18 25  1  0  0  0  0
 18 26  2  0  0  0  0
 19 21  2  0  0  0  0
 19 38  1  0  0  0  0
 20 22  1  0  0  0  0
 20 39  1  0  0  0  0
 21 40  1  0  0  0  0
 22 29  1  0  0  0  0
 25 27  2  0  0  0  0
 25 41  1  0  0  0  0
 26 28  1  0  0  0  0
 26 42  1  0  0  0  0
 27 30  1  0  0  0  0
M  END
> <PUBCHEM_COMPOUND_CID>
5281206

> <PUBCHEM_CONFORMER_RMSD>
1

> <PUBCHEM_CONFORMER_DIVERSEORDER>
6
70
31
82
66
47
100
107
39
17
101
111
18
53
78
30
99
102
16
81
75
55
15
103
56
40
73
77
19
112
96
49
46
34
109
57
105
45
60
83
62
41
9
80
14
61
65
23
2
72
104
68
106
95
37
44
52
108
64
79
93
38
90
27
36
58
98
110
69
54
8
20
35
42
3
91
87
85
71
4
24
74
94
33
26
76
48
25
50
84
59
88
10
5
28
11
89
29
22
67
13
97
63
92
1
12
21
7
51
32
86
43

> <PUBCHEM_MMFF94_PARTIAL_CHARGES>
40
1 -0.23
10 -0.57
11 -0.87
12 -0.7
13 0.43
14 0.14
15 0.14
16 0.31
17 -0.14
18 -0.14
19 -0.15
2 -0.65
20 -0.14
21 -0.05
22 0.44
23 0.66
24 0.66
25 -0.15
26 -0.14
27 0.09
28 0.71
29 0.72
3 -0.65
30 0.71
37 0.4
38 0.15
39 0.15
4 -0.57
40 0.15
41 0.15
42 0.15
43 0.5
44 0.5
45 0.5
46 0.5
5 -0.57
6 -0.65
7 -0.57
8 -0.57
9 -0.65

> <PUBCHEM_EFFECTIVE_ROTOR_COUNT>
9.4

> <PUBCHEM_PHARMACOPHORE_FEATURES>
18
1 10 acceptor
1 11 cation
1 11 donor
1 12 acceptor
1 2 acceptor
1 3 acceptor
1 4 acceptor
1 5 acceptor
1 6 acceptor
1 7 acceptor
1 8 acceptor
1 9 acceptor
3 2 4 23 anion
3 3 5 24 anion
3 6 8 29 anion
3 9 10 30 anion
6 1 18 25 26 27 28 rings
6 12 14 16 17 20 22 rings

> <PUBCHEM_HEAVY_ATOM_COUNT>
30

> <PUBCHEM_ATOM_DEF_STEREO_COUNT>
2

> <PUBCHEM_ATOM_UDEF_STEREO_COUNT>
0

> <PUBCHEM_BOND_DEF_STEREO_COUNT>
1

> <PUBCHEM_BOND_UDEF_STEREO_COUNT>
0

> <PUBCHEM_ISOTOPIC_ATOM_COUNT>
0

> <PUBCHEM_COMPONENT_COUNT>
1

> <PUBCHEM_CACTVS_TAUTO_COUNT>
3

> <PUBCHEM_CONFORMER_ID>
005095B600000006

> <PUBCHEM_MMFF94_ENERGY>
70.3801

> <PUBCHEM_FEATURE_SELFOVERLAP>
91.575

> <PUBCHEM_SHAPE_FINGERPRINT>
10670039 82 18336831995277237969
12107183 9 18342184410077385274
15001296 14 18200318701784158472
15064981 194 18270382903047359887
15183329 4 18411416237413732858
15419008 145 18269848673867691000
17844677 252 18339354159440893594
19611394 137 18058154048079321699
20721686 56 18412544271571545441
21033648 144 18271255932180011452
21033648 29 17822876203561227290
23559900 14 18337114471334490120
249057 3 18412544310532043686
2838139 119 18410577292582360855
335352 9 18411979170577707942
3383291 50 18408325475821356771
4073 2 18131065988110650450
4144715 1 18270106926009148490
4258327 124 17345453934700228447
4325135 7 18333453170812861671
5104073 3 18201724999210409570
54446538 1 18407761451598356748
6328613 192 18201145582653205100
6371009 1 18411143575261774033

> <PUBCHEM_SHAPE_MULTIPOLES>
548.73
20.93
3.87
0.87
4.5
1.31
0.07
3.77
-2.53
-0.46
0.9
-0.17
-0.12
-0.2

> <PUBCHEM_SHAPE_SELFOVERLAP>
1165.841

> <PUBCHEM_SHAPE_VOLUME>
299.7

> <PUBCHEM_COORDINATE_TYPE>
2
5
10

$$$$

