51090959
  -OEChem-06241223013D

 47 49  0     1  0  0  0  0  0999 V2000
   -2.8746    1.8968    0.8014 O   0  0  0  0  0  0  0  0  0  0  0  0
    1.4150    0.4230   -1.6512 O   0  0  0  0  0  0  0  0  0  0  0  0
    5.2858    0.0051   -0.5206 O   0  0  0  0  0  0  0  0  0  0  0  0
    3.1050   -0.5628    0.0642 N   0  0  0  0  0  0  0  0  0  0  0  0
   -0.2563    0.8247   -0.0811 N   0  0  0  0  0  0  0  0  0  0  0  0
    1.7967   -0.1889    0.6263 C   0  0  2  0  0  0  0  0  0  0  0  0
    1.0861   -1.3508    1.3236 C   0  0  0  0  0  0  0  0  0  0  0  0
    1.1229   -2.6509    0.5243 C   0  0  0  0  0  0  0  0  0  0  0  0
    2.5486   -2.9794    0.1015 C   0  0  0  0  0  0  0  0  0  0  0  0
    3.1628   -1.8265   -0.6809 C   0  0  0  0  0  0  0  0  0  0  0  0
   -1.2220    1.4304   -0.9706 C   0  0  1  0  0  0  0  0  0  0  0  0
    0.9824    0.3726   -0.5027 C   0  0  0  0  0  0  0  0  0  0  0  0
   -2.1341    0.3833   -1.6053 C   0  0  0  0  0  0  0  0  0  0  0  0
    4.2327    0.2663    0.0672 C   0  0  0  0  0  0  0  0  0  0  0  0
   -2.0631    2.4661   -0.2325 C   0  0  0  0  0  0  0  0  0  0  0  0
   -3.2455   -0.0127   -0.6735 C   0  0  0  0  0  0  0  0  0  0  0  0
    4.1315    1.5489    0.8552 C   0  0  0  0  0  0  0  0  0  0  0  0
   -3.5568    0.7615    0.4508 C   0  0  0  0  0  0  0  0  0  0  0  0
   -4.0039   -1.1599   -0.9432 C   0  0  0  0  0  0  0  0  0  0  0  0
   -4.5854    0.3710    1.3124 C   0  0  0  0  0  0  0  0  0  0  0  0
    5.4373    2.3016    0.7827 C   0  0  0  0  0  0  0  0  0  0  0  0
   -5.0386   -1.5413   -0.0886 C   0  0  0  0  0  0  0  0  0  0  0  0
   -5.3266   -0.7780    1.0407 C   0  0  0  0  0  0  0  0  0  0  0  0
    1.9146    0.6149    1.3584 H   0  0  0  0  0  0  0  0  0  0  0  0
    0.0485   -1.1206    1.5851 H   0  0  0  0  0  0  0  0  0  0  0  0
    1.6012   -1.5340    2.2767 H   0  0  0  0  0  0  0  0  0  0  0  0
    0.4842   -2.5591   -0.3624 H   0  0  0  0  0  0  0  0  0  0  0  0
    0.7169   -3.4695    1.1291 H   0  0  0  0  0  0  0  0  0  0  0  0
    2.5558   -3.8890   -0.5091 H   0  0  0  0  0  0  0  0  0  0  0  0
    3.1547   -3.1822    0.9932 H   0  0  0  0  0  0  0  0  0  0  0  0
    4.2014   -2.0747   -0.9244 H   0  0  0  0  0  0  0  0  0  0  0  0
    2.6422   -1.6942   -1.6349 H   0  0  0  0  0  0  0  0  0  0  0  0
   -0.6585    1.9298   -1.7683 H   0  0  0  0  0  0  0  0  0  0  0  0
   -0.5111    0.7484    0.8986 H   0  0  0  0  0  0  0  0  0  0  0  0
   -2.5937    0.8056   -2.5079 H   0  0  0  0  0  0  0  0  0  0  0  0
   -1.5572   -0.5001   -1.9049 H   0  0  0  0  0  0  0  0  0  0  0  0
   -1.4147    3.2104    0.2437 H   0  0  0  0  0  0  0  0  0  0  0  0
   -2.7179    3.0066   -0.9278 H   0  0  0  0  0  0  0  0  0  0  0  0
    3.9098    1.3145    1.9014 H   0  0  0  0  0  0  0  0  0  0  0  0
    3.3291    2.1687    0.4427 H   0  0  0  0  0  0  0  0  0  0  0  0
   -3.7878   -1.7663   -1.8193 H   0  0  0  0  0  0  0  0  0  0  0  0
   -4.8181    0.9612    2.1949 H   0  0  0  0  0  0  0  0  0  0  0  0
    5.6924    2.5674   -0.2491 H   0  0  0  0  0  0  0  0  0  0  0  0
    5.3692    3.2308    1.3578 H   0  0  0  0  0  0  0  0  0  0  0  0
    6.2647    1.7146    1.1960 H   0  0  0  0  0  0  0  0  0  0  0  0
   -5.6178   -2.4347   -0.3027 H   0  0  0  0  0  0  0  0  0  0  0  0
   -6.1293   -1.0771    1.7084 H   0  0  0  0  0  0  0  0  0  0  0  0
  1 15  1  0  0  0  0
  1 18  1  0  0  0  0
  2 12  2  0  0  0  0
  3 14  2  0  0  0  0
  4  6  1  0  0  0  0
  4 10  1  0  0  0  0
  4 14  1  0  0  0  0
  5 11  1  0  0  0  0
  5 12  1  0  0  0  0
  5 34  1  0  0  0  0
  6  7  1  0  0  0  0
  6 12  1  0  0  0  0
  6 24  1  0  0  0  0
  7  8  1  0  0  0  0
  7 25  1  0  0  0  0
  7 26  1  0  0  0  0
  8  9  1  0  0  0  0
  8 27  1  0  0  0  0
  8 28  1  0  0  0  0
  9 10  1  0  0  0  0
  9 29  1  0  0  0  0
  9 30  1  0  0  0  0
 10 31  1  0  0  0  0
 10 32  1  0  0  0  0
 11 13  1  0  0  0  0
 11 15  1  0  0  0  0
 11 33  1  0  0  0  0
 13 16  1  0  0  0  0
 13 35  1  0  0  0  0
 13 36  1  0  0  0  0
 14 17  1  0  0  0  0
 15 37  1  0  0  0  0
 15 38  1  0  0  0  0
 16 18  1  0  0  0  0
 16 19  2  0  0  0  0
 17 21  1  0  0  0  0
 17 39  1  0  0  0  0
 17 40  1  0  0  0  0
 18 20  2  0  0  0  0
 19 22  1  0  0  0  0
 19 41  1  0  0  0  0
 20 23  1  0  0  0  0
 20 42  1  0  0  0  0
 21 43  1  0  0  0  0
 21 44  1  0  0  0  0
 21 45  1  0  0  0  0
 22 23  2  0  0  0  0
 22 46  1  0  0  0  0
 23 47  1  0  0  0  0
M  END
> <PUBCHEM_COMPOUND_CID>
51090959

> <PUBCHEM_CONFORMER_RMSD>
0.8

> <PUBCHEM_CONFORMER_DIVERSEORDER>
1
116
19
98
182
147
163
154
186
132
37
149
90
102
47
127
112
144
178
122
80
131
142
106
109
119
172
51
180
31
69
61
34
111
139
67
150
95
107
57
162
96
41
27
166
58
62
45
84
183
44
3
184
101
11
28
89
152
158
174
79
114
173
104
16
185
14
35
130
151
176
85
53
105
12
120
113
171
17
121
87
83
70
66
56
145
115
157
32
36
15
170
94
71
146
110
24
108
153
25
117
100
82
91
161
7
136
189
168
97
129
77
9
43
128
191
54
49
169
75
38
23
156
159
92
78
42
99
126
40
88
165
68
123
50
175
48
138
86
18
55
177
118
22
46
73
133
81
4
143
39
167
140
72
137
8
179
141
187
10
160
124
134
5
13
93
125
52
33
181
2
63
65
76
135
188
20
148
26
74
190
164
60
29
155
64
6
30
59
21
103

> <PUBCHEM_MMFF94_PARTIAL_CHARGES>
24
1 -0.36
10 0.3
11 0.3
12 0.57
13 0.14
14 0.57
15 0.28
16 -0.14
17 0.06
18 0.08
19 -0.15
2 -0.57
20 -0.15
22 -0.15
23 -0.15
3 -0.57
34 0.37
4 -0.66
41 0.15
42 0.15
46 0.15
47 0.15
5 -0.73
6 0.36

> <PUBCHEM_EFFECTIVE_ROTOR_COUNT>
7

> <PUBCHEM_PHARMACOPHORE_FEATURES>
8
1 1 acceptor
1 2 acceptor
1 21 hydrophobe
1 3 acceptor
1 5 donor
6 1 11 13 15 16 18 rings
6 16 18 19 20 22 23 rings
6 4 6 7 8 9 10 rings

> <PUBCHEM_HEAVY_ATOM_COUNT>
23

> <PUBCHEM_ATOM_DEF_STEREO_COUNT>
0

> <PUBCHEM_ATOM_UDEF_STEREO_COUNT>
2

> <PUBCHEM_BOND_DEF_STEREO_COUNT>
0

> <PUBCHEM_BOND_UDEF_STEREO_COUNT>
0

> <PUBCHEM_ISOTOPIC_ATOM_COUNT>
0

> <PUBCHEM_COMPONENT_COUNT>
1

> <PUBCHEM_CACTVS_TAUTO_COUNT>
2

> <PUBCHEM_CONFORMER_ID>
030B960F00000001

> <PUBCHEM_MMFF94_ENERGY>
51.5297

> <PUBCHEM_FEATURE_SELFOVERLAP>
40.623

> <PUBCHEM_SHAPE_FINGERPRINT>
10074138 170 17767710277574186354
11552529 35 18040439914748459499
11578080 2 18199483219044593373
12107183 9 17612019787083108131
12166972 35 10807931566142102767
12363563 72 15985100829776321749
12553582 1 18413113849075897807
12596602 18 17894623734918955099
12633257 1 16515405166794529107
128620 24 17846778533200770503
12892183 10 18336258020553879973
13224815 77 17917429886178967003
13583140 156 18263091053248132637
13726171 33 16515947242436792440
13911882 115 18341321241044920466
14289901 80 18335147539126086008
14341114 176 18113330903739752705
14341114 328 18113617867605338585
14347329 18 14852148689786760411
146900 427 18260270707423092752
14787075 74 18335985268334195776
14849402 71 18261960653202150552
14863182 85 18201991132158198502
151778 21 17095241462038205198
15183329 4 9295022257714225608
15238133 3 15213296477774083507
15788980 27 11671782688797920373
15880784 105 18259979383996785915
16126227 98 18047474418698733064
17349148 13 17489864942816923284
1813 80 17560787862777969551
192875 21 11600002167580185543
19377110 9 18261126153265543586
200 152 17561083601214755013
21304303 282 14690081788407103519
21401589 2 17754484286637630376
21503847 285 6916256338795667642
21673915 165 18411699885301374123
22079108 93 18336551508607086064
221490 88 18196372743820450242
23402539 116 11095894760683252679
23557571 272 16987727963804701676
23559900 14 18050299346941315930
3633792 109 18411991274027578629
3737641 26 18337383950183122011
392239 28 18337112263246637552
4409770 3 15096502590971520517
469060 322 17130445500772067159
474229 33 18271813367553614586
5104073 3 18270121343322382777
5486654 2 18339924792721250164
6287921 2 18341042016804704678
6328613 192 7709448455743953194
6442390 28 18411139108996991650
6913067 236 17560810904644633004

> <PUBCHEM_SHAPE_MULTIPOLES>
445.76
11.98
2.71
1.29
0
0.78
0.11
-1.16
-2.48
1.83
-0.34
-0.6
-0.09
0.48

> <PUBCHEM_SHAPE_SELFOVERLAP>
939.274

> <PUBCHEM_SHAPE_VOLUME>
246.5

> <PUBCHEM_COORDINATE_TYPE>
2
5
10

$$$$

