6435894
  -OEChem-07051213133D

 60 61  0     1  0  0  0  0  0999 V2000
   -5.5118    0.0845   -1.4817 O   0  0  0  0  0  0  0  0  0  0  0  0
   -5.4694    1.2154    2.0516 O   0  0  0  0  0  0  0  0  0  0  0  0
   -5.9808   -2.7840    0.2714 O   0  0  0  0  0  0  0  0  0  0  0  0
   -3.5149   -2.0099   -2.0555 O   0  0  0  0  0  0  0  0  0  0  0  0
   -7.9189    3.8391   -0.1654 O   0  0  0  0  0  0  0  0  0  0  0  0
    7.8265    1.8537    0.4613 O   0  0  0  0  0  0  0  0  0  0  0  0
    8.6037    0.3214   -1.0911 O   0  0  0  0  0  0  0  0  0  0  0  0
   -6.5043   -0.6422    1.0842 N   0  0  0  0  0  0  0  0  0  0  0  0
   -5.0604    0.6262   -0.2346 C   0  0  2  0  0  0  0  0  0  0  0  0
   -4.9018   -0.8308   -0.5658 C   0  0  1  0  0  0  0  0  0  0  0  0
   -6.0842    0.7351    0.8635 C   0  0  2  0  0  0  0  0  0  0  0  0
   -5.8455   -1.5715    0.2949 C   0  0  0  0  0  0  0  0  0  0  0  0
   -7.2474    1.6397    0.4987 C   0  0  0  0  0  0  0  0  0  0  0  0
   -3.5819   -1.3546   -1.0228 C   0  0  0  0  0  0  0  0  0  0  0  0
   -6.7834    3.0457    0.1505 C   0  0  0  0  0  0  0  0  0  0  0  0
   -2.3986   -1.0742   -0.1469 C   0  0  0  0  0  0  0  0  0  0  0  0
   -2.6147   -1.0026    1.3360 C   0  0  0  0  0  0  0  0  0  0  0  0
   -1.2188   -0.9636   -0.7870 C   0  0  0  0  0  0  0  0  0  0  0  0
    0.0677   -0.6921   -0.1735 C   0  0  0  0  0  0  0  0  0  0  0  0
    1.2037   -0.5964   -0.8852 C   0  0  0  0  0  0  0  0  0  0  0  0
    2.5433   -0.3278   -0.3591 C   0  0  0  0  0  0  0  0  0  0  0  0
    2.6891   -0.1216    1.1280 C   0  0  0  0  0  0  0  0  0  0  0  0
    3.5771   -0.2657   -1.2251 C   0  0  0  0  0  0  0  0  0  0  0  0
    4.9709   -0.0132   -0.9002 C   0  0  0  0  0  0  0  0  0  0  0  0
    5.6579    0.8913   -1.8899 C   0  0  0  0  0  0  0  0  0  0  0  0
    5.6364   -0.5045    0.1648 C   0  0  0  0  0  0  0  0  0  0  0  0
    7.0218   -0.3134    0.5765 C   0  0  0  0  0  0  0  0  0  0  0  0
    7.4998   -0.9014    1.6910 C   0  0  0  0  0  0  0  0  0  0  0  0
    7.9090    0.6345   -0.1359 C   0  0  0  0  0  0  0  0  0  0  0  0
    6.7761   -1.7926    2.6527 C   0  0  0  0  0  0  0  0  0  0  0  0
    8.6535    2.8753   -0.1052 C   0  0  0  0  0  0  0  0  0  0  0  0
   -4.2344    1.3175   -0.2259 H   0  0  0  0  0  0  0  0  0  0  0  0
   -7.1893   -0.9038    1.7861 H   0  0  0  0  0  0  0  0  0  0  0  0
   -7.9611    1.6989    1.3313 H   0  0  0  0  0  0  0  0  0  0  0  0
   -7.8153    1.2297   -0.3470 H   0  0  0  0  0  0  0  0  0  0  0  0
   -6.0880    1.0435    2.7816 H   0  0  0  0  0  0  0  0  0  0  0  0
   -6.2639    3.5135    0.9928 H   0  0  0  0  0  0  0  0  0  0  0  0
   -6.1216    3.0483   -0.7206 H   0  0  0  0  0  0  0  0  0  0  0  0
   -1.7120   -1.2467    1.9030 H   0  0  0  0  0  0  0  0  0  0  0  0
   -3.3702   -1.7263    1.6577 H   0  0  0  0  0  0  0  0  0  0  0  0
   -2.9372   -0.0008    1.6323 H   0  0  0  0  0  0  0  0  0  0  0  0
   -1.1942   -1.0552   -1.8723 H   0  0  0  0  0  0  0  0  0  0  0  0
   -7.5940    4.7301   -0.3808 H   0  0  0  0  0  0  0  0  0  0  0  0
    0.0828   -0.5690    0.9029 H   0  0  0  0  0  0  0  0  0  0  0  0
    1.1438   -0.7296   -1.9655 H   0  0  0  0  0  0  0  0  0  0  0  0
    3.6010    0.4070    1.4144 H   0  0  0  0  0  0  0  0  0  0  0  0
    1.8876    0.5174    1.5160 H   0  0  0  0  0  0  0  0  0  0  0  0
    2.6536   -1.0801    1.6559 H   0  0  0  0  0  0  0  0  0  0  0  0
    3.3874   -0.4150   -2.2881 H   0  0  0  0  0  0  0  0  0  0  0  0
    4.9718    1.2134   -2.6842 H   0  0  0  0  0  0  0  0  0  0  0  0
    6.0013    1.8178   -1.4226 H   0  0  0  0  0  0  0  0  0  0  0  0
    6.4741    0.3762   -2.4039 H   0  0  0  0  0  0  0  0  0  0  0  0
    5.0730   -1.1862    0.7964 H   0  0  0  0  0  0  0  0  0  0  0  0
    8.5267   -0.6793    1.9821 H   0  0  0  0  0  0  0  0  0  0  0  0
    6.2894   -1.1974    3.4308 H   0  0  0  0  0  0  0  0  0  0  0  0
    6.0404   -2.4420    2.1723 H   0  0  0  0  0  0  0  0  0  0  0  0
    7.4990   -2.4555    3.1408 H   0  0  0  0  0  0  0  0  0  0  0  0
    9.7088    2.6028   -0.0080 H   0  0  0  0  0  0  0  0  0  0  0  0
    8.3918    3.0378   -1.1551 H   0  0  0  0  0  0  0  0  0  0  0  0
    8.4769    3.8016    0.4480 H   0  0  0  0  0  0  0  0  0  0  0  0
  1  9  1  0  0  0  0
  1 10  1  0  0  0  0
  2 11  1  0  0  0  0
  2 36  1  0  0  0  0
  3 12  2  0  0  0  0
  4 14  2  0  0  0  0
  5 15  1  0  0  0  0
  5 43  1  0  0  0  0
  6 29  1  0  0  0  0
  6 31  1  0  0  0  0
  7 29  2  0  0  0  0
  8 11  1  0  0  0  0
  8 12  1  0  0  0  0
  8 33  1  0  0  0  0
  9 10  1  0  0  0  0
  9 11  1  0  0  0  0
  9 32  1  0  0  0  0
 10 12  1  0  0  0  0
 10 14  1  0  0  0  0
 11 13  1  0  0  0  0
 13 15  1  0  0  0  0
 13 34  1  0  0  0  0
 13 35  1  0  0  0  0
 14 16  1  0  0  0  0
 15 37  1  0  0  0  0
 15 38  1  0  0  0  0
 16 17  1  0  0  0  0
 16 18  2  0  0  0  0
 17 39  1  0  0  0  0
 17 40  1  0  0  0  0
 17 41  1  0  0  0  0
 18 19  1  0  0  0  0
 18 42  1  0  0  0  0
 19 20  2  0  0  0  0
 19 44  1  0  0  0  0
 20 21  1  0  0  0  0
 20 45  1  0  0  0  0
 21 22  1  0  0  0  0
 21 23  2  0  0  0  0
 22 46  1  0  0  0  0
 22 47  1  0  0  0  0
 22 48  1  0  0  0  0
 23 24  1  0  0  0  0
 23 49  1  0  0  0  0
 24 25  1  0  0  0  0
 24 26  2  0  0  0  0
 25 50  1  0  0  0  0
 25 51  1  0  0  0  0
 25 52  1  0  0  0  0
 26 27  1  0  0  0  0
 26 53  1  0  0  0  0
 27 28  2  0  0  0  0
 27 29  1  0  0  0  0
 28 30  1  0  0  0  0
 28 54  1  0  0  0  0
 30 55  1  0  0  0  0
 30 56  1  0  0  0  0
 30 57  1  0  0  0  0
 31 58  1  0  0  0  0
 31 59  1  0  0  0  0
 31 60  1  0  0  0  0
M  END
> <PUBCHEM_COMPOUND_CID>
6435894

> <PUBCHEM_CONFORMER_RMSD>
1.2

> <PUBCHEM_CONFORMER_DIVERSEORDER>
1
78
82
23
29
88
55
28
71
48
38
11
63
6
47
16
59
70
18
7
60
32
80
77
41
2
12
62
5
21
58
9
39
76
50
13
69
67
43
4
3
87
20
33
19
31
24
75
35
40
44
64
17
49
8
73
52
56
54
85
25
26
65
79
15
61
83
53
51
14
86
34
66
81
74
46
10
30
72
37
36
68
42
84
27
57
22
89
45

> <PUBCHEM_MMFF94_PARTIAL_CHARGES>
40
1 -0.3
10 0.15
11 0.68
12 0.63
14 0.56
15 0.28
16 -0.12
17 0.14
18 -0.15
19 -0.15
2 -0.68
20 -0.15
21 -0.14
22 0.14
23 -0.15
24 -0.14
25 0.14
26 -0.15
27 0.01
28 -0.29
29 0.71
3 -0.57
30 0.14
31 0.28
32 0.1
33 0.37
36 0.4
4 -0.57
42 0.15
43 0.4
44 0.15
45 0.15
49 0.15
5 -0.68
53 0.15
54 0.15
6 -0.43
7 -0.57
8 -0.73
9 -0.05

> <PUBCHEM_EFFECTIVE_ROTOR_COUNT>
10.6

> <PUBCHEM_PHARMACOPHORE_FEATURES>
14
1 1 acceptor
1 17 hydrophobe
1 2 acceptor
1 2 donor
1 22 hydrophobe
1 25 hydrophobe
1 3 acceptor
1 30 hydrophobe
1 4 acceptor
1 5 acceptor
1 5 donor
1 7 acceptor
1 8 donor
6 1 8 9 10 11 12 rings

> <PUBCHEM_HEAVY_ATOM_COUNT>
31

> <PUBCHEM_ATOM_DEF_STEREO_COUNT>
3

> <PUBCHEM_ATOM_UDEF_STEREO_COUNT>
0

> <PUBCHEM_BOND_DEF_STEREO_COUNT>
5

> <PUBCHEM_BOND_UDEF_STEREO_COUNT>
0

> <PUBCHEM_ISOTOPIC_ATOM_COUNT>
0

> <PUBCHEM_COMPONENT_COUNT>
1

> <PUBCHEM_CACTVS_TAUTO_COUNT>
2

> <PUBCHEM_CONFORMER_ID>
0062343600000001

> <PUBCHEM_MMFF94_ENERGY>
85.5938

> <PUBCHEM_FEATURE_SELFOVERLAP>
71.086

> <PUBCHEM_SHAPE_FINGERPRINT>
10299344 5 17988925557130292818
10533779 1 18121784100519292201
11181472 205 18338230570584944488
11315181 36 18341334414548120863
11386260 185 5328459337773635978
11607047 191 12678636347259047591
11761917 87 15984544541728542714
12082328 90 18411136913873278983
125118 31 18334575733646653172
12539765 74 18335696136254054414
12664476 115 18113898239677384985
13782708 43 12823300091502675598
14251764 18 17917993850277790494
14344974 204 14116930449918272689
14429380 56 14345803747279898794
14849402 71 18199467671668942692
15183329 4 17675925395743834978
15352257 5 12175623975484714696
15419008 91 17023481784512210384
15461852 350 17023191496536960405
15554971 5 18343028770181860022
1577012 14 18413672413704348510
17093844 174 18113901563887320931
1754908 1 16487257647506351760
20105231 36 14979953709728558050
21130935 74 18202285805807124634
21756936 100 18412824699409633471
23081809 10 18272933786987690566
23522609 53 17702640216852731197
23559900 14 15647059243934206579
23576562 1 14707792622696685113
3178227 256 15626220213512181332
3383291 50 13830123988621800929
4073 2 18260824861453037630
4093350 32 18131636699518394898
44802255 64 17676488359268091199
4760202 170 14273740685084459555
5758199 1 18202283585377155690
636775 72 18336263535672514645
636775 8 11023816310215648313
999808 66 14045736032900816539

> <PUBCHEM_SHAPE_MULTIPOLES>
591.9
31.95
2.64
1.73
24.04
2.3
0.35
16.48
6.78
-4.19
0.4
1.41
-0.61
-3.05

> <PUBCHEM_SHAPE_SELFOVERLAP>
1222.726

> <PUBCHEM_SHAPE_VOLUME>
340.7

> <PUBCHEM_COORDINATE_TYPE>
2
5
10

$$$$

