6915944
  -OEChem-07051212543D

 39 41  0     1  0  0  0  0  0999 V2000
    1.4807    0.4421    2.2906 S   0  0  0  0  0  0  0  0  0  0  0  0
   -3.3329   -2.8344   -0.9116 S   0  0  0  0  0  0  0  0  0  0  0  0
    0.9866    1.1693   -2.2754 O   0  0  0  0  0  0  0  0  0  0  0  0
    2.8181   -1.6795   -1.9448 O   0  0  0  0  0  0  0  0  0  0  0  0
    4.4693   -0.1270   -2.2497 O   0  0  0  0  0  0  0  0  0  0  0  0
   -1.9549    2.1230   -1.4489 O   0  0  0  0  0  0  0  0  0  0  0  0
   -3.4798    2.9290    1.1290 O   0  0  0  0  0  0  0  0  0  0  0  0
    2.1450    0.7806   -0.2573 N   0  0  0  0  0  0  0  0  0  0  0  0
   -0.7591    1.4629    0.4603 N   0  0  0  0  0  0  0  0  0  0  0  0
   -3.9095    1.6091    0.9669 N   0  0  0  0  0  0  0  0  0  0  0  0
   -4.5409   -1.0275    0.4878 N   0  0  0  0  0  0  0  0  0  0  0  0
   -5.5948   -3.1438    0.4521 N   0  0  0  0  0  0  0  0  0  0  0  0
    1.7853    1.5661    0.9096 C   0  0  1  0  0  0  0  0  0  0  0  0
    0.5465    2.0169    0.1059 C   0  0  1  0  0  0  0  0  0  0  0  0
    1.2209    1.2976   -1.0966 C   0  0  0  0  0  0  0  0  0  0  0  0
    3.1499   -0.1349   -0.2725 C   0  0  0  0  0  0  0  0  0  0  0  0
    3.1833   -0.2193    2.2685 C   0  0  0  0  0  0  0  0  0  0  0  0
    3.6938   -0.5979    0.8794 C   0  0  0  0  0  0  0  0  0  0  0  0
    3.5746   -0.6213   -1.5964 C   0  0  0  0  0  0  0  0  0  0  0  0
   -1.8685    1.5784   -0.3601 C   0  0  0  0  0  0  0  0  0  0  0  0
    4.8101   -1.5226    0.9474 C   0  0  0  0  0  0  0  0  0  0  0  0
   -3.0986    0.9260    0.2165 C   0  0  0  0  0  0  0  0  0  0  0  0
    5.3205   -1.9579    2.0928 C   0  0  0  0  0  0  0  0  0  0  0  0
   -3.4144   -0.4800   -0.0572 C   0  0  0  0  0  0  0  0  0  0  0  0
   -2.6281   -1.2726   -0.8375 C   0  0  0  0  0  0  0  0  0  0  0  0
   -4.6034   -2.2824    0.1012 C   0  0  0  0  0  0  0  0  0  0  0  0
    2.4980    2.3734    1.1166 H   0  0  0  0  0  0  0  0  0  0  0  0
    0.4933    3.1043   -0.0250 H   0  0  0  0  0  0  0  0  0  0  0  0
   -0.8733    0.9711    1.3436 H   0  0  0  0  0  0  0  0  0  0  0  0
    3.0840   -1.0924    2.9193 H   0  0  0  0  0  0  0  0  0  0  0  0
    3.8512    0.5106    2.7394 H   0  0  0  0  0  0  0  0  0  0  0  0
    5.2376   -1.8905    0.0195 H   0  0  0  0  0  0  0  0  0  0  0  0
    6.1496   -2.6607    2.0542 H   0  0  0  0  0  0  0  0  0  0  0  0
    5.0223   -1.6702    3.0916 H   0  0  0  0  0  0  0  0  0  0  0  0
    3.0668   -2.0384   -2.8233 H   0  0  0  0  0  0  0  0  0  0  0  0
   -1.7078   -1.0496   -1.3587 H   0  0  0  0  0  0  0  0  0  0  0  0
   -4.1772    3.2924    1.7004 H   0  0  0  0  0  0  0  0  0  0  0  0
   -6.3640   -2.8585    1.0491 H   0  0  0  0  0  0  0  0  0  0  0  0
   -5.6049   -4.1064    0.1313 H   0  0  0  0  0  0  0  0  0  0  0  0
  1 13  1  0  0  0  0
  1 17  1  0  0  0  0
  2 25  1  0  0  0  0
  2 26  1  0  0  0  0
  3 15  2  0  0  0  0
  4 19  1  0  0  0  0
  4 35  1  0  0  0  0
  5 19  2  0  0  0  0
  6 20  2  0  0  0  0
  7 10  1  0  0  0  0
  7 37  1  0  0  0  0
  8 13  1  0  0  0  0
  8 15  1  0  0  0  0
  8 16  1  0  0  0  0
  9 14  1  0  0  0  0
  9 20  1  0  0  0  0
  9 29  1  0  0  0  0
 10 22  2  0  0  0  0
 11 24  1  0  0  0  0
 11 26  2  0  0  0  0
 12 26  1  0  0  0  0
 12 38  1  0  0  0  0
 12 39  1  0  0  0  0
 13 14  1  0  0  0  0
 13 27  1  0  0  0  0
 14 15  1  0  0  0  0
 14 28  1  0  0  0  0
 16 18  2  0  0  0  0
 16 19  1  0  0  0  0
 17 18  1  0  0  0  0
 17 30  1  0  0  0  0
 17 31  1  0  0  0  0
 18 21  1  0  0  0  0
 20 22  1  0  0  0  0
 21 23  2  0  0  0  0
 21 32  1  0  0  0  0
 22 24  1  0  0  0  0
 23 33  1  0  0  0  0
 23 34  1  0  0  0  0
 24 25  2  0  0  0  0
 25 36  1  0  0  0  0
M  END
> <PUBCHEM_COMPOUND_CID>
6915944

> <PUBCHEM_CONFORMER_RMSD>
0.8

> <PUBCHEM_CONFORMER_DIVERSEORDER>
1
10
56
11
57
29
33
48
32
14
46
42
4
35
54
24
8
55
51
53
18
34
52
37
3
21
9
49
44
15
28
41
5
12
36
20
38
47
7
30
2
13
45
23
39
50
22
6
40
25
26
16
43
17
31
19
27

> <PUBCHEM_MMFF94_PARTIAL_CHARGES>
35
1 -0.45
10 -0.51
11 -0.57
12 -0.88
13 0.44
14 0.28
15 0.58
16 0.12
17 0.37
18 -0.14
19 0.71
2 -0.08
20 0.63
21 -0.15
22 0.54
23 -0.3
24 0.14
25 -0.11
26 0.46
29 0.37
3 -0.57
32 0.15
33 0.15
34 0.15
35 0.5
36 0.15
37 0.4
38 0.4
39 0.4
4 -0.65
5 -0.57
6 -0.57
7 -0.34
8 -0.39
9 -0.65

> <PUBCHEM_EFFECTIVE_ROTOR_COUNT>
6.6

> <PUBCHEM_PHARMACOPHORE_FEATURES>
14
1 10 acceptor
1 12 donor
1 23 hydrophobe
1 3 acceptor
1 4 acceptor
1 5 acceptor
1 6 acceptor
1 7 anion
1 9 donor
3 11 12 26 cation
3 4 5 19 anion
4 8 13 14 15 rings
5 2 11 24 25 26 rings
6 1 8 13 16 17 18 rings

> <PUBCHEM_HEAVY_ATOM_COUNT>
26

> <PUBCHEM_ATOM_DEF_STEREO_COUNT>
2

> <PUBCHEM_ATOM_UDEF_STEREO_COUNT>
0

> <PUBCHEM_BOND_DEF_STEREO_COUNT>
1

> <PUBCHEM_BOND_UDEF_STEREO_COUNT>
0

> <PUBCHEM_ISOTOPIC_ATOM_COUNT>
0

> <PUBCHEM_COMPONENT_COUNT>
1

> <PUBCHEM_CACTVS_TAUTO_COUNT>
8

> <PUBCHEM_CONFORMER_ID>
0069876800000001

> <PUBCHEM_MMFF94_ENERGY>
69.437

> <PUBCHEM_FEATURE_SELFOVERLAP>
71.356

> <PUBCHEM_SHAPE_FINGERPRINT>
10042902 136 18200881768075834130
10928967 22 18273216382898468987
11720765 8 13324091379861862584
11796584 16 18409444829696529485
12633257 1 16806173129366882739
13583140 156 16877952637062253809
14178342 30 18262521506134649947
14251751 18 18408610257421582810
14848178 5 18200892715472633306
15163728 17 9367065618372673680
15537594 2 18131055044232929417
1813 80 18058453102161690245
20403669 9 18335984177618399655
20600515 1 18187933953380665216
20626108 58 18273219698802449300
21033648 29 17022904579124723514
23503958 8 18409171017257895369
235170 7 13830123996936934769
23559900 14 18186796946725090469
23598288 3 17559952298229011589
238 59 14692584199077245250
3052486 1 18411982481428144406
508706 21 18260266386717738999
5104073 3 18260265218560507401
602551 16 18335144232349291282
633830 44 15913041079501611732
6371380 46 17320694294178643848
6823239 73 17894899725148289806
7970288 3 18201163148410731931

> <PUBCHEM_SHAPE_MULTIPOLES>
488.52
11.49
3.11
2.16
2.69
0.58
-0.27
9.37
2.78
4.06
0.21
-3.03
0.1
-0.97

> <PUBCHEM_SHAPE_SELFOVERLAP>
1026.585

> <PUBCHEM_SHAPE_VOLUME>
277.5

> <PUBCHEM_COORDINATE_TYPE>
2
5
10

$$$$

