440324
  -OEChem-07051212493D

 21 20  0     1  0  0  0  0  0999 V2000
    1.9767   -1.2891   -0.9798 S   0  0  0  0  0  0  0  0  0  0  0  0
   -2.2946   -0.4139    0.0274 P   0  0  0  0  0  0  0  0  0  0  0  0
   -0.9964    0.1555   -0.7521 O   0  0  0  0  0  0  0  0  0  0  0  0
    1.6980    2.4765   -0.0079 O   0  0  0  0  0  0  0  0  0  0  0  0
   -3.2873    0.8604    0.1030 O   0  0  0  0  0  0  0  0  0  0  0  0
   -1.7637   -0.5624    1.5477 O   0  0  0  0  0  0  0  0  0  0  0  0
    2.2114    0.1218    1.2349 O   0  0  0  0  0  0  0  0  0  0  0  0
   -2.8921   -1.6591   -0.5597 O   0  0  0  0  0  0  0  0  0  0  0  0
    1.1167    1.3069   -0.5720 C   0  0  2  0  0  0  0  0  0  0  0  0
   -0.3735    1.3314   -0.2574 C   0  0  0  0  0  0  0  0  0  0  0  0
    1.8001    0.1148    0.0801 C   0  0  0  0  0  0  0  0  0  0  0  0
    2.8047   -2.4428    0.1357 C   0  0  0  0  0  0  0  0  0  0  0  0
    1.3058    1.3093   -1.6507 H   0  0  0  0  0  0  0  0  0  0  0  0
   -0.5282    1.4360    0.8225 H   0  0  0  0  0  0  0  0  0  0  0  0
   -0.8451    2.2008   -0.7287 H   0  0  0  0  0  0  0  0  0  0  0  0
    1.3233    3.2434   -0.4741 H   0  0  0  0  0  0  0  0  0  0  0  0
    3.7661   -2.0371    0.4620 H   0  0  0  0  0  0  0  0  0  0  0  0
    2.9851   -3.3853   -0.3881 H   0  0  0  0  0  0  0  0  0  0  0  0
    2.1795   -2.6454    1.0096 H   0  0  0  0  0  0  0  0  0  0  0  0
   -4.1841    0.7414    0.4822 H   0  0  0  0  0  0  0  0  0  0  0  0
   -2.3467   -0.9827    2.2150 H   0  0  0  0  0  0  0  0  0  0  0  0
  1 11  1  0  0  0  0
  1 12  1  0  0  0  0
  2  3  1  0  0  0  0
  2  5  1  0  0  0  0
  2  6  1  0  0  0  0
  2  8  2  0  0  0  0
  3 10  1  0  0  0  0
  4  9  1  0  0  0  0
  4 16  1  0  0  0  0
  5 20  1  0  0  0  0
  6 21  1  0  0  0  0
  7 11  2  0  0  0  0
  9 10  1  0  0  0  0
  9 11  1  0  0  0  0
  9 13  1  0  0  0  0
 10 14  1  0  0  0  0
 10 15  1  0  0  0  0
 12 17  1  0  0  0  0
 12 18  1  0  0  0  0
 12 19  1  0  0  0  0
M  END
> <PUBCHEM_COMPOUND_CID>
440324

> <PUBCHEM_CONFORMER_RMSD>
0.6

> <PUBCHEM_CONFORMER_DIVERSEORDER>
2
28
39
110
112
19
100
108
49
113
90
10
102
45
11
52
72
99
73
17
35
59
43
21
54
94
111
48
75
25
77
92
5
31
106
107
29
82
6
66
41
50
64
109
23
55
62
91
97
14
63
85
101
46
47
4
86
60
83
24
68
32
65
93
30
16
76
88
36
71
104
27
79
98
84
81
78
8
67
61
9
103
51
87
57
44
3
105
26
20
96
89
37
74
22
13
33
38
34
70
69
56
80
7
95
58
40
18
1
42
15
12
53

> <PUBCHEM_MMFF94_PARTIAL_CHARGES>
15
1 -0.37
10 0.28
11 0.65
12 0.23
16 0.4
2 1.51
20 0.5
21 0.5
3 -0.55
4 -0.68
5 -0.77
6 -0.77
7 -0.57
8 -0.7
9 0.34

> <PUBCHEM_EFFECTIVE_ROTOR_COUNT>
5

> <PUBCHEM_PHARMACOPHORE_FEATURES>
7
1 12 hydrophobe
1 4 acceptor
1 4 donor
1 5 acceptor
1 6 acceptor
1 8 acceptor
4 2 5 6 8 anion

> <PUBCHEM_HEAVY_ATOM_COUNT>
12

> <PUBCHEM_ATOM_DEF_STEREO_COUNT>
1

> <PUBCHEM_ATOM_UDEF_STEREO_COUNT>
0

> <PUBCHEM_BOND_DEF_STEREO_COUNT>
0

> <PUBCHEM_BOND_UDEF_STEREO_COUNT>
0

> <PUBCHEM_ISOTOPIC_ATOM_COUNT>
0

> <PUBCHEM_COMPONENT_COUNT>
1

> <PUBCHEM_CACTVS_TAUTO_COUNT>
1

> <PUBCHEM_CONFORMER_ID>
0006B80400000002

> <PUBCHEM_MMFF94_ENERGY>
-17.192

> <PUBCHEM_FEATURE_SELFOVERLAP>
35.556

> <PUBCHEM_SHAPE_FINGERPRINT>
12932764 1 18190442905796981021
17990270 104 18413108338078878214
18342897 137 18340766039612797445
18511873 20 18265608960961658049
19766037 51 18057583533934091254
20201158 50 18272092677492482522
20281407 28 18263922314414504590
20645477 70 18198635349898355639
20711978 78 18339370677447063108
20711983 138 18270111464955513331
20711985 344 17701261570847171012
20711985 365 18123748922346807948
20871998 22 18339927120704170780
21061003 4 16880775225698777522
230 275 4678824934350611260
23552423 10 18339073800796529301

> <PUBCHEM_SHAPE_MULTIPOLES>
219.44
4.86
2.32
1.05
2.1
0.23
-0.23
-2.45
-0.28
-1.39
0.19
-0.09
-0.18
0.03

> <PUBCHEM_SHAPE_SELFOVERLAP>
390.16

> <PUBCHEM_SHAPE_VOLUME>
143.7

> <PUBCHEM_COORDINATE_TYPE>
2
5
10

$$$$

