5318913
  -OEChem-07051213113D

 23 22  0     0  0  0  0  0  0999 V2000
    5.3086   -0.9941    0.8151 O   0  0  0  0  0  0  0  0  0  0  0  0
   -4.6196   -0.7496    0.5052 C   0  0  0  0  0  0  0  0  0  0  0  0
   -4.0804    0.6523    0.2219 C   0  0  0  0  0  0  0  0  0  0  0  0
   -4.3145   -1.7417   -0.6093 C   0  0  0  0  0  0  0  0  0  0  0  0
   -2.6147    0.6749    0.1171 C   0  0  0  0  0  0  0  0  0  0  0  0
    4.7819   -0.3864   -0.3562 C   0  0  0  0  0  0  0  0  0  0  0  0
    3.2909   -0.3652   -0.2574 C   0  0  0  0  0  0  0  0  0  0  0  0
   -1.4173    0.6959    0.0318 C   0  0  0  0  0  0  0  0  0  0  0  0
    2.5654    0.7612   -0.2516 C   0  0  0  0  0  0  0  0  0  0  0  0
    1.1486    0.7351   -0.1509 C   0  0  0  0  0  0  0  0  0  0  0  0
   -0.0490    0.7176   -0.0659 C   0  0  0  0  0  0  0  0  0  0  0  0
   -4.2036   -1.1300    1.4462 H   0  0  0  0  0  0  0  0  0  0  0  0
   -5.7064   -0.6896    0.6368 H   0  0  0  0  0  0  0  0  0  0  0  0
   -4.3958    1.3241    1.0288 H   0  0  0  0  0  0  0  0  0  0  0  0
   -4.5230    1.0389   -0.7035 H   0  0  0  0  0  0  0  0  0  0  0  0
   -3.2392   -1.9150   -0.7144 H   0  0  0  0  0  0  0  0  0  0  0  0
   -4.7032   -1.3853   -1.5686 H   0  0  0  0  0  0  0  0  0  0  0  0
   -4.7856   -2.7056   -0.3915 H   0  0  0  0  0  0  0  0  0  0  0  0
    5.2155    0.6136   -0.4573 H   0  0  0  0  0  0  0  0  0  0  0  0
    5.0902   -0.9819   -1.2205 H   0  0  0  0  0  0  0  0  0  0  0  0
    2.7944   -1.3309   -0.1871 H   0  0  0  0  0  0  0  0  0  0  0  0
    3.0509    1.7292   -0.3212 H   0  0  0  0  0  0  0  0  0  0  0  0
    5.0729   -0.4303    1.5720 H   0  0  0  0  0  0  0  0  0  0  0  0
  1  6  1  0  0  0  0
  1 23  1  0  0  0  0
  2  3  1  0  0  0  0
  2  4  1  0  0  0  0
  2 12  1  0  0  0  0
  2 13  1  0  0  0  0
  3  5  1  0  0  0  0
  3 14  1  0  0  0  0
  3 15  1  0  0  0  0
  4 16  1  0  0  0  0
  4 17  1  0  0  0  0
  4 18  1  0  0  0  0
  5  8  3  0  0  0  0
  6  7  1  0  0  0  0
  6 19  1  0  0  0  0
  6 20  1  0  0  0  0
  7  9  2  0  0  0  0
  7 21  1  0  0  0  0
  8 11  1  0  0  0  0
  9 10  1  0  0  0  0
  9 22  1  0  0  0  0
 10 11  3  0  0  0  0
M  END
> <PUBCHEM_COMPOUND_CID>
5318913

> <PUBCHEM_CONFORMER_RMSD>
0.4

> <PUBCHEM_CONFORMER_DIVERSEORDER>
3
2
9
6
8
1
4
5
7

> <PUBCHEM_MMFF94_PARTIAL_CHARGES>
10
1 -0.68
10 -0.06
21 0.15
22 0.15
23 0.4
3 0.2
5 -0.2
6 0.42
7 -0.29
9 -0.09

> <PUBCHEM_EFFECTIVE_ROTOR_COUNT>
2

> <PUBCHEM_PHARMACOPHORE_FEATURES>
3
1 1 acceptor
1 1 donor
1 4 hydrophobe

> <PUBCHEM_HEAVY_ATOM_COUNT>
11

> <PUBCHEM_ATOM_DEF_STEREO_COUNT>
0

> <PUBCHEM_ATOM_UDEF_STEREO_COUNT>
0

> <PUBCHEM_BOND_DEF_STEREO_COUNT>
1

> <PUBCHEM_BOND_UDEF_STEREO_COUNT>
0

> <PUBCHEM_ISOTOPIC_ATOM_COUNT>
0

> <PUBCHEM_COMPONENT_COUNT>
1

> <PUBCHEM_CACTVS_TAUTO_COUNT>
1

> <PUBCHEM_CONFORMER_ID>
0051290100000003

> <PUBCHEM_MMFF94_ENERGY>
-0.1871

> <PUBCHEM_FEATURE_SELFOVERLAP>
15.223

> <PUBCHEM_SHAPE_FINGERPRINT>
100836 57 8574712416307235306
10912923 1 18411409618658503456
11987891 38 18409443700162257127
12670543 26 11815903392292084696
13167823 11 18412262826469389679
13675066 3 16950279641455787380
13690532 89 18273213101505809816
13897977 58 9367348137385068203
14123238 8 18410571786571437236
14123255 352 8214151733148651091
14251732 16 18262241006743535920
14252887 29 16805594902457142588
15501527 16 10159702404370222415
17834072 33 18412258407359687404
17834076 25 12967129415393040509
18186145 218 15410891817262808973
18342897 14 6771861870587050746
20432913 95 18113610205336261467
20645477 70 14333137411418590696
20767249 213 7637405116823189059
20828058 44 18113897165328886109
21119208 17 14261345860518389272
212847 35 8646768877127905582
22485316 2 18411418427340755501
23402539 116 17704074018548710653
23590187 198 18410009965819933290
23596394 208 14476690761979389066
26918003 58 17822009822135454049
351380 3 18272369763334506691
42 15 18260827107161042580
449060 50 5617538488502107320
49783359 22 18041000635155152239

> <PUBCHEM_SHAPE_MULTIPOLES>
220.51
12.46
1.31
0.74
4.9
0.41
-0.02
5.75
-1.2
-1.01
0.09
0.09
0.12
-0.61

> <PUBCHEM_SHAPE_SELFOVERLAP>
412.475

> <PUBCHEM_SHAPE_VOLUME>
135.7

> <PUBCHEM_COORDINATE_TYPE>
2
5
10

$$$$

