442373
  -OEChem-07051212583D

 39 40  0     1  0  0  0  0  0999 V2000
    1.5867   -2.0684   -1.7985 O   0  0  0  0  0  0  0  0  0  0  0  0
   -1.3409   -2.4962    1.0819 O   0  0  0  0  0  0  0  0  0  0  0  0
    1.6017    0.9630   -0.0331 C   0  0  1  0  0  0  0  0  0  0  0  0
   -0.2780   -0.3579   -0.6382 C   0  0  2  0  0  0  0  0  0  0  0  0
    1.0149    0.2091   -1.2484 C   0  0  2  0  0  0  0  0  0  0  0  0
   -1.2970    0.8081   -0.5368 C   0  0  2  0  0  0  0  0  0  0  0  0
    0.7476    2.2496    0.1575 C   0  0  0  0  0  0  0  0  0  0  0  0
   -0.7615    1.9732    0.3348 C   0  0  0  0  0  0  0  0  0  0  0  0
    1.2974   -0.0336    1.0832 C   0  0  0  0  0  0  0  0  0  0  0  0
    0.2386   -0.7783    0.7189 C   0  0  0  0  0  0  0  0  0  0  0  0
   -2.6625    0.3429   -0.0302 C   0  0  0  0  0  0  0  0  0  0  0  0
    3.0793    1.3170   -0.2045 C   0  0  0  0  0  0  0  0  0  0  0  0
    1.8972   -0.8819   -1.8007 C   0  0  0  0  0  0  0  0  0  0  0  0
    2.0801   -0.0578    2.3491 C   0  0  0  0  0  0  0  0  0  0  0  0
   -3.6619    1.4963   -0.0504 C   0  0  0  0  0  0  0  0  0  0  0  0
   -3.1733   -0.8271   -0.8670 C   0  0  0  0  0  0  0  0  0  0  0  0
   -0.3684   -1.8580    1.4824 C   0  0  0  0  0  0  0  0  0  0  0  0
   -0.6405   -1.1956   -1.2375 H   0  0  0  0  0  0  0  0  0  0  0  0
    0.8112    0.8806   -2.0925 H   0  0  0  0  0  0  0  0  0  0  0  0
   -1.4302    1.2048   -1.5545 H   0  0  0  0  0  0  0  0  0  0  0  0
    0.8792    2.8972   -0.7197 H   0  0  0  0  0  0  0  0  0  0  0  0
    1.1053    2.8233    1.0220 H   0  0  0  0  0  0  0  0  0  0  0  0
   -0.9482    1.7596    1.3959 H   0  0  0  0  0  0  0  0  0  0  0  0
   -1.3049    2.8990    0.1115 H   0  0  0  0  0  0  0  0  0  0  0  0
   -2.5839    0.0011    1.0091 H   0  0  0  0  0  0  0  0  0  0  0  0
    3.7170    0.4270   -0.2346 H   0  0  0  0  0  0  0  0  0  0  0  0
    3.2423    1.8825   -1.1286 H   0  0  0  0  0  0  0  0  0  0  0  0
    3.4332    1.9367    0.6275 H   0  0  0  0  0  0  0  0  0  0  0  0
    2.8460   -0.5523   -2.2564 H   0  0  0  0  0  0  0  0  0  0  0  0
    3.1082   -0.3797    2.1571 H   0  0  0  0  0  0  0  0  0  0  0  0
    1.6568   -0.7321    3.0974 H   0  0  0  0  0  0  0  0  0  0  0  0
    2.1080    0.9420    2.7943 H   0  0  0  0  0  0  0  0  0  0  0  0
   -3.7235    1.9575   -1.0421 H   0  0  0  0  0  0  0  0  0  0  0  0
   -4.6649    1.1415    0.2125 H   0  0  0  0  0  0  0  0  0  0  0  0
   -3.4057    2.2729    0.6765 H   0  0  0  0  0  0  0  0  0  0  0  0
   -3.2092   -0.5627   -1.9301 H   0  0  0  0  0  0  0  0  0  0  0  0
   -4.1945   -1.0883   -0.5652 H   0  0  0  0  0  0  0  0  0  0  0  0
   -2.5890   -1.7406   -0.7705 H   0  0  0  0  0  0  0  0  0  0  0  0
    0.0896   -2.0911    2.4551 H   0  0  0  0  0  0  0  0  0  0  0  0
  1 13  2  0  0  0  0
  2 17  2  0  0  0  0
  3  5  1  0  0  0  0
  3  7  1  0  0  0  0
  3  9  1  0  0  0  0
  3 12  1  0  0  0  0
  4  5  1  0  0  0  0
  4  6  1  0  0  0  0
  4 10  1  0  0  0  0
  4 18  1  0  0  0  0
  5 13  1  0  0  0  0
  5 19  1  0  0  0  0
  6  8  1  0  0  0  0
  6 11  1  0  0  0  0
  6 20  1  0  0  0  0
  7  8  1  0  0  0  0
  7 21  1  0  0  0  0
  7 22  1  0  0  0  0
  8 23  1  0  0  0  0
  8 24  1  0  0  0  0
  9 10  2  0  0  0  0
  9 14  1  0  0  0  0
 10 17  1  0  0  0  0
 11 15  1  0  0  0  0
 11 16  1  0  0  0  0
 11 25  1  0  0  0  0
 12 26  1  0  0  0  0
 12 27  1  0  0  0  0
 12 28  1  0  0  0  0
 13 29  1  0  0  0  0
 14 30  1  0  0  0  0
 14 31  1  0  0  0  0
 14 32  1  0  0  0  0
 15 33  1  0  0  0  0
 15 34  1  0  0  0  0
 15 35  1  0  0  0  0
 16 36  1  0  0  0  0
 16 37  1  0  0  0  0
 16 38  1  0  0  0  0
 17 39  1  0  0  0  0
M  END
> <PUBCHEM_COMPOUND_CID>
442373

> <PUBCHEM_CONFORMER_RMSD>
0.6

> <PUBCHEM_CONFORMER_DIVERSEORDER>
1
9
5
22
3
14
11
10
13
15
18
8
17
20
4
21
2
6
19
12
16
7

> <PUBCHEM_MMFF94_PARTIAL_CHARGES>
12
1 -0.57
10 -0.12
13 0.45
14 0.14
17 0.5
2 -0.57
29 0.06
3 0.14
39 0.06
4 0.14
5 0.06
9 -0.28

> <PUBCHEM_EFFECTIVE_ROTOR_COUNT>
3.8

> <PUBCHEM_PHARMACOPHORE_FEATURES>
4
1 1 acceptor
1 2 acceptor
3 11 15 16 hydrophobe
8 3 4 5 6 7 8 9 10 rings

> <PUBCHEM_HEAVY_ATOM_COUNT>
17

> <PUBCHEM_ATOM_DEF_STEREO_COUNT>
0

> <PUBCHEM_ATOM_UDEF_STEREO_COUNT>
4

> <PUBCHEM_BOND_DEF_STEREO_COUNT>
0

> <PUBCHEM_BOND_UDEF_STEREO_COUNT>
0

> <PUBCHEM_ISOTOPIC_ATOM_COUNT>
0

> <PUBCHEM_COMPONENT_COUNT>
1

> <PUBCHEM_CACTVS_TAUTO_COUNT>
2

> <PUBCHEM_CONFORMER_ID>
0006C00500000001

> <PUBCHEM_MMFF94_ENERGY>
51.8046

> <PUBCHEM_FEATURE_SELFOVERLAP>
20.297

> <PUBCHEM_SHAPE_FINGERPRINT>
10863032 1 17986958453523798744
10948715 1 18338519625509175500
12138202 97 18200294529760119766
12423570 1 14449762760158187234
12491281 212 17895174615639896921
14142880 1 15158411717848296353
14181834 199 17202783590560113442
144361 1 18040428854706648692
14817 1 17554321424062072502
15219459 28 18267010679162389862
15775835 57 17989494004515038049
16945 1 17987536817830196984
18721546 61 18046922475811970158
20511035 2 17978240361107598472
21524375 3 17907587921313155349
22344851 341 17902791104526202792
22802520 49 18191562289884994719
23402539 116 18410580591191298604
23419403 2 17691915589004043906
23493267 7 18270111319232742520
23559900 14 18270666642030953102
2748010 2 17831855755130379412
276578 36 17561077020781512537
430814 3 14691131714221026814
528886 8 17968097478068361684
5337951 7 18338497712369389908
81228 2 17556275299353788291

> <PUBCHEM_SHAPE_MULTIPOLES>
338.11
4.23
2.29
1.76
2.97
0.32
0.11
-1.14
-0.43
0.29
0.29
-1.27
0.96
0.33

> <PUBCHEM_SHAPE_SELFOVERLAP>
710.204

> <PUBCHEM_SHAPE_VOLUME>
193.2

> <PUBCHEM_COORDINATE_TYPE>
2
5
10

$$$$

