241352
  -OEChem-07051213063D

 60 62  0     1  0  0  0  0  0999 V2000
   -8.2761    1.2228   -0.9109 Cl  0  0  0  0  0  0  0  0  0  0  0  0
   -2.2873    0.6152    1.8737 O   0  0  0  0  0  0  0  0  0  0  0  0
    3.9344    0.6913    1.4392 O   0  0  0  0  0  0  0  0  0  0  0  0
    6.9541    0.6451   -0.6739 N   0  0  0  0  0  0  0  0  0  0  0  0
   -1.6392    0.2172    0.6348 C   0  0  1  0  0  0  0  0  0  0  0  0
   -2.2662    1.1822   -0.4520 C   0  0  0  0  0  0  0  0  0  0  0  0
   -0.1686    0.3421    0.8476 C   0  0  0  0  0  0  0  0  0  0  0  0
   -2.0593   -1.2409    0.3014 C   0  0  0  0  0  0  0  0  0  0  0  0
   -3.7786    1.1932   -0.5683 C   0  0  0  0  0  0  0  0  0  0  0  0
    0.4544   -0.3857    1.8614 C   0  0  0  0  0  0  0  0  0  0  0  0
    0.5842    1.1872    0.0321 C   0  0  0  0  0  0  0  0  0  0  0  0
   -1.5404   -1.8754   -0.8272 C   0  0  0  0  0  0  0  0  0  0  0  0
   -2.9556   -1.9152    1.1304 C   0  0  0  0  0  0  0  0  0  0  0  0
    6.1089    0.3850    0.4910 C   0  0  0  0  0  0  0  0  0  0  0  0
    2.5828    0.5766    1.2444 C   0  0  0  0  0  0  0  0  0  0  0  0
    1.8301   -0.2686    2.0598 C   0  0  0  0  0  0  0  0  0  0  0  0
    1.9598    1.3045    0.2306 C   0  0  0  0  0  0  0  0  0  0  0  0
    4.7247    0.9821    0.2939 C   0  0  0  0  0  0  0  0  0  0  0  0
   -4.5304    2.0841    0.1977 C   0  0  0  0  0  0  0  0  0  0  0  0
   -4.4177    0.3112   -1.4397 C   0  0  0  0  0  0  0  0  0  0  0  0
    6.6229   -0.2751   -1.7612 C   0  0  0  0  0  0  0  0  0  0  0  0
    8.3673    0.5268   -0.3168 C   0  0  0  0  0  0  0  0  0  0  0  0
   -1.9180   -3.1844   -1.1269 C   0  0  0  0  0  0  0  0  0  0  0  0
   -3.3331   -3.2242    0.8309 C   0  0  0  0  0  0  0  0  0  0  0  0
   -2.8143   -3.8588   -0.2979 C   0  0  0  0  0  0  0  0  0  0  0  0
   -5.9212    2.0931    0.0921 C   0  0  0  0  0  0  0  0  0  0  0  0
   -5.8084    0.3201   -1.5453 C   0  0  0  0  0  0  0  0  0  0  0  0
    7.4492    0.0204   -3.0014 C   0  0  0  0  0  0  0  0  0  0  0  0
    8.7020   -0.8830    0.1399 C   0  0  0  0  0  0  0  0  0  0  0  0
   -6.5602    1.2111   -0.7794 C   0  0  0  0  0  0  0  0  0  0  0  0
   -1.8511    0.9661   -1.4462 H   0  0  0  0  0  0  0  0  0  0  0  0
   -1.9702    2.2169   -0.2248 H   0  0  0  0  0  0  0  0  0  0  0  0
   -0.1147   -1.0461    2.5104 H   0  0  0  0  0  0  0  0  0  0  0  0
    0.1517    1.7730   -0.7713 H   0  0  0  0  0  0  0  0  0  0  0  0
   -1.9271    1.4801    2.1361 H   0  0  0  0  0  0  0  0  0  0  0  0
   -0.8432   -1.3651   -1.4859 H   0  0  0  0  0  0  0  0  0  0  0  0
   -3.3835   -1.4562    2.0162 H   0  0  0  0  0  0  0  0  0  0  0  0
    6.5312    0.8481    1.3934 H   0  0  0  0  0  0  0  0  0  0  0  0
    6.0121   -0.6844    0.7203 H   0  0  0  0  0  0  0  0  0  0  0  0
    2.3102   -0.8373    2.8514 H   0  0  0  0  0  0  0  0  0  0  0  0
    2.5040    1.9938   -0.4082 H   0  0  0  0  0  0  0  0  0  0  0  0
    4.7952    2.0703    0.1761 H   0  0  0  0  0  0  0  0  0  0  0  0
    4.2665    0.5520   -0.6029 H   0  0  0  0  0  0  0  0  0  0  0  0
   -4.0457    2.7765    0.8808 H   0  0  0  0  0  0  0  0  0  0  0  0
   -3.8476   -0.3799   -2.0536 H   0  0  0  0  0  0  0  0  0  0  0  0
    5.5805   -0.1248   -2.0627 H   0  0  0  0  0  0  0  0  0  0  0  0
    6.6992   -1.3342   -1.4908 H   0  0  0  0  0  0  0  0  0  0  0  0
    8.5962    1.2303    0.4944 H   0  0  0  0  0  0  0  0  0  0  0  0
    9.0264    0.8350   -1.1352 H   0  0  0  0  0  0  0  0  0  0  0  0
   -1.5148   -3.6781   -2.0061 H   0  0  0  0  0  0  0  0  0  0  0  0
   -4.0318   -3.7495    1.4755 H   0  0  0  0  0  0  0  0  0  0  0  0
   -3.1087   -4.8777   -0.5314 H   0  0  0  0  0  0  0  0  0  0  0  0
   -6.4943    2.7928    0.6951 H   0  0  0  0  0  0  0  0  0  0  0  0
   -6.2925   -0.3709   -2.2306 H   0  0  0  0  0  0  0  0  0  0  0  0
    7.4414    1.0876   -3.2489 H   0  0  0  0  0  0  0  0  0  0  0  0
    8.4868   -0.3133   -2.9052 H   0  0  0  0  0  0  0  0  0  0  0  0
    7.0265   -0.5146   -3.8594 H   0  0  0  0  0  0  0  0  0  0  0  0
    8.1123   -1.2192    0.9971 H   0  0  0  0  0  0  0  0  0  0  0  0
    8.6293   -1.6270   -0.6580 H   0  0  0  0  0  0  0  0  0  0  0  0
    9.7481   -0.9012    0.4696 H   0  0  0  0  0  0  0  0  0  0  0  0
  1 30  1  0  0  0  0
  2  5  1  0  0  0  0
  2 35  1  0  0  0  0
  3 15  1  0  0  0  0
  3 18  1  0  0  0  0
  4 14  1  0  0  0  0
  4 21  1  0  0  0  0
  4 22  1  0  0  0  0
  5  6  1  0  0  0  0
  5  7  1  0  0  0  0
  5  8  1  0  0  0  0
  6  9  1  0  0  0  0
  6 31  1  0  0  0  0
  6 32  1  0  0  0  0
  7 10  2  0  0  0  0
  7 11  1  0  0  0  0
  8 12  2  0  0  0  0
  8 13  1  0  0  0  0
  9 19  2  0  0  0  0
  9 20  1  0  0  0  0
 10 16  1  0  0  0  0
 10 33  1  0  0  0  0
 11 17  2  0  0  0  0
 11 34  1  0  0  0  0
 12 23  1  0  0  0  0
 12 36  1  0  0  0  0
 13 24  2  0  0  0  0
 13 37  1  0  0  0  0
 14 18  1  0  0  0  0
 14 38  1  0  0  0  0
 14 39  1  0  0  0  0
 15 16  2  0  0  0  0
 15 17  1  0  0  0  0
 16 40  1  0  0  0  0
 17 41  1  0  0  0  0
 18 42  1  0  0  0  0
 18 43  1  0  0  0  0
 19 26  1  0  0  0  0
 19 44  1  0  0  0  0
 20 27  2  0  0  0  0
 20 45  1  0  0  0  0
 21 28  1  0  0  0  0
 21 46  1  0  0  0  0
 21 47  1  0  0  0  0
 22 29  1  0  0  0  0
 22 48  1  0  0  0  0
 22 49  1  0  0  0  0
 23 25  2  0  0  0  0
 23 50  1  0  0  0  0
 24 25  1  0  0  0  0
 24 51  1  0  0  0  0
 25 52  1  0  0  0  0
 26 30  2  0  0  0  0
 26 53  1  0  0  0  0
 27 30  1  0  0  0  0
 27 54  1  0  0  0  0
 28 55  1  0  0  0  0
 28 56  1  0  0  0  0
 28 57  1  0  0  0  0
 29 58  1  0  0  0  0
 29 59  1  0  0  0  0
 29 60  1  0  0  0  0
M  END
> <PUBCHEM_COMPOUND_CID>
241352

> <PUBCHEM_CONFORMER_RMSD>
1

> <PUBCHEM_CONFORMER_DIVERSEORDER>
1
112
97
165
141
23
40
134
60
3
158
123
115
184
80
130
94
38
151
16
154
98
72
106
159
61
26
177
148
91
124
2
187
10
95
109
83
56
81
96
160
181
156
102
46
101
127
185
55
180
34
174
51
182
152
76
168
119
59
54
133
45
58
140
15
28
157
118
39
150
99
188
52
31
87
131
179
79
65
37
86
170
132
14
77
88
6
138
32
128
120
105
167
126
162
24
186
73
173
114
155
110
107
13
68
57
175
147
104
149
153
144
164
135
70
161
178
169
53
7
35
92
9
67
63
93
103
143
163
44
146
19
8
69
27
84
41
74
50
71
4
137
64
25
121
125
172
36
20
11
122
78
12
75
108
113
29
136
85
66
48
18
43
145
47
111
90
33
189
100
17
117
176
49
142
139
5
62
183
22
89
82
190
42
30
166
129
21
171
116

> <PUBCHEM_MMFF94_PARTIAL_CHARGES>
42
1 -0.18
10 -0.15
11 -0.15
12 -0.15
13 -0.15
14 0.27
15 0.08
16 -0.15
17 -0.15
18 0.28
19 -0.15
2 -0.68
20 -0.15
21 0.27
22 0.27
23 -0.15
24 -0.15
25 -0.15
26 -0.15
27 -0.15
3 -0.36
30 0.18
33 0.15
34 0.15
35 0.4
36 0.15
37 0.15
4 -0.81
40 0.15
41 0.15
44 0.15
45 0.15
5 0.57
50 0.15
51 0.15
52 0.15
53 0.15
54 0.15
6 0.14
7 -0.14
8 -0.14
9 -0.14

> <PUBCHEM_EFFECTIVE_ROTOR_COUNT>
10

> <PUBCHEM_PHARMACOPHORE_FEATURES>
7
1 2 acceptor
1 2 donor
1 3 acceptor
1 4 cation
6 7 10 11 15 16 17 rings
6 8 12 13 23 24 25 rings
6 9 19 20 26 27 30 rings

> <PUBCHEM_HEAVY_ATOM_COUNT>
30

> <PUBCHEM_ATOM_DEF_STEREO_COUNT>
0

> <PUBCHEM_ATOM_UDEF_STEREO_COUNT>
1

> <PUBCHEM_BOND_DEF_STEREO_COUNT>
0

> <PUBCHEM_BOND_UDEF_STEREO_COUNT>
0

> <PUBCHEM_ISOTOPIC_ATOM_COUNT>
0

> <PUBCHEM_COMPONENT_COUNT>
1

> <PUBCHEM_CACTVS_TAUTO_COUNT>
1

> <PUBCHEM_CONFORMER_ID>
0003AEC800000001

> <PUBCHEM_MMFF94_ENERGY>
92.3563

> <PUBCHEM_FEATURE_SELFOVERLAP>
35.52

> <PUBCHEM_SHAPE_FINGERPRINT>
10 15 14261351375241034544
10119406 146 18407760339571339271
10369192 42 15051734205013276722
106641 1 13542459887034171505
10674148 151 17240207646892496105
10677351 14 18188208681643702676
11135609 187 18188207736043788407
11315181 36 17022903432737889800
11796584 16 18259985960224621154
12643181 29 18408044013992908650
13073987 5 8718561506017450504
13540713 4 17898866650973525897
13757389 114 18412831296189354133
13914758 101 15791726433890925193
15131766 46 15841261554847489764
15183329 4 18408326609760911408
15188451 53 6555410924926923504
15230672 131 18411141376940697242
15629462 23 16370718245498902195
1577012 14 17060341800064748200
15849732 13 17704355489525885677
16992610 120 18272364299856284612
18393751 57 13542462068244393336
18603816 31 17531545229850427358
19841028 212 15864066624704210844
20505436 4 17846789524296641707
20721686 146 16987171620413354453
21781055 127 18115029748247144289
22224240 67 13686295794476684961
23198884 109 18334580143960972337
23559900 14 18042135271310617392
23576562 1 18059296440370696917
249057 3 18411140220903157588
25269216 80 17916289564226190366
2747138 104 8934714547976433732
3610482 184 17775560932171995726
3663271 9 6916271724285874422
392239 28 9511457857318865958
4258327 124 17561359574227440381
484985 159 17749943367543695195
4874694 18 18040442088508352462
5265222 85 18336268924927146863
563151 40 18202565068442920971
6669772 16 18271812379980935179

> <PUBCHEM_SHAPE_MULTIPOLES>
602.54
23.05
2.86
1.9
38.67
3.67
0.49
-8.74
12.45
-5.59
0.21
2.21
0.16
0.7

> <PUBCHEM_SHAPE_SELFOVERLAP>
1265.885

> <PUBCHEM_SHAPE_VOLUME>
341.3

> <PUBCHEM_COORDINATE_TYPE>
2
5
10

$$$$

