46173882
  -OEChem-07051213103D

 49 50  0     1  0  0  0  0  0999 V2000
   -0.2217   -1.8157    2.1658 S   0  0  0  0  0  0  0  0  0  0  0  0
    3.9198   -1.7814   -0.9195 S   0  0  0  0  0  0  0  0  0  0  0  0
   -0.9911   -0.6636   -0.1205 O   0  0  0  0  0  0  0  0  0  0  0  0
   -4.9655   -1.6814    0.1526 O   0  0  0  0  0  0  0  0  0  0  0  0
   -3.9086   -0.7646   -2.3511 O   0  0  0  0  0  0  0  0  0  0  0  0
   -2.9997   -3.1930    1.6387 O   0  0  0  0  0  0  0  0  0  0  0  0
    0.1672    0.5079   -2.3086 O   0  0  0  0  0  0  0  0  0  0  0  0
    3.0893   -1.0237    0.2638 O   0  0  0  0  0  0  0  0  0  0  0  0
   -0.3069    4.7189   -0.5512 O   0  0  0  0  0  0  0  0  0  0  0  0
    5.1111   -0.7207   -1.2562 O   0  0  0  0  0  0  0  0  0  0  0  0
    3.0686   -1.8727   -2.0910 O   0  0  0  0  0  0  0  0  0  0  0  0
    4.5348   -2.9691   -0.3571 O   0  0  0  0  0  0  0  0  0  0  0  0
    1.9264   -1.7201    0.6003 N   0  0  0  0  0  0  0  0  0  0  0  0
   -3.2024   -0.6620   -1.1174 C   0  0  1  0  0  0  0  0  0  0  0  0
   -3.6021   -1.8497   -0.2411 C   0  0  1  0  0  0  0  0  0  0  0  0
   -1.6918   -0.6587   -1.3649 C   0  0  1  0  0  0  0  0  0  0  0  0
   -2.7246   -1.9413    1.0114 C   0  0  2  0  0  0  0  0  0  0  0  0
   -1.2400   -1.8411    0.6470 C   0  0  2  0  0  0  0  0  0  0  0  0
   -1.2360    0.5784   -2.1327 C   0  0  0  0  0  0  0  0  0  0  0  0
    1.2693   -1.1159    1.5401 C   0  0  0  0  0  0  0  0  0  0  0  0
    1.6675    0.1874    2.2068 C   0  0  0  0  0  0  0  0  0  0  0  0
    1.1415    1.3963    1.4713 C   0  0  0  0  0  0  0  0  0  0  0  0
    1.9050    1.9879    0.4649 C   0  0  0  0  0  0  0  0  0  0  0  0
   -0.1088    1.9215    1.7981 C   0  0  0  0  0  0  0  0  0  0  0  0
    1.4184    3.1046   -0.2146 C   0  0  0  0  0  0  0  0  0  0  0  0
   -0.5954    3.0382    1.1187 C   0  0  0  0  0  0  0  0  0  0  0  0
    0.1681    3.6298    0.1124 C   0  0  0  0  0  0  0  0  0  0  0  0
   -1.5925    5.2039   -0.1662 C   0  0  0  0  0  0  0  0  0  0  0  0
   -3.5644   -2.7850   -0.8125 H   0  0  0  0  0  0  0  0  0  0  0  0
   -3.5142    0.2734   -0.6369 H   0  0  0  0  0  0  0  0  0  0  0  0
   -1.3863   -1.5440   -1.9391 H   0  0  0  0  0  0  0  0  0  0  0  0
   -3.0125   -1.1470    1.7116 H   0  0  0  0  0  0  0  0  0  0  0  0
   -0.9172   -2.7196    0.0750 H   0  0  0  0  0  0  0  0  0  0  0  0
   -1.4605    1.4909   -1.5718 H   0  0  0  0  0  0  0  0  0  0  0  0
   -1.7116    0.6346   -3.1164 H   0  0  0  0  0  0  0  0  0  0  0  0
   -5.0320   -0.8593    0.6676 H   0  0  0  0  0  0  0  0  0  0  0  0
   -3.6077   -1.5711   -2.8034 H   0  0  0  0  0  0  0  0  0  0  0  0
   -2.7139   -3.9008    1.0362 H   0  0  0  0  0  0  0  0  0  0  0  0
    0.4376    1.3114   -2.7848 H   0  0  0  0  0  0  0  0  0  0  0  0
    1.3102    0.2064    3.2445 H   0  0  0  0  0  0  0  0  0  0  0  0
    2.7596    0.2461    2.2883 H   0  0  0  0  0  0  0  0  0  0  0  0
    2.8845    1.5989    0.2031 H   0  0  0  0  0  0  0  0  0  0  0  0
   -0.7133    1.4715    2.5810 H   0  0  0  0  0  0  0  0  0  0  0  0
    2.0180    3.5616   -0.9970 H   0  0  0  0  0  0  0  0  0  0  0  0
   -1.5741    3.3936    1.4224 H   0  0  0  0  0  0  0  0  0  0  0  0
   -2.3759    4.4630   -0.3591 H   0  0  0  0  0  0  0  0  0  0  0  0
   -1.5969    5.5522    0.8722 H   0  0  0  0  0  0  0  0  0  0  0  0
   -1.8121    6.0724   -0.7958 H   0  0  0  0  0  0  0  0  0  0  0  0
    5.7362   -0.9993   -1.9659 H   0  0  0  0  0  0  0  0  0  0  0  0
  1 18  1  0  0  0  0
  1 20  1  0  0  0  0
  2  8  1  0  0  0  0
  2 10  1  0  0  0  0
  2 11  2  0  0  0  0
  2 12  2  0  0  0  0
  3 16  1  0  0  0  0
  3 18  1  0  0  0  0
  4 15  1  0  0  0  0
  4 36  1  0  0  0  0
  5 14  1  0  0  0  0
  5 37  1  0  0  0  0
  6 17  1  0  0  0  0
  6 38  1  0  0  0  0
  7 19  1  0  0  0  0
  7 39  1  0  0  0  0
  8 13  1  0  0  0  0
  9 27  1  0  0  0  0
  9 28  1  0  0  0  0
 10 49  1  0  0  0  0
 13 20  2  0  0  0  0
 14 15  1  0  0  0  0
 14 16  1  0  0  0  0
 14 30  1  0  0  0  0
 15 17  1  0  0  0  0
 15 29  1  0  0  0  0
 16 19  1  0  0  0  0
 16 31  1  0  0  0  0
 17 18  1  0  0  0  0
 17 32  1  0  0  0  0
 18 33  1  0  0  0  0
 19 34  1  0  0  0  0
 19 35  1  0  0  0  0
 20 21  1  0  0  0  0
 21 22  1  0  0  0  0
 21 40  1  0  0  0  0
 21 41  1  0  0  0  0
 22 23  2  0  0  0  0
 22 24  1  0  0  0  0
 23 25  1  0  0  0  0
 23 42  1  0  0  0  0
 24 26  2  0  0  0  0
 24 43  1  0  0  0  0
 25 27  2  0  0  0  0
 25 44  1  0  0  0  0
 26 27  1  0  0  0  0
 26 45  1  0  0  0  0
 28 46  1  0  0  0  0
 28 47  1  0  0  0  0
 28 48  1  0  0  0  0
M  END
> <PUBCHEM_COMPOUND_CID>
46173882

> <PUBCHEM_CONFORMER_RMSD>
1

> <PUBCHEM_CONFORMER_DIVERSEORDER>
1
69
32
22
39
48
9
15
54
37
43
68
71
35
6
24
46
25
8
26
62
33
27
65
72
20
30
44
45
57
51
58
3
49
34
19
66
55
47
7
41
60
28
13
12
29
63
67
14
31
23
38
21
4
52
2
40
11
10
64
50
18
17
61
70
16
59
53
36
56
5
42

> <PUBCHEM_MMFF94_PARTIAL_CHARGES>
37
1 -0.37
10 -0.68
11 -0.65
12 -0.65
13 -0.51
14 0.28
15 0.28
16 0.28
17 0.28
18 0.51
19 0.28
2 1.67
20 0.53
21 0.2
22 -0.14
23 -0.15
24 -0.15
25 -0.15
26 -0.15
27 0.08
28 0.28
3 -0.56
36 0.4
37 0.4
38 0.4
39 0.4
4 -0.68
42 0.15
43 0.15
44 0.15
45 0.15
49 0.5
5 -0.68
6 -0.68
7 -0.68
8 -0.12
9 -0.36

> <PUBCHEM_EFFECTIVE_ROTOR_COUNT>
9.2

> <PUBCHEM_PHARMACOPHORE_FEATURES>
17
1 10 acceptor
1 11 acceptor
1 12 acceptor
1 13 acceptor
1 3 acceptor
1 4 acceptor
1 4 donor
1 5 acceptor
1 5 donor
1 6 acceptor
1 6 donor
1 7 acceptor
1 7 donor
1 9 acceptor
4 2 10 11 12 anion
6 22 23 24 25 26 27 rings
6 3 14 15 16 17 18 rings

> <PUBCHEM_HEAVY_ATOM_COUNT>
28

> <PUBCHEM_ATOM_DEF_STEREO_COUNT>
5

> <PUBCHEM_ATOM_UDEF_STEREO_COUNT>
0

> <PUBCHEM_BOND_DEF_STEREO_COUNT>
0

> <PUBCHEM_BOND_UDEF_STEREO_COUNT>
1

> <PUBCHEM_ISOTOPIC_ATOM_COUNT>
0

> <PUBCHEM_COMPONENT_COUNT>
1

> <PUBCHEM_CACTVS_TAUTO_COUNT>
1

> <PUBCHEM_CONFORMER_ID>
02C08EBA00000001

> <PUBCHEM_MMFF94_ENERGY>
72.9019

> <PUBCHEM_FEATURE_SELFOVERLAP>
86.343

> <PUBCHEM_SHAPE_FINGERPRINT>
10165383 225 16901014597308197769
11244481 83 18193272988170196567
12156800 1 17537675097206391869
12633257 1 17626982714777353337
12788726 201 18123199153863964367
128993 33 17188428066427330417
13681431 1 18263647273024120130
13911987 19 18124850410561769910
14251757 17 17703784778534899214
14840074 17 17822859655041211408
14932701 244 18343297085637303620
17357779 13 18187373146620555938
1813 80 17894898642553417086
20600515 1 17987541284754122228
21304303 282 17984140641471553042
21860390 5 18193012425594640573
23419403 2 17340367512310974362
23559900 14 18268432322360057343
238 59 17403500318868438719
26353 1 18334290963949627862
35225 105 17473780350496714542
437795 70 17970365912702010525
5081480 168 18334573516952560957
6287921 2 17550944789504250075
6786 2 16895934857692337678

> <PUBCHEM_SHAPE_MULTIPOLES>
520.25
6.71
5.63
2.34
0.5
8.82
-0.3
-8.15
-3.12
0.07
0.36
-0.11
-0.78
1.59

> <PUBCHEM_SHAPE_SELFOVERLAP>
1048.569

> <PUBCHEM_SHAPE_VOLUME>
306

> <PUBCHEM_COORDINATE_TYPE>
2
5
10

$$$$

