72319
  -OEChem-07051212582D

 59 62  0     1  0  0  0  0  0999 V2000
    7.2428    0.2981    0.0000 O   0  0  0  0  0  0  0  0  0  0  0  0
    5.9972    0.7147    0.0000 O   0  0  0  0  0  0  0  0  0  0  0  0
    5.0796   -0.7991    0.0000 O   0  0  0  0  0  0  0  0  0  0  0  0
    5.1486    2.2246    0.0000 O   0  0  0  0  0  0  0  0  0  0  0  0
    4.2537   -0.2652    0.0000 O   0  0  0  0  0  0  0  0  0  0  0  0
    2.5333    0.7547    0.0000 O   0  0  0  0  0  0  0  0  0  0  0  0
    2.5564    2.7546    0.0000 O   0  0  0  0  0  0  0  0  0  0  0  0
    7.5216    2.0582    0.0000 O   0  0  0  0  0  0  0  0  0  0  0  0
    5.1370   -3.8645    0.0000 O   0  0  0  0  0  0  0  0  0  0  0  0
   10.5042    0.9792    0.0000 O   0  0  0  0  0  0  0  0  0  0  0  0
    6.8689   -3.8445    0.0000 O   0  0  0  0  0  0  0  0  0  0  0  0
    3.4398    4.2445    0.0000 O   0  0  0  0  0  0  0  0  0  0  0  0
    6.8796   -0.8199    0.0000 C   0  0  2  0  0  0  0  0  0  0  0  0
    7.8306   -0.5109    0.0000 C   0  0  2  0  0  0  0  0  0  0  0  0
    6.8796   -1.8199    0.0000 C   0  0  2  0  0  0  0  0  0  0  0  0
    5.9856   -0.2853    0.0000 C   0  0  2  0  0  0  0  0  0  0  0  0
    8.4184   -1.3199    0.0000 C   0  0  0  0  0  0  0  0  0  0  0  0
    7.8306   -2.1289    0.0000 C   0  0  0  0  0  0  0  0  0  0  0  0
    8.7817   -0.2019    0.0000 C   0  0  0  0  0  0  0  0  0  0  0  0
    5.9856   -2.3546    0.0000 C   0  0  0  0  0  0  0  0  0  0  0  0
    5.1370    1.2246    0.0000 C   0  0  2  0  0  0  0  0  0  0  0  0
    4.2652    0.7347    0.0000 C   0  0  1  0  0  0  0  0  0  0  0  0
    8.7817    0.7981    0.0000 C   0  0  0  0  0  0  0  0  0  0  0  0
    3.4051    1.2447    0.0000 C   0  0  2  0  0  0  0  0  0  0  0  0
    5.0796   -1.8407    0.0000 C   0  0  0  0  0  0  0  0  0  0  0  0
    3.4166    2.2446    0.0000 C   0  0  1  0  0  0  0  0  0  0  0  0
    4.2884    2.7346    0.0000 C   0  0  1  0  0  0  0  0  0  0  0  0
    7.8306    1.1071    0.0000 C   0  0  0  0  0  0  0  0  0  0  0  0
    9.5907    1.3859    0.0000 C   0  0  2  0  0  0  0  0  0  0  0  0
    5.9972   -3.3545    0.0000 C   0  0  0  0  0  0  0  0  0  0  0  0
    4.2999    3.7345    0.0000 C   0  0  0  0  0  0  0  0  0  0  0  0
    9.4862    2.3804    0.0000 C   0  0  0  0  0  0  0  0  0  0  0  0
    5.1486   -4.8644    0.0000 C   0  0  0  0  0  0  0  0  0  0  0  0
    6.9749    0.0247    0.0000 H   0  0  0  0  0  0  0  0  0  0  0  0
    6.9749   -2.6646    0.0000 H   0  0  0  0  0  0  0  0  0  0  0  0
    5.4517    0.0299    0.0000 H   0  0  0  0  0  0  0  0  0  0  0  0
    9.0384   -1.3199    0.0000 H   0  0  0  0  0  0  0  0  0  0  0  0
    8.0222   -2.7186    0.0000 H   0  0  0  0  0  0  0  0  0  0  0  0
    9.2833   -0.5663    0.0000 H   0  0  0  0  0  0  0  0  0  0  0  0
    5.1298    0.6047    0.0000 H   0  0  0  0  0  0  0  0  0  0  0  0
    3.7248    0.4309    0.0000 H   0  0  0  0  0  0  0  0  0  0  0  0
    2.8718    1.5609    0.0000 H   0  0  0  0  0  0  0  0  0  0  0  0
    4.5438   -2.1528    0.0000 H   0  0  0  0  0  0  0  0  0  0  0  0
    2.8761    1.9408    0.0000 H   0  0  0  0  0  0  0  0  0  0  0  0
    4.8289    3.0383    0.0000 H   0  0  0  0  0  0  0  0  0  0  0  0
   10.0923    1.7503    0.0000 H   0  0  0  0  0  0  0  0  0  0  0  0
    4.9092    3.6198    0.0000 H   0  0  0  0  0  0  0  0  0  0  0  0
    4.5187    4.3146    0.0000 H   0  0  0  0  0  0  0  0  0  0  0  0
    3.7132   -0.5690    0.0000 H   0  0  0  0  0  0  0  0  0  0  0  0
    2.0000    1.0709    0.0000 H   0  0  0  0  0  0  0  0  0  0  0  0
   10.1028    2.4452    0.0000 H   0  0  0  0  0  0  0  0  0  0  0  0
    9.4214    2.9970    0.0000 H   0  0  0  0  0  0  0  0  0  0  0  0
    8.8696    2.3156    0.0000 H   0  0  0  0  0  0  0  0  0  0  0  0
    2.0160    2.4508    0.0000 H   0  0  0  0  0  0  0  0  0  0  0  0
   11.0058    1.3436    0.0000 H   0  0  0  0  0  0  0  0  0  0  0  0
    3.4469    4.8644    0.0000 H   0  0  0  0  0  0  0  0  0  0  0  0
    4.5286   -4.8716    0.0000 H   0  0  0  0  0  0  0  0  0  0  0  0
    5.1557   -5.4844    0.0000 H   0  0  0  0  0  0  0  0  0  0  0  0
    5.7685   -4.8573    0.0000 H   0  0  0  0  0  0  0  0  0  0  0  0
 14  1  1  1  0  0  0
  1 28  1  0  0  0  0
 16  2  1  1  0  0  0
 21  2  1  1  0  0  0
  3 16  1  0  0  0  0
  3 25  1  0  0  0  0
  4 21  1  0  0  0  0
  4 27  1  0  0  0  0
 22  5  1  6  0  0  0
  5 49  1  0  0  0  0
 24  6  1  1  0  0  0
  6 50  1  0  0  0  0
 26  7  1  6  0  0  0
  7 54  1  0  0  0  0
  8 28  2  0  0  0  0
  9 30  1  0  0  0  0
  9 33  1  0  0  0  0
 29 10  1  6  0  0  0
 10 55  1  0  0  0  0
 11 30  2  0  0  0  0
 12 31  1  0  0  0  0
 12 56  1  0  0  0  0
 13 14  1  0  0  0  0
 13 15  1  0  0  0  0
 13 16  1  0  0  0  0
 13 34  1  1  0  0  0
 14 17  1  0  0  0  0
 14 19  1  0  0  0  0
 15 18  1  0  0  0  0
 15 20  1  0  0  0  0
 15 35  1  1  0  0  0
 16 36  1  0  0  0  0
 17 18  2  0  0  0  0
 17 37  1  0  0  0  0
 18 38  1  0  0  0  0
 19 23  2  0  0  0  0
 19 39  1  0  0  0  0
 20 25  2  0  0  0  0
 20 30  1  0  0  0  0
 21 22  1  0  0  0  0
 21 40  1  0  0  0  0
 22 24  1  0  0  0  0
 22 41  1  0  0  0  0
 23 28  1  0  0  0  0
 23 29  1  0  0  0  0
 24 26  1  0  0  0  0
 24 42  1  0  0  0  0
 25 43  1  0  0  0  0
 26 27  1  0  0  0  0
 26 44  1  0  0  0  0
 27 31  1  1  0  0  0
 27 45  1  0  0  0  0
 29 32  1  0  0  0  0
 29 46  1  0  0  0  0
 31 47  1  0  0  0  0
 31 48  1  0  0  0  0
 32 51  1  0  0  0  0
 32 52  1  0  0  0  0
 32 53  1  0  0  0  0
 33 57  1  0  0  0  0
 33 58  1  0  0  0  0
 33 59  1  0  0  0  0
M  END
> <PUBCHEM_COMPOUND_CID>
72319

> <PUBCHEM_COMPOUND_CANONICALIZED>
1

> <PUBCHEM_CACTVS_COMPLEXITY>
896

> <PUBCHEM_CACTVS_HBOND_ACCEPTOR>
12

> <PUBCHEM_CACTVS_HBOND_DONOR>
5

> <PUBCHEM_CACTVS_ROTATABLE_BOND>
6

> <PUBCHEM_CACTVS_SUBSKEYS>
AAADceB4PAAAAAAAAAAAAAAAAAAAAQIAAAAkQAAAAAAAAEAAAAAAGgAACAAADVSwgAMCCAAABgCIAiDSCAAACAAgIAAICAEAAEgRFBYAIQAiUAAFoAAPMYPIbBxOgAAAAAAAAAAAAAAAAAAAAAAAAAAAAA==

> <PUBCHEM_IUPAC_OPENEYE_NAME>
methyl (1S,4aS,7R,7aS)-4'-[(1S)-1-hydroxyethyl]-5'-oxo-1-[(2S,3R,4S,5S,6R)-3,4,5-trihydroxy-6-(hydroxymethyl)tetrahydropyran-2-yl]oxy-spiro[4a,7a-dihydro-1H-cyclopenta[c]pyran-7,2'-furan]-4-carboxylate

> <PUBCHEM_IUPAC_CAS_NAME>
(1S,4aS,7R,7aS)-4'-[(1S)-1-hydroxyethyl]-5'-oxo-1-[[(2S,3R,4S,5S,6R)-3,4,5-trihydroxy-6-(hydroxymethyl)-2-oxanyl]oxy]-4-spiro[4a,7a-dihydro-1H-cyclopenta[c]pyran-7,2'-furan]carboxylic acid methyl ester

> <PUBCHEM_IUPAC_NAME>
methyl (1S,4aS,7R,7aS)-4'-[(1S)-1-hydroxyethyl]-5'-oxo-1-[(2S,3R,4S,5S,6R)-3,4,5-trihydroxy-6-(hydroxymethyl)oxan-2-yl]oxyspiro[4a,7a-dihydro-1H-cyclopenta[c]pyran-7,2'-furan]-4-carboxylate

> <PUBCHEM_IUPAC_SYSTEMATIC_NAME>
methyl (1S,4aS,7R,7aS)-1-[(2S,3R,4S,5S,6R)-6-(hydroxymethyl)-3,4,5-tris(oxidanyl)oxan-2-yl]oxy-4'-[(1S)-1-oxidanylethyl]-5'-oxidanylidene-spiro[4a,7a-dihydro-1H-cyclopenta[c]pyran-7,2'-furan]-4-carboxylate

> <PUBCHEM_IUPAC_TRADITIONAL_NAME>
(1S,4aS,7R,7aS)-4'-[(1S)-1-hydroxyethyl]-5'-keto-1-[(2S,3R,4S,5S,6R)-3,4,5-trihydroxy-6-methylol-tetrahydropyran-2-yl]oxy-spiro[4a,7a-dihydro-1H-cyclopenta[c]pyran-7,2'-furan]-4-carboxylic acid methyl ester

> <PUBCHEM_IUPAC_INCHI>
InChI=1S/C21H26O12/c1-8(23)10-5-21(33-18(10)28)4-3-9-11(17(27)29-2)7-30-19(13(9)21)32-20-16(26)15(25)14(24)12(6-22)31-20/h3-5,7-9,12-16,19-20,22-26H,6H2,1-2H3/t8-,9+,12+,13+,14+,15-,16+,19-,20-,21+/m0/s1

> <PUBCHEM_IUPAC_INCHIKEY>
AOPMSFXOYJXDNJ-IRFSQMTFSA-N

> <PUBCHEM_XLOGP3_AA>
-1.2

> <PUBCHEM_EXACT_MASS>
470.142426

> <PUBCHEM_MOLECULAR_FORMULA>
C21H26O12

> <PUBCHEM_MOLECULAR_WEIGHT>
470.42394

> <PUBCHEM_OPENEYE_CAN_SMILES>
CC(C1=CC2(C=CC3C2C(OC=C3C(=O)OC)OC4C(C(C(C(O4)CO)O)O)O)OC1=O)O

> <PUBCHEM_OPENEYE_ISO_SMILES>
C[C@@H](C1=C[C@@]2(C=C[C@H]3[C@@H]2[C@@H](OC=C3C(=O)OC)O[C@H]4[C@@H]([C@H]([C@@H]([C@H](O4)CO)O)O)O)OC1=O)O

> <PUBCHEM_CACTVS_TPSA>
181

> <PUBCHEM_MONOISOTOPIC_WEIGHT>
470.142426

> <PUBCHEM_TOTAL_CHARGE>
0

> <PUBCHEM_HEAVY_ATOM_COUNT>
33

> <PUBCHEM_ATOM_DEF_STEREO_COUNT>
10

> <PUBCHEM_ATOM_UDEF_STEREO_COUNT>
0

> <PUBCHEM_BOND_DEF_STEREO_COUNT>
0

> <PUBCHEM_BOND_UDEF_STEREO_COUNT>
0

> <PUBCHEM_ISOTOPIC_ATOM_COUNT>
0

> <PUBCHEM_COMPONENT_COUNT>
1

> <PUBCHEM_CACTVS_TAUTO_COUNT>
1

> <PUBCHEM_COORDINATE_TYPE>
1
5
255

> <PUBCHEM_BONDANNOTATIONS>
14  1  5
29  10  6
13  34  5
15  35  5
16  2  5
21  2  5
27  31  5
22  5  6
24  6  5
26  7  6

$$$$

