5281075
  -OEChem-07051212522D

 62 62  0     1  0  0  0  0  0999 V2000
    7.4820   -4.1407    0.0000 O   0  0  0  0  0  0  0  0  0  0  0  0
   10.3299   -2.0716    0.0000 O   0  0  0  0  0  0  0  0  0  0  0  0
   10.4358    0.7071    0.0000 O   0  0  0  0  0  0  0  0  0  0  0  0
    2.5896    1.1207    0.0000 O   0  0  0  0  0  0  0  0  0  0  0  0
    2.0544   -0.5266    0.0000 O   0  0  0  0  0  0  0  0  0  0  0  0
    7.7608   -2.3807    0.0000 C   0  0  2  0  0  0  0  0  0  0  0  0
    8.5698   -1.7929    0.0000 C   0  0  2  0  0  0  0  0  0  0  0  0
    8.0698   -3.3317    0.0000 C   0  0  2  0  0  0  0  0  0  0  0  0
    9.3788   -2.3807    0.0000 C   0  0  1  0  0  0  0  0  0  0  0  0
    9.0698   -3.3317    0.0000 C   0  0  0  0  0  0  0  0  0  0  0  0
    6.8097   -2.0716    0.0000 C   0  0  0  0  0  0  0  0  0  0  0  0
    8.5698   -0.7929    0.0000 C   0  0  0  0  0  0  0  0  0  0  0  0
    9.4358   -0.2929    0.0000 C   0  0  0  0  0  0  0  0  0  0  0  0
    6.0666   -2.7408    0.0000 C   0  0  0  0  0  0  0  0  0  0  0  0
    9.4358    0.7071    0.0000 C   0  0  2  0  0  0  0  0  0  0  0  0
    9.4358    1.7071    0.0000 C   0  0  0  0  0  0  0  0  0  0  0  0
    8.4358    0.7071    0.0000 C   0  0  0  0  0  0  0  0  0  0  0  0
    5.1155   -2.4318    0.0000 C   0  0  0  0  0  0  0  0  0  0  0  0
   10.3018    2.2071    0.0000 C   0  0  0  0  0  0  0  0  0  0  0  0
   10.3018    3.2071    0.0000 C   0  0  0  0  0  0  0  0  0  0  0  0
    4.9076   -1.4536    0.0000 C   0  0  0  0  0  0  0  0  0  0  0  0
   11.1679    3.7071    0.0000 C   0  0  0  0  0  0  0  0  0  0  0  0
    3.9565   -1.1446    0.0000 C   0  0  0  0  0  0  0  0  0  0  0  0
    3.7486   -0.1664    0.0000 C   0  0  0  0  0  0  0  0  0  0  0  0
   11.1679    4.7071    0.0000 C   0  0  0  0  0  0  0  0  0  0  0  0
    2.7976    0.1426    0.0000 C   0  0  0  0  0  0  0  0  0  0  0  0
    7.3224   -2.8191    0.0000 H   0  0  0  0  0  0  0  0  0  0  0  0
    9.1222   -1.5114    0.0000 H   0  0  0  0  0  0  0  0  0  0  0  0
    8.3512   -3.8841    0.0000 H   0  0  0  0  0  0  0  0  0  0  0  0
    9.4758   -1.7683    0.0000 H   0  0  0  0  0  0  0  0  0  0  0  0
    9.0050   -3.9483    0.0000 H   0  0  0  0  0  0  0  0  0  0  0  0
    9.6762   -3.4606    0.0000 H   0  0  0  0  0  0  0  0  0  0  0  0
    7.1008   -1.5242    0.0000 H   0  0  0  0  0  0  0  0  0  0  0  0
    6.3211   -1.6899    0.0000 H   0  0  0  0  0  0  0  0  0  0  0  0
    8.0328   -0.4829    0.0000 H   0  0  0  0  0  0  0  0  0  0  0  0
    7.7342   -4.7071    0.0000 H   0  0  0  0  0  0  0  0  0  0  0  0
   10.7906   -2.4865    0.0000 H   0  0  0  0  0  0  0  0  0  0  0  0
    9.9727   -0.6029    0.0000 H   0  0  0  0  0  0  0  0  0  0  0  0
    6.1955   -3.3472    0.0000 H   0  0  0  0  0  0  0  0  0  0  0  0
    9.2238    2.2897    0.0000 H   0  0  0  0  0  0  0  0  0  0  0  0
    8.8252    1.5995    0.0000 H   0  0  0  0  0  0  0  0  0  0  0  0
    8.4358    1.3271    0.0000 H   0  0  0  0  0  0  0  0  0  0  0  0
    7.8158    0.7071    0.0000 H   0  0  0  0  0  0  0  0  0  0  0  0
    8.4358    0.0871    0.0000 H   0  0  0  0  0  0  0  0  0  0  0  0
    4.6548   -2.8466    0.0000 H   0  0  0  0  0  0  0  0  0  0  0  0
   10.5139    1.6245    0.0000 H   0  0  0  0  0  0  0  0  0  0  0  0
   10.9124    2.3148    0.0000 H   0  0  0  0  0  0  0  0  0  0  0  0
   10.7458    1.2441    0.0000 H   0  0  0  0  0  0  0  0  0  0  0  0
   10.0898    3.7897    0.0000 H   0  0  0  0  0  0  0  0  0  0  0  0
    9.6912    3.0995    0.0000 H   0  0  0  0  0  0  0  0  0  0  0  0
    5.5272   -1.4320    0.0000 H   0  0  0  0  0  0  0  0  0  0  0  0
    4.9939   -0.8396    0.0000 H   0  0  0  0  0  0  0  0  0  0  0  0
   11.3799    3.1245    0.0000 H   0  0  0  0  0  0  0  0  0  0  0  0
   11.7784    3.8148    0.0000 H   0  0  0  0  0  0  0  0  0  0  0  0
    3.3369   -1.1662    0.0000 H   0  0  0  0  0  0  0  0  0  0  0  0
    3.8702   -1.7586    0.0000 H   0  0  0  0  0  0  0  0  0  0  0  0
    4.3682   -0.1448    0.0000 H   0  0  0  0  0  0  0  0  0  0  0  0
    3.8349    0.4475    0.0000 H   0  0  0  0  0  0  0  0  0  0  0  0
   11.7879    4.7071    0.0000 H   0  0  0  0  0  0  0  0  0  0  0  0
   11.1679    5.3271    0.0000 H   0  0  0  0  0  0  0  0  0  0  0  0
   10.5479    4.7071    0.0000 H   0  0  0  0  0  0  0  0  0  0  0  0
    2.0000    1.3123    0.0000 H   0  0  0  0  0  0  0  0  0  0  0  0
  8  1  1  6  0  0  0
  1 36  1  0  0  0  0
  9  2  1  6  0  0  0
  2 37  1  0  0  0  0
 15  3  1  1  0  0  0
  3 48  1  0  0  0  0
  4 26  1  0  0  0  0
  4 62  1  0  0  0  0
  5 26  2  0  0  0  0
  6  7  1  0  0  0  0
  6  8  1  0  0  0  0
  6 11  1  6  0  0  0
  6 27  1  0  0  0  0
  7  9  1  0  0  0  0
  7 12  1  1  0  0  0
  7 28  1  0  0  0  0
  8 10  1  0  0  0  0
  8 29  1  0  0  0  0
  9 10  1  0  0  0  0
  9 30  1  0  0  0  0
 10 31  1  0  0  0  0
 10 32  1  0  0  0  0
 11 14  1  0  0  0  0
 11 33  1  0  0  0  0
 11 34  1  0  0  0  0
 12 13  2  0  0  0  0
 12 35  1  0  0  0  0
 13 15  1  0  0  0  0
 13 38  1  0  0  0  0
 14 18  2  0  0  0  0
 14 39  1  0  0  0  0
 15 16  1  0  0  0  0
 15 17  1  0  0  0  0
 16 19  1  0  0  0  0
 16 40  1  0  0  0  0
 16 41  1  0  0  0  0
 17 42  1  0  0  0  0
 17 43  1  0  0  0  0
 17 44  1  0  0  0  0
 18 21  1  0  0  0  0
 18 45  1  0  0  0  0
 19 20  1  0  0  0  0
 19 46  1  0  0  0  0
 19 47  1  0  0  0  0
 20 22  1  0  0  0  0
 20 49  1  0  0  0  0
 20 50  1  0  0  0  0
 21 23  1  0  0  0  0
 21 51  1  0  0  0  0
 21 52  1  0  0  0  0
 22 25  1  0  0  0  0
 22 53  1  0  0  0  0
 22 54  1  0  0  0  0
 23 24  1  0  0  0  0
 23 55  1  0  0  0  0
 23 56  1  0  0  0  0
 24 26  1  0  0  0  0
 24 57  1  0  0  0  0
 24 58  1  0  0  0  0
 25 59  1  0  0  0  0
 25 60  1  0  0  0  0
 25 61  1  0  0  0  0
M  END
> <PUBCHEM_COMPOUND_CID>
5281075

> <PUBCHEM_COMPOUND_CANONICALIZED>
1

> <PUBCHEM_CACTVS_COMPLEXITY>
473

> <PUBCHEM_CACTVS_HBOND_ACCEPTOR>
5

> <PUBCHEM_CACTVS_HBOND_DONOR>
4

> <PUBCHEM_CACTVS_ROTATABLE_BOND>
12

> <PUBCHEM_CACTVS_SUBSKEYS>
AAADcfB4OAAAAAAAAAAAAAAAAAAAAYAAAAAAAAAAAAAAAAAAAAAAGgAACAAADVSggAICCAAAAgCIACDSCAAAAAAgAAAICAEAAAgAFBIAAQAAUAAFwAAIEAPIwOAOgAAAAAAAAAAAAAAAAAAAAIQADAAAAA==

> <PUBCHEM_IUPAC_OPENEYE_NAME>
(Z)-7-[(1R,2R,3R,5S)-3,5-dihydroxy-2-[(E,3S)-3-hydroxy-3-methyl-oct-1-enyl]cyclopentyl]hept-5-enoic acid

> <PUBCHEM_IUPAC_CAS_NAME>
(Z)-7-[(1R,2R,3R,5S)-3,5-dihydroxy-2-[(E,3S)-3-hydroxy-3-methyloct-1-enyl]cyclopentyl]-5-heptenoic acid

> <PUBCHEM_IUPAC_NAME>
(Z)-7-[(1R,2R,3R,5S)-3,5-dihydroxy-2-[(E,3S)-3-hydroxy-3-methyloct-1-enyl]cyclopentyl]hept-5-enoic acid

> <PUBCHEM_IUPAC_SYSTEMATIC_NAME>
(Z)-7-[(1R,2R,3R,5S)-2-[(E,3S)-3-methyl-3-oxidanyl-oct-1-enyl]-3,5-bis(oxidanyl)cyclopentyl]hept-5-enoic acid

> <PUBCHEM_IUPAC_TRADITIONAL_NAME>
(Z)-7-[(1R,2R,3R,5S)-3,5-dihydroxy-2-[(E,3S)-3-hydroxy-3-methyl-oct-1-enyl]cyclopentyl]hept-5-enoic acid

> <PUBCHEM_IUPAC_INCHI>
InChI=1S/C21H36O5/c1-3-4-9-13-21(2,26)14-12-17-16(18(22)15-19(17)23)10-7-5-6-8-11-20(24)25/h5,7,12,14,16-19,22-23,26H,3-4,6,8-11,13,15H2,1-2H3,(H,24,25)/b7-5-,14-12+/t16-,17-,18+,19-,21+/m1/s1

> <PUBCHEM_IUPAC_INCHIKEY>
DLJKPYFALUEJCK-IIELGFQLSA-N

> <PUBCHEM_XLOGP3>
2.9

> <PUBCHEM_EXACT_MASS>
368.256274

> <PUBCHEM_MOLECULAR_FORMULA>
C21H36O5

> <PUBCHEM_MOLECULAR_WEIGHT>
368.50754

> <PUBCHEM_OPENEYE_CAN_SMILES>
CCCCCC(C)(C=CC1C(CC(C1CC=CCCCC(=O)O)O)O)O

> <PUBCHEM_OPENEYE_ISO_SMILES>
CCCCC[C@@](C)(/C=C/[C@H]1[C@@H](C[C@@H]([C@@H]1C/C=C\CCCC(=O)O)O)O)O

> <PUBCHEM_CACTVS_TPSA>
98

> <PUBCHEM_MONOISOTOPIC_WEIGHT>
368.256274

> <PUBCHEM_TOTAL_CHARGE>
0

> <PUBCHEM_HEAVY_ATOM_COUNT>
26

> <PUBCHEM_ATOM_DEF_STEREO_COUNT>
5

> <PUBCHEM_ATOM_UDEF_STEREO_COUNT>
0

> <PUBCHEM_BOND_DEF_STEREO_COUNT>
2

> <PUBCHEM_BOND_UDEF_STEREO_COUNT>
0

> <PUBCHEM_ISOTOPIC_ATOM_COUNT>
0

> <PUBCHEM_COMPONENT_COUNT>
1

> <PUBCHEM_CACTVS_TAUTO_COUNT>
1

> <PUBCHEM_COORDINATE_TYPE>
1
5
255

> <PUBCHEM_BONDANNOTATIONS>
8  1  6
9  2  6
15  3  5
6  11  6
7  12  5

$$$$

