11328
  -OEChem-07051213043D

 24 25  0     0  0  0  0  0  0999 V2000
    0.3839    0.4878    0.0002 C   0  0  0  0  0  0  0  0  0  0  0  0
   -0.0812   -0.8488    0.0000 C   0  0  0  0  0  0  0  0  0  0  0  0
    1.7666    0.7338    0.0004 C   0  0  0  0  0  0  0  0  0  0  0  0
   -1.4638   -1.0949   -0.0002 C   0  0  0  0  0  0  0  0  0  0  0  0
   -2.3748   -0.0384   -0.0001 C   0  0  0  0  0  0  0  0  0  0  0  0
   -0.5474    1.5391    0.0003 C   0  0  0  0  0  0  0  0  0  0  0  0
    0.8501   -1.9001   -0.0001 C   0  0  0  0  0  0  0  0  0  0  0  0
   -1.9175    1.2761    0.0001 C   0  0  0  0  0  0  0  0  0  0  0  0
    2.6776   -0.3228    0.0002 C   0  0  0  0  0  0  0  0  0  0  0  0
    2.2203   -1.6372    0.0000 C   0  0  0  0  0  0  0  0  0  0  0  0
    2.3263    2.1229   -0.0007 C   0  0  0  0  0  0  0  0  0  0  0  0
   -3.8401   -0.3175   -0.0001 C   0  0  0  0  0  0  0  0  0  0  0  0
   -1.8319   -2.1196    0.0015 H   0  0  0  0  0  0  0  0  0  0  0  0
   -0.2371    2.5808    0.0010 H   0  0  0  0  0  0  0  0  0  0  0  0
    0.5154   -2.9354   -0.0004 H   0  0  0  0  0  0  0  0  0  0  0  0
   -2.6177    2.1074    0.0021 H   0  0  0  0  0  0  0  0  0  0  0  0
    3.7491   -0.1403    0.0001 H   0  0  0  0  0  0  0  0  0  0  0  0
    2.9298   -2.4596   -0.0002 H   0  0  0  0  0  0  0  0  0  0  0  0
    2.0068    2.6673    0.8941 H   0  0  0  0  0  0  0  0  0  0  0  0
    3.4221    2.1235   -0.0006 H   0  0  0  0  0  0  0  0  0  0  0  0
    2.0069    2.6659   -0.8964 H   0  0  0  0  0  0  0  0  0  0  0  0
   -4.1978   -0.4466    1.0262 H   0  0  0  0  0  0  0  0  0  0  0  0
   -4.4007    0.5004   -0.4654 H   0  0  0  0  0  0  0  0  0  0  0  0
   -4.0673   -1.2253   -0.5694 H   0  0  0  0  0  0  0  0  0  0  0  0
  1  2  1  0  0  0  0
  1  3  2  0  0  0  0
  1  6  1  0  0  0  0
  2  4  1  0  0  0  0
  2  7  2  0  0  0  0
  3  9  1  0  0  0  0
  3 11  1  0  0  0  0
  4  5  2  0  0  0  0
  4 13  1  0  0  0  0
  5  8  1  0  0  0  0
  5 12  1  0  0  0  0
  6  8  2  0  0  0  0
  6 14  1  0  0  0  0
  7 10  1  0  0  0  0
  7 15  1  0  0  0  0
  8 16  1  0  0  0  0
  9 10  2  0  0  0  0
  9 17  1  0  0  0  0
 10 18  1  0  0  0  0
 11 19  1  0  0  0  0
 11 20  1  0  0  0  0
 11 21  1  0  0  0  0
 12 22  1  0  0  0  0
 12 23  1  0  0  0  0
 12 24  1  0  0  0  0
M  END
> <PUBCHEM_COMPOUND_CID>
11328

> <PUBCHEM_CONFORMER_RMSD>
0.4

> <PUBCHEM_CONFORMER_DIVERSEORDER>
1

> <PUBCHEM_MMFF94_PARTIAL_CHARGES>
16
10 -0.15
11 0.14
12 0.14
13 0.15
14 0.15
15 0.15
16 0.15
17 0.15
18 0.15
3 -0.14
4 -0.15
5 -0.14
6 -0.15
7 -0.15
8 -0.15
9 -0.15

> <PUBCHEM_EFFECTIVE_ROTOR_COUNT>
0

> <PUBCHEM_PHARMACOPHORE_FEATURES>
2
6 1 2 3 7 9 10 rings
6 1 2 4 5 6 8 rings

> <PUBCHEM_HEAVY_ATOM_COUNT>
12

> <PUBCHEM_ATOM_DEF_STEREO_COUNT>
0

> <PUBCHEM_ATOM_UDEF_STEREO_COUNT>
0

> <PUBCHEM_BOND_DEF_STEREO_COUNT>
0

> <PUBCHEM_BOND_UDEF_STEREO_COUNT>
0

> <PUBCHEM_ISOTOPIC_ATOM_COUNT>
0

> <PUBCHEM_COMPONENT_COUNT>
1

> <PUBCHEM_CACTVS_TAUTO_COUNT>
1

> <PUBCHEM_CONFORMER_ID>
00002C4000000001

> <PUBCHEM_MMFF94_ENERGY>
36.2178

> <PUBCHEM_FEATURE_SELFOVERLAP>
10.175

> <PUBCHEM_SHAPE_FINGERPRINT>
10608611 8 18341618139581318357
10967382 1 18410856516695410852
11206711 2 18269269234721956381
11471102 20 18411142454549304629
12032990 46 18338509845720936415
12423570 1 15590793196602422799
12524768 44 18413670201395011057
12696612 119 18338229487424789928
12897270 3 18411981360135276789
13380535 76 18339645512652026330
13897977 150 18339082562519438741
14251717 144 18336835208265982351
14325111 11 18410855447586352641
15775835 57 18188486865588599221
161256 15 18412545439623009404
16945 1 18410856594036568134
17844478 74 18059565915113206033
17990270 104 18265614458171663114
193761 8 17762055844973830679
19973954 147 18338233881118434897
20201158 50 18412826910405089915
20645477 70 18408890646462559919
21040471 1 18194402182696425184
21501502 16 18338793536905864689
2334 1 18050285873323096066
23402655 69 18336555984094643749
23463225 33 18412265055515088379
23552423 10 18341611542126091959
23559900 14 17253995767803779774
241688 4 17834675276874605706
2748010 2 18195238910797398854
449060 62 18336260154915288265
5084963 1 18187929516282977658
528886 8 18337958878620392786
53812653 166 18117280254943558232
581208 293 18336553724414285933
7364860 26 18334012787729320572

> <PUBCHEM_SHAPE_MULTIPOLES>
246.95
4.62
2.09
0.62
2.62
0.21
0
0
0
-1.18
0
0
0
0

> <PUBCHEM_SHAPE_SELFOVERLAP>
537.773

> <PUBCHEM_SHAPE_VOLUME>
127.8

> <PUBCHEM_COORDINATE_TYPE>
2
5
10

$$$$

