15432633
  -OEChem-07051213153D

 80 83  0     1  0  0  0  0  0999 V2000
   -1.1025    0.7646   -0.3188 C   0  0  1  0  0  0  0  0  0  0  0  0
    0.3316    0.7994    0.3955 C   0  0  1  0  0  0  0  0  0  0  0  0
   -1.8215   -0.5901    0.1045 C   0  0  1  0  0  0  0  0  0  0  0  0
   -3.3549   -0.7233   -0.3077 C   0  0  2  0  0  0  0  0  0  0  0  0
    1.1425   -0.4490   -0.0406 C   0  0  2  0  0  0  0  0  0  0  0  0
   -4.0916    0.5580    0.2448 C   0  0  1  0  0  0  0  0  0  0  0  0
   -1.9812    1.9648    0.1210 C   0  0  0  0  0  0  0  0  0  0  0  0
   -0.9453   -1.8378   -0.2003 C   0  0  0  0  0  0  0  0  0  0  0  0
    1.3269    1.9008   -0.0357 C   0  0  0  0  0  0  0  0  0  0  0  0
    0.4736   -1.7472    0.3864 C   0  0  0  0  0  0  0  0  0  0  0  0
   -3.4553    1.8575   -0.2908 C   0  0  0  0  0  0  0  0  0  0  0  0
    2.5691   -0.1862    0.4655 C   0  0  2  0  0  0  0  0  0  0  0  0
   -5.6610    0.5266    0.1950 C   0  0  0  0  0  0  0  0  0  0  0  0
   -3.9688   -1.9659    0.4105 C   0  0  0  0  0  0  0  0  0  0  0  0
    2.7224    1.3459    0.3240 C   0  0  0  0  0  0  0  0  0  0  0  0
   -0.9413    0.8722   -1.8630 C   0  0  0  0  0  0  0  0  0  0  0  0
    0.2078    0.9084    1.9519 C   0  0  0  0  0  0  0  0  0  0  0  0
   -3.5242   -0.9366   -1.8304 C   0  0  0  0  0  0  0  0  0  0  0  0
   -6.1569   -0.7744    0.8735 C   0  0  0  0  0  0  0  0  0  0  0  0
   -5.4951   -2.0411    0.3503 C   0  0  0  0  0  0  0  0  0  0  0  0
    3.6193   -0.9447   -0.2815 C   0  0  0  0  0  0  0  0  0  0  0  0
   -6.2512    0.6500   -1.2212 C   0  0  0  0  0  0  0  0  0  0  0  0
   -6.2462    1.7039    1.0184 C   0  0  0  0  0  0  0  0  0  0  0  0
    4.4819   -1.8943    0.5182 C   0  0  0  0  0  0  0  0  0  0  0  0
    3.7643   -0.8141   -1.6094 C   0  0  0  0  0  0  0  0  0  0  0  0
    5.7344   -1.2447    1.1213 C   0  0  0  0  0  0  0  0  0  0  0  0
    6.6891   -0.7513    0.0686 C   0  0  0  0  0  0  0  0  0  0  0  0
    7.1407    0.5022   -0.1265 C   0  0  0  0  0  0  0  0  0  0  0  0
    8.0980    0.9269   -1.2032 C   0  0  0  0  0  0  0  0  0  0  0  0
    6.6953    1.6194    0.7800 C   0  0  0  0  0  0  0  0  0  0  0  0
   -1.8722   -0.5664    1.2005 H   0  0  0  0  0  0  0  0  0  0  0  0
    1.1809   -0.4752   -1.1355 H   0  0  0  0  0  0  0  0  0  0  0  0
   -3.8677    0.5663    1.3255 H   0  0  0  0  0  0  0  0  0  0  0  0
   -1.5644    2.9012   -0.2707 H   0  0  0  0  0  0  0  0  0  0  0  0
   -1.9784    2.0650    1.2106 H   0  0  0  0  0  0  0  0  0  0  0  0
   -0.8631   -1.9981   -1.2798 H   0  0  0  0  0  0  0  0  0  0  0  0
   -1.4077   -2.7403    0.2114 H   0  0  0  0  0  0  0  0  0  0  0  0
    1.1378    2.8639    0.4498 H   0  0  0  0  0  0  0  0  0  0  0  0
    1.3176    2.0766   -1.1140 H   0  0  0  0  0  0  0  0  0  0  0  0
    0.4297   -1.8259    1.4784 H   0  0  0  0  0  0  0  0  0  0  0  0
    1.0597   -2.6057    0.0377 H   0  0  0  0  0  0  0  0  0  0  0  0
   -3.9616    2.7326    0.1292 H   0  0  0  0  0  0  0  0  0  0  0  0
   -3.5661    1.9443   -1.3745 H   0  0  0  0  0  0  0  0  0  0  0  0
    2.6361   -0.4446    1.5296 H   0  0  0  0  0  0  0  0  0  0  0  0
   -3.6717   -1.9620    1.4676 H   0  0  0  0  0  0  0  0  0  0  0  0
   -3.5702   -2.8921   -0.0203 H   0  0  0  0  0  0  0  0  0  0  0  0
    3.4600    1.6599   -0.4227 H   0  0  0  0  0  0  0  0  0  0  0  0
    3.0550    1.7678    1.2804 H   0  0  0  0  0  0  0  0  0  0  0  0
   -1.8915    0.9825   -2.3823 H   0  0  0  0  0  0  0  0  0  0  0  0
   -0.3809    1.7652   -2.1519 H   0  0  0  0  0  0  0  0  0  0  0  0
   -0.4465    0.0068   -2.3080 H   0  0  0  0  0  0  0  0  0  0  0  0
   -0.1917    1.8834    2.2487 H   0  0  0  0  0  0  0  0  0  0  0  0
   -0.4267    0.1387    2.3939 H   0  0  0  0  0  0  0  0  0  0  0  0
    1.1709    0.8287    2.4644 H   0  0  0  0  0  0  0  0  0  0  0  0
   -4.3726   -1.5808   -2.0750 H   0  0  0  0  0  0  0  0  0  0  0  0
   -3.6904   -0.0057   -2.3747 H   0  0  0  0  0  0  0  0  0  0  0  0
   -2.6602   -1.4325   -2.2787 H   0  0  0  0  0  0  0  0  0  0  0  0
   -7.2451   -0.8689    0.7651 H   0  0  0  0  0  0  0  0  0  0  0  0
   -5.9644   -0.7152    1.9538 H   0  0  0  0  0  0  0  0  0  0  0  0
   -5.8370   -2.2501   -0.6679 H   0  0  0  0  0  0  0  0  0  0  0  0
   -5.8300   -2.8925    0.9555 H   0  0  0  0  0  0  0  0  0  0  0  0
   -7.3425    0.7538   -1.1776 H   0  0  0  0  0  0  0  0  0  0  0  0
   -5.8664    1.5324   -1.7424 H   0  0  0  0  0  0  0  0  0  0  0  0
   -6.0565   -0.2232   -1.8440 H   0  0  0  0  0  0  0  0  0  0  0  0
   -5.8000    1.7528    2.0179 H   0  0  0  0  0  0  0  0  0  0  0  0
   -6.0847    2.6686    0.5269 H   0  0  0  0  0  0  0  0  0  0  0  0
   -7.3295    1.5924    1.1482 H   0  0  0  0  0  0  0  0  0  0  0  0
    4.7875   -2.7351   -0.1202 H   0  0  0  0  0  0  0  0  0  0  0  0
    3.8850   -2.3495    1.3187 H   0  0  0  0  0  0  0  0  0  0  0  0
    4.5166   -1.3816   -2.1480 H   0  0  0  0  0  0  0  0  0  0  0  0
    3.1522   -0.1385   -2.1968 H   0  0  0  0  0  0  0  0  0  0  0  0
    6.2631   -2.0065    1.7087 H   0  0  0  0  0  0  0  0  0  0  0  0
    5.4383   -0.4775    1.8400 H   0  0  0  0  0  0  0  0  0  0  0  0
    7.0547   -1.5230   -0.6082 H   0  0  0  0  0  0  0  0  0  0  0  0
    8.9954    1.3725   -0.7621 H   0  0  0  0  0  0  0  0  0  0  0  0
    8.4137    0.0775   -1.8178 H   0  0  0  0  0  0  0  0  0  0  0  0
    7.6290    1.6621   -1.8650 H   0  0  0  0  0  0  0  0  0  0  0  0
    5.7592    1.4330    1.3079 H   0  0  0  0  0  0  0  0  0  0  0  0
    6.5236    2.5290    0.1924 H   0  0  0  0  0  0  0  0  0  0  0  0
    7.4753    1.8380    1.5165 H   0  0  0  0  0  0  0  0  0  0  0  0
  1  2  1  0  0  0  0
  1  3  1  0  0  0  0
  1  7  1  0  0  0  0
  1 16  1  0  0  0  0
  2  5  1  0  0  0  0
  2  9  1  0  0  0  0
  2 17  1  0  0  0  0
  3  4  1  0  0  0  0
  3  8  1  0  0  0  0
  3 31  1  0  0  0  0
  4  6  1  0  0  0  0
  4 14  1  0  0  0  0
  4 18  1  0  0  0  0
  5 10  1  0  0  0  0
  5 12  1  0  0  0  0
  5 32  1  0  0  0  0
  6 11  1  0  0  0  0
  6 13  1  0  0  0  0
  6 33  1  0  0  0  0
  7 11  1  0  0  0  0
  7 34  1  0  0  0  0
  7 35  1  0  0  0  0
  8 10  1  0  0  0  0
  8 36  1  0  0  0  0
  8 37  1  0  0  0  0
  9 15  1  0  0  0  0
  9 38  1  0  0  0  0
  9 39  1  0  0  0  0
 10 40  1  0  0  0  0
 10 41  1  0  0  0  0
 11 42  1  0  0  0  0
 11 43  1  0  0  0  0
 12 15  1  0  0  0  0
 12 21  1  0  0  0  0
 12 44  1  0  0  0  0
 13 19  1  0  0  0  0
 13 22  1  0  0  0  0
 13 23  1  0  0  0  0
 14 20  1  0  0  0  0
 14 45  1  0  0  0  0
 14 46  1  0  0  0  0
 15 47  1  0  0  0  0
 15 48  1  0  0  0  0
 16 49  1  0  0  0  0
 16 50  1  0  0  0  0
 16 51  1  0  0  0  0
 17 52  1  0  0  0  0
 17 53  1  0  0  0  0
 17 54  1  0  0  0  0
 18 55  1  0  0  0  0
 18 56  1  0  0  0  0
 18 57  1  0  0  0  0
 19 20  1  0  0  0  0
 19 58  1  0  0  0  0
 19 59  1  0  0  0  0
 20 60  1  0  0  0  0
 20 61  1  0  0  0  0
 21 24  1  0  0  0  0
 21 25  2  0  0  0  0
 22 62  1  0  0  0  0
 22 63  1  0  0  0  0
 22 64  1  0  0  0  0
 23 65  1  0  0  0  0
 23 66  1  0  0  0  0
 23 67  1  0  0  0  0
 24 26  1  0  0  0  0
 24 68  1  0  0  0  0
 24 69  1  0  0  0  0
 25 70  1  0  0  0  0
 25 71  1  0  0  0  0
 26 27  1  0  0  0  0
 26 72  1  0  0  0  0
 26 73  1  0  0  0  0
 27 28  2  0  0  0  0
 27 74  1  0  0  0  0
 28 29  1  0  0  0  0
 28 30  1  0  0  0  0
 29 75  1  0  0  0  0
 29 76  1  0  0  0  0
 29 77  1  0  0  0  0
 30 78  1  0  0  0  0
 30 79  1  0  0  0  0
 30 80  1  0  0  0  0
M  END
> <PUBCHEM_COMPOUND_CID>
15432633

> <PUBCHEM_CONFORMER_RMSD>
0.8

> <PUBCHEM_CONFORMER_DIVERSEORDER>
2
32
14
6
16
13
1
28
18
3
21
25
23
8
33
10
15
34
22
27
4
24
31
12
20
7
17
5
29
26
30
19
9
11

> <PUBCHEM_MMFF94_PARTIAL_CHARGES>
12
12 0.14
21 -0.28
24 0.14
25 -0.3
26 0.14
27 -0.29
28 -0.28
29 0.14
30 0.14
70 0.15
71 0.15
74 0.15

> <PUBCHEM_EFFECTIVE_ROTOR_COUNT>
6.2

> <PUBCHEM_PHARMACOPHORE_FEATURES>
8
1 25 hydrophobe
3 13 22 23 hydrophobe
3 28 29 30 hydrophobe
4 21 24 26 27 hydrophobe
5 2 5 9 12 15 rings
6 1 2 3 5 8 10 rings
6 1 3 4 6 7 11 rings
6 4 6 13 14 19 20 rings

> <PUBCHEM_HEAVY_ATOM_COUNT>
30

> <PUBCHEM_ATOM_DEF_STEREO_COUNT>
7

> <PUBCHEM_ATOM_UDEF_STEREO_COUNT>
0

> <PUBCHEM_BOND_DEF_STEREO_COUNT>
0

> <PUBCHEM_BOND_UDEF_STEREO_COUNT>
0

> <PUBCHEM_ISOTOPIC_ATOM_COUNT>
0

> <PUBCHEM_COMPONENT_COUNT>
1

> <PUBCHEM_CACTVS_TAUTO_COUNT>
1

> <PUBCHEM_CONFORMER_ID>
00EB7BB900000002

> <PUBCHEM_MMFF94_ENERGY>
125.9472

> <PUBCHEM_FEATURE_SELFOVERLAP>
40.704

> <PUBCHEM_SHAPE_FINGERPRINT>
10 15 18343299284153819225
10299344 5 18342455946261947474
10906281 52 18335409171902631990
11007060 377 18413665807643597937
11315181 36 18411980261425424361
11524674 6 16877944918906030535
12166972 35 17346877845460994396
12236239 1 17846781836341948466
12516196 113 18334013891404060032
12788726 201 17676765474409585728
13533116 47 13984652707459032910
13583140 156 14924239204801966759
1361 4 18272933825790667650
14251764 18 18408604755610362287
14394314 77 18341327881312331825
14840074 17 15936408961693088756
14849402 71 18340763737400336520
14856354 85 16732704926366591949
15021287 119 17203322312929916597
15183329 4 18411142445558469226
15196674 1 18410856534529368899
15361156 5 18335423439335323933
15461852 350 17167869647583144413
1813 80 17489872605407871029
18335252 98 18343576335399046234
18608769 82 18411699855067791691
21130935 74 18410293639999949690
21267235 1 18341046333985542499
21521721 280 18408885135850350400
21792934 111 18337969981949642928
21792961 116 17822570612311052150
23522609 53 18128227117306458980
23559900 14 18410017602419719289
23622692 88 15791453716589758272
3004659 81 18343578569198589542
3178227 256 18342728624792215043
335352 9 18410578388437298885
34797466 226 17749103375778869964
350125 39 18411983563580288528
4073 2 18130783443597471066
4093350 32 17095803231935747144
4098825 35 18202562856740179396
4258327 124 16844428463998254990
4325135 7 18413387636309049212
4340502 62 16630526250431076370
5104073 3 18408321060615562849
5265222 85 18187646856512510790
6086070 43 16878523271287349577
6328613 192 18335139778209885464
7226269 152 17822008735519180649

> <PUBCHEM_SHAPE_MULTIPOLES>
617.39
19.3
2.2
1.34
19.19
0.13
0.3
-1.27
-0.02
-0.75
-0.28
-0.07
-0.1
-0.21

> <PUBCHEM_SHAPE_SELFOVERLAP>
1276.232

> <PUBCHEM_SHAPE_VOLUME>
352.8

> <PUBCHEM_COORDINATE_TYPE>
2
5
10

$$$$

