5458468
  -OEChem-07051212493D

 51 50  0     1  0  0  0  0  0999 V2000
   -3.4295    0.1552   -1.6057 O   0  0  0  0  0  0  0  0  0  0  0  0
   -1.8976   -2.8340    1.0485 O   0  0  0  0  0  0  0  0  0  0  0  0
   -3.6656    1.7791    1.5477 O   0  0  0  0  0  0  0  0  0  0  0  0
   -2.0643   -2.5019   -1.1862 O   0  0  0  0  0  0  0  0  0  0  0  0
   -3.3910    2.4955   -0.5745 O   0  0  0  0  0  0  0  0  0  0  0  0
   -6.7266    0.3210    1.1460 O   0  0  0  0  0  0  0  0  0  0  0  0
   -6.3278    0.6806   -1.0641 O   0  0  0  0  0  0  0  0  0  0  0  0
   -2.0949   -0.5619    0.2976 C   0  0  1  0  0  0  0  0  0  0  0  0
   -0.8338    0.1542   -0.2504 C   0  0  0  0  0  0  0  0  0  0  0  0
   -3.4357    0.0820   -0.1679 C   0  0  2  0  0  0  0  0  0  0  0  0
    0.4679   -0.4027    0.3465 C   0  0  0  0  0  0  0  0  0  0  0  0
    1.7247    0.3210   -0.1505 C   0  0  0  0  0  0  0  0  0  0  0  0
    3.0618   -0.2467    0.3379 C   0  0  0  0  0  0  0  0  0  0  0  0
    4.2824    0.4738   -0.2399 C   0  0  0  0  0  0  0  0  0  0  0  0
    5.5843   -0.1491    0.2701 C   0  0  0  0  0  0  0  0  0  0  0  0
   -4.7464   -0.6142    0.2390 C   0  0  0  0  0  0  0  0  0  0  0  0
    6.8396    0.5513   -0.2584 C   0  0  0  0  0  0  0  0  0  0  0  0
   -2.0207   -2.0463   -0.0505 C   0  0  0  0  0  0  0  0  0  0  0  0
   -3.4872    1.5664    0.2197 C   0  0  0  0  0  0  0  0  0  0  0  0
    8.1416   -0.0880    0.2318 C   0  0  0  0  0  0  0  0  0  0  0  0
    9.3629    0.6406   -0.3304 C   0  0  0  0  0  0  0  0  0  0  0  0
   -6.0027    0.1900    0.0082 C   0  0  0  0  0  0  0  0  0  0  0  0
   10.6582    0.0342    0.1854 C   0  0  0  0  0  0  0  0  0  0  0  0
   -2.0651   -0.4849    1.3938 H   0  0  0  0  0  0  0  0  0  0  0  0
   -0.7922    0.0570   -1.3422 H   0  0  0  0  0  0  0  0  0  0  0  0
   -0.8834    1.2251   -0.0242 H   0  0  0  0  0  0  0  0  0  0  0  0
    0.4270   -0.3329    1.4403 H   0  0  0  0  0  0  0  0  0  0  0  0
    0.5651   -1.4661    0.0988 H   0  0  0  0  0  0  0  0  0  0  0  0
    1.6620    1.3768    0.1416 H   0  0  0  0  0  0  0  0  0  0  0  0
    1.7227    0.3043   -1.2480 H   0  0  0  0  0  0  0  0  0  0  0  0
    3.0905   -0.1934    1.4331 H   0  0  0  0  0  0  0  0  0  0  0  0
    3.1123   -1.3099    0.0720 H   0  0  0  0  0  0  0  0  0  0  0  0
    4.2474    1.5340    0.0377 H   0  0  0  0  0  0  0  0  0  0  0  0
    4.2559    0.4242   -1.3349 H   0  0  0  0  0  0  0  0  0  0  0  0
    5.5953   -0.1202    1.3668 H   0  0  0  0  0  0  0  0  0  0  0  0
    5.6157   -1.2069   -0.0192 H   0  0  0  0  0  0  0  0  0  0  0  0
   -4.6931   -0.8676    1.3057 H   0  0  0  0  0  0  0  0  0  0  0  0
   -4.8763   -1.5581   -0.3039 H   0  0  0  0  0  0  0  0  0  0  0  0
    6.8161    1.6052    0.0453 H   0  0  0  0  0  0  0  0  0  0  0  0
    6.8216    0.5371   -1.3553 H   0  0  0  0  0  0  0  0  0  0  0  0
    8.1696   -1.1420   -0.0698 H   0  0  0  0  0  0  0  0  0  0  0  0
    8.1686   -0.0641    1.3279 H   0  0  0  0  0  0  0  0  0  0  0  0
   -3.4409   -0.7538   -1.9506 H   0  0  0  0  0  0  0  0  0  0  0  0
    9.3530    0.5939   -1.4255 H   0  0  0  0  0  0  0  0  0  0  0  0
    9.3268    1.6998   -0.0501 H   0  0  0  0  0  0  0  0  0  0  0  0
   -1.8500   -3.7850    0.8130 H   0  0  0  0  0  0  0  0  0  0  0  0
   10.7136    0.0969    1.2769 H   0  0  0  0  0  0  0  0  0  0  0  0
   11.5185    0.5687   -0.2295 H   0  0  0  0  0  0  0  0  0  0  0  0
   10.7406   -1.0184   -0.1033 H   0  0  0  0  0  0  0  0  0  0  0  0
   -3.7001    2.7353    1.7637 H   0  0  0  0  0  0  0  0  0  0  0  0
   -7.5400    0.8505    1.0041 H   0  0  0  0  0  0  0  0  0  0  0  0
  1 10  1  0  0  0  0
  1 43  1  0  0  0  0
  2 18  1  0  0  0  0
  2 46  1  0  0  0  0
  3 19  1  0  0  0  0
  3 50  1  0  0  0  0
  4 18  2  0  0  0  0
  5 19  2  0  0  0  0
  6 22  1  0  0  0  0
  6 51  1  0  0  0  0
  7 22  2  0  0  0  0
  8  9  1  0  0  0  0
  8 10  1  0  0  0  0
  8 18  1  0  0  0  0
  8 24  1  0  0  0  0
  9 11  1  0  0  0  0
  9 25  1  0  0  0  0
  9 26  1  0  0  0  0
 10 16  1  0  0  0  0
 10 19  1  0  0  0  0
 11 12  1  0  0  0  0
 11 27  1  0  0  0  0
 11 28  1  0  0  0  0
 12 13  1  0  0  0  0
 12 29  1  0  0  0  0
 12 30  1  0  0  0  0
 13 14  1  0  0  0  0
 13 31  1  0  0  0  0
 13 32  1  0  0  0  0
 14 15  1  0  0  0  0
 14 33  1  0  0  0  0
 14 34  1  0  0  0  0
 15 17  1  0  0  0  0
 15 35  1  0  0  0  0
 15 36  1  0  0  0  0
 16 22  1  0  0  0  0
 16 37  1  0  0  0  0
 16 38  1  0  0  0  0
 17 20  1  0  0  0  0
 17 39  1  0  0  0  0
 17 40  1  0  0  0  0
 20 21  1  0  0  0  0
 20 41  1  0  0  0  0
 20 42  1  0  0  0  0
 21 23  1  0  0  0  0
 21 44  1  0  0  0  0
 21 45  1  0  0  0  0
 23 47  1  0  0  0  0
 23 48  1  0  0  0  0
 23 49  1  0  0  0  0
M  END
> <PUBCHEM_COMPOUND_CID>
5458468

> <PUBCHEM_CONFORMER_RMSD>
1.2

> <PUBCHEM_CONFORMER_DIVERSEORDER>
1
3
81
39
83
27
35
66
85
104
89
68
95
76
55
28
42
94
87
80
44
30
73
43
6
53
10
47
21
99
17
40
60
79
31
90
48
24
34
38
11
88
56
63
75
14
82
77
19
51
67
12
41
100
65
45
69
4
70
72
78
33
18
58
91
2
54
103
13
15
59
37
46
23
25
62
16
74
29
96
102
93
5
86
61
57
97
7
92
52
98
22
64
36
101
20
32
26
71
49
9
50
8
84

> <PUBCHEM_MMFF94_PARTIAL_CHARGES>
17
1 -0.68
10 0.34
16 0.06
18 0.66
19 0.66
2 -0.65
22 0.66
3 -0.65
4 -0.57
43 0.4
46 0.5
5 -0.57
50 0.5
51 0.5
6 -0.65
7 -0.57
8 0.06

> <PUBCHEM_EFFECTIVE_ROTOR_COUNT>
14

> <PUBCHEM_PHARMACOPHORE_FEATURES>
12
1 1 acceptor
1 1 donor
1 2 acceptor
1 23 hydrophobe
1 3 acceptor
1 4 acceptor
1 5 acceptor
1 6 acceptor
1 7 acceptor
3 2 4 18 anion
3 3 5 19 anion
3 6 7 22 anion

> <PUBCHEM_HEAVY_ATOM_COUNT>
23

> <PUBCHEM_ATOM_DEF_STEREO_COUNT>
2

> <PUBCHEM_ATOM_UDEF_STEREO_COUNT>
0

> <PUBCHEM_BOND_DEF_STEREO_COUNT>
0

> <PUBCHEM_BOND_UDEF_STEREO_COUNT>
0

> <PUBCHEM_ISOTOPIC_ATOM_COUNT>
0

> <PUBCHEM_COMPONENT_COUNT>
1

> <PUBCHEM_CACTVS_TAUTO_COUNT>
1

> <PUBCHEM_CONFORMER_ID>
00534A2400000001

> <PUBCHEM_MMFF94_ENERGY>
24.0647

> <PUBCHEM_FEATURE_SELFOVERLAP>
61.089

> <PUBCHEM_SHAPE_FINGERPRINT>
10299344 5 18131634483430800922
11315181 36 18409164394423618904
13533116 47 17677051360223438622
13885169 127 18408885149278609736
14123256 10 6771867372946637028
14251764 18 18410013256371303296
14251764 46 18410575084673634916
15183329 4 18412829093007774496
15461852 350 17530967939138289428
15510794 2 17749384876857694190
15716309 27 9223229646663984568
17093844 174 18334016069479941402
20281389 69 18272373075197494188
21150785 3 16225766316242147116
23198884 109 18259984885654394818
23402539 116 18334019367925147567
23559900 14 18114752529219059017
249057 3 18411418385024104868
4073 2 18130222646039616034
67123 10 9007055769976923602
8209 1 18411138031476827044

> <PUBCHEM_SHAPE_MULTIPOLES>
432.24
27.15
1.83
0.98
77.89
0.74
0.03
-6
-0.46
-3.19
-0.06
-1.25
-0.01
-0.32

> <PUBCHEM_SHAPE_SELFOVERLAP>
831.592

> <PUBCHEM_SHAPE_VOLUME>
261.8

> <PUBCHEM_COORDINATE_TYPE>
2
5
10

$$$$

