17395573
  -OEChem-06241222513D

 47 49  0     1  0  0  0  0  0999 V2000
    1.0264   -3.0631   -0.6260 S   0  0  0  0  0  0  0  0  0  0  0  0
    2.6427   -0.7462   -1.8332 O   0  0  0  0  0  0  0  0  0  0  0  0
    2.7471    0.1600    0.3241 N   0  0  0  0  0  0  0  0  0  0  0  0
   -1.3389   -1.6576   -0.3913 N   0  0  0  0  0  0  0  0  0  0  0  0
    0.0533   -1.2973    1.2579 N   0  0  0  0  0  0  0  0  0  0  0  0
   -1.0858   -0.5489    1.4780 N   0  0  0  0  0  0  0  0  0  0  0  0
   -5.4626    0.1206    1.1441 N   0  0  0  0  0  0  0  0  0  0  0  0
    2.5925   -2.3234   -0.0469 C   0  0  2  0  0  0  0  0  0  0  0  0
    2.6718   -0.8996   -0.6072 C   0  0  0  0  0  0  0  0  0  0  0  0
    3.3989    0.0203    1.6347 C   0  0  0  0  0  0  0  0  0  0  0  0
    2.1585    1.4352   -0.0261 C   0  0  0  0  0  0  0  0  0  0  0  0
    3.7495   -3.1896   -0.5429 C   0  0  0  0  0  0  0  0  0  0  0  0
   -0.1177   -1.9548    0.1332 C   0  0  0  0  0  0  0  0  0  0  0  0
   -1.9079   -0.7781    0.4790 C   0  0  0  0  0  0  0  0  0  0  0  0
    4.8692    0.3774    1.5640 C   0  0  0  0  0  0  0  0  0  0  0  0
    1.0542    1.4833   -0.8770 C   0  0  0  0  0  0  0  0  0  0  0  0
    2.6950    2.6159    0.4877 C   0  0  0  0  0  0  0  0  0  0  0  0
   -3.2179   -0.1993    0.3046 C   0  0  0  0  0  0  0  0  0  0  0  0
   -1.9225   -2.1612   -1.6143 C   0  0  0  0  0  0  0  0  0  0  0  0
    0.4865    2.7121   -1.2143 C   0  0  0  0  0  0  0  0  0  0  0  0
    2.1272    3.8446    0.1503 C   0  0  0  0  0  0  0  0  0  0  0  0
    1.0230    3.8926   -0.7006 C   0  0  0  0  0  0  0  0  0  0  0  0
   -3.5185    0.5706   -0.8136 C   0  0  0  0  0  0  0  0  0  0  0  0
   -4.2160   -0.3928    1.2462 C   0  0  0  0  0  0  0  0  0  0  0  0
   -4.7900    1.1158   -0.9541 C   0  0  0  0  0  0  0  0  0  0  0  0
   -5.7177    0.8634    0.0437 C   0  0  0  0  0  0  0  0  0  0  0  0
    2.5563   -2.3755    1.0374 H   0  0  0  0  0  0  0  0  0  0  0  0
    2.8823    0.6635    2.3573 H   0  0  0  0  0  0  0  0  0  0  0  0
    3.3172   -0.9878    2.0355 H   0  0  0  0  0  0  0  0  0  0  0  0
    3.7923   -3.2350   -1.6372 H   0  0  0  0  0  0  0  0  0  0  0  0
    3.6816   -4.2120   -0.1551 H   0  0  0  0  0  0  0  0  0  0  0  0
    4.7027   -2.7694   -0.2030 H   0  0  0  0  0  0  0  0  0  0  0  0
    5.4085   -0.3794    0.9826 H   0  0  0  0  0  0  0  0  0  0  0  0
    5.0855    1.3364    1.0919 H   0  0  0  0  0  0  0  0  0  0  0  0
    5.3025    0.3884    2.5694 H   0  0  0  0  0  0  0  0  0  0  0  0
    0.5937    0.5886   -1.2825 H   0  0  0  0  0  0  0  0  0  0  0  0
    3.5336    2.6437    1.1702 H   0  0  0  0  0  0  0  0  0  0  0  0
   -3.0111   -2.1882   -1.5262 H   0  0  0  0  0  0  0  0  0  0  0  0
   -1.5785   -3.1817   -1.7963 H   0  0  0  0  0  0  0  0  0  0  0  0
   -1.6173   -1.5052   -2.4333 H   0  0  0  0  0  0  0  0  0  0  0  0
   -0.3771    2.7491   -1.8721 H   0  0  0  0  0  0  0  0  0  0  0  0
    2.5406    4.7642    0.5544 H   0  0  0  0  0  0  0  0  0  0  0  0
    0.5792    4.8491   -0.9610 H   0  0  0  0  0  0  0  0  0  0  0  0
   -2.7734    0.7650   -1.5809 H   0  0  0  0  0  0  0  0  0  0  0  0
   -4.0463   -0.9848    2.1410 H   0  0  0  0  0  0  0  0  0  0  0  0
   -5.0460    1.7211   -1.8161 H   0  0  0  0  0  0  0  0  0  0  0  0
   -6.7232    1.2664   -0.0182 H   0  0  0  0  0  0  0  0  0  0  0  0
  1  8  1  0  0  0  0
  1 13  1  0  0  0  0
  2  9  2  0  0  0  0
  3  9  1  0  0  0  0
  3 10  1  0  0  0  0
  3 11  1  0  0  0  0
  4 13  1  0  0  0  0
  4 14  1  0  0  0  0
  4 19  1  0  0  0  0
  5  6  1  0  0  0  0
  5 13  2  0  0  0  0
  6 14  2  0  0  0  0
  7 24  1  0  0  0  0
  7 26  2  0  0  0  0
  8  9  1  0  0  0  0
  8 12  1  0  0  0  0
  8 27  1  0  0  0  0
 10 15  1  0  0  0  0
 10 28  1  0  0  0  0
 10 29  1  0  0  0  0
 11 16  2  0  0  0  0
 11 17  1  0  0  0  0
 12 30  1  0  0  0  0
 12 31  1  0  0  0  0
 12 32  1  0  0  0  0
 14 18  1  0  0  0  0
 15 33  1  0  0  0  0
 15 34  1  0  0  0  0
 15 35  1  0  0  0  0
 16 20  1  0  0  0  0
 16 36  1  0  0  0  0
 17 21  2  0  0  0  0
 17 37  1  0  0  0  0
 18 23  1  0  0  0  0
 18 24  2  0  0  0  0
 19 38  1  0  0  0  0
 19 39  1  0  0  0  0
 19 40  1  0  0  0  0
 20 22  2  0  0  0  0
 20 41  1  0  0  0  0
 21 22  1  0  0  0  0
 21 42  1  0  0  0  0
 22 43  1  0  0  0  0
 23 25  2  0  0  0  0
 23 44  1  0  0  0  0
 24 45  1  0  0  0  0
 25 26  1  0  0  0  0
 25 46  1  0  0  0  0
 26 47  1  0  0  0  0
M  END
> <PUBCHEM_COMPOUND_CID>
17395573

> <PUBCHEM_CONFORMER_RMSD>
1

> <PUBCHEM_CONFORMER_DIVERSEORDER>
3
124
167
234
190
243
107
44
246
33
30
258
50
170
202
199
110
14
75
161
208
138
64
27
45
59
77
74
159
177
98
58
237
242
129
144
263
244
12
119
261
155
206
122
178
175
149
174
235
5
224
152
82
268
28
222
264
114
15
6
185
147
102
78
17
20
137
191
115
213
194
253
68
25
192
157
275
8
94
271
51
229
35
26
71
1
29
54
154
172
207
88
95
255
151
239
140
197
91
106
198
67
101
105
186
62
118
111
153
273
212
39
269
76
267
181
203
260
104
80
220
136
127
4
241
252
103
166
81
134
7
112
55
173
188
219
158
66
38
10
141
187
232
236
18
227
61
171
60
223
22
2
259
257
36
121
210
123
100
209
201
249
184
221
43
225
48
245
109
270
247
73
96
9
164
217
93
108
13
182
250
69
133
200
214
139
99
205
97
240
79
31
195
180
162
143
128
16
233
34
163
135
130
87
189
120
179
176
204
183
256
248
148
145
238
21
24
47
132
72
19
37
32
266
83
228
215
276
169
272
146
142
84
251
52
23
274
89
218
65
156
116
85
41
70
262
11
92
126
53
49
254
196
168
40
216
113
90
57
117
165
231
56
211
150
63
265
86
160
46
42
226
131
125
230
193

> <PUBCHEM_MMFF94_PARTIAL_CHARGES>
33
1 -0.29
10 0.3
11 0.12
13 0.24
14 0.13
16 -0.15
17 -0.15
18 0.05
19 0.26
2 -0.57
20 -0.15
21 -0.15
22 -0.15
23 -0.15
24 0.16
25 -0.15
26 0.16
3 -0.48
36 0.15
37 0.15
4 0.05
41 0.15
42 0.15
43 0.15
44 0.15
45 0.15
46 0.15
47 0.15
5 -0.34
6 -0.34
7 -0.62
8 0.29
9 0.57

> <PUBCHEM_EFFECTIVE_ROTOR_COUNT>
7

> <PUBCHEM_PHARMACOPHORE_FEATURES>
8
1 12 hydrophobe
1 2 acceptor
1 7 acceptor
3 4 5 13 cation
3 4 6 14 cation
5 4 5 6 13 14 rings
6 11 16 17 20 21 22 rings
6 7 18 23 24 25 26 rings

> <PUBCHEM_HEAVY_ATOM_COUNT>
26

> <PUBCHEM_ATOM_DEF_STEREO_COUNT>
0

> <PUBCHEM_ATOM_UDEF_STEREO_COUNT>
1

> <PUBCHEM_BOND_DEF_STEREO_COUNT>
0

> <PUBCHEM_BOND_UDEF_STEREO_COUNT>
0

> <PUBCHEM_ISOTOPIC_ATOM_COUNT>
0

> <PUBCHEM_COMPONENT_COUNT>
1

> <PUBCHEM_CACTVS_TAUTO_COUNT>
1

> <PUBCHEM_CONFORMER_ID>
01096F7500000003

> <PUBCHEM_MMFF94_ENERGY>
82.1052

> <PUBCHEM_FEATURE_SELFOVERLAP>
43.097

> <PUBCHEM_SHAPE_FINGERPRINT>
12156800 1 17252831332563335821
12403259 327 17489590034787362194
12422481 6 18268455532093968968
12596602 18 12535048868191671381
12633257 1 18340500962615754484
12788726 201 17910948364398218370
13075007 39 17988628680374206161
13134695 92 18339356486727424151
13140716 1 18269275660056399393
13402501 40 18272938253489888565
13583140 156 17774737406605746795
15081414 286 18410008875135720892
151778 21 18198331858724347061
15210252 30 17916565648939512236
15238133 3 17704071841015933688
15420108 30 18120387454035568480
1601671 61 18411981343451318652
17980427 23 17971493822526647640
18785283 64 18200021846771601625
20567600 299 18408610262086113513
20715895 44 18408327705020016833
21033648 29 17988080118861828431
21475661 188 18131075926685942221
21860390 5 18409166593183293108
22149856 69 17750495323277761299
23227448 37 18339643335341373879
23419403 2 17317921240402304018
23559900 14 18411130372807067723
340366 18 18187642526669135847
474 4 18408323255038103259
508706 21 17702670015969151525
513532 50 17894906360661759436
5939293 188 18341896255824914716
6443956 14 18339919428085739749
9981440 41 17904769868847261968

> <PUBCHEM_SHAPE_MULTIPOLES>
508.14
9.61
4.31
1.48
11.68
2.24
-0.1
0.84
-2.56
-4.65
1.48
-0.18
-0.15
0.68

> <PUBCHEM_SHAPE_SELFOVERLAP>
1068.524

> <PUBCHEM_SHAPE_VOLUME>
289.6

> <PUBCHEM_COORDINATE_TYPE>
2
5
10

$$$$

