5804
  -OEChem-06261200533D

 33 34  0     0  0  0  0  0  0999 V2000
   -0.6597   -1.5891    3.0502 I   0  0  0  0  0  0  0  0  0  0  0  0
   -0.6450   -1.5696   -3.0527 I   0  0  0  0  0  0  0  0  0  0  0  0
   -2.3003    3.5343    0.0076 I   0  0  0  0  0  0  0  0  0  0  0  0
   -1.6982   -1.8245   -0.0045 O   0  0  0  0  0  0  0  0  0  0  0  0
    5.8384    2.5913    0.0334 O   0  0  0  0  0  0  0  0  0  0  0  0
    6.4249    0.3986   -0.0507 O   0  0  0  0  0  0  0  0  0  0  0  0
   -5.3333    2.3212   -0.0031 O   0  0  0  0  0  0  0  0  0  0  0  0
    3.7995   -0.5337    0.0127 C   0  0  0  0  0  0  0  0  0  0  0  0
    2.3473   -0.8741    0.0081 C   0  0  0  0  0  0  0  0  0  0  0  0
    4.0799    0.9736    0.0184 C   0  0  0  0  0  0  0  0  0  0  0  0
    1.6714   -1.0297   -1.2020 C   0  0  0  0  0  0  0  0  0  0  0  0
    1.6655   -1.0372    1.2140 C   0  0  0  0  0  0  0  0  0  0  0  0
   -0.3685   -1.5114   -0.0003 C   0  0  0  0  0  0  0  0  0  0  0  0
    0.3076   -1.3560    1.2097 C   0  0  0  0  0  0  0  0  0  0  0  0
    0.3134   -1.3483   -1.2062 C   0  0  0  0  0  0  0  0  0  0  0  0
   -2.6009   -0.7775   -0.0039 C   0  0  0  0  0  0  0  0  0  0  0  0
    5.5607    1.2651   -0.0131 C   0  0  0  0  0  0  0  0  0  0  0  0
   -2.1281    0.5236    0.0005 C   0  0  0  0  0  0  0  0  0  0  0  0
   -3.9570   -1.0551   -0.0081 C   0  0  0  0  0  0  0  0  0  0  0  0
   -3.0395    1.5795    0.0008 C   0  0  0  0  0  0  0  0  0  0  0  0
   -4.8684    0.0010   -0.0078 C   0  0  0  0  0  0  0  0  0  0  0  0
   -4.4096    1.3182   -0.0032 C   0  0  0  0  0  0  0  0  0  0  0  0
    4.2822   -1.0021    0.8813 H   0  0  0  0  0  0  0  0  0  0  0  0
    4.2830   -0.9969   -0.8583 H   0  0  0  0  0  0  0  0  0  0  0  0
    3.6213    1.4451   -0.8581 H   0  0  0  0  0  0  0  0  0  0  0  0
    3.6588    1.4287    0.9221 H   0  0  0  0  0  0  0  0  0  0  0  0
    2.2127   -0.8980   -2.1363 H   0  0  0  0  0  0  0  0  0  0  0  0
    2.2023   -0.9114    2.1517 H   0  0  0  0  0  0  0  0  0  0  0  0
   -1.0742    0.7788    0.0039 H   0  0  0  0  0  0  0  0  0  0  0  0
   -4.3156   -2.0800   -0.0117 H   0  0  0  0  0  0  0  0  0  0  0  0
   -5.9343   -0.2106   -0.0111 H   0  0  0  0  0  0  0  0  0  0  0  0
    6.8040    2.7639    0.0251 H   0  0  0  0  0  0  0  0  0  0  0  0
   -4.8591    3.1706    0.0003 H   0  0  0  0  0  0  0  0  0  0  0  0
  1 14  1  0  0  0  0
  2 15  1  0  0  0  0
  3 20  1  0  0  0  0
  4 13  1  0  0  0  0
  4 16  1  0  0  0  0
  5 17  1  0  0  0  0
  5 32  1  0  0  0  0
  6 17  2  0  0  0  0
  7 22  1  0  0  0  0
  7 33  1  0  0  0  0
  8  9  1  0  0  0  0
  8 10  1  0  0  0  0
  8 23  1  0  0  0  0
  8 24  1  0  0  0  0
  9 11  2  0  0  0  0
  9 12  1  0  0  0  0
 10 17  1  0  0  0  0
 10 25  1  0  0  0  0
 10 26  1  0  0  0  0
 11 15  1  0  0  0  0
 11 27  1  0  0  0  0
 12 14  2  0  0  0  0
 12 28  1  0  0  0  0
 13 14  1  0  0  0  0
 13 15  2  0  0  0  0
 16 18  2  0  0  0  0
 16 19  1  0  0  0  0
 18 20  1  0  0  0  0
 18 29  1  0  0  0  0
 19 21  2  0  0  0  0
 19 30  1  0  0  0  0
 20 22  2  0  0  0  0
 21 22  1  0  0  0  0
 21 31  1  0  0  0  0
M  END
> <PUBCHEM_COMPOUND_CID>
5804

> <PUBCHEM_CONFORMER_RMSD>
0.8

> <PUBCHEM_CONFORMER_DIVERSEORDER>
1
27
12
26
6
24
19
11
31
23
7
10
28
9
4
8
17
18
15
14
22
20
13
30
5
16
21
25
29
2
3

> <PUBCHEM_MMFF94_PARTIAL_CHARGES>
29
1 -0.08
10 0.06
11 -0.15
12 -0.15
13 0.08
14 0.08
15 0.08
16 0.08
17 0.66
18 -0.15
19 -0.15
2 -0.08
20 0.08
21 -0.15
22 0.08
27 0.15
28 0.15
29 0.15
3 -0.08
30 0.15
31 0.15
32 0.5
33 0.45
4 -0.17
5 -0.65
6 -0.57
7 -0.53
8 0.14
9 -0.14

> <PUBCHEM_EFFECTIVE_ROTOR_COUNT>
5

> <PUBCHEM_PHARMACOPHORE_FEATURES>
10
1 1 hydrophobe
1 2 hydrophobe
1 3 hydrophobe
1 4 acceptor
1 5 acceptor
1 6 acceptor
1 7 donor
3 5 6 17 anion
6 16 18 19 20 21 22 rings
6 9 11 12 13 14 15 rings

> <PUBCHEM_HEAVY_ATOM_COUNT>
22

> <PUBCHEM_ATOM_DEF_STEREO_COUNT>
0

> <PUBCHEM_ATOM_UDEF_STEREO_COUNT>
0

> <PUBCHEM_BOND_DEF_STEREO_COUNT>
0

> <PUBCHEM_BOND_UDEF_STEREO_COUNT>
0

> <PUBCHEM_ISOTOPIC_ATOM_COUNT>
0

> <PUBCHEM_COMPONENT_COUNT>
1

> <PUBCHEM_CACTVS_TAUTO_COUNT>
3

> <PUBCHEM_CONFORMER_ID>
000016AC00000001

> <PUBCHEM_MMFF94_ENERGY>
64.1739

> <PUBCHEM_FEATURE_SELFOVERLAP>
50.801

> <PUBCHEM_SHAPE_FINGERPRINT>
10165383 225 17240479209095308039
10498660 4 18266459987493939693
11796584 16 9871477516664345393
12596602 18 17418096507299289912
12895836 83 17749677302803400044
12895837 130 18044941173751243588
12969540 114 16588034502130174510
13140716 1 15553592981993469134
13402501 40 18334576828357204000
13911987 19 16660360372504616974
13965767 371 16980392173054898541
14251751 18 9511460030809661848
14341114 328 18272374204161775313
14739800 52 18341065055431423296
14787075 74 18202004287568601225
15163728 17 17895742010715346109
15209294 21 17918278640726459026
15238133 3 18060128826623178796
15961568 22 18409728490938772821
17980427 23 18412823577932488245
17980427 26 18198918078663125582
20511986 3 17702959144703618623
21637258 2 9079114423521456690
21756936 100 18338526252928328974
21857420 4 5091556057727534400
23114952 82 17315911345936698599
23227448 37 18335984151468320220
23559900 14 18046060729448058415
244849 19 18126819751498149978
2838139 119 18335425655776163108
2916195 48 18343019982209033560
3472631 163 18338800147430395101
392239 28 17917132911118979529
4340502 62 16844429713860176937
44802255 64 17968650515917564638
46194498 28 17533774073069190165
474 4 17917988360892419526
484985 159 14087684128030494349
5104073 3 17917428769640685595
7237137 82 16806734962776455166
7808743 9 18409171043006723297
9981440 41 18343575231228597522

> <PUBCHEM_SHAPE_MULTIPOLES>
465.08
11.19
3.14
2.21
12.63
3.21
-0.02
9.8
-0.03
-1.32
0.04
-0.34
-2.33
0.01

> <PUBCHEM_SHAPE_SELFOVERLAP>
927.141

> <PUBCHEM_SHAPE_VOLUME>
284.1

> <PUBCHEM_COORDINATE_TYPE>
2
5
10

$$$$

