25203497
  -OEChem-07051213102D

 25 24  0     1  0  0  0  0  0999 V2000
    3.4030   -1.9050    0.0000 S   0  0  0  0  0  0  0  0  0  0  0  0
    5.1350    2.0950    0.0000 O   0  0  0  0  0  0  0  0  0  0  0  0
    2.5369    0.5950    0.0000 O   0  0  0  0  0  0  0  0  0  0  0  0
    3.4030    2.0950    0.0000 O   0  0  0  0  0  0  0  0  0  0  0  0
    6.8671    1.0950    0.0000 O   0  0  0  0  0  0  0  0  0  0  0  0
    6.0010   -0.4050    0.0000 O   0  0  0  0  0  0  0  0  0  0  0  0
    4.2690    0.5950    0.0000 C   0  0  3  0  0  0  0  0  0  0  0  0
    4.2690   -0.4050    0.0000 C   0  0  0  0  0  0  0  0  0  0  0  0
    5.1350    1.0950    0.0000 C   0  0  3  0  0  0  0  0  0  0  0  0
    3.4030   -0.9050    0.0000 C   0  0  0  0  0  0  0  0  0  0  0  0
    3.4030    1.0950    0.0000 C   0  0  0  0  0  0  0  0  0  0  0  0
    6.0010    0.5950    0.0000 C   0  0  0  0  0  0  0  0  0  0  0  0
    2.5369   -2.4050    0.0000 C   0  0  0  0  0  0  0  0  0  0  0  0
    4.2690    1.4450    0.0000 H   0  0  0  0  0  0  0  0  0  0  0  0
    4.4810   -0.9876    0.0000 H   0  0  0  0  0  0  0  0  0  0  0  0
    4.8796   -0.2973    0.0000 H   0  0  0  0  0  0  0  0  0  0  0  0
    5.8711    1.5200    0.0000 H   0  0  0  0  0  0  0  0  0  0  0  0
    3.1909   -0.3224    0.0000 H   0  0  0  0  0  0  0  0  0  0  0  0
    2.7924   -1.0127    0.0000 H   0  0  0  0  0  0  0  0  0  0  0  0
    5.6720    2.4050    0.0000 H   0  0  0  0  0  0  0  0  0  0  0  0
    2.0000    0.9050    0.0000 H   0  0  0  0  0  0  0  0  0  0  0  0
    2.2269   -1.8681    0.0000 H   0  0  0  0  0  0  0  0  0  0  0  0
    2.0000   -2.7150    0.0000 H   0  0  0  0  0  0  0  0  0  0  0  0
    2.8469   -2.9419    0.0000 H   0  0  0  0  0  0  0  0  0  0  0  0
    7.4040    0.7850    0.0000 H   0  0  0  0  0  0  0  0  0  0  0  0
  1 10  1  0  0  0  0
  1 13  1  0  0  0  0
  2  9  1  0  0  0  0
  2 20  1  0  0  0  0
  3 11  1  0  0  0  0
  3 21  1  0  0  0  0
  4 11  2  0  0  0  0
  5 12  1  0  0  0  0
  5 25  1  0  0  0  0
  6 12  2  0  0  0  0
  7  8  1  0  0  0  0
  7  9  1  0  0  0  0
  7 11  1  0  0  0  0
  7 14  1  0  0  0  0
  8 10  1  0  0  0  0
  8 15  1  0  0  0  0
  8 16  1  0  0  0  0
  9 12  1  0  0  0  0
  9 17  1  0  0  0  0
 10 18  1  0  0  0  0
 10 19  1  0  0  0  0
 13 22  1  0  0  0  0
 13 23  1  0  0  0  0
 13 24  1  0  0  0  0
M  END
> <PUBCHEM_COMPOUND_CID>
25203497

> <PUBCHEM_COMPOUND_CANONICALIZED>
1

> <PUBCHEM_CACTVS_COMPLEXITY>
193

> <PUBCHEM_CACTVS_HBOND_ACCEPTOR>
6

> <PUBCHEM_CACTVS_HBOND_DONOR>
3

> <PUBCHEM_CACTVS_ROTATABLE_BOND>
6

> <PUBCHEM_CACTVS_SUBSKEYS>
AAADccBgOABAAAAAAAAAAAAAAAAAAAAAAAAAAAAAAAAAAAAAAAAAGgQACAAADRSkwAKCCAAAAggIAACQCAIAAAAAABAAAAFAAAABEBYgAAAAQAAFIAABAADLAAAKAAAAAAAAAAAAAAAAAAAAAAAAAAAAAA==

> <PUBCHEM_IUPAC_OPENEYE_NAME>
2-hydroxy-3-(2-methylsulfanylethyl)butanedioic acid

> <PUBCHEM_IUPAC_CAS_NAME>
2-hydroxy-3-[2-(methylthio)ethyl]butanedioic acid

> <PUBCHEM_IUPAC_NAME>
2-hydroxy-3-(2-methylsulfanylethyl)butanedioic acid

> <PUBCHEM_IUPAC_SYSTEMATIC_NAME>
2-(2-methylsulfanylethyl)-3-oxidanyl-butanedioic acid

> <PUBCHEM_IUPAC_TRADITIONAL_NAME>
2-hydroxy-3-[2-(methylthio)ethyl]succinic acid

> <PUBCHEM_IUPAC_INCHI>
InChI=1S/C7H12O5S/c1-13-3-2-4(6(9)10)5(8)7(11)12/h4-5,8H,2-3H2,1H3,(H,9,10)(H,11,12)

> <PUBCHEM_IUPAC_INCHIKEY>
UZRMQJKPFRLIDG-UHFFFAOYSA-N

> <PUBCHEM_XLOGP3_AA>
-0.3

> <PUBCHEM_EXACT_MASS>
208.040544

> <PUBCHEM_MOLECULAR_FORMULA>
C7H12O5S

> <PUBCHEM_MOLECULAR_WEIGHT>
208.23218

> <PUBCHEM_OPENEYE_CAN_SMILES>
CSCCC(C(C(=O)O)O)C(=O)O

> <PUBCHEM_OPENEYE_ISO_SMILES>
CSCCC(C(C(=O)O)O)C(=O)O

> <PUBCHEM_CACTVS_TPSA>
120

> <PUBCHEM_MONOISOTOPIC_WEIGHT>
208.040544

> <PUBCHEM_TOTAL_CHARGE>
0

> <PUBCHEM_HEAVY_ATOM_COUNT>
13

> <PUBCHEM_ATOM_DEF_STEREO_COUNT>
0

> <PUBCHEM_ATOM_UDEF_STEREO_COUNT>
2

> <PUBCHEM_BOND_DEF_STEREO_COUNT>
0

> <PUBCHEM_BOND_UDEF_STEREO_COUNT>
0

> <PUBCHEM_ISOTOPIC_ATOM_COUNT>
0

> <PUBCHEM_COMPONENT_COUNT>
1

> <PUBCHEM_CACTVS_TAUTO_COUNT>
1

> <PUBCHEM_COORDINATE_TYPE>
1
5
255

> <PUBCHEM_BONDANNOTATIONS>
7  14  3
9  17  3

$$$$

