3132
  -OEChem-07051212463D

 32 32  0     1  0  0  0  0  0999 V2000
    0.9911    3.2784    0.9883 S   0  0  0  0  0  0  0  0  0  0  0  0
    0.6581   -0.1449    1.0801 O   0  0  0  0  0  0  0  0  0  0  0  0
    4.0544    0.5096    0.1848 O   0  0  0  0  0  0  0  0  0  0  0  0
    4.9055   -1.5582    0.5690 O   0  0  0  0  0  0  0  0  0  0  0  0
    1.8389   -0.3424   -0.9058 N   0  0  0  0  0  0  0  0  0  0  0  0
    0.0316    1.2811   -0.7849 C   0  0  1  0  0  0  0  0  0  0  0  0
   -1.1396    0.6456   -1.5665 C   0  0  0  0  0  0  0  0  0  0  0  0
   -0.3903    2.3855    0.2055 C   0  0  0  0  0  0  0  0  0  0  0  0
   -2.1598   -0.0421   -0.6924 C   0  0  0  0  0  0  0  0  0  0  0  0
    0.8600    0.1965   -0.0836 C   0  0  0  0  0  0  0  0  0  0  0  0
   -1.9997   -1.3848   -0.3881 C   0  0  0  0  0  0  0  0  0  0  0  0
   -3.2392    0.6811   -0.2098 C   0  0  0  0  0  0  0  0  0  0  0  0
    2.7416   -1.3827   -0.4706 C   0  0  0  0  0  0  0  0  0  0  0  0
   -2.9429   -2.0206    0.4193 C   0  0  0  0  0  0  0  0  0  0  0  0
   -4.1824    0.0455    0.5978 C   0  0  0  0  0  0  0  0  0  0  0  0
   -4.0342   -1.3054    0.9122 C   0  0  0  0  0  0  0  0  0  0  0  0
    4.0068   -0.8423    0.1446 C   0  0  0  0  0  0  0  0  0  0  0  0
    0.6783    1.7579   -1.5358 H   0  0  0  0  0  0  0  0  0  0  0  0
   -1.6384    1.4197   -2.1646 H   0  0  0  0  0  0  0  0  0  0  0  0
   -0.7496   -0.0775   -2.2955 H   0  0  0  0  0  0  0  0  0  0  0  0
   -0.9884    1.9700    1.0225 H   0  0  0  0  0  0  0  0  0  0  0  0
   -1.0069    3.1281   -0.3118 H   0  0  0  0  0  0  0  0  0  0  0  0
   -1.1565   -1.9534   -0.7695 H   0  0  0  0  0  0  0  0  0  0  0  0
   -3.3664    1.7326   -0.4505 H   0  0  0  0  0  0  0  0  0  0  0  0
    1.9417    0.0049   -1.8547 H   0  0  0  0  0  0  0  0  0  0  0  0
    3.0063   -1.9712   -1.3535 H   0  0  0  0  0  0  0  0  0  0  0  0
    2.2368   -2.0137    0.2668 H   0  0  0  0  0  0  0  0  0  0  0  0
   -2.8280   -3.0726    0.6636 H   0  0  0  0  0  0  0  0  0  0  0  0
   -5.0325    0.6022    0.9811 H   0  0  0  0  0  0  0  0  0  0  0  0
    1.5264    3.7560   -0.1448 H   0  0  0  0  0  0  0  0  0  0  0  0
   -4.7688   -1.8004    1.5407 H   0  0  0  0  0  0  0  0  0  0  0  0
    4.8859    0.8360    0.5900 H   0  0  0  0  0  0  0  0  0  0  0  0
  1  8  1  0  0  0  0
  1 30  1  0  0  0  0
  2 10  2  0  0  0  0
  3 17  1  0  0  0  0
  3 32  1  0  0  0  0
  4 17  2  0  0  0  0
  5 10  1  0  0  0  0
  5 13  1  0  0  0  0
  5 25  1  0  0  0  0
  6  7  1  0  0  0  0
  6  8  1  0  0  0  0
  6 10  1  0  0  0  0
  6 18  1  0  0  0  0
  7  9  1  0  0  0  0
  7 19  1  0  0  0  0
  7 20  1  0  0  0  0
  8 21  1  0  0  0  0
  8 22  1  0  0  0  0
  9 11  2  0  0  0  0
  9 12  1  0  0  0  0
 11 14  1  0  0  0  0
 11 23  1  0  0  0  0
 12 15  2  0  0  0  0
 12 24  1  0  0  0  0
 13 17  1  0  0  0  0
 13 26  1  0  0  0  0
 13 27  1  0  0  0  0
 14 16  2  0  0  0  0
 14 28  1  0  0  0  0
 15 16  1  0  0  0  0
 15 29  1  0  0  0  0
 16 31  1  0  0  0  0
M  END
> <PUBCHEM_COMPOUND_CID>
3132

> <PUBCHEM_CONFORMER_RMSD>
0.8

> <PUBCHEM_CONFORMER_DIVERSEORDER>
1
39
77
129
141
130
41
21
125
142
126
76
117
22
108
29
57
101
59
43
70
94
28
85
96
19
110
102
105
137
68
60
148
5
49
121
99
111
134
120
93
31
80
78
128
20
72
104
54
153
27
2
46
47
91
149
119
11
143
97
144
82
25
30
67
4
113
131
58
135
151
13
140
45
9
34
35
23
36
40
52
124
33
65
44
127
95
64
92
84
8
66
48
98
132
83
75
16
6
109
74
152
50
17
138
112
79
32
69
150
10
100
61
146
24
107
42
147
103
114
86
89
53
139
81
115
71
106
37
7
14
51
3
136
87
62
118
133
90
38
18
26
123
15
116
55
73
88
12
122
145
56
63

> <PUBCHEM_MMFF94_PARTIAL_CHARGES>
25
1 -0.41
10 0.57
11 -0.15
12 -0.15
13 0.36
14 -0.15
15 -0.15
16 -0.15
17 0.66
2 -0.57
23 0.15
24 0.15
25 0.37
28 0.15
29 0.15
3 -0.65
30 0.18
31 0.15
32 0.5
4 -0.57
5 -0.73
6 0.06
7 0.14
8 0.23
9 -0.14

> <PUBCHEM_EFFECTIVE_ROTOR_COUNT>
7

> <PUBCHEM_PHARMACOPHORE_FEATURES>
6
1 2 acceptor
1 3 acceptor
1 4 acceptor
1 5 donor
3 3 4 17 anion
6 9 11 12 14 15 16 rings

> <PUBCHEM_HEAVY_ATOM_COUNT>
17

> <PUBCHEM_ATOM_DEF_STEREO_COUNT>
0

> <PUBCHEM_ATOM_UDEF_STEREO_COUNT>
1

> <PUBCHEM_BOND_DEF_STEREO_COUNT>
0

> <PUBCHEM_BOND_UDEF_STEREO_COUNT>
0

> <PUBCHEM_ISOTOPIC_ATOM_COUNT>
0

> <PUBCHEM_COMPONENT_COUNT>
1

> <PUBCHEM_CACTVS_TAUTO_COUNT>
2

> <PUBCHEM_CONFORMER_ID>
00000C3C00000001

> <PUBCHEM_MMFF94_ENERGY>
35.7263

> <PUBCHEM_FEATURE_SELFOVERLAP>
30.505

> <PUBCHEM_SHAPE_FINGERPRINT>
10465860 250 18410013259996389974
10922049 32 9511458922555066744
12633257 1 18115849846762326203
12714826 92 17988934404514632677
12892183 10 17023453244328427383
13533116 47 18193556654371661587
14787075 74 18129100027007446816
15209289 33 17988639666784602083
15375462 189 18202003235064516274
15527383 91 18410288078201248193
17804303 29 18341605997951151303
17841504 4 18264203626213879045
18186145 218 12463562967742525863
18785283 64 18052543166827857720
19422 9 17917417705968272447
200 152 15697995271215387958
20281475 54 18272367525345244215
20300324 65 9439399121331352939
20600515 1 18267010829523526325
20681677 274 18193552273314810523
21041028 32 18260824891158806977
21061003 4 18335709329390760589
2297311 6 18262787580012966670
23175994 123 18334573572771279013
23402539 116 18262529194084015967
23557571 272 18115865381695842148
23558518 356 17540249178359903900
23559900 14 18341057431980477726
26918003 58 18341901839371869046
305870 269 17755865212526972497
3286 77 18340483349160556375
351380 180 8862940559076290950
458136 41 17836357155718838893
5902787 121 18341335517658065194
633830 44 12534790542524034046
7364860 26 18191021192936262905
81228 2 17899395760900901960
83771 10 18343863307675114415

> <PUBCHEM_SHAPE_MULTIPOLES>
331.11
8.05
2.67
1.11
3.86
2.13
-0.15
-5.2
2.13
0.92
0.82
-0.27
0.18
0.54

> <PUBCHEM_SHAPE_SELFOVERLAP>
662.977

> <PUBCHEM_SHAPE_VOLUME>
195.7

> <PUBCHEM_COORDINATE_TYPE>
2
5
10

$$$$

