44558885
  -OEChem-07051213153D

 44 45  0     1  0  0  0  0  0999 V2000
   -0.2494    0.9969    0.5164 O   0  0  0  0  0  0  0  0  0  0  0  0
    1.2383   -0.7261   -0.0001 O   0  0  0  0  0  0  0  0  0  0  0  0
   -3.1639   -1.2385    0.8286 O   0  0  0  0  0  0  0  0  0  0  0  0
   -1.8730    1.7913   -1.6924 O   0  0  0  0  0  0  0  0  0  0  0  0
    1.7997    2.8928   -0.0088 O   0  0  0  0  0  0  0  0  0  0  0  0
    4.4629    1.8380    0.3919 O   0  0  0  0  0  0  0  0  0  0  0  0
    3.7972   -0.7147    1.2689 O   0  0  0  0  0  0  0  0  0  0  0  0
   -3.4726   -0.4741   -1.9247 O   0  0  0  0  0  0  0  0  0  0  0  0
   -4.6641    0.5217    1.3597 O   0  0  0  0  0  0  0  0  0  0  0  0
    1.6799   -3.2943   -1.3920 O   0  0  0  0  0  0  0  0  0  0  0  0
   -1.3583    0.2238    0.0640 C   0  0  2  0  0  0  0  0  0  0  0  0
    0.9432    0.6568   -0.1904 C   0  0  2  0  0  0  0  0  0  0  0  0
   -2.4001    1.1806   -0.5168 C   0  0  2  0  0  0  0  0  0  0  0  0
    2.0741    1.5375    0.3458 C   0  0  1  0  0  0  0  0  0  0  0  0
    3.4157    1.1217   -0.2567 C   0  0  2  0  0  0  0  0  0  0  0  0
   -1.9635   -0.5704    1.2299 C   0  0  2  0  0  0  0  0  0  0  0  0
    3.6397   -0.3838   -0.1123 C   0  0  2  0  0  0  0  0  0  0  0  0
    2.4326   -1.1437   -0.6731 C   0  0  1  0  0  0  0  0  0  0  0  0
   -3.6968    0.4410   -0.8508 C   0  0  2  0  0  0  0  0  0  0  0  0
   -4.1909   -0.3632    0.3503 C   0  0  1  0  0  0  0  0  0  0  0  0
   -1.0087   -1.6424    1.7481 C   0  0  0  0  0  0  0  0  0  0  0  0
    2.5578   -2.6511   -0.4853 C   0  0  0  0  0  0  0  0  0  0  0  0
   -1.0675   -0.4721   -0.7362 H   0  0  0  0  0  0  0  0  0  0  0  0
    0.7785    0.8571   -1.2580 H   0  0  0  0  0  0  0  0  0  0  0  0
   -2.5958    1.9875    0.2004 H   0  0  0  0  0  0  0  0  0  0  0  0
    2.1135    1.4995    1.4407 H   0  0  0  0  0  0  0  0  0  0  0  0
    3.4461    1.4034   -1.3168 H   0  0  0  0  0  0  0  0  0  0  0  0
   -2.1903    0.1002    2.0687 H   0  0  0  0  0  0  0  0  0  0  0  0
    4.5663   -0.6714   -0.6223 H   0  0  0  0  0  0  0  0  0  0  0  0
    2.3154   -0.9219   -1.7424 H   0  0  0  0  0  0  0  0  0  0  0  0
   -4.4510    1.1628   -1.1848 H   0  0  0  0  0  0  0  0  0  0  0  0
   -5.0277   -1.0008    0.0432 H   0  0  0  0  0  0  0  0  0  0  0  0
   -0.1004   -1.2057    2.1723 H   0  0  0  0  0  0  0  0  0  0  0  0
   -0.7371   -2.3466    0.9542 H   0  0  0  0  0  0  0  0  0  0  0  0
   -1.4961   -2.2338    2.5316 H   0  0  0  0  0  0  0  0  0  0  0  0
    3.5726   -2.9927   -0.7119 H   0  0  0  0  0  0  0  0  0  0  0  0
    2.2841   -2.9581    0.5294 H   0  0  0  0  0  0  0  0  0  0  0  0
   -2.5558    2.3884   -2.0428 H   0  0  0  0  0  0  0  0  0  0  0  0
    1.7585    2.9488   -0.9787 H   0  0  0  0  0  0  0  0  0  0  0  0
    5.3032    1.5484   -0.0026 H   0  0  0  0  0  0  0  0  0  0  0  0
    4.1127   -1.6326    1.3207 H   0  0  0  0  0  0  0  0  0  0  0  0
   -4.3256   -0.8880   -2.1407 H   0  0  0  0  0  0  0  0  0  0  0  0
   -5.3290    0.0369    1.8773 H   0  0  0  0  0  0  0  0  0  0  0  0
    1.7778   -4.2522   -1.2560 H   0  0  0  0  0  0  0  0  0  0  0  0
  1 11  1  0  0  0  0
  1 12  1  0  0  0  0
  2 12  1  0  0  0  0
  2 18  1  0  0  0  0
  3 16  1  0  0  0  0
  3 20  1  0  0  0  0
  4 13  1  0  0  0  0
  4 38  1  0  0  0  0
  5 14  1  0  0  0  0
  5 39  1  0  0  0  0
  6 15  1  0  0  0  0
  6 40  1  0  0  0  0
  7 17  1  0  0  0  0
  7 41  1  0  0  0  0
  8 19  1  0  0  0  0
  8 42  1  0  0  0  0
  9 20  1  0  0  0  0
  9 43  1  0  0  0  0
 10 22  1  0  0  0  0
 10 44  1  0  0  0  0
 11 13  1  0  0  0  0
 11 16  1  0  0  0  0
 11 23  1  0  0  0  0
 12 14  1  0  0  0  0
 12 24  1  0  0  0  0
 13 19  1  0  0  0  0
 13 25  1  0  0  0  0
 14 15  1  0  0  0  0
 14 26  1  0  0  0  0
 15 17  1  0  0  0  0
 15 27  1  0  0  0  0
 16 21  1  0  0  0  0
 16 28  1  0  0  0  0
 17 18  1  0  0  0  0
 17 29  1  0  0  0  0
 18 22  1  0  0  0  0
 18 30  1  0  0  0  0
 19 20  1  0  0  0  0
 19 31  1  0  0  0  0
 20 32  1  0  0  0  0
 21 33  1  0  0  0  0
 21 34  1  0  0  0  0
 21 35  1  0  0  0  0
 22 36  1  0  0  0  0
 22 37  1  0  0  0  0
M  END
> <PUBCHEM_COMPOUND_CID>
44558885

> <PUBCHEM_CONFORMER_RMSD>
0.8

> <PUBCHEM_CONFORMER_DIVERSEORDER>
1
10
21
30
29
11
24
22
8
5
27
28
25
12
26
23
7
4
16
31
18
20
9
6
17
14
3
19
13
15
2

> <PUBCHEM_MMFF94_PARTIAL_CHARGES>
28
1 -0.56
10 -0.68
11 0.28
12 0.56
13 0.28
14 0.28
15 0.28
16 0.28
17 0.28
18 0.28
19 0.28
2 -0.56
20 0.56
22 0.28
3 -0.56
38 0.4
39 0.4
4 -0.68
40 0.4
41 0.4
42 0.4
43 0.4
44 0.4
5 -0.68
6 -0.68
7 -0.68
8 -0.68
9 -0.68

> <PUBCHEM_EFFECTIVE_ROTOR_COUNT>
5.4

> <PUBCHEM_PHARMACOPHORE_FEATURES>
19
1 1 acceptor
1 10 acceptor
1 10 donor
1 2 acceptor
1 3 acceptor
1 4 acceptor
1 4 donor
1 5 acceptor
1 5 donor
1 6 acceptor
1 6 donor
1 7 acceptor
1 7 donor
1 8 acceptor
1 8 donor
1 9 acceptor
1 9 donor
6 2 12 14 15 17 18 rings
6 3 11 13 16 19 20 rings

> <PUBCHEM_HEAVY_ATOM_COUNT>
22

> <PUBCHEM_ATOM_DEF_STEREO_COUNT>
9

> <PUBCHEM_ATOM_UDEF_STEREO_COUNT>
1

> <PUBCHEM_BOND_DEF_STEREO_COUNT>
0

> <PUBCHEM_BOND_UDEF_STEREO_COUNT>
0

> <PUBCHEM_ISOTOPIC_ATOM_COUNT>
0

> <PUBCHEM_COMPONENT_COUNT>
1

> <PUBCHEM_CACTVS_TAUTO_COUNT>
1

> <PUBCHEM_CONFORMER_ID>
02A7EA2500000001

> <PUBCHEM_MMFF94_ENERGY>
61.8391

> <PUBCHEM_FEATURE_SELFOVERLAP>
96.53

> <PUBCHEM_SHAPE_FINGERPRINT>
10366900 7 18341609295916270620
1100329 8 13875137547906827145
12236239 1 16950276299881462817
12633257 1 18342174474894519194
13224815 77 18408323267674818748
14289901 80 18113623412418569553
14866123 147 16752117138883046266
15219456 202 18342738498647831801
15375358 24 18342739593985603882
15635459 17 18340477950160000378
15848702 151 18409722985359729083
17138139 8 16954258628203260519
17349148 13 18409737282952325946
17818456 19 16953361688760461561
18186145 218 17988923422272603047
19049666 15 18200029684669925548
19930381 70 18264201594642165767
200 152 18040716952544002953
20645477 70 18410854365186061346
2255824 54 18334574595095158988
23402539 116 17845665754577266293
23526113 38 18269847577822302858
23557571 272 17775557658911070341
23559900 14 18130792269802301264
238 59 18339099102222218278
2748010 2 17988351573421407251
3060560 45 18334288743905119452
3323516 105 18270391802029855363
33824 294 18408317774775968882
495365 180 18188500064160523264
5262128 65 18118677957629481766
633830 44 18272092759650651733
69090 78 18342459210131299891
8272917 22 18260536848949662542
9709674 26 18342171172154598835

> <PUBCHEM_SHAPE_MULTIPOLES>
394.06
8.41
2.59
1.4
2.19
0.73
-0.12
-0.69
0.45
-2.57
-0.58
1.03
0.46
1.18

> <PUBCHEM_SHAPE_SELFOVERLAP>
807.601

> <PUBCHEM_SHAPE_VOLUME>
222.5

> <PUBCHEM_COORDINATE_TYPE>
2
5
10

$$$$

