225609
  -OEChem-07051212543D

 61 64  0     1  0  0  0  0  0999 V2000
   -1.9962   -0.0163    1.4166 F   0  0  0  0  0  0  0  0  0  0  0  0
    2.3580    0.2314    1.7962 O   0  0  0  0  0  0  0  0  0  0  0  0
   -1.0826   -2.1328   -1.3421 O   0  0  0  0  0  0  0  0  0  0  0  0
    3.5308   -1.6777   -0.2665 O   0  0  0  0  0  0  0  0  0  0  0  0
    6.0051   -0.5870    0.2443 O   0  0  0  0  0  0  0  0  0  0  0  0
   -7.2211   -0.0181    1.3496 O   0  0  0  0  0  0  0  0  0  0  0  0
    7.5025    1.1535   -0.0117 O   0  0  0  0  0  0  0  0  0  0  0  0
    1.0761   -0.1676   -0.2637 C   0  0  1  0  0  0  0  0  0  0  0  0
    0.1948    1.0725    0.0053 C   0  0  2  0  0  0  0  0  0  0  0  0
   -1.2235    0.9525   -0.5729 C   0  0  1  0  0  0  0  0  0  0  0  0
   -1.9303   -0.2890    0.0579 C   0  0  2  0  0  0  0  0  0  0  0  0
    2.4045    0.3214    0.3751 C   0  0  1  0  0  0  0  0  0  0  0  0
    0.3976   -1.3718    0.4195 C   0  0  0  0  0  0  0  0  0  0  0  0
   -3.4331   -0.4419   -0.4167 C   0  0  2  0  0  0  0  0  0  0  0  0
   -1.0650   -1.5807   -0.0349 C   0  0  2  0  0  0  0  0  0  0  0  0
    1.0761    2.2361   -0.4417 C   0  0  0  0  0  0  0  0  0  0  0  0
    2.5030    1.8064   -0.0421 C   0  0  0  0  0  0  0  0  0  0  0  0
   -2.0266    2.2303   -0.2799 C   0  0  0  0  0  0  0  0  0  0  0  0
    1.2967   -0.4461   -1.7764 C   0  0  0  0  0  0  0  0  0  0  0  0
   -4.1586    0.8976   -0.2225 C   0  0  0  0  0  0  0  0  0  0  0  0
   -3.4633    2.1209   -0.7694 C   0  0  0  0  0  0  0  0  0  0  0  0
   -4.1136   -1.5460    0.4456 C   0  0  0  0  0  0  0  0  0  0  0  0
   -3.5759   -0.8187   -1.9100 C   0  0  0  0  0  0  0  0  0  0  0  0
    3.6135   -0.4779   -0.0077 C   0  0  0  0  0  0  0  0  0  0  0  0
   -5.6321   -1.5220    0.3756 C   0  0  0  0  0  0  0  0  0  0  0  0
   -5.3640    1.0247    0.3571 C   0  0  0  0  0  0  0  0  0  0  0  0
   -6.1469   -0.1628    0.7698 C   0  0  0  0  0  0  0  0  0  0  0  0
    4.9268    0.2738   -0.0550 C   0  0  0  0  0  0  0  0  0  0  0  0
    7.2538   -0.0192    0.2330 C   0  0  0  0  0  0  0  0  0  0  0  0
    8.2936   -1.0455    0.5673 C   0  0  0  0  0  0  0  0  0  0  0  0
    0.0769    1.1868    1.0954 H   0  0  0  0  0  0  0  0  0  0  0  0
   -1.1701    0.8379   -1.6598 H   0  0  0  0  0  0  0  0  0  0  0  0
    0.3732   -1.2284    1.5062 H   0  0  0  0  0  0  0  0  0  0  0  0
    0.9783   -2.2827    0.2327 H   0  0  0  0  0  0  0  0  0  0  0  0
   -1.4943   -2.3366    0.6330 H   0  0  0  0  0  0  0  0  0  0  0  0
    0.7964    3.1753    0.0463 H   0  0  0  0  0  0  0  0  0  0  0  0
    1.0117    2.3930   -1.5244 H   0  0  0  0  0  0  0  0  0  0  0  0
    3.1574    1.9797   -0.9025 H   0  0  0  0  0  0  0  0  0  0  0  0
    2.8582    2.4315    0.7853 H   0  0  0  0  0  0  0  0  0  0  0  0
   -1.5558    3.0906   -0.7700 H   0  0  0  0  0  0  0  0  0  0  0  0
   -2.0229    2.4409    0.7976 H   0  0  0  0  0  0  0  0  0  0  0  0
    1.9641    0.2845   -2.2456 H   0  0  0  0  0  0  0  0  0  0  0  0
    1.7365   -1.4355   -1.9407 H   0  0  0  0  0  0  0  0  0  0  0  0
    0.3696   -0.4236   -2.3528 H   0  0  0  0  0  0  0  0  0  0  0  0
   -3.4738    2.0764   -1.8654 H   0  0  0  0  0  0  0  0  0  0  0  0
   -3.9982    3.0388   -0.4960 H   0  0  0  0  0  0  0  0  0  0  0  0
   -3.8264   -1.4255    1.4990 H   0  0  0  0  0  0  0  0  0  0  0  0
   -3.7637   -2.5406    0.1437 H   0  0  0  0  0  0  0  0  0  0  0  0
   -4.6001   -0.6581   -2.2690 H   0  0  0  0  0  0  0  0  0  0  0  0
   -2.9192   -0.2261   -2.5540 H   0  0  0  0  0  0  0  0  0  0  0  0
   -3.3542   -1.8752   -2.0890 H   0  0  0  0  0  0  0  0  0  0  0  0
    2.3465   -0.7072    2.0485 H   0  0  0  0  0  0  0  0  0  0  0  0
   -6.0362   -2.2634    1.0739 H   0  0  0  0  0  0  0  0  0  0  0  0
   -5.9992   -1.7624   -0.6271 H   0  0  0  0  0  0  0  0  0  0  0  0
   -0.5716   -2.9596   -1.3227 H   0  0  0  0  0  0  0  0  0  0  0  0
   -5.8400    1.9910    0.4853 H   0  0  0  0  0  0  0  0  0  0  0  0
    4.9151    1.0720    0.6941 H   0  0  0  0  0  0  0  0  0  0  0  0
    5.0490    0.6914   -1.0600 H   0  0  0  0  0  0  0  0  0  0  0  0
    8.2753   -1.8462   -0.1762 H   0  0  0  0  0  0  0  0  0  0  0  0
    8.1109   -1.4447    1.5680 H   0  0  0  0  0  0  0  0  0  0  0  0
    9.2825   -0.5784    0.5530 H   0  0  0  0  0  0  0  0  0  0  0  0
  1 11  1  0  0  0  0
  2 12  1  0  0  0  0
  2 52  1  0  0  0  0
  3 15  1  0  0  0  0
  3 55  1  0  0  0  0
  4 24  2  0  0  0  0
  5 28  1  0  0  0  0
  5 29  1  0  0  0  0
  6 27  2  0  0  0  0
  7 29  2  0  0  0  0
  8  9  1  0  0  0  0
  8 12  1  0  0  0  0
  8 13  1  0  0  0  0
  8 19  1  0  0  0  0
  9 10  1  0  0  0  0
  9 16  1  0  0  0  0
  9 31  1  0  0  0  0
 10 11  1  0  0  0  0
 10 18  1  0  0  0  0
 10 32  1  0  0  0  0
 11 14  1  0  0  0  0
 11 15  1  0  0  0  0
 12 17  1  0  0  0  0
 12 24  1  0  0  0  0
 13 15  1  0  0  0  0
 13 33  1  0  0  0  0
 13 34  1  0  0  0  0
 14 20  1  0  0  0  0
 14 22  1  0  0  0  0
 14 23  1  0  0  0  0
 15 35  1  0  0  0  0
 16 17  1  0  0  0  0
 16 36  1  0  0  0  0
 16 37  1  0  0  0  0
 17 38  1  0  0  0  0
 17 39  1  0  0  0  0
 18 21  1  0  0  0  0
 18 40  1  0  0  0  0
 18 41  1  0  0  0  0
 19 42  1  0  0  0  0
 19 43  1  0  0  0  0
 19 44  1  0  0  0  0
 20 21  1  0  0  0  0
 20 26  2  0  0  0  0
 21 45  1  0  0  0  0
 21 46  1  0  0  0  0
 22 25  1  0  0  0  0
 22 47  1  0  0  0  0
 22 48  1  0  0  0  0
 23 49  1  0  0  0  0
 23 50  1  0  0  0  0
 23 51  1  0  0  0  0
 24 28  1  0  0  0  0
 25 27  1  0  0  0  0
 25 53  1  0  0  0  0
 25 54  1  0  0  0  0
 26 27  1  0  0  0  0
 26 56  1  0  0  0  0
 28 57  1  0  0  0  0
 28 58  1  0  0  0  0
 29 30  1  0  0  0  0
 30 59  1  0  0  0  0
 30 60  1  0  0  0  0
 30 61  1  0  0  0  0
M  END
> <PUBCHEM_COMPOUND_CID>
225609

> <PUBCHEM_CONFORMER_RMSD>
0.8

> <PUBCHEM_CONFORMER_DIVERSEORDER>
1
11
13
15
5
4
8
10
14
17
7
6
12
16
3
9
2

> <PUBCHEM_MMFF94_PARTIAL_CHARGES>
23
1 -0.34
11 0.34
12 0.34
14 0.14
15 0.28
2 -0.68
20 -0.28
21 0.14
24 0.45
25 0.06
26 -0.14
27 0.49
28 0.34
29 0.66
3 -0.68
30 0.06
4 -0.57
5 -0.43
52 0.4
55 0.4
56 0.15
6 -0.57
7 -0.57

> <PUBCHEM_EFFECTIVE_ROTOR_COUNT>
5.8

> <PUBCHEM_PHARMACOPHORE_FEATURES>
11
1 2 acceptor
1 2 donor
1 3 acceptor
1 3 donor
1 4 acceptor
1 6 acceptor
1 7 acceptor
5 8 9 12 16 17 rings
6 10 11 14 18 20 21 rings
6 14 20 22 25 26 27 rings
6 8 9 10 11 13 15 rings

> <PUBCHEM_HEAVY_ATOM_COUNT>
30

> <PUBCHEM_ATOM_DEF_STEREO_COUNT>
7

> <PUBCHEM_ATOM_UDEF_STEREO_COUNT>
0

> <PUBCHEM_BOND_DEF_STEREO_COUNT>
0

> <PUBCHEM_BOND_UDEF_STEREO_COUNT>
0

> <PUBCHEM_ISOTOPIC_ATOM_COUNT>
0

> <PUBCHEM_COMPONENT_COUNT>
1

> <PUBCHEM_CACTVS_TAUTO_COUNT>
10

> <PUBCHEM_CONFORMER_ID>
0003714900000001

> <PUBCHEM_MMFF94_ENERGY>
96.6663

> <PUBCHEM_FEATURE_SELFOVERLAP>
55.911

> <PUBCHEM_SHAPE_FINGERPRINT>
10 15 18409732842515336928
10165383 225 17603583046017851291
10299344 5 18201999932999342130
10906281 52 18338500990136208006
11135926 11 18339091466488394886
11315181 36 17775565329801782028
11524674 6 17095244700575447782
11578080 2 4822115428629042560
12107698 1 18272931609180795241
12166972 35 17132111321170281164
12236239 1 18409728434955763888
12403259 415 18187093853139280017
12516196 113 18411699894313113512
13073987 5 18130228271618436026
13140716 1 18267582404071373043
13224815 77 18342741797873681749
13288520 33 18342740715246530493
13533116 47 17203338866593640778
13685833 64 18342737412427047570
13914758 101 4823221589309083018
14251764 18 18410854347747462886
14341114 176 18411132567529301329
14849402 71 18269832017710626004
14856354 85 18202275875620864975
15183329 4 18411710893697952382
15461852 350 10952041260480085768
15788980 27 4895549688623767719
15849732 13 18273214196875386502
17093844 174 6050437115583653791
18608769 82 18412543184902615051
21033648 29 17895773870867352369
21150785 3 13686297967587127056
21236236 1 18411984688782735228
21267235 1 18272647943781079296
21521721 280 18041000597323249688
21792961 116 17774734146208344479
22224240 67 17240486905513178870
23402539 116 18187652392129198053
23522609 53 18127379372366841085
23559900 14 18336274431592756976
23569943 247 16484458458774752138
3178227 256 18341883091718238139
335352 9 18412266125521231621
3383291 50 18202002105799802690
34797466 226 18114173122016771140
350125 39 18408884027263828720
4073 2 17988638550657705138
4093350 32 16009021843768925758
5104073 3 18265339576286023322
5265222 85 18261391084460668750
7226269 152 17385723599480407699

> <PUBCHEM_SHAPE_MULTIPOLES>
574.9
17.56
2.02
1.18
23.17
0.53
-0.22
-2.88
4.9
-0.88
-0.3
-0.8
-0.23
0.04

> <PUBCHEM_SHAPE_SELFOVERLAP>
1238.172

> <PUBCHEM_SHAPE_VOLUME>
316.3

> <PUBCHEM_COORDINATE_TYPE>
2
5
10

$$$$

