56928077
  -OEChem-07051213023D

 32 34  0     1  0  0  0  0  0999 V2000
    4.7332   -0.8745    0.8899 O   0  0  0  0  0  0  0  0  0  0  0  0
   -4.8090    0.8632    0.5289 O   0  0  0  0  0  0  0  0  0  0  0  0
   -3.2764    2.1051   -0.6005 O   0  0  0  0  0  0  0  0  0  0  0  0
    0.7116   -1.1816    0.0721 N   0  0  0  0  0  0  0  0  0  0  0  0
   -0.7874    1.1272   -0.0176 N   0  0  0  0  0  0  0  0  0  0  0  0
    2.7045    0.1103    0.0835 C   0  0  0  0  0  0  0  0  0  0  0  0
    1.3145    0.0177    0.0555 C   0  0  0  0  0  0  0  0  0  0  0  0
    3.5453   -1.1269    0.1338 C   0  0  1  0  0  0  0  0  0  0  0  0
    0.5533    1.1903    0.0099 C   0  0  0  0  0  0  0  0  0  0  0  0
   -1.3902   -0.0722   -0.0008 C   0  0  0  0  0  0  0  0  0  0  0  0
   -0.6290   -1.2447    0.0447 C   0  0  0  0  0  0  0  0  0  0  0  0
    3.3486    1.3461    0.0668 C   0  0  0  0  0  0  0  0  0  0  0  0
    1.2031    2.4226   -0.0067 C   0  0  0  0  0  0  0  0  0  0  0  0
   -2.7803   -0.1645   -0.0284 C   0  0  0  0  0  0  0  0  0  0  0  0
    2.5938    2.5085    0.0213 C   0  0  0  0  0  0  0  0  0  0  0  0
    3.9419   -1.6243   -1.2572 C   0  0  0  0  0  0  0  0  0  0  0  0
   -1.2790   -2.4770    0.0608 C   0  0  0  0  0  0  0  0  0  0  0  0
   -3.4244   -1.4003   -0.0118 C   0  0  0  0  0  0  0  0  0  0  0  0
   -2.6697   -2.5629    0.0330 C   0  0  0  0  0  0  0  0  0  0  0  0
   -3.6044    1.0378   -0.0773 C   0  0  0  0  0  0  0  0  0  0  0  0
    3.0200   -1.9254    0.6699 H   0  0  0  0  0  0  0  0  0  0  0  0
    4.4316    1.4289    0.0735 H   0  0  0  0  0  0  0  0  0  0  0  0
    0.6213    3.3415   -0.0430 H   0  0  0  0  0  0  0  0  0  0  0  0
    3.0809    3.4786    0.0042 H   0  0  0  0  0  0  0  0  0  0  0  0
    4.5487   -0.8792   -1.7844 H   0  0  0  0  0  0  0  0  0  0  0  0
    3.0626   -1.8485   -1.8695 H   0  0  0  0  0  0  0  0  0  0  0  0
    4.5533   -2.5299   -1.1798 H   0  0  0  0  0  0  0  0  0  0  0  0
   -0.6972   -3.3960    0.0951 H   0  0  0  0  0  0  0  0  0  0  0  0
   -4.5067   -1.4882   -0.0478 H   0  0  0  0  0  0  0  0  0  0  0  0
   -3.1566   -3.5332    0.0429 H   0  0  0  0  0  0  0  0  0  0  0  0
    5.2443   -1.7013    0.9184 H   0  0  0  0  0  0  0  0  0  0  0  0
   -5.3579    1.6755    0.4917 H   0  0  0  0  0  0  0  0  0  0  0  0
  1  8  1  0  0  0  0
  1 31  1  0  0  0  0
  2 20  1  0  0  0  0
  2 32  1  0  0  0  0
  3 20  2  0  0  0  0
  4  7  1  0  0  0  0
  4 11  2  0  0  0  0
  5  9  1  0  0  0  0
  5 10  2  0  0  0  0
  6  7  2  0  0  0  0
  6  8  1  0  0  0  0
  6 12  1  0  0  0  0
  7  9  1  0  0  0  0
  8 16  1  0  0  0  0
  8 21  1  0  0  0  0
  9 13  2  0  0  0  0
 10 11  1  0  0  0  0
 10 14  1  0  0  0  0
 11 17  1  0  0  0  0
 12 15  2  0  0  0  0
 12 22  1  0  0  0  0
 13 15  1  0  0  0  0
 13 23  1  0  0  0  0
 14 18  2  0  0  0  0
 14 20  1  0  0  0  0
 15 24  1  0  0  0  0
 16 25  1  0  0  0  0
 16 26  1  0  0  0  0
 16 27  1  0  0  0  0
 17 19  2  0  0  0  0
 17 28  1  0  0  0  0
 18 19  1  0  0  0  0
 18 29  1  0  0  0  0
 19 30  1  0  0  0  0
M  END
> <PUBCHEM_COMPOUND_CID>
56928077

> <PUBCHEM_CONFORMER_RMSD>
0.6

> <PUBCHEM_CONFORMER_DIVERSEORDER>
1
4
3
2

> <PUBCHEM_MMFF94_PARTIAL_CHARGES>
27
1 -0.68
10 0.31
11 0.31
12 -0.15
13 -0.15
14 0.09
15 -0.15
17 -0.15
18 -0.15
19 -0.15
2 -0.65
20 0.63
22 0.15
23 0.15
24 0.15
28 0.15
29 0.15
3 -0.57
30 0.15
31 0.4
32 0.5
4 -0.62
5 -0.62
6 -0.14
7 0.31
8 0.42
9 0.31

> <PUBCHEM_EFFECTIVE_ROTOR_COUNT>
2

> <PUBCHEM_PHARMACOPHORE_FEATURES>
10
1 1 acceptor
1 1 donor
1 2 acceptor
1 3 acceptor
1 4 acceptor
1 5 acceptor
3 2 3 20 anion
6 10 11 14 17 18 19 rings
6 4 5 7 9 10 11 rings
6 6 7 9 12 13 15 rings

> <PUBCHEM_HEAVY_ATOM_COUNT>
20

> <PUBCHEM_ATOM_DEF_STEREO_COUNT>
1

> <PUBCHEM_ATOM_UDEF_STEREO_COUNT>
0

> <PUBCHEM_BOND_DEF_STEREO_COUNT>
0

> <PUBCHEM_BOND_UDEF_STEREO_COUNT>
0

> <PUBCHEM_ISOTOPIC_ATOM_COUNT>
0

> <PUBCHEM_COMPONENT_COUNT>
1

> <PUBCHEM_CACTVS_TAUTO_COUNT>
1

> <PUBCHEM_CONFORMER_ID>
0364A74D00000001

> <PUBCHEM_MMFF94_ENERGY>
66.4365

> <PUBCHEM_FEATURE_SELFOVERLAP>
50.884

> <PUBCHEM_SHAPE_FINGERPRINT>
10062212 137 18335147466206749687
10608611 8 18337955571543209881
10616163 171 18121778327079776950
10693767 8 17755038715159593695
10922523 26 18335420127788989958
10967382 1 18266741461853341875
11132069 177 18409171038532264906
11578080 2 17169847573821110931
116883 192 18189608509768388188
12403259 226 18339084791881895373
12553582 1 18268436892004735306
12592029 89 18270395117876542155
13134695 92 17240490234023240520
13140716 1 18411139104068638544
13544592 145 18188485908296410014
13583140 156 15575012640664523206
13675066 3 18186526492417644498
14022347 108 18268983358015943506
14178342 30 18050583841369765240
14223421 5 18122060909973173640
14790565 3 17977651332218653564
14866123 147 17179669867906732626
15099037 51 18338516447011460191
15196674 1 18410856525295875521
15256400 18 18409167735639286177
15442244 35 18411703153734153928
15475509 8 17608904801690214916
15536298 74 18336265648178349416
16945 1 18341342178962443715
17492 89 18337390409787905758
17804303 29 18412258437076058367
1813 80 17131839746356801684
18186145 218 18343869917566336565
19591789 44 17038648735478851456
20510252 161 18263923237921761003
20645477 70 18337112237587869670
20691752 17 17417821599506675466
21267235 1 18411693253645171755
21307412 95 17897427613755045262
21501502 16 18339080358974200181
221490 88 18340198575559285122
2334 1 18266741277079927944
23366157 5 17987520308450690868
23402539 116 18262248818877525718
23463225 33 18339362959496086486
23558518 356 18128253381125984051
23559900 14 18333167280731187134
238 59 17265861593920711093
2748010 2 18339081484282005612
3004659 81 18128808820031236230
335352 9 18338799017173124599
34934 24 18339368556107966354
350125 39 18411415086441540841
4214541 1 18410575058919661961
495365 180 17530977851785840136
5104073 3 18338798918378321361
69090 78 18409733945957915351
7364860 26 18191021206184986264
74978 22 18411136909356174202
7832392 63 18411422795348687464
8809292 202 18413105061092794851
9709674 26 18338232635630978438
9981440 41 17477489699013123720

> <PUBCHEM_SHAPE_MULTIPOLES>
384.02
8.18
2.88
0.74
0.03
0.17
-0.08
-0.54
0.2
-0.14
-0.2
0.38
-0.14
0.38

> <PUBCHEM_SHAPE_SELFOVERLAP>
862.14

> <PUBCHEM_SHAPE_VOLUME>
202.4

> <PUBCHEM_COORDINATE_TYPE>
2
5
10

$$$$

