5371769
  -OEChem-07051212473D

 23 24  0     0  0  0  0  0  0999 V2000
   -4.1265    1.0573   -1.0892 O   0  0  0  0  0  0  0  0  0  0  0  0
    1.2929   -1.9763   -0.4705 N   0  0  0  0  0  0  0  0  0  0  0  0
   -3.2915    0.9266    0.0231 N   0  0  0  0  0  0  0  0  0  0  0  0
    0.6281    0.0070    0.3051 C   0  0  0  0  0  0  0  0  0  0  0  0
   -0.4276   -0.9333    0.4670 C   0  0  0  0  0  0  0  0  0  0  0  0
    1.6957   -0.6729   -0.2851 C   0  0  0  0  0  0  0  0  0  0  0  0
    0.0113   -2.1433   -0.0192 C   0  0  0  0  0  0  0  0  0  0  0  0
   -1.7587   -0.6699    1.0505 C   0  0  0  0  0  0  0  0  0  0  0  0
    0.7785    1.3756    0.6051 C   0  0  0  0  0  0  0  0  0  0  0  0
    2.9110   -0.0503   -0.5915 C   0  0  0  0  0  0  0  0  0  0  0  0
    1.9884    2.0115    0.3041 C   0  0  0  0  0  0  0  0  0  0  0  0
    3.0369    1.3076   -0.2849 C   0  0  0  0  0  0  0  0  0  0  0  0
   -2.7385   -0.2396   -0.0146 C   0  0  0  0  0  0  0  0  0  0  0  0
   -0.4718   -3.1083   -0.0855 H   0  0  0  0  0  0  0  0  0  0  0  0
   -2.1584   -1.5797    1.5133 H   0  0  0  0  0  0  0  0  0  0  0  0
   -1.7034    0.0966    1.8311 H   0  0  0  0  0  0  0  0  0  0  0  0
    1.8618   -2.7040   -0.8806 H   0  0  0  0  0  0  0  0  0  0  0  0
   -0.0289    1.9396    1.0633 H   0  0  0  0  0  0  0  0  0  0  0  0
    3.7278   -0.5974   -1.0501 H   0  0  0  0  0  0  0  0  0  0  0  0
    2.1100    3.0670    0.5330 H   0  0  0  0  0  0  0  0  0  0  0  0
    3.9680    1.8214   -0.5101 H   0  0  0  0  0  0  0  0  0  0  0  0
   -2.9580   -0.9655   -0.8190 H   0  0  0  0  0  0  0  0  0  0  0  0
   -4.4823    1.9530   -0.9622 H   0  0  0  0  0  0  0  0  0  0  0  0
  1  3  1  0  0  0  0
  1 23  1  0  0  0  0
  2  6  1  0  0  0  0
  2  7  1  0  0  0  0
  2 17  1  0  0  0  0
  3 13  2  0  0  0  0
  4  5  1  0  0  0  0
  4  6  1  0  0  0  0
  4  9  2  0  0  0  0
  5  7  2  0  0  0  0
  5  8  1  0  0  0  0
  6 10  2  0  0  0  0
  7 14  1  0  0  0  0
  8 13  1  0  0  0  0
  8 15  1  0  0  0  0
  8 16  1  0  0  0  0
  9 11  1  0  0  0  0
  9 18  1  0  0  0  0
 10 12  1  0  0  0  0
 10 19  1  0  0  0  0
 11 12  2  0  0  0  0
 11 20  1  0  0  0  0
 12 21  1  0  0  0  0
 13 22  1  0  0  0  0
M  END
> <PUBCHEM_COMPOUND_CID>
5371769

> <PUBCHEM_CONFORMER_RMSD>
0.6

> <PUBCHEM_CONFORMER_DIVERSEORDER>
1
3
4
2
5

> <PUBCHEM_MMFF94_PARTIAL_CHARGES>
20
1 -0.34
10 -0.15
11 -0.15
12 -0.15
13 0.33
14 0.15
17 0.27
18 0.15
19 0.15
2 0.03
20 0.15
21 0.15
22 0.06
23 0.4
3 -0.51
5 -0.18
6 -0.15
7 -0.3
8 0.24
9 -0.15

> <PUBCHEM_EFFECTIVE_ROTOR_COUNT>
2

> <PUBCHEM_PHARMACOPHORE_FEATURES>
6
1 1 anion
1 2 cation
1 2 donor
1 3 acceptor
5 2 4 5 6 7 rings
6 4 6 9 10 11 12 rings

> <PUBCHEM_HEAVY_ATOM_COUNT>
13

> <PUBCHEM_ATOM_DEF_STEREO_COUNT>
0

> <PUBCHEM_ATOM_UDEF_STEREO_COUNT>
0

> <PUBCHEM_BOND_DEF_STEREO_COUNT>
1

> <PUBCHEM_BOND_UDEF_STEREO_COUNT>
0

> <PUBCHEM_ISOTOPIC_ATOM_COUNT>
0

> <PUBCHEM_COMPONENT_COUNT>
1

> <PUBCHEM_CACTVS_TAUTO_COUNT>
2

> <PUBCHEM_CONFORMER_ID>
0051F77900000001

> <PUBCHEM_MMFF94_ENERGY>
19.5176

> <PUBCHEM_FEATURE_SELFOVERLAP>
30.537

> <PUBCHEM_SHAPE_FINGERPRINT>
10608611 8 18340484448355673065
11769659 78 5833448457461862444
12251169 10 10879986969757129081
12654215 9 18411698811596187548
12730499 353 18342171198741703395
13294875 104 18339942453779700586
13464514 151 18268986673261106561
14911166 2 18334561444068406942
15279308 100 18338791196386006804
15775835 57 18335136471232565661
16945 1 18188751908426656418
17844478 74 17983839100138525787
18186145 218 18187914058722072488
193761 8 17616517893711115426
20606313 2 18409731806499777533
21524375 3 18341052913036624387
21639500 275 18334014986420279817
21947302 44 18340772627892253915
22959321 8 18409731742444728065
231179 274 17917719023472461253
23402655 69 18334017220230749669
23493267 7 17774992450084400184
23559900 14 17898267452694033852
25 1 18410567409735875625
2748010 2 17973426729566165842
3060560 45 18261397775302544703
81228 2 17182220214754507930

> <PUBCHEM_SHAPE_MULTIPOLES>
251.7
5.33
2.09
0.87
4.04
0.34
0.01
-2.95
-1.56
-0.5
-0.08
0.34
-0.08
0.7

> <PUBCHEM_SHAPE_SELFOVERLAP>
542.471

> <PUBCHEM_SHAPE_VOLUME>
140.3

> <PUBCHEM_COORDINATE_TYPE>
2
5
10

$$$$

