5460143
  -OEChem-07051213103D

 46 48  0     1  0  0  0  0  0999 V2000
    1.2088   -3.1341    1.8571 O   0  0  0  0  0  0  0  0  0  0  0  0
    4.0328   -2.6160   -0.4817 O   0  0  0  0  0  0  0  0  0  0  0  0
    5.4415   -1.3022    0.7135 O   0  0  0  0  0  0  0  0  0  0  0  0
   -1.9674   -1.6196   -2.1293 O   0  0  0  0  0  0  0  0  0  0  0  0
    3.2439    4.5536   -0.9428 O   0  0  0  0  0  0  0  0  0  0  0  0
   -4.1466   -3.4626   -0.4750 O   0  0  0  0  0  0  0  0  0  0  0  0
   -4.1317    4.0481    0.8016 O   0  0  0  0  0  0  0  0  0  0  0  0
    1.8728   -1.4668    0.3344 N   0  0  0  0  0  0  0  0  0  0  0  0
   -1.2123   -1.9445    0.0327 N   0  0  0  0  0  0  0  0  0  0  0  0
   -4.4254   -2.1651   -0.1112 N   0  0  0  0  0  0  0  0  0  0  0  0
    0.1488   -2.3775   -0.3346 C   0  0  1  0  0  0  0  0  0  0  0  0
    1.0513   -1.2465   -0.8445 C   0  0  0  0  0  0  0  0  0  0  0  0
    1.1138   -2.4685    0.8514 C   0  0  0  0  0  0  0  0  0  0  0  0
    3.0646   -0.8169    0.7768 C   0  0  2  0  0  0  0  0  0  0  0  0
    3.1129    0.6210    0.3164 C   0  0  0  0  0  0  0  0  0  0  0  0
    4.3036   -1.5922    0.3638 C   0  0  0  0  0  0  0  0  0  0  0  0
   -2.1630   -1.5990   -0.9159 C   0  0  0  0  0  0  0  0  0  0  0  0
    2.5072    1.6001    1.0865 C   0  0  0  0  0  0  0  0  0  0  0  0
    3.7619    0.9325   -0.8672 C   0  0  0  0  0  0  0  0  0  0  0  0
   -3.4868   -1.2000   -0.3330 C   0  0  0  0  0  0  0  0  0  0  0  0
    2.5516    2.9278    0.6612 C   0  0  0  0  0  0  0  0  0  0  0  0
    3.8064    2.2602   -1.2926 C   0  0  0  0  0  0  0  0  0  0  0  0
    3.2012    3.2580   -0.5282 C   0  0  0  0  0  0  0  0  0  0  0  0
   -3.6469    0.1017   -0.0518 C   0  0  0  0  0  0  0  0  0  0  0  0
   -2.5713    1.0453   -0.3131 C   0  0  0  0  0  0  0  0  0  0  0  0
   -4.8977    0.5801    0.5161 C   0  0  0  0  0  0  0  0  0  0  0  0
   -2.7149    2.3483   -0.0378 C   0  0  0  0  0  0  0  0  0  0  0  0
   -5.0736    1.8766    0.8029 C   0  0  0  0  0  0  0  0  0  0  0  0
   -3.9856    2.8580    0.5443 C   0  0  0  0  0  0  0  0  0  0  0  0
    0.1457   -3.2824   -0.9516 H   0  0  0  0  0  0  0  0  0  0  0  0
    0.6053   -0.2492   -0.8837 H   0  0  0  0  0  0  0  0  0  0  0  0
    1.5733   -1.4600   -1.7817 H   0  0  0  0  0  0  0  0  0  0  0  0
    3.0598   -0.8650    1.8741 H   0  0  0  0  0  0  0  0  0  0  0  0
   -1.4773   -1.8996    1.0142 H   0  0  0  0  0  0  0  0  0  0  0  0
    1.9970    1.3520    2.0127 H   0  0  0  0  0  0  0  0  0  0  0  0
    4.2245    0.1762   -1.4938 H   0  0  0  0  0  0  0  0  0  0  0  0
    2.0752    3.6955    1.2652 H   0  0  0  0  0  0  0  0  0  0  0  0
    4.3098    2.5108   -2.2223 H   0  0  0  0  0  0  0  0  0  0  0  0
    4.8468   -3.0888   -0.7575 H   0  0  0  0  0  0  0  0  0  0  0  0
   -5.3459   -1.9751    0.2589 H   0  0  0  0  0  0  0  0  0  0  0  0
   -1.6257    0.7398   -0.7437 H   0  0  0  0  0  0  0  0  0  0  0  0
   -5.7209   -0.0929    0.7231 H   0  0  0  0  0  0  0  0  0  0  0  0
    2.7756    5.1075   -0.2948 H   0  0  0  0  0  0  0  0  0  0  0  0
   -1.9213    3.0609   -0.2310 H   0  0  0  0  0  0  0  0  0  0  0  0
   -6.0010    2.2445    1.2261 H   0  0  0  0  0  0  0  0  0  0  0  0
   -4.3213   -3.9432    0.3519 H   0  0  0  0  0  0  0  0  0  0  0  0
  1 13  2  0  0  0  0
  2 16  1  0  0  0  0
  2 39  1  0  0  0  0
  3 16  2  0  0  0  0
  4 17  2  0  0  0  0
  5 23  1  0  0  0  0
  5 43  1  0  0  0  0
  6 10  1  0  0  0  0
  6 46  1  0  0  0  0
  7 29  2  0  0  0  0
  8 12  1  0  0  0  0
  8 13  1  0  0  0  0
  8 14  1  0  0  0  0
  9 11  1  0  0  0  0
  9 17  1  0  0  0  0
  9 34  1  0  0  0  0
 10 20  1  0  0  0  0
 10 40  1  0  0  0  0
 11 12  1  0  0  0  0
 11 13  1  0  0  0  0
 11 30  1  0  0  0  0
 12 31  1  0  0  0  0
 12 32  1  0  0  0  0
 14 15  1  0  0  0  0
 14 16  1  0  0  0  0
 14 33  1  0  0  0  0
 15 18  2  0  0  0  0
 15 19  1  0  0  0  0
 17 20  1  0  0  0  0
 18 21  1  0  0  0  0
 18 35  1  0  0  0  0
 19 22  2  0  0  0  0
 19 36  1  0  0  0  0
 20 24  2  0  0  0  0
 21 23  2  0  0  0  0
 21 37  1  0  0  0  0
 22 23  1  0  0  0  0
 22 38  1  0  0  0  0
 24 25  1  0  0  0  0
 24 26  1  0  0  0  0
 25 27  2  0  0  0  0
 25 41  1  0  0  0  0
 26 28  2  0  0  0  0
 26 42  1  0  0  0  0
 27 29  1  0  0  0  0
 27 44  1  0  0  0  0
 28 29  1  0  0  0  0
 28 45  1  0  0  0  0
M  END
> <PUBCHEM_COMPOUND_CID>
5460143

> <PUBCHEM_CONFORMER_RMSD>
1

> <PUBCHEM_CONFORMER_DIVERSEORDER>
1
5
41
42
10
38
25
4
20
39
36
45
43
9
19
40
34
13
33
32
23
18
37
15
22
7
44
35
11
30
12
24
27
29
2
14
16
21
31
26
3
6
17
28
8

> <PUBCHEM_MMFF94_PARTIAL_CHARGES>
41
1 -0.57
10 -0.52
11 0.28
12 0.22
13 0.58
14 0.5
15 -0.14
16 0.66
17 0.62
18 -0.15
19 -0.15
2 -0.65
20 0.11
21 -0.15
22 -0.15
23 0.08
25 -0.15
26 -0.15
27 -0.14
28 -0.14
29 0.54
3 -0.57
34 0.37
35 0.15
36 0.15
37 0.15
38 0.15
39 0.5
4 -0.57
40 0.4
41 0.15
42 0.15
43 0.45
44 0.15
45 0.15
46 0.4
5 -0.53
6 -0.38
7 -0.57
8 -0.59
9 -0.65

> <PUBCHEM_EFFECTIVE_ROTOR_COUNT>
7.6

> <PUBCHEM_PHARMACOPHORE_FEATURES>
12
1 1 acceptor
1 2 acceptor
1 3 acceptor
1 4 acceptor
1 5 donor
1 6 anion
1 7 acceptor
1 9 donor
3 2 3 16 anion
4 8 11 12 13 rings
6 15 18 19 21 22 23 rings
6 24 25 26 27 28 29 rings

> <PUBCHEM_HEAVY_ATOM_COUNT>
29

> <PUBCHEM_ATOM_DEF_STEREO_COUNT>
2

> <PUBCHEM_ATOM_UDEF_STEREO_COUNT>
0

> <PUBCHEM_BOND_DEF_STEREO_COUNT>
0

> <PUBCHEM_BOND_UDEF_STEREO_COUNT>
0

> <PUBCHEM_ISOTOPIC_ATOM_COUNT>
0

> <PUBCHEM_COMPONENT_COUNT>
1

> <PUBCHEM_CACTVS_TAUTO_COUNT>
20

> <PUBCHEM_CONFORMER_ID>
005350AF00000001

> <PUBCHEM_MMFF94_ENERGY>
81.0247

> <PUBCHEM_FEATURE_SELFOVERLAP>
60.951

> <PUBCHEM_SHAPE_FINGERPRINT>
10439779 11 18191880126107678968
10670039 82 18266736883656055908
10811444 77 17621328257268506077
1100329 8 18338797935157980792
11059048 146 18196921198085245956
11273773 38 18194675097434881332
11513181 2 18260822653470037142
12107183 9 18051138282708838274
12403260 363 18339090306229766722
12633257 1 18199476634637350601
12788726 201 17977384936739938649
12925494 130 18193277614673485457
12978246 48 18263922297166356257
13583140 156 17844812679989039075
13617811 41 18050300167787030253
14117953 113 17904479958645076125
14251764 38 18411978031435350240
14466204 15 18269848660803285186
14787075 74 17838909139814122191
14849402 71 18272649001128926732
14950920 106 17989487416151361771
151778 21 18411131476397384689
15475509 8 18337663239881211950
21864079 5 18337675221773876374
23227448 37 18335703883947229183
23558518 356 18340212890659019458
23559900 14 18042123322326711439
245318 6 17629469792298620708
25223398 141 16516840037773849759
338550 245 18411136956875673392
392239 28 18271795810054902571
474 4 18272655623193134563
5048184 11 18409443661640082841
5776283 40 17760635976648852044
5895379 119 18041553741349401712
6086070 43 17914085167486503486
6287921 2 18341609295958637549
6371009 1 18264787587184138285
7097593 13 18054801838430831075

> <PUBCHEM_SHAPE_MULTIPOLES>
540.78
11.57
5.35
1.21
4.29
3
0.12
3.67
-0.84
-0.29
-0.03
-0.38
-0.2
-2.63

> <PUBCHEM_SHAPE_SELFOVERLAP>
1168.411

> <PUBCHEM_SHAPE_VOLUME>
294

> <PUBCHEM_COORDINATE_TYPE>
2
5
10

$$$$

