443173
  -OEChem-07051213013D

 29 28  0     1  0  0  0  0  0999 V2000
    3.8205   -0.5457   -0.8170 O   0  0  0  0  0  0  0  0  0  0  0  0
   -3.5749   -1.3125   -0.7284 O   0  0  0  0  0  0  0  0  0  0  0  0
    3.2415   -0.8203    1.3637 O   0  0  0  0  0  0  0  0  0  0  0  0
    0.4893   -0.1568    0.2462 C   0  0  1  0  0  0  0  0  0  0  0  0
   -0.9127   -0.6352   -0.1945 C   0  0  0  0  0  0  0  0  0  0  0  0
    1.5503   -1.1067   -0.3407 C   0  0  0  0  0  0  0  0  0  0  0  0
   -2.0544    0.1445    0.4620 C   0  0  0  0  0  0  0  0  0  0  0  0
    0.7641    1.3030   -0.1028 C   0  0  0  0  0  0  0  0  0  0  0  0
    0.7666    1.7104   -1.5507 C   0  0  0  0  0  0  0  0  0  0  0  0
   -3.4221   -0.3562    0.0300 C   0  0  0  0  0  0  0  0  0  0  0  0
    2.9392   -0.8175    0.1774 C   0  0  0  0  0  0  0  0  0  0  0  0
    0.9999    2.2089    0.8610 C   0  0  0  0  0  0  0  0  0  0  0  0
   -4.6072    0.3842    0.5939 C   0  0  0  0  0  0  0  0  0  0  0  0
    0.5310   -0.2667    1.3397 H   0  0  0  0  0  0  0  0  0  0  0  0
   -1.0085   -0.5836   -1.2866 H   0  0  0  0  0  0  0  0  0  0  0  0
   -1.0233   -1.6968    0.0651 H   0  0  0  0  0  0  0  0  0  0  0  0
    1.5521   -1.0648   -1.4364 H   0  0  0  0  0  0  0  0  0  0  0  0
    1.3274   -2.1479   -0.0766 H   0  0  0  0  0  0  0  0  0  0  0  0
   -1.9903    0.0543    1.5518 H   0  0  0  0  0  0  0  0  0  0  0  0
   -1.9974    1.2044    0.1932 H   0  0  0  0  0  0  0  0  0  0  0  0
    1.5419    1.1748   -2.1061 H   0  0  0  0  0  0  0  0  0  0  0  0
    0.9626    2.7813   -1.6735 H   0  0  0  0  0  0  0  0  0  0  0  0
   -0.2027    1.5048   -2.0142 H   0  0  0  0  0  0  0  0  0  0  0  0
    1.0018    1.9321    1.9101 H   0  0  0  0  0  0  0  0  0  0  0  0
    1.1967    3.2492    0.6243 H   0  0  0  0  0  0  0  0  0  0  0  0
   -4.5665    1.4312    0.2836 H   0  0  0  0  0  0  0  0  0  0  0  0
   -5.5330   -0.0598    0.2175 H   0  0  0  0  0  0  0  0  0  0  0  0
   -4.5986    0.3126    1.6842 H   0  0  0  0  0  0  0  0  0  0  0  0
    4.7176   -0.3550   -0.4691 H   0  0  0  0  0  0  0  0  0  0  0  0
  1 11  1  0  0  0  0
  1 29  1  0  0  0  0
  2 10  2  0  0  0  0
  3 11  2  0  0  0  0
  4  5  1  0  0  0  0
  4  6  1  0  0  0  0
  4  8  1  0  0  0  0
  4 14  1  0  0  0  0
  5  7  1  0  0  0  0
  5 15  1  0  0  0  0
  5 16  1  0  0  0  0
  6 11  1  0  0  0  0
  6 17  1  0  0  0  0
  6 18  1  0  0  0  0
  7 10  1  0  0  0  0
  7 19  1  0  0  0  0
  7 20  1  0  0  0  0
  8  9  1  0  0  0  0
  8 12  2  0  0  0  0
  9 21  1  0  0  0  0
  9 22  1  0  0  0  0
  9 23  1  0  0  0  0
 10 13  1  0  0  0  0
 12 24  1  0  0  0  0
 12 25  1  0  0  0  0
 13 26  1  0  0  0  0
 13 27  1  0  0  0  0
 13 28  1  0  0  0  0
M  END
> <PUBCHEM_COMPOUND_CID>
443173

> <PUBCHEM_CONFORMER_RMSD>
0.6

> <PUBCHEM_CONFORMER_DIVERSEORDER>
1
92
88
62
107
89
77
47
4
68
22
48
99
19
52
97
105
73
95
6
82
79
63
31
8
5
103
104
98
83
15
44
81
102
80
27
10
55
37
60
45
64
87
2
50
76
100
78
26
106
85
30
23
84
14
72
41
94
59
9
13
3
90
49
69
75
34
101
20
42
56
51
16
28
54
61
17
18
35
36
43
24
70
7
40
65
91
71
53
46
11
33
66
58
32
29
67
25
21
38
86
57
93
96
12
39
74

> <PUBCHEM_MMFF94_PARTIAL_CHARGES>
15
1 -0.65
10 0.45
11 0.66
12 -0.3
13 0.06
2 -0.57
24 0.15
25 0.15
29 0.5
3 -0.57
4 0.14
6 0.06
7 0.06
8 -0.28
9 0.14

> <PUBCHEM_EFFECTIVE_ROTOR_COUNT>
6

> <PUBCHEM_PHARMACOPHORE_FEATURES>
5
1 1 acceptor
1 2 acceptor
1 3 acceptor
3 1 3 11 anion
5 4 5 6 7 8 hydrophobe

> <PUBCHEM_HEAVY_ATOM_COUNT>
13

> <PUBCHEM_ATOM_DEF_STEREO_COUNT>
1

> <PUBCHEM_ATOM_UDEF_STEREO_COUNT>
0

> <PUBCHEM_BOND_DEF_STEREO_COUNT>
0

> <PUBCHEM_BOND_UDEF_STEREO_COUNT>
0

> <PUBCHEM_ISOTOPIC_ATOM_COUNT>
0

> <PUBCHEM_COMPONENT_COUNT>
1

> <PUBCHEM_CACTVS_TAUTO_COUNT>
3

> <PUBCHEM_CONFORMER_ID>
0006C32500000001

> <PUBCHEM_MMFF94_ENERGY>
15.1553

> <PUBCHEM_FEATURE_SELFOVERLAP>
25.429

> <PUBCHEM_SHAPE_FINGERPRINT>
10130415 120 18341890801042083353
10219947 1 18187362146940298254
12932764 1 15267069082405520635
13705890 14 15051728716071562970
13922767 16 18408044022271554953
14344429 50 18261104141178518500
14993402 34 18335413569537576238
15375462 189 18272938262132525483
15501101 241 18411427193511515876
17041 49 18186794786398446609
18186145 218 17988650658085752171
20279233 1 14056713544323875677
20339313 130 18059566979980440893
20671657 1 18198052574075111781
20711985 327 18261107486947278188
20871998 22 18262514922129360622
21524375 3 16739462314314748049
2255824 54 18201435822671612311
23526113 38 16845285068421657251
23532345 12 17821443552372552057
23557571 272 15791722049346332321
3248919 1 16009014057061548785
7364860 26 18115589218955457456
81228 2 18053651761967969232
9999458 23 14345794959412931004

> <PUBCHEM_SHAPE_MULTIPOLES>
249.93
7.06
1.75
1.1
5.51
0.97
0.11
-2.48
-0.69
-0.8
0.08
-0.49
0.29
-0.46

> <PUBCHEM_SHAPE_SELFOVERLAP>
474.682

> <PUBCHEM_SHAPE_VOLUME>
153.9

> <PUBCHEM_COORDINATE_TYPE>
2
5
10

$$$$

