442126
  -OEChem-07051212573D

 44 46  0     1  0  0  0  0  0999 V2000
   -0.4663    2.2630   -0.2429 O   0  0  0  0  0  0  0  0  0  0  0  0
    2.9276    0.7782   -0.0568 O   0  0  0  0  0  0  0  0  0  0  0  0
   -4.8183    0.3862   -0.1521 O   0  0  0  0  0  0  0  0  0  0  0  0
    3.3224   -1.0085   -1.4627 O   0  0  0  0  0  0  0  0  0  0  0  0
   -6.9315   -0.4956   -0.1050 O   0  0  0  0  0  0  0  0  0  0  0  0
    0.9310    2.1750    0.0987 C   0  0  0  0  0  0  0  0  0  0  0  0
    1.5501    0.8551   -0.4046 C   0  0  2  0  0  0  0  0  0  0  0  0
    0.8142   -0.3512    0.1682 C   0  0  0  0  0  0  0  0  0  0  0  0
   -0.6691   -0.1527    0.0822 C   0  0  0  0  0  0  0  0  0  0  0  0
   -1.2151    1.1238   -0.1089 C   0  0  0  0  0  0  0  0  0  0  0  0
    1.0843    2.3857    1.6151 C   0  0  0  0  0  0  0  0  0  0  0  0
    1.6056    3.3601   -0.6131 C   0  0  0  0  0  0  0  0  0  0  0  0
   -1.5260   -1.2574    0.2220 C   0  0  0  0  0  0  0  0  0  0  0  0
   -2.5984    1.2916   -0.1959 C   0  0  0  0  0  0  0  0  0  0  0  0
   -2.9112   -1.0941    0.1464 C   0  0  0  0  0  0  0  0  0  0  0  0
   -3.4265    0.1798   -0.0654 C   0  0  0  0  0  0  0  0  0  0  0  0
    3.5749   -0.3464   -0.4702 C   0  0  0  0  0  0  0  0  0  0  0  0
   -3.8324   -2.2099    0.2797 C   0  0  0  0  0  0  0  0  0  0  0  0
   -5.1497   -2.0070    0.1976 C   0  0  0  0  0  0  0  0  0  0  0  0
    4.6372   -0.6340    0.5229 C   0  0  0  0  0  0  0  0  0  0  0  0
   -5.7197   -0.6661   -0.0292 C   0  0  0  0  0  0  0  0  0  0  0  0
    5.7924   -1.2737    0.2656 C   0  0  0  0  0  0  0  0  0  0  0  0
    6.7859   -1.4981    1.3768 C   0  0  0  0  0  0  0  0  0  0  0  0
    6.2387   -1.8038   -1.0683 C   0  0  0  0  0  0  0  0  0  0  0  0
    1.4573    0.8341   -1.5008 H   0  0  0  0  0  0  0  0  0  0  0  0
    1.0988   -0.5227    1.2140 H   0  0  0  0  0  0  0  0  0  0  0  0
    1.0823   -1.2608   -0.3812 H   0  0  0  0  0  0  0  0  0  0  0  0
    0.6298    3.3359    1.9195 H   0  0  0  0  0  0  0  0  0  0  0  0
    0.5681    1.6099    2.1897 H   0  0  0  0  0  0  0  0  0  0  0  0
    2.1357    2.3955    1.9200 H   0  0  0  0  0  0  0  0  0  0  0  0
    2.6748    3.4214   -0.3866 H   0  0  0  0  0  0  0  0  0  0  0  0
    1.4851    3.2798   -1.6998 H   0  0  0  0  0  0  0  0  0  0  0  0
    1.1369    4.3079   -0.3229 H   0  0  0  0  0  0  0  0  0  0  0  0
   -1.1019   -2.2461    0.3860 H   0  0  0  0  0  0  0  0  0  0  0  0
   -3.0254    2.2777   -0.3563 H   0  0  0  0  0  0  0  0  0  0  0  0
   -3.4343   -3.2046    0.4463 H   0  0  0  0  0  0  0  0  0  0  0  0
   -5.8437   -2.8345    0.2961 H   0  0  0  0  0  0  0  0  0  0  0  0
    4.4427   -0.2656    1.5280 H   0  0  0  0  0  0  0  0  0  0  0  0
    7.7309   -0.9940    1.1492 H   0  0  0  0  0  0  0  0  0  0  0  0
    6.4299   -1.1165    2.3397 H   0  0  0  0  0  0  0  0  0  0  0  0
    6.9822   -2.5686    1.4974 H   0  0  0  0  0  0  0  0  0  0  0  0
    7.2686   -1.4905   -1.2723 H   0  0  0  0  0  0  0  0  0  0  0  0
    6.2073   -2.8980   -1.0681 H   0  0  0  0  0  0  0  0  0  0  0  0
    5.6370   -1.4436   -1.9049 H   0  0  0  0  0  0  0  0  0  0  0  0
  1  6  1  0  0  0  0
  1 10  1  0  0  0  0
  2  7  1  0  0  0  0
  2 17  1  0  0  0  0
  3 16  1  0  0  0  0
  3 21  1  0  0  0  0
  4 17  2  0  0  0  0
  5 21  2  0  0  0  0
  6  7  1  0  0  0  0
  6 11  1  0  0  0  0
  6 12  1  0  0  0  0
  7  8  1  0  0  0  0
  7 25  1  0  0  0  0
  8  9  1  0  0  0  0
  8 26  1  0  0  0  0
  8 27  1  0  0  0  0
  9 10  2  0  0  0  0
  9 13  1  0  0  0  0
 10 14  1  0  0  0  0
 11 28  1  0  0  0  0
 11 29  1  0  0  0  0
 11 30  1  0  0  0  0
 12 31  1  0  0  0  0
 12 32  1  0  0  0  0
 12 33  1  0  0  0  0
 13 15  2  0  0  0  0
 13 34  1  0  0  0  0
 14 16  2  0  0  0  0
 14 35  1  0  0  0  0
 15 16  1  0  0  0  0
 15 18  1  0  0  0  0
 17 20  1  0  0  0  0
 18 19  2  0  0  0  0
 18 36  1  0  0  0  0
 19 21  1  0  0  0  0
 19 37  1  0  0  0  0
 20 22  2  0  0  0  0
 20 38  1  0  0  0  0
 22 23  1  0  0  0  0
 22 24  1  0  0  0  0
 23 39  1  0  0  0  0
 23 40  1  0  0  0  0
 23 41  1  0  0  0  0
 24 42  1  0  0  0  0
 24 43  1  0  0  0  0
 24 44  1  0  0  0  0
M  END
> <PUBCHEM_COMPOUND_CID>
442126

> <PUBCHEM_CONFORMER_RMSD>
0.6

> <PUBCHEM_CONFORMER_DIVERSEORDER>
1
2
13
15
10
7
6
14
5
11
4
9
12
8
3
16

> <PUBCHEM_MMFF94_PARTIAL_CHARGES>
27
1 -0.36
10 0.08
13 -0.15
14 -0.15
15 0.03
16 0.08
17 0.71
18 -0.18
19 -0.14
2 -0.43
20 -0.14
21 0.71
22 -0.28
23 0.14
24 0.14
3 -0.23
34 0.15
35 0.15
36 0.15
37 0.15
38 0.15
4 -0.57
5 -0.57
6 0.28
7 0.28
8 0.14
9 -0.14

> <PUBCHEM_EFFECTIVE_ROTOR_COUNT>
3.8

> <PUBCHEM_PHARMACOPHORE_FEATURES>
8
1 1 acceptor
1 4 acceptor
1 5 acceptor
3 22 23 24 hydrophobe
3 6 11 12 hydrophobe
6 1 6 7 8 9 10 rings
6 3 15 16 18 19 21 rings
6 9 10 13 14 15 16 rings

> <PUBCHEM_HEAVY_ATOM_COUNT>
24

> <PUBCHEM_ATOM_DEF_STEREO_COUNT>
1

> <PUBCHEM_ATOM_UDEF_STEREO_COUNT>
0

> <PUBCHEM_BOND_DEF_STEREO_COUNT>
0

> <PUBCHEM_BOND_UDEF_STEREO_COUNT>
0

> <PUBCHEM_ISOTOPIC_ATOM_COUNT>
0

> <PUBCHEM_COMPONENT_COUNT>
1

> <PUBCHEM_CACTVS_TAUTO_COUNT>
1

> <PUBCHEM_CONFORMER_ID>
0006BF0E00000001

> <PUBCHEM_MMFF94_ENERGY>
80.9104

> <PUBCHEM_FEATURE_SELFOVERLAP>
40.651

> <PUBCHEM_SHAPE_FINGERPRINT>
10 15 6843919486163307391
10622 236 17608951789118627071
11405975 8 18336541604570497411
11963148 33 17401488148224394631
12107183 9 18336817702222280177
12166972 35 17775563148406652622
12236239 1 17632576084814589150
12516196 113 18260268560065869554
12596602 18 14273459179837099279
12760667 363 18408323293898413615
12892183 10 16081639093198351520
13288520 33 18412262848260691879
13402501 40 18408038524344690206
13631057 29 18339358686784595762
13685833 64 18410572881376706106
13862211 1 18412827996905234731
13955234 65 17977097968357820385
14251752 14 17703515475405730455
14420673 8 18412823595086262235
14866123 147 18191860343947385601
15196674 1 18268146449536710973
15352361 1 18410572898852006822
15927050 60 17758959221636844748
17492 89 18051974715121472411
18006028 8 18334577953838309398
18222031 100 18114450206998432222
19141452 34 17894916200184408183
19784866 240 18408878542669557121
1979834 28 17458336447217683190
20028762 73 18186803539141545175
20374829 77 18412825789265553878
20403669 9 18409163316117938694
20554085 129 11671501128544304812
20832881 197 18342174445130246499
21033648 29 17095820908860575730
21267235 1 18412538825384020403
21279426 13 18342182167692688013
21682296 61 18261105300888526631
2297311 6 18262229032511676382
23198884 109 15123789604338870391
23402539 116 18410579526028567326
23522609 53 18125969802754921485
23557571 272 18115863174077110916
23559900 14 18268996397378340121
249999 5 18190746315499434872
25147074 1 18339341025151645924
3004659 81 18201995534937221454
335352 9 18412545418949779615
3411729 13 18118130173949570176
3421961 26 18336547110339126336
350125 39 18411416185858742701
465052 167 18336540534369513527
5104073 3 18189606151994873603
559249 180 18342178899327973067
5718773 13 18264212422550326127
6138700 20 18341895216353463731
633830 44 17701829787142341571
86090 222 16951383551742408334
8863177 126 17843387506608719731
9709674 26 18054224328854248187

> <PUBCHEM_SHAPE_MULTIPOLES>
464.56
15.24
2.83
0.98
3.98
1.9
0.12
-13.19
0.68
0.92
0.08
1.34
0.03
0.27

> <PUBCHEM_SHAPE_SELFOVERLAP>
999.842

> <PUBCHEM_SHAPE_VOLUME>
255.4

> <PUBCHEM_COORDINATE_TYPE>
2
5
10

$$$$

