254634
  -OEChem-07051213063D

 54 57  0     1  0  0  0  0  0999 V2000
   -4.8466    0.9346   -0.5547 O   0  0  0  0  0  0  0  0  0  0  0  0
    2.5424    1.8954    1.4551 O   0  0  0  0  0  0  0  0  0  0  0  0
   -1.7250   -0.7473    0.3279 C   0  0  2  0  0  0  0  0  0  0  0  0
   -2.4422    0.4459   -0.3402 C   0  0  1  0  0  0  0  0  0  0  0  0
   -0.2856   -0.9425   -0.1702 C   0  0  1  0  0  0  0  0  0  0  0  0
    0.5280    0.3582    0.1204 C   0  0  1  0  0  0  0  0  0  0  0  0
    2.0349    0.2318   -0.3239 C   0  0  2  0  0  0  0  0  0  0  0  0
   -3.8708    0.3013    0.2702 C   0  0  2  0  0  0  0  0  0  0  0  0
   -1.6591    1.7220    0.0130 C   0  0  0  0  0  0  0  0  0  0  0  0
   -0.1843    1.6264   -0.4194 C   0  0  0  0  0  0  0  0  0  0  0  0
    2.6390   -1.0347    0.3708 C   0  0  1  0  0  0  0  0  0  0  0  0
   -2.7142   -1.8961    0.1622 C   0  0  0  0  0  0  0  0  0  0  0  0
    0.3740   -2.1573    0.4975 C   0  0  0  0  0  0  0  0  0  0  0  0
   -4.1002   -1.2344    0.2748 C   0  0  0  0  0  0  0  0  0  0  0  0
    1.8366   -2.3126    0.0946 C   0  0  0  0  0  0  0  0  0  0  0  0
    2.8824    1.4707    0.1350 C   0  0  2  0  0  0  0  0  0  0  0  0
   -2.5293    0.3262   -1.8904 C   0  0  0  0  0  0  0  0  0  0  0  0
    2.1442    0.1217   -1.8709 C   0  0  0  0  0  0  0  0  0  0  0  0
    4.1267   -1.2477    0.0242 C   0  0  0  0  0  0  0  0  0  0  0  0
   -4.0453    0.8795    1.6803 C   0  0  0  0  0  0  0  0  0  0  0  0
    4.3693    1.2382    0.1023 C   0  0  0  0  0  0  0  0  0  0  0  0
    4.9253    0.0208    0.0414 C   0  0  0  0  0  0  0  0  0  0  0  0
   -1.6517   -0.5573    1.4097 H   0  0  0  0  0  0  0  0  0  0  0  0
   -0.3055   -1.1351   -1.2476 H   0  0  0  0  0  0  0  0  0  0  0  0
    0.5300    0.4673    1.2161 H   0  0  0  0  0  0  0  0  0  0  0  0
   -1.6731    1.8985    1.0950 H   0  0  0  0  0  0  0  0  0  0  0  0
   -2.1241    2.5994   -0.4519 H   0  0  0  0  0  0  0  0  0  0  0  0
   -0.1292    1.6655   -1.5109 H   0  0  0  0  0  0  0  0  0  0  0  0
    0.3287    2.5247   -0.0579 H   0  0  0  0  0  0  0  0  0  0  0  0
    2.5913   -0.8636    1.4578 H   0  0  0  0  0  0  0  0  0  0  0  0
   -2.5798   -2.6646    0.9304 H   0  0  0  0  0  0  0  0  0  0  0  0
   -2.6037   -2.3829   -0.8133 H   0  0  0  0  0  0  0  0  0  0  0  0
   -0.1639   -3.0740    0.2291 H   0  0  0  0  0  0  0  0  0  0  0  0
    0.3105   -2.0630    1.5892 H   0  0  0  0  0  0  0  0  0  0  0  0
   -4.7356   -1.5521   -0.5604 H   0  0  0  0  0  0  0  0  0  0  0  0
   -4.6023   -1.5629    1.1921 H   0  0  0  0  0  0  0  0  0  0  0  0
    2.2707   -3.1491    0.6562 H   0  0  0  0  0  0  0  0  0  0  0  0
    1.8994   -2.5874   -0.9648 H   0  0  0  0  0  0  0  0  0  0  0  0
    2.6586    2.3134   -0.5309 H   0  0  0  0  0  0  0  0  0  0  0  0
   -1.5518    0.2289   -2.3688 H   0  0  0  0  0  0  0  0  0  0  0  0
   -3.1223   -0.5367   -2.2103 H   0  0  0  0  0  0  0  0  0  0  0  0
   -3.0011    1.2184   -2.3187 H   0  0  0  0  0  0  0  0  0  0  0  0
    3.1771   -0.0047   -2.2093 H   0  0  0  0  0  0  0  0  0  0  0  0
    1.5763   -0.7212   -2.2725 H   0  0  0  0  0  0  0  0  0  0  0  0
    1.7746    1.0277   -2.3618 H   0  0  0  0  0  0  0  0  0  0  0  0
    4.2347   -1.7153   -0.9617 H   0  0  0  0  0  0  0  0  0  0  0  0
    4.5620   -1.9459    0.7496 H   0  0  0  0  0  0  0  0  0  0  0  0
   -5.0577    0.6816    2.0528 H   0  0  0  0  0  0  0  0  0  0  0  0
   -3.3377    0.4637    2.4025 H   0  0  0  0  0  0  0  0  0  0  0  0
   -3.9403    1.9701    1.6715 H   0  0  0  0  0  0  0  0  0  0  0  0
    5.0149    2.1116    0.1310 H   0  0  0  0  0  0  0  0  0  0  0  0
   -5.7262    0.7004   -0.2120 H   0  0  0  0  0  0  0  0  0  0  0  0
    6.0073   -0.0664    0.0047 H   0  0  0  0  0  0  0  0  0  0  0  0
    3.0445    2.7059    1.6471 H   0  0  0  0  0  0  0  0  0  0  0  0
  1  8  1  0  0  0  0
  1 52  1  0  0  0  0
  2 16  1  0  0  0  0
  2 54  1  0  0  0  0
  3  4  1  0  0  0  0
  3  5  1  0  0  0  0
  3 12  1  0  0  0  0
  3 23  1  0  0  0  0
  4  8  1  0  0  0  0
  4  9  1  0  0  0  0
  4 17  1  0  0  0  0
  5  6  1  0  0  0  0
  5 13  1  0  0  0  0
  5 24  1  0  0  0  0
  6  7  1  0  0  0  0
  6 10  1  0  0  0  0
  6 25  1  0  0  0  0
  7 11  1  0  0  0  0
  7 16  1  0  0  0  0
  7 18  1  0  0  0  0
  8 14  1  0  0  0  0
  8 20  1  0  0  0  0
  9 10  1  0  0  0  0
  9 26  1  0  0  0  0
  9 27  1  0  0  0  0
 10 28  1  0  0  0  0
 10 29  1  0  0  0  0
 11 15  1  0  0  0  0
 11 19  1  0  0  0  0
 11 30  1  0  0  0  0
 12 14  1  0  0  0  0
 12 31  1  0  0  0  0
 12 32  1  0  0  0  0
 13 15  1  0  0  0  0
 13 33  1  0  0  0  0
 13 34  1  0  0  0  0
 14 35  1  0  0  0  0
 14 36  1  0  0  0  0
 15 37  1  0  0  0  0
 15 38  1  0  0  0  0
 16 21  1  0  0  0  0
 16 39  1  0  0  0  0
 17 40  1  0  0  0  0
 17 41  1  0  0  0  0
 17 42  1  0  0  0  0
 18 43  1  0  0  0  0
 18 44  1  0  0  0  0
 18 45  1  0  0  0  0
 19 22  1  0  0  0  0
 19 46  1  0  0  0  0
 19 47  1  0  0  0  0
 20 48  1  0  0  0  0
 20 49  1  0  0  0  0
 20 50  1  0  0  0  0
 21 22  2  0  0  0  0
 21 51  1  0  0  0  0
 22 53  1  0  0  0  0
M  END
> <PUBCHEM_COMPOUND_CID>
254634

> <PUBCHEM_CONFORMER_RMSD>
0.6

> <PUBCHEM_CONFORMER_DIVERSEORDER>
1

> <PUBCHEM_MMFF94_PARTIAL_CHARGES>
11
1 -0.68
16 0.42
19 0.14
2 -0.68
21 -0.29
22 -0.29
51 0.15
52 0.4
53 0.15
54 0.4
8 0.28

> <PUBCHEM_EFFECTIVE_ROTOR_COUNT>
1.8

> <PUBCHEM_PHARMACOPHORE_FEATURES>
8
1 1 acceptor
1 1 donor
1 2 acceptor
1 2 donor
5 3 4 8 12 14 rings
6 3 4 5 6 9 10 rings
6 5 6 7 11 13 15 rings
6 7 11 16 19 21 22 rings

> <PUBCHEM_HEAVY_ATOM_COUNT>
22

> <PUBCHEM_ATOM_DEF_STEREO_COUNT>
8

> <PUBCHEM_ATOM_UDEF_STEREO_COUNT>
0

> <PUBCHEM_BOND_DEF_STEREO_COUNT>
0

> <PUBCHEM_BOND_UDEF_STEREO_COUNT>
0

> <PUBCHEM_ISOTOPIC_ATOM_COUNT>
0

> <PUBCHEM_COMPONENT_COUNT>
1

> <PUBCHEM_CACTVS_TAUTO_COUNT>
1

> <PUBCHEM_CONFORMER_ID>
0003E2AA00000001

> <PUBCHEM_MMFF94_ENERGY>
82.4997

> <PUBCHEM_FEATURE_SELFOVERLAP>
40.682

> <PUBCHEM_SHAPE_FINGERPRINT>
10366900 7 18335424555831739368
10616163 171 18411416185463110287
10646746 165 18411135827351456742
10863032 1 18334294232113856530
10967382 1 18412546539382569890
11132069 177 18202281386026462639
11471102 20 18410015454951563974
11552529 35 17968941864486511375
11578080 2 16771840006906175814
12011746 2 18411134745378394548
12236239 1 17894915157060762029
12403259 226 18412552015608459548
12403259 415 18343588434348221308
12403814 3 17489869332684748999
12596599 1 17896017919572859039
12633257 1 18337677515508251298
12788726 201 17314219132589781665
128620 24 17418092122105817148
13134695 92 17748835128984874488
13140716 1 18339074900118259539
13224815 77 18343302560981841579
13583140 156 18334581222319016789
13675066 3 17917988378009011145
14178342 30 18340485565236944339
14223421 5 18340206400615035182
14790565 3 18125149451564726964
15163728 17 15431701329396982393
15196674 1 18412826871639575450
15209289 33 18409446972937801802
15209294 21 18187917409165991297
15309172 13 18412255143221387675
15536298 74 18409165519652400142
15788980 27 17704353264337044149
16945 1 18267876157821675122
17349148 13 17918275342080578570
1813 80 17060615594521530406
18186145 218 18410855460434123566
19591789 44 18339361868559186258
200 152 18261118461047727015
20645477 70 18334862756987712343
21033648 29 18129961038590255292
21267235 1 18340477903021011043
21421861 104 17986956456163631114
22182313 1 17845376724847982487
22854114 111 18342454850544185446
22854114 59 18343300361947971555
23402539 116 18335708212931229462
23557571 272 18261668160520975687
23559900 14 18411139130534780716
2748010 2 18341332201848640078
296302 2 18334574633422485686
335352 9 18339924921369835166
34934 24 18411985780089238455
350125 39 18413669128254833668
3545911 37 18342455954266371567
474 4 18335422322691598416
5104073 3 18411981351519177170
542803 24 17458060473766692728
633830 44 18187363212366358180
69090 78 18408043991879911622
7364860 26 18336264669015970454
9709674 26 18411975866883265218

> <PUBCHEM_SHAPE_MULTIPOLES>
441.01
9.16
2.15
1.2
0
0.58
-0.27
-1.08
1.04
-0.44
0.35
0.47
-0.36
0.21

> <PUBCHEM_SHAPE_SELFOVERLAP>
939.627

> <PUBCHEM_SHAPE_VOLUME>
242.6

> <PUBCHEM_COORDINATE_TYPE>
2
5
10

$$$$

