440215
  -OEChem-07051212493D

 49 52  0     1  0  0  0  0  0999 V2000
    3.3170    0.5331   -0.5181 O   0  0  0  0  0  0  0  0  0  0  0  0
    2.5256   -1.6608   -0.4518 O   0  0  0  0  0  0  0  0  0  0  0  0
    7.1094   -0.6666    0.5044 O   0  0  0  0  0  0  0  0  0  0  0  0
    6.3611    2.1132    0.7666 O   0  0  0  0  0  0  0  0  0  0  0  0
    4.8006   -2.4127    1.0538 O   0  0  0  0  0  0  0  0  0  0  0  0
    2.5075    3.1574   -0.6352 O   0  0  0  0  0  0  0  0  0  0  0  0
   -1.6146   -0.5454    1.5917 O   0  0  0  0  0  0  0  0  0  0  0  0
   -3.4569   -0.2076   -2.0332 O   0  0  0  0  0  0  0  0  0  0  0  0
    5.7751   -0.2248    0.7595 C   0  0  1  0  0  0  0  0  0  0  0  0
    5.5884    1.1320    0.0802 C   0  0  1  0  0  0  0  0  0  0  0  0
    4.7851   -1.2559    0.2177 C   0  0  2  0  0  0  0  0  0  0  0  0
    4.1155    1.5478    0.0934 C   0  0  1  0  0  0  0  0  0  0  0  0
    3.3610   -0.7009    0.1945 C   0  0  1  0  0  0  0  0  0  0  0  0
    3.8871    2.8420   -0.6812 C   0  0  0  0  0  0  0  0  0  0  0  0
    1.2067   -1.3378   -0.5745 C   0  0  0  0  0  0  0  0  0  0  0  0
    0.4392   -1.0988    0.5654 C   0  0  0  0  0  0  0  0  0  0  0  0
    0.6264   -1.2479   -1.8403 C   0  0  0  0  0  0  0  0  0  0  0  0
   -0.9105   -0.7699    0.4365 C   0  0  0  0  0  0  0  0  0  0  0  0
   -1.4901   -0.6798   -0.8284 C   0  0  0  0  0  0  0  0  0  0  0  0
   -0.7232   -0.9184   -1.9719 C   0  0  0  0  0  0  0  0  0  0  0  0
   -2.9173   -0.3262   -0.9407 C   0  0  0  0  0  0  0  0  0  0  0  0
   -3.6487   -0.1105    0.3382 C   0  0  0  0  0  0  0  0  0  0  0  0
   -2.9484   -0.2374    1.4753 C   0  0  0  0  0  0  0  0  0  0  0  0
   -5.0852    0.2092    0.3697 C   0  0  0  0  0  0  0  0  0  0  0  0
   -5.5075    1.5403    0.3551 C   0  0  0  0  0  0  0  0  0  0  0  0
   -6.0310   -0.8176    0.4145 C   0  0  0  0  0  0  0  0  0  0  0  0
   -6.8688    1.8431    0.3850 C   0  0  0  0  0  0  0  0  0  0  0  0
   -7.3922   -0.5147    0.4443 C   0  0  0  0  0  0  0  0  0  0  0  0
   -7.8112    0.8156    0.4295 C   0  0  0  0  0  0  0  0  0  0  0  0
    5.6800   -0.1354    1.8487 H   0  0  0  0  0  0  0  0  0  0  0  0
    5.9656    1.0683   -0.9489 H   0  0  0  0  0  0  0  0  0  0  0  0
    5.0930   -1.5797   -0.7843 H   0  0  0  0  0  0  0  0  0  0  0  0
    3.7602    1.7007    1.1217 H   0  0  0  0  0  0  0  0  0  0  0  0
    3.0124   -0.5520    1.2250 H   0  0  0  0  0  0  0  0  0  0  0  0
    4.1710    2.7353   -1.7333 H   0  0  0  0  0  0  0  0  0  0  0  0
    4.4384    3.6815   -0.2496 H   0  0  0  0  0  0  0  0  0  0  0  0
    7.7124    0.0152    0.8470 H   0  0  0  0  0  0  0  0  0  0  0  0
    6.4275    2.8947    0.1927 H   0  0  0  0  0  0  0  0  0  0  0  0
    4.1519   -3.0413    0.6932 H   0  0  0  0  0  0  0  0  0  0  0  0
    2.0207    2.4056   -1.0145 H   0  0  0  0  0  0  0  0  0  0  0  0
    0.8756   -1.1832    1.5571 H   0  0  0  0  0  0  0  0  0  0  0  0
    1.2229   -1.4330   -2.7297 H   0  0  0  0  0  0  0  0  0  0  0  0
   -1.1554   -0.8527   -2.9663 H   0  0  0  0  0  0  0  0  0  0  0  0
   -3.3753   -0.1078    2.4623 H   0  0  0  0  0  0  0  0  0  0  0  0
   -4.7855    2.3527    0.3194 H   0  0  0  0  0  0  0  0  0  0  0  0
   -5.7205   -1.8597    0.4256 H   0  0  0  0  0  0  0  0  0  0  0  0
   -7.1952    2.8789    0.3733 H   0  0  0  0  0  0  0  0  0  0  0  0
   -8.1260   -1.3147    0.4788 H   0  0  0  0  0  0  0  0  0  0  0  0
   -8.8710    1.0515    0.4526 H   0  0  0  0  0  0  0  0  0  0  0  0
  1 12  1  0  0  0  0
  1 13  1  0  0  0  0
  2 13  1  0  0  0  0
  2 15  1  0  0  0  0
  3  9  1  0  0  0  0
  3 37  1  0  0  0  0
  4 10  1  0  0  0  0
  4 38  1  0  0  0  0
  5 11  1  0  0  0  0
  5 39  1  0  0  0  0
  6 14  1  0  0  0  0
  6 40  1  0  0  0  0
  7 18  1  0  0  0  0
  7 23  1  0  0  0  0
  8 21  2  0  0  0  0
  9 10  1  0  0  0  0
  9 11  1  0  0  0  0
  9 30  1  0  0  0  0
 10 12  1  0  0  0  0
 10 31  1  0  0  0  0
 11 13  1  0  0  0  0
 11 32  1  0  0  0  0
 12 14  1  0  0  0  0
 12 33  1  0  0  0  0
 13 34  1  0  0  0  0
 14 35  1  0  0  0  0
 14 36  1  0  0  0  0
 15 16  2  0  0  0  0
 15 17  1  0  0  0  0
 16 18  1  0  0  0  0
 16 41  1  0  0  0  0
 17 20  2  0  0  0  0
 17 42  1  0  0  0  0
 18 19  2  0  0  0  0
 19 20  1  0  0  0  0
 19 21  1  0  0  0  0
 20 43  1  0  0  0  0
 21 22  1  0  0  0  0
 22 23  2  0  0  0  0
 22 24  1  0  0  0  0
 23 44  1  0  0  0  0
 24 25  2  0  0  0  0
 24 26  1  0  0  0  0
 25 27  1  0  0  0  0
 25 45  1  0  0  0  0
 26 28  2  0  0  0  0
 26 46  1  0  0  0  0
 27 29  2  0  0  0  0
 27 47  1  0  0  0  0
 28 29  1  0  0  0  0
 28 48  1  0  0  0  0
 29 49  1  0  0  0  0
M  END
> <PUBCHEM_COMPOUND_CID>
440215

> <PUBCHEM_CONFORMER_RMSD>
0.8

> <PUBCHEM_CONFORMER_DIVERSEORDER>
1
19
16
28
24
92
95
45
25
99
17
69
18
93
96
34
47
37
79
72
7
53
36
62
48
65
11
26
58
77
73
14
61
74
85
20
90
3
21
63
81
38
49
29
88
43
44
13
55
97
59
42
94
5
56
15
6
57
39
9
78
54
46
35
71
2
51
64
40
83
30
82
22
52
4
91
23
84
10
66
89
50
12
67
60
41
8
33
80
98
87
68
27
32
70
75
86
31
76

> <PUBCHEM_MMFF94_PARTIAL_CHARGES>
42
1 -0.56
10 0.28
11 0.28
12 0.28
13 0.56
14 0.28
15 0.08
16 -0.15
17 -0.15
18 0.08
19 0.09
2 -0.36
20 -0.15
21 0.47
22 -0.01
23 -0.07
24 0.03
25 -0.15
26 -0.15
27 -0.15
28 -0.15
29 -0.15
3 -0.68
37 0.4
38 0.4
39 0.4
4 -0.68
40 0.4
41 0.15
42 0.15
43 0.15
44 0.15
45 0.15
46 0.15
47 0.15
48 0.15
49 0.15
5 -0.68
6 -0.68
7 -0.16
8 -0.57
9 0.28

> <PUBCHEM_EFFECTIVE_ROTOR_COUNT>
5.2

> <PUBCHEM_PHARMACOPHORE_FEATURES>
16
1 1 acceptor
1 2 acceptor
1 3 acceptor
1 3 donor
1 4 acceptor
1 4 donor
1 5 acceptor
1 5 donor
1 6 acceptor
1 6 donor
1 7 acceptor
1 8 acceptor
6 1 9 10 11 12 13 rings
6 15 16 17 18 19 20 rings
6 24 25 26 27 28 29 rings
6 7 18 19 21 22 23 rings

> <PUBCHEM_HEAVY_ATOM_COUNT>
29

> <PUBCHEM_ATOM_DEF_STEREO_COUNT>
5

> <PUBCHEM_ATOM_UDEF_STEREO_COUNT>
0

> <PUBCHEM_BOND_DEF_STEREO_COUNT>
0

> <PUBCHEM_BOND_UDEF_STEREO_COUNT>
0

> <PUBCHEM_ISOTOPIC_ATOM_COUNT>
0

> <PUBCHEM_COMPONENT_COUNT>
1

> <PUBCHEM_CACTVS_TAUTO_COUNT>
1

> <PUBCHEM_CONFORMER_ID>
0006B79700000001

> <PUBCHEM_MMFF94_ENERGY>
97.4536

> <PUBCHEM_FEATURE_SELFOVERLAP>
81.279

> <PUBCHEM_SHAPE_FINGERPRINT>
10 15 18259984877634562055
10162869 55 18337121090048035007
10670039 82 16733528516420933648
10906281 52 16878209944975609243
10939801 23 18261393296127278728
11456790 92 18202284731732530312
11524674 6 14405177366627019601
11646440 116 16415473874691736389
11796584 16 11599998860792685513
11828532 37 15936698047046126423
11991303 11 17531251630323958751
12107698 1 18342176704030291137
12236239 1 18040438772034243590
12616971 3 18260556627363946207
13167372 99 18335983159315290857
13533116 47 17845937449908637458
13540713 4 16126707039655488159
13617811 41 16226043401514465945
13685833 64 9727633899565748979
13911987 19 16733267950136193365
14705955 166 17489316316627622165
14849402 71 18200869587100462724
15131766 46 18191311472960317116
15183329 4 16298103181669602817
15348495 7 17988636364017814595
15419008 145 18269563891544837272
15419008 47 17418098736308357956
1577012 14 17968383360066230734
18335252 114 18041001764657905940
19301679 30 17980206606696800834
19319366 153 17168427168250102447
20157964 124 18334290993988330538
20505436 4 18187089413024369470
20511986 3 17677062231123073768
21033648 29 17346331387723079612
21130935 74 18131349747983901099
21150785 3 6771859675943307867
21298829 104 18261679160628864800
21641784 216 16443612597897773393
21792934 111 17418372515911605077
22122407 14 18337941333790369593
22224240 67 18060701693450656763
22956985 138 13684361835428077736
23559900 14 15553867911323794751
23569914 2 17765203571394571245
23576562 1 16443930288519219361
24771750 20 16662629644609558681
2838139 119 18335425660250699429
312425 54 17703789223762812059
3383291 50 14764339449520515721
3472631 163 16660649505919641376
34797466 226 18114730608592099447
397830 11 18201425931921255283
4073 2 17988636342311363562
4144715 1 18341320193531426835
4325135 7 18333732408254217519
4340502 62 18411415146360969831
5080951 261 17345766162044348011
54039377 194 11167676395348142272

> <PUBCHEM_SHAPE_MULTIPOLES>
549.85
20.42
2.28
1.37
10.86
1.66
0.47
7.17
-6.02
-3.16
0.26
0.3
-0.41
-0.87

> <PUBCHEM_SHAPE_SELFOVERLAP>
1202.348

> <PUBCHEM_SHAPE_VOLUME>
294.5

> <PUBCHEM_COORDINATE_TYPE>
2
5
10

$$$$

