228944
  -OEChem-07051213043D

 43 46  0     1  0  0  0  0  0999 V2000
    4.7653    1.1231    0.2121 O   0  0  0  0  0  0  0  0  0  0  0  0
    2.3626    0.5748    0.1313 C   0  0  1  0  0  0  0  0  0  0  0  0
    1.6643   -0.6984   -0.3876 C   0  0  2  0  0  0  0  0  0  0  0  0
    0.2022   -0.7741    0.0516 C   0  0  1  0  0  0  0  0  0  0  0  0
   -0.5610    0.4491   -0.5410 C   0  0  2  0  0  0  0  0  0  0  0  0
    3.7823    0.3174   -0.4086 C   0  0  2  0  0  0  0  0  0  0  0  0
    1.6518    1.7900   -0.4765 C   0  0  0  0  0  0  0  0  0  0  0  0
    2.6234   -1.8168    0.0101 C   0  0  0  0  0  0  0  0  0  0  0  0
    0.1416    1.7830   -0.1705 C   0  0  0  0  0  0  0  0  0  0  0  0
    4.0181   -1.1817   -0.1384 C   0  0  0  0  0  0  0  0  0  0  0  0
   -0.4844   -2.0605   -0.4112 C   0  0  0  0  0  0  0  0  0  0  0  0
    2.3911    0.7177    1.6746 C   0  0  0  0  0  0  0  0  0  0  0  0
   -2.0491    0.3872   -0.2073 C   0  0  0  0  0  0  0  0  0  0  0  0
   -1.8893   -2.1384    0.1791 C   0  0  0  0  0  0  0  0  0  0  0  0
   -2.6666   -0.8480    0.0885 C   0  0  0  0  0  0  0  0  0  0  0  0
   -2.8578    1.5357   -0.2721 C   0  0  0  0  0  0  0  0  0  0  0  0
   -4.0454   -0.8944    0.3608 C   0  0  0  0  0  0  0  0  0  0  0  0
   -4.2278    1.4741   -0.0081 C   0  0  0  0  0  0  0  0  0  0  0  0
   -4.8213    0.2601    0.3132 C   0  0  0  0  0  0  0  0  0  0  0  0
    1.6657   -0.6748   -1.4904 H   0  0  0  0  0  0  0  0  0  0  0  0
    0.1467   -0.7472    1.1475 H   0  0  0  0  0  0  0  0  0  0  0  0
   -0.5131    0.3704   -1.6383 H   0  0  0  0  0  0  0  0  0  0  0  0
    3.8241    0.5059   -1.4889 H   0  0  0  0  0  0  0  0  0  0  0  0
    1.7828    1.7930   -1.5665 H   0  0  0  0  0  0  0  0  0  0  0  0
    2.0975    2.7230   -0.1111 H   0  0  0  0  0  0  0  0  0  0  0  0
    2.5171   -2.6965   -0.6329 H   0  0  0  0  0  0  0  0  0  0  0  0
    2.4582   -2.1398    1.0440 H   0  0  0  0  0  0  0  0  0  0  0  0
   -0.0265    2.0087    0.8894 H   0  0  0  0  0  0  0  0  0  0  0  0
   -0.3019    2.6132   -0.7323 H   0  0  0  0  0  0  0  0  0  0  0  0
    4.6199   -1.3492    0.7619 H   0  0  0  0  0  0  0  0  0  0  0  0
    4.5644   -1.6320   -0.9748 H   0  0  0  0  0  0  0  0  0  0  0  0
    0.0794   -2.9467   -0.0994 H   0  0  0  0  0  0  0  0  0  0  0  0
   -0.5376   -2.0853   -1.5073 H   0  0  0  0  0  0  0  0  0  0  0  0
    2.9046    1.6412    1.9667 H   0  0  0  0  0  0  0  0  0  0  0  0
    1.3912    0.7616    2.1141 H   0  0  0  0  0  0  0  0  0  0  0  0
    2.9168   -0.1094    2.1619 H   0  0  0  0  0  0  0  0  0  0  0  0
   -1.8159   -2.4125    1.2394 H   0  0  0  0  0  0  0  0  0  0  0  0
   -2.4387   -2.9395   -0.3301 H   0  0  0  0  0  0  0  0  0  0  0  0
    5.6319    0.8360   -0.1225 H   0  0  0  0  0  0  0  0  0  0  0  0
   -2.4410    2.5028   -0.5367 H   0  0  0  0  0  0  0  0  0  0  0  0
   -4.5212   -1.8400    0.6105 H   0  0  0  0  0  0  0  0  0  0  0  0
   -4.8299    2.3768   -0.0584 H   0  0  0  0  0  0  0  0  0  0  0  0
   -5.8857    0.2106    0.5210 H   0  0  0  0  0  0  0  0  0  0  0  0
  1  6  1  0  0  0  0
  1 39  1  0  0  0  0
  2  3  1  0  0  0  0
  2  6  1  0  0  0  0
  2  7  1  0  0  0  0
  2 12  1  0  0  0  0
  3  4  1  0  0  0  0
  3  8  1  0  0  0  0
  3 20  1  0  0  0  0
  4  5  1  0  0  0  0
  4 11  1  0  0  0  0
  4 21  1  0  0  0  0
  5  9  1  0  0  0  0
  5 13  1  0  0  0  0
  5 22  1  0  0  0  0
  6 10  1  0  0  0  0
  6 23  1  0  0  0  0
  7  9  1  0  0  0  0
  7 24  1  0  0  0  0
  7 25  1  0  0  0  0
  8 10  1  0  0  0  0
  8 26  1  0  0  0  0
  8 27  1  0  0  0  0
  9 28  1  0  0  0  0
  9 29  1  0  0  0  0
 10 30  1  0  0  0  0
 10 31  1  0  0  0  0
 11 14  1  0  0  0  0
 11 32  1  0  0  0  0
 11 33  1  0  0  0  0
 12 34  1  0  0  0  0
 12 35  1  0  0  0  0
 12 36  1  0  0  0  0
 13 15  1  0  0  0  0
 13 16  2  0  0  0  0
 14 15  1  0  0  0  0
 14 37  1  0  0  0  0
 14 38  1  0  0  0  0
 15 17  2  0  0  0  0
 16 18  1  0  0  0  0
 16 40  1  0  0  0  0
 17 19  1  0  0  0  0
 17 41  1  0  0  0  0
 18 19  2  0  0  0  0
 18 42  1  0  0  0  0
 19 43  1  0  0  0  0
M  END
> <PUBCHEM_COMPOUND_CID>
228944

> <PUBCHEM_CONFORMER_RMSD>
0.6

> <PUBCHEM_CONFORMER_DIVERSEORDER>
1

> <PUBCHEM_MMFF94_PARTIAL_CHARGES>
15
1 -0.68
13 -0.14
14 0.14
15 -0.14
16 -0.15
17 -0.15
18 -0.15
19 -0.15
39 0.4
40 0.15
41 0.15
42 0.15
43 0.15
5 0.14
6 0.28

> <PUBCHEM_EFFECTIVE_ROTOR_COUNT>
1.4

> <PUBCHEM_PHARMACOPHORE_FEATURES>
6
1 1 acceptor
1 1 donor
5 2 3 6 8 10 rings
6 13 15 16 17 18 19 rings
6 2 3 4 5 7 9 rings
6 4 5 11 13 14 15 rings

> <PUBCHEM_HEAVY_ATOM_COUNT>
19

> <PUBCHEM_ATOM_DEF_STEREO_COUNT>
5

> <PUBCHEM_ATOM_UDEF_STEREO_COUNT>
0

> <PUBCHEM_BOND_DEF_STEREO_COUNT>
0

> <PUBCHEM_BOND_UDEF_STEREO_COUNT>
0

> <PUBCHEM_ISOTOPIC_ATOM_COUNT>
0

> <PUBCHEM_COMPONENT_COUNT>
1

> <PUBCHEM_CACTVS_TAUTO_COUNT>
1

> <PUBCHEM_CONFORMER_ID>
00037E5000000001

> <PUBCHEM_MMFF94_ENERGY>
66.3839

> <PUBCHEM_FEATURE_SELFOVERLAP>
30.544

> <PUBCHEM_SHAPE_FINGERPRINT>
10411042 1 16681756096431375063
10608611 8 18408888412356599761
10616163 171 18339075969581395047
10967382 1 18339360867593922807
11132069 177 18413111662620994037
11471102 20 18409450305916826014
11578080 2 17097501881956709651
12011746 2 18410008866276514503
12236239 1 17561363972411068956
12251169 10 18341612590367150597
12403259 226 18336832992295037505
12403259 415 18410294748364807413
12403814 3 17561086899469998925
12500047 106 18334581208948915546
12788726 201 17676759985172875744
128620 24 11743839161891471649
13134695 92 16153425039477279344
13140716 1 18124034524749952320
13221675 6 18272089378994444431
13544592 145 18260819441156226534
13675066 3 18335421248891401225
14004511 7 18260263071029035025
14178342 30 18120955914078895042
14341114 176 18411408536426588441
14790565 3 18052812555961711364
14866123 147 16964062264523264306
15196674 1 18411417332139860855
15219456 202 18408885152481794406
15256400 18 18338514243909677469
15295992 7 17894351051455242059
15375358 24 18335421270334641214
15375462 189 17775294871405636344
15442244 35 18411981377225520638
15536298 74 18407758153137112030
1601671 61 18412260632110626540
16945 1 18266748986567414383
17804303 29 18410851062345498885
1813 80 16988560212528955532
18186145 218 18186795911542357467
192875 21 4750875961346705338
19591789 44 18268148845300780863
200 152 18113625582184104349
20510252 161 18335137630874086393
20645477 70 18114742736999813126
21033648 29 18186813482269799665
21249577 43 18410855486203920743
21267235 1 18339913900758313238
21421861 104 17845102938116114858
21501502 16 18196651796039454191
22892500 29 17313112929824639200
23184049 59 18410572907320492255
23402539 116 18333739026028538247
23463225 33 18413669127610995727
23558518 356 17769936774986177289
23559900 14 18336264630598355854
2748010 2 18339365283041797431
296302 2 18410290306856524156
335352 9 18267303312205497622
34934 24 18411422791386165910
350125 39 18411131408210216085
3545911 37 18409444782430660124
4214541 1 18411980282330671965
474 4 16772659993736014212
495365 180 17385738988432664138
5104073 3 18411981381515181522
53812653 166 18408042922295625442
69090 78 18335141986086897503
7364860 26 18266456508238399924
77779 3 18411697703304636687
7832392 63 18336831900750767734
8809292 202 18343577439110513675
9709674 26 18410567362534057071
9981440 41 17119722883031800552

> <PUBCHEM_SHAPE_MULTIPOLES>
385.14
8.7
2.18
0.84
1.64
0.38
0.23
-1.14
0.78
0.14
-0.13
-0.35
-0.12
0.33

> <PUBCHEM_SHAPE_SELFOVERLAP>
837.847

> <PUBCHEM_SHAPE_VOLUME>
209.1

> <PUBCHEM_COORDINATE_TYPE>
2
5
10

$$$$

