8083
  -OEChem-07051213052D

 15 15  0     0  0  0  0  0  0999 V2000
    2.8660    1.3100    0.0000 O   0  0  0  0  0  0  0  0  0  0  0  0
    2.8660   -0.6900    0.0000 N   0  0  0  0  0  0  0  0  0  0  0  0
    3.7320   -0.1900    0.0000 C   0  0  0  0  0  0  0  0  0  0  0  0
    2.0000   -0.1900    0.0000 C   0  0  0  0  0  0  0  0  0  0  0  0
    3.7320    0.8100    0.0000 C   0  0  0  0  0  0  0  0  0  0  0  0
    2.0000    0.8100    0.0000 C   0  0  0  0  0  0  0  0  0  0  0  0
    3.9441   -0.7726    0.0000 H   0  0  0  0  0  0  0  0  0  0  0  0
    4.3426   -0.0823    0.0000 H   0  0  0  0  0  0  0  0  0  0  0  0
    1.3894   -0.0823    0.0000 H   0  0  0  0  0  0  0  0  0  0  0  0
    1.7880   -0.7726    0.0000 H   0  0  0  0  0  0  0  0  0  0  0  0
    4.3426    0.7023    0.0000 H   0  0  0  0  0  0  0  0  0  0  0  0
    3.9441    1.3926    0.0000 H   0  0  0  0  0  0  0  0  0  0  0  0
    1.7880    1.3926    0.0000 H   0  0  0  0  0  0  0  0  0  0  0  0
    1.3894    0.7023    0.0000 H   0  0  0  0  0  0  0  0  0  0  0  0
    2.8660   -1.3100    0.0000 H   0  0  0  0  0  0  0  0  0  0  0  0
  1  5  1  0  0  0  0
  1  6  1  0  0  0  0
  2  3  1  0  0  0  0
  2  4  1  0  0  0  0
  2 15  1  0  0  0  0
  3  5  1  0  0  0  0
  3  7  1  0  0  0  0
  3  8  1  0  0  0  0
  4  6  1  0  0  0  0
  4  9  1  0  0  0  0
  4 10  1  0  0  0  0
  5 11  1  0  0  0  0
  5 12  1  0  0  0  0
  6 13  1  0  0  0  0
  6 14  1  0  0  0  0
M  END
> <PUBCHEM_COMPOUND_CID>
8083

> <PUBCHEM_COMPOUND_CANONICALIZED>
1

> <PUBCHEM_CACTVS_COMPLEXITY>
34.5

> <PUBCHEM_CACTVS_HBOND_ACCEPTOR>
2

> <PUBCHEM_CACTVS_HBOND_DONOR>
1

> <PUBCHEM_CACTVS_ROTATABLE_BOND>
0

> <PUBCHEM_CACTVS_SUBSKEYS>
AAADccBiIAAAAAAAAAAAAAAAAAAAAAAAAAAsAAAAAAAAAAAAAAAAHgAQAAAAAADhgAYAAALABAAAAAAAAAAAAAAAAAAAAIAIAAACAAAAAAADAAAAEACQAAAAAAAAAAAAAAAAAAAAAAAAAAAAAAAAAAAAAA==

> <PUBCHEM_IUPAC_OPENEYE_NAME>
morpholine

> <PUBCHEM_IUPAC_CAS_NAME>
morpholine

> <PUBCHEM_IUPAC_NAME>
morpholine

> <PUBCHEM_IUPAC_SYSTEMATIC_NAME>
morpholine

> <PUBCHEM_IUPAC_TRADITIONAL_NAME>
morpholine

> <PUBCHEM_IUPAC_INCHI>
InChI=1S/C4H9NO/c1-3-6-4-2-5-1/h5H,1-4H2

> <PUBCHEM_IUPAC_INCHIKEY>
YNAVUWVOSKDBBP-UHFFFAOYSA-N

> <PUBCHEM_XLOGP3>
-0.9

> <PUBCHEM_EXACT_MASS>
87.068414

> <PUBCHEM_MOLECULAR_FORMULA>
C4H9NO

> <PUBCHEM_MOLECULAR_WEIGHT>
87.12036

> <PUBCHEM_OPENEYE_CAN_SMILES>
C1COCCN1

> <PUBCHEM_OPENEYE_ISO_SMILES>
C1COCCN1

> <PUBCHEM_CACTVS_TPSA>
21.3

> <PUBCHEM_MONOISOTOPIC_WEIGHT>
87.068414

> <PUBCHEM_TOTAL_CHARGE>
0

> <PUBCHEM_HEAVY_ATOM_COUNT>
6

> <PUBCHEM_ATOM_DEF_STEREO_COUNT>
0

> <PUBCHEM_ATOM_UDEF_STEREO_COUNT>
0

> <PUBCHEM_BOND_DEF_STEREO_COUNT>
0

> <PUBCHEM_BOND_UDEF_STEREO_COUNT>
0

> <PUBCHEM_ISOTOPIC_ATOM_COUNT>
0

> <PUBCHEM_COMPONENT_COUNT>
1

> <PUBCHEM_CACTVS_TAUTO_COUNT>
1

> <PUBCHEM_COORDINATE_TYPE>
1
5
255

$$$$

