6325870
  -OEChem-07051213153D

 73 77  0     1  0  0  0  0  0999 V2000
    4.9537   -0.2047   -0.7187 O   0  0  0  0  0  0  0  0  0  0  0  0
   -3.3552    2.1936   -1.0581 O   0  0  0  0  0  0  0  0  0  0  0  0
    4.4263   -0.3121    1.5516 O   0  0  0  0  0  0  0  0  0  0  0  0
   -3.2342    0.6081    0.7034 O   0  0  0  0  0  0  0  0  0  0  0  0
    8.9395   -0.8355    0.0446 O   0  0  0  0  0  0  0  0  0  0  0  0
    8.1164    0.2283   -2.5139 O   0  0  0  0  0  0  0  0  0  0  0  0
   -7.3471    1.2226   -0.4897 O   0  0  0  0  0  0  0  0  0  0  0  0
   -6.3961    3.8071    0.2605 O   0  0  0  0  0  0  0  0  0  0  0  0
    7.1510    0.1193    2.1825 O   0  0  0  0  0  0  0  0  0  0  0  0
   -5.3306    0.4877   -2.2612 O   0  0  0  0  0  0  0  0  0  0  0  0
    3.9460    0.5021   -3.1766 O   0  0  0  0  0  0  0  0  0  0  0  0
   -0.1491   -1.3990    0.9073 O   0  0  0  0  0  0  0  0  0  0  0  0
   -1.2503    2.5203    1.0816 O   0  0  0  0  0  0  0  0  0  0  0  0
    1.2465    3.2121    1.4336 O   0  0  0  0  0  0  0  0  0  0  0  0
   -3.8278   -4.0970   -2.1726 O   0  0  0  0  0  0  0  0  0  0  0  0
   -4.9592   -5.3660    0.0255 O   0  0  0  0  0  0  0  0  0  0  0  0
    7.7637   -0.0470   -0.1457 C   0  0  1  0  0  0  0  0  0  0  0  0
    7.2275   -0.3288   -1.5493 C   0  0  1  0  0  0  0  0  0  0  0  0
   -5.9869    1.4857   -0.1532 C   0  0  2  0  0  0  0  0  0  0  0  0
   -5.6367    2.9188   -0.5557 C   0  0  2  0  0  0  0  0  0  0  0  0
    6.7315   -0.4061    0.9234 C   0  0  2  0  0  0  0  0  0  0  0  0
    5.8359    0.2816   -1.7318 C   0  0  1  0  0  0  0  0  0  0  0  0
   -5.0728    0.4806   -0.8562 C   0  0  2  0  0  0  0  0  0  0  0  0
   -4.1350    3.1696   -0.3597 C   0  0  2  0  0  0  0  0  0  0  0  0
    5.3600    0.1821    0.5920 C   0  0  1  0  0  0  0  0  0  0  0  0
   -3.6031    0.8436   -0.6510 C   0  0  1  0  0  0  0  0  0  0  0  0
    5.2310   -0.0854   -3.0832 C   0  0  0  0  0  0  0  0  0  0  0  0
   -3.7105    4.5382   -0.8850 C   0  0  0  0  0  0  0  0  0  0  0  0
   -1.9057    0.2600    0.8172 C   0  0  0  0  0  0  0  0  0  0  0  0
    3.1334    0.0947    1.4243 C   0  0  0  0  0  0  0  0  0  0  0  0
    0.4883    0.9289    1.1640 C   0  0  0  0  0  0  0  0  0  0  0  0
    0.7991   -0.4274    1.0975 C   0  0  0  0  0  0  0  0  0  0  0  0
   -0.9160    1.3444    1.0259 C   0  0  0  0  0  0  0  0  0  0  0  0
   -1.4723   -1.0127    0.7637 C   0  0  0  0  0  0  0  0  0  0  0  0
    2.1232   -0.8471    1.2280 C   0  0  0  0  0  0  0  0  0  0  0  0
    2.8208    1.4530    1.4905 C   0  0  0  0  0  0  0  0  0  0  0  0
    1.4971    1.8752    1.3607 C   0  0  0  0  0  0  0  0  0  0  0  0
   -2.3857   -2.1523    0.5670 C   0  0  0  0  0  0  0  0  0  0  0  0
   -2.6814   -2.5953   -0.7225 C   0  0  0  0  0  0  0  0  0  0  0  0
   -2.9552   -2.7889    1.6700 C   0  0  0  0  0  0  0  0  0  0  0  0
   -3.5456   -3.6743   -0.9088 C   0  0  0  0  0  0  0  0  0  0  0  0
   -3.8197   -3.8677    1.4837 C   0  0  0  0  0  0  0  0  0  0  0  0
   -4.1148   -4.3105    0.1944 C   0  0  0  0  0  0  0  0  0  0  0  0
    8.0724    1.0009   -0.0460 H   0  0  0  0  0  0  0  0  0  0  0  0
    7.1999   -1.4148   -1.7071 H   0  0  0  0  0  0  0  0  0  0  0  0
   -5.9048    1.3707    0.9341 H   0  0  0  0  0  0  0  0  0  0  0  0
   -5.9298    3.0988   -1.5967 H   0  0  0  0  0  0  0  0  0  0  0  0
    6.6621   -1.4951    1.0368 H   0  0  0  0  0  0  0  0  0  0  0  0
    5.8763    1.3774   -1.6645 H   0  0  0  0  0  0  0  0  0  0  0  0
   -5.2935   -0.5272   -0.4868 H   0  0  0  0  0  0  0  0  0  0  0  0
   -3.8841    3.1363    0.7080 H   0  0  0  0  0  0  0  0  0  0  0  0
    5.4068    1.2768    0.6627 H   0  0  0  0  0  0  0  0  0  0  0  0
   -3.0052    0.2260   -1.3328 H   0  0  0  0  0  0  0  0  0  0  0  0
    5.1120   -1.1688   -3.1887 H   0  0  0  0  0  0  0  0  0  0  0  0
    5.8322    0.2870   -3.9168 H   0  0  0  0  0  0  0  0  0  0  0  0
   -2.6329    4.6810   -0.7491 H   0  0  0  0  0  0  0  0  0  0  0  0
   -4.2356    5.3475   -0.3691 H   0  0  0  0  0  0  0  0  0  0  0  0
   -3.9054    4.6215   -1.9599 H   0  0  0  0  0  0  0  0  0  0  0  0
    9.5687   -0.5940   -0.6566 H   0  0  0  0  0  0  0  0  0  0  0  0
    7.9009   -0.1615   -3.3776 H   0  0  0  0  0  0  0  0  0  0  0  0
   -7.4281    1.2719   -1.4577 H   0  0  0  0  0  0  0  0  0  0  0  0
   -6.1216    3.6768    1.1842 H   0  0  0  0  0  0  0  0  0  0  0  0
    8.0338   -0.2439    2.3688 H   0  0  0  0  0  0  0  0  0  0  0  0
   -4.7823   -0.2072   -2.6637 H   0  0  0  0  0  0  0  0  0  0  0  0
    2.3696   -1.9046    1.1763 H   0  0  0  0  0  0  0  0  0  0  0  0
    3.4167    0.1725   -2.4302 H   0  0  0  0  0  0  0  0  0  0  0  0
    3.6062    2.1849    1.6618 H   0  0  0  0  0  0  0  0  0  0  0  0
   -2.2340   -2.1053   -1.5845 H   0  0  0  0  0  0  0  0  0  0  0  0
   -2.7343   -2.4555    2.6811 H   0  0  0  0  0  0  0  0  0  0  0  0
    2.0811    3.6921    1.5707 H   0  0  0  0  0  0  0  0  0  0  0  0
   -4.2596   -4.3591    2.3473 H   0  0  0  0  0  0  0  0  0  0  0  0
   -3.3486   -3.5383   -2.8083 H   0  0  0  0  0  0  0  0  0  0  0  0
   -5.0497   -5.5357   -0.9283 H   0  0  0  0  0  0  0  0  0  0  0  0
  1 22  1  0  0  0  0
  1 25  1  0  0  0  0
  2 24  1  0  0  0  0
  2 26  1  0  0  0  0
  3 25  1  0  0  0  0
  3 30  1  0  0  0  0
  4 26  1  0  0  0  0
  4 29  1  0  0  0  0
  5 17  1  0  0  0  0
  5 59  1  0  0  0  0
  6 18  1  0  0  0  0
  6 60  1  0  0  0  0
  7 19  1  0  0  0  0
  7 61  1  0  0  0  0
  8 20  1  0  0  0  0
  8 62  1  0  0  0  0
  9 21  1  0  0  0  0
  9 63  1  0  0  0  0
 10 23  1  0  0  0  0
 10 64  1  0  0  0  0
 11 27  1  0  0  0  0
 11 66  1  0  0  0  0
 12 32  1  0  0  0  0
 12 34  1  0  0  0  0
 13 33  2  0  0  0  0
 14 37  1  0  0  0  0
 14 70  1  0  0  0  0
 15 41  1  0  0  0  0
 15 72  1  0  0  0  0
 16 43  1  0  0  0  0
 16 73  1  0  0  0  0
 17 18  1  0  0  0  0
 17 21  1  0  0  0  0
 17 44  1  0  0  0  0
 18 22  1  0  0  0  0
 18 45  1  0  0  0  0
 19 20  1  0  0  0  0
 19 23  1  0  0  0  0
 19 46  1  0  0  0  0
 20 24  1  0  0  0  0
 20 47  1  0  0  0  0
 21 25  1  0  0  0  0
 21 48  1  0  0  0  0
 22 27  1  0  0  0  0
 22 49  1  0  0  0  0
 23 26  1  0  0  0  0
 23 50  1  0  0  0  0
 24 28  1  0  0  0  0
 24 51  1  0  0  0  0
 25 52  1  0  0  0  0
 26 53  1  0  0  0  0
 27 54  1  0  0  0  0
 27 55  1  0  0  0  0
 28 56  1  0  0  0  0
 28 57  1  0  0  0  0
 28 58  1  0  0  0  0
 29 33  1  0  0  0  0
 29 34  2  0  0  0  0
 30 35  1  0  0  0  0
 30 36  2  0  0  0  0
 31 32  1  0  0  0  0
 31 33  1  0  0  0  0
 31 37  2  0  0  0  0
 32 35  2  0  0  0  0
 34 38  1  0  0  0  0
 35 65  1  0  0  0  0
 36 37  1  0  0  0  0
 36 67  1  0  0  0  0
 38 39  2  0  0  0  0
 38 40  1  0  0  0  0
 39 41  1  0  0  0  0
 39 68  1  0  0  0  0
 40 42  2  0  0  0  0
 40 69  1  0  0  0  0
 41 43  2  0  0  0  0
 42 43  1  0  0  0  0
 42 71  1  0  0  0  0
M  END
> <PUBCHEM_COMPOUND_CID>
6325870

> <PUBCHEM_CONFORMER_RMSD>
1.2

> <PUBCHEM_CONFORMER_DIVERSEORDER>
1
128
157
208
107
162
38
41
190
167
112
180
170
153
89
86
148
207
192
147
74
184
143
79
116
60
138
149
163
146
131
155
176
185
78
70
181
209
126
164
104
169
23
142
95
151
200
196
100
168
189
101
136
213
125
140
165
122
178
66
129
82
47
44
67
109
195
46
134
97
201
160
59
57
171
17
84
53
93
187
121
33
52
156
63
177
212
135
198
39
186
10
133
83
65
161
139
62
36
94
75
43
7
81
40
172
12
61
193
137
110
111
204
152
102
119
145
206
179
108
210
21
68
90
15
85
141
18
99
159
120
11
183
194
80
3
214
106
113
22
203
175
174
88
29
127
87
103
117
130
26
14
132
77
205
114
91
166
45
188
72
98
197
124
37
58
158
54
6
25
199
9
144
173
51
71
50
96
182
5
19
4
123
30
191
69
202
76
49
150
13
24
28
64
211
73
55
118
105
56
115
31
8
92
27
32
42
2
154
48
34
16
35
20

> <PUBCHEM_MMFF94_PARTIAL_CHARGES>
57
1 -0.56
10 -0.68
11 -0.68
12 -0.16
13 -0.57
14 -0.53
15 -0.53
16 -0.53
17 0.28
18 0.28
19 0.28
2 -0.56
20 0.28
21 0.28
22 0.28
23 0.28
24 0.28
25 0.56
26 0.56
27 0.28
29 0.09
3 -0.36
30 0.08
31 0.09
32 0.08
33 0.47
34 0.05
35 -0.15
36 -0.15
37 0.08
38 0.03
39 -0.15
4 -0.36
40 -0.15
41 0.08
42 -0.15
43 0.08
5 -0.68
59 0.4
6 -0.68
60 0.4
61 0.4
62 0.4
63 0.4
64 0.4
65 0.15
66 0.4
67 0.15
68 0.15
69 0.15
7 -0.68
70 0.45
71 0.15
72 0.45
73 0.45
8 -0.68
9 -0.68

> <PUBCHEM_EFFECTIVE_ROTOR_COUNT>
8.4

> <PUBCHEM_PHARMACOPHORE_FEATURES>
28
1 1 acceptor
1 10 acceptor
1 10 donor
1 11 acceptor
1 11 donor
1 12 acceptor
1 13 acceptor
1 14 donor
1 15 donor
1 16 donor
1 2 acceptor
1 3 acceptor
1 4 acceptor
1 5 acceptor
1 5 donor
1 6 acceptor
1 6 donor
1 7 acceptor
1 7 donor
1 8 acceptor
1 8 donor
1 9 acceptor
1 9 donor
6 1 17 18 21 22 25 rings
6 12 29 31 32 33 34 rings
6 2 19 20 23 24 26 rings
6 30 31 32 35 36 37 rings
6 38 39 40 41 42 43 rings

> <PUBCHEM_HEAVY_ATOM_COUNT>
43

> <PUBCHEM_ATOM_DEF_STEREO_COUNT>
10

> <PUBCHEM_ATOM_UDEF_STEREO_COUNT>
0

> <PUBCHEM_BOND_DEF_STEREO_COUNT>
0

> <PUBCHEM_BOND_UDEF_STEREO_COUNT>
0

> <PUBCHEM_ISOTOPIC_ATOM_COUNT>
0

> <PUBCHEM_COMPONENT_COUNT>
1

> <PUBCHEM_CACTVS_TAUTO_COUNT>
57

> <PUBCHEM_CONFORMER_ID>
0060866E00000001

> <PUBCHEM_MMFF94_ENERGY>
142.1011

> <PUBCHEM_FEATURE_SELFOVERLAP>
142.239

> <PUBCHEM_SHAPE_FINGERPRINT>
10050765 1 18267031548266388168
10462385 53 17313657256462326391
11200772 48 18334861645128921131
11991303 11 18271526494008708595
12758862 11 18260277342989712952
131258 43 17698714814133385974
13383668 90 17967543389054589461
13540713 4 18115882806014438720
13690498 29 18338792299865794522
13692115 27 18120085092501509667
13757389 114 18341893022094544205
13782708 43 18042967580280509858
14556957 393 18058438820920911454
14856354 85 18412549812453670045
15064981 194 18272934895679732765
15131766 46 16128081257306419452
15183329 4 18201996668582240700
15328829 1 17561081432103484500
15361156 5 18270113492449446939
15448158 91 17752770117518147538
15510800 12 17603576414409076470
15664458 18 18340221739351972607
19301676 85 18046906253932515982
21307412 95 18040425620875746038
21792938 79 15123222153513080143
21792965 96 18336809937021330307
23559900 14 18189351099087671592
23576562 1 18272087137011545004
24771750 20 17907022030145074909
25269216 80 18199175210070923566
3610482 184 17989202646591829926
513202 73 18190464844590649575
563151 40 18202283610946623467
6700243 42 18120059884884431390

> <PUBCHEM_SHAPE_MULTIPOLES>
791.01
21.4
5.3
2.3
37.12
3.45
1.5
-2.12
8.83
-16.36
0.33
3.63
0.18
0.72

> <PUBCHEM_SHAPE_SELFOVERLAP>
1724.607

> <PUBCHEM_SHAPE_VOLUME>
422.5

> <PUBCHEM_COORDINATE_TYPE>
2
5
10

$$$$

