18780
  -OEChem-07051213143D

 33 36  0     0  0  0  0  0  0999 V2000
    0.3264   -0.3927    0.0001 C   0  0  0  0  0  0  0  0  0  0  0  0
    1.7482   -0.1346    0.0001 C   0  0  0  0  0  0  0  0  0  0  0  0
   -0.6080    0.6840    0.0001 C   0  0  0  0  0  0  0  0  0  0  0  0
   -2.0298    0.4260    0.0002 C   0  0  0  0  0  0  0  0  0  0  0  0
    2.2087    1.2037   -0.0003 C   0  0  0  0  0  0  0  0  0  0  0  0
    2.7507   -1.1406    0.0004 C   0  0  0  0  0  0  0  0  0  0  0  0
   -2.4904   -0.9124   -0.0003 C   0  0  0  0  0  0  0  0  0  0  0  0
   -0.0807    1.9913    0.0001 C   0  0  0  0  0  0  0  0  0  0  0  0
   -0.2010   -1.7001    0.0000 C   0  0  0  0  0  0  0  0  0  0  0  0
    1.2888    2.2469   -0.0003 C   0  0  0  0  0  0  0  0  0  0  0  0
   -1.5704   -1.9557   -0.0004 C   0  0  0  0  0  0  0  0  0  0  0  0
    3.5838    1.4972   -0.0003 C   0  0  0  0  0  0  0  0  0  0  0  0
   -3.0324    1.4320    0.0006 C   0  0  0  0  0  0  0  0  0  0  0  0
    4.1162   -0.8397    0.0002 C   0  0  0  0  0  0  0  0  0  0  0  0
   -3.8656   -1.2058   -0.0005 C   0  0  0  0  0  0  0  0  0  0  0  0
    4.5332    0.4813   -0.0002 C   0  0  0  0  0  0  0  0  0  0  0  0
    2.5351   -2.6221    0.0004 C   0  0  0  0  0  0  0  0  0  0  0  0
   -4.3979    1.1311    0.0004 C   0  0  0  0  0  0  0  0  0  0  0  0
   -4.8149   -0.1898   -0.0002 C   0  0  0  0  0  0  0  0  0  0  0  0
   -0.7292    2.8637    0.0001 H   0  0  0  0  0  0  0  0  0  0  0  0
    0.3512   -2.6164   -0.0002 H   0  0  0  0  0  0  0  0  0  0  0  0
    1.6214    3.2834   -0.0005 H   0  0  0  0  0  0  0  0  0  0  0  0
   -1.9063   -2.9915   -0.0007 H   0  0  0  0  0  0  0  0  0  0  0  0
    3.9294    2.5296   -0.0005 H   0  0  0  0  0  0  0  0  0  0  0  0
   -2.7714    2.4870    0.0011 H   0  0  0  0  0  0  0  0  0  0  0  0
    4.8810   -1.6124    0.0003 H   0  0  0  0  0  0  0  0  0  0  0  0
   -4.2113   -2.2381   -0.0009 H   0  0  0  0  0  0  0  0  0  0  0  0
    5.5916    0.7228   -0.0003 H   0  0  0  0  0  0  0  0  0  0  0  0
    2.0414   -2.9508   -0.9198 H   0  0  0  0  0  0  0  0  0  0  0  0
    3.4801   -3.1824    0.0008 H   0  0  0  0  0  0  0  0  0  0  0  0
    2.0408   -2.9508    0.9202 H   0  0  0  0  0  0  0  0  0  0  0  0
   -5.1294    1.9339    0.0007 H   0  0  0  0  0  0  0  0  0  0  0  0
   -5.8734   -0.4306   -0.0003 H   0  0  0  0  0  0  0  0  0  0  0  0
  1  2  1  0  0  0  0
  1  3  2  0  0  0  0
  1  9  1  0  0  0  0
  2  5  1  0  0  0  0
  2  6  2  0  0  0  0
  3  4  1  0  0  0  0
  3  8  1  0  0  0  0
  4  7  1  0  0  0  0
  4 13  2  0  0  0  0
  5 10  1  0  0  0  0
  5 12  2  0  0  0  0
  6 14  1  0  0  0  0
  6 17  1  0  0  0  0
  7 11  1  0  0  0  0
  7 15  2  0  0  0  0
  8 10  2  0  0  0  0
  8 20  1  0  0  0  0
  9 11  2  0  0  0  0
  9 21  1  0  0  0  0
 10 22  1  0  0  0  0
 11 23  1  0  0  0  0
 12 16  1  0  0  0  0
 12 24  1  0  0  0  0
 13 18  1  0  0  0  0
 13 25  1  0  0  0  0
 14 16  2  0  0  0  0
 14 26  1  0  0  0  0
 15 19  1  0  0  0  0
 15 27  1  0  0  0  0
 16 28  1  0  0  0  0
 17 29  1  0  0  0  0
 17 30  1  0  0  0  0
 17 31  1  0  0  0  0
 18 19  2  0  0  0  0
 18 32  1  0  0  0  0
 19 33  1  0  0  0  0
M  END
> <PUBCHEM_COMPOUND_CID>
18780

> <PUBCHEM_CONFORMER_RMSD>
0.4

> <PUBCHEM_CONFORMER_DIVERSEORDER>
1

> <PUBCHEM_MMFF94_PARTIAL_CHARGES>
24
10 -0.15
11 -0.15
12 -0.15
13 -0.15
14 -0.15
15 -0.15
16 -0.15
17 0.14
18 -0.15
19 -0.15
20 0.15
21 0.15
22 0.15
23 0.15
24 0.15
25 0.15
26 0.15
27 0.15
28 0.15
32 0.15
33 0.15
6 -0.14
8 -0.15
9 -0.15

> <PUBCHEM_EFFECTIVE_ROTOR_COUNT>
0

> <PUBCHEM_PHARMACOPHORE_FEATURES>
4
6 1 2 3 5 8 10 rings
6 1 3 4 7 9 11 rings
6 2 5 6 12 14 16 rings
6 4 7 13 15 18 19 rings

> <PUBCHEM_HEAVY_ATOM_COUNT>
19

> <PUBCHEM_ATOM_DEF_STEREO_COUNT>
0

> <PUBCHEM_ATOM_UDEF_STEREO_COUNT>
0

> <PUBCHEM_BOND_DEF_STEREO_COUNT>
0

> <PUBCHEM_BOND_UDEF_STEREO_COUNT>
0

> <PUBCHEM_ISOTOPIC_ATOM_COUNT>
0

> <PUBCHEM_COMPONENT_COUNT>
1

> <PUBCHEM_CACTVS_TAUTO_COUNT>
1

> <PUBCHEM_CONFORMER_ID>
0000495C00000001

> <PUBCHEM_MMFF94_ENERGY>
84.7566

> <PUBCHEM_FEATURE_SELFOVERLAP>
20.367

> <PUBCHEM_SHAPE_FINGERPRINT>
10062212 137 18260274036080756191
10411042 1 17834394901394679110
10608611 8 18410577249369034497
10616163 171 18337670793700082743
10906281 52 18270101462620304480
10967382 1 18410856577051858278
11132069 177 18410298012101829744
11471102 20 18410858746005003148
11578080 2 16808146688340716131
116883 192 18118116107472128822
12011746 2 18408882949427134036
12107183 9 17687460578420821281
12236239 1 17821728338869365545
13132413 78 18408885139686628373
13140716 1 18122064195702328680
13583140 156 14057573464783939503
138480 1 17978510067969220802
13862211 1 18410862074546979466
14178342 30 17975715904111642026
14790565 3 18052531076611035460
14866123 147 17109026266969861610
15196674 1 18410855460128161793
15442244 35 18337672034923993081
15536298 74 18407477764713157226
1601671 61 18410572890293714220
16945 1 18194683661572457764
17492 89 18409166589168666783
17804303 29 18410008806352960165
1813 80 17203608194237078884
18186145 218 17989494025826194831
19591789 44 18267867361818213259
200 152 18040437672590882085
20645477 70 18334857246560586638
21029758 11 18334580139871499449
21267235 1 18410565193617471630
21279426 13 18266740379479281797
21421861 104 17915749871478063746
21452121 103 18188782647924494600
221490 88 18269266872664120563
2334 1 18410575084673667394
23402539 116 18261401043593107237
23463225 33 18411418431561707398
23559900 14 18335986471347012014
2748010 2 18411138064691833966
3004659 81 18272366512666612790
335352 9 18338517555076041116
34934 24 18409736144817770530
350125 39 18410571787004239753
3545911 37 18410572877208222281
4214541 1 18410573998400583745
474 4 17488457478024082172
495365 180 17531261525659199376
5104073 3 18410856551065699691
69090 78 18408325471251705879
7364860 26 18335702711210030792
77779 3 18411135831472363681
7832392 63 18336550421510712254
8809292 202 18272086037541692859
9709674 26 18410568466177160727
9981440 41 17260750646688493184

> <PUBCHEM_SHAPE_MULTIPOLES>
391.01
8.72
2.46
0.62
2.42
0.31
0
-0.14
0
-0.82
0
0
0
0

> <PUBCHEM_SHAPE_SELFOVERLAP>
895.712

> <PUBCHEM_SHAPE_VOLUME>
186.5

> <PUBCHEM_COORDINATE_TYPE>
2
5
10

$$$$

