13137
  -OEChem-06261207482D

 20 18  0     0  0  0  0  0  0999 V2000
    3.6310    2.2671    0.0000 Sr  0  2  0  0  0  0  0  0  0  0  0  0
    5.3381   -0.8542    0.0000 O   0  0  0  0  0  0  0  0  0  0  0  0
    3.7650   -1.6471    0.0000 O   0  0  0  0  0  0  0  0  0  0  0  0
    5.4970   -1.6471    0.0000 O   0  0  0  0  0  0  0  0  0  0  0  0
    4.6310    2.2671    0.0000 O   0  5  0  0  0  0  0  0  0  0  0  0
    2.9239    1.5600    0.0000 O   0  5  0  0  0  0  0  0  0  0  0  0
    6.2620    1.9427    0.0000 O   0  0  0  0  0  0  0  0  0  0  0  0
    2.0000    0.1773    0.0000 O   0  0  0  0  0  0  0  0  0  0  0  0
    4.6310   -0.1471    0.0000 C   0  0  0  0  0  0  0  0  0  0  0  0
    5.3381    0.5600    0.0000 C   0  0  0  0  0  0  0  0  0  0  0  0
    3.6310   -0.1471    0.0000 C   0  0  0  0  0  0  0  0  0  0  0  0
    4.6310   -1.1471    0.0000 C   0  0  0  0  0  0  0  0  0  0  0  0
    5.3381    1.5600    0.0000 C   0  0  0  0  0  0  0  0  0  0  0  0
    2.9239    0.5600    0.0000 C   0  0  0  0  0  0  0  0  0  0  0  0
    3.0941   -0.4571    0.0000 H   0  0  0  0  0  0  0  0  0  0  0  0
    3.7914   -0.7460    0.0000 H   0  0  0  0  0  0  0  0  0  0  0  0
    5.6481    0.0231    0.0000 H   0  0  0  0  0  0  0  0  0  0  0  0
    5.9370    0.7205    0.0000 H   0  0  0  0  0  0  0  0  0  0  0  0
    5.9370   -0.6937    0.0000 H   0  0  0  0  0  0  0  0  0  0  0  0
    3.7650   -2.2671    0.0000 H   0  0  0  0  0  0  0  0  0  0  0  0
  2  9  1  0  0  0  0
  2 19  1  0  0  0  0
  3 12  1  0  0  0  0
  3 20  1  0  0  0  0
  4 12  2  0  0  0  0
  5 13  1  0  0  0  0
  6 14  1  0  0  0  0
  7 13  2  0  0  0  0
  8 14  2  0  0  0  0
  9 10  1  0  0  0  0
  9 11  1  0  0  0  0
  9 12  1  0  0  0  0
 10 13  1  0  0  0  0
 10 17  1  0  0  0  0
 10 18  1  0  0  0  0
 11 14  1  0  0  0  0
 11 15  1  0  0  0  0
 11 16  1  0  0  0  0
M  CHG  3   1   2   5  -1   6  -1
M  END
> <PUBCHEM_COMPOUND_CID>
13137

> <PUBCHEM_COMPOUND_CANONICALIZED>
1

> <PUBCHEM_CACTVS_COMPLEXITY>
216

> <PUBCHEM_CACTVS_HBOND_ACCEPTOR>
7

> <PUBCHEM_CACTVS_HBOND_DONOR>
2

> <PUBCHEM_CACTVS_ROTATABLE_BOND>
3

> <PUBCHEM_CACTVS_SUBSKEYS>
AAADcYBgOAAAAAAABAAAAAAAAAAAAAAAAAAAAAAAAAAAAAAAAAAAGgAACAAADESAgAAACAAAAgAIAACQCAIAAAAAAAAAAAFAAAABABYAAAAAQAAFIAABAADLJgAKAAAAAAAAAAAAAAAAAAAAAAAAAAAAAA==

> <PUBCHEM_IUPAC_OPENEYE_NAME>
strontium 3-carboxy-3-hydroxy-pentanedioate

> <PUBCHEM_IUPAC_CAS_NAME>
strontium 3-carboxy-3-hydroxypentanedioate

> <PUBCHEM_IUPAC_NAME>
strontium 3-carboxy-3-hydroxypentanedioate

> <PUBCHEM_IUPAC_SYSTEMATIC_NAME>
strontium 3-carboxy-3-oxidanyl-pentanedioate

> <PUBCHEM_IUPAC_TRADITIONAL_NAME>
strontium 3-carboxy-3-hydroxy-glutarate

> <PUBCHEM_IUPAC_INCHI>
InChI=1S/C6H8O7.Sr/c7-3(8)1-6(13,5(11)12)2-4(9)10;/h13H,1-2H2,(H,7,8)(H,9,10)(H,11,12);/q;+2/p-2

> <PUBCHEM_IUPAC_INCHIKEY>
AOOMUVYEFFNMQG-UHFFFAOYSA-L

> <PUBCHEM_EXACT_MASS>
277.916965

> <PUBCHEM_MOLECULAR_FORMULA>
C6H6O7Sr

> <PUBCHEM_MOLECULAR_WEIGHT>
277.72764

> <PUBCHEM_OPENEYE_CAN_SMILES>
C(C(=O)[O-])C(CC(=O)[O-])(C(=O)O)O.[Sr+2]

> <PUBCHEM_OPENEYE_ISO_SMILES>
C(C(=O)[O-])C(CC(=O)[O-])(C(=O)O)O.[Sr+2]

> <PUBCHEM_CACTVS_TPSA>
138

> <PUBCHEM_MONOISOTOPIC_WEIGHT>
277.916965

> <PUBCHEM_TOTAL_CHARGE>
0

> <PUBCHEM_HEAVY_ATOM_COUNT>
14

> <PUBCHEM_ATOM_DEF_STEREO_COUNT>
0

> <PUBCHEM_ATOM_UDEF_STEREO_COUNT>
0

> <PUBCHEM_BOND_DEF_STEREO_COUNT>
0

> <PUBCHEM_BOND_UDEF_STEREO_COUNT>
0

> <PUBCHEM_ISOTOPIC_ATOM_COUNT>
0

> <PUBCHEM_COMPONENT_COUNT>
2

> <PUBCHEM_CACTVS_TAUTO_COUNT>
1

> <PUBCHEM_COORDINATE_TYPE>
1
5
255

$$$$

