46173969
  -OEChem-07051213103D

 58 62  0     1  0  0  0  0  0999 V2000
    0.7993   -1.4951    0.6817 O   0  0  0  0  0  0  0  0  0  0  0  0
   -0.7584   -0.4109   -2.3441 O   0  0  0  0  0  0  0  0  0  0  0  0
    2.5931    2.1560   -0.8254 O   0  0  0  0  0  0  0  0  0  0  0  0
   -0.8508   -1.5019    2.3746 O   0  0  0  0  0  0  0  0  0  0  0  0
    4.6067   -0.2800   -1.1519 O   0  0  0  0  0  0  0  0  0  0  0  0
   -6.0022   -0.6306   -0.0022 O   0  0  0  0  0  0  0  0  0  0  0  0
   -0.3387   -0.2471   -1.0040 C   0  0  2  0  0  0  0  0  0  0  0  0
   -1.3433   -0.7498    0.0428 C   0  0  1  0  0  0  0  0  0  0  0  0
   -0.2611    1.2612   -0.6700 C   0  0  2  0  0  0  0  0  0  0  0  0
    0.6805    1.4633    0.5541 C   0  0  2  0  0  0  0  0  0  0  0  0
    0.9379   -1.0444   -0.6803 C   0  0  1  0  0  0  0  0  0  0  0  0
    2.1362    1.1023    0.0515 C   0  0  1  0  0  0  0  0  0  0  0  0
   -0.3445   -0.8242    1.2345 C   0  0  2  0  0  0  0  0  0  0  0  0
    2.2018   -0.1927   -0.8244 C   0  0  1  0  0  0  0  0  0  0  0  0
   -2.3995    0.3791    0.1880 C   0  0  1  0  0  0  0  0  0  0  0  0
    0.1633    0.5528    1.7109 C   0  0  0  0  0  0  0  0  0  0  0  0
   -1.7361    1.6232   -0.4340 C   0  0  0  0  0  0  0  0  0  0  0  0
    3.5314   -0.8668   -0.4032 C   0  0  2  0  0  0  0  0  0  0  0  0
    3.2142    0.9479    1.1500 C   0  0  0  0  0  0  0  0  0  0  0  0
   -1.9441   -2.1256   -0.2958 C   0  0  0  0  0  0  0  0  0  0  0  0
    0.6480    2.9272    1.0514 C   0  0  0  0  0  0  0  0  0  0  0  0
    3.7010   -0.4952    1.0681 C   0  0  0  0  0  0  0  0  0  0  0  0
   -3.7565    0.1328   -0.4733 C   0  0  1  0  0  0  0  0  0  0  0  0
    3.6269   -2.3686   -0.6385 C   0  0  0  0  0  0  0  0  0  0  0  0
   -4.6426   -0.7719    0.3879 C   0  0  0  0  0  0  0  0  0  0  0  0
   -4.4625    1.4590   -0.7485 C   0  0  0  0  0  0  0  0  0  0  0  0
    0.0877    1.8452   -1.5291 H   0  0  0  0  0  0  0  0  0  0  0  0
    1.0076   -1.9326   -1.3184 H   0  0  0  0  0  0  0  0  0  0  0  0
    2.2774    0.0776   -1.8874 H   0  0  0  0  0  0  0  0  0  0  0  0
   -2.5748    0.5777    1.2529 H   0  0  0  0  0  0  0  0  0  0  0  0
   -0.6473    1.0558    2.2547 H   0  0  0  0  0  0  0  0  0  0  0  0
    0.9426    0.4120    2.4674 H   0  0  0  0  0  0  0  0  0  0  0  0
   -2.1109    1.8406   -1.4380 H   0  0  0  0  0  0  0  0  0  0  0  0
   -1.8869    2.5209    0.1698 H   0  0  0  0  0  0  0  0  0  0  0  0
    4.0575    1.6231    0.9547 H   0  0  0  0  0  0  0  0  0  0  0  0
    2.8668    1.1843    2.1584 H   0  0  0  0  0  0  0  0  0  0  0  0
   -2.5056   -2.5312    0.5497 H   0  0  0  0  0  0  0  0  0  0  0  0
   -2.5643   -2.1242   -1.1949 H   0  0  0  0  0  0  0  0  0  0  0  0
   -1.1509   -2.8572   -0.4923 H   0  0  0  0  0  0  0  0  0  0  0  0
    1.4211    3.1026    1.8071 H   0  0  0  0  0  0  0  0  0  0  0  0
   -0.3092    3.1873    1.5142 H   0  0  0  0  0  0  0  0  0  0  0  0
    0.8132    3.6338    0.2311 H   0  0  0  0  0  0  0  0  0  0  0  0
    3.0923   -1.1312    1.7195 H   0  0  0  0  0  0  0  0  0  0  0  0
    4.7422   -0.5668    1.4005 H   0  0  0  0  0  0  0  0  0  0  0  0
   -3.6378   -0.3290   -1.4607 H   0  0  0  0  0  0  0  0  0  0  0  0
   -0.0425   -0.0915   -2.9193 H   0  0  0  0  0  0  0  0  0  0  0  0
    2.0494    2.1667   -1.6290 H   0  0  0  0  0  0  0  0  0  0  0  0
   -0.3165   -1.2586    3.1487 H   0  0  0  0  0  0  0  0  0  0  0  0
    2.9136   -2.9351   -0.0330 H   0  0  0  0  0  0  0  0  0  0  0  0
    3.4548   -2.6090   -1.6936 H   0  0  0  0  0  0  0  0  0  0  0  0
    4.6325   -2.7329   -0.3976 H   0  0  0  0  0  0  0  0  0  0  0  0
   -4.5762   -0.5010    1.4469 H   0  0  0  0  0  0  0  0  0  0  0  0
   -4.4023   -1.8281    0.2832 H   0  0  0  0  0  0  0  0  0  0  0  0
    4.4629   -0.4846   -2.0918 H   0  0  0  0  0  0  0  0  0  0  0  0
   -4.0147    2.0447   -1.5547 H   0  0  0  0  0  0  0  0  0  0  0  0
   -5.4924    1.3133   -1.0924 H   0  0  0  0  0  0  0  0  0  0  0  0
   -4.5103    2.0813    0.1525 H   0  0  0  0  0  0  0  0  0  0  0  0
   -6.5285   -1.2068    0.5780 H   0  0  0  0  0  0  0  0  0  0  0  0
  1 11  1  0  0  0  0
  1 13  1  0  0  0  0
  2  7  1  0  0  0  0
  2 46  1  0  0  0  0
  3 12  1  0  0  0  0
  3 47  1  0  0  0  0
  4 13  1  0  0  0  0
  4 48  1  0  0  0  0
  5 18  1  0  0  0  0
  5 54  1  0  0  0  0
  6 25  1  0  0  0  0
  6 58  1  0  0  0  0
  7  8  1  0  0  0  0
  7  9  1  0  0  0  0
  7 11  1  0  0  0  0
  8 13  1  0  0  0  0
  8 15  1  0  0  0  0
  8 20  1  0  0  0  0
  9 10  1  0  0  0  0
  9 17  1  0  0  0  0
  9 27  1  0  0  0  0
 10 12  1  0  0  0  0
 10 16  1  0  0  0  0
 10 21  1  0  0  0  0
 11 14  1  0  0  0  0
 11 28  1  0  0  0  0
 12 14  1  0  0  0  0
 12 19  1  0  0  0  0
 13 16  1  0  0  0  0
 14 18  1  0  0  0  0
 14 29  1  0  0  0  0
 15 17  1  0  0  0  0
 15 23  1  0  0  0  0
 15 30  1  0  0  0  0
 16 31  1  0  0  0  0
 16 32  1  0  0  0  0
 17 33  1  0  0  0  0
 17 34  1  0  0  0  0
 18 22  1  0  0  0  0
 18 24  1  0  0  0  0
 19 22  1  0  0  0  0
 19 35  1  0  0  0  0
 19 36  1  0  0  0  0
 20 37  1  0  0  0  0
 20 38  1  0  0  0  0
 20 39  1  0  0  0  0
 21 40  1  0  0  0  0
 21 41  1  0  0  0  0
 21 42  1  0  0  0  0
 22 43  1  0  0  0  0
 22 44  1  0  0  0  0
 23 25  1  0  0  0  0
 23 26  1  0  0  0  0
 23 45  1  0  0  0  0
 24 49  1  0  0  0  0
 24 50  1  0  0  0  0
 24 51  1  0  0  0  0
 25 52  1  0  0  0  0
 25 53  1  0  0  0  0
 26 55  1  0  0  0  0
 26 56  1  0  0  0  0
 26 57  1  0  0  0  0
M  END
> <PUBCHEM_COMPOUND_CID>
46173969

> <PUBCHEM_CONFORMER_RMSD>
0.8

> <PUBCHEM_CONFORMER_DIVERSEORDER>
1
2

> <PUBCHEM_MMFF94_PARTIAL_CHARGES>
17
1 -0.56
11 0.28
12 0.28
13 0.56
18 0.28
2 -0.68
25 0.28
3 -0.68
4 -0.68
46 0.4
47 0.4
48 0.4
5 -0.68
54 0.4
58 0.4
6 -0.68
7 0.28

> <PUBCHEM_EFFECTIVE_ROTOR_COUNT>
3.4

> <PUBCHEM_PHARMACOPHORE_FEATURES>
15
1 1 acceptor
1 2 acceptor
1 2 donor
1 26 hydrophobe
1 3 acceptor
1 3 donor
1 4 acceptor
1 4 donor
1 5 acceptor
1 5 donor
1 6 acceptor
1 6 donor
10 1 7 8 9 10 11 13 15 16 17 rings
5 12 14 18 19 22 rings
9 1 7 9 10 11 12 13 14 16 rings

> <PUBCHEM_HEAVY_ATOM_COUNT>
26

> <PUBCHEM_ATOM_DEF_STEREO_COUNT>
8

> <PUBCHEM_ATOM_UDEF_STEREO_COUNT>
3

> <PUBCHEM_BOND_DEF_STEREO_COUNT>
0

> <PUBCHEM_BOND_UDEF_STEREO_COUNT>
0

> <PUBCHEM_ISOTOPIC_ATOM_COUNT>
0

> <PUBCHEM_COMPONENT_COUNT>
1

> <PUBCHEM_CACTVS_TAUTO_COUNT>
1

> <PUBCHEM_CONFORMER_ID>
02C08F1100000001

> <PUBCHEM_MMFF94_ENERGY>
146.0205

> <PUBCHEM_FEATURE_SELFOVERLAP>
79.578

> <PUBCHEM_SHAPE_FINGERPRINT>
10076449 9 18187348949049019694
10863032 1 18263361399816340221
10948715 1 18200877266491015677
11578080 2 17342910703822588569
11961588 58 17059760132063446356
12011746 2 18412541020096315775
12236239 1 15267344015656565395
12403259 226 18409454678600176413
12422481 6 16952794306495534659
12592029 89 18113896095639865247
12788726 201 18340766052614335296
13134695 92 17967818240817247329
13140716 1 18193003620769233027
13583140 156 17678181486135033419
14787075 74 18343579633669873289
14866123 147 17324636073355113018
15142383 8 16950554533054359033
15420108 30 14812166689194552195
15788980 27 16660364805301113365
15848702 151 18261111906669222311
1601671 61 18270122447640822949
16945 1 18410574023853792052
17349148 13 17095234835072250855
17980427 23 17627247667015505956
18186145 218 17918280852391802789
19591789 44 18338801216550151959
19930381 70 18049158062093211510
200 152 17603864541878463782
20691752 17 17130725884900332971
21267235 1 18261666060693294806
22393880 68 18200050507668363767
23184049 59 17603588534094356260
23402539 116 17968657237024358713
23419403 2 15829749401542460439
23559900 14 18411697729528361670
296302 2 16081376210961089536
3286 77 17703519869141430120
3323516 105 18411984675892272715
465052 167 18186513285530593487
474 4 15122361240313859974
5104073 3 18335423525155503561
633830 44 18202290199457759333
7495541 125 18261109622121128187
9981440 41 17398125850082082361
9999458 23 18060422391605688669

> <PUBCHEM_SHAPE_MULTIPOLES>
499.85
7.93
2.28
1.51
5.87
0.63
-0.29
-1.76
0.98
-0.76
-0.13
-0.24
-0.17
0.69

> <PUBCHEM_SHAPE_SELFOVERLAP>
1110.128

> <PUBCHEM_SHAPE_VOLUME>
268.9

> <PUBCHEM_COORDINATE_TYPE>
2
5
10

$$$$

