17396116
  -OEChem-06241222543D

 48 51  0     0  0  0  0  0  0999 V2000
    0.7800    0.7163    2.5217 O   0  0  0  0  0  0  0  0  0  0  0  0
   -4.1299    0.4848   -0.3784 N   0  0  0  0  0  0  0  0  0  0  0  0
   -0.1308    0.4823    0.4068 N   0  0  0  0  0  0  0  0  0  0  0  0
    2.7550   -0.6364    0.0741 N   0  0  0  0  0  0  0  0  0  0  0  0
   -5.0250    1.1499    0.5654 C   0  0  0  0  0  0  0  0  0  0  0  0
   -4.0032    1.2382   -1.6236 C   0  0  0  0  0  0  0  0  0  0  0  0
   -5.2287    2.5365   -0.0410 C   0  0  0  0  0  0  0  0  0  0  0  0
   -5.1155    2.2804   -1.5337 C   0  0  0  0  0  0  0  0  0  0  0  0
   -3.4837   -0.7060   -0.1248 C   0  0  0  0  0  0  0  0  0  0  0  0
   -2.2194   -0.7203    0.4640 C   0  0  0  0  0  0  0  0  0  0  0  0
   -1.5263    0.5505    0.8371 C   0  0  0  0  0  0  0  0  0  0  0  0
   -4.1087   -1.9059   -0.4642 C   0  0  0  0  0  0  0  0  0  0  0  0
   -1.5799   -1.9347    0.7136 C   0  0  0  0  0  0  0  0  0  0  0  0
   -3.4693   -3.1203   -0.2146 C   0  0  0  0  0  0  0  0  0  0  0  0
   -2.2050   -3.1345    0.3743 C   0  0  0  0  0  0  0  0  0  0  0  0
    0.9776    0.5601    1.2978 C   0  0  0  0  0  0  0  0  0  0  0  0
    2.2980    0.4552    0.7626 C   0  0  0  0  0  0  0  0  0  0  0  0
    0.0753    0.3005   -1.0243 C   0  0  0  0  0  0  0  0  0  0  0  0
    4.0611   -0.4403   -0.3142 C   0  0  0  0  0  0  0  0  0  0  0  0
    4.4417    0.8219    0.1465 C   0  0  0  0  0  0  0  0  0  0  0  0
    3.3193    1.3750    0.8241 C   0  0  0  0  0  0  0  0  0  0  0  0
    4.9259   -1.2751   -1.0309 C   0  0  0  0  0  0  0  0  0  0  0  0
    5.7489    1.2754   -0.1200 C   0  0  0  0  0  0  0  0  0  0  0  0
    6.2177   -0.8044   -1.2829 C   0  0  0  0  0  0  0  0  0  0  0  0
    6.6250    0.4510   -0.8355 C   0  0  0  0  0  0  0  0  0  0  0  0
   -5.9748    0.6065    0.6228 H   0  0  0  0  0  0  0  0  0  0  0  0
   -4.5928    1.2190    1.5690 H   0  0  0  0  0  0  0  0  0  0  0  0
   -3.0243    1.7250   -1.6803 H   0  0  0  0  0  0  0  0  0  0  0  0
   -4.1331    0.6018   -2.5051 H   0  0  0  0  0  0  0  0  0  0  0  0
   -6.1856    2.9818    0.2448 H   0  0  0  0  0  0  0  0  0  0  0  0
   -4.4255    3.2091    0.2839 H   0  0  0  0  0  0  0  0  0  0  0  0
   -4.8895    3.1843   -2.1060 H   0  0  0  0  0  0  0  0  0  0  0  0
   -6.0550    1.8598   -1.9124 H   0  0  0  0  0  0  0  0  0  0  0  0
   -1.5816    0.6851    1.9227 H   0  0  0  0  0  0  0  0  0  0  0  0
   -1.9493    1.4476    0.3782 H   0  0  0  0  0  0  0  0  0  0  0  0
   -5.0941   -1.9084   -0.9235 H   0  0  0  0  0  0  0  0  0  0  0  0
   -0.6037   -1.9785    1.1885 H   0  0  0  0  0  0  0  0  0  0  0  0
   -3.9563   -4.0546   -0.4777 H   0  0  0  0  0  0  0  0  0  0  0  0
   -1.7092   -4.0803    0.5725 H   0  0  0  0  0  0  0  0  0  0  0  0
    0.1954   -0.7634   -1.2469 H   0  0  0  0  0  0  0  0  0  0  0  0
    0.9600    0.8425   -1.3686 H   0  0  0  0  0  0  0  0  0  0  0  0
   -0.7777    0.6952   -1.5843 H   0  0  0  0  0  0  0  0  0  0  0  0
    2.2183   -1.4716   -0.1160 H   0  0  0  0  0  0  0  0  0  0  0  0
    3.2684    2.3437    1.3034 H   0  0  0  0  0  0  0  0  0  0  0  0
    4.6095   -2.2524   -1.3797 H   0  0  0  0  0  0  0  0  0  0  0  0
    6.0794    2.2516    0.2229 H   0  0  0  0  0  0  0  0  0  0  0  0
    6.9144   -1.4283   -1.8368 H   0  0  0  0  0  0  0  0  0  0  0  0
    7.6345    0.7954   -1.0438 H   0  0  0  0  0  0  0  0  0  0  0  0
  1 16  2  0  0  0  0
  2  5  1  0  0  0  0
  2  6  1  0  0  0  0
  2  9  1  0  0  0  0
  3 11  1  0  0  0  0
  3 16  1  0  0  0  0
  3 18  1  0  0  0  0
  4 17  1  0  0  0  0
  4 19  1  0  0  0  0
  4 43  1  0  0  0  0
  5  7  1  0  0  0  0
  5 26  1  0  0  0  0
  5 27  1  0  0  0  0
  6  8  1  0  0  0  0
  6 28  1  0  0  0  0
  6 29  1  0  0  0  0
  7  8  1  0  0  0  0
  7 30  1  0  0  0  0
  7 31  1  0  0  0  0
  8 32  1  0  0  0  0
  8 33  1  0  0  0  0
  9 10  1  0  0  0  0
  9 12  2  0  0  0  0
 10 11  1  0  0  0  0
 10 13  2  0  0  0  0
 11 34  1  0  0  0  0
 11 35  1  0  0  0  0
 12 14  1  0  0  0  0
 12 36  1  0  0  0  0
 13 15  1  0  0  0  0
 13 37  1  0  0  0  0
 14 15  2  0  0  0  0
 14 38  1  0  0  0  0
 15 39  1  0  0  0  0
 16 17  1  0  0  0  0
 17 21  2  0  0  0  0
 18 40  1  0  0  0  0
 18 41  1  0  0  0  0
 18 42  1  0  0  0  0
 19 20  1  0  0  0  0
 19 22  2  0  0  0  0
 20 21  1  0  0  0  0
 20 23  2  0  0  0  0
 21 44  1  0  0  0  0
 22 24  1  0  0  0  0
 22 45  1  0  0  0  0
 23 25  1  0  0  0  0
 23 46  1  0  0  0  0
 24 25  2  0  0  0  0
 24 47  1  0  0  0  0
 25 48  1  0  0  0  0
M  END
> <PUBCHEM_COMPOUND_CID>
17396116

> <PUBCHEM_CONFORMER_RMSD>
0.8

> <PUBCHEM_CONFORMER_DIVERSEORDER>
1
83
12
3
51
27
23
13
63
47
65
22
24
59
85
67
21
25
76
74
90
15
64
19
28
42
29
20
57
16
89
88
14
81
35
49
41
11
44
33
30
82
80
60
54
39
52
91
32
46
7
43
26
8
87
86
55
10
94
38
17
48
73
6
72
18
61
2
56
69
62
34
92
5
70
75
31
37
50
40
9
58
45
4
68
36
79
53
71
77
93
66
78
84
95

> <PUBCHEM_MMFF94_PARTIAL_CHARGES>
32
1 -0.57
10 -0.14
11 0.44
12 -0.15
13 -0.15
14 -0.15
15 -0.15
16 0.71
17 -0.24
18 0.3
19 -0.15
2 -0.84
21 -0.15
22 -0.15
23 -0.15
24 -0.15
25 -0.15
3 -0.66
36 0.15
37 0.15
38 0.15
39 0.15
4 0.03
43 0.27
44 0.15
45 0.15
46 0.15
47 0.15
48 0.15
5 0.37
6 0.37
9 0.1

> <PUBCHEM_EFFECTIVE_ROTOR_COUNT>
6

> <PUBCHEM_PHARMACOPHORE_FEATURES>
8
1 1 acceptor
1 2 cation
1 4 cation
1 4 donor
5 2 5 6 7 8 rings
5 4 17 19 20 21 rings
6 19 20 22 23 24 25 rings
6 9 10 12 13 14 15 rings

> <PUBCHEM_HEAVY_ATOM_COUNT>
25

> <PUBCHEM_ATOM_DEF_STEREO_COUNT>
0

> <PUBCHEM_ATOM_UDEF_STEREO_COUNT>
0

> <PUBCHEM_BOND_DEF_STEREO_COUNT>
0

> <PUBCHEM_BOND_UDEF_STEREO_COUNT>
0

> <PUBCHEM_ISOTOPIC_ATOM_COUNT>
0

> <PUBCHEM_COMPONENT_COUNT>
1

> <PUBCHEM_CACTVS_TAUTO_COUNT>
2

> <PUBCHEM_CONFORMER_ID>
0109719400000001

> <PUBCHEM_MMFF94_ENERGY>
87.8539

> <PUBCHEM_FEATURE_SELFOVERLAP>
40.686

> <PUBCHEM_SHAPE_FINGERPRINT>
10 15 10303806554633211926
10165383 225 18337104670899856113
10369192 42 14835825305875139162
105312 117 18343024428001332103
107951 10 18202278113251691491
10803635 8 18411136939637645394
10835480 77 18260271815804665136
11135609 201 9366187027795964086
11796584 16 18335138700690266490
12166972 35 14201695134308388673
12342043 65 17825947027214581379
12596602 18 6194835952433341854
12616971 3 16200441269056268224
12643181 29 18335138730850139174
12788726 201 17751078217871641520
12892183 10 8862951563114637576
12895836 83 18201722881464640333
12954195 1 18334863797319356935
13690498 29 18263363577671338359
13761468 95 17486783140373281773
14251757 5 18412825785271500817
14713325 29 18271803498230984851
14790565 3 18049722124991320993
14856354 85 16056583357947938473
15081414 286 14045743738404799462
15183329 4 18336265742462018632
15230672 131 18270399520371630890
15575132 122 17702391839374642277
15849732 13 17988917886650777901
17349148 13 14129340646050031221
17844677 252 18339637828765960956
17913733 40 13758361072311267208
18608769 82 18339636747141500131
19958102 18 18265049317958962012
200 152 16949998132219311930
20681677 155 18273495675804264003
20871999 31 18343305820856842099
21033648 29 18041572346794209424
21033650 10 18130788949312670576
21065201 7 18338526226636448683
21279426 13 18334007333010552942
21315764 119 18270109232237281526
21756936 100 17132113546068679305
22061861 79 17894629253782995372
22122407 14 14764358136728223823
2215653 11 17967535696398512900
22393880 68 18410015407928801354
23081809 10 17418381268590398920
23198884 109 18408041836149317853
23559900 14 18259707783218421752
244849 19 17532390681024522307
24771293 8 17702662130720777084
3004659 81 18408600375593176314
314194 84 16515399660588173494
392239 28 8430308069732250087
4015057 19 17530972345358406601
4073 2 18341326696338837762
44062 13 18335139761040812471
46194498 28 18122908633644138232
5265222 85 18338789010105397502
5283173 99 18410857650735777016
6327066 14 17986967417616795085
6608658 132 17560254599628455693

> <PUBCHEM_SHAPE_MULTIPOLES>
493.68
15.73
2.74
1.41
14.72
1.6
-0.19
-4.67
6.24
-5.04
0.29
0.06
-0.45
1.58

> <PUBCHEM_SHAPE_SELFOVERLAP>
1079.024

> <PUBCHEM_SHAPE_VOLUME>
270.1

> <PUBCHEM_COORDINATE_TYPE>
2
5
10

$$$$

