5281854
  -OEChem-07051213003D

 56 56  0     0  0  0  0  0  0999 V2000
   -7.5182   -1.3137    0.9922 O   0  0  0  0  0  0  0  0  0  0  0  0
    0.3227   -1.3330   -0.0167 C   0  0  0  0  0  0  0  0  0  0  0  0
    1.6084   -1.7816   -0.7175 C   0  0  0  0  0  0  0  0  0  0  0  0
   -0.8376   -1.1049   -0.9891 C   0  0  0  0  0  0  0  0  0  0  0  0
    2.7978   -1.9393    0.2363 C   0  0  0  0  0  0  0  0  0  0  0  0
   -2.0809   -0.5844   -0.2605 C   0  0  0  0  0  0  0  0  0  0  0  0
    4.0723   -2.4038   -0.4778 C   0  0  0  0  0  0  0  0  0  0  0  0
   -3.2549   -0.3063   -1.2065 C   0  0  0  0  0  0  0  0  0  0  0  0
    5.8732    1.0281    1.0561 C   0  0  0  0  0  0  0  0  0  0  0  0
    5.7812    2.4391    0.4614 C   0  0  0  0  0  0  0  0  0  0  0  0
    5.9587   -0.1166    0.0406 C   0  0  0  0  0  0  0  0  0  0  0  0
    4.6138    2.6869   -0.4986 C   0  0  0  0  0  0  0  0  0  0  0  0
    5.2493   -2.4835    0.4509 C   0  0  0  0  0  0  0  0  0  0  0  0
   -4.5115    0.1396   -0.5016 C   0  0  0  0  0  0  0  0  0  0  0  0
    6.0916   -1.4663    0.6840 C   0  0  0  0  0  0  0  0  0  0  0  0
    3.2439    2.5517    0.1661 C   0  0  0  0  0  0  0  0  0  0  0  0
   -5.4454   -0.8050   -0.0760 C   0  0  0  0  0  0  0  0  0  0  0  0
   -4.7395    1.4969   -0.2753 C   0  0  0  0  0  0  0  0  0  0  0  0
    2.1192    2.8135   -0.8235 C   0  0  0  0  0  0  0  0  0  0  0  0
   -6.6073   -0.3923    0.5761 C   0  0  0  0  0  0  0  0  0  0  0  0
   -5.9014    1.9098    0.3768 C   0  0  0  0  0  0  0  0  0  0  0  0
   -6.8352    0.9652    0.8024 C   0  0  0  0  0  0  0  0  0  0  0  0
    0.0341   -2.0847    0.7281 H   0  0  0  0  0  0  0  0  0  0  0  0
    0.5226   -0.4031    0.5304 H   0  0  0  0  0  0  0  0  0  0  0  0
    1.8693   -1.0500   -1.4925 H   0  0  0  0  0  0  0  0  0  0  0  0
    1.4252   -2.7344   -1.2291 H   0  0  0  0  0  0  0  0  0  0  0  0
   -1.0760   -2.0426   -1.5048 H   0  0  0  0  0  0  0  0  0  0  0  0
   -0.5361   -0.3806   -1.7554 H   0  0  0  0  0  0  0  0  0  0  0  0
    2.9805   -0.9797    0.7352 H   0  0  0  0  0  0  0  0  0  0  0  0
    2.5377   -2.6585    1.0234 H   0  0  0  0  0  0  0  0  0  0  0  0
   -1.8285    0.3356    0.2824 H   0  0  0  0  0  0  0  0  0  0  0  0
   -2.3868   -1.3178    0.4967 H   0  0  0  0  0  0  0  0  0  0  0  0
    3.9031   -3.4089   -0.8861 H   0  0  0  0  0  0  0  0  0  0  0  0
    4.2795   -1.7813   -1.3542 H   0  0  0  0  0  0  0  0  0  0  0  0
   -3.4756   -1.2077   -1.7934 H   0  0  0  0  0  0  0  0  0  0  0  0
   -2.9628    0.4553   -1.9413 H   0  0  0  0  0  0  0  0  0  0  0  0
    5.0147    0.8600    1.7184 H   0  0  0  0  0  0  0  0  0  0  0  0
    6.7594    0.9954    1.7039 H   0  0  0  0  0  0  0  0  0  0  0  0
    5.7301    3.1631    1.2839 H   0  0  0  0  0  0  0  0  0  0  0  0
    6.7147    2.6486   -0.0759 H   0  0  0  0  0  0  0  0  0  0  0  0
    6.8411    0.0404   -0.5921 H   0  0  0  0  0  0  0  0  0  0  0  0
    5.0944   -0.0539   -0.6216 H   0  0  0  0  0  0  0  0  0  0  0  0
    4.7129    3.7045   -0.8978 H   0  0  0  0  0  0  0  0  0  0  0  0
    4.6830    2.0149   -1.3612 H   0  0  0  0  0  0  0  0  0  0  0  0
    5.4113   -3.4251    0.9691 H   0  0  0  0  0  0  0  0  0  0  0  0
    6.9206   -1.6186    1.3698 H   0  0  0  0  0  0  0  0  0  0  0  0
    3.1639    3.2568    1.0014 H   0  0  0  0  0  0  0  0  0  0  0  0
    3.1163    1.5448    0.5764 H   0  0  0  0  0  0  0  0  0  0  0  0
   -5.2658   -1.8632   -0.2510 H   0  0  0  0  0  0  0  0  0  0  0  0
   -4.0183    2.2420   -0.6005 H   0  0  0  0  0  0  0  0  0  0  0  0
    2.1869    3.8247   -1.2370 H   0  0  0  0  0  0  0  0  0  0  0  0
    1.1481    2.7126   -0.3285 H   0  0  0  0  0  0  0  0  0  0  0  0
    2.1523    2.0989   -1.6523 H   0  0  0  0  0  0  0  0  0  0  0  0
   -6.0787    2.9666    0.5536 H   0  0  0  0  0  0  0  0  0  0  0  0
   -7.7383    1.2929    1.3102 H   0  0  0  0  0  0  0  0  0  0  0  0
   -7.2003   -2.2016    0.7541 H   0  0  0  0  0  0  0  0  0  0  0  0
  1 20  1  0  0  0  0
  1 56  1  0  0  0  0
  2  3  1  0  0  0  0
  2  4  1  0  0  0  0
  2 23  1  0  0  0  0
  2 24  1  0  0  0  0
  3  5  1  0  0  0  0
  3 25  1  0  0  0  0
  3 26  1  0  0  0  0
  4  6  1  0  0  0  0
  4 27  1  0  0  0  0
  4 28  1  0  0  0  0
  5  7  1  0  0  0  0
  5 29  1  0  0  0  0
  5 30  1  0  0  0  0
  6  8  1  0  0  0  0
  6 31  1  0  0  0  0
  6 32  1  0  0  0  0
  7 13  1  0  0  0  0
  7 33  1  0  0  0  0
  7 34  1  0  0  0  0
  8 14  1  0  0  0  0
  8 35  1  0  0  0  0
  8 36  1  0  0  0  0
  9 10  1  0  0  0  0
  9 11  1  0  0  0  0
  9 37  1  0  0  0  0
  9 38  1  0  0  0  0
 10 12  1  0  0  0  0
 10 39  1  0  0  0  0
 10 40  1  0  0  0  0
 11 15  1  0  0  0  0
 11 41  1  0  0  0  0
 11 42  1  0  0  0  0
 12 16  1  0  0  0  0
 12 43  1  0  0  0  0
 12 44  1  0  0  0  0
 13 15  2  0  0  0  0
 13 45  1  0  0  0  0
 14 17  2  0  0  0  0
 14 18  1  0  0  0  0
 15 46  1  0  0  0  0
 16 19  1  0  0  0  0
 16 47  1  0  0  0  0
 16 48  1  0  0  0  0
 17 20  1  0  0  0  0
 17 49  1  0  0  0  0
 18 21  2  0  0  0  0
 18 50  1  0  0  0  0
 19 51  1  0  0  0  0
 19 52  1  0  0  0  0
 19 53  1  0  0  0  0
 20 22  2  0  0  0  0
 21 22  1  0  0  0  0
 21 54  1  0  0  0  0
 22 55  1  0  0  0  0
M  END
> <PUBCHEM_COMPOUND_CID>
5281854

> <PUBCHEM_CONFORMER_RMSD>
1.6

> <PUBCHEM_CONFORMER_DIVERSEORDER>
4
51
29
13
10
9
56
1
67
72
19
61
37
21
25
60
17
38
16
23
70
11
15
7
6
53
44
46
58
71
24
30
62
20
54
40
47
28
26
43
31
27
59
68
65
5
55
66
57
35
8
2
32
63
39
33
49
3
69
22
50
64
52
48
14
36
12
34
42
73
41
45
18

> <PUBCHEM_MMFF94_PARTIAL_CHARGES>
19
1 -0.53
11 0.14
13 -0.29
14 -0.14
15 -0.29
17 -0.15
18 -0.15
20 0.08
21 -0.15
22 -0.15
45 0.15
46 0.15
49 0.15
50 0.15
54 0.15
55 0.15
56 0.45
7 0.14
8 0.14

> <PUBCHEM_EFFECTIVE_ROTOR_COUNT>
13

> <PUBCHEM_PHARMACOPHORE_FEATURES>
5
1 1 donor
1 19 hydrophobe
3 10 12 16 hydrophobe
3 9 11 15 hydrophobe
6 14 17 18 20 21 22 rings

> <PUBCHEM_HEAVY_ATOM_COUNT>
22

> <PUBCHEM_ATOM_DEF_STEREO_COUNT>
0

> <PUBCHEM_ATOM_UDEF_STEREO_COUNT>
0

> <PUBCHEM_BOND_DEF_STEREO_COUNT>
1

> <PUBCHEM_BOND_UDEF_STEREO_COUNT>
0

> <PUBCHEM_ISOTOPIC_ATOM_COUNT>
0

> <PUBCHEM_COMPONENT_COUNT>
1

> <PUBCHEM_CACTVS_TAUTO_COUNT>
9

> <PUBCHEM_CONFORMER_ID>
0050983E00000004

> <PUBCHEM_MMFF94_ENERGY>
19.9478

> <PUBCHEM_FEATURE_SELFOVERLAP>
25.384

> <PUBCHEM_SHAPE_FINGERPRINT>
12717326 120 16055736639779642755
14251764 75 18124313801526963972
14464042 87 17967812760686709392
14849402 71 18343014467650841516
14933364 13 18335421304742209555
15183329 4 17967249780278477269
15348495 7 18272084993975715067
15419008 145 18269284628692282576
16760501 71 18411138021905879670
17810953 82 18408888404710949860
20721686 56 18341618135819322101
21298829 104 18261399897707751352
21641784 216 15864062208644815914
29717793 49 6915971574132809114
373842 8 18410007758233526496
397830 11 18272927185844574067
4093350 32 17530399534908795956
5104073 3 18340474635183408121
5364581 5 18341047415968907587

> <PUBCHEM_SHAPE_MULTIPOLES>
446.88
22.95
3.47
1
20.64
1.54
0.04
2.9
-7.4
-6.35
0.18
0.24
0
-0.24

> <PUBCHEM_SHAPE_SELFOVERLAP>
864.071

> <PUBCHEM_SHAPE_VOLUME>
271

> <PUBCHEM_COORDINATE_TYPE>
2
5
10

$$$$

