47205593
  -OEChem-06241222593D

 35 37  0     0  0  0  0  0  0999 V2000
   -3.9659    1.7925   -0.0032 S   0  0  0  0  0  0  0  0  0  0  0  0
   -0.3464   -1.2155    0.0658 O   0  0  0  0  0  0  0  0  0  0  0  0
   -3.3319   -0.7500    0.0521 N   0  0  0  0  0  0  0  0  0  0  0  0
   -1.5082    0.8375    0.0200 N   0  0  0  0  0  0  0  0  0  0  0  0
    3.3570    0.7862    0.0135 N   0  0  0  0  0  0  0  0  0  0  0  0
    4.7812   -1.0509    0.0042 N   0  0  0  0  0  0  0  0  0  0  0  0
    5.6440    1.1989   -0.0353 N   0  0  0  0  0  0  0  0  0  0  0  0
   -7.0181   -0.7773   -0.2803 C   0  0  0  0  0  0  0  0  0  0  0  0
   -6.6610    0.7193    0.0158 C   0  0  0  0  0  0  0  0  0  0  0  0
   -5.7554   -1.6367    0.0699 C   0  0  0  0  0  0  0  0  0  0  0  0
   -5.1872    0.6521    0.0185 C   0  0  0  0  0  0  0  0  0  0  0  0
   -4.6874   -0.6188    0.0471 C   0  0  0  0  0  0  0  0  0  0  0  0
   -2.8294    0.4742    0.0261 C   0  0  0  0  0  0  0  0  0  0  0  0
    0.9312    0.8258    0.0244 C   0  0  0  0  0  0  0  0  0  0  0  0
   -0.3540    0.0107    0.0393 C   0  0  0  0  0  0  0  0  0  0  0  0
    2.1793   -0.0463    0.0449 C   0  0  0  0  0  0  0  0  0  0  0  0
    4.6512    0.2894   -0.0067 C   0  0  0  0  0  0  0  0  0  0  0  0
    6.0535   -1.4997   -0.0159 C   0  0  0  0  0  0  0  0  0  0  0  0
    6.8899    0.6811   -0.0543 C   0  0  0  0  0  0  0  0  0  0  0  0
    7.1577   -0.6726   -0.0456 C   0  0  0  0  0  0  0  0  0  0  0  0
   -7.9070   -1.1065    0.2672 H   0  0  0  0  0  0  0  0  0  0  0  0
   -7.2342   -0.8851   -1.3516 H   0  0  0  0  0  0  0  0  0  0  0  0
   -7.0425    1.0164    0.9978 H   0  0  0  0  0  0  0  0  0  0  0  0
   -7.0654    1.3819   -0.7539 H   0  0  0  0  0  0  0  0  0  0  0  0
   -5.6014   -2.4324   -0.6635 H   0  0  0  0  0  0  0  0  0  0  0  0
   -5.8533   -2.0720    1.0693 H   0  0  0  0  0  0  0  0  0  0  0  0
   -1.3537    1.8427   -0.0014 H   0  0  0  0  0  0  0  0  0  0  0  0
    0.9251    1.4557   -0.8738 H   0  0  0  0  0  0  0  0  0  0  0  0
    0.9229    1.4940    0.8944 H   0  0  0  0  0  0  0  0  0  0  0  0
    2.1813   -0.6678    0.9486 H   0  0  0  0  0  0  0  0  0  0  0  0
    2.1709   -0.7194   -0.8213 H   0  0  0  0  0  0  0  0  0  0  0  0
    3.2569    1.7950    0.0085 H   0  0  0  0  0  0  0  0  0  0  0  0
    6.1646   -2.5787   -0.0071 H   0  0  0  0  0  0  0  0  0  0  0  0
    7.6940    1.4089   -0.0774 H   0  0  0  0  0  0  0  0  0  0  0  0
    8.1674   -1.0601   -0.0613 H   0  0  0  0  0  0  0  0  0  0  0  0
  1 11  1  0  0  0  0
  1 13  1  0  0  0  0
  2 15  2  0  0  0  0
  3 12  1  0  0  0  0
  3 13  2  0  0  0  0
  4 13  1  0  0  0  0
  4 15  1  0  0  0  0
  4 27  1  0  0  0  0
  5 16  1  0  0  0  0
  5 17  1  0  0  0  0
  5 32  1  0  0  0  0
  6 17  1  0  0  0  0
  6 18  2  0  0  0  0
  7 17  2  0  0  0  0
  7 19  1  0  0  0  0
  8  9  1  0  0  0  0
  8 10  1  0  0  0  0
  8 21  1  0  0  0  0
  8 22  1  0  0  0  0
  9 11  1  0  0  0  0
  9 23  1  0  0  0  0
  9 24  1  0  0  0  0
 10 12  1  0  0  0  0
 10 25  1  0  0  0  0
 10 26  1  0  0  0  0
 11 12  2  0  0  0  0
 14 15  1  0  0  0  0
 14 16  1  0  0  0  0
 14 28  1  0  0  0  0
 14 29  1  0  0  0  0
 16 30  1  0  0  0  0
 16 31  1  0  0  0  0
 18 20  1  0  0  0  0
 18 33  1  0  0  0  0
 19 20  2  0  0  0  0
 19 34  1  0  0  0  0
 20 35  1  0  0  0  0
M  END
> <PUBCHEM_COMPOUND_CID>
47205593

> <PUBCHEM_CONFORMER_RMSD>
0.8

> <PUBCHEM_CONFORMER_DIVERSEORDER>
1
11
61
50
52
18
56
3
44
6
59
36
25
41
22
53
21
47
20
10
60
26
54
42
16
14
4
45
43
23
24
33
27
19
62
17
64
2
46
7
35
31
51
9
15
55
5
37
34
39
29
28
49
8
13
48
40
57
32
12
30
63
58
38

> <PUBCHEM_MMFF94_PARTIAL_CHARGES>
24
1 -0.08
10 0.18
11 -0.14
12 0.05
13 0.44
14 0.06
15 0.57
16 0.37
17 0.72
18 0.16
19 0.16
2 -0.57
20 -0.15
27 0.37
3 -0.57
32 0.4
33 0.15
34 0.15
35 0.15
4 -0.49
5 -0.87
6 -0.62
7 -0.62
9 0.18

> <PUBCHEM_EFFECTIVE_ROTOR_COUNT>
6.6

> <PUBCHEM_PHARMACOPHORE_FEATURES>
8
1 2 acceptor
1 4 donor
1 5 donor
1 6 acceptor
4 5 6 7 17 cation
5 1 3 11 12 13 rings
5 8 9 10 11 12 rings
6 6 7 17 18 19 20 rings

> <PUBCHEM_HEAVY_ATOM_COUNT>
20

> <PUBCHEM_ATOM_DEF_STEREO_COUNT>
0

> <PUBCHEM_ATOM_UDEF_STEREO_COUNT>
0

> <PUBCHEM_BOND_DEF_STEREO_COUNT>
0

> <PUBCHEM_BOND_UDEF_STEREO_COUNT>
0

> <PUBCHEM_ISOTOPIC_ATOM_COUNT>
0

> <PUBCHEM_COMPONENT_COUNT>
1

> <PUBCHEM_CACTVS_TAUTO_COUNT>
6

> <PUBCHEM_CONFORMER_ID>
02D04CD900000001

> <PUBCHEM_MMFF94_ENERGY>
58.508

> <PUBCHEM_FEATURE_SELFOVERLAP>
40.804

> <PUBCHEM_SHAPE_FINGERPRINT>
10066227 49 18188488094561845182
10299344 5 18410572889940071914
10595046 47 18412261766092639064
10968037 39 18343021086796259235
11315181 36 18261108570112720713
11524674 6 16443347551033897759
11719270 70 18040435520907901478
12091667 2 17561363989791540977
12166972 35 18411134719145295888
12236239 1 18413670214211484076
12516196 113 18333170561759465680
12616971 3 16009040453361493992
13288520 33 18410575076975321837
13533116 47 17203056282850716546
13668630 136 18187078477678437238
13685833 64 18408322185754562336
13885169 127 18410293644610966341
14123256 10 17989488519593822811
14178184 131 17970628485781657767
14251732 16 18410012113535533960
14251764 18 18408884031795861068
14251764 46 18410576184227493200
14933364 13 18409729564711796632
15183329 4 18342175591849753722
15716309 27 18259704493115002767
15778101 99 18336826515590305017
15849732 13 18272370858413796590
17844677 252 18409442596614651032
18681886 176 18411706448058713129
19489759 90 18202281411991581665
20281389 69 18412827988663674096
21150785 3 17775845705546283846
21267235 1 18342454808485874267
21315763 28 18411419527443142496
21623969 137 17748823033871750558
220451 1 4750874832187245652
22224240 67 14707212114737401964
23035841 295 18411982464263638307
232437 2 18411699907920779826
23402539 116 18334298668883723173
23521765 1 18335420166401477924
23536379 177 18410292532024220984
23559900 14 18338804399442821433
3004659 81 18342738533877735424
335352 9 18410578384348202845
33684 2 18413672413936151729
397830 11 15648199377288704546
4073 2 17988075587655799618
42788 4 18410855469150807952
4325135 7 18410293609765645775
67123 10 18411136932033810092
8209 1 18412826884656222709
9996256 80 18410294717835435950
999808 66 18130777924933676467

> <PUBCHEM_SHAPE_MULTIPOLES>
384.67
23.33
1.5
0.6
14.07
0.08
0
3.52
0.74
-0.64
0
-0.09
-0.01
-0.05

> <PUBCHEM_SHAPE_SELFOVERLAP>
806.049

> <PUBCHEM_SHAPE_VOLUME>
219.1

> <PUBCHEM_COORDINATE_TYPE>
2
5
10

$$$$

