5462501
  -OEChem-07051213023D

 49 50  0     1  0  0  0  0  0999 V2000
   -1.5598   -0.9577   -1.3035 O   0  0  0  0  0  0  0  0  0  0  0  0
   -4.5032   -3.2403   -0.3274 O   0  0  0  0  0  0  0  0  0  0  0  0
   -5.1582   -1.2131   -1.1381 O   0  0  0  0  0  0  0  0  0  0  0  0
    0.9122    2.5025    1.8351 O   0  0  0  0  0  0  0  0  0  0  0  0
    1.0064    3.5239   -0.1864 O   0  0  0  0  0  0  0  0  0  0  0  0
   -3.0762   -0.0633    0.1987 N   0  0  0  0  0  0  0  0  0  0  0  0
   -0.1064    1.2658   -1.3100 N   0  0  0  0  0  0  0  0  0  0  0  0
   -3.5874   -1.3340    0.6958 C   0  0  1  0  0  0  0  0  0  0  0  0
   -4.3437   -0.9754    1.9697 C   0  0  0  0  0  0  0  0  0  0  0  0
   -4.8188    0.4522    1.7105 C   0  0  0  0  0  0  0  0  0  0  0  0
   -3.6761    1.0613    0.9122 C   0  0  0  0  0  0  0  0  0  0  0  0
   -2.0412    0.0148   -0.7200 C   0  0  0  0  0  0  0  0  0  0  0  0
   -1.5177    1.4024   -0.9924 C   0  0  2  0  0  0  0  0  0  0  0  0
   -4.5008   -1.8852   -0.3574 C   0  0  0  0  0  0  0  0  0  0  0  0
    0.6914    1.1111   -0.0996 C   0  0  1  0  0  0  0  0  0  0  0  0
    2.0345    0.4600   -0.4586 C   0  0  0  0  0  0  0  0  0  0  0  0
   -2.2781    2.0258   -2.1455 C   0  0  0  0  0  0  0  0  0  0  0  0
    2.9662    0.2198    0.7396 C   0  0  0  0  0  0  0  0  0  0  0  0
    0.8936    2.5010    0.4778 C   0  0  0  0  0  0  0  0  0  0  0  0
    4.2538   -0.4894    0.3987 C   0  0  0  0  0  0  0  0  0  0  0  0
    4.3153   -1.8824    0.4419 C   0  0  0  0  0  0  0  0  0  0  0  0
    5.3824    0.2477    0.0399 C   0  0  0  0  0  0  0  0  0  0  0  0
    5.5054   -2.5381    0.1266 C   0  0  0  0  0  0  0  0  0  0  0  0
    6.5725   -0.4082   -0.2756 C   0  0  0  0  0  0  0  0  0  0  0  0
    6.6338   -1.8011   -0.2322 C   0  0  0  0  0  0  0  0  0  0  0  0
   -2.7539   -2.0236    0.8666 H   0  0  0  0  0  0  0  0  0  0  0  0
   -5.1727   -1.6528    2.1952 H   0  0  0  0  0  0  0  0  0  0  0  0
   -3.6546   -0.9779    2.8230 H   0  0  0  0  0  0  0  0  0  0  0  0
   -5.7342    0.4373    1.1072 H   0  0  0  0  0  0  0  0  0  0  0  0
   -5.0296    1.0041    2.6308 H   0  0  0  0  0  0  0  0  0  0  0  0
   -4.0175    1.8374    0.2239 H   0  0  0  0  0  0  0  0  0  0  0  0
   -2.9191    1.4796    1.5847 H   0  0  0  0  0  0  0  0  0  0  0  0
   -1.6414    2.0614   -0.1289 H   0  0  0  0  0  0  0  0  0  0  0  0
    0.1824    0.4812    0.6403 H   0  0  0  0  0  0  0  0  0  0  0  0
    0.2293    2.0580   -1.8566 H   0  0  0  0  0  0  0  0  0  0  0  0
    1.8435   -0.5014   -0.9549 H   0  0  0  0  0  0  0  0  0  0  0  0
    2.5661    1.0830   -1.1917 H   0  0  0  0  0  0  0  0  0  0  0  0
   -2.1652    1.4380   -3.0645 H   0  0  0  0  0  0  0  0  0  0  0  0
   -3.3513    2.0859   -1.9393 H   0  0  0  0  0  0  0  0  0  0  0  0
   -1.9203    3.0409   -2.3507 H   0  0  0  0  0  0  0  0  0  0  0  0
    2.4329   -0.3596    1.5048 H   0  0  0  0  0  0  0  0  0  0  0  0
    3.2148    1.1750    1.2186 H   0  0  0  0  0  0  0  0  0  0  0  0
   -5.0970   -3.6208   -1.0092 H   0  0  0  0  0  0  0  0  0  0  0  0
    3.4422   -2.4675    0.7179 H   0  0  0  0  0  0  0  0  0  0  0  0
    5.3462    1.3332    0.0004 H   0  0  0  0  0  0  0  0  0  0  0  0
    1.0327    3.4058    2.1982 H   0  0  0  0  0  0  0  0  0  0  0  0
    5.5531   -3.6226    0.1598 H   0  0  0  0  0  0  0  0  0  0  0  0
    7.4511    0.1655   -0.5556 H   0  0  0  0  0  0  0  0  0  0  0  0
    7.5603   -2.3117   -0.4781 H   0  0  0  0  0  0  0  0  0  0  0  0
  1 12  2  0  0  0  0
  2 14  1  0  0  0  0
  2 43  1  0  0  0  0
  3 14  2  0  0  0  0
  4 19  1  0  0  0  0
  4 46  1  0  0  0  0
  5 19  2  0  0  0  0
  6  8  1  0  0  0  0
  6 11  1  0  0  0  0
  6 12  1  0  0  0  0
  7 13  1  0  0  0  0
  7 15  1  0  0  0  0
  7 35  1  0  0  0  0
  8  9  1  0  0  0  0
  8 14  1  0  0  0  0
  8 26  1  0  0  0  0
  9 10  1  0  0  0  0
  9 27  1  0  0  0  0
  9 28  1  0  0  0  0
 10 11  1  0  0  0  0
 10 29  1  0  0  0  0
 10 30  1  0  0  0  0
 11 31  1  0  0  0  0
 11 32  1  0  0  0  0
 12 13  1  0  0  0  0
 13 17  1  0  0  0  0
 13 33  1  0  0  0  0
 15 16  1  0  0  0  0
 15 19  1  0  0  0  0
 15 34  1  0  0  0  0
 16 18  1  0  0  0  0
 16 36  1  0  0  0  0
 16 37  1  0  0  0  0
 17 38  1  0  0  0  0
 17 39  1  0  0  0  0
 17 40  1  0  0  0  0
 18 20  1  0  0  0  0
 18 41  1  0  0  0  0
 18 42  1  0  0  0  0
 20 21  2  0  0  0  0
 20 22  1  0  0  0  0
 21 23  1  0  0  0  0
 21 44  1  0  0  0  0
 22 24  2  0  0  0  0
 22 45  1  0  0  0  0
 23 25  2  0  0  0  0
 23 47  1  0  0  0  0
 24 25  1  0  0  0  0
 24 48  1  0  0  0  0
 25 49  1  0  0  0  0
M  END
> <PUBCHEM_COMPOUND_CID>
5462501

> <PUBCHEM_CONFORMER_RMSD>
1

> <PUBCHEM_CONFORMER_DIVERSEORDER>
1
17
45
29
24
68
15
22
33
54
49
63
8
53
69
65
18
61
40
47
48
55
19
34
59
42
67
31
50
20
23
57
9
16
46
25
39
5
3
28
21
44
64
51
43
10
7
6
32
27
38
26
2
62
58
36
12
11
56
35
13
30
4
66
37
52
14
41
60

> <PUBCHEM_MMFF94_PARTIAL_CHARGES>
29
1 -0.57
11 0.3
12 0.57
13 0.33
14 0.66
15 0.33
18 0.14
19 0.66
2 -0.65
20 -0.14
21 -0.15
22 -0.15
23 -0.15
24 -0.15
25 -0.15
3 -0.57
35 0.36
4 -0.65
43 0.5
44 0.15
45 0.15
46 0.5
47 0.15
48 0.15
49 0.15
5 -0.57
6 -0.66
7 -0.9
8 0.36

> <PUBCHEM_EFFECTIVE_ROTOR_COUNT>
10

> <PUBCHEM_PHARMACOPHORE_FEATURES>
11
1 1 acceptor
1 2 acceptor
1 3 acceptor
1 4 acceptor
1 5 acceptor
1 7 cation
1 7 donor
3 2 3 14 anion
3 4 5 19 anion
5 6 8 9 10 11 rings
6 20 21 22 23 24 25 rings

> <PUBCHEM_HEAVY_ATOM_COUNT>
25

> <PUBCHEM_ATOM_DEF_STEREO_COUNT>
3

> <PUBCHEM_ATOM_UDEF_STEREO_COUNT>
0

> <PUBCHEM_BOND_DEF_STEREO_COUNT>
0

> <PUBCHEM_BOND_UDEF_STEREO_COUNT>
0

> <PUBCHEM_ISOTOPIC_ATOM_COUNT>
0

> <PUBCHEM_COMPONENT_COUNT>
1

> <PUBCHEM_CACTVS_TAUTO_COUNT>
1

> <PUBCHEM_CONFORMER_ID>
005359E500000001

> <PUBCHEM_MMFF94_ENERGY>
50.3681

> <PUBCHEM_FEATURE_SELFOVERLAP>
55.933

> <PUBCHEM_SHAPE_FINGERPRINT>
10928967 22 18339939172525660042
11045515 52 17988080110383456572
11089746 13 8358253718943217302
12107183 9 18334846260572340017
12422481 6 17096080428549856150
12596602 18 17458344113618294474
12633257 1 18115010945112391265
12760667 363 18342737433733202375
13103583 49 17968366914082592545
13533116 47 18191870011992511291
13544653 18 18342457058400014348
13914758 101 18260271871949839453
13941219 33 18336540637517111907
14251764 30 18335422378900524706
14420673 8 18261667168441636882
14950920 106 17458625579630387851
14951699 99 6626881410543765874
15188451 53 17385732353035505951
16110190 28 18334289864527677306
17492 89 18050848823899457851
17780758 139 18113337539332005643
1813 80 18334847325708476404
20101258 96 17704068521022831397
22950370 63 18409164420446519664
23522609 53 18193807463060663996
23559900 14 18339091371930106881
2838139 119 9151174242695556050
312425 54 18259702302581825866
314194 84 18342168930445128626
3737641 26 18267298918982065474
4058900 60 17120307239265944477
437815 12 18412549820875039565
484985 159 18264773353235342521
5104073 3 17749662983509062473
5486654 36 18410005507923604619
6328613 192 6915963904085947562
7970288 3 18409732867842801814

> <PUBCHEM_SHAPE_MULTIPOLES>
475.18
15.37
3.14
1.53
16.25
0.5
0.1
-12.55
1.46
-0.64
-0.19
-2.19
0.53
0.23

> <PUBCHEM_SHAPE_SELFOVERLAP>
985.154

> <PUBCHEM_SHAPE_VOLUME>
270.5

> <PUBCHEM_COORDINATE_TYPE>
2
5
10

$$$$

