442352
  -OEChem-07051212573D

 61 64  0     1  0  0  0  0  0999 V2000
    3.5498    0.5784    0.4057 O   0  0  0  0  0  0  0  0  0  0  0  0
    2.6707   -0.8323   -1.2318 O   0  0  0  0  0  0  0  0  0  0  0  0
    6.7055    1.6246   -2.0055 O   0  0  0  0  0  0  0  0  0  0  0  0
    6.8372    2.1343    0.8368 O   0  0  0  0  0  0  0  0  0  0  0  0
    5.1788   -0.8375   -2.5424 O   0  0  0  0  0  0  0  0  0  0  0  0
   -1.7820   -0.9639    0.6785 O   0  0  0  0  0  0  0  0  0  0  0  0
    3.3485    1.2517    3.0632 O   0  0  0  0  0  0  0  0  0  0  0  0
    1.4148   -4.2670    1.8147 O   0  0  0  0  0  0  0  0  0  0  0  0
   -6.5234   -0.6096   -1.4219 O   0  0  0  0  0  0  0  0  0  0  0  0
   -7.5862    1.3556    0.2320 O   0  0  0  0  0  0  0  0  0  0  0  0
    6.0261    0.8375   -1.0260 C   0  0  1  0  0  0  0  0  0  0  0  0
    5.6536    1.7527    0.1405 C   0  0  1  0  0  0  0  0  0  0  0  0
    4.7828    0.2064   -1.6531 C   0  0  2  0  0  0  0  0  0  0  0  0
    4.7048    1.0409    1.1079 C   0  0  1  0  0  0  0  0  0  0  0  0
    3.8666   -0.3944   -0.5873 C   0  0  1  0  0  0  0  0  0  0  0  0
    4.2265    1.9720    2.2174 C   0  0  0  0  0  0  0  0  0  0  0  0
    0.4359   -0.8403   -0.3386 C   0  0  0  0  0  0  0  0  0  0  0  0
    0.0973    0.3956   -1.1219 C   0  0  0  0  0  0  0  0  0  0  0  0
   -1.4129    0.5843   -1.1911 C   0  0  0  0  0  0  0  0  0  0  0  0
   -2.0068    0.3741    0.2041 C   0  0  1  0  0  0  0  0  0  0  0  0
    1.7179   -1.3973   -0.4336 C   0  0  0  0  0  0  0  0  0  0  0  0
   -0.5048   -1.4350    0.5126 C   0  0  0  0  0  0  0  0  0  0  0  0
   -3.4986    0.6340    0.2089 C   0  0  0  0  0  0  0  0  0  0  0  0
    2.0455   -2.5454    0.2884 C   0  0  0  0  0  0  0  0  0  0  0  0
   -0.1784   -2.5916    1.2254 C   0  0  0  0  0  0  0  0  0  0  0  0
    1.0964   -3.1443    1.1140 C   0  0  0  0  0  0  0  0  0  0  0  0
   -4.3384   -0.1129   -0.6164 C   0  0  0  0  0  0  0  0  0  0  0  0
   -4.0308    1.6199    1.0388 C   0  0  0  0  0  0  0  0  0  0  0  0
   -5.7125    0.1263   -0.6116 C   0  0  0  0  0  0  0  0  0  0  0  0
   -5.4049    1.8593    1.0433 C   0  0  0  0  0  0  0  0  0  0  0  0
   -6.2460    1.1124    0.2182 C   0  0  0  0  0  0  0  0  0  0  0  0
   -6.7630   -0.1018   -2.7330 C   0  0  0  0  0  0  0  0  0  0  0  0
   -8.3700    0.6133    1.1642 C   0  0  0  0  0  0  0  0  0  0  0  0
    6.7313    0.0591   -0.7096 H   0  0  0  0  0  0  0  0  0  0  0  0
    5.1920    2.6688   -0.2481 H   0  0  0  0  0  0  0  0  0  0  0  0
    4.2460    0.9526   -2.2521 H   0  0  0  0  0  0  0  0  0  0  0  0
    5.1953    0.1776    1.5781 H   0  0  0  0  0  0  0  0  0  0  0  0
    4.3681   -1.2539   -0.1236 H   0  0  0  0  0  0  0  0  0  0  0  0
    3.6740    2.8266    1.8129 H   0  0  0  0  0  0  0  0  0  0  0  0
    5.0590    2.3440    2.8214 H   0  0  0  0  0  0  0  0  0  0  0  0
    0.4937    0.3328   -2.1418 H   0  0  0  0  0  0  0  0  0  0  0  0
    0.5587    1.2607   -0.6304 H   0  0  0  0  0  0  0  0  0  0  0  0
   -1.6476    1.5815   -1.5816 H   0  0  0  0  0  0  0  0  0  0  0  0
   -1.8185   -0.1495   -1.8999 H   0  0  0  0  0  0  0  0  0  0  0  0
   -1.5235    1.0597    0.9145 H   0  0  0  0  0  0  0  0  0  0  0  0
    7.4815    2.0207   -1.5732 H   0  0  0  0  0  0  0  0  0  0  0  0
    7.2503    1.3283    1.1907 H   0  0  0  0  0  0  0  0  0  0  0  0
    4.3683   -1.2280   -2.9120 H   0  0  0  0  0  0  0  0  0  0  0  0
    3.0314   -2.9932    0.1955 H   0  0  0  0  0  0  0  0  0  0  0  0
   -0.9162   -3.0593    1.8731 H   0  0  0  0  0  0  0  0  0  0  0  0
    2.6168    0.9207    2.5146 H   0  0  0  0  0  0  0  0  0  0  0  0
   -3.9369   -0.8923   -1.2589 H   0  0  0  0  0  0  0  0  0  0  0  0
   -3.3888    2.2101    1.6871 H   0  0  0  0  0  0  0  0  0  0  0  0
   -5.8135    2.6296    1.6918 H   0  0  0  0  0  0  0  0  0  0  0  0
    2.3366   -4.5096    1.6211 H   0  0  0  0  0  0  0  0  0  0  0  0
   -7.4302   -0.7952   -3.2524 H   0  0  0  0  0  0  0  0  0  0  0  0
   -7.2466    0.8789   -2.6841 H   0  0  0  0  0  0  0  0  0  0  0  0
   -5.8256   -0.0313   -3.2939 H   0  0  0  0  0  0  0  0  0  0  0  0
   -8.0545    0.8312    2.1895 H   0  0  0  0  0  0  0  0  0  0  0  0
   -9.4150    0.9134    1.0486 H   0  0  0  0  0  0  0  0  0  0  0  0
   -8.2902   -0.4602    0.9663 H   0  0  0  0  0  0  0  0  0  0  0  0
  1 14  1  0  0  0  0
  1 15  1  0  0  0  0
  2 15  1  0  0  0  0
  2 21  1  0  0  0  0
  3 11  1  0  0  0  0
  3 46  1  0  0  0  0
  4 12  1  0  0  0  0
  4 47  1  0  0  0  0
  5 13  1  0  0  0  0
  5 48  1  0  0  0  0
  6 20  1  0  0  0  0
  6 22  1  0  0  0  0
  7 16  1  0  0  0  0
  7 51  1  0  0  0  0
  8 26  1  0  0  0  0
  8 55  1  0  0  0  0
  9 29  1  0  0  0  0
  9 32  1  0  0  0  0
 10 31  1  0  0  0  0
 10 33  1  0  0  0  0
 11 12  1  0  0  0  0
 11 13  1  0  0  0  0
 11 34  1  0  0  0  0
 12 14  1  0  0  0  0
 12 35  1  0  0  0  0
 13 15  1  0  0  0  0
 13 36  1  0  0  0  0
 14 16  1  0  0  0  0
 14 37  1  0  0  0  0
 15 38  1  0  0  0  0
 16 39  1  0  0  0  0
 16 40  1  0  0  0  0
 17 18  1  0  0  0  0
 17 21  1  0  0  0  0
 17 22  2  0  0  0  0
 18 19  1  0  0  0  0
 18 41  1  0  0  0  0
 18 42  1  0  0  0  0
 19 20  1  0  0  0  0
 19 43  1  0  0  0  0
 19 44  1  0  0  0  0
 20 23  1  0  0  0  0
 20 45  1  0  0  0  0
 21 24  2  0  0  0  0
 22 25  1  0  0  0  0
 23 27  2  0  0  0  0
 23 28  1  0  0  0  0
 24 26  1  0  0  0  0
 24 49  1  0  0  0  0
 25 26  2  0  0  0  0
 25 50  1  0  0  0  0
 27 29  1  0  0  0  0
 27 52  1  0  0  0  0
 28 30  2  0  0  0  0
 28 53  1  0  0  0  0
 29 31  2  0  0  0  0
 30 31  1  0  0  0  0
 30 54  1  0  0  0  0
 32 56  1  0  0  0  0
 32 57  1  0  0  0  0
 32 58  1  0  0  0  0
 33 59  1  0  0  0  0
 33 60  1  0  0  0  0
 33 61  1  0  0  0  0
M  END
> <PUBCHEM_COMPOUND_CID>
442352

> <PUBCHEM_CONFORMER_RMSD>
1

> <PUBCHEM_CONFORMER_DIVERSEORDER>
1
195
80
122
65
248
265
67
124
105
176
96
158
97
15
217
261
166
169
227
88
108
214
189
156
239
22
13
160
71
125
188
286
224
170
135
212
8
12
204
268
73
86
243
112
210
203
150
36
251
230
152
77
126
43
132
240
277
85
11
180
221
263
196
171
111
51
262
182
3
5
190
123
252
232
75
63
144
272
26
138
238
155
264
173
76
178
172
79
143
267
145
222
273
94
84
6
163
198
260
120
151
18
276
186
19
253
256
117
168
234
216
283
146
20
236
131
220
60
161
32
16
201
187
258
137
25
47
237
39
142
213
231
205
28
199
127
41
266
37
153
57
107
45
269
101
44
167
49
225
285
114
58
270
140
159
235
109
116
40
99
102
46
7
14
280
233
250
110
52
128
64
175
69
154
106
215
218
206
48
113
185
257
165
34
249
83
95
50
29
194
10
255
119
184
223
89
157
98
42
82
130
242
38
278
23
246
24
21
149
211
103
118
179
141
133
281
70
226
4
136
87
56
115
174
271
68
191
147
2
197
27
202
282
104
78
148
254
200
245
177
91
209
62
31
66
244
162
72
30
33
275
92
93
53
100
90
55
279
61
17
183
9
81
193
164
134
229
259
219
139
284
74
54
228
207
181
35
241
208
274
59
129
247
121
192

> <PUBCHEM_MMFF94_PARTIAL_CHARGES>
42
1 -0.56
10 -0.36
11 0.28
12 0.28
13 0.28
14 0.28
15 0.56
16 0.28
17 -0.14
18 0.14
2 -0.36
20 0.42
21 0.08
22 0.08
23 -0.14
24 -0.15
25 -0.15
26 0.08
27 -0.15
28 -0.15
29 0.08
3 -0.68
30 -0.15
31 0.08
32 0.28
33 0.28
4 -0.68
46 0.4
47 0.4
48 0.4
49 0.15
5 -0.68
50 0.15
51 0.4
52 0.15
53 0.15
54 0.15
55 0.45
6 -0.36
7 -0.68
8 -0.53
9 -0.36

> <PUBCHEM_EFFECTIVE_ROTOR_COUNT>
8

> <PUBCHEM_PHARMACOPHORE_FEATURES>
18
1 1 acceptor
1 10 acceptor
1 2 acceptor
1 3 acceptor
1 3 donor
1 4 acceptor
1 4 donor
1 5 acceptor
1 5 donor
1 6 acceptor
1 7 acceptor
1 7 donor
1 8 donor
1 9 acceptor
6 1 11 12 13 14 15 rings
6 17 21 22 24 25 26 rings
6 23 27 28 29 30 31 rings
6 6 17 18 19 20 22 rings

> <PUBCHEM_HEAVY_ATOM_COUNT>
33

> <PUBCHEM_ATOM_DEF_STEREO_COUNT>
6

> <PUBCHEM_ATOM_UDEF_STEREO_COUNT>
0

> <PUBCHEM_BOND_DEF_STEREO_COUNT>
0

> <PUBCHEM_BOND_UDEF_STEREO_COUNT>
0

> <PUBCHEM_ISOTOPIC_ATOM_COUNT>
0

> <PUBCHEM_COMPONENT_COUNT>
1

> <PUBCHEM_CACTVS_TAUTO_COUNT>
3

> <PUBCHEM_CONFORMER_ID>
0006BFF000000001

> <PUBCHEM_MMFF94_ENERGY>
124.4985

> <PUBCHEM_FEATURE_SELFOVERLAP>
91.434

> <PUBCHEM_SHAPE_FINGERPRINT>
10 15 17132111330044726933
10165383 225 18343294873860618614
11331351 85 17255689014934984506
12047536 79 16056334915459108700
12236239 1 18265891536140728971
13540713 4 17272865456966463527
13631057 29 18268990900401015063
14461889 52 17917980682129555915
14528608 73 18040435503310689869
14681490 219 17748825236889845456
14856354 85 15140676978509423541
15003188 100 17677054538620368856
15183329 4 15936401256284655489
16096371 109 17846505871771362594
18681886 176 17167869647092585661
20511986 3 18338248149843662111
20554085 129 18413672404934897362
20567600 254 18343587326188461030
21033648 144 18202003261799846727
21033648 29 18339079277328283232
21703447 108 17272865456998287235
221357 26 17313377955377682616
22149856 69 17773577495259023377
22224240 67 18273492364674505373
2303208 19 14273750542587816615
24771293 8 18411141294645196532
249999 5 18058731437132932946
3004659 81 14418129639108026524
34797466 226 17385437752548885829
3918712 181 18412829053705261540
4340502 62 18272931643883379563
437795 51 18187076244300536603
44317340 157 16805325474589630881
44426701 97 17980209900304013490
504579 68 17895205436979256757
513532 50 17386016074459239810
5372103 7 15575578838615203736
53794403 172 18191589644775251272
5758199 1 18413102866712614165
8863177 126 4822631216121333423
9658208 31 18339913836640031714

> <PUBCHEM_SHAPE_MULTIPOLES>
620.43
20.71
2.85
2.19
19.8
2.74
-0.22
-14.38
-4.43
-3
2.1
-1.39
-0.15
-0.44

> <PUBCHEM_SHAPE_SELFOVERLAP>
1333.989

> <PUBCHEM_SHAPE_VOLUME>
339.6

> <PUBCHEM_COORDINATE_TYPE>
2
5
10

$$$$

