53297345
  -OEChem-07051212512D

 94 93  0     1  0  0  0  0  0999 V2000
    8.7338    3.1517    0.0000 Fe  0  0  0  0  0  0  0  0  0  0  0  0
    7.8203    3.5584    0.0000 O   0  0  0  0  0  0  0  0  0  0  0  0
    7.8343    2.5919    0.0000 O   0  0  0  0  0  0  0  0  0  0  0  0
    9.4030    2.4085    0.0000 O   0  0  0  0  0  0  0  0  0  0  0  0
    5.2241   -1.3541    0.0000 O   0  0  0  0  0  0  0  0  0  0  0  0
    2.5456    0.6208    0.0000 O   0  0  0  0  0  0  0  0  0  0  0  0
    9.0429   -1.3798    0.0000 O   0  0  0  0  0  0  0  0  0  0  0  0
    2.0000   -2.9108    0.0000 O   0  0  0  0  0  0  0  0  0  0  0  0
    7.3555    5.2057    0.0000 O   0  0  0  0  0  0  0  0  0  0  0  0
    6.1258    3.7878    0.0000 O   0  0  0  0  0  0  0  0  0  0  0  0
   11.1132    2.4755    0.0000 O   0  0  0  0  0  0  0  0  0  0  0  0
    7.8157   -4.7701    0.0000 O   0  0  0  0  0  0  0  0  0  0  0  0
    3.9381   -5.0913    0.0000 O   0  0  0  0  0  0  0  0  0  0  0  0
    4.2241    1.0507    0.0000 N   0  0  0  0  0  0  0  0  0  0  0  0
    6.3422   -0.9909    0.0000 N   0  0  0  0  0  0  0  0  0  0  0  0
    6.8203    3.5584    0.0000 N   0  0  0  0  0  0  0  0  0  0  0  0
    2.8817   -1.2870    0.0000 N   0  0  0  0  0  0  0  0  0  0  0  0
    6.9548    2.0011    0.0000 N   0  0  0  0  0  0  0  0  0  0  0  0
    9.7120    1.4575    0.0000 N   0  0  0  0  0  0  0  0  0  0  0  0
    8.0248   -2.7811    0.0000 N   0  0  0  0  0  0  0  0  0  0  0  0
    3.6671   -3.3806    0.0000 N   0  0  0  0  0  0  0  0  0  0  0  0
    6.0932   -4.5891    0.0000 N   0  0  0  0  0  0  0  0  0  0  0  0
    5.0331    0.4629    0.0000 C   0  0  1  0  0  0  0  0  0  0  0  0
    4.9286    1.4575    0.0000 C   0  0  0  0  0  0  0  0  0  0  0  0
    3.6588   -0.6577    0.0000 C   0  0  1  0  0  0  0  0  0  0  0  0
    7.3203   -1.1988    0.0000 C   0  0  1  0  0  0  0  0  0  0  0  0
    5.2376    2.4085    0.0000 C   0  0  0  0  0  0  0  0  0  0  0  0
    4.4475    0.0498    0.0000 C   0  0  0  0  0  0  0  0  0  0  0  0
    8.2984   -0.9909    0.0000 C   0  0  0  0  0  0  0  0  0  0  0  0
    5.5331   -0.4031    0.0000 C   0  0  0  0  0  0  0  0  0  0  0  0
    5.2604    0.7293    0.0000 C   0  0  0  0  0  0  0  0  0  0  0  0
    9.1075   -0.4031    0.0000 C   0  0  0  0  0  0  0  0  0  0  0  0
    5.9068    3.1517    0.0000 C   0  0  0  0  0  0  0  0  0  0  0  0
    3.5024    0.3300    0.0000 C   0  0  0  0  0  0  0  0  0  0  0  0
    6.0965    1.3800    0.0000 C   0  0  0  0  0  0  0  0  0  0  0  0
    9.6075    0.4629    0.0000 C   0  0  0  0  0  0  0  0  0  0  0  0
    8.1293   -1.7866    0.0000 C   0  0  0  0  0  0  0  0  0  0  0  0
    2.7771   -2.2815    0.0000 C   0  0  0  0  0  0  0  0  0  0  0  0
    6.6124    4.5366    0.0000 C   0  0  0  0  0  0  0  0  0  0  0  0
    6.3828    2.8213    0.0000 C   0  0  0  0  0  0  0  0  0  0  0  0
   10.7065    1.5620    0.0000 C   0  0  0  0  0  0  0  0  0  0  0  0
    3.7717   -2.3861    0.0000 C   0  0  0  0  0  0  0  0  0  0  0  0
    7.1112   -3.1878    0.0000 C   0  0  0  0  0  0  0  0  0  0  0  0
    5.6613    4.8456    0.0000 C   0  0  0  0  0  0  0  0  0  0  0  0
    5.4174    3.0821    0.0000 C   0  0  0  0  0  0  0  0  0  0  0  0
   11.2943    0.7530    0.0000 C   0  0  0  0  0  0  0  0  0  0  0  0
    7.0067   -4.1823    0.0000 C   0  0  0  0  0  0  0  0  0  0  0  0
    5.2842   -4.0013    0.0000 C   0  0  0  0  0  0  0  0  0  0  0  0
    4.2965   -4.1577    0.0000 C   0  0  0  0  0  0  0  0  0  0  0  0
    5.0629   -0.3865    0.0000 H   0  0  0  0  0  0  0  0  0  0  0  0
    4.4537    1.8560    0.0000 H   0  0  0  0  0  0  0  0  0  0  0  0
    5.5452    1.3927    0.0000 H   0  0  0  0  0  0  0  0  0  0  0  0
    4.1937   -1.3183    0.0000 H   0  0  0  0  0  0  0  0  0  0  0  0
    7.6660   -0.4223    0.0000 H   0  0  0  0  0  0  0  0  0  0  0  0
    4.9658    2.9658    0.0000 H   0  0  0  0  0  0  0  0  0  0  0  0
    5.7746    2.0985    0.0000 H   0  0  0  0  0  0  0  0  0  0  0  0
    4.3339    0.6593    0.0000 H   0  0  0  0  0  0  0  0  0  0  0  0
    4.8534   -0.4189    0.0000 H   0  0  0  0  0  0  0  0  0  0  0  0
    8.1908   -1.6014    0.0000 H   0  0  0  0  0  0  0  0  0  0  0  0
    8.0463   -0.4245    0.0000 H   0  0  0  0  0  0  0  0  0  0  0  0
    4.1828    1.6694    0.0000 H   0  0  0  0  0  0  0  0  0  0  0  0
    5.1681    1.3424    0.0000 H   0  0  0  0  0  0  0  0  0  0  0  0
    5.6497    0.2467    0.0000 H   0  0  0  0  0  0  0  0  0  0  0  0
    9.2574   -1.0047    0.0000 H   0  0  0  0  0  0  0  0  0  0  0  0
    8.6467    0.0118    0.0000 H   0  0  0  0  0  0  0  0  0  0  0  0
    5.8851    3.7713    0.0000 H   0  0  0  0  0  0  0  0  0  0  0  0
    6.2712    2.6501    0.0000 H   0  0  0  0  0  0  0  0  0  0  0  0
    6.0900   -1.5573    0.0000 H   0  0  0  0  0  0  0  0  0  0  0  0
    6.0257    1.9959    0.0000 H   0  0  0  0  0  0  0  0  0  0  0  0
    6.4687    0.8841    0.0000 H   0  0  0  0  0  0  0  0  0  0  0  0
    9.9892   -0.0256    0.0000 H   0  0  0  0  0  0  0  0  0  0  0  0
    9.0178    0.6545    0.0000 H   0  0  0  0  0  0  0  0  0  0  0  0
    2.3368   -0.9912    0.0000 H   0  0  0  0  0  0  0  0  0  0  0  0
    7.9492    4.1649    0.0000 H   0  0  0  0  0  0  0  0  0  0  0  0
    7.2824    2.8744    0.0000 H   0  0  0  0  0  0  0  0  0  0  0  0
    9.9399    2.7185    0.0000 H   0  0  0  0  0  0  0  0  0  0  0  0
    8.5264   -3.1455    0.0000 H   0  0  0  0  0  0  0  0  0  0  0  0
    4.3883   -2.4509    0.0000 H   0  0  0  0  0  0  0  0  0  0  0  0
    3.8365   -1.7695    0.0000 H   0  0  0  0  0  0  0  0  0  0  0  0
    6.9612   -2.5862    0.0000 H   0  0  0  0  0  0  0  0  0  0  0  0
    6.4928   -3.2311    0.0000 H   0  0  0  0  0  0  0  0  0  0  0  0
    5.8529    5.4352    0.0000 H   0  0  0  0  0  0  0  0  0  0  0  0
    5.0717    5.0372    0.0000 H   0  0  0  0  0  0  0  0  0  0  0  0
    5.4697    4.2559    0.0000 H   0  0  0  0  0  0  0  0  0  0  0  0
    5.5790    3.6806    0.0000 H   0  0  0  0  0  0  0  0  0  0  0  0
    4.8188    3.2437    0.0000 H   0  0  0  0  0  0  0  0  0  0  0  0
    5.2557    2.4835    0.0000 H   0  0  0  0  0  0  0  0  0  0  0  0
   10.7927    0.3886    0.0000 H   0  0  0  0  0  0  0  0  0  0  0  0
   11.6587    0.2514    0.0000 H   0  0  0  0  0  0  0  0  0  0  0  0
   11.7959    1.1174    0.0000 H   0  0  0  0  0  0  0  0  0  0  0  0
    3.0727   -3.5567    0.0000 H   0  0  0  0  0  0  0  0  0  0  0  0
    5.7660   -3.6111    0.0000 H   0  0  0  0  0  0  0  0  0  0  0  0
    5.0320   -3.4349    0.0000 H   0  0  0  0  0  0  0  0  0  0  0  0
    6.0284   -5.2057    0.0000 H   0  0  0  0  0  0  0  0  0  0  0  0
  2 16  1  0  0  0  0
  2 74  1  0  0  0  0
  3 18  1  0  0  0  0
  3 75  1  0  0  0  0
  4 19  1  0  0  0  0
  4 76  1  0  0  0  0
  5 30  2  0  0  0  0
  6 34  2  0  0  0  0
  7 37  2  0  0  0  0
  8 38  2  0  0  0  0
  9 39  2  0  0  0  0
 10 40  2  0  0  0  0
 11 41  2  0  0  0  0
 12 47  2  0  0  0  0
 13 49  2  0  0  0  0
 14 23  1  0  0  0  0
 14 34  1  0  0  0  0
 14 61  1  0  0  0  0
 15 26  1  0  0  0  0
 15 30  1  0  0  0  0
 15 68  1  0  0  0  0
 16 33  1  0  0  0  0
 16 39  1  0  0  0  0
 17 25  1  0  0  0  0
 17 38  1  0  0  0  0
 17 73  1  0  0  0  0
 18 35  1  0  0  0  0
 18 40  1  0  0  0  0
 19 36  1  0  0  0  0
 19 41  1  0  0  0  0
 20 37  1  0  0  0  0
 20 43  1  0  0  0  0
 20 77  1  0  0  0  0
 21 42  1  0  0  0  0
 21 49  1  0  0  0  0
 21 91  1  0  0  0  0
 22 47  1  0  0  0  0
 22 48  1  0  0  0  0
 22 94  1  0  0  0  0
 23 24  1  0  0  0  0
 23 30  1  0  0  0  0
 23 50  1  6  0  0  0
 24 27  1  0  0  0  0
 24 51  1  0  0  0  0
 24 52  1  0  0  0  0
 25 28  1  0  0  0  0
 25 34  1  0  0  0  0
 25 53  1  1  0  0  0
 26 29  1  0  0  0  0
 26 37  1  0  0  0  0
 26 54  1  6  0  0  0
 27 33  1  0  0  0  0
 27 55  1  0  0  0  0
 27 56  1  0  0  0  0
 28 31  1  0  0  0  0
 28 57  1  0  0  0  0
 28 58  1  0  0  0  0
 29 32  1  0  0  0  0
 29 59  1  0  0  0  0
 29 60  1  0  0  0  0
 31 35  1  0  0  0  0
 31 62  1  0  0  0  0
 31 63  1  0  0  0  0
 32 36  1  0  0  0  0
 32 64  1  0  0  0  0
 32 65  1  0  0  0  0
 33 66  1  0  0  0  0
 33 67  1  0  0  0  0
 35 69  1  0  0  0  0
 35 70  1  0  0  0  0
 36 71  1  0  0  0  0
 36 72  1  0  0  0  0
 38 42  1  0  0  0  0
 39 44  1  0  0  0  0
 40 45  1  0  0  0  0
 41 46  1  0  0  0  0
 42 78  1  0  0  0  0
 42 79  1  0  0  0  0
 43 47  1  0  0  0  0
 43 80  1  0  0  0  0
 43 81  1  0  0  0  0
 44 82  1  0  0  0  0
 44 83  1  0  0  0  0
 44 84  1  0  0  0  0
 45 85  1  0  0  0  0
 45 86  1  0  0  0  0
 45 87  1  0  0  0  0
 46 88  1  0  0  0  0
 46 89  1  0  0  0  0
 46 90  1  0  0  0  0
 48 49  1  0  0  0  0
 48 92  1  0  0  0  0
 48 93  1  0  0  0  0
M  END
> <PUBCHEM_COMPOUND_CID>
53297345

> <PUBCHEM_COMPOUND_CANONICALIZED>
1

> <PUBCHEM_CACTVS_COMPLEXITY>
1210

> <PUBCHEM_CACTVS_HBOND_ACCEPTOR>
12

> <PUBCHEM_CACTVS_HBOND_DONOR>
9

> <PUBCHEM_CACTVS_ROTATABLE_BOND>
0

> <PUBCHEM_CACTVS_SUBSKEYS>
AAADcfB7/AAAAAAgAAAAAAAAAAAAAAAAAAAAAAAAAAAAAAAAAAAAHgAUCAAACCjBgAQCAALQAAAIAAEQEAAAAAAAAAAgAIGIAAAAQBIAgCAUAAAAFgCAAAAYAQAAAAAAAAAAAAAAAAAAAAAAAAAAAAAAAA==

> <PUBCHEM_IUPAC_OPENEYE_NAME>
N-[3-[(2S,5S,8S)-5,8-bis[3-[acetyl(hydroxy)amino]propyl]-3,6,9,12,15,18-hexaoxo-1,4,7,10,13,16-hexazacyclooctadec-2-yl]propyl]-N-hydroxy-acetamide; iron

> <PUBCHEM_IUPAC_CAS_NAME>
N-[3-[(2S,5S,8S)-5,8-bis[3-[acetyl(hydroxy)amino]propyl]-3,6,9,12,15,18-hexaoxo-1,4,7,10,13,16-hexazacyclooctadec-2-yl]propyl]-N-hydroxyacetamide; iron

> <PUBCHEM_IUPAC_NAME>
N-[3-[(2S,5S,8S)-5,8-bis[3-[acetyl(hydroxy)amino]propyl]-3,6,9,12,15,18-hexaoxo-1,4,7,10,13,16-hexazacyclooctadec-2-yl]propyl]-N-hydroxyacetamide; iron

> <PUBCHEM_IUPAC_SYSTEMATIC_NAME>
N-[3-[(2S,5S,8S)-5,8-bis[3-[ethanoyl(oxidanyl)amino]propyl]-3,6,9,12,15,18-hexakis(oxidanylidene)-1,4,7,10,13,16-hexazacyclooctadec-2-yl]propyl]-N-oxidanyl-ethanamide; iron

> <PUBCHEM_IUPAC_TRADITIONAL_NAME>
N-[3-[(2S,5S,8S)-5,8-bis[3-[acetyl(hydroxy)amino]propyl]-3,6,9,12,15,18-hexaketo-1,4,7,10,13,16-hexazacyclooctadec-2-yl]propyl]-N-hydroxy-acetamide; iron

> <PUBCHEM_IUPAC_INCHI>
InChI=1S/C27H45N9O12.Fe/c1-16(37)34(46)10-4-7-19-25(43)30-14-23(41)28-13-22(40)29-15-24(42)31-20(8-5-11-35(47)17(2)38)26(44)33-21(27(45)32-19)9-6-12-36(48)18(3)39;/h19-21,46-48H,4-15H2,1-3H3,(H,28,41)(H,29,40)(H,30,43)(H,31,42)(H,32,45)(H,33,44);/t19-,20-,21-;/m0./s1

> <PUBCHEM_IUPAC_INCHIKEY>
KYRMRQYBUNCADV-OCIDDWSYSA-N

> <PUBCHEM_EXACT_MASS>
743.253705

> <PUBCHEM_MOLECULAR_FORMULA>
C27H45FeN9O12

> <PUBCHEM_MOLECULAR_WEIGHT>
743.5443

> <PUBCHEM_OPENEYE_CAN_SMILES>
CC(=O)N(CCCC1C(=O)NC(C(=O)NC(C(=O)NCC(=O)NCC(=O)NCC(=O)N1)CCCN(C(=O)C)O)CCCN(C(=O)C)O)O.[Fe]

> <PUBCHEM_OPENEYE_ISO_SMILES>
CC(=O)N(CCC[C@H]1C(=O)N[C@H](C(=O)N[C@H](C(=O)NCC(=O)NCC(=O)NCC(=O)N1)CCCN(C(=O)C)O)CCCN(C(=O)C)O)O.[Fe]

> <PUBCHEM_CACTVS_TPSA>
296

> <PUBCHEM_MONOISOTOPIC_WEIGHT>
743.253705

> <PUBCHEM_TOTAL_CHARGE>
0

> <PUBCHEM_HEAVY_ATOM_COUNT>
49

> <PUBCHEM_ATOM_DEF_STEREO_COUNT>
3

> <PUBCHEM_ATOM_UDEF_STEREO_COUNT>
0

> <PUBCHEM_BOND_DEF_STEREO_COUNT>
0

> <PUBCHEM_BOND_UDEF_STEREO_COUNT>
0

> <PUBCHEM_ISOTOPIC_ATOM_COUNT>
0

> <PUBCHEM_COMPONENT_COUNT>
2

> <PUBCHEM_CACTVS_TAUTO_COUNT>
216

> <PUBCHEM_NONSTANDARDBOND>
1  2  6
1  3  6
1  4  6

> <PUBCHEM_COORDINATE_TYPE>
1
5
255

> <PUBCHEM_BONDANNOTATIONS>
23  50  6
25  53  5
26  54  6

$$$$

