37880
  -OEChem-07051213053D

 33 37  0     0  0  0  0  0  0999 V2000
   -4.2217   -1.9880    0.0004 O   0  0  0  0  0  0  0  0  0  0  0  0
    0.4958   -0.1345   -0.0002 C   0  0  0  0  0  0  0  0  0  0  0  0
    1.9115    0.0151   -0.0001 C   0  0  0  0  0  0  0  0  0  0  0  0
   -0.3596    0.9995   -0.0001 C   0  0  0  0  0  0  0  0  0  0  0  0
   -0.0512   -1.4358   -0.0001 C   0  0  0  0  0  0  0  0  0  0  0  0
   -1.7855    0.8112   -0.0002 C   0  0  0  0  0  0  0  0  0  0  0  0
    2.4896    1.3028    0.0000 C   0  0  0  0  0  0  0  0  0  0  0  0
    2.7547   -1.1228    0.0001 C   0  0  0  0  0  0  0  0  0  0  0  0
   -2.3073   -0.5063   -0.0003 C   0  0  0  0  0  0  0  0  0  0  0  0
   -1.4388   -1.6026   -0.0003 C   0  0  0  0  0  0  0  0  0  0  0  0
    0.2643    2.2681    0.0000 C   0  0  0  0  0  0  0  0  0  0  0  0
    0.7973   -2.5513    0.0001 C   0  0  0  0  0  0  0  0  0  0  0  0
    1.6534    2.4187    0.0000 C   0  0  0  0  0  0  0  0  0  0  0  0
    2.1822   -2.3977    0.0001 C   0  0  0  0  0  0  0  0  0  0  0  0
    3.8858    1.4413    0.0001 C   0  0  0  0  0  0  0  0  0  0  0  0
    4.1475   -0.9565    0.0001 C   0  0  0  0  0  0  0  0  0  0  0  0
   -2.7302    1.8691    0.0001 C   0  0  0  0  0  0  0  0  0  0  0  0
   -3.6962   -0.7254   -0.0002 C   0  0  0  0  0  0  0  0  0  0  0  0
    4.7085    0.3180    0.0001 C   0  0  0  0  0  0  0  0  0  0  0  0
   -4.1084    1.6379    0.0003 C   0  0  0  0  0  0  0  0  0  0  0  0
   -4.5917    0.3393    0.0001 C   0  0  0  0  0  0  0  0  0  0  0  0
   -1.8181   -2.6226    0.0193 H   0  0  0  0  0  0  0  0  0  0  0  0
   -0.3221    3.1835    0.0001 H   0  0  0  0  0  0  0  0  0  0  0  0
    0.3874   -3.5597    0.0001 H   0  0  0  0  0  0  0  0  0  0  0  0
    2.0691    3.4243    0.0000 H   0  0  0  0  0  0  0  0  0  0  0  0
    2.8077   -3.2880    0.0002 H   0  0  0  0  0  0  0  0  0  0  0  0
    4.3451    2.4276    0.0000 H   0  0  0  0  0  0  0  0  0  0  0  0
    4.8091   -1.8202    0.0001 H   0  0  0  0  0  0  0  0  0  0  0  0
   -2.4110    2.9081    0.0003 H   0  0  0  0  0  0  0  0  0  0  0  0
    5.7882    0.4358    0.0002 H   0  0  0  0  0  0  0  0  0  0  0  0
   -4.7985    2.4766    0.0005 H   0  0  0  0  0  0  0  0  0  0  0  0
   -5.6632    0.1613    0.0003 H   0  0  0  0  0  0  0  0  0  0  0  0
   -3.6761   -2.5669   -0.5561 H   0  0  0  0  0  0  0  0  0  0  0  0
  1 18  1  0  0  0  0
  1 33  1  0  0  0  0
  2  3  1  0  0  0  0
  2  4  2  0  0  0  0
  2  5  1  0  0  0  0
  3  7  1  0  0  0  0
  3  8  2  0  0  0  0
  4  6  1  0  0  0  0
  4 11  1  0  0  0  0
  5 10  2  0  0  0  0
  5 12  1  0  0  0  0
  6  9  2  0  0  0  0
  6 17  1  0  0  0  0
  7 13  1  0  0  0  0
  7 15  2  0  0  0  0
  8 14  1  0  0  0  0
  8 16  1  0  0  0  0
  9 10  1  0  0  0  0
  9 18  1  0  0  0  0
 10 22  1  0  0  0  0
 11 13  2  0  0  0  0
 11 23  1  0  0  0  0
 12 14  2  0  0  0  0
 12 24  1  0  0  0  0
 13 25  1  0  0  0  0
 14 26  1  0  0  0  0
 15 19  1  0  0  0  0
 15 27  1  0  0  0  0
 16 19  2  0  0  0  0
 16 28  1  0  0  0  0
 17 20  2  0  0  0  0
 17 29  1  0  0  0  0
 18 21  2  0  0  0  0
 19 30  1  0  0  0  0
 20 21  1  0  0  0  0
 20 31  1  0  0  0  0
 21 32  1  0  0  0  0
M  END
> <PUBCHEM_COMPOUND_CID>
37880

> <PUBCHEM_CONFORMER_RMSD>
0.6

> <PUBCHEM_CONFORMER_DIVERSEORDER>
1

> <PUBCHEM_MMFF94_PARTIAL_CHARGES>
25
1 -0.53
10 -0.15
11 -0.15
12 -0.15
13 -0.15
14 -0.15
15 -0.15
16 -0.15
17 -0.15
18 0.08
19 -0.15
20 -0.15
21 -0.15
22 0.15
23 0.15
24 0.15
25 0.15
26 0.15
27 0.15
28 0.15
29 0.15
30 0.15
31 0.15
32 0.15
33 0.45

> <PUBCHEM_EFFECTIVE_ROTOR_COUNT>
0

> <PUBCHEM_PHARMACOPHORE_FEATURES>
6
1 1 donor
6 2 3 4 7 11 13 rings
6 2 3 5 8 12 14 rings
6 2 4 5 6 9 10 rings
6 3 7 8 15 16 19 rings
6 6 9 17 18 20 21 rings

> <PUBCHEM_HEAVY_ATOM_COUNT>
21

> <PUBCHEM_ATOM_DEF_STEREO_COUNT>
0

> <PUBCHEM_ATOM_UDEF_STEREO_COUNT>
0

> <PUBCHEM_BOND_DEF_STEREO_COUNT>
0

> <PUBCHEM_BOND_UDEF_STEREO_COUNT>
0

> <PUBCHEM_ISOTOPIC_ATOM_COUNT>
0

> <PUBCHEM_COMPONENT_COUNT>
1

> <PUBCHEM_CACTVS_TAUTO_COUNT>
3

> <PUBCHEM_CONFORMER_ID>
000093F800000001

> <PUBCHEM_MMFF94_ENERGY>
80.658

> <PUBCHEM_FEATURE_SELFOVERLAP>
30.598

> <PUBCHEM_SHAPE_FINGERPRINT>
10062212 137 18409739460258294379
10411042 1 17329711432099140143
10608611 8 18412265068742972597
10616163 171 18409728435309471127
10863032 1 18409448123904595433
10967382 1 18410574028375443684
11471102 20 18410578404715042364
11578080 2 16914829290521440678
12011746 2 18410854378102371660
12236239 1 17749390390783246897
12403259 226 18338240358240691417
12838862 33 18338255807074550816
13132413 78 18408323306356158237
13140716 1 18338524148177985474
138480 1 18050286161413179874
13862211 1 18411142454628815514
14178342 30 17905056094601172760
14790565 3 18340198580081657996
15196674 1 18410855460397187140
15442244 35 18265614479751767393
15536298 74 18334575767399301390
1601671 61 18410855486256811104
16945 1 18266458694028035174
17492 89 18409729569207906087
1813 80 17203604908518720540
19591789 44 18410293566752552070
200 152 18113623378570521141
20028762 73 18043252349101998039
20691752 17 17704352194853153779
20905425 154 18192711365762187046
21267235 1 18410283727035529750
21421861 104 17771347757811129834
221490 88 18412537700213462691
2334 1 18410575084710564676
23366157 5 18059571468369192002
23402539 116 18334583438453647806
23463225 33 18411701014713885364
23559900 14 18191872438438212078
2748010 2 18410571769417792406
335352 9 18266459986807929940
34934 24 18338521944532649687
350125 39 18410570652874228857
3545911 37 18410855482099071837
3680242 22 18198343051255627034
4214541 1 18410574006953647045
4280585 95 17612582733006332734
474 4 18060414698997326180
5104073 3 18410856568240281122
6138700 20 18339076112169916574
7364860 26 18336547204442882062
9709674 26 18411131433400063467
9981440 41 17331966023557159424

> <PUBCHEM_SHAPE_MULTIPOLES>
426.3
8.47
2.81
0.61
2.24
0.25
0
-0.51
0
-0.31
0
-0.02
-0.01
0

> <PUBCHEM_SHAPE_SELFOVERLAP>
1005.525

> <PUBCHEM_SHAPE_VOLUME>
215.6

> <PUBCHEM_COORDINATE_TYPE>
2
5
10

$$$$

