253934
  -OEChem-07051213062D

 50 52  0     0  0  0  0  0  0999 V2000
    7.1962    1.5670    0.0000 O   0  0  0  0  0  0  0  0  0  0  0  0
   10.7263    1.5911    0.0000 O   0  0  0  0  0  0  0  0  0  0  0  0
    2.8660   -1.9330    0.0000 O   0  0  0  0  0  0  0  0  0  0  0  0
   11.5981    0.0945    0.0000 O   0  0  0  0  0  0  0  0  0  0  0  0
    6.3301    1.0670    0.0000 C   0  0  0  0  0  0  0  0  0  0  0  0
    6.3301    0.0670    0.0000 C   0  0  0  0  0  0  0  0  0  0  0  0
    7.1962   -0.4330    0.0000 C   0  0  0  0  0  0  0  0  0  0  0  0
    8.0622    0.0670    0.0000 C   0  0  0  0  0  0  0  0  0  0  0  0
    5.8301    1.9330    0.0000 C   0  0  0  0  0  0  0  0  0  0  0  0
    5.3301    1.0670    0.0000 C   0  0  0  0  0  0  0  0  0  0  0  0
    8.0622    1.0670    0.0000 C   0  0  0  0  0  0  0  0  0  0  0  0
    5.4641   -0.4330    0.0000 C   0  0  0  0  0  0  0  0  0  0  0  0
    7.1962   -1.4330    0.0000 C   0  0  0  0  0  0  0  0  0  0  0  0
    8.9561   -0.4677    0.0000 C   0  0  0  0  0  0  0  0  0  0  0  0
    8.9561    1.6016    0.0000 C   0  0  0  0  0  0  0  0  0  0  0  0
    8.0622   -1.9330    0.0000 C   0  0  0  0  0  0  0  0  0  0  0  0
    4.5981    0.0670    0.0000 C   0  0  0  0  0  0  0  0  0  0  0  0
    5.4641   -1.4330    0.0000 C   0  0  0  0  0  0  0  0  0  0  0  0
    9.8622    1.0878    0.0000 C   0  0  0  0  0  0  0  0  0  0  0  0
    9.8622    0.0462    0.0000 C   0  0  0  0  0  0  0  0  0  0  0  0
    3.7320   -0.4330    0.0000 C   0  0  0  0  0  0  0  0  0  0  0  0
    4.5981   -1.9330    0.0000 C   0  0  0  0  0  0  0  0  0  0  0  0
    3.7320   -1.4330    0.0000 C   0  0  0  0  0  0  0  0  0  0  0  0
   11.5942    1.0945    0.0000 C   0  0  0  0  0  0  0  0  0  0  0  0
    2.0000   -1.4330    0.0000 C   0  0  0  0  0  0  0  0  0  0  0  0
   12.4583    1.5978    0.0000 C   0  0  0  0  0  0  0  0  0  0  0  0
    6.3671    2.2430    0.0000 H   0  0  0  0  0  0  0  0  0  0  0  0
    5.3301    1.6870    0.0000 H   0  0  0  0  0  0  0  0  0  0  0  0
    4.7101    1.0670    0.0000 H   0  0  0  0  0  0  0  0  0  0  0  0
    5.3301    0.4470    0.0000 H   0  0  0  0  0  0  0  0  0  0  0  0
    5.5201    2.4700    0.0000 H   0  0  0  0  0  0  0  0  0  0  0  0
    5.2932    1.6230    0.0000 H   0  0  0  0  0  0  0  0  0  0  0  0
    6.5856   -1.3254    0.0000 H   0  0  0  0  0  0  0  0  0  0  0  0
    6.9841   -2.0156    0.0000 H   0  0  0  0  0  0  0  0  0  0  0  0
    8.9490   -1.0876    0.0000 H   0  0  0  0  0  0  0  0  0  0  0  0
    8.9490    2.2216    0.0000 H   0  0  0  0  0  0  0  0  0  0  0  0
    7.7522   -2.4700    0.0000 H   0  0  0  0  0  0  0  0  0  0  0  0
    8.5991   -2.2430    0.0000 H   0  0  0  0  0  0  0  0  0  0  0  0
    8.3722   -1.3961    0.0000 H   0  0  0  0  0  0  0  0  0  0  0  0
    4.5981    0.6870    0.0000 H   0  0  0  0  0  0  0  0  0  0  0  0
    6.0010   -1.7430    0.0000 H   0  0  0  0  0  0  0  0  0  0  0  0
   10.3979   -0.2659    0.0000 H   0  0  0  0  0  0  0  0  0  0  0  0
    3.1951   -0.1230    0.0000 H   0  0  0  0  0  0  0  0  0  0  0  0
    4.5981   -2.5530    0.0000 H   0  0  0  0  0  0  0  0  0  0  0  0
    2.3100   -0.8961    0.0000 H   0  0  0  0  0  0  0  0  0  0  0  0
    1.4631   -1.1230    0.0000 H   0  0  0  0  0  0  0  0  0  0  0  0
    1.6900   -1.9700    0.0000 H   0  0  0  0  0  0  0  0  0  0  0  0
   12.7704    1.0621    0.0000 H   0  0  0  0  0  0  0  0  0  0  0  0
   12.9941    1.9099    0.0000 H   0  0  0  0  0  0  0  0  0  0  0  0
   12.1462    2.1336    0.0000 H   0  0  0  0  0  0  0  0  0  0  0  0
  1  5  1  0  0  0  0
  1 11  1  0  0  0  0
  2 19  1  0  0  0  0
  2 24  1  0  0  0  0
  3 23  1  0  0  0  0
  3 25  1  0  0  0  0
  4 24  2  0  0  0  0
  5  6  1  0  0  0  0
  5  9  1  0  0  0  0
  5 10  1  0  0  0  0
  6  7  2  0  0  0  0
  6 12  1  0  0  0  0
  7  8  1  0  0  0  0
  7 13  1  0  0  0  0
  8 11  2  0  0  0  0
  8 14  1  0  0  0  0
  9 27  1  0  0  0  0
  9 31  1  0  0  0  0
  9 32  1  0  0  0  0
 10 28  1  0  0  0  0
 10 29  1  0  0  0  0
 10 30  1  0  0  0  0
 11 15  1  0  0  0  0
 12 17  2  0  0  0  0
 12 18  1  0  0  0  0
 13 16  1  0  0  0  0
 13 33  1  0  0  0  0
 13 34  1  0  0  0  0
 14 20  2  0  0  0  0
 14 35  1  0  0  0  0
 15 19  2  0  0  0  0
 15 36  1  0  0  0  0
 16 37  1  0  0  0  0
 16 38  1  0  0  0  0
 16 39  1  0  0  0  0
 17 21  1  0  0  0  0
 17 40  1  0  0  0  0
 18 22  2  0  0  0  0
 18 41  1  0  0  0  0
 19 20  1  0  0  0  0
 20 42  1  0  0  0  0
 21 23  2  0  0  0  0
 21 43  1  0  0  0  0
 22 23  1  0  0  0  0
 22 44  1  0  0  0  0
 24 26  1  0  0  0  0
 25 45  1  0  0  0  0
 25 46  1  0  0  0  0
 25 47  1  0  0  0  0
 26 48  1  0  0  0  0
 26 49  1  0  0  0  0
 26 50  1  0  0  0  0
M  END
> <PUBCHEM_COMPOUND_CID>
253934

> <PUBCHEM_COMPOUND_CANONICALIZED>
1

> <PUBCHEM_CACTVS_COMPLEXITY>
542

> <PUBCHEM_CACTVS_HBOND_ACCEPTOR>
4

> <PUBCHEM_CACTVS_HBOND_DONOR>
0

> <PUBCHEM_CACTVS_ROTATABLE_BOND>
5

> <PUBCHEM_CACTVS_SUBSKEYS>
AAADceB4OAAAAAAAAAAAAAAAAAAAAAAAAAAwYIAAAAAAAACBQAAAGgAAAAAADESAmAIyDoAABACIAiDSCAACCAAgIAAIiAAGCIgMJyKEMRqCOiClwBUIqAeA4OwOIAAACAAIAABAAAAQABAAAAAAAAAAAA==

> <PUBCHEM_IUPAC_OPENEYE_NAME>
[4-ethyl-3-(4-methoxyphenyl)-2,2-dimethyl-chromen-7-yl] acetate

> <PUBCHEM_IUPAC_CAS_NAME>
acetic acid [4-ethyl-3-(4-methoxyphenyl)-2,2-dimethyl-1-benzopyran-7-yl] ester

> <PUBCHEM_IUPAC_NAME>
[4-ethyl-3-(4-methoxyphenyl)-2,2-dimethylchromen-7-yl] acetate

> <PUBCHEM_IUPAC_SYSTEMATIC_NAME>
[4-ethyl-3-(4-methoxyphenyl)-2,2-dimethyl-chromen-7-yl] ethanoate

> <PUBCHEM_IUPAC_TRADITIONAL_NAME>
acetic acid [4-ethyl-3-(4-methoxyphenyl)-2,2-dimethyl-chromen-7-yl] ester

> <PUBCHEM_IUPAC_INCHI>
InChI=1S/C22H24O4/c1-6-18-19-12-11-17(25-14(2)23)13-20(19)26-22(3,4)21(18)15-7-9-16(24-5)10-8-15/h7-13H,6H2,1-5H3

> <PUBCHEM_IUPAC_INCHIKEY>
HZTLJZSOMGPVTM-UHFFFAOYSA-N

> <PUBCHEM_XLOGP3_AA>
4.1

> <PUBCHEM_EXACT_MASS>
352.167459

> <PUBCHEM_MOLECULAR_FORMULA>
C22H24O4

> <PUBCHEM_MOLECULAR_WEIGHT>
352.42356

> <PUBCHEM_OPENEYE_CAN_SMILES>
CCC1=C(C(OC2=C1C=CC(=C2)OC(=O)C)(C)C)C3=CC=C(C=C3)OC

> <PUBCHEM_OPENEYE_ISO_SMILES>
CCC1=C(C(OC2=C1C=CC(=C2)OC(=O)C)(C)C)C3=CC=C(C=C3)OC

> <PUBCHEM_CACTVS_TPSA>
44.8

> <PUBCHEM_MONOISOTOPIC_WEIGHT>
352.167459

> <PUBCHEM_TOTAL_CHARGE>
0

> <PUBCHEM_HEAVY_ATOM_COUNT>
26

> <PUBCHEM_ATOM_DEF_STEREO_COUNT>
0

> <PUBCHEM_ATOM_UDEF_STEREO_COUNT>
0

> <PUBCHEM_BOND_DEF_STEREO_COUNT>
0

> <PUBCHEM_BOND_UDEF_STEREO_COUNT>
0

> <PUBCHEM_ISOTOPIC_ATOM_COUNT>
0

> <PUBCHEM_COMPONENT_COUNT>
1

> <PUBCHEM_CACTVS_TAUTO_COUNT>
1

> <PUBCHEM_COORDINATE_TYPE>
1
5
255

> <PUBCHEM_BONDANNOTATIONS>
11  15  8
12  17  8
12  18  8
14  20  8
15  19  8
17  21  8
18  22  8
19  20  8
21  23  8
22  23  8
8  11  8
8  14  8

$$$$

