443058
  -OEChem-07051213013D

 52 54  0     1  0  0  0  0  0999 V2000
    0.0198   -0.8302   -1.7284 O   0  0  0  0  0  0  0  0  0  0  0  0
    0.5820    0.7066    0.7967 O   0  0  0  0  0  0  0  0  0  0  0  0
    4.4982    0.6415   -2.0815 O   0  0  0  0  0  0  0  0  0  0  0  0
   -4.0344    1.8957   -1.0077 O   0  0  0  0  0  0  0  0  0  0  0  0
   -5.5730    0.6238    0.9257 O   0  0  0  0  0  0  0  0  0  0  0  0
    0.4378   -1.6830    0.4934 C   0  0  1  0  0  0  0  0  0  0  0  0
    1.2787   -0.4264    0.2689 C   0  0  1  0  0  0  0  0  0  0  0  0
   -0.5990   -1.5844   -0.6583 C   0  0  1  0  0  0  0  0  0  0  0  0
    1.2148   -0.3521   -1.2174 C   0  0  0  0  0  0  0  0  0  0  0  0
    2.6736   -0.3865    0.8077 C   0  0  0  0  0  0  0  0  0  0  0  0
    1.2254   -2.9961    0.3843 C   0  0  0  0  0  0  0  0  0  0  0  0
   -1.9311   -0.9903   -0.2361 C   0  0  0  0  0  0  0  0  0  0  0  0
    3.7467   -0.0685    0.0650 C   0  0  0  0  0  0  0  0  0  0  0  0
    2.2466   -0.0375   -2.0049 C   0  0  0  0  0  0  0  0  0  0  0  0
    3.5707    0.2295   -1.3910 C   0  0  0  0  0  0  0  0  0  0  0  0
    5.1326    0.0176    0.6222 C   0  0  0  0  0  0  0  0  0  0  0  0
   -2.3803    0.1931   -0.8193 C   0  0  0  0  0  0  0  0  0  0  0  0
   -2.7012   -1.6296    0.7339 C   0  0  0  0  0  0  0  0  0  0  0  0
    0.5473    0.6716    2.2134 C   0  0  0  0  0  0  0  0  0  0  0  0
    5.4649    1.4302    1.0940 C   0  0  0  0  0  0  0  0  0  0  0  0
   -3.6038    0.7392   -0.4311 C   0  0  0  0  0  0  0  0  0  0  0  0
   -3.9245   -1.0836    1.1221 C   0  0  0  0  0  0  0  0  0  0  0  0
   -4.3759    0.1007    0.5396 C   0  0  0  0  0  0  0  0  0  0  0  0
    6.8658    1.5003    1.6816 C   0  0  0  0  0  0  0  0  0  0  0  0
   -3.6537    3.1163   -0.3755 C   0  0  0  0  0  0  0  0  0  0  0  0
   -6.7280    0.2023    0.2028 C   0  0  0  0  0  0  0  0  0  0  0  0
   -0.0770   -1.7242    1.4555 H   0  0  0  0  0  0  0  0  0  0  0  0
   -0.8185   -2.5774   -1.0724 H   0  0  0  0  0  0  0  0  0  0  0  0
    2.8241   -0.6143    1.8607 H   0  0  0  0  0  0  0  0  0  0  0  0
    0.5484   -3.8539    0.4632 H   0  0  0  0  0  0  0  0  0  0  0  0
    1.7594   -3.0812   -0.5680 H   0  0  0  0  0  0  0  0  0  0  0  0
    1.9560   -3.0819    1.1950 H   0  0  0  0  0  0  0  0  0  0  0  0
    2.1698   -0.0307   -3.0856 H   0  0  0  0  0  0  0  0  0  0  0  0
    5.2330   -0.6779    1.4661 H   0  0  0  0  0  0  0  0  0  0  0  0
    5.8649   -0.3195   -0.1218 H   0  0  0  0  0  0  0  0  0  0  0  0
   -1.8007    0.7123   -1.5771 H   0  0  0  0  0  0  0  0  0  0  0  0
   -2.3655   -2.5570    1.1898 H   0  0  0  0  0  0  0  0  0  0  0  0
    1.4023    1.2290    2.6113 H   0  0  0  0  0  0  0  0  0  0  0  0
    0.5211   -0.3157    2.6785 H   0  0  0  0  0  0  0  0  0  0  0  0
   -0.3514    1.2095    2.5318 H   0  0  0  0  0  0  0  0  0  0  0  0
    5.3927    2.1371    0.2588 H   0  0  0  0  0  0  0  0  0  0  0  0
    4.7437    1.7561    1.8535 H   0  0  0  0  0  0  0  0  0  0  0  0
   -4.5214   -1.5870    1.8778 H   0  0  0  0  0  0  0  0  0  0  0  0
    7.6176    1.2147    0.9389 H   0  0  0  0  0  0  0  0  0  0  0  0
    6.9637    0.8338    2.5445 H   0  0  0  0  0  0  0  0  0  0  0  0
    7.0867    2.5197    2.0135 H   0  0  0  0  0  0  0  0  0  0  0  0
   -2.5637    3.2164   -0.3602 H   0  0  0  0  0  0  0  0  0  0  0  0
   -4.0497    3.1618    0.6439 H   0  0  0  0  0  0  0  0  0  0  0  0
   -4.0733    3.9457   -0.9512 H   0  0  0  0  0  0  0  0  0  0  0  0
   -6.8704   -0.8783    0.3042 H   0  0  0  0  0  0  0  0  0  0  0  0
   -6.6411    0.4726   -0.8543 H   0  0  0  0  0  0  0  0  0  0  0  0
   -7.5998    0.7111    0.6232 H   0  0  0  0  0  0  0  0  0  0  0  0
  1  8  1  0  0  0  0
  1  9  1  0  0  0  0
  2  7  1  0  0  0  0
  2 19  1  0  0  0  0
  3 15  2  0  0  0  0
  4 21  1  0  0  0  0
  4 25  1  0  0  0  0
  5 23  1  0  0  0  0
  5 26  1  0  0  0  0
  6  7  1  0  0  0  0
  6  8  1  0  0  0  0
  6 11  1  0  0  0  0
  6 27  1  0  0  0  0
  7  9  1  0  0  0  0
  7 10  1  0  0  0  0
  8 12  1  0  0  0  0
  8 28  1  0  0  0  0
  9 14  2  0  0  0  0
 10 13  2  0  0  0  0
 10 29  1  0  0  0  0
 11 30  1  0  0  0  0
 11 31  1  0  0  0  0
 11 32  1  0  0  0  0
 12 17  2  0  0  0  0
 12 18  1  0  0  0  0
 13 15  1  0  0  0  0
 13 16  1  0  0  0  0
 14 15  1  0  0  0  0
 14 33  1  0  0  0  0
 16 20  1  0  0  0  0
 16 34  1  0  0  0  0
 16 35  1  0  0  0  0
 17 21  1  0  0  0  0
 17 36  1  0  0  0  0
 18 22  2  0  0  0  0
 18 37  1  0  0  0  0
 19 38  1  0  0  0  0
 19 39  1  0  0  0  0
 19 40  1  0  0  0  0
 20 24  1  0  0  0  0
 20 41  1  0  0  0  0
 20 42  1  0  0  0  0
 21 23  2  0  0  0  0
 22 23  1  0  0  0  0
 22 43  1  0  0  0  0
 24 44  1  0  0  0  0
 24 45  1  0  0  0  0
 24 46  1  0  0  0  0
 25 47  1  0  0  0  0
 25 48  1  0  0  0  0
 25 49  1  0  0  0  0
 26 50  1  0  0  0  0
 26 51  1  0  0  0  0
 26 52  1  0  0  0  0
M  END
> <PUBCHEM_COMPOUND_CID>
443058

> <PUBCHEM_CONFORMER_RMSD>
0.8

> <PUBCHEM_CONFORMER_DIVERSEORDER>
2
17
25
4
21
3
20
13
18
19
10
27
22
12
26
11
24
6
7
14
8
23
28
16
9
5
1
15

> <PUBCHEM_MMFF94_PARTIAL_CHARGES>
27
1 -0.36
10 -0.29
12 -0.14
13 -0.12
14 -0.14
15 0.54
16 0.14
17 -0.15
18 -0.15
19 0.28
2 -0.56
21 0.08
22 -0.15
23 0.08
25 0.28
26 0.28
29 0.15
3 -0.57
33 0.15
36 0.15
37 0.15
4 -0.36
43 0.15
5 -0.36
7 0.56
8 0.42
9 -0.06

> <PUBCHEM_EFFECTIVE_ROTOR_COUNT>
6.6

> <PUBCHEM_PHARMACOPHORE_FEATURES>
9
1 1 acceptor
1 2 acceptor
1 24 hydrophobe
1 3 acceptor
1 4 acceptor
1 5 acceptor
5 1 6 7 8 9 rings
6 12 17 18 21 22 23 rings
6 7 9 10 13 14 15 rings

> <PUBCHEM_HEAVY_ATOM_COUNT>
26

> <PUBCHEM_ATOM_DEF_STEREO_COUNT>
3

> <PUBCHEM_ATOM_UDEF_STEREO_COUNT>
0

> <PUBCHEM_BOND_DEF_STEREO_COUNT>
0

> <PUBCHEM_BOND_UDEF_STEREO_COUNT>
0

> <PUBCHEM_ISOTOPIC_ATOM_COUNT>
0

> <PUBCHEM_COMPONENT_COUNT>
1

> <PUBCHEM_CACTVS_TAUTO_COUNT>
1

> <PUBCHEM_CONFORMER_ID>
0006C2B200000002

> <PUBCHEM_MMFF94_ENERGY>
92.3349

> <PUBCHEM_FEATURE_SELFOVERLAP>
45.778

> <PUBCHEM_SHAPE_FINGERPRINT>
10 15 18130790027571085640
10366900 7 18410854352870741859
10906281 52 17386556952586243952
12107183 9 17127344040657710193
12236239 1 16845287220748871991
12403259 118 17632581564802690189
12422481 6 17489039274430777894
12507560 40 18199750404912496903
12596602 18 16558741283541985185
12633257 1 15841552964178306402
12969540 114 17240205421919971372
13533116 47 18334292111502968062
13690498 29 6843910703055686417
13965767 371 16698357484880578317
14341114 176 16988551403751529823
14341114 328 17131825465189446605
14466204 15 18343025501574759928
14849402 71 16916217755671974100
15209289 33 15339122342288736170
17349148 13 10663818559935928807
17870717 6 8430321246776329297
18335252 98 16443345317919961287
19784866 9 18341054115759563706
20028762 73 16128375939365665954
20739085 24 16200145491770131214
21033648 29 18334007315540299557
21267235 1 15051745201020948672
21682296 61 13973424486158314056
23522609 53 14907322226608733742
23559900 14 18057316408406570422
2838139 119 17822306664806232984
2916195 48 18187368688349297266
34934 24 17530687585053467254
4340502 62 18413387644224231218
465052 167 14045740422304632802
469060 322 18269814524450949377
5104073 3 18059017318497351081
7226269 152 18113623357227599552
9849439 229 17765157563741670245
9981440 41 18201435917757180827

> <PUBCHEM_SHAPE_MULTIPOLES>
505.72
13.59
2.17
1.76
1.02
0.17
-0.31
7.96
3.98
-1.08
0.19
1.74
0.3
1.37

> <PUBCHEM_SHAPE_SELFOVERLAP>
1078.766

> <PUBCHEM_SHAPE_VOLUME>
283.5

> <PUBCHEM_COORDINATE_TYPE>
2
5
10

$$$$

