15541
  -OEChem-07051212463D

 47 49  0     1  0  0  0  0  0999 V2000
   -0.8990   -1.0750    0.0951 O   0  0  0  0  0  0  0  0  0  0  0  0
   -0.5814    1.4127   -1.1636 O   0  0  0  0  0  0  0  0  0  0  0  0
   -2.3367    1.5502    0.4073 O   0  0  0  0  0  0  0  0  0  0  0  0
    1.6897    2.9160   -0.3616 O   0  0  0  0  0  0  0  0  0  0  0  0
    3.2008   -1.0676   -1.0704 O   0  0  0  0  0  0  0  0  0  0  0  0
   -1.8385   -1.1393   -2.0761 O   0  0  0  0  0  0  0  0  0  0  0  0
   -3.8315   -2.0518   -0.5908 O   0  0  0  0  0  0  0  0  0  0  0  0
    1.4745   -2.6573    0.5302 N   0  0  0  0  0  0  0  0  0  0  0  0
    4.1811    1.4123   -0.0754 N   0  0  0  0  0  0  0  0  0  0  0  0
    0.3966   -0.6128   -0.3092 C   0  0  1  0  0  0  0  0  0  0  0  0
    0.3976    0.9155   -0.2395 C   0  0  1  0  0  0  0  0  0  0  0  0
    1.4735   -1.1943    0.6181 C   0  0  2  0  0  0  0  0  0  0  0  0
    1.7681    1.5064   -0.5861 C   0  0  2  0  0  0  0  0  0  0  0  0
    2.8631    0.9000    0.3123 C   0  0  1  0  0  0  0  0  0  0  0  0
    2.8634   -0.6398    0.2528 C   0  0  2  0  0  0  0  0  0  0  0  0
   -1.9225   -0.5798   -0.7714 C   0  0  2  0  0  0  0  0  0  0  0  0
   -1.9041    0.9581   -0.8241 C   0  0  2  0  0  0  0  0  0  0  0  0
   -3.2281   -1.0681   -0.1645 C   0  0  0  0  0  0  0  0  0  0  0  0
   -3.6702    1.1719    0.7566 C   0  0  1  0  0  0  0  0  0  0  0  0
   -3.7132   -0.3209    1.0541 C   0  0  0  0  0  0  0  0  0  0  0  0
    2.4830   -3.2212    1.4112 C   0  0  0  0  0  0  0  0  0  0  0  0
    5.2098    0.9026    0.8154 C   0  0  0  0  0  0  0  0  0  0  0  0
   -4.0759    1.9821    1.9795 C   0  0  0  0  0  0  0  0  0  0  0  0
    0.5703   -0.9448   -1.3422 H   0  0  0  0  0  0  0  0  0  0  0  0
    0.1083    1.2572    0.7640 H   0  0  0  0  0  0  0  0  0  0  0  0
    1.2212   -0.9143    1.6503 H   0  0  0  0  0  0  0  0  0  0  0  0
    1.9816    1.3560   -1.6518 H   0  0  0  0  0  0  0  0  0  0  0  0
    2.6609    1.2203    1.3445 H   0  0  0  0  0  0  0  0  0  0  0  0
    3.6123   -1.0280    0.9471 H   0  0  0  0  0  0  0  0  0  0  0  0
   -2.5596    1.3187   -1.6260 H   0  0  0  0  0  0  0  0  0  0  0  0
    1.6341   -2.9645   -0.4278 H   0  0  0  0  0  0  0  0  0  0  0  0
    4.1723    2.4300   -0.0160 H   0  0  0  0  0  0  0  0  0  0  0  0
   -4.3407    1.4235   -0.0751 H   0  0  0  0  0  0  0  0  0  0  0  0
   -4.7320   -0.6411    1.2953 H   0  0  0  0  0  0  0  0  0  0  0  0
   -3.0528   -0.5858    1.8874 H   0  0  0  0  0  0  0  0  0  0  0  0
    2.5028    3.3146   -0.7143 H   0  0  0  0  0  0  0  0  0  0  0  0
    3.3405   -2.0286   -1.0450 H   0  0  0  0  0  0  0  0  0  0  0  0
   -2.0642   -2.0828   -2.0127 H   0  0  0  0  0  0  0  0  0  0  0  0
    3.4965   -3.1451    1.0065 H   0  0  0  0  0  0  0  0  0  0  0  0
    2.2805   -4.2915    1.5272 H   0  0  0  0  0  0  0  0  0  0  0  0
    2.4513   -2.7858    2.4159 H   0  0  0  0  0  0  0  0  0  0  0  0
    6.1220    1.4921    0.6693 H   0  0  0  0  0  0  0  0  0  0  0  0
    5.4865   -0.1305    0.5859 H   0  0  0  0  0  0  0  0  0  0  0  0
    4.9382    0.9929    1.8725 H   0  0  0  0  0  0  0  0  0  0  0  0
   -4.0213    3.0541    1.7611 H   0  0  0  0  0  0  0  0  0  0  0  0
   -5.0954    1.7421    2.2958 H   0  0  0  0  0  0  0  0  0  0  0  0
   -3.3944    1.7980    2.8175 H   0  0  0  0  0  0  0  0  0  0  0  0
  1 10  1  0  0  0  0
  1 16  1  0  0  0  0
  2 11  1  0  0  0  0
  2 17  1  0  0  0  0
  3 17  1  0  0  0  0
  3 19  1  0  0  0  0
  4 13  1  0  0  0  0
  4 36  1  0  0  0  0
  5 15  1  0  0  0  0
  5 37  1  0  0  0  0
  6 16  1  0  0  0  0
  6 38  1  0  0  0  0
  7 18  2  0  0  0  0
  8 12  1  0  0  0  0
  8 21  1  0  0  0  0
  8 31  1  0  0  0  0
  9 14  1  0  0  0  0
  9 22  1  0  0  0  0
  9 32  1  0  0  0  0
 10 11  1  0  0  0  0
 10 12  1  0  0  0  0
 10 24  1  0  0  0  0
 11 13  1  0  0  0  0
 11 25  1  0  0  0  0
 12 15  1  0  0  0  0
 12 26  1  0  0  0  0
 13 14  1  0  0  0  0
 13 27  1  0  0  0  0
 14 15  1  0  0  0  0
 14 28  1  0  0  0  0
 15 29  1  0  0  0  0
 16 17  1  0  0  0  0
 16 18  1  0  0  0  0
 17 30  1  0  0  0  0
 18 20  1  0  0  0  0
 19 20  1  0  0  0  0
 19 23  1  0  0  0  0
 19 33  1  0  0  0  0
 20 34  1  0  0  0  0
 20 35  1  0  0  0  0
 21 39  1  0  0  0  0
 21 40  1  0  0  0  0
 21 41  1  0  0  0  0
 22 42  1  0  0  0  0
 22 43  1  0  0  0  0
 22 44  1  0  0  0  0
 23 45  1  0  0  0  0
 23 46  1  0  0  0  0
 23 47  1  0  0  0  0
M  END
> <PUBCHEM_COMPOUND_CID>
15541

> <PUBCHEM_CONFORMER_RMSD>
0.6

> <PUBCHEM_CONFORMER_DIVERSEORDER>
1
2
3
4

> <PUBCHEM_MMFF94_PARTIAL_CHARGES>
27
1 -0.56
10 0.28
11 0.28
12 0.27
13 0.28
14 0.27
15 0.28
16 0.62
17 0.56
18 0.45
19 0.28
2 -0.56
20 0.06
21 0.27
22 0.27
3 -0.56
31 0.36
32 0.36
36 0.4
37 0.4
38 0.4
4 -0.68
5 -0.68
6 -0.68
7 -0.57
8 -0.9
9 -0.9

> <PUBCHEM_EFFECTIVE_ROTOR_COUNT>
3.8

> <PUBCHEM_PHARMACOPHORE_FEATURES>
17
1 1 acceptor
1 2 acceptor
1 3 acceptor
1 4 acceptor
1 4 donor
1 5 acceptor
1 5 donor
1 6 acceptor
1 6 donor
1 7 acceptor
1 8 cation
1 8 donor
1 9 cation
1 9 donor
6 1 2 10 11 16 17 rings
6 10 11 12 13 14 15 rings
6 3 16 17 18 19 20 rings

> <PUBCHEM_HEAVY_ATOM_COUNT>
23

> <PUBCHEM_ATOM_DEF_STEREO_COUNT>
9

> <PUBCHEM_ATOM_UDEF_STEREO_COUNT>
0

> <PUBCHEM_BOND_DEF_STEREO_COUNT>
0

> <PUBCHEM_BOND_UDEF_STEREO_COUNT>
0

> <PUBCHEM_ISOTOPIC_ATOM_COUNT>
0

> <PUBCHEM_COMPONENT_COUNT>
1

> <PUBCHEM_CACTVS_TAUTO_COUNT>
2

> <PUBCHEM_CONFORMER_ID>
00003CB500000001

> <PUBCHEM_MMFF94_ENERGY>
53.4778

> <PUBCHEM_FEATURE_SELFOVERLAP>
86.499

> <PUBCHEM_SHAPE_FINGERPRINT>
10382601 240 18341046423720640618
11132069 177 18342457053741199541
11578080 2 17827118136052572577
11725454 13 14491902578379938027
12251169 10 18338226163610836753
12553582 1 17981051030756254010
12633257 1 18192711378663270507
12670546 56 18187082866960712897
12892183 10 18269257102077778697
13140716 1 17983575204362698122
13224815 77 18343028795513651214
13583140 156 18272640265144503841
13965767 371 17755832527957985817
14178342 30 18410580556588583874
14223421 5 18273217533870062707
14739800 52 17677349297767084792
14787075 74 18118405046748649992
14790565 3 18199455589926127452
15209289 33 18339081476008705464
15209294 21 18260829297715832608
15309172 13 18272374109730328356
15375462 189 18199461237264029426
15536298 74 18334008406688514548
16945 1 18272940418168866278
1813 80 17489296499373633621
19591789 44 18342182167940724586
200 152 18265346027501163319
20028762 73 18048599214150205406
20600515 1 14764351577980580359
20691752 17 17988920089436172622
20739085 24 18272645796909296040
21041028 32 17910394223200408682
21421861 104 18128538365502081960
21427221 339 18190447454056506657
22445834 79 18411979165744527089
2255824 54 18201712908487204260
2334 1 18270974555987820742
23557571 272 17168420459167708968
23566358 27 18269828865009010054
23598288 3 17967542280873658223
23598291 2 18188220886885911710
25147074 1 18261407675413249071
2748010 2 18055370277320054748
34934 24 18339929311079787773
458136 41 18201709666034652962
474 4 18342174419160268192
5104073 3 18408042926965282842
633830 44 18409162182805618532
7097593 13 18339357573654687145
7832392 63 18335980973182153225

> <PUBCHEM_SHAPE_MULTIPOLES>
422.28
8.32
2.86
1.36
1.2
0.95
-0.07
-1.72
-2.9
1.17
-0.66
-0.94
0.07
-1.61

> <PUBCHEM_SHAPE_SELFOVERLAP>
885.926

> <PUBCHEM_SHAPE_VOLUME>
233.4

> <PUBCHEM_COORDINATE_TYPE>
2
5
10

$$$$

