442254
  -OEChem-07051212573D

 39 41  0     1  0  0  0  0  0999 V2000
    2.3976   -1.2305   -0.4339 O   0  0  0  0  0  0  0  0  0  0  0  0
   -2.2749   -2.8090   -0.0134 O   0  0  0  0  0  0  0  0  0  0  0  0
   -4.3919    1.4833   -0.2823 O   0  0  0  0  0  0  0  0  0  0  0  0
    4.2233   -0.2564   -1.4518 O   0  0  0  0  0  0  0  0  0  0  0  0
   -0.7871   -0.8529    0.0583 C   0  0  1  0  0  0  0  0  0  0  0  0
   -0.7584    0.6437    0.5093 C   0  0  1  0  0  0  0  0  0  0  0  0
    0.3208   -1.6335    0.8181 C   0  0  0  0  0  0  0  0  0  0  0  0
    0.6289    1.2716    0.2838 C   0  0  0  0  0  0  0  0  0  0  0  0
    1.7401    0.5052    1.0138 C   0  0  1  0  0  0  0  0  0  0  0  0
    1.7097   -0.9984    0.8064 C   0  0  2  0  0  0  0  0  0  0  0  0
   -2.1728   -1.4643    0.4499 C   0  0  1  0  0  0  0  0  0  0  0  0
   -1.9418    1.4075   -0.0902 C   0  0  0  0  0  0  0  0  0  0  0  0
   -3.3598   -0.6579   -0.0863 C   0  0  0  0  0  0  0  0  0  0  0  0
   -0.5607   -1.0074   -1.4681 C   0  0  0  0  0  0  0  0  0  0  0  0
   -3.2827    0.8151    0.3114 C   0  0  2  0  0  0  0  0  0  0  0  0
    3.0667    0.7891    0.3979 C   0  0  0  0  0  0  0  0  0  0  0  0
    3.3455   -0.2595   -0.6085 C   0  0  0  0  0  0  0  0  0  0  0  0
   -1.8257    2.4811   -0.8904 C   0  0  0  0  0  0  0  0  0  0  0  0
    3.9232    1.7733    0.6759 C   0  0  0  0  0  0  0  0  0  0  0  0
   -0.9173    0.6653    1.5994 H   0  0  0  0  0  0  0  0  0  0  0  0
    0.3980   -2.6534    0.4214 H   0  0  0  0  0  0  0  0  0  0  0  0
    0.0176   -1.7242    1.8700 H   0  0  0  0  0  0  0  0  0  0  0  0
    0.6305    2.3063    0.6537 H   0  0  0  0  0  0  0  0  0  0  0  0
    0.8456    1.3411   -0.7898 H   0  0  0  0  0  0  0  0  0  0  0  0
    1.7096    0.7391    2.0841 H   0  0  0  0  0  0  0  0  0  0  0  0
    2.3074   -1.5022    1.5803 H   0  0  0  0  0  0  0  0  0  0  0  0
   -2.2635   -1.4956    1.5440 H   0  0  0  0  0  0  0  0  0  0  0  0
   -4.2952   -1.0962    0.2872 H   0  0  0  0  0  0  0  0  0  0  0  0
   -3.4406   -0.7623   -1.1764 H   0  0  0  0  0  0  0  0  0  0  0  0
   -0.5394   -2.0634   -1.7601 H   0  0  0  0  0  0  0  0  0  0  0  0
   -1.3496   -0.5252   -2.0531 H   0  0  0  0  0  0  0  0  0  0  0  0
    0.3841   -0.5701   -1.7991 H   0  0  0  0  0  0  0  0  0  0  0  0
   -3.3921    0.9151    1.3983 H   0  0  0  0  0  0  0  0  0  0  0  0
   -1.6715   -3.3545    0.5179 H   0  0  0  0  0  0  0  0  0  0  0  0
   -2.6955    2.9888   -1.2931 H   0  0  0  0  0  0  0  0  0  0  0  0
   -0.8647    2.8921   -1.1759 H   0  0  0  0  0  0  0  0  0  0  0  0
   -5.2029    1.0706    0.0604 H   0  0  0  0  0  0  0  0  0  0  0  0
    3.6863    2.5149    1.4315 H   0  0  0  0  0  0  0  0  0  0  0  0
    4.8741    1.8647    0.1623 H   0  0  0  0  0  0  0  0  0  0  0  0
  1 10  1  0  0  0  0
  1 17  1  0  0  0  0
  2 11  1  0  0  0  0
  2 34  1  0  0  0  0
  3 15  1  0  0  0  0
  3 37  1  0  0  0  0
  4 17  2  0  0  0  0
  5  6  1  0  0  0  0
  5  7  1  0  0  0  0
  5 11  1  0  0  0  0
  5 14  1  0  0  0  0
  6  8  1  0  0  0  0
  6 12  1  0  0  0  0
  6 20  1  0  0  0  0
  7 10  1  0  0  0  0
  7 21  1  0  0  0  0
  7 22  1  0  0  0  0
  8  9  1  0  0  0  0
  8 23  1  0  0  0  0
  8 24  1  0  0  0  0
  9 10  1  0  0  0  0
  9 16  1  0  0  0  0
  9 25  1  0  0  0  0
 10 26  1  0  0  0  0
 11 13  1  0  0  0  0
 11 27  1  0  0  0  0
 12 15  1  0  0  0  0
 12 18  2  0  0  0  0
 13 15  1  0  0  0  0
 13 28  1  0  0  0  0
 13 29  1  0  0  0  0
 14 30  1  0  0  0  0
 14 31  1  0  0  0  0
 14 32  1  0  0  0  0
 15 33  1  0  0  0  0
 16 17  1  0  0  0  0
 16 19  2  0  0  0  0
 18 35  1  0  0  0  0
 18 36  1  0  0  0  0
 19 38  1  0  0  0  0
 19 39  1  0  0  0  0
M  END
> <PUBCHEM_COMPOUND_CID>
442254

> <PUBCHEM_CONFORMER_RMSD>
0.6

> <PUBCHEM_CONFORMER_DIVERSEORDER>
1
2

> <PUBCHEM_MMFF94_PARTIAL_CHARGES>
20
1 -0.43
10 0.28
11 0.28
12 -0.28
15 0.42
16 -0.12
17 0.71
18 -0.3
19 -0.3
2 -0.68
3 -0.68
34 0.4
35 0.15
36 0.15
37 0.4
38 0.15
39 0.15
4 -0.57
6 0.14
9 0.14

> <PUBCHEM_EFFECTIVE_ROTOR_COUNT>
1.2

> <PUBCHEM_PHARMACOPHORE_FEATURES>
8
1 2 acceptor
1 2 donor
1 3 acceptor
1 3 donor
1 4 acceptor
5 1 9 10 16 17 rings
6 5 6 11 12 13 15 rings
6 5 6 7 8 9 10 rings

> <PUBCHEM_HEAVY_ATOM_COUNT>
19

> <PUBCHEM_ATOM_DEF_STEREO_COUNT>
6

> <PUBCHEM_ATOM_UDEF_STEREO_COUNT>
0

> <PUBCHEM_BOND_DEF_STEREO_COUNT>
0

> <PUBCHEM_BOND_UDEF_STEREO_COUNT>
0

> <PUBCHEM_ISOTOPIC_ATOM_COUNT>
0

> <PUBCHEM_COMPONENT_COUNT>
1

> <PUBCHEM_CACTVS_TAUTO_COUNT>
1

> <PUBCHEM_CONFORMER_ID>
0006BF8E00000001

> <PUBCHEM_MMFF94_ENERGY>
55.2635

> <PUBCHEM_FEATURE_SELFOVERLAP>
40.789

> <PUBCHEM_SHAPE_FINGERPRINT>
10498660 4 18343308075904764949
10608611 8 18408608041439880376
10863032 1 18408602569498492866
10922523 26 18187644665836479660
10967382 1 18339929319648415681
11132069 177 18411139104111076809
11578080 2 16734973128691964643
11715629 250 18410299099013372664
12011746 2 18411419540248981877
12173636 292 18342184418118336213
12186901 62 18411408540273156455
12969540 114 18200051636976029725
13140716 1 18198625428260119009
13214271 11 18264778661878067818
13221675 6 18411984667244257505
13296908 3 18113897131000809242
13538477 17 18201166519637512994
13764800 53 18131625682019490331
14790565 3 18193550293377883969
15196674 1 18410295804631018985
15219456 202 18186800249480490488
15309172 13 18338513153220002273
15536298 74 18260547805743706464
15775835 57 18341330084455948577
16945 1 18341342157767149803
17357779 13 18118421544224605231
18186145 218 18261392294950823784
18981168 100 17986977299560666964
19784866 240 14562806716101235012
19868273 293 18413385453785161126
19868273 325 18269277867906868747
200 152 16660361502138823426
20510252 161 18334576850069014881
20645477 70 17313096462988494286
21501502 16 18339654407228966971
21524375 3 18128537265373379179
22802520 49 18261385672385299878
23227448 37 18340489958688236549
2334 1 17981327785600219065
23402539 116 18269005189360829488
23557571 272 18264485096637036146
23559900 14 18334293185038375160
238 59 17763498353017374893
2748010 2 18123480371211202723
34934 24 18340497698356233033
350125 39 17983580980998544673
4028521 119 18342463651111490701
474 4 16557607635450973932
4990 188 18040714804981292156
5104073 3 18409731746428369106
633830 44 18114750459451400213
69090 78 18187090554551285093
7097593 13 17556321761935749410
7364860 26 18195252332834346018
81228 2 18270117886042351907
9709674 26 18261956249920973182

> <PUBCHEM_SHAPE_MULTIPOLES>
367.53
6.88
2.34
1.08
1.93
0.03
0.25
-1.94
0.76
-1.38
0.09
0.56
0.09
0.65

> <PUBCHEM_SHAPE_SELFOVERLAP>
787.266

> <PUBCHEM_SHAPE_VOLUME>
201.6

> <PUBCHEM_COORDINATE_TYPE>
2
5
10

$$$$

