167685
  -OEChem-07051212503D

 75 78  0     1  0  0  0  0  0999 V2000
   -5.5633   -1.7544   -0.9651 O   0  0  0  0  0  0  0  0  0  0  0  0
    7.7410    1.5445   -0.1557 O   0  0  0  0  0  0  0  0  0  0  0  0
   -0.6315   -0.9681   -0.3039 C   0  0  1  0  0  0  0  0  0  0  0  0
    0.1240   -0.5864    0.9846 C   0  0  2  0  0  0  0  0  0  0  0  0
    1.6443   -0.7284    0.8601 C   0  0  1  0  0  0  0  0  0  0  0  0
    2.1551    0.1602   -0.3113 C   0  0  1  0  0  0  0  0  0  0  0  0
   -2.0844   -0.7716    0.1931 C   0  0  2  0  0  0  0  0  0  0  0  0
   -0.1904    0.0081   -1.4034 C   0  0  0  0  0  0  0  0  0  0  0  0
    3.7180    0.0185   -0.5063 C   0  0  2  0  0  0  0  0  0  0  0  0
   -0.6006   -1.3693    2.0753 C   0  0  0  0  0  0  0  0  0  0  0  0
    1.3329   -0.0337   -1.6154 C   0  0  0  0  0  0  0  0  0  0  0  0
   -2.0703   -1.3804    1.6152 C   0  0  0  0  0  0  0  0  0  0  0  0
    2.3374   -0.3257    2.1703 C   0  0  0  0  0  0  0  0  0  0  0  0
   -3.1878   -1.3439   -0.6851 C   0  0  1  0  0  0  0  0  0  0  0  0
   -0.3918   -2.4268   -0.7666 C   0  0  0  0  0  0  0  0  0  0  0  0
    4.4427    0.0589    0.8464 C   0  0  0  0  0  0  0  0  0  0  0  0
    4.2100    1.2081   -1.3840 C   0  0  0  0  0  0  0  0  0  0  0  0
    3.8050   -0.0824    2.0214 C   0  0  0  0  0  0  0  0  0  0  0  0
    4.0796   -1.3157   -1.2024 C   0  0  0  0  0  0  0  0  0  0  0  0
    5.9381    0.2764    0.8218 C   0  0  0  0  0  0  0  0  0  0  0  0
   -4.6109   -1.0969   -0.1240 C   0  0  1  0  0  0  0  0  0  0  0  0
    5.7290    1.3645   -1.4383 C   0  0  0  0  0  0  0  0  0  0  0  0
    6.3234    1.4764   -0.0388 C   0  0  2  0  0  0  0  0  0  0  0  0
   -3.0688   -0.7615   -2.1024 C   0  0  0  0  0  0  0  0  0  0  0  0
   -5.0172    0.3808   -0.0130 C   0  0  0  0  0  0  0  0  0  0  0  0
   -6.4444    0.6497    0.4756 C   0  0  0  0  0  0  0  0  0  0  0  0
   -6.8738    2.1286    0.4972 C   0  0  0  0  0  0  0  0  0  0  0  0
   -5.9004    2.9365    1.3599 C   0  0  0  0  0  0  0  0  0  0  0  0
   -6.9450    2.7338   -0.9052 C   0  0  0  0  0  0  0  0  0  0  0  0
   -0.0732    0.4787    1.1948 H   0  0  0  0  0  0  0  0  0  0  0  0
    1.8957   -1.7763    0.6619 H   0  0  0  0  0  0  0  0  0  0  0  0
    1.9652    1.2011   -0.0017 H   0  0  0  0  0  0  0  0  0  0  0  0
   -2.2472    0.3097    0.3047 H   0  0  0  0  0  0  0  0  0  0  0  0
   -0.4807    1.0337   -1.1416 H   0  0  0  0  0  0  0  0  0  0  0  0
   -0.6356   -0.2060   -2.3746 H   0  0  0  0  0  0  0  0  0  0  0  0
   -0.4949   -0.8974    3.0575 H   0  0  0  0  0  0  0  0  0  0  0  0
   -0.2180   -2.3928    2.1562 H   0  0  0  0  0  0  0  0  0  0  0  0
    1.5868   -0.9854   -2.0912 H   0  0  0  0  0  0  0  0  0  0  0  0
    1.5959    0.7488   -2.3362 H   0  0  0  0  0  0  0  0  0  0  0  0
   -2.4519   -2.4076    1.6308 H   0  0  0  0  0  0  0  0  0  0  0  0
   -2.6946   -0.7875    2.2929 H   0  0  0  0  0  0  0  0  0  0  0  0
    2.1859   -1.1181    2.9132 H   0  0  0  0  0  0  0  0  0  0  0  0
    1.8858    0.5853    2.5826 H   0  0  0  0  0  0  0  0  0  0  0  0
   -3.0749   -2.4320   -0.7770 H   0  0  0  0  0  0  0  0  0  0  0  0
   -0.8759   -2.6344   -1.7251 H   0  0  0  0  0  0  0  0  0  0  0  0
    0.6688   -2.6529   -0.9064 H   0  0  0  0  0  0  0  0  0  0  0  0
   -0.7729   -3.1593   -0.0479 H   0  0  0  0  0  0  0  0  0  0  0  0
    3.7893    2.1470   -0.9987 H   0  0  0  0  0  0  0  0  0  0  0  0
    3.8403    1.1034   -2.4109 H   0  0  0  0  0  0  0  0  0  0  0  0
    4.3700   -0.0233    2.9487 H   0  0  0  0  0  0  0  0  0  0  0  0
    3.7188   -1.3438   -2.2357 H   0  0  0  0  0  0  0  0  0  0  0  0
    5.1613   -1.4782   -1.2552 H   0  0  0  0  0  0  0  0  0  0  0  0
    3.6570   -2.1771   -0.6750 H   0  0  0  0  0  0  0  0  0  0  0  0
    6.3412    0.4223    1.8325 H   0  0  0  0  0  0  0  0  0  0  0  0
    6.4366   -0.6270    0.4483 H   0  0  0  0  0  0  0  0  0  0  0  0
   -4.7036   -1.5582    0.8658 H   0  0  0  0  0  0  0  0  0  0  0  0
    6.1850    0.5253   -1.9782 H   0  0  0  0  0  0  0  0  0  0  0  0
    5.9890    2.2581   -2.0194 H   0  0  0  0  0  0  0  0  0  0  0  0
    5.9815    2.4061    0.4322 H   0  0  0  0  0  0  0  0  0  0  0  0
   -3.9969   -0.9024   -2.6684 H   0  0  0  0  0  0  0  0  0  0  0  0
   -2.3125   -1.2837   -2.6912 H   0  0  0  0  0  0  0  0  0  0  0  0
   -2.8648    0.3138   -2.0978 H   0  0  0  0  0  0  0  0  0  0  0  0
   -4.3156    0.8838    0.6585 H   0  0  0  0  0  0  0  0  0  0  0  0
   -4.9117    0.8444   -0.9991 H   0  0  0  0  0  0  0  0  0  0  0  0
   -5.3377   -2.7001   -0.9798 H   0  0  0  0  0  0  0  0  0  0  0  0
    8.1054    1.6197    0.7427 H   0  0  0  0  0  0  0  0  0  0  0  0
   -7.1555    0.0965   -0.1505 H   0  0  0  0  0  0  0  0  0  0  0  0
   -6.5469    0.2372    1.4877 H   0  0  0  0  0  0  0  0  0  0  0  0
   -7.8722    2.1838    0.9486 H   0  0  0  0  0  0  0  0  0  0  0  0
   -5.7735    2.4781    2.3463 H   0  0  0  0  0  0  0  0  0  0  0  0
   -4.9151    3.0376    0.8937 H   0  0  0  0  0  0  0  0  0  0  0  0
   -6.2884    3.9495    1.5152 H   0  0  0  0  0  0  0  0  0  0  0  0
   -7.5966    2.1378   -1.5526 H   0  0  0  0  0  0  0  0  0  0  0  0
   -5.9605    2.8002   -1.3785 H   0  0  0  0  0  0  0  0  0  0  0  0
   -7.3570    3.7480   -0.8615 H   0  0  0  0  0  0  0  0  0  0  0  0
  1 21  1  0  0  0  0
  1 65  1  0  0  0  0
  2 23  1  0  0  0  0
  2 66  1  0  0  0  0
  3  4  1  0  0  0  0
  3  7  1  0  0  0  0
  3  8  1  0  0  0  0
  3 15  1  0  0  0  0
  4  5  1  0  0  0  0
  4 10  1  0  0  0  0
  4 30  1  0  0  0  0
  5  6  1  0  0  0  0
  5 13  1  0  0  0  0
  5 31  1  0  0  0  0
  6  9  1  0  0  0  0
  6 11  1  0  0  0  0
  6 32  1  0  0  0  0
  7 12  1  0  0  0  0
  7 14  1  0  0  0  0
  7 33  1  0  0  0  0
  8 11  1  0  0  0  0
  8 34  1  0  0  0  0
  8 35  1  0  0  0  0
  9 16  1  0  0  0  0
  9 17  1  0  0  0  0
  9 19  1  0  0  0  0
 10 12  1  0  0  0  0
 10 36  1  0  0  0  0
 10 37  1  0  0  0  0
 11 38  1  0  0  0  0
 11 39  1  0  0  0  0
 12 40  1  0  0  0  0
 12 41  1  0  0  0  0
 13 18  1  0  0  0  0
 13 42  1  0  0  0  0
 13 43  1  0  0  0  0
 14 21  1  0  0  0  0
 14 24  1  0  0  0  0
 14 44  1  0  0  0  0
 15 45  1  0  0  0  0
 15 46  1  0  0  0  0
 15 47  1  0  0  0  0
 16 18  2  0  0  0  0
 16 20  1  0  0  0  0
 17 22  1  0  0  0  0
 17 48  1  0  0  0  0
 17 49  1  0  0  0  0
 18 50  1  0  0  0  0
 19 51  1  0  0  0  0
 19 52  1  0  0  0  0
 19 53  1  0  0  0  0
 20 23  1  0  0  0  0
 20 54  1  0  0  0  0
 20 55  1  0  0  0  0
 21 25  1  0  0  0  0
 21 56  1  0  0  0  0
 22 23  1  0  0  0  0
 22 57  1  0  0  0  0
 22 58  1  0  0  0  0
 23 59  1  0  0  0  0
 24 60  1  0  0  0  0
 24 61  1  0  0  0  0
 24 62  1  0  0  0  0
 25 26  1  0  0  0  0
 25 63  1  0  0  0  0
 25 64  1  0  0  0  0
 26 27  1  0  0  0  0
 26 67  1  0  0  0  0
 26 68  1  0  0  0  0
 27 28  1  0  0  0  0
 27 29  1  0  0  0  0
 27 69  1  0  0  0  0
 28 70  1  0  0  0  0
 28 71  1  0  0  0  0
 28 72  1  0  0  0  0
 29 73  1  0  0  0  0
 29 74  1  0  0  0  0
 29 75  1  0  0  0  0
M  END
> <PUBCHEM_COMPOUND_CID>
167685

> <PUBCHEM_CONFORMER_RMSD>
0.8

> <PUBCHEM_CONFORMER_DIVERSEORDER>
1
2
3

> <PUBCHEM_MMFF94_PARTIAL_CHARGES>
12
1 -0.68
13 0.14
16 -0.28
18 -0.29
2 -0.68
20 0.14
21 0.28
23 0.28
50 0.15
65 0.4
66 0.4
9 0.14

> <PUBCHEM_EFFECTIVE_ROTOR_COUNT>
7

> <PUBCHEM_PHARMACOPHORE_FEATURES>
10
1 1 acceptor
1 1 donor
1 2 acceptor
1 2 donor
1 24 hydrophobe
3 27 28 29 hydrophobe
5 3 4 7 10 12 rings
6 3 4 5 6 8 11 rings
6 5 6 9 13 16 18 rings
6 9 16 17 20 22 23 rings

> <PUBCHEM_HEAVY_ATOM_COUNT>
29

> <PUBCHEM_ATOM_DEF_STEREO_COUNT>
9

> <PUBCHEM_ATOM_UDEF_STEREO_COUNT>
0

> <PUBCHEM_BOND_DEF_STEREO_COUNT>
0

> <PUBCHEM_BOND_UDEF_STEREO_COUNT>
0

> <PUBCHEM_ISOTOPIC_ATOM_COUNT>
0

> <PUBCHEM_COMPONENT_COUNT>
1

> <PUBCHEM_CACTVS_TAUTO_COUNT>
1

> <PUBCHEM_CONFORMER_ID>
00028F0500000001

> <PUBCHEM_MMFF94_ENERGY>
89.4204

> <PUBCHEM_FEATURE_SELFOVERLAP>
50.839

> <PUBCHEM_SHAPE_FINGERPRINT>
10 15 14764347102814223564
10554248 39 18117008869277614471
10674148 151 18343577452865502854
10693767 8 4823220468133170132
10906281 52 17917699185240054230
11456790 92 17846785100807835400
11578080 2 17896029004946630477
11646440 116 16343704326809318908
12011746 2 16081080447139900746
12035758 1 15195565697434955721
12236239 1 18273219677021820250
12788726 201 18272662250686777708
13690498 29 16878518813316953847
13914758 101 18333446556484208122
14251764 18 17846779568530637807
14394314 77 17917712422546311813
14415361 349 6843932698016427684
14849402 71 17702939228123401869
14856354 85 18263081021032905671
15082195 135 17748818618877881552
15183329 4 15936689346027674235
15238133 3 18412269428039982320
1577012 14 18344150293031419331
15840311 113 17987517181840762333
16728433 281 17822281448510498321
16994733 274 18410295804467813801
17913733 40 16486974020618741849
17980427 23 18202279187214171909
18222031 100 4895554061011543566
20105231 36 15554448522762713690
20511986 3 17676493847603441542
21033648 29 17968389969519797866
21130935 74 17918277541151931490
21267235 1 15985112942164390530
21424621 283 18411980278077838051
21521239 73 4823207308184231565
21623969 137 15051732001579041793
21756936 100 18273213080722154467
21781055 127 17846207874941829940
21792961 116 16877936135977393543
21859007 373 17241341268760251096
22122407 14 18200580411310693593
2215653 11 15285356210874230770
22393880 68 16153717487647174799
23559900 14 15285642045422517354
23569914 152 15145717353932247365
23576562 1 16298966242215542065
2838139 119 18339921515666744325
3004659 81 15936410009728756482
3178227 256 15626220213238134692
335352 9 14851880314154255466
3633792 109 17895183459494472310
3882209 13 15652091936181842743
392239 28 16343701011152315309
397830 11 12463278164377131455
4093350 32 18342459257935291338
4098825 35 18334010631645260238
4340502 62 15626224615399992362
465052 167 12031785860075414438
5104073 3 15482127079481818029
5385378 56 17418096554681190746
999808 66 13398632753418547073

> <PUBCHEM_SHAPE_MULTIPOLES>
585.07
18.81
2.3
1.97
6.9
1.04
-0.33
15.97
0.1
3.63
0.03
-0.53
-0.28
-1.59

> <PUBCHEM_SHAPE_SELFOVERLAP>
1213.802

> <PUBCHEM_SHAPE_VOLUME>
333.7

> <PUBCHEM_COORDINATE_TYPE>
2
5
10

$$$$

