5280588
  -OEChem-07051212482D

 99103  0     1  0  0  0  0  0999 V2000
   13.7283   -2.1087    0.0000 O   0  0  0  0  0  0  0  0  0  0  0  0
   11.9962   -2.1087    0.0000 O   0  0  0  0  0  0  0  0  0  0  0  0
   13.7283   -5.1087    0.0000 O   0  0  0  0  0  0  0  0  0  0  0  0
   11.9962   -4.1087    0.0000 O   0  0  0  0  0  0  0  0  0  0  0  0
   15.4603   -4.1087    0.0000 O   0  0  0  0  0  0  0  0  0  0  0  0
   15.4603   -1.1087    0.0000 O   0  0  0  0  0  0  0  0  0  0  0  0
   16.3263   -2.6087    0.0000 O   0  0  0  0  0  0  0  0  0  0  0  0
   12.8622   -0.6087    0.0000 O   0  0  0  0  0  0  0  0  0  0  0  0
    8.2447   -5.1988    0.0000 O   0  0  0  0  0  0  0  0  0  0  0  0
    9.6460   -4.1807    0.0000 O   0  0  0  0  0  0  0  0  0  0  0  0
    5.3315    2.2754    0.0000 O   0  0  0  0  0  0  0  0  0  0  0  0
    3.8625   -3.5421    0.0000 O   0  0  0  0  0  0  0  0  0  0  0  0
    8.6815    1.2277    0.0000 N   0  0  0  0  0  0  0  0  0  0  0  0
    7.3826   -0.2148    0.0000 N   0  0  0  0  0  0  0  0  0  0  0  0
    7.1111    2.3686    0.0000 N   0  0  0  0  0  0  0  0  0  0  0  0
    4.9839   -2.1572    0.0000 N   0  0  0  0  0  0  0  0  0  0  0  0
   13.7283   -4.1087    0.0000 C   0  0  2  0  0  0  0  0  0  0  0  0
   12.8622   -3.6087    0.0000 C   0  0  2  0  0  0  0  0  0  0  0  0
   14.5943   -3.6087    0.0000 C   0  0  1  0  0  0  0  0  0  0  0  0
   12.8622   -2.6087    0.0000 C   0  0  1  0  0  0  0  0  0  0  0  0
   14.5943   -2.6087    0.0000 C   0  0  1  0  0  0  0  0  0  0  0  0
   10.2642    0.8913    0.0000 C   0  0  0  0  0  0  0  0  0  0  0  0
    9.3506    0.4846    0.0000 C   0  0  0  0  0  0  0  0  0  0  0  0
    9.1427   -0.4936    0.0000 C   0  0  0  0  0  0  0  0  0  0  0  0
    8.1916   -0.8026    0.0000 C   0  0  0  0  0  0  0  0  0  0  0  0
   11.1302    0.3913    0.0000 C   0  0  0  0  0  0  0  0  0  0  0  0
   10.1596    1.8858    0.0000 C   0  0  0  0  0  0  0  0  0  0  0  0
    7.8826   -1.7537    0.0000 C   0  0  0  0  0  0  0  0  0  0  0  0
   11.1302   -0.6087    0.0000 C   0  0  0  0  0  0  0  0  0  0  0  0
    9.1815    2.0937    0.0000 C   0  0  0  0  0  0  0  0  0  0  0  0
    6.8826   -1.7537    0.0000 C   0  0  0  0  0  0  0  0  0  0  0  0
   15.4603   -2.1087    0.0000 C   0  0  0  0  0  0  0  0  0  0  0  0
    6.5736   -0.8026    0.0000 C   0  0  0  0  0  0  0  0  0  0  0  0
    8.4704   -2.5627    0.0000 C   0  0  0  0  0  0  0  0  0  0  0  0
   11.9962   -1.1087    0.0000 C   0  0  0  0  0  0  0  0  0  0  0  0
   10.9028    2.5549    0.0000 C   0  0  0  0  0  0  0  0  0  0  0  0
    8.7747    3.0073    0.0000 C   0  0  0  0  0  0  0  0  0  0  0  0
    6.2948   -2.5627    0.0000 C   0  0  0  0  0  0  0  0  0  0  0  0
    8.0637   -3.4762    0.0000 C   0  0  0  0  0  0  0  0  0  0  0  0
    5.6226   -0.4936    0.0000 C   0  0  0  0  0  0  0  0  0  0  0  0
    7.7802    3.1118    0.0000 C   0  0  0  0  0  0  0  0  0  0  0  0
    4.8794   -1.1627    0.0000 C   0  0  0  0  0  0  0  0  0  0  0  0
    7.2802    3.9778    0.0000 C   0  0  0  0  0  0  0  0  0  0  0  0
    3.9013   -0.9548    0.0000 C   0  0  0  0  0  0  0  0  0  0  0  0
    8.6515   -4.2852    0.0000 C   0  0  0  0  0  0  0  0  0  0  0  0
    6.3021    3.7699    0.0000 C   0  0  0  0  0  0  0  0  0  0  0  0
    3.4013   -1.8208    0.0000 C   0  0  0  0  0  0  0  0  0  0  0  0
    6.1975    2.7754    0.0000 C   0  0  0  0  0  0  0  0  0  0  0  0
    4.0704   -2.5640    0.0000 C   0  0  0  0  0  0  0  0  0  0  0  0
    3.4945   -0.0413    0.0000 C   0  0  0  0  0  0  0  0  0  0  0  0
    7.6870    4.8914    0.0000 C   0  0  0  0  0  0  0  0  0  0  0  0
    5.5589    4.4390    0.0000 C   0  0  0  0  0  0  0  0  0  0  0  0
    2.4067   -1.9254    0.0000 C   0  0  0  0  0  0  0  0  0  0  0  0
    7.0992    5.7004    0.0000 C   0  0  0  0  0  0  0  0  0  0  0  0
    2.0000   -2.8389    0.0000 C   0  0  0  0  0  0  0  0  0  0  0  0
   14.2652   -4.4187    0.0000 H   0  0  0  0  0  0  0  0  0  0  0  0
   12.3253   -3.2987    0.0000 H   0  0  0  0  0  0  0  0  0  0  0  0
   15.1312   -3.2987    0.0000 H   0  0  0  0  0  0  0  0  0  0  0  0
   12.3253   -2.9187    0.0000 H   0  0  0  0  0  0  0  0  0  0  0  0
   14.5943   -1.9887    0.0000 H   0  0  0  0  0  0  0  0  0  0  0  0
    9.2290   -1.1076    0.0000 H   0  0  0  0  0  0  0  0  0  0  0  0
    9.7623   -0.5152    0.0000 H   0  0  0  0  0  0  0  0  0  0  0  0
   11.7408    0.2836    0.0000 H   0  0  0  0  0  0  0  0  0  0  0  0
   11.3422    0.9739    0.0000 H   0  0  0  0  0  0  0  0  0  0  0  0
   10.5196   -0.5010    0.0000 H   0  0  0  0  0  0  0  0  0  0  0  0
   10.9181   -1.1913    0.0000 H   0  0  0  0  0  0  0  0  0  0  0  0
    8.0649    1.1629    0.0000 H   0  0  0  0  0  0  0  0  0  0  0  0
    7.3826    0.4052    0.0000 H   0  0  0  0  0  0  0  0  0  0  0  0
    8.9844   -2.9094    0.0000 H   0  0  0  0  0  0  0  0  0  0  0  0
    8.9011   -2.1167    0.0000 H   0  0  0  0  0  0  0  0  0  0  0  0
   13.1913   -5.4187    0.0000 H   0  0  0  0  0  0  0  0  0  0  0  0
   11.4593   -3.7987    0.0000 H   0  0  0  0  0  0  0  0  0  0  0  0
   15.4603   -4.7287    0.0000 H   0  0  0  0  0  0  0  0  0  0  0  0
   11.3176    2.0942    0.0000 H   0  0  0  0  0  0  0  0  0  0  0  0
   11.3635    2.9698    0.0000 H   0  0  0  0  0  0  0  0  0  0  0  0
   10.4879    3.0157    0.0000 H   0  0  0  0  0  0  0  0  0  0  0  0
    9.1392    3.5089    0.0000 H   0  0  0  0  0  0  0  0  0  0  0  0
    5.7932   -2.1983    0.0000 H   0  0  0  0  0  0  0  0  0  0  0  0
    5.9304   -3.0643    0.0000 H   0  0  0  0  0  0  0  0  0  0  0  0
    6.7964   -2.9271    0.0000 H   0  0  0  0  0  0  0  0  0  0  0  0
    7.5497   -3.1295    0.0000 H   0  0  0  0  0  0  0  0  0  0  0  0
    7.6330   -3.9222    0.0000 H   0  0  0  0  0  0  0  0  0  0  0  0
    5.4936    0.1129    0.0000 H   0  0  0  0  0  0  0  0  0  0  0  0
   15.9972   -0.7987    0.0000 H   0  0  0  0  0  0  0  0  0  0  0  0
    7.2400    1.7622    0.0000 H   0  0  0  0  0  0  0  0  0  0  0  0
    5.5209   -2.4672    0.0000 H   0  0  0  0  0  0  0  0  0  0  0  0
    4.0609    0.2109    0.0000 H   0  0  0  0  0  0  0  0  0  0  0  0
    3.2424    0.5251    0.0000 H   0  0  0  0  0  0  0  0  0  0  0  0
    2.9281   -0.2934    0.0000 H   0  0  0  0  0  0  0  0  0  0  0  0
    8.3036    4.9562    0.0000 H   0  0  0  0  0  0  0  0  0  0  0  0
    5.9738    4.8998    0.0000 H   0  0  0  0  0  0  0  0  0  0  0  0
    5.0982    4.8539    0.0000 H   0  0  0  0  0  0  0  0  0  0  0  0
    5.1441    3.9783    0.0000 H   0  0  0  0  0  0  0  0  0  0  0  0
    2.0423   -1.4238    0.0000 H   0  0  0  0  0  0  0  0  0  0  0  0
    8.6092   -5.7004    0.0000 H   0  0  0  0  0  0  0  0  0  0  0  0
    7.3514    6.2668    0.0000 H   0  0  0  0  0  0  0  0  0  0  0  0
    6.4826    5.6356    0.0000 H   0  0  0  0  0  0  0  0  0  0  0  0
    1.3834   -2.9037    0.0000 H   0  0  0  0  0  0  0  0  0  0  0  0
    2.3644   -3.3405    0.0000 H   0  0  0  0  0  0  0  0  0  0  0  0
  1 20  1  0  0  0  0
  1 21  1  0  0  0  0
 20  2  1  6  0  0  0
  2 35  1  0  0  0  0
 17  3  1  6  0  0  0
  3 71  1  0  0  0  0
 18  4  1  1  0  0  0
  4 72  1  0  0  0  0
 19  5  1  1  0  0  0
  5 73  1  0  0  0  0
  6 32  1  0  0  0  0
  6 84  1  0  0  0  0
  7 32  2  0  0  0  0
  8 35  2  0  0  0  0
  9 45  1  0  0  0  0
  9 95  1  0  0  0  0
 10 45  2  0  0  0  0
 11 48  2  0  0  0  0
 12 49  2  0  0  0  0
 13 23  1  0  0  0  0
 13 30  1  0  0  0  0
 13 67  1  0  0  0  0
 14 25  1  0  0  0  0
 14 33  1  0  0  0  0
 14 68  1  0  0  0  0
 15 41  1  0  0  0  0
 15 48  1  0  0  0  0
 15 85  1  0  0  0  0
 16 42  1  0  0  0  0
 16 49  1  0  0  0  0
 16 86  1  0  0  0  0
 17 18  1  0  0  0  0
 17 19  1  0  0  0  0
 17 56  1  0  0  0  0
 18 20  1  0  0  0  0
 18 57  1  0  0  0  0
 19 21  1  0  0  0  0
 19 58  1  0  0  0  0
 20 59  1  0  0  0  0
 21 32  1  6  0  0  0
 21 60  1  0  0  0  0
 22 23  2  0  0  0  0
 22 26  1  0  0  0  0
 22 27  1  0  0  0  0
 23 24  1  0  0  0  0
 24 25  1  0  0  0  0
 24 61  1  0  0  0  0
 24 62  1  0  0  0  0
 25 28  2  0  0  0  0
 26 29  1  0  0  0  0
 26 63  1  0  0  0  0
 26 64  1  0  0  0  0
 27 30  2  0  0  0  0
 27 36  1  0  0  0  0
 28 31  1  0  0  0  0
 28 34  1  0  0  0  0
 29 35  1  0  0  0  0
 29 65  1  0  0  0  0
 29 66  1  0  0  0  0
 30 37  1  0  0  0  0
 31 33  2  0  0  0  0
 31 38  1  0  0  0  0
 33 40  1  0  0  0  0
 34 39  1  0  0  0  0
 34 69  1  0  0  0  0
 34 70  1  0  0  0  0
 36 74  1  0  0  0  0
 36 75  1  0  0  0  0
 36 76  1  0  0  0  0
 37 41  2  0  0  0  0
 37 77  1  0  0  0  0
 38 78  1  0  0  0  0
 38 79  1  0  0  0  0
 38 80  1  0  0  0  0
 39 45  1  0  0  0  0
 39 81  1  0  0  0  0
 39 82  1  0  0  0  0
 40 42  2  0  0  0  0
 40 83  1  0  0  0  0
 41 43  1  0  0  0  0
 42 44  1  0  0  0  0
 43 46  2  0  0  0  0
 43 51  1  0  0  0  0
 44 47  2  0  0  0  0
 44 50  1  0  0  0  0
 46 48  1  0  0  0  0
 46 52  1  0  0  0  0
 47 49  1  0  0  0  0
 47 53  1  0  0  0  0
 50 87  1  0  0  0  0
 50 88  1  0  0  0  0
 50 89  1  0  0  0  0
 51 54  2  0  0  0  0
 51 90  1  0  0  0  0
 52 91  1  0  0  0  0
 52 92  1  0  0  0  0
 52 93  1  0  0  0  0
 53 55  2  0  0  0  0
 53 94  1  0  0  0  0
 54 96  1  0  0  0  0
 54 97  1  0  0  0  0
 55 98  1  0  0  0  0
 55 99  1  0  0  0  0
M  END
> <PUBCHEM_COMPOUND_CID>
5280588

> <PUBCHEM_COMPOUND_CANONICALIZED>
1

> <PUBCHEM_CACTVS_COMPLEXITY>
1730

> <PUBCHEM_CACTVS_HBOND_ACCEPTOR>
12

> <PUBCHEM_CACTVS_HBOND_DONOR>
9

> <PUBCHEM_CACTVS_ROTATABLE_BOND>
15

> <PUBCHEM_CACTVS_SUBSKEYS>
AAADcfB/vAAAAAAAAAAAAAAAAAAAAWLECAAkAAAAAAAAAAAB4AAAHgAQCAAADByxngMCiJLJlgCoAyXyXAKCgCAhAiAImSFwRNgZMHbA0JWmYAhltADPyQfa/f/egAAAAAAAAAAAAAAAAAAAAAAAAAAAAA==

> <PUBCHEM_IUPAC_OPENEYE_NAME>
(2S,3S,4S,5R,6S)-6-[3-[2-[[3-(2-carboxyethyl)-4-methyl-5-[(Z)-(3-methyl-5-oxo-4-vinyl-pyrrol-2-ylidene)methyl]-1H-pyrrol-2-yl]methyl]-4-methyl-5-[(Z)-(4-methyl-5-oxo-3-vinyl-pyrrol-2-ylidene)methyl]-1H-pyrrol-3-yl]propanoyloxy]-3,4,5-trihydroxy-tetrahydropyran-2-carboxylic acid

> <PUBCHEM_IUPAC_CAS_NAME>
(2S,3S,4S,5R,6S)-6-[3-[2-[[3-(2-carboxyethyl)-5-[(Z)-(4-ethenyl-3-methyl-5-oxo-2-pyrrolylidene)methyl]-4-methyl-1H-pyrrol-2-yl]methyl]-5-[(Z)-(3-ethenyl-4-methyl-5-oxo-2-pyrrolylidene)methyl]-4-methyl-1H-pyrrol-3-yl]-1-oxopropoxy]-3,4,5-trihydroxy-2-oxanecarboxylic acid

> <PUBCHEM_IUPAC_NAME>
(2S,3S,4S,5R,6S)-6-[3-[2-[[3-(2-carboxyethyl)-5-[(Z)-(4-ethenyl-3-methyl-5-oxopyrrol-2-ylidene)methyl]-4-methyl-1H-pyrrol-2-yl]methyl]-5-[(Z)-(3-ethenyl-4-methyl-5-oxopyrrol-2-ylidene)methyl]-4-methyl-1H-pyrrol-3-yl]propanoyloxy]-3,4,5-trihydroxyoxane-2-carboxylic acid

> <PUBCHEM_IUPAC_SYSTEMATIC_NAME>
(2S,3S,4S,5R,6S)-6-[3-[5-[(Z)-(3-ethenyl-4-methyl-5-oxidanylidene-pyrrol-2-ylidene)methyl]-2-[[5-[(Z)-(4-ethenyl-3-methyl-5-oxidanylidene-pyrrol-2-ylidene)methyl]-3-(3-hydroxy-3-oxopropyl)-4-methyl-1H-pyrrol-2-yl]methyl]-4-methyl-1H-pyrrol-3-yl]propanoyloxy]-3,4,5-tris(oxidanyl)oxane-2-carboxylic acid

> <PUBCHEM_IUPAC_TRADITIONAL_NAME>
(2S,3S,4S,5R,6S)-6-[3-[2-[[3-(2-carboxyethyl)-5-[(Z)-(5-keto-3-methyl-4-vinyl-3-pyrrolin-2-ylidene)methyl]-4-methyl-1H-pyrrol-2-yl]methyl]-5-[(Z)-(5-keto-4-methyl-3-vinyl-3-pyrrolin-2-ylidene)methyl]-4-methyl-1H-pyrrol-3-yl]propanoyloxy]-3,4,5-trihydroxy-tetrahydropyran-2-carboxylic acid

> <PUBCHEM_IUPAC_INCHI>
InChI=1S/C39H44N4O12/c1-7-20-19(6)36(50)43-27(20)14-25-18(5)23(10-12-31(46)54-39-34(49)32(47)33(48)35(55-39)38(52)53)29(41-25)15-28-22(9-11-30(44)45)17(4)24(40-28)13-26-16(3)21(8-2)37(51)42-26/h7-8,13-14,32-35,39-41,47-49H,1-2,9-12,15H2,3-6H3,(H,42,51)(H,43,50)(H,44,45)(H,52,53)/b26-13-,27-14-/t32-,33-,34+,35-,39+/m0/s1

> <PUBCHEM_IUPAC_INCHIKEY>
ARBDURHEPGRPSR-LCNKTQGVSA-N

> <PUBCHEM_XLOGP3_AA>
1.3

> <PUBCHEM_EXACT_MASS>
760.295573

> <PUBCHEM_MOLECULAR_FORMULA>
C39H44N4O12

> <PUBCHEM_MOLECULAR_WEIGHT>
760.78626

> <PUBCHEM_OPENEYE_CAN_SMILES>
CC1=C(NC(=C1CCC(=O)O)CC2=C(C(=C(N2)C=C3C(=C(C(=O)N3)C)C=C)C)CCC(=O)OC4C(C(C(C(O4)C(=O)O)O)O)O)C=C5C(=C(C(=O)N5)C=C)C

> <PUBCHEM_OPENEYE_ISO_SMILES>
CC1=C(NC(=C1CCC(=O)O)CC2=C(C(=C(N2)/C=C\3/C(=C(C(=O)N3)C)C=C)C)CCC(=O)O[C@H]4[C@@H]([C@H]([C@@H]([C@H](O4)C(=O)O)O)O)O)/C=C\5/C(=C(C(=O)N5)C=C)C

> <PUBCHEM_CACTVS_TPSA>
261

> <PUBCHEM_MONOISOTOPIC_WEIGHT>
760.295573

> <PUBCHEM_TOTAL_CHARGE>
0

> <PUBCHEM_HEAVY_ATOM_COUNT>
55

> <PUBCHEM_ATOM_DEF_STEREO_COUNT>
5

> <PUBCHEM_ATOM_UDEF_STEREO_COUNT>
0

> <PUBCHEM_BOND_DEF_STEREO_COUNT>
2

> <PUBCHEM_BOND_UDEF_STEREO_COUNT>
0

> <PUBCHEM_ISOTOPIC_ATOM_COUNT>
0

> <PUBCHEM_COMPONENT_COUNT>
1

> <PUBCHEM_CACTVS_TAUTO_COUNT>
100

> <PUBCHEM_COORDINATE_TYPE>
1
5
255

> <PUBCHEM_BONDANNOTATIONS>
13  23  8
13  30  8
14  25  8
14  33  8
20  2  6
21  32  6
22  23  8
22  27  8
25  28  8
27  30  8
28  31  8
17  3  6
31  33  8
18  4  5
19  5  5

$$$$

