46173803
  -OEChem-07051213053D

 88 91  0     1  0  0  0  0  0999 V2000
   -0.0633   -2.4128   -1.1255 O   0  0  0  0  0  0  0  0  0  0  0  0
   -1.2041   -0.6346    1.4811 O   0  0  0  0  0  0  0  0  0  0  0  0
    2.9889   -4.9057   -0.9447 O   0  0  0  0  0  0  0  0  0  0  0  0
   -5.8226   -1.9746    1.7121 O   0  0  0  0  0  0  0  0  0  0  0  0
    0.7997   -1.9043   -3.1400 O   0  0  0  0  0  0  0  0  0  0  0  0
    5.3678    1.2786   -1.3646 O   0  0  0  0  0  0  0  0  0  0  0  0
    5.4168    0.6784    1.5441 O   0  0  0  0  0  0  0  0  0  0  0  0
    1.5001    2.4938    3.4997 O   0  0  0  0  0  0  0  0  0  0  0  0
    2.3175    1.9292   -2.4193 O   0  0  0  0  0  0  0  0  0  0  0  0
   -0.4233    3.0645    1.9930 O   0  0  0  0  0  0  0  0  0  0  0  0
   -2.3733    3.2479   -2.6265 O   0  0  0  0  0  0  0  0  0  0  0  0
   -1.7998    3.0658   -0.3460 N   0  0  0  0  0  0  0  0  0  0  0  0
    0.1427   -2.8390    0.2418 C   0  0  1  0  0  0  0  0  0  0  0  0
   -1.2627   -3.0033    0.9100 C   0  0  1  0  0  0  0  0  0  0  0  0
    1.0332   -4.0914    0.2217 C   0  0  1  0  0  0  0  0  0  0  0  0
   -2.0495   -1.6502    0.9101 C   0  0  1  0  0  0  0  0  0  0  0  0
    2.4059   -3.7272   -0.3737 C   0  0  2  0  0  0  0  0  0  0  0  0
   -3.4084   -1.5808    1.6757 C   0  0  1  0  0  0  0  0  0  0  0  0
    2.3552   -2.6489   -1.4702 C   0  0  1  0  0  0  0  0  0  0  0  0
   -4.6482   -2.1182    0.9013 C   0  0  2  0  0  0  0  0  0  0  0  0
   -2.0691   -4.1274    0.2522 C   0  0  0  0  0  0  0  0  0  0  0  0
    1.2047   -4.7272    1.6049 C   0  0  0  0  0  0  0  0  0  0  0  0
    0.9717   -2.3110   -1.9925 C   0  0  0  0  0  0  0  0  0  0  0  0
   -3.3067   -2.2215    3.0728 C   0  0  0  0  0  0  0  0  0  0  0  0
   -4.9262   -1.4402   -0.4648 C   0  0  1  0  0  0  0  0  0  0  0  0
    2.9543   -1.3430   -1.0020 C   0  0  0  0  0  0  0  0  0  0  0  0
   -6.0846   -2.1375   -1.1933 C   0  0  0  0  0  0  0  0  0  0  0  0
   -5.2586    0.0293   -0.3304 C   0  0  0  0  0  0  0  0  0  0  0  0
    3.8775   -0.5834   -1.6235 C   0  0  0  0  0  0  0  0  0  0  0  0
    4.5085   -0.8898   -2.9510 C   0  0  0  0  0  0  0  0  0  0  0  0
    4.3526    0.7009   -0.9900 C   0  0  0  0  0  0  0  0  0  0  0  0
   -4.4632    1.0193   -0.7624 C   0  0  0  0  0  0  0  0  0  0  0  0
    3.5787    1.2896    0.1192 C   0  0  0  0  0  0  0  0  0  0  0  0
   -4.8261    2.4192   -0.6671 C   0  0  0  0  0  0  0  0  0  0  0  0
    2.2932    1.8388   -0.0447 C   0  0  0  0  0  0  0  0  0  0  0  0
    4.1673    1.2051    1.3866 C   0  0  0  0  0  0  0  0  0  0  0  0
    1.5774    2.2210    1.0932 C   0  0  0  0  0  0  0  0  0  0  0  0
    3.4589    1.6297    2.5058 C   0  0  0  0  0  0  0  0  0  0  0  0
   -4.0489    3.4687   -0.9865 C   0  0  0  0  0  0  0  0  0  0  0  0
    2.1626    2.1220    2.3643 C   0  0  0  0  0  0  0  0  0  0  0  0
    1.6832    2.0435   -1.3778 C   0  0  0  0  0  0  0  0  0  0  0  0
    0.1860    2.7050    0.9907 C   0  0  0  0  0  0  0  0  0  0  0  0
   -0.4610    2.7274   -0.3517 C   0  0  0  0  0  0  0  0  0  0  0  0
    0.2557    2.4210   -1.4373 C   0  0  0  0  0  0  0  0  0  0  0  0
   -2.6448    3.2469   -1.4320 C   0  0  0  0  0  0  0  0  0  0  0  0
    4.0822    1.5323    3.8626 C   0  0  0  0  0  0  0  0  0  0  0  0
   -4.4977    4.8939   -0.9253 C   0  0  0  0  0  0  0  0  0  0  0  0
    0.6692   -2.0338    0.7679 H   0  0  0  0  0  0  0  0  0  0  0  0
   -1.0740   -3.2766    1.9547 H   0  0  0  0  0  0  0  0  0  0  0  0
    0.5911   -4.8470   -0.4407 H   0  0  0  0  0  0  0  0  0  0  0  0
   -2.1973   -1.3393   -0.1275 H   0  0  0  0  0  0  0  0  0  0  0  0
    3.0851   -3.4180    0.4316 H   0  0  0  0  0  0  0  0  0  0  0  0
   -3.6071   -0.5194    1.8841 H   0  0  0  0  0  0  0  0  0  0  0  0
    2.9075   -3.0313   -2.3358 H   0  0  0  0  0  0  0  0  0  0  0  0
   -4.5468   -3.1919    0.7377 H   0  0  0  0  0  0  0  0  0  0  0  0
   -2.9064   -4.4268    0.8859 H   0  0  0  0  0  0  0  0  0  0  0  0
   -1.4792   -5.0363    0.1123 H   0  0  0  0  0  0  0  0  0  0  0  0
   -2.4562   -3.8247   -0.7259 H   0  0  0  0  0  0  0  0  0  0  0  0
    1.5678   -3.9951    2.3341 H   0  0  0  0  0  0  0  0  0  0  0  0
    1.9244   -5.5520    1.5674 H   0  0  0  0  0  0  0  0  0  0  0  0
    0.2619   -5.1403    1.9755 H   0  0  0  0  0  0  0  0  0  0  0  0
   -2.4227   -1.8588    3.6078 H   0  0  0  0  0  0  0  0  0  0  0  0
   -4.1791   -1.9688    3.6847 H   0  0  0  0  0  0  0  0  0  0  0  0
   -3.2500   -3.3125    3.0128 H   0  0  0  0  0  0  0  0  0  0  0  0
   -4.0476   -1.5632   -1.1079 H   0  0  0  0  0  0  0  0  0  0  0  0
    2.5757   -1.0272   -0.0331 H   0  0  0  0  0  0  0  0  0  0  0  0
   -1.6285    0.2255    1.3203 H   0  0  0  0  0  0  0  0  0  0  0  0
    3.8989   -4.6840   -1.2072 H   0  0  0  0  0  0  0  0  0  0  0  0
   -7.0272   -2.0560   -0.6407 H   0  0  0  0  0  0  0  0  0  0  0  0
   -5.8666   -3.2018   -1.3334 H   0  0  0  0  0  0  0  0  0  0  0  0
   -6.2412   -1.6988   -2.1855 H   0  0  0  0  0  0  0  0  0  0  0  0
   -5.8619   -1.0570    2.0303 H   0  0  0  0  0  0  0  0  0  0  0  0
   -6.2143    0.2758    0.1288 H   0  0  0  0  0  0  0  0  0  0  0  0
    5.5494   -1.1991   -2.8118 H   0  0  0  0  0  0  0  0  0  0  0  0
    3.9921   -1.6770   -3.5046 H   0  0  0  0  0  0  0  0  0  0  0  0
    4.4956   -0.0022   -3.5933 H   0  0  0  0  0  0  0  0  0  0  0  0
   -3.5102    0.7657   -1.2170 H   0  0  0  0  0  0  0  0  0  0  0  0
   -5.8390    2.6209   -0.3218 H   0  0  0  0  0  0  0  0  0  0  0  0
   -0.1643    2.4277   -2.4358 H   0  0  0  0  0  0  0  0  0  0  0  0
    3.7755    2.3638    4.5062 H   0  0  0  0  0  0  0  0  0  0  0  0
    3.7927    0.5908    4.3403 H   0  0  0  0  0  0  0  0  0  0  0  0
    5.1754    1.5781    3.8183 H   0  0  0  0  0  0  0  0  0  0  0  0
   -3.8723    5.4620   -0.2289 H   0  0  0  0  0  0  0  0  0  0  0  0
   -5.5361    4.9817   -0.5893 H   0  0  0  0  0  0  0  0  0  0  0  0
   -4.4261    5.3595   -1.9137 H   0  0  0  0  0  0  0  0  0  0  0  0
   -2.2016    3.1920    0.5813 H   0  0  0  0  0  0  0  0  0  0  0  0
    5.8393    0.5105    0.6873 H   0  0  0  0  0  0  0  0  0  0  0  0
    0.7212    3.0278    3.2839 H   0  0  0  0  0  0  0  0  0  0  0  0
  1 13  1  0  0  0  0
  1 23  1  0  0  0  0
  2 16  1  0  0  0  0
  2 67  1  0  0  0  0
  3 17  1  0  0  0  0
  3 68  1  0  0  0  0
  4 20  1  0  0  0  0
  4 72  1  0  0  0  0
  5 23  2  0  0  0  0
  6 31  2  0  0  0  0
  7 36  1  0  0  0  0
  7 87  1  0  0  0  0
  8 40  1  0  0  0  0
  8 88  1  0  0  0  0
  9 41  2  0  0  0  0
 10 42  2  0  0  0  0
 11 45  2  0  0  0  0
 12 43  1  0  0  0  0
 12 45  1  0  0  0  0
 12 86  1  0  0  0  0
 13 14  1  0  0  0  0
 13 15  1  0  0  0  0
 13 48  1  0  0  0  0
 14 16  1  0  0  0  0
 14 21  1  0  0  0  0
 14 49  1  0  0  0  0
 15 17  1  0  0  0  0
 15 22  1  0  0  0  0
 15 50  1  0  0  0  0
 16 18  1  0  0  0  0
 16 51  1  0  0  0  0
 17 19  1  0  0  0  0
 17 52  1  0  0  0  0
 18 20  1  0  0  0  0
 18 24  1  0  0  0  0
 18 53  1  0  0  0  0
 19 23  1  0  0  0  0
 19 26  1  0  0  0  0
 19 54  1  0  0  0  0
 20 25  1  0  0  0  0
 20 55  1  0  0  0  0
 21 56  1  0  0  0  0
 21 57  1  0  0  0  0
 21 58  1  0  0  0  0
 22 59  1  0  0  0  0
 22 60  1  0  0  0  0
 22 61  1  0  0  0  0
 24 62  1  0  0  0  0
 24 63  1  0  0  0  0
 24 64  1  0  0  0  0
 25 27  1  0  0  0  0
 25 28  1  0  0  0  0
 25 65  1  0  0  0  0
 26 29  2  0  0  0  0
 26 66  1  0  0  0  0
 27 69  1  0  0  0  0
 27 70  1  0  0  0  0
 27 71  1  0  0  0  0
 28 32  2  0  0  0  0
 28 73  1  0  0  0  0
 29 30  1  0  0  0  0
 29 31  1  0  0  0  0
 30 74  1  0  0  0  0
 30 75  1  0  0  0  0
 30 76  1  0  0  0  0
 31 33  1  0  0  0  0
 32 34  1  0  0  0  0
 32 77  1  0  0  0  0
 33 35  2  0  0  0  0
 33 36  1  0  0  0  0
 34 39  2  0  0  0  0
 34 78  1  0  0  0  0
 35 37  1  0  0  0  0
 35 41  1  0  0  0  0
 36 38  2  0  0  0  0
 37 40  2  0  0  0  0
 37 42  1  0  0  0  0
 38 40  1  0  0  0  0
 38 46  1  0  0  0  0
 39 45  1  0  0  0  0
 39 47  1  0  0  0  0
 41 44  1  0  0  0  0
 42 43  1  0  0  0  0
 43 44  2  0  0  0  0
 44 79  1  0  0  0  0
 46 80  1  0  0  0  0
 46 81  1  0  0  0  0
 46 82  1  0  0  0  0
 47 83  1  0  0  0  0
 47 84  1  0  0  0  0
 47 85  1  0  0  0  0
M  END
> <PUBCHEM_COMPOUND_CID>
46173803

> <PUBCHEM_CONFORMER_RMSD>
0.8

> <PUBCHEM_CONFORMER_DIVERSEORDER>
1
3
2

> <PUBCHEM_MMFF94_PARTIAL_CHARGES>
51
1 -0.43
10 -0.57
11 -0.57
12 -0.54
13 0.28
16 0.28
17 0.28
19 0.2
2 -0.68
20 0.28
23 0.66
25 0.14
26 -0.29
28 -0.29
29 -0.12
3 -0.68
30 0.14
31 0.47
32 -0.15
33 0.09
34 -0.15
35 0.09
36 0.08
37 0.09
38 -0.14
39 -0.12
4 -0.68
40 0.08
41 0.47
42 0.47
43 0.12
44 -0.14
45 0.62
46 0.14
47 0.14
5 -0.57
6 -0.57
66 0.15
67 0.4
68 0.4
7 -0.53
72 0.4
73 0.15
77 0.15
78 0.15
79 0.15
8 -0.53
86 0.37
87 0.45
88 0.45
9 -0.57

> <PUBCHEM_EFFECTIVE_ROTOR_COUNT>
1.8

> <PUBCHEM_PHARMACOPHORE_FEATURES>
17
1 10 acceptor
1 11 acceptor
1 12 donor
1 2 acceptor
1 2 donor
1 3 acceptor
1 3 donor
1 4 acceptor
1 4 donor
1 5 acceptor
1 6 acceptor
1 7 donor
1 8 donor
1 9 acceptor
6 1 13 15 17 19 23 rings
6 33 35 36 37 38 40 rings
6 35 37 41 42 43 44 rings

> <PUBCHEM_HEAVY_ATOM_COUNT>
47

> <PUBCHEM_ATOM_DEF_STEREO_COUNT>
9

> <PUBCHEM_ATOM_UDEF_STEREO_COUNT>
0

> <PUBCHEM_BOND_DEF_STEREO_COUNT>
3

> <PUBCHEM_BOND_UDEF_STEREO_COUNT>
0

> <PUBCHEM_ISOTOPIC_ATOM_COUNT>
0

> <PUBCHEM_COMPONENT_COUNT>
1

> <PUBCHEM_CACTVS_TAUTO_COUNT>
1000

> <PUBCHEM_CONFORMER_ID>
02C08E6B00000001

> <PUBCHEM_MMFF94_ENERGY>
153.7174

> <PUBCHEM_FEATURE_SELFOVERLAP>
86.286

> <PUBCHEM_SHAPE_FINGERPRINT>
10794284 68 17695638351415890728
11513181 2 18191895455299761723
11828532 37 17486489292650858203
12156800 1 18059582433225078352
12633046 712 16556516876818958147
14725015 67 18339652126833343803
14932702 115 18123173869265107045
150020 26 17468724452651607690
15781502 589 16899910687987052295
15968369 26 18124338213535408012
16067690 210 17702666536538972777
20764821 26 18054497024838808519
20775438 99 18051719890400548503
22121540 332 18336552633904394228
238918 7 18336279946024238291
3298306 158 18335986380883673603
50150288 127 16810363630004648273
508180 173 17979063117891221291
508706 21 18341043035049602495
5265222 85 18338240358673584980
550186 83 17843689867546763744
56638632 33 17834969941564162673
6376802 137 17104542428998957082
86090 222 18261395486026914427

> <PUBCHEM_SHAPE_MULTIPOLES>
897.69
11.32
7.02
3.22
8.17
2.63
1.54
-1.6
-0.64
3.38
-0.37
-3.06
-0.84
4.67

> <PUBCHEM_SHAPE_SELFOVERLAP>
1916.834

> <PUBCHEM_SHAPE_VOLUME>
493.9

> <PUBCHEM_COORDINATE_TYPE>
2
5
10

$$$$

