10759
  -OEChem-06261204552D

 15 14  0     0  0  0  0  0  0999 V2000
    4.7690    5.1200    0.0000 Na  0  3  0  0  0  0  0  0  0  0  0  0
    4.7690    4.1200    0.0000 O   0  5  0  0  0  0  0  0  0  0  0  0
    3.0369    4.1200    0.0000 O   0  0  0  0  0  0  0  0  0  0  0  0
    3.9030    2.6200    0.0000 C   0  0  0  0  0  0  0  0  0  0  0  0
    4.7690    2.1200    0.0000 C   0  0  0  0  0  0  0  0  0  0  0  0
    3.0369    2.1200    0.0000 C   0  0  0  0  0  0  0  0  0  0  0  0
    4.7690    1.1200    0.0000 C   0  0  0  0  0  0  0  0  0  0  0  0
    3.0369    1.1200    0.0000 C   0  0  0  0  0  0  0  0  0  0  0  0
    3.9030    0.6200    0.0000 C   0  0  0  0  0  0  0  0  0  0  0  0
    3.9030    3.6200    0.0000 C   0  0  0  0  0  0  0  0  0  0  0  0
    5.3059    2.4300    0.0000 H   0  0  0  0  0  0  0  0  0  0  0  0
    2.5000    2.4300    0.0000 H   0  0  0  0  0  0  0  0  0  0  0  0
    5.3059    0.8100    0.0000 H   0  0  0  0  0  0  0  0  0  0  0  0
    2.5000    0.8100    0.0000 H   0  0  0  0  0  0  0  0  0  0  0  0
    3.9030    0.0000    0.0000 H   0  0  0  0  0  0  0  0  0  0  0  0
  2 10  1  0  0  0  0
  3 10  2  0  0  0  0
  4  5  2  0  0  0  0
  4  6  1  0  0  0  0
  4 10  1  0  0  0  0
  5  7  1  0  0  0  0
  5 11  1  0  0  0  0
  6  8  2  0  0  0  0
  6 12  1  0  0  0  0
  7  9  2  0  0  0  0
  7 13  1  0  0  0  0
  8  9  1  0  0  0  0
  8 14  1  0  0  0  0
  9 15  1  0  0  0  0
M  CHG  2   1   1   2  -1
M  END
> <PUBCHEM_COMPOUND_CID>
10759

> <PUBCHEM_COMPOUND_CANONICALIZED>
1

> <PUBCHEM_CACTVS_COMPLEXITY>
98

> <PUBCHEM_CACTVS_HBOND_ACCEPTOR>
2

> <PUBCHEM_CACTVS_HBOND_DONOR>
0

> <PUBCHEM_CACTVS_ROTATABLE_BOND>
0

> <PUBCHEM_CACTVS_SUBSKEYS>
AAADcYBgMCAAAAAAAAAAAAAAAAAAAAAAAAAwAAAAAAAAAAABAAAAGgAAAAAADACAmAAwCIAAAACIAiDSCAACAAAkAAAIiAEACMgIJjKAFRCAMQAkwAEIiYeIyCCOAAAAAAAAAAAAAAAAAAAAAAAAAAAAAA==

> <PUBCHEM_IUPAC_OPENEYE_NAME>
sodium benzoate

> <PUBCHEM_IUPAC_CAS_NAME>
sodium benzoate

> <PUBCHEM_IUPAC_NAME>
sodium benzoate

> <PUBCHEM_IUPAC_SYSTEMATIC_NAME>
sodium benzoate

> <PUBCHEM_IUPAC_TRADITIONAL_NAME>
sodium benzoate

> <PUBCHEM_IUPAC_INCHI>
InChI=1S/C7H6O2.Na/c8-7(9)6-4-2-1-3-5-6;/h1-5H,(H,8,9);/q;+1/p-1

> <PUBCHEM_IUPAC_INCHIKEY>
WXMKPNITSTVMEF-UHFFFAOYSA-M

> <PUBCHEM_EXACT_MASS>
144.018724

> <PUBCHEM_MOLECULAR_FORMULA>
C7H5NaO2

> <PUBCHEM_MOLECULAR_WEIGHT>
144.103169

> <PUBCHEM_OPENEYE_CAN_SMILES>
C1=CC=C(C=C1)C(=O)[O-].[Na+]

> <PUBCHEM_OPENEYE_ISO_SMILES>
C1=CC=C(C=C1)C(=O)[O-].[Na+]

> <PUBCHEM_CACTVS_TPSA>
40.1

> <PUBCHEM_MONOISOTOPIC_WEIGHT>
144.018724

> <PUBCHEM_TOTAL_CHARGE>
0

> <PUBCHEM_HEAVY_ATOM_COUNT>
10

> <PUBCHEM_ATOM_DEF_STEREO_COUNT>
0

> <PUBCHEM_ATOM_UDEF_STEREO_COUNT>
0

> <PUBCHEM_BOND_DEF_STEREO_COUNT>
0

> <PUBCHEM_BOND_UDEF_STEREO_COUNT>
0

> <PUBCHEM_ISOTOPIC_ATOM_COUNT>
0

> <PUBCHEM_COMPONENT_COUNT>
2

> <PUBCHEM_CACTVS_TAUTO_COUNT>
1

> <PUBCHEM_COORDINATE_TYPE>
1
5
255

> <PUBCHEM_BONDANNOTATIONS>
4  5  8
4  6  8
5  7  8
6  8  8
7  9  8
8  9  8

$$$$

