443370
  -OEChem-07051213023D

 41 44  0     0  0  0  0  0  0999 V2000
   -0.3368   -5.8917    0.0261 F   0  0  0  0  0  0  0  0  0  0  0  0
   -2.5008    3.5145    0.2298 O   0  0  0  0  0  0  0  0  0  0  0  0
   -5.3893    0.5615   -0.2347 O   0  0  0  0  0  0  0  0  0  0  0  0
   -1.3720   -0.4193   -0.0624 N   0  0  0  0  0  0  0  0  0  0  0  0
   -4.9392    2.8172   -0.0316 N   0  0  0  0  0  0  0  0  0  0  0  0
    6.1012    0.3007   -0.0784 N   0  0  0  0  0  0  0  0  0  0  0  0
   -0.3576    0.5955    0.0229 C   0  0  0  0  0  0  0  0  0  0  0  0
   -0.7225    1.9561    0.1237 C   0  0  0  0  0  0  0  0  0  0  0  0
    1.0167    0.2971   -0.0314 C   0  0  0  0  0  0  0  0  0  0  0  0
    1.9823    1.3046    0.0537 C   0  0  0  0  0  0  0  0  0  0  0  0
   -2.6992    0.0003   -0.1239 C   0  0  0  0  0  0  0  0  0  0  0  0
   -2.1541    2.3457    0.1140 C   0  0  0  0  0  0  0  0  0  0  0  0
   -1.1060   -1.8276   -0.0395 C   0  0  0  0  0  0  0  0  0  0  0  0
   -3.1463    1.2593   -0.0509 C   0  0  0  0  0  0  0  0  0  0  0  0
    0.2465    2.9652    0.2111 C   0  0  0  0  0  0  0  0  0  0  0  0
    1.5980    2.6348    0.1814 C   0  0  0  0  0  0  0  0  0  0  0  0
    3.3878    0.9619    0.0085 C   0  0  0  0  0  0  0  0  0  0  0  0
   -1.0768   -2.5201    1.1754 C   0  0  0  0  0  0  0  0  0  0  0  0
   -0.8729   -2.5205   -1.2320 C   0  0  0  0  0  0  0  0  0  0  0  0
   -4.5907    1.4891   -0.1157 C   0  0  0  0  0  0  0  0  0  0  0  0
    4.3076    1.8600   -0.5203 C   0  0  0  0  0  0  0  0  0  0  0  0
    3.8219   -0.2661    0.4940 C   0  0  0  0  0  0  0  0  0  0  0  0
   -0.8173   -3.8905    1.1975 C   0  0  0  0  0  0  0  0  0  0  0  0
   -0.6134   -3.8908   -1.2098 C   0  0  0  0  0  0  0  0  0  0  0  0
   -0.5856   -4.5758    0.0049 C   0  0  0  0  0  0  0  0  0  0  0  0
    5.6412    1.4849   -0.5406 C   0  0  0  0  0  0  0  0  0  0  0  0
    5.1772   -0.5461    0.4281 C   0  0  0  0  0  0  0  0  0  0  0  0
    1.3151   -0.7394   -0.1658 H   0  0  0  0  0  0  0  0  0  0  0  0
   -3.3863   -0.8354   -0.2285 H   0  0  0  0  0  0  0  0  0  0  0  0
   -0.0342    4.0112    0.3010 H   0  0  0  0  0  0  0  0  0  0  0  0
    2.3140    3.4458    0.2810 H   0  0  0  0  0  0  0  0  0  0  0  0
   -1.2548   -1.9973    2.1119 H   0  0  0  0  0  0  0  0  0  0  0  0
   -0.8913   -1.9979   -2.1851 H   0  0  0  0  0  0  0  0  0  0  0  0
    4.0336    2.8210   -0.9416 H   0  0  0  0  0  0  0  0  0  0  0  0
    3.1642   -0.9995    0.9474 H   0  0  0  0  0  0  0  0  0  0  0  0
   -0.7952   -4.4240    2.1431 H   0  0  0  0  0  0  0  0  0  0  0  0
   -0.4328   -4.4247   -2.1381 H   0  0  0  0  0  0  0  0  0  0  0  0
    6.3984    2.1461   -0.9491 H   0  0  0  0  0  0  0  0  0  0  0  0
    5.5690   -1.4871    0.8003 H   0  0  0  0  0  0  0  0  0  0  0  0
   -5.9174    3.0863   -0.0659 H   0  0  0  0  0  0  0  0  0  0  0  0
   -4.2832    3.5834    0.0615 H   0  0  0  0  0  0  0  0  0  0  0  0
  1 25  1  0  0  0  0
  2 12  2  0  0  0  0
  3 20  2  0  0  0  0
  4  7  1  0  0  0  0
  4 11  1  0  0  0  0
  4 13  1  0  0  0  0
  5 20  1  0  0  0  0
  5 40  1  0  0  0  0
  5 41  1  0  0  0  0
  6 26  2  0  0  0  0
  6 27  1  0  0  0  0
  7  8  2  0  0  0  0
  7  9  1  0  0  0  0
  8 12  1  0  0  0  0
  8 15  1  0  0  0  0
  9 10  2  0  0  0  0
  9 28  1  0  0  0  0
 10 16  1  0  0  0  0
 10 17  1  0  0  0  0
 11 14  2  0  0  0  0
 11 29  1  0  0  0  0
 12 14  1  0  0  0  0
 13 18  2  0  0  0  0
 13 19  1  0  0  0  0
 14 20  1  0  0  0  0
 15 16  2  0  0  0  0
 15 30  1  0  0  0  0
 16 31  1  0  0  0  0
 17 21  2  0  0  0  0
 17 22  1  0  0  0  0
 18 23  1  0  0  0  0
 18 32  1  0  0  0  0
 19 24  2  0  0  0  0
 19 33  1  0  0  0  0
 21 26  1  0  0  0  0
 21 34  1  0  0  0  0
 22 27  2  0  0  0  0
 22 35  1  0  0  0  0
 23 25  2  0  0  0  0
 23 36  1  0  0  0  0
 24 25  1  0  0  0  0
 24 37  1  0  0  0  0
 26 38  1  0  0  0  0
 27 39  1  0  0  0  0
M  END
> <PUBCHEM_COMPOUND_CID>
443370

> <PUBCHEM_CONFORMER_RMSD>
0.6

> <PUBCHEM_CONFORMER_DIVERSEORDER>
1
8
2
6
5
3
7
4

> <PUBCHEM_MMFF94_PARTIAL_CHARGES>
39
1 -0.19
11 -0.05
12 0.47
13 0.1
14 0.03
15 -0.15
16 -0.15
18 -0.15
19 -0.15
2 -0.57
20 0.62
21 -0.15
22 -0.15
23 -0.15
24 -0.15
25 0.19
26 0.16
27 0.16
28 0.15
29 0.15
3 -0.57
30 0.15
31 0.15
32 0.15
33 0.15
34 0.15
35 0.15
36 0.15
37 0.15
38 0.15
39 0.15
4 -0.3
40 0.37
41 0.37
5 -0.8
6 -0.62
7 0.1
8 0.09
9 -0.15

> <PUBCHEM_EFFECTIVE_ROTOR_COUNT>
3

> <PUBCHEM_PHARMACOPHORE_FEATURES>
10
1 14 anion
1 2 acceptor
1 3 acceptor
1 4 cation
1 5 donor
1 6 acceptor
6 13 18 19 23 24 25 rings
6 4 7 8 11 12 14 rings
6 6 17 21 22 26 27 rings
6 7 8 9 10 15 16 rings

> <PUBCHEM_HEAVY_ATOM_COUNT>
27

> <PUBCHEM_ATOM_DEF_STEREO_COUNT>
0

> <PUBCHEM_ATOM_UDEF_STEREO_COUNT>
0

> <PUBCHEM_BOND_DEF_STEREO_COUNT>
0

> <PUBCHEM_BOND_UDEF_STEREO_COUNT>
0

> <PUBCHEM_ISOTOPIC_ATOM_COUNT>
0

> <PUBCHEM_COMPONENT_COUNT>
1

> <PUBCHEM_CACTVS_TAUTO_COUNT>
2

> <PUBCHEM_CONFORMER_ID>
0006C3EA00000001

> <PUBCHEM_MMFF94_ENERGY>
102.791

> <PUBCHEM_FEATURE_SELFOVERLAP>
50.766

> <PUBCHEM_SHAPE_FINGERPRINT>
10050765 1 17762337321017268969
10411042 1 17545881529942487190
10616163 171 18338231553995240350
107951 10 17775563156590509355
10906281 52 18115289138428717124
10940486 97 18199462174126524460
1100329 8 18338518534318554497
11014199 57 17763181345907858538
11135926 11 18338807835764915405
11445158 3 17845921945530360349
12236239 1 18060136570133156392
12553582 1 17762899866747229898
12788726 201 18126012567701778106
13140716 1 18047744897767102008
13540713 4 17625531669057535749
13540713 5 17610349612469556281
13690498 29 17906431257240315382
13726171 33 17759202286458205788
138480 1 17402049397253832018
14028597 1 17677602233055690385
14251757 5 18338793408373226992
14790565 3 18338795718670707984
14844126 61 18340492149738573994
14866123 147 18337956684109077355
15042514 8 18267299833582635283
15927050 60 18409448106899735231
15961568 22 17258223398138263290
16719943 64 18410576205992584034
17859628 97 18339928215646576778
19427546 20 18125149443211948644
19591789 44 18338237183895382121
19930381 70 17907016532101840490
20028762 73 18260834765852746239
20101258 96 17907005180476604698
20775438 99 16890650669772067255
21033650 10 17460285932916223672
21133410 171 17184247844058696922
21133410 230 17766794564265905955
21133665 82 18263076777699708150
21478907 32 17905891370945339863
21703447 108 17612887989068397384
21796203 349 16316074995462365993
22849339 104 18265873810209539862
23366157 5 17765425835607974293
23558518 356 17840590297382268504
23559900 14 17760656166930446492
23598288 3 18056181480451493478
23728640 28 18410856525454501586
283562 15 18261953063235536393
3084891 72 18408604794191494353
3178227 256 18339067234483052721
3383291 50 18410016507092555474
3411729 13 18120934173297229833
38695281 34 18337676424818490935
4073 2 18339081476932086152
4616759 239 18041288656590717264
5265222 85 18411691110915661132
5309563 4 17329707618436914414
532947 4 18263638644277054095
5385378 56 18120366816607350753
6138700 20 18193274320016265998
6669772 16 18335699506953990622
9981440 41 18340762745399327089

> <PUBCHEM_SHAPE_MULTIPOLES>
521.69
9.77
6.22
0.87
10.71
9.26
0.02
-7.21
0.69
-5.65
-0.14
-0.06
0.68
-0.28

> <PUBCHEM_SHAPE_SELFOVERLAP>
1170.511

> <PUBCHEM_SHAPE_VOLUME>
274.7

> <PUBCHEM_COORDINATE_TYPE>
2
5
10

$$$$

