91731
  -OEChem-07051213123D

 33 34  0     0  0  0  0  0  0999 V2000
   -3.7957    2.5248   -0.3591 Cl  0  0  0  0  0  0  0  0  0  0  0  0
    2.6500   -0.1157    3.1710 Cl  0  0  0  0  0  0  0  0  0  0  0  0
   -5.3454   -1.5207   -1.1780 F   0  0  0  0  0  0  0  0  0  0  0  0
   -5.8729    0.3107   -0.1427 F   0  0  0  0  0  0  0  0  0  0  0  0
   -5.0234    0.4016   -2.1423 F   0  0  0  0  0  0  0  0  0  0  0  0
    6.4727    0.1081   -0.3605 F   0  0  0  0  0  0  0  0  0  0  0  0
    5.6411   -0.9409   -2.0669 F   0  0  0  0  0  0  0  0  0  0  0  0
    5.5623    1.2308   -1.9852 F   0  0  0  0  0  0  0  0  0  0  0  0
    0.1460    2.2865    1.2578 O   0  5  0  0  0  0  0  0  0  0  0  0
   -1.6340    3.3721    0.5702 O   0  0  0  0  0  0  0  0  0  0  0  0
   -1.4921   -3.6488    0.3187 O   0  5  0  0  0  0  0  0  0  0  0  0
    0.2550   -2.5652    1.0884 O   0  0  0  0  0  0  0  0  0  0  0  0
    0.3455   -0.1100    1.2349 N   0  0  0  0  0  0  0  0  0  0  0  0
   -1.0106    2.3081    0.7812 N   0  3  0  0  0  0  0  0  0  0  0  0
   -0.9029   -2.5819    0.6097 N   0  3  0  0  0  0  0  0  0  0  0  0
    1.6773   -0.0095   -0.7161 N   0  0  0  0  0  0  0  0  0  0  0  0
   -0.9641   -0.1276    0.6935 C   0  0  0  0  0  0  0  0  0  0  0  0
   -1.6445    1.0685    0.4651 C   0  0  0  0  0  0  0  0  0  0  0  0
   -1.5725   -1.3453    0.3885 C   0  0  0  0  0  0  0  0  0  0  0  0
   -3.5414   -0.1709   -0.3732 C   0  0  0  0  0  0  0  0  0  0  0  0
   -2.9333    1.0469   -0.0683 C   0  0  0  0  0  0  0  0  0  0  0  0
   -2.8611   -1.3670   -0.1448 C   0  0  0  0  0  0  0  0  0  0  0  0
    1.6157   -0.0567    0.6396 C   0  0  0  0  0  0  0  0  0  0  0  0
   -4.9206   -0.2449   -0.9463 C   0  0  0  0  0  0  0  0  0  0  0  0
    2.7459   -0.0537    1.4520 C   0  0  0  0  0  0  0  0  0  0  0  0
    4.0879    0.0496   -0.5414 C   0  0  0  0  0  0  0  0  0  0  0  0
    3.9959    0.0005    0.8452 C   0  0  0  0  0  0  0  0  0  0  0  0
    2.9095    0.0424   -1.2702 C   0  0  0  0  0  0  0  0  0  0  0  0
    5.4096    0.1083   -1.2209 C   0  0  0  0  0  0  0  0  0  0  0  0
   -3.3486   -2.3077   -0.3877 H   0  0  0  0  0  0  0  0  0  0  0  0
    0.3691   -0.5440    2.1556 H   0  0  0  0  0  0  0  0  0  0  0  0
    4.8969    0.0041    1.4537 H   0  0  0  0  0  0  0  0  0  0  0  0
    2.9182    0.0791   -2.3551 H   0  0  0  0  0  0  0  0  0  0  0  0
  1 21  1  0  0  0  0
  2 25  1  0  0  0  0
  3 24  1  0  0  0  0
  4 24  1  0  0  0  0
  5 24  1  0  0  0  0
  6 29  1  0  0  0  0
  7 29  1  0  0  0  0
  8 29  1  0  0  0  0
  9 14  1  0  0  0  0
 10 14  2  0  0  0  0
 11 15  1  0  0  0  0
 12 15  2  0  0  0  0
 13 17  1  0  0  0  0
 13 23  1  0  0  0  0
 13 31  1  0  0  0  0
 14 18  1  0  0  0  0
 15 19  1  0  0  0  0
 16 23  1  0  0  0  0
 16 28  2  0  0  0  0
 17 18  1  0  0  0  0
 17 19  2  0  0  0  0
 18 21  2  0  0  0  0
 19 22  1  0  0  0  0
 20 21  1  0  0  0  0
 20 22  2  0  0  0  0
 20 24  1  0  0  0  0
 22 30  1  0  0  0  0
 23 25  2  0  0  0  0
 25 27  1  0  0  0  0
 26 27  2  0  0  0  0
 26 28  1  0  0  0  0
 26 29  1  0  0  0  0
 27 32  1  0  0  0  0
 28 33  1  0  0  0  0
M  CHG  4   9  -1  11  -1  14   1  15   1
M  END
> <PUBCHEM_COMPOUND_CID>
91731

> <PUBCHEM_CONFORMER_RMSD>
0.8

> <PUBCHEM_CONFORMER_DIVERSEORDER>
2
3
4
1

> <PUBCHEM_MMFF94_PARTIAL_CHARGES>
33
1 -0.18
10 -0.52
11 -0.52
12 -0.52
13 -0.6
14 0.91
15 0.91
16 -0.62
17 0.1
18 0.13
19 0.13
2 -0.18
20 -0.14
21 0.18
22 -0.15
23 0.41
24 1.16
25 0.18
26 -0.14
27 -0.15
28 0.16
29 1.16
3 -0.34
30 0.15
31 0.4
32 0.15
33 0.15
4 -0.34
5 -0.34
6 -0.34
7 -0.34
8 -0.34
9 -0.52

> <PUBCHEM_EFFECTIVE_ROTOR_COUNT>
6

> <PUBCHEM_PHARMACOPHORE_FEATURES>
11
1 10 acceptor
1 11 acceptor
1 11 anion
1 12 acceptor
1 13 cation
1 13 donor
1 16 acceptor
1 9 acceptor
1 9 anion
6 16 23 25 26 27 28 rings
6 17 18 19 20 21 22 rings

> <PUBCHEM_HEAVY_ATOM_COUNT>
29

> <PUBCHEM_ATOM_DEF_STEREO_COUNT>
0

> <PUBCHEM_ATOM_UDEF_STEREO_COUNT>
0

> <PUBCHEM_BOND_DEF_STEREO_COUNT>
0

> <PUBCHEM_BOND_UDEF_STEREO_COUNT>
0

> <PUBCHEM_ISOTOPIC_ATOM_COUNT>
0

> <PUBCHEM_COMPONENT_COUNT>
1

> <PUBCHEM_CACTVS_TAUTO_COUNT>
2

> <PUBCHEM_CONFORMER_ID>
0001665300000002

> <PUBCHEM_MMFF94_ENERGY>
114.2346

> <PUBCHEM_FEATURE_SELFOVERLAP>
55.981

> <PUBCHEM_SHAPE_FINGERPRINT>
10366900 7 17894907430282942038
10670039 82 18341332292222262484
10759866 29 17775012309607274538
11089746 13 17846498132657110508
11640471 11 17632569449058305946
12236239 1 17704079503111054418
12553582 1 18409177610444196729
12788726 201 18409731797931189241
13140716 1 18194981647411029899
13149001 5 18194130624909951553
13540713 5 18050298256457362483
13782708 43 17240205438904792062
13911987 19 18272094898697281239
13947920 75 18342738520750253424
14251757 5 18269832030067656266
14294032 229 18196372744432977933
14341114 176 9367348111842319430
14790565 3 18410291424387629513
15183329 4 18201995573745128726
15324884 4 17752491949681787186
15328829 1 17703243888007958898
15475509 8 18040992960512974009
15575132 122 17846499283233735517
16752209 62 18411989086792024681
17492 54 17988931071910258493
19958102 18 18342173414517969966
200 152 14995998861131965602
20511986 3 17703524203106342716
20600515 1 18192455011643516017
20642791 239 18059571330677277889
20775438 99 17609806113536204783
20871999 31 18407757049320149313
21637258 2 15140969465001280455
22122407 14 15769765883854499061
22224240 67 11384117449513352949
23366157 5 17697326466372133811
23402539 116 18335699468146017932
23557571 272 18114754758634406280
23559900 14 18262803960749240432
2838139 119 16486979500480209293
4058900 60 17845376716579937395
46194498 28 17676771994429039760
474 4 16486968480158473408
484989 97 17984979302941000635
56616090 284 18187362129602017654

> <PUBCHEM_SHAPE_MULTIPOLES>
513.5
12.42
2.63
1.9
6.07
0.33
-0.5
-1.13
8.29
-2.93
-0.6
2.49
-0.06
-0.54

> <PUBCHEM_SHAPE_SELFOVERLAP>
1107.042

> <PUBCHEM_SHAPE_VOLUME>
286.9

> <PUBCHEM_COORDINATE_TYPE>
2
5
10

$$$$

