10982109
  -OEChem-07051212582D

 54 57  0     1  0  0  0  0  0999 V2000
    6.1362   -2.1735    0.0000 O   0  0  0  0  0  0  0  0  0  0  0  0
    5.9623    0.5815    0.0000 O   0  0  0  0  0  0  0  0  0  0  0  0
    9.5774   -0.6421    0.0000 O   0  0  0  0  0  0  0  0  0  0  0  0
    9.1725   -2.3654    0.0000 O   0  0  0  0  0  0  0  0  0  0  0  0
    7.7545   -3.3486    0.0000 O   0  0  0  0  0  0  0  0  0  0  0  0
    9.9218    1.0943    0.0000 O   0  0  0  0  0  0  0  0  0  0  0  0
    4.5610   -0.4365    0.0000 O   0  0  0  0  0  0  0  0  0  0  0  0
    2.6166    3.7131    0.0000 O   0  0  0  0  0  0  0  0  0  0  0  0
    7.0500   -1.7663    0.0000 C   0  0  1  0  0  0  0  0  0  0  0  0
    6.2410   -1.1786    0.0000 C   0  0  2  0  0  0  0  0  0  0  0  0
    7.8591   -1.1786    0.0000 C   0  0  2  0  0  0  0  0  0  0  0  0
    7.5500   -0.2275    0.0000 C   0  0  2  0  0  0  0  0  0  0  0  0
    6.5500   -0.2275    0.0000 C   0  0  2  0  0  0  0  0  0  0  0  0
    8.8745   -1.4108    0.0000 C   0  0  2  0  0  0  0  0  0  0  0  0
    8.2350    0.5572    0.0000 C   0  0  0  0  0  0  0  0  0  0  0  0
    7.8591   -2.3541    0.0000 C   0  0  0  0  0  0  0  0  0  0  0  0
    9.2555    0.3485    0.0000 C   0  0  2  0  0  0  0  0  0  0  0  0
    4.9677    0.4770    0.0000 C   0  0  0  0  0  0  0  0  0  0  0  0
   10.1482   -2.5846    0.0000 C   0  0  0  0  0  0  0  0  0  0  0  0
   10.9007    0.8901    0.0000 C   0  0  0  0  0  0  0  0  0  0  0  0
    4.3800    1.2860    0.0000 C   0  0  0  0  0  0  0  0  0  0  0  0
   10.4462   -3.5391    0.0000 C   0  0  0  0  0  0  0  0  0  0  0  0
   11.5670    1.6358    0.0000 C   0  0  0  0  0  0  0  0  0  0  0  0
    4.7867    2.1996    0.0000 C   0  0  0  0  0  0  0  0  0  0  0  0
    3.3854    1.1815    0.0000 C   0  0  0  0  0  0  0  0  0  0  0  0
    4.1989    3.0086    0.0000 C   0  0  0  0  0  0  0  0  0  0  0  0
    2.7976    1.9905    0.0000 C   0  0  0  0  0  0  0  0  0  0  0  0
    3.2044    2.9040    0.0000 C   0  0  0  0  0  0  0  0  0  0  0  0
    5.4096   -1.0017    0.0000 H   0  0  0  0  0  0  0  0  0  0  0  0
    8.0294   -2.0113    0.0000 H   0  0  0  0  0  0  0  0  0  0  0  0
    7.1984    0.5463    0.0000 H   0  0  0  0  0  0  0  0  0  0  0  0
    6.8315    0.3249    0.0000 H   0  0  0  0  0  0  0  0  0  0  0  0
    8.4534   -1.8659    0.0000 H   0  0  0  0  0  0  0  0  0  0  0  0
    8.4614    1.1345    0.0000 H   0  0  0  0  0  0  0  0  0  0  0  0
    7.7050    0.8790    0.0000 H   0  0  0  0  0  0  0  0  0  0  0  0
    8.4550   -2.5250    0.0000 H   0  0  0  0  0  0  0  0  0  0  0  0
    8.1309   -1.7969    0.0000 H   0  0  0  0  0  0  0  0  0  0  0  0
    9.0605    0.9371    0.0000 H   0  0  0  0  0  0  0  0  0  0  0  0
    8.2561   -3.7131    0.0000 H   0  0  0  0  0  0  0  0  0  0  0  0
   10.7631   -2.5054    0.0000 H   0  0  0  0  0  0  0  0  0  0  0  0
   10.1770   -1.9652    0.0000 H   0  0  0  0  0  0  0  0  0  0  0  0
   10.6707    0.3144    0.0000 H   0  0  0  0  0  0  0  0  0  0  0  0
   11.4278    0.5636    0.0000 H   0  0  0  0  0  0  0  0  0  0  0  0
    9.8543   -3.7239    0.0000 H   0  0  0  0  0  0  0  0  0  0  0  0
   10.6309   -4.1310    0.0000 H   0  0  0  0  0  0  0  0  0  0  0  0
   11.0380   -3.3544    0.0000 H   0  0  0  0  0  0  0  0  0  0  0  0
   12.0293    1.2228    0.0000 H   0  0  0  0  0  0  0  0  0  0  0  0
   11.9801    2.0982    0.0000 H   0  0  0  0  0  0  0  0  0  0  0  0
   11.1046    2.0489    0.0000 H   0  0  0  0  0  0  0  0  0  0  0  0
    5.4033    2.2644    0.0000 H   0  0  0  0  0  0  0  0  0  0  0  0
    3.1333    0.6151    0.0000 H   0  0  0  0  0  0  0  0  0  0  0  0
    4.4511    3.5750    0.0000 H   0  0  0  0  0  0  0  0  0  0  0  0
    2.1810    1.9257    0.0000 H   0  0  0  0  0  0  0  0  0  0  0  0
    2.0000    3.6483    0.0000 H   0  0  0  0  0  0  0  0  0  0  0  0
  1  9  1  0  0  0  0
  1 10  1  0  0  0  0
 13  2  1  1  0  0  0
  2 18  1  0  0  0  0
  3 14  1  0  0  0  0
  3 17  1  0  0  0  0
 14  4  1  6  0  0  0
  4 19  1  0  0  0  0
  5 16  1  0  0  0  0
  5 39  1  0  0  0  0
 17  6  1  1  0  0  0
  6 20  1  0  0  0  0
  7 18  2  0  0  0  0
  8 28  1  0  0  0  0
  8 54  1  0  0  0  0
  9 10  1  0  0  0  0
  9 11  1  0  0  0  0
  9 16  1  6  0  0  0
 10 13  1  0  0  0  0
 10 29  1  6  0  0  0
 11 12  1  0  0  0  0
 11 14  1  0  0  0  0
 11 30  1  1  0  0  0
 12 13  1  0  0  0  0
 12 15  1  0  0  0  0
 12 31  1  1  0  0  0
 13 32  1  0  0  0  0
 14 33  1  0  0  0  0
 15 17  1  0  0  0  0
 15 34  1  0  0  0  0
 15 35  1  0  0  0  0
 16 36  1  0  0  0  0
 16 37  1  0  0  0  0
 17 38  1  0  0  0  0
 18 21  1  0  0  0  0
 19 22  1  0  0  0  0
 19 40  1  0  0  0  0
 19 41  1  0  0  0  0
 20 23  1  0  0  0  0
 20 42  1  0  0  0  0
 20 43  1  0  0  0  0
 21 24  2  0  0  0  0
 21 25  1  0  0  0  0
 22 44  1  0  0  0  0
 22 45  1  0  0  0  0
 22 46  1  0  0  0  0
 23 47  1  0  0  0  0
 23 48  1  0  0  0  0
 23 49  1  0  0  0  0
 24 26  1  0  0  0  0
 24 50  1  0  0  0  0
 25 27  2  0  0  0  0
 25 51  1  0  0  0  0
 26 28  2  0  0  0  0
 26 52  1  0  0  0  0
 27 28  1  0  0  0  0
 27 53  1  0  0  0  0
M  END
> <PUBCHEM_COMPOUND_CID>
10982109

> <PUBCHEM_COMPOUND_CANONICALIZED>
1

> <PUBCHEM_CACTVS_COMPLEXITY>
562

> <PUBCHEM_CACTVS_HBOND_ACCEPTOR>
8

> <PUBCHEM_CACTVS_HBOND_DONOR>
2

> <PUBCHEM_CACTVS_ROTATABLE_BOND>
8

> <PUBCHEM_CACTVS_SUBSKEYS>
AAADceB4PAAAAAAAAAAAAAAAEgAAAYAAAAA0SIAAAAAAAEgBAAAAGgAACAAADVSwmAMyDoAABgCIAiDSCAACAAAkIAAIiAEGCMgZNjKCNRqicQAlwBEPuYfI7PzOoAAAAAAAAABAAAAAAAAAAYQADCAAAA==

> <PUBCHEM_IUPAC_OPENEYE_NAME>
[(1aS,1bS,2S,4S,5aR,6S,6aS)-2,4-diethoxy-1a-(hydroxymethyl)-2,4,5,5a,6,6a-hexahydro-1bH-oxireno[5,6]cyclopenta[1,3-d]pyran-6-yl] 4-hydroxybenzoate

> <PUBCHEM_IUPAC_CAS_NAME>
4-hydroxybenzoic acid [(1aS,1bS,2S,4S,5aR,6S,6aS)-2,4-diethoxy-1a-(hydroxymethyl)-2,4,5,5a,6,6a-hexahydro-1bH-oxireno[5,6]cyclopenta[1,3-d]pyran-6-yl] ester

> <PUBCHEM_IUPAC_NAME>
[(1aS,1bS,2S,4S,5aR,6S,6aS)-2,4-diethoxy-1a-(hydroxymethyl)-2,4,5,5a,6,6a-hexahydro-1bH-oxireno[5,6]cyclopenta[1,3-d]pyran-6-yl] 4-hydroxybenzoate

> <PUBCHEM_IUPAC_SYSTEMATIC_NAME>
[(1aS,1bS,2S,4S,5aR,6S,6aS)-2,4-diethoxy-1a-(hydroxymethyl)-2,4,5,5a,6,6a-hexahydro-1bH-oxireno[5,6]cyclopenta[1,3-d]pyran-6-yl] 4-oxidanylbenzoate

> <PUBCHEM_IUPAC_TRADITIONAL_NAME>
4-hydroxybenzoic acid [(1aS,1bS,2S,4S,5aR,6S,6aS)-2,4-diethoxy-1a-methylol-2,4,5,5a,6,6a-hexahydro-1bH-oxireno[5,6]cyclopenta[1,3-d]pyran-6-yl] ester

> <PUBCHEM_IUPAC_INCHI>
InChI=1S/C20H26O8/c1-3-24-14-9-13-15(19(26-14)25-4-2)20(10-21)17(28-20)16(13)27-18(23)11-5-7-12(22)8-6-11/h5-8,13-17,19,21-22H,3-4,9-10H2,1-2H3/t13-,14+,15-,16+,17+,19+,20-/m1/s1

> <PUBCHEM_IUPAC_INCHIKEY>
MQCIJEYGQHWJFX-VZNPGGIZSA-N

> <PUBCHEM_XLOGP3_AA>
1.4

> <PUBCHEM_EXACT_MASS>
394.162768

> <PUBCHEM_MOLECULAR_FORMULA>
C20H26O8

> <PUBCHEM_MOLECULAR_WEIGHT>
394.41564

> <PUBCHEM_OPENEYE_CAN_SMILES>
CCOC1CC2C(C(O1)OCC)C3(C(C2OC(=O)C4=CC=C(C=C4)O)O3)CO

> <PUBCHEM_OPENEYE_ISO_SMILES>
CCO[C@@H]1C[C@@H]2[C@H]([C@H](O1)OCC)[C@@]3([C@H]([C@H]2OC(=O)C4=CC=C(C=C4)O)O3)CO

> <PUBCHEM_CACTVS_TPSA>
107

> <PUBCHEM_MONOISOTOPIC_WEIGHT>
394.162768

> <PUBCHEM_TOTAL_CHARGE>
0

> <PUBCHEM_HEAVY_ATOM_COUNT>
28

> <PUBCHEM_ATOM_DEF_STEREO_COUNT>
7

> <PUBCHEM_ATOM_UDEF_STEREO_COUNT>
0

> <PUBCHEM_BOND_DEF_STEREO_COUNT>
0

> <PUBCHEM_BOND_UDEF_STEREO_COUNT>
0

> <PUBCHEM_ISOTOPIC_ATOM_COUNT>
0

> <PUBCHEM_COMPONENT_COUNT>
1

> <PUBCHEM_CACTVS_TAUTO_COUNT>
4

> <PUBCHEM_COORDINATE_TYPE>
1
5
255

> <PUBCHEM_BONDANNOTATIONS>
10  29  6
11  30  5
12  31  5
13  2  5
21  24  8
21  25  8
24  26  8
25  27  8
26  28  8
27  28  8
14  4  6
17  6  5
9  16  6

$$$$

