439951
  -OEChem-07051212482D

 22 23  0     1  0  0  0  0  0999 V2000
    4.3211    1.6521    0.0000 O   0  0  0  0  0  0  0  0  0  0  0  0
    6.2781    2.0646    0.0000 O   0  0  0  0  0  0  0  0  0  0  0  0
    4.6783   -1.6521    0.0000 N   0  0  0  0  0  0  0  0  0  0  0  0
    4.6783   -0.0427    0.0000 C   0  0  0  0  0  0  0  0  0  0  0  0
    3.7320   -0.3474    0.0000 C   0  0  0  0  0  0  0  0  0  0  0  0
    3.7320   -1.3474    0.0000 C   0  0  0  0  0  0  0  0  0  0  0  0
    4.9889    0.9078    0.0000 C   0  0  3  0  0  0  0  0  0  0  0  0
    5.2619   -0.8474    0.0000 C   0  0  0  0  0  0  0  0  0  0  0  0
    2.8660    0.1526    0.0000 C   0  0  0  0  0  0  0  0  0  0  0  0
    2.8660   -1.8474    0.0000 C   0  0  0  0  0  0  0  0  0  0  0  0
    2.0000   -0.3474    0.0000 C   0  0  0  0  0  0  0  0  0  0  0  0
    2.0000   -1.3474    0.0000 C   0  0  0  0  0  0  0  0  0  0  0  0
    5.9674    1.1141    0.0000 C   0  0  0  0  0  0  0  0  0  0  0  0
    5.1815    1.4972    0.0000 H   0  0  0  0  0  0  0  0  0  0  0  0
    5.8819   -0.8474    0.0000 H   0  0  0  0  0  0  0  0  0  0  0  0
    4.8709   -2.2415    0.0000 H   0  0  0  0  0  0  0  0  0  0  0  0
    2.8660    0.7726    0.0000 H   0  0  0  0  0  0  0  0  0  0  0  0
    2.8660   -2.4674    0.0000 H   0  0  0  0  0  0  0  0  0  0  0  0
    1.4631   -0.0374    0.0000 H   0  0  0  0  0  0  0  0  0  0  0  0
    1.4631   -1.6574    0.0000 H   0  0  0  0  0  0  0  0  0  0  0  0
    6.3815    0.6526    0.0000 H   0  0  0  0  0  0  0  0  0  0  0  0
    4.5137    2.2415    0.0000 H   0  0  0  0  0  0  0  0  0  0  0  0
  1  7  1  0  0  0  0
  1 22  1  0  0  0  0
  2 13  2  0  0  0  0
  3  6  1  0  0  0  0
  3  8  1  0  0  0  0
  3 16  1  0  0  0  0
  4  5  1  0  0  0  0
  4  7  1  0  0  0  0
  4  8  2  0  0  0  0
  5  6  1  0  0  0  0
  5  9  2  0  0  0  0
  6 10  2  0  0  0  0
  7 13  1  0  0  0  0
  7 14  1  0  0  0  0
  8 15  1  0  0  0  0
  9 11  1  0  0  0  0
  9 17  1  0  0  0  0
 10 12  1  0  0  0  0
 10 18  1  0  0  0  0
 11 12  2  0  0  0  0
 11 19  1  0  0  0  0
 12 20  1  0  0  0  0
 13 21  1  0  0  0  0
M  END
> <PUBCHEM_COMPOUND_CID>
439951

> <PUBCHEM_COMPOUND_CANONICALIZED>
1

> <PUBCHEM_CACTVS_COMPLEXITY>
195

> <PUBCHEM_CACTVS_HBOND_ACCEPTOR>
2

> <PUBCHEM_CACTVS_HBOND_DONOR>
2

> <PUBCHEM_CACTVS_ROTATABLE_BOND>
2

> <PUBCHEM_CACTVS_SUBSKEYS>
AAADccByMAAAAAAAAAAAAAAAAAAAAWAAAAAwAAAAAAAAAFgB8AAAHgAQCAAADBzhngY8wPLJkgCoAzx3xAKCgCAxAiAI2aF4bJgINvLAlZGEcAhm0AHI2Ae8yeCegAAAAAACAAAAAAAAAAQAAAAAAAAAAA==

> <PUBCHEM_IUPAC_OPENEYE_NAME>
2-hydroxy-2-(1H-indol-3-yl)acetaldehyde

> <PUBCHEM_IUPAC_CAS_NAME>
2-hydroxy-2-(1H-indol-3-yl)acetaldehyde

> <PUBCHEM_IUPAC_NAME>
2-hydroxy-2-(1H-indol-3-yl)acetaldehyde

> <PUBCHEM_IUPAC_SYSTEMATIC_NAME>
2-(1H-indol-3-yl)-2-oxidanyl-ethanal

> <PUBCHEM_IUPAC_TRADITIONAL_NAME>
2-hydroxy-2-(1H-indol-3-yl)acetaldehyde

> <PUBCHEM_IUPAC_INCHI>
InChI=1S/C10H9NO2/c12-6-10(13)8-5-11-9-4-2-1-3-7(8)9/h1-6,10-11,13H

> <PUBCHEM_IUPAC_INCHIKEY>
XKZDNWMDLGQXML-UHFFFAOYSA-N

> <PUBCHEM_XLOGP3>
1.1

> <PUBCHEM_EXACT_MASS>
175.063329

> <PUBCHEM_MOLECULAR_FORMULA>
C10H9NO2

> <PUBCHEM_MOLECULAR_WEIGHT>
175.18396

> <PUBCHEM_OPENEYE_CAN_SMILES>
C1=CC=C2C(=C1)C(=CN2)C(C=O)O

> <PUBCHEM_OPENEYE_ISO_SMILES>
C1=CC=C2C(=C1)C(=CN2)C(C=O)O

> <PUBCHEM_CACTVS_TPSA>
53.1

> <PUBCHEM_MONOISOTOPIC_WEIGHT>
175.063329

> <PUBCHEM_TOTAL_CHARGE>
0

> <PUBCHEM_HEAVY_ATOM_COUNT>
13

> <PUBCHEM_ATOM_DEF_STEREO_COUNT>
0

> <PUBCHEM_ATOM_UDEF_STEREO_COUNT>
1

> <PUBCHEM_BOND_DEF_STEREO_COUNT>
0

> <PUBCHEM_BOND_UDEF_STEREO_COUNT>
0

> <PUBCHEM_ISOTOPIC_ATOM_COUNT>
0

> <PUBCHEM_COMPONENT_COUNT>
1

> <PUBCHEM_CACTVS_TAUTO_COUNT>
7

> <PUBCHEM_COORDINATE_TYPE>
1
5
255

> <PUBCHEM_BONDANNOTATIONS>
7  1  3
10  12  8
11  12  8
3  6  8
3  8  8
4  5  8
4  8  8
5  6  8
5  9  8
6  10  8
9  11  8

$$$$

