162412
  -OEChem-07051212593D

 44 47  0     1  0  0  0  0  0999 V2000
   -3.0853    1.5306   -0.9920 O   0  0  0  0  0  0  0  0  0  0  0  0
    4.4932    0.8208    0.6896 O   0  0  0  0  0  0  0  0  0  0  0  0
    0.8458   -1.6043   -1.3667 O   0  0  0  0  0  0  0  0  0  0  0  0
   -7.3840   -0.2150   -0.0396 O   0  0  0  0  0  0  0  0  0  0  0  0
   -1.0383    0.2969   -0.4334 C   0  0  2  0  0  0  0  0  0  0  0  0
   -1.7650   -0.5356    0.6304 C   0  0  0  0  0  0  0  0  0  0  0  0
    0.4461    0.4023   -0.1537 C   0  0  0  0  0  0  0  0  0  0  0  0
   -1.7314    1.6594   -0.5403 C   0  0  0  0  0  0  0  0  0  0  0  0
   -3.2544   -0.4382    0.4456 C   0  0  0  0  0  0  0  0  0  0  0  0
    1.3352   -0.5599   -0.6346 C   0  0  0  0  0  0  0  0  0  0  0  0
    5.4711   -0.1363    0.2286 C   0  0  0  0  0  0  0  0  0  0  0  0
    2.7055   -0.4498   -0.3686 C   0  0  0  0  0  0  0  0  0  0  0  0
   -3.8220    0.5796   -0.3329 C   0  0  0  0  0  0  0  0  0  0  0  0
    3.1761    0.6300    0.3812 C   0  0  0  0  0  0  0  0  0  0  0  0
    0.9203    1.4781    0.5939 C   0  0  0  0  0  0  0  0  0  0  0  0
    2.2838    1.5925    0.8615 C   0  0  0  0  0  0  0  0  0  0  0  0
    4.9344   -1.2928   -0.5819 C   0  0  0  0  0  0  0  0  0  0  0  0
    3.6393   -1.4455   -0.8653 C   0  0  0  0  0  0  0  0  0  0  0  0
   -4.0961   -1.3615    1.0801 C   0  0  0  0  0  0  0  0  0  0  0  0
    6.4784    0.6506   -0.6190 C   0  0  0  0  0  0  0  0  0  0  0  0
    6.1683   -0.6784    1.4819 C   0  0  0  0  0  0  0  0  0  0  0  0
   -5.2071    0.6460   -0.5048 C   0  0  0  0  0  0  0  0  0  0  0  0
   -5.4798   -1.2851    0.9176 C   0  0  0  0  0  0  0  0  0  0  0  0
   -6.0344   -0.2845    0.1224 C   0  0  0  0  0  0  0  0  0  0  0  0
   -1.1927   -0.1732   -1.4151 H   0  0  0  0  0  0  0  0  0  0  0  0
   -1.5195   -0.1738    1.6376 H   0  0  0  0  0  0  0  0  0  0  0  0
   -1.4482   -1.5837    0.5730 H   0  0  0  0  0  0  0  0  0  0  0  0
   -1.7598    2.2025    0.4122 H   0  0  0  0  0  0  0  0  0  0  0  0
   -1.2164    2.2986   -1.2670 H   0  0  0  0  0  0  0  0  0  0  0  0
    0.2666    2.2384    1.0064 H   0  0  0  0  0  0  0  0  0  0  0  0
    2.6454    2.4322    1.4494 H   0  0  0  0  0  0  0  0  0  0  0  0
    5.6417   -2.0329   -0.9485 H   0  0  0  0  0  0  0  0  0  0  0  0
    3.2938   -2.2894   -1.4497 H   0  0  0  0  0  0  0  0  0  0  0  0
   -3.6767   -2.1494    1.7008 H   0  0  0  0  0  0  0  0  0  0  0  0
    6.8942    1.4913   -0.0513 H   0  0  0  0  0  0  0  0  0  0  0  0
    7.3083    0.0220   -0.9605 H   0  0  0  0  0  0  0  0  0  0  0  0
    5.9911    1.0854   -1.5000 H   0  0  0  0  0  0  0  0  0  0  0  0
    6.9844   -1.3659    1.2336 H   0  0  0  0  0  0  0  0  0  0  0  0
    6.5790    0.1397    2.0852 H   0  0  0  0  0  0  0  0  0  0  0  0
    5.4562   -1.2081    2.1262 H   0  0  0  0  0  0  0  0  0  0  0  0
   -5.6365    1.4299   -1.1243 H   0  0  0  0  0  0  0  0  0  0  0  0
   -6.1194   -2.0111    1.4121 H   0  0  0  0  0  0  0  0  0  0  0  0
   -0.0760   -1.7898   -1.1314 H   0  0  0  0  0  0  0  0  0  0  0  0
   -7.5936    0.5370   -0.6197 H   0  0  0  0  0  0  0  0  0  0  0  0
  1  8  1  0  0  0  0
  1 13  1  0  0  0  0
  2 11  1  0  0  0  0
  2 14  1  0  0  0  0
  3 10  1  0  0  0  0
  3 43  1  0  0  0  0
  4 24  1  0  0  0  0
  4 44  1  0  0  0  0
  5  6  1  0  0  0  0
  5  7  1  0  0  0  0
  5  8  1  0  0  0  0
  5 25  1  0  0  0  0
  6  9  1  0  0  0  0
  6 26  1  0  0  0  0
  6 27  1  0  0  0  0
  7 10  2  0  0  0  0
  7 15  1  0  0  0  0
  8 28  1  0  0  0  0
  8 29  1  0  0  0  0
  9 13  2  0  0  0  0
  9 19  1  0  0  0  0
 10 12  1  0  0  0  0
 11 17  1  0  0  0  0
 11 20  1  0  0  0  0
 11 21  1  0  0  0  0
 12 14  2  0  0  0  0
 12 18  1  0  0  0  0
 13 22  1  0  0  0  0
 14 16  1  0  0  0  0
 15 16  2  0  0  0  0
 15 30  1  0  0  0  0
 16 31  1  0  0  0  0
 17 18  2  0  0  0  0
 17 32  1  0  0  0  0
 18 33  1  0  0  0  0
 19 23  2  0  0  0  0
 19 34  1  0  0  0  0
 20 35  1  0  0  0  0
 20 36  1  0  0  0  0
 20 37  1  0  0  0  0
 21 38  1  0  0  0  0
 21 39  1  0  0  0  0
 21 40  1  0  0  0  0
 22 24  2  0  0  0  0
 22 41  1  0  0  0  0
 23 24  1  0  0  0  0
 23 42  1  0  0  0  0
M  END
> <PUBCHEM_COMPOUND_CID>
162412

> <PUBCHEM_CONFORMER_RMSD>
0.6

> <PUBCHEM_CONFORMER_DIVERSEORDER>
1
2
5
4
3

> <PUBCHEM_MMFF94_PARTIAL_CHARGES>
31
1 -0.36
10 0.08
11 0.42
12 0.03
13 0.08
14 0.08
15 -0.15
16 -0.15
17 -0.29
18 -0.18
19 -0.15
2 -0.36
22 -0.15
23 -0.15
24 0.08
3 -0.53
30 0.15
31 0.15
32 0.15
33 0.15
34 0.15
4 -0.53
41 0.15
42 0.15
43 0.45
44 0.45
5 0.14
6 0.14
7 -0.14
8 0.28
9 -0.14

> <PUBCHEM_EFFECTIVE_ROTOR_COUNT>
2.2

> <PUBCHEM_PHARMACOPHORE_FEATURES>
9
1 1 acceptor
1 2 acceptor
1 3 donor
1 4 donor
3 11 20 21 hydrophobe
6 1 5 6 8 9 13 rings
6 2 11 12 14 17 18 rings
6 7 10 12 14 15 16 rings
6 9 13 19 22 23 24 rings

> <PUBCHEM_HEAVY_ATOM_COUNT>
24

> <PUBCHEM_ATOM_DEF_STEREO_COUNT>
1

> <PUBCHEM_ATOM_UDEF_STEREO_COUNT>
0

> <PUBCHEM_BOND_DEF_STEREO_COUNT>
0

> <PUBCHEM_BOND_UDEF_STEREO_COUNT>
0

> <PUBCHEM_ISOTOPIC_ATOM_COUNT>
0

> <PUBCHEM_COMPONENT_COUNT>
1

> <PUBCHEM_CACTVS_TAUTO_COUNT>
8

> <PUBCHEM_CONFORMER_ID>
00027A6C00000001

> <PUBCHEM_MMFF94_ENERGY>
82.3451

> <PUBCHEM_FEATURE_SELFOVERLAP>
45.728

> <PUBCHEM_SHAPE_FINGERPRINT>
10 15 18337118882756448904
10354089 29 17313103051468273882
10673678 19 18127395767174537700
10693767 8 13901643960592663272
11315181 36 18130783448082094993
11524674 6 17895194381364554887
11646440 116 17603589629970491120
11719270 70 18335142016125684566
11796584 16 17774999072634320786
11963148 33 18412549781994337890
12035758 1 18114759169939878304
12166972 35 17167582669846181072
12236239 1 15913611678759729445
12403259 415 18335148587019329065
12516196 113 18040435494647071241
12616971 3 17023190387913697093
13073987 5 18041840730636748728
13288520 33 17988924462245571329
13402501 40 18410571786402878995
13533116 47 16298661781032416302
13540713 4 17607245648167485980
13685833 64 18411696582682136979
13782708 43 18413110562787957251
14170010 4 17967816037514517432
1420 363 18411135844388920695
14341114 176 18261106374487490416
14386348 63 18411417315197232023
14849402 71 16298961831404884424
15183329 4 18130788979387796217
15475509 35 17845956107910657906
15788980 27 18410294692018139870
17844677 252 18131066043391512604
18785283 64 18263649455327176456
19141452 34 18261392205247101519
19489759 90 17703791431565574277
200 152 17676207991970721353
21033648 29 18115323253095291841
21033650 10 17058354032664029644
21130935 74 18114178678739483875
21267235 1 18040992990973078566
21623969 137 18186800292330170670
21641784 216 18262780957163736404
21682296 61 17896027918378349342
21792961 116 18335979861771781614
22224240 67 17603872186667322534
2297311 6 18202843262454623693
23035841 295 17775568645859374017
23198884 109 13901906709506193679
23402539 116 17846501430701090959
23522609 53 18056449894401924677
23536379 177 17203610397771436040
23557571 272 18272934959461105773
23559900 14 18060138683298926277
23569943 247 16155092002321775966
23622692 88 17240762865266474261
239999 70 18411979165997981514
26918003 58 18260545606920748755
29717793 49 15482671299415112266
3004659 81 17704069581810525036
3411729 13 17487611928066220420
345986 75 16733828739241361714
34797466 226 17846771906546144732
3545911 37 18113618980370977326
4073 2 18270959046992855507
4325135 7 17988638576321688836
4340502 62 18131636690680423090
465052 167 18411982460248284810
5104073 3 17969785374751588082
5283156 175 16702304576693747209
7495541 125 18343300345074382316

> <PUBCHEM_SHAPE_MULTIPOLES>
470.43
17.06
1.57
1.1
4.62
0.12
-0.09
-3.26
-1.89
-0.03
0.04
-0.58
-0.18
1.26

> <PUBCHEM_SHAPE_SELFOVERLAP>
1042.384

> <PUBCHEM_SHAPE_VOLUME>
252

> <PUBCHEM_COORDINATE_TYPE>
2
5
10

$$$$

