47205720
  -OEChem-06241223003D

 38 38  0     1  0  0  0  0  0999 V2000
    4.9985    2.1618    0.2692 F   0  0  0  0  0  0  0  0  0  0  0  0
    6.4065    0.1658   -0.9595 F   0  0  0  0  0  0  0  0  0  0  0  0
   -1.6395   -1.3901    0.1997 O   0  0  0  0  0  0  0  0  0  0  0  0
   -4.1622    1.0979    0.8850 O   0  0  0  0  0  0  0  0  0  0  0  0
    0.1783    0.0542    0.0907 N   0  0  0  0  0  0  0  0  0  0  0  0
   -3.2577    0.3184   -1.1057 N   0  0  0  0  0  0  0  0  0  0  0  0
    1.1276   -0.7754    0.7976 C   0  0  1  0  0  0  0  0  0  0  0  0
    2.5435   -0.5227    0.3263 C   0  0  0  0  0  0  0  0  0  0  0  0
    0.9692   -0.5876    2.3050 C   0  0  0  0  0  0  0  0  0  0  0  0
   -1.1339   -0.3264   -0.1500 C   0  0  0  0  0  0  0  0  0  0  0  0
   -1.9068    0.7644   -0.8603 C   0  0  0  0  0  0  0  0  0  0  0  0
    3.1303    0.7282    0.5191 C   0  0  0  0  0  0  0  0  0  0  0  0
    3.2619   -1.5410   -0.3006 C   0  0  0  0  0  0  0  0  0  0  0  0
   -5.6008   -0.0367   -0.6977 C   0  0  0  0  0  0  0  0  0  0  0  0
   -6.7433    0.1838    0.2893 C   0  0  0  0  0  0  0  0  0  0  0  0
   -4.2839    0.5280   -0.1960 C   0  0  0  0  0  0  0  0  0  0  0  0
    4.4352    0.9607    0.0846 C   0  0  0  0  0  0  0  0  0  0  0  0
    4.5668   -1.3082   -0.7353 C   0  0  0  0  0  0  0  0  0  0  0  0
    5.1535   -0.0573   -0.5427 C   0  0  0  0  0  0  0  0  0  0  0  0
   -8.0432   -0.4181   -0.2187 C   0  0  0  0  0  0  0  0  0  0  0  0
    0.8661   -1.8191    0.5789 H   0  0  0  0  0  0  0  0  0  0  0  0
    0.4746    0.9801   -0.2062 H   0  0  0  0  0  0  0  0  0  0  0  0
    1.6861   -1.2060    2.8562 H   0  0  0  0  0  0  0  0  0  0  0  0
   -0.0383   -0.8714    2.6296 H   0  0  0  0  0  0  0  0  0  0  0  0
    1.1215    0.4546    2.6074 H   0  0  0  0  0  0  0  0  0  0  0  0
   -1.9144    1.6705   -0.2463 H   0  0  0  0  0  0  0  0  0  0  0  0
   -1.4403    0.9759   -1.8270 H   0  0  0  0  0  0  0  0  0  0  0  0
    2.5865    1.5355    1.0018 H   0  0  0  0  0  0  0  0  0  0  0  0
    2.8191   -2.5207   -0.4582 H   0  0  0  0  0  0  0  0  0  0  0  0
   -5.8365    0.4404   -1.6565 H   0  0  0  0  0  0  0  0  0  0  0  0
   -5.4645   -1.1096   -0.8791 H   0  0  0  0  0  0  0  0  0  0  0  0
   -6.4930   -0.2648    1.2582 H   0  0  0  0  0  0  0  0  0  0  0  0
   -6.8840    1.2571    0.4641 H   0  0  0  0  0  0  0  0  0  0  0  0
   -3.4483   -0.1801   -1.9702 H   0  0  0  0  0  0  0  0  0  0  0  0
    5.1264   -2.1005   -1.2236 H   0  0  0  0  0  0  0  0  0  0  0  0
   -7.9439   -1.4981   -0.3674 H   0  0  0  0  0  0  0  0  0  0  0  0
   -8.8478   -0.2472    0.5033 H   0  0  0  0  0  0  0  0  0  0  0  0
   -8.3392    0.0344   -1.1706 H   0  0  0  0  0  0  0  0  0  0  0  0
  1 17  1  0  0  0  0
  2 19  1  0  0  0  0
  3 10  2  0  0  0  0
  4 16  2  0  0  0  0
  5  7  1  0  0  0  0
  5 10  1  0  0  0  0
  5 22  1  0  0  0  0
  6 11  1  0  0  0  0
  6 16  1  0  0  0  0
  6 34  1  0  0  0  0
  7  8  1  0  0  0  0
  7  9  1  0  0  0  0
  7 21  1  0  0  0  0
  8 12  2  0  0  0  0
  8 13  1  0  0  0  0
  9 23  1  0  0  0  0
  9 24  1  0  0  0  0
  9 25  1  0  0  0  0
 10 11  1  0  0  0  0
 11 26  1  0  0  0  0
 11 27  1  0  0  0  0
 12 17  1  0  0  0  0
 12 28  1  0  0  0  0
 13 18  2  0  0  0  0
 13 29  1  0  0  0  0
 14 15  1  0  0  0  0
 14 16  1  0  0  0  0
 14 30  1  0  0  0  0
 14 31  1  0  0  0  0
 15 20  1  0  0  0  0
 15 32  1  0  0  0  0
 15 33  1  0  0  0  0
 17 19  2  0  0  0  0
 18 19  1  0  0  0  0
 18 35  1  0  0  0  0
 20 36  1  0  0  0  0
 20 37  1  0  0  0  0
 20 38  1  0  0  0  0
M  END
> <PUBCHEM_COMPOUND_CID>
47205720

> <PUBCHEM_CONFORMER_RMSD>
1

> <PUBCHEM_CONFORMER_DIVERSEORDER>
1
214
111
185
152
170
76
119
217
85
44
136
135
22
175
142
174
78
154
71
70
92
108
69
132
172
88
99
139
221
210
122
17
47
25
173
77
200
164
157
46
190
37
28
194
23
110
13
41
56
120
12
151
113
57
201
19
29
58
206
36
192
59
30
211
86
127
218
10
117
215
220
75
27
126
115
100
94
163
138
82
16
55
18
213
198
2
166
68
182
203
50
140
97
96
125
51
124
180
73
109
43
84
11
38
202
155
216
158
141
150
15
178
212
188
93
149
197
160
121
219
144
156
4
60
21
131
14
196
79
5
52
165
168
205
146
161
103
106
74
147
191
129
102
81
186
66
32
63
179
183
107
145
104
91
101
105
193
7
208
3
128
143
62
167
87
80
177
39
133
33
24
137
72
195
34
207
116
189
65
89
209
54
153
53
45
181
118
83
26
64
48
187
98
9
162
6
169
171
42
35
148
49
204
61
31
114
184
20
90
199
176
95
8
130
123
112
159
40
134
67

> <PUBCHEM_MMFF94_PARTIAL_CHARGES>
22
1 -0.19
10 0.57
11 0.36
12 -0.15
13 -0.15
14 0.06
16 0.57
17 0.19
18 -0.15
19 0.19
2 -0.19
22 0.37
28 0.15
29 0.15
3 -0.57
34 0.37
35 0.15
4 -0.57
5 -0.73
6 -0.73
7 0.44
8 -0.14

> <PUBCHEM_EFFECTIVE_ROTOR_COUNT>
8

> <PUBCHEM_PHARMACOPHORE_FEATURES>
6
1 20 hydrophobe
1 3 acceptor
1 4 acceptor
1 5 donor
1 6 donor
6 8 12 13 17 18 19 rings

> <PUBCHEM_HEAVY_ATOM_COUNT>
20

> <PUBCHEM_ATOM_DEF_STEREO_COUNT>
0

> <PUBCHEM_ATOM_UDEF_STEREO_COUNT>
1

> <PUBCHEM_BOND_DEF_STEREO_COUNT>
0

> <PUBCHEM_BOND_UDEF_STEREO_COUNT>
0

> <PUBCHEM_ISOTOPIC_ATOM_COUNT>
0

> <PUBCHEM_COMPONENT_COUNT>
1

> <PUBCHEM_CACTVS_TAUTO_COUNT>
4

> <PUBCHEM_CONFORMER_ID>
02D04D5800000001

> <PUBCHEM_MMFF94_ENERGY>
29.7702

> <PUBCHEM_FEATURE_SELFOVERLAP>
30.446

> <PUBCHEM_SHAPE_FINGERPRINT>
10299344 5 17675924296701705711
10366900 7 16845569842403119201
10968037 39 17275384309936887903
11524674 6 4678812879385195525
11719270 70 15195572311974710041
11858739 19 8430319047557959785
12236239 1 18186801396600943721
12516196 113 17489869345765011533
12730499 353 18343299284196510810
12916748 109 18411420635043609937
13533116 47 17894630395822640558
13685833 64 4823215013350136438
13914758 101 9583250448307631351
14123256 10 17131832075639883327
1420 363 18202844366376996815
14251752 14 16588302829879526921
14251764 18 14779555569240567129
14251764 46 18410573989926518486
14933364 13 18335137614079143965
15183329 4 15357695306038390491
17834072 33 18260270745866658623
17844677 252 18336541715733601941
20645477 56 18131914853751811310
20645477 70 18188489189815201438
21095086 128 17749109985517345471
21150785 3 18412542107145125615
21267235 1 15213014959836916202
22079108 93 17489872617765121907
221357 26 18408041836059737940
22224240 67 15769774632765884889
23035841 295 18186523211695762839
23402655 69 18333731300194762342
23536379 177 17749107815936062927
23559900 14 7276534439382381310
29717793 49 16660637462894594892
300161 21 13039182607005048577
3004659 81 17167860894329031838
347723 3 6483353327142680575
34797466 226 18334572438720636565
3545911 37 18272369776250790654
4072396 5 14549023182041651200
4325135 7 16487255474020596383
4340502 62 15769779069825817627
5104073 3 16629411427129124625
53794403 172 17416394373300832852
54446538 1 18261111893668535769
5486654 2 17132112442430674763
8988823 20 10735875071330868286

> <PUBCHEM_SHAPE_MULTIPOLES>
375.34
18.46
1.31
1.18
23.71
0.13
-0.51
1.99
3.64
-1.55
-0.08
-0.39
-0.17
0.35

> <PUBCHEM_SHAPE_SELFOVERLAP>
761.24

> <PUBCHEM_SHAPE_VOLUME>
218.3

> <PUBCHEM_COORDINATE_TYPE>
2
5
10

$$$$

