440783
  -OEChem-07051212502D

 91 94  0     1  0  0  0  0  0999 V2000
    3.4557    2.4188    0.0000 O   0  0  0  0  0  0  0  0  0  0  0  0
   14.0162   -3.6783    0.0000 O   0  0  0  0  0  0  0  0  0  0  0  0
    7.8380    4.0755    0.0000 O   0  0  0  0  0  0  0  0  0  0  0  0
    5.1101   -3.7600    0.0000 O   0  0  0  0  0  0  0  0  0  0  0  0
    9.2392    3.0574    0.0000 O   0  0  0  0  0  0  0  0  0  0  0  0
    5.2912   -2.0375    0.0000 O   0  0  0  0  0  0  0  0  0  0  0  0
    4.5772    1.0339    0.0000 N   0  0  0  0  0  0  0  0  0  0  0  0
   12.2561   -3.9570    0.0000 N   0  0  0  0  0  0  0  0  0  0  0  0
    6.9759   -0.9085    0.0000 N   0  0  0  0  0  0  0  0  0  0  0  0
    9.8574   -2.0146    0.0000 N   0  0  0  0  0  0  0  0  0  0  0  0
    3.4945   -0.1685    0.0000 C   0  0  3  0  0  0  0  0  0  0  0  0
    4.4727    0.0394    0.0000 C   0  0  3  0  0  0  0  0  0  0  0  0
   11.7561   -2.4182    0.0000 C   0  0  3  0  0  0  0  0  0  0  0  0
   11.4471   -3.3693    0.0000 C   0  0  3  0  0  0  0  0  0  0  0  0
    2.9945    0.6975    0.0000 C   0  0  3  0  0  0  0  0  0  0  0  0
   12.7561   -2.4182    0.0000 C   0  0  3  0  0  0  0  0  0  0  0  0
    5.2158   -0.6297    0.0000 C   0  0  0  0  0  0  0  0  0  0  0  0
   10.4960   -3.6783    0.0000 C   0  0  0  0  0  0  0  0  0  0  0  0
    3.0878   -1.0821    0.0000 C   0  0  0  0  0  0  0  0  0  0  0  0
    3.6636    1.4406    0.0000 C   0  0  0  0  0  0  0  0  0  0  0  0
   13.0651   -3.3693    0.0000 C   0  0  0  0  0  0  0  0  0  0  0  0
   13.3439   -1.6092    0.0000 C   0  0  0  0  0  0  0  0  0  0  0  0
    6.1669   -0.3207    0.0000 C   0  0  0  0  0  0  0  0  0  0  0  0
   11.1683   -1.6092    0.0000 C   0  0  0  0  0  0  0  0  0  0  0  0
    9.7529   -3.0092    0.0000 C   0  0  0  0  0  0  0  0  0  0  0  0
    2.0000    0.8020    0.0000 C   0  0  0  0  0  0  0  0  0  0  0  0
    7.7849   -0.3207    0.0000 C   0  0  0  0  0  0  0  0  0  0  0  0
    6.4759    0.6303    0.0000 C   0  0  0  0  0  0  0  0  0  0  0  0
    8.9439   -1.6079    0.0000 C   0  0  0  0  0  0  0  0  0  0  0  0
    8.7747   -3.2171    0.0000 C   0  0  0  0  0  0  0  0  0  0  0  0
    8.7360   -0.6297    0.0000 C   0  0  0  0  0  0  0  0  0  0  0  0
    7.4759    0.6303    0.0000 C   0  0  0  0  0  0  0  0  0  0  0  0
    8.2747   -2.3510    0.0000 C   0  0  0  0  0  0  0  0  0  0  0  0
    2.0933   -1.1866    0.0000 C   0  0  0  0  0  0  0  0  0  0  0  0
   14.3384   -1.7137    0.0000 C   0  0  0  0  0  0  0  0  0  0  0  0
    8.0637    1.4393    0.0000 C   0  0  0  0  0  0  0  0  0  0  0  0
    7.2802   -2.2465    0.0000 C   0  0  0  0  0  0  0  0  0  0  0  0
    5.8881    1.4393    0.0000 C   0  0  0  0  0  0  0  0  0  0  0  0
    8.3680   -4.1306    0.0000 C   0  0  0  0  0  0  0  0  0  0  0  0
    7.6569    2.3529    0.0000 C   0  0  0  0  0  0  0  0  0  0  0  0
    6.6924   -3.0555    0.0000 C   0  0  0  0  0  0  0  0  0  0  0  0
    8.2447    3.1619    0.0000 C   0  0  0  0  0  0  0  0  0  0  0  0
    5.6979   -2.9510    0.0000 C   0  0  0  0  0  0  0  0  0  0  0  0
    2.6457   -0.2130    0.0000 H   0  0  0  0  0  0  0  0  0  0  0  0
    5.2662    0.3440    0.0000 H   0  0  0  0  0  0  0  0  0  0  0  0
   10.9166   -2.5512    0.0000 H   0  0  0  0  0  0  0  0  0  0  0  0
   11.3141   -4.2088    0.0000 H   0  0  0  0  0  0  0  0  0  0  0  0
    2.6899    1.4910    0.0000 H   0  0  0  0  0  0  0  0  0  0  0  0
   12.3702   -1.6608    0.0000 H   0  0  0  0  0  0  0  0  0  0  0  0
    4.7272   -1.0114    0.0000 H   0  0  0  0  0  0  0  0  0  0  0  0
    5.5069   -1.1772    0.0000 H   0  0  0  0  0  0  0  0  0  0  0  0
   10.0075   -4.0600    0.0000 H   0  0  0  0  0  0  0  0  0  0  0  0
   10.7871   -4.2257    0.0000 H   0  0  0  0  0  0  0  0  0  0  0  0
    3.0445   -1.7006    0.0000 H   0  0  0  0  0  0  0  0  0  0  0  0
    3.6894   -1.2321    0.0000 H   0  0  0  0  0  0  0  0  0  0  0  0
    5.1141    1.3439    0.0000 H   0  0  0  0  0  0  0  0  0  0  0  0
   12.2561   -4.5770    0.0000 H   0  0  0  0  0  0  0  0  0  0  0  0
   13.5148   -1.0132    0.0000 H   0  0  0  0  0  0  0  0  0  0  0  0
   12.7866   -1.3374    0.0000 H   0  0  0  0  0  0  0  0  0  0  0  0
   11.6699   -1.2448    0.0000 H   0  0  0  0  0  0  0  0  0  0  0  0
   10.8039   -1.1076    0.0000 H   0  0  0  0  0  0  0  0  0  0  0  0
   10.6667   -1.9736    0.0000 H   0  0  0  0  0  0  0  0  0  0  0  0
    2.0648    1.4186    0.0000 H   0  0  0  0  0  0  0  0  0  0  0  0
    1.3834    0.8668    0.0000 H   0  0  0  0  0  0  0  0  0  0  0  0
    1.9352    0.1854    0.0000 H   0  0  0  0  0  0  0  0  0  0  0  0
    9.3556   -0.6081    0.0000 H   0  0  0  0  0  0  0  0  0  0  0  0
    8.8222   -0.0158    0.0000 H   0  0  0  0  0  0  0  0  0  0  0  0
    6.9759   -1.5285    0.0000 H   0  0  0  0  0  0  0  0  0  0  0  0
   10.3944   -1.7046    0.0000 H   0  0  0  0  0  0  0  0  0  0  0  0
    2.0285   -0.5700    0.0000 H   0  0  0  0  0  0  0  0  0  0  0  0
    1.4767   -1.2514    0.0000 H   0  0  0  0  0  0  0  0  0  0  0  0
    2.1581   -1.8032    0.0000 H   0  0  0  0  0  0  0  0  0  0  0  0
   14.2736   -2.3303    0.0000 H   0  0  0  0  0  0  0  0  0  0  0  0
   14.9550   -1.7785    0.0000 H   0  0  0  0  0  0  0  0  0  0  0  0
   14.4032   -1.0971    0.0000 H   0  0  0  0  0  0  0  0  0  0  0  0
    8.4944    0.9934    0.0000 H   0  0  0  0  0  0  0  0  0  0  0  0
    8.5777    1.7860    0.0000 H   0  0  0  0  0  0  0  0  0  0  0  0
    7.4511   -1.6505    0.0000 H   0  0  0  0  0  0  0  0  0  0  0  0
    6.7230   -1.9747    0.0000 H   0  0  0  0  0  0  0  0  0  0  0  0
    6.3897    1.8038    0.0000 H   0  0  0  0  0  0  0  0  0  0  0  0
    5.5237    1.9409    0.0000 H   0  0  0  0  0  0  0  0  0  0  0  0
    5.3865    1.0749    0.0000 H   0  0  0  0  0  0  0  0  0  0  0  0
    7.8016   -3.8784    0.0000 H   0  0  0  0  0  0  0  0  0  0  0  0
    8.1158   -4.6970    0.0000 H   0  0  0  0  0  0  0  0  0  0  0  0
    8.9344   -4.3828    0.0000 H   0  0  0  0  0  0  0  0  0  0  0  0
    7.2262    2.7989    0.0000 H   0  0  0  0  0  0  0  0  0  0  0  0
    7.1429    2.0062    0.0000 H   0  0  0  0  0  0  0  0  0  0  0  0
    6.5215   -3.6515    0.0000 H   0  0  0  0  0  0  0  0  0  0  0  0
    7.2497   -3.3273    0.0000 H   0  0  0  0  0  0  0  0  0  0  0  0
    8.2024    4.5770    0.0000 H   0  0  0  0  0  0  0  0  0  0  0  0
    4.4935   -3.6952    0.0000 H   0  0  0  0  0  0  0  0  0  0  0  0
  1 20  2  0  0  0  0
  2 21  2  0  0  0  0
  3 42  1  0  0  0  0
  3 90  1  0  0  0  0
  4 43  1  0  0  0  0
  4 91  1  0  0  0  0
  5 42  2  0  0  0  0
  6 43  2  0  0  0  0
  7 12  1  0  0  0  0
  7 20  1  0  0  0  0
  7 56  1  0  0  0  0
  8 14  1  0  0  0  0
  8 21  1  0  0  0  0
  8 57  1  0  0  0  0
  9 23  1  0  0  0  0
  9 27  1  0  0  0  0
  9 68  1  0  0  0  0
 10 25  1  0  0  0  0
 10 29  1  0  0  0  0
 10 69  1  0  0  0  0
 11 12  1  0  0  0  0
 11 15  1  0  0  0  0
 11 19  1  0  0  0  0
 11 44  1  0  0  0  0
 12 17  1  0  0  0  0
 12 45  1  0  0  0  0
 13 14  1  0  0  0  0
 13 16  1  0  0  0  0
 13 24  1  0  0  0  0
 13 46  1  0  0  0  0
 14 18  1  0  0  0  0
 14 47  1  0  0  0  0
 15 20  1  0  0  0  0
 15 26  1  0  0  0  0
 15 48  1  0  0  0  0
 16 21  1  0  0  0  0
 16 22  1  0  0  0  0
 16 49  1  0  0  0  0
 17 23  1  0  0  0  0
 17 50  1  0  0  0  0
 17 51  1  0  0  0  0
 18 25  1  0  0  0  0
 18 52  1  0  0  0  0
 18 53  1  0  0  0  0
 19 34  1  0  0  0  0
 19 54  1  0  0  0  0
 19 55  1  0  0  0  0
 22 35  1  0  0  0  0
 22 58  1  0  0  0  0
 22 59  1  0  0  0  0
 23 28  2  0  0  0  0
 24 60  1  0  0  0  0
 24 61  1  0  0  0  0
 24 62  1  0  0  0  0
 25 30  2  0  0  0  0
 26 63  1  0  0  0  0
 26 64  1  0  0  0  0
 26 65  1  0  0  0  0
 27 31  1  0  0  0  0
 27 32  2  0  0  0  0
 28 32  1  0  0  0  0
 28 38  1  0  0  0  0
 29 31  1  0  0  0  0
 29 33  2  0  0  0  0
 30 33  1  0  0  0  0
 30 39  1  0  0  0  0
 31 66  1  0  0  0  0
 31 67  1  0  0  0  0
 32 36  1  0  0  0  0
 33 37  1  0  0  0  0
 34 70  1  0  0  0  0
 34 71  1  0  0  0  0
 34 72  1  0  0  0  0
 35 73  1  0  0  0  0
 35 74  1  0  0  0  0
 35 75  1  0  0  0  0
 36 40  1  0  0  0  0
 36 76  1  0  0  0  0
 36 77  1  0  0  0  0
 37 41  1  0  0  0  0
 37 78  1  0  0  0  0
 37 79  1  0  0  0  0
 38 80  1  0  0  0  0
 38 81  1  0  0  0  0
 38 82  1  0  0  0  0
 39 83  1  0  0  0  0
 39 84  1  0  0  0  0
 39 85  1  0  0  0  0
 40 42  1  0  0  0  0
 40 86  1  0  0  0  0
 40 87  1  0  0  0  0
 41 43  1  0  0  0  0
 41 88  1  0  0  0  0
 41 89  1  0  0  0  0
M  END
> <PUBCHEM_COMPOUND_CID>
440783

> <PUBCHEM_COMPOUND_CANONICALIZED>
1

> <PUBCHEM_CACTVS_COMPLEXITY>
1020

> <PUBCHEM_CACTVS_HBOND_ACCEPTOR>
6

> <PUBCHEM_CACTVS_HBOND_DONOR>
6

> <PUBCHEM_CACTVS_ROTATABLE_BOND>
14

> <PUBCHEM_CACTVS_SUBSKEYS>
AAADcfB/uAAAAAAAAAAAAAAAAAAAAWLFiwAAAAAAAAAAAAAB4AAAHgAQCAAADSjBngQCiJLJkgCoAwXwXACCgCAhACAAmaE4RJgIIHLA0JGEYAhklgDIyAec2fOegAAAAAAAAAAAAAAAAAAAAAAAAAAAAA==

> <PUBCHEM_IUPAC_OPENEYE_NAME>
3-[2-[[3-(2-carboxyethyl)-5-[(3-ethyl-4-methyl-5-oxo-pyrrolidin-2-yl)methyl]-4-methyl-1H-pyrrol-2-yl]methyl]-5-[(4-ethyl-3-methyl-5-oxo-pyrrolidin-2-yl)methyl]-4-methyl-1H-pyrrol-3-yl]propanoic acid

> <PUBCHEM_IUPAC_CAS_NAME>
3-[2-[[3-(2-carboxyethyl)-5-[(3-ethyl-4-methyl-5-oxo-2-pyrrolidinyl)methyl]-4-methyl-1H-pyrrol-2-yl]methyl]-5-[(4-ethyl-3-methyl-5-oxo-2-pyrrolidinyl)methyl]-4-methyl-1H-pyrrol-3-yl]propanoic acid

> <PUBCHEM_IUPAC_NAME>
3-[2-[[3-(2-carboxyethyl)-5-[(3-ethyl-4-methyl-5-oxopyrrolidin-2-yl)methyl]-4-methyl-1H-pyrrol-2-yl]methyl]-5-[(4-ethyl-3-methyl-5-oxopyrrolidin-2-yl)methyl]-4-methyl-1H-pyrrol-3-yl]propanoic acid

> <PUBCHEM_IUPAC_SYSTEMATIC_NAME>
3-[5-[(4-ethyl-3-methyl-5-oxidanylidene-pyrrolidin-2-yl)methyl]-2-[[5-[(3-ethyl-4-methyl-5-oxidanylidene-pyrrolidin-2-yl)methyl]-3-(3-hydroxy-3-oxopropyl)-4-methyl-1H-pyrrol-2-yl]methyl]-4-methyl-1H-pyrrol-3-yl]propanoic acid

> <PUBCHEM_IUPAC_TRADITIONAL_NAME>
3-[2-[[3-(2-carboxyethyl)-5-[(3-ethyl-5-keto-4-methyl-pyrrolidin-2-yl)methyl]-4-methyl-1H-pyrrol-2-yl]methyl]-5-[(4-ethyl-5-keto-3-methyl-pyrrolidin-2-yl)methyl]-4-methyl-1H-pyrrol-3-yl]propionic acid

> <PUBCHEM_IUPAC_INCHI>
InChI=1S/C33H48N4O6/c1-7-20-19(6)32(42)37-27(20)14-25-18(5)23(10-12-31(40)41)29(35-25)15-28-22(9-11-30(38)39)17(4)24(34-28)13-26-16(3)21(8-2)33(43)36-26/h16,19-21,26-27,34-35H,7-15H2,1-6H3,(H,36,43)(H,37,42)(H,38,39)(H,40,41)

> <PUBCHEM_IUPAC_INCHIKEY>
VKGRRZVYCXLHII-UHFFFAOYSA-N

> <PUBCHEM_XLOGP3_AA>
4

> <PUBCHEM_EXACT_MASS>
596.357385

> <PUBCHEM_MOLECULAR_FORMULA>
C33H48N4O6

> <PUBCHEM_MOLECULAR_WEIGHT>
596.75742

> <PUBCHEM_OPENEYE_CAN_SMILES>
CCC1C(C(=O)NC1CC2=C(C(=C(N2)CC3=C(C(=C(N3)CC4C(C(C(=O)N4)CC)C)C)CCC(=O)O)CCC(=O)O)C)C

> <PUBCHEM_OPENEYE_ISO_SMILES>
CCC1C(C(=O)NC1CC2=C(C(=C(N2)CC3=C(C(=C(N3)CC4C(C(C(=O)N4)CC)C)C)CCC(=O)O)CCC(=O)O)C)C

> <PUBCHEM_CACTVS_TPSA>
164

> <PUBCHEM_MONOISOTOPIC_WEIGHT>
596.357385

> <PUBCHEM_TOTAL_CHARGE>
0

> <PUBCHEM_HEAVY_ATOM_COUNT>
43

> <PUBCHEM_ATOM_DEF_STEREO_COUNT>
0

> <PUBCHEM_ATOM_UDEF_STEREO_COUNT>
6

> <PUBCHEM_BOND_DEF_STEREO_COUNT>
0

> <PUBCHEM_BOND_UDEF_STEREO_COUNT>
0

> <PUBCHEM_ISOTOPIC_ATOM_COUNT>
0

> <PUBCHEM_COMPONENT_COUNT>
1

> <PUBCHEM_CACTVS_TAUTO_COUNT>
9

> <PUBCHEM_COORDINATE_TYPE>
1
5
255

> <PUBCHEM_BONDANNOTATIONS>
10  25  8
10  29  8
11  44  3
12  45  3
13  46  3
14  47  3
15  48  3
16  49  3
23  28  8
25  30  8
27  32  8
28  32  8
29  33  8
30  33  8
9  23  8
9  27  8

$$$$

