5280411
  -OEChem-07051212453D

 49 49  0     1  0  0  0  0  0999 V2000
   -5.0009    2.1598   -0.9919 O   0  0  0  0  0  0  0  0  0  0  0  0
    8.9324   -0.8968   -0.7063 O   0  0  0  0  0  0  0  0  0  0  0  0
    8.0421    0.5285    0.8238 O   0  0  0  0  0  0  0  0  0  0  0  0
   -2.1985    0.8803    0.8108 C   0  0  1  0  0  0  0  0  0  0  0  0
   -3.6211    0.6078    0.2783 C   0  0  2  0  0  0  0  0  0  0  0  0
   -1.0616    0.1880    0.0750 C   0  0  0  0  0  0  0  0  0  0  0  0
    0.3272    0.5592    0.6024 C   0  0  0  0  0  0  0  0  0  0  0  0
   -2.0616    2.3735    0.6966 C   0  0  0  0  0  0  0  0  0  0  0  0
   -3.7839   -0.5254   -0.7202 C   0  0  0  0  0  0  0  0  0  0  0  0
   -4.0056    1.9430   -0.3167 C   0  0  0  0  0  0  0  0  0  0  0  0
    1.4661   -0.1182   -0.1646 C   0  0  0  0  0  0  0  0  0  0  0  0
   -3.0490    2.9943    0.0503 C   0  0  0  0  0  0  0  0  0  0  0  0
    2.8588    0.2511    0.3602 C   0  0  0  0  0  0  0  0  0  0  0  0
    3.9965   -0.4455   -0.3910 C   0  0  0  0  0  0  0  0  0  0  0  0
   -5.2248   -0.9121   -0.8814 C   0  0  0  0  0  0  0  0  0  0  0  0
    5.3904   -0.0741    0.1316 C   0  0  0  0  0  0  0  0  0  0  0  0
   -5.8242   -1.8739   -0.1642 C   0  0  0  0  0  0  0  0  0  0  0  0
    6.5555   -0.7252   -0.6083 C   0  0  0  0  0  0  0  0  0  0  0  0
   -5.1291   -2.6843    0.8895 C   0  0  0  0  0  0  0  0  0  0  0  0
    7.8970   -0.2892   -0.0755 C   0  0  0  0  0  0  0  0  0  0  0  0
   -4.5059   -3.9409    0.3016 C   0  0  0  0  0  0  0  0  0  0  0  0
   -2.1582    0.5985    1.8708 H   0  0  0  0  0  0  0  0  0  0  0  0
   -4.2795    0.4548    1.1456 H   0  0  0  0  0  0  0  0  0  0  0  0
   -1.1034    0.4208   -0.9971 H   0  0  0  0  0  0  0  0  0  0  0  0
   -1.1705   -0.8989    0.1687 H   0  0  0  0  0  0  0  0  0  0  0  0
    0.3949    0.2896    1.6636 H   0  0  0  0  0  0  0  0  0  0  0  0
    0.4884    1.6402    0.5373 H   0  0  0  0  0  0  0  0  0  0  0  0
   -1.2288    2.9210    1.1185 H   0  0  0  0  0  0  0  0  0  0  0  0
   -3.4003   -0.2368   -1.7073 H   0  0  0  0  0  0  0  0  0  0  0  0
   -3.2000   -1.3982   -0.4167 H   0  0  0  0  0  0  0  0  0  0  0  0
    1.3391   -1.2063   -0.1081 H   0  0  0  0  0  0  0  0  0  0  0  0
    1.3994    0.1539   -1.2252 H   0  0  0  0  0  0  0  0  0  0  0  0
   -3.1575    4.0445   -0.1544 H   0  0  0  0  0  0  0  0  0  0  0  0
    2.9212   -0.0069    1.4246 H   0  0  0  0  0  0  0  0  0  0  0  0
    2.9923    1.3376    0.2895 H   0  0  0  0  0  0  0  0  0  0  0  0
    3.9345   -0.1889   -1.4556 H   0  0  0  0  0  0  0  0  0  0  0  0
    3.8662   -1.5321   -0.3188 H   0  0  0  0  0  0  0  0  0  0  0  0
   -5.8090   -0.3797   -1.6270 H   0  0  0  0  0  0  0  0  0  0  0  0
    5.5016    1.0171    0.0826 H   0  0  0  0  0  0  0  0  0  0  0  0
    5.4503   -0.3365    1.1959 H   0  0  0  0  0  0  0  0  0  0  0  0
    6.5109   -0.4600   -1.6702 H   0  0  0  0  0  0  0  0  0  0  0  0
    6.4867   -1.8143   -0.5120 H   0  0  0  0  0  0  0  0  0  0  0  0
   -6.8696   -2.0983   -0.3589 H   0  0  0  0  0  0  0  0  0  0  0  0
   -4.3675   -2.1013    1.4183 H   0  0  0  0  0  0  0  0  0  0  0  0
   -5.8667   -2.9664    1.6503 H   0  0  0  0  0  0  0  0  0  0  0  0
   -5.2642   -4.5710   -0.1758 H   0  0  0  0  0  0  0  0  0  0  0  0
   -3.7420   -3.7054   -0.4462 H   0  0  0  0  0  0  0  0  0  0  0  0
   -4.0306   -4.5298    1.0928 H   0  0  0  0  0  0  0  0  0  0  0  0
    9.7994   -0.6030   -0.3537 H   0  0  0  0  0  0  0  0  0  0  0  0
  1 10  2  0  0  0  0
  2 20  1  0  0  0  0
  2 49  1  0  0  0  0
  3 20  2  0  0  0  0
  4  5  1  0  0  0  0
  4  6  1  0  0  0  0
  4  8  1  0  0  0  0
  4 22  1  0  0  0  0
  5  9  1  0  0  0  0
  5 10  1  0  0  0  0
  5 23  1  0  0  0  0
  6  7  1  0  0  0  0
  6 24  1  0  0  0  0
  6 25  1  0  0  0  0
  7 11  1  0  0  0  0
  7 26  1  0  0  0  0
  7 27  1  0  0  0  0
  8 12  2  0  0  0  0
  8 28  1  0  0  0  0
  9 15  1  0  0  0  0
  9 29  1  0  0  0  0
  9 30  1  0  0  0  0
 10 12  1  0  0  0  0
 11 13  1  0  0  0  0
 11 31  1  0  0  0  0
 11 32  1  0  0  0  0
 12 33  1  0  0  0  0
 13 14  1  0  0  0  0
 13 34  1  0  0  0  0
 13 35  1  0  0  0  0
 14 16  1  0  0  0  0
 14 36  1  0  0  0  0
 14 37  1  0  0  0  0
 15 17  2  0  0  0  0
 15 38  1  0  0  0  0
 16 18  1  0  0  0  0
 16 39  1  0  0  0  0
 16 40  1  0  0  0  0
 17 19  1  0  0  0  0
 17 43  1  0  0  0  0
 18 20  1  0  0  0  0
 18 41  1  0  0  0  0
 18 42  1  0  0  0  0
 19 21  1  0  0  0  0
 19 44  1  0  0  0  0
 19 45  1  0  0  0  0
 21 46  1  0  0  0  0
 21 47  1  0  0  0  0
 21 48  1  0  0  0  0
M  END
> <PUBCHEM_COMPOUND_CID>
5280411

> <PUBCHEM_CONFORMER_RMSD>
1

> <PUBCHEM_CONFORMER_DIVERSEORDER>
1
147
129
78
16
18
173
136
35
81
166
93
122
157
87
89
13
75
124
154
51
82
170
105
148
127
192
100
86
21
109
60
31
128
111
84
137
144
64
131
110
72
67
119
6
107
28
196
2
25
172
30
50
133
99
74
71
171
189
10
178
24
20
23
5
58
48
29
177
12
9
32
140
156
85
63
19
116
179
187
90
94
102
174
130
56
115
69
41
118
145
66
121
103
44
181
22
77
193
120
98
164
191
68
169
76
150
126
139
53
180
36
168
91
46
142
113
159
80
198
17
185
186
62
52
183
38
167
151
138
70
161
134
40
195
176
88
92
117
7
146
8
14
33
34
152
42
59
123
97
175
4
160
47
101
61
108
49
106
57
11
158
39
153
26
132
15
45
188
79
182
83
194
54
95
65
155
141
3
43
27
114
162
73
143
96
112
190
55
163
135
149
165
197
104
125
37
184

> <PUBCHEM_MMFF94_PARTIAL_CHARGES>
19
1 -0.57
10 0.49
12 -0.14
15 -0.29
17 -0.29
18 0.06
19 0.14
2 -0.65
20 0.66
28 0.15
3 -0.57
33 0.15
38 0.15
4 0.14
43 0.15
49 0.5
5 0.06
8 -0.29
9 0.14

> <PUBCHEM_EFFECTIVE_ROTOR_COUNT>
11.4

> <PUBCHEM_PHARMACOPHORE_FEATURES>
6
1 1 acceptor
1 2 acceptor
1 21 hydrophobe
1 3 acceptor
3 2 3 20 anion
5 4 5 8 10 12 rings

> <PUBCHEM_HEAVY_ATOM_COUNT>
21

> <PUBCHEM_ATOM_DEF_STEREO_COUNT>
2

> <PUBCHEM_ATOM_UDEF_STEREO_COUNT>
0

> <PUBCHEM_BOND_DEF_STEREO_COUNT>
1

> <PUBCHEM_BOND_UDEF_STEREO_COUNT>
0

> <PUBCHEM_ISOTOPIC_ATOM_COUNT>
0

> <PUBCHEM_COMPONENT_COUNT>
1

> <PUBCHEM_CACTVS_TAUTO_COUNT>
10

> <PUBCHEM_CONFORMER_ID>
0050929B00000001

> <PUBCHEM_MMFF94_ENERGY>
19.7344

> <PUBCHEM_FEATURE_SELFOVERLAP>
30.504

> <PUBCHEM_SHAPE_FINGERPRINT>
100830 39 18410011035762883198
10411042 1 18266177228701646707
11089746 13 17490148621555137572
11273773 118 5906061313335041250
11315181 36 18060698381497614637
12091667 2 18201432610326335848
13288520 33 18334859416035840605
13631057 29 18411139117412827019
14251740 79 18060419076223557739
15183329 4 17132115745677347522
15461852 350 18341323441006575302
18927931 339 18334295358044147783
19427546 20 18342459274782909405
21054139 6 18202565068817259018
21150785 3 17847062164799689822
21307412 95 18266191539686398983
21315759 40 17846781815347114382
21315763 28 18410011049222440556
22288116 15 18131345293843922738
23081809 10 17846498175669755544
23559900 14 18334586749573272505
4073 2 18335978770249221230
437795 160 18339654369718857026
445580 160 18335420144969359383
54039377 194 18059566933363977067
9862886 166 18411699850736076443
9953998 17 18113892771709159691
999808 66 18040994029564198126

> <PUBCHEM_SHAPE_MULTIPOLES>
414.56
23.05
3.19
0.91
62.18
1.18
0
10.63
2.72
-9.06
-0.41
-0.36
0
1.3

> <PUBCHEM_SHAPE_SELFOVERLAP>
812.926

> <PUBCHEM_SHAPE_VOLUME>
247.4

> <PUBCHEM_COORDINATE_TYPE>
2
5
10

$$$$

