5281849
  -OEChem-07051213002D

 40 43  0     1  0  0  0  0  0999 V2000
    8.0944    0.4490    0.0000 O   0  0  0  0  0  0  0  0  0  0  0  0
    6.4144   -2.8071    0.0000 O   0  0  0  0  0  0  0  0  0  0  0  0
    4.6660   -2.7725    0.0000 O   0  0  0  0  0  0  0  0  0  0  0  0
    4.6660    0.2275    0.0000 N   0  0  0  0  0  0  0  0  0  0  0  0
    6.4260    0.2621    0.0000 C   0  0  0  0  0  0  0  0  0  0  0  0
    6.6361    1.2760    0.0000 C   0  0  0  0  0  0  0  0  0  0  0  0
    7.6651    1.3913    0.0000 C   0  0  3  0  0  0  0  0  0  0  0  0
    5.5321   -0.2725    0.0000 C   0  0  0  0  0  0  0  0  0  0  0  0
    7.3321   -0.2517    0.0000 C   0  0  0  0  0  0  0  0  0  0  0  0
    5.5321   -1.2725    0.0000 C   0  0  0  0  0  0  0  0  0  0  0  0
    3.8000   -0.2725    0.0000 C   0  0  0  0  0  0  0  0  0  0  0  0
    7.3321   -1.2934    0.0000 C   0  0  0  0  0  0  0  0  0  0  0  0
    6.4260   -1.8072    0.0000 C   0  0  0  0  0  0  0  0  0  0  0  0
    8.1584    2.2612    0.0000 C   0  0  0  0  0  0  0  0  0  0  0  0
    3.8000   -1.2725    0.0000 C   0  0  0  0  0  0  0  0  0  0  0  0
    4.6660   -1.7725    0.0000 C   0  0  0  0  0  0  0  0  0  0  0  0
    4.6660    1.2275    0.0000 C   0  0  0  0  0  0  0  0  0  0  0  0
    2.9061    0.2621    0.0000 C   0  0  0  0  0  0  0  0  0  0  0  0
    2.9061   -1.8072    0.0000 C   0  0  0  0  0  0  0  0  0  0  0  0
    9.1584    2.2689    0.0000 C   0  0  0  0  0  0  0  0  0  0  0  0
    7.6518    3.1233    0.0000 C   0  0  0  0  0  0  0  0  0  0  0  0
    2.0000   -0.2517    0.0000 C   0  0  0  0  0  0  0  0  0  0  0  0
    2.0000   -1.2934    0.0000 C   0  0  0  0  0  0  0  0  0  0  0  0
    6.6322    1.8960    0.0000 H   0  0  0  0  0  0  0  0  0  0  0  0
    6.0191    1.3373    0.0000 H   0  0  0  0  0  0  0  0  0  0  0  0
    8.2845    1.3639    0.0000 H   0  0  0  0  0  0  0  0  0  0  0  0
    7.8678   -1.6054    0.0000 H   0  0  0  0  0  0  0  0  0  0  0  0
    5.2860    1.2275    0.0000 H   0  0  0  0  0  0  0  0  0  0  0  0
    4.6660    1.8475    0.0000 H   0  0  0  0  0  0  0  0  0  0  0  0
    4.0460    1.2275    0.0000 H   0  0  0  0  0  0  0  0  0  0  0  0
    2.9132    0.8821    0.0000 H   0  0  0  0  0  0  0  0  0  0  0  0
    2.9132   -2.4272    0.0000 H   0  0  0  0  0  0  0  0  0  0  0  0
    9.1632    1.6489    0.0000 H   0  0  0  0  0  0  0  0  0  0  0  0
    9.7784    2.2737    0.0000 H   0  0  0  0  0  0  0  0  0  0  0  0
    9.1536    2.8889    0.0000 H   0  0  0  0  0  0  0  0  0  0  0  0
    7.9576    3.6626    0.0000 H   0  0  0  0  0  0  0  0  0  0  0  0
    7.0318    3.1185    0.0000 H   0  0  0  0  0  0  0  0  0  0  0  0
    1.4643    0.0603    0.0000 H   0  0  0  0  0  0  0  0  0  0  0  0
    1.4643   -1.6054    0.0000 H   0  0  0  0  0  0  0  0  0  0  0  0
    6.9478   -3.1233    0.0000 H   0  0  0  0  0  0  0  0  0  0  0  0
  1  7  1  0  0  0  0
  1  9  1  0  0  0  0
  2 13  1  0  0  0  0
  2 40  1  0  0  0  0
  3 16  2  0  0  0  0
  4  8  1  0  0  0  0
  4 11  1  0  0  0  0
  4 17  1  0  0  0  0
  5  6  1  0  0  0  0
  5  8  1  0  0  0  0
  5  9  2  0  0  0  0
  6  7  1  0  0  0  0
  6 24  1  0  0  0  0
  6 25  1  0  0  0  0
  7 14  1  0  0  0  0
  7 26  1  0  0  0  0
  8 10  2  0  0  0  0
  9 12  1  0  0  0  0
 10 13  1  0  0  0  0
 10 16  1  0  0  0  0
 11 15  1  0  0  0  0
 11 18  2  0  0  0  0
 12 13  2  0  0  0  0
 12 27  1  0  0  0  0
 14 20  1  0  0  0  0
 14 21  2  0  0  0  0
 15 16  1  0  0  0  0
 15 19  2  0  0  0  0
 17 28  1  0  0  0  0
 17 29  1  0  0  0  0
 17 30  1  0  0  0  0
 18 22  1  0  0  0  0
 18 31  1  0  0  0  0
 19 23  1  0  0  0  0
 19 32  1  0  0  0  0
 20 33  1  0  0  0  0
 20 34  1  0  0  0  0
 20 35  1  0  0  0  0
 21 36  1  0  0  0  0
 21 37  1  0  0  0  0
 22 23  2  0  0  0  0
 22 38  1  0  0  0  0
 23 39  1  0  0  0  0
M  END
> <PUBCHEM_COMPOUND_CID>
5281849

> <PUBCHEM_COMPOUND_CANONICALIZED>
1

> <PUBCHEM_CACTVS_COMPLEXITY>
519

> <PUBCHEM_CACTVS_HBOND_ACCEPTOR>
4

> <PUBCHEM_CACTVS_HBOND_DONOR>
1

> <PUBCHEM_CACTVS_ROTATABLE_BOND>
1

> <PUBCHEM_CACTVS_SUBSKEYS>
AAADceB6MAAAAAAAAAAAAAAAAAAAASAAAAA8YIAAAAAAAEixQAAAHgAACAAADByhmAYyxoMABgCIAqRSQACCCAAlIgAIiAEObMgMJ37GtZuGeejn4B3I+ce4/P/OIAACCgAKAABAAAQUABQAAAAAAAAAAA==

> <PUBCHEM_IUPAC_OPENEYE_NAME>
5-hydroxy-2-isopropenyl-11-methyl-1,2-dihydrofuro[2,3-c]acridin-6-one

> <PUBCHEM_IUPAC_CAS_NAME>
5-hydroxy-11-methyl-2-(1-methylethenyl)-1,2-dihydrofuro[2,3-c]acridin-6-one

> <PUBCHEM_IUPAC_NAME>
5-hydroxy-11-methyl-2-prop-1-en-2-yl-1,2-dihydrofuro[2,3-c]acridin-6-one

> <PUBCHEM_IUPAC_SYSTEMATIC_NAME>
11-methyl-5-oxidanyl-2-prop-1-en-2-yl-1,2-dihydrofuro[2,3-c]acridin-6-one

> <PUBCHEM_IUPAC_TRADITIONAL_NAME>
5-hydroxy-2-isopropenyl-11-methyl-1,2-dihydrofur[2,3-c]acridin-6-one

> <PUBCHEM_IUPAC_INCHI>
InChI=1S/C19H17NO3/c1-10(2)15-8-12-16(23-15)9-14(21)17-18(12)20(3)13-7-5-4-6-11(13)19(17)22/h4-7,9,15,21H,1,8H2,2-3H3

> <PUBCHEM_IUPAC_INCHIKEY>
FHAGACMCMQYSNX-UHFFFAOYSA-N

> <PUBCHEM_XLOGP3_AA>
4.6

> <PUBCHEM_EXACT_MASS>
307.120843

> <PUBCHEM_MOLECULAR_FORMULA>
C19H17NO3

> <PUBCHEM_MOLECULAR_WEIGHT>
307.34318

> <PUBCHEM_OPENEYE_CAN_SMILES>
CC(=C)C1CC2=C3C(=C(C=C2O1)O)C(=O)C4=CC=CC=C4N3C

> <PUBCHEM_OPENEYE_ISO_SMILES>
CC(=C)C1CC2=C3C(=C(C=C2O1)O)C(=O)C4=CC=CC=C4N3C

> <PUBCHEM_CACTVS_TPSA>
49.8

> <PUBCHEM_MONOISOTOPIC_WEIGHT>
307.120843

> <PUBCHEM_TOTAL_CHARGE>
0

> <PUBCHEM_HEAVY_ATOM_COUNT>
23

> <PUBCHEM_ATOM_DEF_STEREO_COUNT>
0

> <PUBCHEM_ATOM_UDEF_STEREO_COUNT>
1

> <PUBCHEM_BOND_DEF_STEREO_COUNT>
0

> <PUBCHEM_BOND_UDEF_STEREO_COUNT>
0

> <PUBCHEM_ISOTOPIC_ATOM_COUNT>
0

> <PUBCHEM_COMPONENT_COUNT>
1

> <PUBCHEM_CACTVS_TAUTO_COUNT>
5

> <PUBCHEM_COORDINATE_TYPE>
1
5
255

> <PUBCHEM_BONDANNOTATIONS>
10  13  8
10  16  8
11  15  8
11  18  8
12  13  8
15  16  8
15  19  8
18  22  8
19  23  8
22  23  8
4  11  8
4  8  8
5  8  8
5  9  8
7  14  3
8  10  8
9  12  8

$$$$

