12809
  -OEChem-06261207243D

 23 23  0     0  0  0  0  0  0999 V2000
    1.1731    2.3128    0.0231 O   0  0  0  0  0  0  0  0  0  0  0  0
    1.1720   -2.3132    0.0230 O   0  0  0  0  0  0  0  0  0  0  0  0
   -0.8416   -1.1995   -0.2201 N   0  0  0  0  0  0  0  0  0  0  0  0
   -0.8409    1.2001   -0.2201 N   0  0  0  0  0  0  0  0  0  0  0  0
    1.2220   -0.0003    0.0269 N   0  0  0  0  0  0  0  0  0  0  0  0
   -2.9207    0.0006   -0.4677 C   0  0  0  0  0  0  0  0  0  0  0  0
   -1.4400    0.0004   -0.2917 C   0  0  0  0  0  0  0  0  0  0  0  0
   -3.6641    0.0001    0.8656 C   0  0  0  0  0  0  0  0  0  0  0  0
    0.4901    1.1220   -0.0608 C   0  0  0  0  0  0  0  0  0  0  0  0
    0.4895   -1.1221   -0.0609 C   0  0  0  0  0  0  0  0  0  0  0  0
    2.5808    2.2269    0.1915 C   0  0  0  0  0  0  0  0  0  0  0  0
    2.5798   -2.2279    0.1913 C   0  0  0  0  0  0  0  0  0  0  0  0
   -3.2208    0.8799   -1.0500 H   0  0  0  0  0  0  0  0  0  0  0  0
   -3.2209   -0.8781   -1.0508 H   0  0  0  0  0  0  0  0  0  0  0  0
   -3.4103   -0.8856    1.4577 H   0  0  0  0  0  0  0  0  0  0  0  0
   -4.7454    0.0002    0.6965 H   0  0  0  0  0  0  0  0  0  0  0  0
   -3.4102    0.8852    1.4585 H   0  0  0  0  0  0  0  0  0  0  0  0
    2.8354    1.7222    1.1296 H   0  0  0  0  0  0  0  0  0  0  0  0
    2.9773    3.2455    0.2401 H   0  0  0  0  0  0  0  0  0  0  0  0
    3.0498    1.7242   -0.6611 H   0  0  0  0  0  0  0  0  0  0  0  0
    2.8346   -1.7234    1.1294 H   0  0  0  0  0  0  0  0  0  0  0  0
    3.0490   -1.7254   -0.6612 H   0  0  0  0  0  0  0  0  0  0  0  0
    2.9758   -3.2468    0.2399 H   0  0  0  0  0  0  0  0  0  0  0  0
  1  9  1  0  0  0  0
  1 11  1  0  0  0  0
  2 10  1  0  0  0  0
  2 12  1  0  0  0  0
  3  7  2  0  0  0  0
  3 10  1  0  0  0  0
  4  7  1  0  0  0  0
  4  9  2  0  0  0  0
  5  9  1  0  0  0  0
  5 10  2  0  0  0  0
  6  7  1  0  0  0  0
  6  8  1  0  0  0  0
  6 13  1  0  0  0  0
  6 14  1  0  0  0  0
  8 15  1  0  0  0  0
  8 16  1  0  0  0  0
  8 17  1  0  0  0  0
 11 18  1  0  0  0  0
 11 19  1  0  0  0  0
 11 20  1  0  0  0  0
 12 21  1  0  0  0  0
 12 22  1  0  0  0  0
 12 23  1  0  0  0  0
M  END
> <PUBCHEM_COMPOUND_CID>
12809

> <PUBCHEM_CONFORMER_RMSD>
0.6

> <PUBCHEM_CONFORMER_DIVERSEORDER>
1
2
3
4

> <PUBCHEM_MMFF94_PARTIAL_CHARGES>
11
1 -0.36
10 0.7
11 0.28
12 0.28
2 -0.36
3 -0.62
4 -0.62
5 -0.62
6 0.14
7 0.48
9 0.7

> <PUBCHEM_EFFECTIVE_ROTOR_COUNT>
3

> <PUBCHEM_PHARMACOPHORE_FEATURES>
5
1 8 hydrophobe
3 3 4 7 cation
3 3 5 10 cation
3 4 5 9 cation
6 3 4 5 7 9 10 rings

> <PUBCHEM_HEAVY_ATOM_COUNT>
12

> <PUBCHEM_ATOM_DEF_STEREO_COUNT>
0

> <PUBCHEM_ATOM_UDEF_STEREO_COUNT>
0

> <PUBCHEM_BOND_DEF_STEREO_COUNT>
0

> <PUBCHEM_BOND_UDEF_STEREO_COUNT>
0

> <PUBCHEM_ISOTOPIC_ATOM_COUNT>
0

> <PUBCHEM_COMPONENT_COUNT>
1

> <PUBCHEM_CACTVS_TAUTO_COUNT>
3

> <PUBCHEM_CONFORMER_ID>
0000320900000001

> <PUBCHEM_MMFF94_ENERGY>
30.5947

> <PUBCHEM_FEATURE_SELFOVERLAP>
28.144

> <PUBCHEM_SHAPE_FINGERPRINT>
1 1 18339082566708904740
100427 49 18193568984626162780
108231 29 18199461254370520115
12759256 9 18335990860381576135
13380535 21 18268701723650591695
13380535 76 18197506116642957115
14022349 108 18339374002210471960
161256 15 18341895224774242581
16945 1 18410581681780318471
19021347 4 17978511927589073298
20645476 183 17555726617392578652
20645477 70 18340218435941898647
20871998 22 18046056335659396175
21040471 1 17978794501924632292
21061003 4 18196086866338464659
21524375 3 17972035838482537397
23552423 10 18409454652497693103
241688 4 17905895025619065592
2748010 2 18049176753979819814
305870 269 18337108960590898809
3071541 12 18409446990139062172
3071541 250 18265320884488312302
3071541 37 18341892952757570629
528862 383 18341058440527386219
7364860 26 18408323284886329966
81228 2 17400084569816435584

> <PUBCHEM_SHAPE_MULTIPOLES>
220.27
4.5
2.66
0.69
3.16
0
0.05
0
0.84
-3.26
0.13
0.32
0
0

> <PUBCHEM_SHAPE_SELFOVERLAP>
442.242

> <PUBCHEM_SHAPE_VOLUME>
127.5

> <PUBCHEM_COORDINATE_TYPE>
2
5
10

$$$$

