151438
  -OEChem-07051213032D

 22 21  0     0  0  0  0  0  0999 V2000
    3.4030   -0.2015    0.0000 P   0  0  0  0  0  0  0  0  0  0  0  0
    4.2690    0.2985    0.0000 O   0  0  0  0  0  0  0  0  0  0  0  0
    2.5369   -0.7015    0.0000 O   0  0  0  0  0  0  0  0  0  0  0  0
    2.9030    0.6645    0.0000 O   0  0  0  0  0  0  0  0  0  0  0  0
    3.9030   -1.0675    0.0000 O   0  0  0  0  0  0  0  0  0  0  0  0
    6.8671   -0.2015    0.0000 N   0  0  0  0  0  0  0  0  0  0  0  0
    6.0010    0.2985    0.0000 C   0  0  0  0  0  0  0  0  0  0  0  0
    5.1350   -0.2015    0.0000 C   0  0  0  0  0  0  0  0  0  0  0  0
    7.7331    0.2985    0.0000 C   0  0  0  0  0  0  0  0  0  0  0  0
    6.8671   -1.2015    0.0000 C   0  0  0  0  0  0  0  0  0  0  0  0
    6.3996    0.7735    0.0000 H   0  0  0  0  0  0  0  0  0  0  0  0
    5.6025    0.7735    0.0000 H   0  0  0  0  0  0  0  0  0  0  0  0
    4.7365   -0.6764    0.0000 H   0  0  0  0  0  0  0  0  0  0  0  0
    5.5335   -0.6764    0.0000 H   0  0  0  0  0  0  0  0  0  0  0  0
    8.0431   -0.2384    0.0000 H   0  0  0  0  0  0  0  0  0  0  0  0
    8.2700    0.6085    0.0000 H   0  0  0  0  0  0  0  0  0  0  0  0
    7.4231    0.8355    0.0000 H   0  0  0  0  0  0  0  0  0  0  0  0
    6.2471   -1.2015    0.0000 H   0  0  0  0  0  0  0  0  0  0  0  0
    6.8671   -1.8215    0.0000 H   0  0  0  0  0  0  0  0  0  0  0  0
    7.4871   -1.2015    0.0000 H   0  0  0  0  0  0  0  0  0  0  0  0
    3.2130    1.2015    0.0000 H   0  0  0  0  0  0  0  0  0  0  0  0
    2.0000   -0.3915    0.0000 H   0  0  0  0  0  0  0  0  0  0  0  0
  1  2  1  0  0  0  0
  1  3  1  0  0  0  0
  1  4  1  0  0  0  0
  1  5  2  0  0  0  0
  2  8  1  0  0  0  0
  3 22  1  0  0  0  0
  4 21  1  0  0  0  0
  6  7  1  0  0  0  0
  6  9  1  0  0  0  0
  6 10  1  0  0  0  0
  7  8  1  0  0  0  0
  7 11  1  0  0  0  0
  7 12  1  0  0  0  0
  8 13  1  0  0  0  0
  8 14  1  0  0  0  0
  9 15  1  0  0  0  0
  9 16  1  0  0  0  0
  9 17  1  0  0  0  0
 10 18  1  0  0  0  0
 10 19  1  0  0  0  0
 10 20  1  0  0  0  0
M  END
> <PUBCHEM_COMPOUND_CID>
151438

> <PUBCHEM_COMPOUND_CANONICALIZED>
1

> <PUBCHEM_CACTVS_COMPLEXITY>
131

> <PUBCHEM_CACTVS_HBOND_ACCEPTOR>
5

> <PUBCHEM_CACTVS_HBOND_DONOR>
2

> <PUBCHEM_CACTVS_ROTATABLE_BOND>
4

> <PUBCHEM_CACTVS_SUBSKEYS>
AAADccBiOAIAAAAAAAAAAAAAAAAAAAAAAAAAAAAAAAAAAAAAAAAAHgAACCAAAADhgAYCAAMAARAAQAAAAIAAAAAAAAAAAAAIAAACAAAAAAAAAAAAAAAQAAAAAAAAAAAAAAAAAAAAAAAAAAAAAAAAAAAAAA==

> <PUBCHEM_IUPAC_OPENEYE_NAME>
2-(dimethylamino)ethyl dihydrogen phosphate

> <PUBCHEM_IUPAC_CAS_NAME>
2-(dimethylamino)ethyl dihydrogen phosphate

> <PUBCHEM_IUPAC_NAME>
2-(dimethylamino)ethyl dihydrogen phosphate

> <PUBCHEM_IUPAC_SYSTEMATIC_NAME>
2-(dimethylamino)ethyl dihydrogen phosphate

> <PUBCHEM_IUPAC_TRADITIONAL_NAME>
2-(dimethylamino)ethyl dihydrogen phosphate

> <PUBCHEM_IUPAC_INCHI>
InChI=1S/C4H12NO4P/c1-5(2)3-4-9-10(6,7)8/h3-4H2,1-2H3,(H2,6,7,8)

> <PUBCHEM_IUPAC_INCHIKEY>
BLHVJAAEHMLMOI-UHFFFAOYSA-N

> <PUBCHEM_XLOGP3_AA>
-3.8

> <PUBCHEM_EXACT_MASS>
169.050394

> <PUBCHEM_MOLECULAR_FORMULA>
C4H12NO4P

> <PUBCHEM_MOLECULAR_WEIGHT>
169.116142

> <PUBCHEM_OPENEYE_CAN_SMILES>
CN(C)CCOP(=O)(O)O

> <PUBCHEM_OPENEYE_ISO_SMILES>
CN(C)CCOP(=O)(O)O

> <PUBCHEM_CACTVS_TPSA>
70

> <PUBCHEM_MONOISOTOPIC_WEIGHT>
169.050394

> <PUBCHEM_TOTAL_CHARGE>
0

> <PUBCHEM_HEAVY_ATOM_COUNT>
10

> <PUBCHEM_ATOM_DEF_STEREO_COUNT>
0

> <PUBCHEM_ATOM_UDEF_STEREO_COUNT>
0

> <PUBCHEM_BOND_DEF_STEREO_COUNT>
0

> <PUBCHEM_BOND_UDEF_STEREO_COUNT>
0

> <PUBCHEM_ISOTOPIC_ATOM_COUNT>
0

> <PUBCHEM_COMPONENT_COUNT>
1

> <PUBCHEM_CACTVS_TAUTO_COUNT>
1

> <PUBCHEM_COORDINATE_TYPE>
1
5
255

$$$$

