17395827
  -OEChem-06241222522D

 47 51  0     0  0  0  0  0  0999 V2000
    4.6783   -4.0943    0.0000 O   0  0  0  0  0  0  0  0  0  0  0  0
    8.8569    4.0854    0.0000 O   0  0  0  0  0  0  0  0  0  0  0  0
   10.3260    3.4282    0.0000 O   0  0  0  0  0  0  0  0  0  0  0  0
    6.6353   -2.0724    0.0000 O   0  0  0  0  0  0  0  0  0  0  0  0
    6.2619   -3.2896    0.0000 O   0  0  0  0  0  0  0  0  0  0  0  0
    7.2314    0.9298    0.0000 N   0  0  0  0  0  0  0  0  0  0  0  0
    4.6783   -2.4848    0.0000 N   0  0  0  0  0  0  0  0  0  0  0  0
    7.2297   -0.0702    0.0000 C   0  0  0  0  0  0  0  0  0  0  0  0
    6.2781   -0.3776    0.0000 C   0  0  0  0  0  0  0  0  0  0  0  0
    6.2809    1.2404    0.0000 C   0  0  0  0  0  0  0  0  0  0  0  0
    5.6917    0.4324    0.0000 C   0  0  0  0  0  0  0  0  0  0  0  0
    8.0414    1.5162    0.0000 C   0  0  0  0  0  0  0  0  0  0  0  0
    4.9889   -1.5343    0.0000 C   0  0  0  0  0  0  0  0  0  0  0  0
    5.9674   -1.3281    0.0000 C   0  0  0  0  0  0  0  0  0  0  0  0
    8.0377   -0.6594    0.0000 C   0  0  0  0  0  0  0  0  0  0  0  0
    7.9386    2.5109    0.0000 C   0  0  0  0  0  0  0  0  0  0  0  0
    5.9735    2.1920    0.0000 C   0  0  0  0  0  0  0  0  0  0  0  0
    3.7320   -2.7896    0.0000 C   0  0  0  0  0  0  0  0  0  0  0  0
    8.9543    1.1078    0.0000 C   0  0  0  0  0  0  0  0  0  0  0  0
    8.7487    3.0972    0.0000 C   0  0  0  0  0  0  0  0  0  0  0  0
    9.6615    2.6889    0.0000 C   0  0  0  0  0  0  0  0  0  0  0  0
    3.7320   -3.7896    0.0000 C   0  0  0  0  0  0  0  0  0  0  0  0
    9.7643    1.6942    0.0000 C   0  0  0  0  0  0  0  0  0  0  0  0
    5.2619   -3.2896    0.0000 C   0  0  0  0  0  0  0  0  0  0  0  0
    2.8660   -2.2896    0.0000 C   0  0  0  0  0  0  0  0  0  0  0  0
    2.8660   -4.2896    0.0000 C   0  0  0  0  0  0  0  0  0  0  0  0
    9.8298    4.2896    0.0000 C   0  0  0  0  0  0  0  0  0  0  0  0
    2.0000   -2.7896    0.0000 C   0  0  0  0  0  0  0  0  0  0  0  0
    2.0000   -3.7896    0.0000 C   0  0  0  0  0  0  0  0  0  0  0  0
    5.0717    0.4335    0.0000 H   0  0  0  0  0  0  0  0  0  0  0  0
    4.9684   -0.9147    0.0000 H   0  0  0  0  0  0  0  0  0  0  0  0
    4.3751   -1.4470    0.0000 H   0  0  0  0  0  0  0  0  0  0  0  0
    7.6724   -1.1604    0.0000 H   0  0  0  0  0  0  0  0  0  0  0  0
    8.5386   -1.0247    0.0000 H   0  0  0  0  0  0  0  0  0  0  0  0
    8.4030   -0.1584    0.0000 H   0  0  0  0  0  0  0  0  0  0  0  0
    7.3727    2.7640    0.0000 H   0  0  0  0  0  0  0  0  0  0  0  0
    6.5635    2.3826    0.0000 H   0  0  0  0  0  0  0  0  0  0  0  0
    5.7830    2.7820    0.0000 H   0  0  0  0  0  0  0  0  0  0  0  0
    5.3835    2.0015    0.0000 H   0  0  0  0  0  0  0  0  0  0  0  0
    9.0180    0.4911    0.0000 H   0  0  0  0  0  0  0  0  0  0  0  0
   10.3303    1.4411    0.0000 H   0  0  0  0  0  0  0  0  0  0  0  0
    2.8660   -1.6696    0.0000 H   0  0  0  0  0  0  0  0  0  0  0  0
    2.8660   -4.9096    0.0000 H   0  0  0  0  0  0  0  0  0  0  0  0
   10.3965    4.5409    0.0000 H   0  0  0  0  0  0  0  0  0  0  0  0
    9.6394    4.8796    0.0000 H   0  0  0  0  0  0  0  0  0  0  0  0
    1.4631   -2.4796    0.0000 H   0  0  0  0  0  0  0  0  0  0  0  0
    1.4631   -4.0996    0.0000 H   0  0  0  0  0  0  0  0  0  0  0  0
  1 22  1  0  0  0  0
  1 24  1  0  0  0  0
  2 20  1  0  0  0  0
  2 27  1  0  0  0  0
  3 21  1  0  0  0  0
  3 27  1  0  0  0  0
  4 14  2  0  0  0  0
  5 24  2  0  0  0  0
  6  8  1  0  0  0  0
  6 10  1  0  0  0  0
  6 12  1  0  0  0  0
  7 13  1  0  0  0  0
  7 18  1  0  0  0  0
  7 24  1  0  0  0  0
  8  9  2  0  0  0  0
  8 15  1  0  0  0  0
  9 11  1  0  0  0  0
  9 14  1  0  0  0  0
 10 11  2  0  0  0  0
 10 17  1  0  0  0  0
 11 30  1  0  0  0  0
 12 16  2  0  0  0  0
 12 19  1  0  0  0  0
 13 14  1  0  0  0  0
 13 31  1  0  0  0  0
 13 32  1  0  0  0  0
 15 33  1  0  0  0  0
 15 34  1  0  0  0  0
 15 35  1  0  0  0  0
 16 20  1  0  0  0  0
 16 36  1  0  0  0  0
 17 37  1  0  0  0  0
 17 38  1  0  0  0  0
 17 39  1  0  0  0  0
 18 22  1  0  0  0  0
 18 25  2  0  0  0  0
 19 23  2  0  0  0  0
 19 40  1  0  0  0  0
 20 21  2  0  0  0  0
 21 23  1  0  0  0  0
 22 26  2  0  0  0  0
 23 41  1  0  0  0  0
 25 28  1  0  0  0  0
 25 42  1  0  0  0  0
 26 29  1  0  0  0  0
 26 43  1  0  0  0  0
 27 44  1  0  0  0  0
 27 45  1  0  0  0  0
 28 29  2  0  0  0  0
 28 46  1  0  0  0  0
 29 47  1  0  0  0  0
M  END
> <PUBCHEM_COMPOUND_CID>
17395827

> <PUBCHEM_COMPOUND_CANONICALIZED>
1

> <PUBCHEM_CACTVS_COMPLEXITY>
657

> <PUBCHEM_CACTVS_HBOND_ACCEPTOR>
5

> <PUBCHEM_CACTVS_HBOND_DONOR>
0

> <PUBCHEM_CACTVS_ROTATABLE_BOND>
4

> <PUBCHEM_CACTVS_SUBSKEYS>
AAADceB7OAAAAAAAAAAAAAAAAAAAAWLEgAAwYAAAAAAAAFgB0AAAHgAAAAAADAzBngcyzpMMFACoA6RyXACCiCAlIiAImCG/7NgfJvrEtbutM6pmxhne6ce8UAMOAEAAAgAAUAAAgAAEAACgAAAAAAAAAA==

> <PUBCHEM_IUPAC_OPENEYE_NAME>
3-[2-[1-(1,3-benzodioxol-5-yl)-2,5-dimethyl-pyrrol-3-yl]-2-oxo-ethyl]-1,3-benzoxazol-2-one

> <PUBCHEM_IUPAC_CAS_NAME>
3-[2-[1-(1,3-benzodioxol-5-yl)-2,5-dimethyl-3-pyrrolyl]-2-oxoethyl]-1,3-benzoxazol-2-one

> <PUBCHEM_IUPAC_NAME>
3-[2-[1-(1,3-benzodioxol-5-yl)-2,5-dimethylpyrrol-3-yl]-2-oxoethyl]-1,3-benzoxazol-2-one

> <PUBCHEM_IUPAC_SYSTEMATIC_NAME>
3-[2-[1-(1,3-benzodioxol-5-yl)-2,5-dimethyl-pyrrol-3-yl]-2-oxidanylidene-ethyl]-1,3-benzoxazol-2-one

> <PUBCHEM_IUPAC_TRADITIONAL_NAME>
3-[2-[1-(1,3-benzodioxol-5-yl)-2,5-dimethyl-pyrrol-3-yl]-2-keto-ethyl]-1,3-benzoxazol-2-one

> <PUBCHEM_IUPAC_INCHI>
InChI=1S/C22H18N2O5/c1-13-9-16(14(2)24(13)15-7-8-20-21(10-15)28-12-27-20)18(25)11-23-17-5-3-4-6-19(17)29-22(23)26/h3-10H,11-12H2,1-2H3

> <PUBCHEM_IUPAC_INCHIKEY>
DDIFXSWKBACOCS-UHFFFAOYSA-N

> <PUBCHEM_XLOGP3_AA>
3.7

> <PUBCHEM_EXACT_MASS>
390.121572

> <PUBCHEM_MOLECULAR_FORMULA>
C22H18N2O5

> <PUBCHEM_MOLECULAR_WEIGHT>
390.38872

> <PUBCHEM_OPENEYE_CAN_SMILES>
CC1=CC(=C(N1C2=CC3=C(C=C2)OCO3)C)C(=O)CN4C5=CC=CC=C5OC4=O

> <PUBCHEM_OPENEYE_ISO_SMILES>
CC1=CC(=C(N1C2=CC3=C(C=C2)OCO3)C)C(=O)CN4C5=CC=CC=C5OC4=O

> <PUBCHEM_CACTVS_TPSA>
70

> <PUBCHEM_MONOISOTOPIC_WEIGHT>
390.121572

> <PUBCHEM_TOTAL_CHARGE>
0

> <PUBCHEM_HEAVY_ATOM_COUNT>
29

> <PUBCHEM_ATOM_DEF_STEREO_COUNT>
0

> <PUBCHEM_ATOM_UDEF_STEREO_COUNT>
0

> <PUBCHEM_BOND_DEF_STEREO_COUNT>
0

> <PUBCHEM_BOND_UDEF_STEREO_COUNT>
0

> <PUBCHEM_ISOTOPIC_ATOM_COUNT>
0

> <PUBCHEM_COMPONENT_COUNT>
1

> <PUBCHEM_CACTVS_TAUTO_COUNT>
2

> <PUBCHEM_COORDINATE_TYPE>
1
5
255

> <PUBCHEM_BONDANNOTATIONS>
1  22  8
1  24  8
10  11  8
12  16  8
12  19  8
16  20  8
18  22  8
18  25  8
19  23  8
20  21  8
21  23  8
22  26  8
25  28  8
26  29  8
28  29  8
6  10  8
6  8  8
7  18  8
7  24  8
8  9  8
9  11  8

$$$$

