7846938
  -OEChem-06241222482D

 40 41  0     0  0  0  0  0  0999 V2000
    4.6783    2.4698    0.0000 S   0  0  0  0  0  0  0  0  0  0  0  0
    8.2619   -0.0670    0.0000 O   0  0  0  0  0  0  0  0  0  0  0  0
   12.7619   -2.6651    0.0000 O   0  0  0  0  0  0  0  0  0  0  0  0
    8.2619    1.6651    0.0000 O   0  0  0  0  0  0  0  0  0  0  0  0
    9.2619   -1.7990    0.0000 O   0  0  0  0  0  0  0  0  0  0  0  0
    4.6783    0.8603    0.0000 N   0  0  0  0  0  0  0  0  0  0  0  0
   10.7619   -0.9330    0.0000 N   0  0  0  0  0  0  0  0  0  0  0  0
    6.2619    1.6651    0.0000 C   0  0  0  0  0  0  0  0  0  0  0  0
    6.7619    0.7990    0.0000 C   0  0  0  0  0  0  0  0  0  0  0  0
    5.2619    1.6651    0.0000 C   0  0  0  0  0  0  0  0  0  0  0  0
    3.7320    2.1651    0.0000 C   0  0  0  0  0  0  0  0  0  0  0  0
    3.7320    1.1651    0.0000 C   0  0  0  0  0  0  0  0  0  0  0  0
    7.7619    0.7990    0.0000 C   0  0  0  0  0  0  0  0  0  0  0  0
   11.2619   -1.7990    0.0000 C   0  0  0  0  0  0  0  0  0  0  0  0
    2.8660    2.6651    0.0000 C   0  0  0  0  0  0  0  0  0  0  0  0
    2.8660    0.6651    0.0000 C   0  0  0  0  0  0  0  0  0  0  0  0
    9.2619   -0.0670    0.0000 C   0  0  0  0  0  0  0  0  0  0  0  0
   12.2619   -1.7990    0.0000 C   0  0  0  0  0  0  0  0  0  0  0  0
    9.7619   -0.9330    0.0000 C   0  0  0  0  0  0  0  0  0  0  0  0
    2.0000    2.1651    0.0000 C   0  0  0  0  0  0  0  0  0  0  0  0
    2.0000    1.1651    0.0000 C   0  0  0  0  0  0  0  0  0  0  0  0
   13.7619   -2.6651    0.0000 C   0  0  0  0  0  0  0  0  0  0  0  0
    6.8445    1.8771    0.0000 H   0  0  0  0  0  0  0  0  0  0  0  0
    6.1542    2.2756    0.0000 H   0  0  0  0  0  0  0  0  0  0  0  0
    6.1793    0.5870    0.0000 H   0  0  0  0  0  0  0  0  0  0  0  0
    6.8695    0.1885    0.0000 H   0  0  0  0  0  0  0  0  0  0  0  0
   10.6793   -2.0111    0.0000 H   0  0  0  0  0  0  0  0  0  0  0  0
   11.3695   -2.4096    0.0000 H   0  0  0  0  0  0  0  0  0  0  0  0
    2.8660    3.2851    0.0000 H   0  0  0  0  0  0  0  0  0  0  0  0
    2.8660    0.0451    0.0000 H   0  0  0  0  0  0  0  0  0  0  0  0
    9.8445    0.1451    0.0000 H   0  0  0  0  0  0  0  0  0  0  0  0
    9.1542    0.5436    0.0000 H   0  0  0  0  0  0  0  0  0  0  0  0
   12.8445   -1.5870    0.0000 H   0  0  0  0  0  0  0  0  0  0  0  0
   12.1542   -1.1885    0.0000 H   0  0  0  0  0  0  0  0  0  0  0  0
   11.0719   -0.3961    0.0000 H   0  0  0  0  0  0  0  0  0  0  0  0
    1.4631    2.4751    0.0000 H   0  0  0  0  0  0  0  0  0  0  0  0
    1.4631    0.8551    0.0000 H   0  0  0  0  0  0  0  0  0  0  0  0
   13.7619   -3.2851    0.0000 H   0  0  0  0  0  0  0  0  0  0  0  0
   14.3819   -2.6651    0.0000 H   0  0  0  0  0  0  0  0  0  0  0  0
   13.7619   -2.0451    0.0000 H   0  0  0  0  0  0  0  0  0  0  0  0
  1 10  1  0  0  0  0
  1 11  1  0  0  0  0
  2 13  1  0  0  0  0
  2 17  1  0  0  0  0
  3 18  1  0  0  0  0
  3 22  1  0  0  0  0
  4 13  2  0  0  0  0
  5 19  2  0  0  0  0
  6 10  2  0  0  0  0
  6 12  1  0  0  0  0
  7 14  1  0  0  0  0
  7 19  1  0  0  0  0
  7 35  1  0  0  0  0
  8  9  1  0  0  0  0
  8 10  1  0  0  0  0
  8 23  1  0  0  0  0
  8 24  1  0  0  0  0
  9 13  1  0  0  0  0
  9 25  1  0  0  0  0
  9 26  1  0  0  0  0
 11 12  1  0  0  0  0
 11 15  2  0  0  0  0
 12 16  2  0  0  0  0
 14 18  1  0  0  0  0
 14 27  1  0  0  0  0
 14 28  1  0  0  0  0
 15 20  1  0  0  0  0
 15 29  1  0  0  0  0
 16 21  1  0  0  0  0
 16 30  1  0  0  0  0
 17 19  1  0  0  0  0
 17 31  1  0  0  0  0
 17 32  1  0  0  0  0
 18 33  1  0  0  0  0
 18 34  1  0  0  0  0
 20 21  2  0  0  0  0
 20 36  1  0  0  0  0
 21 37  1  0  0  0  0
 22 38  1  0  0  0  0
 22 39  1  0  0  0  0
 22 40  1  0  0  0  0
M  END
> <PUBCHEM_COMPOUND_CID>
7846938

> <PUBCHEM_COMPOUND_CANONICALIZED>
1

> <PUBCHEM_CACTVS_COMPLEXITY>
381

> <PUBCHEM_CACTVS_HBOND_ACCEPTOR>
6

> <PUBCHEM_CACTVS_HBOND_DONOR>
1

> <PUBCHEM_CACTVS_ROTATABLE_BOND>
9

> <PUBCHEM_CACTVS_SUBSKEYS>
AAADceBzOABAAAAAAAAAAAAAAAAAAWAAAAAwAAAAAAAAAFgB8AAAHgQQAAAACAjh1gYyybLIFAisASXyXAKD8KBhCjhImL14ZJgKILLgkZWHIAhklgD4yAc0AAAAAAAAAAAAAQAAAAAAAAACAAAAAAAAAA==

> <PUBCHEM_IUPAC_OPENEYE_NAME>
[2-(2-methoxyethylamino)-2-oxo-ethyl] 3-(1,3-benzothiazol-2-yl)propanoate

> <PUBCHEM_IUPAC_CAS_NAME>
3-(1,3-benzothiazol-2-yl)propanoic acid [2-(2-methoxyethylamino)-2-oxoethyl] ester

> <PUBCHEM_IUPAC_NAME>
[2-(2-methoxyethylamino)-2-oxoethyl] 3-(1,3-benzothiazol-2-yl)propanoate

> <PUBCHEM_IUPAC_SYSTEMATIC_NAME>
[2-(2-methoxyethylamino)-2-oxidanylidene-ethyl] 3-(1,3-benzothiazol-2-yl)propanoate

> <PUBCHEM_IUPAC_TRADITIONAL_NAME>
3-(1,3-benzothiazol-2-yl)propionic acid [2-keto-2-(2-methoxyethylamino)ethyl] ester

> <PUBCHEM_IUPAC_INCHI>
InChI=1S/C15H18N2O4S/c1-20-9-8-16-13(18)10-21-15(19)7-6-14-17-11-4-2-3-5-12(11)22-14/h2-5H,6-10H2,1H3,(H,16,18)

> <PUBCHEM_IUPAC_INCHIKEY>
AHSRLVLWBPMFAF-UHFFFAOYSA-N

> <PUBCHEM_XLOGP3_AA>
1.7

> <PUBCHEM_EXACT_MASS>
322.098728

> <PUBCHEM_MOLECULAR_FORMULA>
C15H18N2O4S

> <PUBCHEM_MOLECULAR_WEIGHT>
322.37942

> <PUBCHEM_OPENEYE_CAN_SMILES>
COCCNC(=O)COC(=O)CCC1=NC2=CC=CC=C2S1

> <PUBCHEM_OPENEYE_ISO_SMILES>
COCCNC(=O)COC(=O)CCC1=NC2=CC=CC=C2S1

> <PUBCHEM_CACTVS_TPSA>
106

> <PUBCHEM_MONOISOTOPIC_WEIGHT>
322.098728

> <PUBCHEM_TOTAL_CHARGE>
0

> <PUBCHEM_HEAVY_ATOM_COUNT>
22

> <PUBCHEM_ATOM_DEF_STEREO_COUNT>
0

> <PUBCHEM_ATOM_UDEF_STEREO_COUNT>
0

> <PUBCHEM_BOND_DEF_STEREO_COUNT>
0

> <PUBCHEM_BOND_UDEF_STEREO_COUNT>
0

> <PUBCHEM_ISOTOPIC_ATOM_COUNT>
0

> <PUBCHEM_COMPONENT_COUNT>
1

> <PUBCHEM_CACTVS_TAUTO_COUNT>
4

> <PUBCHEM_COORDINATE_TYPE>
1
5
255

> <PUBCHEM_BONDANNOTATIONS>
1  10  8
1  11  8
11  12  8
11  15  8
12  16  8
15  20  8
16  21  8
20  21  8
6  10  8
6  12  8

$$$$

