160539
  -OEChem-07051213142D

 28 31  0     0  0  0  0  0  0999 V2000
    4.6660   -0.5454    0.0000 C   0  0  0  0  0  0  0  0  0  0  0  0
    3.8000   -0.0454    0.0000 C   0  0  0  0  0  0  0  0  0  0  0  0
    4.3009   -1.4697    0.0000 C   0  0  0  0  0  0  0  0  0  0  0  0
    3.3073   -1.4893    0.0000 C   0  0  0  0  0  0  0  0  0  0  0  0
    2.9061   -0.5800    0.0000 C   0  0  0  0  0  0  0  0  0  0  0  0
    5.5321   -0.0454    0.0000 C   0  0  0  0  0  0  0  0  0  0  0  0
    3.8000    0.9546    0.0000 C   0  0  0  0  0  0  0  0  0  0  0  0
    5.5321    0.9546    0.0000 C   0  0  0  0  0  0  0  0  0  0  0  0
    4.6660    1.4546    0.0000 C   0  0  0  0  0  0  0  0  0  0  0  0
    2.0000   -0.0662    0.0000 C   0  0  0  0  0  0  0  0  0  0  0  0
    2.9061    1.4893    0.0000 C   0  0  0  0  0  0  0  0  0  0  0  0
    6.4260   -0.5800    0.0000 C   0  0  0  0  0  0  0  0  0  0  0  0
    2.0000    0.9754    0.0000 C   0  0  0  0  0  0  0  0  0  0  0  0
    6.4260    1.4893    0.0000 C   0  0  0  0  0  0  0  0  0  0  0  0
    7.3321   -0.0662    0.0000 C   0  0  0  0  0  0  0  0  0  0  0  0
    7.3321    0.9754    0.0000 C   0  0  0  0  0  0  0  0  0  0  0  0
    4.2315   -2.0858    0.0000 H   0  0  0  0  0  0  0  0  0  0  0  0
    4.9025   -1.6196    0.0000 H   0  0  0  0  0  0  0  0  0  0  0  0
    2.7121   -1.6628    0.0000 H   0  0  0  0  0  0  0  0  0  0  0  0
    3.4010   -2.1022    0.0000 H   0  0  0  0  0  0  0  0  0  0  0  0
    4.6660    2.0746    0.0000 H   0  0  0  0  0  0  0  0  0  0  0  0
    1.4643   -0.3783    0.0000 H   0  0  0  0  0  0  0  0  0  0  0  0
    2.9132    2.1092    0.0000 H   0  0  0  0  0  0  0  0  0  0  0  0
    6.4188   -1.2000    0.0000 H   0  0  0  0  0  0  0  0  0  0  0  0
    1.4643    1.2875    0.0000 H   0  0  0  0  0  0  0  0  0  0  0  0
    6.4188    2.1092    0.0000 H   0  0  0  0  0  0  0  0  0  0  0  0
    7.8678   -0.3783    0.0000 H   0  0  0  0  0  0  0  0  0  0  0  0
    7.8678    1.2875    0.0000 H   0  0  0  0  0  0  0  0  0  0  0  0
  1  2  2  0  0  0  0
  1  3  1  0  0  0  0
  1  6  1  0  0  0  0
  2  5  1  0  0  0  0
  2  7  1  0  0  0  0
  3  4  1  0  0  0  0
  3 17  1  0  0  0  0
  3 18  1  0  0  0  0
  4  5  1  0  0  0  0
  4 19  1  0  0  0  0
  4 20  1  0  0  0  0
  5 10  2  0  0  0  0
  6  8  1  0  0  0  0
  6 12  2  0  0  0  0
  7  9  2  0  0  0  0
  7 11  1  0  0  0  0
  8  9  1  0  0  0  0
  8 14  2  0  0  0  0
  9 21  1  0  0  0  0
 10 13  1  0  0  0  0
 10 22  1  0  0  0  0
 11 13  2  0  0  0  0
 11 23  1  0  0  0  0
 12 15  1  0  0  0  0
 12 24  1  0  0  0  0
 13 25  1  0  0  0  0
 14 16  1  0  0  0  0
 14 26  1  0  0  0  0
 15 16  2  0  0  0  0
 15 27  1  0  0  0  0
 16 28  1  0  0  0  0
M  END
> <PUBCHEM_COMPOUND_CID>
160539

> <PUBCHEM_COMPOUND_CANONICALIZED>
1

> <PUBCHEM_CACTVS_COMPLEXITY>
269

> <PUBCHEM_CACTVS_HBOND_ACCEPTOR>
0

> <PUBCHEM_CACTVS_HBOND_DONOR>
0

> <PUBCHEM_CACTVS_ROTATABLE_BOND>
0

> <PUBCHEM_CACTVS_SUBSKEYS>
AAADccB4AAAAAAAAAAAAAAAAAAAAAYAAAAAwYMAAAAAAAGDBVAAAGAAAAAAADACAGAAwAMAAAACAAiBCAAACAAAgAAAIiAAAAIgIICKAERCAIAAggAAIiAcAgMAOwAACAAAQAACAAAQAACAAAQAACAAAAA==

> <PUBCHEM_IUPAC_OPENEYE_NAME>
1,2-dihydroaceanthrylene

> <PUBCHEM_IUPAC_CAS_NAME>
1,2-dihydroaceanthrylene

> <PUBCHEM_IUPAC_NAME>
1,2-dihydroaceanthrylene

> <PUBCHEM_IUPAC_SYSTEMATIC_NAME>
1,2-dihydroaceanthrylene

> <PUBCHEM_IUPAC_TRADITIONAL_NAME>
aceanthrene

> <PUBCHEM_IUPAC_INCHI>
InChI=1S/C16H12/c1-2-7-14-12(4-1)10-13-6-3-5-11-8-9-15(14)16(11)13/h1-7,10H,8-9H2

> <PUBCHEM_IUPAC_INCHIKEY>
XTAHYROJKCXMOF-UHFFFAOYSA-N

> <PUBCHEM_XLOGP3_AA>
4.7

> <PUBCHEM_EXACT_MASS>
204.0939

> <PUBCHEM_MOLECULAR_FORMULA>
C16H12

> <PUBCHEM_MOLECULAR_WEIGHT>
204.26648

> <PUBCHEM_OPENEYE_CAN_SMILES>
C1CC2=C3C1=CC=CC3=CC4=CC=CC=C24

> <PUBCHEM_OPENEYE_ISO_SMILES>
C1CC2=C3C1=CC=CC3=CC4=CC=CC=C24

> <PUBCHEM_CACTVS_TPSA>
0

> <PUBCHEM_MONOISOTOPIC_WEIGHT>
204.0939

> <PUBCHEM_TOTAL_CHARGE>
0

> <PUBCHEM_HEAVY_ATOM_COUNT>
16

> <PUBCHEM_ATOM_DEF_STEREO_COUNT>
0

> <PUBCHEM_ATOM_UDEF_STEREO_COUNT>
0

> <PUBCHEM_BOND_DEF_STEREO_COUNT>
0

> <PUBCHEM_BOND_UDEF_STEREO_COUNT>
0

> <PUBCHEM_ISOTOPIC_ATOM_COUNT>
0

> <PUBCHEM_COMPONENT_COUNT>
1

> <PUBCHEM_CACTVS_TAUTO_COUNT>
1

> <PUBCHEM_COORDINATE_TYPE>
1
5
255

> <PUBCHEM_BONDANNOTATIONS>
1  2  8
1  6  8
10  13  8
11  13  8
12  15  8
14  16  8
15  16  8
2  5  8
2  7  8
5  10  8
6  12  8
6  8  8
7  11  8
7  9  8
8  14  8
8  9  8

$$$$

