2216
  -OEChem-07051212542D

 25 26  0     0  0  0  0  0  0999 V2000
    2.0000    0.2003    0.0000 Cl  0  0  0  0  0  0  0  0  0  0  0  0
    5.4641    0.2003    0.0000 Cl  0  0  0  0  0  0  0  0  0  0  0  0
    4.7026    2.6948    0.0000 N   0  0  0  0  0  0  0  0  0  0  0  0
    3.7320    1.2003    0.0000 N   0  0  0  0  0  0  0  0  0  0  0  0
    5.5116    1.2936    0.0000 N   0  0  0  0  0  0  0  0  0  0  0  0
    3.7320   -2.7997    0.0000 N   0  0  0  0  0  0  0  0  0  0  0  0
    5.6808    2.9027    0.0000 C   0  0  0  0  0  0  0  0  0  0  0  0
    6.1808    2.0367    0.0000 C   0  0  0  0  0  0  0  0  0  0  0  0
    4.5981    1.7003    0.0000 C   0  0  0  0  0  0  0  0  0  0  0  0
    3.7320    0.2003    0.0000 C   0  0  0  0  0  0  0  0  0  0  0  0
    2.8660   -0.2997    0.0000 C   0  0  0  0  0  0  0  0  0  0  0  0
    4.5981   -0.2997    0.0000 C   0  0  0  0  0  0  0  0  0  0  0  0
    3.7320   -1.7997    0.0000 C   0  0  0  0  0  0  0  0  0  0  0  0
    2.8660   -1.2997    0.0000 C   0  0  0  0  0  0  0  0  0  0  0  0
    4.5981   -1.2997    0.0000 C   0  0  0  0  0  0  0  0  0  0  0  0
    6.2472    3.1549    0.0000 H   0  0  0  0  0  0  0  0  0  0  0  0
    5.4892    3.4924    0.0000 H   0  0  0  0  0  0  0  0  0  0  0  0
    6.5956    1.5760    0.0000 H   0  0  0  0  0  0  0  0  0  0  0  0
    6.6823    2.4011    0.0000 H   0  0  0  0  0  0  0  0  0  0  0  0
    4.2418    3.1097    0.0000 H   0  0  0  0  0  0  0  0  0  0  0  0
    3.1951    1.5103    0.0000 H   0  0  0  0  0  0  0  0  0  0  0  0
    2.3291   -1.6097    0.0000 H   0  0  0  0  0  0  0  0  0  0  0  0
    5.1350   -1.6097    0.0000 H   0  0  0  0  0  0  0  0  0  0  0  0
    3.1951   -3.1097    0.0000 H   0  0  0  0  0  0  0  0  0  0  0  0
    4.2690   -3.1097    0.0000 H   0  0  0  0  0  0  0  0  0  0  0  0
  1 11  1  0  0  0  0
  2 12  1  0  0  0  0
  3  7  1  0  0  0  0
  3  9  1  0  0  0  0
  3 20  1  0  0  0  0
  4  9  1  0  0  0  0
  4 10  1  0  0  0  0
  4 21  1  0  0  0  0
  5  8  1  0  0  0  0
  5  9  2  0  0  0  0
  6 13  1  0  0  0  0
  6 24  1  0  0  0  0
  6 25  1  0  0  0  0
  7  8  1  0  0  0  0
  7 16  1  0  0  0  0
  7 17  1  0  0  0  0
  8 18  1  0  0  0  0
  8 19  1  0  0  0  0
 10 11  2  0  0  0  0
 10 12  1  0  0  0  0
 11 14  1  0  0  0  0
 12 15  2  0  0  0  0
 13 14  2  0  0  0  0
 13 15  1  0  0  0  0
 14 22  1  0  0  0  0
 15 23  1  0  0  0  0
M  END
> <PUBCHEM_COMPOUND_CID>
2216

> <PUBCHEM_COMPOUND_CANONICALIZED>
1

> <PUBCHEM_CACTVS_COMPLEXITY>
247

> <PUBCHEM_CACTVS_HBOND_ACCEPTOR>
2

> <PUBCHEM_CACTVS_HBOND_DONOR>
3

> <PUBCHEM_CACTVS_ROTATABLE_BOND>
2

> <PUBCHEM_CACTVS_SUBSKEYS>
AAADccBzgAAGAAAAAAAAAAAAAAAAAQAAAAAwAAAAAAAAAAABAAAAHAIQAAAACArBECQxwILAAACgACRCZACCAAEhBwABiIAIZoiIYCLBm5HUIAhokAJIyCcQAAAAAACAAAKAABAAAQAABQAAIAAAAAAAAA==

> <PUBCHEM_IUPAC_OPENEYE_NAME>
2,6-dichloro-N1-(4,5-dihydro-1H-imidazol-2-yl)benzene-1,4-diamine

> <PUBCHEM_IUPAC_CAS_NAME>
2,6-dichloro-N1-(4,5-dihydro-1H-imidazol-2-yl)benzene-1,4-diamine

> <PUBCHEM_IUPAC_NAME>
2,6-dichloro-1-N-(4,5-dihydro-1H-imidazol-2-yl)benzene-1,4-diamine

> <PUBCHEM_IUPAC_SYSTEMATIC_NAME>
2,6-bis(chloranyl)-N1-(4,5-dihydro-1H-imidazol-2-yl)benzene-1,4-diamine

> <PUBCHEM_IUPAC_TRADITIONAL_NAME>
(4-amino-2,6-dichloro-phenyl)-(2-imidazolin-2-yl)amine

> <PUBCHEM_IUPAC_INCHI>
InChI=1S/C9H10Cl2N4/c10-6-3-5(12)4-7(11)8(6)15-9-13-1-2-14-9/h3-4H,1-2,12H2,(H2,13,14,15)

> <PUBCHEM_IUPAC_INCHIKEY>
IEJXVRYNEISIKR-UHFFFAOYSA-N

> <PUBCHEM_XLOGP3>
1.3

> <PUBCHEM_EXACT_MASS>
244.028252

> <PUBCHEM_MOLECULAR_FORMULA>
C9H10Cl2N4

> <PUBCHEM_MOLECULAR_WEIGHT>
245.1085

> <PUBCHEM_OPENEYE_CAN_SMILES>
C1CN=C(N1)NC2=C(C=C(C=C2Cl)N)Cl

> <PUBCHEM_OPENEYE_ISO_SMILES>
C1CN=C(N1)NC2=C(C=C(C=C2Cl)N)Cl

> <PUBCHEM_CACTVS_TPSA>
62.4

> <PUBCHEM_MONOISOTOPIC_WEIGHT>
244.028252

> <PUBCHEM_TOTAL_CHARGE>
0

> <PUBCHEM_HEAVY_ATOM_COUNT>
15

> <PUBCHEM_ATOM_DEF_STEREO_COUNT>
0

> <PUBCHEM_ATOM_UDEF_STEREO_COUNT>
0

> <PUBCHEM_BOND_DEF_STEREO_COUNT>
0

> <PUBCHEM_BOND_UDEF_STEREO_COUNT>
0

> <PUBCHEM_ISOTOPIC_ATOM_COUNT>
0

> <PUBCHEM_COMPONENT_COUNT>
1

> <PUBCHEM_CACTVS_TAUTO_COUNT>
2

> <PUBCHEM_COORDINATE_TYPE>
1
5
255

> <PUBCHEM_BONDANNOTATIONS>
10  11  8
10  12  8
11  14  8
12  15  8
13  14  8
13  15  8

$$$$

