25079986
  -OEChem-07051212543D

 87 90  0     1  0  0  0  0  0999 V2000
   -0.9326    1.4828   -0.3041 O   0  0  0  0  0  0  0  0  0  0  0  0
    0.8494    0.6463   -1.5835 O   0  0  0  0  0  0  0  0  0  0  0  0
   -1.0530   -0.6202   -2.0969 O   0  0  0  0  0  0  0  0  0  0  0  0
    2.6214    1.2680    0.5228 O   0  0  0  0  0  0  0  0  0  0  0  0
    1.9864    3.1313   -1.6309 O   0  0  0  0  0  0  0  0  0  0  0  0
   -0.6967    4.6392   -1.9412 O   0  0  0  0  0  0  0  0  0  0  0  0
    3.4499   -0.4994    1.8610 O   0  0  0  0  0  0  0  0  0  0  0  0
   -3.4069   -1.1398   -0.3861 O   0  0  0  0  0  0  0  0  0  0  0  0
    1.4316   -1.3588   -3.3942 O   0  0  0  0  0  0  0  0  0  0  0  0
    0.4871   -3.5335   -0.6417 O   0  0  0  0  0  0  0  0  0  0  0  0
   -0.9077   -2.9571   -3.9429 O   0  0  0  0  0  0  0  0  0  0  0  0
   -3.5296   -1.7096    1.9076 O   0  0  0  0  0  0  0  0  0  0  0  0
   -3.5192    3.0404   -2.3063 O   0  0  0  0  0  0  0  0  0  0  0  0
    4.6815    2.9184    1.3554 O   0  0  0  0  0  0  0  0  0  0  0  0
    6.9303    1.3298    0.5210 O   0  0  0  0  0  0  0  0  0  0  0  0
    6.2959   -1.0192    1.8549 O   0  0  0  0  0  0  0  0  0  0  0  0
   -6.0625   -0.3594   -0.3761 O   0  0  0  0  0  0  0  0  0  0  0  0
   -5.9594    1.6516    1.6786 O   0  0  0  0  0  0  0  0  0  0  0  0
   -4.8710    0.1101    3.7129 O   0  0  0  0  0  0  0  0  0  0  0  0
    4.6879   -3.3783    0.0412 O   0  0  0  0  0  0  0  0  0  0  0  0
   -0.9340   -1.4409    3.2693 O   0  0  0  0  0  0  0  0  0  0  0  0
    0.4897    1.5319   -0.5220 C   0  0  1  0  0  0  0  0  0  0  0  0
    0.7599    2.9719   -0.9462 C   0  0  2  0  0  0  0  0  0  0  0  0
   -0.4399    3.2520   -1.8257 C   0  0  1  0  0  0  0  0  0  0  0  0
   -1.5490    2.5560   -1.0449 C   0  0  1  0  0  0  0  0  0  0  0  0
    0.2128   -0.6220   -1.4400 C   0  0  1  0  0  0  0  0  0  0  0  0
    1.2280    1.1389    0.7479 C   0  0  0  0  0  0  0  0  0  0  0  0
    1.1268   -1.6927   -2.0394 C   0  0  1  0  0  0  0  0  0  0  0  0
   -1.7878   -1.8466   -1.9957 C   0  0  1  0  0  0  0  0  0  0  0  0
    0.4704   -3.0743   -1.9896 C   0  0  2  0  0  0  0  0  0  0  0  0
   -0.9704   -3.0418   -2.5157 C   0  0  2  0  0  0  0  0  0  0  0  0
   -2.6386    1.9911   -1.9397 C   0  0  0  0  0  0  0  0  0  0  0  0
    3.3775    0.9175    1.6810 C   0  0  1  0  0  0  0  0  0  0  0  0
   -2.3375   -2.0460   -0.5846 C   0  0  0  0  0  0  0  0  0  0  0  0
    4.7825    1.5187    1.5960 C   0  0  1  0  0  0  0  0  0  0  0  0
    5.5905    0.8464    0.4860 C   0  0  2  0  0  0  0  0  0  0  0  0
    5.5767   -0.6740    0.6684 C   0  0  2  0  0  0  0  0  0  0  0  0
    4.1342   -1.1807    0.7978 C   0  0  1  0  0  0  0  0  0  0  0  0
   -4.2552   -1.5497    0.6856 C   0  0  1  0  0  0  0  0  0  0  0  0
   -5.3967   -0.5463    0.8685 C   0  0  1  0  0  0  0  0  0  0  0  0
   -4.8634    0.7878    1.3908 C   0  0  2  0  0  0  0  0  0  0  0  0
   -4.0258    0.5649    2.6531 C   0  0  2  0  0  0  0  0  0  0  0  0
   -2.9440   -0.4916    2.3935 C   0  0  1  0  0  0  0  0  0  0  0  0
    4.0679   -2.6736    1.1016 C   0  0  0  0  0  0  0  0  0  0  0  0
   -2.1574   -0.8395    3.6528 C   0  0  0  0  0  0  0  0  0  0  0  0
    0.7582    3.6549   -0.0870 H   0  0  0  0  0  0  0  0  0  0  0  0
   -0.2980    2.8452   -2.8331 H   0  0  0  0  0  0  0  0  0  0  0  0
   -1.9975    3.2381   -0.3116 H   0  0  0  0  0  0  0  0  0  0  0  0
    0.0706   -0.8680   -0.3874 H   0  0  0  0  0  0  0  0  0  0  0  0
    0.9989    0.1216    1.0781 H   0  0  0  0  0  0  0  0  0  0  0  0
    0.9201    1.8046    1.5650 H   0  0  0  0  0  0  0  0  0  0  0  0
    2.0747   -1.7000   -1.4956 H   0  0  0  0  0  0  0  0  0  0  0  0
   -2.6459   -1.7041   -2.6652 H   0  0  0  0  0  0  0  0  0  0  0  0
    1.0627   -3.7769   -2.5884 H   0  0  0  0  0  0  0  0  0  0  0  0
   -1.4823   -3.9811   -2.2761 H   0  0  0  0  0  0  0  0  0  0  0  0
   -3.2168    1.2256   -1.4192 H   0  0  0  0  0  0  0  0  0  0  0  0
   -2.2301    1.5410   -2.8496 H   0  0  0  0  0  0  0  0  0  0  0  0
    2.8870    1.3433    2.5655 H   0  0  0  0  0  0  0  0  0  0  0  0
   -1.5871   -1.8985    0.1935 H   0  0  0  0  0  0  0  0  0  0  0  0
   -2.7143   -3.0730   -0.5002 H   0  0  0  0  0  0  0  0  0  0  0  0
    5.2979    1.3956    2.5561 H   0  0  0  0  0  0  0  0  0  0  0  0
    5.1769    1.1193   -0.4925 H   0  0  0  0  0  0  0  0  0  0  0  0
    6.0986   -1.1531   -0.1667 H   0  0  0  0  0  0  0  0  0  0  0  0
    3.6129   -0.9866   -0.1449 H   0  0  0  0  0  0  0  0  0  0  0  0
    2.6960    2.8442   -1.0314 H   0  0  0  0  0  0  0  0  0  0  0  0
   -4.6889   -2.5217    0.4206 H   0  0  0  0  0  0  0  0  0  0  0  0
   -0.7922    5.0106   -1.0479 H   0  0  0  0  0  0  0  0  0  0  0  0
   -6.1392   -0.9406    1.5725 H   0  0  0  0  0  0  0  0  0  0  0  0
   -4.2649    1.2821    0.6192 H   0  0  0  0  0  0  0  0  0  0  0  0
   -3.5841    1.5105    2.9852 H   0  0  0  0  0  0  0  0  0  0  0  0
   -2.2456   -0.1145    1.6365 H   0  0  0  0  0  0  0  0  0  0  0  0
    2.0386   -2.0381   -3.7341 H   0  0  0  0  0  0  0  0  0  0  0  0
    0.0846   -4.4185   -0.6278 H   0  0  0  0  0  0  0  0  0  0  0  0
   -1.8176   -3.0163   -4.2809 H   0  0  0  0  0  0  0  0  0  0  0  0
    3.0240   -2.9965    1.1821 H   0  0  0  0  0  0  0  0  0  0  0  0
    4.5599   -2.9233    2.0475 H   0  0  0  0  0  0  0  0  0  0  0  0
   -4.2092    2.6513   -2.8701 H   0  0  0  0  0  0  0  0  0  0  0  0
   -2.7017   -1.5448    4.2891 H   0  0  0  0  0  0  0  0  0  0  0  0
   -1.9173    0.0612    4.2262 H   0  0  0  0  0  0  0  0  0  0  0  0
    5.5862    3.2651    1.2710 H   0  0  0  0  0  0  0  0  0  0  0  0
    7.4233    0.8751   -0.1831 H   0  0  0  0  0  0  0  0  0  0  0  0
    5.7604   -0.7623    2.6242 H   0  0  0  0  0  0  0  0  0  0  0  0
   -6.3810   -1.2291   -0.6723 H   0  0  0  0  0  0  0  0  0  0  0  0
   -5.5927    2.4829    2.0251 H   0  0  0  0  0  0  0  0  0  0  0  0
   -5.1203   -0.8118    3.5323 H   0  0  0  0  0  0  0  0  0  0  0  0
    4.6206   -4.3257    0.2491 H   0  0  0  0  0  0  0  0  0  0  0  0
   -0.4466   -1.6465    4.0852 H   0  0  0  0  0  0  0  0  0  0  0  0
  1 22  1  0  0  0  0
  1 25  1  0  0  0  0
  2 22  1  0  0  0  0
  2 26  1  0  0  0  0
  3 26  1  0  0  0  0
  3 29  1  0  0  0  0
  4 27  1  0  0  0  0
  4 33  1  0  0  0  0
  5 23  1  0  0  0  0
  5 65  1  0  0  0  0
  6 24  1  0  0  0  0
  6 67  1  0  0  0  0
  7 33  1  0  0  0  0
  7 38  1  0  0  0  0
  8 34  1  0  0  0  0
  8 39  1  0  0  0  0
  9 28  1  0  0  0  0
  9 72  1  0  0  0  0
 10 30  1  0  0  0  0
 10 73  1  0  0  0  0
 11 31  1  0  0  0  0
 11 74  1  0  0  0  0
 12 39  1  0  0  0  0
 12 43  1  0  0  0  0
 13 32  1  0  0  0  0
 13 77  1  0  0  0  0
 14 35  1  0  0  0  0
 14 80  1  0  0  0  0
 15 36  1  0  0  0  0
 15 81  1  0  0  0  0
 16 37  1  0  0  0  0
 16 82  1  0  0  0  0
 17 40  1  0  0  0  0
 17 83  1  0  0  0  0
 18 41  1  0  0  0  0
 18 84  1  0  0  0  0
 19 42  1  0  0  0  0
 19 85  1  0  0  0  0
 20 44  1  0  0  0  0
 20 86  1  0  0  0  0
 21 45  1  0  0  0  0
 21 87  1  0  0  0  0
 22 23  1  0  0  0  0
 22 27  1  0  0  0  0
 23 24  1  0  0  0  0
 23 46  1  0  0  0  0
 24 25  1  0  0  0  0
 24 47  1  0  0  0  0
 25 32  1  0  0  0  0
 25 48  1  0  0  0  0
 26 28  1  0  0  0  0
 26 49  1  0  0  0  0
 27 50  1  0  0  0  0
 27 51  1  0  0  0  0
 28 30  1  0  0  0  0
 28 52  1  0  0  0  0
 29 31  1  0  0  0  0
 29 34  1  0  0  0  0
 29 53  1  0  0  0  0
 30 31  1  0  0  0  0
 30 54  1  0  0  0  0
 31 55  1  0  0  0  0
 32 56  1  0  0  0  0
 32 57  1  0  0  0  0
 33 35  1  0  0  0  0
 33 58  1  0  0  0  0
 34 59  1  0  0  0  0
 34 60  1  0  0  0  0
 35 36  1  0  0  0  0
 35 61  1  0  0  0  0
 36 37  1  0  0  0  0
 36 62  1  0  0  0  0
 37 38  1  0  0  0  0
 37 63  1  0  0  0  0
 38 44  1  0  0  0  0
 38 64  1  0  0  0  0
 39 40  1  0  0  0  0
 39 66  1  0  0  0  0
 40 41  1  0  0  0  0
 40 68  1  0  0  0  0
 41 42  1  0  0  0  0
 41 69  1  0  0  0  0
 42 43  1  0  0  0  0
 42 70  1  0  0  0  0
 43 45  1  0  0  0  0
 43 71  1  0  0  0  0
 44 75  1  0  0  0  0
 44 76  1  0  0  0  0
 45 78  1  0  0  0  0
 45 79  1  0  0  0  0
M  END
> <PUBCHEM_COMPOUND_CID>
25079986

> <PUBCHEM_CONFORMER_RMSD>
1.4

> <PUBCHEM_CONFORMER_DIVERSEORDER>
1
11
52
39
34
15
43
32
30
17
49
28
27
38
50
47
21
48
14
45
9
24
20
18
35
10
16
26
55
36
19
40
22
3
46
37
8
44
53
25
54
42
5
13
41
23
4
12
7
29
31
33
6
51
2

> <PUBCHEM_MMFF94_PARTIAL_CHARGES>
59
1 -0.56
10 -0.68
11 -0.68
12 -0.56
13 -0.68
14 -0.68
15 -0.68
16 -0.68
17 -0.68
18 -0.68
19 -0.68
2 -0.56
20 -0.68
21 -0.68
22 0.56
23 0.28
24 0.28
25 0.28
26 0.56
27 0.28
28 0.28
29 0.28
3 -0.56
30 0.28
31 0.28
32 0.28
33 0.56
34 0.28
35 0.28
36 0.28
37 0.28
38 0.28
39 0.56
4 -0.56
40 0.28
41 0.28
42 0.28
43 0.28
44 0.28
45 0.28
5 -0.68
6 -0.68
65 0.4
67 0.4
7 -0.56
72 0.4
73 0.4
74 0.4
77 0.4
8 -0.56
80 0.4
81 0.4
82 0.4
83 0.4
84 0.4
85 0.4
86 0.4
87 0.4
9 -0.68

> <PUBCHEM_EFFECTIVE_ROTOR_COUNT>
15.6

> <PUBCHEM_PHARMACOPHORE_FEATURES>
39
1 1 acceptor
1 10 acceptor
1 10 donor
1 11 acceptor
1 11 donor
1 12 acceptor
1 13 acceptor
1 13 donor
1 14 acceptor
1 14 donor
1 15 acceptor
1 15 donor
1 16 acceptor
1 16 donor
1 17 acceptor
1 17 donor
1 18 acceptor
1 18 donor
1 19 acceptor
1 19 donor
1 2 acceptor
1 20 acceptor
1 20 donor
1 21 acceptor
1 21 donor
1 3 acceptor
1 4 acceptor
1 5 acceptor
1 5 donor
1 6 acceptor
1 6 donor
1 7 acceptor
1 8 acceptor
1 9 acceptor
1 9 donor
5 1 22 23 24 25 rings
6 12 39 40 41 42 43 rings
6 3 26 28 29 30 31 rings
6 7 33 35 36 37 38 rings

> <PUBCHEM_HEAVY_ATOM_COUNT>
45

> <PUBCHEM_ATOM_DEF_STEREO_COUNT>
19

> <PUBCHEM_ATOM_UDEF_STEREO_COUNT>
0

> <PUBCHEM_BOND_DEF_STEREO_COUNT>
0

> <PUBCHEM_BOND_UDEF_STEREO_COUNT>
0

> <PUBCHEM_ISOTOPIC_ATOM_COUNT>
0

> <PUBCHEM_COMPONENT_COUNT>
1

> <PUBCHEM_CACTVS_TAUTO_COUNT>
1

> <PUBCHEM_CONFORMER_ID>
017EB0B200000001

> <PUBCHEM_MMFF94_ENERGY>
143.9808

> <PUBCHEM_FEATURE_SELFOVERLAP>
198.149

> <PUBCHEM_SHAPE_FINGERPRINT>
10010297 198 18270116782637118508
11621639 254 17913760632397084020
12128747 34 17843124959136007658
12156800 1 17056935666837982715
12422481 6 18335697273369996853
12655364 131 17169557530390328222
12786520 15 18122030273993129336
13947947 63 17386833071349041777
14279260 333 17772494484785044098
14705955 166 17986955352351539970
14840074 17 18410011005481489830
15274700 242 17773063962887723448
15775530 1 17903348552389173916
15975801 100 14346359081723879786
16112460 7 17969512515600722136
19319366 153 16539598498376304885
3493558 16 17022894674899205215
469060 322 18124338037757597330
5081480 168 14045456679532702259
513202 73 18271533112469266754
563151 74 17604989402889095817

> <PUBCHEM_SHAPE_MULTIPOLES>
802.82
12.46
4.48
3.9
7.37
0.64
0.58
1.26
10.84
1.2
-4.05
-3.39
-0.9
0.37

> <PUBCHEM_SHAPE_SELFOVERLAP>
1673.665

> <PUBCHEM_SHAPE_VOLUME>
447.7

> <PUBCHEM_COORDINATE_TYPE>
2
5
10

$$$$

