9365
  -OEChem-06261203393D

 55 57  0     1  0  0  0  0  0999 V2000
   -0.0635    1.3173   -1.0296 O   0  0  0  0  0  0  0  0  0  0  0  0
   -3.4543    1.3951    2.2896 O   0  0  0  0  0  0  0  0  0  0  0  0
   -2.3043    0.8759    0.3435 N   0  0  0  0  0  0  0  0  0  0  0  0
    1.3112    0.5797    0.7232 N   0  0  0  0  0  0  0  0  0  0  0  0
   -1.1781   -4.2701   -0.6934 N   0  0  0  0  0  0  0  0  0  0  0  0
   -1.0491   -6.2407    0.6740 N   0  0  0  0  0  0  0  0  0  0  0  0
   -1.1785   -6.4051   -1.5957 N   0  0  0  0  0  0  0  0  0  0  0  0
   -1.0837    0.4468    0.9766 C   0  0  1  0  0  0  0  0  0  0  0  0
   -1.1128   -1.0477    1.3195 C   0  0  0  0  0  0  0  0  0  0  0  0
   -1.1638   -1.9702    0.0956 C   0  0  0  0  0  0  0  0  0  0  0  0
    0.0993    0.8287    0.0850 C   0  0  0  0  0  0  0  0  0  0  0  0
   -1.1279   -3.4373    0.5092 C   0  0  0  0  0  0  0  0  0  0  0  0
    2.6145    0.8031    0.2190 C   0  0  0  0  0  0  0  0  0  0  0  0
   -3.4041    1.3209    1.0646 C   0  0  0  0  0  0  0  0  0  0  0  0
    5.0274    0.7087    0.5150 C   0  0  0  0  0  0  0  0  0  0  0  0
    3.7275    0.4917    1.0004 C   0  0  0  0  0  0  0  0  0  0  0  0
    5.2008    1.2487   -0.7816 C   0  0  0  0  0  0  0  0  0  0  0  0
    2.7851    1.3342   -1.0559 C   0  0  0  0  0  0  0  0  0  0  0  0
   -4.5964    1.7031    0.2650 C   0  0  0  0  0  0  0  0  0  0  0  0
    4.0692    1.5560   -1.5544 C   0  0  0  0  0  0  0  0  0  0  0  0
    6.1589    0.4010    1.2878 C   0  0  0  0  0  0  0  0  0  0  0  0
    6.5007    1.4657   -1.2670 C   0  0  0  0  0  0  0  0  0  0  0  0
    7.4431    0.6232    0.7897 C   0  0  0  0  0  0  0  0  0  0  0  0
   -5.8700    1.6172    0.8272 C   0  0  0  0  0  0  0  0  0  0  0  0
   -4.4422    2.1484   -1.0480 C   0  0  0  0  0  0  0  0  0  0  0  0
    7.6136    1.1546   -0.4851 C   0  0  0  0  0  0  0  0  0  0  0  0
   -1.1360   -5.5540   -0.5166 C   0  0  0  0  0  0  0  0  0  0  0  0
   -6.9896    1.9762    0.0766 C   0  0  0  0  0  0  0  0  0  0  0  0
   -5.5618    2.5076   -1.7985 C   0  0  0  0  0  0  0  0  0  0  0  0
   -6.8354    2.4215   -1.2361 C   0  0  0  0  0  0  0  0  0  0  0  0
   -0.9769    1.0111    1.9125 H   0  0  0  0  0  0  0  0  0  0  0  0
   -1.9863   -1.2534    1.9520 H   0  0  0  0  0  0  0  0  0  0  0  0
   -0.2339   -1.3086    1.9212 H   0  0  0  0  0  0  0  0  0  0  0  0
   -0.3172   -1.7674   -0.5710 H   0  0  0  0  0  0  0  0  0  0  0  0
   -2.0743   -1.7760   -0.4841 H   0  0  0  0  0  0  0  0  0  0  0  0
   -2.3618    0.7672   -0.6636 H   0  0  0  0  0  0  0  0  0  0  0  0
   -1.9865   -3.6522    1.1569 H   0  0  0  0  0  0  0  0  0  0  0  0
   -0.2051   -3.6317    1.0693 H   0  0  0  0  0  0  0  0  0  0  0  0
    1.2798    0.2045    1.6681 H   0  0  0  0  0  0  0  0  0  0  0  0
    3.5848    0.0763    1.9969 H   0  0  0  0  0  0  0  0  0  0  0  0
    1.9750    1.5985   -1.7207 H   0  0  0  0  0  0  0  0  0  0  0  0
    4.1801    1.9716   -2.5540 H   0  0  0  0  0  0  0  0  0  0  0  0
    6.0495   -0.0153    2.2871 H   0  0  0  0  0  0  0  0  0  0  0  0
    6.6578    1.8801   -2.2607 H   0  0  0  0  0  0  0  0  0  0  0  0
    8.3098    0.3810    1.3977 H   0  0  0  0  0  0  0  0  0  0  0  0
   -6.0113    1.2685    1.8468 H   0  0  0  0  0  0  0  0  0  0  0  0
   -3.4674    2.2603   -1.5132 H   0  0  0  0  0  0  0  0  0  0  0  0
    8.6136    1.3272   -0.8723 H   0  0  0  0  0  0  0  0  0  0  0  0
   -7.9814    1.9085    0.5139 H   0  0  0  0  0  0  0  0  0  0  0  0
   -5.4419    2.8613   -2.8184 H   0  0  0  0  0  0  0  0  0  0  0  0
   -7.7070    2.7026   -1.8200 H   0  0  0  0  0  0  0  0  0  0  0  0
   -1.0230   -7.2546    0.6917 H   0  0  0  0  0  0  0  0  0  0  0  0
   -1.0096   -5.7678    1.5698 H   0  0  0  0  0  0  0  0  0  0  0  0
   -1.1477   -7.4119   -1.4786 H   0  0  0  0  0  0  0  0  0  0  0  0
   -1.2434   -6.0475   -2.5425 H   0  0  0  0  0  0  0  0  0  0  0  0
  1 11  2  0  0  0  0
  2 14  2  0  0  0  0
  3  8  1  0  0  0  0
  3 14  1  0  0  0  0
  3 36  1  0  0  0  0
  4 11  1  0  0  0  0
  4 13  1  0  0  0  0
  4 39  1  0  0  0  0
  5 12  1  0  0  0  0
  5 27  2  0  0  0  0
  6 27  1  0  0  0  0
  6 52  1  0  0  0  0
  6 53  1  0  0  0  0
  7 27  1  0  0  0  0
  7 54  1  0  0  0  0
  7 55  1  0  0  0  0
  8  9  1  0  0  0  0
  8 11  1  0  0  0  0
  8 31  1  0  0  0  0
  9 10  1  0  0  0  0
  9 32  1  0  0  0  0
  9 33  1  0  0  0  0
 10 12  1  0  0  0  0
 10 34  1  0  0  0  0
 10 35  1  0  0  0  0
 12 37  1  0  0  0  0
 12 38  1  0  0  0  0
 13 16  2  0  0  0  0
 13 18  1  0  0  0  0
 14 19  1  0  0  0  0
 15 16  1  0  0  0  0
 15 17  1  0  0  0  0
 15 21  2  0  0  0  0
 16 40  1  0  0  0  0
 17 20  1  0  0  0  0
 17 22  2  0  0  0  0
 18 20  2  0  0  0  0
 18 41  1  0  0  0  0
 19 24  2  0  0  0  0
 19 25  1  0  0  0  0
 20 42  1  0  0  0  0
 21 23  1  0  0  0  0
 21 43  1  0  0  0  0
 22 26  1  0  0  0  0
 22 44  1  0  0  0  0
 23 26  2  0  0  0  0
 23 45  1  0  0  0  0
 24 28  1  0  0  0  0
 24 46  1  0  0  0  0
 25 29  2  0  0  0  0
 25 47  1  0  0  0  0
 26 48  1  0  0  0  0
 28 30  2  0  0  0  0
 28 49  1  0  0  0  0
 29 30  1  0  0  0  0
 29 50  1  0  0  0  0
 30 51  1  0  0  0  0
M  END
> <PUBCHEM_COMPOUND_CID>
9365

> <PUBCHEM_CONFORMER_RMSD>
1

> <PUBCHEM_CONFORMER_DIVERSEORDER>
1
324
238
345
23
158
126
336
168
102
228
60
124
195
354
235
288
138
81
372
58
71
321
371
292
353
120
219
178
185
132
43
266
123
112
217
6
252
150
75
233
213
311
283
259
274
164
29
369
257
116
107
317
73
309
182
341
82
147
188
151
265
129
232
111
197
333
24
277
377
49
204
334
20
348
95
212
229
269
307
100
115
110
306
299
295
177
187
184
222
382
276
220
144
38
10
196
191
77
175
167
105
152
198
355
2
153
251
141
387
11
199
134
327
234
380
320
253
318
121
349
247
218
4
205
25
339
352
337
156
373
335
21
287
27
97
70
263
226
225
370
86
298
37
14
87
322
304
101
174
291
312
63
296
237
98
8
258
135
165
169
211
67
201
230
140
93
90
154
326
78
181
131
186
315
350
159
83
248
245
301
280
12
231
254
361
170
136
106
16
179
189
118
103
35
239
51
26
281
378
172
137
125
271
139
223
323
117
243
386
227
362
308
57
39
142
62
145
289
119
194
128
329
130
261
236
84
161
376
305
365
33
284
325
342
216
3
19
114
15
330
109
5
54
241
351
99
64
122
384
256
273
69
92
270
347
381
262
357
127
267
286
268
173
28
207
155
328
246
171
22
91
94
176
290
59
279
34
385
310
17
143
30
332
166
240
360
367
338
96
76
104
56
68
88
163
282
313
264
210
146
358
193
214
340
9
244
285
260
364
272
47
278
80
65
319
356
32
224
242
203
303
302
42
36
41
200
359
221
46
275
162
344
180
72
85
316
48
208
40
215
31
293
374
300
346
294
7
183
255
133
13
79
206
249
314
368
383
45
190
297
192
157
55
61
74
44
18
113
149
343
366
375
209
160
379
89
53
66
331
148
202
52
250
50
363
108

> <PUBCHEM_MMFF94_PARTIAL_CHARGES>
44
1 -0.57
11 0.57
12 0.25
13 0.12
14 0.54
16 -0.15
18 -0.15
19 0.09
2 -0.57
20 -0.15
21 -0.15
22 -0.15
23 -0.15
24 -0.15
25 -0.15
26 -0.15
27 0.55
28 -0.15
29 -0.15
3 -0.73
30 -0.15
36 0.37
39 0.37
4 -0.55
40 0.15
41 0.15
42 0.15
43 0.15
44 0.15
45 0.15
46 0.15
47 0.15
48 0.15
49 0.15
5 -0.7
50 0.15
51 0.15
52 0.4
53 0.4
54 0.4
55 0.4
6 -0.85
7 -0.85
8 0.36

> <PUBCHEM_EFFECTIVE_ROTOR_COUNT>
10

> <PUBCHEM_PHARMACOPHORE_FEATURES>
10
1 1 acceptor
1 2 acceptor
1 3 donor
1 4 donor
1 6 donor
1 7 donor
4 5 6 7 27 cation
6 13 15 16 17 18 20 rings
6 15 17 21 22 23 26 rings
6 19 24 25 28 29 30 rings

> <PUBCHEM_HEAVY_ATOM_COUNT>
30

> <PUBCHEM_ATOM_DEF_STEREO_COUNT>
0

> <PUBCHEM_ATOM_UDEF_STEREO_COUNT>
1

> <PUBCHEM_BOND_DEF_STEREO_COUNT>
0

> <PUBCHEM_BOND_UDEF_STEREO_COUNT>
0

> <PUBCHEM_ISOTOPIC_ATOM_COUNT>
0

> <PUBCHEM_COMPONENT_COUNT>
1

> <PUBCHEM_CACTVS_TAUTO_COUNT>
8

> <PUBCHEM_CONFORMER_ID>
0000249500000001

> <PUBCHEM_MMFF94_ENERGY>
89.4164

> <PUBCHEM_FEATURE_SELFOVERLAP>
50.826

> <PUBCHEM_SHAPE_FINGERPRINT>
102385 1 17832989351866854721
10369192 42 18272932756707385493
11135926 11 18337672027389450721
11297750 10 17682681714376665739
11488393 25 17909835671510023099
11524674 6 18342175574680485709
11621639 307 16913667918907475868
11796584 16 18335413544732876490
11991303 11 18411980221974549735
12597179 24 18260543446067207822
13911987 19 18410575119762088273
13968360 50 18339367482582082307
15131766 46 14834402430802392028
15439362 3 18124032597122117053
15849732 13 17703788141204544068
15878777 1 10078115003704815915
20505436 4 18060703888152149482
21365058 27 18409167731982427815
25019877 29 18342175600571564285
3103668 31 18194128404924485079
4015057 19 16515971363136682536
4017518 198 18409444830345947918
44802255 64 18343293760620167668
45266715 3 18187920754813802246
504843 32 18342454825191613563
5223283 242 17255131043561199327
6669772 16 18335135457620803871
6691757 9 18260540113546742746
6898599 12 18267861684130177436

> <PUBCHEM_SHAPE_MULTIPOLES>
580.74
19.28
6.45
1.59
12.4
22.53
0.05
-23.21
2.15
-8.48
2.95
-0.48
-0.31
-0.27

> <PUBCHEM_SHAPE_SELFOVERLAP>
1239.499

> <PUBCHEM_SHAPE_VOLUME>
318.9

> <PUBCHEM_COORDINATE_TYPE>
2
5
10

$$$$

