5792
  -OEChem-06261200532D

 29 31  0     1  0  0  0  0  0999 V2000
    6.7619    1.4680    0.0000 O   0  0  0  0  0  0  0  0  0  0  0  0
    4.6783    1.4067    0.0000 N   0  0  0  0  0  0  0  0  0  0  0  0
    4.6783   -0.2027    0.0000 N   0  0  0  0  0  0  0  0  0  0  0  0
    6.2619    0.6020    0.0000 C   0  0  3  0  0  0  0  0  0  0  0  0
    5.2619    0.6020    0.0000 C   0  0  0  0  0  0  0  0  0  0  0  0
    3.7320    1.1020    0.0000 C   0  0  0  0  0  0  0  0  0  0  0  0
    6.7619   -0.2640    0.0000 C   0  0  0  0  0  0  0  0  0  0  0  0
    3.7320    0.1020    0.0000 C   0  0  0  0  0  0  0  0  0  0  0  0
    2.8660    1.6020    0.0000 C   0  0  0  0  0  0  0  0  0  0  0  0
    2.8660   -0.3980    0.0000 C   0  0  0  0  0  0  0  0  0  0  0  0
    6.2619   -1.1300    0.0000 C   0  0  0  0  0  0  0  0  0  0  0  0
    7.7619   -0.2640    0.0000 C   0  0  0  0  0  0  0  0  0  0  0  0
    2.0000    1.1020    0.0000 C   0  0  0  0  0  0  0  0  0  0  0  0
    2.0000    0.1020    0.0000 C   0  0  0  0  0  0  0  0  0  0  0  0
    6.7619   -1.9961    0.0000 C   0  0  0  0  0  0  0  0  0  0  0  0
    8.2619   -1.1300    0.0000 C   0  0  0  0  0  0  0  0  0  0  0  0
    7.7619   -1.9961    0.0000 C   0  0  0  0  0  0  0  0  0  0  0  0
    6.8819    0.6020    0.0000 H   0  0  0  0  0  0  0  0  0  0  0  0
    4.8709    1.9961    0.0000 H   0  0  0  0  0  0  0  0  0  0  0  0
    2.8660    2.2220    0.0000 H   0  0  0  0  0  0  0  0  0  0  0  0
    2.8660   -1.0180    0.0000 H   0  0  0  0  0  0  0  0  0  0  0  0
    5.6419   -1.1300    0.0000 H   0  0  0  0  0  0  0  0  0  0  0  0
    8.0719    0.2729    0.0000 H   0  0  0  0  0  0  0  0  0  0  0  0
    1.4631    1.4120    0.0000 H   0  0  0  0  0  0  0  0  0  0  0  0
    1.4631   -0.2080    0.0000 H   0  0  0  0  0  0  0  0  0  0  0  0
    7.3819    1.4680    0.0000 H   0  0  0  0  0  0  0  0  0  0  0  0
    6.4519   -2.5330    0.0000 H   0  0  0  0  0  0  0  0  0  0  0  0
    8.8819   -1.1300    0.0000 H   0  0  0  0  0  0  0  0  0  0  0  0
    8.0719   -2.5330    0.0000 H   0  0  0  0  0  0  0  0  0  0  0  0
  1  4  1  0  0  0  0
  1 26  1  0  0  0  0
  2  5  1  0  0  0  0
  2  6  1  0  0  0  0
  2 19  1  0  0  0  0
  3  5  2  0  0  0  0
  3  8  1  0  0  0  0
  4  5  1  0  0  0  0
  4  7  1  0  0  0  0
  4 18  1  0  0  0  0
  6  8  1  0  0  0  0
  6  9  2  0  0  0  0
  7 11  2  0  0  0  0
  7 12  1  0  0  0  0
  8 10  2  0  0  0  0
  9 13  1  0  0  0  0
  9 20  1  0  0  0  0
 10 14  1  0  0  0  0
 10 21  1  0  0  0  0
 11 15  1  0  0  0  0
 11 22  1  0  0  0  0
 12 16  2  0  0  0  0
 12 23  1  0  0  0  0
 13 14  2  0  0  0  0
 13 24  1  0  0  0  0
 14 25  1  0  0  0  0
 15 17  2  0  0  0  0
 15 27  1  0  0  0  0
 16 17  1  0  0  0  0
 16 28  1  0  0  0  0
 17 29  1  0  0  0  0
M  END
> <PUBCHEM_COMPOUND_CID>
5792

> <PUBCHEM_COMPOUND_CANONICALIZED>
1

> <PUBCHEM_CACTVS_COMPLEXITY>
253

> <PUBCHEM_CACTVS_HBOND_ACCEPTOR>
2

> <PUBCHEM_CACTVS_HBOND_DONOR>
2

> <PUBCHEM_CACTVS_ROTATABLE_BOND>
2

> <PUBCHEM_CACTVS_SUBSKEYS>
AAADccBzIAAAAAAAAAAAAAAAAAAAAWAAAAAwYAAAAAAAAFgB9AAAHgAQCAAADByhnwIx0LbJkgCgAyZiZASCgC2hEqAJmSAwfJiKfqLAmZGUcAhs0APY2CeQwKAOAAAAAAAAACAAAAAAAAAAQAAAAAAAAA==

> <PUBCHEM_IUPAC_OPENEYE_NAME>
1H-benzimidazol-2-yl(phenyl)methanol

> <PUBCHEM_IUPAC_CAS_NAME>
1H-benzimidazol-2-yl(phenyl)methanol

> <PUBCHEM_IUPAC_NAME>
1H-benzimidazol-2-yl(phenyl)methanol

> <PUBCHEM_IUPAC_SYSTEMATIC_NAME>
1H-benzimidazol-2-yl(phenyl)methanol

> <PUBCHEM_IUPAC_TRADITIONAL_NAME>
1H-benzimidazol-2-yl(phenyl)methanol

> <PUBCHEM_IUPAC_INCHI>
InChI=1S/C14H12N2O/c17-13(10-6-2-1-3-7-10)14-15-11-8-4-5-9-12(11)16-14/h1-9,13,17H,(H,15,16)

> <PUBCHEM_IUPAC_INCHIKEY>
JEAWPIKEEQZLJQ-UHFFFAOYSA-N

> <PUBCHEM_XLOGP3>
2.4

> <PUBCHEM_EXACT_MASS>
224.094963

> <PUBCHEM_MOLECULAR_FORMULA>
C14H12N2O

> <PUBCHEM_MOLECULAR_WEIGHT>
224.25788

> <PUBCHEM_OPENEYE_CAN_SMILES>
C1=CC=C(C=C1)C(C2=NC3=CC=CC=C3N2)O

> <PUBCHEM_OPENEYE_ISO_SMILES>
C1=CC=C(C=C1)C(C2=NC3=CC=CC=C3N2)O

> <PUBCHEM_CACTVS_TPSA>
48.9

> <PUBCHEM_MONOISOTOPIC_WEIGHT>
224.094963

> <PUBCHEM_TOTAL_CHARGE>
0

> <PUBCHEM_HEAVY_ATOM_COUNT>
17

> <PUBCHEM_ATOM_DEF_STEREO_COUNT>
0

> <PUBCHEM_ATOM_UDEF_STEREO_COUNT>
1

> <PUBCHEM_BOND_DEF_STEREO_COUNT>
0

> <PUBCHEM_BOND_UDEF_STEREO_COUNT>
0

> <PUBCHEM_ISOTOPIC_ATOM_COUNT>
0

> <PUBCHEM_COMPONENT_COUNT>
1

> <PUBCHEM_CACTVS_TAUTO_COUNT>
1

> <PUBCHEM_COORDINATE_TYPE>
1
5
255

> <PUBCHEM_BONDANNOTATIONS>
4  1  3
10  14  8
11  15  8
12  16  8
13  14  8
15  17  8
16  17  8
2  5  8
2  6  8
3  5  8
3  8  8
6  8  8
6  9  8
7  11  8
7  12  8
8  10  8
9  13  8

$$$$

