586324
  -OEChem-06241222462D

 30 30  0     0  0  0  0  0  0999 V2000
    4.5981    2.9050    0.0000 S   0  0  0  0  0  0  0  0  0  0  0  0
    3.7320    0.4050    0.0000 O   0  0  0  0  0  0  0  0  0  0  0  0
    2.0000    0.4050    0.0000 O   0  0  0  0  0  0  0  0  0  0  0  0
    2.8660   -4.0950    0.0000 N   0  0  0  0  0  0  0  0  0  0  0  0
    4.5981    1.9050    0.0000 C   0  0  0  0  0  0  0  0  0  0  0  0
    3.7320    1.4050    0.0000 C   0  0  0  0  0  0  0  0  0  0  0  0
    2.8660   -1.0950    0.0000 C   0  0  0  0  0  0  0  0  0  0  0  0
    5.4641    3.4050    0.0000 C   0  0  0  0  0  0  0  0  0  0  0  0
    2.8660   -0.0950    0.0000 C   0  0  0  0  0  0  0  0  0  0  0  0
    2.0000   -1.5950    0.0000 C   0  0  0  0  0  0  0  0  0  0  0  0
    3.7320   -1.5950    0.0000 C   0  0  0  0  0  0  0  0  0  0  0  0
    2.8660   -3.0950    0.0000 C   0  0  0  0  0  0  0  0  0  0  0  0
    2.0000   -2.5950    0.0000 C   0  0  0  0  0  0  0  0  0  0  0  0
    3.7320   -2.5950    0.0000 C   0  0  0  0  0  0  0  0  0  0  0  0
    5.4641    4.4050    0.0000 C   0  0  0  0  0  0  0  0  0  0  0  0
    4.8101    1.3224    0.0000 H   0  0  0  0  0  0  0  0  0  0  0  0
    5.2087    2.0127    0.0000 H   0  0  0  0  0  0  0  0  0  0  0  0
    3.5200    1.9876    0.0000 H   0  0  0  0  0  0  0  0  0  0  0  0
    3.1215    1.2973    0.0000 H   0  0  0  0  0  0  0  0  0  0  0  0
    5.6762    2.8224    0.0000 H   0  0  0  0  0  0  0  0  0  0  0  0
    6.0747    3.5127    0.0000 H   0  0  0  0  0  0  0  0  0  0  0  0
    1.4631   -1.2850    0.0000 H   0  0  0  0  0  0  0  0  0  0  0  0
    4.2690   -1.2850    0.0000 H   0  0  0  0  0  0  0  0  0  0  0  0
    1.4631   -2.9050    0.0000 H   0  0  0  0  0  0  0  0  0  0  0  0
    4.2690   -2.9050    0.0000 H   0  0  0  0  0  0  0  0  0  0  0  0
    6.0841    4.4050    0.0000 H   0  0  0  0  0  0  0  0  0  0  0  0
    5.4641    5.0250    0.0000 H   0  0  0  0  0  0  0  0  0  0  0  0
    4.8441    4.4050    0.0000 H   0  0  0  0  0  0  0  0  0  0  0  0
    2.3291   -4.4050    0.0000 H   0  0  0  0  0  0  0  0  0  0  0  0
    3.4030   -4.4050    0.0000 H   0  0  0  0  0  0  0  0  0  0  0  0
  1  5  1  0  0  0  0
  1  8  1  0  0  0  0
  2  6  1  0  0  0  0
  2  9  1  0  0  0  0
  3  9  2  0  0  0  0
  4 12  1  0  0  0  0
  4 29  1  0  0  0  0
  4 30  1  0  0  0  0
  5  6  1  0  0  0  0
  5 16  1  0  0  0  0
  5 17  1  0  0  0  0
  6 18  1  0  0  0  0
  6 19  1  0  0  0  0
  7  9  1  0  0  0  0
  7 10  2  0  0  0  0
  7 11  1  0  0  0  0
  8 15  1  0  0  0  0
  8 20  1  0  0  0  0
  8 21  1  0  0  0  0
 10 13  1  0  0  0  0
 10 22  1  0  0  0  0
 11 14  2  0  0  0  0
 11 23  1  0  0  0  0
 12 13  2  0  0  0  0
 12 14  1  0  0  0  0
 13 24  1  0  0  0  0
 14 25  1  0  0  0  0
 15 26  1  0  0  0  0
 15 27  1  0  0  0  0
 15 28  1  0  0  0  0
M  END
> <PUBCHEM_COMPOUND_CID>
586324

> <PUBCHEM_COMPOUND_CANONICALIZED>
1

> <PUBCHEM_CACTVS_COMPLEXITY>
191

> <PUBCHEM_CACTVS_HBOND_ACCEPTOR>
4

> <PUBCHEM_CACTVS_HBOND_DONOR>
1

> <PUBCHEM_CACTVS_ROTATABLE_BOND>
6

> <PUBCHEM_CACTVS_SUBSKEYS>
AAADccByMABAAAAAAAAAAAAAAAAAAAAAAAAwAAAAAAAAAAABAAAAHgQQAAAADAil2AKyyIBABAiIAiTSSACCAAAkAhAIiAEAbMgIJjKAtZmCMQBk0AEo6YeY2SGeCAAAAAAAAAAQAAAAAAAAAAAAAAAAAA==

> <PUBCHEM_IUPAC_OPENEYE_NAME>
2-ethylsulfanylethyl 4-aminobenzoate

> <PUBCHEM_IUPAC_CAS_NAME>
4-aminobenzoic acid 2-(ethylthio)ethyl ester

> <PUBCHEM_IUPAC_NAME>
2-ethylsulfanylethyl 4-aminobenzoate

> <PUBCHEM_IUPAC_SYSTEMATIC_NAME>
2-ethylsulfanylethyl 4-azanylbenzoate

> <PUBCHEM_IUPAC_TRADITIONAL_NAME>
4-aminobenzoic acid 2-(ethylthio)ethyl ester

> <PUBCHEM_IUPAC_INCHI>
InChI=1S/C11H15NO2S/c1-2-15-8-7-14-11(13)9-3-5-10(12)6-4-9/h3-6H,2,7-8,12H2,1H3

> <PUBCHEM_IUPAC_INCHIKEY>
FEPFKHGFMRPJKT-UHFFFAOYSA-N

> <PUBCHEM_XLOGP3>
2.5

> <PUBCHEM_EXACT_MASS>
225.08235

> <PUBCHEM_MOLECULAR_FORMULA>
C11H15NO2S

> <PUBCHEM_MOLECULAR_WEIGHT>
225.3073

> <PUBCHEM_OPENEYE_CAN_SMILES>
CCSCCOC(=O)C1=CC=C(C=C1)N

> <PUBCHEM_OPENEYE_ISO_SMILES>
CCSCCOC(=O)C1=CC=C(C=C1)N

> <PUBCHEM_CACTVS_TPSA>
77.6

> <PUBCHEM_MONOISOTOPIC_WEIGHT>
225.08235

> <PUBCHEM_TOTAL_CHARGE>
0

> <PUBCHEM_HEAVY_ATOM_COUNT>
15

> <PUBCHEM_ATOM_DEF_STEREO_COUNT>
0

> <PUBCHEM_ATOM_UDEF_STEREO_COUNT>
0

> <PUBCHEM_BOND_DEF_STEREO_COUNT>
0

> <PUBCHEM_BOND_UDEF_STEREO_COUNT>
0

> <PUBCHEM_ISOTOPIC_ATOM_COUNT>
0

> <PUBCHEM_COMPONENT_COUNT>
1

> <PUBCHEM_CACTVS_TAUTO_COUNT>
3

> <PUBCHEM_COORDINATE_TYPE>
1
5
255

> <PUBCHEM_BONDANNOTATIONS>
10  13  8
11  14  8
12  13  8
12  14  8
7  10  8
7  11  8

$$$$

