47936
  -OEChem-07051212562D

 63 65  0     1  0  0  0  0  0999 V2000
    4.4094   -0.8604    0.0000 O   0  0  0  0  0  0  0  0  0  0  0  0
    4.9613    1.6140    0.0000 O   0  0  0  0  0  0  0  0  0  0  0  0
    7.9014   -0.8257    0.0000 O   0  0  0  0  0  0  0  0  0  0  0  0
    6.1694   -1.8257    0.0000 O   0  0  0  0  0  0  0  0  0  0  0  0
    5.2816    2.7058    0.0000 O   0  0  0  0  0  0  0  0  0  0  0  0
    3.5492    1.7189    0.0000 O   0  0  0  0  0  0  0  0  0  0  0  0
    7.9014   -1.8257    0.0000 O   0  0  0  0  0  0  0  0  0  0  0  0
    6.1694    1.1743    0.0000 C   0  0  1  0  0  0  0  0  0  0  0  0
    7.0354    0.6743    0.0000 C   0  0  2  0  0  0  0  0  0  0  0  0
    5.3033    0.6743    0.0000 C   0  0  1  0  0  0  0  0  0  0  0  0
    5.3033   -0.3257    0.0000 C   0  0  1  0  0  0  0  0  0  0  0  0
    7.9454    1.1811    0.0000 C   0  0  0  0  0  0  0  0  0  0  0  0
    7.0354   -0.3257    0.0000 C   0  0  1  0  0  0  0  0  0  0  0  0
    6.1533    2.2158    0.0000 C   0  0  2  0  0  0  0  0  0  0  0  0
    6.1694   -0.8257    0.0000 C   0  0  2  0  0  0  0  0  0  0  0  0
    7.9534    2.2227    0.0000 C   0  0  0  0  0  0  0  0  0  0  0  0
    7.0513    2.7436    0.0000 C   0  0  0  0  0  0  0  0  0  0  0  0
    5.5266    1.9403    0.0000 C   0  0  0  0  0  0  0  0  0  0  0  0
    4.4094    1.2090    0.0000 C   0  0  0  0  0  0  0  0  0  0  0  0
    5.3033   -1.3257    0.0000 C   0  0  0  0  0  0  0  0  0  0  0  0
    8.9453    1.1696    0.0000 C   0  0  0  0  0  0  0  0  0  0  0  0
    8.4353    0.3094    0.0000 C   0  0  0  0  0  0  0  0  0  0  0  0
    3.5033   -0.3465    0.0000 C   0  0  1  0  0  0  0  0  0  0  0  0
    3.5033    0.6951    0.0000 C   0  0  0  0  0  0  0  0  0  0  0  0
    3.0067   -1.2145    0.0000 C   0  0  0  0  0  0  0  0  0  0  0  0
    2.5033   -0.3504    0.0000 C   0  0  0  0  0  0  0  0  0  0  0  0
    7.0354   -2.3257    0.0000 C   0  0  0  0  0  0  0  0  0  0  0  0
    2.0000    0.5137    0.0000 C   0  0  0  0  0  0  0  0  0  0  0  0
    7.0354   -3.3257    0.0000 C   0  0  0  0  0  0  0  0  0  0  0  0
    7.7682    0.2436    0.0000 H   0  0  0  0  0  0  0  0  0  0  0  0
    7.0354   -0.9457    0.0000 H   0  0  0  0  0  0  0  0  0  0  0  0
    5.6206    1.8986    0.0000 H   0  0  0  0  0  0  0  0  0  0  0  0
    6.7063   -1.1357    0.0000 H   0  0  0  0  0  0  0  0  0  0  0  0
    8.5634    2.1119    0.0000 H   0  0  0  0  0  0  0  0  0  0  0  0
    8.1670    2.8048    0.0000 H   0  0  0  0  0  0  0  0  0  0  0  0
    7.4486    3.2195    0.0000 H   0  0  0  0  0  0  0  0  0  0  0  0
    6.6504    3.2164    0.0000 H   0  0  0  0  0  0  0  0  0  0  0  0
    6.0015    2.3389    0.0000 H   0  0  0  0  0  0  0  0  0  0  0  0
    5.1280    2.4153    0.0000 H   0  0  0  0  0  0  0  0  0  0  0  0
    5.0516    1.5418    0.0000 H   0  0  0  0  0  0  0  0  0  0  0  0
    4.6833   -1.3257    0.0000 H   0  0  0  0  0  0  0  0  0  0  0  0
    5.3033   -1.9457    0.0000 H   0  0  0  0  0  0  0  0  0  0  0  0
    5.9233   -1.3257    0.0000 H   0  0  0  0  0  0  0  0  0  0  0  0
    7.8949    0.0056    0.0000 H   0  0  0  0  0  0  0  0  0  0  0  0
    8.7391   -0.2311    0.0000 H   0  0  0  0  0  0  0  0  0  0  0  0
    8.9758    0.6132    0.0000 H   0  0  0  0  0  0  0  0  0  0  0  0
    8.9382    0.5496    0.0000 H   0  0  0  0  0  0  0  0  0  0  0  0
    9.5653    1.1624    0.0000 H   0  0  0  0  0  0  0  0  0  0  0  0
    8.9525    1.7895    0.0000 H   0  0  0  0  0  0  0  0  0  0  0  0
    3.2943    1.2788    0.0000 H   0  0  0  0  0  0  0  0  0  0  0  0
    2.8925    0.5890    0.0000 H   0  0  0  0  0  0  0  0  0  0  0  0
    4.4864    2.0125    0.0000 H   0  0  0  0  0  0  0  0  0  0  0  0
    8.4384   -0.5157    0.0000 H   0  0  0  0  0  0  0  0  0  0  0  0
    5.2744    3.3257    0.0000 H   0  0  0  0  0  0  0  0  0  0  0  0
    2.4685   -0.9065    0.0000 H   0  0  0  0  0  0  0  0  0  0  0  0
    2.6987   -1.7526    0.0000 H   0  0  0  0  0  0  0  0  0  0  0  0
    3.5448   -1.5224    0.0000 H   0  0  0  0  0  0  0  0  0  0  0  0
    2.1954   -0.8885    0.0000 H   0  0  0  0  0  0  0  0  0  0  0  0
    2.3079    1.0518    0.0000 H   0  0  0  0  0  0  0  0  0  0  0  0
    1.3800    0.5113    0.0000 H   0  0  0  0  0  0  0  0  0  0  0  0
    6.4154   -3.3257    0.0000 H   0  0  0  0  0  0  0  0  0  0  0  0
    7.0354   -3.9457    0.0000 H   0  0  0  0  0  0  0  0  0  0  0  0
    7.6554   -3.3257    0.0000 H   0  0  0  0  0  0  0  0  0  0  0  0
  1 11  1  0  0  0  0
  1 23  1  0  0  0  0
 10  2  1  1  0  0  0
  2 52  1  0  0  0  0
 13  3  1  6  0  0  0
  3 53  1  0  0  0  0
 15  4  1  6  0  0  0
  4 27  1  0  0  0  0
 14  5  1  1  0  0  0
  5 54  1  0  0  0  0
  6 19  2  0  0  0  0
  7 27  2  0  0  0  0
  8  9  1  0  0  0  0
  8 10  1  0  0  0  0
  8 14  1  0  0  0  0
  8 18  1  6  0  0  0
  9 12  1  0  0  0  0
  9 13  1  0  0  0  0
  9 30  1  1  0  0  0
 10 11  1  0  0  0  0
 10 19  1  0  0  0  0
 11 15  1  0  0  0  0
 11 20  1  6  0  0  0
 12 16  1  0  0  0  0
 12 21  1  0  0  0  0
 12 22  1  0  0  0  0
 13 15  1  0  0  0  0
 13 31  1  0  0  0  0
 14 17  1  0  0  0  0
 14 32  1  0  0  0  0
 15 33  1  0  0  0  0
 16 17  1  0  0  0  0
 16 34  1  0  0  0  0
 16 35  1  0  0  0  0
 17 36  1  0  0  0  0
 17 37  1  0  0  0  0
 18 38  1  0  0  0  0
 18 39  1  0  0  0  0
 18 40  1  0  0  0  0
 19 24  1  0  0  0  0
 20 41  1  0  0  0  0
 20 42  1  0  0  0  0
 20 43  1  0  0  0  0
 21 47  1  0  0  0  0
 21 48  1  0  0  0  0
 21 49  1  0  0  0  0
 22 44  1  0  0  0  0
 22 45  1  0  0  0  0
 22 46  1  0  0  0  0
 23 24  1  0  0  0  0
 23 25  1  6  0  0  0
 23 26  1  0  0  0  0
 24 50  1  0  0  0  0
 24 51  1  0  0  0  0
 25 55  1  0  0  0  0
 25 56  1  0  0  0  0
 25 57  1  0  0  0  0
 26 28  2  0  0  0  0
 26 58  1  0  0  0  0
 27 29  1  0  0  0  0
 28 59  1  0  0  0  0
 28 60  1  0  0  0  0
 29 61  1  0  0  0  0
 29 62  1  0  0  0  0
 29 63  1  0  0  0  0
M  END
> <PUBCHEM_COMPOUND_CID>
47936

> <PUBCHEM_COMPOUND_CANONICALIZED>
1

> <PUBCHEM_MOLECULAR_WEIGHT>
410.50116

> <PUBCHEM_MONOISOTOPIC_WEIGHT>
410.230453

> <PUBCHEM_EXACT_MASS>
410.230453

> <PUBCHEM_MOLECULAR_FORMULA>
C22H34O7

> <PUBCHEM_IUPAC_INCHI>
InChI=1S/C22H34O7/c1-8-19(5)11-14(25)22(27)20(6)13(24)9-10-18(3,4)16(20)15(26)17(28-12(2)23)21(22,7)29-19/h8,13,15-17,24,26-27H,1,9-11H2,2-7H3/t13-,15-,16-,17-,19-,20-,21+,22-/m0/s1

> <PUBCHEM_IUPAC_INCHIKEY>
OHCQJHSOBUTRHG-KGGHGJDLSA-N

> <PUBCHEM_XLOGP3_AA>
1

> <PUBCHEM_OPENEYE_CAN_SMILES>
CC(=O)OC1C(C2C(CCC(C2(C3(C1(OC(CC3=O)(C)C=C)C)O)C)O)(C)C)O

> <PUBCHEM_OPENEYE_ISO_SMILES>
CC(=O)O[C@H]1[C@H]([C@@H]2[C@]([C@H](CCC2(C)C)O)([C@@]3([C@@]1(O[C@@](CC3=O)(C)C=C)C)O)C)O

> <PUBCHEM_IUPAC_NAME>
[(3R,4aR,5S,6S,6aS,10S,10aR,10bS)-3-ethenyl-6,10,10b-trihydroxy-3,4a,7,7,10a-pentamethyl-1-oxo-5,6,6a,8,9,10-hexahydro-2H-benzo[f]chromen-5-yl] acetate

> <PUBCHEM_IUPAC_OPENEYE_NAME>
[(3R,4aR,5S,6S,6aS,10S,10aR,10bS)-6,10,10b-trihydroxy-3,4a,7,7,10a-pentamethyl-1-oxo-3-vinyl-5,6,6a,8,9,10-hexahydro-2H-benzo[f]chromen-5-yl] acetate

> <PUBCHEM_IUPAC_CAS_NAME>
acetic acid [(3R,4aR,5S,6S,6aS,10S,10aR,10bS)-3-ethenyl-6,10,10b-trihydroxy-3,4a,7,7,10a-pentamethyl-1-oxo-5,6,6a,8,9,10-hexahydro-2H-benzo[f][1]benzopyran-5-yl] ester

> <PUBCHEM_IUPAC_TRADITIONAL_NAME>
acetic acid [(3R,4aR,5S,6S,6aS,10S,10aR,10bS)-6,10,10b-trihydroxy-1-keto-3,4a,7,7,10a-pentamethyl-3-vinyl-5,6,6a,8,9,10-hexahydro-2H-benzo[f]chromen-5-yl] ester

> <PUBCHEM_IUPAC_SYSTEMATIC_NAME>
[(3R,4aR,5S,6S,6aS,10S,10aR,10bS)-3-ethenyl-3,4a,7,7,10a-pentamethyl-6,10,10b-tris(oxidanyl)-1-oxidanylidene-5,6,6a,8,9,10-hexahydro-2H-benzo[f]chromen-5-yl] ethanoate

> <PUBCHEM_CACTVS_HBOND_DONOR>
3

> <PUBCHEM_CACTVS_HBOND_ACCEPTOR>
7

> <PUBCHEM_CACTVS_ROTATABLE_BOND>
3

> <PUBCHEM_CACTVS_COMPLEXITY>
747

> <PUBCHEM_CACTVS_TPSA>
113

> <PUBCHEM_CACTVS_SUBSKEYS>
AAADcfB4OAAAAAAAAAAAAAAAAAAAAAAAAAA0YIAAAAAAAADQAAAAGgAACAAAD1SggAICCAAABgCIAKDSCAIAAAAgAAAIAAFAAAgBFBYAIAACQAAFoAADIAHK7PzPgAAAAAAAAADCAAYQADCAAAAAAAAAAA==

> <PUBCHEM_TOTAL_CHARGE>
0

> <PUBCHEM_HEAVY_ATOM_COUNT>
29

> <PUBCHEM_ATOM_DEF_STEREO_COUNT>
8

> <PUBCHEM_ATOM_UDEF_STEREO_COUNT>
0

> <PUBCHEM_BOND_DEF_STEREO_COUNT>
0

> <PUBCHEM_BOND_UDEF_STEREO_COUNT>
0

> <PUBCHEM_ISOTOPIC_ATOM_COUNT>
0

> <PUBCHEM_COMPONENT_COUNT>
1

> <PUBCHEM_CACTVS_TAUTO_COUNT>
2

> <PUBCHEM_COORDINATE_TYPE>
1
3

> <PUBCHEM_BONDANNOTATIONS>
11  20  6
10  2  5
23  25  6
13  3  6
15  4  6
14  5  5
8  18  6
9  30  5

$$$$

