14543515
  -OEChem-07051213093D

 38 40  0     1  0  0  0  0  0999 V2000
    3.2720   -0.8156   -0.3581 O   0  0  0  0  0  0  0  0  0  0  0  0
   -0.4967    2.7855   -0.8023 O   0  0  0  0  0  0  0  0  0  0  0  0
   -1.2317   -0.2908   -0.6244 C   0  0  1  0  0  0  0  0  0  0  0  0
   -2.5764   -0.4829    0.1211 C   0  0  0  0  0  0  0  0  0  0  0  0
   -0.8353    0.7209    0.4981 C   0  0  2  0  0  0  0  0  0  0  0  0
   -2.3559    0.8956    0.7633 C   0  0  0  0  0  0  0  0  0  0  0  0
    1.9254   -1.1894   -0.0252 C   0  0  1  0  0  0  0  0  0  0  0  0
   -0.4261   -1.5723   -0.8072 C   0  0  0  0  0  0  0  0  0  0  0  0
    2.5578    0.0797    0.5055 C   0  0  2  0  0  0  0  0  0  0  0  0
    1.0208   -1.2852   -1.2148 C   0  0  0  0  0  0  0  0  0  0  0  0
   -0.0594    1.9914    0.0413 C   0  0  0  0  0  0  0  0  0  0  0  0
    2.3877    1.4480   -0.0698 C   0  0  0  0  0  0  0  0  0  0  0  0
   -3.8608   -0.5314   -0.6826 C   0  0  0  0  0  0  0  0  0  0  0  0
   -2.5528   -1.6229    1.1153 C   0  0  0  0  0  0  0  0  0  0  0  0
    1.3054    2.2430    0.6494 C   0  0  0  0  0  0  0  0  0  0  0  0
    1.9260   -2.3735    0.8906 C   0  0  0  0  0  0  0  0  0  0  0  0
   -1.3620    0.2103   -1.5961 H   0  0  0  0  0  0  0  0  0  0  0  0
   -0.3392    0.2345    1.3495 H   0  0  0  0  0  0  0  0  0  0  0  0
   -2.6354    0.9882    1.8175 H   0  0  0  0  0  0  0  0  0  0  0  0
   -2.8079    1.7344    0.2195 H   0  0  0  0  0  0  0  0  0  0  0  0
   -0.8974   -2.1405   -1.6203 H   0  0  0  0  0  0  0  0  0  0  0  0
   -0.4493   -2.2285    0.0612 H   0  0  0  0  0  0  0  0  0  0  0  0
    2.8618    0.1098    1.5455 H   0  0  0  0  0  0  0  0  0  0  0  0
    1.3753   -2.1205   -1.8329 H   0  0  0  0  0  0  0  0  0  0  0  0
    1.0767   -0.3937   -1.8476 H   0  0  0  0  0  0  0  0  0  0  0  0
    2.1964    1.4150   -1.1480 H   0  0  0  0  0  0  0  0  0  0  0  0
    3.3421    1.9735    0.0585 H   0  0  0  0  0  0  0  0  0  0  0  0
   -3.9374   -1.4696   -1.2430 H   0  0  0  0  0  0  0  0  0  0  0  0
   -4.7418   -0.4507   -0.0363 H   0  0  0  0  0  0  0  0  0  0  0  0
   -3.9098    0.2852   -1.4116 H   0  0  0  0  0  0  0  0  0  0  0  0
   -3.4296   -1.5752    1.7735 H   0  0  0  0  0  0  0  0  0  0  0  0
   -2.5917   -2.5989    0.6181 H   0  0  0  0  0  0  0  0  0  0  0  0
   -1.6807   -1.6064    1.7780 H   0  0  0  0  0  0  0  0  0  0  0  0
    1.5095    3.3156    0.5437 H   0  0  0  0  0  0  0  0  0  0  0  0
    1.2676    2.0335    1.7236 H   0  0  0  0  0  0  0  0  0  0  0  0
    2.8602   -2.4499    1.4597 H   0  0  0  0  0  0  0  0  0  0  0  0
    1.1143   -2.2979    1.6213 H   0  0  0  0  0  0  0  0  0  0  0  0
    1.8113   -3.3097    0.3339 H   0  0  0  0  0  0  0  0  0  0  0  0
  1  7  1  0  0  0  0
  1  9  1  0  0  0  0
  2 11  2  0  0  0  0
  3  4  1  0  0  0  0
  3  5  1  0  0  0  0
  3  8  1  0  0  0  0
  3 17  1  0  0  0  0
  4  6  1  0  0  0  0
  4 13  1  0  0  0  0
  4 14  1  0  0  0  0
  5  6  1  0  0  0  0
  5 11  1  0  0  0  0
  5 18  1  0  0  0  0
  6 19  1  0  0  0  0
  6 20  1  0  0  0  0
  7  9  1  0  0  0  0
  7 10  1  0  0  0  0
  7 16  1  0  0  0  0
  8 10  1  0  0  0  0
  8 21  1  0  0  0  0
  8 22  1  0  0  0  0
  9 12  1  0  0  0  0
  9 23  1  0  0  0  0
 10 24  1  0  0  0  0
 10 25  1  0  0  0  0
 11 15  1  0  0  0  0
 12 15  1  0  0  0  0
 12 26  1  0  0  0  0
 12 27  1  0  0  0  0
 13 28  1  0  0  0  0
 13 29  1  0  0  0  0
 13 30  1  0  0  0  0
 14 31  1  0  0  0  0
 14 32  1  0  0  0  0
 14 33  1  0  0  0  0
 15 34  1  0  0  0  0
 15 35  1  0  0  0  0
 16 36  1  0  0  0  0
 16 37  1  0  0  0  0
 16 38  1  0  0  0  0
M  END
> <PUBCHEM_COMPOUND_CID>
14543515

> <PUBCHEM_CONFORMER_RMSD>
0.6

> <PUBCHEM_CONFORMER_DIVERSEORDER>
2
1

> <PUBCHEM_MMFF94_PARTIAL_CHARGES>
11
1 -0.3
10 0.09
11 0.46
12 0.09
15 0.06
16 0.09
2 -0.57
23 0.1
5 0.05
7 -0.04
9 -0.05

> <PUBCHEM_EFFECTIVE_ROTOR_COUNT>
1.4

> <PUBCHEM_PHARMACOPHORE_FEATURES>
4
1 1 acceptor
1 2 acceptor
3 4 13 14 hydrophobe
4 3 4 5 6 rings

> <PUBCHEM_HEAVY_ATOM_COUNT>
16

> <PUBCHEM_ATOM_DEF_STEREO_COUNT>
4

> <PUBCHEM_ATOM_UDEF_STEREO_COUNT>
0

> <PUBCHEM_BOND_DEF_STEREO_COUNT>
0

> <PUBCHEM_BOND_UDEF_STEREO_COUNT>
0

> <PUBCHEM_ISOTOPIC_ATOM_COUNT>
0

> <PUBCHEM_COMPONENT_COUNT>
1

> <PUBCHEM_CACTVS_TAUTO_COUNT>
3

> <PUBCHEM_CONFORMER_ID>
00DDEA9B00000002

> <PUBCHEM_MMFF94_ENERGY>
37.5617

> <PUBCHEM_FEATURE_SELFOVERLAP>
20.297

> <PUBCHEM_SHAPE_FINGERPRINT>
10967382 1 18336829667262083812
11086676 242 18337943614486016544
11132069 177 18187931728222835490
12011746 2 18407759244016516598
12382932 28 18261671579451820712
12524768 44 18261946453137656727
12696612 119 18334568040642411574
13140716 1 17975421221867552306
13172582 1 18187080650383165159
14251711 518 18189905205755923822
14251717 144 18262245421600443183
15757776 16 18410299090228181262
15775835 57 18115585916294268864
15881359 60 17825700938135091028
16945 1 18272086149316097016
17990270 104 18261105322283851874
20201158 50 18342459235563480507
20645476 183 17479449045649659668
20645477 70 18262241023749124031
21501502 16 18337107977085696401
22721475 48 18336541707016826400
22802520 49 17101702355972538270
2334 1 18335698351538780353
23388829 49 18114466665181299957
23419403 2 17838660877502468052
23463225 33 18408321090179309577
23590187 169 18188497878264398719
2748010 2 18044942522022106942
2897 32 17759527668457529108
528862 383 18264211313899253799
7364860 26 18114745906490498472
81228 2 18050271863366590969

> <PUBCHEM_SHAPE_MULTIPOLES>
317.53
4.9
2.73
1.06
1.73
0.93
0
-1.31
-0.25
-1.11
-0.13
0.2
-0.28
0.07

> <PUBCHEM_SHAPE_SELFOVERLAP>
656.853

> <PUBCHEM_SHAPE_VOLUME>
184.3

> <PUBCHEM_COORDINATE_TYPE>
2
5
10

$$$$

