11954161
  -OEChem-07051213072D

 49 52  0     1  0  0  0  0  0999 V2000
    5.1593    2.8405    0.0000 O   0  0  0  0  0  0  0  0  0  0  0  0
    2.5369    0.1863    0.0000 O   0  0  0  0  0  0  0  0  0  0  0  0
    4.2158    4.3830    0.0000 O   0  0  0  0  0  0  0  0  0  0  0  0
    5.1471   -4.3830    0.0000 O   0  0  0  0  0  0  0  0  0  0  0  0
    5.1350   -0.3137    0.0000 C   0  0  1  0  0  0  0  0  0  0  0  0
    4.2690    0.1863    0.0000 C   0  0  2  0  0  0  0  0  0  0  0  0
    4.2529    1.2278    0.0000 C   0  0  1  0  0  0  0  0  0  0  0  0
    5.1350   -1.3137    0.0000 C   0  0  2  0  0  0  0  0  0  0  0  0
    5.1510    1.7555    0.0000 C   0  0  2  0  0  0  0  0  0  0  0  0
    6.0450    0.1931    0.0000 C   0  0  0  0  0  0  0  0  0  0  0  0
    3.4030   -0.3137    0.0000 C   0  0  1  0  0  0  0  0  0  0  0  0
    6.0530    1.2347    0.0000 C   0  0  0  0  0  0  0  0  0  0  0  0
    4.2690   -1.8137    0.0000 C   0  0  0  0  0  0  0  0  0  0  0  0
    3.4030   -1.3137    0.0000 C   0  0  0  0  0  0  0  0  0  0  0  0
    3.3010    1.7484    0.0000 C   0  0  0  0  0  0  0  0  0  0  0  0
    6.0450   -1.8206    0.0000 C   0  0  0  0  0  0  0  0  0  0  0  0
    6.0010   -0.8137    0.0000 C   0  0  0  0  0  0  0  0  0  0  0  0
    6.0131    2.2622    0.0000 C   0  0  0  0  0  0  0  0  0  0  0  0
    3.2843    2.8333    0.0000 C   0  0  0  0  0  0  0  0  0  0  0  0
    6.0530   -2.8622    0.0000 C   0  0  0  0  0  0  0  0  0  0  0  0
    4.2529   -2.8552    0.0000 C   0  0  0  0  0  0  0  0  0  0  0  0
    4.2197    3.3830    0.0000 C   0  0  0  0  0  0  0  0  0  0  0  0
    5.1510   -3.3830    0.0000 C   0  0  0  0  0  0  0  0  0  0  0  0
    5.8678   -0.7444    0.0000 H   0  0  0  0  0  0  0  0  0  0  0  0
    3.5296    0.6056    0.0000 H   0  0  0  0  0  0  0  0  0  0  0  0
    3.5251    0.7887    0.0000 H   0  0  0  0  0  0  0  0  0  0  0  0
    6.2496   -0.3922    0.0000 H   0  0  0  0  0  0  0  0  0  0  0  0
    6.6567    0.2945    0.0000 H   0  0  0  0  0  0  0  0  0  0  0  0
    3.4030    0.3063    0.0000 H   0  0  0  0  0  0  0  0  0  0  0  0
    6.6631    1.1239    0.0000 H   0  0  0  0  0  0  0  0  0  0  0  0
    6.2666    1.8168    0.0000 H   0  0  0  0  0  0  0  0  0  0  0  0
    2.7924   -1.2061    0.0000 H   0  0  0  0  0  0  0  0  0  0  0  0
    3.1909   -1.8963    0.0000 H   0  0  0  0  0  0  0  0  0  0  0  0
    2.6886    1.8451    0.0000 H   0  0  0  0  0  0  0  0  0  0  0  0
    3.1010    1.1616    0.0000 H   0  0  0  0  0  0  0  0  0  0  0  0
    6.6567   -1.9220    0.0000 H   0  0  0  0  0  0  0  0  0  0  0  0
    6.2496   -1.2353    0.0000 H   0  0  0  0  0  0  0  0  0  0  0  0
    6.3110   -1.3507    0.0000 H   0  0  0  0  0  0  0  0  0  0  0  0
    6.5380   -0.5037    0.0000 H   0  0  0  0  0  0  0  0  0  0  0  0
    5.6910   -0.2768    0.0000 H   0  0  0  0  0  0  0  0  0  0  0  0
    6.3272    1.7277    0.0000 H   0  0  0  0  0  0  0  0  0  0  0  0
    6.5476    2.5763    0.0000 H   0  0  0  0  0  0  0  0  0  0  0  0
    5.6990    2.7967    0.0000 H   0  0  0  0  0  0  0  0  0  0  0  0
    3.0662    3.4137    0.0000 H   0  0  0  0  0  0  0  0  0  0  0  0
    2.6751    2.7178    0.0000 H   0  0  0  0  0  0  0  0  0  0  0  0
    6.2666   -3.4442    0.0000 H   0  0  0  0  0  0  0  0  0  0  0  0
    6.6631   -2.7514    0.0000 H   0  0  0  0  0  0  0  0  0  0  0  0
    3.7124   -3.1590    0.0000 H   0  0  0  0  0  0  0  0  0  0  0  0
    2.0000   -0.1237    0.0000 H   0  0  0  0  0  0  0  0  0  0  0  0
  1  9  1  0  0  0  0
  1 22  1  0  0  0  0
 11  2  1  1  0  0  0
  2 49  1  0  0  0  0
  3 22  2  0  0  0  0
  4 23  2  0  0  0  0
  5  6  1  0  0  0  0
  5  8  1  0  0  0  0
  5 10  1  0  0  0  0
  5 24  1  1  0  0  0
  6  7  1  0  0  0  0
  6 11  1  0  0  0  0
  6 25  1  6  0  0  0
  7  9  1  0  0  0  0
  7 15  1  0  0  0  0
  7 26  1  1  0  0  0
  8 13  1  0  0  0  0
  8 16  1  0  0  0  0
  8 17  1  6  0  0  0
  9 12  1  0  0  0  0
  9 18  1  6  0  0  0
 10 12  1  0  0  0  0
 10 27  1  0  0  0  0
 10 28  1  0  0  0  0
 11 14  1  0  0  0  0
 11 29  1  0  0  0  0
 12 30  1  0  0  0  0
 12 31  1  0  0  0  0
 13 14  1  0  0  0  0
 13 21  2  0  0  0  0
 14 32  1  0  0  0  0
 14 33  1  0  0  0  0
 15 19  1  0  0  0  0
 15 34  1  0  0  0  0
 15 35  1  0  0  0  0
 16 20  1  0  0  0  0
 16 36  1  0  0  0  0
 16 37  1  0  0  0  0
 17 38  1  0  0  0  0
 17 39  1  0  0  0  0
 17 40  1  0  0  0  0
 18 41  1  0  0  0  0
 18 42  1  0  0  0  0
 18 43  1  0  0  0  0
 19 22  1  0  0  0  0
 19 44  1  0  0  0  0
 19 45  1  0  0  0  0
 20 23  1  0  0  0  0
 20 46  1  0  0  0  0
 20 47  1  0  0  0  0
 21 23  1  0  0  0  0
 21 48  1  0  0  0  0
M  END
> <PUBCHEM_COMPOUND_CID>
11954161

> <PUBCHEM_COMPOUND_CANONICALIZED>
1

> <PUBCHEM_CACTVS_COMPLEXITY>
594

> <PUBCHEM_CACTVS_HBOND_ACCEPTOR>
4

> <PUBCHEM_CACTVS_HBOND_DONOR>
1

> <PUBCHEM_CACTVS_ROTATABLE_BOND>
0

> <PUBCHEM_CACTVS_SUBSKEYS>
AAADceB4OAAAAAAAAAAAAAAAAAAAAAAAAAA0YIEAAAAAAADQAAAAGgAACAAAD1SggAICCAAABgCIAqDSCAAAAAAgAAAACAEAAEgAEBIAAQACQAAEwAAIAQPIzPDPgAAAAAAAAADAAAYAADAAAAAAAAAAAA==

> <PUBCHEM_IUPAC_OPENEYE_NAME>
(4aS,4bR,5R,10aR,10bS,12aS)-5-hydroxy-10a,12a-dimethyl-4,4a,4b,5,6,9,10,10b,11,12-decahydro-3H-naphtho[2,1-f]chromene-2,8-dione

> <PUBCHEM_IUPAC_CAS_NAME>
(4aS,4bR,5R,10aR,10bS,12aS)-5-hydroxy-10a,12a-dimethyl-4,4a,4b,5,6,9,10,10b,11,12-decahydro-3H-naphtho[2,1-f][1]benzopyran-2,8-dione

> <PUBCHEM_IUPAC_NAME>
(4aS,4bR,5R,10aR,10bS,12aS)-5-hydroxy-10a,12a-dimethyl-4,4a,4b,5,6,9,10,10b,11,12-decahydro-3H-naphtho[2,1-f]chromene-2,8-dione

> <PUBCHEM_IUPAC_SYSTEMATIC_NAME>
(4aS,4bR,5R,10aR,10bS,12aS)-10a,12a-dimethyl-5-oxidanyl-4,4a,4b,5,6,9,10,10b,11,12-decahydro-3H-naphtho[2,1-f]chromene-2,8-dione

> <PUBCHEM_IUPAC_TRADITIONAL_NAME>
(4aS,4bR,5R,10aR,10bS,12aS)-5-hydroxy-10a,12a-dimethyl-4,4a,4b,5,6,9,10,10b,11,12-decahydro-3H-naphtho[2,1-f]chromene-2,8-quinone

> <PUBCHEM_IUPAC_INCHI>
InChI=1S/C19H26O4/c1-18-7-5-12(20)9-11(18)10-15(21)17-13(18)6-8-19(2)14(17)3-4-16(22)23-19/h9,13-15,17,21H,3-8,10H2,1-2H3/t13-,14-,15+,17+,18-,19-/m0/s1

> <PUBCHEM_IUPAC_INCHIKEY>
FOXXEHXXDDNIKJ-GBHAUCNQSA-N

> <PUBCHEM_XLOGP3_AA>
1.7

> <PUBCHEM_EXACT_MASS>
318.183109

> <PUBCHEM_MOLECULAR_FORMULA>
C19H26O4

> <PUBCHEM_MOLECULAR_WEIGHT>
318.40734

> <PUBCHEM_OPENEYE_CAN_SMILES>
CC12CCC(=O)C=C1CC(C3C2CCC4(C3CCC(=O)O4)C)O

> <PUBCHEM_OPENEYE_ISO_SMILES>
C[C@]12CCC(=O)C=C1C[C@H]([C@@H]3[C@@H]2CC[C@]4([C@H]3CCC(=O)O4)C)O

> <PUBCHEM_CACTVS_TPSA>
63.6

> <PUBCHEM_MONOISOTOPIC_WEIGHT>
318.183109

> <PUBCHEM_TOTAL_CHARGE>
0

> <PUBCHEM_HEAVY_ATOM_COUNT>
23

> <PUBCHEM_ATOM_DEF_STEREO_COUNT>
6

> <PUBCHEM_ATOM_UDEF_STEREO_COUNT>
0

> <PUBCHEM_BOND_DEF_STEREO_COUNT>
0

> <PUBCHEM_BOND_UDEF_STEREO_COUNT>
0

> <PUBCHEM_ISOTOPIC_ATOM_COUNT>
0

> <PUBCHEM_COMPONENT_COUNT>
1

> <PUBCHEM_CACTVS_TAUTO_COUNT>
10

> <PUBCHEM_COORDINATE_TYPE>
1
5
255

> <PUBCHEM_BONDANNOTATIONS>
11  2  5
5  24  5
6  25  6
7  26  5
8  17  6
9  18  6

$$$$

