5460044
  -OEChem-07051212463D

 26 25  0     1  0  0  0  0  0999 V2000
    1.0921    1.9699   -0.5330 O   0  0  0  0  0  0  0  0  0  0  0  0
   -1.6176    1.7634   -0.1230 O   0  0  0  0  0  0  0  0  0  0  0  0
    1.5663   -0.7131   -1.3475 O   0  0  0  0  0  0  0  0  0  0  0  0
   -1.5500   -0.2144    1.9175 O   0  0  0  0  0  0  0  0  0  0  0  0
    3.7563   -1.2506    0.2768 O   0  0  0  0  0  0  0  0  0  0  0  0
   -3.0253   -1.1564   -1.2738 O   0  0  0  0  0  0  0  0  0  0  0  0
    0.5930    0.8546    0.2045 C   0  0  1  0  0  0  0  0  0  0  0  0
   -0.8477    0.5686   -0.2515 C   0  0  1  0  0  0  0  0  0  0  0  0
    1.5457   -0.3463    0.0380 C   0  0  2  0  0  0  0  0  0  0  0  0
   -1.5280   -0.5735    0.5302 C   0  0  2  0  0  0  0  0  0  0  0  0
    2.9894   -0.0611    0.4461 C   0  0  0  0  0  0  0  0  0  0  0  0
   -2.9741   -0.8412    0.1157 C   0  0  0  0  0  0  0  0  0  0  0  0
    0.5911    1.1710    1.2540 H   0  0  0  0  0  0  0  0  0  0  0  0
   -0.8469    0.3326   -1.3216 H   0  0  0  0  0  0  0  0  0  0  0  0
    1.1815   -1.2132    0.5978 H   0  0  0  0  0  0  0  0  0  0  0  0
   -0.9526   -1.4975    0.4176 H   0  0  0  0  0  0  0  0  0  0  0  0
    3.0588    0.2569    1.4906 H   0  0  0  0  0  0  0  0  0  0  0  0
    3.4422    0.7047   -0.1911 H   0  0  0  0  0  0  0  0  0  0  0  0
   -3.6134    0.0283    0.3008 H   0  0  0  0  0  0  0  0  0  0  0  0
   -3.3993   -1.6754    0.6843 H   0  0  0  0  0  0  0  0  0  0  0  0
    1.1420    1.7062   -1.4677 H   0  0  0  0  0  0  0  0  0  0  0  0
   -1.6612    1.9848    0.8230 H   0  0  0  0  0  0  0  0  0  0  0  0
    2.1524   -1.4841   -1.4358 H   0  0  0  0  0  0  0  0  0  0  0  0
   -1.9279   -0.9645    2.4075 H   0  0  0  0  0  0  0  0  0  0  0  0
    3.3826   -1.9262    0.8680 H   0  0  0  0  0  0  0  0  0  0  0  0
   -2.4701   -1.9422   -1.4147 H   0  0  0  0  0  0  0  0  0  0  0  0
  1  7  1  0  0  0  0
  1 21  1  0  0  0  0
  2  8  1  0  0  0  0
  2 22  1  0  0  0  0
  3  9  1  0  0  0  0
  3 23  1  0  0  0  0
  4 10  1  0  0  0  0
  4 24  1  0  0  0  0
  5 11  1  0  0  0  0
  5 25  1  0  0  0  0
  6 12  1  0  0  0  0
  6 26  1  0  0  0  0
  7  8  1  0  0  0  0
  7  9  1  0  0  0  0
  7 13  1  0  0  0  0
  8 10  1  0  0  0  0
  8 14  1  0  0  0  0
  9 11  1  0  0  0  0
  9 15  1  0  0  0  0
 10 12  1  0  0  0  0
 10 16  1  0  0  0  0
 11 17  1  0  0  0  0
 11 18  1  0  0  0  0
 12 19  1  0  0  0  0
 12 20  1  0  0  0  0
M  END
> <PUBCHEM_COMPOUND_CID>
5460044

> <PUBCHEM_CONFORMER_RMSD>
0.6

> <PUBCHEM_CONFORMER_DIVERSEORDER>
1
12
15
8
18
10
7
9
5
2
19
16
13
4
11
14
17
6
3

> <PUBCHEM_MMFF94_PARTIAL_CHARGES>
18
1 -0.68
10 0.28
11 0.28
12 0.28
2 -0.68
21 0.4
22 0.4
23 0.4
24 0.4
25 0.4
26 0.4
3 -0.68
4 -0.68
5 -0.68
6 -0.68
7 0.28
8 0.28
9 0.28

> <PUBCHEM_EFFECTIVE_ROTOR_COUNT>
5

> <PUBCHEM_PHARMACOPHORE_FEATURES>
12
1 1 acceptor
1 1 donor
1 2 acceptor
1 2 donor
1 3 acceptor
1 3 donor
1 4 acceptor
1 4 donor
1 5 acceptor
1 5 donor
1 6 acceptor
1 6 donor

> <PUBCHEM_HEAVY_ATOM_COUNT>
12

> <PUBCHEM_ATOM_DEF_STEREO_COUNT>
4

> <PUBCHEM_ATOM_UDEF_STEREO_COUNT>
0

> <PUBCHEM_BOND_DEF_STEREO_COUNT>
0

> <PUBCHEM_BOND_UDEF_STEREO_COUNT>
0

> <PUBCHEM_ISOTOPIC_ATOM_COUNT>
0

> <PUBCHEM_COMPONENT_COUNT>
1

> <PUBCHEM_CACTVS_TAUTO_COUNT>
1

> <PUBCHEM_CONFORMER_ID>
0053504C00000001

> <PUBCHEM_MMFF94_ENERGY>
27.0576

> <PUBCHEM_FEATURE_SELFOVERLAP>
60.924

> <PUBCHEM_SHAPE_FINGERPRINT>
11031198 65 11527955581342554880
12932764 1 18334847355609216578
13549 16 15266797614175452794
16945 1 18198895908125689760
17834072 14 18269292217113114256
18186145 218 17346052082200523911
20201158 50 18202005408328569467
20211469 26 17967821552041619710
20653085 51 14117795808471037583
20671657 53 17846781814808849414
20711978 1 18341332210338360860
20711985 344 17845104024125882325
21501502 16 18412257324585109309
21922407 69 17169808030020338265
5084963 1 18186803552009686786

> <PUBCHEM_SHAPE_MULTIPOLES>
211.74
5.08
1.5
1.14
1.49
0.69
0.15
-2.54
-0.13
0.04
-0.24
-0.51
-0.26
-0.2

> <PUBCHEM_SHAPE_SELFOVERLAP>
397.797

> <PUBCHEM_SHAPE_VOLUME>
131

> <PUBCHEM_COORDINATE_TYPE>
2
5
10

$$$$

