442392
  -OEChem-07051212582D

 39 40  0     1  0  0  0  0  0999 V2000
    2.0000    2.1900    0.0000 O   0  0  0  0  0  0  0  0  0  0  0  0
    3.7320    2.1900    0.0000 O   0  0  0  0  0  0  0  0  0  0  0  0
    3.7320   -0.8100    0.0000 C   0  0  2  0  0  0  0  0  0  0  0  0
    2.8660   -1.3100    0.0000 C   0  0  1  0  0  0  0  0  0  0  0  0
    3.7320    0.1900    0.0000 C   0  0  1  0  0  0  0  0  0  0  0  0
    2.8660   -2.3100    0.0000 C   0  0  0  0  0  0  0  0  0  0  0  0
    4.6260    0.7247    0.0000 C   0  0  0  0  0  0  0  0  0  0  0  0
    2.0000   -0.8100    0.0000 C   0  0  0  0  0  0  0  0  0  0  0  0
    2.8660    0.6900    0.0000 C   0  0  0  0  0  0  0  0  0  0  0  0
    4.6260   -1.3447    0.0000 C   0  0  0  0  0  0  0  0  0  0  0  0
    5.5321    0.2108    0.0000 C   0  0  0  0  0  0  0  0  0  0  0  0
    2.0000    0.1900    0.0000 C   0  0  0  0  0  0  0  0  0  0  0  0
    5.5321   -0.8308    0.0000 C   0  0  0  0  0  0  0  0  0  0  0  0
    2.0000   -2.8100    0.0000 C   0  0  0  0  0  0  0  0  0  0  0  0
    3.7320   -2.8100    0.0000 C   0  0  0  0  0  0  0  0  0  0  0  0
    2.8660    1.6900    0.0000 C   0  0  0  0  0  0  0  0  0  0  0  0
    6.3961   -1.3342    0.0000 C   0  0  0  0  0  0  0  0  0  0  0  0
    3.7255   -1.6600    0.0000 H   0  0  0  0  0  0  0  0  0  0  0  0
    2.3291   -1.6200    0.0000 H   0  0  0  0  0  0  0  0  0  0  0  0
    3.7255    1.0400    0.0000 H   0  0  0  0  0  0  0  0  0  0  0  0
    2.8660   -2.9300    0.0000 H   0  0  0  0  0  0  0  0  0  0  0  0
    5.0196    1.2037    0.0000 H   0  0  0  0  0  0  0  0  0  0  0  0
    4.2214    1.1944    0.0000 H   0  0  0  0  0  0  0  0  0  0  0  0
    1.3894   -0.7023    0.0000 H   0  0  0  0  0  0  0  0  0  0  0  0
    1.7880   -1.3926    0.0000 H   0  0  0  0  0  0  0  0  0  0  0  0
    4.6188   -1.9646    0.0000 H   0  0  0  0  0  0  0  0  0  0  0  0
    6.1429    0.1047    0.0000 H   0  0  0  0  0  0  0  0  0  0  0  0
    5.7411    0.7945    0.0000 H   0  0  0  0  0  0  0  0  0  0  0  0
    1.4631    0.5000    0.0000 H   0  0  0  0  0  0  0  0  0  0  0  0
    1.6900   -2.2731    0.0000 H   0  0  0  0  0  0  0  0  0  0  0  0
    1.4631   -3.1200    0.0000 H   0  0  0  0  0  0  0  0  0  0  0  0
    2.3100   -3.3469    0.0000 H   0  0  0  0  0  0  0  0  0  0  0  0
    3.4220   -3.3469    0.0000 H   0  0  0  0  0  0  0  0  0  0  0  0
    4.2690   -3.1200    0.0000 H   0  0  0  0  0  0  0  0  0  0  0  0
    4.0420   -2.2731    0.0000 H   0  0  0  0  0  0  0  0  0  0  0  0
    6.0841   -1.8699    0.0000 H   0  0  0  0  0  0  0  0  0  0  0  0
    6.9319   -1.6462    0.0000 H   0  0  0  0  0  0  0  0  0  0  0  0
    6.7082   -0.7984    0.0000 H   0  0  0  0  0  0  0  0  0  0  0  0
    2.0000    2.8100    0.0000 H   0  0  0  0  0  0  0  0  0  0  0  0
  1 16  1  0  0  0  0
  1 39  1  0  0  0  0
  2 16  2  0  0  0  0
  3  4  1  0  0  0  0
  3  5  1  0  0  0  0
  3 10  1  0  0  0  0
  3 18  1  1  0  0  0
  4  6  1  1  0  0  0
  4  8  1  0  0  0  0
  4 19  1  0  0  0  0
  5  7  1  0  0  0  0
  5  9  1  0  0  0  0
  5 20  1  1  0  0  0
  6 14  1  0  0  0  0
  6 15  1  0  0  0  0
  6 21  1  0  0  0  0
  7 11  1  0  0  0  0
  7 22  1  0  0  0  0
  7 23  1  0  0  0  0
  8 12  1  0  0  0  0
  8 24  1  0  0  0  0
  8 25  1  0  0  0  0
  9 12  2  0  0  0  0
  9 16  1  0  0  0  0
 10 13  2  0  0  0  0
 10 26  1  0  0  0  0
 11 13  1  0  0  0  0
 11 27  1  0  0  0  0
 11 28  1  0  0  0  0
 12 29  1  0  0  0  0
 13 17  1  0  0  0  0
 14 30  1  0  0  0  0
 14 31  1  0  0  0  0
 14 32  1  0  0  0  0
 15 33  1  0  0  0  0
 15 34  1  0  0  0  0
 15 35  1  0  0  0  0
 17 36  1  0  0  0  0
 17 37  1  0  0  0  0
 17 38  1  0  0  0  0
M  END
> <PUBCHEM_COMPOUND_CID>
442392

> <PUBCHEM_COMPOUND_CANONICALIZED>
1

> <PUBCHEM_CACTVS_COMPLEXITY>
376

> <PUBCHEM_CACTVS_HBOND_ACCEPTOR>
2

> <PUBCHEM_CACTVS_HBOND_DONOR>
1

> <PUBCHEM_CACTVS_ROTATABLE_BOND>
2

> <PUBCHEM_CACTVS_SUBSKEYS>
AAADceBwMAAAAAAAAAAAAAAAAAAAAAAAAAAgQAAAAAAAAACAAAAAGgAACAAADQCAgAACCAAAAgCIAiDSCAAAAAAgAAAACAEAAEgABBIAAQAAUAAEgAAIEYOIyPCOgAAAAAAAAAAAAAAAAAAAAAAAAAAAAA==

> <PUBCHEM_IUPAC_OPENEYE_NAME>
(4R,4aS,8aR)-4-isopropyl-6-methyl-3,4,4a,7,8,8a-hexahydronaphthalene-1-carboxylic acid

> <PUBCHEM_IUPAC_CAS_NAME>
(4R,4aS,8aR)-6-methyl-4-propan-2-yl-3,4,4a,7,8,8a-hexahydronaphthalene-1-carboxylic acid

> <PUBCHEM_IUPAC_NAME>
(4R,4aS,8aR)-6-methyl-4-propan-2-yl-3,4,4a,7,8,8a-hexahydronaphthalene-1-carboxylic acid

> <PUBCHEM_IUPAC_SYSTEMATIC_NAME>
(4R,4aS,8aR)-6-methyl-4-propan-2-yl-3,4,4a,7,8,8a-hexahydronaphthalene-1-carboxylic acid

> <PUBCHEM_IUPAC_TRADITIONAL_NAME>
(4R,4aS,8aR)-4-isopropyl-6-methyl-3,4,4a,7,8,8a-hexahydronaphthalene-1-carboxylic acid

> <PUBCHEM_IUPAC_INCHI>
InChI=1S/C15H22O2/c1-9(2)11-6-7-13(15(16)17)12-5-4-10(3)8-14(11)12/h7-9,11-12,14H,4-6H2,1-3H3,(H,16,17)/t11-,12+,14-/m1/s1

> <PUBCHEM_IUPAC_INCHIKEY>
WMNZIVZTRJKKHL-MBNYWOFBSA-N

> <PUBCHEM_XLOGP3_AA>
3.4

> <PUBCHEM_EXACT_MASS>
234.16198

> <PUBCHEM_MOLECULAR_FORMULA>
C15H22O2

> <PUBCHEM_MOLECULAR_WEIGHT>
234.33398

> <PUBCHEM_OPENEYE_CAN_SMILES>
CC1=CC2C(CC1)C(=CCC2C(C)C)C(=O)O

> <PUBCHEM_OPENEYE_ISO_SMILES>
CC1=C[C@H]2[C@@H](CC1)C(=CC[C@@H]2C(C)C)C(=O)O

> <PUBCHEM_CACTVS_TPSA>
37.3

> <PUBCHEM_MONOISOTOPIC_WEIGHT>
234.16198

> <PUBCHEM_TOTAL_CHARGE>
0

> <PUBCHEM_HEAVY_ATOM_COUNT>
17

> <PUBCHEM_ATOM_DEF_STEREO_COUNT>
3

> <PUBCHEM_ATOM_UDEF_STEREO_COUNT>
0

> <PUBCHEM_BOND_DEF_STEREO_COUNT>
0

> <PUBCHEM_BOND_UDEF_STEREO_COUNT>
0

> <PUBCHEM_ISOTOPIC_ATOM_COUNT>
0

> <PUBCHEM_COMPONENT_COUNT>
1

> <PUBCHEM_CACTVS_TAUTO_COUNT>
1

> <PUBCHEM_COORDINATE_TYPE>
1
5
255

> <PUBCHEM_BONDANNOTATIONS>
3  18  5
4  6  5
5  20  5

$$$$

