582767
  -OEChem-06241222442D

 45 46  0     1  0  0  0  0  0999 V2000
    5.6103    1.1622    0.0000 O   0  0  0  0  0  0  0  0  0  0  0  0
    8.8564    2.7314    0.0000 O   0  0  0  0  0  0  0  0  0  0  0  0
    9.2136    1.0366    0.0000 O   0  0  0  0  0  0  0  0  0  0  0  0
    4.6783   -3.2988    0.0000 N   0  0  0  0  0  0  0  0  0  0  0  0
    6.6353   -1.2769    0.0000 N   0  0  0  0  0  0  0  0  0  0  0  0
    7.2566    0.6241    0.0000 N   0  0  0  0  0  0  0  0  0  0  0  0
    4.6783   -1.6893    0.0000 C   0  0  3  0  0  0  0  0  0  0  0  0
    4.9889   -0.7388    0.0000 C   0  0  0  0  0  0  0  0  0  0  0  0
    5.2619   -2.4941    0.0000 C   0  0  0  0  0  0  0  0  0  0  0  0
    3.7320   -1.9941    0.0000 C   0  0  0  0  0  0  0  0  0  0  0  0
    5.9674   -0.5326    0.0000 C   0  0  3  0  0  0  0  0  0  0  0  0
    3.7320   -2.9941    0.0000 C   0  0  0  0  0  0  0  0  0  0  0  0
    2.8660   -1.4941    0.0000 C   0  0  0  0  0  0  0  0  0  0  0  0
    2.8660   -3.4941    0.0000 C   0  0  0  0  0  0  0  0  0  0  0  0
    6.2781    0.4179    0.0000 C   0  0  0  0  0  0  0  0  0  0  0  0
    2.0000   -1.9941    0.0000 C   0  0  0  0  0  0  0  0  0  0  0  0
    2.0000   -2.9941    0.0000 C   0  0  0  0  0  0  0  0  0  0  0  0
    7.5673    1.5747    0.0000 C   0  0  3  0  0  0  0  0  0  0  0  0
    6.8994    2.3190    0.0000 C   0  0  0  0  0  0  0  0  0  0  0  0
    8.5458    1.7809    0.0000 C   0  0  0  0  0  0  0  0  0  0  0  0
    9.8349    2.9376    0.0000 C   0  0  0  0  0  0  0  0  0  0  0  0
   10.1456    3.8881    0.0000 C   0  0  0  0  0  0  0  0  0  0  0  0
    5.2908   -1.5932    0.0000 H   0  0  0  0  0  0  0  0  0  0  0  0
    4.9684   -0.1192    0.0000 H   0  0  0  0  0  0  0  0  0  0  0  0
    4.3751   -0.6515    0.0000 H   0  0  0  0  0  0  0  0  0  0  0  0
    5.7227   -2.9088    0.0000 H   0  0  0  0  0  0  0  0  0  0  0  0
    5.7227   -2.0793    0.0000 H   0  0  0  0  0  0  0  0  0  0  0  0
    5.7748   -1.1219    0.0000 H   0  0  0  0  0  0  0  0  0  0  0  0
    4.8709   -3.8881    0.0000 H   0  0  0  0  0  0  0  0  0  0  0  0
    2.8660   -0.8741    0.0000 H   0  0  0  0  0  0  0  0  0  0  0  0
    2.8660   -4.1141    0.0000 H   0  0  0  0  0  0  0  0  0  0  0  0
    7.2420   -1.1490    0.0000 H   0  0  0  0  0  0  0  0  0  0  0  0
    6.4427   -1.8662    0.0000 H   0  0  0  0  0  0  0  0  0  0  0  0
    1.4631   -1.6841    0.0000 H   0  0  0  0  0  0  0  0  0  0  0  0
    1.4631   -3.3041    0.0000 H   0  0  0  0  0  0  0  0  0  0  0  0
    7.6707    0.1627    0.0000 H   0  0  0  0  0  0  0  0  0  0  0  0
    6.9606    1.4468    0.0000 H   0  0  0  0  0  0  0  0  0  0  0  0
    7.3609    2.7330    0.0000 H   0  0  0  0  0  0  0  0  0  0  0  0
    6.4854    2.7804    0.0000 H   0  0  0  0  0  0  0  0  0  0  0  0
    6.4380    1.9049    0.0000 H   0  0  0  0  0  0  0  0  0  0  0  0
    9.8555    2.3180    0.0000 H   0  0  0  0  0  0  0  0  0  0  0  0
   10.4488    2.8503    0.0000 H   0  0  0  0  0  0  0  0  0  0  0  0
   10.7349    3.6955    0.0000 H   0  0  0  0  0  0  0  0  0  0  0  0
   10.3382    4.4774    0.0000 H   0  0  0  0  0  0  0  0  0  0  0  0
    9.5563    4.0807    0.0000 H   0  0  0  0  0  0  0  0  0  0  0  0
  1 15  2  0  0  0  0
  2 20  1  0  0  0  0
  2 21  1  0  0  0  0
  3 20  2  0  0  0  0
  4  9  1  0  0  0  0
  4 12  1  0  0  0  0
  4 29  1  0  0  0  0
  5 11  1  0  0  0  0
  5 32  1  0  0  0  0
  5 33  1  0  0  0  0
  6 15  1  0  0  0  0
  6 18  1  0  0  0  0
  6 36  1  0  0  0  0
  7  8  1  0  0  0  0
  7  9  1  0  0  0  0
  7 10  1  0  0  0  0
  7 23  1  0  0  0  0
  8 11  1  0  0  0  0
  8 24  1  0  0  0  0
  8 25  1  0  0  0  0
  9 26  1  0  0  0  0
  9 27  1  0  0  0  0
 10 12  1  0  0  0  0
 10 13  2  0  0  0  0
 11 15  1  0  0  0  0
 11 28  1  0  0  0  0
 12 14  2  0  0  0  0
 13 16  1  0  0  0  0
 13 30  1  0  0  0  0
 14 17  1  0  0  0  0
 14 31  1  0  0  0  0
 16 17  2  0  0  0  0
 16 34  1  0  0  0  0
 17 35  1  0  0  0  0
 18 19  1  0  0  0  0
 18 20  1  0  0  0  0
 18 37  1  0  0  0  0
 19 38  1  0  0  0  0
 19 39  1  0  0  0  0
 19 40  1  0  0  0  0
 21 22  1  0  0  0  0
 21 41  1  0  0  0  0
 21 42  1  0  0  0  0
 22 43  1  0  0  0  0
 22 44  1  0  0  0  0
 22 45  1  0  0  0  0
M  END
> <PUBCHEM_COMPOUND_CID>
582767

> <PUBCHEM_COMPOUND_CANONICALIZED>
1

> <PUBCHEM_CACTVS_COMPLEXITY>
402

> <PUBCHEM_CACTVS_HBOND_ACCEPTOR>
5

> <PUBCHEM_CACTVS_HBOND_DONOR>
3

> <PUBCHEM_CACTVS_ROTATABLE_BOND>
7

> <PUBCHEM_CACTVS_SUBSKEYS>
AAADceB7MAAAAAAAAAAAAAAAAAAAAWAAAAAwAAAAAAAAAFgBAAAAHgAQAAAADSjhmAYyyILABACIAiXSWACCAAAhAgAIiIGIZIgKYDLAkbGXIAhglgDYyAcYicCOgAAAAAACAAAAAAAAAAQAAAAAAAAAAA==

> <PUBCHEM_IUPAC_OPENEYE_NAME>
ethyl 2-[(2-amino-3-indolin-3-yl-propanoyl)amino]propanoate

> <PUBCHEM_IUPAC_CAS_NAME>
2-[[2-amino-3-(2,3-dihydro-1H-indol-3-yl)-1-oxopropyl]amino]propanoic acid ethyl ester

> <PUBCHEM_IUPAC_NAME>
ethyl 2-[[2-amino-3-(2,3-dihydro-1H-indol-3-yl)propanoyl]amino]propanoate

> <PUBCHEM_IUPAC_SYSTEMATIC_NAME>
ethyl 2-[[2-azanyl-3-(2,3-dihydro-1H-indol-3-yl)propanoyl]amino]propanoate

> <PUBCHEM_IUPAC_TRADITIONAL_NAME>
2-[(2-amino-3-indolin-3-yl-propanoyl)amino]propionic acid ethyl ester

> <PUBCHEM_IUPAC_INCHI>
InChI=1S/C16H23N3O3/c1-3-22-16(21)10(2)19-15(20)13(17)8-11-9-18-14-7-5-4-6-12(11)14/h4-7,10-11,13,18H,3,8-9,17H2,1-2H3,(H,19,20)

> <PUBCHEM_IUPAC_INCHIKEY>
VCMSMDYQFIVXIM-UHFFFAOYSA-N

> <PUBCHEM_XLOGP3_AA>
1.2

> <PUBCHEM_EXACT_MASS>
305.173942

> <PUBCHEM_MOLECULAR_FORMULA>
C16H23N3O3

> <PUBCHEM_MOLECULAR_WEIGHT>
305.37212

> <PUBCHEM_OPENEYE_CAN_SMILES>
CCOC(=O)C(C)NC(=O)C(CC1CNC2=CC=CC=C12)N

> <PUBCHEM_OPENEYE_ISO_SMILES>
CCOC(=O)C(C)NC(=O)C(CC1CNC2=CC=CC=C12)N

> <PUBCHEM_CACTVS_TPSA>
93.4

> <PUBCHEM_MONOISOTOPIC_WEIGHT>
305.173942

> <PUBCHEM_TOTAL_CHARGE>
0

> <PUBCHEM_HEAVY_ATOM_COUNT>
22

> <PUBCHEM_ATOM_DEF_STEREO_COUNT>
0

> <PUBCHEM_ATOM_UDEF_STEREO_COUNT>
3

> <PUBCHEM_BOND_DEF_STEREO_COUNT>
0

> <PUBCHEM_BOND_UDEF_STEREO_COUNT>
0

> <PUBCHEM_ISOTOPIC_ATOM_COUNT>
0

> <PUBCHEM_COMPONENT_COUNT>
1

> <PUBCHEM_CACTVS_TAUTO_COUNT>
2

> <PUBCHEM_COORDINATE_TYPE>
1
5
255

> <PUBCHEM_BONDANNOTATIONS>
10  12  8
10  13  8
12  14  8
13  16  8
14  17  8
16  17  8
18  19  3
11  5  3
7  8  3

$$$$

