4930
  -OEChem-07051213022D

 36 37  0     1  0  0  0  0  0999 V2000
    5.4641   -1.3623    0.0000 O   0  0  0  0  0  0  0  0  0  0  0  0
    3.7320   -0.3623    0.0000 N   0  0  0  0  0  0  0  0  0  0  0  0
    5.4641   -0.3623    0.0000 C   0  0  3  0  0  0  0  0  0  0  0  0
    4.5981    0.1377    0.0000 C   0  0  0  0  0  0  0  0  0  0  0  0
    6.3301    0.1377    0.0000 C   0  0  0  0  0  0  0  0  0  0  0  0
    2.8660    0.1377    0.0000 C   0  0  0  0  0  0  0  0  0  0  0  0
    7.1962   -0.3623    0.0000 C   0  0  0  0  0  0  0  0  0  0  0  0
    8.0622    0.1377    0.0000 C   0  0  0  0  0  0  0  0  0  0  0  0
    6.3301    1.1377    0.0000 C   0  0  0  0  0  0  0  0  0  0  0  0
    8.0622    1.1377    0.0000 C   0  0  0  0  0  0  0  0  0  0  0  0
    2.0000   -0.3623    0.0000 C   0  0  0  0  0  0  0  0  0  0  0  0
    2.8660    1.1377    0.0000 C   0  0  0  0  0  0  0  0  0  0  0  0
    7.1962    1.6377    0.0000 C   0  0  0  0  0  0  0  0  0  0  0  0
    8.9561   -0.3970    0.0000 C   0  0  0  0  0  0  0  0  0  0  0  0
    8.9561    1.6723    0.0000 C   0  0  0  0  0  0  0  0  0  0  0  0
    9.8622    0.1169    0.0000 C   0  0  0  0  0  0  0  0  0  0  0  0
    9.8622    1.1585    0.0000 C   0  0  0  0  0  0  0  0  0  0  0  0
    6.0010   -0.6723    0.0000 H   0  0  0  0  0  0  0  0  0  0  0  0
    4.9966    0.6126    0.0000 H   0  0  0  0  0  0  0  0  0  0  0  0
    4.1996    0.6126    0.0000 H   0  0  0  0  0  0  0  0  0  0  0  0
    2.8660   -0.4823    0.0000 H   0  0  0  0  0  0  0  0  0  0  0  0
    3.7320   -0.9823    0.0000 H   0  0  0  0  0  0  0  0  0  0  0  0
    7.1962   -0.9823    0.0000 H   0  0  0  0  0  0  0  0  0  0  0  0
    5.7932    1.4477    0.0000 H   0  0  0  0  0  0  0  0  0  0  0  0
    3.4860    1.1377    0.0000 H   0  0  0  0  0  0  0  0  0  0  0  0
    1.6900    0.1746    0.0000 H   0  0  0  0  0  0  0  0  0  0  0  0
    1.4631   -0.6723    0.0000 H   0  0  0  0  0  0  0  0  0  0  0  0
    2.3100   -0.8993    0.0000 H   0  0  0  0  0  0  0  0  0  0  0  0
    2.8660    1.7577    0.0000 H   0  0  0  0  0  0  0  0  0  0  0  0
    2.2460    1.1377    0.0000 H   0  0  0  0  0  0  0  0  0  0  0  0
    7.1962    2.2577    0.0000 H   0  0  0  0  0  0  0  0  0  0  0  0
    8.9490   -1.0170    0.0000 H   0  0  0  0  0  0  0  0  0  0  0  0
    4.9272   -1.6723    0.0000 H   0  0  0  0  0  0  0  0  0  0  0  0
    8.9490    2.2923    0.0000 H   0  0  0  0  0  0  0  0  0  0  0  0
   10.3979   -0.1952    0.0000 H   0  0  0  0  0  0  0  0  0  0  0  0
   10.3979    1.4706    0.0000 H   0  0  0  0  0  0  0  0  0  0  0  0
  1  3  1  0  0  0  0
  1 33  1  0  0  0  0
  2  4  1  0  0  0  0
  2  6  1  0  0  0  0
  2 22  1  0  0  0  0
  3  4  1  0  0  0  0
  3  5  1  0  0  0  0
  3 18  1  0  0  0  0
  4 19  1  0  0  0  0
  4 20  1  0  0  0  0
  5  7  2  0  0  0  0
  5  9  1  0  0  0  0
  6 11  1  0  0  0  0
  6 12  1  0  0  0  0
  6 21  1  0  0  0  0
  7  8  1  0  0  0  0
  7 23  1  0  0  0  0
  8 10  1  0  0  0  0
  8 14  2  0  0  0  0
  9 13  2  0  0  0  0
  9 24  1  0  0  0  0
 10 13  1  0  0  0  0
 10 15  2  0  0  0  0
 11 26  1  0  0  0  0
 11 27  1  0  0  0  0
 11 28  1  0  0  0  0
 12 25  1  0  0  0  0
 12 29  1  0  0  0  0
 12 30  1  0  0  0  0
 13 31  1  0  0  0  0
 14 16  1  0  0  0  0
 14 32  1  0  0  0  0
 15 17  1  0  0  0  0
 15 34  1  0  0  0  0
 16 17  2  0  0  0  0
 16 35  1  0  0  0  0
 17 36  1  0  0  0  0
M  END
> <PUBCHEM_COMPOUND_CID>
4930

> <PUBCHEM_COMPOUND_CANONICALIZED>
1

> <PUBCHEM_CACTVS_COMPLEXITY>
229

> <PUBCHEM_CACTVS_HBOND_ACCEPTOR>
2

> <PUBCHEM_CACTVS_HBOND_DONOR>
2

> <PUBCHEM_CACTVS_ROTATABLE_BOND>
4

> <PUBCHEM_CACTVS_SUBSKEYS>
AAADceByIAAAAAAAAAAAAAAAAAAAAAAAAAAwYAAAAAAAAADBUAAAHgAQCAAADDzhmAYyAMLAAgCAAiBCAAACAAAgAAAIiIAICIgKNiKAkRGEcAAk0AGYmAeQwPAOwAACAAAQAACAAAQAACAAAAAAAAAAAA==

> <PUBCHEM_IUPAC_OPENEYE_NAME>
2-(isopropylamino)-1-(2-naphthyl)ethanol

> <PUBCHEM_IUPAC_CAS_NAME>
1-(2-naphthalenyl)-2-(propan-2-ylamino)ethanol

> <PUBCHEM_IUPAC_NAME>
1-naphthalen-2-yl-2-(propan-2-ylamino)ethanol

> <PUBCHEM_IUPAC_SYSTEMATIC_NAME>
1-naphthalen-2-yl-2-(propan-2-ylamino)ethanol

> <PUBCHEM_IUPAC_TRADITIONAL_NAME>
2-(isopropylamino)-1-(2-naphthyl)ethanol

> <PUBCHEM_IUPAC_INCHI>
InChI=1S/C15H19NO/c1-11(2)16-10-15(17)14-8-7-12-5-3-4-6-13(12)9-14/h3-9,11,15-17H,10H2,1-2H3

> <PUBCHEM_IUPAC_INCHIKEY>
HRSANNODOVBCST-UHFFFAOYSA-N

> <PUBCHEM_XLOGP3>
3

> <PUBCHEM_EXACT_MASS>
229.146664

> <PUBCHEM_MOLECULAR_FORMULA>
C15H19NO

> <PUBCHEM_MOLECULAR_WEIGHT>
229.31746

> <PUBCHEM_OPENEYE_CAN_SMILES>
CC(C)NCC(C1=CC2=CC=CC=C2C=C1)O

> <PUBCHEM_OPENEYE_ISO_SMILES>
CC(C)NCC(C1=CC2=CC=CC=C2C=C1)O

> <PUBCHEM_CACTVS_TPSA>
32.3

> <PUBCHEM_MONOISOTOPIC_WEIGHT>
229.146664

> <PUBCHEM_TOTAL_CHARGE>
0

> <PUBCHEM_HEAVY_ATOM_COUNT>
17

> <PUBCHEM_ATOM_DEF_STEREO_COUNT>
0

> <PUBCHEM_ATOM_UDEF_STEREO_COUNT>
1

> <PUBCHEM_BOND_DEF_STEREO_COUNT>
0

> <PUBCHEM_BOND_UDEF_STEREO_COUNT>
0

> <PUBCHEM_ISOTOPIC_ATOM_COUNT>
0

> <PUBCHEM_COMPONENT_COUNT>
1

> <PUBCHEM_CACTVS_TAUTO_COUNT>
1

> <PUBCHEM_COORDINATE_TYPE>
1
5
255

> <PUBCHEM_BONDANNOTATIONS>
3  1  3
10  13  8
10  15  8
14  16  8
15  17  8
16  17  8
5  7  8
5  9  8
7  8  8
8  10  8
8  14  8
9  13  8

$$$$

