252817
  -OEChem-07051213063D

 57 60  0     1  0  0  0  0  0999 V2000
    5.2720    0.0108   -0.6363 O   0  0  0  0  0  0  0  0  0  0  0  0
   -6.7319    0.3537   -1.3005 O   0  0  0  0  0  0  0  0  0  0  0  0
    6.6691    1.4932    0.4536 O   0  0  0  0  0  0  0  0  0  0  0  0
    1.5755    0.1774    0.2960 C   0  0  1  0  0  0  0  0  0  0  0  0
    0.6995   -1.0113   -0.1542 C   0  0  2  0  0  0  0  0  0  0  0  0
   -0.7262   -0.9469    0.4035 C   0  0  1  0  0  0  0  0  0  0  0  0
   -1.4003    0.3720   -0.0891 C   0  0  1  0  0  0  0  0  0  0  0  0
    2.9096   -0.2302   -0.3756 C   0  0  2  0  0  0  0  0  0  0  0  0
    0.9416    1.4608   -0.2577 C   0  0  0  0  0  0  0  0  0  0  0  0
   -2.8932    0.5159    0.4000 C   0  0  2  0  0  0  0  0  0  0  0  0
   -0.5189    1.6177    0.2030 C   0  0  0  0  0  0  0  0  0  0  0  0
    1.5623   -2.2309    0.1556 C   0  0  0  0  0  0  0  0  0  0  0  0
    3.0010   -1.7515   -0.1125 C   0  0  0  0  0  0  0  0  0  0  0  0
   -1.5562   -2.1585   -0.0393 C   0  0  0  0  0  0  0  0  0  0  0  0
    1.7385    0.2972    1.8323 C   0  0  0  0  0  0  0  0  0  0  0  0
   -3.6575   -0.7800    0.0996 C   0  0  0  0  0  0  0  0  0  0  0  0
   -2.9815   -2.0728    0.4913 C   0  0  0  0  0  0  0  0  0  0  0  0
   -3.5448    1.7065   -0.3622 C   0  0  0  0  0  0  0  0  0  0  0  0
    4.1549    0.5235    0.0689 C   0  0  0  0  0  0  0  0  0  0  0  0
   -2.9805    0.7863    1.9191 C   0  0  0  0  0  0  0  0  0  0  0  0
   -5.0626    1.7290   -0.2747 C   0  0  0  0  0  0  0  0  0  0  0  0
   -4.8785   -0.8194   -0.4599 C   0  0  0  0  0  0  0  0  0  0  0  0
   -5.6347    0.4202   -0.7499 C   0  0  0  0  0  0  0  0  0  0  0  0
    6.4799    0.5883   -0.3479 C   0  0  0  0  0  0  0  0  0  0  0  0
    7.5630   -0.0509   -1.1630 C   0  0  0  0  0  0  0  0  0  0  0  0
    0.6081   -0.9779   -1.2531 H   0  0  0  0  0  0  0  0  0  0  0  0
   -0.6858   -0.9566    1.4979 H   0  0  0  0  0  0  0  0  0  0  0  0
   -1.4408    0.2943   -1.1882 H   0  0  0  0  0  0  0  0  0  0  0  0
    2.8189   -0.1035   -1.4651 H   0  0  0  0  0  0  0  0  0  0  0  0
    0.9612    1.4473   -1.3552 H   0  0  0  0  0  0  0  0  0  0  0  0
    1.5191    2.3408    0.0497 H   0  0  0  0  0  0  0  0  0  0  0  0
   -0.5309    1.8488    1.2727 H   0  0  0  0  0  0  0  0  0  0  0  0
   -0.9326    2.4955   -0.3055 H   0  0  0  0  0  0  0  0  0  0  0  0
    1.3054   -3.0861   -0.4777 H   0  0  0  0  0  0  0  0  0  0  0  0
    1.4527   -2.5463    1.1992 H   0  0  0  0  0  0  0  0  0  0  0  0
    3.6359   -1.9841    0.7502 H   0  0  0  0  0  0  0  0  0  0  0  0
    3.4291   -2.2655   -0.9805 H   0  0  0  0  0  0  0  0  0  0  0  0
   -1.0995   -3.0845    0.3288 H   0  0  0  0  0  0  0  0  0  0  0  0
   -1.5729   -2.2257   -1.1349 H   0  0  0  0  0  0  0  0  0  0  0  0
    2.2475   -0.5680    2.2686 H   0  0  0  0  0  0  0  0  0  0  0  0
    2.3270    1.1851    2.0904 H   0  0  0  0  0  0  0  0  0  0  0  0
    0.7827    0.3962    2.3532 H   0  0  0  0  0  0  0  0  0  0  0  0
   -2.9706   -2.1508    1.5855 H   0  0  0  0  0  0  0  0  0  0  0  0
   -3.5432   -2.9421    0.1280 H   0  0  0  0  0  0  0  0  0  0  0  0
   -3.2677    1.6559   -1.4246 H   0  0  0  0  0  0  0  0  0  0  0  0
   -3.1618    2.6632    0.0127 H   0  0  0  0  0  0  0  0  0  0  0  0
    4.3309    0.3972    1.1428 H   0  0  0  0  0  0  0  0  0  0  0  0
    4.0412    1.5917   -0.1495 H   0  0  0  0  0  0  0  0  0  0  0  0
   -2.4180    0.0524    2.5045 H   0  0  0  0  0  0  0  0  0  0  0  0
   -2.5923    1.7776    2.1754 H   0  0  0  0  0  0  0  0  0  0  0  0
   -4.0165    0.7485    2.2757 H   0  0  0  0  0  0  0  0  0  0  0  0
   -5.4470    2.5298   -0.9161 H   0  0  0  0  0  0  0  0  0  0  0  0
   -5.4094    1.9149    0.7467 H   0  0  0  0  0  0  0  0  0  0  0  0
   -5.3829   -1.7568   -0.6691 H   0  0  0  0  0  0  0  0  0  0  0  0
    7.3602    0.0944   -2.2269 H   0  0  0  0  0  0  0  0  0  0  0  0
    7.6259   -1.1156   -0.9247 H   0  0  0  0  0  0  0  0  0  0  0  0
    8.5220    0.4174   -0.9235 H   0  0  0  0  0  0  0  0  0  0  0  0
  1 19  1  0  0  0  0
  1 24  1  0  0  0  0
  2 23  2  0  0  0  0
  3 24  2  0  0  0  0
  4  5  1  0  0  0  0
  4  8  1  0  0  0  0
  4  9  1  0  0  0  0
  4 15  1  0  0  0  0
  5  6  1  0  0  0  0
  5 12  1  0  0  0  0
  5 26  1  0  0  0  0
  6  7  1  0  0  0  0
  6 14  1  0  0  0  0
  6 27  1  0  0  0  0
  7 10  1  0  0  0  0
  7 11  1  0  0  0  0
  7 28  1  0  0  0  0
  8 13  1  0  0  0  0
  8 19  1  0  0  0  0
  8 29  1  0  0  0  0
  9 11  1  0  0  0  0
  9 30  1  0  0  0  0
  9 31  1  0  0  0  0
 10 16  1  0  0  0  0
 10 18  1  0  0  0  0
 10 20  1  0  0  0  0
 11 32  1  0  0  0  0
 11 33  1  0  0  0  0
 12 13  1  0  0  0  0
 12 34  1  0  0  0  0
 12 35  1  0  0  0  0
 13 36  1  0  0  0  0
 13 37  1  0  0  0  0
 14 17  1  0  0  0  0
 14 38  1  0  0  0  0
 14 39  1  0  0  0  0
 15 40  1  0  0  0  0
 15 41  1  0  0  0  0
 15 42  1  0  0  0  0
 16 17  1  0  0  0  0
 16 22  2  0  0  0  0
 17 43  1  0  0  0  0
 17 44  1  0  0  0  0
 18 21  1  0  0  0  0
 18 45  1  0  0  0  0
 18 46  1  0  0  0  0
 19 47  1  0  0  0  0
 19 48  1  0  0  0  0
 20 49  1  0  0  0  0
 20 50  1  0  0  0  0
 20 51  1  0  0  0  0
 21 23  1  0  0  0  0
 21 52  1  0  0  0  0
 21 53  1  0  0  0  0
 22 23  1  0  0  0  0
 22 54  1  0  0  0  0
 24 25  1  0  0  0  0
 25 55  1  0  0  0  0
 25 56  1  0  0  0  0
 25 57  1  0  0  0  0
M  END
> <PUBCHEM_COMPOUND_CID>
252817

> <PUBCHEM_CONFORMER_RMSD>
0.8

> <PUBCHEM_CONFORMER_DIVERSEORDER>
1
4
3
2
5

> <PUBCHEM_MMFF94_PARTIAL_CHARGES>
13
1 -0.43
10 0.14
16 -0.28
17 0.14
19 0.28
2 -0.57
21 0.06
22 -0.14
23 0.49
24 0.66
25 0.06
3 -0.57
54 0.15

> <PUBCHEM_EFFECTIVE_ROTOR_COUNT>
4.8

> <PUBCHEM_PHARMACOPHORE_FEATURES>
6
1 2 acceptor
1 3 acceptor
5 4 5 8 12 13 rings
6 10 16 18 21 22 23 rings
6 4 5 6 7 9 11 rings
6 6 7 10 14 16 17 rings

> <PUBCHEM_HEAVY_ATOM_COUNT>
25

> <PUBCHEM_ATOM_DEF_STEREO_COUNT>
6

> <PUBCHEM_ATOM_UDEF_STEREO_COUNT>
0

> <PUBCHEM_BOND_DEF_STEREO_COUNT>
0

> <PUBCHEM_BOND_UDEF_STEREO_COUNT>
0

> <PUBCHEM_ISOTOPIC_ATOM_COUNT>
0

> <PUBCHEM_COMPONENT_COUNT>
1

> <PUBCHEM_CACTVS_TAUTO_COUNT>
5

> <PUBCHEM_CONFORMER_ID>
0003DB9100000001

> <PUBCHEM_MMFF94_ENERGY>
72.112

> <PUBCHEM_FEATURE_SELFOVERLAP>
30.542

> <PUBCHEM_SHAPE_FINGERPRINT>
10366900 7 17749112201045113539
10411042 1 17764303947428518051
10906281 52 18341317972532135842
11135609 187 18338520845865118809
11315181 36 17967809427343662008
11578080 2 17130443482242316150
11719270 70 18261679263961339510
12011746 2 18333453135878162031
12236239 1 17561085791589923826
12788726 201 17968658357932053217
12838862 33 18339942453479208141
13631057 29 18335702677046133835
13685833 64 8070026671164267924
14931854 50 18260835933783027301
15048467 5 17846781805997492294
15183329 4 18335696174802712074
15196674 1 18411136982513400307
18335252 98 18272083886718171475
18608769 82 18341326687917981179
18681886 176 18337397041079591744
200 152 17749396979500286895
20511986 3 18202015334172011722
21150785 3 16660366969922387252
21267235 1 18338229367677687955
23402539 116 18201719531606115542
23559900 14 18261400987980559345
300161 21 18202004334639375930
335352 9 18412262813568625053
34797466 226 17458339720014306796
34934 24 18343023310840602778
350125 39 18337103463111608523
3545911 37 18410292505890329195
3633792 109 18335424586593186869
4073 2 17917423195369454834
4325135 7 18201719561676252604
4340502 62 16056876961595704120
484989 97 18193844743893673679
5104073 3 18342733069756539955
6328613 192 18343579608296059452

> <PUBCHEM_SHAPE_MULTIPOLES>
496.88
15.75
2.03
1.11
16.78
0.66
-0.38
-4.86
5.88
-0.84
-0.07
-0.29
-0.19
0.34

> <PUBCHEM_SHAPE_SELFOVERLAP>
1054.121

> <PUBCHEM_SHAPE_VOLUME>
275.9

> <PUBCHEM_COORDINATE_TYPE>
2
5
10

$$$$

