440226
  -OEChem-07051212492D

 20 21  0     0  0  0  0  0  0999 V2000
    3.7320    2.0204    0.0000 O   0  0  0  0  0  0  0  0  0  0  0  0
    5.4804   -2.0142    0.0000 O   0  0  0  0  0  0  0  0  0  0  0  0
    3.7320   -1.9796    0.0000 O   0  0  0  0  0  0  0  0  0  0  0  0
    2.0000   -0.9796    0.0000 O   0  0  0  0  0  0  0  0  0  0  0  0
    4.5981   -0.4796    0.0000 C   0  0  0  0  0  0  0  0  0  0  0  0
    4.5981    0.5204    0.0000 C   0  0  0  0  0  0  0  0  0  0  0  0
    3.7320    1.0204    0.0000 C   0  0  0  0  0  0  0  0  0  0  0  0
    5.4920   -1.0143    0.0000 C   0  0  0  0  0  0  0  0  0  0  0  0
    3.7320   -0.9796    0.0000 C   0  0  0  0  0  0  0  0  0  0  0  0
    5.4920    1.0550    0.0000 C   0  0  0  0  0  0  0  0  0  0  0  0
    2.8660    0.5204    0.0000 C   0  0  0  0  0  0  0  0  0  0  0  0
    2.8660   -0.4796    0.0000 C   0  0  0  0  0  0  0  0  0  0  0  0
    6.3981   -0.5004    0.0000 C   0  0  0  0  0  0  0  0  0  0  0  0
    6.3981    0.5412    0.0000 C   0  0  0  0  0  0  0  0  0  0  0  0
    5.4848    1.6750    0.0000 H   0  0  0  0  0  0  0  0  0  0  0  0
    2.3291    0.8304    0.0000 H   0  0  0  0  0  0  0  0  0  0  0  0
    6.9338   -0.8125    0.0000 H   0  0  0  0  0  0  0  0  0  0  0  0
    6.9338    0.8533    0.0000 H   0  0  0  0  0  0  0  0  0  0  0  0
    3.1951    2.3304    0.0000 H   0  0  0  0  0  0  0  0  0  0  0  0
    6.0138   -2.3304    0.0000 H   0  0  0  0  0  0  0  0  0  0  0  0
  1  7  1  0  0  0  0
  1 19  1  0  0  0  0
  2  8  1  0  0  0  0
  2 20  1  0  0  0  0
  3  9  2  0  0  0  0
  4 12  2  0  0  0  0
  5  6  2  0  0  0  0
  5  8  1  0  0  0  0
  5  9  1  0  0  0  0
  6  7  1  0  0  0  0
  6 10  1  0  0  0  0
  7 11  2  0  0  0  0
  8 13  2  0  0  0  0
  9 12  1  0  0  0  0
 10 14  2  0  0  0  0
 10 15  1  0  0  0  0
 11 12  1  0  0  0  0
 11 16  1  0  0  0  0
 13 14  1  0  0  0  0
 13 17  1  0  0  0  0
 14 18  1  0  0  0  0
M  END
> <PUBCHEM_COMPOUND_CID>
440226

> <PUBCHEM_COMPOUND_CANONICALIZED>
1

> <PUBCHEM_CACTVS_COMPLEXITY>
318

> <PUBCHEM_CACTVS_HBOND_ACCEPTOR>
4

> <PUBCHEM_CACTVS_HBOND_DONOR>
2

> <PUBCHEM_CACTVS_ROTATABLE_BOND>
0

> <PUBCHEM_CACTVS_SUBSKEYS>
AAADcYBwOAAAAAAAAAAAAAAAAAAAAAAAAAAwQAAAAAAAAACBAAAAGgAACAAADASAmAAwBoAAAgCIAqBSAAACAAAkIAAIiAEGCMgIJjaCFRKAcUAk4BEImQfKzLCOgAABAAAYAAAAAAIAADAAAAAAAAAAAA==

> <PUBCHEM_IUPAC_OPENEYE_NAME>
4,8-dihydroxynaphthalene-1,2-dione

> <PUBCHEM_IUPAC_CAS_NAME>
4,8-dihydroxynaphthalene-1,2-dione

> <PUBCHEM_IUPAC_NAME>
4,8-dihydroxynaphthalene-1,2-dione

> <PUBCHEM_IUPAC_SYSTEMATIC_NAME>
4,8-bis(oxidanyl)naphthalene-1,2-dione

> <PUBCHEM_IUPAC_TRADITIONAL_NAME>
4,8-dihydroxy-1,2-naphthoquinone

> <PUBCHEM_IUPAC_INCHI>
InChI=1S/C10H6O4/c11-6-3-1-2-5-7(12)4-8(13)10(14)9(5)6/h1-4,11-12H

> <PUBCHEM_IUPAC_INCHIKEY>
IIHDTJRXBMXFDL-UHFFFAOYSA-N

> <PUBCHEM_XLOGP3_AA>
1

> <PUBCHEM_EXACT_MASS>
190.026609

> <PUBCHEM_MOLECULAR_FORMULA>
C10H6O4

> <PUBCHEM_MOLECULAR_WEIGHT>
190.15224

> <PUBCHEM_OPENEYE_CAN_SMILES>
C1=CC2=C(C(=C1)O)C(=O)C(=O)C=C2O

> <PUBCHEM_OPENEYE_ISO_SMILES>
C1=CC2=C(C(=C1)O)C(=O)C(=O)C=C2O

> <PUBCHEM_CACTVS_TPSA>
74.6

> <PUBCHEM_MONOISOTOPIC_WEIGHT>
190.026609

> <PUBCHEM_TOTAL_CHARGE>
0

> <PUBCHEM_HEAVY_ATOM_COUNT>
14

> <PUBCHEM_ATOM_DEF_STEREO_COUNT>
0

> <PUBCHEM_ATOM_UDEF_STEREO_COUNT>
0

> <PUBCHEM_BOND_DEF_STEREO_COUNT>
0

> <PUBCHEM_BOND_UDEF_STEREO_COUNT>
0

> <PUBCHEM_ISOTOPIC_ATOM_COUNT>
0

> <PUBCHEM_COMPONENT_COUNT>
1

> <PUBCHEM_CACTVS_TAUTO_COUNT>
15

> <PUBCHEM_COORDINATE_TYPE>
1
5
255

> <PUBCHEM_BONDANNOTATIONS>
10  14  8
13  14  8
5  6  8
5  8  8
6  10  8
8  13  8

$$$$

