5281950
  -OEChem-07051213013D

 43 45  0     0  0  0  0  0  0999 V2000
    0.2885    0.2517    0.0660 O   0  0  0  0  0  0  0  0  0  0  0  0
   -4.3069    1.4842    0.1046 O   0  0  0  0  0  0  0  0  0  0  0  0
   -3.1913   -3.1169   -0.1139 O   0  0  0  0  0  0  0  0  0  0  0  0
    2.0408   -2.9887   -0.0642 O   0  0  0  0  0  0  0  0  0  0  0  0
   -0.6447   -3.7103   -0.1237 O   0  0  0  0  0  0  0  0  0  0  0  0
   -1.5893    2.2979    0.1567 C   0  0  0  0  0  0  0  0  0  0  0  0
   -1.9922    0.8594    0.0848 C   0  0  0  0  0  0  0  0  0  0  0  0
   -1.0238   -0.1439    0.0398 C   0  0  0  0  0  0  0  0  0  0  0  0
   -2.7747    3.3227    0.1438 C   0  0  0  0  0  0  0  0  0  0  0  0
   -0.8421    2.5707    1.5028 C   0  0  0  0  0  0  0  0  0  0  0  0
   -1.4085   -1.4812   -0.0268 C   0  0  0  0  0  0  0  0  0  0  0  0
   -3.3449    0.5196    0.0620 C   0  0  0  0  0  0  0  0  0  0  0  0
   -0.7404    2.6959   -1.0714 C   0  0  0  0  0  0  0  0  0  0  0  0
   -2.7624   -1.8257   -0.0495 C   0  0  0  0  0  0  0  0  0  0  0  0
   -3.7290   -0.8203   -0.0052 C   0  0  0  0  0  0  0  0  0  0  0  0
   -0.3676   -2.5195   -0.0706 C   0  0  0  0  0  0  0  0  0  0  0  0
    1.2739   -0.7214    0.0121 C   0  0  0  0  0  0  0  0  0  0  0  0
    1.0369   -2.0447   -0.0449 C   0  0  0  0  0  0  0  0  0  0  0  0
    2.6368   -0.1620    0.0484 C   0  0  0  0  0  0  0  0  0  0  0  0
    0.5137    3.1649   -1.1002 C   0  0  0  0  0  0  0  0  0  0  0  0
    3.2942    0.1528   -1.1412 C   0  0  0  0  0  0  0  0  0  0  0  0
    3.2707    0.0529    1.2726 C   0  0  0  0  0  0  0  0  0  0  0  0
    4.5842    0.6822   -1.1066 C   0  0  0  0  0  0  0  0  0  0  0  0
    4.5607    0.5826    1.3072 C   0  0  0  0  0  0  0  0  0  0  0  0
    5.2175    0.8972    0.1176 C   0  0  0  0  0  0  0  0  0  0  0  0
   -3.4017    3.2668    1.0417 H   0  0  0  0  0  0  0  0  0  0  0  0
   -2.3672    4.3452    0.1678 H   0  0  0  0  0  0  0  0  0  0  0  0
   -3.3674    3.2930   -0.7790 H   0  0  0  0  0  0  0  0  0  0  0  0
   -1.4702    2.2810    2.3547 H   0  0  0  0  0  0  0  0  0  0  0  0
   -0.6098    3.6365    1.6203 H   0  0  0  0  0  0  0  0  0  0  0  0
    0.1024    2.0296    1.6065 H   0  0  0  0  0  0  0  0  0  0  0  0
   -1.2353    2.5722   -2.0353 H   0  0  0  0  0  0  0  0  0  0  0  0
   -4.7829   -1.0881   -0.0229 H   0  0  0  0  0  0  0  0  0  0  0  0
    0.9842    3.3998   -2.0492 H   0  0  0  0  0  0  0  0  0  0  0  0
    1.0981    3.3229   -0.2023 H   0  0  0  0  0  0  0  0  0  0  0  0
   -5.1825    1.0617    0.0799 H   0  0  0  0  0  0  0  0  0  0  0  0
   -2.4371   -3.7250   -0.1445 H   0  0  0  0  0  0  0  0  0  0  0  0
    2.8130   -0.0079   -2.1029 H   0  0  0  0  0  0  0  0  0  0  0  0
    2.7710   -0.1865    2.2082 H   0  0  0  0  0  0  0  0  0  0  0  0
    2.9064   -2.5501   -0.0403 H   0  0  0  0  0  0  0  0  0  0  0  0
    5.0956    0.9276   -2.0328 H   0  0  0  0  0  0  0  0  0  0  0  0
    5.0536    0.7502    2.2603 H   0  0  0  0  0  0  0  0  0  0  0  0
    6.2218    1.3098    0.1444 H   0  0  0  0  0  0  0  0  0  0  0  0
  1  8  1  0  0  0  0
  1 17  1  0  0  0  0
  2 12  1  0  0  0  0
  2 36  1  0  0  0  0
  3 14  1  0  0  0  0
  3 37  1  0  0  0  0
  4 18  1  0  0  0  0
  4 40  1  0  0  0  0
  5 16  2  0  0  0  0
  6  7  1  0  0  0  0
  6  9  1  0  0  0  0
  6 10  1  0  0  0  0
  6 13  1  0  0  0  0
  7  8  1  0  0  0  0
  7 12  2  0  0  0  0
  8 11  2  0  0  0  0
  9 26  1  0  0  0  0
  9 27  1  0  0  0  0
  9 28  1  0  0  0  0
 10 29  1  0  0  0  0
 10 30  1  0  0  0  0
 10 31  1  0  0  0  0
 11 14  1  0  0  0  0
 11 16  1  0  0  0  0
 12 15  1  0  0  0  0
 13 20  2  0  0  0  0
 13 32  1  0  0  0  0
 14 15  2  0  0  0  0
 15 33  1  0  0  0  0
 16 18  1  0  0  0  0
 17 18  2  0  0  0  0
 17 19  1  0  0  0  0
 19 21  2  0  0  0  0
 19 22  1  0  0  0  0
 20 34  1  0  0  0  0
 20 35  1  0  0  0  0
 21 23  1  0  0  0  0
 21 38  1  0  0  0  0
 22 24  2  0  0  0  0
 22 39  1  0  0  0  0
 23 25  2  0  0  0  0
 23 41  1  0  0  0  0
 24 25  1  0  0  0  0
 24 42  1  0  0  0  0
 25 43  1  0  0  0  0
M  END
> <PUBCHEM_COMPOUND_CID>
5281950

> <PUBCHEM_CONFORMER_RMSD>
0.6

> <PUBCHEM_CONFORMER_DIVERSEORDER>
1
2
3
5
4
6
7

> <PUBCHEM_MMFF94_PARTIAL_CHARGES>
35
1 -0.16
11 0.09
12 0.08
13 -0.29
14 0.08
15 -0.15
16 0.47
17 0.05
18 0.09
19 0.03
2 -0.53
20 -0.3
21 -0.15
22 -0.15
23 -0.15
24 -0.15
25 -0.15
3 -0.53
32 0.15
33 0.15
34 0.15
35 0.15
36 0.45
37 0.45
38 0.15
39 0.15
4 -0.53
40 0.45
41 0.15
42 0.15
43 0.15
5 -0.57
6 0.28
7 -0.14
8 0.08

> <PUBCHEM_EFFECTIVE_ROTOR_COUNT>
3

> <PUBCHEM_PHARMACOPHORE_FEATURES>
10
1 1 acceptor
1 2 donor
1 20 hydrophobe
1 3 donor
1 4 donor
1 5 acceptor
3 6 9 10 hydrophobe
6 1 8 11 16 17 18 rings
6 19 21 22 23 24 25 rings
6 7 8 11 12 14 15 rings

> <PUBCHEM_HEAVY_ATOM_COUNT>
25

> <PUBCHEM_ATOM_DEF_STEREO_COUNT>
0

> <PUBCHEM_ATOM_UDEF_STEREO_COUNT>
0

> <PUBCHEM_BOND_DEF_STEREO_COUNT>
0

> <PUBCHEM_BOND_UDEF_STEREO_COUNT>
0

> <PUBCHEM_ISOTOPIC_ATOM_COUNT>
0

> <PUBCHEM_COMPONENT_COUNT>
1

> <PUBCHEM_CACTVS_TAUTO_COUNT>
24

> <PUBCHEM_CONFORMER_ID>
0050989E00000001

> <PUBCHEM_MMFF94_ENERGY>
94.0915

> <PUBCHEM_FEATURE_SELFOVERLAP>
50.774

> <PUBCHEM_SHAPE_FINGERPRINT>
10165383 225 18119228804692234248
10319926 262 18190201048278896730
10411042 1 17761775061672523366
10493431 412 18335974381035413489
10498660 4 18411136939626738716
10670039 82 18341603824871656460
10871710 139 18271229543969951508
10906281 52 18342443881809797105
10967382 1 18267020733886291647
1100329 8 18195242218338954667
11112241 14 16662360302461902168
11115154 58 17533242816533988413
11135609 187 18268441307690552045
11578080 2 4749505914762575513
11595378 159 18127156124951936688
12173636 292 18337393845607826629
12236239 1 17846504678287197218
12403814 3 17632864126743515781
12553582 1 18267583516157056067
12788726 201 18196641913709992094
13140716 1 18123466077433610083
13402501 40 17968949569931913824
13965767 371 17841436135414825304
14081887 123 18334864921724978360
14117953 113 18199191865579389428
14223421 5 18265615574757463674
14739800 52 18123198905690447704
14787075 74 17968389960904138865
14790565 3 18338220661552827193
14955137 171 18122601908734231235
16945 1 18411135848942441677
19591789 44 18050842226586467923
20510252 161 18334574633585996786
20600515 1 18265052431842010396
20642791 178 18199738160024176117
20715895 44 17556318472291630325
20739085 24 17834645547512409697
2334 1 17762336920713865543
23366157 5 18057602269014505426
23402539 116 18337115570782814510
23557571 272 18261381205677237286
23559900 14 17901677286283573714
238 59 16974797883330223573
2748010 2 17979908634190555725
3178227 256 18269825429821313195
34934 24 18341337772842949723
350125 39 18194399120437763538
3524813 1 18113909221212396232
469060 322 18268127808872381475
5104073 3 18339637970790084923
7064713 232 18339363075587551056
7097593 13 17698466621317376802
7808743 9 18339079294677385856
81228 2 18338504262458409786
9925002 15 17320433284631454566
9981440 41 18341051907966999923

> <PUBCHEM_SHAPE_MULTIPOLES>
485.14
8.05
4.19
1.05
7.09
0.57
-0.1
-1.51
-0.47
-3.34
0.41
0.87
-0.62
-0.29

> <PUBCHEM_SHAPE_SELFOVERLAP>
1072.177

> <PUBCHEM_SHAPE_VOLUME>
258.2

> <PUBCHEM_COORDINATE_TYPE>
2
5
10

$$$$

