443717
  -OEChem-07051213033D

 56 59  0     1  0  0  0  0  0999 V2000
   -4.3007   -1.3962   -0.3926 O   0  0  0  0  0  0  0  0  0  0  0  0
   -5.9950    0.7616   -0.1950 O   0  0  0  0  0  0  0  0  0  0  0  0
    0.3642   -3.1507    2.1641 O   0  0  0  0  0  0  0  0  0  0  0  0
    4.9451   -1.4835   -0.6878 O   0  0  0  0  0  0  0  0  0  0  0  0
    6.0326    0.8904    0.2593 O   0  0  0  0  0  0  0  0  0  0  0  0
   -0.1769   -3.7209    0.0280 O   0  0  0  0  0  0  0  0  0  0  0  0
   -0.1628   -0.7422   -0.8265 N   0  0  2  0  0  0  0  0  0  0  0  0
   -1.4571   -1.1396   -0.2455 C   0  0  2  0  0  0  0  0  0  0  0  0
   -2.3928    0.0467   -0.1360 C   0  0  0  0  0  0  0  0  0  0  0  0
    0.4494    0.4069   -0.2714 C   0  0  0  0  0  0  0  0  0  0  0  0
   -1.8538    1.3368    0.0655 C   0  0  0  0  0  0  0  0  0  0  0  0
   -0.3809    1.4808    0.1603 C   0  0  0  0  0  0  0  0  0  0  0  0
   -1.2398   -1.8139    1.1126 C   0  0  0  0  0  0  0  0  0  0  0  0
    1.8734    0.4916   -0.1502 C   0  0  0  0  0  0  0  0  0  0  0  0
   -3.7806   -0.1465   -0.2168 C   0  0  0  0  0  0  0  0  0  0  0  0
   -0.0231   -0.8736   -2.2774 C   0  0  0  0  0  0  0  0  0  0  0  0
    2.4486    1.6801    0.3590 C   0  0  0  0  0  0  0  0  0  0  0  0
    0.2335    2.6325    0.6699 C   0  0  0  0  0  0  0  0  0  0  0  0
   -2.7518    2.4144    0.1555 C   0  0  0  0  0  0  0  0  0  0  0  0
    1.6216    2.7348    0.7548 C   0  0  0  0  0  0  0  0  0  0  0  0
   -4.6469    0.9370   -0.1153 C   0  0  0  0  0  0  0  0  0  0  0  0
    2.7570   -0.5643   -0.4804 C   0  0  0  0  0  0  0  0  0  0  0  0
   -4.1329    2.2159    0.0670 C   0  0  0  0  0  0  0  0  0  0  0  0
   -0.3172   -2.9941    1.0002 C   0  0  0  0  0  0  0  0  0  0  0  0
    3.8437    1.7975    0.4823 C   0  0  0  0  0  0  0  0  0  0  0  0
    4.1415   -0.4371   -0.3494 C   0  0  0  0  0  0  0  0  0  0  0  0
    4.6852    0.7469    0.1264 C   0  0  0  0  0  0  0  0  0  0  0  0
   -5.0887   -1.6087   -1.5608 C   0  0  0  0  0  0  0  0  0  0  0  0
   -6.6908    0.5175    1.0261 C   0  0  0  0  0  0  0  0  0  0  0  0
    5.2515   -2.4243    0.3395 C   0  0  0  0  0  0  0  0  0  0  0  0
    6.7445    1.4040   -0.8652 C   0  0  0  0  0  0  0  0  0  0  0  0
   -1.9044   -1.8804   -0.9219 H   0  0  0  0  0  0  0  0  0  0  0  0
   -0.8158   -1.0999    1.8302 H   0  0  0  0  0  0  0  0  0  0  0  0
   -2.1888   -2.1705    1.5296 H   0  0  0  0  0  0  0  0  0  0  0  0
    1.0007   -0.7012   -2.6230 H   0  0  0  0  0  0  0  0  0  0  0  0
   -0.6791   -0.1639   -2.7941 H   0  0  0  0  0  0  0  0  0  0  0  0
   -0.3011   -1.8855   -2.5917 H   0  0  0  0  0  0  0  0  0  0  0  0
   -0.3508    3.4774    1.0242 H   0  0  0  0  0  0  0  0  0  0  0  0
   -2.4005    3.4343    0.2866 H   0  0  0  0  0  0  0  0  0  0  0  0
    2.0487    3.6523    1.1561 H   0  0  0  0  0  0  0  0  0  0  0  0
    2.3663   -1.5145   -0.8407 H   0  0  0  0  0  0  0  0  0  0  0  0
   -4.8005    3.0706    0.1406 H   0  0  0  0  0  0  0  0  0  0  0  0
    4.2827    2.7163    0.8686 H   0  0  0  0  0  0  0  0  0  0  0  0
   -4.8957   -2.6256   -1.9153 H   0  0  0  0  0  0  0  0  0  0  0  0
   -4.8334   -0.9138   -2.3686 H   0  0  0  0  0  0  0  0  0  0  0  0
   -6.1516   -1.5343   -1.3152 H   0  0  0  0  0  0  0  0  0  0  0  0
    0.9804   -3.9131    2.1273 H   0  0  0  0  0  0  0  0  0  0  0  0
   -6.3180   -0.3918    1.5081 H   0  0  0  0  0  0  0  0  0  0  0  0
   -7.7507    0.3811    0.7948 H   0  0  0  0  0  0  0  0  0  0  0  0
   -6.5868    1.3714    1.7030 H   0  0  0  0  0  0  0  0  0  0  0  0
    4.3376   -2.9023    0.7066 H   0  0  0  0  0  0  0  0  0  0  0  0
    5.7779   -1.9354    1.1653 H   0  0  0  0  0  0  0  0  0  0  0  0
    5.9030   -3.1937   -0.0837 H   0  0  0  0  0  0  0  0  0  0  0  0
    6.3952    2.4116   -1.1123 H   0  0  0  0  0  0  0  0  0  0  0  0
    6.6278    0.7430   -1.7297 H   0  0  0  0  0  0  0  0  0  0  0  0
    7.8052    1.4554   -0.6048 H   0  0  0  0  0  0  0  0  0  0  0  0
  1 15  1  0  0  0  0
  1 28  1  0  0  0  0
  2 21  1  0  0  0  0
  2 29  1  0  0  0  0
  3 24  1  0  0  0  0
  3 47  1  0  0  0  0
  4 26  1  0  0  0  0
  4 30  1  0  0  0  0
  5 27  1  0  0  0  0
  5 31  1  0  0  0  0
  6 24  2  0  0  0  0
  7  8  1  0  0  0  0
  7 10  1  0  0  0  0
  7 16  1  0  0  0  0
  8  9  1  0  0  0  0
  8 13  1  0  0  0  0
  8 32  1  0  0  0  0
  9 11  2  0  0  0  0
  9 15  1  0  0  0  0
 10 12  2  0  0  0  0
 10 14  1  0  0  0  0
 11 12  1  0  0  0  0
 11 19  1  0  0  0  0
 12 18  1  0  0  0  0
 13 24  1  0  0  0  0
 13 33  1  0  0  0  0
 13 34  1  0  0  0  0
 14 17  1  0  0  0  0
 14 22  2  0  0  0  0
 15 21  2  0  0  0  0
 16 35  1  0  0  0  0
 16 36  1  0  0  0  0
 16 37  1  0  0  0  0
 17 20  1  0  0  0  0
 17 25  2  0  0  0  0
 18 20  2  0  0  0  0
 18 38  1  0  0  0  0
 19 23  2  0  0  0  0
 19 39  1  0  0  0  0
 20 40  1  0  0  0  0
 21 23  1  0  0  0  0
 22 26  1  0  0  0  0
 22 41  1  0  0  0  0
 23 42  1  0  0  0  0
 25 27  1  0  0  0  0
 25 43  1  0  0  0  0
 26 27  2  0  0  0  0
 28 44  1  0  0  0  0
 28 45  1  0  0  0  0
 28 46  1  0  0  0  0
 29 48  1  0  0  0  0
 29 49  1  0  0  0  0
 29 50  1  0  0  0  0
 30 51  1  0  0  0  0
 30 52  1  0  0  0  0
 30 53  1  0  0  0  0
 31 54  1  0  0  0  0
 31 55  1  0  0  0  0
 31 56  1  0  0  0  0
M  END
> <PUBCHEM_COMPOUND_CID>
443717

> <PUBCHEM_CONFORMER_RMSD>
0.8

> <PUBCHEM_CONFORMER_DIVERSEORDER>
1
6
5
8
7
3
2
4

> <PUBCHEM_MMFF94_PARTIAL_CHARGES>
34
1 -0.36
10 0.1
13 0.06
15 0.08
16 0.37
18 -0.15
19 -0.15
2 -0.36
20 -0.15
21 0.08
22 -0.15
23 -0.15
24 0.66
25 -0.15
26 0.08
27 0.08
28 0.28
29 0.28
3 -0.65
30 0.28
31 0.28
38 0.15
39 0.15
4 -0.36
40 0.15
41 0.15
42 0.15
43 0.15
47 0.5
5 -0.36
6 -0.57
7 -0.84
8 0.51
9 -0.14

> <PUBCHEM_EFFECTIVE_ROTOR_COUNT>
6.4

> <PUBCHEM_PHARMACOPHORE_FEATURES>
12
1 1 acceptor
1 2 acceptor
1 3 acceptor
1 4 acceptor
1 5 acceptor
1 6 acceptor
1 7 cation
3 3 6 24 anion
6 10 12 14 17 18 20 rings
6 14 17 22 25 26 27 rings
6 7 8 9 10 11 12 rings
6 9 11 15 19 21 23 rings

> <PUBCHEM_HEAVY_ATOM_COUNT>
31

> <PUBCHEM_ATOM_DEF_STEREO_COUNT>
1

> <PUBCHEM_ATOM_UDEF_STEREO_COUNT>
0

> <PUBCHEM_BOND_DEF_STEREO_COUNT>
0

> <PUBCHEM_BOND_UDEF_STEREO_COUNT>
0

> <PUBCHEM_ISOTOPIC_ATOM_COUNT>
0

> <PUBCHEM_COMPONENT_COUNT>
1

> <PUBCHEM_CACTVS_TAUTO_COUNT>
1

> <PUBCHEM_CONFORMER_ID>
0006C54500000001

> <PUBCHEM_MMFF94_ENERGY>
153.3401

> <PUBCHEM_FEATURE_SELFOVERLAP>
61.03

> <PUBCHEM_SHAPE_FINGERPRINT>
10693767 8 17753918033923086119
10906281 52 18261935389491968692
11007060 377 18338233748127943304
12788726 201 18187641453560067664
13140716 1 18261674877850054200
13402501 40 18408039611039643396
13533116 47 18410014373094773506
14787075 74 18410576201396819526
14790565 3 18339357573649971032
14931854 50 18412266134042581534
15183329 4 18261112971699876853
15196674 1 18334576867090621596
15209289 33 18410857650941479289
15420108 30 17249190862649423665
15927050 60 18413109441960365954
17349148 13 14634862033864400988
18608769 82 18271517594773499603
19319366 153 17489597757702900602
19591789 44 18410578408973073313
20832881 197 18408040736136160097
21133410 171 17036756055700198550
21267235 1 18261667177564055268
21279426 13 18265897032670577412
22393880 68 18339095855949680933
23402539 116 18335425634422412229
23522609 53 18118654743215936672
23559900 14 18335143042427501144
3004659 81 18341890849125454614
3178227 256 18341036476808803809
335352 9 18333450928988243389
3383291 50 18267309733398500202
350125 39 18408321077537546525
392239 28 18339627976801671779
4073 2 18342173307085446728
4258327 124 17416385599141309980
4340502 62 18201717370810447146
5104073 3 18186522107082033977
6138700 20 18265331883989409782
9709674 26 18336827468254821384

> <PUBCHEM_SHAPE_MULTIPOLES>
597.77
13.46
3.48
1.22
2.32
1.7
0.14
-2.37
1.31
0.57
-1.22
-0.33
0.79
-0.54

> <PUBCHEM_SHAPE_SELFOVERLAP>
1310.052

> <PUBCHEM_SHAPE_VOLUME>
325.5

> <PUBCHEM_COORDINATE_TYPE>
2
5
10

$$$$

