443406
  -OEChem-07051213023D

 52 55  0     1  0  0  0  0  0999 V2000
    3.3443   -1.8920    0.9979 O   0  0  0  0  0  0  0  0  0  0  0  0
   -5.2208   -1.1366   -0.5520 O   0  0  0  0  0  0  0  0  0  0  0  0
    1.6519    0.0471   -0.8569 N   0  0  2  0  0  0  0  0  0  0  0  0
    0.3157    1.2814    0.8421 C   0  0  0  0  0  0  0  0  0  0  0  0
   -0.9090    1.3030   -0.1615 C   0  0  1  0  0  0  0  0  0  0  0  0
    1.1205   -0.0195    0.5237 C   0  0  1  0  0  0  0  0  0  0  0  0
   -0.3711    1.2807   -1.6231 C   0  0  0  0  0  0  0  0  0  0  0  0
    0.6241    0.1434   -1.8936 C   0  0  0  0  0  0  0  0  0  0  0  0
    3.6893   -1.0714   -0.1186 C   0  0  0  0  0  0  0  0  0  0  0  0
    0.2738   -1.2727    0.8345 C   0  0  0  0  0  0  0  0  0  0  0  0
   -1.7703    0.0271    0.0049 C   0  0  0  0  0  0  0  0  0  0  0  0
    2.6230   -0.9979   -1.1630 C   0  0  0  0  0  0  0  0  0  0  0  0
   -1.7487    2.5910    0.0195 C   0  0  0  0  0  0  0  0  0  0  0  0
   -0.1416    1.3060    2.3264 C   0  0  0  0  0  0  0  0  0  0  0  0
    1.2642    2.5067    0.6935 C   0  0  0  0  0  0  0  0  0  0  0  0
    4.5270    0.1371    0.1498 C   0  0  0  0  0  0  0  0  0  0  0  0
    5.1229   -1.0540   -0.5416 C   0  0  0  0  0  0  0  0  0  0  0  0
   -1.1825   -1.1803    0.4451 C   0  0  0  0  0  0  0  0  0  0  0  0
   -3.1363    0.0083   -0.3370 C   0  0  0  0  0  0  0  0  0  0  0  0
   -0.8920    3.8170   -0.1801 C   0  0  0  0  0  0  0  0  0  0  0  0
   -1.9657   -2.3418    0.5676 C   0  0  0  0  0  0  0  0  0  0  0  0
   -3.9013   -1.1542   -0.2165 C   0  0  0  0  0  0  0  0  0  0  0  0
   -3.3174   -2.3285    0.2390 C   0  0  0  0  0  0  0  0  0  0  0  0
    1.9531   -0.0109    1.2337 H   0  0  0  0  0  0  0  0  0  0  0  0
    0.1387    2.1992   -1.9156 H   0  0  0  0  0  0  0  0  0  0  0  0
   -1.2053    1.1824   -2.3317 H   0  0  0  0  0  0  0  0  0  0  0  0
    0.0877   -0.8065   -2.0078 H   0  0  0  0  0  0  0  0  0  0  0  0
    1.0981    0.3391   -2.8641 H   0  0  0  0  0  0  0  0  0  0  0  0
    0.3109   -1.4513    1.9180 H   0  0  0  0  0  0  0  0  0  0  0  0
    0.7086   -2.1662    0.3739 H   0  0  0  0  0  0  0  0  0  0  0  0
    2.1480   -1.9797   -1.2790 H   0  0  0  0  0  0  0  0  0  0  0  0
    3.0807   -0.7721   -2.1351 H   0  0  0  0  0  0  0  0  0  0  0  0
   -2.2489    2.6227    0.9941 H   0  0  0  0  0  0  0  0  0  0  0  0
   -2.5418    2.6389   -0.7359 H   0  0  0  0  0  0  0  0  0  0  0  0
    0.7150    1.1594    2.9951 H   0  0  0  0  0  0  0  0  0  0  0  0
   -0.5944    2.2675    2.5920 H   0  0  0  0  0  0  0  0  0  0  0  0
   -0.8773    0.5349    2.5689 H   0  0  0  0  0  0  0  0  0  0  0  0
    1.0035    3.3700    1.3050 H   0  0  0  0  0  0  0  0  0  0  0  0
    2.2410    2.2290    1.1192 H   0  0  0  0  0  0  0  0  0  0  0  0
    1.5077    2.7842   -0.3330 H   0  0  0  0  0  0  0  0  0  0  0  0
    4.8327    0.3321    1.1709 H   0  0  0  0  0  0  0  0  0  0  0  0
    4.3742    1.0308   -0.4432 H   0  0  0  0  0  0  0  0  0  0  0  0
    5.3632   -0.9554   -1.5932 H   0  0  0  0  0  0  0  0  0  0  0  0
    5.8292   -1.6574    0.0163 H   0  0  0  0  0  0  0  0  0  0  0  0
   -3.6350    0.8942   -0.7173 H   0  0  0  0  0  0  0  0  0  0  0  0
   -0.5632    4.2490    0.7664 H   0  0  0  0  0  0  0  0  0  0  0  0
   -0.1210    3.8271   -0.9439 H   0  0  0  0  0  0  0  0  0  0  0  0
   -1.5777    4.6022   -0.5374 H   0  0  0  0  0  0  0  0  0  0  0  0
   -1.5172   -3.2675    0.9213 H   0  0  0  0  0  0  0  0  0  0  0  0
    3.3047   -2.8291    0.7418 H   0  0  0  0  0  0  0  0  0  0  0  0
   -3.9001   -3.2399    0.3390 H   0  0  0  0  0  0  0  0  0  0  0  0
   -5.5945   -2.0233   -0.4094 H   0  0  0  0  0  0  0  0  0  0  0  0
  1  9  1  0  0  0  0
  1 50  1  0  0  0  0
  2 22  1  0  0  0  0
  2 52  1  0  0  0  0
  3  6  1  0  0  0  0
  3  8  1  0  0  0  0
  3 12  1  0  0  0  0
  4  5  1  0  0  0  0
  4  6  1  0  0  0  0
  4 14  1  0  0  0  0
  4 15  1  0  0  0  0
  5  7  1  0  0  0  0
  5 11  1  0  0  0  0
  5 13  1  0  0  0  0
  6 10  1  0  0  0  0
  6 24  1  0  0  0  0
  7  8  1  0  0  0  0
  7 25  1  0  0  0  0
  7 26  1  0  0  0  0
  8 27  1  0  0  0  0
  8 28  1  0  0  0  0
  9 12  1  0  0  0  0
  9 16  1  0  0  0  0
  9 17  1  0  0  0  0
 10 18  1  0  0  0  0
 10 29  1  0  0  0  0
 10 30  1  0  0  0  0
 11 18  2  0  0  0  0
 11 19  1  0  0  0  0
 12 31  1  0  0  0  0
 12 32  1  0  0  0  0
 13 20  1  0  0  0  0
 13 33  1  0  0  0  0
 13 34  1  0  0  0  0
 14 35  1  0  0  0  0
 14 36  1  0  0  0  0
 14 37  1  0  0  0  0
 15 38  1  0  0  0  0
 15 39  1  0  0  0  0
 15 40  1  0  0  0  0
 16 17  1  0  0  0  0
 16 41  1  0  0  0  0
 16 42  1  0  0  0  0
 17 43  1  0  0  0  0
 17 44  1  0  0  0  0
 18 21  1  0  0  0  0
 19 22  2  0  0  0  0
 19 45  1  0  0  0  0
 20 46  1  0  0  0  0
 20 47  1  0  0  0  0
 20 48  1  0  0  0  0
 21 23  2  0  0  0  0
 21 49  1  0  0  0  0
 22 23  1  0  0  0  0
 23 51  1  0  0  0  0
M  END
> <PUBCHEM_COMPOUND_CID>
443406

> <PUBCHEM_CONFORMER_RMSD>
0.8

> <PUBCHEM_CONFORMER_DIVERSEORDER>
1

> <PUBCHEM_MMFF94_PARTIAL_CHARGES>
26
1 -0.55
10 0.14
11 -0.14
12 0.37
16 -0.2
17 -0.2
18 -0.14
19 -0.15
2 -0.53
21 -0.15
22 0.08
23 -0.15
3 -0.81
41 0.1
42 0.1
43 0.1
44 0.1
45 0.15
49 0.15
5 0.14
50 0.4
51 0.15
52 0.45
6 0.27
8 0.27
9 0.05

> <PUBCHEM_EFFECTIVE_ROTOR_COUNT>
4.6

> <PUBCHEM_PHARMACOPHORE_FEATURES>
9
1 1 acceptor
1 1 donor
1 2 donor
1 20 hydrophobe
1 3 cation
3 4 14 15 hydrophobe
6 11 18 19 21 22 23 rings
6 3 4 5 6 7 8 rings
6 4 5 6 10 11 18 rings

> <PUBCHEM_HEAVY_ATOM_COUNT>
23

> <PUBCHEM_ATOM_DEF_STEREO_COUNT>
2

> <PUBCHEM_ATOM_UDEF_STEREO_COUNT>
0

> <PUBCHEM_BOND_DEF_STEREO_COUNT>
0

> <PUBCHEM_BOND_UDEF_STEREO_COUNT>
0

> <PUBCHEM_ISOTOPIC_ATOM_COUNT>
0

> <PUBCHEM_COMPONENT_COUNT>
1

> <PUBCHEM_CACTVS_TAUTO_COUNT>
3

> <PUBCHEM_CONFORMER_ID>
0006C40E00000001

> <PUBCHEM_MMFF94_ENERGY>
99.8106

> <PUBCHEM_FEATURE_SELFOVERLAP>
47.217

> <PUBCHEM_SHAPE_FINGERPRINT>
104564 63 18340768260063637563
10863032 1 18196085543324916269
10948715 1 17764305441612198596
1100329 8 18337949099471314705
11315181 36 17988916800382787070
11578080 2 17559140772526684764
11833330 49 18343582949316456973
12173636 292 18052544566802164132
12423570 1 16837980123746944673
12553582 1 18266713862425386807
12788726 201 18342457088253964474
13004483 165 18341342149109065510
13027679 85 18411139125781059373
13134695 92 18263364681619877637
13140716 1 18339911620214802579
13544653 18 18261104154190170294
13583140 156 17679326280183454738
14115302 16 18059850628168483359
14787075 74 18338797789514026102
14790565 3 17832986427025937073
16945 1 18339918320136794233
17357779 13 18260839193293770879
17980427 23 17095790050016393649
1813 80 18190158166455052583
19591789 44 17617090747790692569
200 152 18343581850347959750
20510252 161 18263641925847897746
20600515 1 18115567276099274487
21029758 11 18411983529262572743
21296965 67 18335137583344316970
21452121 199 18268711601938021181
21452121 71 18340758261142382652
22182313 1 18194990507180000985
23175994 123 18411133602616686151
23352939 185 18261949665731256304
23402539 116 18409169939157826415
23419403 2 17532110382674100577
23493267 7 17972883832862600296
23557571 272 18187921837419529046
23559900 14 18269557148292740124
2748010 2 18267598905209013395
347723 3 16774083963940376551
4340502 62 17832701645061265989
7364860 26 17907011781909949261
81228 2 18044908368109833699
9709674 26 17908427957498516395

> <PUBCHEM_SHAPE_MULTIPOLES>
456.61
7.34
3.14
1.4
3.48
2.35
0.08
-5.72
-1.09
-1.69
0.43
0.31
0.34
0.27

> <PUBCHEM_SHAPE_SELFOVERLAP>
983.243

> <PUBCHEM_SHAPE_VOLUME>
249.5

> <PUBCHEM_COORDINATE_TYPE>
2
5
10

$$$$

