5281426
  -OEChem-07051212573D

 18 19  0     0  0  0  0  0  0999 V2000
   -1.1951    1.1738   -0.0006 O   0  0  0  0  0  0  0  0  0  0  0  0
    3.5888    1.1462    0.0005 O   0  0  0  0  0  0  0  0  0  0  0  0
   -3.4855    1.1684    0.0010 O   0  0  0  0  0  0  0  0  0  0  0  0
   -0.0069   -0.9506   -0.0001 C   0  0  0  0  0  0  0  0  0  0  0  0
    0.0098    0.4417   -0.0003 C   0  0  0  0  0  0  0  0  0  0  0  0
    1.2077   -1.6402    0.0000 C   0  0  0  0  0  0  0  0  0  0  0  0
    1.2035    1.1605   -0.0003 C   0  0  0  0  0  0  0  0  0  0  0  0
   -1.2880   -1.6360    0.0001 C   0  0  0  0  0  0  0  0  0  0  0  0
    2.4105    0.4648    0.0001 C   0  0  0  0  0  0  0  0  0  0  0  0
    2.4130   -0.9321    0.0001 C   0  0  0  0  0  0  0  0  0  0  0  0
   -2.4248   -0.9355    0.0001 C   0  0  0  0  0  0  0  0  0  0  0  0
   -2.4331    0.5392   -0.0006 C   0  0  0  0  0  0  0  0  0  0  0  0
    1.2315   -2.7271    0.0002 H   0  0  0  0  0  0  0  0  0  0  0  0
    1.1937    2.2465   -0.0004 H   0  0  0  0  0  0  0  0  0  0  0  0
   -1.3051   -2.7203    0.0005 H   0  0  0  0  0  0  0  0  0  0  0  0
    3.3500   -1.4832    0.0003 H   0  0  0  0  0  0  0  0  0  0  0  0
   -3.3848   -1.4401    0.0004 H   0  0  0  0  0  0  0  0  0  0  0  0
    4.3223    0.5073    0.0008 H   0  0  0  0  0  0  0  0  0  0  0  0
  1  5  1  0  0  0  0
  1 12  1  0  0  0  0
  2  9  1  0  0  0  0
  2 18  1  0  0  0  0
  3 12  2  0  0  0  0
  4  5  2  0  0  0  0
  4  6  1  0  0  0  0
  4  8  1  0  0  0  0
  5  7  1  0  0  0  0
  6 10  2  0  0  0  0
  6 13  1  0  0  0  0
  7  9  2  0  0  0  0
  7 14  1  0  0  0  0
  8 11  2  0  0  0  0
  8 15  1  0  0  0  0
  9 10  1  0  0  0  0
 10 16  1  0  0  0  0
 11 12  1  0  0  0  0
 11 17  1  0  0  0  0
M  END
> <PUBCHEM_COMPOUND_CID>
5281426

> <PUBCHEM_CONFORMER_RMSD>
0.4

> <PUBCHEM_CONFORMER_DIVERSEORDER>
1

> <PUBCHEM_MMFF94_PARTIAL_CHARGES>
18
1 -0.23
10 -0.15
11 -0.14
12 0.71
13 0.15
14 0.15
15 0.15
16 0.15
17 0.15
18 0.45
2 -0.53
3 -0.57
4 0.03
5 0.08
6 -0.15
7 -0.15
8 -0.18
9 0.08

> <PUBCHEM_EFFECTIVE_ROTOR_COUNT>
0

> <PUBCHEM_PHARMACOPHORE_FEATURES>
4
1 2 donor
1 3 acceptor
6 1 4 5 8 11 12 rings
6 4 5 6 7 9 10 rings

> <PUBCHEM_HEAVY_ATOM_COUNT>
12

> <PUBCHEM_ATOM_DEF_STEREO_COUNT>
0

> <PUBCHEM_ATOM_UDEF_STEREO_COUNT>
0

> <PUBCHEM_BOND_DEF_STEREO_COUNT>
0

> <PUBCHEM_BOND_UDEF_STEREO_COUNT>
0

> <PUBCHEM_ISOTOPIC_ATOM_COUNT>
0

> <PUBCHEM_COMPONENT_COUNT>
1

> <PUBCHEM_CACTVS_TAUTO_COUNT>
3

> <PUBCHEM_CONFORMER_ID>
0050969200000001

> <PUBCHEM_MMFF94_ENERGY>
36.5695

> <PUBCHEM_FEATURE_SELFOVERLAP>
20.325

> <PUBCHEM_SHAPE_FINGERPRINT>
10608611 8 18410577283686691752
12491281 212 18335409201423811689
12932764 1 17458911435410423114
13380535 21 18410843369800725678
13380535 76 18410859862469997478
13897977 150 18410296904058380509
14325111 11 18410856555344900224
14897335 6 18410017640936891399
15219456 202 18409442596303037826
15775835 57 18410570686637809737
16945 1 18266458895902248966
17844478 74 18130493172500844339
20871998 184 18116427051374748719
21040471 1 18410856533949288966
21501502 16 18410862057203540998
23235685 24 18410862061493084140
23402655 69 18263094335267447341
23463225 33 18342744035345888642
23552423 10 18343864398554752374
23559900 14 18260543399935643724
2748010 2 18410569587131619278
528886 8 18410298003501254722
53812653 166 18334299738536301752
6333449 129 18336549321998948047
7364860 26 18263082279004401942

> <PUBCHEM_SHAPE_MULTIPOLES>
229.35
4.8
1.75
0.59
0.06
0.32
0
-1.55
0
0.06
0
-0.01
0.03
0

> <PUBCHEM_SHAPE_SELFOVERLAP>
502.286

> <PUBCHEM_SHAPE_VOLUME>
124

> <PUBCHEM_COORDINATE_TYPE>
2
5
10

$$$$

