643732
  -OEChem-07051213013D

 39 39  0     1  0  0  0  0  0999 V2000
   -0.1817    1.2350    1.2742 O   0  0  0  0  0  0  0  0  0  0  0  0
   -4.6433   -1.1054   -0.7034 O   0  0  0  0  0  0  0  0  0  0  0  0
    4.4034    1.4755   -0.3813 O   0  0  0  0  0  0  0  0  0  0  0  0
    4.4582    0.2512    1.5390 O   0  0  0  0  0  0  0  0  0  0  0  0
   -1.7874    1.1794   -0.5595 C   0  0  0  0  0  0  0  0  0  0  0  0
   -0.8874    0.3284    0.4134 C   0  0  2  0  0  0  0  0  0  0  0  0
   -2.7687    0.2561   -1.3116 C   0  0  0  0  0  0  0  0  0  0  0  0
   -1.7325   -0.5964    1.2870 C   0  0  0  0  0  0  0  0  0  0  0  0
   -2.5970    2.2518    0.2209 C   0  0  0  0  0  0  0  0  0  0  0  0
   -0.9470    1.9508   -1.6058 C   0  0  0  0  0  0  0  0  0  0  0  0
   -3.5477   -0.6471   -0.3820 C   0  0  0  0  0  0  0  0  0  0  0  0
    0.1458   -0.5038   -0.3087 C   0  0  0  0  0  0  0  0  0  0  0  0
   -2.9492   -1.0310    0.9184 C   0  0  0  0  0  0  0  0  0  0  0  0
   -1.1449   -1.0502    2.5997 C   0  0  0  0  0  0  0  0  0  0  0  0
    1.4694   -0.3210   -0.1753 C   0  0  0  0  0  0  0  0  0  0  0  0
    2.5351   -1.0781   -0.8399 C   0  0  0  0  0  0  0  0  0  0  0  0
    2.1154   -2.1983   -1.7566 C   0  0  0  0  0  0  0  0  0  0  0  0
    3.8118   -0.7381   -0.5713 C   0  0  0  0  0  0  0  0  0  0  0  0
    4.2476    0.3411    0.3428 C   0  0  0  0  0  0  0  0  0  0  0  0
   -2.2420   -0.3864   -2.0270 H   0  0  0  0  0  0  0  0  0  0  0  0
   -3.4894    0.8574   -1.8797 H   0  0  0  0  0  0  0  0  0  0  0  0
   -3.2727    2.7956   -0.4500 H   0  0  0  0  0  0  0  0  0  0  0  0
   -3.2109    1.8177    1.0159 H   0  0  0  0  0  0  0  0  0  0  0  0
   -1.9383    2.9955    0.6830 H   0  0  0  0  0  0  0  0  0  0  0  0
   -1.5956    2.5497   -2.2568 H   0  0  0  0  0  0  0  0  0  0  0  0
   -0.2353    2.6400   -1.1411 H   0  0  0  0  0  0  0  0  0  0  0  0
   -0.3859    1.2743   -2.2591 H   0  0  0  0  0  0  0  0  0  0  0  0
   -0.2333   -1.2795   -0.9693 H   0  0  0  0  0  0  0  0  0  0  0  0
   -3.5342   -1.6941    1.5470 H   0  0  0  0  0  0  0  0  0  0  0  0
    0.2032    1.9520    0.7450 H   0  0  0  0  0  0  0  0  0  0  0  0
   -0.1742   -1.5312    2.4434 H   0  0  0  0  0  0  0  0  0  0  0  0
   -1.7885   -1.7744    3.1108 H   0  0  0  0  0  0  0  0  0  0  0  0
   -1.0100   -0.1995    3.2753 H   0  0  0  0  0  0  0  0  0  0  0  0
    1.8108    0.4642    0.4913 H   0  0  0  0  0  0  0  0  0  0  0  0
    2.9885   -2.7016   -2.1868 H   0  0  0  0  0  0  0  0  0  0  0  0
    1.5165   -1.8185   -2.5911 H   0  0  0  0  0  0  0  0  0  0  0  0
    1.5394   -2.9555   -1.2142 H   0  0  0  0  0  0  0  0  0  0  0  0
    4.6250   -1.2840   -1.0423 H   0  0  0  0  0  0  0  0  0  0  0  0
    4.7001    2.2276    0.1744 H   0  0  0  0  0  0  0  0  0  0  0  0
  1  6  1  0  0  0  0
  1 30  1  0  0  0  0
  2 11  2  0  0  0  0
  3 19  1  0  0  0  0
  3 39  1  0  0  0  0
  4 19  2  0  0  0  0
  5  6  1  0  0  0  0
  5  7  1  0  0  0  0
  5  9  1  0  0  0  0
  5 10  1  0  0  0  0
  6  8  1  0  0  0  0
  6 12  1  0  0  0  0
  7 11  1  0  0  0  0
  7 20  1  0  0  0  0
  7 21  1  0  0  0  0
  8 13  2  0  0  0  0
  8 14  1  0  0  0  0
  9 22  1  0  0  0  0
  9 23  1  0  0  0  0
  9 24  1  0  0  0  0
 10 25  1  0  0  0  0
 10 26  1  0  0  0  0
 10 27  1  0  0  0  0
 11 13  1  0  0  0  0
 12 15  2  0  0  0  0
 12 28  1  0  0  0  0
 13 29  1  0  0  0  0
 14 31  1  0  0  0  0
 14 32  1  0  0  0  0
 14 33  1  0  0  0  0
 15 16  1  0  0  0  0
 15 34  1  0  0  0  0
 16 17  1  0  0  0  0
 16 18  2  0  0  0  0
 17 35  1  0  0  0  0
 17 36  1  0  0  0  0
 17 37  1  0  0  0  0
 18 19  1  0  0  0  0
 18 38  1  0  0  0  0
M  END
> <PUBCHEM_COMPOUND_CID>
643732

> <PUBCHEM_CONFORMER_RMSD>
0.6

> <PUBCHEM_CONFORMER_DIVERSEORDER>
1
13
18
6
22
12
11
3
7
9
10
24
25
15
26
5
17
27
14
19
21
2
4
16
8
23
20

> <PUBCHEM_MMFF94_PARTIAL_CHARGES>
22
1 -0.68
11 0.49
12 -0.29
13 -0.14
14 0.14
15 -0.15
16 -0.14
17 0.14
18 -0.14
19 0.71
2 -0.57
28 0.15
29 0.15
3 -0.65
30 0.4
34 0.15
38 0.15
39 0.5
4 -0.57
6 0.56
7 0.06
8 -0.28

> <PUBCHEM_EFFECTIVE_ROTOR_COUNT>
3.6

> <PUBCHEM_PHARMACOPHORE_FEATURES>
9
1 1 acceptor
1 1 donor
1 17 hydrophobe
1 2 acceptor
1 3 acceptor
1 4 acceptor
3 3 4 19 anion
3 5 9 10 hydrophobe
6 5 6 7 8 11 13 rings

> <PUBCHEM_HEAVY_ATOM_COUNT>
19

> <PUBCHEM_ATOM_DEF_STEREO_COUNT>
1

> <PUBCHEM_ATOM_UDEF_STEREO_COUNT>
0

> <PUBCHEM_BOND_DEF_STEREO_COUNT>
2

> <PUBCHEM_BOND_UDEF_STEREO_COUNT>
0

> <PUBCHEM_ISOTOPIC_ATOM_COUNT>
0

> <PUBCHEM_COMPONENT_COUNT>
1

> <PUBCHEM_CACTVS_TAUTO_COUNT>
5

> <PUBCHEM_CONFORMER_ID>
0009D29400000001

> <PUBCHEM_MMFF94_ENERGY>
53.112

> <PUBCHEM_FEATURE_SELFOVERLAP>
45.725

> <PUBCHEM_SHAPE_FINGERPRINT>
10366900 7 18202278105008967610
11315181 36 16845567609436317540
11405975 8 18117555352131028978
11615757 297 17313099765797284426
11759241 127 18408041792924916574
121448 382 17704078408321629363
12633257 1 17917434284832561824
128620 24 17821731632845453334
12916754 54 17677042564014086318
13224815 77 17603585257503872578
13296908 3 18188766274997251166
13533116 47 17489318511529438066
13583140 156 17775006739677847090
14004511 7 13542466466427807166
14115302 16 16200147668838423618
14289901 80 18261107500074844702
14787075 74 16516260513061655703
15375358 24 18343017787433590735
15375462 189 16153715331389007854
16945 1 18059847394416578075
17349148 13 17060339634488925882
17834072 14 17988641865628269060
18186145 218 18196933486033502982
187816 3 17632863014526372767
192875 21 15698282230686040206
19422 9 15936959842873089918
19489759 90 18060426824075014234
19930381 70 17898303696683497568
200 152 18040155136446188502
21339142 149 18201714093945520681
23402539 116 17989498411161877615
23419403 2 17982723087415255697
23557571 272 18341887541204240380
23559900 14 17775279470185837902
2838139 119 12390975405618309399
312423 11 16661191672431547254
6913067 236 18262536813519548782
7615 1 15769192991452628870
81228 2 17916004940568648165
9709674 26 18341887541320641830
9971528 1 14476967783539327830

> <PUBCHEM_SHAPE_MULTIPOLES>
367.53
8.11
1.94
1.81
6.53
0.75
0.1
-0.19
-0.44
-1.01
0.07
0.35
-0.75
0.84

> <PUBCHEM_SHAPE_SELFOVERLAP>
752.92

> <PUBCHEM_SHAPE_VOLUME>
211

> <PUBCHEM_COORDINATE_TYPE>
2
5
10

$$$$

