442836
  -OEChem-07051212593D

 73 77  0     1  0  0  0  0  0999 V2000
   -1.6511    1.5014    0.7867 O   0  0  0  0  0  0  0  0  0  0  0  0
   -4.1668   -1.3772    0.8673 O   0  0  0  0  0  0  0  0  0  0  0  0
    3.9397   -0.9042   -0.9288 O   0  0  0  0  0  0  0  0  0  0  0  0
    5.3128    0.9167   -0.4356 O   0  0  0  0  0  0  0  0  0  0  0  0
    2.5828   -2.7261    0.6598 O   0  0  0  0  0  0  0  0  0  0  0  0
    2.6539    1.4067   -1.7597 O   0  0  0  0  0  0  0  0  0  0  0  0
   -8.7969   -1.1243   -1.0103 O   0  0  0  0  0  0  0  0  0  0  0  0
    5.7907   -2.6190    0.3522 O   0  0  0  0  0  0  0  0  0  0  0  0
    8.5296   -1.5360    0.2740 O   0  0  0  0  0  0  0  0  0  0  0  0
    8.5661    1.1940    1.2235 O   0  0  0  0  0  0  0  0  0  0  0  0
   -9.9284    1.1241    0.1692 O   0  0  0  0  0  0  0  0  0  0  0  0
    5.2769    3.6111    0.1075 O   0  0  0  0  0  0  0  0  0  0  0  0
   -2.4433   -0.4021   -0.4294 C   0  0  1  0  0  0  0  0  0  0  0  0
   -3.5492    0.6119   -0.3124 C   0  0  1  0  0  0  0  0  0  0  0  0
   -1.4245    0.0880    0.6084 C   0  0  1  0  0  0  0  0  0  0  0  0
   -4.4091    0.0441    0.8248 C   0  0  1  0  0  0  0  0  0  0  0  0
   -2.8111    1.8852    0.0355 C   0  0  0  0  0  0  0  0  0  0  0  0
   -3.1298   -1.7008   -0.0693 C   0  0  0  0  0  0  0  0  0  0  0  0
    0.0048   -0.1761    0.1991 C   0  0  0  0  0  0  0  0  0  0  0  0
   -5.8814    0.3293    0.6476 C   0  0  0  0  0  0  0  0  0  0  0  0
    0.6825    0.7439   -0.6007 C   0  0  0  0  0  0  0  0  0  0  0  0
    0.6469   -1.3406    0.6203 C   0  0  0  0  0  0  0  0  0  0  0  0
   -6.6736   -0.5356   -0.1075 C   0  0  0  0  0  0  0  0  0  0  0  0
   -6.4493    1.4575    1.2394 C   0  0  0  0  0  0  0  0  0  0  0  0
    1.9670   -1.5849    0.2418 C   0  0  0  0  0  0  0  0  0  0  0  0
    2.0027    0.4996   -0.9793 C   0  0  0  0  0  0  0  0  0  0  0  0
    2.6449   -0.6648   -0.5578 C   0  0  0  0  0  0  0  0  0  0  0  0
    4.9559   -0.4106   -0.0566 C   0  0  2  0  0  0  0  0  0  0  0  0
    6.1630   -1.3420   -0.1657 C   0  0  1  0  0  0  0  0  0  0  0  0
    7.3553   -0.8020    0.6243 C   0  0  2  0  0  0  0  0  0  0  0  0
   -8.0337   -0.2723   -0.2708 C   0  0  0  0  0  0  0  0  0  0  0  0
    7.6070    0.6723    0.3075 C   0  0  1  0  0  0  0  0  0  0  0  0
   -7.8093    1.7209    1.0760 C   0  0  0  0  0  0  0  0  0  0  0  0
    6.3116    1.4801    0.4165 C   0  0  1  0  0  0  0  0  0  0  0  0
   -8.6016    0.8561    0.3210 C   0  0  0  0  0  0  0  0  0  0  0  0
    6.5134    2.9311   -0.0084 C   0  0  0  0  0  0  0  0  0  0  0  0
    2.4656   -3.8712   -0.1823 C   0  0  0  0  0  0  0  0  0  0  0  0
    1.9254    2.5700   -2.1468 C   0  0  0  0  0  0  0  0  0  0  0  0
   -8.1395   -2.2541   -1.5811 C   0  0  0  0  0  0  0  0  0  0  0  0
   -2.0099   -0.4351   -1.4354 H   0  0  0  0  0  0  0  0  0  0  0  0
   -4.1239    0.7139   -1.2400 H   0  0  0  0  0  0  0  0  0  0  0  0
   -1.6007   -0.3653    1.5924 H   0  0  0  0  0  0  0  0  0  0  0  0
   -4.0894    0.4271    1.8024 H   0  0  0  0  0  0  0  0  0  0  0  0
   -3.4083    2.5924    0.6177 H   0  0  0  0  0  0  0  0  0  0  0  0
   -2.4607    2.3921   -0.8703 H   0  0  0  0  0  0  0  0  0  0  0  0
   -2.4580   -2.4443    0.3686 H   0  0  0  0  0  0  0  0  0  0  0  0
   -3.6102   -2.1440   -0.9484 H   0  0  0  0  0  0  0  0  0  0  0  0
    0.1382    1.6267   -0.9152 H   0  0  0  0  0  0  0  0  0  0  0  0
    0.1229   -2.0614    1.2432 H   0  0  0  0  0  0  0  0  0  0  0  0
   -6.1857   -1.3910   -0.5599 H   0  0  0  0  0  0  0  0  0  0  0  0
   -5.8424    2.1396    1.8289 H   0  0  0  0  0  0  0  0  0  0  0  0
    4.5792   -0.4044    0.9767 H   0  0  0  0  0  0  0  0  0  0  0  0
    6.4359   -1.4945   -1.2166 H   0  0  0  0  0  0  0  0  0  0  0  0
    7.2118   -0.9515    1.7009 H   0  0  0  0  0  0  0  0  0  0  0  0
    8.0320    0.7654   -0.6994 H   0  0  0  0  0  0  0  0  0  0  0  0
    5.9314    1.4788    1.4472 H   0  0  0  0  0  0  0  0  0  0  0  0
   -8.2386    2.6037    1.5423 H   0  0  0  0  0  0  0  0  0  0  0  0
    7.2521    3.4353    0.6217 H   0  0  0  0  0  0  0  0  0  0  0  0
    6.8292    2.9904   -1.0554 H   0  0  0  0  0  0  0  0  0  0  0  0
    5.5324   -2.5038    1.2826 H   0  0  0  0  0  0  0  0  0  0  0  0
    8.6741   -1.4371   -0.6826 H   0  0  0  0  0  0  0  0  0  0  0  0
    8.1927    1.1285    2.1191 H   0  0  0  0  0  0  0  0  0  0  0  0
  -10.1428    1.9434    0.6475 H   0  0  0  0  0  0  0  0  0  0  0  0
    1.4161   -4.1637   -0.2880 H   0  0  0  0  0  0  0  0  0  0  0  0
    2.9018   -3.6721   -1.1663 H   0  0  0  0  0  0  0  0  0  0  0  0
    3.0138   -4.6953    0.2825 H   0  0  0  0  0  0  0  0  0  0  0  0
    2.5973    3.1804   -2.7593 H   0  0  0  0  0  0  0  0  0  0  0  0
    1.6468    3.1794   -1.2803 H   0  0  0  0  0  0  0  0  0  0  0  0
    1.0650    2.3176   -2.7758 H   0  0  0  0  0  0  0  0  0  0  0  0
    5.4268    4.5296   -0.1739 H   0  0  0  0  0  0  0  0  0  0  0  0
   -7.3787   -1.9535   -2.3095 H   0  0  0  0  0  0  0  0  0  0  0  0
   -7.7403   -2.9221   -0.8101 H   0  0  0  0  0  0  0  0  0  0  0  0
   -8.8968   -2.8227   -2.1311 H   0  0  0  0  0  0  0  0  0  0  0  0
  1 15  1  0  0  0  0
  1 17  1  0  0  0  0
  2 16  1  0  0  0  0
  2 18  1  0  0  0  0
  3 27  1  0  0  0  0
  3 28  1  0  0  0  0
  4 28  1  0  0  0  0
  4 34  1  0  0  0  0
  5 25  1  0  0  0  0
  5 37  1  0  0  0  0
  6 26  1  0  0  0  0
  6 38  1  0  0  0  0
  7 31  1  0  0  0  0
  7 39  1  0  0  0  0
  8 29  1  0  0  0  0
  8 60  1  0  0  0  0
  9 30  1  0  0  0  0
  9 61  1  0  0  0  0
 10 32  1  0  0  0  0
 10 62  1  0  0  0  0
 11 35  1  0  0  0  0
 11 63  1  0  0  0  0
 12 36  1  0  0  0  0
 12 70  1  0  0  0  0
 13 14  1  0  0  0  0
 13 15  1  0  0  0  0
 13 18  1  0  0  0  0
 13 40  1  0  0  0  0
 14 16  1  0  0  0  0
 14 17  1  0  0  0  0
 14 41  1  0  0  0  0
 15 19  1  0  0  0  0
 15 42  1  0  0  0  0
 16 20  1  0  0  0  0
 16 43  1  0  0  0  0
 17 44  1  0  0  0  0
 17 45  1  0  0  0  0
 18 46  1  0  0  0  0
 18 47  1  0  0  0  0
 19 21  2  0  0  0  0
 19 22  1  0  0  0  0
 20 23  2  0  0  0  0
 20 24  1  0  0  0  0
 21 26  1  0  0  0  0
 21 48  1  0  0  0  0
 22 25  2  0  0  0  0
 22 49  1  0  0  0  0
 23 31  1  0  0  0  0
 23 50  1  0  0  0  0
 24 33  2  0  0  0  0
 24 51  1  0  0  0  0
 25 27  1  0  0  0  0
 26 27  2  0  0  0  0
 28 29  1  0  0  0  0
 28 52  1  0  0  0  0
 29 30  1  0  0  0  0
 29 53  1  0  0  0  0
 30 32  1  0  0  0  0
 30 54  1  0  0  0  0
 31 35  2  0  0  0  0
 32 34  1  0  0  0  0
 32 55  1  0  0  0  0
 33 35  1  0  0  0  0
 33 57  1  0  0  0  0
 34 36  1  0  0  0  0
 34 56  1  0  0  0  0
 36 58  1  0  0  0  0
 36 59  1  0  0  0  0
 37 64  1  0  0  0  0
 37 65  1  0  0  0  0
 37 66  1  0  0  0  0
 38 67  1  0  0  0  0
 38 68  1  0  0  0  0
 38 69  1  0  0  0  0
 39 71  1  0  0  0  0
 39 72  1  0  0  0  0
 39 73  1  0  0  0  0
M  END
> <PUBCHEM_COMPOUND_CID>
442836

> <PUBCHEM_CONFORMER_RMSD>
1.2

> <PUBCHEM_CONFORMER_DIVERSEORDER>
1
25
22
18
11
30
20
5
15
17
9
16
7
26
31
29
27
2
28
4
3
32
19
24
6
12
8
10
13
23
21
14

> <PUBCHEM_MMFF94_PARTIAL_CHARGES>
47
1 -0.56
10 -0.68
11 -0.53
12 -0.68
15 0.42
16 0.42
17 0.28
18 0.28
19 -0.14
2 -0.56
20 -0.14
21 -0.15
22 -0.15
23 -0.15
24 -0.15
25 0.08
26 0.08
27 0.08
28 0.56
29 0.28
3 -0.36
30 0.28
31 0.08
32 0.28
33 -0.15
34 0.28
35 0.08
36 0.28
37 0.28
38 0.28
39 0.28
4 -0.56
48 0.15
49 0.15
5 -0.36
50 0.15
51 0.15
57 0.15
6 -0.36
60 0.4
61 0.4
62 0.4
63 0.45
7 -0.36
70 0.4
8 -0.68
9 -0.68

> <PUBCHEM_EFFECTIVE_ROTOR_COUNT>
10.4

> <PUBCHEM_PHARMACOPHORE_FEATURES>
21
1 1 acceptor
1 10 acceptor
1 10 donor
1 11 donor
1 12 acceptor
1 12 donor
1 2 acceptor
1 3 acceptor
1 4 acceptor
1 5 acceptor
1 6 acceptor
1 7 acceptor
1 8 acceptor
1 8 donor
1 9 acceptor
1 9 donor
5 1 13 14 15 17 rings
5 2 13 14 16 18 rings
6 19 21 22 25 26 27 rings
6 20 23 24 31 33 35 rings
6 4 28 29 30 32 34 rings

> <PUBCHEM_HEAVY_ATOM_COUNT>
39

> <PUBCHEM_ATOM_DEF_STEREO_COUNT>
9

> <PUBCHEM_ATOM_UDEF_STEREO_COUNT>
0

> <PUBCHEM_BOND_DEF_STEREO_COUNT>
0

> <PUBCHEM_BOND_UDEF_STEREO_COUNT>
0

> <PUBCHEM_ISOTOPIC_ATOM_COUNT>
0

> <PUBCHEM_COMPONENT_COUNT>
1

> <PUBCHEM_CACTVS_TAUTO_COUNT>
3

> <PUBCHEM_CONFORMER_ID>
0006C1D400000001

> <PUBCHEM_MMFF94_ENERGY>
155.4614

> <PUBCHEM_FEATURE_SELFOVERLAP>
107.115

> <PUBCHEM_SHAPE_FINGERPRINT>
10050765 1 18049722111768399657
10165383 225 18410013209812673168
11135926 11 18341058479356776175
11315181 36 17822007624056282009
12144603 126 18186799215126576051
12522641 24 18333454236128684312
12539747 91 16415482657577961247
12664476 115 18413673513590574624
12838862 33 18271536346542548219
13165053 371 18412265055853731360
13165053 68 18192716644441277823
13811026 1 18343300327572454802
13947934 56 18342176636592585431
14040222 383 18187651254243212627
14118638 360 16773523282025015265
14170010 4 18131909369031056180
14394314 77 18335415816422988577
15419008 47 16200435771445389573
15461852 350 17749107764866194455
15840311 113 18334856121917192228
16120349 18 18410294709351145848
16728433 110 18411979162357369585
17686467 74 17895199870712119193
18365409 1 18261958423122737142
20812841 46 18272088309954055840
21033648 29 18336275531510157800
21792934 111 18202002140075014468
23559900 14 18271524196169894809
24771293 8 18412259545278237301
249057 3 17561078095013920899
34797466 226 17676482878704892630
4073 2 18341608179821457475
4149490 64 17845077499330606657
4625314 4 18261110789983195087
67123 10 18186240632516714363
99344 41 18409447007983751711

> <PUBCHEM_SHAPE_MULTIPOLES>
732.17
30.25
3.09
1.17
23.5
0.45
-0.39
-4.01
3.43
-4.15
-0.28
0.47
-0.34
-2.19

> <PUBCHEM_SHAPE_SELFOVERLAP>
1580.97

> <PUBCHEM_SHAPE_VOLUME>
403.1

> <PUBCHEM_COORDINATE_TYPE>
2
5
10

$$$$

