5281967
  -OEChem-07051213023D

 61 62  0     1  0  0  0  0  0999 V2000
    4.1884    2.5175    0.9895 S   0  0  0  0  0  0  0  0  0  0  0  0
   -2.8003    1.3865   -0.0982 O   0  0  0  0  0  0  0  0  0  0  0  0
    2.5455    0.5773    0.3669 N   0  0  0  0  0  0  0  0  0  0  0  0
    2.1619    2.5961   -0.9033 C   0  0  1  0  0  0  0  0  0  0  0  0
    2.6828    2.6346   -2.3101 C   0  0  2  0  0  0  0  0  0  0  0  0
    1.4172    1.8910   -1.9988 C   0  0  0  0  0  0  0  0  0  0  0  0
    2.8814    1.7958    0.1030 C   0  0  0  0  0  0  0  0  0  0  0  0
    3.9072    1.8681   -2.6498 C   0  0  0  0  0  0  0  0  0  0  0  0
    3.4967    0.0271    1.3632 C   0  0  1  0  0  0  0  0  0  0  0  0
    4.0890    1.1709    2.1878 C   0  0  0  0  0  0  0  0  0  0  0  0
    2.7944   -0.9715    2.2246 C   0  0  0  0  0  0  0  0  0  0  0  0
    2.6792   -2.2714    1.9145 C   0  0  0  0  0  0  0  0  0  0  0  0
    3.2058   -2.9756    0.6910 C   0  0  0  0  0  0  0  0  0  0  0  0
    2.1977   -3.6257   -0.2669 C   0  0  0  0  0  0  0  0  0  0  0  0
   -4.3353   -0.3816   -0.6026 C   0  0  0  0  0  0  0  0  0  0  0  0
   -3.6046    0.3759    0.5139 C   0  0  2  0  0  0  0  0  0  0  0  0
   -3.3987   -0.9053   -1.6944 C   0  0  0  0  0  0  0  0  0  0  0  0
   -4.5078    1.0152    1.5807 C   0  0  0  0  0  0  0  0  0  0  0  0
   -2.4318   -1.9396   -1.1573 C   0  0  0  0  0  0  0  0  0  0  0  0
    1.1938   -2.6436   -0.8054 C   0  0  0  0  0  0  0  0  0  0  0  0
   -1.0885   -1.8472   -1.2177 C   0  0  0  0  0  0  0  0  0  0  0  0
   -0.1342   -2.8075   -0.7065 C   0  0  0  0  0  0  0  0  0  0  0  0
   -3.0794   -3.1351   -0.5068 C   0  0  0  0  0  0  0  0  0  0  0  0
   -5.5090    1.9898    1.0263 C   0  0  0  0  0  0  0  0  0  0  0  0
   -1.7212    1.7630    0.7417 C   0  0  0  0  0  0  0  0  0  0  0  0
   -6.8301    1.8954    1.2147 C   0  0  0  0  0  0  0  0  0  0  0  0
    1.7001    3.5039   -0.5256 H   0  0  0  0  0  0  0  0  0  0  0  0
    2.6122    3.5709   -2.8485 H   0  0  0  0  0  0  0  0  0  0  0  0
    0.4828    2.3287   -2.3318 H   0  0  0  0  0  0  0  0  0  0  0  0
    1.4302    0.8095   -2.0527 H   0  0  0  0  0  0  0  0  0  0  0  0
    4.7997    2.4011   -2.3072 H   0  0  0  0  0  0  0  0  0  0  0  0
    3.9841    1.7627   -3.7372 H   0  0  0  0  0  0  0  0  0  0  0  0
    3.9225    0.8587   -2.2261 H   0  0  0  0  0  0  0  0  0  0  0  0
    4.3227   -0.4468    0.8185 H   0  0  0  0  0  0  0  0  0  0  0  0
    5.0717    0.9222    2.5990 H   0  0  0  0  0  0  0  0  0  0  0  0
    3.4303    1.4839    3.0050 H   0  0  0  0  0  0  0  0  0  0  0  0
    2.3301   -0.6235    3.1441 H   0  0  0  0  0  0  0  0  0  0  0  0
    2.1369   -2.9042    2.6149 H   0  0  0  0  0  0  0  0  0  0  0  0
    3.8801   -3.7664    1.0464 H   0  0  0  0  0  0  0  0  0  0  0  0
    3.8412   -2.3129    0.0950 H   0  0  0  0  0  0  0  0  0  0  0  0
    2.7413   -4.0676   -1.1105 H   0  0  0  0  0  0  0  0  0  0  0  0
    1.6926   -4.4508    0.2506 H   0  0  0  0  0  0  0  0  0  0  0  0
   -4.9427   -1.1860   -0.1722 H   0  0  0  0  0  0  0  0  0  0  0  0
   -5.0362    0.2999   -1.1012 H   0  0  0  0  0  0  0  0  0  0  0  0
   -2.9519   -0.3419    1.0285 H   0  0  0  0  0  0  0  0  0  0  0  0
   -3.9985   -1.3676   -2.4884 H   0  0  0  0  0  0  0  0  0  0  0  0
   -2.8576   -0.0771   -2.1671 H   0  0  0  0  0  0  0  0  0  0  0  0
   -5.0300    0.2099    2.1134 H   0  0  0  0  0  0  0  0  0  0  0  0
   -3.9147    1.5424    2.3346 H   0  0  0  0  0  0  0  0  0  0  0  0
    1.5963   -1.7717   -1.3162 H   0  0  0  0  0  0  0  0  0  0  0  0
   -0.6635   -0.9645   -1.6930 H   0  0  0  0  0  0  0  0  0  0  0  0
   -0.5013   -3.6884   -0.1914 H   0  0  0  0  0  0  0  0  0  0  0  0
   -3.2194   -2.9626    0.5651 H   0  0  0  0  0  0  0  0  0  0  0  0
   -2.5210   -4.0642   -0.6496 H   0  0  0  0  0  0  0  0  0  0  0  0
   -4.0635   -3.3256   -0.9507 H   0  0  0  0  0  0  0  0  0  0  0  0
   -5.1257    2.8330    0.4576 H   0  0  0  0  0  0  0  0  0  0  0  0
   -1.0811    2.4460    0.1754 H   0  0  0  0  0  0  0  0  0  0  0  0
   -1.1151    0.8964    1.0247 H   0  0  0  0  0  0  0  0  0  0  0  0
   -2.0633    2.2980    1.6305 H   0  0  0  0  0  0  0  0  0  0  0  0
   -7.4989    2.6396    0.7963 H   0  0  0  0  0  0  0  0  0  0  0  0
   -7.2657    1.0814    1.7833 H   0  0  0  0  0  0  0  0  0  0  0  0
  1  7  1  0  0  0  0
  1 10  1  0  0  0  0
  2 16  1  0  0  0  0
  2 25  1  0  0  0  0
  3  7  2  0  0  0  0
  3  9  1  0  0  0  0
  4  5  1  0  0  0  0
  4  6  1  0  0  0  0
  4  7  1  0  0  0  0
  4 27  1  0  0  0  0
  5  6  1  0  0  0  0
  5  8  1  0  0  0  0
  5 28  1  0  0  0  0
  6 29  1  0  0  0  0
  6 30  1  0  0  0  0
  8 31  1  0  0  0  0
  8 32  1  0  0  0  0
  8 33  1  0  0  0  0
  9 10  1  0  0  0  0
  9 11  1  0  0  0  0
  9 34  1  0  0  0  0
 10 35  1  0  0  0  0
 10 36  1  0  0  0  0
 11 12  2  0  0  0  0
 11 37  1  0  0  0  0
 12 13  1  0  0  0  0
 12 38  1  0  0  0  0
 13 14  1  0  0  0  0
 13 39  1  0  0  0  0
 13 40  1  0  0  0  0
 14 20  1  0  0  0  0
 14 41  1  0  0  0  0
 14 42  1  0  0  0  0
 15 16  1  0  0  0  0
 15 17  1  0  0  0  0
 15 43  1  0  0  0  0
 15 44  1  0  0  0  0
 16 18  1  0  0  0  0
 16 45  1  0  0  0  0
 17 19  1  0  0  0  0
 17 46  1  0  0  0  0
 17 47  1  0  0  0  0
 18 24  1  0  0  0  0
 18 48  1  0  0  0  0
 18 49  1  0  0  0  0
 19 21  2  0  0  0  0
 19 23  1  0  0  0  0
 20 22  2  0  0  0  0
 20 50  1  0  0  0  0
 21 22  1  0  0  0  0
 21 51  1  0  0  0  0
 22 52  1  0  0  0  0
 23 53  1  0  0  0  0
 23 54  1  0  0  0  0
 23 55  1  0  0  0  0
 24 26  2  0  0  0  0
 24 56  1  0  0  0  0
 25 57  1  0  0  0  0
 25 58  1  0  0  0  0
 25 59  1  0  0  0  0
 26 60  1  0  0  0  0
 26 61  1  0  0  0  0
M  END
> <PUBCHEM_COMPOUND_CID>
5281967

> <PUBCHEM_CONFORMER_RMSD>
1.6

> <PUBCHEM_CONFORMER_DIVERSEORDER>
1
70
26
49
7
17
64
46
6
55
74
38
31
79
12
34
36
58
42
69
73
77
51
75
65
4
61
52
22
24
60
2
71
19
56
8
45
25
44
11
48
16
53
62
30
63
5
66
67
47
41
13
54
35
72
50
23
68
32
80
43
78
10
18
59
28
33
29
21
39
27
40
76
15
37
3
57
9
20
14

> <PUBCHEM_MMFF94_PARTIAL_CHARGES>
37
1 -0.37
10 0.23
11 -0.29
12 -0.29
13 0.14
14 0.14
16 0.28
17 0.14
18 0.14
19 -0.28
2 -0.56
20 -0.29
21 -0.15
22 -0.15
23 0.14
24 -0.29
25 0.28
26 -0.3
27 0.1
28 0.1
29 0.1
3 -0.7
30 0.1
37 0.15
38 0.15
4 -0.1
5 -0.19
50 0.15
51 0.15
52 0.15
56 0.15
6 -0.2
60 0.15
61 0.15
7 0.59
8 0.09
9 0.38

> <PUBCHEM_EFFECTIVE_ROTOR_COUNT>
13.2

> <PUBCHEM_PHARMACOPHORE_FEATURES>
6
1 2 acceptor
1 23 hydrophobe
1 26 hydrophobe
1 3 acceptor
4 12 13 14 20 hydrophobe
5 1 3 7 9 10 rings

> <PUBCHEM_HEAVY_ATOM_COUNT>
26

> <PUBCHEM_ATOM_DEF_STEREO_COUNT>
4

> <PUBCHEM_ATOM_UDEF_STEREO_COUNT>
0

> <PUBCHEM_BOND_DEF_STEREO_COUNT>
3

> <PUBCHEM_BOND_UDEF_STEREO_COUNT>
0

> <PUBCHEM_ISOTOPIC_ATOM_COUNT>
0

> <PUBCHEM_COMPONENT_COUNT>
1

> <PUBCHEM_CACTVS_TAUTO_COUNT>
1

> <PUBCHEM_CONFORMER_ID>
005098AF00000001

> <PUBCHEM_MMFF94_ENERGY>
43.2575

> <PUBCHEM_FEATURE_SELFOVERLAP>
30.446

> <PUBCHEM_SHAPE_FINGERPRINT>
10369192 42 14403763274303871748
11513181 2 17676783023625631398
12422481 6 18052574159569679570
12788726 201 17332517974246476430
13583140 156 17274272763325770147
13965767 371 18412272735170074692
16120349 306 18336267842812056241
20567600 9 18409446960443673550
20739085 24 18058191491551330146
23559900 14 17823687749957584687
245318 6 18335415786078038047
338550 245 18263081179339319369
5951187 136 15647347371820099291
6287921 2 18409453604515558542
7064713 232 18261969465372059760

> <PUBCHEM_SHAPE_MULTIPOLES>
528.07
11.89
4.79
2.47
16.33
2.97
-0.41
-8.32
4.92
-2.35
-0.92
-2.35
-1.06
-3.92

> <PUBCHEM_SHAPE_SELFOVERLAP>
1031.572

> <PUBCHEM_SHAPE_VOLUME>
320.4

> <PUBCHEM_COORDINATE_TYPE>
2
5
10

$$$$

