11784975
  -OEChem-07051213122D

 46 48  0     0  0  0  0  0  0999 V2000
    6.7619   -0.1126    0.0000 S   0  0  0  0  0  0  0  0  0  0  0  0
    6.6386   -3.2534    0.0000 F   0  0  0  0  0  0  0  0  0  0  0  0
    5.2297   -3.1301    0.0000 F   0  0  0  0  0  0  0  0  0  0  0  0
    5.3530   -1.7214    0.0000 F   0  0  0  0  0  0  0  0  0  0  0  0
   11.2619    0.7535    0.0000 F   0  0  0  0  0  0  0  0  0  0  0  0
    9.7619    1.6195    0.0000 F   0  0  0  0  0  0  0  0  0  0  0  0
    8.7619   -0.1126    0.0000 O   0  0  0  0  0  0  0  0  0  0  0  0
    7.6279    0.3874    0.0000 O   0  0  0  0  0  0  0  0  0  0  0  0
    5.8958   -0.6126    0.0000 O   0  0  0  0  0  0  0  0  0  0  0  0
    2.8660   -1.2466    0.0000 O   0  0  0  0  0  0  0  0  0  0  0  0
    2.8660    2.7534    0.0000 O   0  0  0  0  0  0  0  0  0  0  0  0
    6.2619    0.7535    0.0000 N   0  0  0  0  0  0  0  0  0  0  0  0
    3.7320    1.2534    0.0000 N   0  0  0  0  0  0  0  0  0  0  0  0
    4.6783   -0.0513    0.0000 N   0  0  0  0  0  0  0  0  0  0  0  0
    4.6783    1.5582    0.0000 N   0  0  0  0  0  0  0  0  0  0  0  0
    2.0000    1.2534    0.0000 N   0  0  0  0  0  0  0  0  0  0  0  0
    7.2619   -0.9786    0.0000 C   0  0  0  0  0  0  0  0  0  0  0  0
    6.7619   -1.8446    0.0000 C   0  0  0  0  0  0  0  0  0  0  0  0
    8.2619   -0.9786    0.0000 C   0  0  0  0  0  0  0  0  0  0  0  0
    7.2619   -2.7106    0.0000 C   0  0  0  0  0  0  0  0  0  0  0  0
    5.2619    0.7535    0.0000 C   0  0  0  0  0  0  0  0  0  0  0  0
    8.7619   -1.8446    0.0000 C   0  0  0  0  0  0  0  0  0  0  0  0
    5.9958   -2.4873    0.0000 C   0  0  0  0  0  0  0  0  0  0  0  0
    3.7320    0.2535    0.0000 C   0  0  0  0  0  0  0  0  0  0  0  0
    8.2619   -2.7106    0.0000 C   0  0  0  0  0  0  0  0  0  0  0  0
    2.8660   -0.2465    0.0000 C   0  0  0  0  0  0  0  0  0  0  0  0
    2.8660    1.7534    0.0000 C   0  0  0  0  0  0  0  0  0  0  0  0
    9.7619   -0.1126    0.0000 C   0  0  0  0  0  0  0  0  0  0  0  0
    2.0000    0.2535    0.0000 C   0  0  0  0  0  0  0  0  0  0  0  0
   10.2619    0.7535    0.0000 C   0  0  0  0  0  0  0  0  0  0  0  0
    2.0000   -1.7466    0.0000 C   0  0  0  0  0  0  0  0  0  0  0  0
    2.0000    3.2534    0.0000 C   0  0  0  0  0  0  0  0  0  0  0  0
    6.5719    1.2904    0.0000 H   0  0  0  0  0  0  0  0  0  0  0  0
    6.9519   -3.2476    0.0000 H   0  0  0  0  0  0  0  0  0  0  0  0
    9.3819   -1.8446    0.0000 H   0  0  0  0  0  0  0  0  0  0  0  0
    8.5719   -3.2476    0.0000 H   0  0  0  0  0  0  0  0  0  0  0  0
    9.6542   -0.7232    0.0000 H   0  0  0  0  0  0  0  0  0  0  0  0
   10.3445   -0.3246    0.0000 H   0  0  0  0  0  0  0  0  0  0  0  0
    1.4631   -0.0565    0.0000 H   0  0  0  0  0  0  0  0  0  0  0  0
    9.6419    0.7535    0.0000 H   0  0  0  0  0  0  0  0  0  0  0  0
    1.6900   -1.2096    0.0000 H   0  0  0  0  0  0  0  0  0  0  0  0
    1.4631   -2.0566    0.0000 H   0  0  0  0  0  0  0  0  0  0  0  0
    2.3100   -2.2835    0.0000 H   0  0  0  0  0  0  0  0  0  0  0  0
    2.3100    3.7904    0.0000 H   0  0  0  0  0  0  0  0  0  0  0  0
    1.4631    3.5634    0.0000 H   0  0  0  0  0  0  0  0  0  0  0  0
    1.6900    2.7165    0.0000 H   0  0  0  0  0  0  0  0  0  0  0  0
  1  8  2  0  0  0  0
  1  9  2  0  0  0  0
  1 12  1  0  0  0  0
  1 17  1  0  0  0  0
  2 23  1  0  0  0  0
  3 23  1  0  0  0  0
  4 23  1  0  0  0  0
  5 30  1  0  0  0  0
  6 30  1  0  0  0  0
  7 19  1  0  0  0  0
  7 28  1  0  0  0  0
 10 26  1  0  0  0  0
 10 31  1  0  0  0  0
 11 27  1  0  0  0  0
 11 32  1  0  0  0  0
 12 21  1  0  0  0  0
 12 33  1  0  0  0  0
 13 15  1  0  0  0  0
 13 24  1  0  0  0  0
 13 27  1  0  0  0  0
 14 21  1  0  0  0  0
 14 24  2  0  0  0  0
 15 21  2  0  0  0  0
 16 27  2  0  0  0  0
 16 29  1  0  0  0  0
 17 18  2  0  0  0  0
 17 19  1  0  0  0  0
 18 20  1  0  0  0  0
 18 23  1  0  0  0  0
 19 22  2  0  0  0  0
 20 25  2  0  0  0  0
 20 34  1  0  0  0  0
 22 25  1  0  0  0  0
 22 35  1  0  0  0  0
 24 26  1  0  0  0  0
 25 36  1  0  0  0  0
 26 29  2  0  0  0  0
 28 30  1  0  0  0  0
 28 37  1  0  0  0  0
 28 38  1  0  0  0  0
 29 39  1  0  0  0  0
 30 40  1  0  0  0  0
 31 41  1  0  0  0  0
 31 42  1  0  0  0  0
 31 43  1  0  0  0  0
 32 44  1  0  0  0  0
 32 45  1  0  0  0  0
 32 46  1  0  0  0  0
M  END
> <PUBCHEM_COMPOUND_CID>
11784975

> <PUBCHEM_COMPOUND_CANONICALIZED>
1

> <PUBCHEM_CACTVS_COMPLEXITY>
727

> <PUBCHEM_CACTVS_HBOND_ACCEPTOR>
14

> <PUBCHEM_CACTVS_HBOND_DONOR>
1

> <PUBCHEM_CACTVS_ROTATABLE_BOND>
8

> <PUBCHEM_CACTVS_SUBSKEYS>
AAADccB7ucBAAAAAAAAAAAAAAAAAAWAAAAA8QAAAAAAAAFgB8AAAHwQYQAAADATh2xY/t55IFAKiAjJnZHTSjDsxYKAd2DIvTJiOLqLEeVqHvCi8yBNYqCeAwBAOAAABAAAEIAAAAAIAAAhAAAAAAAAAAA==

> <PUBCHEM_IUPAC_OPENEYE_NAME>
2-(2,2-difluoroethoxy)-N-(5,8-dimethoxy-[1,2,4]triazolo[1,5-c]pyrimidin-2-yl)-6-(trifluoromethyl)benzenesulfonamide

> <PUBCHEM_IUPAC_CAS_NAME>
2-(2,2-difluoroethoxy)-N-(5,8-dimethoxy-[1,2,4]triazolo[1,5-c]pyrimidin-2-yl)-6-(trifluoromethyl)benzenesulfonamide

> <PUBCHEM_IUPAC_NAME>
2-(2,2-difluoroethoxy)-N-(5,8-dimethoxy-[1,2,4]triazolo[1,5-c]pyrimidin-2-yl)-6-(trifluoromethyl)benzenesulfonamide

> <PUBCHEM_IUPAC_SYSTEMATIC_NAME>
2-[2,2-bis(fluoranyl)ethoxy]-N-(5,8-dimethoxy-[1,2,4]triazolo[1,5-c]pyrimidin-2-yl)-6-(trifluoromethyl)benzenesulfonamide

> <PUBCHEM_IUPAC_TRADITIONAL_NAME>
2-(2,2-difluoroethoxy)-N-(5,8-dimethoxy-[1,2,4]triazolo[1,5-c]pyrimidin-2-yl)-6-(trifluoromethyl)benzenesulfonamide

> <PUBCHEM_IUPAC_INCHI>
InChI=1S/C16H14F5N5O5S/c1-29-10-6-22-15(30-2)26-13(10)23-14(24-26)25-32(27,28)12-8(16(19,20)21)4-3-5-9(12)31-7-11(17)18/h3-6,11H,7H2,1-2H3,(H,24,25)

> <PUBCHEM_IUPAC_INCHIKEY>
SYJGKVOENHZYMQ-UHFFFAOYSA-N

> <PUBCHEM_XLOGP3_AA>
2.9

> <PUBCHEM_EXACT_MASS>
483.063581

> <PUBCHEM_MOLECULAR_FORMULA>
C16H14F5N5O5S

> <PUBCHEM_MOLECULAR_WEIGHT>
483.369876

> <PUBCHEM_OPENEYE_CAN_SMILES>
COC1=CN=C(N2C1=NC(=N2)NS(=O)(=O)C3=C(C=CC=C3OCC(F)F)C(F)(F)F)OC

> <PUBCHEM_OPENEYE_ISO_SMILES>
COC1=CN=C(N2C1=NC(=N2)NS(=O)(=O)C3=C(C=CC=C3OCC(F)F)C(F)(F)F)OC

> <PUBCHEM_CACTVS_TPSA>
125

> <PUBCHEM_MONOISOTOPIC_WEIGHT>
483.063581

> <PUBCHEM_TOTAL_CHARGE>
0

> <PUBCHEM_HEAVY_ATOM_COUNT>
32

> <PUBCHEM_ATOM_DEF_STEREO_COUNT>
0

> <PUBCHEM_ATOM_UDEF_STEREO_COUNT>
0

> <PUBCHEM_BOND_DEF_STEREO_COUNT>
0

> <PUBCHEM_BOND_UDEF_STEREO_COUNT>
0

> <PUBCHEM_ISOTOPIC_ATOM_COUNT>
0

> <PUBCHEM_COMPONENT_COUNT>
1

> <PUBCHEM_CACTVS_TAUTO_COUNT>
2

> <PUBCHEM_COORDINATE_TYPE>
1
5
255

> <PUBCHEM_BONDANNOTATIONS>
13  15  8
13  24  8
13  27  8
14  21  8
14  24  8
15  21  8
16  27  8
16  29  8
17  18  8
17  19  8
18  20  8
19  22  8
20  25  8
22  25  8
24  26  8
26  29  8

$$$$

