5281294
  -OEChem-07051212563D

 33 34  0     0  0  0  0  0  0999 V2000
    2.5992    0.1779    2.1047 O   0  0  0  0  0  0  0  0  0  0  0  0
    5.0070    1.3360    1.4326 O   0  0  0  0  0  0  0  0  0  0  0  0
    5.9783    1.1019   -1.1490 O   0  0  0  0  0  0  0  0  0  0  0  0
    1.0496   -2.4273    0.5886 O   0  0  0  0  0  0  0  0  0  0  0  0
   -6.1926   -1.0855   -0.2373 O   0  0  0  0  0  0  0  0  0  0  0  0
   -6.2635    1.6914   -0.3124 O   0  0  0  0  0  0  0  0  0  0  0  0
    2.3739   -0.6311   -0.1355 C   0  0  0  0  0  0  0  0  0  0  0  0
    3.0765    0.0611    0.8319 C   0  0  0  0  0  0  0  0  0  0  0  0
   -2.6427   -0.2925    0.1281 C   0  0  0  0  0  0  0  0  0  0  0  0
    1.0762   -1.2642    0.2019 C   0  0  0  0  0  0  0  0  0  0  0  0
    2.8444   -0.7580   -1.4291 C   0  0  0  0  0  0  0  0  0  0  0  0
    4.2958    0.6484    0.4940 C   0  0  0  0  0  0  0  0  0  0  0  0
   -1.3724   -0.9835    0.2834 C   0  0  0  0  0  0  0  0  0  0  0  0
    4.7893    0.5328   -0.8054 C   0  0  0  0  0  0  0  0  0  0  0  0
   -0.1580   -0.4499    0.0215 C   0  0  0  0  0  0  0  0  0  0  0  0
    4.0635   -0.1704   -1.7670 C   0  0  0  0  0  0  0  0  0  0  0  0
   -3.8256   -1.0238    0.0185 C   0  0  0  0  0  0  0  0  0  0  0  0
   -2.6783    1.1013    0.0891 C   0  0  0  0  0  0  0  0  0  0  0  0
   -5.0441   -0.3611   -0.1300 C   0  0  0  0  0  0  0  0  0  0  0  0
   -5.0797    1.0327   -0.1691 C   0  0  0  0  0  0  0  0  0  0  0  0
   -3.8968    1.7639   -0.0597 C   0  0  0  0  0  0  0  0  0  0  0  0
    2.2853   -1.3046   -2.1831 H   0  0  0  0  0  0  0  0  0  0  0  0
   -1.4409   -2.0139    0.6254 H   0  0  0  0  0  0  0  0  0  0  0  0
   -0.0211    0.5607   -0.3457 H   0  0  0  0  0  0  0  0  0  0  0  0
    4.4424   -0.2642   -2.7810 H   0  0  0  0  0  0  0  0  0  0  0  0
   -3.8108   -2.1113    0.0460 H   0  0  0  0  0  0  0  0  0  0  0  0
   -1.7861    1.7123    0.1906 H   0  0  0  0  0  0  0  0  0  0  0  0
   -3.9113    2.8503   -0.0840 H   0  0  0  0  0  0  0  0  0  0  0  0
    1.7646   -0.3074    2.2037 H   0  0  0  0  0  0  0  0  0  0  0  0
    4.5132    1.3113    2.2706 H   0  0  0  0  0  0  0  0  0  0  0  0
    6.3425    1.5468   -0.3641 H   0  0  0  0  0  0  0  0  0  0  0  0
   -6.9369   -0.4664   -0.3337 H   0  0  0  0  0  0  0  0  0  0  0  0
   -6.0943    2.6492   -0.3184 H   0  0  0  0  0  0  0  0  0  0  0  0
  1  8  1  0  0  0  0
  1 29  1  0  0  0  0
  2 12  1  0  0  0  0
  2 30  1  0  0  0  0
  3 14  1  0  0  0  0
  3 31  1  0  0  0  0
  4 10  2  0  0  0  0
  5 19  1  0  0  0  0
  5 32  1  0  0  0  0
  6 20  1  0  0  0  0
  6 33  1  0  0  0  0
  7  8  2  0  0  0  0
  7 10  1  0  0  0  0
  7 11  1  0  0  0  0
  8 12  1  0  0  0  0
  9 13  1  0  0  0  0
  9 17  2  0  0  0  0
  9 18  1  0  0  0  0
 10 15  1  0  0  0  0
 11 16  2  0  0  0  0
 11 22  1  0  0  0  0
 12 14  2  0  0  0  0
 13 15  2  0  0  0  0
 13 23  1  0  0  0  0
 14 16  1  0  0  0  0
 15 24  1  0  0  0  0
 16 25  1  0  0  0  0
 17 19  1  0  0  0  0
 17 26  1  0  0  0  0
 18 21  2  0  0  0  0
 18 27  1  0  0  0  0
 19 20  2  0  0  0  0
 20 21  1  0  0  0  0
 21 28  1  0  0  0  0
M  END
> <PUBCHEM_COMPOUND_CID>
5281294

> <PUBCHEM_CONFORMER_RMSD>
0.6

> <PUBCHEM_CONFORMER_DIVERSEORDER>
3
49
41
39
5
27
45
22
11
47
43
9
28
40
35
6
21
7
33
23
50
14
51
31
19
8
15
25
32
52
12
24
34
46
36
10
20
42
16
26
17
13
44
37
48
1
30
18
29
4
38
2

> <PUBCHEM_MMFF94_PARTIAL_CHARGES>
33
1 -0.53
10 0.47
11 -0.15
12 0.08
13 -0.18
14 0.08
15 -0.14
16 -0.15
17 -0.15
18 -0.15
19 0.08
2 -0.53
20 0.08
21 -0.15
22 0.15
23 0.15
24 0.15
25 0.15
26 0.15
27 0.15
28 0.15
29 0.45
3 -0.53
30 0.45
31 0.45
32 0.45
33 0.45
4 -0.57
5 -0.53
6 -0.53
7 0.09
8 0.08
9 0.03

> <PUBCHEM_EFFECTIVE_ROTOR_COUNT>
3

> <PUBCHEM_PHARMACOPHORE_FEATURES>
8
1 1 donor
1 2 donor
1 3 donor
1 4 acceptor
1 5 donor
1 6 donor
6 7 8 11 12 14 16 rings
6 9 17 18 19 20 21 rings

> <PUBCHEM_HEAVY_ATOM_COUNT>
21

> <PUBCHEM_ATOM_DEF_STEREO_COUNT>
0

> <PUBCHEM_ATOM_UDEF_STEREO_COUNT>
0

> <PUBCHEM_BOND_DEF_STEREO_COUNT>
1

> <PUBCHEM_BOND_UDEF_STEREO_COUNT>
0

> <PUBCHEM_ISOTOPIC_ATOM_COUNT>
0

> <PUBCHEM_COMPONENT_COUNT>
1

> <PUBCHEM_CACTVS_TAUTO_COUNT>
679

> <PUBCHEM_CONFORMER_ID>
0050960E00000003

> <PUBCHEM_MMFF94_ENERGY>
63.8285

> <PUBCHEM_FEATURE_SELFOVERLAP>
40.609

> <PUBCHEM_SHAPE_FINGERPRINT>
10354089 29 16128651942959975548
10378564 45 17968935422135190390
10498660 4 18336546109316301833
10670039 82 18272078448830509300
11128504 68 15068343397502653192
11796584 16 9223234035260958556
12236239 1 17632297873654262435
12596602 18 16917345926872418489
12633257 1 15841550752032836850
12730499 353 17749104470257227606
13533116 47 15410903993447399832
13631057 29 17202193020474092907
13668630 136 14057001628728247773
14341114 328 17060338513465174680
14528608 73 18408605863986179415
15183329 4 16515678978826682785
15188451 53 11167646648061446449
15348495 7 12463277090856996357
15885798 251 8790885176893922323
17844677 252 17168136854161656441
19377110 9 17632853127733132571
193927 3 8430306974526138821
20511986 3 17418106390308921557
20645477 70 16588295108013892262
21033648 29 17894921719480698977
22061861 79 16950276338499154780
221357 26 17095520720848623152
22224240 67 13973682772806896952
22289505 5 17675926521162566112
22950370 63 6266901264073670347
23016692 55 7709462736129702394
23557571 272 18259979366969585591
23559900 14 18339078306022621919
26918003 58 12391514169871453407
2767999 5 17775566425018351861
2916195 48 18334300825184048664
29717793 49 14345785059460553072
300161 21 17917995005744883735
3060560 45 16732702749239951702
341906 21 18271813444520465865
3472631 163 18201430321414644652
34797466 226 17822006480629740341
3545911 37 18040995124590714119
46194498 28 17167856457411991644
465052 167 7492995289073679805
474 4 17489861631191416327
5104073 3 18271242845979305987
5281201 14 17240477039693646904
53794403 172 18196086638595201308
542803 24 17775566442303728607
5924683 9 13613937969819633561
6442390 28 18408606950518453518
7808743 9 18342737365108554140
8863177 126 5905177392429130493
960060 61 14562533976718478946

> <PUBCHEM_SHAPE_MULTIPOLES>
396.95
15.31
1.65
1.25
8.08
0.07
0.08
-5.89
-2.73
0.98
0.13
-2.27
-0.1
0.49

> <PUBCHEM_SHAPE_SELFOVERLAP>
864.727

> <PUBCHEM_SHAPE_VOLUME>
215.4

> <PUBCHEM_COORDINATE_TYPE>
2
5
10

$$$$

