56928170
  -OEChem-07051213152D

 83 85  0     1  0  0  0  0  0999 V2000
    9.6772    1.8705    0.0000 Cl  0  0  0  0  0  0  0  0  0  0  0  0
    3.8532   -0.9768    0.0000 O   0  0  0  0  0  0  0  0  0  0  0  0
    2.9872   -3.4768    0.0000 O   0  0  0  0  0  0  0  0  0  0  0  0
    4.7192   -4.4768    0.0000 O   0  0  0  0  0  0  0  0  0  0  0  0
    5.5852   -0.9768    0.0000 O   0  0  0  0  0  0  0  0  0  0  0  0
    4.4976    2.3357    0.0000 O   0  0  0  0  0  0  0  0  0  0  0  0
    6.5206    0.1281    0.0000 O   0  0  0  0  0  0  0  0  0  0  0  0
    5.8718    3.3901    0.0000 O   0  0  0  0  0  0  0  0  0  0  0  0
   11.0914    0.4563    0.0000 O   0  0  0  0  0  0  0  0  0  0  0  0
    4.7192   -2.4768    0.0000 N   0  0  0  0  0  0  0  0  0  0  0  0
    7.7454    1.3529    0.0000 N   0  0  0  0  0  0  0  0  0  0  0  0
    3.8532   -2.9768    0.0000 C   0  0  1  0  0  0  0  0  0  0  0  0
    2.9872   -1.4768    0.0000 C   0  0  1  0  0  0  0  0  0  0  0  0
    2.9872   -2.4768    0.0000 C   0  0  0  0  0  0  0  0  0  0  0  0
    2.9872   -0.4768    0.0000 C   0  0  2  0  0  0  0  0  0  0  0  0
    4.7192   -3.4768    0.0000 C   0  0  1  0  0  0  0  0  0  0  0  0
    3.6405    0.4175    0.0000 C   0  0  0  0  0  0  0  0  0  0  0  0
    2.0000   -0.3170    0.0000 C   0  0  0  0  0  0  0  0  0  0  0  0
    4.7192   -1.4768    0.0000 C   0  0  0  0  0  0  0  0  0  0  0  0
    4.6064    0.6763    0.0000 C   0  0  0  0  0  0  0  0  0  0  0  0
    5.5852   -2.9768    0.0000 C   0  0  0  0  0  0  0  0  0  0  0  0
    5.1064    1.5423    0.0000 C   0  0  2  0  0  0  0  0  0  0  0  0
    5.2152   -0.1171    0.0000 C   0  0  0  0  0  0  0  0  0  0  0  0
    6.0723    1.8011    0.0000 C   0  0  0  0  0  0  0  0  0  0  0  0
    6.4512   -3.4768    0.0000 C   0  0  0  0  0  0  0  0  0  0  0  0
    3.8532   -4.9768    0.0000 C   0  0  0  0  0  0  0  0  0  0  0  0
    7.4172   -3.2180    0.0000 C   0  0  0  0  0  0  0  0  0  0  0  0
    6.7794    1.0940    0.0000 C   0  0  0  0  0  0  0  0  0  0  0  0
    7.6760   -2.2520    0.0000 C   0  0  0  0  0  0  0  0  0  0  0  0
    4.8803    3.2596    0.0000 C   0  0  0  0  0  0  0  0  0  0  0  0
    4.2716    4.0529    0.0000 C   0  0  0  0  0  0  0  0  0  0  0  0
    8.6419   -1.9932    0.0000 C   0  0  0  0  0  0  0  0  0  0  0  0
    8.9007   -1.0273    0.0000 C   0  0  0  0  0  0  0  0  0  0  0  0
    8.4525    0.6457    0.0000 C   0  0  0  0  0  0  0  0  0  0  0  0
    6.9689   -1.5449    0.0000 C   0  0  0  0  0  0  0  0  0  0  0  0
    8.1893   -0.3213    0.0000 C   0  0  0  0  0  0  0  0  0  0  0  0
    4.6542    4.9768    0.0000 C   0  0  0  0  0  0  0  0  0  0  0  0
    3.2801    3.9224    0.0000 C   0  0  0  0  0  0  0  0  0  0  0  0
    9.8667   -0.7685    0.0000 C   0  0  0  0  0  0  0  0  0  0  0  0
    9.4184    0.9046    0.0000 C   0  0  0  0  0  0  0  0  0  0  0  0
   10.1255    0.1975    0.0000 C   0  0  0  0  0  0  0  0  0  0  0  0
   11.7985   -0.2508    0.0000 C   0  0  0  0  0  0  0  0  0  0  0  0
    2.1372   -1.4768    0.0000 H   0  0  0  0  0  0  0  0  0  0  0  0
    2.3766   -2.3691    0.0000 H   0  0  0  0  0  0  0  0  0  0  0  0
    2.7751   -3.0594    0.0000 H   0  0  0  0  0  0  0  0  0  0  0  0
    2.7516    0.0967    0.0000 H   0  0  0  0  0  0  0  0  0  0  0  0
    5.2561   -3.7868    0.0000 H   0  0  0  0  0  0  0  0  0  0  0  0
    5.0292   -3.0137    0.0000 H   0  0  0  0  0  0  0  0  0  0  0  0
    3.3668    0.9738    0.0000 H   0  0  0  0  0  0  0  0  0  0  0  0
    2.0991    0.2950    0.0000 H   0  0  0  0  0  0  0  0  0  0  0  0
    1.3880   -0.2179    0.0000 H   0  0  0  0  0  0  0  0  0  0  0  0
    1.9009   -0.9290    0.0000 H   0  0  0  0  0  0  0  0  0  0  0  0
    2.9872   -4.0968    0.0000 H   0  0  0  0  0  0  0  0  0  0  0  0
    5.5852   -2.3568    0.0000 H   0  0  0  0  0  0  0  0  0  0  0  0
    5.3057    2.1294    0.0000 H   0  0  0  0  0  0  0  0  0  0  0  0
    4.7233   -0.4945    0.0000 H   0  0  0  0  0  0  0  0  0  0  0  0
    5.5926   -0.6089    0.0000 H   0  0  0  0  0  0  0  0  0  0  0  0
    5.7070    0.2604    0.0000 H   0  0  0  0  0  0  0  0  0  0  0  0
    6.5802    2.1568    0.0000 H   0  0  0  0  0  0  0  0  0  0  0  0
    5.8103    2.3630    0.0000 H   0  0  0  0  0  0  0  0  0  0  0  0
    6.3703   -4.0915    0.0000 H   0  0  0  0  0  0  0  0  0  0  0  0
    3.5432   -4.4398    0.0000 H   0  0  0  0  0  0  0  0  0  0  0  0
    3.3162   -5.2868    0.0000 H   0  0  0  0  0  0  0  0  0  0  0  0
    4.1632   -5.5137    0.0000 H   0  0  0  0  0  0  0  0  0  0  0  0
    7.8556   -3.6564    0.0000 H   0  0  0  0  0  0  0  0  0  0  0  0
    4.8863    4.1338    0.0000 H   0  0  0  0  0  0  0  0  0  0  0  0
    8.6960   -2.6109    0.0000 H   0  0  0  0  0  0  0  0  0  0  0  0
    9.2596   -2.0472    0.0000 H   0  0  0  0  0  0  0  0  0  0  0  0
    7.9058    1.9517    0.0000 H   0  0  0  0  0  0  0  0  0  0  0  0
    7.5904   -0.4818    0.0000 H   0  0  0  0  0  0  0  0  0  0  0  0
    7.4073   -1.1065    0.0000 H   0  0  0  0  0  0  0  0  0  0  0  0
    6.5305   -1.1065    0.0000 H   0  0  0  0  0  0  0  0  0  0  0  0
    6.5305   -1.9833    0.0000 H   0  0  0  0  0  0  0  0  0  0  0  0
    5.2270    4.7395    0.0000 H   0  0  0  0  0  0  0  0  0  0  0  0
    4.8915    5.5496    0.0000 H   0  0  0  0  0  0  0  0  0  0  0  0
    4.0814    5.2140    0.0000 H   0  0  0  0  0  0  0  0  0  0  0  0
    3.1992    4.5371    0.0000 H   0  0  0  0  0  0  0  0  0  0  0  0
    2.6654    3.8414    0.0000 H   0  0  0  0  0  0  0  0  0  0  0  0
    3.3610    3.3077    0.0000 H   0  0  0  0  0  0  0  0  0  0  0  0
   10.3051   -1.2069    0.0000 H   0  0  0  0  0  0  0  0  0  0  0  0
   11.3601   -0.6892    0.0000 H   0  0  0  0  0  0  0  0  0  0  0  0
   12.2369   -0.6892    0.0000 H   0  0  0  0  0  0  0  0  0  0  0  0
   12.2369    0.1876    0.0000 H   0  0  0  0  0  0  0  0  0  0  0  0
  1 40  1  0  0  0  0
  2 13  1  0  0  0  0
  2 19  1  0  0  0  0
 12  3  1  6  0  0  0
  3 53  1  0  0  0  0
 16  4  1  1  0  0  0
  4 26  1  0  0  0  0
  5 19  2  0  0  0  0
 22  6  1  1  0  0  0
  6 30  1  0  0  0  0
  7 28  2  0  0  0  0
  8 30  2  0  0  0  0
  9 41  1  0  0  0  0
  9 42  1  0  0  0  0
 10 12  1  0  0  0  0
 10 19  1  0  0  0  0
 10 48  1  0  0  0  0
 11 28  1  0  0  0  0
 11 34  1  0  0  0  0
 11 69  1  0  0  0  0
 12 14  1  0  0  0  0
 12 16  1  0  0  0  0
 13 14  1  0  0  0  0
 13 15  1  0  0  0  0
 13 43  1  6  0  0  0
 14 44  1  0  0  0  0
 14 45  1  0  0  0  0
 15 17  1  0  0  0  0
 15 18  1  1  0  0  0
 15 46  1  0  0  0  0
 16 21  1  0  0  0  0
 16 47  1  0  0  0  0
 17 20  2  0  0  0  0
 17 49  1  0  0  0  0
 18 50  1  0  0  0  0
 18 51  1  0  0  0  0
 18 52  1  0  0  0  0
 20 22  1  0  0  0  0
 20 23  1  0  0  0  0
 21 25  2  0  0  0  0
 21 54  1  0  0  0  0
 22 24  1  0  0  0  0
 22 55  1  0  0  0  0
 23 56  1  0  0  0  0
 23 57  1  0  0  0  0
 23 58  1  0  0  0  0
 24 28  1  0  0  0  0
 24 59  1  0  0  0  0
 24 60  1  0  0  0  0
 25 27  1  0  0  0  0
 25 61  1  0  0  0  0
 26 62  1  0  0  0  0
 26 63  1  0  0  0  0
 26 64  1  0  0  0  0
 27 29  2  0  0  0  0
 27 65  1  0  0  0  0
 29 32  1  0  0  0  0
 29 35  1  0  0  0  0
 30 31  1  0  0  0  0
 31 37  1  0  0  0  0
 31 38  1  0  0  0  0
 31 66  1  0  0  0  0
 32 33  1  0  0  0  0
 32 67  1  0  0  0  0
 32 68  1  0  0  0  0
 33 36  2  0  0  0  0
 33 39  1  0  0  0  0
 34 36  1  0  0  0  0
 34 40  2  0  0  0  0
 35 71  1  0  0  0  0
 35 72  1  0  0  0  0
 35 73  1  0  0  0  0
 36 70  1  0  0  0  0
 37 74  1  0  0  0  0
 37 75  1  0  0  0  0
 37 76  1  0  0  0  0
 38 77  1  0  0  0  0
 38 78  1  0  0  0  0
 38 79  1  0  0  0  0
 39 41  2  0  0  0  0
 39 80  1  0  0  0  0
 40 41  1  0  0  0  0
 42 81  1  0  0  0  0
 42 82  1  0  0  0  0
 42 83  1  0  0  0  0
M  END
> <PUBCHEM_COMPOUND_CID>
56928170

> <PUBCHEM_COMPOUND_CANONICALIZED>
1

> <PUBCHEM_CACTVS_COMPLEXITY>
1080

> <PUBCHEM_CACTVS_HBOND_ACCEPTOR>
8

> <PUBCHEM_CACTVS_HBOND_DONOR>
3

> <PUBCHEM_CACTVS_ROTATABLE_BOND>
5

> <PUBCHEM_CACTVS_SUBSKEYS>
AAADcfB7PAAEAAAAAAAAAAAAAAAAAAAAAAA8QAAAAAAAAAABAAAAHgIQCAAADR6hmCIyzoLABgCIAiXSWACCCAAhJkAIiAEGb4kPJjfFs5vPcChn9Bnb6AfY0PMOBAABQgAACBAIAAKEAAAQIAAAAAAAAA==

> <PUBCHEM_IUPAC_INCHI>
InChI=1S/C31H41ClN2O8/c1-17(2)29(36)41-23-15-27(35)33-22-13-21(14-24(39-6)28(22)32)11-18(3)9-8-10-26(40-7)31(38)16-25(42-30(37)34-31)20(5)12-19(23)4/h8-10,12-14,17,20,23,25-26,38H,11,15-16H2,1-7H3,(H,33,35)(H,34,37)/b10-8+,18-9+,19-12+/t20-,23-,25-,26+,31-/m0/s1

> <PUBCHEM_IUPAC_INCHIKEY>
DLTOOYADBZDSAS-OBOKIMRTSA-N

> <PUBCHEM_XLOGP3_AA>
4.2

> <PUBCHEM_EXACT_MASS>
604.255144

> <PUBCHEM_MOLECULAR_FORMULA>
C31H41ClN2O8

> <PUBCHEM_MOLECULAR_WEIGHT>
605.11884

> <PUBCHEM_OPENEYE_CAN_SMILES>
CC1C=C(C(CC(=O)NC2=C(C(=CC(=C2)CC(=CC=CC(C3(CC1OC(=O)N3)O)OC)C)OC)Cl)OC(=O)C(C)C)C

> <PUBCHEM_OPENEYE_ISO_SMILES>
C[C@H]1/C=C(/[C@H](CC(=O)NC2=C(C(=CC(=C2)C/C(=C/C=C/[C@H]([C@]3(C[C@@H]1OC(=O)N3)O)OC)/C)OC)Cl)OC(=O)C(C)C)\C

> <PUBCHEM_CACTVS_TPSA>
132

> <PUBCHEM_MONOISOTOPIC_WEIGHT>
604.255144

> <PUBCHEM_TOTAL_CHARGE>
0

> <PUBCHEM_HEAVY_ATOM_COUNT>
42

> <PUBCHEM_ATOM_DEF_STEREO_COUNT>
5

> <PUBCHEM_ATOM_UDEF_STEREO_COUNT>
0

> <PUBCHEM_BOND_DEF_STEREO_COUNT>
3

> <PUBCHEM_BOND_UDEF_STEREO_COUNT>
0

> <PUBCHEM_ISOTOPIC_ATOM_COUNT>
0

> <PUBCHEM_COMPONENT_COUNT>
1

> <PUBCHEM_CACTVS_TAUTO_COUNT>
6

> <PUBCHEM_COORDINATE_TYPE>
1
5
255

> <PUBCHEM_BONDANNOTATIONS>
13  43  6
15  18  5
12  3  6
33  36  8
33  39  8
34  36  8
34  40  8
39  41  8
16  4  5
40  41  8
22  6  5

$$$$

