230883
  -OEChem-07051213063D

 52 55  0     1  0  0  0  0  0999 V2000
   -5.1184    1.3716    0.7134 O   0  0  0  0  0  0  0  0  0  0  0  0
    5.3778   -0.4833    0.8624 O   0  0  0  0  0  0  0  0  0  0  0  0
   -0.0238    0.3430    0.1617 C   0  0  1  0  0  0  0  0  0  0  0  0
   -0.9263   -0.8671   -0.2516 C   0  0  2  0  0  0  0  0  0  0  0  0
    1.4497    0.1886   -0.3747 C   0  0  2  0  0  0  0  0  0  0  0  0
   -2.3179   -0.6525    0.3508 C   0  0  1  0  0  0  0  0  0  0  0  0
   -2.9764    0.6384   -0.1775 C   0  0  2  0  0  0  0  0  0  0  0  0
    1.9980   -1.1782    0.1481 C   0  0  1  0  0  0  0  0  0  0  0  0
   -0.6884    1.7091   -0.1646 C   0  0  0  0  0  0  0  0  0  0  0  0
   -0.3116   -2.1971    0.2022 C   0  0  0  0  0  0  0  0  0  0  0  0
   -2.1478    1.8200    0.3152 C   0  0  0  0  0  0  0  0  0  0  0  0
    1.1266   -2.3644   -0.2803 C   0  0  0  0  0  0  0  0  0  0  0  0
    2.3599    1.3067    0.2142 C   0  0  0  0  0  0  0  0  0  0  0  0
   -3.3947   -1.7183    0.1789 C   0  0  0  0  0  0  0  0  0  0  0  0
    3.4641   -1.4167   -0.2193 C   0  0  0  0  0  0  0  0  0  0  0  0
    1.4849    0.2792   -1.9207 C   0  0  0  0  0  0  0  0  0  0  0  0
   -4.3459    0.4589    0.4525 C   0  0  0  0  0  0  0  0  0  0  0  0
   -4.6575   -1.0092    0.6904 C   0  0  0  0  0  0  0  0  0  0  0  0
    3.8548    1.1330   -0.0992 C   0  0  2  0  0  0  0  0  0  0  0  0
   -3.1994    0.7071   -1.6997 C   0  0  0  0  0  0  0  0  0  0  0  0
    4.3177   -0.2696    0.2744 C   0  0  0  0  0  0  0  0  0  0  0  0
    4.6746    2.2006    0.6233 C   0  0  0  0  0  0  0  0  0  0  0  0
    0.0443    0.3136    1.2612 H   0  0  0  0  0  0  0  0  0  0  0  0
   -1.0161   -0.9065   -1.3420 H   0  0  0  0  0  0  0  0  0  0  0  0
   -2.1764   -0.5528    1.4413 H   0  0  0  0  0  0  0  0  0  0  0  0
    1.9596   -1.1407    1.2485 H   0  0  0  0  0  0  0  0  0  0  0  0
   -0.6583    1.8973   -1.2423 H   0  0  0  0  0  0  0  0  0  0  0  0
   -0.1230    2.5206    0.3066 H   0  0  0  0  0  0  0  0  0  0  0  0
   -0.9092   -3.0357   -0.1736 H   0  0  0  0  0  0  0  0  0  0  0  0
   -0.3320   -2.2614    1.2978 H   0  0  0  0  0  0  0  0  0  0  0  0
   -2.1656    1.8651    1.4120 H   0  0  0  0  0  0  0  0  0  0  0  0
   -2.5786    2.7675   -0.0309 H   0  0  0  0  0  0  0  0  0  0  0  0
    1.5312   -3.2936    0.1397 H   0  0  0  0  0  0  0  0  0  0  0  0
    1.1434   -2.4845   -1.3697 H   0  0  0  0  0  0  0  0  0  0  0  0
    2.2253    1.3337    1.3045 H   0  0  0  0  0  0  0  0  0  0  0  0
    2.0435    2.2871   -0.1621 H   0  0  0  0  0  0  0  0  0  0  0  0
   -3.1898   -2.6221    0.7610 H   0  0  0  0  0  0  0  0  0  0  0  0
   -3.5065   -2.0153   -0.8695 H   0  0  0  0  0  0  0  0  0  0  0  0
    3.6141   -1.5302   -1.2971 H   0  0  0  0  0  0  0  0  0  0  0  0
    3.8203   -2.3367    0.2593 H   0  0  0  0  0  0  0  0  0  0  0  0
    1.2029    1.2794   -2.2658 H   0  0  0  0  0  0  0  0  0  0  0  0
    2.4803    0.0831   -2.3283 H   0  0  0  0  0  0  0  0  0  0  0  0
    0.8089   -0.4336   -2.3994 H   0  0  0  0  0  0  0  0  0  0  0  0
   -4.7930   -1.1720    1.7635 H   0  0  0  0  0  0  0  0  0  0  0  0
   -5.5452   -1.3173    0.1341 H   0  0  0  0  0  0  0  0  0  0  0  0
    4.0290    1.2495   -1.1750 H   0  0  0  0  0  0  0  0  0  0  0  0
   -3.6996    1.6461   -1.9665 H   0  0  0  0  0  0  0  0  0  0  0  0
   -2.2671    0.6629   -2.2686 H   0  0  0  0  0  0  0  0  0  0  0  0
   -3.8448   -0.0992   -2.0644 H   0  0  0  0  0  0  0  0  0  0  0  0
    4.5880    2.1017    1.7111 H   0  0  0  0  0  0  0  0  0  0  0  0
    5.7366    2.1169    0.3678 H   0  0  0  0  0  0  0  0  0  0  0  0
    4.3411    3.2052    0.3431 H   0  0  0  0  0  0  0  0  0  0  0  0
  1 17  2  0  0  0  0
  2 21  2  0  0  0  0
  3  4  1  0  0  0  0
  3  5  1  0  0  0  0
  3  9  1  0  0  0  0
  3 23  1  0  0  0  0
  4  6  1  0  0  0  0
  4 10  1  0  0  0  0
  4 24  1  0  0  0  0
  5  8  1  0  0  0  0
  5 13  1  0  0  0  0
  5 16  1  0  0  0  0
  6  7  1  0  0  0  0
  6 14  1  0  0  0  0
  6 25  1  0  0  0  0
  7 11  1  0  0  0  0
  7 17  1  0  0  0  0
  7 20  1  0  0  0  0
  8 12  1  0  0  0  0
  8 15  1  0  0  0  0
  8 26  1  0  0  0  0
  9 11  1  0  0  0  0
  9 27  1  0  0  0  0
  9 28  1  0  0  0  0
 10 12  1  0  0  0  0
 10 29  1  0  0  0  0
 10 30  1  0  0  0  0
 11 31  1  0  0  0  0
 11 32  1  0  0  0  0
 12 33  1  0  0  0  0
 12 34  1  0  0  0  0
 13 19  1  0  0  0  0
 13 35  1  0  0  0  0
 13 36  1  0  0  0  0
 14 18  1  0  0  0  0
 14 37  1  0  0  0  0
 14 38  1  0  0  0  0
 15 21  1  0  0  0  0
 15 39  1  0  0  0  0
 15 40  1  0  0  0  0
 16 41  1  0  0  0  0
 16 42  1  0  0  0  0
 16 43  1  0  0  0  0
 17 18  1  0  0  0  0
 18 44  1  0  0  0  0
 18 45  1  0  0  0  0
 19 21  1  0  0  0  0
 19 22  1  0  0  0  0
 19 46  1  0  0  0  0
 20 47  1  0  0  0  0
 20 48  1  0  0  0  0
 20 49  1  0  0  0  0
 22 50  1  0  0  0  0
 22 51  1  0  0  0  0
 22 52  1  0  0  0  0
M  END
> <PUBCHEM_COMPOUND_CID>
230883

> <PUBCHEM_CONFORMER_RMSD>
0.6

> <PUBCHEM_CONFORMER_DIVERSEORDER>
1

> <PUBCHEM_MMFF94_PARTIAL_CHARGES>
8
1 -0.57
15 0.06
17 0.45
18 0.06
19 0.06
2 -0.57
21 0.45
7 0.06

> <PUBCHEM_EFFECTIVE_ROTOR_COUNT>
1.8

> <PUBCHEM_PHARMACOPHORE_FEATURES>
6
1 1 acceptor
1 2 acceptor
5 6 7 14 17 18 rings
6 3 4 5 8 10 12 rings
6 3 4 6 7 9 11 rings
6 5 8 13 15 19 21 rings

> <PUBCHEM_HEAVY_ATOM_COUNT>
22

> <PUBCHEM_ATOM_DEF_STEREO_COUNT>
7

> <PUBCHEM_ATOM_UDEF_STEREO_COUNT>
0

> <PUBCHEM_BOND_DEF_STEREO_COUNT>
0

> <PUBCHEM_BOND_UDEF_STEREO_COUNT>
0

> <PUBCHEM_ISOTOPIC_ATOM_COUNT>
0

> <PUBCHEM_COMPONENT_COUNT>
1

> <PUBCHEM_CACTVS_TAUTO_COUNT>
6

> <PUBCHEM_CONFORMER_ID>
000385E300000001

> <PUBCHEM_MMFF94_ENERGY>
68.6212

> <PUBCHEM_FEATURE_SELFOVERLAP>
30.539

> <PUBCHEM_SHAPE_FINGERPRINT>
10411042 1 17040354615133175918
10646746 165 18410291432581125900
10967382 1 18410572915815533150
11132069 177 18273208695217432839
11370993 70 18411989069844309074
11578080 2 16556230183093141694
12107183 9 17762619890312744336
12236239 1 13254791356395815486
12403259 226 18341054137540134188
12403259 415 18343867735966011220
12403814 3 17775564235196914981
12507560 40 18272093777315281740
12592029 89 18341611551090976210
12633257 1 18409454695726921536
12788726 201 17385709310214521904
13140716 1 18412262809395217154
13224815 77 18412262830737859823
13675066 3 18131067117101096755
14178342 30 18341884242854271713
14223421 5 18339079414081401756
14341114 176 18411132546049359176
14341114 328 18186516588006944408
14787075 74 18337113349857486858
14790565 3 18336820905550548760
15163728 17 15070007096847017161
15196674 1 18410572868470575267
15536298 74 18335978744215465470
16945 1 18196094571319844135
17349148 13 17703787015985798652
1813 80 16917351433257453124
18186145 218 18412261761386020406
19050596 39 18410573993746692976
19784866 9 18409728490779874043
200 152 18259993669368975871
21033648 29 18200893823648399420
21267235 1 18411691102008812338
21421861 104 18058169620739082962
21756936 100 17898579670761695244
22182313 1 17916310613411996015
23227448 37 18261395481816492550
23402539 116 18260554406818147261
23557571 272 18187917340251497847
23559900 14 18334575797992060878
26918003 58 18412546530734619649
296302 2 17603584123310610263
335352 9 18410291449771733262
34934 24 18335139813107453357
350125 39 18411416220418700752
351380 180 18408042918280233122
3545911 37 18413105082419808277
3680242 22 18339640165249035850
392239 28 18407755932580998329
4214541 1 18412262848065571545
474 4 18333731333895091744
5104073 3 18412543201918545298
542803 24 17458059361217305737
633830 44 18186518830027073222
69090 78 18409451366710704278
7364860 26 18190737720731369950
9709674 26 18335978782717443846

> <PUBCHEM_SHAPE_MULTIPOLES>
441.01
10.15
2.28
1.05
1.16
0.33
0.48
-2.13
-2.64
0.46
-0.21
-0.17
-0.18
0.38

> <PUBCHEM_SHAPE_SELFOVERLAP>
941.692

> <PUBCHEM_SHAPE_VOLUME>
243.7

> <PUBCHEM_COORDINATE_TYPE>
2
5
10

$$$$

