6321201
  -OEChem-07051213043D

 50 54  0     1  0  0  0  0  0999 V2000
   -2.3964    1.2031   -1.4575 O   0  0  0  0  0  0  0  0  0  0  0  0
   -0.2486   -3.2650   -1.0201 O   0  0  0  0  0  0  0  0  0  0  0  0
   -3.9184   -0.4429   -1.5343 O   0  0  0  0  0  0  0  0  0  0  0  0
    0.4363   -2.9001    1.1232 O   0  0  0  0  0  0  0  0  0  0  0  0
    1.3660   -0.2767   -0.1781 C   0  0  1  0  0  0  0  0  0  0  0  0
   -0.5597    1.2159    0.2851 C   0  0  1  0  0  0  0  0  0  0  0  0
    0.9892    1.1541    0.3703 C   0  0  2  0  0  0  0  0  0  0  0  0
   -0.9448   -0.2422    0.5570 C   0  0  2  0  0  0  0  0  0  0  0  0
    0.0178   -1.0301   -0.3492 C   0  0  2  0  0  0  0  0  0  0  0  0
   -2.4644   -0.3881    0.4007 C   0  0  1  0  0  0  0  0  0  0  0  0
    2.2079   -0.1619   -1.4592 C   0  0  0  0  0  0  0  0  0  0  0  0
    2.3984   -0.9394    0.7738 C   0  0  0  0  0  0  0  0  0  0  0  0
    1.7491    2.3078   -0.3049 C   0  0  0  0  0  0  0  0  0  0  0  0
    3.4778    0.5033   -0.9117 C   0  0  1  0  0  0  0  0  0  0  0  0
   -1.1777    2.1112    1.3776 C   0  0  0  0  0  0  0  0  0  0  0  0
   -1.0659    1.6344   -1.1108 C   0  0  0  0  0  0  0  0  0  0  0  0
    3.2245    1.9852   -0.5812 C   0  0  0  0  0  0  0  0  0  0  0  0
   -3.1537    0.4972    1.4788 C   0  0  0  0  0  0  0  0  0  0  0  0
    3.6883   -0.2809    0.3651 C   0  0  0  0  0  0  0  0  0  0  0  0
   -2.6974    1.9622    1.4729 C   0  0  0  0  0  0  0  0  0  0  0  0
   -2.9686    0.0832   -0.9588 C   0  0  0  0  0  0  0  0  0  0  0  0
    0.1000   -2.4779    0.0269 C   0  0  0  0  0  0  0  0  0  0  0  0
   -2.9094   -1.8451    0.6179 C   0  0  0  0  0  0  0  0  0  0  0  0
    4.8496   -0.4072    1.0164 C   0  0  0  0  0  0  0  0  0  0  0  0
    1.2597    1.1882    1.4358 H   0  0  0  0  0  0  0  0  0  0  0  0
   -0.6959   -0.4949    1.6010 H   0  0  0  0  0  0  0  0  0  0  0  0
   -0.3109   -0.9612   -1.3937 H   0  0  0  0  0  0  0  0  0  0  0  0
    1.7317    0.4252   -2.2504 H   0  0  0  0  0  0  0  0  0  0  0  0
    2.4290   -1.1542   -1.8744 H   0  0  0  0  0  0  0  0  0  0  0  0
    2.5284   -2.0070    0.5692 H   0  0  0  0  0  0  0  0  0  0  0  0
    2.1644   -0.7940    1.8327 H   0  0  0  0  0  0  0  0  0  0  0  0
    1.6745    3.2155    0.3059 H   0  0  0  0  0  0  0  0  0  0  0  0
    1.2946    2.5661   -1.2668 H   0  0  0  0  0  0  0  0  0  0  0  0
    4.3237    0.3924   -1.5979 H   0  0  0  0  0  0  0  0  0  0  0  0
   -0.9225    3.1632    1.2020 H   0  0  0  0  0  0  0  0  0  0  0  0
   -0.7488    1.8509    2.3544 H   0  0  0  0  0  0  0  0  0  0  0  0
   -1.0617    2.7270   -1.2000 H   0  0  0  0  0  0  0  0  0  0  0  0
   -0.4230    1.2629   -1.9141 H   0  0  0  0  0  0  0  0  0  0  0  0
    3.5519    2.6002   -1.4291 H   0  0  0  0  0  0  0  0  0  0  0  0
    3.8361    2.3038    0.2724 H   0  0  0  0  0  0  0  0  0  0  0  0
   -2.9442    0.0790    2.4727 H   0  0  0  0  0  0  0  0  0  0  0  0
   -4.2443    0.4719    1.3561 H   0  0  0  0  0  0  0  0  0  0  0  0
   -3.1721    2.4919    0.6390 H   0  0  0  0  0  0  0  0  0  0  0  0
   -3.0562    2.4580    2.3828 H   0  0  0  0  0  0  0  0  0  0  0  0
   -4.0002   -1.9144    0.7108 H   0  0  0  0  0  0  0  0  0  0  0  0
   -2.6316   -2.4856   -0.2242 H   0  0  0  0  0  0  0  0  0  0  0  0
   -2.4790   -2.2634    1.5341 H   0  0  0  0  0  0  0  0  0  0  0  0
    5.7478    0.0832    0.6576 H   0  0  0  0  0  0  0  0  0  0  0  0
    4.9216   -1.0027    1.9201 H   0  0  0  0  0  0  0  0  0  0  0  0
   -0.2014   -4.2181   -0.7931 H   0  0  0  0  0  0  0  0  0  0  0  0
  1 16  1  0  0  0  0
  1 21  1  0  0  0  0
  2 22  1  0  0  0  0
  2 50  1  0  0  0  0
  3 21  2  0  0  0  0
  4 22  2  0  0  0  0
  5  7  1  0  0  0  0
  5  9  1  0  0  0  0
  5 11  1  0  0  0  0
  5 12  1  0  0  0  0
  6  7  1  0  0  0  0
  6  8  1  0  0  0  0
  6 15  1  0  0  0  0
  6 16  1  0  0  0  0
  7 13  1  0  0  0  0
  7 25  1  0  0  0  0
  8  9  1  0  0  0  0
  8 10  1  0  0  0  0
  8 26  1  0  0  0  0
  9 22  1  0  0  0  0
  9 27  1  0  0  0  0
 10 18  1  0  0  0  0
 10 21  1  0  0  0  0
 10 23  1  0  0  0  0
 11 14  1  0  0  0  0
 11 28  1  0  0  0  0
 11 29  1  0  0  0  0
 12 19  1  0  0  0  0
 12 30  1  0  0  0  0
 12 31  1  0  0  0  0
 13 17  1  0  0  0  0
 13 32  1  0  0  0  0
 13 33  1  0  0  0  0
 14 17  1  0  0  0  0
 14 19  1  0  0  0  0
 14 34  1  0  0  0  0
 15 20  1  0  0  0  0
 15 35  1  0  0  0  0
 15 36  1  0  0  0  0
 16 37  1  0  0  0  0
 16 38  1  0  0  0  0
 17 39  1  0  0  0  0
 17 40  1  0  0  0  0
 18 20  1  0  0  0  0
 18 41  1  0  0  0  0
 18 42  1  0  0  0  0
 19 24  2  0  0  0  0
 20 43  1  0  0  0  0
 20 44  1  0  0  0  0
 23 45  1  0  0  0  0
 23 46  1  0  0  0  0
 23 47  1  0  0  0  0
 24 48  1  0  0  0  0
 24 49  1  0  0  0  0
M  END
> <PUBCHEM_COMPOUND_CID>
6321201

> <PUBCHEM_CONFORMER_RMSD>
0.6

> <PUBCHEM_CONFORMER_DIVERSEORDER>
1
2

> <PUBCHEM_MMFF94_PARTIAL_CHARGES>
16
1 -0.43
10 0.06
12 0.14
14 0.14
16 0.28
19 -0.28
2 -0.65
21 0.66
22 0.66
24 -0.3
3 -0.57
4 -0.57
48 0.15
49 0.15
50 0.5
9 0.06

> <PUBCHEM_EFFECTIVE_ROTOR_COUNT>
3

> <PUBCHEM_PHARMACOPHORE_FEATURES>
8
1 2 acceptor
1 3 acceptor
1 4 acceptor
3 2 4 22 anion
5 5 6 7 8 9 rings
6 1 6 8 10 16 21 rings
6 6 8 10 15 18 20 rings
8 5 7 11 12 13 14 17 19 rings

> <PUBCHEM_HEAVY_ATOM_COUNT>
24

> <PUBCHEM_ATOM_DEF_STEREO_COUNT>
6

> <PUBCHEM_ATOM_UDEF_STEREO_COUNT>
1

> <PUBCHEM_BOND_DEF_STEREO_COUNT>
0

> <PUBCHEM_BOND_UDEF_STEREO_COUNT>
0

> <PUBCHEM_ISOTOPIC_ATOM_COUNT>
0

> <PUBCHEM_COMPONENT_COUNT>
1

> <PUBCHEM_CACTVS_TAUTO_COUNT>
1

> <PUBCHEM_CONFORMER_ID>
0060743100000001

> <PUBCHEM_MMFF94_ENERGY>
101.4451

> <PUBCHEM_FEATURE_SELFOVERLAP>
42.616

> <PUBCHEM_SHAPE_FINGERPRINT>
10863032 1 17203619185095169139
10967382 1 18265600147271840376
11132069 177 18338508737608415544
11578080 2 17915483622002681428
121448 382 18187379730415121366
12173636 292 18262222370326797329
12403814 3 17988922215276218021
12553582 1 18340474668783887168
12592029 89 17988370367860716923
12788726 201 18041547062506854465
13027679 85 17686326582579934809
13140716 1 18410847729440432001
13172582 1 18412256272591973680
13224815 77 18260545606520120760
13538477 17 18269273470187548198
13583140 156 17489587814420995464
14178342 30 18191297376407724824
14223421 5 18342167907952852762
14289901 80 16660645163407005128
14614273 12 18270680990772948597
15209289 33 18260820527450337328
15309172 13 18412819200848914992
16752209 62 18407764741659129088
16945 1 18270676583899047905
17349148 13 18335714848756006206
17357779 13 17543918901634114439
18186145 218 18340195337095895756
192875 21 18335991908316659880
200 152 18334868207438276269
20028762 73 17751916931002685279
20510252 161 18115008724002480136
20600515 1 18333446552374195296
2334 1 18265607689376986337
23402539 116 18114467837834024172
23419403 2 16172075857022915716
23493267 7 17275392010053841473
23557571 272 16805325504464348416
23559900 14 18334285445707787652
238 59 18054823742747489535
2748010 2 18268424629561472579
34934 24 17823697654072937161
352729 6 18336819780553836758
633830 44 18261939830219010644
7364860 26 17756415324743823434
81228 2 17836925599066833098
90525 40 18412825815272630558

> <PUBCHEM_SHAPE_MULTIPOLES>
470.43
6.54
2.8
1.46
3.06
1.23
0.1
-0.58
-0.42
-0.37
-0.21
-0.65
-0.22
-0.77

> <PUBCHEM_SHAPE_SELFOVERLAP>
1047.231

> <PUBCHEM_SHAPE_VOLUME>
248.8

> <PUBCHEM_COORDINATE_TYPE>
2
5
10

$$$$

