14239489
  -OEChem-07051213153D

 52 54  0     1  0  0  0  0  0999 V2000
   -1.0398   -0.6376    0.4560 C   0  0  2  0  0  0  0  0  0  0  0  0
   -1.8216    0.5716   -0.1790 C   0  0  1  0  0  0  0  0  0  0  0  0
   -3.3738    0.4003   -0.3671 C   0  0  0  0  0  0  0  0  0  0  0  0
    0.4851   -0.3945    0.2727 C   0  0  0  0  0  0  0  0  0  0  0  0
    0.9220    1.0287   -0.0479 C   0  0  1  0  0  0  0  0  0  0  0  0
   -1.4136    1.9200    0.4608 C   0  0  0  0  0  0  0  0  0  0  0  0
   -1.4695   -1.9443   -0.2670 C   0  0  0  0  0  0  0  0  0  0  0  0
    0.0882    2.0390    0.7461 C   0  0  0  0  0  0  0  0  0  0  0  0
   -3.6577   -0.9615   -1.0449 C   0  0  0  0  0  0  0  0  0  0  0  0
   -2.9809   -2.1380   -0.3566 C   0  0  0  0  0  0  0  0  0  0  0  0
    2.4236    1.2752    0.1997 C   0  0  0  0  0  0  0  0  0  0  0  0
   -1.2803   -0.7969    1.9765 C   0  0  0  0  0  0  0  0  0  0  0  0
    3.3111    0.1516   -0.3726 C   0  0  1  0  0  0  0  0  0  0  0  0
    1.4040   -1.3725    0.4093 C   0  0  0  0  0  0  0  0  0  0  0  0
   -3.9058    1.5005   -1.3226 C   0  0  0  0  0  0  0  0  0  0  0  0
   -4.2008    0.5212    0.9277 C   0  0  0  0  0  0  0  0  0  0  0  0
    2.8890   -1.1909    0.2641 C   0  0  0  0  0  0  0  0  0  0  0  0
    3.1917    0.0726   -1.9075 C   0  0  0  0  0  0  0  0  0  0  0  0
    4.7509    0.4477   -0.0298 C   0  0  0  0  0  0  0  0  0  0  0  0
    5.6783   -0.4922    0.1821 C   0  0  0  0  0  0  0  0  0  0  0  0
   -1.4473    0.6259   -1.2158 H   0  0  0  0  0  0  0  0  0  0  0  0
    0.7322    1.2039   -1.1155 H   0  0  0  0  0  0  0  0  0  0  0  0
   -1.9547    2.1027    1.3945 H   0  0  0  0  0  0  0  0  0  0  0  0
   -1.6920    2.7355   -0.2172 H   0  0  0  0  0  0  0  0  0  0  0  0
   -1.0502   -2.8245    0.2360 H   0  0  0  0  0  0  0  0  0  0  0  0
   -1.0614   -1.9484   -1.2875 H   0  0  0  0  0  0  0  0  0  0  0  0
    0.4132    3.0626    0.5210 H   0  0  0  0  0  0  0  0  0  0  0  0
    0.2619    1.9004    1.8214 H   0  0  0  0  0  0  0  0  0  0  0  0
   -3.3108   -0.9301   -2.0869 H   0  0  0  0  0  0  0  0  0  0  0  0
   -4.7385   -1.1465   -1.0912 H   0  0  0  0  0  0  0  0  0  0  0  0
   -3.1876   -3.0511   -0.9280 H   0  0  0  0  0  0  0  0  0  0  0  0
   -3.4100   -2.3001    0.6373 H   0  0  0  0  0  0  0  0  0  0  0  0
    2.7016    2.2441   -0.2377 H   0  0  0  0  0  0  0  0  0  0  0  0
    2.6037    1.3667    1.2811 H   0  0  0  0  0  0  0  0  0  0  0  0
   -0.5944   -1.5338    2.4128 H   0  0  0  0  0  0  0  0  0  0  0  0
   -1.1305    0.1371    2.5255 H   0  0  0  0  0  0  0  0  0  0  0  0
   -2.2803   -1.1598    2.2124 H   0  0  0  0  0  0  0  0  0  0  0  0
    1.0908   -2.3782    0.6743 H   0  0  0  0  0  0  0  0  0  0  0  0
   -4.9571    1.3242   -1.5798 H   0  0  0  0  0  0  0  0  0  0  0  0
   -3.3393    1.5238   -2.2602 H   0  0  0  0  0  0  0  0  0  0  0  0
   -3.8479    2.4954   -0.8689 H   0  0  0  0  0  0  0  0  0  0  0  0
   -5.2736    0.4619    0.7044 H   0  0  0  0  0  0  0  0  0  0  0  0
   -4.0398    1.4796    1.4299 H   0  0  0  0  0  0  0  0  0  0  0  0
   -3.9992   -0.2730    1.6443 H   0  0  0  0  0  0  0  0  0  0  0  0
    3.3055   -1.2971    1.2752 H   0  0  0  0  0  0  0  0  0  0  0  0
    3.2697   -2.0322   -0.3299 H   0  0  0  0  0  0  0  0  0  0  0  0
    3.4236    1.0386   -2.3717 H   0  0  0  0  0  0  0  0  0  0  0  0
    3.8862   -0.6668   -2.3250 H   0  0  0  0  0  0  0  0  0  0  0  0
    2.1875   -0.2180   -2.2325 H   0  0  0  0  0  0  0  0  0  0  0  0
    5.0643    1.4889    0.0011 H   0  0  0  0  0  0  0  0  0  0  0  0
    6.6997   -0.1976    0.4023 H   0  0  0  0  0  0  0  0  0  0  0  0
    5.4777   -1.5550    0.1313 H   0  0  0  0  0  0  0  0  0  0  0  0
  1  2  1  0  0  0  0
  1  4  1  0  0  0  0
  1  7  1  0  0  0  0
  1 12  1  0  0  0  0
  2  3  1  0  0  0  0
  2  6  1  0  0  0  0
  2 21  1  0  0  0  0
  3  9  1  0  0  0  0
  3 15  1  0  0  0  0
  3 16  1  0  0  0  0
  4  5  1  0  0  0  0
  4 14  2  0  0  0  0
  5  8  1  0  0  0  0
  5 11  1  0  0  0  0
  5 22  1  0  0  0  0
  6  8  1  0  0  0  0
  6 23  1  0  0  0  0
  6 24  1  0  0  0  0
  7 10  1  0  0  0  0
  7 25  1  0  0  0  0
  7 26  1  0  0  0  0
  8 27  1  0  0  0  0
  8 28  1  0  0  0  0
  9 10  1  0  0  0  0
  9 29  1  0  0  0  0
  9 30  1  0  0  0  0
 10 31  1  0  0  0  0
 10 32  1  0  0  0  0
 11 13  1  0  0  0  0
 11 33  1  0  0  0  0
 11 34  1  0  0  0  0
 12 35  1  0  0  0  0
 12 36  1  0  0  0  0
 12 37  1  0  0  0  0
 13 17  1  0  0  0  0
 13 18  1  0  0  0  0
 13 19  1  0  0  0  0
 14 17  1  0  0  0  0
 14 38  1  0  0  0  0
 15 39  1  0  0  0  0
 15 40  1  0  0  0  0
 15 41  1  0  0  0  0
 16 42  1  0  0  0  0
 16 43  1  0  0  0  0
 16 44  1  0  0  0  0
 17 45  1  0  0  0  0
 17 46  1  0  0  0  0
 18 47  1  0  0  0  0
 18 48  1  0  0  0  0
 18 49  1  0  0  0  0
 19 20  2  0  0  0  0
 19 50  1  0  0  0  0
 20 51  1  0  0  0  0
 20 52  1  0  0  0  0
M  END
> <PUBCHEM_COMPOUND_CID>
14239489

> <PUBCHEM_CONFORMER_RMSD>
0.6

> <PUBCHEM_CONFORMER_DIVERSEORDER>
1
2

> <PUBCHEM_MMFF94_PARTIAL_CHARGES>
12
1 0.14
13 0.14
14 -0.29
17 0.14
19 -0.29
20 -0.3
38 0.15
4 -0.28
5 0.14
50 0.15
51 0.15
52 0.15

> <PUBCHEM_EFFECTIVE_ROTOR_COUNT>
2.8

> <PUBCHEM_PHARMACOPHORE_FEATURES>
5
1 20 hydrophobe
3 3 15 16 hydrophobe
6 1 2 3 7 9 10 rings
6 1 2 4 5 6 8 rings
6 4 5 11 13 14 17 rings

> <PUBCHEM_HEAVY_ATOM_COUNT>
20

> <PUBCHEM_ATOM_DEF_STEREO_COUNT>
4

> <PUBCHEM_ATOM_UDEF_STEREO_COUNT>
0

> <PUBCHEM_BOND_DEF_STEREO_COUNT>
0

> <PUBCHEM_BOND_UDEF_STEREO_COUNT>
0

> <PUBCHEM_ISOTOPIC_ATOM_COUNT>
0

> <PUBCHEM_COMPONENT_COUNT>
1

> <PUBCHEM_CACTVS_TAUTO_COUNT>
1

> <PUBCHEM_CONFORMER_ID>
00D9470100000001

> <PUBCHEM_MMFF94_ENERGY>
67.9298

> <PUBCHEM_FEATURE_SELFOVERLAP>
25.406

> <PUBCHEM_SHAPE_FINGERPRINT>
10062212 137 18341338820319448707
11315181 36 17457781181192479314
11401426 45 18410015429487604906
11578080 2 17314804988151970433
11961588 58 17559699372263310429
12236239 1 17917714617500393954
12403814 3 17846781827809912925
12553582 1 18334297590978813577
12596599 1 17678155162391122310
12788726 201 17750798933560685033
13140716 1 18264482905998130185
13224815 77 18271236136675730410
13583140 156 14548739478188014393
14115302 16 18201993318491198164
14289901 80 11024110945040556661
14790565 3 18046904055188595177
15196674 1 18337392643396875984
15375358 24 18040716974245556428
15788980 27 18131071541334065094
16752209 62 18191596448034394833
16945 1 18336835272590200033
17349148 13 18131635595247043002
17834072 14 18186804643237399932
1813 80 4895277057000602752
18186145 218 18334579040291195857
19765921 60 17846786247183554627
19862831 5 18343863316497047046
200 152 16588025710184205676
20279233 1 18114173147274527422
20645476 183 17275105033028586219
20871999 31 18337122211087051831
21267235 1 18337104579750721503
221490 88 18194402186738295466
23402539 116 18333737930954419380
23402655 69 18341055219339110389
23493267 7 17418095412119533049
23557571 272 18040994021084825258
23559900 14 18333736797747860392
25 1 18060143166954425283
2748010 2 18120939408250213257
296302 2 18343584032069636956
335352 9 18408886247825211557
34934 24 18411142462770071522
350125 39 18410855418043626163
4028521 119 18342742943933695533
4175511 318 18343020004005597647
4340502 62 16845282895753754865
474 4 17418373601498970398
5104073 3 18336266743489910842
5283173 99 18411428314651448188
559249 180 18272378611209872386
633830 44 16774079591658219052
9709674 26 18194688055361022408

> <PUBCHEM_SHAPE_MULTIPOLES>
411.59
9.12
2.01
1.27
6.92
0.03
0.07
0.17
1.79
-1.28
-0.06
-0.4
0
-0.07

> <PUBCHEM_SHAPE_SELFOVERLAP>
856.601

> <PUBCHEM_SHAPE_VOLUME>
233.6

> <PUBCHEM_COORDINATE_TYPE>
2
5
10

$$$$

