442168
  -OEChem-07051212572D

 51 54  0     1  0  0  0  0  0999 V2000
   10.2276   -2.8166    0.0000 O   0  0  0  0  0  0  0  0  0  0  0  0
    2.3148    1.5862    0.0000 O   0  0  0  0  0  0  0  0  0  0  0  0
   11.8194   -1.5275    0.0000 O   0  0  0  0  0  0  0  0  0  0  0  0
    2.1007   -0.4509    0.0000 O   0  0  0  0  0  0  0  0  0  0  0  0
    6.7759    2.5769    0.0000 N   0  0  0  0  0  0  0  0  0  0  0  0
    7.2537    0.6283    0.0000 C   0  0  1  0  0  0  0  0  0  0  0  0
    7.5125    1.5942    0.0000 C   0  0  1  0  0  0  0  0  0  0  0  0
    9.3772    1.1466    0.0000 C   0  0  0  0  0  0  0  0  0  0  0  0
    5.7185   -0.6148    0.0000 C   0  0  0  0  0  0  0  0  0  0  0  0
    8.9584   -0.4163    0.0000 C   0  0  0  0  0  0  0  0  0  0  0  0
    4.9095    0.7864    0.0000 C   0  0  0  0  0  0  0  0  0  0  0  0
    9.7355    0.2130    0.0000 C   0  0  0  0  0  0  0  0  0  0  0  0
    4.8050   -0.2081    0.0000 C   0  0  0  0  0  0  0  0  0  0  0  0
    6.2759    3.4429    0.0000 C   0  0  0  0  0  0  0  0  0  0  0  0
    9.1054   -1.4475    0.0000 C   0  0  0  0  0  0  0  0  0  0  0  0
    4.0764    1.4116    0.0000 C   0  0  0  0  0  0  0  0  0  0  0  0
   10.7136   -0.1452    0.0000 C   0  0  0  0  0  0  0  0  0  0  0  0
    3.8601   -0.6464    0.0000 C   0  0  0  0  0  0  0  0  0  0  0  0
   10.0750   -1.8283    0.0000 C   0  0  0  0  0  0  0  0  0  0  0  0
    3.1216    0.9953    0.0000 C   0  0  0  0  0  0  0  0  0  0  0  0
   10.8845   -1.1728    0.0000 C   0  0  0  0  0  0  0  0  0  0  0  0
    3.0127   -0.0406    0.0000 C   0  0  0  0  0  0  0  0  0  0  0  0
    9.4480   -3.4429    0.0000 C   0  0  0  0  0  0  0  0  0  0  0  0
    2.4232    2.5803    0.0000 C   0  0  0  0  0  0  0  0  0  0  0  0
   12.5942   -0.8952    0.0000 C   0  0  0  0  0  0  0  0  0  0  0  0
    2.0000   -1.4458    0.0000 C   0  0  0  0  0  0  0  0  0  0  0  0
    7.0337   -0.1927    0.0000 H   0  0  0  0  0  0  0  0  0  0  0  0
    7.7325    2.4153    0.0000 H   0  0  0  0  0  0  0  0  0  0  0  0
    9.9887    1.2489    0.0000 H   0  0  0  0  0  0  0  0  0  0  0  0
    9.3988    1.7662    0.0000 H   0  0  0  0  0  0  0  0  0  0  0  0
    5.3809   -1.1348    0.0000 H   0  0  0  0  0  0  0  0  0  0  0  0
    6.1793   -1.0297    0.0000 H   0  0  0  0  0  0  0  0  0  0  0  0
    6.8128    3.7529    0.0000 H   0  0  0  0  0  0  0  0  0  0  0  0
    5.9659    3.9798    0.0000 H   0  0  0  0  0  0  0  0  0  0  0  0
    5.7390    3.1329    0.0000 H   0  0  0  0  0  0  0  0  0  0  0  0
    8.6191   -1.8321    0.0000 H   0  0  0  0  0  0  0  0  0  0  0  0
    4.1483    2.0274    0.0000 H   0  0  0  0  0  0  0  0  0  0  0  0
   11.1909    0.2505    0.0000 H   0  0  0  0  0  0  0  0  0  0  0  0
    3.8024   -1.2637    0.0000 H   0  0  0  0  0  0  0  0  0  0  0  0
    9.0597   -2.9596    0.0000 H   0  0  0  0  0  0  0  0  0  0  0  0
    8.9647   -3.8312    0.0000 H   0  0  0  0  0  0  0  0  0  0  0  0
    9.8364   -3.9262    0.0000 H   0  0  0  0  0  0  0  0  0  0  0  0
    3.0395    2.5131    0.0000 H   0  0  0  0  0  0  0  0  0  0  0  0
    2.4903    3.1966    0.0000 H   0  0  0  0  0  0  0  0  0  0  0  0
    1.8068    2.6475    0.0000 H   0  0  0  0  0  0  0  0  0  0  0  0
   12.9862   -1.3755    0.0000 H   0  0  0  0  0  0  0  0  0  0  0  0
   13.0745   -0.5032    0.0000 H   0  0  0  0  0  0  0  0  0  0  0  0
   12.2021   -0.4149    0.0000 H   0  0  0  0  0  0  0  0  0  0  0  0
    1.3832   -1.3834    0.0000 H   0  0  0  0  0  0  0  0  0  0  0  0
    1.9376   -2.0626    0.0000 H   0  0  0  0  0  0  0  0  0  0  0  0
    2.6168   -1.5082    0.0000 H   0  0  0  0  0  0  0  0  0  0  0  0
  1 19  1  0  0  0  0
  1 23  1  0  0  0  0
  2 20  1  0  0  0  0
  2 24  1  0  0  0  0
  3 21  1  0  0  0  0
  3 25  1  0  0  0  0
  4 22  1  0  0  0  0
  4 26  1  0  0  0  0
  5  6  1  0  0  0  0
  5  7  1  0  0  0  0
  5 14  1  0  0  0  0
  6  9  1  0  0  0  0
  6 10  1  0  0  0  0
  6 27  1  1  0  0  0
  7  8  1  0  0  0  0
  7 11  1  0  0  0  0
  7 28  1  6  0  0  0
  8 12  1  0  0  0  0
  8 29  1  0  0  0  0
  8 30  1  0  0  0  0
  9 13  1  0  0  0  0
  9 31  1  0  0  0  0
  9 32  1  0  0  0  0
 10 12  1  0  0  0  0
 10 15  2  0  0  0  0
 11 13  1  0  0  0  0
 11 16  2  0  0  0  0
 12 17  2  0  0  0  0
 13 18  2  0  0  0  0
 14 33  1  0  0  0  0
 14 34  1  0  0  0  0
 14 35  1  0  0  0  0
 15 19  1  0  0  0  0
 15 36  1  0  0  0  0
 16 20  1  0  0  0  0
 16 37  1  0  0  0  0
 17 21  1  0  0  0  0
 17 38  1  0  0  0  0
 18 22  1  0  0  0  0
 18 39  1  0  0  0  0
 19 21  2  0  0  0  0
 20 22  2  0  0  0  0
 23 40  1  0  0  0  0
 23 41  1  0  0  0  0
 23 42  1  0  0  0  0
 24 43  1  0  0  0  0
 24 44  1  0  0  0  0
 24 45  1  0  0  0  0
 25 46  1  0  0  0  0
 25 47  1  0  0  0  0
 25 48  1  0  0  0  0
 26 49  1  0  0  0  0
 26 50  1  0  0  0  0
 26 51  1  0  0  0  0
M  END
> <PUBCHEM_COMPOUND_CID>
442168

> <PUBCHEM_COMPOUND_CANONICALIZED>
1

> <PUBCHEM_CACTVS_COMPLEXITY>
447

> <PUBCHEM_CACTVS_HBOND_ACCEPTOR>
5

> <PUBCHEM_CACTVS_HBOND_DONOR>
0

> <PUBCHEM_CACTVS_ROTATABLE_BOND>
4

> <PUBCHEM_CACTVS_SUBSKEYS>
AAADceB6OAAAAAAAAAAAAAAAAAAAAAAAAAA8eIEAAAAYAACxQAAAHgAAAAAADCzBmAYyBoMABACAAiBCAACCCAAgIAAAiAAOjIgNJiKEsRuEMCpkwBGKqAew0PMOoAABAAAQQABAAAIAACCAAAAAAAAAAA==

> <PUBCHEM_IUPAC_INCHI>
InChI=1S/C21H25NO4/c1-22-16-6-12-8-18(23-2)20(25-4)10-14(12)17(22)7-13-9-19(24-3)21(26-5)11-15(13)16/h8-11,16-17H,6-7H2,1-5H3/t16-,17-/m0/s1

> <PUBCHEM_IUPAC_INCHIKEY>
QEOWCPFWLCIQSL-IRXDYDNUSA-N

> <PUBCHEM_XLOGP3_AA>
3.3

> <PUBCHEM_EXACT_MASS>
355.178358

> <PUBCHEM_MOLECULAR_FORMULA>
C21H25NO4

> <PUBCHEM_MOLECULAR_WEIGHT>
355.4275

> <PUBCHEM_OPENEYE_CAN_SMILES>
CN1C2CC3=CC(=C(C=C3C1CC4=CC(=C(C=C24)OC)OC)OC)OC

> <PUBCHEM_OPENEYE_ISO_SMILES>
CN1[C@H]2CC3=CC(=C(C=C3[C@@H]1CC4=CC(=C(C=C24)OC)OC)OC)OC

> <PUBCHEM_CACTVS_TPSA>
40.2

> <PUBCHEM_MONOISOTOPIC_WEIGHT>
355.178358

> <PUBCHEM_TOTAL_CHARGE>
0

> <PUBCHEM_HEAVY_ATOM_COUNT>
26

> <PUBCHEM_ATOM_DEF_STEREO_COUNT>
2

> <PUBCHEM_ATOM_UDEF_STEREO_COUNT>
0

> <PUBCHEM_BOND_DEF_STEREO_COUNT>
0

> <PUBCHEM_BOND_UDEF_STEREO_COUNT>
0

> <PUBCHEM_ISOTOPIC_ATOM_COUNT>
0

> <PUBCHEM_COMPONENT_COUNT>
1

> <PUBCHEM_CACTVS_TAUTO_COUNT>
1

> <PUBCHEM_COORDINATE_TYPE>
1
5
255

> <PUBCHEM_BONDANNOTATIONS>
10  12  8
10  15  8
11  13  8
11  16  8
12  17  8
13  18  8
15  19  8
16  20  8
17  21  8
18  22  8
19  21  8
20  22  8
6  27  5
7  28  6

$$$$

