12699
  -OEChem-06261207152D

 12 11  0     0  0  0  0  0  0999 V2000
    3.4030   -1.2500    0.0000 O   0  0  0  0  0  0  0  0  0  0  0  0
    6.0010    0.2500    0.0000 O   0  0  0  0  0  0  0  0  0  0  0  0
    4.2690    0.2500    0.0000 N   0  0  0  0  0  0  0  0  0  0  0  0
    2.5369    0.2500    0.0000 N   0  0  0  0  0  0  0  0  0  0  0  0
    5.1350   -0.2500    0.0000 N   0  0  0  0  0  0  0  0  0  0  0  0
    4.2690    1.2500    0.0000 C   0  0  0  0  0  0  0  0  0  0  0  0
    3.4030   -0.2500    0.0000 C   0  0  0  0  0  0  0  0  0  0  0  0
    4.8890    1.2500    0.0000 H   0  0  0  0  0  0  0  0  0  0  0  0
    4.2690    1.8700    0.0000 H   0  0  0  0  0  0  0  0  0  0  0  0
    3.6490    1.2500    0.0000 H   0  0  0  0  0  0  0  0  0  0  0  0
    2.0000   -0.0600    0.0000 H   0  0  0  0  0  0  0  0  0  0  0  0
    2.5369    0.8700    0.0000 H   0  0  0  0  0  0  0  0  0  0  0  0
  1  7  2  0  0  0  0
  2  5  2  0  0  0  0
  3  5  1  0  0  0  0
  3  6  1  0  0  0  0
  3  7  1  0  0  0  0
  4  7  1  0  0  0  0
  4 11  1  0  0  0  0
  4 12  1  0  0  0  0
  6  8  1  0  0  0  0
  6  9  1  0  0  0  0
  6 10  1  0  0  0  0
M  END
> <PUBCHEM_COMPOUND_CID>
12699

> <PUBCHEM_COMPOUND_CANONICALIZED>
1

> <PUBCHEM_CACTVS_COMPLEXITY>
90.9

> <PUBCHEM_CACTVS_HBOND_ACCEPTOR>
3

> <PUBCHEM_CACTVS_HBOND_DONOR>
1

> <PUBCHEM_CACTVS_ROTATABLE_BOND>
0

> <PUBCHEM_CACTVS_SUBSKEYS>
AAADcYBDMAAAAAAAAAAAAAAAAAAAAAAAAAAAAAAAAAAAAAAAAAAAFgAcAAAAAAAAAAQDAAJAAAAJAAAAEAAAAAAAAAAGAAAIAACAAAAAAAAAAAAQAgAAAAAAAAAAAAAAAAAAAAAAAAAAAAAAAAAAAAAAAA==

> <PUBCHEM_IUPAC_OPENEYE_NAME>
1-methyl-1-nitroso-urea

> <PUBCHEM_IUPAC_CAS_NAME>
1-methyl-1-nitrosourea

> <PUBCHEM_IUPAC_NAME>
1-methyl-1-nitrosourea

> <PUBCHEM_IUPAC_SYSTEMATIC_NAME>
1-methyl-1-nitroso-urea

> <PUBCHEM_IUPAC_TRADITIONAL_NAME>
1-methyl-1-nitroso-urea

> <PUBCHEM_IUPAC_INCHI>
InChI=1S/C2H5N3O2/c1-5(4-7)2(3)6/h1H3,(H2,3,6)

> <PUBCHEM_IUPAC_INCHIKEY>
ZRKWMRDKSOPRRS-UHFFFAOYSA-N

> <PUBCHEM_XLOGP3>
0

> <PUBCHEM_EXACT_MASS>
103.038176

> <PUBCHEM_MOLECULAR_FORMULA>
C2H5N3O2

> <PUBCHEM_MOLECULAR_WEIGHT>
103.08

> <PUBCHEM_OPENEYE_CAN_SMILES>
CN(C(=O)N)N=O

> <PUBCHEM_OPENEYE_ISO_SMILES>
CN(C(=O)N)N=O

> <PUBCHEM_CACTVS_TPSA>
75.8

> <PUBCHEM_MONOISOTOPIC_WEIGHT>
103.038176

> <PUBCHEM_TOTAL_CHARGE>
0

> <PUBCHEM_HEAVY_ATOM_COUNT>
7

> <PUBCHEM_ATOM_DEF_STEREO_COUNT>
0

> <PUBCHEM_ATOM_UDEF_STEREO_COUNT>
0

> <PUBCHEM_BOND_DEF_STEREO_COUNT>
0

> <PUBCHEM_BOND_UDEF_STEREO_COUNT>
0

> <PUBCHEM_ISOTOPIC_ATOM_COUNT>
0

> <PUBCHEM_COMPONENT_COUNT>
1

> <PUBCHEM_CACTVS_TAUTO_COUNT>
2

> <PUBCHEM_COORDINATE_TYPE>
1
5
255

$$$$

