5281518
  -OEChem-07051212583D

 67 69  0     1  0  0  0  0  0999 V2000
    4.4901    0.1904   -2.4117 O   0  0  0  0  0  0  0  0  0  0  0  0
    5.3706   -0.9527    1.6675 O   0  0  0  0  0  0  0  0  0  0  0  0
    2.7038   -1.9139   -1.8813 O   0  0  0  0  0  0  0  0  0  0  0  0
    0.9376   -1.5373    0.2011 O   0  0  0  0  0  0  0  0  0  0  0  0
   -0.4804   -3.2983    0.6765 O   0  0  0  0  0  0  0  0  0  0  0  0
  -12.0691    0.7931   -0.0297 O   0  0  0  0  0  0  0  0  0  0  0  0
  -10.6808    2.5137   -0.5661 O   0  0  0  0  0  0  0  0  0  0  0  0
    3.7279   -0.5020   -0.1574 C   0  0  1  0  0  0  0  0  0  0  0  0
    4.0561   -0.4801    1.3334 C   0  0  2  0  0  0  0  0  0  0  0  0
    4.8741   -0.0914   -1.0598 C   0  0  2  0  0  0  0  0  0  0  0  0
    4.9725    1.2927   -1.6326 C   0  0  2  0  0  0  0  0  0  0  0  0
    3.2085   -1.9110   -0.5460 C   0  0  1  0  0  0  0  0  0  0  0  0
    5.1100    0.4361    1.9219 C   0  0  0  0  0  0  0  0  0  0  0  0
    2.9789   -0.9865    2.2558 C   0  0  0  0  0  0  0  0  0  0  0  0
    2.0716   -2.3898    0.3687 C   0  0  1  0  0  0  0  0  0  0  0  0
    2.5033   -2.3755    1.8336 C   0  0  0  0  0  0  0  0  0  0  0  0
    6.0867   -0.9361   -0.9404 C   0  0  0  0  0  0  0  0  0  0  0  0
    3.9657    2.3430   -1.3523 C   0  0  0  0  0  0  0  0  0  0  0  0
    4.0394    2.9428    0.0320 C   0  0  0  0  0  0  0  0  0  0  0  0
    2.6552   -3.2296   -2.4069 C   0  0  0  0  0  0  0  0  0  0  0  0
   -0.2724   -2.1308    0.3865 C   0  0  0  0  0  0  0  0  0  0  0  0
    4.6790    4.0657    0.4102 C   0  0  0  0  0  0  0  0  0  0  0  0
    5.4263    4.8961   -0.5986 C   0  0  0  0  0  0  0  0  0  0  0  0
    4.7120    4.6083    1.8109 C   0  0  0  0  0  0  0  0  0  0  0  0
   -1.3133   -1.1009    0.1748 C   0  0  0  0  0  0  0  0  0  0  0  0
   -2.6070   -1.4262    0.3000 C   0  0  0  0  0  0  0  0  0  0  0  0
   -3.6754   -0.4691    0.1081 C   0  0  0  0  0  0  0  0  0  0  0  0
   -4.9730   -0.7885    0.2322 C   0  0  0  0  0  0  0  0  0  0  0  0
   -6.0785    0.1220    0.0235 C   0  0  0  0  0  0  0  0  0  0  0  0
   -7.3761   -0.1977    0.1476 C   0  0  0  0  0  0  0  0  0  0  0  0
   -8.4471    0.7440   -0.1024 C   0  0  0  0  0  0  0  0  0  0  0  0
   -9.7409    0.4162    0.0240 C   0  0  0  0  0  0  0  0  0  0  0  0
  -10.8553    1.3533   -0.2232 C   0  0  0  0  0  0  0  0  0  0  0  0
    2.8911    0.1884   -0.3058 H   0  0  0  0  0  0  0  0  0  0  0  0
    5.9521    1.6910   -1.8641 H   0  0  0  0  0  0  0  0  0  0  0  0
    4.0237   -2.6380   -0.4585 H   0  0  0  0  0  0  0  0  0  0  0  0
    5.0137    0.7441    2.9561 H   0  0  0  0  0  0  0  0  0  0  0  0
    5.6523    1.1400    1.3088 H   0  0  0  0  0  0  0  0  0  0  0  0
    3.3363   -1.0330    3.2918 H   0  0  0  0  0  0  0  0  0  0  0  0
    2.1407   -0.2795    2.2454 H   0  0  0  0  0  0  0  0  0  0  0  0
    1.8091   -3.4208    0.1074 H   0  0  0  0  0  0  0  0  0  0  0  0
    3.3128   -3.1007    1.9819 H   0  0  0  0  0  0  0  0  0  0  0  0
    1.6718   -2.6728    2.4826 H   0  0  0  0  0  0  0  0  0  0  0  0
    5.9245   -1.9496   -0.5702 H   0  0  0  0  0  0  0  0  0  0  0  0
    6.8337   -0.4540   -0.3005 H   0  0  0  0  0  0  0  0  0  0  0  0
    6.5677   -1.0525   -1.9201 H   0  0  0  0  0  0  0  0  0  0  0  0
    4.0528    3.1224   -2.1176 H   0  0  0  0  0  0  0  0  0  0  0  0
    2.9449    1.9662   -1.4966 H   0  0  0  0  0  0  0  0  0  0  0  0
    3.4808    2.4050    0.7949 H   0  0  0  0  0  0  0  0  0  0  0  0
    3.6160   -3.7433   -2.3012 H   0  0  0  0  0  0  0  0  0  0  0  0
    1.8520   -3.8176   -1.9568 H   0  0  0  0  0  0  0  0  0  0  0  0
    2.4368   -3.1511   -3.4763 H   0  0  0  0  0  0  0  0  0  0  0  0
    5.6351    4.3833   -1.5399 H   0  0  0  0  0  0  0  0  0  0  0  0
    6.4016    5.1867   -0.1914 H   0  0  0  0  0  0  0  0  0  0  0  0
    4.8663    5.8104   -0.8202 H   0  0  0  0  0  0  0  0  0  0  0  0
    4.1373    3.9803    2.4996 H   0  0  0  0  0  0  0  0  0  0  0  0
    4.2847    5.6156    1.8401 H   0  0  0  0  0  0  0  0  0  0  0  0
    5.7418    4.6523    2.1797 H   0  0  0  0  0  0  0  0  0  0  0  0
   -0.9975   -0.0941   -0.0796 H   0  0  0  0  0  0  0  0  0  0  0  0
   -2.8978   -2.4419    0.5565 H   0  0  0  0  0  0  0  0  0  0  0  0
   -3.3919    0.5462   -0.1599 H   0  0  0  0  0  0  0  0  0  0  0  0
   -5.2456   -1.8083    0.4996 H   0  0  0  0  0  0  0  0  0  0  0  0
   -5.8069    1.1357   -0.2666 H   0  0  0  0  0  0  0  0  0  0  0  0
   -7.6581   -1.2079    0.4355 H   0  0  0  0  0  0  0  0  0  0  0  0
   -8.1666    1.7503   -0.4022 H   0  0  0  0  0  0  0  0  0  0  0  0
  -10.0259   -0.5892    0.3242 H   0  0  0  0  0  0  0  0  0  0  0  0
  -12.7984    1.4275   -0.1972 H   0  0  0  0  0  0  0  0  0  0  0  0
  1 10  1  0  0  0  0
  1 11  1  0  0  0  0
  2  9  1  0  0  0  0
  2 13  1  0  0  0  0
  3 12  1  0  0  0  0
  3 20  1  0  0  0  0
  4 15  1  0  0  0  0
  4 21  1  0  0  0  0
  5 21  2  0  0  0  0
  6 33  1  0  0  0  0
  6 67  1  0  0  0  0
  7 33  2  0  0  0  0
  8  9  1  0  0  0  0
  8 10  1  0  0  0  0
  8 12  1  0  0  0  0
  8 34  1  0  0  0  0
  9 13  1  0  0  0  0
  9 14  1  0  0  0  0
 10 11  1  0  0  0  0
 10 17  1  0  0  0  0
 11 18  1  0  0  0  0
 11 35  1  0  0  0  0
 12 15  1  0  0  0  0
 12 36  1  0  0  0  0
 13 37  1  0  0  0  0
 13 38  1  0  0  0  0
 14 16  1  0  0  0  0
 14 39  1  0  0  0  0
 14 40  1  0  0  0  0
 15 16  1  0  0  0  0
 15 41  1  0  0  0  0
 16 42  1  0  0  0  0
 16 43  1  0  0  0  0
 17 44  1  0  0  0  0
 17 45  1  0  0  0  0
 17 46  1  0  0  0  0
 18 19  1  0  0  0  0
 18 47  1  0  0  0  0
 18 48  1  0  0  0  0
 19 22  2  0  0  0  0
 19 49  1  0  0  0  0
 20 50  1  0  0  0  0
 20 51  1  0  0  0  0
 20 52  1  0  0  0  0
 21 25  1  0  0  0  0
 22 23  1  0  0  0  0
 22 24  1  0  0  0  0
 23 53  1  0  0  0  0
 23 54  1  0  0  0  0
 23 55  1  0  0  0  0
 24 56  1  0  0  0  0
 24 57  1  0  0  0  0
 24 58  1  0  0  0  0
 25 26  2  0  0  0  0
 25 59  1  0  0  0  0
 26 27  1  0  0  0  0
 26 60  1  0  0  0  0
 27 28  2  0  0  0  0
 27 61  1  0  0  0  0
 28 29  1  0  0  0  0
 28 62  1  0  0  0  0
 29 30  2  0  0  0  0
 29 63  1  0  0  0  0
 30 31  1  0  0  0  0
 30 64  1  0  0  0  0
 31 32  2  0  0  0  0
 31 65  1  0  0  0  0
 32 33  1  0  0  0  0
 32 66  1  0  0  0  0
M  END
> <PUBCHEM_COMPOUND_CID>
5281518

> <PUBCHEM_CONFORMER_RMSD>
1.2

> <PUBCHEM_CONFORMER_DIVERSEORDER>
7
14
6
20
19
47
57
49
33
69
52
71
53
17
22
25
67
31
43
61
70
3
34
30
11
62
68
13
44
32
59
64
40
9
29
50
65
12
51
23
54
37
55
35
26
16
48
27
46
24
18
41
21
10
2
28
15
56
4
45
58
8
5
38
42
36
1
66
60
39
63

> <PUBCHEM_MMFF94_PARTIAL_CHARGES>
45
1 -0.3
10 -0.04
11 -0.05
12 0.28
13 -0.05
14 0.09
15 0.28
17 0.09
18 0.23
19 -0.29
2 -0.3
20 0.28
21 0.71
22 -0.28
23 0.14
24 0.14
25 -0.14
26 -0.15
27 -0.15
28 -0.15
29 -0.15
3 -0.56
30 -0.15
31 -0.15
32 -0.14
33 0.71
35 0.1
37 0.1
38 0.1
4 -0.43
49 0.15
5 -0.57
59 0.15
6 -0.65
60 0.15
61 0.15
62 0.15
63 0.15
64 0.15
65 0.15
66 0.15
67 0.5
7 -0.57
8 0.19
9 -0.04

> <PUBCHEM_EFFECTIVE_ROTOR_COUNT>
13

> <PUBCHEM_PHARMACOPHORE_FEATURES>
9
1 1 acceptor
1 2 acceptor
1 3 acceptor
1 5 acceptor
1 6 acceptor
1 7 acceptor
3 22 23 24 hydrophobe
3 6 7 33 anion
6 8 9 12 14 15 16 rings

> <PUBCHEM_HEAVY_ATOM_COUNT>
33

> <PUBCHEM_ATOM_DEF_STEREO_COUNT>
5

> <PUBCHEM_ATOM_UDEF_STEREO_COUNT>
1

> <PUBCHEM_BOND_DEF_STEREO_COUNT>
4

> <PUBCHEM_BOND_UDEF_STEREO_COUNT>
0

> <PUBCHEM_ISOTOPIC_ATOM_COUNT>
0

> <PUBCHEM_COMPONENT_COUNT>
1

> <PUBCHEM_CACTVS_TAUTO_COUNT>
1

> <PUBCHEM_CONFORMER_ID>
005096EE00000007

> <PUBCHEM_MMFF94_ENERGY>
72.961

> <PUBCHEM_FEATURE_SELFOVERLAP>
45.73

> <PUBCHEM_SHAPE_FINGERPRINT>
10168742 298 15357698583895614197
10816530 90 18334858312150131049
11135609 127 18187368683912275188
11211813 74 18410575085708155501
11578821 258 18269278023682025373
11966995 178 18412820305325442693
12522641 24 17845940726757688019
12661589 4 9655311353601970248
14537116 161 17603586318477249129
15082195 135 18114453530738837530
15145344 44 18334295384463733577
15152005 1 11853898605001433628
15475509 35 10231758860004647918
1754908 1 15625928873576165593
17686467 74 17989485205466777045
19053607 189 17979633438536056236
19301679 30 9727368921780364691
20165401 70 9799693684581148537
20721686 146 17751653053171254632
21792934 111 15195567927631206807
3525247 18 17686064898887820041
3711267 37 18259981596722900793
3918712 181 18410857634067844873
5951187 136 18339356380096767198
9831232 110 7132444493187890513

> <PUBCHEM_SHAPE_MULTIPOLES>
638.04
30.7
4.93
1.89
143.75
6.09
0.09
27.34
3.39
-10.67
-0.13
-4.66
-0.58
1.25

> <PUBCHEM_SHAPE_SELFOVERLAP>
1305.936

> <PUBCHEM_SHAPE_VOLUME>
364.8

> <PUBCHEM_COORDINATE_TYPE>
2
5
10

$$$$

