5459880
  -OEChem-07051212482D

 22 24  0     0  0  0  0  0  0999 V2000
    5.5443    1.0041    0.0000 S   0  0  0  0  0  0  0  0  0  0  0  0
    7.7157    1.0084    0.0000 S   0  0  0  0  0  0  0  0  0  0  0  0
    9.4758   -0.8884    0.0000 O   0  0  0  0  0  0  0  0  0  0  0  0
    2.0000    1.1993    0.0000 O   0  0  0  0  0  0  0  0  0  0  0  0
    7.7157   -0.6097    0.0000 N   0  0  0  0  0  0  0  0  0  0  0  0
    5.5443   -0.6054    0.0000 N   0  0  0  0  0  0  0  0  0  0  0  0
    7.1279    0.1993    0.0000 C   0  0  0  0  0  0  0  0  0  0  0  0
    6.1279    0.1993    0.0000 C   0  0  0  0  0  0  0  0  0  0  0  0
    4.5981    0.6993    0.0000 C   0  0  0  0  0  0  0  0  0  0  0  0
    4.5981   -0.3007    0.0000 C   0  0  0  0  0  0  0  0  0  0  0  0
    8.6668    0.6993    0.0000 C   0  0  0  0  0  0  0  0  0  0  0  0
    8.6668   -0.3007    0.0000 C   0  0  0  0  0  0  0  0  0  0  0  0
    3.7320    1.1993    0.0000 C   0  0  0  0  0  0  0  0  0  0  0  0
    3.7320   -0.8007    0.0000 C   0  0  0  0  0  0  0  0  0  0  0  0
    2.8660    0.6993    0.0000 C   0  0  0  0  0  0  0  0  0  0  0  0
    2.8660   -0.3007    0.0000 C   0  0  0  0  0  0  0  0  0  0  0  0
    9.2834    0.6345    0.0000 H   0  0  0  0  0  0  0  0  0  0  0  0
    8.7956    1.3058    0.0000 H   0  0  0  0  0  0  0  0  0  0  0  0
    7.5241   -1.1993    0.0000 H   0  0  0  0  0  0  0  0  0  0  0  0
    3.7320    1.8193    0.0000 H   0  0  0  0  0  0  0  0  0  0  0  0
    3.7320   -1.4207    0.0000 H   0  0  0  0  0  0  0  0  0  0  0  0
    2.3291   -0.6107    0.0000 H   0  0  0  0  0  0  0  0  0  0  0  0
  1  8  1  0  0  0  0
  1  9  1  0  0  0  0
  2  7  1  0  0  0  0
  2 11  1  0  0  0  0
  3 12  2  0  0  0  0
  4 15  2  0  0  0  0
  5  7  1  0  0  0  0
  5 12  1  0  0  0  0
  5 19  1  0  0  0  0
  6  8  1  0  0  0  0
  6 10  2  0  0  0  0
  7  8  2  0  0  0  0
  9 10  1  0  0  0  0
  9 13  2  0  0  0  0
 10 14  1  0  0  0  0
 11 12  1  0  0  0  0
 11 17  1  0  0  0  0
 11 18  1  0  0  0  0
 13 15  1  0  0  0  0
 13 20  1  0  0  0  0
 14 16  2  0  0  0  0
 14 21  1  0  0  0  0
 15 16  1  0  0  0  0
 16 22  1  0  0  0  0
M  END
> <PUBCHEM_COMPOUND_CID>
5459880

> <PUBCHEM_COMPOUND_CANONICALIZED>
1

> <PUBCHEM_CACTVS_COMPLEXITY>
529

> <PUBCHEM_CACTVS_HBOND_ACCEPTOR>
5

> <PUBCHEM_CACTVS_HBOND_DONOR>
1

> <PUBCHEM_CACTVS_ROTATABLE_BOND>
0

> <PUBCHEM_CACTVS_SUBSKEYS>
AAADcYBzMABgAAAAAAAAAAAAAAAAAWIAAAAgAAAAAAAAAEAAAAAAHgQQAAAACAyFwACAAALAAAioAaFyVAAAAABgABAICAAQAFgAAAAgAAAAAAAAEAAIAYIAAAAAAAAAAAAAAAAAAAAAAAAAAAAAAAAAAA==

> <PUBCHEM_IUPAC_OPENEYE_NAME>
(2Z)-2-(4-oxothiazolidin-2-ylidene)-1,3-benzothiazol-6-one

> <PUBCHEM_IUPAC_CAS_NAME>
(2Z)-2-(4-oxo-2-thiazolidinylidene)-1,3-benzothiazol-6-one

> <PUBCHEM_IUPAC_NAME>
(2Z)-2-(4-oxo-1,3-thiazolidin-2-ylidene)-1,3-benzothiazol-6-one

> <PUBCHEM_IUPAC_SYSTEMATIC_NAME>
(2Z)-2-(4-oxidanylidene-1,3-thiazolidin-2-ylidene)-1,3-benzothiazol-6-one

> <PUBCHEM_IUPAC_TRADITIONAL_NAME>
(2Z)-2-(4-ketothiazolidin-2-ylidene)-1,3-benzothiazol-6-one

> <PUBCHEM_IUPAC_INCHI>
InChI=1S/C10H6N2O2S2/c13-5-1-2-6-7(3-5)16-10(11-6)9-12-8(14)4-15-9/h1-3H,4H2,(H,12,14)/b10-9-

> <PUBCHEM_IUPAC_INCHIKEY>
CRRXQSRRFHPIFR-KTKRTIGZSA-N

> <PUBCHEM_XLOGP3_AA>
0.5

> <PUBCHEM_EXACT_MASS>
249.987069

> <PUBCHEM_MOLECULAR_FORMULA>
C10H6N2O2S2

> <PUBCHEM_MOLECULAR_WEIGHT>
250.29684

> <PUBCHEM_OPENEYE_CAN_SMILES>
C1C(=O)NC(=C2N=C3C=CC(=O)C=C3S2)S1

> <PUBCHEM_OPENEYE_ISO_SMILES>
C1C(=O)N/C(=C/2\N=C3C=CC(=O)C=C3S2)/S1

> <PUBCHEM_CACTVS_TPSA>
109

> <PUBCHEM_MONOISOTOPIC_WEIGHT>
249.987069

> <PUBCHEM_TOTAL_CHARGE>
0

> <PUBCHEM_HEAVY_ATOM_COUNT>
16

> <PUBCHEM_ATOM_DEF_STEREO_COUNT>
0

> <PUBCHEM_ATOM_UDEF_STEREO_COUNT>
0

> <PUBCHEM_BOND_DEF_STEREO_COUNT>
1

> <PUBCHEM_BOND_UDEF_STEREO_COUNT>
0

> <PUBCHEM_ISOTOPIC_ATOM_COUNT>
0

> <PUBCHEM_COMPONENT_COUNT>
1

> <PUBCHEM_CACTVS_TAUTO_COUNT>
9

> <PUBCHEM_COORDINATE_TYPE>
1
5
255

> <PUBCHEM_BONDANNOTATIONS>
1  8  8
1  9  8
6  10  8
6  8  8
9  10  8

$$$$

