5280715
  -OEChem-07051212493D

 56 56  0     1  0  0  0  0  0999 V2000
    4.0831   -3.7516   -0.5714 O   0  0  0  0  0  0  0  0  0  0  0  0
    2.9247    4.0887    1.2116 O   0  0  0  0  0  0  0  0  0  0  0  0
   -6.9531   -0.6983    1.1214 O   0  0  0  0  0  0  0  0  0  0  0  0
   -6.1387   -1.7646   -0.7106 O   0  0  0  0  0  0  0  0  0  0  0  0
    2.9647   -1.8211    0.3658 C   0  0  2  0  0  0  0  0  0  0  0  0
    1.6138   -2.0506   -0.2936 C   0  0  0  0  0  0  0  0  0  0  0  0
    0.4695   -1.5332    0.5790 C   0  0  0  0  0  0  0  0  0  0  0  0
    3.4773   -0.4166    0.2542 C   0  0  0  0  0  0  0  0  0  0  0  0
    4.0622   -2.5364   -0.4008 C   0  0  0  0  0  0  0  0  0  0  0  0
   -0.8884   -1.8009   -0.0731 C   0  0  0  0  0  0  0  0  0  0  0  0
    5.1270   -1.6193   -0.9462 C   0  0  0  0  0  0  0  0  0  0  0  0
    4.6165   -0.3172   -0.4403 C   0  0  0  0  0  0  0  0  0  0  0  0
   -2.0733   -1.2956    0.7557 C   0  0  0  0  0  0  0  0  0  0  0  0
    2.8016    0.6827    0.8822 C   0  0  0  0  0  0  0  0  0  0  0  0
   -3.4585   -1.5161    0.1414 C   0  0  0  0  0  0  0  0  0  0  0  0
    1.9769    3.0480    0.9798 C   0  0  1  0  0  0  0  0  0  0  0  0
    0.8302    3.5687    0.1031 C   0  0  0  0  0  0  0  0  0  0  0  0
    2.6849    1.8954    0.3229 C   0  0  0  0  0  0  0  0  0  0  0  0
   -0.2280    2.4911   -0.1590 C   0  0  0  0  0  0  0  0  0  0  0  0
   -1.3792    3.0380   -1.0057 C   0  0  0  0  0  0  0  0  0  0  0  0
   -4.5965   -0.9431    0.9854 C   0  0  0  0  0  0  0  0  0  0  0  0
   -2.4206    1.9565   -1.2926 C   0  0  0  0  0  0  0  0  0  0  0  0
   -3.5494    2.4870   -2.1619 C   0  0  0  0  0  0  0  0  0  0  0  0
   -5.9469   -1.1914    0.3526 C   0  0  0  0  0  0  0  0  0  0  0  0
    2.9911   -2.1666    1.4056 H   0  0  0  0  0  0  0  0  0  0  0  0
    1.4669   -3.1242   -0.4686 H   0  0  0  0  0  0  0  0  0  0  0  0
    1.5760   -1.5728   -1.2816 H   0  0  0  0  0  0  0  0  0  0  0  0
    0.5037   -2.0182    1.5620 H   0  0  0  0  0  0  0  0  0  0  0  0
    0.5447   -0.4579    0.7448 H   0  0  0  0  0  0  0  0  0  0  0  0
   -1.0066   -2.8785   -0.2409 H   0  0  0  0  0  0  0  0  0  0  0  0
   -0.9166   -1.3218   -1.0596 H   0  0  0  0  0  0  0  0  0  0  0  0
    6.1005   -1.8647   -0.5172 H   0  0  0  0  0  0  0  0  0  0  0  0
    5.1395   -1.6509   -2.0374 H   0  0  0  0  0  0  0  0  0  0  0  0
    5.1536    0.6060   -0.6159 H   0  0  0  0  0  0  0  0  0  0  0  0
   -1.9366   -0.2245    0.9461 H   0  0  0  0  0  0  0  0  0  0  0  0
   -2.0462   -1.7848    1.7379 H   0  0  0  0  0  0  0  0  0  0  0  0
    2.3695    0.4922    1.8608 H   0  0  0  0  0  0  0  0  0  0  0  0
   -3.4837   -1.0633   -0.8578 H   0  0  0  0  0  0  0  0  0  0  0  0
   -3.6163   -2.5922   -0.0053 H   0  0  0  0  0  0  0  0  0  0  0  0
    1.5807    2.7561    1.9592 H   0  0  0  0  0  0  0  0  0  0  0  0
    1.2257    3.9474   -0.8488 H   0  0  0  0  0  0  0  0  0  0  0  0
    0.3709    4.4345    0.5971 H   0  0  0  0  0  0  0  0  0  0  0  0
    3.1118    2.0898   -0.6590 H   0  0  0  0  0  0  0  0  0  0  0  0
   -0.6183    2.1180    0.7955 H   0  0  0  0  0  0  0  0  0  0  0  0
    0.2166    1.6395   -0.6861 H   0  0  0  0  0  0  0  0  0  0  0  0
   -0.9846    3.4268   -1.9524 H   0  0  0  0  0  0  0  0  0  0  0  0
   -1.8539    3.8781   -0.4842 H   0  0  0  0  0  0  0  0  0  0  0  0
   -4.4662    0.1384    1.0997 H   0  0  0  0  0  0  0  0  0  0  0  0
   -4.5921   -1.4106    1.9760 H   0  0  0  0  0  0  0  0  0  0  0  0
   -1.9493    1.1035   -1.7937 H   0  0  0  0  0  0  0  0  0  0  0  0
   -2.8413    1.5936   -0.3492 H   0  0  0  0  0  0  0  0  0  0  0  0
    3.2332    4.4141    0.3483 H   0  0  0  0  0  0  0  0  0  0  0  0
   -3.1708    2.8326   -3.1290 H   0  0  0  0  0  0  0  0  0  0  0  0
   -4.0611    3.3226   -1.6739 H   0  0  0  0  0  0  0  0  0  0  0  0
   -4.2863    1.6990   -2.3470 H   0  0  0  0  0  0  0  0  0  0  0  0
   -7.8329   -0.8583    0.7181 H   0  0  0  0  0  0  0  0  0  0  0  0
  1  9  2  0  0  0  0
  2 16  1  0  0  0  0
  2 52  1  0  0  0  0
  3 24  1  0  0  0  0
  3 56  1  0  0  0  0
  4 24  2  0  0  0  0
  5  6  1  0  0  0  0
  5  8  1  0  0  0  0
  5  9  1  0  0  0  0
  5 25  1  0  0  0  0
  6  7  1  0  0  0  0
  6 26  1  0  0  0  0
  6 27  1  0  0  0  0
  7 10  1  0  0  0  0
  7 28  1  0  0  0  0
  7 29  1  0  0  0  0
  8 12  2  0  0  0  0
  8 14  1  0  0  0  0
  9 11  1  0  0  0  0
 10 13  1  0  0  0  0
 10 30  1  0  0  0  0
 10 31  1  0  0  0  0
 11 12  1  0  0  0  0
 11 32  1  0  0  0  0
 11 33  1  0  0  0  0
 12 34  1  0  0  0  0
 13 15  1  0  0  0  0
 13 35  1  0  0  0  0
 13 36  1  0  0  0  0
 14 18  2  0  0  0  0
 14 37  1  0  0  0  0
 15 21  1  0  0  0  0
 15 38  1  0  0  0  0
 15 39  1  0  0  0  0
 16 17  1  0  0  0  0
 16 18  1  0  0  0  0
 16 40  1  0  0  0  0
 17 19  1  0  0  0  0
 17 41  1  0  0  0  0
 17 42  1  0  0  0  0
 18 43  1  0  0  0  0
 19 20  1  0  0  0  0
 19 44  1  0  0  0  0
 19 45  1  0  0  0  0
 20 22  1  0  0  0  0
 20 46  1  0  0  0  0
 20 47  1  0  0  0  0
 21 24  1  0  0  0  0
 21 48  1  0  0  0  0
 21 49  1  0  0  0  0
 22 23  1  0  0  0  0
 22 50  1  0  0  0  0
 22 51  1  0  0  0  0
 23 53  1  0  0  0  0
 23 54  1  0  0  0  0
 23 55  1  0  0  0  0
M  END
> <PUBCHEM_COMPOUND_CID>
5280715

> <PUBCHEM_CONFORMER_RMSD>
1.2

> <PUBCHEM_CONFORMER_DIVERSEORDER>
1
131
60
132
94
28
29
9
62
21
7
78
14
126
127
89
24
59
16
107
63
6
43
31
95
108
73
103
105
57
8
122
81
83
77
25
133
84
10
44
88
18
42
93
111
91
92
49
69
135
26
86
99
56
104
96
2
53
3
46
115
100
87
124
58
117
101
118
54
65
90
106
80
35
66
55
36
71
98
72
128
13
76
68
110
23
123
109
74
134
112
70
52
19
27
120
4
45
15
79
12
50
47
33
119
75
114
82
97
22
85
116
61
34
129
37
38
67
5
30
32
41
51
11
39
125
130
102
17
121
113
20
64
48
40

> <PUBCHEM_MMFF94_PARTIAL_CHARGES>
19
1 -0.57
11 0.2
12 -0.29
14 -0.15
16 0.42
18 -0.29
2 -0.68
21 0.06
24 0.66
3 -0.65
34 0.15
37 0.15
4 -0.57
43 0.15
5 0.2
52 0.4
56 0.5
8 -0.14
9 0.45

> <PUBCHEM_EFFECTIVE_ROTOR_COUNT>
13.4

> <PUBCHEM_PHARMACOPHORE_FEATURES>
11
1 1 acceptor
1 2 acceptor
1 2 donor
1 23 hydrophobe
1 3 acceptor
1 4 acceptor
3 13 15 21 hydrophobe
3 3 4 24 anion
3 6 7 10 hydrophobe
4 17 19 20 22 hydrophobe
5 5 8 9 11 12 rings

> <PUBCHEM_HEAVY_ATOM_COUNT>
24

> <PUBCHEM_ATOM_DEF_STEREO_COUNT>
2

> <PUBCHEM_ATOM_UDEF_STEREO_COUNT>
0

> <PUBCHEM_BOND_DEF_STEREO_COUNT>
1

> <PUBCHEM_BOND_UDEF_STEREO_COUNT>
0

> <PUBCHEM_ISOTOPIC_ATOM_COUNT>
0

> <PUBCHEM_COMPONENT_COUNT>
1

> <PUBCHEM_CACTVS_TAUTO_COUNT>
7

> <PUBCHEM_CONFORMER_ID>
005093CB00000001

> <PUBCHEM_MMFF94_ENERGY>
14.8911

> <PUBCHEM_FEATURE_SELFOVERLAP>
55.876

> <PUBCHEM_SHAPE_FINGERPRINT>
10688039 33 18201433705331707396
108634 29 18121222249533049838
12293681 4 17832149694502869454
12645989 146 18335699472462863991
13402501 40 18341896281557645809
13533116 47 18188206486430137609
14114211 80 17763731101400311884
15081414 286 18198623242380351141
15420108 30 17684946708830719184
20775438 99 17613489597800930647
21360443 126 17773604995676339341
221357 26 18412260661927555622
22182313 1 18340222824586215088
23352939 185 18335410275160419547
3014063 31 18412546500685744177
508706 21 18060144271404644157
5326457 24 17899425190781868335

> <PUBCHEM_SHAPE_MULTIPOLES>
470.43
12.89
5.19
1.27
16.85
4.3
0.32
-10.13
0.2
-2.8
0.19
0.82
0.79
3.38

> <PUBCHEM_SHAPE_SELFOVERLAP>
922.271

> <PUBCHEM_SHAPE_VOLUME>
282.4

> <PUBCHEM_COORDINATE_TYPE>
2
5
10

$$$$

