8242
  -OEChem-06261202412D

 16 15  0     0  0  0  0  0  0999 V2000
    4.7690    5.8100    0.0000 Na  0  3  0  0  0  0  0  0  0  0  0  0
    3.9030    0.3100    0.0000 O   0  0  0  0  0  0  0  0  0  0  0  0
    4.7690    4.8100    0.0000 O   0  5  0  0  0  0  0  0  0  0  0  0
    3.0369    4.8100    0.0000 O   0  0  0  0  0  0  0  0  0  0  0  0
    3.9030    3.3100    0.0000 C   0  0  0  0  0  0  0  0  0  0  0  0
    4.7690    2.8100    0.0000 C   0  0  0  0  0  0  0  0  0  0  0  0
    3.0369    2.8100    0.0000 C   0  0  0  0  0  0  0  0  0  0  0  0
    3.9030    1.3100    0.0000 C   0  0  0  0  0  0  0  0  0  0  0  0
    4.7690    1.8100    0.0000 C   0  0  0  0  0  0  0  0  0  0  0  0
    3.0369    1.8100    0.0000 C   0  0  0  0  0  0  0  0  0  0  0  0
    3.9030    4.3100    0.0000 C   0  0  0  0  0  0  0  0  0  0  0  0
    5.3059    3.1200    0.0000 H   0  0  0  0  0  0  0  0  0  0  0  0
    2.5000    3.1200    0.0000 H   0  0  0  0  0  0  0  0  0  0  0  0
    5.3059    1.5000    0.0000 H   0  0  0  0  0  0  0  0  0  0  0  0
    2.5000    1.5000    0.0000 H   0  0  0  0  0  0  0  0  0  0  0  0
    3.3660    0.0000    0.0000 H   0  0  0  0  0  0  0  0  0  0  0  0
  2  8  1  0  0  0  0
  2 16  1  0  0  0  0
  3 11  1  0  0  0  0
  4 11  2  0  0  0  0
  5  6  2  0  0  0  0
  5  7  1  0  0  0  0
  5 11  1  0  0  0  0
  6  9  1  0  0  0  0
  6 12  1  0  0  0  0
  7 10  2  0  0  0  0
  7 13  1  0  0  0  0
  8  9  2  0  0  0  0
  8 10  1  0  0  0  0
  9 14  1  0  0  0  0
 10 15  1  0  0  0  0
M  CHG  2   1   1   3  -1
M  END
> <PUBCHEM_COMPOUND_CID>
8242

> <PUBCHEM_COMPOUND_CANONICALIZED>
1

> <PUBCHEM_CACTVS_COMPLEXITY>
119

> <PUBCHEM_CACTVS_HBOND_ACCEPTOR>
3

> <PUBCHEM_CACTVS_HBOND_DONOR>
1

> <PUBCHEM_CACTVS_ROTATABLE_BOND>
0

> <PUBCHEM_CACTVS_SUBSKEYS>
AAADcYBgMCAAAAAAAAAAAAAAAAAAAAAAAAAwAAAAAAAAAAABAAAAGgAACAAADASAmAAwDoAAAgCIAiDSCAACAAAkIAAIiAEGCMgIJjKCFRKAcQAkwBEImYeI7CTOIAAAAAAAAABAAAAAAAAAAAAAAAAAAA==

> <PUBCHEM_IUPAC_OPENEYE_NAME>
sodium 4-hydroxybenzoate

> <PUBCHEM_IUPAC_CAS_NAME>
sodium 4-hydroxybenzoate

> <PUBCHEM_IUPAC_NAME>
sodium 4-hydroxybenzoate

> <PUBCHEM_IUPAC_SYSTEMATIC_NAME>
sodium 4-oxidanylbenzoate

> <PUBCHEM_IUPAC_TRADITIONAL_NAME>
sodium 4-hydroxybenzoate

> <PUBCHEM_IUPAC_INCHI>
InChI=1S/C7H6O3.Na/c8-6-3-1-5(2-4-6)7(9)10;/h1-4,8H,(H,9,10);/q;+1/p-1

> <PUBCHEM_IUPAC_INCHIKEY>
ZLVSYODPTJZFMK-UHFFFAOYSA-M

> <PUBCHEM_EXACT_MASS>
160.013638

> <PUBCHEM_MOLECULAR_FORMULA>
C7H5NaO3

> <PUBCHEM_MOLECULAR_WEIGHT>
160.102569

> <PUBCHEM_OPENEYE_CAN_SMILES>
C1=CC(=CC=C1C(=O)[O-])O.[Na+]

> <PUBCHEM_OPENEYE_ISO_SMILES>
C1=CC(=CC=C1C(=O)[O-])O.[Na+]

> <PUBCHEM_CACTVS_TPSA>
60.4

> <PUBCHEM_MONOISOTOPIC_WEIGHT>
160.013638

> <PUBCHEM_TOTAL_CHARGE>
0

> <PUBCHEM_HEAVY_ATOM_COUNT>
11

> <PUBCHEM_ATOM_DEF_STEREO_COUNT>
0

> <PUBCHEM_ATOM_UDEF_STEREO_COUNT>
0

> <PUBCHEM_BOND_DEF_STEREO_COUNT>
0

> <PUBCHEM_BOND_UDEF_STEREO_COUNT>
0

> <PUBCHEM_ISOTOPIC_ATOM_COUNT>
0

> <PUBCHEM_COMPONENT_COUNT>
2

> <PUBCHEM_CACTVS_TAUTO_COUNT>
3

> <PUBCHEM_COORDINATE_TYPE>
1
5
255

> <PUBCHEM_BONDANNOTATIONS>
5  6  8
5  7  8
6  9  8
7  10  8
8  10  8
8  9  8

$$$$

