4153
  -OEChem-06251223552D

 39 40  0     1  0  0  0  0  0999 V2000
    5.1350    2.9050    0.0000 S   0  0  0  0  0  0  0  0  0  0  0  0
    4.6350    3.7710    0.0000 O   0  0  0  0  0  0  0  0  0  0  0  0
    5.6350    2.0390    0.0000 O   0  0  0  0  0  0  0  0  0  0  0  0
    4.2690   -3.5950    0.0000 O   0  0  0  0  0  0  0  0  0  0  0  0
    2.5369   -4.5950    0.0000 O   0  0  0  0  0  0  0  0  0  0  0  0
    4.2690    2.4050    0.0000 N   0  0  3  0  0  0  0  0  0  0  0  0
    2.5369   -3.5950    0.0000 N   0  0  0  0  0  0  0  0  0  0  0  0
    4.2690    1.4050    0.0000 C   0  0  0  0  0  0  0  0  0  0  0  0
    6.0010    3.4050    0.0000 C   0  0  0  0  0  0  0  0  0  0  0  0
    3.4030    2.9050    0.0000 C   0  0  0  0  0  0  0  0  0  0  0  0
    3.4030    0.9050    0.0000 C   0  0  0  0  0  0  0  0  0  0  0  0
    5.1350    0.9050    0.0000 C   0  0  0  0  0  0  0  0  0  0  0  0
    6.8671    2.9050    0.0000 C   0  0  0  0  0  0  0  0  0  0  0  0
    6.0010    4.4050    0.0000 C   0  0  0  0  0  0  0  0  0  0  0  0
    4.2690   -0.5950    0.0000 C   0  0  0  0  0  0  0  0  0  0  0  0
    3.4030   -0.0950    0.0000 C   0  0  0  0  0  0  0  0  0  0  0  0
    5.1350   -0.0950    0.0000 C   0  0  0  0  0  0  0  0  0  0  0  0
    7.7331    3.4050    0.0000 C   0  0  0  0  0  0  0  0  0  0  0  0
    6.8671    4.9050    0.0000 C   0  0  0  0  0  0  0  0  0  0  0  0
    7.7331    4.4050    0.0000 C   0  0  0  0  0  0  0  0  0  0  0  0
    4.2690   -1.5950    0.0000 C   0  0  0  0  0  0  0  0  0  0  0  0
    3.4030   -2.0950    0.0000 C   0  0  0  0  0  0  0  0  0  0  0  0
    3.4030   -3.0950    0.0000 C   0  0  0  0  0  0  0  0  0  0  0  0
    3.7130    3.4419    0.0000 H   0  0  0  0  0  0  0  0  0  0  0  0
    2.8660    3.2150    0.0000 H   0  0  0  0  0  0  0  0  0  0  0  0
    3.0930    2.3681    0.0000 H   0  0  0  0  0  0  0  0  0  0  0  0
    2.8660    1.2150    0.0000 H   0  0  0  0  0  0  0  0  0  0  0  0
    5.6720    1.2150    0.0000 H   0  0  0  0  0  0  0  0  0  0  0  0
    6.8671    2.2850    0.0000 H   0  0  0  0  0  0  0  0  0  0  0  0
    5.4641    4.7150    0.0000 H   0  0  0  0  0  0  0  0  0  0  0  0
    2.8660   -0.4050    0.0000 H   0  0  0  0  0  0  0  0  0  0  0  0
    5.6720   -0.4050    0.0000 H   0  0  0  0  0  0  0  0  0  0  0  0
    8.2700    3.0950    0.0000 H   0  0  0  0  0  0  0  0  0  0  0  0
    6.8671    5.5250    0.0000 H   0  0  0  0  0  0  0  0  0  0  0  0
    8.2700    4.7150    0.0000 H   0  0  0  0  0  0  0  0  0  0  0  0
    4.8059   -1.9050    0.0000 H   0  0  0  0  0  0  0  0  0  0  0  0
    2.8660   -1.7850    0.0000 H   0  0  0  0  0  0  0  0  0  0  0  0
    2.0000   -3.2850    0.0000 H   0  0  0  0  0  0  0  0  0  0  0  0
    2.0000   -4.9050    0.0000 H   0  0  0  0  0  0  0  0  0  0  0  0
  1  2  2  0  0  0  0
  1  3  2  0  0  0  0
  1  6  1  0  0  0  0
  1  9  1  0  0  0  0
  4 23  2  0  0  0  0
  5  7  1  0  0  0  0
  5 39  1  0  0  0  0
  6  8  1  0  0  0  0
  6 10  1  0  0  0  0
  7 23  1  0  0  0  0
  7 38  1  0  0  0  0
  8 11  2  0  0  0  0
  8 12  1  0  0  0  0
  9 13  2  0  0  0  0
  9 14  1  0  0  0  0
 10 24  1  0  0  0  0
 10 25  1  0  0  0  0
 10 26  1  0  0  0  0
 11 16  1  0  0  0  0
 11 27  1  0  0  0  0
 12 17  2  0  0  0  0
 12 28  1  0  0  0  0
 13 18  1  0  0  0  0
 13 29  1  0  0  0  0
 14 19  2  0  0  0  0
 14 30  1  0  0  0  0
 15 16  2  0  0  0  0
 15 17  1  0  0  0  0
 15 21  1  0  0  0  0
 16 31  1  0  0  0  0
 17 32  1  0  0  0  0
 18 20  2  0  0  0  0
 18 33  1  0  0  0  0
 19 20  1  0  0  0  0
 19 34  1  0  0  0  0
 20 35  1  0  0  0  0
 21 22  2  3  0  0  0
 21 36  1  0  0  0  0
 22 23  1  0  0  0  0
 22 37  1  0  0  0  0
M  END
> <PUBCHEM_COMPOUND_CID>
4153

> <PUBCHEM_COMPOUND_CANONICALIZED>
1

> <PUBCHEM_CACTVS_COMPLEXITY>
513

> <PUBCHEM_CACTVS_HBOND_ACCEPTOR>
5

> <PUBCHEM_CACTVS_HBOND_DONOR>
2

> <PUBCHEM_CACTVS_ROTATABLE_BOND>
5

> <PUBCHEM_CACTVS_SUBSKEYS>
AAADceB7OABAAAAAAAAAAAAAAAAAAAAAAAAwYAAAAAAAAAABQAAAHgQUSAAADAiB2AQywYJQAAKIAiVSUHDCABAhAgAoiBgIZMgIICLAkZGEIAhgkABIyYcQgAAOCAAAAAAAAAAQAAAAAAAAAAAAAAAAAA==

> <PUBCHEM_IUPAC_OPENEYE_NAME>
3-[4-[benzenesulfonyl(methyl)amino]phenyl]prop-2-enehydroxamic acid

> <PUBCHEM_IUPAC_CAS_NAME>
3-[4-[benzenesulfonyl(methyl)amino]phenyl]-N-hydroxy-2-propenamide

> <PUBCHEM_IUPAC_NAME>
3-[4-[benzenesulfonyl(methyl)amino]phenyl]-N-hydroxyprop-2-enamide

> <PUBCHEM_IUPAC_SYSTEMATIC_NAME>
3-[4-[methyl(phenylsulfonyl)amino]phenyl]-N-oxidanyl-prop-2-enamide

> <PUBCHEM_IUPAC_TRADITIONAL_NAME>
3-[4-[besyl(methyl)amino]phenyl]prop-2-enehydroxamic acid

> <PUBCHEM_IUPAC_INCHI>
InChI=1S/C16H16N2O4S/c1-18(23(21,22)15-5-3-2-4-6-15)14-10-7-13(8-11-14)9-12-16(19)17-20/h2-12,20H,1H3,(H,17,19)

> <PUBCHEM_IUPAC_INCHIKEY>
IAMCGWXEUBEXCF-UHFFFAOYSA-N

> <PUBCHEM_XLOGP3_AA>
1.8

> <PUBCHEM_EXACT_MASS>
332.083078

> <PUBCHEM_MOLECULAR_FORMULA>
C16H16N2O4S

> <PUBCHEM_MOLECULAR_WEIGHT>
332.37424

> <PUBCHEM_OPENEYE_CAN_SMILES>
CN(C1=CC=C(C=C1)C=CC(=O)NO)S(=O)(=O)C2=CC=CC=C2

> <PUBCHEM_OPENEYE_ISO_SMILES>
CN(C1=CC=C(C=C1)C=CC(=O)NO)S(=O)(=O)C2=CC=CC=C2

> <PUBCHEM_CACTVS_TPSA>
95.1

> <PUBCHEM_MONOISOTOPIC_WEIGHT>
332.083078

> <PUBCHEM_TOTAL_CHARGE>
0

> <PUBCHEM_HEAVY_ATOM_COUNT>
23

> <PUBCHEM_ATOM_DEF_STEREO_COUNT>
0

> <PUBCHEM_ATOM_UDEF_STEREO_COUNT>
0

> <PUBCHEM_BOND_DEF_STEREO_COUNT>
0

> <PUBCHEM_BOND_UDEF_STEREO_COUNT>
1

> <PUBCHEM_ISOTOPIC_ATOM_COUNT>
0

> <PUBCHEM_COMPONENT_COUNT>
1

> <PUBCHEM_CACTVS_TAUTO_COUNT>
3

> <PUBCHEM_COORDINATE_TYPE>
1
5
255

> <PUBCHEM_BONDANNOTATIONS>
11  16  8
12  17  8
13  18  8
14  19  8
15  16  8
15  17  8
18  20  8
19  20  8
21  22  1
8  11  8
8  12  8
9  13  8
9  14  8

$$$$

