17396024
  -OEChem-06241222532D

 46 49  0     0  0  0  0  0  0999 V2000
    4.2788    1.7374    0.0000 O   0  0  0  0  0  0  0  0  0  0  0  0
    6.3479   -1.1105    0.0000 O   0  0  0  0  0  0  0  0  0  0  0  0
    8.3840   -1.7374    0.0000 O   0  0  0  0  0  0  0  0  0  0  0  0
    5.5388    0.4773    0.0000 N   0  0  0  0  0  0  0  0  0  0  0  0
    8.0704    1.2462    0.0000 N   0  0  0  0  0  0  0  0  0  0  0  0
    9.0885   -0.1551    0.0000 N   0  0  0  0  0  0  0  0  0  0  0  0
    4.0000   -0.0227    0.0000 C   0  0  0  0  0  0  0  0  0  0  0  0
    3.5000   -0.8887    0.0000 C   0  0  0  0  0  0  0  0  0  0  0  0
    3.5000    0.8434    0.0000 C   0  0  0  0  0  0  0  0  0  0  0  0
    4.5878   -0.8317    0.0000 C   0  0  0  0  0  0  0  0  0  0  0  0
    2.5000    0.8434    0.0000 C   0  0  0  0  0  0  0  0  0  0  0  0
    2.5000   -0.8887    0.0000 C   0  0  0  0  0  0  0  0  0  0  0  0
    2.0000   -0.0227    0.0000 C   0  0  0  0  0  0  0  0  0  0  0  0
    4.5878    0.7863    0.0000 C   0  0  0  0  0  0  0  0  0  0  0  0
    5.5388   -0.5227    0.0000 C   0  0  0  0  0  0  0  0  0  0  0  0
    6.3479    1.0651    0.0000 C   0  0  0  0  0  0  0  0  0  0  0  0
    7.2614    0.6584    0.0000 C   0  0  0  0  0  0  0  0  0  0  0  0
    7.3659   -0.3361    0.0000 C   0  0  0  0  0  0  0  0  0  0  0  0
    8.9840    0.8394    0.0000 C   0  0  0  0  0  0  0  0  0  0  0  0
    8.2795   -0.7429    0.0000 C   0  0  0  0  0  0  0  0  0  0  0  0
    9.8171    1.4646    0.0000 C   0  0  0  0  0  0  0  0  0  0  0  0
   10.0334   -0.5934    0.0000 C   0  0  0  0  0  0  0  0  0  0  0  0
   10.7719    1.0483    0.0000 C   0  0  0  0  0  0  0  0  0  0  0  0
   10.8808    0.0124    0.0000 C   0  0  0  0  0  0  0  0  0  0  0  0
   11.5787    1.6392    0.0000 C   0  0  0  0  0  0  0  0  0  0  0  0
    4.0826    1.0554    0.0000 H   0  0  0  0  0  0  0  0  0  0  0  0
    3.3923    1.4539    0.0000 H   0  0  0  0  0  0  0  0  0  0  0  0
    3.3923   -1.4993    0.0000 H   0  0  0  0  0  0  0  0  0  0  0  0
    4.0826   -1.1007    0.0000 H   0  0  0  0  0  0  0  0  0  0  0  0
    4.0508   -1.1417    0.0000 H   0  0  0  0  0  0  0  0  0  0  0  0
    4.8400   -1.3981    0.0000 H   0  0  0  0  0  0  0  0  0  0  0  0
    2.6077    1.4539    0.0000 H   0  0  0  0  0  0  0  0  0  0  0  0
    1.9174    1.0554    0.0000 H   0  0  0  0  0  0  0  0  0  0  0  0
    1.9174   -1.1007    0.0000 H   0  0  0  0  0  0  0  0  0  0  0  0
    2.6077   -1.4993    0.0000 H   0  0  0  0  0  0  0  0  0  0  0  0
    1.5250    0.3759    0.0000 H   0  0  0  0  0  0  0  0  0  0  0  0
    1.5250   -0.4212    0.0000 H   0  0  0  0  0  0  0  0  0  0  0  0
    6.6946    1.5791    0.0000 H   0  0  0  0  0  0  0  0  0  0  0  0
    5.9019    1.4958    0.0000 H   0  0  0  0  0  0  0  0  0  0  0  0
    6.8643   -0.7006    0.0000 H   0  0  0  0  0  0  0  0  0  0  0  0
    9.7452    2.0804    0.0000 H   0  0  0  0  0  0  0  0  0  0  0  0
   10.0911   -1.2107    0.0000 H   0  0  0  0  0  0  0  0  0  0  0  0
   11.4462   -0.2420    0.0000 H   0  0  0  0  0  0  0  0  0  0  0  0
   11.9450    1.1390    0.0000 H   0  0  0  0  0  0  0  0  0  0  0  0
   12.0789    2.0055    0.0000 H   0  0  0  0  0  0  0  0  0  0  0  0
   11.2123    2.1394    0.0000 H   0  0  0  0  0  0  0  0  0  0  0  0
  1 14  2  0  0  0  0
  2 15  2  0  0  0  0
  3 20  2  0  0  0  0
  4 14  1  0  0  0  0
  4 15  1  0  0  0  0
  4 16  1  0  0  0  0
  5 17  1  0  0  0  0
  5 19  2  0  0  0  0
  6 19  1  0  0  0  0
  6 20  1  0  0  0  0
  6 22  1  0  0  0  0
  7  8  1  0  0  0  0
  7  9  1  0  0  0  0
  7 10  1  0  0  0  0
  7 14  1  0  0  0  0
  8 12  1  0  0  0  0
  8 28  1  0  0  0  0
  8 29  1  0  0  0  0
  9 11  1  0  0  0  0
  9 26  1  0  0  0  0
  9 27  1  0  0  0  0
 10 15  1  0  0  0  0
 10 30  1  0  0  0  0
 10 31  1  0  0  0  0
 11 13  1  0  0  0  0
 11 32  1  0  0  0  0
 11 33  1  0  0  0  0
 12 13  1  0  0  0  0
 12 34  1  0  0  0  0
 12 35  1  0  0  0  0
 13 36  1  0  0  0  0
 13 37  1  0  0  0  0
 16 17  1  0  0  0  0
 16 38  1  0  0  0  0
 16 39  1  0  0  0  0
 17 18  2  0  0  0  0
 18 20  1  0  0  0  0
 18 40  1  0  0  0  0
 19 21  1  0  0  0  0
 21 23  2  0  0  0  0
 21 41  1  0  0  0  0
 22 24  2  0  0  0  0
 22 42  1  0  0  0  0
 23 24  1  0  0  0  0
 23 25  1  0  0  0  0
 24 43  1  0  0  0  0
 25 44  1  0  0  0  0
 25 45  1  0  0  0  0
 25 46  1  0  0  0  0
M  END
> <PUBCHEM_COMPOUND_CID>
17396024

> <PUBCHEM_COMPOUND_CANONICALIZED>
1

> <PUBCHEM_CACTVS_COMPLEXITY>
782

> <PUBCHEM_CACTVS_HBOND_ACCEPTOR>
4

> <PUBCHEM_CACTVS_HBOND_DONOR>
0

> <PUBCHEM_CACTVS_ROTATABLE_BOND>
2

> <PUBCHEM_CACTVS_SUBSKEYS>
AAADceB7MAAAAAAAAAAAAAAAAAAAAWAAAAAwQIAAAAAAAACAAAAAHgAAAAAADgjBgAQDAAMAAACoAid2dACAAAEgAgAJCAEYAFgIQBIAiQAUAAAABiCAgUEdiMCPAAAAAAAAAAAAAAAAAAAAAAAAAAAAAA==

> <PUBCHEM_IUPAC_OPENEYE_NAME>
2-[(8-methyl-4-oxo-pyrido[1,2-a]pyrimidin-2-yl)methyl]-2-azaspiro[4.5]decane-1,3-dione

> <PUBCHEM_IUPAC_CAS_NAME>
2-[(8-methyl-4-oxo-2-pyrido[1,2-a]pyrimidinyl)methyl]-2-azaspiro[4.5]decane-1,3-dione

> <PUBCHEM_IUPAC_NAME>
2-[(8-methyl-4-oxopyrido[1,2-a]pyrimidin-2-yl)methyl]-2-azaspiro[4.5]decane-1,3-dione

> <PUBCHEM_IUPAC_SYSTEMATIC_NAME>
2-[(8-methyl-4-oxidanylidene-pyrido[1,2-a]pyrimidin-2-yl)methyl]-2-azaspiro[4.5]decane-1,3-dione

> <PUBCHEM_IUPAC_TRADITIONAL_NAME>
2-[(4-keto-8-methyl-pyrido[1,2-a]pyrimidin-2-yl)methyl]-2-azaspiro[4.5]decane-1,3-quinone

> <PUBCHEM_IUPAC_INCHI>
InChI=1S/C19H21N3O3/c1-13-5-8-21-15(9-13)20-14(10-16(21)23)12-22-17(24)11-19(18(22)25)6-3-2-4-7-19/h5,8-10H,2-4,6-7,11-12H2,1H3

> <PUBCHEM_IUPAC_INCHIKEY>
AQZQTOAWYYGTIP-UHFFFAOYSA-N

> <PUBCHEM_XLOGP3_AA>
0.7

> <PUBCHEM_EXACT_MASS>
339.158292

> <PUBCHEM_MOLECULAR_FORMULA>
C19H21N3O3

> <PUBCHEM_MOLECULAR_WEIGHT>
339.38834

> <PUBCHEM_OPENEYE_CAN_SMILES>
CC1=CC2=NC(=CC(=O)N2C=C1)CN3C(=O)CC4(C3=O)CCCCC4

> <PUBCHEM_OPENEYE_ISO_SMILES>
CC1=CC2=NC(=CC(=O)N2C=C1)CN3C(=O)CC4(C3=O)CCCCC4

> <PUBCHEM_CACTVS_TPSA>
70

> <PUBCHEM_MONOISOTOPIC_WEIGHT>
339.158292

> <PUBCHEM_TOTAL_CHARGE>
0

> <PUBCHEM_HEAVY_ATOM_COUNT>
25

> <PUBCHEM_ATOM_DEF_STEREO_COUNT>
0

> <PUBCHEM_ATOM_UDEF_STEREO_COUNT>
0

> <PUBCHEM_BOND_DEF_STEREO_COUNT>
0

> <PUBCHEM_BOND_UDEF_STEREO_COUNT>
0

> <PUBCHEM_ISOTOPIC_ATOM_COUNT>
0

> <PUBCHEM_COMPONENT_COUNT>
1

> <PUBCHEM_CACTVS_TAUTO_COUNT>
2

> <PUBCHEM_COORDINATE_TYPE>
1
5
255

> <PUBCHEM_BONDANNOTATIONS>
17  18  8
18  20  8
19  21  8
21  23  8
22  24  8
23  24  8
5  17  8
5  19  8
6  19  8
6  20  8
6  22  8

$$$$

