17395620
  -OEChem-06241222513D

 53 56  0     0  0  0  0  0  0999 V2000
    1.1013   -0.8189    2.2228 O   0  0  0  0  0  0  0  0  0  0  0  0
   -3.6674   -0.3589   -0.0921 N   0  0  0  0  0  0  0  0  0  0  0  0
    0.3691   -2.0631    0.3841 N   0  0  0  0  0  0  0  0  0  0  0  0
   -3.7811   -1.2485   -1.0929 N   0  0  0  0  0  0  0  0  0  0  0  0
    5.5133    0.7205   -0.1240 N   0  0  0  0  0  0  0  0  0  0  0  0
   -2.0710   -1.7915    0.3205 C   0  0  0  0  0  0  0  0  0  0  0  0
   -0.9085   -2.5306    0.9176 C   0  0  0  0  0  0  0  0  0  0  0  0
   -2.6581   -0.6386    0.7818 C   0  0  0  0  0  0  0  0  0  0  0  0
   -2.8033   -2.1212   -0.8356 C   0  0  0  0  0  0  0  0  0  0  0  0
   -2.3459    0.2009    1.9564 C   0  0  0  0  0  0  0  0  0  0  0  0
   -4.5430    0.7252   -0.0262 C   0  0  0  0  0  0  0  0  0  0  0  0
    1.1115   -1.0420    1.0050 C   0  0  0  0  0  0  0  0  0  0  0  0
   -2.6039   -3.2720   -1.7340 C   0  0  0  0  0  0  0  0  0  0  0  0
    0.8239   -2.7227   -0.8318 C   0  0  0  0  0  0  0  0  0  0  0  0
    1.9627   -0.1933    0.1860 C   0  0  0  0  0  0  0  0  0  0  0  0
    3.3362   -0.1444    0.4246 C   0  0  0  0  0  0  0  0  0  0  0  0
    4.1520    0.6694   -0.3617 C   0  0  0  0  0  0  0  0  0  0  0  0
   -4.1220    1.9282    0.5408 C   0  0  0  0  0  0  0  0  0  0  0  0
   -5.8382    0.6076   -0.5305 C   0  0  0  0  0  0  0  0  0  0  0  0
    1.4051    0.5712   -0.8388 C   0  0  0  0  0  0  0  0  0  0  0  0
    3.5943    1.4339   -1.3864 C   0  0  0  0  0  0  0  0  0  0  0  0
    2.2208    1.3848   -1.6249 C   0  0  0  0  0  0  0  0  0  0  0  0
   -4.9961    3.0133    0.6038 C   0  0  0  0  0  0  0  0  0  0  0  0
   -6.7124    1.6929   -0.4676 C   0  0  0  0  0  0  0  0  0  0  0  0
   -6.2912    2.8957    0.0995 C   0  0  0  0  0  0  0  0  0  0  0  0
    6.4101    1.4821   -0.8269 C   0  0  0  0  0  0  0  0  0  0  0  0
    6.1720    0.0193    0.8521 C   0  0  0  0  0  0  0  0  0  0  0  0
    7.6603    1.2629   -0.2920 C   0  0  0  0  0  0  0  0  0  0  0  0
    7.5096    0.3377    0.7704 C   0  0  0  0  0  0  0  0  0  0  0  0
   -0.9049   -2.3808    2.0031 H   0  0  0  0  0  0  0  0  0  0  0  0
   -0.9977   -3.6106    0.7590 H   0  0  0  0  0  0  0  0  0  0  0  0
   -1.8200   -0.4019    2.7069 H   0  0  0  0  0  0  0  0  0  0  0  0
   -3.2298    0.5699    2.4837 H   0  0  0  0  0  0  0  0  0  0  0  0
   -1.6558    1.0116    1.7051 H   0  0  0  0  0  0  0  0  0  0  0  0
   -2.1450   -4.1194   -1.2166 H   0  0  0  0  0  0  0  0  0  0  0  0
   -1.9601   -2.9937   -2.5742 H   0  0  0  0  0  0  0  0  0  0  0  0
   -3.5581   -3.6216   -2.1433 H   0  0  0  0  0  0  0  0  0  0  0  0
    0.2436   -2.3481   -1.6785 H   0  0  0  0  0  0  0  0  0  0  0  0
    1.8836   -2.5274   -1.0152 H   0  0  0  0  0  0  0  0  0  0  0  0
    0.6893   -3.8041   -0.7375 H   0  0  0  0  0  0  0  0  0  0  0  0
    3.7173   -0.7616    1.2311 H   0  0  0  0  0  0  0  0  0  0  0  0
   -3.1035    2.1394    0.8346 H   0  0  0  0  0  0  0  0  0  0  0  0
   -6.1999   -0.3190   -0.9695 H   0  0  0  0  0  0  0  0  0  0  0  0
    0.3358    0.5465   -1.0333 H   0  0  0  0  0  0  0  0  0  0  0  0
    4.1685    2.0868   -2.0339 H   0  0  0  0  0  0  0  0  0  0  0  0
    1.7853    1.9806   -2.4218 H   0  0  0  0  0  0  0  0  0  0  0  0
   -4.6606    3.9594    1.0190 H   0  0  0  0  0  0  0  0  0  0  0  0
   -7.7213    1.6015   -0.8593 H   0  0  0  0  0  0  0  0  0  0  0  0
   -6.9697    3.7425    0.1428 H   0  0  0  0  0  0  0  0  0  0  0  0
    6.1447    2.1285   -1.6506 H   0  0  0  0  0  0  0  0  0  0  0  0
    5.6927   -0.6556    1.5459 H   0  0  0  0  0  0  0  0  0  0  0  0
    8.5794    1.7202   -0.6305 H   0  0  0  0  0  0  0  0  0  0  0  0
    8.2904   -0.0542    1.4070 H   0  0  0  0  0  0  0  0  0  0  0  0
  1 12  2  0  0  0  0
  2  4  1  0  0  0  0
  2  8  1  0  0  0  0
  2 11  1  0  0  0  0
  3  7  1  0  0  0  0
  3 12  1  0  0  0  0
  3 14  1  0  0  0  0
  4  9  2  0  0  0  0
  5 17  1  0  0  0  0
  5 26  1  0  0  0  0
  5 27  1  0  0  0  0
  6  7  1  0  0  0  0
  6  8  2  0  0  0  0
  6  9  1  0  0  0  0
  7 30  1  0  0  0  0
  7 31  1  0  0  0  0
  8 10  1  0  0  0  0
  9 13  1  0  0  0  0
 10 32  1  0  0  0  0
 10 33  1  0  0  0  0
 10 34  1  0  0  0  0
 11 18  2  0  0  0  0
 11 19  1  0  0  0  0
 12 15  1  0  0  0  0
 13 35  1  0  0  0  0
 13 36  1  0  0  0  0
 13 37  1  0  0  0  0
 14 38  1  0  0  0  0
 14 39  1  0  0  0  0
 14 40  1  0  0  0  0
 15 16  2  0  0  0  0
 15 20  1  0  0  0  0
 16 17  1  0  0  0  0
 16 41  1  0  0  0  0
 17 21  2  0  0  0  0
 18 23  1  0  0  0  0
 18 42  1  0  0  0  0
 19 24  2  0  0  0  0
 19 43  1  0  0  0  0
 20 22  2  0  0  0  0
 20 44  1  0  0  0  0
 21 22  1  0  0  0  0
 21 45  1  0  0  0  0
 22 46  1  0  0  0  0
 23 25  2  0  0  0  0
 23 47  1  0  0  0  0
 24 25  1  0  0  0  0
 24 48  1  0  0  0  0
 25 49  1  0  0  0  0
 26 28  2  0  0  0  0
 26 50  1  0  0  0  0
 27 29  2  0  0  0  0
 27 51  1  0  0  0  0
 28 29  1  0  0  0  0
 28 52  1  0  0  0  0
 29 53  1  0  0  0  0
M  END
> <PUBCHEM_COMPOUND_CID>
17395620

> <PUBCHEM_CONFORMER_RMSD>
0.8

> <PUBCHEM_CONFORMER_DIVERSEORDER>
65
138
276
32
106
136
94
310
87
47
251
287
198
171
30
82
153
305
43
274
187
91
238
60
253
216
74
272
219
229
262
150
225
56
311
269
304
127
256
240
298
16
202
38
115
188
168
207
302
99
174
83
263
21
224
284
275
293
110
25
5
231
34
270
146
158
133
80
36
123
15
149
292
252
291
93
76
28
170
193
40
63
89
42
191
220
239
31
300
167
180
177
12
98
113
286
175
116
17
109
296
119
124
185
84
183
222
129
279
164
221
179
218
258
159
55
178
156
206
140
280
194
271
196
35
176
257
189
265
278
241
4
58
186
92
132
33
90
192
223
135
130
139
213
169
26
137
307
248
152
215
22
190
295
308
200
173
282
309
77
101
78
104
114
235
233
102
245
264
289
281
122
242
20
50
155
244
51
134
71
205
210
228
301
59
294
255
11
41
24
268
86
160
103
227
121
212
141
236
203
18
154
107
277
246
247
52
126
290
131
165
147
237
39
162
118
100
195
128
145
283
266
53
29
8
214
297
250
96
111
226
117
232
249
27
97
217
234
14
254
260
3
81
148
306
259
157
120
166
273
163
161
69
67
46
184
37
142
72
70
112
199
204
197
267
23
7
143
144
172
285
182
13
125
9
85
95
68
303
66
108
181
1
45
243
79
6
208
209
261
88
230
62
44
201
288
2
10
64
211
312
54
48
57
151
299
19
105
75
73
49
61

> <PUBCHEM_MMFF94_PARTIAL_CHARGES>
42
1 -0.57
10 0.18
11 -0.02
12 0.54
13 0.18
14 0.3
15 0.09
16 -0.15
17 -0.02
18 -0.15
19 -0.15
2 0.59
20 -0.15
21 -0.15
22 -0.15
23 -0.15
24 -0.15
25 -0.15
26 -0.3
27 -0.3
28 -0.15
29 -0.15
3 -0.66
4 -0.71
41 0.15
42 0.15
43 0.15
44 0.15
45 0.15
46 0.15
47 0.15
48 0.15
49 0.15
5 0.33
50 0.15
51 0.15
52 0.15
53 0.15
6 -0.18
7 0.48
8 -0.33
9 0.11

> <PUBCHEM_EFFECTIVE_ROTOR_COUNT>
6

> <PUBCHEM_PHARMACOPHORE_FEATURES>
7
1 1 acceptor
1 4 acceptor
1 5 cation
5 2 4 6 8 9 rings
5 5 26 27 28 29 rings
6 11 18 19 23 24 25 rings
6 15 16 17 20 21 22 rings

> <PUBCHEM_HEAVY_ATOM_COUNT>
29

> <PUBCHEM_ATOM_DEF_STEREO_COUNT>
0

> <PUBCHEM_ATOM_UDEF_STEREO_COUNT>
0

> <PUBCHEM_BOND_DEF_STEREO_COUNT>
0

> <PUBCHEM_BOND_UDEF_STEREO_COUNT>
0

> <PUBCHEM_ISOTOPIC_ATOM_COUNT>
0

> <PUBCHEM_COMPONENT_COUNT>
1

> <PUBCHEM_CACTVS_TAUTO_COUNT>
1

> <PUBCHEM_CONFORMER_ID>
01096FA400000041

> <PUBCHEM_MMFF94_ENERGY>
94.9257

> <PUBCHEM_FEATURE_SELFOVERLAP>
35.52

> <PUBCHEM_SHAPE_FINGERPRINT>
10670039 82 18335430049759360837
10906281 52 17703216331756464094
11135609 201 18042671966761772825
11475781 23 18187639220314080732
12107183 9 18059859450553158792
12236239 1 18272935990548259410
12633257 1 15482377682581381221
12838862 33 18270415965722065389
12895836 83 18334579062172064953
12895837 130 18339919325127967469
13177829 73 18413106156451854140
1361 4 9511198339138839792
13947920 75 18334021588048939973
14257110 125 18413108377308681201
14294032 229 18259983752595983539
14394314 77 18339921632169782425
15064981 113 17458617986603007676
15183329 4 17846507981122588926
15276724 80 17704078357389041308
15297060 5 18113334232924541067
15324884 4 16300666048648148459
15350500 55 17417257662349677957
15439362 3 18263922305471551646
15475509 8 18202274832634285174
18608769 82 18335979771541012915
19302320 297 18130776863264922868
19489759 90 17749664096306752002
20505436 4 18342463659929012987
20511986 3 18343312473740389984
20775530 9 8357966716101133629
21033648 144 17917717941789601215
21298829 104 18412544335874689852
21315759 148 12391525187111446488
21756936 100 18272088271320507747
21774942 28 17968372472024234544
23522609 53 17560220437738047844
23559900 14 17241049808280008618
2838139 119 18341050731098253408
3610482 184 18129365026299758820
3633792 109 18114456873194324938
397830 11 11671774928377683510
445580 204 18409450293248396669
4516262 110 18131080350270031783
474 4 18130223869857108859
5104073 3 17202485486171639896
5372103 7 17773333425295289821
5385378 56 17917433176498813434
563151 74 17203043088378828537
6299153 45 18270965751710747426
6327066 14 18337956791925955885
6328613 192 18129940067034971908
7226269 152 18335415755924025320
7288768 16 17989483035501081891
7808743 9 18409451397281676227
9981440 41 18412255125931268763

> <PUBCHEM_SHAPE_MULTIPOLES>
571.01
18.87
3.22
1.47
16.94
1.07
-0.16
-16.4
0.8
-5.05
0.75
0.15
0.38
-1.77

> <PUBCHEM_SHAPE_SELFOVERLAP>
1252.531

> <PUBCHEM_SHAPE_VOLUME>
312

> <PUBCHEM_COORDINATE_TYPE>
2
5
10

$$$$

