5320294
  -OEChem-07051212513D

 27 27  0     1  0  0  0  0  0999 V2000
   -1.8237    1.0263    0.6958 O   0  0  0  0  0  0  0  0  0  0  0  0
   -0.3987   -0.7711   -2.1194 O   0  0  0  0  0  0  0  0  0  0  0  0
    1.2300    1.4411   -1.2735 O   0  0  0  0  0  0  0  0  0  0  0  0
   -0.9665   -1.7046    1.3669 O   0  0  0  0  0  0  0  0  0  0  0  0
    2.4391    0.9847    1.2012 O   0  0  0  0  0  0  0  0  0  0  0  0
    2.0486   -1.1528   -0.5924 O   0  0  0  0  0  0  0  0  0  0  0  0
   -0.9652    0.8480   -0.4282 C   0  0  0  0  0  0  0  0  0  0  0  0
   -0.9662   -0.6412   -0.8183 C   0  0  2  0  0  0  0  0  0  0  0  0
    0.4374    1.3768   -0.0902 C   0  0  1  0  0  0  0  0  0  0  0  0
   -0.2000   -1.5351    0.1766 C   0  0  1  0  0  0  0  0  0  0  0  0
    1.1262    0.4877    0.9532 C   0  0  1  0  0  0  0  0  0  0  0  0
    1.1894   -0.9884    0.5340 C   0  0  0  0  0  0  0  0  0  0  0  0
   -3.1504    0.6284    0.3944 C   0  0  0  0  0  0  0  0  0  0  0  0
   -1.3494    1.4401   -1.2704 H   0  0  0  0  0  0  0  0  0  0  0  0
   -1.9821   -1.0308   -0.9179 H   0  0  0  0  0  0  0  0  0  0  0  0
    0.3748    2.3963    0.3089 H   0  0  0  0  0  0  0  0  0  0  0  0
   -0.0683   -2.5291   -0.2696 H   0  0  0  0  0  0  0  0  0  0  0  0
    0.5776    0.5615    1.8996 H   0  0  0  0  0  0  0  0  0  0  0  0
    1.6296   -1.5694    1.3524 H   0  0  0  0  0  0  0  0  0  0  0  0
   -0.4284   -1.7119   -2.3633 H   0  0  0  0  0  0  0  0  0  0  0  0
    0.7769    2.0320   -1.8988 H   0  0  0  0  0  0  0  0  0  0  0  0
   -1.7932   -2.1531    1.1207 H   0  0  0  0  0  0  0  0  0  0  0  0
    2.9395    0.9164    0.3700 H   0  0  0  0  0  0  0  0  0  0  0  0
    1.6823   -0.6437   -1.3346 H   0  0  0  0  0  0  0  0  0  0  0  0
   -3.3015   -0.4365    0.5886 H   0  0  0  0  0  0  0  0  0  0  0  0
   -3.4499    0.8912   -0.6257 H   0  0  0  0  0  0  0  0  0  0  0  0
   -3.8152    1.1645    1.0794 H   0  0  0  0  0  0  0  0  0  0  0  0
  1  7  1  0  0  0  0
  1 13  1  0  0  0  0
  2  8  1  0  0  0  0
  2 20  1  0  0  0  0
  3  9  1  0  0  0  0
  3 21  1  0  0  0  0
  4 10  1  0  0  0  0
  4 22  1  0  0  0  0
  5 11  1  0  0  0  0
  5 23  1  0  0  0  0
  6 12  1  0  0  0  0
  6 24  1  0  0  0  0
  7  8  1  0  0  0  0
  7  9  1  0  0  0  0
  7 14  1  0  0  0  0
  8 10  1  0  0  0  0
  8 15  1  0  0  0  0
  9 11  1  0  0  0  0
  9 16  1  0  0  0  0
 10 12  1  0  0  0  0
 10 17  1  0  0  0  0
 11 12  1  0  0  0  0
 11 18  1  0  0  0  0
 12 19  1  0  0  0  0
 13 25  1  0  0  0  0
 13 26  1  0  0  0  0
 13 27  1  0  0  0  0
M  END
> <PUBCHEM_COMPOUND_CID>
5320294

> <PUBCHEM_CONFORMER_RMSD>
0.6

> <PUBCHEM_CONFORMER_DIVERSEORDER>
1
2
3

> <PUBCHEM_MMFF94_PARTIAL_CHARGES>
18
1 -0.56
10 0.28
11 0.28
12 0.28
13 0.28
2 -0.68
20 0.4
21 0.4
22 0.4
23 0.4
24 0.4
3 -0.68
4 -0.68
5 -0.68
6 -0.68
7 0.28
8 0.28
9 0.28

> <PUBCHEM_EFFECTIVE_ROTOR_COUNT>
2.2

> <PUBCHEM_PHARMACOPHORE_FEATURES>
12
1 1 acceptor
1 2 acceptor
1 2 donor
1 3 acceptor
1 3 donor
1 4 acceptor
1 4 donor
1 5 acceptor
1 5 donor
1 6 acceptor
1 6 donor
6 7 8 9 10 11 12 rings

> <PUBCHEM_HEAVY_ATOM_COUNT>
13

> <PUBCHEM_ATOM_DEF_STEREO_COUNT>
4

> <PUBCHEM_ATOM_UDEF_STEREO_COUNT>
0

> <PUBCHEM_BOND_DEF_STEREO_COUNT>
0

> <PUBCHEM_BOND_UDEF_STEREO_COUNT>
0

> <PUBCHEM_ISOTOPIC_ATOM_COUNT>
0

> <PUBCHEM_COMPONENT_COUNT>
1

> <PUBCHEM_CACTVS_TAUTO_COUNT>
1

> <PUBCHEM_CONFORMER_ID>
00512E6600000001

> <PUBCHEM_MMFF94_ENERGY>
44.4021

> <PUBCHEM_FEATURE_SELFOVERLAP>
60.927

> <PUBCHEM_SHAPE_FINGERPRINT>
10702982 57 17913746358964640277
11680611 10 17488459668161783451
12423570 1 10507808584081683986
12491281 212 17822021886350403033
13024252 1 13827643554782047912
137420 1 8016775544350294935
14817 1 6542818497236884470
15557651 10 17976825603127316414
15775835 57 17967818245191115161
16945 1 17972048194976594011
20511035 2 18334286565591899855
21040471 1 18410571751863597769
22344851 12 11661982415247488526
23235685 24 18342185440083273016
23419403 2 16606518408952283398
241688 4 18122654839589050090
2748010 2 17983875637277547916
5084963 1 18337385058358121665
528862 383 17846210038323439124
528886 8 18272355469793881436
54276843 12 18192142913586634572

> <PUBCHEM_SHAPE_MULTIPOLES>
232.32
2.89
1.75
1.42
1.17
0.22
-0.45
-0.75
0.8
-0.25
0.1
-0.1
0.18
0.06

> <PUBCHEM_SHAPE_SELFOVERLAP>
467.076

> <PUBCHEM_SHAPE_VOLUME>
135.4

> <PUBCHEM_COORDINATE_TYPE>
2
5
10

$$$$

