98046
  -OEChem-07051213042D

 30 30  0     1  0  0  0  0  0999 V2000
    2.8660   -2.5600    0.0000 O   0  0  0  0  0  0  0  0  0  0  0  0
    4.5981    3.4400    0.0000 O   0  0  0  0  0  0  0  0  0  0  0  0
    4.5981    1.4400    0.0000 O   0  0  0  0  0  0  0  0  0  0  0  0
    2.8660    1.4400    0.0000 N   0  0  0  0  0  0  0  0  0  0  0  0
    2.8660    0.4400    0.0000 C   0  0  0  0  0  0  0  0  0  0  0  0
    3.7320    2.9400    0.0000 C   0  0  3  0  0  0  0  0  0  0  0  0
    3.7320    1.9400    0.0000 C   0  0  0  0  0  0  0  0  0  0  0  0
    2.8660   -1.5600    0.0000 C   0  0  0  0  0  0  0  0  0  0  0  0
    2.0000   -0.0600    0.0000 C   0  0  0  0  0  0  0  0  0  0  0  0
    3.7320   -0.0600    0.0000 C   0  0  0  0  0  0  0  0  0  0  0  0
    2.0000   -1.0600    0.0000 C   0  0  0  0  0  0  0  0  0  0  0  0
    3.7320   -1.0600    0.0000 C   0  0  0  0  0  0  0  0  0  0  0  0
    2.8660    3.4400    0.0000 C   0  0  0  0  0  0  0  0  0  0  0  0
    2.0000   -3.0600    0.0000 C   0  0  0  0  0  0  0  0  0  0  0  0
    2.0000   -4.0600    0.0000 C   0  0  0  0  0  0  0  0  0  0  0  0
    3.7320    3.5600    0.0000 H   0  0  0  0  0  0  0  0  0  0  0  0
    2.3291    1.7500    0.0000 H   0  0  0  0  0  0  0  0  0  0  0  0
    1.4631    0.2500    0.0000 H   0  0  0  0  0  0  0  0  0  0  0  0
    4.2690    0.2500    0.0000 H   0  0  0  0  0  0  0  0  0  0  0  0
    1.4631   -1.3700    0.0000 H   0  0  0  0  0  0  0  0  0  0  0  0
    4.2690   -1.3700    0.0000 H   0  0  0  0  0  0  0  0  0  0  0  0
    3.1760    3.9769    0.0000 H   0  0  0  0  0  0  0  0  0  0  0  0
    2.3291    3.7500    0.0000 H   0  0  0  0  0  0  0  0  0  0  0  0
    2.5560    2.9031    0.0000 H   0  0  0  0  0  0  0  0  0  0  0  0
    1.7880   -2.4774    0.0000 H   0  0  0  0  0  0  0  0  0  0  0  0
    1.3894   -3.1677    0.0000 H   0  0  0  0  0  0  0  0  0  0  0  0
    1.3800   -4.0600    0.0000 H   0  0  0  0  0  0  0  0  0  0  0  0
    2.0000   -4.6800    0.0000 H   0  0  0  0  0  0  0  0  0  0  0  0
    2.6200   -4.0600    0.0000 H   0  0  0  0  0  0  0  0  0  0  0  0
    4.5981    4.0600    0.0000 H   0  0  0  0  0  0  0  0  0  0  0  0
  1  8  1  0  0  0  0
  1 14  1  0  0  0  0
  2  6  1  0  0  0  0
  2 30  1  0  0  0  0
  3  7  2  0  0  0  0
  4  5  1  0  0  0  0
  4  7  1  0  0  0  0
  4 17  1  0  0  0  0
  5  9  2  0  0  0  0
  5 10  1  0  0  0  0
  6  7  1  0  0  0  0
  6 13  1  0  0  0  0
  6 16  1  0  0  0  0
  8 11  2  0  0  0  0
  8 12  1  0  0  0  0
  9 11  1  0  0  0  0
  9 18  1  0  0  0  0
 10 12  2  0  0  0  0
 10 19  1  0  0  0  0
 11 20  1  0  0  0  0
 12 21  1  0  0  0  0
 13 22  1  0  0  0  0
 13 23  1  0  0  0  0
 13 24  1  0  0  0  0
 14 15  1  0  0  0  0
 14 25  1  0  0  0  0
 14 26  1  0  0  0  0
 15 27  1  0  0  0  0
 15 28  1  0  0  0  0
 15 29  1  0  0  0  0
M  END
> <PUBCHEM_COMPOUND_CID>
98046

> <PUBCHEM_COMPOUND_CANONICALIZED>
1

> <PUBCHEM_CACTVS_COMPLEXITY>
200

> <PUBCHEM_CACTVS_HBOND_ACCEPTOR>
3

> <PUBCHEM_CACTVS_HBOND_DONOR>
2

> <PUBCHEM_CACTVS_ROTATABLE_BOND>
4

> <PUBCHEM_CACTVS_SUBSKEYS>
AAADccByMAAAAAAAAAAAAAAAAAAAAAAAAAAwAAAAAAAAAAABAAAAHgAQCAAACByhkAIyxoLABgCIACVSUAKCCAAhIgAIiAFGbIgONiLEsZuGOCjk1BHY6AewQAAAAEAAAAAAAAAAgAAAAAAAAAAAAAAAAA==

> <PUBCHEM_IUPAC_OPENEYE_NAME>
N-(4-ethoxyphenyl)-2-hydroxy-propanamide

> <PUBCHEM_IUPAC_CAS_NAME>
N-(4-ethoxyphenyl)-2-hydroxypropanamide

> <PUBCHEM_IUPAC_NAME>
N-(4-ethoxyphenyl)-2-hydroxypropanamide

> <PUBCHEM_IUPAC_SYSTEMATIC_NAME>
N-(4-ethoxyphenyl)-2-oxidanyl-propanamide

> <PUBCHEM_IUPAC_TRADITIONAL_NAME>
2-hydroxy-N-p-phenetyl-propionamide

> <PUBCHEM_IUPAC_INCHI>
InChI=1S/C11H15NO3/c1-3-15-10-6-4-9(5-7-10)12-11(14)8(2)13/h4-8,13H,3H2,1-2H3,(H,12,14)

> <PUBCHEM_IUPAC_INCHIKEY>
GHZNWXGYWUBLLI-UHFFFAOYSA-N

> <PUBCHEM_XLOGP3>
1.3

> <PUBCHEM_EXACT_MASS>
209.105193

> <PUBCHEM_MOLECULAR_FORMULA>
C11H15NO3

> <PUBCHEM_MOLECULAR_WEIGHT>
209.2417

> <PUBCHEM_OPENEYE_CAN_SMILES>
CCOC1=CC=C(C=C1)NC(=O)C(C)O

> <PUBCHEM_OPENEYE_ISO_SMILES>
CCOC1=CC=C(C=C1)NC(=O)C(C)O

> <PUBCHEM_CACTVS_TPSA>
58.6

> <PUBCHEM_MONOISOTOPIC_WEIGHT>
209.105193

> <PUBCHEM_TOTAL_CHARGE>
0

> <PUBCHEM_HEAVY_ATOM_COUNT>
15

> <PUBCHEM_ATOM_DEF_STEREO_COUNT>
0

> <PUBCHEM_ATOM_UDEF_STEREO_COUNT>
1

> <PUBCHEM_BOND_DEF_STEREO_COUNT>
0

> <PUBCHEM_BOND_UDEF_STEREO_COUNT>
0

> <PUBCHEM_ISOTOPIC_ATOM_COUNT>
0

> <PUBCHEM_COMPONENT_COUNT>
1

> <PUBCHEM_CACTVS_TAUTO_COUNT>
5

> <PUBCHEM_COORDINATE_TYPE>
1
5
255

> <PUBCHEM_BONDANNOTATIONS>
10  12  8
6  2  3
5  10  8
5  9  8
8  11  8
8  12  8
9  11  8

$$$$

