18689
  -OEChem-07051213053D

 50 49  0     0  0  0  0  0  0999 V2000
    2.4600    0.8992    0.0178 O   0  0  0  0  0  0  0  0  0  0  0  0
   -0.0250   -1.4676    0.0914 O   0  0  0  0  0  0  0  0  0  0  0  0
   -2.4443    0.9679    0.0059 O   0  0  0  0  0  0  0  0  0  0  0  0
    3.7153    1.0671   -1.9045 O   0  0  0  0  0  0  0  0  0  0  0  0
   -0.0365   -2.9047    1.8895 O   0  0  0  0  0  0  0  0  0  0  0  0
   -3.6660    1.1745   -1.9340 O   0  0  0  0  0  0  0  0  0  0  0  0
    0.0165    0.9870    0.1796 C   0  0  0  0  0  0  0  0  0  0  0  0
    0.0456    2.1283    1.2403 C   0  0  0  0  0  0  0  0  0  0  0  0
    1.2640    1.0389   -0.7378 C   0  0  0  0  0  0  0  0  0  0  0  0
   -0.0002   -0.3502    0.9709 C   0  0  0  0  0  0  0  0  0  0  0  0
   -1.2338    1.0734   -0.7321 C   0  0  0  0  0  0  0  0  0  0  0  0
    0.0738    3.5470    0.6848 C   0  0  0  0  0  0  0  0  0  0  0  0
    3.6256    0.9306   -0.6925 C   0  0  0  0  0  0  0  0  0  0  0  0
   -0.0414   -2.6969    0.6844 C   0  0  0  0  0  0  0  0  0  0  0  0
   -3.5980    1.0342   -0.7211 C   0  0  0  0  0  0  0  0  0  0  0  0
    4.7859    0.7721    0.2279 C   0  0  0  0  0  0  0  0  0  0  0  0
   -0.0651   -3.7622   -0.3565 C   0  0  0  0  0  0  0  0  0  0  0  0
   -4.7756    0.9112    0.1826 C   0  0  0  0  0  0  0  0  0  0  0  0
    4.6458   -0.0197    1.4919 C   0  0  0  0  0  0  0  0  0  0  0  0
    0.5761   -3.5306   -1.6904 C   0  0  0  0  0  0  0  0  0  0  0  0
   -4.6978    1.3985    1.5969 C   0  0  0  0  0  0  0  0  0  0  0  0
    5.9371    1.3620   -0.1258 C   0  0  0  0  0  0  0  0  0  0  0  0
   -0.6769   -4.9140   -0.0444 C   0  0  0  0  0  0  0  0  0  0  0  0
   -5.8850    0.3539   -0.3247 C   0  0  0  0  0  0  0  0  0  0  0  0
   -0.8321    2.0393    1.8936 H   0  0  0  0  0  0  0  0  0  0  0  0
    0.9200    2.0023    1.8919 H   0  0  0  0  0  0  0  0  0  0  0  0
    1.2934    1.9820   -1.2962 H   0  0  0  0  0  0  0  0  0  0  0  0
    1.2201    0.2252   -1.4736 H   0  0  0  0  0  0  0  0  0  0  0  0
   -0.8840   -0.3915    1.6205 H   0  0  0  0  0  0  0  0  0  0  0  0
    0.8882   -0.4226    1.6113 H   0  0  0  0  0  0  0  0  0  0  0  0
   -1.2330    2.0179   -1.2894 H   0  0  0  0  0  0  0  0  0  0  0  0
   -1.2085    0.2622   -1.4717 H   0  0  0  0  0  0  0  0  0  0  0  0
   -0.8092    3.7629    0.0775 H   0  0  0  0  0  0  0  0  0  0  0  0
    0.0841    4.2654    1.5116 H   0  0  0  0  0  0  0  0  0  0  0  0
    0.9685    3.7306    0.0840 H   0  0  0  0  0  0  0  0  0  0  0  0
    3.9662    0.4827    2.1878 H   0  0  0  0  0  0  0  0  0  0  0  0
    4.2463   -1.0156    1.2736 H   0  0  0  0  0  0  0  0  0  0  0  0
    5.6062   -0.1531    2.0012 H   0  0  0  0  0  0  0  0  0  0  0  0
    0.0358   -2.7593   -2.2487 H   0  0  0  0  0  0  0  0  0  0  0  0
    1.6134   -3.2042   -1.5613 H   0  0  0  0  0  0  0  0  0  0  0  0
    0.5890   -4.4385   -2.3028 H   0  0  0  0  0  0  0  0  0  0  0  0
   -3.9957    0.7900    2.1759 H   0  0  0  0  0  0  0  0  0  0  0  0
   -4.3586    2.4394    1.6217 H   0  0  0  0  0  0  0  0  0  0  0  0
   -5.6697    1.3558    2.0998 H   0  0  0  0  0  0  0  0  0  0  0  0
    6.8199    1.2853    0.5008 H   0  0  0  0  0  0  0  0  0  0  0  0
    6.0345    1.9390   -1.0397 H   0  0  0  0  0  0  0  0  0  0  0  0
   -0.7296   -5.7301   -0.7581 H   0  0  0  0  0  0  0  0  0  0  0  0
   -1.1448   -5.0775    0.9211 H   0  0  0  0  0  0  0  0  0  0  0  0
   -6.7775    0.2346    0.2811 H   0  0  0  0  0  0  0  0  0  0  0  0
   -5.9372   -0.0026   -1.3483 H   0  0  0  0  0  0  0  0  0  0  0  0
  1  9  1  0  0  0  0
  1 13  1  0  0  0  0
  2 10  1  0  0  0  0
  2 14  1  0  0  0  0
  3 11  1  0  0  0  0
  3 15  1  0  0  0  0
  4 13  2  0  0  0  0
  5 14  2  0  0  0  0
  6 15  2  0  0  0  0
  7  8  1  0  0  0  0
  7  9  1  0  0  0  0
  7 10  1  0  0  0  0
  7 11  1  0  0  0  0
  8 12  1  0  0  0  0
  8 25  1  0  0  0  0
  8 26  1  0  0  0  0
  9 27  1  0  0  0  0
  9 28  1  0  0  0  0
 10 29  1  0  0  0  0
 10 30  1  0  0  0  0
 11 31  1  0  0  0  0
 11 32  1  0  0  0  0
 12 33  1  0  0  0  0
 12 34  1  0  0  0  0
 12 35  1  0  0  0  0
 13 16  1  0  0  0  0
 14 17  1  0  0  0  0
 15 18  1  0  0  0  0
 16 19  1  0  0  0  0
 16 22  2  0  0  0  0
 17 20  1  0  0  0  0
 17 23  2  0  0  0  0
 18 21  1  0  0  0  0
 18 24  2  0  0  0  0
 19 36  1  0  0  0  0
 19 37  1  0  0  0  0
 19 38  1  0  0  0  0
 20 39  1  0  0  0  0
 20 40  1  0  0  0  0
 20 41  1  0  0  0  0
 21 42  1  0  0  0  0
 21 43  1  0  0  0  0
 21 44  1  0  0  0  0
 22 45  1  0  0  0  0
 22 46  1  0  0  0  0
 23 47  1  0  0  0  0
 23 48  1  0  0  0  0
 24 49  1  0  0  0  0
 24 50  1  0  0  0  0
M  END
> <PUBCHEM_COMPOUND_CID>
18689

> <PUBCHEM_CONFORMER_RMSD>
1

> <PUBCHEM_CONFORMER_DIVERSEORDER>
1
16
18
9
12
21
20
29
17
13
22
25
11
4
28
27
3
15
24
23
10
19
2
14
8
6
26
7
5

> <PUBCHEM_MMFF94_PARTIAL_CHARGES>
27
1 -0.43
10 0.28
11 0.28
13 0.71
14 0.71
15 0.71
16 -0.12
17 -0.12
18 -0.12
19 0.14
2 -0.43
20 0.14
21 0.14
22 -0.3
23 -0.3
24 -0.3
3 -0.43
4 -0.57
45 0.15
46 0.15
47 0.15
48 0.15
49 0.15
5 -0.57
50 0.15
6 -0.57
9 0.28

> <PUBCHEM_EFFECTIVE_ROTOR_COUNT>
13

> <PUBCHEM_PHARMACOPHORE_FEATURES>
4
1 12 hydrophobe
1 4 acceptor
1 5 acceptor
1 6 acceptor

> <PUBCHEM_HEAVY_ATOM_COUNT>
24

> <PUBCHEM_ATOM_DEF_STEREO_COUNT>
0

> <PUBCHEM_ATOM_UDEF_STEREO_COUNT>
0

> <PUBCHEM_BOND_DEF_STEREO_COUNT>
0

> <PUBCHEM_BOND_UDEF_STEREO_COUNT>
0

> <PUBCHEM_ISOTOPIC_ATOM_COUNT>
0

> <PUBCHEM_COMPONENT_COUNT>
1

> <PUBCHEM_CACTVS_TAUTO_COUNT>
1

> <PUBCHEM_CONFORMER_ID>
0000490100000001

> <PUBCHEM_MMFF94_ENERGY>
52.3869

> <PUBCHEM_FEATURE_SELFOVERLAP>
20.297

> <PUBCHEM_SHAPE_FINGERPRINT>
102385 1 17688875237253085464
10906281 52 18042107805169176328
11421498 54 18115023129908529057
11488393 25 18126850631932901235
11578080 2 12030137777590939663
12592029 89 17845936333179781728
12597179 24 18334849511535671806
12715332 25 18342176622478477944
12788726 201 17838323091457764390
13052359 8 18339640023320292823
13149001 5 18190184472998397872
13533116 47 18335140942947622352
13911987 19 18341321232518393461
13968360 50 18343028825974327663
14863182 85 18338519749968106163
17980427 23 12319452242765431439
20028762 73 18115025174476706327
20197701 30 18273221914768060754
20567600 347 18410007779644851671
20771845 140 17895490214379908327
21344244 181 18114167653547892830
21421861 104 17976249463551044401
21521721 280 18340200800363420385
22956985 138 17912651503066264682
23566358 27 17831847320083174321
23598288 3 17984123878314364750
283562 15 18261387914074204288
3178227 256 18339632357626453361
3250762 1 17759247288550149784
3383291 50 18264772237394015954
38695281 34 18410862100453745143
81228 2 17479465534487589785

> <PUBCHEM_SHAPE_MULTIPOLES>
458.69
10.34
4.92
1.54
0.27
8.38
0.06
-8.23
0.42
-0.54
-0.23
-0.01
0.15
-0.26

> <PUBCHEM_SHAPE_SELFOVERLAP>
902.114

> <PUBCHEM_SHAPE_VOLUME>
272.1

> <PUBCHEM_COORDINATE_TYPE>
2
5
10

$$$$

