134998
  -OEChem-07051213012D

 46 46  0     1  0  0  0  0  0999 V2000
    2.8090    2.3091    0.0000 S   0  0  0  0  0  0  0  0  0  0  0  0
    3.6180    2.8969    0.0000 C   0  0  3  0  0  0  0  0  0  0  0  0
    4.5691    2.5879    0.0000 C   0  0  0  0  0  0  0  0  0  0  0  0
    3.3090    3.8480    0.0000 C   0  0  0  0  0  0  0  0  0  0  0  0
    4.7770    1.6097    0.0000 C   0  0  0  0  0  0  0  0  0  0  0  0
    2.3090    3.8480    0.0000 C   0  0  0  0  0  0  0  0  0  0  0  0
    5.7281    1.3007    0.0000 C   0  0  0  0  0  0  0  0  0  0  0  0
    5.9360    0.3226    0.0000 C   0  0  0  0  0  0  0  0  0  0  0  0
    2.0000    2.8969    0.0000 C   0  0  0  0  0  0  0  0  0  0  0  0
    6.8870    0.0135    0.0000 C   0  0  0  0  0  0  0  0  0  0  0  0
    7.0949   -0.9646    0.0000 C   0  0  0  0  0  0  0  0  0  0  0  0
    8.0460   -1.2736    0.0000 C   0  0  0  0  0  0  0  0  0  0  0  0
    8.2539   -2.2518    0.0000 C   0  0  0  0  0  0  0  0  0  0  0  0
    9.2050   -2.5608    0.0000 C   0  0  0  0  0  0  0  0  0  0  0  0
    9.4129   -3.5389    0.0000 C   0  0  0  0  0  0  0  0  0  0  0  0
   10.3639   -3.8480    0.0000 C   0  0  0  0  0  0  0  0  0  0  0  0
    3.7510    2.0574    0.0000 H   0  0  0  0  0  0  0  0  0  0  0  0
    5.1887    2.6095    0.0000 H   0  0  0  0  0  0  0  0  0  0  0  0
    4.6554    3.2018    0.0000 H   0  0  0  0  0  0  0  0  0  0  0  0
    3.9155    3.9768    0.0000 H   0  0  0  0  0  0  0  0  0  0  0  0
    3.2442    4.4646    0.0000 H   0  0  0  0  0  0  0  0  0  0  0  0
    4.1574    1.5881    0.0000 H   0  0  0  0  0  0  0  0  0  0  0  0
    4.6907    0.9958    0.0000 H   0  0  0  0  0  0  0  0  0  0  0  0
    2.3738    4.4646    0.0000 H   0  0  0  0  0  0  0  0  0  0  0  0
    1.7026    3.9768    0.0000 H   0  0  0  0  0  0  0  0  0  0  0  0
    6.3477    1.3224    0.0000 H   0  0  0  0  0  0  0  0  0  0  0  0
    5.8144    1.9147    0.0000 H   0  0  0  0  0  0  0  0  0  0  0  0
    5.3164    0.3009    0.0000 H   0  0  0  0  0  0  0  0  0  0  0  0
    5.8497   -0.2914    0.0000 H   0  0  0  0  0  0  0  0  0  0  0  0
    1.4336    3.1491    0.0000 H   0  0  0  0  0  0  0  0  0  0  0  0
    1.6900    2.3600    0.0000 H   0  0  0  0  0  0  0  0  0  0  0  0
    7.5066    0.0352    0.0000 H   0  0  0  0  0  0  0  0  0  0  0  0
    6.9733    0.6275    0.0000 H   0  0  0  0  0  0  0  0  0  0  0  0
    6.4753   -0.9862    0.0000 H   0  0  0  0  0  0  0  0  0  0  0  0
    7.0086   -1.5786    0.0000 H   0  0  0  0  0  0  0  0  0  0  0  0
    8.6656   -1.2520    0.0000 H   0  0  0  0  0  0  0  0  0  0  0  0
    8.1323   -0.6597    0.0000 H   0  0  0  0  0  0  0  0  0  0  0  0
    7.6343   -2.2734    0.0000 H   0  0  0  0  0  0  0  0  0  0  0  0
    8.1676   -2.8657    0.0000 H   0  0  0  0  0  0  0  0  0  0  0  0
    9.8246   -2.5391    0.0000 H   0  0  0  0  0  0  0  0  0  0  0  0
    9.2912   -1.9468    0.0000 H   0  0  0  0  0  0  0  0  0  0  0  0
    8.7932   -3.5606    0.0000 H   0  0  0  0  0  0  0  0  0  0  0  0
    9.3266   -4.1529    0.0000 H   0  0  0  0  0  0  0  0  0  0  0  0
   10.1723   -4.4376    0.0000 H   0  0  0  0  0  0  0  0  0  0  0  0
   10.9536   -4.0395    0.0000 H   0  0  0  0  0  0  0  0  0  0  0  0
   10.5555   -3.2583    0.0000 H   0  0  0  0  0  0  0  0  0  0  0  0
  1  2  1  0  0  0  0
  1  9  1  0  0  0  0
  2  3  1  0  0  0  0
  2  4  1  0  0  0  0
  2 17  1  0  0  0  0
  3  5  1  0  0  0  0
  3 18  1  0  0  0  0
  3 19  1  0  0  0  0
  4  6  1  0  0  0  0
  4 20  1  0  0  0  0
  4 21  1  0  0  0  0
  5  7  1  0  0  0  0
  5 22  1  0  0  0  0
  5 23  1  0  0  0  0
  6  9  1  0  0  0  0
  6 24  1  0  0  0  0
  6 25  1  0  0  0  0
  7  8  1  0  0  0  0
  7 26  1  0  0  0  0
  7 27  1  0  0  0  0
  8 10  1  0  0  0  0
  8 28  1  0  0  0  0
  8 29  1  0  0  0  0
  9 30  1  0  0  0  0
  9 31  1  0  0  0  0
 10 11  1  0  0  0  0
 10 32  1  0  0  0  0
 10 33  1  0  0  0  0
 11 12  1  0  0  0  0
 11 34  1  0  0  0  0
 11 35  1  0  0  0  0
 12 13  1  0  0  0  0
 12 36  1  0  0  0  0
 12 37  1  0  0  0  0
 13 14  1  0  0  0  0
 13 38  1  0  0  0  0
 13 39  1  0  0  0  0
 14 15  1  0  0  0  0
 14 40  1  0  0  0  0
 14 41  1  0  0  0  0
 15 16  1  0  0  0  0
 15 42  1  0  0  0  0
 15 43  1  0  0  0  0
 16 44  1  0  0  0  0
 16 45  1  0  0  0  0
 16 46  1  0  0  0  0
M  END
> <PUBCHEM_COMPOUND_CID>
134998

> <PUBCHEM_COMPOUND_CANONICALIZED>
1

> <PUBCHEM_CACTVS_COMPLEXITY>
144

> <PUBCHEM_CACTVS_HBOND_ACCEPTOR>
1

> <PUBCHEM_CACTVS_HBOND_DONOR>
0

> <PUBCHEM_CACTVS_ROTATABLE_BOND>
10

> <PUBCHEM_CACTVS_SUBSKEYS>
AAADceBwAABAAAAAAAAAAAAAAAAAASAAAAAAAAAAAAAAAAAAAAAAGAQAAAAACACEQACCAAAAAAgAAAAAAAAAAAAAABAAAAAAAAAAAAIgAAAAAAAAAAAgAAEAgIAAAAAAAAAAAAAAAAAAAAAAAAAAAAAAAA==

> <PUBCHEM_IUPAC_OPENEYE_NAME>
2-undecyltetrahydrothiophene

> <PUBCHEM_IUPAC_CAS_NAME>
2-undecylthiolane

> <PUBCHEM_IUPAC_NAME>
2-undecylthiolane

> <PUBCHEM_IUPAC_SYSTEMATIC_NAME>
2-undecylthiolane

> <PUBCHEM_IUPAC_TRADITIONAL_NAME>
2-undecyltetrahydrothiophene

> <PUBCHEM_IUPAC_INCHI>
InChI=1S/C15H30S/c1-2-3-4-5-6-7-8-9-10-12-15-13-11-14-16-15/h15H,2-14H2,1H3

> <PUBCHEM_IUPAC_INCHIKEY>
TXCPNHXTBUNQDW-UHFFFAOYSA-N

> <PUBCHEM_XLOGP3_AA>
7

> <PUBCHEM_EXACT_MASS>
242.206822

> <PUBCHEM_MOLECULAR_FORMULA>
C15H30S

> <PUBCHEM_MOLECULAR_WEIGHT>
242.4637

> <PUBCHEM_OPENEYE_CAN_SMILES>
CCCCCCCCCCCC1CCCS1

> <PUBCHEM_OPENEYE_ISO_SMILES>
CCCCCCCCCCCC1CCCS1

> <PUBCHEM_CACTVS_TPSA>
25.3

> <PUBCHEM_MONOISOTOPIC_WEIGHT>
242.206822

> <PUBCHEM_TOTAL_CHARGE>
0

> <PUBCHEM_HEAVY_ATOM_COUNT>
16

> <PUBCHEM_ATOM_DEF_STEREO_COUNT>
0

> <PUBCHEM_ATOM_UDEF_STEREO_COUNT>
1

> <PUBCHEM_BOND_DEF_STEREO_COUNT>
0

> <PUBCHEM_BOND_UDEF_STEREO_COUNT>
0

> <PUBCHEM_ISOTOPIC_ATOM_COUNT>
0

> <PUBCHEM_COMPONENT_COUNT>
1

> <PUBCHEM_CACTVS_TAUTO_COUNT>
1

> <PUBCHEM_COORDINATE_TYPE>
1
5
255

> <PUBCHEM_BONDANNOTATIONS>
2  17  3

$$$$

