9543287
  -OEChem-07051213113D

 28 32  0     1  0  0  0  0  0999 V2000
    3.7702    0.1858   -0.9117 O   0  0  0  0  0  0  0  0  0  0  0  0
   -3.9437   -1.4927   -0.1206 O   0  0  0  0  0  0  0  0  0  0  0  0
    3.1264    0.7186    0.2558 C   0  0  2  0  0  0  0  0  0  0  0  0
    3.5387   -0.7387    0.1620 C   0  0  1  0  0  0  0  0  0  0  0  0
    1.6550    1.0290    0.1609 C   0  0  0  0  0  0  0  0  0  0  0  0
    0.7043   -0.0145    0.1058 C   0  0  0  0  0  0  0  0  0  0  0  0
    2.4521   -1.7317    0.1333 C   0  0  0  0  0  0  0  0  0  0  0  0
    1.1348   -1.4437    0.1095 C   0  0  0  0  0  0  0  0  0  0  0  0
   -0.6848    0.2511    0.0377 C   0  0  0  0  0  0  0  0  0  0  0  0
    1.1836    2.3470    0.1335 C   0  0  0  0  0  0  0  0  0  0  0  0
   -1.1289    1.5913    0.0150 C   0  0  0  0  0  0  0  0  0  0  0  0
   -1.6346   -0.7988   -0.0076 C   0  0  0  0  0  0  0  0  0  0  0  0
    0.1288   -2.4954    0.0730 C   0  0  0  0  0  0  0  0  0  0  0  0
   -0.1838    2.6263    0.0611 C   0  0  0  0  0  0  0  0  0  0  0  0
   -1.1793   -2.2006    0.0180 C   0  0  0  0  0  0  0  0  0  0  0  0
   -3.0011   -0.5077   -0.0745 C   0  0  0  0  0  0  0  0  0  0  0  0
   -2.5053    1.8582   -0.0534 C   0  0  0  0  0  0  0  0  0  0  0  0
   -3.4323    0.8166   -0.0976 C   0  0  0  0  0  0  0  0  0  0  0  0
    3.7301    1.3514    0.8989 H   0  0  0  0  0  0  0  0  0  0  0  0
    4.4067   -1.0465    0.7342 H   0  0  0  0  0  0  0  0  0  0  0  0
    2.7706   -2.7719    0.1289 H   0  0  0  0  0  0  0  0  0  0  0  0
    1.8887    3.1745    0.1723 H   0  0  0  0  0  0  0  0  0  0  0  0
    0.4500   -3.5325    0.0797 H   0  0  0  0  0  0  0  0  0  0  0  0
   -0.5031    3.6665    0.0440 H   0  0  0  0  0  0  0  0  0  0  0  0
   -1.8897   -3.0165   -0.0299 H   0  0  0  0  0  0  0  0  0  0  0  0
   -2.8690    2.8836   -0.0724 H   0  0  0  0  0  0  0  0  0  0  0  0
   -4.4931    1.0474   -0.1501 H   0  0  0  0  0  0  0  0  0  0  0  0
   -3.6363   -2.2708    0.3702 H   0  0  0  0  0  0  0  0  0  0  0  0
  1  3  1  0  0  0  0
  1  4  1  0  0  0  0
  2 16  1  0  0  0  0
  2 28  1  0  0  0  0
  3  4  1  0  0  0  0
  3  5  1  0  0  0  0
  3 19  1  0  0  0  0
  4  7  1  0  0  0  0
  4 20  1  0  0  0  0
  5  6  2  0  0  0  0
  5 10  1  0  0  0  0
  6  8  1  0  0  0  0
  6  9  1  0  0  0  0
  7  8  2  0  0  0  0
  7 21  1  0  0  0  0
  8 13  1  0  0  0  0
  9 11  2  0  0  0  0
  9 12  1  0  0  0  0
 10 14  2  0  0  0  0
 10 22  1  0  0  0  0
 11 14  1  0  0  0  0
 11 17  1  0  0  0  0
 12 15  1  0  0  0  0
 12 16  2  0  0  0  0
 13 15  2  0  0  0  0
 13 23  1  0  0  0  0
 14 24  1  0  0  0  0
 15 25  1  0  0  0  0
 16 18  1  0  0  0  0
 17 18  2  0  0  0  0
 17 26  1  0  0  0  0
 18 27  1  0  0  0  0
M  END
> <PUBCHEM_COMPOUND_CID>
9543287

> <PUBCHEM_CONFORMER_RMSD>
0.4

> <PUBCHEM_CONFORMER_DIVERSEORDER>
1
2

> <PUBCHEM_MMFF94_PARTIAL_CHARGES>
26
1 -0.3
10 -0.15
12 0.03
13 -0.15
14 -0.15
15 -0.18
16 0.08
17 -0.15
18 -0.15
19 0.1
2 -0.53
20 0.1
21 0.15
22 0.15
23 0.15
24 0.15
25 0.15
26 0.15
27 0.15
28 0.45
3 0.08
4 0.09
5 -0.03
6 0.03
7 -0.19
8 -0.03

> <PUBCHEM_EFFECTIVE_ROTOR_COUNT>
0.2

> <PUBCHEM_PHARMACOPHORE_FEATURES>
6
1 1 acceptor
1 2 donor
6 5 6 9 10 11 14 rings
6 6 8 9 12 13 15 rings
6 9 11 12 16 17 18 rings
7 1 3 4 5 6 7 8 rings

> <PUBCHEM_HEAVY_ATOM_COUNT>
18

> <PUBCHEM_ATOM_DEF_STEREO_COUNT>
0

> <PUBCHEM_ATOM_UDEF_STEREO_COUNT>
2

> <PUBCHEM_BOND_DEF_STEREO_COUNT>
0

> <PUBCHEM_BOND_UDEF_STEREO_COUNT>
0

> <PUBCHEM_ISOTOPIC_ATOM_COUNT>
0

> <PUBCHEM_COMPONENT_COUNT>
1

> <PUBCHEM_CACTVS_TAUTO_COUNT>
3

> <PUBCHEM_CONFORMER_ID>
00919E7700000001

> <PUBCHEM_MMFF94_ENERGY>
57.4657

> <PUBCHEM_FEATURE_SELFOVERLAP>
30.534

> <PUBCHEM_SHAPE_FINGERPRINT>
10062212 137 18340497762738524915
10759866 29 17988354962377502326
108231 29 18333733489779127681
10863032 1 18337674229641712225
10967382 1 18410857659156711634
11132069 177 18337679727342341096
11458722 379 18338791329572230086
11578080 2 17343541901275933364
11680986 33 17979635637204961395
12553582 1 18410294687723159561
13132413 78 18409448098193125997
13140716 1 17906739102604157642
13221675 6 18410294700613531086
14178342 30 18264499553365521448
14790565 3 18338779161635195801
15196674 1 18410856576861869802
15309172 13 18337664317031292697
15442244 35 18051696843316017258
15536298 74 18260831445146602920
16945 1 18339084774211130018
193761 8 17834395622673884402
19591789 44 18410291436465104187
20028762 73 17970907765866426383
20510252 161 18261111880757188976
20739085 24 17256497134701683641
20905425 154 18191586569488177966
21267235 1 18410566301497539874
21501502 16 18339643472146986826
22721475 48 18411416202489595960
2334 1 18410857706417221627
23402539 116 18335431187699120318
23419403 2 16168144097899575081
23463225 33 18341333408897681714
23559900 14 18334572452713327076
238 59 17695391235564703093
2748010 2 18338239365744056237
2871803 45 18411708673073207967
335352 9 17978230787471969527
34934 24 18338526351269510537
350125 39 18411412883107941945
43471831 8 18341898544731533218
5104073 3 18410576205707585936
589210 1 17906453225343951440
7364860 26 18118686517530977320
8809292 202 18343017796091934891
9709674 26 18408881832762562790

> <PUBCHEM_SHAPE_MULTIPOLES>
358.69
5.68
2.89
0.65
0.08
0.15
-0.02
-0.61
-0.45
-0.43
0.1
0.15
0.02
-0.05

> <PUBCHEM_SHAPE_SELFOVERLAP>
834.239

> <PUBCHEM_SHAPE_VOLUME>
182

> <PUBCHEM_COORDINATE_TYPE>
2
5
10

$$$$

