49859620
  -OEChem-07051213152D

 39 40  0     1  0  0  0  0  0999 V2000
    3.0000   -2.3170    0.0000 C   0  0  0  0  0  0  0  0  0  0  0  0
    3.0000   -1.3170    0.0000 C   0  0  0  0  0  0  0  0  0  0  0  0
    3.8660    0.1830    0.0000 C   0  0  1  0  0  0  0  0  0  0  0  0
    3.8660   -0.8170    0.0000 C   0  0  0  0  0  0  0  0  0  0  0  0
    3.8660   -2.8170    0.0000 C   0  0  0  0  0  0  0  0  0  0  0  0
    4.7320   -2.3170    0.0000 C   0  0  0  0  0  0  0  0  0  0  0  0
    4.7320    0.6830    0.0000 C   0  0  0  0  0  0  0  0  0  0  0  0
    3.0000    0.6830    0.0000 C   0  0  0  0  0  0  0  0  0  0  0  0
    4.7320   -1.3170    0.0000 C   0  0  0  0  0  0  0  0  0  0  0  0
    2.5000   -3.1830    0.0000 C   0  0  0  0  0  0  0  0  0  0  0  0
    2.0000   -2.3170    0.0000 C   0  0  0  0  0  0  0  0  0  0  0  0
    4.7320    1.6830    0.0000 C   0  0  0  0  0  0  0  0  0  0  0  0
    3.8660    2.1830    0.0000 C   0  0  0  0  0  0  0  0  0  0  0  0
    3.0000    1.6830    0.0000 C   0  0  0  0  0  0  0  0  0  0  0  0
    3.8660    3.1830    0.0000 C   0  0  0  0  0  0  0  0  0  0  0  0
    2.7880   -0.7344    0.0000 H   0  0  0  0  0  0  0  0  0  0  0  0
    2.3894   -1.4246    0.0000 H   0  0  0  0  0  0  0  0  0  0  0  0
    4.4030   -0.1270    0.0000 H   0  0  0  0  0  0  0  0  0  0  0  0
    3.4675   -3.2919    0.0000 H   0  0  0  0  0  0  0  0  0  0  0  0
    4.2646   -3.2919    0.0000 H   0  0  0  0  0  0  0  0  0  0  0  0
    4.9441   -2.8996    0.0000 H   0  0  0  0  0  0  0  0  0  0  0  0
    5.3426   -2.2093    0.0000 H   0  0  0  0  0  0  0  0  0  0  0  0
    4.9441    0.1004    0.0000 H   0  0  0  0  0  0  0  0  0  0  0  0
    5.3426    0.7907    0.0000 H   0  0  0  0  0  0  0  0  0  0  0  0
    2.3894    0.7907    0.0000 H   0  0  0  0  0  0  0  0  0  0  0  0
    2.7880    0.1004    0.0000 H   0  0  0  0  0  0  0  0  0  0  0  0
    5.2690   -1.0070    0.0000 H   0  0  0  0  0  0  0  0  0  0  0  0
    1.9631   -2.8730    0.0000 H   0  0  0  0  0  0  0  0  0  0  0  0
    2.1900   -3.7200    0.0000 H   0  0  0  0  0  0  0  0  0  0  0  0
    3.0369   -3.4930    0.0000 H   0  0  0  0  0  0  0  0  0  0  0  0
    2.0000   -1.6970    0.0000 H   0  0  0  0  0  0  0  0  0  0  0  0
    1.3800   -2.3170    0.0000 H   0  0  0  0  0  0  0  0  0  0  0  0
    2.0000   -2.9370    0.0000 H   0  0  0  0  0  0  0  0  0  0  0  0
    5.3426    1.5754    0.0000 H   0  0  0  0  0  0  0  0  0  0  0  0
    4.9441    2.2656    0.0000 H   0  0  0  0  0  0  0  0  0  0  0  0
    2.4631    1.9930    0.0000 H   0  0  0  0  0  0  0  0  0  0  0  0
    4.4860    3.1830    0.0000 H   0  0  0  0  0  0  0  0  0  0  0  0
    3.8660    3.8030    0.0000 H   0  0  0  0  0  0  0  0  0  0  0  0
    3.2460    3.1830    0.0000 H   0  0  0  0  0  0  0  0  0  0  0  0
  1  2  1  0  0  0  0
  1  5  1  0  0  0  0
  1 10  1  0  0  0  0
  1 11  1  0  0  0  0
  2  4  1  0  0  0  0
  2 16  1  0  0  0  0
  2 17  1  0  0  0  0
  3  4  1  6  0  0  0
  3  7  1  0  0  0  0
  3  8  1  0  0  0  0
  3 18  1  0  0  0  0
  4  9  2  0  0  0  0
  5  6  1  0  0  0  0
  5 19  1  0  0  0  0
  5 20  1  0  0  0  0
  6  9  1  0  0  0  0
  6 21  1  0  0  0  0
  6 22  1  0  0  0  0
  7 12  1  0  0  0  0
  7 23  1  0  0  0  0
  7 24  1  0  0  0  0
  8 14  1  0  0  0  0
  8 25  1  0  0  0  0
  8 26  1  0  0  0  0
  9 27  1  0  0  0  0
 10 28  1  0  0  0  0
 10 29  1  0  0  0  0
 10 30  1  0  0  0  0
 11 31  1  0  0  0  0
 11 32  1  0  0  0  0
 11 33  1  0  0  0  0
 12 13  1  0  0  0  0
 12 34  1  0  0  0  0
 12 35  1  0  0  0  0
 13 14  2  0  0  0  0
 13 15  1  0  0  0  0
 14 36  1  0  0  0  0
 15 37  1  0  0  0  0
 15 38  1  0  0  0  0
 15 39  1  0  0  0  0
M  END
> <PUBCHEM_COMPOUND_CID>
49859620

> <PUBCHEM_COMPOUND_CANONICALIZED>
1

> <PUBCHEM_CACTVS_COMPLEXITY>
291

> <PUBCHEM_CACTVS_HBOND_ACCEPTOR>
0

> <PUBCHEM_CACTVS_HBOND_DONOR>
0

> <PUBCHEM_CACTVS_ROTATABLE_BOND>
1

> <PUBCHEM_CACTVS_SUBSKEYS>
AAADceBwAAAAAAAAAAAAAAAAAAAAAAAAAAAgQAAAAAAAAAAAAAAAGAAAAAAADwCAAAACAAAAAACAAiBCAAAAAAAgAAAACAAAAAgAAAIAAQAAAAAAgAAIAAMAgMAPAAAAAAAAAAAAAAAAAAAAAAAAAAAAAA==

> <PUBCHEM_IUPAC_OPENEYE_NAME>
5,5-dimethyl-1-[(1S)-4-methylcyclohex-3-en-1-yl]cyclohexene

> <PUBCHEM_IUPAC_CAS_NAME>
5,5-dimethyl-1-[(1S)-4-methyl-1-cyclohex-3-enyl]cyclohexene

> <PUBCHEM_IUPAC_NAME>
5,5-dimethyl-1-[(1S)-4-methylcyclohex-3-en-1-yl]cyclohexene

> <PUBCHEM_IUPAC_SYSTEMATIC_NAME>
5,5-dimethyl-1-[(1S)-4-methylcyclohex-3-en-1-yl]cyclohexene

> <PUBCHEM_IUPAC_TRADITIONAL_NAME>
5,5-dimethyl-1-[(1S)-4-methylcyclohex-3-en-1-yl]cyclohexene

> <PUBCHEM_IUPAC_INCHI>
InChI=1S/C15H24/c1-12-6-8-13(9-7-12)14-5-4-10-15(2,3)11-14/h5-6,13H,4,7-11H2,1-3H3/t13-/m1/s1

> <PUBCHEM_IUPAC_INCHIKEY>
BKRLNEMLMVJATK-CYBMUJFWSA-N

> <PUBCHEM_XLOGP3_AA>
4.3

> <PUBCHEM_EXACT_MASS>
204.187801

> <PUBCHEM_MOLECULAR_FORMULA>
C15H24

> <PUBCHEM_MOLECULAR_WEIGHT>
204.35106

> <PUBCHEM_OPENEYE_CAN_SMILES>
CC1=CCC(CC1)C2=CCCC(C2)(C)C

> <PUBCHEM_OPENEYE_ISO_SMILES>
CC1=CC[C@H](CC1)C2=CCCC(C2)(C)C

> <PUBCHEM_CACTVS_TPSA>
0

> <PUBCHEM_MONOISOTOPIC_WEIGHT>
204.187801

> <PUBCHEM_TOTAL_CHARGE>
0

> <PUBCHEM_HEAVY_ATOM_COUNT>
15

> <PUBCHEM_ATOM_DEF_STEREO_COUNT>
1

> <PUBCHEM_ATOM_UDEF_STEREO_COUNT>
0

> <PUBCHEM_BOND_DEF_STEREO_COUNT>
0

> <PUBCHEM_BOND_UDEF_STEREO_COUNT>
0

> <PUBCHEM_ISOTOPIC_ATOM_COUNT>
0

> <PUBCHEM_COMPONENT_COUNT>
1

> <PUBCHEM_CACTVS_TAUTO_COUNT>
1

> <PUBCHEM_COORDINATE_TYPE>
1
5
255

> <PUBCHEM_BONDANNOTATIONS>
3  4  6

$$$$

