441992
  -OEChem-07051212563D

 54 58  0     1  0  0  0  0  0999 V2000
    4.7895    0.9688    1.7415 O   0  0  0  0  0  0  0  0  0  0  0  0
    3.7997   -2.5604   -1.2025 O   0  0  0  0  0  0  0  0  0  0  0  0
    5.4153   -2.9033    0.4198 O   0  0  0  0  0  0  0  0  0  0  0  0
   -6.4060    0.5958    0.1602 O   0  0  0  0  0  0  0  0  0  0  0  0
   -5.8099   -2.0783    0.5467 O   0  0  0  0  0  0  0  0  0  0  0  0
    1.1073    1.9006   -0.7148 N   0  0  0  0  0  0  0  0  0  0  0  0
   -1.1132   -0.9766    0.1063 N   0  0  0  0  0  0  0  0  0  0  0  0
    3.5364    1.4463   -0.3348 C   0  0  1  0  0  0  0  0  0  0  0  0
    3.2627   -0.0536   -0.5538 C   0  0  2  0  0  0  0  0  0  0  0  0
    2.4802    2.2739   -1.0656 C   0  0  0  0  0  0  0  0  0  0  0  0
    1.8388   -0.4559   -0.1283 C   0  0  0  0  0  0  0  0  0  0  0  0
    3.6954    1.7275    1.1790 C   0  0  2  0  0  0  0  0  0  0  0  0
    0.7577    0.5663   -0.3788 C   0  0  0  0  0  0  0  0  0  0  0  0
    4.2722   -0.8384    0.2336 C   0  0  0  0  0  0  0  0  0  0  0  0
   -0.5410    0.2262   -0.2295 C   0  0  0  0  0  0  0  0  0  0  0  0
    3.9917    3.1924    1.4872 C   0  0  0  0  0  0  0  0  0  0  0  0
    4.9427   -0.3071    1.2630 C   0  0  0  0  0  0  0  0  0  0  0  0
    0.0814    2.8504   -0.8873 C   0  0  0  0  0  0  0  0  0  0  0  0
   -1.5765    1.2339   -0.4130 C   0  0  0  0  0  0  0  0  0  0  0  0
   -1.2322    2.5927   -0.7509 C   0  0  0  0  0  0  0  0  0  0  0  0
    4.5817   -2.2164   -0.1484 C   0  0  0  0  0  0  0  0  0  0  0  0
   -2.7675    0.6731   -0.2062 C   0  0  0  0  0  0  0  0  0  0  0  0
   -2.3880   -0.7202    0.1174 C   0  0  0  0  0  0  0  0  0  0  0  0
   -4.1285    1.0991   -0.2098 C   0  0  0  0  0  0  0  0  0  0  0  0
   -3.4964   -1.6566    0.4033 C   0  0  0  0  0  0  0  0  0  0  0  0
   -5.0862    0.2014    0.0786 C   0  0  0  0  0  0  0  0  0  0  0  0
   -4.7603   -1.1990    0.3600 C   0  0  0  0  0  0  0  0  0  0  0  0
    3.9869   -3.8912   -1.6951 C   0  0  0  0  0  0  0  0  0  0  0  0
   -7.0531    0.4436   -1.0880 C   0  0  0  0  0  0  0  0  0  0  0  0
   -6.1808   -2.1350    1.9103 C   0  0  0  0  0  0  0  0  0  0  0  0
    4.5045    1.6782   -0.8058 H   0  0  0  0  0  0  0  0  0  0  0  0
    3.3810   -0.2393   -1.6301 H   0  0  0  0  0  0  0  0  0  0  0  0
    2.6523    3.3418   -0.8900 H   0  0  0  0  0  0  0  0  0  0  0  0
    2.6010    2.1252   -2.1472 H   0  0  0  0  0  0  0  0  0  0  0  0
    1.8249   -0.6815    0.9479 H   0  0  0  0  0  0  0  0  0  0  0  0
    1.5709   -1.3914   -0.6367 H   0  0  0  0  0  0  0  0  0  0  0  0
    2.7885    1.4451    1.7278 H   0  0  0  0  0  0  0  0  0  0  0  0
    4.8742    3.5366    0.9370 H   0  0  0  0  0  0  0  0  0  0  0  0
    3.1462    3.8402    1.2406 H   0  0  0  0  0  0  0  0  0  0  0  0
    4.2161    3.3204    2.5521 H   0  0  0  0  0  0  0  0  0  0  0  0
    5.7068   -0.8157    1.8356 H   0  0  0  0  0  0  0  0  0  0  0  0
    0.4337    3.8397   -1.1576 H   0  0  0  0  0  0  0  0  0  0  0  0
   -1.9913    3.3503   -0.8947 H   0  0  0  0  0  0  0  0  0  0  0  0
   -4.3637    2.1383   -0.4089 H   0  0  0  0  0  0  0  0  0  0  0  0
   -3.2573   -2.6940    0.6041 H   0  0  0  0  0  0  0  0  0  0  0  0
    5.0140   -4.0232   -2.0486 H   0  0  0  0  0  0  0  0  0  0  0  0
    3.3040   -4.0414   -2.5355 H   0  0  0  0  0  0  0  0  0  0  0  0
    3.7496   -4.6205   -0.9147 H   0  0  0  0  0  0  0  0  0  0  0  0
   -6.5948    1.0797   -1.8536 H   0  0  0  0  0  0  0  0  0  0  0  0
   -8.0946    0.7581   -0.9712 H   0  0  0  0  0  0  0  0  0  0  0  0
   -7.0541   -0.6002   -1.4203 H   0  0  0  0  0  0  0  0  0  0  0  0
   -6.5132   -1.1596    2.2819 H   0  0  0  0  0  0  0  0  0  0  0  0
   -5.3597   -2.5117    2.5304 H   0  0  0  0  0  0  0  0  0  0  0  0
   -7.0188   -2.8322    2.0055 H   0  0  0  0  0  0  0  0  0  0  0  0
  1 12  1  0  0  0  0
  1 17  1  0  0  0  0
  2 21  1  0  0  0  0
  2 28  1  0  0  0  0
  3 21  2  0  0  0  0
  4 26  1  0  0  0  0
  4 29  1  0  0  0  0
  5 27  1  0  0  0  0
  5 30  1  0  0  0  0
  6 10  1  0  0  0  0
  6 13  1  0  0  0  0
  6 18  1  0  0  0  0
  7 15  1  0  0  0  0
  7 23  2  0  0  0  0
  8  9  1  0  0  0  0
  8 10  1  0  0  0  0
  8 12  1  0  0  0  0
  8 31  1  0  0  0  0
  9 11  1  0  0  0  0
  9 14  1  0  0  0  0
  9 32  1  0  0  0  0
 10 33  1  0  0  0  0
 10 34  1  0  0  0  0
 11 13  1  0  0  0  0
 11 35  1  0  0  0  0
 11 36  1  0  0  0  0
 12 16  1  0  0  0  0
 12 37  1  0  0  0  0
 13 15  2  0  0  0  0
 14 17  2  0  0  0  0
 14 21  1  0  0  0  0
 15 19  1  0  0  0  0
 16 38  1  0  0  0  0
 16 39  1  0  0  0  0
 16 40  1  0  0  0  0
 17 41  1  0  0  0  0
 18 20  2  0  0  0  0
 18 42  1  0  0  0  0
 19 20  1  0  0  0  0
 19 22  2  0  0  0  0
 20 43  1  0  0  0  0
 22 23  1  0  0  0  0
 22 24  1  0  0  0  0
 23 25  1  0  0  0  0
 24 26  2  0  0  0  0
 24 44  1  0  0  0  0
 25 27  2  0  0  0  0
 25 45  1  0  0  0  0
 26 27  1  0  0  0  0
 28 46  1  0  0  0  0
 28 47  1  0  0  0  0
 28 48  1  0  0  0  0
 29 49  1  0  0  0  0
 29 50  1  0  0  0  0
 29 51  1  0  0  0  0
 30 52  1  0  0  0  0
 30 53  1  0  0  0  0
 30 54  1  0  0  0  0
M  END
> <PUBCHEM_COMPOUND_CID>
441992

> <PUBCHEM_CONFORMER_RMSD>
0.8

> <PUBCHEM_CONFORMER_DIVERSEORDER>
1
6
11
4
7
5
9
10
3
8
2

> <PUBCHEM_MMFF94_PARTIAL_CHARGES>
32
1 -0.36
10 0.37
11 0.14
12 0.28
13 -0.04
14 -0.12
15 0.17
17 -0.07
18 -0.05
2 -0.43
20 -0.15
21 0.71
22 0.01
23 0.42
24 -0.15
25 -0.14
26 0.08
27 0.08
28 0.28
29 0.28
3 -0.57
30 0.28
4 -0.36
41 0.15
42 0.15
43 0.15
44 0.15
45 0.15
5 -0.36
6 -0.57
7 -0.62
9 0.14

> <PUBCHEM_EFFECTIVE_ROTOR_COUNT>
4.8

> <PUBCHEM_PHARMACOPHORE_FEATURES>
11
1 1 acceptor
1 3 acceptor
1 4 acceptor
1 5 acceptor
1 6 cation
1 7 acceptor
5 7 15 19 22 23 rings
6 1 8 9 12 14 17 rings
6 22 23 24 25 26 27 rings
6 6 13 15 18 19 20 rings
6 6 8 9 10 11 13 rings

> <PUBCHEM_HEAVY_ATOM_COUNT>
30

> <PUBCHEM_ATOM_DEF_STEREO_COUNT>
3

> <PUBCHEM_ATOM_UDEF_STEREO_COUNT>
0

> <PUBCHEM_BOND_DEF_STEREO_COUNT>
0

> <PUBCHEM_BOND_UDEF_STEREO_COUNT>
0

> <PUBCHEM_ISOTOPIC_ATOM_COUNT>
0

> <PUBCHEM_COMPONENT_COUNT>
1

> <PUBCHEM_CACTVS_TAUTO_COUNT>
1

> <PUBCHEM_CONFORMER_ID>
0006BE8800000001

> <PUBCHEM_MMFF94_ENERGY>
103.9387

> <PUBCHEM_FEATURE_SELFOVERLAP>
56.129

> <PUBCHEM_SHAPE_FINGERPRINT>
10554248 39 18131078082901723229
114674 6 18411701028253603722
117089 54 17974842084663661838
11796584 16 17131834231449910649
11963148 33 18270403776568176690
12422481 6 18041277759562042615
12623949 98 18260257569181717334
131258 43 17460571827998929302
13533116 47 18259704523032197512
14211702 104 18130500826291393427
14251740 57 18411412904245077358
14725015 67 18270687600775661578
14866123 147 17833543874983145201
15131766 46 16300669364267981984
15183329 4 17274833441404664975
15196674 1 18272086051049008837
15927050 60 17185872793168476404
16992610 120 17910667663434259876
17492 89 18342457058347260158
17909252 39 18337100259398529258
1813 80 17132117922313364988
1979834 28 18336263436423127440
21130935 74 18336261263602692755
21267235 1 18271801358445253293
21279426 13 18202848760276246935
21682296 61 18411412943290225071
21792934 111 18411418428337943825
21859007 373 17844548762770687093
23559900 14 18343298162956403748
23572383 38 18341051830958157955
239999 70 18272652333838893258
3004659 81 17846494829320578340
335352 9 18343864433863849197
3383291 50 17845934014510054571
3421961 26 18409728474159024374
404807 14 17394716715633187887
4073 2 18130503041966477635
4144715 1 18271233951196766667
4340502 62 15140682488134911077
50009960 94 17844833420075824522
5104073 3 18335696148574083569
8988823 20 17894636941510964088

> <PUBCHEM_SHAPE_MULTIPOLES>
578.08
15.86
3.71
1.33
17.34
1.28
0.28
7.87
3.63
-4.81
-0.7
-0.71
0.17
3.33

> <PUBCHEM_SHAPE_SELFOVERLAP>
1279.595

> <PUBCHEM_SHAPE_VOLUME>
305.2

> <PUBCHEM_COORDINATE_TYPE>
2
5
10

$$$$

