46173976
  -OEChem-07051213102D

 71 75  0     1  0  0  0  0  0999 V2000
    2.3046    1.3647    0.0000 O   0  0  0  0  0  0  0  0  0  0  0  0
    8.2976    0.3964    0.0000 O   0  0  0  0  0  0  0  0  0  0  0  0
    2.3978   -0.4149    0.0000 O   0  0  0  0  0  0  0  0  0  0  0  0
    6.4853   -0.7989    0.0000 O   0  0  0  0  0  0  0  0  0  0  0  0
    7.9404    3.7007    0.0000 O   0  0  0  0  0  0  0  0  0  0  0  0
   11.8812   -0.5309    0.0000 O   0  0  0  0  0  0  0  0  0  0  0  0
    2.2079   -2.5369    0.0000 O   0  0  0  0  0  0  0  0  0  0  0  0
   12.8812    1.2011    0.0000 O   0  0  0  0  0  0  0  0  0  0  0  0
    3.6942   -3.8751    0.0000 O   0  0  0  0  0  0  0  0  0  0  0  0
    3.8872    1.7011    0.0000 C   0  0  1  0  0  0  0  0  0  0  0  0
    3.7827    0.7066    0.0000 C   0  0  1  0  0  0  0  0  0  0  0  0
    4.7533    2.2011    0.0000 C   0  0  0  0  0  0  0  0  0  0  0  0
    8.2976    2.0058    0.0000 C   0  0  1  0  0  0  0  0  0  0  0  0
    2.9737    2.1078    0.0000 C   0  0  0  0  0  0  0  0  0  0  0  0
    7.3513    1.7011    0.0000 C   0  0  0  0  0  0  0  0  0  0  0  0
    8.8812    1.2011    0.0000 C   0  0  1  0  0  0  0  0  0  0  0  0
    5.6193    1.7011    0.0000 C   0  0  0  0  0  0  0  0  0  0  0  0
    4.5258    0.0375    0.0000 C   0  0  0  0  0  0  0  0  0  0  0  0
    2.8046    0.4987    0.0000 C   0  0  0  0  0  0  0  0  0  0  0  0
    7.3513    0.7011    0.0000 C   0  0  0  0  0  0  0  0  0  0  0  0
    6.4853    2.2011    0.0000 C   0  0  0  0  0  0  0  0  0  0  0  0
    5.6193    0.7011    0.0000 C   0  0  0  0  0  0  0  0  0  0  0  0
    8.6082    2.9564    0.0000 C   0  0  0  0  0  0  0  0  0  0  0  0
    6.4853    0.2011    0.0000 C   0  0  0  0  0  0  0  0  0  0  0  0
    9.8812    1.2011    0.0000 C   0  0  0  0  0  0  0  0  0  0  0  0
    4.3179   -0.9407    0.0000 C   0  0  0  0  0  0  0  0  0  0  0  0
   10.3812    0.3351    0.0000 C   0  0  0  0  0  0  0  0  0  0  0  0
   10.3812    2.0671    0.0000 C   0  0  0  0  0  0  0  0  0  0  0  0
    3.3669   -1.2497    0.0000 C   0  0  0  0  0  0  0  0  0  0  0  0
    5.0611   -1.6098    0.0000 C   0  0  0  0  0  0  0  0  0  0  0  0
   11.3812    0.3351    0.0000 C   0  0  0  0  0  0  0  0  0  0  0  0
   11.3812    2.0671    0.0000 C   0  0  0  0  0  0  0  0  0  0  0  0
    3.1590   -2.2278    0.0000 C   0  0  0  0  0  0  0  0  0  0  0  0
    4.8532   -2.5880    0.0000 C   0  0  0  0  0  0  0  0  0  0  0  0
   11.8812    1.2011    0.0000 C   0  0  0  0  0  0  0  0  0  0  0  0
    3.9021   -2.8970    0.0000 C   0  0  0  0  0  0  0  0  0  0  0  0
    5.6193   -1.2989    0.0000 C   0  0  0  0  0  0  0  0  0  0  0  0
   11.3812   -1.3970    0.0000 C   0  0  0  0  0  0  0  0  0  0  0  0
    2.0000   -3.5150    0.0000 C   0  0  0  0  0  0  0  0  0  0  0  0
    4.4072    1.3634    0.0000 H   0  0  0  0  0  0  0  0  0  0  0  0
    3.6222    0.1077    0.0000 H   0  0  0  0  0  0  0  0  0  0  0  0
    5.1518    2.6761    0.0000 H   0  0  0  0  0  0  0  0  0  0  0  0
    4.3547    2.6761    0.0000 H   0  0  0  0  0  0  0  0  0  0  0  0
    7.8601    2.4452    0.0000 H   0  0  0  0  0  0  0  0  0  0  0  0
    3.2837    2.6448    0.0000 H   0  0  0  0  0  0  0  0  0  0  0  0
    2.4721    2.4723    0.0000 H   0  0  0  0  0  0  0  0  0  0  0  0
    9.1629    0.6488    0.0000 H   0  0  0  0  0  0  0  0  0  0  0  0
    5.1007   -0.1948    0.0000 H   0  0  0  0  0  0  0  0  0  0  0  0
    4.8544    0.5633    0.0000 H   0  0  0  0  0  0  0  0  0  0  0  0
    6.4853    2.8211    0.0000 H   0  0  0  0  0  0  0  0  0  0  0  0
    5.0824    0.3911    0.0000 H   0  0  0  0  0  0  0  0  0  0  0  0
    9.1551    2.6644    0.0000 H   0  0  0  0  0  0  0  0  0  0  0  0
    8.9908    3.4443    0.0000 H   0  0  0  0  0  0  0  0  0  0  0  0
   10.0712   -0.2018    0.0000 H   0  0  0  0  0  0  0  0  0  0  0  0
   10.0712    2.6041    0.0000 H   0  0  0  0  0  0  0  0  0  0  0  0
    2.9061   -0.8348    0.0000 H   0  0  0  0  0  0  0  0  0  0  0  0
    5.6507   -1.4182    0.0000 H   0  0  0  0  0  0  0  0  0  0  0  0
    8.1330    4.2900    0.0000 H   0  0  0  0  0  0  0  0  0  0  0  0
   11.6912    2.6041    0.0000 H   0  0  0  0  0  0  0  0  0  0  0  0
    5.3139   -3.0028    0.0000 H   0  0  0  0  0  0  0  0  0  0  0  0
    5.3093   -0.7620    0.0000 H   0  0  0  0  0  0  0  0  0  0  0  0
    5.0824   -1.6089    0.0000 H   0  0  0  0  0  0  0  0  0  0  0  0
    5.9293   -1.8358    0.0000 H   0  0  0  0  0  0  0  0  0  0  0  0
   13.1912    1.7380    0.0000 H   0  0  0  0  0  0  0  0  0  0  0  0
    4.1550   -4.2900    0.0000 H   0  0  0  0  0  0  0  0  0  0  0  0
   10.8442   -1.0870    0.0000 H   0  0  0  0  0  0  0  0  0  0  0  0
   11.0712   -1.9339    0.0000 H   0  0  0  0  0  0  0  0  0  0  0  0
   11.9181   -1.7070    0.0000 H   0  0  0  0  0  0  0  0  0  0  0  0
    1.3936   -3.3861    0.0000 H   0  0  0  0  0  0  0  0  0  0  0  0
    1.8711   -4.1215    0.0000 H   0  0  0  0  0  0  0  0  0  0  0  0
    2.6064   -3.6439    0.0000 H   0  0  0  0  0  0  0  0  0  0  0  0
  1 14  1  0  0  0  0
  1 19  1  0  0  0  0
  2 16  1  0  0  0  0
  2 20  1  0  0  0  0
  3 19  2  0  0  0  0
  4 24  1  0  0  0  0
  4 37  1  0  0  0  0
  5 23  1  0  0  0  0
  5 58  1  0  0  0  0
  6 31  1  0  0  0  0
  6 38  1  0  0  0  0
  7 33  1  0  0  0  0
  7 39  1  0  0  0  0
  8 35  1  0  0  0  0
  8 64  1  0  0  0  0
  9 36  1  0  0  0  0
  9 65  1  0  0  0  0
 10 11  1  0  0  0  0
 10 12  1  6  0  0  0
 10 14  1  0  0  0  0
 10 40  1  0  0  0  0
 11 18  1  1  0  0  0
 11 19  1  0  0  0  0
 11 41  1  0  0  0  0
 12 17  1  0  0  0  0
 12 42  1  0  0  0  0
 12 43  1  0  0  0  0
 13 15  1  0  0  0  0
 13 16  1  0  0  0  0
 13 23  1  6  0  0  0
 13 44  1  0  0  0  0
 14 45  1  0  0  0  0
 14 46  1  0  0  0  0
 15 20  2  0  0  0  0
 15 21  1  0  0  0  0
 16 25  1  1  0  0  0
 16 47  1  0  0  0  0
 17 21  2  0  0  0  0
 17 22  1  0  0  0  0
 18 26  1  0  0  0  0
 18 48  1  0  0  0  0
 18 49  1  0  0  0  0
 20 24  1  0  0  0  0
 21 50  1  0  0  0  0
 22 24  2  0  0  0  0
 22 51  1  0  0  0  0
 23 52  1  0  0  0  0
 23 53  1  0  0  0  0
 25 27  2  0  0  0  0
 25 28  1  0  0  0  0
 26 29  2  0  0  0  0
 26 30  1  0  0  0  0
 27 31  1  0  0  0  0
 27 54  1  0  0  0  0
 28 32  2  0  0  0  0
 28 55  1  0  0  0  0
 29 33  1  0  0  0  0
 29 56  1  0  0  0  0
 30 34  2  0  0  0  0
 30 57  1  0  0  0  0
 31 35  2  0  0  0  0
 32 35  1  0  0  0  0
 32 59  1  0  0  0  0
 33 36  2  0  0  0  0
 34 36  1  0  0  0  0
 34 60  1  0  0  0  0
 37 61  1  0  0  0  0
 37 62  1  0  0  0  0
 37 63  1  0  0  0  0
 38 66  1  0  0  0  0
 38 67  1  0  0  0  0
 38 68  1  0  0  0  0
 39 69  1  0  0  0  0
 39 70  1  0  0  0  0
 39 71  1  0  0  0  0
M  END
> <PUBCHEM_COMPOUND_CID>
46173976

> <PUBCHEM_COMPOUND_CANONICALIZED>
1

> <PUBCHEM_CACTVS_COMPLEXITY>
809

> <PUBCHEM_CACTVS_HBOND_ACCEPTOR>
9

> <PUBCHEM_CACTVS_HBOND_DONOR>
3

> <PUBCHEM_CACTVS_ROTATABLE_BOND>
9

> <PUBCHEM_CACTVS_SUBSKEYS>
AAADcfB4PAAAAAAAAAAAAAAAAAAAASJAAAAwYMAAAAAAAEgBUAAAGgAACAAADRSgmAIyDoAABgCIAiDSCAACCAAgIAAIiAEGiIgNNjKGMRqCeCOlwBELuAfK6PyOoAADAAAIQABAAAYAABCAAAAAAAAAAA==

> <PUBCHEM_IUPAC_OPENEYE_NAME>
(3R,4R)-4-[[(2S,3R)-2-(4-hydroxy-3-methoxy-phenyl)-3-(hydroxymethyl)-7-methoxy-2,3-dihydrobenzofuran-5-yl]methyl]-3-[(4-hydroxy-3-methoxy-phenyl)methyl]tetrahydrofuran-2-one

> <PUBCHEM_IUPAC_CAS_NAME>
(3R,4R)-4-[[(2S,3R)-2-(4-hydroxy-3-methoxyphenyl)-3-(hydroxymethyl)-7-methoxy-2,3-dihydrobenzofuran-5-yl]methyl]-3-[(4-hydroxy-3-methoxyphenyl)methyl]-2-oxolanone

> <PUBCHEM_IUPAC_NAME>
(3R,4R)-4-[[(2S,3R)-2-(4-hydroxy-3-methoxyphenyl)-3-(hydroxymethyl)-7-methoxy-2,3-dihydro-1-benzofuran-5-yl]methyl]-3-[(4-hydroxy-3-methoxyphenyl)methyl]oxolan-2-one

> <PUBCHEM_IUPAC_SYSTEMATIC_NAME>
(3R,4R)-4-[[(2S,3R)-3-(hydroxymethyl)-7-methoxy-2-(3-methoxy-4-oxidanyl-phenyl)-2,3-dihydro-1-benzofuran-5-yl]methyl]-3-[(3-methoxy-4-oxidanyl-phenyl)methyl]oxolan-2-one

> <PUBCHEM_IUPAC_TRADITIONAL_NAME>
(3R,4R)-4-[[(2S,3R)-2-(4-hydroxy-3-methoxy-phenyl)-7-methoxy-3-methylol-coumaran-5-yl]methyl]-3-vanillyl-tetrahydrofuran-2-one

> <PUBCHEM_IUPAC_INCHI>
InChI=1S/C30H32O9/c1-35-25-11-16(4-6-23(25)32)9-20-19(15-38-30(20)34)8-17-10-21-22(14-31)28(39-29(21)27(12-17)37-3)18-5-7-24(33)26(13-18)36-2/h4-7,10-13,19-20,22,28,31-33H,8-9,14-15H2,1-3H3/t19-,20+,22-,28+/m0/s1

> <PUBCHEM_IUPAC_INCHIKEY>
PYLYQTVVQXPBIJ-OUZJQUPYSA-N

> <PUBCHEM_XLOGP3_AA>
3.9

> <PUBCHEM_EXACT_MASS>
536.204633

> <PUBCHEM_MOLECULAR_FORMULA>
C30H32O9

> <PUBCHEM_MOLECULAR_WEIGHT>
536.56968

> <PUBCHEM_OPENEYE_CAN_SMILES>
COC1=C(C=CC(=C1)CC2C(COC2=O)CC3=CC(=C4C(=C3)C(C(O4)C5=CC(=C(C=C5)O)OC)CO)OC)O

> <PUBCHEM_OPENEYE_ISO_SMILES>
COC1=C(C=CC(=C1)C[C@@H]2[C@H](COC2=O)CC3=CC(=C4C(=C3)[C@@H]([C@H](O4)C5=CC(=C(C=C5)O)OC)CO)OC)O

> <PUBCHEM_CACTVS_TPSA>
124

> <PUBCHEM_MONOISOTOPIC_WEIGHT>
536.204633

> <PUBCHEM_TOTAL_CHARGE>
0

> <PUBCHEM_HEAVY_ATOM_COUNT>
39

> <PUBCHEM_ATOM_DEF_STEREO_COUNT>
4

> <PUBCHEM_ATOM_UDEF_STEREO_COUNT>
0

> <PUBCHEM_BOND_DEF_STEREO_COUNT>
0

> <PUBCHEM_BOND_UDEF_STEREO_COUNT>
0

> <PUBCHEM_ISOTOPIC_ATOM_COUNT>
0

> <PUBCHEM_COMPONENT_COUNT>
1

> <PUBCHEM_CACTVS_TAUTO_COUNT>
16

> <PUBCHEM_COORDINATE_TYPE>
1
5
255

> <PUBCHEM_BONDANNOTATIONS>
10  12  6
11  18  5
13  23  6
15  20  8
15  21  8
16  25  5
17  21  8
17  22  8
20  24  8
22  24  8
25  27  8
25  28  8
26  29  8
26  30  8
27  31  8
28  32  8
29  33  8
30  34  8
31  35  8
32  35  8
33  36  8
34  36  8

$$$$

