439774
  -OEChem-07051212473D

 20 20  0     1  0  0  0  0  0999 V2000
    1.7715    2.4038   -0.0753 O   0  0  0  0  0  0  0  0  0  0  0  0
    3.1228   -0.1281   -0.1547 O   0  0  0  0  0  0  0  0  0  0  0  0
    1.6174   -2.3632    0.0887 O   0  0  0  0  0  0  0  0  0  0  0  0
   -2.9905    1.0715    0.5546 O   0  0  0  0  0  0  0  0  0  0  0  0
   -3.1702   -0.9223   -0.5511 O   0  0  0  0  0  0  0  0  0  0  0  0
    1.1254    1.1741   -0.3981 C   0  0  1  0  0  0  0  0  0  0  0  0
    1.8044    0.0297    0.3464 C   0  0  1  0  0  0  0  0  0  0  0  0
   -0.3469    1.2955   -0.0044 C   0  0  0  0  0  0  0  0  0  0  0  0
   -1.0425   -0.0289    0.0189 C   0  0  0  0  0  0  0  0  0  0  0  0
    1.0491   -1.2742    0.1475 C   0  0  0  0  0  0  0  0  0  0  0  0
   -0.4331   -1.2190    0.0671 C   0  0  0  0  0  0  0  0  0  0  0  0
   -2.5075   -0.0389   -0.0398 C   0  0  0  0  0  0  0  0  0  0  0  0
    1.2237    1.0272   -1.4814 H   0  0  0  0  0  0  0  0  0  0  0  0
    1.8761    0.2446    1.4188 H   0  0  0  0  0  0  0  0  0  0  0  0
   -0.8356    1.9775   -0.7121 H   0  0  0  0  0  0  0  0  0  0  0  0
   -0.4307    1.7702    0.9822 H   0  0  0  0  0  0  0  0  0  0  0  0
   -0.9641   -2.1644    0.0627 H   0  0  0  0  0  0  0  0  0  0  0  0
    1.3232    3.1096   -0.5720 H   0  0  0  0  0  0  0  0  0  0  0  0
    3.5680   -0.7936    0.3974 H   0  0  0  0  0  0  0  0  0  0  0  0
   -3.9708    1.1033    0.5360 H   0  0  0  0  0  0  0  0  0  0  0  0
  1  6  1  0  0  0  0
  1 18  1  0  0  0  0
  2  7  1  0  0  0  0
  2 19  1  0  0  0  0
  3 10  2  0  0  0  0
  4 12  1  0  0  0  0
  4 20  1  0  0  0  0
  5 12  2  0  0  0  0
  6  7  1  0  0  0  0
  6  8  1  0  0  0  0
  6 13  1  0  0  0  0
  7 10  1  0  0  0  0
  7 14  1  0  0  0  0
  8  9  1  0  0  0  0
  8 15  1  0  0  0  0
  8 16  1  0  0  0  0
  9 11  2  0  0  0  0
  9 12  1  0  0  0  0
 10 11  1  0  0  0  0
 11 17  1  0  0  0  0
M  END
> <PUBCHEM_COMPOUND_CID>
439774

> <PUBCHEM_CONFORMER_RMSD>
0.4

> <PUBCHEM_CONFORMER_DIVERSEORDER>
2
1
5
4
3
6

> <PUBCHEM_MMFF94_PARTIAL_CHARGES>
16
1 -0.68
10 0.49
11 -0.14
12 0.71
17 0.15
18 0.4
19 0.4
2 -0.68
20 0.5
3 -0.57
4 -0.65
5 -0.57
6 0.28
7 0.34
8 0.14
9 -0.12

> <PUBCHEM_EFFECTIVE_ROTOR_COUNT>
1.6

> <PUBCHEM_PHARMACOPHORE_FEATURES>
9
1 1 acceptor
1 1 donor
1 2 acceptor
1 2 donor
1 3 acceptor
1 4 acceptor
1 5 acceptor
3 4 5 12 anion
6 6 7 8 9 10 11 rings

> <PUBCHEM_HEAVY_ATOM_COUNT>
12

> <PUBCHEM_ATOM_DEF_STEREO_COUNT>
2

> <PUBCHEM_ATOM_UDEF_STEREO_COUNT>
0

> <PUBCHEM_BOND_DEF_STEREO_COUNT>
0

> <PUBCHEM_BOND_UDEF_STEREO_COUNT>
0

> <PUBCHEM_ISOTOPIC_ATOM_COUNT>
0

> <PUBCHEM_COMPONENT_COUNT>
1

> <PUBCHEM_CACTVS_TAUTO_COUNT>
20

> <PUBCHEM_CONFORMER_ID>
0006B5DE00000002

> <PUBCHEM_MMFF94_ENERGY>
17.4166

> <PUBCHEM_FEATURE_SELFOVERLAP>
45.735

> <PUBCHEM_SHAPE_FINGERPRINT>
13380535 76 18049727321790712748
14325111 11 18338797797650591845
16945 1 18412827992578339538
17990270 104 18412265072821811547
19021347 11 18412266116440926550
193761 8 17619066131972268256
20201158 50 18343304777311716323
21040471 1 17979916012622714188
2334 1 17979916003916520682
23402655 69 18266477571285436837
23552423 10 18410573981183538007
23559900 14 17904460928568589260
241688 4 17907859853071994122
2748010 2 18053094026120467926
5084963 1 18187364298607935993
528886 8 18411422808138708882
7364860 26 18333732411947707080

> <PUBCHEM_SHAPE_MULTIPOLES>
217.61
4.17
2.06
0.65
1.96
0.06
0
0.03
0.1
-1.1
0.01
0.09
0.02
-0.32

> <PUBCHEM_SHAPE_SELFOVERLAP>
451.206

> <PUBCHEM_SHAPE_VOLUME>
122.6

> <PUBCHEM_COORDINATE_TYPE>
2
5
10

$$$$

