73079
  -OEChem-07051213103D

 65 67  0     1  0  0  0  0  0999 V2000
   -1.2071    0.7788    0.0620 O   0  0  0  0  0  0  0  0  0  0  0  0
    2.4465    0.7958   -0.0843 O   0  0  0  0  0  0  0  0  0  0  0  0
   -2.1157   -1.3942    0.2896 O   0  0  0  0  0  0  0  0  0  0  0  0
   -0.1385    3.0099   -1.4202 O   0  0  0  0  0  0  0  0  0  0  0  0
    2.2032   -1.2857   -1.1421 O   0  0  0  0  0  0  0  0  0  0  0  0
   -4.8426    0.3708   -2.2669 O   0  0  0  0  0  0  0  0  0  0  0  0
    5.1885   -0.8896   -1.6572 O   0  0  0  0  0  0  0  0  0  0  0  0
   -5.5580   -0.0941    0.4785 O   0  0  0  0  0  0  0  0  0  0  0  0
    3.6064   -1.4551    1.5542 O   0  0  0  0  0  0  0  0  0  0  0  0
    0.9388   -3.7396   -0.6975 O   0  0  0  0  0  0  0  0  0  0  0  0
    1.3262    1.2154    2.6928 N   0  0  0  0  0  0  0  0  0  0  0  0
    2.4506    3.5642    1.1334 N   0  0  0  0  0  0  0  0  0  0  0  0
   -2.0007    0.8342   -2.6802 N   0  0  0  0  0  0  0  0  0  0  0  0
   -2.7282   -2.3091    2.8746 N   0  0  0  0  0  0  0  0  0  0  0  0
    0.1161    0.7058    0.5979 C   0  0  1  0  0  0  0  0  0  0  0  0
    1.1270    1.1765   -0.4625 C   0  0  1  0  0  0  0  0  0  0  0  0
    0.1435    1.5367    1.8939 C   0  0  2  0  0  0  0  0  0  0  0  0
    1.0675    2.6922   -0.7214 C   0  0  2  0  0  0  0  0  0  0  0  0
    1.1043    3.5432    0.5612 C   0  0  1  0  0  0  0  0  0  0  0  0
    0.0735    3.0453    1.5915 C   0  0  0  0  0  0  0  0  0  0  0  0
   -1.5591   -0.4293   -0.6087 C   0  0  1  0  0  0  0  0  0  0  0  0
    3.0129   -0.1035   -1.0301 C   0  0  2  0  0  0  0  0  0  0  0  0
   -2.5472   -0.1531   -1.7485 C   0  0  1  0  0  0  0  0  0  0  0  0
   -3.8974    0.3174   -1.1968 C   0  0  2  0  0  0  0  0  0  0  0  0
    4.3815   -0.5539   -0.5343 C   0  0  1  0  0  0  0  0  0  0  0  0
   -4.4083   -0.6675   -0.1392 C   0  0  1  0  0  0  0  0  0  0  0  0
   -3.3307   -0.9617    0.9114 C   0  0  1  0  0  0  0  0  0  0  0  0
    4.0520   -1.8075    0.2509 C   0  0  2  0  0  0  0  0  0  0  0  0
    2.9129   -2.4000   -0.5716 C   0  0  1  0  0  0  0  0  0  0  0  0
   -3.7568   -2.0662    1.8746 C   0  0  0  0  0  0  0  0  0  0  0  0
    1.9390   -3.2762    0.1952 C   0  0  0  0  0  0  0  0  0  0  0  0
    0.3351   -0.3347    0.8781 H   0  0  0  0  0  0  0  0  0  0  0  0
    0.8515    0.7127   -1.4190 H   0  0  0  0  0  0  0  0  0  0  0  0
   -0.7395    1.2824    2.4943 H   0  0  0  0  0  0  0  0  0  0  0  0
    1.8957    2.9859   -1.3777 H   0  0  0  0  0  0  0  0  0  0  0  0
    0.8415    4.5773    0.3056 H   0  0  0  0  0  0  0  0  0  0  0  0
   -0.9347    3.2794    1.2252 H   0  0  0  0  0  0  0  0  0  0  0  0
    0.1723    3.6172    2.5245 H   0  0  0  0  0  0  0  0  0  0  0  0
   -0.6714   -0.8964   -1.0522 H   0  0  0  0  0  0  0  0  0  0  0  0
    3.0753    0.3805   -2.0122 H   0  0  0  0  0  0  0  0  0  0  0  0
   -2.7133   -1.0825   -2.3088 H   0  0  0  0  0  0  0  0  0  0  0  0
   -3.8336    1.3259   -0.7683 H   0  0  0  0  0  0  0  0  0  0  0  0
    4.8873    0.2158    0.0574 H   0  0  0  0  0  0  0  0  0  0  0  0
   -4.7246   -1.5975   -0.6285 H   0  0  0  0  0  0  0  0  0  0  0  0
   -3.1337   -0.0554    1.5009 H   0  0  0  0  0  0  0  0  0  0  0  0
    4.8871   -2.5073    0.3465 H   0  0  0  0  0  0  0  0  0  0  0  0
    3.3160   -2.9577   -1.4264 H   0  0  0  0  0  0  0  0  0  0  0  0
    1.3092    0.2298    2.9512 H   0  0  0  0  0  0  0  0  0  0  0  0
    1.3052    1.7423    3.5649 H   0  0  0  0  0  0  0  0  0  0  0  0
    2.7353    2.6185    1.3856 H   0  0  0  0  0  0  0  0  0  0  0  0
    2.4460    4.0977    2.0019 H   0  0  0  0  0  0  0  0  0  0  0  0
   -0.8905    2.7803   -0.8504 H   0  0  0  0  0  0  0  0  0  0  0  0
   -4.6896   -1.7974    2.3809 H   0  0  0  0  0  0  0  0  0  0  0  0
   -3.9282   -2.9990    1.3249 H   0  0  0  0  0  0  0  0  0  0  0  0
   -1.9027    1.7339   -2.2150 H   0  0  0  0  0  0  0  0  0  0  0  0
   -1.0636    0.5559   -2.9678 H   0  0  0  0  0  0  0  0  0  0  0  0
    1.4279   -2.7243    0.9901 H   0  0  0  0  0  0  0  0  0  0  0  0
    2.4443   -4.1417    0.6330 H   0  0  0  0  0  0  0  0  0  0  0  0
   -4.4881    0.9813   -2.9358 H   0  0  0  0  0  0  0  0  0  0  0  0
    6.0321   -1.2328   -1.3163 H   0  0  0  0  0  0  0  0  0  0  0  0
   -6.2080    0.0839   -0.2226 H   0  0  0  0  0  0  0  0  0  0  0  0
    2.8622   -0.8354    1.4708 H   0  0  0  0  0  0  0  0  0  0  0  0
   -3.0005   -3.0992    3.4577 H   0  0  0  0  0  0  0  0  0  0  0  0
   -1.8587   -2.5773    2.4152 H   0  0  0  0  0  0  0  0  0  0  0  0
    0.5122   -2.9598   -1.0915 H   0  0  0  0  0  0  0  0  0  0  0  0
  1 15  1  0  0  0  0
  1 21  1  0  0  0  0
  2 16  1  0  0  0  0
  2 22  1  0  0  0  0
  3 21  1  0  0  0  0
  3 27  1  0  0  0  0
  4 18  1  0  0  0  0
  4 52  1  0  0  0  0
  5 22  1  0  0  0  0
  5 29  1  0  0  0  0
  6 24  1  0  0  0  0
  6 59  1  0  0  0  0
  7 25  1  0  0  0  0
  7 60  1  0  0  0  0
  8 26  1  0  0  0  0
  8 61  1  0  0  0  0
  9 28  1  0  0  0  0
  9 62  1  0  0  0  0
 10 31  1  0  0  0  0
 10 65  1  0  0  0  0
 11 17  1  0  0  0  0
 11 48  1  0  0  0  0
 11 49  1  0  0  0  0
 12 19  1  0  0  0  0
 12 50  1  0  0  0  0
 12 51  1  0  0  0  0
 13 23  1  0  0  0  0
 13 55  1  0  0  0  0
 13 56  1  0  0  0  0
 14 30  1  0  0  0  0
 14 63  1  0  0  0  0
 14 64  1  0  0  0  0
 15 16  1  0  0  0  0
 15 17  1  0  0  0  0
 15 32  1  0  0  0  0
 16 18  1  0  0  0  0
 16 33  1  0  0  0  0
 17 20  1  0  0  0  0
 17 34  1  0  0  0  0
 18 19  1  0  0  0  0
 18 35  1  0  0  0  0
 19 20  1  0  0  0  0
 19 36  1  0  0  0  0
 20 37  1  0  0  0  0
 20 38  1  0  0  0  0
 21 23  1  0  0  0  0
 21 39  1  0  0  0  0
 22 25  1  0  0  0  0
 22 40  1  0  0  0  0
 23 24  1  0  0  0  0
 23 41  1  0  0  0  0
 24 26  1  0  0  0  0
 24 42  1  0  0  0  0
 25 28  1  0  0  0  0
 25 43  1  0  0  0  0
 26 27  1  0  0  0  0
 26 44  1  0  0  0  0
 27 30  1  0  0  0  0
 27 45  1  0  0  0  0
 28 29  1  0  0  0  0
 28 46  1  0  0  0  0
 29 31  1  0  0  0  0
 29 47  1  0  0  0  0
 30 53  1  0  0  0  0
 30 54  1  0  0  0  0
 31 57  1  0  0  0  0
 31 58  1  0  0  0  0
M  END
> <PUBCHEM_COMPOUND_CID>
73079

> <PUBCHEM_CONFORMER_RMSD>
1

> <PUBCHEM_CONFORMER_DIVERSEORDER>
1
47
29
50
30
41
56
24
62
23
15
61
32
55
49
45
34
67
11
54
4
16
33
27
63
71
64
35
43
51
39
38
48
37
20
13
66
18
58
70
25
59
9
28
44
52
26
68
17
22
57
8
42
6
60
14
21
31
36
10
5
53
3
12
2
65
46
69
7
19
40

> <PUBCHEM_MMFF94_PARTIAL_CHARGES>
44
1 -0.56
10 -0.68
11 -0.99
12 -0.99
13 -0.99
14 -0.99
15 0.28
16 0.28
17 0.27
18 0.28
19 0.27
2 -0.56
21 0.56
22 0.56
23 0.27
24 0.28
25 0.28
26 0.28
27 0.28
28 0.28
29 0.28
3 -0.56
30 0.27
31 0.28
4 -0.68
48 0.36
49 0.36
5 -0.56
50 0.36
51 0.36
52 0.4
55 0.36
56 0.36
59 0.4
6 -0.68
60 0.4
61 0.4
62 0.4
63 0.36
64 0.36
65 0.4
7 -0.68
8 -0.68
9 -0.68

> <PUBCHEM_EFFECTIVE_ROTOR_COUNT>
9.4

> <PUBCHEM_PHARMACOPHORE_FEATURES>
27
1 1 acceptor
1 10 acceptor
1 10 donor
1 11 cation
1 11 donor
1 12 cation
1 12 donor
1 13 cation
1 13 donor
1 14 cation
1 14 donor
1 2 acceptor
1 3 acceptor
1 4 acceptor
1 4 donor
1 5 acceptor
1 6 acceptor
1 6 donor
1 7 acceptor
1 7 donor
1 8 acceptor
1 8 donor
1 9 acceptor
1 9 donor
5 5 22 25 28 29 rings
6 15 16 17 18 19 20 rings
6 3 21 23 24 26 27 rings

> <PUBCHEM_HEAVY_ATOM_COUNT>
31

> <PUBCHEM_ATOM_DEF_STEREO_COUNT>
14

> <PUBCHEM_ATOM_UDEF_STEREO_COUNT>
0

> <PUBCHEM_BOND_DEF_STEREO_COUNT>
0

> <PUBCHEM_BOND_UDEF_STEREO_COUNT>
0

> <PUBCHEM_ISOTOPIC_ATOM_COUNT>
0

> <PUBCHEM_COMPONENT_COUNT>
1

> <PUBCHEM_CACTVS_TAUTO_COUNT>
1

> <PUBCHEM_CONFORMER_ID>
00011D7700000001

> <PUBCHEM_MMFF94_ENERGY>
71.0035

> <PUBCHEM_FEATURE_SELFOVERLAP>
137.108

> <PUBCHEM_SHAPE_FINGERPRINT>
10165383 225 17474080139172108113
10369192 42 17551226268533945844
1100329 8 18191023396844998164
12160290 23 17537980851517338136
12422481 6 17317864091646649665
12522641 24 18262503794803072875
12553582 1 18261110802883830310
12596602 18 16660655028926187735
12788726 201 18124603234460174424
13134695 92 18113618945832455945
133893 2 17971214546077275084
13402501 40 18131060524738377731
13533116 47 17898014538864407775
13544653 18 18187087277828926284
13583140 156 17607519130025228107
13911987 19 18338785759221408190
14251757 17 17703511107239406431
14840074 17 17749109989363627612
1813 80 17967532397895408140
20600515 1 17968640662808815334
23175994 123 18335129904227544053
23558518 356 17618785099377767258
23559900 14 18201719493083298263
3027735 51 18048318039551517438
35225 105 16883565850196343184
46194498 28 17773868714793712549
6823239 73 17846217688097874337
7399639 24 17622437243350147001
81228 2 17977383059954781088

> <PUBCHEM_SHAPE_MULTIPOLES>
559.35
8.81
4.13
2.3
4.1
1.28
-0.5
-5.33
1.82
-3.19
-1.3
1.62
0.19
1.93

> <PUBCHEM_SHAPE_SELFOVERLAP>
1154.932

> <PUBCHEM_SHAPE_VOLUME>
315

> <PUBCHEM_COORDINATE_TYPE>
2
5
10

$$$$

