54891
  -OEChem-07051212532D

 64 65  0     1  0  0  0  0  0999 V2000
   10.1641    4.7135    0.0000 Cl  0  0  0  0  0  0  0  0  0  0  0  0
    2.3521    7.1200    0.0000 O   0  0  0  0  0  0  0  0  0  0  0  0
    3.2181    9.6200    0.0000 O   0  0  0  0  0  0  0  0  0  0  0  0
    2.3521    8.1200    0.0000 O   0  0  0  0  0  0  0  0  0  0  0  0
    1.4860    2.6200    0.0000 O   0  0  0  0  0  0  0  0  0  0  0  0
    0.6200    4.1200    0.0000 O   0  0  0  0  0  0  0  0  0  0  0  0
    4.0841    7.1200    0.0000 N   0  0  0  0  0  0  0  0  0  0  0  0
    2.3521    5.1200    0.0000 N   0  0  0  0  0  0  0  0  0  0  0  0
    4.0841    8.1200    0.0000 C   0  0  1  0  0  0  0  0  0  0  0  0
    4.9501    8.6200    0.0000 C   0  0  0  0  0  0  0  0  0  0  0  0
    4.9501    6.6200    0.0000 C   0  0  0  0  0  0  0  0  0  0  0  0
    5.8162    8.1200    0.0000 C   0  0  0  0  0  0  0  0  0  0  0  0
    5.8162    7.1200    0.0000 C   0  0  0  0  0  0  0  0  0  0  0  0
    3.2181    5.6200    0.0000 C   0  0  2  0  0  0  0  0  0  0  0  0
    3.2181    6.6200    0.0000 C   0  0  0  0  0  0  0  0  0  0  0  0
    2.3521    4.1200    0.0000 C   0  0  1  0  0  0  0  0  0  0  0  0
    3.2181    8.6200    0.0000 C   0  0  0  0  0  0  0  0  0  0  0  0
    3.2181    3.6200    0.0000 C   0  0  0  0  0  0  0  0  0  0  0  0
    6.7101    8.6547    0.0000 C   0  0  0  0  0  0  0  0  0  0  0  0
    6.7101    6.5853    0.0000 C   0  0  0  0  0  0  0  0  0  0  0  0
    4.0841    5.1200    0.0000 C   0  0  0  0  0  0  0  0  0  0  0  0
    3.2181    2.6200    0.0000 C   0  0  0  0  0  0  0  0  0  0  0  0
    7.6162    8.1408    0.0000 C   0  0  0  0  0  0  0  0  0  0  0  0
    7.6162    7.0992    0.0000 C   0  0  0  0  0  0  0  0  0  0  0  0
    1.4860    3.6200    0.0000 C   0  0  0  0  0  0  0  0  0  0  0  0
    4.0841    2.1200    0.0000 C   0  0  0  0  0  0  0  0  0  0  0  0
    4.0841    1.1200    0.0000 C   0  0  0  0  0  0  0  0  0  0  0  0
    4.9501    2.6200    0.0000 C   0  0  0  0  0  0  0  0  0  0  0  0
    0.6200    2.1200    0.0000 C   0  0  0  0  0  0  0  0  0  0  0  0
    4.9501    0.6200    0.0000 C   0  0  0  0  0  0  0  0  0  0  0  0
    5.8162    2.1200    0.0000 C   0  0  0  0  0  0  0  0  0  0  0  0
    5.8162    1.1200    0.0000 C   0  0  0  0  0  0  0  0  0  0  0  0
    0.6200    1.1200    0.0000 C   0  0  0  0  0  0  0  0  0  0  0  0
    3.5472    7.8100    0.0000 H   0  0  0  0  0  0  0  0  0  0  0  0
    5.3486    9.0950    0.0000 H   0  0  0  0  0  0  0  0  0  0  0  0
    4.5516    9.0950    0.0000 H   0  0  0  0  0  0  0  0  0  0  0  0
    4.5516    6.1450    0.0000 H   0  0  0  0  0  0  0  0  0  0  0  0
    5.3486    6.1450    0.0000 H   0  0  0  0  0  0  0  0  0  0  0  0
    3.2181    5.0000    0.0000 H   0  0  0  0  0  0  0  0  0  0  0  0
    2.8890    4.4300    0.0000 H   0  0  0  0  0  0  0  0  0  0  0  0
    1.8151    5.4300    0.0000 H   0  0  0  0  0  0  0  0  0  0  0  0
    3.8287    3.5123    0.0000 H   0  0  0  0  0  0  0  0  0  0  0  0
    3.4301    4.2026    0.0000 H   0  0  0  0  0  0  0  0  0  0  0  0
    6.7029    9.2746    0.0000 H   0  0  0  0  0  0  0  0  0  0  0  0
    6.7029    5.9654    0.0000 H   0  0  0  0  0  0  0  0  0  0  0  0
    3.7741    4.5831    0.0000 H   0  0  0  0  0  0  0  0  0  0  0  0
    4.6210    4.8100    0.0000 H   0  0  0  0  0  0  0  0  0  0  0  0
    4.3941    5.6569    0.0000 H   0  0  0  0  0  0  0  0  0  0  0  0
    2.6075    2.7277    0.0000 H   0  0  0  0  0  0  0  0  0  0  0  0
    3.0060    2.0374    0.0000 H   0  0  0  0  0  0  0  0  0  0  0  0
    8.1519    8.4529    0.0000 H   0  0  0  0  0  0  0  0  0  0  0  0
    8.1519    6.7871    0.0000 H   0  0  0  0  0  0  0  0  0  0  0  0
    2.6811    9.9300    0.0000 H   0  0  0  0  0  0  0  0  0  0  0  0
    3.5472    0.8100    0.0000 H   0  0  0  0  0  0  0  0  0  0  0  0
    4.9501    3.2400    0.0000 H   0  0  0  0  0  0  0  0  0  0  0  0
    0.4079    2.7026    0.0000 H   0  0  0  0  0  0  0  0  0  0  0  0
    0.0094    2.0123    0.0000 H   0  0  0  0  0  0  0  0  0  0  0  0
    4.9501    0.0000    0.0000 H   0  0  0  0  0  0  0  0  0  0  0  0
    6.3531    2.4300    0.0000 H   0  0  0  0  0  0  0  0  0  0  0  0
    6.3531    0.8100    0.0000 H   0  0  0  0  0  0  0  0  0  0  0  0
    0.0000    1.1200    0.0000 H   0  0  0  0  0  0  0  0  0  0  0  0
    0.6200    0.5000    0.0000 H   0  0  0  0  0  0  0  0  0  0  0  0
    1.2400    1.1200    0.0000 H   0  0  0  0  0  0  0  0  0  0  0  0
   11.1641    4.7135    0.0000 H   0  0  0  0  0  0  0  0  0  0  0  0
  1 64  1  0  0  0  0
  2 15  2  0  0  0  0
  3 17  1  0  0  0  0
  3 53  1  0  0  0  0
  4 17  2  0  0  0  0
  5 25  1  0  0  0  0
  5 29  1  0  0  0  0
  6 25  2  0  0  0  0
  7  9  1  0  0  0  0
  7 11  1  0  0  0  0
  7 15  1  0  0  0  0
 14  8  1  6  0  0  0
 16  8  1  1  0  0  0
  8 41  1  0  0  0  0
  9 10  1  0  0  0  0
  9 17  1  6  0  0  0
  9 34  1  0  0  0  0
 10 12  1  0  0  0  0
 10 35  1  0  0  0  0
 10 36  1  0  0  0  0
 11 13  1  0  0  0  0
 11 37  1  0  0  0  0
 11 38  1  0  0  0  0
 12 13  1  0  0  0  0
 12 19  2  0  0  0  0
 13 20  2  0  0  0  0
 14 15  1  0  0  0  0
 14 21  1  0  0  0  0
 14 39  1  0  0  0  0
 16 18  1  0  0  0  0
 16 25  1  0  0  0  0
 16 40  1  0  0  0  0
 18 22  1  0  0  0  0
 18 42  1  0  0  0  0
 18 43  1  0  0  0  0
 19 23  1  0  0  0  0
 19 44  1  0  0  0  0
 20 24  1  0  0  0  0
 20 45  1  0  0  0  0
 21 46  1  0  0  0  0
 21 47  1  0  0  0  0
 21 48  1  0  0  0  0
 22 26  1  0  0  0  0
 22 49  1  0  0  0  0
 22 50  1  0  0  0  0
 23 24  2  0  0  0  0
 23 51  1  0  0  0  0
 24 52  1  0  0  0  0
 26 27  2  0  0  0  0
 26 28  1  0  0  0  0
 27 30  1  0  0  0  0
 27 54  1  0  0  0  0
 28 31  2  0  0  0  0
 28 55  1  0  0  0  0
 29 33  1  0  0  0  0
 29 56  1  0  0  0  0
 29 57  1  0  0  0  0
 30 32  2  0  0  0  0
 30 58  1  0  0  0  0
 31 32  1  0  0  0  0
 31 59  1  0  0  0  0
 32 60  1  0  0  0  0
 33 61  1  0  0  0  0
 33 62  1  0  0  0  0
 33 63  1  0  0  0  0
M  END
> <PUBCHEM_COMPOUND_CID>
54891

> <PUBCHEM_COMPOUND_CANONICALIZED>
1

> <PUBCHEM_CACTVS_COMPLEXITY>
648

> <PUBCHEM_CACTVS_HBOND_ACCEPTOR>
6

> <PUBCHEM_CACTVS_HBOND_DONOR>
3

> <PUBCHEM_CACTVS_ROTATABLE_BOND>
10

> <PUBCHEM_CACTVS_SUBSKEYS>
AAADceB7OAAEAAAAAAAAAAAAAAAAAAAAAAA8YIAAAAAAAACxQAAAHgAQCAAADCjhmAYyCIPABgCIAiHSGACCAAAgAAAIiIGIBIgKYDKAkTGXYAhklgCYiAeYyLCOgAAAAAAQAAAAAAAAACAAAAAAAAAAAA==

> <PUBCHEM_IUPAC_OPENEYE_NAME>
(3S)-2-[(2S)-2-[[(1S)-1-ethoxycarbonyl-3-phenyl-propyl]amino]propanoyl]-3,4-dihydro-1H-isoquinoline-3-carboxylic acid hydrochloride

> <PUBCHEM_IUPAC_CAS_NAME>
(3S)-2-[(2S)-2-[[(2S)-1-ethoxy-1-oxo-4-phenylbutan-2-yl]amino]-1-oxopropyl]-3,4-dihydro-1H-isoquinoline-3-carboxylic acid hydrochloride

> <PUBCHEM_IUPAC_NAME>
(3S)-2-[(2S)-2-[[(2S)-1-ethoxy-1-oxo-4-phenylbutan-2-yl]amino]propanoyl]-3,4-dihydro-1H-isoquinoline-3-carboxylic acid hydrochloride

> <PUBCHEM_IUPAC_SYSTEMATIC_NAME>
(3S)-2-[(2S)-2-[[(2S)-1-ethoxy-1-oxidanylidene-4-phenyl-butan-2-yl]amino]propanoyl]-3,4-dihydro-1H-isoquinoline-3-carboxylic acid hydrochloride

> <PUBCHEM_IUPAC_TRADITIONAL_NAME>
(3S)-2-[(2S)-2-[[(1S)-1-carbethoxy-3-phenyl-propyl]amino]propanoyl]-3,4-dihydro-1H-isoquinoline-3-carboxylic acid hydrochloride

> <PUBCHEM_IUPAC_INCHI>
InChI=1S/C25H30N2O5.ClH/c1-3-32-25(31)21(14-13-18-9-5-4-6-10-18)26-17(2)23(28)27-16-20-12-8-7-11-19(20)15-22(27)24(29)30;/h4-12,17,21-22,26H,3,13-16H2,1-2H3,(H,29,30);1H/t17-,21-,22-;/m0./s1

> <PUBCHEM_IUPAC_INCHIKEY>
IBBLRJGOOANPTQ-JKVLGAQCSA-N

> <PUBCHEM_EXACT_MASS>
474.19215

> <PUBCHEM_MOLECULAR_FORMULA>
C25H31ClN2O5

> <PUBCHEM_MOLECULAR_WEIGHT>
474.97704

> <PUBCHEM_OPENEYE_CAN_SMILES>
CCOC(=O)C(CCC1=CC=CC=C1)NC(C)C(=O)N2CC3=CC=CC=C3CC2C(=O)O.Cl

> <PUBCHEM_OPENEYE_ISO_SMILES>
CCOC(=O)[C@H](CCC1=CC=CC=C1)N[C@@H](C)C(=O)N2CC3=CC=CC=C3C[C@H]2C(=O)O.Cl

> <PUBCHEM_CACTVS_TPSA>
95.9

> <PUBCHEM_MONOISOTOPIC_WEIGHT>
474.19215

> <PUBCHEM_TOTAL_CHARGE>
0

> <PUBCHEM_HEAVY_ATOM_COUNT>
33

> <PUBCHEM_ATOM_DEF_STEREO_COUNT>
3

> <PUBCHEM_ATOM_UDEF_STEREO_COUNT>
0

> <PUBCHEM_BOND_DEF_STEREO_COUNT>
0

> <PUBCHEM_BOND_UDEF_STEREO_COUNT>
0

> <PUBCHEM_ISOTOPIC_ATOM_COUNT>
0

> <PUBCHEM_COMPONENT_COUNT>
2

> <PUBCHEM_CACTVS_TAUTO_COUNT>
1

> <PUBCHEM_COORDINATE_TYPE>
1
5
255

> <PUBCHEM_BONDANNOTATIONS>
12  13  8
12  19  8
13  20  8
19  23  8
20  24  8
23  24  8
26  27  8
26  28  8
27  30  8
28  31  8
30  32  8
31  32  8
14  8  6
16  8  5
9  17  6

$$$$

