13084
  -OEChem-06261207443D

 28 29  0     0  0  0  0  0  0999 V2000
    5.4888   -1.1882   -0.3108 O   0  0  0  0  0  0  0  0  0  0  0  0
   -5.4889   -1.1881    0.3108 O   0  0  0  0  0  0  0  0  0  0  0  0
    5.6828    0.9996    0.2744 O   0  0  0  0  0  0  0  0  0  0  0  0
   -5.6828    0.9996   -0.2745 O   0  0  0  0  0  0  0  0  0  0  0  0
    0.7235    0.0269    0.0021 C   0  0  0  0  0  0  0  0  0  0  0  0
   -0.7235    0.0270   -0.0021 C   0  0  0  0  0  0  0  0  0  0  0  0
    1.4200    1.1936    0.3168 C   0  0  0  0  0  0  0  0  0  0  0  0
   -1.4200    1.1937   -0.3168 C   0  0  0  0  0  0  0  0  0  0  0  0
    1.4217   -1.1399   -0.3091 C   0  0  0  0  0  0  0  0  0  0  0  0
   -1.4217   -1.1399    0.3090 C   0  0  0  0  0  0  0  0  0  0  0  0
    3.5132    0.0269    0.0091 C   0  0  0  0  0  0  0  0  0  0  0  0
   -3.5132    0.0269   -0.0091 C   0  0  0  0  0  0  0  0  0  0  0  0
    2.8149    1.1936    0.3202 C   0  0  0  0  0  0  0  0  0  0  0  0
   -2.8149    1.1936   -0.3203 C   0  0  0  0  0  0  0  0  0  0  0  0
    2.8166   -1.1398   -0.3055 C   0  0  0  0  0  0  0  0  0  0  0  0
   -2.8165   -1.1398    0.3054 C   0  0  0  0  0  0  0  0  0  0  0  0
    4.9675    0.0271    0.0123 C   0  0  0  0  0  0  0  0  0  0  0  0
   -4.9675    0.0271   -0.0123 C   0  0  0  0  0  0  0  0  0  0  0  0
    0.9197    2.1171    0.5953 H   0  0  0  0  0  0  0  0  0  0  0  0
   -0.9197    2.1171   -0.5953 H   0  0  0  0  0  0  0  0  0  0  0  0
    0.9224   -2.0631   -0.5903 H   0  0  0  0  0  0  0  0  0  0  0  0
   -0.9224   -2.0631    0.5902 H   0  0  0  0  0  0  0  0  0  0  0  0
    3.3395    2.1110    0.5744 H   0  0  0  0  0  0  0  0  0  0  0  0
   -3.3396    2.1110   -0.5745 H   0  0  0  0  0  0  0  0  0  0  0  0
    3.3207   -2.0679   -0.5604 H   0  0  0  0  0  0  0  0  0  0  0  0
   -3.3206   -2.0678    0.5603 H   0  0  0  0  0  0  0  0  0  0  0  0
    6.4698   -1.1777   -0.3053 H   0  0  0  0  0  0  0  0  0  0  0  0
   -6.4698   -1.1776    0.3052 H   0  0  0  0  0  0  0  0  0  0  0  0
  1 17  1  0  0  0  0
  1 27  1  0  0  0  0
  2 18  1  0  0  0  0
  2 28  1  0  0  0  0
  3 17  2  0  0  0  0
  4 18  2  0  0  0  0
  5  6  1  0  0  0  0
  5  7  2  0  0  0  0
  5  9  1  0  0  0  0
  6  8  2  0  0  0  0
  6 10  1  0  0  0  0
  7 13  1  0  0  0  0
  7 19  1  0  0  0  0
  8 14  1  0  0  0  0
  8 20  1  0  0  0  0
  9 15  2  0  0  0  0
  9 21  1  0  0  0  0
 10 16  2  0  0  0  0
 10 22  1  0  0  0  0
 11 13  2  0  0  0  0
 11 15  1  0  0  0  0
 11 17  1  0  0  0  0
 12 14  2  0  0  0  0
 12 16  1  0  0  0  0
 12 18  1  0  0  0  0
 13 23  1  0  0  0  0
 14 24  1  0  0  0  0
 15 25  1  0  0  0  0
 16 26  1  0  0  0  0
M  END
> <PUBCHEM_COMPOUND_CID>
13084

> <PUBCHEM_CONFORMER_RMSD>
0.6

> <PUBCHEM_CONFORMER_DIVERSEORDER>
1
2

> <PUBCHEM_MMFF94_PARTIAL_CHARGES>
26
1 -0.65
10 -0.15
11 0.09
12 0.09
13 -0.15
14 -0.15
15 -0.15
16 -0.15
17 0.63
18 0.63
19 0.15
2 -0.65
20 0.15
21 0.15
22 0.15
23 0.15
24 0.15
25 0.15
26 0.15
27 0.5
28 0.5
3 -0.57
4 -0.57
7 -0.15
8 -0.15
9 -0.15

> <PUBCHEM_EFFECTIVE_ROTOR_COUNT>
3

> <PUBCHEM_PHARMACOPHORE_FEATURES>
8
1 1 acceptor
1 2 acceptor
1 3 acceptor
1 4 acceptor
3 1 3 17 anion
3 2 4 18 anion
6 5 7 9 11 13 15 rings
6 6 8 10 12 14 16 rings

> <PUBCHEM_HEAVY_ATOM_COUNT>
18

> <PUBCHEM_ATOM_DEF_STEREO_COUNT>
0

> <PUBCHEM_ATOM_UDEF_STEREO_COUNT>
0

> <PUBCHEM_BOND_DEF_STEREO_COUNT>
0

> <PUBCHEM_BOND_UDEF_STEREO_COUNT>
0

> <PUBCHEM_ISOTOPIC_ATOM_COUNT>
0

> <PUBCHEM_COMPONENT_COUNT>
1

> <PUBCHEM_CACTVS_TAUTO_COUNT>
1

> <PUBCHEM_CONFORMER_ID>
0000331C00000001

> <PUBCHEM_MMFF94_ENERGY>
62.4132

> <PUBCHEM_FEATURE_SELFOVERLAP>
40.71

> <PUBCHEM_SHAPE_FINGERPRINT>
10 15 18340213982150522720
10968037 39 18343017778996273221
11287383 113 18413387618390695040
11401426 45 18407761425833580743
11471102 20 18333168367014963160
12107183 9 17617659194811415563
12236239 1 18410575088958046210
12403259 415 18410866455250363916
13288520 33 18410854378091834901
13533116 47 4678547832331103780
1420 363 18412539912052905323
14341114 176 18410288112397326216
14386348 63 18410852165888421159
15196674 1 18410855460128161793
17834072 33 18040719134250167791
18522853 276 18334575750214423888
19141452 34 18261111837886643623
19489759 90 16845576422387553021
200 152 17822012008178660731
20279233 1 18410566288570323042
20645477 70 18041557052969972166
21267235 1 18410566292865127938
2297311 6 18411129260304523276
23402539 116 18411425003362804471
23402655 69 18260834829881434637
23557571 272 17988360476635515076
23559900 14 18410299068658795777
26918003 58 18334857212432566939
3004659 81 18272650195277761850
335352 9 18410575084668354101
34934 24 18410579482710044747
351380 180 18410857654856456554
3545911 37 18410573989446424942
4072396 5 18335712667313793610
4214541 1 18410855482025264273
42788 4 18410855464423129093
4463277 17 18410573985151743457
5104073 3 18338236080078231920
542803 24 15769774662746227238
69090 78 18335706031309733255
9709674 26 18411130342462591591

> <PUBCHEM_SHAPE_MULTIPOLES>
346.95
12.7
1.45
0.66
0
0.02
0
0.19
0
0
0
0
0
0.67

> <PUBCHEM_SHAPE_SELFOVERLAP>
761.325

> <PUBCHEM_SHAPE_VOLUME>
188.8

> <PUBCHEM_COORDINATE_TYPE>
2
5
10

$$$$

