23205
  -OEChem-07051212573D

 37 39  0     1  0  0  0  0  0999 V2000
    2.8272    1.0166   -0.6414 O   0  0  0  0  0  0  0  0  0  0  0  0
   -0.7975   -1.2518   -1.9998 O   0  0  0  0  0  0  0  0  0  0  0  0
   -2.9287   -2.2910    0.0281 O   0  0  0  0  0  0  0  0  0  0  0  0
    4.4797   -0.1555    0.4599 O   0  0  0  0  0  0  0  0  0  0  0  0
   -1.2555   -0.5141    0.2705 C   0  0  2  0  0  0  0  0  0  0  0  0
   -1.5391    0.9532   -0.1455 C   0  0  2  0  0  0  0  0  0  0  0  0
   -0.2489   -1.2054   -0.6680 C   0  0  2  0  0  0  0  0  0  0  0  0
   -0.6632    2.0231    0.5248 C   0  0  1  0  0  0  0  0  0  0  0  0
    1.1669   -0.6065   -0.7809 C   0  0  1  0  0  0  0  0  0  0  0  0
    1.3761    0.9118   -0.7218 C   0  0  1  0  0  0  0  0  0  0  0  0
    0.8445    1.7092    0.4823 C   0  0  0  0  0  0  0  0  0  0  0  0
   -2.6567   -1.1029    0.1214 C   0  0  0  0  0  0  0  0  0  0  0  0
   -0.9165   -0.7372    1.7572 C   0  0  0  0  0  0  0  0  0  0  0  0
   -3.0239    1.0978    0.0817 C   0  0  0  0  0  0  0  0  0  0  0  0
    2.2480   -1.0469    0.1518 C   0  0  0  0  0  0  0  0  0  0  0  0
   -0.9047    3.4018   -0.1176 C   0  0  0  0  0  0  0  0  0  0  0  0
   -3.6868   -0.0555    0.1795 C   0  0  0  0  0  0  0  0  0  0  0  0
    3.3392   -0.0493    0.0481 C   0  0  0  0  0  0  0  0  0  0  0  0
    2.3400   -2.0975    0.9696 C   0  0  0  0  0  0  0  0  0  0  0  0
   -1.4072    1.0603   -1.2326 H   0  0  0  0  0  0  0  0  0  0  0  0
   -0.1610   -2.2597   -0.3784 H   0  0  0  0  0  0  0  0  0  0  0  0
   -0.9515    2.1212    1.5803 H   0  0  0  0  0  0  0  0  0  0  0  0
    1.5376   -0.9158   -1.7732 H   0  0  0  0  0  0  0  0  0  0  0  0
    1.0661    1.3843   -1.6604 H   0  0  0  0  0  0  0  0  0  0  0  0
    1.4057    2.6535    0.5370 H   0  0  0  0  0  0  0  0  0  0  0  0
    1.1393    1.2122    1.4125 H   0  0  0  0  0  0  0  0  0  0  0  0
    0.0905   -0.4240    2.0263 H   0  0  0  0  0  0  0  0  0  0  0  0
   -1.6138   -0.2065    2.4162 H   0  0  0  0  0  0  0  0  0  0  0  0
   -0.9900   -1.8015    2.0144 H   0  0  0  0  0  0  0  0  0  0  0  0
   -3.5340    2.0515    0.0693 H   0  0  0  0  0  0  0  0  0  0  0  0
   -0.6370    3.3966   -1.1797 H   0  0  0  0  0  0  0  0  0  0  0  0
   -1.9503    3.7109   -0.0314 H   0  0  0  0  0  0  0  0  0  0  0  0
   -0.3035    4.1722    0.3780 H   0  0  0  0  0  0  0  0  0  0  0  0
   -4.7457   -0.2147    0.2767 H   0  0  0  0  0  0  0  0  0  0  0  0
   -1.5577   -1.8575   -1.9889 H   0  0  0  0  0  0  0  0  0  0  0  0
    1.5422   -2.8273    1.0450 H   0  0  0  0  0  0  0  0  0  0  0  0
    3.2156   -2.2606    1.5892 H   0  0  0  0  0  0  0  0  0  0  0  0
  1 10  1  0  0  0  0
  1 18  1  0  0  0  0
  2  7  1  0  0  0  0
  2 35  1  0  0  0  0
  3 12  2  0  0  0  0
  4 18  2  0  0  0  0
  5  6  1  0  0  0  0
  5  7  1  0  0  0  0
  5 12  1  0  0  0  0
  5 13  1  0  0  0  0
  6  8  1  0  0  0  0
  6 14  1  0  0  0  0
  6 20  1  0  0  0  0
  7  9  1  0  0  0  0
  7 21  1  0  0  0  0
  8 11  1  0  0  0  0
  8 16  1  0  0  0  0
  8 22  1  0  0  0  0
  9 10  1  0  0  0  0
  9 15  1  0  0  0  0
  9 23  1  0  0  0  0
 10 11  1  0  0  0  0
 10 24  1  0  0  0  0
 11 25  1  0  0  0  0
 11 26  1  0  0  0  0
 12 17  1  0  0  0  0
 13 27  1  0  0  0  0
 13 28  1  0  0  0  0
 13 29  1  0  0  0  0
 14 17  2  0  0  0  0
 14 30  1  0  0  0  0
 15 18  1  0  0  0  0
 15 19  2  0  0  0  0
 16 31  1  0  0  0  0
 16 32  1  0  0  0  0
 16 33  1  0  0  0  0
 17 34  1  0  0  0  0
 19 36  1  0  0  0  0
 19 37  1  0  0  0  0
M  END
> <PUBCHEM_COMPOUND_CID>
23205

> <PUBCHEM_CONFORMER_RMSD>
0.6

> <PUBCHEM_CONFORMER_DIVERSEORDER>
1
2
3

> <PUBCHEM_MMFF94_PARTIAL_CHARGES>
20
1 -0.43
10 0.28
12 0.49
14 -0.29
15 -0.12
17 -0.14
18 0.71
19 -0.3
2 -0.68
3 -0.57
30 0.15
34 0.15
35 0.4
36 0.15
37 0.15
4 -0.57
5 0.06
6 0.14
7 0.28
9 0.14

> <PUBCHEM_EFFECTIVE_ROTOR_COUNT>
0.8

> <PUBCHEM_PHARMACOPHORE_FEATURES>
7
1 2 acceptor
1 2 donor
1 3 acceptor
1 4 acceptor
5 1 9 10 15 18 rings
5 5 6 12 14 17 rings
7 5 6 7 8 9 10 11 rings

> <PUBCHEM_HEAVY_ATOM_COUNT>
19

> <PUBCHEM_ATOM_DEF_STEREO_COUNT>
6

> <PUBCHEM_ATOM_UDEF_STEREO_COUNT>
0

> <PUBCHEM_BOND_DEF_STEREO_COUNT>
0

> <PUBCHEM_BOND_UDEF_STEREO_COUNT>
0

> <PUBCHEM_ISOTOPIC_ATOM_COUNT>
0

> <PUBCHEM_COMPONENT_COUNT>
1

> <PUBCHEM_CACTVS_TAUTO_COUNT>
3

> <PUBCHEM_CONFORMER_ID>
00005AA500000001

> <PUBCHEM_MMFF94_ENERGY>
66.5951

> <PUBCHEM_FEATURE_SELFOVERLAP>
35.602

> <PUBCHEM_SHAPE_FINGERPRINT>
10062212 137 18413113844364368203
10863032 1 18341614845019239675
10967382 1 18410571799255762059
11132069 177 18261105305098740481
11578080 2 17387721364953445385
12382932 28 18334008406335099585
12423570 1 17611480631449037753
13132413 78 18263362482380629868
13140716 1 18335979762064894009
13172582 1 17967248667844387775
13221675 6 18408040715009528470
14115302 16 17917980664263656310
14223421 5 18337673126257188270
14787075 74 18197214746525670760
15309172 13 17603299366847237687
15375462 189 18342172245927837731
15375462 478 18411421721759967862
15442244 35 18053947535112386778
15775835 57 18187082866765579546
15881359 60 17750531743465410813
16945 1 18267015248922949861
19010151 120 18263072236948559115
19868273 325 18408039593875377629
200 152 18342465806905849215
20510252 161 18117277162535521593
20525323 117 18042123335490661753
20905425 154 18264766738885323862
21267235 1 18411971460141058219
21501502 16 18268138765370934381
22112679 90 17751369382384183950
2334 1 18120089490046470469
23402539 116 18334864948043265453
23419403 2 18053694419604577317
23463225 33 18411133645228670965
23557571 272 18187642526563042587
23559900 14 18336550542413231922
2748010 2 18262238807298365029
296302 2 17530967998682353088
3286 77 18056483846112435983
34934 24 18410017636652564553
7097593 13 17911245228078921818
81228 2 18193816340309288873
9709674 26 18337387266002921414

> <PUBCHEM_SHAPE_MULTIPOLES>
367.53
5.54
2.63
1.13
2.34
1.43
-0.07
-1.15
0.56
-0.96
0.13
0.01
-0.4
-0.36

> <PUBCHEM_SHAPE_SELFOVERLAP>
795.21

> <PUBCHEM_SHAPE_VOLUME>
202.3

> <PUBCHEM_COORDINATE_TYPE>
2
5
10

$$$$

