123594
  -OEChem-07051212483D

 21 21  0     1  0  0  0  0  0999 V2000
    3.4562   -0.2313   -0.0079 O   0  0  0  0  0  0  0  0  0  0  0  0
   -2.7748   -0.2049    1.2217 N   0  0  0  0  0  0  0  0  0  0  0  0
   -2.1545    0.3608    0.0094 C   0  0  1  0  0  0  0  0  0  0  0  0
   -0.6716    0.2042    0.0050 C   0  0  0  0  0  0  0  0  0  0  0  0
   -2.8197   -0.2702   -1.2276 C   0  0  0  0  0  0  0  0  0  0  0  0
    0.1486    1.3321   -0.0156 C   0  0  0  0  0  0  0  0  0  0  0  0
   -0.1049   -1.0703    0.0213 C   0  0  0  0  0  0  0  0  0  0  0  0
    1.5357    1.1855   -0.0199 C   0  0  0  0  0  0  0  0  0  0  0  0
    1.2823   -1.2170    0.0171 C   0  0  0  0  0  0  0  0  0  0  0  0
    2.1027   -0.0889   -0.0035 C   0  0  0  0  0  0  0  0  0  0  0  0
   -2.4076    1.4288   -0.0051 H   0  0  0  0  0  0  0  0  0  0  0  0
   -2.3868    0.1361   -2.1489 H   0  0  0  0  0  0  0  0  0  0  0  0
   -3.8945   -0.0561   -1.2425 H   0  0  0  0  0  0  0  0  0  0  0  0
   -2.6970   -1.3588   -1.2539 H   0  0  0  0  0  0  0  0  0  0  0  0
   -0.2766    2.3321   -0.0286 H   0  0  0  0  0  0  0  0  0  0  0  0
   -0.7258   -1.9620    0.0413 H   0  0  0  0  0  0  0  0  0  0  0  0
   -3.7834   -0.0609    1.1866 H   0  0  0  0  0  0  0  0  0  0  0  0
   -2.4438    0.3057    2.0398 H   0  0  0  0  0  0  0  0  0  0  0  0
    2.1639    2.0722   -0.0361 H   0  0  0  0  0  0  0  0  0  0  0  0
    1.7181   -2.2122    0.0307 H   0  0  0  0  0  0  0  0  0  0  0  0
    3.8659    0.6508   -0.0230 H   0  0  0  0  0  0  0  0  0  0  0  0
  1 10  1  0  0  0  0
  1 21  1  0  0  0  0
  2  3  1  0  0  0  0
  2 17  1  0  0  0  0
  2 18  1  0  0  0  0
  3  4  1  0  0  0  0
  3  5  1  0  0  0  0
  3 11  1  0  0  0  0
  4  6  2  0  0  0  0
  4  7  1  0  0  0  0
  5 12  1  0  0  0  0
  5 13  1  0  0  0  0
  5 14  1  0  0  0  0
  6  8  1  0  0  0  0
  6 15  1  0  0  0  0
  7  9  2  0  0  0  0
  7 16  1  0  0  0  0
  8 10  2  0  0  0  0
  8 19  1  0  0  0  0
  9 10  1  0  0  0  0
  9 20  1  0  0  0  0
M  END
> <PUBCHEM_COMPOUND_CID>
123594

> <PUBCHEM_CONFORMER_RMSD>
0.4

> <PUBCHEM_CONFORMER_DIVERSEORDER>
1
3
2

> <PUBCHEM_MMFF94_PARTIAL_CHARGES>
16
1 -0.53
10 0.08
15 0.15
16 0.15
17 0.36
18 0.36
19 0.15
2 -0.99
20 0.15
21 0.45
3 0.41
4 -0.14
6 -0.15
7 -0.15
8 -0.15
9 -0.15

> <PUBCHEM_EFFECTIVE_ROTOR_COUNT>
1

> <PUBCHEM_PHARMACOPHORE_FEATURES>
4
1 1 donor
1 2 cation
1 2 donor
6 4 6 7 8 9 10 rings

> <PUBCHEM_HEAVY_ATOM_COUNT>
10

> <PUBCHEM_ATOM_DEF_STEREO_COUNT>
0

> <PUBCHEM_ATOM_UDEF_STEREO_COUNT>
1

> <PUBCHEM_BOND_DEF_STEREO_COUNT>
0

> <PUBCHEM_BOND_UDEF_STEREO_COUNT>
0

> <PUBCHEM_ISOTOPIC_ATOM_COUNT>
0

> <PUBCHEM_COMPONENT_COUNT>
1

> <PUBCHEM_CACTVS_TAUTO_COUNT>
2

> <PUBCHEM_CONFORMER_ID>
0001E2CA00000001

> <PUBCHEM_MMFF94_ENERGY>
18.6431

> <PUBCHEM_FEATURE_SELFOVERLAP>
20.297

> <PUBCHEM_SHAPE_FINGERPRINT>
10219947 1 18409729569080279142
10857977 72 18201719535320918761
12032990 46 18340477954644819682
12138202 97 16988576701251529431
12897270 3 18412835689349638293
12932764 1 17967252017903197241
14128692 85 17895490119663196623
14325111 11 18410575058956760572
16945 1 18411419509804213974
20201158 50 18202004356219681531
21040471 1 18267022743725316268
23402655 69 18194984035249836069
23552423 10 17983009239532197302
2748010 2 18123467177076963462
29004967 10 18343295993966264161
5084963 1 18186811248617474317

> <PUBCHEM_SHAPE_MULTIPOLES>
194.94
4.39
1.25
0.87
0.13
0.09
0
-0.37
0.2
-0.41
0.01
0.76
-0.06
-0.06

> <PUBCHEM_SHAPE_SELFOVERLAP>
399.551

> <PUBCHEM_SHAPE_VOLUME>
113.7

> <PUBCHEM_COORDINATE_TYPE>
2
5
10

$$$$

