442936
  -OEChem-07051213003D

 37 39  0     1  0  0  0  0  0999 V2000
   -3.6053    1.9728   -0.5508 O   0  0  0  0  0  0  0  0  0  0  0  0
   -1.2767   -1.2462    0.3563 N   0  0  3  0  0  0  0  0  0  0  0  0
    2.7707   -0.8996   -1.0131 N   0  0  0  0  0  0  0  0  0  0  0  0
    0.7912   -0.1175    0.0599 C   0  0  2  0  0  0  0  0  0  0  0  0
   -0.6534    0.1387    0.3811 C   0  0  1  0  0  0  0  0  0  0  0  0
    1.1552   -2.3263    0.5098 C   0  0  1  0  0  0  0  0  0  0  0  0
    1.3190   -1.0060    1.2012 C   0  0  0  0  0  0  0  0  0  0  0  0
    1.9435    0.3476   -0.7963 C   0  0  1  0  0  0  0  0  0  0  0  0
   -0.4145   -2.5083    0.3393 C   0  0  0  0  0  0  0  0  0  0  0  0
    2.0357   -2.2124   -0.8214 C   0  0  0  0  0  0  0  0  0  0  0  0
   -1.3816    1.0496   -0.6050 C   0  0  0  0  0  0  0  0  0  0  0  0
    2.7537    1.4743   -0.1710 C   0  0  0  0  0  0  0  0  0  0  0  0
   -2.6557   -1.3270    0.2829 C   0  0  0  0  0  0  0  0  0  0  0  0
   -2.8825    0.9956   -0.3693 C   0  0  0  0  0  0  0  0  0  0  0  0
   -3.4830   -0.3149   -0.0001 C   0  0  0  0  0  0  0  0  0  0  0  0
    1.9250    2.7105    0.0053 C   0  0  0  0  0  0  0  0  0  0  0  0
    1.6587    3.2691    1.1913 C   0  0  0  0  0  0  0  0  0  0  0  0
    0.4498   -0.7009   -0.8169 H   0  0  0  0  0  0  0  0  0  0  0  0
   -0.7700    0.5528    1.3916 H   0  0  0  0  0  0  0  0  0  0  0  0
    1.5477   -3.1508    1.1155 H   0  0  0  0  0  0  0  0  0  0  0  0
    0.7326   -0.9477    2.1264 H   0  0  0  0  0  0  0  0  0  0  0  0
    2.3542   -0.8082    1.4975 H   0  0  0  0  0  0  0  0  0  0  0  0
    1.5869    0.6761   -1.7831 H   0  0  0  0  0  0  0  0  0  0  0  0
   -0.6195   -3.0650   -0.5825 H   0  0  0  0  0  0  0  0  0  0  0  0
   -0.7590   -3.1292    1.1763 H   0  0  0  0  0  0  0  0  0  0  0  0
    2.7957   -3.0025   -0.7974 H   0  0  0  0  0  0  0  0  0  0  0  0
    1.4222   -2.4145   -1.7080 H   0  0  0  0  0  0  0  0  0  0  0  0
    3.5561   -0.8869   -0.3614 H   0  0  0  0  0  0  0  0  0  0  0  0
   -1.2012    0.7543   -1.6453 H   0  0  0  0  0  0  0  0  0  0  0  0
   -1.0428    2.0827   -0.4766 H   0  0  0  0  0  0  0  0  0  0  0  0
    3.5987    1.7232   -0.8255 H   0  0  0  0  0  0  0  0  0  0  0  0
    3.1931    1.1670    0.7856 H   0  0  0  0  0  0  0  0  0  0  0  0
   -3.0420   -2.3215    0.4764 H   0  0  0  0  0  0  0  0  0  0  0  0
   -4.5590   -0.4282   -0.0232 H   0  0  0  0  0  0  0  0  0  0  0  0
    1.5283    3.1792   -0.8916 H   0  0  0  0  0  0  0  0  0  0  0  0
    1.0541    4.1673    1.2515 H   0  0  0  0  0  0  0  0  0  0  0  0
    2.0320    2.8429    2.1157 H   0  0  0  0  0  0  0  0  0  0  0  0
  1 14  2  0  0  0  0
  2  5  1  0  0  0  0
  2  9  1  0  0  0  0
  2 13  1  0  0  0  0
  3  8  1  0  0  0  0
  3 10  1  0  0  0  0
  3 28  1  0  0  0  0
  4  5  1  0  0  0  0
  4  7  1  0  0  0  0
  4  8  1  0  0  0  0
  4 18  1  0  0  0  0
  5 11  1  0  0  0  0
  5 19  1  0  0  0  0
  6  7  1  0  0  0  0
  6  9  1  0  0  0  0
  6 10  1  0  0  0  0
  6 20  1  0  0  0  0
  7 21  1  0  0  0  0
  7 22  1  0  0  0  0
  8 12  1  0  0  0  0
  8 23  1  0  0  0  0
  9 24  1  0  0  0  0
  9 25  1  0  0  0  0
 10 26  1  0  0  0  0
 10 27  1  0  0  0  0
 11 14  1  0  0  0  0
 11 29  1  0  0  0  0
 11 30  1  0  0  0  0
 12 16  1  0  0  0  0
 12 31  1  0  0  0  0
 12 32  1  0  0  0  0
 13 15  2  0  0  0  0
 13 33  1  0  0  0  0
 14 15  1  0  0  0  0
 15 34  1  0  0  0  0
 16 17  2  0  0  0  0
 16 35  1  0  0  0  0
 17 36  1  0  0  0  0
 17 37  1  0  0  0  0
M  END
> <PUBCHEM_COMPOUND_CID>
442936

> <PUBCHEM_CONFORMER_RMSD>
0.6

> <PUBCHEM_CONFORMER_DIVERSEORDER>
1
2
3

> <PUBCHEM_MMFF94_PARTIAL_CHARGES>
20
1 -0.57
10 0.27
11 0.06
12 0.14
13 -0.05
14 0.49
15 -0.14
16 -0.29
17 -0.3
2 -0.84
28 0.36
3 -0.9
33 0.15
34 0.15
35 0.15
36 0.15
37 0.15
5 0.37
8 0.27
9 0.37

> <PUBCHEM_EFFECTIVE_ROTOR_COUNT>
3.2

> <PUBCHEM_PHARMACOPHORE_FEATURES>
8
1 1 acceptor
1 17 hydrophobe
1 2 cation
1 3 cation
1 3 donor
6 2 4 5 6 7 9 rings
6 2 5 11 13 14 15 rings
6 3 4 6 7 8 10 rings

> <PUBCHEM_HEAVY_ATOM_COUNT>
17

> <PUBCHEM_ATOM_DEF_STEREO_COUNT>
4

> <PUBCHEM_ATOM_UDEF_STEREO_COUNT>
0

> <PUBCHEM_BOND_DEF_STEREO_COUNT>
0

> <PUBCHEM_BOND_UDEF_STEREO_COUNT>
0

> <PUBCHEM_ISOTOPIC_ATOM_COUNT>
0

> <PUBCHEM_COMPONENT_COUNT>
1

> <PUBCHEM_CACTVS_TAUTO_COUNT>
2

> <PUBCHEM_CONFORMER_ID>
0006C23800000001

> <PUBCHEM_MMFF94_ENERGY>
114.624

> <PUBCHEM_FEATURE_SELFOVERLAP>
41.296

> <PUBCHEM_SHAPE_FINGERPRINT>
104564 63 17111004296872449066
10608611 8 18412262813800791685
10871710 139 15819310573666499156
10967382 1 18340485569384205325
116883 192 17325484904921840390
12403259 226 18048872996865803658
12403260 363 18194979447570232720
12423570 1 14813878362347717122
13140716 1 18343023336942475793
13464514 151 18410849984414403932
13897977 150 18338513019764811815
14250199 8 18408324393383602935
14648413 74 18410572902830242067
15490181 7 18340206267487185051
15775835 57 17916294107905515503
16945 1 18338792325656697346
17980427 23 17830781725522017059
18186145 218 18261379044791735321
18981168 100 17559977539555884477
20233049 118 18056758960427022262
21029758 11 18265047110630764206
21041028 32 17475216377101889531
21501502 16 18271530887602308655
21524375 3 18194403282160567346
220403 375 18048604720365830640
2334 1 18342175540357475589
23402539 116 17182225721118839462
23419403 2 16529130198043900982
238 59 18191894291141799717
25 1 18340761619822424612
2748010 2 17764010381606386442
2803657 2 17904470054397444992
5262128 65 17895739811612859239
539174 4 16694477011724264856
5939293 188 18339087110789636940
6438718 38 17030514501043639117
7364860 26 18409450301579634558
74978 22 18337672039646221687
7832392 63 18193558006790104325
81228 2 16824467684297803938
84936 182 18409169913166833665
90316 7 16607464762452732544

> <PUBCHEM_SHAPE_MULTIPOLES>
334.02
5.05
3.45
0.99
3.35
0.84
-0.08
2.23
0.78
-1.75
-0.52
-0.44
0.02
1

> <PUBCHEM_SHAPE_SELFOVERLAP>
697.037

> <PUBCHEM_SHAPE_VOLUME>
186.4

> <PUBCHEM_COORDINATE_TYPE>
2
5
10

$$$$

