5281639
  -OEChem-07051212583D

 30 32  0     0  0  0  0  0  0999 V2000
   -0.2607    1.4717    0.1315 O   0  0  0  0  0  0  0  0  0  0  0  0
    4.4665    1.2350    0.2849 O   0  0  0  0  0  0  0  0  0  0  0  0
   -0.5688   -2.6024   -0.0908 O   0  0  0  0  0  0  0  0  0  0  0  0
   -3.1939   -2.3924   -0.1735 O   0  0  0  0  0  0  0  0  0  0  0  0
    4.3764   -1.5372    0.1371 O   0  0  0  0  0  0  0  0  0  0  0  0
   -4.9697    2.0075   -0.0078 O   0  0  0  0  0  0  0  0  0  0  0  0
    0.8161   -0.7189    0.0553 C   0  0  0  0  0  0  0  0  0  0  0  0
   -1.6772   -0.5117   -0.0219 C   0  0  0  0  0  0  0  0  0  0  0  0
    0.8564    0.6732    0.1292 C   0  0  0  0  0  0  0  0  0  0  0  0
   -1.4919    0.8683    0.0566 C   0  0  0  0  0  0  0  0  0  0  0  0
   -0.4932   -1.3844   -0.0255 C   0  0  0  0  0  0  0  0  0  0  0  0
    1.9979   -1.4646    0.0580 C   0  0  0  0  0  0  0  0  0  0  0  0
   -2.9636   -1.0523   -0.0957 C   0  0  0  0  0  0  0  0  0  0  0  0
    2.0887    1.3255    0.2064 C   0  0  0  0  0  0  0  0  0  0  0  0
   -2.6020    1.7154    0.0614 C   0  0  0  0  0  0  0  0  0  0  0  0
    3.2714    0.5852    0.2093 C   0  0  0  0  0  0  0  0  0  0  0  0
    3.2258   -0.8071    0.1353 C   0  0  0  0  0  0  0  0  0  0  0  0
   -4.0687   -0.2009   -0.0905 C   0  0  0  0  0  0  0  0  0  0  0  0
   -3.8886    1.1802   -0.0121 C   0  0  0  0  0  0  0  0  0  0  0  0
    5.0792    1.6100   -0.9471 C   0  0  0  0  0  0  0  0  0  0  0  0
    1.9686   -2.5496    0.0003 H   0  0  0  0  0  0  0  0  0  0  0  0
    2.1280    2.4107    0.2649 H   0  0  0  0  0  0  0  0  0  0  0  0
   -2.4664    2.7925    0.1222 H   0  0  0  0  0  0  0  0  0  0  0  0
   -5.0708   -0.6197   -0.1479 H   0  0  0  0  0  0  0  0  0  0  0  0
   -2.3567   -2.8813   -0.1694 H   0  0  0  0  0  0  0  0  0  0  0  0
    4.1531   -2.4820    0.0793 H   0  0  0  0  0  0  0  0  0  0  0  0
   -5.7784    1.4701   -0.0646 H   0  0  0  0  0  0  0  0  0  0  0  0
    4.4388    2.3067   -1.4973 H   0  0  0  0  0  0  0  0  0  0  0  0
    5.2868    0.7267   -1.5595 H   0  0  0  0  0  0  0  0  0  0  0  0
    6.0256    2.1090   -0.7213 H   0  0  0  0  0  0  0  0  0  0  0  0
  1  9  1  0  0  0  0
  1 10  1  0  0  0  0
  2 16  1  0  0  0  0
  2 20  1  0  0  0  0
  3 11  2  0  0  0  0
  4 13  1  0  0  0  0
  4 25  1  0  0  0  0
  5 17  1  0  0  0  0
  5 26  1  0  0  0  0
  6 19  1  0  0  0  0
  6 27  1  0  0  0  0
  7  9  1  0  0  0  0
  7 11  1  0  0  0  0
  7 12  2  0  0  0  0
  8 10  1  0  0  0  0
  8 11  1  0  0  0  0
  8 13  2  0  0  0  0
  9 14  2  0  0  0  0
 10 15  2  0  0  0  0
 12 17  1  0  0  0  0
 12 21  1  0  0  0  0
 13 18  1  0  0  0  0
 14 16  1  0  0  0  0
 14 22  1  0  0  0  0
 15 19  1  0  0  0  0
 15 23  1  0  0  0  0
 16 17  2  0  0  0  0
 18 19  2  0  0  0  0
 18 24  1  0  0  0  0
 20 28  1  0  0  0  0
 20 29  1  0  0  0  0
 20 30  1  0  0  0  0
M  END
> <PUBCHEM_COMPOUND_CID>
5281639

> <PUBCHEM_CONFORMER_RMSD>
0.6

> <PUBCHEM_CONFORMER_DIVERSEORDER>
1

> <PUBCHEM_MMFF94_PARTIAL_CHARGES>
27
1 -0.17
10 0.08
11 0.4
12 -0.15
13 0.08
14 -0.15
15 -0.15
16 0.08
17 0.08
18 -0.15
19 0.08
2 -0.36
20 0.28
21 0.15
22 0.15
23 0.15
24 0.15
25 0.45
26 0.45
27 0.45
3 -0.57
4 -0.53
5 -0.53
6 -0.53
7 0.09
8 0.09
9 0.08

> <PUBCHEM_EFFECTIVE_ROTOR_COUNT>
1

> <PUBCHEM_PHARMACOPHORE_FEATURES>
9
1 1 acceptor
1 2 acceptor
1 3 acceptor
1 4 donor
1 5 donor
1 6 donor
6 1 7 8 9 10 11 rings
6 7 9 12 14 16 17 rings
6 8 10 13 15 18 19 rings

> <PUBCHEM_HEAVY_ATOM_COUNT>
20

> <PUBCHEM_ATOM_DEF_STEREO_COUNT>
0

> <PUBCHEM_ATOM_UDEF_STEREO_COUNT>
0

> <PUBCHEM_BOND_DEF_STEREO_COUNT>
0

> <PUBCHEM_BOND_UDEF_STEREO_COUNT>
0

> <PUBCHEM_ISOTOPIC_ATOM_COUNT>
0

> <PUBCHEM_COMPONENT_COUNT>
1

> <PUBCHEM_CACTVS_TAUTO_COUNT>
36

> <PUBCHEM_CONFORMER_ID>
0050976700000001

> <PUBCHEM_MMFF94_ENERGY>
70.7234

> <PUBCHEM_FEATURE_SELFOVERLAP>
45.726

> <PUBCHEM_SHAPE_FINGERPRINT>
10062212 137 18337121132549457515
10411042 1 17401768523594317414
10498660 4 18410290311383983396
10608611 8 18408609140692928288
10616163 171 18337670789499911590
10967382 1 18265616657284472571
11132069 177 18410017653858697217
11471102 20 18409172138096672564
12390115 104 18261374668647718673
12403259 415 18114181878410589360
12403814 3 17632303358427811029
12788726 201 17604703499099529081
13140716 1 18410860996504731931
13760787 19 18412543206419265996
14790565 3 18192423285095120497
15196674 1 18410575093258392234
15442244 35 18410859901536075482
15536298 74 18335422382984319882
16945 1 18193563259255474075
17492 89 18410857646373095394
18186145 218 18130513014980875790
200 152 17822018614023069189
20510252 161 18261109660285184865
20645477 70 18334858363557973678
21267235 1 18410285938927992907
21501502 16 18411141333494437370
221490 88 18411413973686523066
2334 1 18409732828992202779
23366157 5 18058729238383762594
23402539 116 18261402147447213996
23402655 69 18335141998607666084
23463225 33 18412546539076465378
23557571 272 18188198802132050294
23559900 14 18261677086169859402
245318 6 16697501695467514324
2748010 2 18409448077034625023
296302 2 17989488506729922404
3004659 81 18340767135277922230
335352 9 18265898132182146726
34934 24 18412268345533987681
350125 39 18338513037482744809
3545911 37 18409446981475261528
4214541 1 18410294717803910832
474 4 17560796568597920708
495365 180 17313402114351938320
4990 188 18040423387820001220
5104073 3 18411420613478999682
633830 44 17988925582683623970
69090 78 18408890650145363251
7364860 26 18046909556777554247
77779 3 18411136935310620282
9709674 26 18409726223338211518

> <PUBCHEM_SHAPE_MULTIPOLES>
376.37
9.46
2.39
0.65
2.87
0.61
0.04
-3.6
0.86
-0.7
0.11
0.26
-0.08
-0.45

> <PUBCHEM_SHAPE_SELFOVERLAP>
846.567

> <PUBCHEM_SHAPE_VOLUME>
198.8

> <PUBCHEM_COORDINATE_TYPE>
2
5
10

$$$$

