9792
  -OEChem-06261204042D

 59 62  0     1  0  0  0  0  0999 V2000
    5.0182    0.3722    0.0000 F   0  0  0  0  0  0  0  0  0  0  0  0
    8.0319    1.8625    0.0000 O   0  0  0  0  0  0  0  0  0  0  0  0
    4.7950    1.1062    0.0000 O   0  0  0  0  0  0  0  0  0  0  0  0
    9.0465    2.4920    0.0000 O   0  0  0  0  0  0  0  0  0  0  0  0
    2.0000   -2.4462    0.0000 O   0  0  0  0  0  0  0  0  0  0  0  0
   10.8722    1.6754    0.0000 O   0  0  0  0  0  0  0  0  0  0  0  0
    7.3931    0.6062    0.0000 C   0  0  1  0  0  0  0  0  0  0  0  0
    7.3931   -0.3938    0.0000 C   0  0  2  0  0  0  0  0  0  0  0  0
    6.5271   -0.8938    0.0000 C   0  0  1  0  0  0  0  0  0  0  0  0
    5.6610   -0.3938    0.0000 C   0  0  2  0  0  0  0  0  0  0  0  0
    4.7510   -0.9007    0.0000 C   0  0  2  0  0  0  0  0  0  0  0  0
    8.3393    0.9109    0.0000 C   0  0  1  0  0  0  0  0  0  0  0  0
    6.5271    1.1062    0.0000 C   0  0  0  0  0  0  0  0  0  0  0  0
    5.6610    0.6062    0.0000 C   0  0  2  0  0  0  0  0  0  0  0  0
    8.3393   -0.6986    0.0000 C   0  0  0  0  0  0  0  0  0  0  0  0
    8.9229    0.1062    0.0000 C   0  0  0  0  0  0  0  0  0  0  0  0
    6.5431   -1.9353    0.0000 C   0  0  0  0  0  0  0  0  0  0  0  0
    4.7430   -1.9423    0.0000 C   0  0  0  0  0  0  0  0  0  0  0  0
    7.3931    1.6062    0.0000 C   0  0  0  0  0  0  0  0  0  0  0  0
    5.6451   -2.4631    0.0000 C   0  0  0  0  0  0  0  0  0  0  0  0
    3.8242   -0.3366    0.0000 C   0  0  0  0  0  0  0  0  0  0  0  0
    4.4163    0.0416    0.0000 C   0  0  0  0  0  0  0  0  0  0  0  0
    9.1493    1.4973    0.0000 C   0  0  0  0  0  0  0  0  0  0  0  0
    2.8763   -0.8645    0.0000 C   0  0  3  0  0  0  0  0  0  0  0  0
    3.8076   -2.4920    0.0000 C   0  0  0  0  0  0  0  0  0  0  0  0
    2.8680   -1.9495    0.0000 C   0  0  0  0  0  0  0  0  0  0  0  0
   10.0622    1.0890    0.0000 C   0  0  0  0  0  0  0  0  0  0  0  0
    2.0161   -0.3546    0.0000 C   0  0  0  0  0  0  0  0  0  0  0  0
    7.4830   -1.2390    0.0000 H   0  0  0  0  0  0  0  0  0  0  0  0
    7.2664   -1.3131    0.0000 H   0  0  0  0  0  0  0  0  0  0  0  0
    6.9256    1.5811    0.0000 H   0  0  0  0  0  0  0  0  0  0  0  0
    6.1285    1.5811    0.0000 H   0  0  0  0  0  0  0  0  0  0  0  0
    5.6610    1.2262    0.0000 H   0  0  0  0  0  0  0  0  0  0  0  0
    8.0883   -1.2655    0.0000 H   0  0  0  0  0  0  0  0  0  0  0  0
    8.8767   -1.0078    0.0000 H   0  0  0  0  0  0  0  0  0  0  0  0
    9.3838   -0.3086    0.0000 H   0  0  0  0  0  0  0  0  0  0  0  0
    9.3838    0.5209    0.0000 H   0  0  0  0  0  0  0  0  0  0  0  0
    6.7612   -2.5157    0.0000 H   0  0  0  0  0  0  0  0  0  0  0  0
    7.1523   -1.8198    0.0000 H   0  0  0  0  0  0  0  0  0  0  0  0
    8.0131    1.6062    0.0000 H   0  0  0  0  0  0  0  0  0  0  0  0
    7.3931    2.2262    0.0000 H   0  0  0  0  0  0  0  0  0  0  0  0
    6.7731    1.6062    0.0000 H   0  0  0  0  0  0  0  0  0  0  0  0
    5.2478   -2.9390    0.0000 H   0  0  0  0  0  0  0  0  0  0  0  0
    6.0460   -2.9360    0.0000 H   0  0  0  0  0  0  0  0  0  0  0  0
    4.2324    0.1301    0.0000 H   0  0  0  0  0  0  0  0  0  0  0  0
    3.4343    0.1455    0.0000 H   0  0  0  0  0  0  0  0  0  0  0  0
    5.0005    0.2492    0.0000 H   0  0  0  0  0  0  0  0  0  0  0  0
    4.2087    0.6259    0.0000 H   0  0  0  0  0  0  0  0  0  0  0  0
    3.8320   -0.1659    0.0000 H   0  0  0  0  0  0  0  0  0  0  0  0
    2.8878   -0.0146    0.0000 H   0  0  0  0  0  0  0  0  0  0  0  0
    8.4476    2.3225    0.0000 H   0  0  0  0  0  0  0  0  0  0  0  0
    3.8100   -3.1120    0.0000 H   0  0  0  0  0  0  0  0  0  0  0  0
    4.7950    1.7262    0.0000 H   0  0  0  0  0  0  0  0  0  0  0  0
    9.7146    0.5756    0.0000 H   0  0  0  0  0  0  0  0  0  0  0  0
   10.5074    0.6575    0.0000 H   0  0  0  0  0  0  0  0  0  0  0  0
    2.3323    0.1788    0.0000 H   0  0  0  0  0  0  0  0  0  0  0  0
    1.4828   -0.0384    0.0000 H   0  0  0  0  0  0  0  0  0  0  0  0
    1.6999   -0.8879    0.0000 H   0  0  0  0  0  0  0  0  0  0  0  0
   11.4382    1.4222    0.0000 H   0  0  0  0  0  0  0  0  0  0  0  0
 10  1  1  6  0  0  0
 12  2  1  6  0  0  0
  2 51  1  0  0  0  0
 14  3  1  1  0  0  0
  3 53  1  0  0  0  0
  4 23  2  0  0  0  0
  5 26  2  0  0  0  0
  6 27  1  0  0  0  0
  6 59  1  0  0  0  0
  7  8  1  0  0  0  0
  7 12  1  0  0  0  0
  7 13  1  0  0  0  0
  7 19  1  1  0  0  0
  8  9  1  0  0  0  0
  8 15  1  0  0  0  0
  8 29  1  6  0  0  0
  9 10  1  0  0  0  0
  9 17  1  0  0  0  0
  9 30  1  1  0  0  0
 10 11  1  0  0  0  0
 10 14  1  0  0  0  0
 11 18  1  0  0  0  0
 11 21  1  0  0  0  0
 11 22  1  1  0  0  0
 12 16  1  0  0  0  0
 12 23  1  0  0  0  0
 13 14  1  0  0  0  0
 13 31  1  0  0  0  0
 13 32  1  0  0  0  0
 14 33  1  0  0  0  0
 15 16  1  0  0  0  0
 15 34  1  0  0  0  0
 15 35  1  0  0  0  0
 16 36  1  0  0  0  0
 16 37  1  0  0  0  0
 17 20  1  0  0  0  0
 17 38  1  0  0  0  0
 17 39  1  0  0  0  0
 18 20  1  0  0  0  0
 18 25  2  0  0  0  0
 19 40  1  0  0  0  0
 19 41  1  0  0  0  0
 19 42  1  0  0  0  0
 20 43  1  0  0  0  0
 20 44  1  0  0  0  0
 21 24  1  0  0  0  0
 21 45  1  0  0  0  0
 21 46  1  0  0  0  0
 22 47  1  0  0  0  0
 22 48  1  0  0  0  0
 22 49  1  0  0  0  0
 23 27  1  0  0  0  0
 24 26  1  0  0  0  0
 24 28  1  0  0  0  0
 24 50  1  0  0  0  0
 25 26  1  0  0  0  0
 25 52  1  0  0  0  0
 27 54  1  0  0  0  0
 27 55  1  0  0  0  0
 28 56  1  0  0  0  0
 28 57  1  0  0  0  0
 28 58  1  0  0  0  0
M  END
> <PUBCHEM_COMPOUND_CID>
9792

> <PUBCHEM_COMPOUND_CANONICALIZED>
1

> <PUBCHEM_CACTVS_COMPLEXITY>
764

> <PUBCHEM_CACTVS_HBOND_ACCEPTOR>
6

> <PUBCHEM_CACTVS_HBOND_DONOR>
3

> <PUBCHEM_CACTVS_ROTATABLE_BOND>
2

> <PUBCHEM_CACTVS_SUBSKEYS>
AAADceB4OQAAAAAAAAAAAAAAAAAAAYAAAAAwYIAAAAAAAGDAAAAAGwAACAAAD1SggAICAAAAAgCIAqBSAAIAAAAgAAAACAFAAEgAEBIAAQAAQAAFgAAIAQPIzPDPgAAAAAAAAADAAAYAADAAAYAADAAAAA==

> <PUBCHEM_IUPAC_OPENEYE_NAME>
(8S,9R,10S,11S,13S,14S,17R)-9-fluoro-11,17-dihydroxy-17-(2-hydroxyacetyl)-2,10,13-trimethyl-1,2,6,7,8,11,12,14,15,16-decahydrocyclopenta[a]phenanthren-3-one

> <PUBCHEM_IUPAC_CAS_NAME>
(8S,9R,10S,11S,13S,14S,17R)-9-fluoro-11,17-dihydroxy-17-(2-hydroxy-1-oxoethyl)-2,10,13-trimethyl-1,2,6,7,8,11,12,14,15,16-decahydrocyclopenta[a]phenanthren-3-one

> <PUBCHEM_IUPAC_NAME>
(8S,9R,10S,11S,13S,14S,17R)-9-fluoro-11,17-dihydroxy-17-(2-hydroxyacetyl)-2,10,13-trimethyl-1,2,6,7,8,11,12,14,15,16-decahydrocyclopenta[a]phenanthren-3-one

> <PUBCHEM_IUPAC_SYSTEMATIC_NAME>
(8S,9R,10S,11S,13S,14S,17R)-9-fluoranyl-2,10,13-trimethyl-11,17-bis(oxidanyl)-17-(2-oxidanylethanoyl)-1,2,6,7,8,11,12,14,15,16-decahydrocyclopenta[a]phenanthren-3-one

> <PUBCHEM_IUPAC_TRADITIONAL_NAME>
(8S,9R,10S,11S,13S,14S,17R)-9-fluoro-17-glycoloyl-11,17-dihydroxy-2,10,13-trimethyl-1,2,6,7,8,11,12,14,15,16-decahydrocyclopenta[a]phenanthren-3-one

> <PUBCHEM_IUPAC_INCHI>
InChI=1S/C22H31FO5/c1-12-9-19(2)13(8-16(12)25)4-5-15-14-6-7-21(28,18(27)11-24)20(14,3)10-17(26)22(15,19)23/h8,12,14-15,17,24,26,28H,4-7,9-11H2,1-3H3/t12?,14-,15-,17-,19-,20-,21-,22-/m0/s1

> <PUBCHEM_IUPAC_INCHIKEY>
YUCOGNZKLOYCGL-NILRIRHTSA-N

> <PUBCHEM_XLOGP3>
2.2

> <PUBCHEM_EXACT_MASS>
394.215552

> <PUBCHEM_MOLECULAR_FORMULA>
C22H31FO5

> <PUBCHEM_MOLECULAR_WEIGHT>
394.476943

> <PUBCHEM_OPENEYE_CAN_SMILES>
CC1CC2(C(=CC1=O)CCC3C2(C(CC4(C3CCC4(C(=O)CO)O)C)O)F)C

> <PUBCHEM_OPENEYE_ISO_SMILES>
CC1C[C@]2(C(=CC1=O)CC[C@@H]3[C@@]2([C@H](C[C@]4([C@H]3CC[C@@]4(C(=O)CO)O)C)O)F)C

> <PUBCHEM_CACTVS_TPSA>
94.8

> <PUBCHEM_MONOISOTOPIC_WEIGHT>
394.215552

> <PUBCHEM_TOTAL_CHARGE>
0

> <PUBCHEM_HEAVY_ATOM_COUNT>
28

> <PUBCHEM_ATOM_DEF_STEREO_COUNT>
7

> <PUBCHEM_ATOM_UDEF_STEREO_COUNT>
1

> <PUBCHEM_BOND_DEF_STEREO_COUNT>
0

> <PUBCHEM_BOND_UDEF_STEREO_COUNT>
0

> <PUBCHEM_ISOTOPIC_ATOM_COUNT>
0

> <PUBCHEM_COMPONENT_COUNT>
1

> <PUBCHEM_CACTVS_TAUTO_COUNT>
15

> <PUBCHEM_COORDINATE_TYPE>
1
5
255

> <PUBCHEM_BONDANNOTATIONS>
10  1  6
11  22  5
12  2  6
24  50  3
14  3  5
7  19  5
8  29  6
9  30  5

$$$$

