7846928
  -OEChem-06241222463D

 41 44  0     0  0  0  0  0  0999 V2000
    2.5501   -2.4599    1.0571 S   0  0  0  0  0  0  0  0  0  0  0  0
    2.4714    1.5807   -0.0844 O   0  0  0  0  0  0  0  0  0  0  0  0
   -0.5497    1.5028    0.6015 O   0  0  0  0  0  0  0  0  0  0  0  0
    4.2975    1.8908    1.2908 O   0  0  0  0  0  0  0  0  0  0  0  0
    2.0692   -1.2070   -1.1455 N   0  0  0  0  0  0  0  0  0  0  0  0
   -0.1736    3.3087   -0.6641 N   0  0  0  0  0  0  0  0  0  0  0  0
   -1.4811    2.9091   -0.8679 N   0  0  0  0  0  0  0  0  0  0  0  0
    4.3940   -0.9726   -0.3449 C   0  0  0  0  0  0  0  0  0  0  0  0
    4.4643    0.5213   -0.7124 C   0  0  0  0  0  0  0  0  0  0  0  0
    3.0040   -1.4711   -0.2627 C   0  0  0  0  0  0  0  0  0  0  0  0
    0.9523   -2.5633    0.4172 C   0  0  0  0  0  0  0  0  0  0  0  0
    0.8864   -1.8266   -0.7692 C   0  0  0  0  0  0  0  0  0  0  0  0
    3.7721    1.4094    0.2965 C   0  0  0  0  0  0  0  0  0  0  0  0
   -0.1626   -3.2470    0.9285 C   0  0  0  0  0  0  0  0  0  0  0  0
   -0.3399   -1.7741   -1.4668 C   0  0  0  0  0  0  0  0  0  0  0  0
    1.6793    2.4026    0.7790 C   0  0  0  0  0  0  0  0  0  0  0  0
   -1.3640   -3.1787    0.2187 C   0  0  0  0  0  0  0  0  0  0  0  0
   -1.4537   -2.4523   -0.9636 C   0  0  0  0  0  0  0  0  0  0  0  0
    0.3047    2.4610    0.1891 C   0  0  0  0  0  0  0  0  0  0  0  0
   -2.8128    1.0258    0.0818 C   0  0  0  0  0  0  0  0  0  0  0  0
   -1.6564    1.8521   -0.1097 C   0  0  0  0  0  0  0  0  0  0  0  0
   -3.8398    1.0187   -0.8684 C   0  0  0  0  0  0  0  0  0  0  0  0
   -2.9250    0.2202    1.2204 C   0  0  0  0  0  0  0  0  0  0  0  0
   -4.9653    0.2161   -0.6823 C   0  0  0  0  0  0  0  0  0  0  0  0
   -4.0506   -0.5824    1.4063 C   0  0  0  0  0  0  0  0  0  0  0  0
   -5.0708   -0.5843    0.4549 C   0  0  0  0  0  0  0  0  0  0  0  0
    4.9344   -1.5482   -1.1058 H   0  0  0  0  0  0  0  0  0  0  0  0
    4.9267   -1.1204    0.6028 H   0  0  0  0  0  0  0  0  0  0  0  0
    5.5117    0.8402   -0.7711 H   0  0  0  0  0  0  0  0  0  0  0  0
    4.0382    0.7058   -1.7065 H   0  0  0  0  0  0  0  0  0  0  0  0
   -0.1002   -3.8154    1.8514 H   0  0  0  0  0  0  0  0  0  0  0  0
   -0.4220   -1.2075   -2.3900 H   0  0  0  0  0  0  0  0  0  0  0  0
    1.6456    1.9672    1.7839 H   0  0  0  0  0  0  0  0  0  0  0  0
    2.1044    3.4110    0.8255 H   0  0  0  0  0  0  0  0  0  0  0  0
   -2.2396   -3.6993    0.5977 H   0  0  0  0  0  0  0  0  0  0  0  0
   -2.3970   -2.4091   -1.5011 H   0  0  0  0  0  0  0  0  0  0  0  0
   -3.7776    1.6333   -1.7637 H   0  0  0  0  0  0  0  0  0  0  0  0
   -2.1506    0.2021    1.9837 H   0  0  0  0  0  0  0  0  0  0  0  0
   -5.7592    0.2136   -1.4234 H   0  0  0  0  0  0  0  0  0  0  0  0
   -4.1331   -1.2060    2.2917 H   0  0  0  0  0  0  0  0  0  0  0  0
   -5.9468   -1.2098    0.5995 H   0  0  0  0  0  0  0  0  0  0  0  0
  1 10  1  0  0  0  0
  1 11  1  0  0  0  0
  2 13  1  0  0  0  0
  2 16  1  0  0  0  0
  3 19  1  0  0  0  0
  3 21  1  0  0  0  0
  4 13  2  0  0  0  0
  5 10  2  0  0  0  0
  5 12  1  0  0  0  0
  6  7  1  0  0  0  0
  6 19  2  0  0  0  0
  7 21  2  0  0  0  0
  8  9  1  0  0  0  0
  8 10  1  0  0  0  0
  8 27  1  0  0  0  0
  8 28  1  0  0  0  0
  9 13  1  0  0  0  0
  9 29  1  0  0  0  0
  9 30  1  0  0  0  0
 11 12  1  0  0  0  0
 11 14  2  0  0  0  0
 12 15  2  0  0  0  0
 14 17  1  0  0  0  0
 14 31  1  0  0  0  0
 15 18  1  0  0  0  0
 15 32  1  0  0  0  0
 16 19  1  0  0  0  0
 16 33  1  0  0  0  0
 16 34  1  0  0  0  0
 17 18  2  0  0  0  0
 17 35  1  0  0  0  0
 18 36  1  0  0  0  0
 20 21  1  0  0  0  0
 20 22  2  0  0  0  0
 20 23  1  0  0  0  0
 22 24  1  0  0  0  0
 22 37  1  0  0  0  0
 23 25  2  0  0  0  0
 23 38  1  0  0  0  0
 24 26  2  0  0  0  0
 24 39  1  0  0  0  0
 25 26  1  0  0  0  0
 25 40  1  0  0  0  0
 26 41  1  0  0  0  0
M  END
> <PUBCHEM_COMPOUND_CID>
7846928

> <PUBCHEM_CONFORMER_RMSD>
1

> <PUBCHEM_CONFORMER_DIVERSEORDER>
1
16
255
294
351
340
192
8
319
124
166
224
9
132
379
228
271
322
181
5
298
261
54
215
308
148
57
104
159
309
59
378
368
281
53
358
48
388
250
82
313
325
142
167
392
70
27
334
33
275
338
154
297
44
147
303
363
2
14
113
286
60
49
262
264
151
356
203
162
375
26
321
302
344
58
43
90
206
381
79
176
332
34
76
102
307
208
160
32
51
259
253
45
163
61
119
389
329
127
129
31
105
263
171
209
7
69
168
230
13
362
37
291
118
274
71
316
98
197
359
158
244
18
293
189
22
219
103
41
232
136
85
135
190
223
369
367
139
296
324
28
35
310
169
134
343
335
180
84
11
17
227
360
111
300
65
42
345
270
280
24
235
80
272
177
36
372
38
328
339
236
364
123
64
210
153
195
387
184
305
30
269
341
249
287
133
320
205
72
46
19
174
156
200
301
352
15
130
99
337
380
21
66
391
23
143
225
116
254
25
110
137
39
3
144
204
157
231
88
164
256
299
386
67
336
4
125
237
117
128
211
40
146
50
83
315
73
266
81
317
383
186
194
327
101
279
185
175
318
331
199
52
93
78
283
365
207
92
382
370
141
145
100
239
193
198
122
56
285
165
68
393
212
187
371
257
276
96
29
355
243
238
6
222
10
312
152
12
240
74
273
260
357
114
347
251
229
220
112
95
94
217
150
353
107
290
373
348
326
106
242
172
288
109
155
161
138
55
234
63
91
202
75
366
191
77
214
89
20
350
346
226
252
47
188
182
120
361
121
289
115
314
390
97
201
311
87
108
233
170
384
349
178
196
131
140
354
258
241
126
221
247
278
295
306
183
179
385
218
374
268
62
86
277
216
265
248
323
282
304
149
267
173
376
330
246
342
245
213
284
292
333
377

> <PUBCHEM_MMFF94_PARTIAL_CHARGES>
35
1 -0.08
10 0.2
11 0.04
12 0.23
13 0.66
14 -0.15
15 -0.15
16 0.46
17 -0.15
18 -0.15
19 0.3
2 -0.43
20 0.05
21 0.43
22 -0.15
23 -0.15
24 -0.15
25 -0.15
26 -0.15
3 -0.28
31 0.15
32 0.15
35 0.15
36 0.15
37 0.15
38 0.15
39 0.15
4 -0.57
40 0.15
41 0.15
5 -0.57
6 -0.34
7 -0.34
8 0.18
9 0.06

> <PUBCHEM_EFFECTIVE_ROTOR_COUNT>
7

> <PUBCHEM_PHARMACOPHORE_FEATURES>
6
1 4 acceptor
1 5 acceptor
5 1 5 10 11 12 rings
5 3 6 7 19 21 rings
6 11 12 14 15 17 18 rings
6 20 22 23 24 25 26 rings

> <PUBCHEM_HEAVY_ATOM_COUNT>
26

> <PUBCHEM_ATOM_DEF_STEREO_COUNT>
0

> <PUBCHEM_ATOM_UDEF_STEREO_COUNT>
0

> <PUBCHEM_BOND_DEF_STEREO_COUNT>
0

> <PUBCHEM_BOND_UDEF_STEREO_COUNT>
0

> <PUBCHEM_ISOTOPIC_ATOM_COUNT>
0

> <PUBCHEM_COMPONENT_COUNT>
1

> <PUBCHEM_CACTVS_TAUTO_COUNT>
2

> <PUBCHEM_CONFORMER_ID>
0077BC1000000001

> <PUBCHEM_MMFF94_ENERGY>
41.1177

> <PUBCHEM_FEATURE_SELFOVERLAP>
30.517

> <PUBCHEM_SHAPE_FINGERPRINT>
10816530 23 16371859422298727204
108634 29 18335972139072859246
1100329 8 18339075973870632860
11112241 14 17024891254881349129
12422481 6 18191329142449803898
12645989 146 18189048849549861470
13122387 1 18194962065684605058
13140716 1 18048602521153203920
13402501 40 18411133627980132593
14117953 113 17686346773289518647
14787075 74 18408882949253242607
14840074 17 18261106375115296653
17093844 170 18410015399317735280
17492 54 18411412925450622343
19591789 44 18337953492947668268
19930381 70 18340207509122935339
20715895 44 17266388328825878157
20905425 154 18267298927212680108
21197605 99 17974846173461451243
21585482 310 17271424818321365315
23227448 37 18336264535676902847
23559900 14 17836378411680311299
3052486 1 18197492922872552548
3298306 158 18341620312866327661
338550 245 18197776609356682629
392239 28 18411694417797372643
463206 1 18335986355372066357
469060 322 17773613632317391007
5309563 4 18411414004057430953
6287921 2 17242157158096583447
6438718 38 17896042031740714358

> <PUBCHEM_SHAPE_MULTIPOLES>
506.37
8.82
4.33
1.24
2.06
0.14
0.04
-1.48
0.55
-1.17
0.22
0.22
0.29
0.66

> <PUBCHEM_SHAPE_SELFOVERLAP>
1097.677

> <PUBCHEM_SHAPE_VOLUME>
279

> <PUBCHEM_COORDINATE_TYPE>
2
5
10

$$$$

