274476
  -OEChem-07051212463D

 28 29  0     1  0  0  0  0  0999 V2000
   -0.9162    1.1150   -0.0610 O   0  0  0  0  0  0  0  0  0  0  0  0
   -3.0359    0.3579   -0.2452 O   0  0  0  0  0  0  0  0  0  0  0  0
    1.0230   -0.3234   -0.5730 C   0  0  0  0  0  0  0  0  0  0  0  0
    0.4831    0.8558    0.2667 C   0  0  2  0  0  0  0  0  0  0  0  0
    0.1784   -1.4327    0.0944 C   0  0  1  0  0  0  0  0  0  0  0  0
    0.5206    0.3517    1.7234 C   0  0  0  0  0  0  0  0  0  0  0  0
    0.3444   -1.1674    1.6050 C   0  0  0  0  0  0  0  0  0  0  0  0
   -1.3004   -1.2923   -0.2745 C   0  0  0  0  0  0  0  0  0  0  0  0
    2.5339   -0.5831   -0.3795 C   0  0  0  0  0  0  0  0  0  0  0  0
    0.7835   -0.1792   -2.0864 C   0  0  0  0  0  0  0  0  0  0  0  0
    1.2191    2.1787    0.0988 C   0  0  0  0  0  0  0  0  0  0  0  0
   -1.8335    0.1192   -0.1686 C   0  0  0  0  0  0  0  0  0  0  0  0
    0.5265   -2.4396   -0.1618 H   0  0  0  0  0  0  0  0  0  0  0  0
   -0.2801    0.7877    2.3311 H   0  0  0  0  0  0  0  0  0  0  0  0
    1.4759    0.5735    2.2122 H   0  0  0  0  0  0  0  0  0  0  0  0
    1.2360   -1.6770    1.9885 H   0  0  0  0  0  0  0  0  0  0  0  0
   -0.5045   -1.5249    2.1974 H   0  0  0  0  0  0  0  0  0  0  0  0
   -1.9075   -1.9335    0.3752 H   0  0  0  0  0  0  0  0  0  0  0  0
   -1.4575   -1.6252   -1.3067 H   0  0  0  0  0  0  0  0  0  0  0  0
    2.8221   -1.5327   -0.8452 H   0  0  0  0  0  0  0  0  0  0  0  0
    3.1328    0.2061   -0.8477 H   0  0  0  0  0  0  0  0  0  0  0  0
    2.8358   -0.6323    0.6703 H   0  0  0  0  0  0  0  0  0  0  0  0
    1.0031   -1.1211   -2.6019 H   0  0  0  0  0  0  0  0  0  0  0  0
   -0.2402    0.1043   -2.3445 H   0  0  0  0  0  0  0  0  0  0  0  0
    1.4359    0.5913   -2.5128 H   0  0  0  0  0  0  0  0  0  0  0  0
    0.7533    2.9581    0.7131 H   0  0  0  0  0  0  0  0  0  0  0  0
    2.2723    2.1070    0.3854 H   0  0  0  0  0  0  0  0  0  0  0  0
    1.1629    2.5288   -0.9375 H   0  0  0  0  0  0  0  0  0  0  0  0
  1  4  1  0  0  0  0
  1 12  1  0  0  0  0
  2 12  2  0  0  0  0
  3  4  1  0  0  0  0
  3  5  1  0  0  0  0
  3  9  1  0  0  0  0
  3 10  1  0  0  0  0
  4  6  1  0  0  0  0
  4 11  1  0  0  0  0
  5  7  1  0  0  0  0
  5  8  1  0  0  0  0
  5 13  1  0  0  0  0
  6  7  1  0  0  0  0
  6 14  1  0  0  0  0
  6 15  1  0  0  0  0
  7 16  1  0  0  0  0
  7 17  1  0  0  0  0
  8 12  1  0  0  0  0
  8 18  1  0  0  0  0
  8 19  1  0  0  0  0
  9 20  1  0  0  0  0
  9 21  1  0  0  0  0
  9 22  1  0  0  0  0
 10 23  1  0  0  0  0
 10 24  1  0  0  0  0
 10 25  1  0  0  0  0
 11 26  1  0  0  0  0
 11 27  1  0  0  0  0
 11 28  1  0  0  0  0
M  END
> <PUBCHEM_COMPOUND_CID>
274476

> <PUBCHEM_CONFORMER_RMSD>
0.4

> <PUBCHEM_CONFORMER_DIVERSEORDER>
1
2

> <PUBCHEM_MMFF94_PARTIAL_CHARGES>
5
1 -0.43
12 0.66
2 -0.57
4 0.28
8 0.06

> <PUBCHEM_EFFECTIVE_ROTOR_COUNT>
1

> <PUBCHEM_PHARMACOPHORE_FEATURES>
3
1 2 acceptor
3 3 9 10 hydrophobe
8 1 3 4 5 6 7 8 12 rings

> <PUBCHEM_HEAVY_ATOM_COUNT>
12

> <PUBCHEM_ATOM_DEF_STEREO_COUNT>
0

> <PUBCHEM_ATOM_UDEF_STEREO_COUNT>
2

> <PUBCHEM_BOND_DEF_STEREO_COUNT>
0

> <PUBCHEM_BOND_UDEF_STEREO_COUNT>
0

> <PUBCHEM_ISOTOPIC_ATOM_COUNT>
0

> <PUBCHEM_COMPONENT_COUNT>
1

> <PUBCHEM_CACTVS_TAUTO_COUNT>
1

> <PUBCHEM_CONFORMER_ID>
0004302C00000001

> <PUBCHEM_MMFF94_ENERGY>
43.905

> <PUBCHEM_FEATURE_SELFOVERLAP>
15.223

> <PUBCHEM_SHAPE_FINGERPRINT>
12423570 1 7819011954219131918
12725867 57 17900560152473060245
13024252 1 17411852419746857406
137420 1 6539157192214943450
13839132 238 17984706610312093028
15557651 10 17632588144744977508
16945 1 18334572451642363902
21040471 1 18118980091461761057
241688 4 17320387487516190702
2748010 2 18266741268727422287
29004967 10 16009029535443435478
5084963 1 17968389961093393159
528886 8 18334296469828623990

> <PUBCHEM_SHAPE_MULTIPOLES>
235.22
2.56
1.66
1.53
1.21
0.48
-0.04
0.18
0.58
-0.37
-0.16
-0.44
-0.27
0.13

> <PUBCHEM_SHAPE_SELFOVERLAP>
495.928

> <PUBCHEM_SHAPE_VOLUME>
135.2

> <PUBCHEM_COORDINATE_TYPE>
2
5
10

$$$$

