256730
  -OEChem-07051213063D

 52 55  0     1  0  0  0  0  0999 V2000
   -5.2987    1.0489    0.3923 O   0  0  0  0  0  0  0  0  0  0  0  0
    2.8654    1.0096   -2.2126 O   0  0  0  0  0  0  0  0  0  0  0  0
    5.4688    0.2298    0.7397 O   0  0  0  0  0  0  0  0  0  0  0  0
   -2.1341   -0.7773    0.2868 C   0  0  2  0  0  0  0  0  0  0  0  0
   -2.8896    0.5457    0.0659 C   0  0  2  0  0  0  0  0  0  0  0  0
   -0.7250   -0.7697   -0.3141 C   0  0  1  0  0  0  0  0  0  0  0  0
    0.1070    0.3901    0.3235 C   0  0  1  0  0  0  0  0  0  0  0  0
    1.5605    0.4480   -0.2921 C   0  0  2  0  0  0  0  0  0  0  0  0
   -2.1133    1.6527    0.7885 C   0  0  0  0  0  0  0  0  0  0  0  0
   -0.6614    1.7431    0.2848 C   0  0  0  0  0  0  0  0  0  0  0  0
   -4.2368    0.1728    0.7177 C   0  0  2  0  0  0  0  0  0  0  0  0
   -3.1299   -1.8401   -0.1715 C   0  0  0  0  0  0  0  0  0  0  0  0
   -0.0366   -2.1268   -0.1063 C   0  0  0  0  0  0  0  0  0  0  0  0
   -4.4998   -1.2698    0.2405 C   0  0  0  0  0  0  0  0  0  0  0  0
    2.1785   -0.9567   -0.2961 C   0  0  0  0  0  0  0  0  0  0  0  0
    2.4868    1.4014    0.5331 C   0  0  0  0  0  0  0  0  0  0  0  0
   -3.0881    0.9332   -1.4207 C   0  0  0  0  0  0  0  0  0  0  0  0
    1.4525   -2.0843   -0.2213 C   0  0  0  0  0  0  0  0  0  0  0  0
    1.5351    0.9651   -1.7505 C   0  0  0  0  0  0  0  0  0  0  0  0
    3.6835   -1.0087   -0.2586 C   0  0  0  0  0  0  0  0  0  0  0  0
    3.2634    0.6720    1.6338 C   0  0  0  0  0  0  0  0  0  0  0  0
    4.2120   -0.3790    1.0371 C   0  0  2  0  0  0  0  0  0  0  0  0
   -2.0106   -0.9262    1.3730 H   0  0  0  0  0  0  0  0  0  0  0  0
   -0.7997   -0.6062   -1.3951 H   0  0  0  0  0  0  0  0  0  0  0  0
    0.2201    0.1441    1.3914 H   0  0  0  0  0  0  0  0  0  0  0  0
   -2.0958    1.4595    1.8691 H   0  0  0  0  0  0  0  0  0  0  0  0
   -2.6103    2.6215    0.6569 H   0  0  0  0  0  0  0  0  0  0  0  0
   -0.6759    2.1492   -0.7302 H   0  0  0  0  0  0  0  0  0  0  0  0
   -0.1488    2.4877    0.9018 H   0  0  0  0  0  0  0  0  0  0  0  0
   -4.1422    0.1733    1.8108 H   0  0  0  0  0  0  0  0  0  0  0  0
   -2.9432   -2.8095    0.3016 H   0  0  0  0  0  0  0  0  0  0  0  0
   -3.0884   -1.9870   -1.2565 H   0  0  0  0  0  0  0  0  0  0  0  0
   -0.4286   -2.8450   -0.8365 H   0  0  0  0  0  0  0  0  0  0  0  0
   -0.2770   -2.5260    0.8872 H   0  0  0  0  0  0  0  0  0  0  0  0
   -5.2053   -1.3109   -0.5967 H   0  0  0  0  0  0  0  0  0  0  0  0
   -4.9386   -1.8590    1.0537 H   0  0  0  0  0  0  0  0  0  0  0  0
    1.9107    2.2072    0.9959 H   0  0  0  0  0  0  0  0  0  0  0  0
    3.2205    1.9162   -0.0993 H   0  0  0  0  0  0  0  0  0  0  0  0
   -3.6877    0.1983   -1.9670 H   0  0  0  0  0  0  0  0  0  0  0  0
   -3.6057    1.8962   -1.5015 H   0  0  0  0  0  0  0  0  0  0  0  0
   -2.1444    1.0346   -1.9629 H   0  0  0  0  0  0  0  0  0  0  0  0
    1.9582   -3.0462   -0.1830 H   0  0  0  0  0  0  0  0  0  0  0  0
    1.1333    1.9795   -1.8166 H   0  0  0  0  0  0  0  0  0  0  0  0
    0.9596    0.3128   -2.4142 H   0  0  0  0  0  0  0  0  0  0  0  0
    4.0408   -2.0467   -0.2988 H   0  0  0  0  0  0  0  0  0  0  0  0
    4.1339   -0.5458   -1.1401 H   0  0  0  0  0  0  0  0  0  0  0  0
    3.8297    1.4017    2.2245 H   0  0  0  0  0  0  0  0  0  0  0  0
    2.5516    0.1857    2.3120 H   0  0  0  0  0  0  0  0  0  0  0  0
    4.4000   -1.1509    1.7927 H   0  0  0  0  0  0  0  0  0  0  0  0
   -5.5324    0.9193   -0.5419 H   0  0  0  0  0  0  0  0  0  0  0  0
    2.8434    1.3354   -3.1284 H   0  0  0  0  0  0  0  0  0  0  0  0
    6.0588   -0.4667    0.4041 H   0  0  0  0  0  0  0  0  0  0  0  0
  1 11  1  0  0  0  0
  1 50  1  0  0  0  0
  2 19  1  0  0  0  0
  2 51  1  0  0  0  0
  3 22  1  0  0  0  0
  3 52  1  0  0  0  0
  4  5  1  0  0  0  0
  4  6  1  0  0  0  0
  4 12  1  0  0  0  0
  4 23  1  0  0  0  0
  5  9  1  0  0  0  0
  5 11  1  0  0  0  0
  5 17  1  0  0  0  0
  6  7  1  0  0  0  0
  6 13  1  0  0  0  0
  6 24  1  0  0  0  0
  7  8  1  0  0  0  0
  7 10  1  0  0  0  0
  7 25  1  0  0  0  0
  8 15  1  0  0  0  0
  8 16  1  0  0  0  0
  8 19  1  0  0  0  0
  9 10  1  0  0  0  0
  9 26  1  0  0  0  0
  9 27  1  0  0  0  0
 10 28  1  0  0  0  0
 10 29  1  0  0  0  0
 11 14  1  0  0  0  0
 11 30  1  0  0  0  0
 12 14  1  0  0  0  0
 12 31  1  0  0  0  0
 12 32  1  0  0  0  0
 13 18  1  0  0  0  0
 13 33  1  0  0  0  0
 13 34  1  0  0  0  0
 14 35  1  0  0  0  0
 14 36  1  0  0  0  0
 15 18  2  0  0  0  0
 15 20  1  0  0  0  0
 16 21  1  0  0  0  0
 16 37  1  0  0  0  0
 16 38  1  0  0  0  0
 17 39  1  0  0  0  0
 17 40  1  0  0  0  0
 17 41  1  0  0  0  0
 18 42  1  0  0  0  0
 19 43  1  0  0  0  0
 19 44  1  0  0  0  0
 20 22  1  0  0  0  0
 20 45  1  0  0  0  0
 20 46  1  0  0  0  0
 21 22  1  0  0  0  0
 21 47  1  0  0  0  0
 21 48  1  0  0  0  0
 22 49  1  0  0  0  0
M  END
> <PUBCHEM_COMPOUND_CID>
256730

> <PUBCHEM_CONFORMER_RMSD>
0.6

> <PUBCHEM_CONFORMER_DIVERSEORDER>
1

> <PUBCHEM_MMFF94_PARTIAL_CHARGES>
15
1 -0.68
11 0.28
13 0.14
15 -0.28
18 -0.29
19 0.28
2 -0.68
20 0.14
22 0.28
3 -0.68
42 0.15
50 0.4
51 0.4
52 0.4
8 0.14

> <PUBCHEM_EFFECTIVE_ROTOR_COUNT>
3

> <PUBCHEM_PHARMACOPHORE_FEATURES>
10
1 1 acceptor
1 1 donor
1 2 acceptor
1 2 donor
1 3 acceptor
1 3 donor
5 4 5 11 12 14 rings
6 4 5 6 7 9 10 rings
6 6 7 8 13 15 18 rings
6 8 15 16 20 21 22 rings

> <PUBCHEM_HEAVY_ATOM_COUNT>
22

> <PUBCHEM_ATOM_DEF_STEREO_COUNT>
7

> <PUBCHEM_ATOM_UDEF_STEREO_COUNT>
0

> <PUBCHEM_BOND_DEF_STEREO_COUNT>
0

> <PUBCHEM_BOND_UDEF_STEREO_COUNT>
0

> <PUBCHEM_ISOTOPIC_ATOM_COUNT>
0

> <PUBCHEM_COMPONENT_COUNT>
1

> <PUBCHEM_CACTVS_TAUTO_COUNT>
1

> <PUBCHEM_CONFORMER_ID>
0003EADA00000001

> <PUBCHEM_MMFF94_ENERGY>
80.5879

> <PUBCHEM_FEATURE_SELFOVERLAP>
50.855

> <PUBCHEM_SHAPE_FINGERPRINT>
10062212 137 18342178834782345803
10646746 165 18259984902908175472
11132069 177 18410008840976306267
11578080 2 17843993397318365572
12011746 2 18260267460775729312
12173636 292 18261670493515989693
12236239 1 18060136527246137448
12403259 415 18409175406546010784
12403814 3 17989486321314197045
12553582 1 18336249172984657689
12633257 1 17489585658368459971
13140716 1 18337112237487103803
13224815 77 18410289198976553335
13581323 91 18410295800436180914
13675066 3 18410575080542470875
14115302 16 18341041965069794549
14178342 30 18337387261396964760
14223421 5 18189053264432407726
14341114 176 18260264170445821514
14787075 74 18261963925085657562
15196674 1 18335421253144358979
15375358 24 17603585235986760125
15536298 74 18187080689001109923
15788980 27 17489593367771329057
16945 1 18336262443816190028
17349148 13 18343868809443843954
17980427 23 18339930311801880620
1813 80 17489027162807872838
18186145 218 17821996606362718179
19050596 39 18412822478257205859
192875 21 18060703857776037493
200 152 18041008336506079199
20600515 1 18187926131960109496
20715895 44 17985557890780630901
21033648 29 18264229013502172872
21267235 1 18336537249252548115
21756936 100 17318190320499641576
22854114 111 18409445877821393919
23402539 116 18040445368771369447
23557571 272 17604149216490012319
23559900 14 18260263062576315502
26918003 58 18335144202105211225
2748010 2 18408317787470947327
2838139 119 14924808696454499362
296302 2 16081091471672051135
312423 11 17060328626550907165
335352 9 18335700593559207935
34934 24 18334582382092237331
350125 39 18409166597874048336
3545911 37 18336264626034259211
394222 165 17414704381184768252
4409770 3 16185237552579658158
465052 167 17418084412850660787
5104073 3 18409446960369522259
7364860 26 17969500592349846318
9709674 26 18334008406620507847
9981440 41 17121973596350531312

> <PUBCHEM_SHAPE_MULTIPOLES>
435.14
9.26
1.99
1.31
1.21
0.53
-0.53
-0.27
2.14
0.54
-0.02
-0.95
-0.52
-0.01

> <PUBCHEM_SHAPE_SELFOVERLAP>
929.504

> <PUBCHEM_SHAPE_VOLUME>
239.4

> <PUBCHEM_COORDINATE_TYPE>
2
5
10

$$$$

