11532
  -OEChem-06261205473D

 23 22  0     0  0  0  0  0  0999 V2000
    0.9979    0.4737    0.0113 O   0  0  0  0  0  0  0  0  0  0  0  0
    2.3567   -1.3786   -0.0004 O   0  0  0  0  0  0  0  0  0  0  0  0
    4.5288    0.2420   -0.0268 O   0  0  0  0  0  0  0  0  0  0  0  0
    3.2270    0.7580   -0.0113 N   0  0  0  0  0  0  0  0  0  0  0  0
   -2.6711   -0.3352    0.0260 C   0  0  0  0  0  0  0  0  0  0  0  0
   -1.3963    0.5055    0.0312 C   0  0  0  0  0  0  0  0  0  0  0  0
   -3.9189    0.5470   -0.0061 C   0  0  0  0  0  0  0  0  0  0  0  0
   -0.1483   -0.3658    0.0207 C   0  0  0  0  0  0  0  0  0  0  0  0
   -5.1897   -0.2867   -0.0457 C   0  0  0  0  0  0  0  0  0  0  0  0
    2.2138   -0.1600    0.0011 C   0  0  0  0  0  0  0  0  0  0  0  0
   -2.6945   -0.9751    0.9164 H   0  0  0  0  0  0  0  0  0  0  0  0
   -2.6694   -0.9978   -0.8481 H   0  0  0  0  0  0  0  0  0  0  0  0
   -1.3765    1.1605    0.9112 H   0  0  0  0  0  0  0  0  0  0  0  0
   -1.3780    1.1729   -0.8396 H   0  0  0  0  0  0  0  0  0  0  0  0
   -3.9394    1.1948    0.8779 H   0  0  0  0  0  0  0  0  0  0  0  0
   -3.8915    1.1998   -0.8863 H   0  0  0  0  0  0  0  0  0  0  0  0
   -0.1418   -1.0008   -0.8730 H   0  0  0  0  0  0  0  0  0  0  0  0
   -0.1280   -1.0021    0.9133 H   0  0  0  0  0  0  0  0  0  0  0  0
   -5.2151   -0.9214   -0.9373 H   0  0  0  0  0  0  0  0  0  0  0  0
   -5.2641   -0.9303    0.8367 H   0  0  0  0  0  0  0  0  0  0  0  0
   -6.0694    0.3640   -0.0668 H   0  0  0  0  0  0  0  0  0  0  0  0
    3.1175    1.7638   -0.0669 H   0  0  0  0  0  0  0  0  0  0  0  0
    4.9628    0.8814   -0.6164 H   0  0  0  0  0  0  0  0  0  0  0  0
  1  8  1  0  0  0  0
  1 10  1  0  0  0  0
  2 10  2  0  0  0  0
  3  4  1  0  0  0  0
  3 23  1  0  0  0  0
  4 10  1  0  0  0  0
  4 22  1  0  0  0  0
  5  6  1  0  0  0  0
  5  7  1  0  0  0  0
  5 11  1  0  0  0  0
  5 12  1  0  0  0  0
  6  8  1  0  0  0  0
  6 13  1  0  0  0  0
  6 14  1  0  0  0  0
  7  9  1  0  0  0  0
  7 15  1  0  0  0  0
  7 16  1  0  0  0  0
  8 17  1  0  0  0  0
  8 18  1  0  0  0  0
  9 19  1  0  0  0  0
  9 20  1  0  0  0  0
  9 21  1  0  0  0  0
M  END
> <PUBCHEM_COMPOUND_CID>
11532

> <PUBCHEM_CONFORMER_RMSD>
0.6

> <PUBCHEM_CONFORMER_DIVERSEORDER>
1
102
103
66
91
78
87
79
104
15
71
61
24
94
42
11
64
73
84
53
44
8
38
22
39
89
77
54
57
85
10
82
4
81
80
5
90
105
95
2
83
47
26
37
46
72
67
76
96
56
99
20
88
93
48
98
49
55
3
9
33
23
68
18
58
13
36
60
75
29
100
86
32
101
92
59
17
14
43
21
40
97
34
52
41
69
63
74
31
50
45
65
12
19
7
27
6
51
28
16
25
30
35
70
62

> <PUBCHEM_MMFF94_PARTIAL_CHARGES>
8
1 -0.43
10 0.78
2 -0.57
22 0.37
23 0.4
3 -0.44
4 -0.39
8 0.28

> <PUBCHEM_EFFECTIVE_ROTOR_COUNT>
6

> <PUBCHEM_PHARMACOPHORE_FEATURES>
3
1 2 acceptor
1 4 donor
1 9 hydrophobe

> <PUBCHEM_HEAVY_ATOM_COUNT>
10

> <PUBCHEM_ATOM_DEF_STEREO_COUNT>
0

> <PUBCHEM_ATOM_UDEF_STEREO_COUNT>
0

> <PUBCHEM_BOND_DEF_STEREO_COUNT>
0

> <PUBCHEM_BOND_UDEF_STEREO_COUNT>
0

> <PUBCHEM_ISOTOPIC_ATOM_COUNT>
0

> <PUBCHEM_COMPONENT_COUNT>
1

> <PUBCHEM_CACTVS_TAUTO_COUNT>
3

> <PUBCHEM_CONFORMER_ID>
00002D0C00000001

> <PUBCHEM_MMFF94_ENERGY>
5.3458

> <PUBCHEM_FEATURE_SELFOVERLAP>
15.223

> <PUBCHEM_SHAPE_FINGERPRINT>
11062470 55 18413107260226735617
12932764 1 16878522214086753049
14123238 8 18202283593734533333
14325111 11 18410855490556936235
17834072 33 18335140839319800701
17834076 25 18343581836945794244
190213 19 17489866051271692663
20279233 1 17774995799958521891
20645477 70 18338236084373880575
20719005 15 18410575084694753409
22485316 2 18413110567657658063
23402539 116 12607408763207192579
23402655 69 18336270128072007845
42788 4 18410575085185409281
449060 50 18413387614037725077

> <PUBCHEM_SHAPE_MULTIPOLES>
183.21
9.85
0.9
0.58
3.1
0.14
0
-0.3
-0.18
-0.3
0
0.12
0
-0.01

> <PUBCHEM_SHAPE_SELFOVERLAP>
332.854

> <PUBCHEM_SHAPE_VOLUME>
117.3

> <PUBCHEM_COORDINATE_TYPE>
2
5
10

$$$$

