13847
  -OEChem-06241222403D

 26 25  0     0  0  0  0  0  0999 V2000
   -0.6027   -0.3222   -0.0138 O   0  0  0  0  0  0  0  0  0  0  0  0
    2.9789    0.2859   -0.0124 O   0  0  0  0  0  0  0  0  0  0  0  0
   -4.1522    0.4573    0.0242 O   0  0  0  0  0  0  0  0  0  0  0  0
    0.5904    0.4491   -0.0083 C   0  0  0  0  0  0  0  0  0  0  0  0
    1.7842   -0.4861    0.0027 C   0  0  0  0  0  0  0  0  0  0  0  0
   -1.7589    0.5063   -0.0018 C   0  0  0  0  0  0  0  0  0  0  0  0
   -2.9961   -0.3707   -0.0084 C   0  0  0  0  0  0  0  0  0  0  0  0
    4.1336   -0.5411    0.0192 C   0  0  0  0  0  0  0  0  0  0  0  0
    5.3682    0.3348    0.0014 C   0  0  0  0  0  0  0  0  0  0  0  0
   -5.3455   -0.3133   -0.0026 C   0  0  0  0  0  0  0  0  0  0  0  0
    0.6281    1.0925   -0.8957 H   0  0  0  0  0  0  0  0  0  0  0  0
    0.6189    1.0988    0.8749 H   0  0  0  0  0  0  0  0  0  0  0  0
    1.7506   -1.1456   -0.8730 H   0  0  0  0  0  0  0  0  0  0  0  0
    1.7528   -1.1193    0.8978 H   0  0  0  0  0  0  0  0  0  0  0  0
   -1.7580    1.1431    0.8911 H   0  0  0  0  0  0  0  0  0  0  0  0
   -1.7625    1.1637   -0.8797 H   0  0  0  0  0  0  0  0  0  0  0  0
   -2.9864   -1.0383    0.8617 H   0  0  0  0  0  0  0  0  0  0  0  0
   -3.0040   -0.9973   -0.9086 H   0  0  0  0  0  0  0  0  0  0  0  0
    4.1279   -1.1514    0.9293 H   0  0  0  0  0  0  0  0  0  0  0  0
    4.1388   -1.2039   -0.8534 H   0  0  0  0  0  0  0  0  0  0  0  0
    6.2782   -0.2714    0.0249 H   0  0  0  0  0  0  0  0  0  0  0  0
    5.3839    0.9609   -0.8969 H   0  0  0  0  0  0  0  0  0  0  0  0
    5.3727    1.0125    0.8615 H   0  0  0  0  0  0  0  0  0  0  0  0
   -6.1979    0.3706    0.0273 H   0  0  0  0  0  0  0  0  0  0  0  0
   -5.3961   -0.9725    0.8693 H   0  0  0  0  0  0  0  0  0  0  0  0
   -5.4020   -0.9013   -0.9238 H   0  0  0  0  0  0  0  0  0  0  0  0
  1  4  1  0  0  0  0
  1  6  1  0  0  0  0
  2  5  1  0  0  0  0
  2  8  1  0  0  0  0
  3  7  1  0  0  0  0
  3 10  1  0  0  0  0
  4  5  1  0  0  0  0
  4 11  1  0  0  0  0
  4 12  1  0  0  0  0
  5 13  1  0  0  0  0
  5 14  1  0  0  0  0
  6  7  1  0  0  0  0
  6 15  1  0  0  0  0
  6 16  1  0  0  0  0
  7 17  1  0  0  0  0
  7 18  1  0  0  0  0
  8  9  1  0  0  0  0
  8 19  1  0  0  0  0
  8 20  1  0  0  0  0
  9 21  1  0  0  0  0
  9 22  1  0  0  0  0
  9 23  1  0  0  0  0
 10 24  1  0  0  0  0
 10 25  1  0  0  0  0
 10 26  1  0  0  0  0
M  END
> <PUBCHEM_COMPOUND_CID>
13847

> <PUBCHEM_CONFORMER_RMSD>
0.6

> <PUBCHEM_CONFORMER_DIVERSEORDER>
5
65
206
87
158
143
173
45
170
191
180
14
160
9
153
36
184
37
205
34
185
95
175
161
53
171
32
168
204
98
149
172
91
133
220
156
213
177
10
139
217
48
56
46
128
183
199
214
58
134
78
103
167
190
51
92
166
186
219
41
59
215
4
102
126
120
52
165
77
189
57
178
50
20
81
152
148
90
19
137
138
176
40
147
157
124
218
192
6
119
15
49
181
194
182
208
150
74
8
210
12
141
187
162
82
130
144
196
61
22
151
212
111
135
203
97
38
174
140
116
69
26
84
42
55
64
193
88
146
16
169
62
2
89
13
115
209
31
33
145
179
200
30
216
44
108
154
67
70
142
202
99
159
94
21
105
73
201
129
188
207
75
79
66
11
39
86
104
122
63
163
132
195
211
197
164
28
127
107
117
155
54
18
83
93
68
112
136
23
3
121
71
47
72
43
118
96
1
76
27
106
7
131
35
80
113
198
110
125
114
60
85
123
17
109
24
100
101
29
25

> <PUBCHEM_MMFF94_PARTIAL_CHARGES>
9
1 -0.56
10 0.28
2 -0.56
3 -0.56
4 0.28
5 0.28
6 0.28
7 0.28
8 0.28

> <PUBCHEM_EFFECTIVE_ROTOR_COUNT>
7

> <PUBCHEM_PHARMACOPHORE_FEATURES>
3
1 1 acceptor
1 2 acceptor
1 3 acceptor

> <PUBCHEM_HEAVY_ATOM_COUNT>
10

> <PUBCHEM_ATOM_DEF_STEREO_COUNT>
0

> <PUBCHEM_ATOM_UDEF_STEREO_COUNT>
0

> <PUBCHEM_BOND_DEF_STEREO_COUNT>
0

> <PUBCHEM_BOND_UDEF_STEREO_COUNT>
0

> <PUBCHEM_ISOTOPIC_ATOM_COUNT>
0

> <PUBCHEM_COMPONENT_COUNT>
1

> <PUBCHEM_CACTVS_TAUTO_COUNT>
1

> <PUBCHEM_CONFORMER_ID>
0000361700000005

> <PUBCHEM_MMFF94_ENERGY>
16.5215

> <PUBCHEM_FEATURE_SELFOVERLAP>
15.223

> <PUBCHEM_SHAPE_FINGERPRINT>
11062470 55 18410855468718096386
114248 4 18272651246610715520
14123238 8 18410575088963320982
17834072 33 18260831449378156316
17834076 25 18410573985167301378
20645477 70 18262516022063443014
20719005 15 18410575088963340450
20767249 13 17775287166091791194
22485316 2 18413110567156641122
23402539 116 12103845635988403459
366044 4 18273495667267460211
42788 4 18410575088995014948

> <PUBCHEM_SHAPE_MULTIPOLES>
188.19
12.51
0.76
0.59
0.43
0.01
0
0.32
0.05
-0.06
0
-0.02
0
-0.01

> <PUBCHEM_SHAPE_SELFOVERLAP>
331.369

> <PUBCHEM_SHAPE_VOLUME>
124.6

> <PUBCHEM_COORDINATE_TYPE>
2
5
10

$$$$

