56928095
  -OEChem-07051213102D

 40 41  0     1  0  0  0  0  0999 V2000
    2.0000   -1.8402    0.0000 Br  0  0  0  0  0  0  0  0  0  0  0  0
    6.2433    1.9742    0.0000 O   0  0  0  0  0  0  0  0  0  0  0  0
    4.0000   -0.1081    0.0000 C   0  0  2  0  0  0  0  0  0  0  0  0
    3.5000   -0.9742    0.0000 C   0  0  0  0  0  0  0  0  0  0  0  0
    4.5878    0.7009    0.0000 C   0  0  0  0  0  0  0  0  0  0  0  0
    4.5878   -0.9172    0.0000 C   0  0  0  0  0  0  0  0  0  0  0  0
    5.5388    0.3919    0.0000 C   0  0  1  0  0  0  0  0  0  0  0  0
    5.5388   -0.6081    0.0000 C   0  0  0  0  0  0  0  0  0  0  0  0
    3.5000    0.7579    0.0000 C   0  0  0  0  0  0  0  0  0  0  0  0
    2.5000   -0.9742    0.0000 C   0  0  1  0  0  0  0  0  0  0  0  0
    3.5000   -1.9742    0.0000 C   0  0  0  0  0  0  0  0  0  0  0  0
    4.2660   -1.6170    0.0000 C   0  0  0  0  0  0  0  0  0  0  0  0
    2.0000   -0.1081    0.0000 C   0  0  0  0  0  0  0  0  0  0  0  0
    2.5000    0.7579    0.0000 C   0  0  0  0  0  0  0  0  0  0  0  0
    6.3479    0.9796    0.0000 C   0  0  0  0  0  0  0  0  0  0  0  0
    4.0000    1.6239    0.0000 C   0  0  0  0  0  0  0  0  0  0  0  0
    7.2614    0.5729    0.0000 C   0  0  0  0  0  0  0  0  0  0  0  0
    4.8400    1.2673    0.0000 H   0  0  0  0  0  0  0  0  0  0  0  0
    4.0508    1.0109    0.0000 H   0  0  0  0  0  0  0  0  0  0  0  0
    4.0508   -1.2272    0.0000 H   0  0  0  0  0  0  0  0  0  0  0  0
    4.8400   -1.4836    0.0000 H   0  0  0  0  0  0  0  0  0  0  0  0
    5.4418    1.0042    0.0000 H   0  0  0  0  0  0  0  0  0  0  0  0
    5.6678   -1.2146    0.0000 H   0  0  0  0  0  0  0  0  0  0  0  0
    6.1554   -0.5433    0.0000 H   0  0  0  0  0  0  0  0  0  0  0  0
    1.8800   -0.9742    0.0000 H   0  0  0  0  0  0  0  0  0  0  0  0
    3.8675   -2.0919    0.0000 H   0  0  0  0  0  0  0  0  0  0  0  0
    4.7410   -2.0155    0.0000 H   0  0  0  0  0  0  0  0  0  0  0  0
    4.6646   -1.1420    0.0000 H   0  0  0  0  0  0  0  0  0  0  0  0
    2.8800   -1.9742    0.0000 H   0  0  0  0  0  0  0  0  0  0  0  0
    3.5000   -2.5942    0.0000 H   0  0  0  0  0  0  0  0  0  0  0  0
    4.1200   -1.9742    0.0000 H   0  0  0  0  0  0  0  0  0  0  0  0
    1.5250    0.2904    0.0000 H   0  0  0  0  0  0  0  0  0  0  0  0
    1.5250   -0.5067    0.0000 H   0  0  0  0  0  0  0  0  0  0  0  0
    2.1900    1.2948    0.0000 H   0  0  0  0  0  0  0  0  0  0  0  0
    4.5369    1.3139    0.0000 H   0  0  0  0  0  0  0  0  0  0  0  0
    4.3100    2.1608    0.0000 H   0  0  0  0  0  0  0  0  0  0  0  0
    3.4631    1.9339    0.0000 H   0  0  0  0  0  0  0  0  0  0  0  0
    7.0092    0.0065    0.0000 H   0  0  0  0  0  0  0  0  0  0  0  0
    7.8278    0.3207    0.0000 H   0  0  0  0  0  0  0  0  0  0  0  0
    7.5136    1.1393    0.0000 H   0  0  0  0  0  0  0  0  0  0  0  0
 10  1  1  6  0  0  0
  2 15  2  0  0  0  0
  3  4  1  0  0  0  0
  3  5  1  6  0  0  0
  3  6  1  0  0  0  0
  3  9  1  0  0  0  0
  4 10  1  0  0  0  0
  4 11  1  0  0  0  0
  4 12  1  0  0  0  0
  5  7  1  0  0  0  0
  5 18  1  0  0  0  0
  5 19  1  0  0  0  0
  6  8  1  0  0  0  0
  6 20  1  0  0  0  0
  6 21  1  0  0  0  0
  7  8  1  0  0  0  0
  7 15  1  6  0  0  0
  7 22  1  0  0  0  0
  8 23  1  0  0  0  0
  8 24  1  0  0  0  0
  9 14  2  0  0  0  0
  9 16  1  0  0  0  0
 10 13  1  0  0  0  0
 10 25  1  0  0  0  0
 11 29  1  0  0  0  0
 11 30  1  0  0  0  0
 11 31  1  0  0  0  0
 12 26  1  0  0  0  0
 12 27  1  0  0  0  0
 12 28  1  0  0  0  0
 13 14  1  0  0  0  0
 13 32  1  0  0  0  0
 13 33  1  0  0  0  0
 14 34  1  0  0  0  0
 15 17  1  0  0  0  0
 16 35  1  0  0  0  0
 16 36  1  0  0  0  0
 16 37  1  0  0  0  0
 17 38  1  0  0  0  0
 17 39  1  0  0  0  0
 17 40  1  0  0  0  0
M  END
> <PUBCHEM_COMPOUND_CID>
56928095

> <PUBCHEM_COMPOUND_CANONICALIZED>
1

> <PUBCHEM_CACTVS_COMPLEXITY>
369

> <PUBCHEM_CACTVS_HBOND_ACCEPTOR>
1

> <PUBCHEM_CACTVS_HBOND_DONOR>
0

> <PUBCHEM_CACTVS_ROTATABLE_BOND>
1

> <PUBCHEM_CACTVS_SUBSKEYS>
AAADceBwIAAAEAAAAAAAAAAAAAAAAYAAAAAgAAAAAAAAAAAAAAAAGgBAAAABzwSAgAACAAAAAACIAqBSAAAAAAAgAAAACAEAACgAABIAAQAAAAAAgAAIAAMIiMCPgAAAAAAAAAAAAAAAAAAAAQAAAAAAAA==

> <PUBCHEM_IUPAC_OPENEYE_NAME>
1-[(3R,5S,9R)-9-bromo-6,10,10-trimethyl-spiro[4.5]dec-6-en-3-yl]ethanone

> <PUBCHEM_IUPAC_CAS_NAME>
1-[(3R,5S,9R)-9-bromo-6,10,10-trimethyl-3-spiro[4.5]dec-6-enyl]ethanone

> <PUBCHEM_IUPAC_NAME>
1-[(3R,5S,9R)-9-bromo-6,10,10-trimethylspiro[4.5]dec-6-en-3-yl]ethanone

> <PUBCHEM_IUPAC_SYSTEMATIC_NAME>
1-[(3R,5S,9R)-9-bromanyl-6,10,10-trimethyl-spiro[4.5]dec-6-en-3-yl]ethanone

> <PUBCHEM_IUPAC_TRADITIONAL_NAME>
1-[(3R,5S,9R)-9-bromo-6,10,10-trimethyl-spiro[4.5]dec-6-en-3-yl]ethanone

> <PUBCHEM_IUPAC_INCHI>
InChI=1S/C15H23BrO/c1-10-5-6-13(16)14(3,4)15(10)8-7-12(9-15)11(2)17/h5,12-13H,6-9H2,1-4H3/t12-,13-,15+/m1/s1

> <PUBCHEM_IUPAC_INCHIKEY>
BLWJAUBTYPWLDO-NFAWXSAZSA-N

> <PUBCHEM_XLOGP3_AA>
3.8

> <PUBCHEM_EXACT_MASS>
298.093227

> <PUBCHEM_MOLECULAR_FORMULA>
C15H23BrO

> <PUBCHEM_MOLECULAR_WEIGHT>
299.24652

> <PUBCHEM_OPENEYE_CAN_SMILES>
CC1=CCC(C(C12CCC(C2)C(=O)C)(C)C)Br

> <PUBCHEM_OPENEYE_ISO_SMILES>
CC1=CC[C@H](C([C@]12CC[C@H](C2)C(=O)C)(C)C)Br

> <PUBCHEM_CACTVS_TPSA>
17.1

> <PUBCHEM_MONOISOTOPIC_WEIGHT>
298.093227

> <PUBCHEM_TOTAL_CHARGE>
0

> <PUBCHEM_HEAVY_ATOM_COUNT>
17

> <PUBCHEM_ATOM_DEF_STEREO_COUNT>
3

> <PUBCHEM_ATOM_UDEF_STEREO_COUNT>
0

> <PUBCHEM_BOND_DEF_STEREO_COUNT>
0

> <PUBCHEM_BOND_UDEF_STEREO_COUNT>
0

> <PUBCHEM_ISOTOPIC_ATOM_COUNT>
0

> <PUBCHEM_COMPONENT_COUNT>
1

> <PUBCHEM_CACTVS_TAUTO_COUNT>
3

> <PUBCHEM_COORDINATE_TYPE>
1
5
255

> <PUBCHEM_BONDANNOTATIONS>
10  1  6
3  5  6
7  15  6

$$$$

