21307
  -OEChem-07051213013D

 29 30  0     0  0  0  0  0  0999 V2000
   -2.3369    1.6023    0.7960 S   0  0  0  0  0  0  0  0  0  0  0  0
   -3.7201   -0.7224   -0.7880 O   0  0  0  0  0  0  0  0  0  0  0  0
   -0.0630   -0.6780    1.8020 O   0  0  0  0  0  0  0  0  0  0  0  0
    0.5740    0.2577   -0.2631 N   0  0  0  0  0  0  0  0  0  0  0  0
   -4.0929    1.3344    0.4611 C   0  0  0  0  0  0  0  0  0  0  0  0
   -4.2143    0.6145   -0.8656 C   0  0  0  0  0  0  0  0  0  0  0  0
   -1.7143    0.0591    0.3226 C   0  0  0  0  0  0  0  0  0  0  0  0
   -2.4166   -0.8774   -0.3485 C   0  0  0  0  0  0  0  0  0  0  0  0
   -0.3145   -0.1667    0.7137 C   0  0  0  0  0  0  0  0  0  0  0  0
   -1.8859   -2.2439   -0.6849 C   0  0  0  0  0  0  0  0  0  0  0  0
    1.9885    0.1960   -0.2268 C   0  0  0  0  0  0  0  0  0  0  0  0
    2.7144    0.6730   -1.3048 C   0  0  0  0  0  0  0  0  0  0  0  0
    2.6136   -0.3392    0.8865 C   0  0  0  0  0  0  0  0  0  0  0  0
    4.1076    0.6130   -1.2685 C   0  0  0  0  0  0  0  0  0  0  0  0
    4.0067   -0.3992    0.9230 C   0  0  0  0  0  0  0  0  0  0  0  0
    4.7536    0.0769   -0.1547 C   0  0  0  0  0  0  0  0  0  0  0  0
   -4.6000    2.3027    0.4281 H   0  0  0  0  0  0  0  0  0  0  0  0
   -4.5208    0.7388    1.2740 H   0  0  0  0  0  0  0  0  0  0  0  0
   -5.2736    0.5403   -1.1352 H   0  0  0  0  0  0  0  0  0  0  0  0
   -3.7179    1.1472   -1.6872 H   0  0  0  0  0  0  0  0  0  0  0  0
   -1.8560   -2.3729   -1.7720 H   0  0  0  0  0  0  0  0  0  0  0  0
   -2.5455   -3.0123   -0.2677 H   0  0  0  0  0  0  0  0  0  0  0  0
   -0.8804   -2.4346   -0.3010 H   0  0  0  0  0  0  0  0  0  0  0  0
    0.1829    0.6635   -1.1112 H   0  0  0  0  0  0  0  0  0  0  0  0
    2.2209    1.0926   -2.1770 H   0  0  0  0  0  0  0  0  0  0  0  0
    2.1053   -0.7270    1.7569 H   0  0  0  0  0  0  0  0  0  0  0  0
    4.6893    0.9836   -2.1074 H   0  0  0  0  0  0  0  0  0  0  0  0
    4.5112   -0.8165    1.7897 H   0  0  0  0  0  0  0  0  0  0  0  0
    5.8383    0.0301   -0.1263 H   0  0  0  0  0  0  0  0  0  0  0  0
  1  5  1  0  0  0  0
  1  7  1  0  0  0  0
  2  6  1  0  0  0  0
  2  8  1  0  0  0  0
  3  9  2  0  0  0  0
  4  9  1  0  0  0  0
  4 11  1  0  0  0  0
  4 24  1  0  0  0  0
  5  6  1  0  0  0  0
  5 17  1  0  0  0  0
  5 18  1  0  0  0  0
  6 19  1  0  0  0  0
  6 20  1  0  0  0  0
  7  8  2  0  0  0  0
  7  9  1  0  0  0  0
  8 10  1  0  0  0  0
 10 21  1  0  0  0  0
 10 22  1  0  0  0  0
 10 23  1  0  0  0  0
 11 12  2  0  0  0  0
 11 13  1  0  0  0  0
 12 14  1  0  0  0  0
 12 25  1  0  0  0  0
 13 15  2  0  0  0  0
 13 26  1  0  0  0  0
 14 16  2  0  0  0  0
 14 27  1  0  0  0  0
 15 16  1  0  0  0  0
 15 28  1  0  0  0  0
 16 29  1  0  0  0  0
M  END
> <PUBCHEM_COMPOUND_CID>
21307

> <PUBCHEM_CONFORMER_RMSD>
0.6

> <PUBCHEM_CONFORMER_DIVERSEORDER>
2
7
8
5
3
6
4
1

> <PUBCHEM_MMFF94_PARTIAL_CHARGES>
22
1 -0.33
10 0.14
11 0.12
12 -0.15
13 -0.15
14 -0.15
15 -0.15
16 -0.15
2 -0.36
24 0.37
25 0.15
26 0.15
27 0.15
28 0.15
29 0.15
3 -0.57
4 -0.55
5 0.23
6 0.28
7 0.12
8 -0.06
9 0.62

> <PUBCHEM_EFFECTIVE_ROTOR_COUNT>
3.8

> <PUBCHEM_PHARMACOPHORE_FEATURES>
5
1 2 acceptor
1 3 acceptor
1 4 donor
6 1 2 5 6 7 8 rings
6 11 12 13 14 15 16 rings

> <PUBCHEM_HEAVY_ATOM_COUNT>
16

> <PUBCHEM_ATOM_DEF_STEREO_COUNT>
0

> <PUBCHEM_ATOM_UDEF_STEREO_COUNT>
0

> <PUBCHEM_BOND_DEF_STEREO_COUNT>
0

> <PUBCHEM_BOND_UDEF_STEREO_COUNT>
0

> <PUBCHEM_ISOTOPIC_ATOM_COUNT>
0

> <PUBCHEM_COMPONENT_COUNT>
1

> <PUBCHEM_CACTVS_TAUTO_COUNT>
2

> <PUBCHEM_CONFORMER_ID>
0000533B00000002

> <PUBCHEM_MMFF94_ENERGY>
47.1787

> <PUBCHEM_FEATURE_SELFOVERLAP>
25.371

> <PUBCHEM_SHAPE_FINGERPRINT>
10062212 137 18272941504832859746
11471102 20 16988564611087071408
11543360 7 18187921725755731924
12236239 1 18201442497425226265
12500047 106 18113902671329455030
13214271 11 15626224624359204767
13296908 3 15936405650141427808
14004511 7 17917711305394968852
14386348 63 16370724816229132670
14943859 89 17846779611374640369
15309172 13 16343982511529590955
15375358 24 16877947130950966934
17834072 14 17313106336823135792
17870717 6 17531234063305908581
18186145 218 16988563502721843010
19489759 90 17821732762221482808
200 152 18273218581762662796
20112054 13 16128373783149481877
20279233 1 16805602564462546614
20645476 183 18343026575443262375
20645477 56 18187358857074535937
20645477 70 16558760039653624114
20871999 31 17894628162713738793
21486144 27 16200148747128253790
22485316 2 14562531786311629253
22854114 59 15267339630489759441
23402539 116 18114189661228913501
23402655 69 18059855052337901340
23557571 272 17530966899408537776
23559900 14 17676204693583479158
26918003 58 15719392849839478718
2838139 119 17130165289290864373
2871803 45 15430029989717431076
3082319 5 18272369741759196286
3268164 11 17968385631904080733
4175511 318 18411704296464525837
474 4 17775564255986001082
5104073 3 16702016423270368632
5283173 99 16226604220852969761
573450 72 18408895048244765002
633830 44 17489587904367401698
77492 1 18201445791475205907
9709674 26 17603580833260472278
9971528 1 18131354129213811596

> <PUBCHEM_SHAPE_MULTIPOLES>
316.4
9.53
1.45
1.3
3.39
0.46
-0.08
-1.52
2.07
-1.92
0.03
0.8
-0.05
-0.64

> <PUBCHEM_SHAPE_SELFOVERLAP>
653.686

> <PUBCHEM_SHAPE_VOLUME>
181.4

> <PUBCHEM_COORDINATE_TYPE>
2
5
10

$$$$

