87190
  -OEChem-07051213112D

 34 35  0     0  0  0  0  0  0999 V2000
    5.5762    0.0080    0.0000 S   0  0  0  0  0  0  0  0  0  0  0  0
    3.3833   -1.2581    0.0000 S   0  0  0  0  0  0  0  0  0  0  0  0
    6.5159   -0.3340    0.0000 O   0  0  0  0  0  0  0  0  0  0  0  0
    4.6365    0.3500    0.0000 O   0  0  0  0  0  0  0  0  0  0  0  0
    3.2096   -2.2428    0.0000 O   0  0  0  0  0  0  0  0  0  0  0  0
    3.5570   -0.2732    0.0000 O   0  0  0  0  0  0  0  0  0  0  0  0
    2.3985   -1.0844    0.0000 N   0  0  0  0  0  0  0  0  0  0  0  0
    5.2342   -3.9317    0.0000 N   0  0  0  0  0  0  0  0  0  0  0  0
    6.9443    3.7668    0.0000 N   0  0  0  0  0  0  0  0  0  0  0  0
    5.2342   -0.9317    0.0000 C   0  0  0  0  0  0  0  0  0  0  0  0
    4.3681   -1.4317    0.0000 C   0  0  0  0  0  0  0  0  0  0  0  0
    5.9182    0.9477    0.0000 C   0  0  0  0  0  0  0  0  0  0  0  0
    6.1002   -1.4317    0.0000 C   0  0  0  0  0  0  0  0  0  0  0  0
    4.3681   -2.4317    0.0000 C   0  0  0  0  0  0  0  0  0  0  0  0
    5.2342   -2.9317    0.0000 C   0  0  0  0  0  0  0  0  0  0  0  0
    6.1002   -2.4317    0.0000 C   0  0  0  0  0  0  0  0  0  0  0  0
    6.9030    1.1213    0.0000 C   0  0  0  0  0  0  0  0  0  0  0  0
    5.2754    1.7137    0.0000 C   0  0  0  0  0  0  0  0  0  0  0  0
    7.2450    2.0610    0.0000 C   0  0  0  0  0  0  0  0  0  0  0  0
    5.6174    2.6534    0.0000 C   0  0  0  0  0  0  0  0  0  0  0  0
    6.6022    2.8271    0.0000 C   0  0  0  0  0  0  0  0  0  0  0  0
    6.6371   -1.1217    0.0000 H   0  0  0  0  0  0  0  0  0  0  0  0
    3.8312   -2.7417    0.0000 H   0  0  0  0  0  0  0  0  0  0  0  0
    6.6371   -2.7417    0.0000 H   0  0  0  0  0  0  0  0  0  0  0  0
    7.3016    0.6464    0.0000 H   0  0  0  0  0  0  0  0  0  0  0  0
    4.6648    1.6061    0.0000 H   0  0  0  0  0  0  0  0  0  0  0  0
    7.8556    2.1687    0.0000 H   0  0  0  0  0  0  0  0  0  0  0  0
    5.2189    3.1284    0.0000 H   0  0  0  0  0  0  0  0  0  0  0  0
    2.0000   -1.5594    0.0000 H   0  0  0  0  0  0  0  0  0  0  0  0
    2.1865   -0.5018    0.0000 H   0  0  0  0  0  0  0  0  0  0  0  0
    5.7711   -4.2417    0.0000 H   0  0  0  0  0  0  0  0  0  0  0  0
    4.6972   -4.2417    0.0000 H   0  0  0  0  0  0  0  0  0  0  0  0
    7.5548    3.8744    0.0000 H   0  0  0  0  0  0  0  0  0  0  0  0
    6.5457    4.2417    0.0000 H   0  0  0  0  0  0  0  0  0  0  0  0
  1  3  2  0  0  0  0
  1  4  2  0  0  0  0
  1 10  1  0  0  0  0
  1 12  1  0  0  0  0
  2  5  2  0  0  0  0
  2  6  2  0  0  0  0
  2  7  1  0  0  0  0
  2 11  1  0  0  0  0
  7 29  1  0  0  0  0
  7 30  1  0  0  0  0
  8 15  1  0  0  0  0
  8 31  1  0  0  0  0
  8 32  1  0  0  0  0
  9 21  1  0  0  0  0
  9 33  1  0  0  0  0
  9 34  1  0  0  0  0
 10 11  2  0  0  0  0
 10 13  1  0  0  0  0
 11 14  1  0  0  0  0
 12 17  2  0  0  0  0
 12 18  1  0  0  0  0
 13 16  2  0  0  0  0
 13 22  1  0  0  0  0
 14 15  2  0  0  0  0
 14 23  1  0  0  0  0
 15 16  1  0  0  0  0
 16 24  1  0  0  0  0
 17 19  1  0  0  0  0
 17 25  1  0  0  0  0
 18 20  2  0  0  0  0
 18 26  1  0  0  0  0
 19 21  2  0  0  0  0
 19 27  1  0  0  0  0
 20 21  1  0  0  0  0
 20 28  1  0  0  0  0
M  END
> <PUBCHEM_COMPOUND_CID>
87190

> <PUBCHEM_COMPOUND_CANONICALIZED>
1

> <PUBCHEM_CACTVS_COMPLEXITY>
556

> <PUBCHEM_CACTVS_HBOND_ACCEPTOR>
7

> <PUBCHEM_CACTVS_HBOND_DONOR>
3

> <PUBCHEM_CACTVS_ROTATABLE_BOND>
3

> <PUBCHEM_CACTVS_SUBSKEYS>
AAADccBzOABgAAAAAAAAAAAAAAAAAAAAAAAwYAAAAAAAAAABQAAAHAQQQAAACAiBUAAwwYBAAAqAACRCQHDCABAgChAIiBgAZIgIICKgkZGAIARgkAAoyAcQAAAAAAQAACAAAgAACAAAQAAEAAAAAAAAAA==

> <PUBCHEM_IUPAC_OPENEYE_NAME>
5-amino-2-(4-aminophenyl)sulfonyl-benzenesulfonamide

> <PUBCHEM_IUPAC_CAS_NAME>
5-amino-2-(4-aminophenyl)sulfonylbenzenesulfonamide

> <PUBCHEM_IUPAC_NAME>
5-amino-2-(4-aminophenyl)sulfonylbenzenesulfonamide

> <PUBCHEM_IUPAC_SYSTEMATIC_NAME>
2-(4-aminophenyl)sulfonyl-5-azanyl-benzenesulfonamide

> <PUBCHEM_IUPAC_TRADITIONAL_NAME>
5-amino-2-sulfanilyl-benzenesulfonamide

> <PUBCHEM_IUPAC_INCHI>
InChI=1S/C12H13N3O4S2/c13-8-1-4-10(5-2-8)20(16,17)11-6-3-9(14)7-12(11)21(15,18)19/h1-7H,13-14H2,(H2,15,18,19)

> <PUBCHEM_IUPAC_INCHIKEY>
JDZPLYBLBIKFHJ-UHFFFAOYSA-N

> <PUBCHEM_XLOGP3>
-0.9

> <PUBCHEM_EXACT_MASS>
327.034748

> <PUBCHEM_MOLECULAR_FORMULA>
C12H13N3O4S2

> <PUBCHEM_MOLECULAR_WEIGHT>
327.37932

> <PUBCHEM_OPENEYE_CAN_SMILES>
C1=CC(=CC=C1N)S(=O)(=O)C2=C(C=C(C=C2)N)S(=O)(=O)N

> <PUBCHEM_OPENEYE_ISO_SMILES>
C1=CC(=CC=C1N)S(=O)(=O)C2=C(C=C(C=C2)N)S(=O)(=O)N

> <PUBCHEM_CACTVS_TPSA>
163

> <PUBCHEM_MONOISOTOPIC_WEIGHT>
327.034748

> <PUBCHEM_TOTAL_CHARGE>
0

> <PUBCHEM_HEAVY_ATOM_COUNT>
21

> <PUBCHEM_ATOM_DEF_STEREO_COUNT>
0

> <PUBCHEM_ATOM_UDEF_STEREO_COUNT>
0

> <PUBCHEM_BOND_DEF_STEREO_COUNT>
0

> <PUBCHEM_BOND_UDEF_STEREO_COUNT>
0

> <PUBCHEM_ISOTOPIC_ATOM_COUNT>
0

> <PUBCHEM_COMPONENT_COUNT>
1

> <PUBCHEM_CACTVS_TAUTO_COUNT>
1

> <PUBCHEM_COORDINATE_TYPE>
1
5
255

> <PUBCHEM_BONDANNOTATIONS>
10  11  8
10  13  8
11  14  8
12  17  8
12  18  8
13  16  8
14  15  8
15  16  8
17  19  8
18  20  8
19  21  8
20  21  8

$$$$

