97790
  -OEChem-07051213103D

 26 26  0     1  0  0  0  0  0999 V2000
    3.8409   -1.0351   -0.4612 O   0  0  0  0  0  0  0  0  0  0  0  0
   -4.3798    0.0526    0.5821 O   0  0  0  0  0  0  0  0  0  0  0  0
    1.9771    0.2669    0.3371 C   0  0  0  0  0  0  0  0  0  0  0  0
    1.0758   -0.1045   -0.8479 C   0  0  0  0  0  0  0  0  0  0  0  0
    3.4597    0.2737   -0.0470 C   0  0  1  0  0  0  0  0  0  0  0  0
   -0.3829   -0.0629   -0.4656 C   0  0  0  0  0  0  0  0  0  0  0  0
    4.3321    0.6907    1.1294 C   0  0  0  0  0  0  0  0  0  0  0  0
   -0.9890   -1.2059    0.0322 C   0  0  0  0  0  0  0  0  0  0  0  0
   -1.0919    1.1185   -0.6183 C   0  0  0  0  0  0  0  0  0  0  0  0
   -2.3378   -1.1668    0.3859 C   0  0  0  0  0  0  0  0  0  0  0  0
   -2.4405    1.1578   -0.2643 C   0  0  0  0  0  0  0  0  0  0  0  0
   -3.0636    0.0151    0.2375 C   0  0  0  0  0  0  0  0  0  0  0  0
    1.8120   -0.4558    1.1472 H   0  0  0  0  0  0  0  0  0  0  0  0
    1.6946    1.2544    0.7233 H   0  0  0  0  0  0  0  0  0  0  0  0
    1.2550    0.5814   -1.6859 H   0  0  0  0  0  0  0  0  0  0  0  0
    1.3250   -1.1052   -1.2226 H   0  0  0  0  0  0  0  0  0  0  0  0
    3.6238    0.9566   -0.8882 H   0  0  0  0  0  0  0  0  0  0  0  0
    4.0741    1.6946    1.4800 H   0  0  0  0  0  0  0  0  0  0  0  0
    5.3894    0.6837    0.8435 H   0  0  0  0  0  0  0  0  0  0  0  0
    4.2275   -0.0118    1.9636 H   0  0  0  0  0  0  0  0  0  0  0  0
   -0.4314   -2.1303    0.1532 H   0  0  0  0  0  0  0  0  0  0  0  0
   -0.6151    2.0140   -1.0065 H   0  0  0  0  0  0  0  0  0  0  0  0
   -2.8111   -2.0637    0.7762 H   0  0  0  0  0  0  0  0  0  0  0  0
   -3.0006    2.0815   -0.3817 H   0  0  0  0  0  0  0  0  0  0  0  0
    4.7785   -1.0008   -0.7166 H   0  0  0  0  0  0  0  0  0  0  0  0
   -4.6449   -0.8242    0.9095 H   0  0  0  0  0  0  0  0  0  0  0  0
  1  5  1  0  0  0  0
  1 25  1  0  0  0  0
  2 12  1  0  0  0  0
  2 26  1  0  0  0  0
  3  4  1  0  0  0  0
  3  5  1  0  0  0  0
  3 13  1  0  0  0  0
  3 14  1  0  0  0  0
  4  6  1  0  0  0  0
  4 15  1  0  0  0  0
  4 16  1  0  0  0  0
  5  7  1  0  0  0  0
  5 17  1  0  0  0  0
  6  8  2  0  0  0  0
  6  9  1  0  0  0  0
  7 18  1  0  0  0  0
  7 19  1  0  0  0  0
  7 20  1  0  0  0  0
  8 10  1  0  0  0  0
  8 21  1  0  0  0  0
  9 11  2  0  0  0  0
  9 22  1  0  0  0  0
 10 12  2  0  0  0  0
 10 23  1  0  0  0  0
 11 12  1  0  0  0  0
 11 24  1  0  0  0  0
M  END
> <PUBCHEM_COMPOUND_CID>
97790

> <PUBCHEM_CONFORMER_RMSD>
0.6

> <PUBCHEM_CONFORMER_DIVERSEORDER>
1
10
7
3
5
4
8
9
2
6

> <PUBCHEM_MMFF94_PARTIAL_CHARGES>
16
1 -0.68
10 -0.15
11 -0.15
12 0.08
2 -0.53
21 0.15
22 0.15
23 0.15
24 0.15
25 0.4
26 0.45
4 0.14
5 0.28
6 -0.14
8 -0.15
9 -0.15

> <PUBCHEM_EFFECTIVE_ROTOR_COUNT>
3

> <PUBCHEM_PHARMACOPHORE_FEATURES>
4
1 1 acceptor
1 1 donor
1 2 donor
6 6 8 9 10 11 12 rings

> <PUBCHEM_HEAVY_ATOM_COUNT>
12

> <PUBCHEM_ATOM_DEF_STEREO_COUNT>
0

> <PUBCHEM_ATOM_UDEF_STEREO_COUNT>
1

> <PUBCHEM_BOND_DEF_STEREO_COUNT>
0

> <PUBCHEM_BOND_UDEF_STEREO_COUNT>
0

> <PUBCHEM_ISOTOPIC_ATOM_COUNT>
0

> <PUBCHEM_COMPONENT_COUNT>
1

> <PUBCHEM_CACTVS_TAUTO_COUNT>
2

> <PUBCHEM_CONFORMER_ID>
00017DFE00000001

> <PUBCHEM_MMFF94_ENERGY>
23.2967

> <PUBCHEM_FEATURE_SELFOVERLAP>
20.297

> <PUBCHEM_SHAPE_FINGERPRINT>
11132069 177 18413110545612934021
11401426 45 18413394233325938405
12119455 92 17603868935687906741
12251169 10 18341895164771235868
12932764 1 17894917308760249806
13024252 1 13686301288060972949
13581323 91 18202562882224737340
14144814 61 18060424637757299408
14325111 11 18411138056381480700
15219456 202 18261672678900105966
17846911 113 18408604768748536713
18186145 218 16732985319264614892
190213 19 17561084713342005878
20279233 1 18333170561806665470
20510252 161 18337391642479968945
20528008 55 18335423460683507599
20645464 45 18259699004178453511
20645477 70 17386001815051831030
21293036 1 8142086442397199823
22926399 37 15430036534862429523
23402539 116 18408893927864637581
23559900 14 18411697729686467926
2748010 2 17984129642270979751
4175511 318 5978388287906546345
42 15 18343863337945613730
43471831 8 17845940739721704291
449060 50 18336268959941266316
69090 78 18259989266632215935

> <PUBCHEM_SHAPE_MULTIPOLES>
235.22
7.88
1.2
0.89
4.55
0.07
-0.05
-0.34
-2.28
-0.42
0.05
0.41
-0.06
0.57

> <PUBCHEM_SHAPE_SELFOVERLAP>
475.145

> <PUBCHEM_SHAPE_VOLUME>
138.5

> <PUBCHEM_COORDINATE_TYPE>
2
5
10

$$$$

