443627
  -OEChem-07051213023D

 21 21  0     1  0  0  0  0  0999 V2000
    3.1199    0.1626    0.1302 O   0  0  0  0  0  0  0  0  0  0  0  0
    1.5985    2.3719   -0.0784 O   0  0  0  0  0  0  0  0  0  0  0  0
   -3.0001   -1.0700   -0.5712 O   0  0  0  0  0  0  0  0  0  0  0  0
   -3.1538    0.9151    0.5792 O   0  0  0  0  0  0  0  0  0  0  0  0
    1.8208   -2.4303    0.1267 N   0  0  0  0  0  0  0  0  0  0  0  0
    1.1259   -1.1688    0.3900 C   0  0  1  0  0  0  0  0  0  0  0  0
    1.8007   -0.0195   -0.3607 C   0  0  1  0  0  0  0  0  0  0  0  0
   -0.3444   -1.3016   -0.0273 C   0  0  0  0  0  0  0  0  0  0  0  0
   -1.0478    0.0216   -0.0261 C   0  0  0  0  0  0  0  0  0  0  0  0
    1.0374    1.2796   -0.1448 C   0  0  0  0  0  0  0  0  0  0  0  0
   -0.4443    1.2155   -0.0578 C   0  0  0  0  0  0  0  0  0  0  0  0
   -2.5127    0.0238    0.0401 C   0  0  0  0  0  0  0  0  0  0  0  0
    1.1810   -0.9819    1.4707 H   0  0  0  0  0  0  0  0  0  0  0  0
    1.8559   -0.2064   -1.4393 H   0  0  0  0  0  0  0  0  0  0  0  0
   -0.8430   -1.9967    0.6608 H   0  0  0  0  0  0  0  0  0  0  0  0
   -0.4191   -1.7327   -1.0349 H   0  0  0  0  0  0  0  0  0  0  0  0
   -0.9788    2.1586   -0.0370 H   0  0  0  0  0  0  0  0  0  0  0  0
    1.7953   -2.6382   -0.8710 H   0  0  0  0  0  0  0  0  0  0  0  0
    1.3287   -3.1952    0.5871 H   0  0  0  0  0  0  0  0  0  0  0  0
    3.0717    0.2751    1.0950 H   0  0  0  0  0  0  0  0  0  0  0  0
   -3.9803   -1.1015   -0.5480 H   0  0  0  0  0  0  0  0  0  0  0  0
  1  7  1  0  0  0  0
  1 20  1  0  0  0  0
  2 10  2  0  0  0  0
  3 12  1  0  0  0  0
  3 21  1  0  0  0  0
  4 12  2  0  0  0  0
  5  6  1  0  0  0  0
  5 18  1  0  0  0  0
  5 19  1  0  0  0  0
  6  7  1  0  0  0  0
  6  8  1  0  0  0  0
  6 13  1  0  0  0  0
  7 10  1  0  0  0  0
  7 14  1  0  0  0  0
  8  9  1  0  0  0  0
  8 15  1  0  0  0  0
  8 16  1  0  0  0  0
  9 11  2  0  0  0  0
  9 12  1  0  0  0  0
 10 11  1  0  0  0  0
 11 17  1  0  0  0  0
M  END
> <PUBCHEM_COMPOUND_CID>
443627

> <PUBCHEM_CONFORMER_RMSD>
0.4

> <PUBCHEM_CONFORMER_DIVERSEORDER>
1
4
3
5
6
2

> <PUBCHEM_MMFF94_PARTIAL_CHARGES>
17
1 -0.68
10 0.49
11 -0.14
12 0.71
17 0.15
18 0.36
19 0.36
2 -0.57
20 0.4
21 0.5
3 -0.65
4 -0.57
5 -0.99
6 0.27
7 0.34
8 0.14
9 -0.12

> <PUBCHEM_EFFECTIVE_ROTOR_COUNT>
1.6

> <PUBCHEM_PHARMACOPHORE_FEATURES>
9
1 1 acceptor
1 1 donor
1 2 acceptor
1 3 acceptor
1 4 acceptor
1 5 cation
1 5 donor
3 3 4 12 anion
6 6 7 8 9 10 11 rings

> <PUBCHEM_HEAVY_ATOM_COUNT>
12

> <PUBCHEM_ATOM_DEF_STEREO_COUNT>
2

> <PUBCHEM_ATOM_UDEF_STEREO_COUNT>
0

> <PUBCHEM_BOND_DEF_STEREO_COUNT>
0

> <PUBCHEM_BOND_UDEF_STEREO_COUNT>
0

> <PUBCHEM_ISOTOPIC_ATOM_COUNT>
0

> <PUBCHEM_COMPONENT_COUNT>
1

> <PUBCHEM_CACTVS_TAUTO_COUNT>
36

> <PUBCHEM_CONFORMER_ID>
0006C4EB00000001

> <PUBCHEM_MMFF94_ENERGY>
12.1428

> <PUBCHEM_FEATURE_SELFOVERLAP>
45.729

> <PUBCHEM_SHAPE_FINGERPRINT>
13380535 76 18049163263735787588
14325111 11 18338233748132860189
16945 1 18412825780675456860
17990270 104 18411982489759395243
19021347 11 18412267207383699254
193761 8 17619067669570586220
20201158 50 18343303669152079723
20645477 70 18335987467842865183
20871998 22 17975692002487011062
21040471 1 17980195284249618516
2334 1 17907858401288658180
23402655 69 18266193888721929253
23552423 10 18410573955419041517
23559900 14 18264753391393526196
241688 4 17979916339055812952
2748010 2 18051701232677271484
5084963 1 18187927231413208057
528886 8 18410858754394458275
53812653 166 18408044013486519616
7364860 26 18334013899814620362

> <PUBCHEM_SHAPE_MULTIPOLES>
218.5
4.17
2.09
0.65
1.98
0.08
0
0.11
0.1
-1.17
0.03
0.1
0.02
-0.34

> <PUBCHEM_SHAPE_SELFOVERLAP>
451.523

> <PUBCHEM_SHAPE_VOLUME>
123.6

> <PUBCHEM_COORDINATE_TYPE>
2
5
10

$$$$

