442454
  -OEChem-07051212583D

 72 76  0     1  0  0  0  0  0999 V2000
    3.3129   -0.1235    0.6766 O   0  0  0  0  0  0  0  0  0  0  0  0
    0.9991    2.5949   -0.1024 O   0  0  0  0  0  0  0  0  0  0  0  0
    4.5839   -0.9764   -1.1368 O   0  0  0  0  0  0  0  0  0  0  0  0
    1.0929    0.4376   -0.9864 O   0  0  0  0  0  0  0  0  0  0  0  0
    4.8346    2.3111    1.3383 O   0  0  0  0  0  0  0  0  0  0  0  0
    3.0687    4.3658    2.3459 O   0  0  0  0  0  0  0  0  0  0  0  0
    6.6444   -1.5687    0.7772 O   0  0  0  0  0  0  0  0  0  0  0  0
    5.3204   -3.7776    1.8316 O   0  0  0  0  0  0  0  0  0  0  0  0
    3.7209   -4.4885   -0.4227 O   0  0  0  0  0  0  0  0  0  0  0  0
   -0.7248    4.6515    0.4929 O   0  0  0  0  0  0  0  0  0  0  0  0
   -3.3421   -0.6920    0.2613 O   0  0  0  0  0  0  0  0  0  0  0  0
   -2.3843    1.0948   -4.1534 O   0  0  0  0  0  0  0  0  0  0  0  0
   -4.7780    0.3635   -3.4340 O   0  0  0  0  0  0  0  0  0  0  0  0
    2.9489    1.2072    0.3102 C   0  0  2  0  0  0  0  0  0  0  0  0
    3.4136    2.1776    1.3960 C   0  0  2  0  0  0  0  0  0  0  0  0
    2.8001    3.5640    1.1987 C   0  0  1  0  0  0  0  0  0  0  0  0
    4.6106   -0.4590    0.1978 C   0  0  2  0  0  0  0  0  0  0  0  0
    1.4314    1.2567    0.1324 C   0  0  1  0  0  0  0  0  0  0  0  0
    5.2697   -1.4563    1.1488 C   0  0  1  0  0  0  0  0  0  0  0  0
    1.2866    3.4640    0.9944 C   0  0  1  0  0  0  0  0  0  0  0  0
    4.5922   -2.8248    1.0606 C   0  0  1  0  0  0  0  0  0  0  0  0
    4.5139   -3.3044   -0.3893 C   0  0  2  0  0  0  0  0  0  0  0  0
    3.8837   -2.2174   -1.2711 C   0  0  2  0  0  0  0  0  0  0  0  0
    0.6684    4.8224    0.6791 C   0  0  0  0  0  0  0  0  0  0  0  0
    3.9174   -2.5905   -2.7506 C   0  0  0  0  0  0  0  0  0  0  0  0
   -0.2299    0.3604   -1.3083 C   0  0  0  0  0  0  0  0  0  0  0  0
   -1.1451   -0.1329   -0.3779 C   0  0  0  0  0  0  0  0  0  0  0  0
   -0.6655    0.7759   -2.5671 C   0  0  0  0  0  0  0  0  0  0  0  0
   -2.5004   -0.2011   -0.7032 C   0  0  0  0  0  0  0  0  0  0  0  0
   -2.9312    0.1954   -1.9728 C   0  0  0  0  0  0  0  0  0  0  0  0
   -4.6974   -0.2447    0.1009 C   0  0  1  0  0  0  0  0  0  0  0  0
   -2.0166    0.6911   -2.9054 C   0  0  0  0  0  0  0  0  0  0  0  0
   -5.2318   -0.6014   -1.2850 C   0  0  0  0  0  0  0  0  0  0  0  0
   -4.3565    0.0405   -2.3298 C   0  0  0  0  0  0  0  0  0  0  0  0
   -5.5411   -0.8735    1.1897 C   0  0  0  0  0  0  0  0  0  0  0  0
   -6.6351   -0.1825    1.7100 C   0  0  0  0  0  0  0  0  0  0  0  0
   -5.2242   -2.1433    1.6714 C   0  0  0  0  0  0  0  0  0  0  0  0
   -7.4126   -0.7616    2.7130 C   0  0  0  0  0  0  0  0  0  0  0  0
   -6.0018   -2.7224    2.6743 C   0  0  0  0  0  0  0  0  0  0  0  0
   -7.0960   -2.0315    3.1950 C   0  0  0  0  0  0  0  0  0  0  0  0
    3.4151    1.4683   -0.6513 H   0  0  0  0  0  0  0  0  0  0  0  0
    3.1793    1.7784    2.3906 H   0  0  0  0  0  0  0  0  0  0  0  0
    3.2738    4.0529    0.3386 H   0  0  0  0  0  0  0  0  0  0  0  0
    5.2628    0.4161    0.1419 H   0  0  0  0  0  0  0  0  0  0  0  0
    0.9475    0.8582    1.0338 H   0  0  0  0  0  0  0  0  0  0  0  0
    5.2421   -1.0975    2.1833 H   0  0  0  0  0  0  0  0  0  0  0  0
    0.7927    3.0670    1.8919 H   0  0  0  0  0  0  0  0  0  0  0  0
    3.5848   -2.7700    1.4917 H   0  0  0  0  0  0  0  0  0  0  0  0
    5.5172   -3.5713   -0.7430 H   0  0  0  0  0  0  0  0  0  0  0  0
    2.8319   -2.0678   -0.9949 H   0  0  0  0  0  0  0  0  0  0  0  0
    1.0792    5.2451   -0.2438 H   0  0  0  0  0  0  0  0  0  0  0  0
    0.8223    5.5365    1.4932 H   0  0  0  0  0  0  0  0  0  0  0  0
    3.5158   -1.7713   -3.3575 H   0  0  0  0  0  0  0  0  0  0  0  0
    3.3302   -3.4893   -2.9579 H   0  0  0  0  0  0  0  0  0  0  0  0
    4.9464   -2.7557   -3.0884 H   0  0  0  0  0  0  0  0  0  0  0  0
    5.0964    2.9391    2.0331 H   0  0  0  0  0  0  0  0  0  0  0  0
    2.6470    3.9427    3.1133 H   0  0  0  0  0  0  0  0  0  0  0  0
    6.6910   -1.7373   -0.1790 H   0  0  0  0  0  0  0  0  0  0  0  0
    4.8731   -4.6355    1.7325 H   0  0  0  0  0  0  0  0  0  0  0  0
    3.8073   -4.8785   -1.3086 H   0  0  0  0  0  0  0  0  0  0  0  0
   -0.8492    4.0093   -0.2269 H   0  0  0  0  0  0  0  0  0  0  0  0
   -0.8135   -0.4739    0.5993 H   0  0  0  0  0  0  0  0  0  0  0  0
    0.0600    1.1588   -3.2810 H   0  0  0  0  0  0  0  0  0  0  0  0
   -4.7013    0.8455    0.2487 H   0  0  0  0  0  0  0  0  0  0  0  0
   -6.2566   -0.2339   -1.4079 H   0  0  0  0  0  0  0  0  0  0  0  0
   -5.2198   -1.6836   -1.4602 H   0  0  0  0  0  0  0  0  0  0  0  0
   -1.5997    1.4013   -4.6394 H   0  0  0  0  0  0  0  0  0  0  0  0
   -6.8931    0.8067    1.3412 H   0  0  0  0  0  0  0  0  0  0  0  0
   -4.3856   -2.7083    1.2737 H   0  0  0  0  0  0  0  0  0  0  0  0
   -8.2650   -0.2241    3.1180 H   0  0  0  0  0  0  0  0  0  0  0  0
   -5.7575   -3.7126    3.0476 H   0  0  0  0  0  0  0  0  0  0  0  0
   -7.7019   -2.4829    3.9751 H   0  0  0  0  0  0  0  0  0  0  0  0
  1 14  1  0  0  0  0
  1 17  1  0  0  0  0
  2 18  1  0  0  0  0
  2 20  1  0  0  0  0
  3 17  1  0  0  0  0
  3 23  1  0  0  0  0
  4 18  1  0  0  0  0
  4 26  1  0  0  0  0
  5 15  1  0  0  0  0
  5 56  1  0  0  0  0
  6 16  1  0  0  0  0
  6 57  1  0  0  0  0
  7 19  1  0  0  0  0
  7 58  1  0  0  0  0
  8 21  1  0  0  0  0
  8 59  1  0  0  0  0
  9 22  1  0  0  0  0
  9 60  1  0  0  0  0
 10 24  1  0  0  0  0
 10 61  1  0  0  0  0
 11 29  1  0  0  0  0
 11 31  1  0  0  0  0
 12 32  1  0  0  0  0
 12 67  1  0  0  0  0
 13 34  2  0  0  0  0
 14 15  1  0  0  0  0
 14 18  1  0  0  0  0
 14 41  1  0  0  0  0
 15 16  1  0  0  0  0
 15 42  1  0  0  0  0
 16 20  1  0  0  0  0
 16 43  1  0  0  0  0
 17 19  1  0  0  0  0
 17 44  1  0  0  0  0
 18 45  1  0  0  0  0
 19 21  1  0  0  0  0
 19 46  1  0  0  0  0
 20 24  1  0  0  0  0
 20 47  1  0  0  0  0
 21 22  1  0  0  0  0
 21 48  1  0  0  0  0
 22 23  1  0  0  0  0
 22 49  1  0  0  0  0
 23 25  1  0  0  0  0
 23 50  1  0  0  0  0
 24 51  1  0  0  0  0
 24 52  1  0  0  0  0
 25 53  1  0  0  0  0
 25 54  1  0  0  0  0
 25 55  1  0  0  0  0
 26 27  1  0  0  0  0
 26 28  2  0  0  0  0
 27 29  2  0  0  0  0
 27 62  1  0  0  0  0
 28 32  1  0  0  0  0
 28 63  1  0  0  0  0
 29 30  1  0  0  0  0
 30 32  2  0  0  0  0
 30 34  1  0  0  0  0
 31 33  1  0  0  0  0
 31 35  1  0  0  0  0
 31 64  1  0  0  0  0
 33 34  1  0  0  0  0
 33 65  1  0  0  0  0
 33 66  1  0  0  0  0
 35 36  2  0  0  0  0
 35 37  1  0  0  0  0
 36 38  1  0  0  0  0
 36 68  1  0  0  0  0
 37 39  2  0  0  0  0
 37 69  1  0  0  0  0
 38 40  2  0  0  0  0
 38 70  1  0  0  0  0
 39 40  1  0  0  0  0
 39 71  1  0  0  0  0
 40 72  1  0  0  0  0
M  END
> <PUBCHEM_COMPOUND_CID>
442454

> <PUBCHEM_CONFORMER_RMSD>
1.2

> <PUBCHEM_CONFORMER_DIVERSEORDER>
2
184
242
34
310
172
296
305
111
164
263
255
217
48
130
238
63
136
218
197
247
259
285
150
274
62
153
294
68
227
275
230
301
102
273
89
67
54
113
131
216
137
250
222
271
181
298
219
26
155
204
73
59
214
260
87
140
158
85
261
202
51
187
64
6
277
121
30
246
229
148
210
232
91
92
251
224
300
188
213
151
35
267
125
138
268
243
248
185
47
245
279
266
82
270
276
22
163
106
283
292
203
293
176
180
299
173
307
239
118
107
161
128
104
207
258
174
160
199
309
228
244
231
308
264
15
193
256
215
306
156
200
157
291
1
109
149
141
28
290
208
36
116
177
37
31
78
178
194
126
152
4
105
71
297
190
254
209
72
40
3
38
303
311
122
235
95
189
7
304
167
16
83
65
223
108
272
241
144
286
5
61
226
41
142
39
280
123
19
169
281
115
17
129
205
265
133
53
132
170
45
110
145
171
96
288
29
282
237
94
23
103
98
84
86
120
233
221
154
196
32
236
257
114
81
42
56
284
77
88
21
49
159
75
134
179
289
198
195
182
90
253
162
124
143
93
8
11
191
262
76
20
147
166
183
27
18
175
12
146
252
14
112
66
24
186
165
127
135
119
55
225
168
201
206
192
70
212
240
50
234
13
278
139
211
99
52
302
10
100
287
79
80
69
101
269
97
46
249
117
74
295
44
57
60
43
33
220
9
25
58

> <PUBCHEM_MMFF94_PARTIAL_CHARGES>
53
1 -0.56
10 -0.68
11 -0.36
12 -0.53
13 -0.57
14 0.28
15 0.28
16 0.28
17 0.56
18 0.56
19 0.28
2 -0.56
20 0.28
21 0.28
22 0.28
23 0.28
24 0.28
26 0.08
27 -0.15
28 -0.15
29 0.08
3 -0.56
30 0.09
31 0.42
32 0.08
33 0.06
34 0.42
35 -0.14
36 -0.15
37 -0.15
38 -0.15
39 -0.15
4 -0.36
40 -0.15
5 -0.68
56 0.4
57 0.4
58 0.4
59 0.4
6 -0.68
60 0.4
61 0.4
62 0.15
63 0.15
67 0.45
68 0.15
69 0.15
7 -0.68
70 0.15
71 0.15
72 0.15
8 -0.68
9 -0.68

> <PUBCHEM_EFFECTIVE_ROTOR_COUNT>
9

> <PUBCHEM_PHARMACOPHORE_FEATURES>
24
1 1 acceptor
1 10 acceptor
1 10 donor
1 11 acceptor
1 12 donor
1 13 acceptor
1 2 acceptor
1 3 acceptor
1 4 acceptor
1 5 acceptor
1 5 donor
1 6 acceptor
1 6 donor
1 7 acceptor
1 7 donor
1 8 acceptor
1 8 donor
1 9 acceptor
1 9 donor
6 11 29 30 31 33 34 rings
6 2 14 15 16 18 20 rings
6 26 27 28 29 30 32 rings
6 3 17 19 21 22 23 rings
6 35 36 37 38 39 40 rings

> <PUBCHEM_HEAVY_ATOM_COUNT>
40

> <PUBCHEM_ATOM_DEF_STEREO_COUNT>
11

> <PUBCHEM_ATOM_UDEF_STEREO_COUNT>
0

> <PUBCHEM_BOND_DEF_STEREO_COUNT>
0

> <PUBCHEM_BOND_UDEF_STEREO_COUNT>
0

> <PUBCHEM_ISOTOPIC_ATOM_COUNT>
0

> <PUBCHEM_COMPONENT_COUNT>
1

> <PUBCHEM_CACTVS_TAUTO_COUNT>
9

> <PUBCHEM_CONFORMER_ID>
0006C05600000002

> <PUBCHEM_MMFF94_ENERGY>
130.7963

> <PUBCHEM_FEATURE_SELFOVERLAP>
121.93

> <PUBCHEM_SHAPE_FINGERPRINT>
10169797 241 18334858338283931482
10190108 129 18262232223715433192
10985338 15 17551500051646138284
10985338 8 14636274785847472000
11135926 11 18191315883923463192
11399510 152 18192138310262493681
11991303 11 17692524933168745780
12342043 65 18131351920825291243
12422481 6 17241037833779311413
13673619 4 18060414716388191819
13782708 43 18059853944405637691
14017579 30 18267281288516018601
14950920 106 18262227825689196027
15274700 147 7629718503294497986
15324884 4 17771939110373243485
19246450 95 17823697662878681985
21796203 349 18259991483473488026
22033318 11 17825636033312501729
249057 25 17095810923947764005
394071 54 17967814946788282194
42626532 9 18201445796003184653
4408954 64 18122030313111545465
563151 74 18044654196319462561
6201320 77 18200304558830918231
6679774 75 15886285873015932882
6700243 42 16988569038766012999
86090 222 18059846251428439643

> <PUBCHEM_SHAPE_MULTIPOLES>
746.88
17.76
5.38
3.55
17.44
3.41
2.4
-16.75
-12.74
-9.42
-3.45
5.47
-0.21
5.25

> <PUBCHEM_SHAPE_SELFOVERLAP>
1614.415

> <PUBCHEM_SHAPE_VOLUME>
403.2

> <PUBCHEM_COORDINATE_TYPE>
2
5
10

$$$$

