439852
  -OEChem-07051212473D

 19 18  0     1  0  0  0  0  0999 V2000
    1.2127    0.0972    1.4324 O   0  0  0  0  0  0  0  0  0  0  0  0
    0.6007    1.9934   -0.5484 O   0  0  0  0  0  0  0  0  0  0  0  0
    3.4708   -1.0345    0.2302 O   0  0  0  0  0  0  0  0  0  0  0  0
   -1.7951    1.4487    0.4586 O   0  0  0  0  0  0  0  0  0  0  0  0
   -3.0951   -0.7005    0.4109 O   0  0  0  0  0  0  0  0  0  0  0  0
   -1.3537   -1.7759   -0.6283 O   0  0  0  0  0  0  0  0  0  0  0  0
    1.2005   -0.2691    0.0508 C   0  0  1  0  0  0  0  0  0  0  0  0
    0.2044    0.6346   -0.6836 C   0  0  1  0  0  0  0  0  0  0  0  0
    2.6265   -0.1375   -0.4852 C   0  0  0  0  0  0  0  0  0  0  0  0
   -1.1862    0.5352   -0.0809 C   0  0  0  0  0  0  0  0  0  0  0  0
   -1.8856   -0.7918   -0.1564 C   0  0  0  0  0  0  0  0  0  0  0  0
    0.9148   -1.3241    0.0102 H   0  0  0  0  0  0  0  0  0  0  0  0
    0.1568    0.3916   -1.7502 H   0  0  0  0  0  0  0  0  0  0  0  0
    2.6752   -0.3935   -1.5476 H   0  0  0  0  0  0  0  0  0  0  0  0
    3.0251    0.8719   -0.3422 H   0  0  0  0  0  0  0  0  0  0  0  0
    0.3617   -0.1682    1.8198 H   0  0  0  0  0  0  0  0  0  0  0  0
    0.0180    2.5267   -1.1158 H   0  0  0  0  0  0  0  0  0  0  0  0
    3.4090   -0.8031    1.1728 H   0  0  0  0  0  0  0  0  0  0  0  0
   -3.5749   -1.5560    0.4035 H   0  0  0  0  0  0  0  0  0  0  0  0
  1  7  1  0  0  0  0
  1 16  1  0  0  0  0
  2  8  1  0  0  0  0
  2 17  1  0  0  0  0
  3  9  1  0  0  0  0
  3 18  1  0  0  0  0
  4 10  2  0  0  0  0
  5 11  1  0  0  0  0
  5 19  1  0  0  0  0
  6 11  2  0  0  0  0
  7  8  1  0  0  0  0
  7  9  1  0  0  0  0
  7 12  1  0  0  0  0
  8 10  1  0  0  0  0
  8 13  1  0  0  0  0
  9 14  1  0  0  0  0
  9 15  1  0  0  0  0
 10 11  1  0  0  0  0
M  END
> <PUBCHEM_COMPOUND_CID>
439852

> <PUBCHEM_CONFORMER_RMSD>
0.6

> <PUBCHEM_CONFORMER_DIVERSEORDER>
2
3
8
11
1
21
5
12
13
9
15
20
16
4
18
19
10
7
6
14
17

> <PUBCHEM_MMFF94_PARTIAL_CHARGES>
15
1 -0.68
10 0.51
11 0.72
16 0.4
17 0.4
18 0.4
19 0.5
2 -0.68
3 -0.68
4 -0.57
5 -0.65
6 -0.57
7 0.28
8 0.34
9 0.28

> <PUBCHEM_EFFECTIVE_ROTOR_COUNT>
4

> <PUBCHEM_PHARMACOPHORE_FEATURES>
10
1 1 acceptor
1 1 donor
1 2 acceptor
1 2 donor
1 3 acceptor
1 3 donor
1 4 acceptor
1 5 acceptor
1 6 acceptor
3 5 6 11 anion

> <PUBCHEM_HEAVY_ATOM_COUNT>
11

> <PUBCHEM_ATOM_DEF_STEREO_COUNT>
2

> <PUBCHEM_ATOM_UDEF_STEREO_COUNT>
0

> <PUBCHEM_BOND_DEF_STEREO_COUNT>
0

> <PUBCHEM_BOND_UDEF_STEREO_COUNT>
0

> <PUBCHEM_ISOTOPIC_ATOM_COUNT>
0

> <PUBCHEM_COMPONENT_COUNT>
1

> <PUBCHEM_CACTVS_TAUTO_COUNT>
25

> <PUBCHEM_CONFORMER_ID>
0006B62C00000002

> <PUBCHEM_MMFF94_ENERGY>
16.2224

> <PUBCHEM_FEATURE_SELFOVERLAP>
50.838

> <PUBCHEM_SHAPE_FINGERPRINT>
10857977 72 18336558161215788048
12897270 3 13183017414956980722
14128692 85 18339356353762610380
15310529 11 16128389172186264471
16945 1 18113615698583414039
18185500 45 18343025449802666951
207724 885 18341888597623679047
20871998 184 18334575793042589407
23552423 10 18053378799616244453
2748010 2 18047175634380567335
369184 2 14923946768746599479
5084963 1 18113613474075197667

> <PUBCHEM_SHAPE_MULTIPOLES>
191.16
4.19
1.54
0.88
1.37
0.3
0.16
-1.67
0.38
-0.4
-0.23
0.18
0.03
-0.28

> <PUBCHEM_SHAPE_SELFOVERLAP>
372.372

> <PUBCHEM_SHAPE_VOLUME>
113.9

> <PUBCHEM_COORDINATE_TYPE>
2
5
10

$$$$

