49787013
  -OEChem-07051212532D

 94 97  0     1  0  0  0  0  0999 V2000
    7.7331    2.3840    0.0000 S   0  0  0  0  0  0  0  0  0  0  0  0
    2.5369    0.3840    0.0000 O   0  0  0  0  0  0  0  0  0  0  0  0
    5.1350    0.8840    0.0000 O   0  0  0  0  0  0  0  0  0  0  0  0
    6.0010    0.3840    0.0000 O   0  0  0  0  0  0  0  0  0  0  0  0
    6.8671    2.8840    0.0000 O   0  0  0  0  0  0  0  0  0  0  0  0
    7.2331    1.5180    0.0000 O   0  0  0  0  0  0  0  0  0  0  0  0
    6.8671    0.8840    0.0000 O   0  0  0  0  0  0  0  0  0  0  0  0
    5.1350   -1.1160    0.0000 N   0  0  0  0  0  0  0  0  0  0  0  0
    7.7331   -0.6160    0.0000 N   0  0  0  0  0  0  0  0  0  0  0  0
    7.8376   -3.6106    0.0000 N   0  0  0  0  0  0  0  0  0  0  0  0
    9.3158   -2.9524    0.0000 N   0  0  0  0  0  0  0  0  0  0  0  0
    3.4030    1.8840    0.0000 C   0  0  0  0  0  0  0  0  0  0  0  0
    2.9030    2.7500    0.0000 C   0  0  0  0  0  0  0  0  0  0  0  0
    3.9030    2.7500    0.0000 C   0  0  0  0  0  0  0  0  0  0  0  0
    3.4030    0.8840    0.0000 C   0  0  2  0  0  0  0  0  0  0  0  0
    4.2690    0.3840    0.0000 C   0  0  2  0  0  0  0  0  0  0  0  0
    4.2690   -0.6160    0.0000 C   0  0  2  0  0  0  0  0  0  0  0  0
    3.4030   -2.1160    0.0000 C   0  0  0  0  0  0  0  0  0  0  0  0
    3.4030   -1.1160    0.0000 C   0  0  0  0  0  0  0  0  0  0  0  0
    2.5369   -2.6160    0.0000 C   0  0  0  0  0  0  0  0  0  0  0  0
    4.2690   -2.6160    0.0000 C   0  0  0  0  0  0  0  0  0  0  0  0
    2.5369   -3.6160    0.0000 C   0  0  0  0  0  0  0  0  0  0  0  0
    4.2690   -3.6160    0.0000 C   0  0  0  0  0  0  0  0  0  0  0  0
    3.4030   -4.1160    0.0000 C   0  0  0  0  0  0  0  0  0  0  0  0
    6.0010   -0.6160    0.0000 C   0  0  0  0  0  0  0  0  0  0  0  0
    6.8671   -1.1160    0.0000 C   0  0  2  0  0  0  0  0  0  0  0  0
    6.8671   -2.1160    0.0000 C   0  0  0  0  0  0  0  0  0  0  0  0
    8.5991    0.8840    0.0000 C   0  0  2  0  0  0  0  0  0  0  0  0
    8.5991    1.8840    0.0000 C   0  0  0  0  0  0  0  0  0  0  0  0
    8.2331    3.2500    0.0000 C   0  0  0  0  0  0  0  0  0  0  0  0
    7.7331    0.3840    0.0000 C   0  0  0  0  0  0  0  0  0  0  0  0
    9.4651    0.3840    0.0000 C   0  0  0  0  0  0  0  0  0  0  0  0
    7.7331   -2.6160    0.0000 C   0  0  0  0  0  0  0  0  0  0  0  0
    8.7331    4.1160    0.0000 C   0  0  0  0  0  0  0  0  0  0  0  0
    7.3671    3.7500    0.0000 C   0  0  0  0  0  0  0  0  0  0  0  0
    9.0991    2.7500    0.0000 C   0  0  0  0  0  0  0  0  0  0  0  0
   10.3312    0.8840    0.0000 C   0  0  0  0  0  0  0  0  0  0  0  0
    8.6466   -2.2093    0.0000 C   0  0  0  0  0  0  0  0  0  0  0  0
   10.3312    1.8840    0.0000 C   0  0  0  0  0  0  0  0  0  0  0  0
   11.1972    0.3840    0.0000 C   0  0  0  0  0  0  0  0  0  0  0  0
    8.8158   -3.8185    0.0000 C   0  0  0  0  0  0  0  0  0  0  0  0
   11.1972    2.3840    0.0000 C   0  0  0  0  0  0  0  0  0  0  0  0
   12.0632    0.8840    0.0000 C   0  0  0  0  0  0  0  0  0  0  0  0
   12.0632    1.8840    0.0000 C   0  0  0  0  0  0  0  0  0  0  0  0
    4.0018    1.7235    0.0000 H   0  0  0  0  0  0  0  0  0  0  0  0
    2.7953    3.3606    0.0000 H   0  0  0  0  0  0  0  0  0  0  0  0
    2.3204    2.5380    0.0000 H   0  0  0  0  0  0  0  0  0  0  0  0
    4.4856    2.5380    0.0000 H   0  0  0  0  0  0  0  0  0  0  0  0
    4.0106    3.3606    0.0000 H   0  0  0  0  0  0  0  0  0  0  0  0
    3.4030    0.2640    0.0000 H   0  0  0  0  0  0  0  0  0  0  0  0
    4.2690    1.0040    0.0000 H   0  0  0  0  0  0  0  0  0  0  0  0
    4.8059   -0.3060    0.0000 H   0  0  0  0  0  0  0  0  0  0  0  0
    3.9399   -1.8060    0.0000 H   0  0  0  0  0  0  0  0  0  0  0  0
    3.1909   -0.5334    0.0000 H   0  0  0  0  0  0  0  0  0  0  0  0
    2.7924   -1.2237    0.0000 H   0  0  0  0  0  0  0  0  0  0  0  0
    2.3249   -2.0334    0.0000 H   0  0  0  0  0  0  0  0  0  0  0  0
    1.9264   -2.7237    0.0000 H   0  0  0  0  0  0  0  0  0  0  0  0
    4.8796   -2.7237    0.0000 H   0  0  0  0  0  0  0  0  0  0  0  0
    4.4810   -2.0334    0.0000 H   0  0  0  0  0  0  0  0  0  0  0  0
    4.4810   -4.1986    0.0000 H   0  0  0  0  0  0  0  0  0  0  0  0
    1.9264   -3.5084    0.0000 H   0  0  0  0  0  0  0  0  0  0  0  0
    2.3249   -4.1986    0.0000 H   0  0  0  0  0  0  0  0  0  0  0  0
    4.8796   -3.5084    0.0000 H   0  0  0  0  0  0  0  0  0  0  0  0
    3.0044   -4.5910    0.0000 H   0  0  0  0  0  0  0  0  0  0  0  0
    3.8015   -4.5910    0.0000 H   0  0  0  0  0  0  0  0  0  0  0  0
    5.1350   -1.7360    0.0000 H   0  0  0  0  0  0  0  0  0  0  0  0
    2.0000    0.6940    0.0000 H   0  0  0  0  0  0  0  0  0  0  0  0
    5.1350    1.5040    0.0000 H   0  0  0  0  0  0  0  0  0  0  0  0
    7.4040   -1.4260    0.0000 H   0  0  0  0  0  0  0  0  0  0  0  0
    6.2565   -2.0084    0.0000 H   0  0  0  0  0  0  0  0  0  0  0  0
    6.6550   -2.6986    0.0000 H   0  0  0  0  0  0  0  0  0  0  0  0
    8.2700   -0.9260    0.0000 H   0  0  0  0  0  0  0  0  0  0  0  0
    8.5991    0.2640    0.0000 H   0  0  0  0  0  0  0  0  0  0  0  0
    9.2097    1.7763    0.0000 H   0  0  0  0  0  0  0  0  0  0  0  0
    8.8112    2.4666    0.0000 H   0  0  0  0  0  0  0  0  0  0  0  0
    9.0666   -0.0910    0.0000 H   0  0  0  0  0  0  0  0  0  0  0  0
    9.8637   -0.0910    0.0000 H   0  0  0  0  0  0  0  0  0  0  0  0
    8.7891    2.2131    0.0000 H   0  0  0  0  0  0  0  0  0  0  0  0
    9.6360    2.4400    0.0000 H   0  0  0  0  0  0  0  0  0  0  0  0
    9.4091    3.2869    0.0000 H   0  0  0  0  0  0  0  0  0  0  0  0
    7.6771    4.2869    0.0000 H   0  0  0  0  0  0  0  0  0  0  0  0
    9.2700    3.8060    0.0000 H   0  0  0  0  0  0  0  0  0  0  0  0
    9.0431    4.6530    0.0000 H   0  0  0  0  0  0  0  0  0  0  0  0
    8.1962    4.4260    0.0000 H   0  0  0  0  0  0  0  0  0  0  0  0
    6.8301    4.0600    0.0000 H   0  0  0  0  0  0  0  0  0  0  0  0
    7.0571    3.2131    0.0000 H   0  0  0  0  0  0  0  0  0  0  0  0
    7.3769   -4.0254    0.0000 H   0  0  0  0  0  0  0  0  0  0  0  0
    8.7755   -1.6028    0.0000 H   0  0  0  0  0  0  0  0  0  0  0  0
    9.7942    2.1940    0.0000 H   0  0  0  0  0  0  0  0  0  0  0  0
   11.1972   -0.2360    0.0000 H   0  0  0  0  0  0  0  0  0  0  0  0
    9.0679   -4.3849    0.0000 H   0  0  0  0  0  0  0  0  0  0  0  0
   11.1972    3.0040    0.0000 H   0  0  0  0  0  0  0  0  0  0  0  0
   12.6002    0.5740    0.0000 H   0  0  0  0  0  0  0  0  0  0  0  0
   12.6002    2.1940    0.0000 H   0  0  0  0  0  0  0  0  0  0  0  0
  1  5  2  0  0  0  0
  1  6  2  0  0  0  0
  1 29  1  0  0  0  0
  1 30  1  0  0  0  0
 15  2  1  6  0  0  0
  2 67  1  0  0  0  0
 16  3  1  1  0  0  0
  3 68  1  0  0  0  0
  4 25  2  0  0  0  0
  7 31  2  0  0  0  0
 17  8  1  1  0  0  0
  8 25  1  0  0  0  0
  8 66  1  0  0  0  0
 26  9  1  1  0  0  0
  9 31  1  0  0  0  0
  9 72  1  0  0  0  0
 10 33  1  0  0  0  0
 10 41  1  0  0  0  0
 10 87  1  0  0  0  0
 11 38  1  0  0  0  0
 11 41  2  0  0  0  0
 12 13  1  0  0  0  0
 12 14  1  0  0  0  0
 12 15  1  0  0  0  0
 12 45  1  0  0  0  0
 13 14  1  0  0  0  0
 13 46  1  0  0  0  0
 13 47  1  0  0  0  0
 14 48  1  0  0  0  0
 14 49  1  0  0  0  0
 15 16  1  0  0  0  0
 15 50  1  0  0  0  0
 16 17  1  0  0  0  0
 16 51  1  0  0  0  0
 17 19  1  0  0  0  0
 17 52  1  0  0  0  0
 18 19  1  0  0  0  0
 18 20  1  0  0  0  0
 18 21  1  0  0  0  0
 18 53  1  0  0  0  0
 19 54  1  0  0  0  0
 19 55  1  0  0  0  0
 20 22  1  0  0  0  0
 20 56  1  0  0  0  0
 20 57  1  0  0  0  0
 21 23  1  0  0  0  0
 21 58  1  0  0  0  0
 21 59  1  0  0  0  0
 22 24  1  0  0  0  0
 22 61  1  0  0  0  0
 22 62  1  0  0  0  0
 23 24  1  0  0  0  0
 23 60  1  0  0  0  0
 23 63  1  0  0  0  0
 24 64  1  0  0  0  0
 24 65  1  0  0  0  0
 25 26  1  0  0  0  0
 26 27  1  0  0  0  0
 26 69  1  0  0  0  0
 27 33  1  0  0  0  0
 27 70  1  0  0  0  0
 27 71  1  0  0  0  0
 28 29  1  6  0  0  0
 28 31  1  0  0  0  0
 28 32  1  0  0  0  0
 28 73  1  0  0  0  0
 29 74  1  0  0  0  0
 29 75  1  0  0  0  0
 30 34  1  0  0  0  0
 30 35  1  0  0  0  0
 30 36  1  0  0  0  0
 32 37  1  0  0  0  0
 32 76  1  0  0  0  0
 32 77  1  0  0  0  0
 33 38  2  0  0  0  0
 34 82  1  0  0  0  0
 34 83  1  0  0  0  0
 34 84  1  0  0  0  0
 35 81  1  0  0  0  0
 35 85  1  0  0  0  0
 35 86  1  0  0  0  0
 36 78  1  0  0  0  0
 36 79  1  0  0  0  0
 36 80  1  0  0  0  0
 37 39  2  0  0  0  0
 37 40  1  0  0  0  0
 38 88  1  0  0  0  0
 39 42  1  0  0  0  0
 39 89  1  0  0  0  0
 40 43  2  0  0  0  0
 40 90  1  0  0  0  0
 41 91  1  0  0  0  0
 42 44  2  0  0  0  0
 42 92  1  0  0  0  0
 43 44  1  0  0  0  0
 43 93  1  0  0  0  0
 44 94  1  0  0  0  0
M  END
> <PUBCHEM_COMPOUND_CID>
49787013

> <PUBCHEM_COMPOUND_CANONICALIZED>
1

> <PUBCHEM_CACTVS_COMPLEXITY>
1030

> <PUBCHEM_CACTVS_HBOND_ACCEPTOR>
7

> <PUBCHEM_CACTVS_HBOND_DONOR>
5

> <PUBCHEM_CACTVS_ROTATABLE_BOND>
16

> <PUBCHEM_CACTVS_SUBSKEYS>
AAADcfB/uABAAAAAAAAAAAAAGAAAAWAAAAAwYAAAAAAAAAABwAAAHgQQCAAADTzl3ga/kJbJkgqoAzV3dHBCgC2xErAJ2YG4cIiLeDLg2TGUYAAulgL5yCecyfCOAAAAAAAAAAAAAAAAAAAAAAAAAAAAAA==

> <PUBCHEM_IUPAC_OPENEYE_NAME>
(2S)-2-benzyl-3-tert-butylsulfonyl-N-[(1S)-2-[[(1S,2S,3R)-1-(cyclohexylmethyl)-3-cyclopropyl-2,3-dihydroxy-propyl]amino]-1-(1H-imidazol-5-ylmethyl)-2-oxo-ethyl]propanamide

> <PUBCHEM_IUPAC_CAS_NAME>
(2S)-2-(tert-butylsulfonylmethyl)-N-[(2S)-1-[[(2S,3S,4R)-1-cyclohexyl-4-cyclopropyl-3,4-dihydroxybutan-2-yl]amino]-3-(1H-imidazol-5-yl)-1-oxopropan-2-yl]-3-phenylpropanamide

> <PUBCHEM_IUPAC_NAME>
(2S)-2-benzyl-3-tert-butylsulfonyl-N-[(2S)-1-[[(2S,3S,4R)-1-cyclohexyl-4-cyclopropyl-3,4-dihydroxybutan-2-yl]amino]-3-(1H-imidazol-5-yl)-1-oxopropan-2-yl]propanamide

> <PUBCHEM_IUPAC_SYSTEMATIC_NAME>
(2S)-2-(tert-butylsulfonylmethyl)-N-[(2S)-1-[[(2S,3S,4R)-1-cyclohexyl-4-cyclopropyl-3,4-bis(oxidanyl)butan-2-yl]amino]-3-(1H-imidazol-5-yl)-1-oxidanylidene-propan-2-yl]-3-phenyl-propanamide

> <PUBCHEM_IUPAC_TRADITIONAL_NAME>
(2S)-2-benzyl-3-tert-butylsulfonyl-N-[(1S)-2-[[(1S,2S,3R)-1-(cyclohexylmethyl)-3-cyclopropyl-2,3-dihydroxy-propyl]amino]-1-(1H-imidazol-5-ylmethyl)-2-keto-ethyl]propionamide

> <PUBCHEM_IUPAC_INCHI>
InChI=1S/C33H50N4O6S/c1-33(2,3)44(42,43)20-25(16-22-10-6-4-7-11-22)31(40)37-28(18-26-19-34-21-35-26)32(41)36-27(17-23-12-8-5-9-13-23)30(39)29(38)24-14-15-24/h4,6-7,10-11,19,21,23-25,27-30,38-39H,5,8-9,12-18,20H2,1-3H3,(H,34,35)(H,36,41)(H,37,40)/t25-,27+,28+,29-,30+/m1/s1

> <PUBCHEM_IUPAC_INCHIKEY>
UXIGZRQVLGFTOU-JOFXVPDFSA-N

> <PUBCHEM_XLOGP3_AA>
4

> <PUBCHEM_EXACT_MASS>
630.345106

> <PUBCHEM_MOLECULAR_FORMULA>
C33H50N4O6S

> <PUBCHEM_MOLECULAR_WEIGHT>
630.8383

> <PUBCHEM_OPENEYE_CAN_SMILES>
CC(C)(C)S(=O)(=O)CC(CC1=CC=CC=C1)C(=O)NC(CC2=CN=CN2)C(=O)NC(CC3CCCCC3)C(C(C4CC4)O)O

> <PUBCHEM_OPENEYE_ISO_SMILES>
CC(C)(C)S(=O)(=O)C[C@@H](CC1=CC=CC=C1)C(=O)N[C@@H](CC2=CN=CN2)C(=O)N[C@@H](CC3CCCCC3)[C@@H]([C@@H](C4CC4)O)O

> <PUBCHEM_CACTVS_TPSA>
170

> <PUBCHEM_MONOISOTOPIC_WEIGHT>
630.345106

> <PUBCHEM_TOTAL_CHARGE>
0

> <PUBCHEM_HEAVY_ATOM_COUNT>
44

> <PUBCHEM_ATOM_DEF_STEREO_COUNT>
5

> <PUBCHEM_ATOM_UDEF_STEREO_COUNT>
0

> <PUBCHEM_BOND_DEF_STEREO_COUNT>
0

> <PUBCHEM_BOND_UDEF_STEREO_COUNT>
0

> <PUBCHEM_ISOTOPIC_ATOM_COUNT>
0

> <PUBCHEM_COMPONENT_COUNT>
1

> <PUBCHEM_CACTVS_TAUTO_COUNT>
8

> <PUBCHEM_COORDINATE_TYPE>
1
5
255

> <PUBCHEM_BONDANNOTATIONS>
10  33  8
10  41  8
11  38  8
11  41  8
15  2  6
28  29  6
16  3  5
33  38  8
37  39  8
37  40  8
39  42  8
40  43  8
42  44  8
43  44  8
17  8  5
26  9  5

$$$$

