8717
  -OEChem-07051213143D

 23 23  0     0  0  0  0  0  0999 V2000
    2.4088   -1.4576    0.0001 N   0  0  0  0  0  0  0  0  0  0  0  0
   -1.1916    0.7087   -0.0001 C   0  0  0  0  0  0  0  0  0  0  0  0
   -1.2105   -0.6860    0.0000 C   0  0  0  0  0  0  0  0  0  0  0  0
    1.2242    0.6758    0.0000 C   0  0  0  0  0  0  0  0  0  0  0  0
    1.2053   -0.7189   -0.0002 C   0  0  0  0  0  0  0  0  0  0  0  0
    0.0258    1.3896    0.0000 C   0  0  0  0  0  0  0  0  0  0  0  0
   -0.0121   -1.3998    0.0000 C   0  0  0  0  0  0  0  0  0  0  0  0
   -2.4618    1.4942    0.0000 C   0  0  0  0  0  0  0  0  0  0  0  0
   -2.5016   -1.4366    0.0001 C   0  0  0  0  0  0  0  0  0  0  0  0
    2.5136    1.4306    0.0001 C   0  0  0  0  0  0  0  0  0  0  0  0
    0.0402    2.4769    0.0001 H   0  0  0  0  0  0  0  0  0  0  0  0
   -0.0230   -2.4875    0.0001 H   0  0  0  0  0  0  0  0  0  0  0  0
   -3.0532    1.2710    0.8941 H   0  0  0  0  0  0  0  0  0  0  0  0
   -2.2725    2.5733   -0.0004 H   0  0  0  0  0  0  0  0  0  0  0  0
   -3.0537    1.2704   -0.8935 H   0  0  0  0  0  0  0  0  0  0  0  0
   -2.3415   -2.5205    0.0002 H   0  0  0  0  0  0  0  0  0  0  0  0
   -3.0870   -1.1972    0.8938 H   0  0  0  0  0  0  0  0  0  0  0  0
   -3.0869   -1.1974   -0.8938 H   0  0  0  0  0  0  0  0  0  0  0  0
    3.0990    1.1912    0.8941 H   0  0  0  0  0  0  0  0  0  0  0  0
    3.0987    1.1918   -0.8943 H   0  0  0  0  0  0  0  0  0  0  0  0
    2.3516    2.5142    0.0005 H   0  0  0  0  0  0  0  0  0  0  0  0
    2.3751   -2.4687   -0.0007 H   0  0  0  0  0  0  0  0  0  0  0  0
    3.3056   -0.9924   -0.0011 H   0  0  0  0  0  0  0  0  0  0  0  0
  1  5  1  0  0  0  0
  1 22  1  0  0  0  0
  1 23  1  0  0  0  0
  2  3  1  0  0  0  0
  2  6  2  0  0  0  0
  2  8  1  0  0  0  0
  3  7  2  0  0  0  0
  3  9  1  0  0  0  0
  4  5  2  0  0  0  0
  4  6  1  0  0  0  0
  4 10  1  0  0  0  0
  5  7  1  0  0  0  0
  6 11  1  0  0  0  0
  7 12  1  0  0  0  0
  8 13  1  0  0  0  0
  8 14  1  0  0  0  0
  8 15  1  0  0  0  0
  9 16  1  0  0  0  0
  9 17  1  0  0  0  0
  9 18  1  0  0  0  0
 10 19  1  0  0  0  0
 10 20  1  0  0  0  0
 10 21  1  0  0  0  0
M  END
> <PUBCHEM_COMPOUND_CID>
8717

> <PUBCHEM_CONFORMER_RMSD>
0.4

> <PUBCHEM_CONFORMER_DIVERSEORDER>
1

> <PUBCHEM_MMFF94_PARTIAL_CHARGES>
14
1 -0.9
10 0.14
11 0.15
12 0.15
2 -0.14
22 0.4
23 0.4
3 -0.14
4 -0.14
5 0.1
6 -0.15
7 -0.15
8 0.14
9 0.14

> <PUBCHEM_EFFECTIVE_ROTOR_COUNT>
0

> <PUBCHEM_PHARMACOPHORE_FEATURES>
3
1 1 cation
1 1 donor
6 2 3 4 5 6 7 rings

> <PUBCHEM_HEAVY_ATOM_COUNT>
10

> <PUBCHEM_ATOM_DEF_STEREO_COUNT>
0

> <PUBCHEM_ATOM_UDEF_STEREO_COUNT>
0

> <PUBCHEM_BOND_DEF_STEREO_COUNT>
0

> <PUBCHEM_BOND_UDEF_STEREO_COUNT>
0

> <PUBCHEM_ISOTOPIC_ATOM_COUNT>
0

> <PUBCHEM_COMPONENT_COUNT>
1

> <PUBCHEM_CACTVS_TAUTO_COUNT>
1

> <PUBCHEM_CONFORMER_ID>
0000220D00000001

> <PUBCHEM_MMFF94_ENERGY>
36.7486

> <PUBCHEM_FEATURE_SELFOVERLAP>
15.223

> <PUBCHEM_SHAPE_FINGERPRINT>
11206711 2 18267021665641182613
12423570 1 11010698964892754579
12897270 3 18266459797834662877
13380535 21 18338502101773400517
16945 1 18194682557797530693
18185500 45 18124597736728111546
193761 8 18410856572556346471
19973954 147 18410573989457000421
21040471 1 18410856563977221216
21501502 16 18410856563945312873
23402655 69 18336282163071343247
23552423 10 18343863316312541118
241688 4 18341613754039615321
2748010 2 18410573993751941901
29004967 10 18126563423126935699
5084963 1 18260547818285775514

> <PUBCHEM_SHAPE_MULTIPOLES>
200.81
3.57
2.02
0.61
0.09
0.01
0
-0.17
0
-0.13
0
-0.02
-0.01
0

> <PUBCHEM_SHAPE_SELFOVERLAP>
414.111

> <PUBCHEM_SHAPE_VOLUME>
117.9

> <PUBCHEM_COORDINATE_TYPE>
2
5
10

$$$$

