92732
  -OEChem-07051213103D

 50 52  0     1  0  0  0  0  0999 V2000
    3.5566    1.1578    1.5624 O   0  0  0  0  0  0  0  0  0  0  0  0
    3.7767    1.5689   -1.1759 O   0  0  0  0  0  0  0  0  0  0  0  0
   -1.5717    3.0925    0.3504 O   0  0  0  0  0  0  0  0  0  0  0  0
   -4.0354    2.4180   -0.7442 O   0  0  0  0  0  0  0  0  0  0  0  0
   -0.8107   -2.8870   -0.1559 N   0  0  1  0  0  0  0  0  0  0  0  0
    0.0211   -2.2092    0.8751 C   0  0  1  0  0  0  0  0  0  0  0  0
    1.0284   -1.1997    0.3182 C   0  0  0  0  0  0  0  0  0  0  0  0
   -0.0639   -3.1481   -1.3921 C   0  0  0  0  0  0  0  0  0  0  0  0
    0.3597   -1.8270   -2.0259 C   0  0  0  0  0  0  0  0  0  0  0  0
    1.1853   -1.0194   -1.0669 C   0  0  0  0  0  0  0  0  0  0  0  0
   -0.9256   -1.5024    1.8644 C   0  0  0  0  0  0  0  0  0  0  0  0
    1.8575   -0.4683    1.1863 C   0  0  0  0  0  0  0  0  0  0  0  0
   -1.3714   -4.1489    0.3424 C   0  0  0  0  0  0  0  0  0  0  0  0
    2.0982   -0.0742   -1.5571 C   0  0  0  0  0  0  0  0  0  0  0  0
   -1.7493   -0.4589    1.1721 C   0  0  0  0  0  0  0  0  0  0  0  0
    2.7760    0.4591    0.6914 C   0  0  0  0  0  0  0  0  0  0  0  0
    2.8896    0.6629   -0.6796 C   0  0  0  0  0  0  0  0  0  0  0  0
   -1.2749    0.8457    1.0810 C   0  0  0  0  0  0  0  0  0  0  0  0
   -2.9818   -0.8027    0.6264 C   0  0  0  0  0  0  0  0  0  0  0  0
   -2.0417    1.8170    0.4373 C   0  0  0  0  0  0  0  0  0  0  0  0
   -3.7485    0.1684   -0.0172 C   0  0  0  0  0  0  0  0  0  0  0  0
   -3.2784    1.4782   -0.1120 C   0  0  0  0  0  0  0  0  0  0  0  0
    3.0439    2.4005    2.0387 C   0  0  0  0  0  0  0  0  0  0  0  0
    5.0892    1.0959   -1.4732 C   0  0  0  0  0  0  0  0  0  0  0  0
   -3.8288    2.5809   -2.1460 C   0  0  0  0  0  0  0  0  0  0  0  0
    0.6148   -2.9630    1.4114 H   0  0  0  0  0  0  0  0  0  0  0  0
   -0.6980   -3.6777   -2.1140 H   0  0  0  0  0  0  0  0  0  0  0  0
    0.8109   -3.7831   -1.1967 H   0  0  0  0  0  0  0  0  0  0  0  0
   -0.5200   -1.2409   -2.3198 H   0  0  0  0  0  0  0  0  0  0  0  0
    0.9375   -2.0419   -2.9327 H   0  0  0  0  0  0  0  0  0  0  0  0
   -0.3709   -1.0407    2.6911 H   0  0  0  0  0  0  0  0  0  0  0  0
   -1.5872   -2.2193    2.3659 H   0  0  0  0  0  0  0  0  0  0  0  0
    1.7958   -0.6229    2.2611 H   0  0  0  0  0  0  0  0  0  0  0  0
   -2.0058   -3.9970    1.2201 H   0  0  0  0  0  0  0  0  0  0  0  0
   -0.5885   -4.8697    0.6052 H   0  0  0  0  0  0  0  0  0  0  0  0
   -2.0154   -4.6065   -0.4175 H   0  0  0  0  0  0  0  0  0  0  0  0
    2.1978    0.0779   -2.6295 H   0  0  0  0  0  0  0  0  0  0  0  0
   -0.3318    1.1365    1.5322 H   0  0  0  0  0  0  0  0  0  0  0  0
   -3.3697   -1.8145    0.7023 H   0  0  0  0  0  0  0  0  0  0  0  0
   -4.7124   -0.1017   -0.4399 H   0  0  0  0  0  0  0  0  0  0  0  0
    3.7831    2.8401    2.7138 H   0  0  0  0  0  0  0  0  0  0  0  0
    2.1129    2.2435    2.5926 H   0  0  0  0  0  0  0  0  0  0  0  0
    2.8742    3.0918    1.2072 H   0  0  0  0  0  0  0  0  0  0  0  0
    5.0515    0.3203   -2.2446 H   0  0  0  0  0  0  0  0  0  0  0  0
    5.5721    0.7064   -0.5714 H   0  0  0  0  0  0  0  0  0  0  0  0
    5.6786    1.9360   -1.8503 H   0  0  0  0  0  0  0  0  0  0  0  0
   -2.2438    3.6404   -0.0903 H   0  0  0  0  0  0  0  0  0  0  0  0
   -4.0977    1.6639   -2.6800 H   0  0  0  0  0  0  0  0  0  0  0  0
   -2.7882    2.8463   -2.3576 H   0  0  0  0  0  0  0  0  0  0  0  0
   -4.4743    3.3912   -2.4955 H   0  0  0  0  0  0  0  0  0  0  0  0
  1 16  1  0  0  0  0
  1 23  1  0  0  0  0
  2 17  1  0  0  0  0
  2 24  1  0  0  0  0
  3 20  1  0  0  0  0
  3 47  1  0  0  0  0
  4 22  1  0  0  0  0
  4 25  1  0  0  0  0
  5  6  1  0  0  0  0
  5  8  1  0  0  0  0
  5 13  1  0  0  0  0
  6  7  1  0  0  0  0
  6 11  1  0  0  0  0
  6 26  1  0  0  0  0
  7 10  1  0  0  0  0
  7 12  2  0  0  0  0
  8  9  1  0  0  0  0
  8 27  1  0  0  0  0
  8 28  1  0  0  0  0
  9 10  1  0  0  0  0
  9 29  1  0  0  0  0
  9 30  1  0  0  0  0
 10 14  2  0  0  0  0
 11 15  1  0  0  0  0
 11 31  1  0  0  0  0
 11 32  1  0  0  0  0
 12 16  1  0  0  0  0
 12 33  1  0  0  0  0
 13 34  1  0  0  0  0
 13 35  1  0  0  0  0
 13 36  1  0  0  0  0
 14 17  1  0  0  0  0
 14 37  1  0  0  0  0
 15 18  2  0  0  0  0
 15 19  1  0  0  0  0
 16 17  2  0  0  0  0
 18 20  1  0  0  0  0
 18 38  1  0  0  0  0
 19 21  2  0  0  0  0
 19 39  1  0  0  0  0
 20 22  2  0  0  0  0
 21 22  1  0  0  0  0
 21 40  1  0  0  0  0
 23 41  1  0  0  0  0
 23 42  1  0  0  0  0
 23 43  1  0  0  0  0
 24 44  1  0  0  0  0
 24 45  1  0  0  0  0
 24 46  1  0  0  0  0
 25 48  1  0  0  0  0
 25 49  1  0  0  0  0
 25 50  1  0  0  0  0
M  END
> <PUBCHEM_COMPOUND_CID>
92732

> <PUBCHEM_CONFORMER_RMSD>
0.8

> <PUBCHEM_CONFORMER_DIVERSEORDER>
1
44
53
7
28
14
39
34
55
17
15
50
3
10
30
52
6
31
54
4
27
41
13
40
45
2
11
47
9
35
20
43
51
12
5
38
18
42
46
33
16
49
8
19
29
48
21
23
56
24
36
32
22
37
26
25

> <PUBCHEM_MMFF94_PARTIAL_CHARGES>
31
1 -0.36
10 -0.14
11 0.14
12 -0.15
13 0.27
14 -0.15
15 -0.14
16 0.08
17 0.08
18 -0.15
19 -0.15
2 -0.36
20 0.08
21 -0.15
22 0.08
23 0.28
24 0.28
25 0.28
3 -0.53
33 0.15
37 0.15
38 0.15
39 0.15
4 -0.36
40 0.15
47 0.45
5 -0.81
6 0.41
7 -0.14
8 0.27
9 0.14

> <PUBCHEM_EFFECTIVE_ROTOR_COUNT>
5.8

> <PUBCHEM_PHARMACOPHORE_FEATURES>
8
1 1 acceptor
1 2 acceptor
1 3 donor
1 4 acceptor
1 5 cation
6 15 18 19 20 21 22 rings
6 5 6 7 8 9 10 rings
6 7 10 12 14 16 17 rings

> <PUBCHEM_HEAVY_ATOM_COUNT>
25

> <PUBCHEM_ATOM_DEF_STEREO_COUNT>
0

> <PUBCHEM_ATOM_UDEF_STEREO_COUNT>
1

> <PUBCHEM_BOND_DEF_STEREO_COUNT>
0

> <PUBCHEM_BOND_UDEF_STEREO_COUNT>
0

> <PUBCHEM_ISOTOPIC_ATOM_COUNT>
0

> <PUBCHEM_COMPONENT_COUNT>
1

> <PUBCHEM_CACTVS_TAUTO_COUNT>
9

> <PUBCHEM_CONFORMER_ID>
00016A3C00000001

> <PUBCHEM_MMFF94_ENERGY>
103.2564

> <PUBCHEM_FEATURE_SELFOVERLAP>
40.62

> <PUBCHEM_SHAPE_FINGERPRINT>
10165383 225 17614790367137672595
10498660 4 18341043094678452437
10871710 139 17111574385320642120
11640471 11 17417801816676332886
11725454 13 18410020930823791834
12156800 1 16453830225814732449
12788726 201 17985547745281933138
13134695 92 17758405453611884650
13583140 156 18115305554320970570
13681431 1 17468746846162689646
13965767 371 16199868487416434381
14068700 675 13970273066510168904
14251764 3 18186239532873412656
14840074 17 15955292704259388624
14957384 54 18060698369093085708
15163728 17 18268698571144694053
17357779 13 17098910322113757095
17492 54 18339089168648775255
17980427 23 17471048085592365059
1813 80 17252583483070687970
18981168 100 17055516197589962747
20715895 44 17270339917766180197
21304303 282 17906498434328419527
21524375 3 18408882966575672914
21860390 5 17619087447794757981
22149856 69 18195804288668703833
22907989 373 18119797024111130740
23557571 272 18120633774082793947
23559900 14 18195817490115672746
238 59 17968098684785145829
3187 122 17543652832472434027
35225 105 18272094850840860444
5262128 65 17173207982209026135
633830 44 17167854270856575673
7097593 13 10086477133310004151
7808743 9 18199176313660955140
81228 2 17830440696698143986
9981440 41 18272926146061211395

> <PUBCHEM_SHAPE_MULTIPOLES>
486.03
7.15
4.05
2.03
2.81
2.1
0.29
-7.14
2.01
-2.72
0.5
0.76
-0.39
1.63

> <PUBCHEM_SHAPE_SELFOVERLAP>
1038.993

> <PUBCHEM_SHAPE_VOLUME>
271.3

> <PUBCHEM_COORDINATE_TYPE>
2
5
10

$$$$

