51090911
  -OEChem-06241223002D

 48 49  0     1  0  0  0  0  0999 V2000
    9.2665    1.0800    0.0000 S   0  0  0  0  0  0  0  0  0  0  0  0
    2.3090   -0.4109    0.0000 O   0  0  0  0  0  0  0  0  0  0  0  0
    6.4712    1.4672    0.0000 O   0  0  0  0  0  0  0  0  0  0  0  0
   11.0618    1.4672    0.0000 O   0  0  0  0  0  0  0  0  0  0  0  0
    5.3122    0.1801    0.0000 N   0  0  0  0  0  0  0  0  0  0  0  0
    8.7665   -0.4588    0.0000 N   0  0  0  0  0  0  0  0  0  0  0  0
   10.5266   -0.1801    0.0000 N   0  0  0  0  0  0  0  0  0  0  0  0
    3.6180    0.5402    0.0000 C   0  0  3  0  0  0  0  0  0  0  0  0
    2.8090    1.1280    0.0000 C   0  0  0  0  0  0  0  0  0  0  0  0
    4.5691    0.8492    0.0000 C   0  0  0  0  0  0  0  0  0  0  0  0
    3.3090   -0.4109    0.0000 C   0  0  0  0  0  0  0  0  0  0  0  0
    2.0000    0.5402    0.0000 C   0  0  0  0  0  0  0  0  0  0  0  0
    5.1043   -0.7981    0.0000 C   0  0  0  0  0  0  0  0  0  0  0  0
    6.2633    0.4891    0.0000 C   0  0  0  0  0  0  0  0  0  0  0  0
    7.0064   -0.1801    0.0000 C   0  0  0  0  0  0  0  0  0  0  0  0
    5.8475   -1.4672    0.0000 C   0  0  0  0  0  0  0  0  0  0  0  0
    7.9575    0.1290    0.0000 C   0  0  0  0  0  0  0  0  0  0  0  0
    8.2665    1.0800    0.0000 C   0  0  0  0  0  0  0  0  0  0  0  0
   12.2208    0.1801    0.0000 C   0  0  0  0  0  0  0  0  0  0  0  0
    9.5755    0.1290    0.0000 C   0  0  0  0  0  0  0  0  0  0  0  0
   11.2697    0.4891    0.0000 C   0  0  0  0  0  0  0  0  0  0  0  0
   12.9639    0.8492    0.0000 C   0  0  0  0  0  0  0  0  0  0  0  0
   12.4287   -0.7981    0.0000 C   0  0  0  0  0  0  0  0  0  0  0  0
    4.0564    0.1018    0.0000 H   0  0  0  0  0  0  0  0  0  0  0  0
    3.2239    1.5887    0.0000 H   0  0  0  0  0  0  0  0  0  0  0  0
    2.3942    1.5887    0.0000 H   0  0  0  0  0  0  0  0  0  0  0  0
    5.0577    1.2309    0.0000 H   0  0  0  0  0  0  0  0  0  0  0  0
    4.2780    1.3966    0.0000 H   0  0  0  0  0  0  0  0  0  0  0  0
    3.2442   -1.0275    0.0000 H   0  0  0  0  0  0  0  0  0  0  0  0
    3.9155   -0.5398    0.0000 H   0  0  0  0  0  0  0  0  0  0  0  0
    1.6900    1.0771    0.0000 H   0  0  0  0  0  0  0  0  0  0  0  0
    1.4336    0.2880    0.0000 H   0  0  0  0  0  0  0  0  0  0  0  0
    4.5295   -0.5658    0.0000 H   0  0  0  0  0  0  0  0  0  0  0  0
    4.7758   -1.3239    0.0000 H   0  0  0  0  0  0  0  0  0  0  0  0
    6.5179   -0.5618    0.0000 H   0  0  0  0  0  0  0  0  0  0  0  0
    7.2975   -0.7275    0.0000 H   0  0  0  0  0  0  0  0  0  0  0  0
    5.4326   -1.9280    0.0000 H   0  0  0  0  0  0  0  0  0  0  0  0
    6.3082   -1.8821    0.0000 H   0  0  0  0  0  0  0  0  0  0  0  0
    6.2623   -1.0065    0.0000 H   0  0  0  0  0  0  0  0  0  0  0  0
    7.9021    1.5816    0.0000 H   0  0  0  0  0  0  0  0  0  0  0  0
   12.8104   -0.0115    0.0000 H   0  0  0  0  0  0  0  0  0  0  0  0
   10.6555   -0.7865    0.0000 H   0  0  0  0  0  0  0  0  0  0  0  0
   13.3788    0.3884    0.0000 H   0  0  0  0  0  0  0  0  0  0  0  0
   13.4247    1.2640    0.0000 H   0  0  0  0  0  0  0  0  0  0  0  0
   12.5491    1.3099    0.0000 H   0  0  0  0  0  0  0  0  0  0  0  0
   11.8222   -0.9270    0.0000 H   0  0  0  0  0  0  0  0  0  0  0  0
   12.5576   -1.4045    0.0000 H   0  0  0  0  0  0  0  0  0  0  0  0
   13.0351   -0.6692    0.0000 H   0  0  0  0  0  0  0  0  0  0  0  0
  1 18  1  0  0  0  0
  1 20  1  0  0  0  0
  2 11  1  0  0  0  0
  2 12  1  0  0  0  0
  3 14  2  0  0  0  0
  4 21  2  0  0  0  0
  5 10  1  0  0  0  0
  5 13  1  0  0  0  0
  5 14  1  0  0  0  0
  6 17  1  0  0  0  0
  6 20  2  0  0  0  0
  7 20  1  0  0  0  0
  7 21  1  0  0  0  0
  7 42  1  0  0  0  0
  8  9  1  0  0  0  0
  8 10  1  0  0  0  0
  8 11  1  0  0  0  0
  8 24  1  0  0  0  0
  9 12  1  0  0  0  0
  9 25  1  0  0  0  0
  9 26  1  0  0  0  0
 10 27  1  0  0  0  0
 10 28  1  0  0  0  0
 11 29  1  0  0  0  0
 11 30  1  0  0  0  0
 12 31  1  0  0  0  0
 12 32  1  0  0  0  0
 13 16  1  0  0  0  0
 13 33  1  0  0  0  0
 13 34  1  0  0  0  0
 14 15  1  0  0  0  0
 15 17  1  0  0  0  0
 15 35  1  0  0  0  0
 15 36  1  0  0  0  0
 16 37  1  0  0  0  0
 16 38  1  0  0  0  0
 16 39  1  0  0  0  0
 17 18  2  0  0  0  0
 18 40  1  0  0  0  0
 19 21  1  0  0  0  0
 19 22  1  0  0  0  0
 19 23  1  0  0  0  0
 19 41  1  0  0  0  0
 22 43  1  0  0  0  0
 22 44  1  0  0  0  0
 22 45  1  0  0  0  0
 23 46  1  0  0  0  0
 23 47  1  0  0  0  0
 23 48  1  0  0  0  0
M  END
> <PUBCHEM_COMPOUND_CID>
51090911

> <PUBCHEM_COMPOUND_CANONICALIZED>
1

> <PUBCHEM_CACTVS_COMPLEXITY>
419

> <PUBCHEM_CACTVS_HBOND_ACCEPTOR>
5

> <PUBCHEM_CACTVS_HBOND_DONOR>
1

> <PUBCHEM_CACTVS_ROTATABLE_BOND>
7

> <PUBCHEM_CACTVS_SUBSKEYS>
AAADceB7MABAAAAAAAAAAAAAAAAAAWJAAAAAAAAAAAAAAAABgAAAHgQQAAAADQjl1gajkRPIFAisAQVydAAA8KlhCjkBABU4IAiAIBggzQEGAAAOFwKAACAgAAAIAAAAAAAAAAAAAAAAAAAAAAAAAAAAAA==

> <PUBCHEM_IUPAC_OPENEYE_NAME>
N-[4-[2-[ethyl(tetrahydrofuran-3-ylmethyl)amino]-2-oxo-ethyl]thiazol-2-yl]-2-methyl-propanamide

> <PUBCHEM_IUPAC_CAS_NAME>
N-[4-[2-[ethyl(3-oxolanylmethyl)amino]-2-oxoethyl]-2-thiazolyl]-2-methylpropanamide

> <PUBCHEM_IUPAC_NAME>
N-[4-[2-[ethyl(oxolan-3-ylmethyl)amino]-2-oxoethyl]-1,3-thiazol-2-yl]-2-methylpropanamide

> <PUBCHEM_IUPAC_SYSTEMATIC_NAME>
N-[4-[2-[ethyl(oxolan-3-ylmethyl)amino]-2-oxidanylidene-ethyl]-1,3-thiazol-2-yl]-2-methyl-propanamide

> <PUBCHEM_IUPAC_TRADITIONAL_NAME>
N-[4-[2-[ethyl(tetrahydrofuran-3-ylmethyl)amino]-2-keto-ethyl]thiazol-2-yl]-2-methyl-propionamide

> <PUBCHEM_IUPAC_INCHI>
InChI=1S/C16H25N3O3S/c1-4-19(8-12-5-6-22-9-12)14(20)7-13-10-23-16(17-13)18-15(21)11(2)3/h10-12H,4-9H2,1-3H3,(H,17,18,21)

> <PUBCHEM_IUPAC_INCHIKEY>
VXJXSHMMFGPMLX-UHFFFAOYSA-N

> <PUBCHEM_XLOGP3_AA>
1.5

> <PUBCHEM_EXACT_MASS>
339.161663

> <PUBCHEM_MOLECULAR_FORMULA>
C16H25N3O3S

> <PUBCHEM_MOLECULAR_WEIGHT>
339.453

> <PUBCHEM_OPENEYE_CAN_SMILES>
CCN(CC1CCOC1)C(=O)CC2=CSC(=N2)NC(=O)C(C)C

> <PUBCHEM_OPENEYE_ISO_SMILES>
CCN(CC1CCOC1)C(=O)CC2=CSC(=N2)NC(=O)C(C)C

> <PUBCHEM_CACTVS_TPSA>
99.8

> <PUBCHEM_MONOISOTOPIC_WEIGHT>
339.161663

> <PUBCHEM_TOTAL_CHARGE>
0

> <PUBCHEM_HEAVY_ATOM_COUNT>
23

> <PUBCHEM_ATOM_DEF_STEREO_COUNT>
0

> <PUBCHEM_ATOM_UDEF_STEREO_COUNT>
1

> <PUBCHEM_BOND_DEF_STEREO_COUNT>
0

> <PUBCHEM_BOND_UDEF_STEREO_COUNT>
0

> <PUBCHEM_ISOTOPIC_ATOM_COUNT>
0

> <PUBCHEM_COMPONENT_COUNT>
1

> <PUBCHEM_CACTVS_TAUTO_COUNT>
5

> <PUBCHEM_COORDINATE_TYPE>
1
5
255

> <PUBCHEM_BONDANNOTATIONS>
1  18  8
1  20  8
17  18  8
6  17  8
6  20  8
8  10  3

$$$$

