11954132
  -OEChem-07051213072D

 22 24  0     0  0  0  0  0  0999 V2000
    8.0438    1.4613    0.0000 Cl  0  0  0  0  0  0  0  0  0  0  0  0
    9.4260   -0.0503    0.0000 Cl  0  0  0  0  0  0  0  0  0  0  0  0
    5.9213    0.8623    0.0000 O   0  0  0  0  0  0  0  0  0  0  0  0
    2.4166   -0.0503    0.0000 O   0  0  0  0  0  0  0  0  0  0  0  0
    6.4213   -0.6766    0.0000 C   0  0  0  0  0  0  0  0  0  0  0  0
    5.4213   -0.6766    0.0000 C   0  0  0  0  0  0  0  0  0  0  0  0
    6.7304    0.2745    0.0000 C   0  0  0  0  0  0  0  0  0  0  0  0
    5.1123    0.2745    0.0000 C   0  0  0  0  0  0  0  0  0  0  0  0
    7.1063   -1.4613    0.0000 C   0  0  0  0  0  0  0  0  0  0  0  0
    4.7364   -1.4613    0.0000 C   0  0  0  0  0  0  0  0  0  0  0  0
    4.0969    0.5067    0.0000 C   0  0  0  0  0  0  0  0  0  0  0  0
    7.7458    0.5067    0.0000 C   0  0  0  0  0  0  0  0  0  0  0  0
    8.1268   -1.2526    0.0000 C   0  0  0  0  0  0  0  0  0  0  0  0
    3.7158   -1.2526    0.0000 C   0  0  0  0  0  0  0  0  0  0  0  0
    3.3940   -0.2619    0.0000 C   0  0  0  0  0  0  0  0  0  0  0  0
    8.4487   -0.2619    0.0000 C   0  0  0  0  0  0  0  0  0  0  0  0
    6.9079   -2.0487    0.0000 H   0  0  0  0  0  0  0  0  0  0  0  0
    4.9348   -2.0487    0.0000 H   0  0  0  0  0  0  0  0  0  0  0  0
    3.9122    1.0986    0.0000 H   0  0  0  0  0  0  0  0  0  0  0  0
    8.5399   -1.7149    0.0000 H   0  0  0  0  0  0  0  0  0  0  0  0
    3.3028   -1.7149    0.0000 H   0  0  0  0  0  0  0  0  0  0  0  0
    2.0000   -0.5094    0.0000 H   0  0  0  0  0  0  0  0  0  0  0  0
  1 12  1  0  0  0  0
  2 16  1  0  0  0  0
  3  7  1  0  0  0  0
  3  8  1  0  0  0  0
  4 15  1  0  0  0  0
  4 22  1  0  0  0  0
  5  6  1  0  0  0  0
  5  7  2  0  0  0  0
  5  9  1  0  0  0  0
  6  8  2  0  0  0  0
  6 10  1  0  0  0  0
  7 12  1  0  0  0  0
  8 11  1  0  0  0  0
  9 13  2  0  0  0  0
  9 17  1  0  0  0  0
 10 14  2  0  0  0  0
 10 18  1  0  0  0  0
 11 15  2  0  0  0  0
 11 19  1  0  0  0  0
 12 16  2  0  0  0  0
 13 16  1  0  0  0  0
 13 20  1  0  0  0  0
 14 15  1  0  0  0  0
 14 21  1  0  0  0  0
M  END
> <PUBCHEM_COMPOUND_CID>
11954132

> <PUBCHEM_COMPOUND_CANONICALIZED>
1

> <PUBCHEM_CACTVS_COMPLEXITY>
274

> <PUBCHEM_CACTVS_HBOND_ACCEPTOR>
2

> <PUBCHEM_CACTVS_HBOND_DONOR>
1

> <PUBCHEM_CACTVS_ROTATABLE_BOND>
0

> <PUBCHEM_CACTVS_SUBSKEYS>
AAADcYBwMAAGAAAAAAAAAAAAAAAAASAAAAAwYAAAAAAAAEgB/AAAGgIACAAADAaAmCAwBsAABkCIAqBSAAACCAAkJUAIikEGC8hMJzeHNxqCeWCl4BUIvYeI7PzOpAAAKQAICARIAABSABAQCAAAAAAAAA==

> <PUBCHEM_IUPAC_OPENEYE_NAME>
6,7-dichlorodibenzofuran-3-ol

> <PUBCHEM_IUPAC_CAS_NAME>
6,7-dichloro-3-dibenzofuranol

> <PUBCHEM_IUPAC_NAME>
6,7-dichlorodibenzofuran-3-ol

> <PUBCHEM_IUPAC_SYSTEMATIC_NAME>
6,7-bis(chloranyl)dibenzofuran-3-ol

> <PUBCHEM_IUPAC_TRADITIONAL_NAME>
6,7-dichlorodibenzofuran-3-ol

> <PUBCHEM_IUPAC_INCHI>
InChI=1S/C12H6Cl2O2/c13-9-4-3-8-7-2-1-6(15)5-10(7)16-12(8)11(9)14/h1-5,15H

> <PUBCHEM_IUPAC_INCHIKEY>
KDDOMWMUWCVKBL-UHFFFAOYSA-N

> <PUBCHEM_XLOGP3>
4.7

> <PUBCHEM_EXACT_MASS>
251.974485

> <PUBCHEM_MOLECULAR_FORMULA>
C12H6Cl2O2

> <PUBCHEM_MOLECULAR_WEIGHT>
253.08084

> <PUBCHEM_OPENEYE_CAN_SMILES>
C1=CC2=C(C=C1O)OC3=C2C=CC(=C3Cl)Cl

> <PUBCHEM_OPENEYE_ISO_SMILES>
C1=CC2=C(C=C1O)OC3=C2C=CC(=C3Cl)Cl

> <PUBCHEM_CACTVS_TPSA>
33.4

> <PUBCHEM_MONOISOTOPIC_WEIGHT>
251.974485

> <PUBCHEM_TOTAL_CHARGE>
0

> <PUBCHEM_HEAVY_ATOM_COUNT>
16

> <PUBCHEM_ATOM_DEF_STEREO_COUNT>
0

> <PUBCHEM_ATOM_UDEF_STEREO_COUNT>
0

> <PUBCHEM_BOND_DEF_STEREO_COUNT>
0

> <PUBCHEM_BOND_UDEF_STEREO_COUNT>
0

> <PUBCHEM_ISOTOPIC_ATOM_COUNT>
0

> <PUBCHEM_COMPONENT_COUNT>
1

> <PUBCHEM_CACTVS_TAUTO_COUNT>
3

> <PUBCHEM_COORDINATE_TYPE>
1
5
255

> <PUBCHEM_BONDANNOTATIONS>
10  14  8
11  15  8
12  16  8
13  16  8
14  15  8
3  7  8
3  8  8
5  6  8
5  7  8
5  9  8
6  10  8
6  8  8
7  12  8
8  11  8
9  13  8

$$$$

