582764
  -OEChem-06241222443D

 35 36  0     1  0  0  0  0  0999 V2000
   -3.6664    1.8816    0.4267 O   0  0  0  0  0  0  0  0  0  0  0  0
   -3.8093   -1.5523   -0.6936 O   0  0  0  0  0  0  0  0  0  0  0  0
    2.1013   -1.4330   -1.4884 N   0  0  0  0  0  0  0  0  0  0  0  0
   -2.3226   -0.4334    0.7063 N   0  0  0  0  0  0  0  0  0  0  0  0
   -2.3707    2.5844   -1.3343 N   0  0  0  0  0  0  0  0  0  0  0  0
    0.6106   -0.3303    0.0658 C   0  0  1  0  0  0  0  0  0  0  0  0
   -0.3361    0.8593    0.0300 C   0  0  0  0  0  0  0  0  0  0  0  0
    0.7062   -1.0522   -1.3045 C   0  0  0  0  0  0  0  0  0  0  0  0
    2.0483    0.0281    0.3086 C   0  0  0  0  0  0  0  0  0  0  0  0
   -1.7948    0.4928   -0.2616 C   0  0  2  0  0  0  0  0  0  0  0  0
    2.8505   -0.6394   -0.6220 C   0  0  0  0  0  0  0  0  0  0  0  0
    2.6024    0.8271    1.2951 C   0  0  0  0  0  0  0  0  0  0  0  0
    4.2303   -0.5438   -0.5638 C   0  0  0  0  0  0  0  0  0  0  0  0
   -2.7090    1.7094   -0.3240 C   0  0  0  0  0  0  0  0  0  0  0  0
    3.9920    0.9513    1.3408 C   0  0  0  0  0  0  0  0  0  0  0  0
    4.8008    0.2683    0.4197 C   0  0  0  0  0  0  0  0  0  0  0  0
   -3.2896   -1.3815    0.4060 C   0  0  0  0  0  0  0  0  0  0  0  0
   -3.6437   -2.2364    1.5932 C   0  0  0  0  0  0  0  0  0  0  0  0
    0.3120   -1.0506    0.8380 H   0  0  0  0  0  0  0  0  0  0  0  0
   -0.2957    1.3815    0.9961 H   0  0  0  0  0  0  0  0  0  0  0  0
    0.0254    1.5902   -0.7050 H   0  0  0  0  0  0  0  0  0  0  0  0
    0.0550   -1.9323   -1.3338 H   0  0  0  0  0  0  0  0  0  0  0  0
    0.4138   -0.3905   -2.1293 H   0  0  0  0  0  0  0  0  0  0  0  0
   -1.8576    0.0152   -1.2479 H   0  0  0  0  0  0  0  0  0  0  0  0
    2.4731   -1.7627   -2.3680 H   0  0  0  0  0  0  0  0  0  0  0  0
    1.9822    1.3367    2.0243 H   0  0  0  0  0  0  0  0  0  0  0  0
    4.8614   -1.0807   -1.2644 H   0  0  0  0  0  0  0  0  0  0  0  0
   -2.0114   -0.3429    1.6695 H   0  0  0  0  0  0  0  0  0  0  0  0
    4.4536    1.5722    2.1038 H   0  0  0  0  0  0  0  0  0  0  0  0
    5.8814    0.3664    0.4778 H   0  0  0  0  0  0  0  0  0  0  0  0
   -1.6031    2.4119   -1.9752 H   0  0  0  0  0  0  0  0  0  0  0  0
   -2.9050    3.4335   -1.4863 H   0  0  0  0  0  0  0  0  0  0  0  0
   -4.4861   -2.8868    1.3420 H   0  0  0  0  0  0  0  0  0  0  0  0
   -2.7842   -2.8531    1.8701 H   0  0  0  0  0  0  0  0  0  0  0  0
   -3.9273   -1.6041    2.4394 H   0  0  0  0  0  0  0  0  0  0  0  0
  1 14  2  0  0  0  0
  2 17  2  0  0  0  0
  3  8  1  0  0  0  0
  3 11  1  0  0  0  0
  3 25  1  0  0  0  0
  4 10  1  0  0  0  0
  4 17  1  0  0  0  0
  4 28  1  0  0  0  0
  5 14  1  0  0  0  0
  5 31  1  0  0  0  0
  5 32  1  0  0  0  0
  6  7  1  0  0  0  0
  6  8  1  0  0  0  0
  6  9  1  0  0  0  0
  6 19  1  0  0  0  0
  7 10  1  0  0  0  0
  7 20  1  0  0  0  0
  7 21  1  0  0  0  0
  8 22  1  0  0  0  0
  8 23  1  0  0  0  0
  9 11  1  0  0  0  0
  9 12  2  0  0  0  0
 10 14  1  0  0  0  0
 10 24  1  0  0  0  0
 11 13  2  0  0  0  0
 12 15  1  0  0  0  0
 12 26  1  0  0  0  0
 13 16  1  0  0  0  0
 13 27  1  0  0  0  0
 15 16  2  0  0  0  0
 15 29  1  0  0  0  0
 16 30  1  0  0  0  0
 17 18  1  0  0  0  0
 18 33  1  0  0  0  0
 18 34  1  0  0  0  0
 18 35  1  0  0  0  0
M  END
> <PUBCHEM_COMPOUND_CID>
582764

> <PUBCHEM_CONFORMER_RMSD>
0.8

> <PUBCHEM_CONFORMER_DIVERSEORDER>
1
54
45
4
39
47
8
15
42
7
29
56
35
2
14
50
23
49
11
58
53
22
60
43
41
48
33
13
61
44
17
26
37
46
6
51
59
21
55
40
34
57
20
62
27
28
32
18
10
36
19
24
30
52
25
12
16
38
31
9
5
3

> <PUBCHEM_MMFF94_PARTIAL_CHARGES>
25
1 -0.57
10 0.36
11 0.1
12 -0.15
13 -0.15
14 0.57
15 -0.15
16 -0.15
17 0.57
18 0.06
2 -0.57
25 0.4
26 0.15
27 0.15
28 0.37
29 0.15
3 -0.87
30 0.15
31 0.37
32 0.37
4 -0.73
5 -0.8
6 0.14
8 0.37
9 -0.14

> <PUBCHEM_EFFECTIVE_ROTOR_COUNT>
5.6

> <PUBCHEM_PHARMACOPHORE_FEATURES>
8
1 1 acceptor
1 2 acceptor
1 3 cation
1 3 donor
1 4 donor
1 5 donor
5 3 6 8 9 11 rings
6 9 11 12 13 15 16 rings

> <PUBCHEM_HEAVY_ATOM_COUNT>
18

> <PUBCHEM_ATOM_DEF_STEREO_COUNT>
0

> <PUBCHEM_ATOM_UDEF_STEREO_COUNT>
2

> <PUBCHEM_BOND_DEF_STEREO_COUNT>
0

> <PUBCHEM_BOND_UDEF_STEREO_COUNT>
0

> <PUBCHEM_ISOTOPIC_ATOM_COUNT>
0

> <PUBCHEM_COMPONENT_COUNT>
1

> <PUBCHEM_CACTVS_TAUTO_COUNT>
4

> <PUBCHEM_CONFORMER_ID>
0008E46C00000001

> <PUBCHEM_MMFF94_ENERGY>
56.9607

> <PUBCHEM_FEATURE_SELFOVERLAP>
40.684

> <PUBCHEM_SHAPE_FINGERPRINT>
10608611 8 18187650236198299776
10646746 165 18411702118852731400
11370993 144 17823117064730840779
11405975 8 18264204875912238386
11552529 35 16154558553992340463
11615757 297 16588027900448806122
12236239 1 16558747923038970753
12363563 72 18057876944999535747
12403259 118 18339093613934937560
12403259 415 18040435469504982464
12500047 106 18199753720210193285
13214271 11 18334018301934754300
13296908 3 18187646920435860104
13583140 156 18268733700030101418
14178342 30 18059572533294013859
14289901 80 18131627898512693624
15099037 37 18412265008460339251
15219456 202 18114180856361008934
15375358 24 18188493587349619557
15653759 3 18409165528094459944
18175812 5 18334016124702781388
18186145 218 16732985293568618576
18219364 16 17821453443334166160
200 152 16950573172864289613
20279233 1 18260546761755248261
20645477 56 18339639065980422693
20645477 70 17313951955954357182
20681677 76 18261121763508468256
21065201 7 18271807960247967234
22854114 59 17822007567071992762
22943178 12 18334853969663849102
23402539 116 18060140929102293207
23557571 272 18411415137475123117
23559900 14 18268425909884012510
3268164 11 18271816717517348949
5104073 3 18335986445529522034
602551 16 18201715137570066770
6049 1 18188196689081909108
7615 1 16988836185578726300
77492 1 16487249989178307328
81228 2 18343010117381388993

> <PUBCHEM_SHAPE_MULTIPOLES>
343.75
9.15
2.11
1.36
2.04
0.52
0.06
-0.85
1.98
-3.13
-0.17
0.19
-0.25
1.92

> <PUBCHEM_SHAPE_SELFOVERLAP>
722.068

> <PUBCHEM_SHAPE_VOLUME>
194.7

> <PUBCHEM_COORDINATE_TYPE>
2
5
10

$$$$

