33360
  -OEChem-07051213123D

 37 38  0     1  0  0  0  0  0999 V2000
    3.8306   -0.4444    0.5042 S   0  0  0  0  0  0  0  0  0  0  0  0
   -2.3418    0.9309   -1.0033 O   0  0  0  0  0  0  0  0  0  0  0  0
   -3.2301   -0.3710    0.7488 O   0  0  0  0  0  0  0  0  0  0  0  0
    3.0122    0.9352    0.1756 O   0  0  0  0  0  0  0  0  0  0  0  0
    3.3811   -0.9866    1.7708 O   0  0  0  0  0  0  0  0  0  0  0  0
    3.9205   -1.2537   -0.6947 O   0  0  0  0  0  0  0  0  0  0  0  0
   -1.3936   -1.2785   -0.6233 C   0  0  0  0  0  0  0  0  0  0  0  0
   -2.6825   -0.4105   -0.5686 C   0  0  2  0  0  0  0  0  0  0  0  0
   -0.3918   -0.1799   -0.4570 C   0  0  0  0  0  0  0  0  0  0  0  0
   -1.2277   -1.9141   -2.0131 C   0  0  0  0  0  0  0  0  0  0  0  0
   -1.3189   -2.3545    0.4611 C   0  0  0  0  0  0  0  0  0  0  0  0
   -1.0048    1.0402   -0.7139 C   0  0  0  0  0  0  0  0  0  0  0  0
    0.9592   -0.2363   -0.1564 C   0  0  0  0  0  0  0  0  0  0  0  0
   -0.3072    2.2327   -0.6961 C   0  0  0  0  0  0  0  0  0  0  0  0
    1.6818    0.9594   -0.1181 C   0  0  0  0  0  0  0  0  0  0  0  0
    1.0530    2.1855   -0.3886 C   0  0  0  0  0  0  0  0  0  0  0  0
   -4.4061    0.4218    0.7951 C   0  0  0  0  0  0  0  0  0  0  0  0
   -4.9496    0.4156    2.2079 C   0  0  0  0  0  0  0  0  0  0  0  0
    5.4156    0.3080    0.7695 C   0  0  0  0  0  0  0  0  0  0  0  0
   -3.4434   -0.8130   -1.2497 H   0  0  0  0  0  0  0  0  0  0  0  0
   -1.2909   -1.1700   -2.8162 H   0  0  0  0  0  0  0  0  0  0  0  0
   -0.2561   -2.4132   -2.1084 H   0  0  0  0  0  0  0  0  0  0  0  0
   -2.0073   -2.6627   -2.1935 H   0  0  0  0  0  0  0  0  0  0  0  0
   -2.1656   -3.0454    0.3839 H   0  0  0  0  0  0  0  0  0  0  0  0
   -0.3996   -2.9450    0.3732 H   0  0  0  0  0  0  0  0  0  0  0  0
   -1.3232   -1.9228    1.4685 H   0  0  0  0  0  0  0  0  0  0  0  0
    1.3943   -1.2105    0.0243 H   0  0  0  0  0  0  0  0  0  0  0  0
   -0.7961    3.1770   -0.9073 H   0  0  0  0  0  0  0  0  0  0  0  0
    1.6277    3.1079   -0.3611 H   0  0  0  0  0  0  0  0  0  0  0  0
   -4.1871    1.4555    0.5066 H   0  0  0  0  0  0  0  0  0  0  0  0
   -5.1586    0.0132    0.1113 H   0  0  0  0  0  0  0  0  0  0  0  0
   -5.8604    1.0167    2.2797 H   0  0  0  0  0  0  0  0  0  0  0  0
   -5.1746   -0.6065    2.5299 H   0  0  0  0  0  0  0  0  0  0  0  0
   -4.2076    0.8137    2.9081 H   0  0  0  0  0  0  0  0  0  0  0  0
    6.1305   -0.4812    1.0114 H   0  0  0  0  0  0  0  0  0  0  0  0
    5.7211    0.8211   -0.1444 H   0  0  0  0  0  0  0  0  0  0  0  0
    5.3390    1.0102    1.6017 H   0  0  0  0  0  0  0  0  0  0  0  0
  1  4  1  0  0  0  0
  1  5  2  0  0  0  0
  1  6  2  0  0  0  0
  1 19  1  0  0  0  0
  2  8  1  0  0  0  0
  2 12  1  0  0  0  0
  3  8  1  0  0  0  0
  3 17  1  0  0  0  0
  4 15  1  0  0  0  0
  7  8  1  0  0  0  0
  7  9  1  0  0  0  0
  7 10  1  0  0  0  0
  7 11  1  0  0  0  0
  8 20  1  0  0  0  0
  9 12  2  0  0  0  0
  9 13  1  0  0  0  0
 10 21  1  0  0  0  0
 10 22  1  0  0  0  0
 10 23  1  0  0  0  0
 11 24  1  0  0  0  0
 11 25  1  0  0  0  0
 11 26  1  0  0  0  0
 12 14  1  0  0  0  0
 13 15  2  0  0  0  0
 13 27  1  0  0  0  0
 14 16  2  0  0  0  0
 14 28  1  0  0  0  0
 15 16  1  0  0  0  0
 16 29  1  0  0  0  0
 17 18  1  0  0  0  0
 17 30  1  0  0  0  0
 17 31  1  0  0  0  0
 18 32  1  0  0  0  0
 18 33  1  0  0  0  0
 18 34  1  0  0  0  0
 19 35  1  0  0  0  0
 19 36  1  0  0  0  0
 19 37  1  0  0  0  0
M  END
> <PUBCHEM_COMPOUND_CID>
33360

> <PUBCHEM_CONFORMER_RMSD>
0.6

> <PUBCHEM_CONFORMER_DIVERSEORDER>
2
43
40
53
17
6
68
11
49
44
55
15
66
4
69
65
3
25
34
54
37
38
73
7
32
36
56
39
24
74
5
51
31
59
21
1
63
57
52
45
14
60
33
12
75
13
19
35
9
18
71
8
46
64
16
27
29
67
30
20
72
76
41
10
42
61
70
22
58
47
62
50
26
28
48
23

> <PUBCHEM_MMFF94_PARTIAL_CHARGES>
19
1 1.38
12 0.08
13 -0.15
14 -0.15
15 0.08
16 -0.15
17 0.28
19 0.11
2 -0.36
27 0.15
28 0.15
29 0.15
3 -0.56
4 -0.27
5 -0.65
6 -0.65
7 0.14
8 0.56
9 -0.14

> <PUBCHEM_EFFECTIVE_ROTOR_COUNT>
4.6

> <PUBCHEM_PHARMACOPHORE_FEATURES>
7
1 2 acceptor
1 3 acceptor
1 5 acceptor
1 6 acceptor
3 7 10 11 hydrophobe
5 2 7 8 9 12 rings
6 9 12 13 14 15 16 rings

> <PUBCHEM_HEAVY_ATOM_COUNT>
19

> <PUBCHEM_ATOM_DEF_STEREO_COUNT>
0

> <PUBCHEM_ATOM_UDEF_STEREO_COUNT>
1

> <PUBCHEM_BOND_DEF_STEREO_COUNT>
0

> <PUBCHEM_BOND_UDEF_STEREO_COUNT>
0

> <PUBCHEM_ISOTOPIC_ATOM_COUNT>
0

> <PUBCHEM_COMPONENT_COUNT>
1

> <PUBCHEM_CACTVS_TAUTO_COUNT>
1

> <PUBCHEM_CONFORMER_ID>
0000825000000002

> <PUBCHEM_MMFF94_ENERGY>
54.419

> <PUBCHEM_FEATURE_SELFOVERLAP>
35.676

> <PUBCHEM_SHAPE_FINGERPRINT>
11725454 13 15213299772272176545
12251169 10 18408603638866195733
12500047 106 16950568744547662446
12553582 1 18271821115880403314
12633257 1 18342737386209260178
12670546 177 11024108732974312929
13103583 49 17916283048929237913
13140716 1 18267023860311318312
14022347 108 18268691939978699414
14178342 30 17763749788786997496
14252887 29 18410856581832031490
15061688 2 15574702634573194409
15209294 21 17676202502875962233
15238133 3 17240755173349663576
15295992 7 17531242808254929843
15375462 189 17988650687749499434
16945 1 18342174432387912365
1813 80 17917986192102877092
19141452 34 18186523193946298766
20028762 73 18263919956831679367
20510252 161 18262809591456932520
20723712 36 18114730616712821513
21029758 27 17989766700304516884
212916 134 17095244739282692355
21403212 168 18336263548424671249
21501502 16 18122063104754320221
21524375 3 18186793657164626991
21637258 2 15769492037187773625
22182313 1 18120087535894282829
23184049 59 18335133206936068735
23379529 103 12893344424259060761
23419403 2 16736899751962870053
23559900 14 18265628735608111334
23566358 27 17272555132351429988
23622692 88 18335134276383120253
25147074 1 18192430758121177925
2748010 2 17976544128034620180
2838139 119 14779547949863148297
465052 167 17988344998011074035
5104073 3 18263937540400246984
5486654 36 18058163921333675483
6992083 37 18261678064915552893
7097593 13 18125433112531519833

> <PUBCHEM_SHAPE_MULTIPOLES>
365.51
8.83
2.1
1.52
3.88
0.09
-0.38
-0.11
-5.8
-0.23
0.65
-1.19
0.29
-0.69

> <PUBCHEM_SHAPE_SELFOVERLAP>
756.239

> <PUBCHEM_SHAPE_VOLUME>
214.3

> <PUBCHEM_COORDINATE_TYPE>
2
5
10

$$$$

