442050
  -OEChem-07051212562D

 94 98  0     1  0  0  0  0  0999 V2000
    8.2851   -2.0344    0.0000 O   0  0  0  0  0  0  0  0  0  0  0  0
    9.8760   -0.4442    0.0000 O   0  0  0  0  0  0  0  0  0  0  0  0
    7.6853    2.2720    0.0000 O   0  0  0  0  0  0  0  0  0  0  0  0
    9.2373    2.6252    0.0000 O   0  0  0  0  0  0  0  0  0  0  0  0
   10.6975    1.0336    0.0000 O   0  0  0  0  0  0  0  0  0  0  0  0
    6.4846    0.6646    0.0000 O   0  0  0  0  0  0  0  0  0  0  0  0
    8.0198   -1.0840    0.0000 O   0  0  0  0  0  0  0  0  0  0  0  0
    5.3461   -0.4618    0.0000 O   0  0  0  0  0  0  0  0  0  0  0  0
    4.8029   -2.2654    0.0000 O   0  0  0  0  0  0  0  0  0  0  0  0
    6.0355   -3.9668    0.0000 O   0  0  0  0  0  0  0  0  0  0  0  0
   11.3760    0.4219    0.0000 O   0  0  0  0  0  0  0  0  0  0  0  0
    8.9745    3.4287    0.0000 O   0  0  0  0  0  0  0  0  0  0  0  0
    6.7456    2.6475    0.0000 O   0  0  0  0  0  0  0  0  0  0  0  0
    4.1213   -1.6865    0.0000 O   0  0  0  0  0  0  0  0  0  0  0  0
    9.0100    0.0558    0.0000 C   0  0  1  0  0  0  0  0  0  0  0  0
    8.1439    0.5558    0.0000 C   0  0  2  0  0  0  0  0  0  0  0  0
    9.3419    1.6307    0.0000 C   0  0  2  0  0  0  0  0  0  0  0  0
    9.7470    0.7229    0.0000 C   0  0  2  0  0  0  0  0  0  0  0  0
    8.3532    1.5277    0.0000 C   0  0  2  0  0  0  0  0  0  0  0  0
    8.9923   -2.7420    0.0000 C   0  0  2  0  0  0  0  0  0  0  0  0
    8.0264   -3.0009    0.0000 C   0  0  2  0  0  0  0  0  0  0  0  0
    9.4923   -1.8760    0.0000 C   0  0  1  0  0  0  0  0  0  0  0  0
    9.0100   -0.9442    0.0000 C   0  0  0  0  0  0  0  0  0  0  0  0
    7.2779    0.0558    0.0000 C   0  0  2  0  0  0  0  0  0  0  0  0
    7.1604   -2.5009    0.0000 C   0  0  0  0  0  0  0  0  0  0  0  0
   10.2554    2.0375    0.0000 C   0  0  0  0  0  0  0  0  0  0  0  0
    7.0191   -0.9101    0.0000 C   0  0  0  0  0  0  0  0  0  0  0  0
   10.4901   -1.9429    0.0000 C   0  0  0  0  0  0  0  0  0  0  0  0
    6.2944   -3.0009    0.0000 C   0  0  0  0  0  0  0  0  0  0  0  0
    6.0532   -1.1689    0.0000 C   0  0  1  0  0  0  0  0  0  0  0  0
    5.7944   -2.1348    0.0000 C   0  0  1  0  0  0  0  0  0  0  0  0
    6.4533   -1.7938    0.0000 C   0  0  0  0  0  0  0  0  0  0  0  0
    7.0732   -1.5047    0.0000 C   0  0  0  0  0  0  0  0  0  0  0  0
   10.8760   -0.4442    0.0000 C   0  0  0  0  0  0  0  0  0  0  0  0
    7.7262   -1.6172    0.0000 C   0  0  0  0  0  0  0  0  0  0  0  0
    7.9960    3.2225    0.0000 C   0  0  0  0  0  0  0  0  0  0  0  0
    6.6151    1.6560    0.0000 C   0  0  0  0  0  0  0  0  0  0  0  0
   11.3760   -1.3102    0.0000 C   0  0  0  0  0  0  0  0  0  0  0  0
    7.3281    3.9668    0.0000 C   0  0  0  0  0  0  0  0  0  0  0  0
    5.8217    2.2648    0.0000 C   0  0  0  0  0  0  0  0  0  0  0  0
    4.3801   -0.7206    0.0000 C   0  0  0  0  0  0  0  0  0  0  0  0
    3.6730   -0.0135    0.0000 C   0  0  0  0  0  0  0  0  0  0  0  0
    5.9523    3.2562    0.0000 C   0  0  0  0  0  0  0  0  0  0  0  0
    4.8979    1.8821    0.0000 C   0  0  0  0  0  0  0  0  0  0  0  0
    5.1589    3.8650    0.0000 C   0  0  0  0  0  0  0  0  0  0  0  0
    4.1045    2.4909    0.0000 C   0  0  0  0  0  0  0  0  0  0  0  0
    3.9318    0.9524    0.0000 C   0  0  0  0  0  0  0  0  0  0  0  0
    2.7071   -0.2723    0.0000 C   0  0  0  0  0  0  0  0  0  0  0  0
    4.2350    3.4823    0.0000 C   0  0  0  0  0  0  0  0  0  0  0  0
    3.2247    1.6595    0.0000 C   0  0  0  0  0  0  0  0  0  0  0  0
    2.0000    0.4348    0.0000 C   0  0  0  0  0  0  0  0  0  0  0  0
    2.2588    1.4007    0.0000 C   0  0  0  0  0  0  0  0  0  0  0  0
    7.4569    1.0563    0.0000 H   0  0  0  0  0  0  0  0  0  0  0  0
   10.0581    0.1867    0.0000 H   0  0  0  0  0  0  0  0  0  0  0  0
    8.5761    2.1062    0.0000 H   0  0  0  0  0  0  0  0  0  0  0  0
    9.3698   -3.2339    0.0000 H   0  0  0  0  0  0  0  0  0  0  0  0
    7.9455   -3.6156    0.0000 H   0  0  0  0  0  0  0  0  0  0  0  0
    9.8321   -1.3574    0.0000 H   0  0  0  0  0  0  0  0  0  0  0  0
    7.3185    0.6745    0.0000 H   0  0  0  0  0  0  0  0  0  0  0  0
   10.5076    1.4710    0.0000 H   0  0  0  0  0  0  0  0  0  0  0  0
   10.8218    2.2896    0.0000 H   0  0  0  0  0  0  0  0  0  0  0  0
   10.0032    2.6038    0.0000 H   0  0  0  0  0  0  0  0  0  0  0  0
   10.4486   -2.5615    0.0000 H   0  0  0  0  0  0  0  0  0  0  0  0
   11.1087   -1.9843    0.0000 H   0  0  0  0  0  0  0  0  0  0  0  0
   10.5315   -1.3243    0.0000 H   0  0  0  0  0  0  0  0  0  0  0  0
    9.7389    2.9897    0.0000 H   0  0  0  0  0  0  0  0  0  0  0  0
   10.8254    1.6403    0.0000 H   0  0  0  0  0  0  0  0  0  0  0  0
    6.2136   -0.5700    0.0000 H   0  0  0  0  0  0  0  0  0  0  0  0
    5.3856   -1.6687    0.0000 H   0  0  0  0  0  0  0  0  0  0  0  0
    6.8917   -1.3553    0.0000 H   0  0  0  0  0  0  0  0  0  0  0  0
    6.0149   -1.3553    0.0000 H   0  0  0  0  0  0  0  0  0  0  0  0
    6.0149   -2.2322    0.0000 H   0  0  0  0  0  0  0  0  0  0  0  0
    7.6909   -1.4506    0.0000 H   0  0  0  0  0  0  0  0  0  0  0  0
    7.0192   -0.8870    0.0000 H   0  0  0  0  0  0  0  0  0  0  0  0
    6.4556   -1.5587    0.0000 H   0  0  0  0  0  0  0  0  0  0  0  0
    7.5657   -2.2161    0.0000 H   0  0  0  0  0  0  0  0  0  0  0  0
    8.3251   -1.4567    0.0000 H   0  0  0  0  0  0  0  0  0  0  0  0
    4.5656   -2.8382    0.0000 H   0  0  0  0  0  0  0  0  0  0  0  0
   10.8391   -1.6202    0.0000 H   0  0  0  0  0  0  0  0  0  0  0  0
   11.6860   -1.8471    0.0000 H   0  0  0  0  0  0  0  0  0  0  0  0
   11.9129   -1.0002    0.0000 H   0  0  0  0  0  0  0  0  0  0  0  0
    7.7896    4.3808    0.0000 H   0  0  0  0  0  0  0  0  0  0  0  0
    6.9141    4.4282    0.0000 H   0  0  0  0  0  0  0  0  0  0  0  0
    6.8666    3.5527    0.0000 H   0  0  0  0  0  0  0  0  0  0  0  0
    6.5251    3.4935    0.0000 H   0  0  0  0  0  0  0  0  0  0  0  0
    4.8169    1.2674    0.0000 H   0  0  0  0  0  0  0  0  0  0  0  0
    5.2398    4.4797    0.0000 H   0  0  0  0  0  0  0  0  0  0  0  0
    3.5317    2.2536    0.0000 H   0  0  0  0  0  0  0  0  0  0  0  0
    4.5307    1.1129    0.0000 H   0  0  0  0  0  0  0  0  0  0  0  0
    2.5466   -0.8712    0.0000 H   0  0  0  0  0  0  0  0  0  0  0  0
    3.7432    3.8598    0.0000 H   0  0  0  0  0  0  0  0  0  0  0  0
    3.3852    2.2584    0.0000 H   0  0  0  0  0  0  0  0  0  0  0  0
    1.4011    0.2743    0.0000 H   0  0  0  0  0  0  0  0  0  0  0  0
    1.8204    1.8391    0.0000 H   0  0  0  0  0  0  0  0  0  0  0  0
 20  1  1  6  0  0  0
 21  1  1  1  0  0  0
 15  2  1  1  0  0  0
  2 34  1  0  0  0  0
 19  3  1  1  0  0  0
  3 36  1  0  0  0  0
 17  4  1  6  0  0  0
  4 66  1  0  0  0  0
 18  5  1  6  0  0  0
  5 67  1  0  0  0  0
 24  6  1  6  0  0  0
  6 37  1  0  0  0  0
  7 23  2  0  0  0  0
 30  8  1  1  0  0  0
  8 41  1  0  0  0  0
 31  9  1  6  0  0  0
  9 78  1  0  0  0  0
 10 29  2  0  0  0  0
 11 34  2  0  0  0  0
 12 36  2  0  0  0  0
 13 37  2  0  0  0  0
 14 41  2  0  0  0  0
 15 16  1  0  0  0  0
 15 18  1  0  0  0  0
 15 23  1  0  0  0  0
 16 19  1  0  0  0  0
 16 24  1  0  0  0  0
 16 53  1  6  0  0  0
 17 18  1  0  0  0  0
 17 19  1  0  0  0  0
 17 26  1  0  0  0  0
 18 54  1  0  0  0  0
 19 55  1  0  0  0  0
 20 21  1  0  0  0  0
 20 22  1  0  0  0  0
 20 56  1  0  0  0  0
 21 25  1  0  0  0  0
 21 57  1  0  0  0  0
 22 23  1  0  0  0  0
 22 28  1  1  0  0  0
 22 58  1  0  0  0  0
 24 27  1  0  0  0  0
 24 59  1  0  0  0  0
 25 29  1  0  0  0  0
 25 32  1  0  0  0  0
 25 33  1  0  0  0  0
 26 60  1  0  0  0  0
 26 61  1  0  0  0  0
 26 62  1  0  0  0  0
 27 30  1  0  0  0  0
 27 35  2  0  0  0  0
 28 63  1  0  0  0  0
 28 64  1  0  0  0  0
 28 65  1  0  0  0  0
 29 31  1  0  0  0  0
 30 31  1  0  0  0  0
 30 68  1  0  0  0  0
 31 69  1  0  0  0  0
 32 70  1  0  0  0  0
 32 71  1  0  0  0  0
 32 72  1  0  0  0  0
 33 73  1  0  0  0  0
 33 74  1  0  0  0  0
 33 75  1  0  0  0  0
 34 38  1  0  0  0  0
 35 76  1  0  0  0  0
 35 77  1  0  0  0  0
 36 39  1  0  0  0  0
 37 40  1  0  0  0  0
 38 79  1  0  0  0  0
 38 80  1  0  0  0  0
 38 81  1  0  0  0  0
 39 82  1  0  0  0  0
 39 83  1  0  0  0  0
 39 84  1  0  0  0  0
 40 43  2  0  0  0  0
 40 44  1  0  0  0  0
 41 42  1  0  0  0  0
 42 47  2  0  0  0  0
 42 48  1  0  0  0  0
 43 45  1  0  0  0  0
 43 85  1  0  0  0  0
 44 46  2  0  0  0  0
 44 86  1  0  0  0  0
 45 49  2  0  0  0  0
 45 87  1  0  0  0  0
 46 49  1  0  0  0  0
 46 88  1  0  0  0  0
 47 50  1  0  0  0  0
 47 89  1  0  0  0  0
 48 51  2  0  0  0  0
 48 90  1  0  0  0  0
 49 91  1  0  0  0  0
 50 52  2  0  0  0  0
 50 92  1  0  0  0  0
 51 52  1  0  0  0  0
 51 93  1  0  0  0  0
 52 94  1  0  0  0  0
M  END
> <PUBCHEM_COMPOUND_CID>
442050

> <PUBCHEM_COMPOUND_CANONICALIZED>
1

> <PUBCHEM_CACTVS_COMPLEXITY>
1460

> <PUBCHEM_CACTVS_HBOND_ACCEPTOR>
14

> <PUBCHEM_CACTVS_HBOND_DONOR>
3

> <PUBCHEM_CACTVS_ROTATABLE_BOND>
10

> <PUBCHEM_CACTVS_SUBSKEYS>
AAADcfB8PAAAAAAAAAAAAAAAEgAAAYAAAAAwYAAAAAAAAAABQAAAGgAACAAAD1SgmAIyCIAABgCIAqDSCAICAAAkAAAIiAFACMgJNjaANRyCcQAl4AELqYfK7PzPgAAAAAAAAAAAAAAAAAAAAYQADCAAAA==

> <PUBCHEM_IUPAC_INCHI>
InChI=1S/C38H42O14/c1-18-26(50-33(44)22-14-10-8-11-15-22)24-31(48-20(3)39)37(7,47)35(46)38(24,52-21(4)40)29(42)19(2)28-32(49-28)36(5,6)30(43)25(41)27(18)51-34(45)23-16-12-9-13-17-23/h8-17,19,24-28,31-32,35,41,46-47H,1H2,2-7H3/t19-,24-,25+,26-,27-,28-,31+,32+,35-,37-,38+/m0/s1

> <PUBCHEM_IUPAC_INCHIKEY>
JFOILMZFESGPDU-GXRLDEOZSA-N

> <PUBCHEM_XLOGP3_AA>
2.1

> <PUBCHEM_EXACT_MASS>
722.257456

> <PUBCHEM_MOLECULAR_FORMULA>
C38H42O14

> <PUBCHEM_MOLECULAR_WEIGHT>
722.73168

> <PUBCHEM_OPENEYE_CAN_SMILES>
CC1C2C(O2)C(C(=O)C(C(C(=C)C(C3C(C(C(C3(C1=O)OC(=O)C)O)(C)O)OC(=O)C)OC(=O)C4=CC=CC=C4)OC(=O)C5=CC=CC=C5)O)(C)C

> <PUBCHEM_OPENEYE_ISO_SMILES>
C[C@H]1[C@H]2[C@@H](O2)C(C(=O)[C@@H]([C@H](C(=C)[C@@H]([C@H]3[C@H]([C@]([C@@H]([C@@]3(C1=O)OC(=O)C)O)(C)O)OC(=O)C)OC(=O)C4=CC=CC=C4)OC(=O)C5=CC=CC=C5)O)(C)C

> <PUBCHEM_CACTVS_TPSA>
213

> <PUBCHEM_MONOISOTOPIC_WEIGHT>
722.257456

> <PUBCHEM_TOTAL_CHARGE>
0

> <PUBCHEM_HEAVY_ATOM_COUNT>
52

> <PUBCHEM_ATOM_DEF_STEREO_COUNT>
11

> <PUBCHEM_ATOM_UDEF_STEREO_COUNT>
0

> <PUBCHEM_BOND_DEF_STEREO_COUNT>
0

> <PUBCHEM_BOND_UDEF_STEREO_COUNT>
0

> <PUBCHEM_ISOTOPIC_ATOM_COUNT>
0

> <PUBCHEM_COMPONENT_COUNT>
1

> <PUBCHEM_CACTVS_TAUTO_COUNT>
18

> <PUBCHEM_COORDINATE_TYPE>
1
5
255

> <PUBCHEM_BONDANNOTATIONS>
20  1  6
21  1  5
16  53  6
15  2  5
22  28  5
19  3  5
17  4  6
40  43  8
40  44  8
42  47  8
42  48  8
43  45  8
44  46  8
45  49  8
46  49  8
47  50  8
48  51  8
18  5  6
50  52  8
51  52  8
24  6  6
30  8  5
31  9  6

$$$$

