239805
  -OEChem-07051213073D

 57 60  0     1  0  0  0  0  0999 V2000
   -2.7857    2.3069   -1.4297 F   0  0  0  0  0  0  0  0  0  0  0  0
    4.1966   -0.5955   -0.1768 O   0  0  0  0  0  0  0  0  0  0  0  0
   -6.5816   -0.6504    1.2959 O   0  0  0  0  0  0  0  0  0  0  0  0
    5.6040    0.4377    1.3317 O   0  0  0  0  0  0  0  0  0  0  0  0
    0.8733    0.8401    0.3431 C   0  0  2  0  0  0  0  0  0  0  0  0
    1.7362   -0.2765   -0.2766 C   0  0  2  0  0  0  0  0  0  0  0  0
   -0.5584    0.8531   -0.2019 C   0  0  1  0  0  0  0  0  0  0  0  0
   -1.2304   -0.5199    0.1155 C   0  0  1  0  0  0  0  0  0  0  0  0
   -2.7270   -0.5950   -0.3773 C   0  0  2  0  0  0  0  0  0  0  0  0
    1.1124   -1.6241    0.1071 C   0  0  0  0  0  0  0  0  0  0  0  0
   -0.3549   -1.7177   -0.3485 C   0  0  0  0  0  0  0  0  0  0  0  0
    3.0777    0.0328    0.4185 C   0  0  2  0  0  0  0  0  0  0  0  0
    1.7399    2.0880    0.1883 C   0  0  0  0  0  0  0  0  0  0  0  0
   -1.3794    1.9940    0.4137 C   0  0  0  0  0  0  0  0  0  0  0  0
    3.1781    1.5707    0.3762 C   0  0  0  0  0  0  0  0  0  0  0  0
   -3.4896    0.6517    0.0912 C   0  0  0  0  0  0  0  0  0  0  0  0
    1.8848   -0.1951   -1.8168 C   0  0  0  0  0  0  0  0  0  0  0  0
   -2.8112    1.9864   -0.1030 C   0  0  2  0  0  0  0  0  0  0  0  0
   -3.3781   -1.8715    0.2322 C   0  0  0  0  0  0  0  0  0  0  0  0
   -2.8236   -0.6750   -1.9180 C   0  0  0  0  0  0  0  0  0  0  0  0
   -4.8955   -1.8878    0.1323 C   0  0  0  0  0  0  0  0  0  0  0  0
   -4.7151    0.6168    0.6416 C   0  0  0  0  0  0  0  0  0  0  0  0
   -5.4759   -0.6483    0.7585 C   0  0  0  0  0  0  0  0  0  0  0  0
    5.4190   -0.3073    0.3793 C   0  0  0  0  0  0  0  0  0  0  0  0
    6.5008   -1.0529   -0.3663 C   0  0  0  0  0  0  0  0  0  0  0  0
    7.8835   -0.7612    0.1898 C   0  0  0  0  0  0  0  0  0  0  0  0
    0.7963    0.6584    1.4285 H   0  0  0  0  0  0  0  0  0  0  0  0
   -0.5287    1.0104   -1.2856 H   0  0  0  0  0  0  0  0  0  0  0  0
   -1.2617   -0.5899    1.2152 H   0  0  0  0  0  0  0  0  0  0  0  0
    1.1472   -1.7596    1.1960 H   0  0  0  0  0  0  0  0  0  0  0  0
    1.6864   -2.4528   -0.3246 H   0  0  0  0  0  0  0  0  0  0  0  0
   -0.3828   -1.8082   -1.4387 H   0  0  0  0  0  0  0  0  0  0  0  0
   -0.7638   -2.6539    0.0473 H   0  0  0  0  0  0  0  0  0  0  0  0
    3.0214   -0.2935    1.4672 H   0  0  0  0  0  0  0  0  0  0  0  0
    1.4924    2.8537    0.9305 H   0  0  0  0  0  0  0  0  0  0  0  0
    1.6222    2.5376   -0.8040 H   0  0  0  0  0  0  0  0  0  0  0  0
   -0.9199    2.9551    0.1552 H   0  0  0  0  0  0  0  0  0  0  0  0
   -1.3782    1.9128    1.5081 H   0  0  0  0  0  0  0  0  0  0  0  0
    3.8226    1.9270   -0.4353 H   0  0  0  0  0  0  0  0  0  0  0  0
    3.5908    1.9586    1.3141 H   0  0  0  0  0  0  0  0  0  0  0  0
    2.3681    0.7323   -2.1398 H   0  0  0  0  0  0  0  0  0  0  0  0
    2.5020   -1.0225   -2.1859 H   0  0  0  0  0  0  0  0  0  0  0  0
    0.9274   -0.2534   -2.3408 H   0  0  0  0  0  0  0  0  0  0  0  0
   -3.3653    2.7906    0.3942 H   0  0  0  0  0  0  0  0  0  0  0  0
   -3.1068   -1.9485    1.2945 H   0  0  0  0  0  0  0  0  0  0  0  0
   -2.9902   -2.7750   -0.2530 H   0  0  0  0  0  0  0  0  0  0  0  0
   -2.2393    0.1066   -2.4125 H   0  0  0  0  0  0  0  0  0  0  0  0
   -2.4641   -1.6384   -2.2948 H   0  0  0  0  0  0  0  0  0  0  0  0
   -3.8583   -0.5645   -2.2633 H   0  0  0  0  0  0  0  0  0  0  0  0
   -5.2807   -2.7615    0.6696 H   0  0  0  0  0  0  0  0  0  0  0  0
   -5.2350   -1.9499   -0.9063 H   0  0  0  0  0  0  0  0  0  0  0  0
   -5.2194    1.5182    0.9738 H   0  0  0  0  0  0  0  0  0  0  0  0
    6.2967   -2.1260   -0.2896 H   0  0  0  0  0  0  0  0  0  0  0  0
    6.4632   -0.7547   -1.4193 H   0  0  0  0  0  0  0  0  0  0  0  0
    7.9538   -1.0545    1.2426 H   0  0  0  0  0  0  0  0  0  0  0  0
    8.6442   -1.3132   -0.3707 H   0  0  0  0  0  0  0  0  0  0  0  0
    8.1167    0.3067    0.1236 H   0  0  0  0  0  0  0  0  0  0  0  0
  1 18  1  0  0  0  0
  2 12  1  0  0  0  0
  2 24  1  0  0  0  0
  3 23  2  0  0  0  0
  4 24  2  0  0  0  0
  5  6  1  0  0  0  0
  5  7  1  0  0  0  0
  5 13  1  0  0  0  0
  5 27  1  0  0  0  0
  6 10  1  0  0  0  0
  6 12  1  0  0  0  0
  6 17  1  0  0  0  0
  7  8  1  0  0  0  0
  7 14  1  0  0  0  0
  7 28  1  0  0  0  0
  8  9  1  0  0  0  0
  8 11  1  0  0  0  0
  8 29  1  0  0  0  0
  9 16  1  0  0  0  0
  9 19  1  0  0  0  0
  9 20  1  0  0  0  0
 10 11  1  0  0  0  0
 10 30  1  0  0  0  0
 10 31  1  0  0  0  0
 11 32  1  0  0  0  0
 11 33  1  0  0  0  0
 12 15  1  0  0  0  0
 12 34  1  0  0  0  0
 13 15  1  0  0  0  0
 13 35  1  0  0  0  0
 13 36  1  0  0  0  0
 14 18  1  0  0  0  0
 14 37  1  0  0  0  0
 14 38  1  0  0  0  0
 15 39  1  0  0  0  0
 15 40  1  0  0  0  0
 16 18  1  0  0  0  0
 16 22  2  0  0  0  0
 17 41  1  0  0  0  0
 17 42  1  0  0  0  0
 17 43  1  0  0  0  0
 18 44  1  0  0  0  0
 19 21  1  0  0  0  0
 19 45  1  0  0  0  0
 19 46  1  0  0  0  0
 20 47  1  0  0  0  0
 20 48  1  0  0  0  0
 20 49  1  0  0  0  0
 21 23  1  0  0  0  0
 21 50  1  0  0  0  0
 21 51  1  0  0  0  0
 22 23  1  0  0  0  0
 22 52  1  0  0  0  0
 24 25  1  0  0  0  0
 25 26  1  0  0  0  0
 25 53  1  0  0  0  0
 25 54  1  0  0  0  0
 26 55  1  0  0  0  0
 26 56  1  0  0  0  0
 26 57  1  0  0  0  0
M  END
> <PUBCHEM_COMPOUND_CID>
239805

> <PUBCHEM_CONFORMER_RMSD>
0.8

> <PUBCHEM_CONFORMER_DIVERSEORDER>
1
2
3

> <PUBCHEM_MMFF94_PARTIAL_CHARGES>
14
1 -0.34
12 0.28
16 -0.28
18 0.48
2 -0.43
21 0.06
22 -0.14
23 0.49
24 0.66
25 0.06
3 -0.57
4 -0.57
52 0.15
9 0.14

> <PUBCHEM_EFFECTIVE_ROTOR_COUNT>
4.8

> <PUBCHEM_PHARMACOPHORE_FEATURES>
7
1 26 hydrophobe
1 3 acceptor
1 4 acceptor
5 5 6 12 13 15 rings
6 5 6 7 8 10 11 rings
6 7 8 9 14 16 18 rings
6 9 16 19 21 22 23 rings

> <PUBCHEM_HEAVY_ATOM_COUNT>
26

> <PUBCHEM_ATOM_DEF_STEREO_COUNT>
7

> <PUBCHEM_ATOM_UDEF_STEREO_COUNT>
0

> <PUBCHEM_BOND_DEF_STEREO_COUNT>
0

> <PUBCHEM_BOND_UDEF_STEREO_COUNT>
0

> <PUBCHEM_ISOTOPIC_ATOM_COUNT>
0

> <PUBCHEM_COMPONENT_COUNT>
1

> <PUBCHEM_CACTVS_TAUTO_COUNT>
2

> <PUBCHEM_CONFORMER_ID>
0003A8BD00000001

> <PUBCHEM_MMFF94_ENERGY>
72.3363

> <PUBCHEM_FEATURE_SELFOVERLAP>
35.616

> <PUBCHEM_SHAPE_FINGERPRINT>
10 15 18335149653194163768
11315181 36 17918273151409854908
11524674 6 16950281797439998814
11578080 2 16843057556917400439
11646440 116 17968090928438206648
11963148 33 18342742896774588514
12166972 35 17561079177124225028
12236239 1 17704068512769687740
12403259 415 18334304158173947216
12616971 3 17895197658197221924
13140716 1 18193556666670786763
13288520 33 18411418418676805445
13685833 64 18411698786295856418
13862211 1 18409449146529123375
14251764 18 18409448060260768768
14341114 176 18410291389531427600
14849402 71 18263361387644368344
14856354 85 18201429259919912374
14955137 171 18186517692230349040
15042514 8 18267022756748017843
15196674 1 18336828597889340049
15788980 27 17821731619955328510
17349148 13 17632856425608554400
18608769 82 18411698755962488794
18927931 339 18412261731495556423
20028762 73 18188212000646510422
21033648 29 17531546350699760856
21130935 74 17967813817080287418
21150785 3 15985099700621896090
21236236 1 18408887364711607664
21267235 1 18411975858250509194
21279426 13 18193275415602217862
21792934 111 18410854348797548281
22182313 1 18041552658653568838
23402539 116 18114187423466322478
23522609 53 18124563518914425860
23559900 14 18338806615039394984
3004659 81 18272650139437665344
335352 9 18409449189462771013
3383291 50 18342179938721401626
34797466 226 18188197742388328564
350125 39 18410571764817311680
3545911 37 18333449872109309378
4340502 62 14924216106203734903
5104073 3 18262236608016381056

> <PUBCHEM_SHAPE_MULTIPOLES>
510.19
15.24
2.1
1.13
17.07
0.61
-0.44
-5.29
4.28
-1.26
-0.09
-0.5
-0.02
0.63

> <PUBCHEM_SHAPE_SELFOVERLAP>
1087.877

> <PUBCHEM_SHAPE_VOLUME>
284.7

> <PUBCHEM_COORDINATE_TYPE>
2
5
10

$$$$

