3912
  -OEChem-06251223452D

 46 49  0     1  0  0  0  0  0999 V2000
    2.5381   -1.1176    0.0000 O   0  0  0  0  0  0  0  0  0  0  0  0
    6.5124    0.3974    0.0000 N   0  0  3  0  0  0  0  0  0  0  0  0
    6.0682   -1.0935    0.0000 C   0  0  3  0  0  0  0  0  0  0  0  0
    6.9343   -0.5935    0.0000 C   0  0  3  0  0  0  0  0  0  0  0  0
    6.9343    0.4065    0.0000 C   0  0  3  0  0  0  0  0  0  0  0  0
    5.8652   -0.7236    0.0000 C   0  0  0  0  0  0  0  0  0  0  0  0
    6.0522   -2.1350    0.0000 C   0  0  0  0  0  0  0  0  0  0  0  0
    7.8443   -1.1003    0.0000 C   0  0  0  0  0  0  0  0  0  0  0  0
    5.2022   -0.5935    0.0000 C   0  0  0  0  0  0  0  0  0  0  0  0
    6.0682    0.9065    0.0000 C   0  0  0  0  0  0  0  0  0  0  0  0
    5.7815    0.0720    0.0000 C   0  0  0  0  0  0  0  0  0  0  0  0
    6.9502   -2.6628    0.0000 C   0  0  0  0  0  0  0  0  0  0  0  0
    7.8523   -2.1419    0.0000 C   0  0  0  0  0  0  0  0  0  0  0  0
    5.2022    0.4065    0.0000 C   0  0  0  0  0  0  0  0  0  0  0  0
    6.7203    1.3756    0.0000 C   0  0  0  0  0  0  0  0  0  0  0  0
    4.3083   -1.1282    0.0000 C   0  0  0  0  0  0  0  0  0  0  0  0
    4.3083    0.9412    0.0000 C   0  0  0  0  0  0  0  0  0  0  0  0
    3.4022   -0.6143    0.0000 C   0  0  0  0  0  0  0  0  0  0  0  0
    3.4022    0.4273    0.0000 C   0  0  0  0  0  0  0  0  0  0  0  0
    7.6713    1.6846    0.0000 C   0  0  0  0  0  0  0  0  0  0  0  0
    7.8792    2.6628    0.0000 C   0  0  0  0  0  0  0  0  0  0  0  0
    7.6671   -0.1628    0.0000 H   0  0  0  0  0  0  0  0  0  0  0  0
    7.6704    0.8315    0.0000 H   0  0  0  0  0  0  0  0  0  0  0  0
    5.2704   -0.5484    0.0000 H   0  0  0  0  0  0  0  0  0  0  0  0
    6.4568   -0.5383    0.0000 H   0  0  0  0  0  0  0  0  0  0  0  0
    5.4431   -2.0195    0.0000 H   0  0  0  0  0  0  0  0  0  0  0  0
    5.8342   -2.7154    0.0000 H   0  0  0  0  0  0  0  0  0  0  0  0
    8.4559   -1.2017    0.0000 H   0  0  0  0  0  0  0  0  0  0  0  0
    8.0488   -0.5150    0.0000 H   0  0  0  0  0  0  0  0  0  0  0  0
    6.4668    1.3815    0.0000 H   0  0  0  0  0  0  0  0  0  0  0  0
    5.6697    1.3815    0.0000 H   0  0  0  0  0  0  0  0  0  0  0  0
    5.5899    0.6617    0.0000 H   0  0  0  0  0  0  0  0  0  0  0  0
    5.1751   -0.0569    0.0000 H   0  0  0  0  0  0  0  0  0  0  0  0
    6.5493   -3.1356    0.0000 H   0  0  0  0  0  0  0  0  0  0  0  0
    7.3475   -3.1387    0.0000 H   0  0  0  0  0  0  0  0  0  0  0  0
    8.0659   -2.7240    0.0000 H   0  0  0  0  0  0  0  0  0  0  0  0
    8.4623   -2.0311    0.0000 H   0  0  0  0  0  0  0  0  0  0  0  0
    6.6340    1.9896    0.0000 H   0  0  0  0  0  0  0  0  0  0  0  0
    6.1007    1.3972    0.0000 H   0  0  0  0  0  0  0  0  0  0  0  0
    4.3154   -1.7481    0.0000 H   0  0  0  0  0  0  0  0  0  0  0  0
    4.3154    1.5611    0.0000 H   0  0  0  0  0  0  0  0  0  0  0  0
    2.8665    0.7394    0.0000 H   0  0  0  0  0  0  0  0  0  0  0  0
    8.1321    1.2697    0.0000 H   0  0  0  0  0  0  0  0  0  0  0  0
    2.0000   -0.8097    0.0000 H   0  0  0  0  0  0  0  0  0  0  0  0
    8.4689    2.8543    0.0000 H   0  0  0  0  0  0  0  0  0  0  0  0
    7.4185    3.0776    0.0000 H   0  0  0  0  0  0  0  0  0  0  0  0
  1 18  1  0  0  0  0
  1 44  1  0  0  0  0
  2  5  1  0  0  0  0
  2 11  1  0  0  0  0
  2 15  1  0  0  0  0
  3  4  1  0  0  0  0
  3  6  1  0  0  0  0
  3  7  1  0  0  0  0
  3  9  1  0  0  0  0
  4  5  1  0  0  0  0
  4  8  1  0  0  0  0
  4 22  1  0  0  0  0
  5 10  1  0  0  0  0
  5 23  1  0  0  0  0
  6 11  1  0  0  0  0
  6 24  1  0  0  0  0
  6 25  1  0  0  0  0
  7 12  1  0  0  0  0
  7 26  1  0  0  0  0
  7 27  1  0  0  0  0
  8 13  1  0  0  0  0
  8 28  1  0  0  0  0
  8 29  1  0  0  0  0
  9 14  2  0  0  0  0
  9 16  1  0  0  0  0
 10 14  1  0  0  0  0
 10 30  1  0  0  0  0
 10 31  1  0  0  0  0
 11 32  1  0  0  0  0
 11 33  1  0  0  0  0
 12 13  1  0  0  0  0
 12 34  1  0  0  0  0
 12 35  1  0  0  0  0
 13 36  1  0  0  0  0
 13 37  1  0  0  0  0
 14 17  1  0  0  0  0
 15 20  1  0  0  0  0
 15 38  1  0  0  0  0
 15 39  1  0  0  0  0
 16 18  2  0  0  0  0
 16 40  1  0  0  0  0
 17 19  2  0  0  0  0
 17 41  1  0  0  0  0
 18 19  1  0  0  0  0
 19 42  1  0  0  0  0
 20 21  2  0  0  0  0
 20 43  1  0  0  0  0
 21 45  1  0  0  0  0
 21 46  1  0  0  0  0
M  END
> <PUBCHEM_COMPOUND_CID>
3912

> <PUBCHEM_COMPOUND_CANONICALIZED>
1

> <PUBCHEM_CACTVS_COMPLEXITY>
408

> <PUBCHEM_CACTVS_HBOND_ACCEPTOR>
2

> <PUBCHEM_CACTVS_HBOND_DONOR>
1

> <PUBCHEM_CACTVS_ROTATABLE_BOND>
2

> <PUBCHEM_CACTVS_SUBSKEYS>
AAADceB6IAAAAAAAAAAAAAAAAAAAAAAAAAA8YMEAAAAWAADxAAAAHgAACAAADyzBmAQwBoMAAgCAAiBCAACCAAAgIAAIiAAOCIgIJiKCkROEcAAkwBGImAeQwPAPoAABAAAQAADQAAaAACQAAAAAAAAAAA==

> <PUBCHEM_IUPAC_INCHI>
InChI=1S/C19H25NO/c1-2-10-20-11-9-19-8-4-3-5-16(19)18(20)12-14-6-7-15(21)13-17(14)19/h2,6-7,13,16,18,21H,1,3-5,8-12H2

> <PUBCHEM_IUPAC_INCHIKEY>
OZYUPQUCAUTOBP-UHFFFAOYSA-N

> <PUBCHEM_XLOGP3>
3.5

> <PUBCHEM_EXACT_MASS>
283.193614

> <PUBCHEM_MOLECULAR_FORMULA>
C19H25NO

> <PUBCHEM_MOLECULAR_WEIGHT>
283.4079

> <PUBCHEM_OPENEYE_CAN_SMILES>
C=CCN1CCC23CCCCC2C1CC4=C3C=C(C=C4)O

> <PUBCHEM_OPENEYE_ISO_SMILES>
C=CCN1CCC23CCCCC2C1CC4=C3C=C(C=C4)O

> <PUBCHEM_CACTVS_TPSA>
23.5

> <PUBCHEM_MONOISOTOPIC_WEIGHT>
283.193614

> <PUBCHEM_TOTAL_CHARGE>
0

> <PUBCHEM_HEAVY_ATOM_COUNT>
21

> <PUBCHEM_ATOM_DEF_STEREO_COUNT>
0

> <PUBCHEM_ATOM_UDEF_STEREO_COUNT>
3

> <PUBCHEM_BOND_DEF_STEREO_COUNT>
0

> <PUBCHEM_BOND_UDEF_STEREO_COUNT>
0

> <PUBCHEM_ISOTOPIC_ATOM_COUNT>
0

> <PUBCHEM_COMPONENT_COUNT>
1

> <PUBCHEM_CACTVS_TAUTO_COUNT>
3

> <PUBCHEM_COORDINATE_TYPE>
1
5
255

> <PUBCHEM_BONDANNOTATIONS>
14  17  8
16  18  8
17  19  8
18  19  8
3  7  3
4  22  3
5  23  3
9  14  8
9  16  8

$$$$

