5284645
  -OEChem-07051213063D

 47 48  0     1  0  0  0  0  0999 V2000
    5.1327   -1.1790    0.0710 O   0  0  0  0  0  0  0  0  0  0  0  0
   -0.1394    1.7265    0.6903 O   0  0  0  0  0  0  0  0  0  0  0  0
   -0.5800    1.9343   -1.5708 O   0  0  0  0  0  0  0  0  0  0  0  0
   -3.3892    1.9990   -1.1549 O   0  0  0  0  0  0  0  0  0  0  0  0
   -4.9627   -2.2105    0.3769 O   0  0  0  0  0  0  0  0  0  0  0  0
    3.9663    0.7792   -0.7015 C   0  0  0  0  0  0  0  0  0  0  0  0
    3.8246   -0.6344   -0.1157 C   0  0  1  0  0  0  0  0  0  0  0  0
    2.6634    1.5858   -0.7123 C   0  0  0  0  0  0  0  0  0  0  0  0
    3.0527   -1.5813   -1.0468 C   0  0  0  0  0  0  0  0  0  0  0  0
    2.2640    2.0889    0.6810 C   0  0  0  0  0  0  0  0  0  0  0  0
    2.7293   -2.9419   -0.4112 C   0  0  0  0  0  0  0  0  0  0  0  0
    0.8799    2.7530    0.6901 C   0  0  2  0  0  0  0  0  0  0  0  0
    1.7125   -2.8858    0.7357 C   0  0  0  0  0  0  0  0  0  0  0  0
    0.6770    3.5561    1.9704 C   0  0  0  0  0  0  0  0  0  0  0  0
    0.3599   -2.3930    0.3028 C   0  0  0  0  0  0  0  0  0  0  0  0
   -1.8125    0.4318   -0.2056 C   0  0  0  0  0  0  0  0  0  0  0  0
   -1.5527   -0.8296    0.3638 C   0  0  0  0  0  0  0  0  0  0  0  0
   -0.7684    1.4388   -0.4725 C   0  0  0  0  0  0  0  0  0  0  0  0
   -0.2095   -1.2709    0.7704 C   0  0  0  0  0  0  0  0  0  0  0  0
   -3.1119    0.7844   -0.5980 C   0  0  0  0  0  0  0  0  0  0  0  0
   -2.6366   -1.7043    0.5592 C   0  0  0  0  0  0  0  0  0  0  0  0
   -3.9314   -1.3442    0.1796 C   0  0  0  0  0  0  0  0  0  0  0  0
   -4.1678   -0.1028   -0.4020 C   0  0  0  0  0  0  0  0  0  0  0  0
    4.3468    0.7017   -1.7284 H   0  0  0  0  0  0  0  0  0  0  0  0
    4.7372    1.3303   -0.1477 H   0  0  0  0  0  0  0  0  0  0  0  0
    3.3605   -0.5842    0.8711 H   0  0  0  0  0  0  0  0  0  0  0  0
    2.8011    2.4569   -1.3652 H   0  0  0  0  0  0  0  0  0  0  0  0
    1.8612    0.9933   -1.1562 H   0  0  0  0  0  0  0  0  0  0  0  0
    3.6598   -1.7745   -1.9411 H   0  0  0  0  0  0  0  0  0  0  0  0
    2.1235   -1.1227   -1.3964 H   0  0  0  0  0  0  0  0  0  0  0  0
    2.2624    1.2565    1.3931 H   0  0  0  0  0  0  0  0  0  0  0  0
    3.0234    2.8064    1.0152 H   0  0  0  0  0  0  0  0  0  0  0  0
    3.6525   -3.4065   -0.0448 H   0  0  0  0  0  0  0  0  0  0  0  0
    2.3427   -3.6050   -1.1960 H   0  0  0  0  0  0  0  0  0  0  0  0
    0.7620    3.4268   -0.1670 H   0  0  0  0  0  0  0  0  0  0  0  0
    2.1041   -2.2838    1.5629 H   0  0  0  0  0  0  0  0  0  0  0  0
    1.5855   -3.8995    1.1358 H   0  0  0  0  0  0  0  0  0  0  0  0
    0.7608    2.9146    2.8549 H   0  0  0  0  0  0  0  0  0  0  0  0
    1.4081    4.3660    2.0528 H   0  0  0  0  0  0  0  0  0  0  0  0
   -0.3282    3.9910    1.9913 H   0  0  0  0  0  0  0  0  0  0  0  0
    5.5801   -1.1883   -0.7924 H   0  0  0  0  0  0  0  0  0  0  0  0
   -0.1676   -3.0110   -0.4206 H   0  0  0  0  0  0  0  0  0  0  0  0
    0.3134   -0.6501    1.4905 H   0  0  0  0  0  0  0  0  0  0  0  0
   -2.4709   -2.6803    1.0135 H   0  0  0  0  0  0  0  0  0  0  0  0
   -5.1761    0.1753   -0.6986 H   0  0  0  0  0  0  0  0  0  0  0  0
   -2.5952    2.5545   -1.1965 H   0  0  0  0  0  0  0  0  0  0  0  0
   -4.6198   -3.0221    0.7889 H   0  0  0  0  0  0  0  0  0  0  0  0
  1  7  1  0  0  0  0
  1 41  1  0  0  0  0
  2 12  1  0  0  0  0
  2 18  1  0  0  0  0
  3 18  2  0  0  0  0
  4 20  1  0  0  0  0
  4 46  1  0  0  0  0
  5 22  1  0  0  0  0
  5 47  1  0  0  0  0
  6  7  1  0  0  0  0
  6  8  1  0  0  0  0
  6 24  1  0  0  0  0
  6 25  1  0  0  0  0
  7  9  1  0  0  0  0
  7 26  1  0  0  0  0
  8 10  1  0  0  0  0
  8 27  1  0  0  0  0
  8 28  1  0  0  0  0
  9 11  1  0  0  0  0
  9 29  1  0  0  0  0
  9 30  1  0  0  0  0
 10 12  1  0  0  0  0
 10 31  1  0  0  0  0
 10 32  1  0  0  0  0
 11 13  1  0  0  0  0
 11 33  1  0  0  0  0
 11 34  1  0  0  0  0
 12 14  1  0  0  0  0
 12 35  1  0  0  0  0
 13 15  1  0  0  0  0
 13 36  1  0  0  0  0
 13 37  1  0  0  0  0
 14 38  1  0  0  0  0
 14 39  1  0  0  0  0
 14 40  1  0  0  0  0
 15 19  2  0  0  0  0
 15 42  1  0  0  0  0
 16 17  2  0  0  0  0
 16 18  1  0  0  0  0
 16 20  1  0  0  0  0
 17 19  1  0  0  0  0
 17 21  1  0  0  0  0
 19 43  1  0  0  0  0
 20 23  2  0  0  0  0
 21 22  2  0  0  0  0
 21 44  1  0  0  0  0
 22 23  1  0  0  0  0
 23 45  1  0  0  0  0
M  END
> <PUBCHEM_COMPOUND_CID>
5284645

> <PUBCHEM_CONFORMER_RMSD>
0.6

> <PUBCHEM_CONFORMER_DIVERSEORDER>
1

> <PUBCHEM_MMFF94_PARTIAL_CHARGES>
24
1 -0.68
12 0.28
13 0.14
15 -0.29
16 0.09
17 0.03
18 0.63
19 -0.18
2 -0.43
20 0.08
21 -0.15
22 0.08
23 -0.15
3 -0.57
4 -0.53
41 0.4
42 0.15
43 0.15
44 0.15
45 0.15
46 0.45
47 0.45
5 -0.53
7 0.28

> <PUBCHEM_EFFECTIVE_ROTOR_COUNT>
1.8

> <PUBCHEM_PHARMACOPHORE_FEATURES>
6
1 1 acceptor
1 1 donor
1 3 acceptor
1 4 donor
1 5 donor
6 16 17 20 21 22 23 rings

> <PUBCHEM_HEAVY_ATOM_COUNT>
23

> <PUBCHEM_ATOM_DEF_STEREO_COUNT>
2

> <PUBCHEM_ATOM_UDEF_STEREO_COUNT>
0

> <PUBCHEM_BOND_DEF_STEREO_COUNT>
1

> <PUBCHEM_BOND_UDEF_STEREO_COUNT>
0

> <PUBCHEM_ISOTOPIC_ATOM_COUNT>
0

> <PUBCHEM_COMPONENT_COUNT>
1

> <PUBCHEM_CACTVS_TAUTO_COUNT>
12

> <PUBCHEM_CONFORMER_ID>
0050A32500000001

> <PUBCHEM_MMFF94_ENERGY>
56.9454

> <PUBCHEM_FEATURE_SELFOVERLAP>
30.446

> <PUBCHEM_SHAPE_FINGERPRINT>
1100329 8 17832423477029824113
11112241 14 16952836946941776128
11578080 2 16772414987273950831
12166972 35 17988916808540503974
12403259 226 18339644430104074275
12506688 2 18408602574020397876
12596599 1 17897990555075969078
12788726 201 17608656346433138640
13140716 1 18265617769480756971
13402501 40 18340486664859406634
13533116 47 18044087957011831707
14251757 17 18270967963023019933
14787075 74 18340481175633032022
14790565 3 17546164568393041957
14866123 147 17756978283165678440
14931854 50 18340763870654547566
15196674 1 18342455946019315430
15322687 12 17122845990097009709
19591789 44 18340206272072270155
19930381 70 18408037412037499898
20028762 73 17038659168414291431
20691752 17 17060341837928058737
20715895 44 17626680640636473885
20832881 197 18334008372176172369
20905425 154 18412262873692983254
22182313 1 18058746723638327295
23227448 37 18199753724821834487
23352939 185 18334852831914396811
23557571 272 17902250123510154146
23559900 14 18341336582699854253
238 59 18192738677126906724
2748010 2 18127425466308353729
3323516 105 18410292471667805891
350125 39 18341046402768244673
3524813 1 18343303660846956006
3680242 22 18127974319952360810
463206 1 18263642861913969687
5265222 85 17476071329541183004
6443956 14 18336822013657047969
81228 2 17471019545524224307

> <PUBCHEM_SHAPE_MULTIPOLES>
443.98
8.21
4.09
1.18
1.54
0.84
-0.09
-3.84
1.51
-1.8
-1.33
-0.11
0.8
1.1

> <PUBCHEM_SHAPE_SELFOVERLAP>
916.908

> <PUBCHEM_SHAPE_VOLUME>
252.3

> <PUBCHEM_COORDINATE_TYPE>
2
5
10

$$$$

