443041
  -OEChem-07051213003D

 30 32  0     0  0  0  0  0  0999 V2000
    6.0932   -0.7295    0.0714 Br  0  0  0  0  0  0  0  0  0  0  0  0
   -0.0750   -1.3080    0.0040 S   0  0  0  0  0  0  0  0  0  0  0  0
   -2.0915   -2.9866    0.0547 O   0  0  0  0  0  0  0  0  0  0  0  0
   -1.9208    0.5225   -0.1011 N   0  0  0  0  0  0  0  0  0  0  0  0
   -2.5849   -0.7019    0.0222 N   0  0  0  0  0  0  0  0  0  0  0  0
    0.3616    1.2888   -0.0773 N   0  0  0  0  0  0  0  0  0  0  0  0
   -4.0638    1.7319   -0.2018 C   0  0  0  0  0  0  0  0  0  0  0  0
   -4.7551    0.4652    0.2815 C   0  0  0  0  0  0  0  0  0  0  0  0
   -2.6153    1.7450    0.2692 C   0  0  0  0  0  0  0  0  0  0  0  0
   -4.0111   -0.7541   -0.2381 C   0  0  0  0  0  0  0  0  0  0  0  0
   -0.5544    0.3797   -0.0747 C   0  0  0  0  0  0  0  0  0  0  0  0
   -1.7611   -1.8093    0.0423 C   0  0  0  0  0  0  0  0  0  0  0  0
    1.6864    0.8207   -0.0426 C   0  0  0  0  0  0  0  0  0  0  0  0
    2.3595    0.5646   -1.2332 C   0  0  0  0  0  0  0  0  0  0  0  0
    2.3158    0.6180    1.1816 C   0  0  0  0  0  0  0  0  0  0  0  0
    3.6748    0.1015   -1.1992 C   0  0  0  0  0  0  0  0  0  0  0  0
    3.6311    0.1549    1.2158 C   0  0  0  0  0  0  0  0  0  0  0  0
    4.3106   -0.1035    0.0254 C   0  0  0  0  0  0  0  0  0  0  0  0
   -4.1002    1.7772   -1.2973 H   0  0  0  0  0  0  0  0  0  0  0  0
   -4.5876    2.6156    0.1785 H   0  0  0  0  0  0  0  0  0  0  0  0
   -4.7704    0.4513    1.3782 H   0  0  0  0  0  0  0  0  0  0  0  0
   -5.7954    0.4447   -0.0604 H   0  0  0  0  0  0  0  0  0  0  0  0
   -2.1081    2.6129   -0.1679 H   0  0  0  0  0  0  0  0  0  0  0  0
   -2.5782    1.8628    1.3591 H   0  0  0  0  0  0  0  0  0  0  0  0
   -4.4188   -1.6697    0.2047 H   0  0  0  0  0  0  0  0  0  0  0  0
   -4.1347   -0.8454   -1.3241 H   0  0  0  0  0  0  0  0  0  0  0  0
    1.8735    0.7244   -2.1921 H   0  0  0  0  0  0  0  0  0  0  0  0
    1.7958    0.8200    2.1143 H   0  0  0  0  0  0  0  0  0  0  0  0
    4.1903   -0.0941   -2.1359 H   0  0  0  0  0  0  0  0  0  0  0  0
    4.1122    0.0014    2.1783 H   0  0  0  0  0  0  0  0  0  0  0  0
  1 18  1  0  0  0  0
  2 11  1  0  0  0  0
  2 12  1  0  0  0  0
  3 12  2  0  0  0  0
  4  5  1  0  0  0  0
  4  9  1  0  0  0  0
  4 11  1  0  0  0  0
  5 10  1  0  0  0  0
  5 12  1  0  0  0  0
  6 11  2  0  0  0  0
  6 13  1  0  0  0  0
  7  8  1  0  0  0  0
  7  9  1  0  0  0  0
  7 19  1  0  0  0  0
  7 20  1  0  0  0  0
  8 10  1  0  0  0  0
  8 21  1  0  0  0  0
  8 22  1  0  0  0  0
  9 23  1  0  0  0  0
  9 24  1  0  0  0  0
 10 25  1  0  0  0  0
 10 26  1  0  0  0  0
 13 14  2  0  0  0  0
 13 15  1  0  0  0  0
 14 16  1  0  0  0  0
 14 27  1  0  0  0  0
 15 17  2  0  0  0  0
 15 28  1  0  0  0  0
 16 18  2  0  0  0  0
 16 29  1  0  0  0  0
 17 18  1  0  0  0  0
 17 30  1  0  0  0  0
M  END
> <PUBCHEM_COMPOUND_CID>
443041

> <PUBCHEM_CONFORMER_RMSD>
0.6

> <PUBCHEM_CONFORMER_DIVERSEORDER>
1

> <PUBCHEM_MMFF94_PARTIAL_CHARGES>
20
1 -0.11
10 0.3
11 0.64
12 0.77
13 0.18
14 -0.15
15 -0.15
16 -0.15
17 -0.15
18 0.11
2 -0.28
27 0.15
28 0.15
29 0.15
3 -0.57
30 0.15
4 -0.44
5 -0.34
6 -0.63
9 0.37

> <PUBCHEM_EFFECTIVE_ROTOR_COUNT>
1.8

> <PUBCHEM_PHARMACOPHORE_FEATURES>
5
1 1 hydrophobe
3 4 6 11 cation
5 2 4 5 11 12 rings
6 13 14 15 16 17 18 rings
6 4 5 7 8 9 10 rings

> <PUBCHEM_HEAVY_ATOM_COUNT>
18

> <PUBCHEM_ATOM_DEF_STEREO_COUNT>
0

> <PUBCHEM_ATOM_UDEF_STEREO_COUNT>
0

> <PUBCHEM_BOND_DEF_STEREO_COUNT>
0

> <PUBCHEM_BOND_UDEF_STEREO_COUNT>
0

> <PUBCHEM_ISOTOPIC_ATOM_COUNT>
0

> <PUBCHEM_COMPONENT_COUNT>
1

> <PUBCHEM_CACTVS_TAUTO_COUNT>
1

> <PUBCHEM_CONFORMER_ID>
0006C2A100000001

> <PUBCHEM_MMFF94_ENERGY>
41.5012

> <PUBCHEM_FEATURE_SELFOVERLAP>
25.442

> <PUBCHEM_SHAPE_FINGERPRINT>
11315181 36 17603584132422823472
11796584 16 18335979844513460150
12119455 92 16877948238894280396
12236239 1 17847059991419631036
12346177 29 18261118430766769191
124424 183 17676209078444512080
12500047 106 18408326600754134758
12507560 40 18042131981528912736
128620 24 8862942783884862880
13140716 1 18193834839191875051
13544592 145 18187638154734812814
13675066 3 18113902623910507544
13862211 1 18337954472928705719
14115302 16 18412820283571161164
14251731 8 18408885165830751020
14386348 63 17822005411388540470
15042514 8 18268145362873776563
15375358 24 17821728338500081156
16752209 62 18340778061179039547
16945 1 18411136892677464911
17804303 29 18408886204827935689
1813 80 16988279897842527294
18186145 218 17894345601131362425
19422 9 17846494790613059858
19489759 90 18113902684061304529
200 152 14996283638669436600
20279233 1 17675919893980243708
20645477 70 16660354918333819452
20681677 155 18273495672041955746
21267235 1 18341888572249689635
21279426 13 17972875036521541694
21618674 57 17749106724935313914
23402539 116 18261399957330664093
23559900 14 18333452024199368976
23598291 2 17845650339950015494
26918003 58 16588024606404055850
3004659 81 18341608274811644222
335352 9 18410856560172728341
351380 180 17676211277204068944
4214541 1 18410575084890166092
5104073 3 18336542707675537960
5385378 56 18121210137925475321
559249 180 18272092746576040602
6430166 295 18412545426880493285
69090 78 17530688688569632943
7226269 152 18113617932077580968
74978 22 18341331076482818957
77492 1 17704075062441859196
9709674 26 18116439141422317323

> <PUBCHEM_SHAPE_MULTIPOLES>
359.41
11.08
1.9
0.96
6.35
1.06
0.01
-0.08
-0.21
-2.24
-0.04
0.96
-0.15
-0.03

> <PUBCHEM_SHAPE_SELFOVERLAP>
744.817

> <PUBCHEM_SHAPE_VOLUME>
210

> <PUBCHEM_COORDINATE_TYPE>
2
5
10

$$$$

