17396105
  -OEChem-06241222542D

 52 54  0     0  0  0  0  0  0999 V2000
    2.8660   -6.0000    0.0000 Br  0  0  0  0  0  0  0  0  0  0  0  0
    2.8660   -2.0000    0.0000 Cl  0  0  0  0  0  0  0  0  0  0  0  0
    6.3301    6.0000    0.0000 O   0  0  0  0  0  0  0  0  0  0  0  0
    4.5981    0.0000    0.0000 O   0  0  0  0  0  0  0  0  0  0  0  0
    5.4641   -3.5000    0.0000 O   0  0  0  0  0  0  0  0  0  0  0  0
    6.3301    4.0000    0.0000 N   0  0  0  0  0  0  0  0  0  0  0  0
    4.5981   -2.0000    0.0000 N   0  0  0  0  0  0  0  0  0  0  0  0
    6.3301    0.0000    0.0000 N   0  0  0  0  0  0  0  0  0  0  0  0
    7.1962    4.5000    0.0000 C   0  0  0  0  0  0  0  0  0  0  0  0
    5.4641    4.5000    0.0000 C   0  0  0  0  0  0  0  0  0  0  0  0
    5.4641    5.5000    0.0000 C   0  0  0  0  0  0  0  0  0  0  0  0
    7.1962    5.5000    0.0000 C   0  0  0  0  0  0  0  0  0  0  0  0
    6.3301    3.0000    0.0000 C   0  0  0  0  0  0  0  0  0  0  0  0
    5.4641    2.5000    0.0000 C   0  0  0  0  0  0  0  0  0  0  0  0
    7.1962    2.5000    0.0000 C   0  0  0  0  0  0  0  0  0  0  0  0
    6.3301    1.0000    0.0000 C   0  0  0  0  0  0  0  0  0  0  0  0
    5.4641    1.5000    0.0000 C   0  0  0  0  0  0  0  0  0  0  0  0
    7.1962    1.5000    0.0000 C   0  0  0  0  0  0  0  0  0  0  0  0
    5.4641   -1.5000    0.0000 C   0  0  0  0  0  0  0  0  0  0  0  0
    3.7320   -1.5000    0.0000 C   0  0  0  0  0  0  0  0  0  0  0  0
    5.4641   -0.5000    0.0000 C   0  0  0  0  0  0  0  0  0  0  0  0
    4.5981   -3.0000    0.0000 C   0  0  0  0  0  0  0  0  0  0  0  0
    3.7320   -3.5000    0.0000 C   0  0  0  0  0  0  0  0  0  0  0  0
    3.7320   -0.5000    0.0000 C   0  0  0  0  0  0  0  0  0  0  0  0
    3.7320   -4.5000    0.0000 C   0  0  0  0  0  0  0  0  0  0  0  0
    2.8660   -3.0000    0.0000 C   0  0  0  0  0  0  0  0  0  0  0  0
    2.8660   -5.0000    0.0000 C   0  0  0  0  0  0  0  0  0  0  0  0
    2.0000   -3.5000    0.0000 C   0  0  0  0  0  0  0  0  0  0  0  0
    2.0000   -4.5000    0.0000 C   0  0  0  0  0  0  0  0  0  0  0  0
    7.4082    3.9174    0.0000 H   0  0  0  0  0  0  0  0  0  0  0  0
    7.8067    4.6077    0.0000 H   0  0  0  0  0  0  0  0  0  0  0  0
    4.8535    4.6077    0.0000 H   0  0  0  0  0  0  0  0  0  0  0  0
    5.2520    3.9174    0.0000 H   0  0  0  0  0  0  0  0  0  0  0  0
    7.8067    5.3923    0.0000 H   0  0  0  0  0  0  0  0  0  0  0  0
    7.4082    6.0826    0.0000 H   0  0  0  0  0  0  0  0  0  0  0  0
    5.2520    6.0826    0.0000 H   0  0  0  0  0  0  0  0  0  0  0  0
    4.8535    5.3923    0.0000 H   0  0  0  0  0  0  0  0  0  0  0  0
    4.9272    2.8100    0.0000 H   0  0  0  0  0  0  0  0  0  0  0  0
    7.7331    2.8100    0.0000 H   0  0  0  0  0  0  0  0  0  0  0  0
    4.9272    1.1900    0.0000 H   0  0  0  0  0  0  0  0  0  0  0  0
    7.7331    1.1900    0.0000 H   0  0  0  0  0  0  0  0  0  0  0  0
    5.6762   -2.0826    0.0000 H   0  0  0  0  0  0  0  0  0  0  0  0
    6.0747   -1.3923    0.0000 H   0  0  0  0  0  0  0  0  0  0  0  0
    6.8671   -0.3100    0.0000 H   0  0  0  0  0  0  0  0  0  0  0  0
    3.1215   -1.3923    0.0000 H   0  0  0  0  0  0  0  0  0  0  0  0
    3.5200   -2.0826    0.0000 H   0  0  0  0  0  0  0  0  0  0  0  0
    4.3520   -0.5000    0.0000 H   0  0  0  0  0  0  0  0  0  0  0  0
    3.7320    0.1200    0.0000 H   0  0  0  0  0  0  0  0  0  0  0  0
    3.1120   -0.5000    0.0000 H   0  0  0  0  0  0  0  0  0  0  0  0
    4.2690   -4.8100    0.0000 H   0  0  0  0  0  0  0  0  0  0  0  0
    1.4631   -3.1900    0.0000 H   0  0  0  0  0  0  0  0  0  0  0  0
    1.4631   -4.8100    0.0000 H   0  0  0  0  0  0  0  0  0  0  0  0
  1 27  1  0  0  0  0
  2 26  1  0  0  0  0
  3 11  1  0  0  0  0
  3 12  1  0  0  0  0
  4 21  2  0  0  0  0
  5 22  2  0  0  0  0
  6  9  1  0  0  0  0
  6 10  1  0  0  0  0
  6 13  1  0  0  0  0
  7 19  1  0  0  0  0
  7 20  1  0  0  0  0
  7 22  1  0  0  0  0
  8 16  1  0  0  0  0
  8 21  1  0  0  0  0
  8 44  1  0  0  0  0
  9 12  1  0  0  0  0
  9 30  1  0  0  0  0
  9 31  1  0  0  0  0
 10 11  1  0  0  0  0
 10 32  1  0  0  0  0
 10 33  1  0  0  0  0
 11 36  1  0  0  0  0
 11 37  1  0  0  0  0
 12 34  1  0  0  0  0
 12 35  1  0  0  0  0
 13 14  2  0  0  0  0
 13 15  1  0  0  0  0
 14 17  1  0  0  0  0
 14 38  1  0  0  0  0
 15 18  2  0  0  0  0
 15 39  1  0  0  0  0
 16 17  2  0  0  0  0
 16 18  1  0  0  0  0
 17 40  1  0  0  0  0
 18 41  1  0  0  0  0
 19 21  1  0  0  0  0
 19 42  1  0  0  0  0
 19 43  1  0  0  0  0
 20 24  1  0  0  0  0
 20 45  1  0  0  0  0
 20 46  1  0  0  0  0
 22 23  1  0  0  0  0
 23 25  1  0  0  0  0
 23 26  2  0  0  0  0
 24 47  1  0  0  0  0
 24 48  1  0  0  0  0
 24 49  1  0  0  0  0
 25 27  2  0  0  0  0
 25 50  1  0  0  0  0
 26 28  1  0  0  0  0
 27 29  1  0  0  0  0
 28 29  2  0  0  0  0
 28 51  1  0  0  0  0
 29 52  1  0  0  0  0
M  END
> <PUBCHEM_COMPOUND_CID>
17396105

> <PUBCHEM_COMPOUND_CANONICALIZED>
1

> <PUBCHEM_CACTVS_COMPLEXITY>
553

> <PUBCHEM_CACTVS_HBOND_ACCEPTOR>
4

> <PUBCHEM_CACTVS_HBOND_DONOR>
1

> <PUBCHEM_CACTVS_ROTATABLE_BOND>
6

> <PUBCHEM_CACTVS_SUBSKEYS>
AAADceB7MAAEEAAAAAAAAAAAAAAAAAAAAAA8YIAAAAAAAAABQAAAHgJQAAABrArhmCYywIPABACIAiVSUACCAAAlBwQIiAGIZugKYDLBl7GXIQhglgDYz5cYiACOAACIEAABAAAAARAgAAIAAAAAAAAAAA==

> <PUBCHEM_IUPAC_OPENEYE_NAME>
5-bromo-2-chloro-N-ethyl-N-[2-(4-morpholinoanilino)-2-oxo-ethyl]benzamide

> <PUBCHEM_IUPAC_CAS_NAME>
5-bromo-2-chloro-N-ethyl-N-[2-[4-(4-morpholinyl)anilino]-2-oxoethyl]benzamide

> <PUBCHEM_IUPAC_NAME>
5-bromo-2-chloro-N-ethyl-N-[2-(4-morpholin-4-ylanilino)-2-oxoethyl]benzamide

> <PUBCHEM_IUPAC_SYSTEMATIC_NAME>
5-bromanyl-2-chloranyl-N-ethyl-N-[2-[(4-morpholin-4-ylphenyl)amino]-2-oxidanylidene-ethyl]benzamide

> <PUBCHEM_IUPAC_TRADITIONAL_NAME>
5-bromo-2-chloro-N-ethyl-N-[2-keto-2-(4-morpholinoanilino)ethyl]benzamide

> <PUBCHEM_IUPAC_INCHI>
InChI=1S/C21H23BrClN3O3/c1-2-25(21(28)18-13-15(22)3-8-19(18)23)14-20(27)24-16-4-6-17(7-5-16)26-9-11-29-12-10-26/h3-8,13H,2,9-12,14H2,1H3,(H,24,27)

> <PUBCHEM_IUPAC_INCHIKEY>
BSHRZBUUWRJROE-UHFFFAOYSA-N

> <PUBCHEM_XLOGP3_AA>
3.7

> <PUBCHEM_EXACT_MASS>
479.061131

> <PUBCHEM_MOLECULAR_FORMULA>
C21H23BrClN3O3

> <PUBCHEM_MOLECULAR_WEIGHT>
480.78262

> <PUBCHEM_OPENEYE_CAN_SMILES>
CCN(CC(=O)NC1=CC=C(C=C1)N2CCOCC2)C(=O)C3=C(C=CC(=C3)Br)Cl

> <PUBCHEM_OPENEYE_ISO_SMILES>
CCN(CC(=O)NC1=CC=C(C=C1)N2CCOCC2)C(=O)C3=C(C=CC(=C3)Br)Cl

> <PUBCHEM_CACTVS_TPSA>
61.9

> <PUBCHEM_MONOISOTOPIC_WEIGHT>
479.061131

> <PUBCHEM_TOTAL_CHARGE>
0

> <PUBCHEM_HEAVY_ATOM_COUNT>
29

> <PUBCHEM_ATOM_DEF_STEREO_COUNT>
0

> <PUBCHEM_ATOM_UDEF_STEREO_COUNT>
0

> <PUBCHEM_BOND_DEF_STEREO_COUNT>
0

> <PUBCHEM_BOND_UDEF_STEREO_COUNT>
0

> <PUBCHEM_ISOTOPIC_ATOM_COUNT>
0

> <PUBCHEM_COMPONENT_COUNT>
1

> <PUBCHEM_CACTVS_TAUTO_COUNT>
3

> <PUBCHEM_COORDINATE_TYPE>
1
5
255

> <PUBCHEM_BONDANNOTATIONS>
13  14  8
13  15  8
14  17  8
15  18  8
16  17  8
16  18  8
23  25  8
23  26  8
25  27  8
26  28  8
27  29  8
28  29  8

$$$$

