13892
  -OEChem-06241222402D

 31 32  0     0  0  0  0  0  0999 V2000
    2.0000   -0.5000    0.0000 O   0  0  0  0  0  0  0  0  0  0  0  0
    3.7320    0.5000    0.0000 C   0  0  0  0  0  0  0  0  0  0  0  0
    4.5981    1.0000    0.0000 C   0  0  0  0  0  0  0  0  0  0  0  0
    2.8660    1.0000    0.0000 C   0  0  0  0  0  0  0  0  0  0  0  0
    3.7320   -0.5000    0.0000 C   0  0  0  0  0  0  0  0  0  0  0  0
    4.5981    2.0000    0.0000 C   0  0  0  0  0  0  0  0  0  0  0  0
    2.8660    2.0000    0.0000 C   0  0  0  0  0  0  0  0  0  0  0  0
    3.7320    2.5000    0.0000 C   0  0  0  0  0  0  0  0  0  0  0  0
    4.5981   -1.0000    0.0000 C   0  0  0  0  0  0  0  0  0  0  0  0
    4.5981   -2.0000    0.0000 C   0  0  0  0  0  0  0  0  0  0  0  0
    3.7320   -2.5000    0.0000 C   0  0  0  0  0  0  0  0  0  0  0  0
    2.8660   -2.0000    0.0000 C   0  0  0  0  0  0  0  0  0  0  0  0
    2.8660   -1.0000    0.0000 C   0  0  0  0  0  0  0  0  0  0  0  0
    4.8101    0.4174    0.0000 H   0  0  0  0  0  0  0  0  0  0  0  0
    5.2087    1.1077    0.0000 H   0  0  0  0  0  0  0  0  0  0  0  0
    2.2554    1.1077    0.0000 H   0  0  0  0  0  0  0  0  0  0  0  0
    2.6540    0.4174    0.0000 H   0  0  0  0  0  0  0  0  0  0  0  0
    5.2087    1.8923    0.0000 H   0  0  0  0  0  0  0  0  0  0  0  0
    4.8101    2.5826    0.0000 H   0  0  0  0  0  0  0  0  0  0  0  0
    2.6540    2.5826    0.0000 H   0  0  0  0  0  0  0  0  0  0  0  0
    2.2554    1.8923    0.0000 H   0  0  0  0  0  0  0  0  0  0  0  0
    4.1306    2.9750    0.0000 H   0  0  0  0  0  0  0  0  0  0  0  0
    3.3335    2.9750    0.0000 H   0  0  0  0  0  0  0  0  0  0  0  0
    5.2087   -1.1077    0.0000 H   0  0  0  0  0  0  0  0  0  0  0  0
    4.8101   -0.4174    0.0000 H   0  0  0  0  0  0  0  0  0  0  0  0
    4.8101   -2.5826    0.0000 H   0  0  0  0  0  0  0  0  0  0  0  0
    5.2087   -1.8923    0.0000 H   0  0  0  0  0  0  0  0  0  0  0  0
    3.3335   -2.9750    0.0000 H   0  0  0  0  0  0  0  0  0  0  0  0
    4.1306   -2.9750    0.0000 H   0  0  0  0  0  0  0  0  0  0  0  0
    2.2554   -1.8923    0.0000 H   0  0  0  0  0  0  0  0  0  0  0  0
    2.6540   -2.5826    0.0000 H   0  0  0  0  0  0  0  0  0  0  0  0
  1 13  2  0  0  0  0
  2  3  1  0  0  0  0
  2  4  1  0  0  0  0
  2  5  2  0  0  0  0
  3  6  1  0  0  0  0
  3 14  1  0  0  0  0
  3 15  1  0  0  0  0
  4  7  1  0  0  0  0
  4 16  1  0  0  0  0
  4 17  1  0  0  0  0
  5  9  1  0  0  0  0
  5 13  1  0  0  0  0
  6  8  1  0  0  0  0
  6 18  1  0  0  0  0
  6 19  1  0  0  0  0
  7  8  1  0  0  0  0
  7 20  1  0  0  0  0
  7 21  1  0  0  0  0
  8 22  1  0  0  0  0
  8 23  1  0  0  0  0
  9 10  1  0  0  0  0
  9 24  1  0  0  0  0
  9 25  1  0  0  0  0
 10 11  1  0  0  0  0
 10 26  1  0  0  0  0
 10 27  1  0  0  0  0
 11 12  1  0  0  0  0
 11 28  1  0  0  0  0
 11 29  1  0  0  0  0
 12 13  1  0  0  0  0
 12 30  1  0  0  0  0
 12 31  1  0  0  0  0
M  END
> <PUBCHEM_COMPOUND_CID>
13892

> <PUBCHEM_COMPOUND_CANONICALIZED>
1

> <PUBCHEM_CACTVS_COMPLEXITY>
230

> <PUBCHEM_CACTVS_HBOND_ACCEPTOR>
1

> <PUBCHEM_CACTVS_HBOND_DONOR>
0

> <PUBCHEM_CACTVS_ROTATABLE_BOND>
0

> <PUBCHEM_CACTVS_SUBSKEYS>
AAADceBwIAAAAAAAAAAAAAAAAAAAAAAAAAAwYAAAAAAAAAAAAAAAGgAAAAAADASAgAAAAAAAAACIAoBQAAAAAAAgAAAACAEAAEgAABIAAAAAAAAAgAAIAQMICAAAAAAAAAAAAAAAAAAAAAAAAAAAAAAAAA==

> <PUBCHEM_IUPAC_OPENEYE_NAME>
2-cyclohexylidenecyclohexanone

> <PUBCHEM_IUPAC_CAS_NAME>
2-cyclohexylidene-1-cyclohexanone

> <PUBCHEM_IUPAC_NAME>
2-cyclohexylidenecyclohexan-1-one

> <PUBCHEM_IUPAC_SYSTEMATIC_NAME>
2-cyclohexylidenecyclohexan-1-one

> <PUBCHEM_IUPAC_TRADITIONAL_NAME>
2-cyclohexylidenecyclohexanone

> <PUBCHEM_IUPAC_INCHI>
InChI=1S/C12H18O/c13-12-9-5-4-8-11(12)10-6-2-1-3-7-10/h1-9H2

> <PUBCHEM_IUPAC_INCHIKEY>
TYDSIOSLHQWFOU-UHFFFAOYSA-N

> <PUBCHEM_XLOGP3_AA>
2.9

> <PUBCHEM_EXACT_MASS>
178.135765

> <PUBCHEM_MOLECULAR_FORMULA>
C12H18O

> <PUBCHEM_MOLECULAR_WEIGHT>
178.27072

> <PUBCHEM_OPENEYE_CAN_SMILES>
C1CCC(=C2CCCCC2=O)CC1

> <PUBCHEM_OPENEYE_ISO_SMILES>
C1CCC(=C2CCCCC2=O)CC1

> <PUBCHEM_CACTVS_TPSA>
17.1

> <PUBCHEM_MONOISOTOPIC_WEIGHT>
178.135765

> <PUBCHEM_TOTAL_CHARGE>
0

> <PUBCHEM_HEAVY_ATOM_COUNT>
13

> <PUBCHEM_ATOM_DEF_STEREO_COUNT>
0

> <PUBCHEM_ATOM_UDEF_STEREO_COUNT>
0

> <PUBCHEM_BOND_DEF_STEREO_COUNT>
0

> <PUBCHEM_BOND_UDEF_STEREO_COUNT>
0

> <PUBCHEM_ISOTOPIC_ATOM_COUNT>
0

> <PUBCHEM_COMPONENT_COUNT>
1

> <PUBCHEM_CACTVS_TAUTO_COUNT>
5

> <PUBCHEM_COORDINATE_TYPE>
1
5
255

$$$$

