11954210
  -OEChem-07051213073D

 50 53  0     1  0  0  0  0  0999 V2000
   -3.2681    0.3101   -0.5806 O   0  0  0  0  0  0  0  0  0  0  0  0
   -2.4189    0.9796    1.4869 O   0  0  0  0  0  0  0  0  0  0  0  0
   -6.6360   -1.2624    1.1662 O   0  0  0  0  0  0  0  0  0  0  0  0
   -5.9315   -2.0160   -1.5341 O   0  0  0  0  0  0  0  0  0  0  0  0
   -4.2110   -0.7935    2.7724 O   0  0  0  0  0  0  0  0  0  0  0  0
   -2.5962   -0.0344   -3.2237 O   0  0  0  0  0  0  0  0  0  0  0  0
    2.0679   -0.2220    0.4964 O   0  0  0  0  0  0  0  0  0  0  0  0
    4.9446    1.6182   -0.8919 O   0  0  0  0  0  0  0  0  0  0  0  0
    2.9331    3.5372   -0.8166 O   0  0  0  0  0  0  0  0  0  0  0  0
   -5.2951   -1.2914    0.6747 C   0  0  1  0  0  0  0  0  0  0  0  0
   -5.3294   -0.9438   -0.8136 C   0  0  1  0  0  0  0  0  0  0  0  0
   -4.4445   -0.2906    1.4572 C   0  0  2  0  0  0  0  0  0  0  0  0
   -3.9152   -0.7061   -1.3485 C   0  0  1  0  0  0  0  0  0  0  0  0
   -3.0911   -0.0647    0.7835 C   0  0  1  0  0  0  0  0  0  0  0  0
   -3.9316   -0.2438   -2.8022 C   0  0  0  0  0  0  0  0  0  0  0  0
   -1.1852    1.3310    1.0246 C   0  0  0  0  0  0  0  0  0  0  0  0
   -0.1596    0.3862    0.9852 C   0  0  0  0  0  0  0  0  0  0  0  0
   -0.9509    2.6367    0.5916 C   0  0  0  0  0  0  0  0  0  0  0  0
    1.1014    0.7501    0.5117 C   0  0  0  0  0  0  0  0  0  0  0  0
    1.3337    2.0537    0.0791 C   0  0  0  0  0  0  0  0  0  0  0  0
    0.3093    3.0029    0.1172 C   0  0  0  0  0  0  0  0  0  0  0  0
    2.6712    2.4101   -0.4185 C   0  0  0  0  0  0  0  0  0  0  0  0
    3.3335    0.1110    0.0397 C   0  0  0  0  0  0  0  0  0  0  0  0
    3.6851    1.3281   -0.4135 C   0  0  0  0  0  0  0  0  0  0  0  0
    4.2740   -1.0233    0.0754 C   0  0  0  0  0  0  0  0  0  0  0  0
    5.0595   -1.2438    1.2072 C   0  0  0  0  0  0  0  0  0  0  0  0
    4.3792   -1.8781   -1.0225 C   0  0  0  0  0  0  0  0  0  0  0  0
    5.9493   -2.3175    1.2413 C   0  0  0  0  0  0  0  0  0  0  0  0
    5.2687   -2.9520   -0.9883 C   0  0  0  0  0  0  0  0  0  0  0  0
    6.0538   -3.1715    0.1436 C   0  0  0  0  0  0  0  0  0  0  0  0
   -4.9299   -2.3139    0.8316 H   0  0  0  0  0  0  0  0  0  0  0  0
   -5.9538   -0.0549   -0.9660 H   0  0  0  0  0  0  0  0  0  0  0  0
   -4.9829    0.6579    1.5714 H   0  0  0  0  0  0  0  0  0  0  0  0
   -3.3124   -1.6228   -1.2913 H   0  0  0  0  0  0  0  0  0  0  0  0
   -2.4940   -0.9842    0.8427 H   0  0  0  0  0  0  0  0  0  0  0  0
   -4.4699    0.7031   -2.9156 H   0  0  0  0  0  0  0  0  0  0  0  0
   -4.3875   -0.9897   -3.4595 H   0  0  0  0  0  0  0  0  0  0  0  0
   -7.1523   -1.8975    0.6409 H   0  0  0  0  0  0  0  0  0  0  0  0
   -5.3803   -2.8076   -1.4108 H   0  0  0  0  0  0  0  0  0  0  0  0
   -3.7347   -1.6376    2.6927 H   0  0  0  0  0  0  0  0  0  0  0  0
   -2.1992    0.6239   -2.6278 H   0  0  0  0  0  0  0  0  0  0  0  0
   -0.3254   -0.6288    1.3363 H   0  0  0  0  0  0  0  0  0  0  0  0
   -1.7486    3.3742    0.6206 H   0  0  0  0  0  0  0  0  0  0  0  0
    0.4721    4.0238   -0.2163 H   0  0  0  0  0  0  0  0  0  0  0  0
    4.9887   -0.5870    2.0709 H   0  0  0  0  0  0  0  0  0  0  0  0
    3.7736   -1.7200   -1.9116 H   0  0  0  0  0  0  0  0  0  0  0  0
    5.5076    0.8293   -0.8374 H   0  0  0  0  0  0  0  0  0  0  0  0
    6.5605   -2.4886    2.1226 H   0  0  0  0  0  0  0  0  0  0  0  0
    5.3502   -3.6172   -1.8430 H   0  0  0  0  0  0  0  0  0  0  0  0
    6.7465   -4.0076    0.1701 H   0  0  0  0  0  0  0  0  0  0  0  0
  1 13  1  0  0  0  0
  1 14  1  0  0  0  0
  2 14  1  0  0  0  0
  2 16  1  0  0  0  0
  3 10  1  0  0  0  0
  3 38  1  0  0  0  0
  4 11  1  0  0  0  0
  4 39  1  0  0  0  0
  5 12  1  0  0  0  0
  5 40  1  0  0  0  0
  6 15  1  0  0  0  0
  6 41  1  0  0  0  0
  7 19  1  0  0  0  0
  7 23  1  0  0  0  0
  8 24  1  0  0  0  0
  8 47  1  0  0  0  0
  9 22  2  0  0  0  0
 10 11  1  0  0  0  0
 10 12  1  0  0  0  0
 10 31  1  0  0  0  0
 11 13  1  0  0  0  0
 11 32  1  0  0  0  0
 12 14  1  0  0  0  0
 12 33  1  0  0  0  0
 13 15  1  0  0  0  0
 13 34  1  0  0  0  0
 14 35  1  0  0  0  0
 15 36  1  0  0  0  0
 15 37  1  0  0  0  0
 16 17  2  0  0  0  0
 16 18  1  0  0  0  0
 17 19  1  0  0  0  0
 17 42  1  0  0  0  0
 18 21  2  0  0  0  0
 18 43  1  0  0  0  0
 19 20  2  0  0  0  0
 20 21  1  0  0  0  0
 20 22  1  0  0  0  0
 21 44  1  0  0  0  0
 22 24  1  0  0  0  0
 23 24  2  0  0  0  0
 23 25  1  0  0  0  0
 25 26  2  0  0  0  0
 25 27  1  0  0  0  0
 26 28  1  0  0  0  0
 26 45  1  0  0  0  0
 27 29  2  0  0  0  0
 27 46  1  0  0  0  0
 28 30  2  0  0  0  0
 28 48  1  0  0  0  0
 29 30  1  0  0  0  0
 29 49  1  0  0  0  0
 30 50  1  0  0  0  0
M  END
> <PUBCHEM_COMPOUND_CID>
11954210

> <PUBCHEM_CONFORMER_RMSD>
0.8

> <PUBCHEM_CONFORMER_DIVERSEORDER>
1
59
91
94
74
67
37
72
83
47
40
34
4
89
15
45
5
39
79
27
90
6
93
77
62
56
50
8
61
32
75
85
28
46
7
54
63
53
2
81
66
42
21
64
70
41
60
92
3
71
19
55
78
73
68
22
13
26
87
36
31
48
69
14
38
20
18
65
30
86
76
9
23
35
25
95
49
80
88
82
52
24
16
17
33
84
43
44
11
57
51
29
58
10
12

> <PUBCHEM_MMFF94_PARTIAL_CHARGES>
43
1 -0.56
10 0.28
11 0.28
12 0.28
13 0.28
14 0.56
15 0.28
16 0.08
17 -0.15
18 -0.15
19 0.08
2 -0.36
20 0.09
21 -0.15
22 0.47
23 0.05
24 0.09
25 0.03
26 -0.15
27 -0.15
28 -0.15
29 -0.15
3 -0.68
30 -0.15
38 0.4
39 0.4
4 -0.68
40 0.4
41 0.4
42 0.15
43 0.15
44 0.15
45 0.15
46 0.15
47 0.45
48 0.15
49 0.15
5 -0.68
50 0.15
6 -0.68
7 -0.16
8 -0.53
9 -0.57

> <PUBCHEM_EFFECTIVE_ROTOR_COUNT>
5.2

> <PUBCHEM_PHARMACOPHORE_FEATURES>
17
1 1 acceptor
1 2 acceptor
1 3 acceptor
1 3 donor
1 4 acceptor
1 4 donor
1 5 acceptor
1 5 donor
1 6 acceptor
1 6 donor
1 7 acceptor
1 8 donor
1 9 acceptor
6 1 10 11 12 13 14 rings
6 16 17 18 19 20 21 rings
6 25 26 27 28 29 30 rings
6 7 19 20 22 23 24 rings

> <PUBCHEM_HEAVY_ATOM_COUNT>
30

> <PUBCHEM_ATOM_DEF_STEREO_COUNT>
5

> <PUBCHEM_ATOM_UDEF_STEREO_COUNT>
0

> <PUBCHEM_BOND_DEF_STEREO_COUNT>
0

> <PUBCHEM_BOND_UDEF_STEREO_COUNT>
0

> <PUBCHEM_ISOTOPIC_ATOM_COUNT>
0

> <PUBCHEM_COMPONENT_COUNT>
1

> <PUBCHEM_CACTVS_TAUTO_COUNT>
2

> <PUBCHEM_CONFORMER_ID>
00B6682200000001

> <PUBCHEM_MMFF94_ENERGY>
98.9165

> <PUBCHEM_FEATURE_SELFOVERLAP>
86.353

> <PUBCHEM_SHAPE_FINGERPRINT>
10319688 67 15357962496492640603
10319926 262 15068612807831813744
10622 236 18336267928595026082
10670039 82 14620521159047497614
11135926 11 18268422435324314516
12166972 35 17989199365395019750
12236239 1 17605262996521508609
12422481 6 17168420583769305510
13540713 5 18266717225812729784
13692114 37 17391621564752696425
13782708 43 17917712366706072315
14347329 18 14979957003588600122
14848178 5 18260557752851008190
14910302 57 17418094274148332723
15320294 125 17603305960117883927
15537594 2 17968087590879345645
17349148 13 18260541247355051786
17492 89 18337666525108894656
1813 80 18187639219491251764
19377110 9 17676491627358271400
19958102 18 17274823566758329075
20028762 73 18261391187124184998
20775438 99 18196381320843988154
21033650 10 15554168167849846116
22061861 79 18131353003130767043
22393880 68 17346889961009718273
229767 44 17167872971123538735
23536364 44 17987808530441007549
23559900 14 17632290138392042304
23569914 152 17837524051810572687
2838139 119 11959730473366041326
314194 84 18335413535008857656
34797466 226 16629957712339983165
44062 13 18270118066268006437
46194498 28 17346032247408944917
5104073 3 18335973272828473776
513202 73 18411697712649172709
6058803 2 18264745792863883760
7970288 3 18335424560348915143

> <PUBCHEM_SHAPE_MULTIPOLES>
564.56
16.22
3.49
2.05
2.38
1.3
0.86
-16.4
-0.21
-5.03
0.48
3.31
-0.68
-1.16

> <PUBCHEM_SHAPE_SELFOVERLAP>
1235.478

> <PUBCHEM_SHAPE_VOLUME>
302

> <PUBCHEM_COORDINATE_TYPE>
2
5
10

$$$$

