442322
  -OEChem-07051212573D

 36 38  0     1  0  0  0  0  0999 V2000
    1.3083    1.6442    0.5783 O   0  0  0  0  0  0  0  0  0  0  0  0
   -2.5357    0.2339   -1.5918 O   0  0  0  0  0  0  0  0  0  0  0  0
    2.1566   -2.9442   -0.2686 O   0  0  0  0  0  0  0  0  0  0  0  0
    3.4707    2.4530    0.4778 O   0  0  0  0  0  0  0  0  0  0  0  0
   -3.2011    2.3082   -1.0465 O   0  0  0  0  0  0  0  0  0  0  0  0
   -1.2042   -1.1900   -0.0261 C   0  0  2  0  0  0  0  0  0  0  0  0
   -0.6719    0.1243    0.6011 C   0  0  1  0  0  0  0  0  0  0  0  0
    0.6811    0.5019   -0.0201 C   0  0  2  0  0  0  0  0  0  0  0  0
    1.6970   -0.6085    0.1855 C   0  0  1  0  0  0  0  0  0  0  0  0
   -0.1216   -2.3015   -0.0231 C   0  0  0  0  0  0  0  0  0  0  0  0
    1.2620   -1.8702   -0.5486 C   0  0  2  0  0  0  0  0  0  0  0  0
   -1.6556   -0.9059   -1.4663 C   0  0  0  0  0  0  0  0  0  0  0  0
   -1.6698    1.2398    0.4255 C   0  0  0  0  0  0  0  0  0  0  0  0
    2.9081    0.1808   -0.1696 C   0  0  0  0  0  0  0  0  0  0  0  0
   -2.3871   -1.7102    0.7648 C   0  0  0  0  0  0  0  0  0  0  0  0
    2.6538    1.5657    0.3145 C   0  0  0  0  0  0  0  0  0  0  0  0
   -2.5184    1.3223   -0.7853 C   0  0  0  0  0  0  0  0  0  0  0  0
   -1.8702    2.1671    1.3759 C   0  0  0  0  0  0  0  0  0  0  0  0
    4.0240   -0.1361   -0.8274 C   0  0  0  0  0  0  0  0  0  0  0  0
   -2.3261   -2.0746    2.0501 C   0  0  0  0  0  0  0  0  0  0  0  0
   -0.5024   -0.0169    1.6786 H   0  0  0  0  0  0  0  0  0  0  0  0
    0.5471    0.7414   -1.0860 H   0  0  0  0  0  0  0  0  0  0  0  0
    1.7985   -0.8416    1.2571 H   0  0  0  0  0  0  0  0  0  0  0  0
   -0.4633   -3.1685   -0.6067 H   0  0  0  0  0  0  0  0  0  0  0  0
    0.0271   -2.6967    0.9913 H   0  0  0  0  0  0  0  0  0  0  0  0
    1.2435   -1.7216   -1.6331 H   0  0  0  0  0  0  0  0  0  0  0  0
   -0.8132   -0.7241   -2.1414 H   0  0  0  0  0  0  0  0  0  0  0  0
   -2.1954   -1.7656   -1.8826 H   0  0  0  0  0  0  0  0  0  0  0  0
   -3.3474   -1.8022    0.2621 H   0  0  0  0  0  0  0  0  0  0  0  0
    2.2336   -3.0345    0.6965 H   0  0  0  0  0  0  0  0  0  0  0  0
   -1.2949    2.1513    2.2965 H   0  0  0  0  0  0  0  0  0  0  0  0
   -2.6008    2.9628    1.2776 H   0  0  0  0  0  0  0  0  0  0  0  0
    4.1842   -1.1433   -1.1961 H   0  0  0  0  0  0  0  0  0  0  0  0
    4.8031    0.5946   -1.0161 H   0  0  0  0  0  0  0  0  0  0  0  0
   -3.2146   -2.4423    2.5528 H   0  0  0  0  0  0  0  0  0  0  0  0
   -1.4145   -2.0123    2.6328 H   0  0  0  0  0  0  0  0  0  0  0  0
  1  8  1  0  0  0  0
  1 16  1  0  0  0  0
  2 12  1  0  0  0  0
  2 17  1  0  0  0  0
  3 11  1  0  0  0  0
  3 30  1  0  0  0  0
  4 16  2  0  0  0  0
  5 17  2  0  0  0  0
  6  7  1  0  0  0  0
  6 10  1  0  0  0  0
  6 12  1  0  0  0  0
  6 15  1  0  0  0  0
  7  8  1  0  0  0  0
  7 13  1  0  0  0  0
  7 21  1  0  0  0  0
  8  9  1  0  0  0  0
  8 22  1  0  0  0  0
  9 11  1  0  0  0  0
  9 14  1  0  0  0  0
  9 23  1  0  0  0  0
 10 11  1  0  0  0  0
 10 24  1  0  0  0  0
 10 25  1  0  0  0  0
 11 26  1  0  0  0  0
 12 27  1  0  0  0  0
 12 28  1  0  0  0  0
 13 17  1  0  0  0  0
 13 18  2  0  0  0  0
 14 16  1  0  0  0  0
 14 19  2  0  0  0  0
 15 20  2  0  0  0  0
 15 29  1  0  0  0  0
 18 31  1  0  0  0  0
 18 32  1  0  0  0  0
 19 33  1  0  0  0  0
 19 34  1  0  0  0  0
 20 35  1  0  0  0  0
 20 36  1  0  0  0  0
M  END
> <PUBCHEM_COMPOUND_CID>
442322

> <PUBCHEM_CONFORMER_RMSD>
0.6

> <PUBCHEM_CONFORMER_DIVERSEORDER>
1
3
2

> <PUBCHEM_MMFF94_PARTIAL_CHARGES>
27
1 -0.43
11 0.28
12 0.28
13 -0.12
14 -0.12
15 -0.29
16 0.71
17 0.71
18 -0.3
19 -0.3
2 -0.43
20 -0.3
29 0.15
3 -0.68
30 0.4
31 0.15
32 0.15
33 0.15
34 0.15
35 0.15
36 0.15
4 -0.57
5 -0.57
6 0.14
7 0.14
8 0.28
9 0.14

> <PUBCHEM_EFFECTIVE_ROTOR_COUNT>
2

> <PUBCHEM_PHARMACOPHORE_FEATURES>
8
1 20 hydrophobe
1 3 acceptor
1 3 donor
1 4 acceptor
1 5 acceptor
5 1 8 9 14 16 rings
6 2 6 7 12 13 17 rings
6 6 7 8 9 10 11 rings

> <PUBCHEM_HEAVY_ATOM_COUNT>
20

> <PUBCHEM_ATOM_DEF_STEREO_COUNT>
5

> <PUBCHEM_ATOM_UDEF_STEREO_COUNT>
0

> <PUBCHEM_BOND_DEF_STEREO_COUNT>
0

> <PUBCHEM_BOND_UDEF_STEREO_COUNT>
0

> <PUBCHEM_ISOTOPIC_ATOM_COUNT>
0

> <PUBCHEM_COMPONENT_COUNT>
1

> <PUBCHEM_CACTVS_TAUTO_COUNT>
1

> <PUBCHEM_CONFORMER_ID>
0006BFD200000001

> <PUBCHEM_MMFF94_ENERGY>
65.5446

> <PUBCHEM_FEATURE_SELFOVERLAP>
40.723

> <PUBCHEM_SHAPE_FINGERPRINT>
10756046 5 18190478227597344519
10863032 1 18341618156555283879
10967382 1 18048026660733195330
12423570 1 11519311139747972943
12491281 212 17970066849364249169
12553582 1 17688861360699042134
13140716 1 18408317796477672160
13464514 151 18266743669661626700
13583140 156 17127366821423126680
13764800 53 18342458106150358433
14223421 5 18341603798326827490
14614273 12 18341052913126184617
15852999 172 18129122106859387087
16945 1 18261398887530171330
17357779 13 18051423872648859439
17844478 74 18127402354641045187
18219364 16 18198610228149026273
18981168 100 18412254060456884866
19049666 15 18342453768128349202
19765921 60 18126306339702119425
20510252 161 18192149300318996472
20600515 1 16986299470947463091
21160774 45 17904767682719483142
21524375 3 18127423456205448799
22182313 1 18336821988483239132
22907989 373 18129371614468406349
2334 1 18263925449772246696
23419403 2 15800109196920216517
23493267 7 18060423516781488850
23559900 14 18187916314877485886
25 1 18196096761842764605
2748010 2 18336544915626467328
350125 39 18339906135546723024
5845 1 6736787780647784867
6049 1 18337096866216005884
81228 2 17774141445475620675
9981440 41 18191896468552990888

> <PUBCHEM_SHAPE_MULTIPOLES>
382.24
5.45
3.05
1.35
3.63
0.3
-0.06
-1.77
0.49
-0.39
-0.51
-1.27
0.09
1.21

> <PUBCHEM_SHAPE_SELFOVERLAP>
829.539

> <PUBCHEM_SHAPE_VOLUME>
206.2

> <PUBCHEM_COORDINATE_TYPE>
2
5
10

$$$$

