12549
  -OEChem-06261207043D

 42 45  0     0  0  0  0  0  0999 V2000
   -0.0351    0.7269   -1.3031 C   0  0  0  0  0  0  0  0  0  0  0  0
    0.0404   -0.7224   -1.3049 C   0  0  0  0  0  0  0  0  0  0  0  0
   -0.9157    1.4108   -0.4611 C   0  0  0  0  0  0  0  0  0  0  0  0
    0.9158   -1.4105   -0.4649 C   0  0  0  0  0  0  0  0  0  0  0  0
   -1.7962    0.7128    0.4506 C   0  0  0  0  0  0  0  0  0  0  0  0
    1.7961   -0.7129    0.4541 C   0  0  0  0  0  0  0  0  0  0  0  0
    0.7986    1.4349   -2.1689 C   0  0  0  0  0  0  0  0  0  0  0  0
   -0.7906   -1.4281   -2.1750 C   0  0  0  0  0  0  0  0  0  0  0  0
   -0.9574    2.8068   -0.4906 C   0  0  0  0  0  0  0  0  0  0  0  0
    0.9602   -2.8044   -0.4950 C   0  0  0  0  0  0  0  0  0  0  0  0
    0.7543    2.8288   -2.1955 C   0  0  0  0  0  0  0  0  0  0  0  0
   -0.7463   -2.8220   -2.2052 C   0  0  0  0  0  0  0  0  0  0  0  0
   -0.1237    3.5147   -1.3563 C   0  0  0  0  0  0  0  0  0  0  0  0
    0.1291   -3.5101   -1.3651 C   0  0  0  0  0  0  0  0  0  0  0  0
   -3.0721    0.3328    0.0344 C   0  0  0  0  0  0  0  0  0  0  0  0
    3.0707   -0.3340    0.0400 C   0  0  0  0  0  0  0  0  0  0  0  0
   -1.3689    0.4197    1.7455 C   0  0  0  0  0  0  0  0  0  0  0  0
    1.3623   -0.4252    1.7457 C   0  0  0  0  0  0  0  0  0  0  0  0
   -3.9209   -0.3402    0.9132 C   0  0  0  0  0  0  0  0  0  0  0  0
    3.9167    0.3367    0.9231 C   0  0  0  0  0  0  0  0  0  0  0  0
   -2.2175   -0.2536    2.6244 C   0  0  0  0  0  0  0  0  0  0  0  0
    2.2082    0.2456    2.6289 C   0  0  0  0  0  0  0  0  0  0  0  0
   -3.4936   -0.6333    2.2082 C   0  0  0  0  0  0  0  0  0  0  0  0
    3.4856    0.6265    2.2176 C   0  0  0  0  0  0  0  0  0  0  0  0
    1.4895    0.9182   -2.8312 H   0  0  0  0  0  0  0  0  0  0  0  0
   -1.4796   -0.9097   -2.8381 H   0  0  0  0  0  0  0  0  0  0  0  0
   -1.6347    3.3602    0.1561 H   0  0  0  0  0  0  0  0  0  0  0  0
    1.6358   -3.3587    0.1524 H   0  0  0  0  0  0  0  0  0  0  0  0
    1.4035    3.3801   -2.8694 H   0  0  0  0  0  0  0  0  0  0  0  0
   -1.3935   -3.3715   -2.8825 H   0  0  0  0  0  0  0  0  0  0  0  0
   -0.1579    4.6001   -1.3770 H   0  0  0  0  0  0  0  0  0  0  0  0
    0.1634   -4.5954   -1.3885 H   0  0  0  0  0  0  0  0  0  0  0  0
   -3.4216    0.5544   -0.9713 H   0  0  0  0  0  0  0  0  0  0  0  0
    3.4225   -0.5532   -0.9653 H   0  0  0  0  0  0  0  0  0  0  0  0
   -0.4951    0.9140    2.1512 H   0  0  0  0  0  0  0  0  0  0  0  0
    0.4872   -0.9212    2.1463 H   0  0  0  0  0  0  0  0  0  0  0  0
   -4.9155   -0.6334    0.5901 H   0  0  0  0  0  0  0  0  0  0  0  0
    4.9123    0.6307    0.6039 H   0  0  0  0  0  0  0  0  0  0  0  0
   -1.9065   -0.4324    3.6497 H   0  0  0  0  0  0  0  0  0  0  0  0
    1.8942    0.4217    3.6536 H   0  0  0  0  0  0  0  0  0  0  0  0
   -4.1592   -1.1457    2.8967 H   0  0  0  0  0  0  0  0  0  0  0  0
    4.1491    1.1371    2.9094 H   0  0  0  0  0  0  0  0  0  0  0  0
  1  2  1  0  0  0  0
  1  3  1  0  0  0  0
  1  7  2  0  0  0  0
  2  4  1  0  0  0  0
  2  8  2  0  0  0  0
  3  5  1  0  0  0  0
  3  9  2  0  0  0  0
  4  6  1  0  0  0  0
  4 10  2  0  0  0  0
  5 15  2  0  0  0  0
  5 17  1  0  0  0  0
  6 16  2  0  0  0  0
  6 18  1  0  0  0  0
  7 11  1  0  0  0  0
  7 25  1  0  0  0  0
  8 12  1  0  0  0  0
  8 26  1  0  0  0  0
  9 13  1  0  0  0  0
  9 27  1  0  0  0  0
 10 14  1  0  0  0  0
 10 28  1  0  0  0  0
 11 13  2  0  0  0  0
 11 29  1  0  0  0  0
 12 14  2  0  0  0  0
 12 30  1  0  0  0  0
 13 31  1  0  0  0  0
 14 32  1  0  0  0  0
 15 19  1  0  0  0  0
 15 33  1  0  0  0  0
 16 20  1  0  0  0  0
 16 34  1  0  0  0  0
 17 21  2  0  0  0  0
 17 35  1  0  0  0  0
 18 22  2  0  0  0  0
 18 36  1  0  0  0  0
 19 23  2  0  0  0  0
 19 37  1  0  0  0  0
 20 24  2  0  0  0  0
 20 38  1  0  0  0  0
 21 23  1  0  0  0  0
 21 39  1  0  0  0  0
 22 24  1  0  0  0  0
 22 40  1  0  0  0  0
 23 41  1  0  0  0  0
 24 42  1  0  0  0  0
M  END
> <PUBCHEM_COMPOUND_CID>
12549

> <PUBCHEM_CONFORMER_RMSD>
0.6

> <PUBCHEM_CONFORMER_DIVERSEORDER>
1
2

> <PUBCHEM_MMFF94_PARTIAL_CHARGES>
36
10 -0.15
11 -0.15
12 -0.15
13 -0.15
14 -0.15
15 -0.15
16 -0.15
17 -0.15
18 -0.15
19 -0.15
20 -0.15
21 -0.15
22 -0.15
23 -0.15
24 -0.15
25 0.15
26 0.15
27 0.15
28 0.15
29 0.15
30 0.15
31 0.15
32 0.15
33 0.15
34 0.15
35 0.15
36 0.15
37 0.15
38 0.15
39 0.15
40 0.15
41 0.15
42 0.15
7 -0.15
8 -0.15
9 -0.15

> <PUBCHEM_EFFECTIVE_ROTOR_COUNT>
3

> <PUBCHEM_PHARMACOPHORE_FEATURES>
4
6 1 3 7 9 11 13 rings
6 2 4 8 10 12 14 rings
6 5 15 17 19 21 23 rings
6 6 16 18 20 22 24 rings

> <PUBCHEM_HEAVY_ATOM_COUNT>
24

> <PUBCHEM_ATOM_DEF_STEREO_COUNT>
0

> <PUBCHEM_ATOM_UDEF_STEREO_COUNT>
0

> <PUBCHEM_BOND_DEF_STEREO_COUNT>
0

> <PUBCHEM_BOND_UDEF_STEREO_COUNT>
0

> <PUBCHEM_ISOTOPIC_ATOM_COUNT>
0

> <PUBCHEM_COMPONENT_COUNT>
1

> <PUBCHEM_CACTVS_TAUTO_COUNT>
1

> <PUBCHEM_CONFORMER_ID>
0000310500000001

> <PUBCHEM_MMFF94_ENERGY>
104.0349

> <PUBCHEM_FEATURE_SELFOVERLAP>
20.297

> <PUBCHEM_SHAPE_FINGERPRINT>
10165383 225 18114181964853052488
10906281 52 18129651041073394333
11112662 9 16226052167510860317
11578080 2 17680968984488108593
11582403 64 16617080476757967420
12035759 4 17473825022140219709
12082328 90 17631177571551660730
12156800 1 16957016112870182488
12507560 18 15528549104450823718
14022347 108 17198227326508041417
14028597 1 16681473989196913528
14142880 1 17681872568233744248
14787075 74 16986284120823420260
14817 1 14287478279471372677
16945 1 18410855494493175006
17980427 23 18343019982663240353
18219364 16 17825972560889321666
19765921 60 16160244282958434064
20600515 1 17417530349121485645
20691752 17 16734918251979297449
20905425 154 17054106344178009555
21421861 104 17415524758661841873
229495 10 17318768959329836741
23419403 2 17541925929402601310
238 59 17466258599914439556
25222932 49 16545485335198517347
25223398 141 4738419310781132717
3027735 51 13253422524665263848
350125 39 17757874308218156486
35225 105 17532111439277954030
392239 28 17168424857679087339
394222 165 17838585922007920793
427121 178 17458888371747416579
469060 322 17981924910576902794
497634 4 17538599546531809624
5845 1 4784411487317503468
81228 2 17974034776666145878
9925002 15 17975987461623620692
9981440 41 17326106009080674360
9999458 23 17603855741173937467

> <PUBCHEM_SHAPE_MULTIPOLES>
493.91
4.78
3.46
3.07
0.03
0.02
-0.77
-0.01
-4.62
-0.01
3.55
-0.01
-0.01
0.11

> <PUBCHEM_SHAPE_SELFOVERLAP>
1113.085

> <PUBCHEM_SHAPE_VOLUME>
239.8

> <PUBCHEM_COORDINATE_TYPE>
2
5
10

$$$$

