5281925
  -OEChem-07051213013D

 26 27  0     0  0  0  0  0  0999 V2000
   -1.2285   -1.8775    0.0228 O   0  0  0  0  0  0  0  0  0  0  0  0
    3.4939   -1.3675   -0.0483 O   0  0  0  0  0  0  0  0  0  0  0  0
   -3.8319    0.6653    0.0441 O   0  0  0  0  0  0  0  0  0  0  0  0
    1.8261    3.2050    0.5737 O   0  0  0  0  0  0  0  0  0  0  0  0
   -0.1591    3.2734   -0.5312 O   0  0  0  0  0  0  0  0  0  0  0  0
   -1.5575    0.9151    0.0093 N   0  0  0  0  0  0  0  0  0  0  0  0
   -0.2812    0.3458   -0.0056 C   0  0  0  0  0  0  0  0  0  0  0  0
   -0.1473   -1.0380    0.0016 C   0  0  0  0  0  0  0  0  0  0  0  0
    0.8499    1.1634   -0.0272 C   0  0  0  0  0  0  0  0  0  0  0  0
    1.1210   -1.6184   -0.0125 C   0  0  0  0  0  0  0  0  0  0  0  0
    2.2543   -0.8052   -0.0343 C   0  0  0  0  0  0  0  0  0  0  0  0
    2.1190    0.5839   -0.0416 C   0  0  0  0  0  0  0  0  0  0  0  0
   -2.7103    0.1626    0.0315 C   0  0  0  0  0  0  0  0  0  0  0  0
   -2.4978   -1.3176    0.0373 C   0  0  0  0  0  0  0  0  0  0  0  0
    0.7615    2.6188   -0.0365 C   0  0  0  0  0  0  0  0  0  0  0  0
   -3.5722   -2.1164    0.0568 C   0  0  0  0  0  0  0  0  0  0  0  0
    3.5603   -2.7927   -0.0397 C   0  0  0  0  0  0  0  0  0  0  0  0
    1.1619   -2.7026   -0.0057 H   0  0  0  0  0  0  0  0  0  0  0  0
    3.0213    1.1899   -0.0734 H   0  0  0  0  0  0  0  0  0  0  0  0
   -1.6467    1.9263    0.0054 H   0  0  0  0  0  0  0  0  0  0  0  0
   -3.4540   -3.1956    0.0614 H   0  0  0  0  0  0  0  0  0  0  0  0
   -4.5874   -1.7352    0.0686 H   0  0  0  0  0  0  0  0  0  0  0  0
    4.6203   -3.0667   -0.0532 H   0  0  0  0  0  0  0  0  0  0  0  0
    3.1083   -3.2224   -0.9401 H   0  0  0  0  0  0  0  0  0  0  0  0
    3.1345   -3.2101    0.8791 H   0  0  0  0  0  0  0  0  0  0  0  0
    1.7596    4.1837    0.5637 H   0  0  0  0  0  0  0  0  0  0  0  0
  1  8  1  0  0  0  0
  1 14  1  0  0  0  0
  2 11  1  0  0  0  0
  2 17  1  0  0  0  0
  3 13  2  0  0  0  0
  4 15  1  0  0  0  0
  4 26  1  0  0  0  0
  5 15  2  0  0  0  0
  6  7  1  0  0  0  0
  6 13  1  0  0  0  0
  6 20  1  0  0  0  0
  7  8  1  0  0  0  0
  7  9  2  0  0  0  0
  8 10  2  0  0  0  0
  9 12  1  0  0  0  0
  9 15  1  0  0  0  0
 10 11  1  0  0  0  0
 10 18  1  0  0  0  0
 11 12  2  0  0  0  0
 12 19  1  0  0  0  0
 13 14  1  0  0  0  0
 14 16  2  0  0  0  0
 16 21  1  0  0  0  0
 16 22  1  0  0  0  0
 17 23  1  0  0  0  0
 17 24  1  0  0  0  0
 17 25  1  0  0  0  0
M  END
> <PUBCHEM_COMPOUND_CID>
5281925

> <PUBCHEM_CONFORMER_RMSD>
0.6

> <PUBCHEM_CONFORMER_DIVERSEORDER>
1
2

> <PUBCHEM_MMFF94_PARTIAL_CHARGES>
23
1 -0.16
10 -0.15
11 0.08
12 -0.15
13 0.62
14 0.09
15 0.63
16 -0.3
17 0.28
18 0.15
19 0.15
2 -0.36
20 0.37
21 0.15
22 0.15
26 0.5
3 -0.57
4 -0.65
5 -0.57
6 -0.55
7 0.12
8 0.08
9 0.09

> <PUBCHEM_EFFECTIVE_ROTOR_COUNT>
2.4

> <PUBCHEM_PHARMACOPHORE_FEATURES>
9
1 1 acceptor
1 2 acceptor
1 3 acceptor
1 4 acceptor
1 5 acceptor
1 6 donor
3 4 5 15 anion
6 1 6 7 8 13 14 rings
6 7 8 9 10 11 12 rings

> <PUBCHEM_HEAVY_ATOM_COUNT>
17

> <PUBCHEM_ATOM_DEF_STEREO_COUNT>
0

> <PUBCHEM_ATOM_UDEF_STEREO_COUNT>
0

> <PUBCHEM_BOND_DEF_STEREO_COUNT>
0

> <PUBCHEM_BOND_UDEF_STEREO_COUNT>
0

> <PUBCHEM_ISOTOPIC_ATOM_COUNT>
0

> <PUBCHEM_COMPONENT_COUNT>
1

> <PUBCHEM_CACTVS_TAUTO_COUNT>
3

> <PUBCHEM_CONFORMER_ID>
0050988500000001

> <PUBCHEM_MMFF94_ENERGY>
59.4088

> <PUBCHEM_FEATURE_SELFOVERLAP>
45.758

> <PUBCHEM_SHAPE_FINGERPRINT>
10319926 262 17689463863729363242
10411042 1 18410855485898862019
10608611 8 18340209566559820141
10967382 1 18411136935110147214
11578080 2 17273445883236524028
11680986 33 18338519642667562529
116883 192 18047747384769736662
12032990 46 18338512040444092814
12553582 1 18267870656000535930
13140716 1 18410009978667970754
13380535 76 17764313838125101665
138480 1 18410855434506304428
14648413 74 18340485539282446243
14790565 3 17616522295874187656
15042514 8 17907294704090432090
15442244 35 18408881845673299211
16945 1 18051409574233004935
17990270 104 18339644429993395563
193761 8 18122343484451209422
19591789 44 16535093347632913047
20510252 161 17975138957049479754
20559304 39 18267303127521766978
20645477 70 18196664986480729663
21029758 11 18264779924556482173
21501502 16 18337386029221080143
221490 88 18269267972344923595
2334 1 18338797818850907359
23366157 5 18058733490068562956
23402539 116 18045513151308631207
23463225 33 18411134770647492934
23557571 272 17972313186665589878
23559900 14 18335991878067084299
257057 1 18410860996626011858
2748010 2 18410581668874330574
3071541 12 18265892467204808868
3071541 158 18342738507258872156
3084891 72 18051700137561331291
3091708 16 9212635860271781192
335352 9 18338516473324524719
352729 6 17114387494235433920
43471831 8 17834398917008823978
458136 41 17764848226809943537
54173680 148 18122906696761626158
6992083 37 18189599709116544363
7364860 26 18192430775321983224
7832392 63 18410013269024252419
81228 2 17976805799244091754
8809292 202 18271519892280575611
9709674 26 18197216949781194259

> <PUBCHEM_SHAPE_MULTIPOLES>
315.52
5.53
3.63
0.61
1.87
2.16
0
-3.99
-0.11
-2.01
0.01
-0.03
0.06
0.22

> <PUBCHEM_SHAPE_SELFOVERLAP>
686.952

> <PUBCHEM_SHAPE_VOLUME>
169.5

> <PUBCHEM_COORDINATE_TYPE>
2
5
10

$$$$

