47205299
  -OEChem-06241222582D

 36 37  0     0  0  0  0  0  0999 V2000
    2.0000   -3.2047    0.0000 Br  0  0  0  0  0  0  0  0  0  0  0  0
    3.7320    1.7953    0.0000 O   0  0  0  0  0  0  0  0  0  0  0  0
    3.7320   -4.2047    0.0000 O   0  0  0  0  0  0  0  0  0  0  0  0
    5.4641    1.7953    0.0000 N   0  0  0  0  0  0  0  0  0  0  0  0
    6.4347    4.2898    0.0000 N   0  0  0  0  0  0  0  0  0  0  0  0
    7.4128    4.4977    0.0000 N   0  0  0  0  0  0  0  0  0  0  0  0
    3.7320   -0.2047    0.0000 C   0  0  0  0  0  0  0  0  0  0  0  0
    4.5981    0.2953    0.0000 C   0  0  0  0  0  0  0  0  0  0  0  0
    3.7320   -1.2047    0.0000 C   0  0  0  0  0  0  0  0  0  0  0  0
    4.5981    1.2953    0.0000 C   0  0  0  0  0  0  0  0  0  0  0  0
    5.4641    2.7953    0.0000 C   0  0  0  0  0  0  0  0  0  0  0  0
    2.8660   -1.7047    0.0000 C   0  0  0  0  0  0  0  0  0  0  0  0
    4.5981   -1.7047    0.0000 C   0  0  0  0  0  0  0  0  0  0  0  0
    6.3301    3.2953    0.0000 C   0  0  0  0  0  0  0  0  0  0  0  0
    2.8660   -2.7047    0.0000 C   0  0  0  0  0  0  0  0  0  0  0  0
    4.5981   -2.7047    0.0000 C   0  0  0  0  0  0  0  0  0  0  0  0
    3.7320   -3.2047    0.0000 C   0  0  0  0  0  0  0  0  0  0  0  0
    7.2437    2.8886    0.0000 C   0  0  0  0  0  0  0  0  0  0  0  0
    7.9128    3.6317    0.0000 C   0  0  0  0  0  0  0  0  0  0  0  0
    4.5981   -4.7047    0.0000 C   0  0  0  0  0  0  0  0  0  0  0  0
    3.5200    0.3779    0.0000 H   0  0  0  0  0  0  0  0  0  0  0  0
    3.1215   -0.3124    0.0000 H   0  0  0  0  0  0  0  0  0  0  0  0
    4.8101   -0.2873    0.0000 H   0  0  0  0  0  0  0  0  0  0  0  0
    5.2087    0.4030    0.0000 H   0  0  0  0  0  0  0  0  0  0  0  0
    5.2520    3.3779    0.0000 H   0  0  0  0  0  0  0  0  0  0  0  0
    4.8535    2.6876    0.0000 H   0  0  0  0  0  0  0  0  0  0  0  0
    6.0010    1.4853    0.0000 H   0  0  0  0  0  0  0  0  0  0  0  0
    2.3291   -1.3947    0.0000 H   0  0  0  0  0  0  0  0  0  0  0  0
    5.1350   -1.3947    0.0000 H   0  0  0  0  0  0  0  0  0  0  0  0
    5.1350   -3.0147    0.0000 H   0  0  0  0  0  0  0  0  0  0  0  0
    7.3726    2.2821    0.0000 H   0  0  0  0  0  0  0  0  0  0  0  0
    5.9739    4.7047    0.0000 H   0  0  0  0  0  0  0  0  0  0  0  0
    8.5294    3.5669    0.0000 H   0  0  0  0  0  0  0  0  0  0  0  0
    4.2881   -5.2416    0.0000 H   0  0  0  0  0  0  0  0  0  0  0  0
    5.1350   -5.0147    0.0000 H   0  0  0  0  0  0  0  0  0  0  0  0
    4.9081   -4.1678    0.0000 H   0  0  0  0  0  0  0  0  0  0  0  0
  1 15  1  0  0  0  0
  2 10  2  0  0  0  0
  3 17  1  0  0  0  0
  3 20  1  0  0  0  0
  4 10  1  0  0  0  0
  4 11  1  0  0  0  0
  4 27  1  0  0  0  0
  5  6  1  0  0  0  0
  5 14  1  0  0  0  0
  5 32  1  0  0  0  0
  6 19  2  0  0  0  0
  7  8  1  0  0  0  0
  7  9  1  0  0  0  0
  7 21  1  0  0  0  0
  7 22  1  0  0  0  0
  8 10  1  0  0  0  0
  8 23  1  0  0  0  0
  8 24  1  0  0  0  0
  9 12  2  0  0  0  0
  9 13  1  0  0  0  0
 11 14  1  0  0  0  0
 11 25  1  0  0  0  0
 11 26  1  0  0  0  0
 12 15  1  0  0  0  0
 12 28  1  0  0  0  0
 13 16  2  0  0  0  0
 13 29  1  0  0  0  0
 14 18  2  0  0  0  0
 15 17  2  0  0  0  0
 16 17  1  0  0  0  0
 16 30  1  0  0  0  0
 18 19  1  0  0  0  0
 18 31  1  0  0  0  0
 19 33  1  0  0  0  0
 20 34  1  0  0  0  0
 20 35  1  0  0  0  0
 20 36  1  0  0  0  0
M  END
> <PUBCHEM_COMPOUND_CID>
47205299

> <PUBCHEM_COMPOUND_CANONICALIZED>
1

> <PUBCHEM_CACTVS_COMPLEXITY>
317

> <PUBCHEM_CACTVS_HBOND_ACCEPTOR>
3

> <PUBCHEM_CACTVS_HBOND_DONOR>
2

> <PUBCHEM_CACTVS_ROTATABLE_BOND>
6

> <PUBCHEM_CACTVS_SUBSKEYS>
AAADceBzMAAAEAAAAAAAAAAAAAAAAWAAAAAwAAAAAAAAAAABwAAAHgBYAAABrAzBngY+hpLjBACqAzV3UACSDAAgogQYuaE+bLgMZrKE8duUtChk3hGI6heYyKCOIAAAEAAABABAAAAgAAAIAAAAAAAAAA==

> <PUBCHEM_IUPAC_OPENEYE_NAME>
3-(3-bromo-4-methoxy-phenyl)-N-(1H-pyrazol-5-ylmethyl)propanamide

> <PUBCHEM_IUPAC_CAS_NAME>
3-(3-bromo-4-methoxyphenyl)-N-(1H-pyrazol-5-ylmethyl)propanamide

> <PUBCHEM_IUPAC_NAME>
3-(3-bromo-4-methoxyphenyl)-N-(1H-pyrazol-5-ylmethyl)propanamide

> <PUBCHEM_IUPAC_SYSTEMATIC_NAME>
3-(3-bromanyl-4-methoxy-phenyl)-N-(1H-pyrazol-5-ylmethyl)propanamide

> <PUBCHEM_IUPAC_TRADITIONAL_NAME>
3-(3-bromo-4-methoxy-phenyl)-N-(1H-pyrazol-5-ylmethyl)propionamide

> <PUBCHEM_IUPAC_INCHI>
InChI=1S/C14H16BrN3O2/c1-20-13-4-2-10(8-12(13)15)3-5-14(19)16-9-11-6-7-17-18-11/h2,4,6-8H,3,5,9H2,1H3,(H,16,19)(H,17,18)

> <PUBCHEM_IUPAC_INCHIKEY>
CLMNAVXSBRLWLN-UHFFFAOYSA-N

> <PUBCHEM_XLOGP3_AA>
1.9

> <PUBCHEM_EXACT_MASS>
337.042589

> <PUBCHEM_MOLECULAR_FORMULA>
C14H16BrN3O2

> <PUBCHEM_MOLECULAR_WEIGHT>
338.19974

> <PUBCHEM_OPENEYE_CAN_SMILES>
COC1=C(C=C(C=C1)CCC(=O)NCC2=CC=NN2)Br

> <PUBCHEM_OPENEYE_ISO_SMILES>
COC1=C(C=C(C=C1)CCC(=O)NCC2=CC=NN2)Br

> <PUBCHEM_CACTVS_TPSA>
67

> <PUBCHEM_MONOISOTOPIC_WEIGHT>
337.042589

> <PUBCHEM_TOTAL_CHARGE>
0

> <PUBCHEM_HEAVY_ATOM_COUNT>
20

> <PUBCHEM_ATOM_DEF_STEREO_COUNT>
0

> <PUBCHEM_ATOM_UDEF_STEREO_COUNT>
0

> <PUBCHEM_BOND_DEF_STEREO_COUNT>
0

> <PUBCHEM_BOND_UDEF_STEREO_COUNT>
0

> <PUBCHEM_ISOTOPIC_ATOM_COUNT>
0

> <PUBCHEM_COMPONENT_COUNT>
1

> <PUBCHEM_CACTVS_TAUTO_COUNT>
4

> <PUBCHEM_COORDINATE_TYPE>
1
5
255

> <PUBCHEM_BONDANNOTATIONS>
12  15  8
13  16  8
14  18  8
15  17  8
16  17  8
18  19  8
5  14  8
5  6  8
6  19  8
9  12  8
9  13  8

$$$$

