442319
  -OEChem-07051212573D

 48 50  0     1  0  0  0  0  0999 V2000
   -3.0915   -1.6236   -0.0406 O   0  0  0  0  0  0  0  0  0  0  0  0
    2.3803   -0.6009   -0.1308 O   0  0  0  0  0  0  0  0  0  0  0  0
   -5.2731   -2.3072   -0.2708 O   0  0  0  0  0  0  0  0  0  0  0  0
    3.8032    0.0404    1.5689 O   0  0  0  0  0  0  0  0  0  0  0  0
   -1.1209   -0.4369    0.7029 C   0  0  1  0  0  0  0  0  0  0  0  0
   -0.4580    0.9143    1.0497 C   0  0  1  0  0  0  0  0  0  0  0  0
   -2.3774   -0.3742   -0.1821 C   0  0  2  0  0  0  0  0  0  0  0  0
   -3.3842    0.7070    0.2084 C   0  0  1  0  0  0  0  0  0  0  0  0
    0.9718    0.5319    1.4908 C   0  0  0  0  0  0  0  0  0  0  0  0
    0.0423   -1.2446    0.1527 C   0  0  0  0  0  0  0  0  0  0  0  0
    1.3234   -0.7851    0.7985 C   0  0  1  0  0  0  0  0  0  0  0  0
   -0.5900    1.9826   -0.0261 C   0  0  0  0  0  0  0  0  0  0  0  0
   -3.1119    2.0453   -0.4883 C   0  0  0  0  0  0  0  0  0  0  0  0
   -1.8736    2.7835    0.0237 C   0  0  0  0  0  0  0  0  0  0  0  0
   -4.6551    0.0270   -0.1868 C   0  0  0  0  0  0  0  0  0  0  0  0
   -4.4315   -1.4317   -0.1854 C   0  0  0  0  0  0  0  0  0  0  0  0
   -0.0025   -2.1884   -0.7983 C   0  0  0  0  0  0  0  0  0  0  0  0
    0.3525    2.2936   -0.9302 C   0  0  0  0  0  0  0  0  0  0  0  0
   -5.8401    0.5396   -0.5285 C   0  0  0  0  0  0  0  0  0  0  0  0
    3.5727   -0.1836    0.3925 C   0  0  0  0  0  0  0  0  0  0  0  0
    4.5311   -0.0322   -0.7282 C   0  0  0  0  0  0  0  0  0  0  0  0
    5.8664   -0.1658   -0.6352 C   0  0  0  0  0  0  0  0  0  0  0  0
    6.7228    0.0165   -1.8625 C   0  0  0  0  0  0  0  0  0  0  0  0
    6.6431   -0.5074    0.6055 C   0  0  0  0  0  0  0  0  0  0  0  0
   -1.3970   -0.9233    1.6513 H   0  0  0  0  0  0  0  0  0  0  0  0
   -0.9493    1.3222    1.9452 H   0  0  0  0  0  0  0  0  0  0  0  0
   -2.0973   -0.2859   -1.2413 H   0  0  0  0  0  0  0  0  0  0  0  0
   -3.4050    0.8425    1.2979 H   0  0  0  0  0  0  0  0  0  0  0  0
    1.6770    1.3519    1.3255 H   0  0  0  0  0  0  0  0  0  0  0  0
    0.9541    0.3532    2.5750 H   0  0  0  0  0  0  0  0  0  0  0  0
    1.6309   -1.5301    1.5444 H   0  0  0  0  0  0  0  0  0  0  0  0
   -3.9681    2.7165   -0.3464 H   0  0  0  0  0  0  0  0  0  0  0  0
   -3.0209    1.8934   -1.5723 H   0  0  0  0  0  0  0  0  0  0  0  0
   -2.0482    3.1157    1.0553 H   0  0  0  0  0  0  0  0  0  0  0  0
   -1.7674    3.7083   -0.5590 H   0  0  0  0  0  0  0  0  0  0  0  0
    0.9017   -2.6899   -1.1279 H   0  0  0  0  0  0  0  0  0  0  0  0
   -0.9297   -2.4937   -1.2674 H   0  0  0  0  0  0  0  0  0  0  0  0
    1.2938    1.7615   -0.9887 H   0  0  0  0  0  0  0  0  0  0  0  0
    0.1993    3.0888   -1.6526 H   0  0  0  0  0  0  0  0  0  0  0  0
   -6.0102    1.6103   -0.5348 H   0  0  0  0  0  0  0  0  0  0  0  0
   -6.6771   -0.0925   -0.8064 H   0  0  0  0  0  0  0  0  0  0  0  0
    4.0807    0.1840   -1.6946 H   0  0  0  0  0  0  0  0  0  0  0  0
    7.4510    0.8179   -1.6991 H   0  0  0  0  0  0  0  0  0  0  0  0
    6.1344    0.2796   -2.7479 H   0  0  0  0  0  0  0  0  0  0  0  0
    7.2659   -0.9072   -2.0874 H   0  0  0  0  0  0  0  0  0  0  0  0
    6.0186   -0.8620    1.4277 H   0  0  0  0  0  0  0  0  0  0  0  0
    7.2035    0.3669    0.9516 H   0  0  0  0  0  0  0  0  0  0  0  0
    7.3577   -1.3104    0.3931 H   0  0  0  0  0  0  0  0  0  0  0  0
  1  7  1  0  0  0  0
  1 16  1  0  0  0  0
  2 11  1  0  0  0  0
  2 20  1  0  0  0  0
  3 16  2  0  0  0  0
  4 20  2  0  0  0  0
  5  6  1  0  0  0  0
  5  7  1  0  0  0  0
  5 10  1  0  0  0  0
  5 25  1  0  0  0  0
  6  9  1  0  0  0  0
  6 12  1  0  0  0  0
  6 26  1  0  0  0  0
  7  8  1  0  0  0  0
  7 27  1  0  0  0  0
  8 13  1  0  0  0  0
  8 15  1  0  0  0  0
  8 28  1  0  0  0  0
  9 11  1  0  0  0  0
  9 29  1  0  0  0  0
  9 30  1  0  0  0  0
 10 11  1  0  0  0  0
 10 17  2  0  0  0  0
 11 31  1  0  0  0  0
 12 14  1  0  0  0  0
 12 18  2  0  0  0  0
 13 14  1  0  0  0  0
 13 32  1  0  0  0  0
 13 33  1  0  0  0  0
 14 34  1  0  0  0  0
 14 35  1  0  0  0  0
 15 16  1  0  0  0  0
 15 19  2  0  0  0  0
 17 36  1  0  0  0  0
 17 37  1  0  0  0  0
 18 38  1  0  0  0  0
 18 39  1  0  0  0  0
 19 40  1  0  0  0  0
 19 41  1  0  0  0  0
 20 21  1  0  0  0  0
 21 22  2  0  0  0  0
 21 42  1  0  0  0  0
 22 23  1  0  0  0  0
 22 24  1  0  0  0  0
 23 43  1  0  0  0  0
 23 44  1  0  0  0  0
 23 45  1  0  0  0  0
 24 46  1  0  0  0  0
 24 47  1  0  0  0  0
 24 48  1  0  0  0  0
M  END
> <PUBCHEM_COMPOUND_CID>
442319

> <PUBCHEM_CONFORMER_RMSD>
0.8

> <PUBCHEM_CONFORMER_DIVERSEORDER>
1
38
21
36
20
22
25
30
5
18
7
23
26
14
33
27
16
34
28
15
2
19
29
37
6
17
11
35
32
12
31
4
9
10
24
3
8
13

> <PUBCHEM_MMFF94_PARTIAL_CHARGES>
29
1 -0.43
10 -0.28
11 0.42
12 -0.28
14 0.14
15 -0.12
16 0.71
17 -0.3
18 -0.3
19 -0.3
2 -0.43
20 0.71
21 -0.14
22 -0.28
23 0.14
24 0.14
3 -0.57
36 0.15
37 0.15
38 0.15
39 0.15
4 -0.57
40 0.15
41 0.15
42 0.15
5 0.14
6 0.14
7 0.28
8 0.14

> <PUBCHEM_EFFECTIVE_ROTOR_COUNT>
4

> <PUBCHEM_PHARMACOPHORE_FEATURES>
6
1 3 acceptor
1 4 acceptor
3 22 23 24 hydrophobe
5 1 7 8 15 16 rings
5 5 6 9 10 11 rings
7 5 6 7 8 12 13 14 rings

> <PUBCHEM_HEAVY_ATOM_COUNT>
24

> <PUBCHEM_ATOM_DEF_STEREO_COUNT>
5

> <PUBCHEM_ATOM_UDEF_STEREO_COUNT>
0

> <PUBCHEM_BOND_DEF_STEREO_COUNT>
0

> <PUBCHEM_BOND_UDEF_STEREO_COUNT>
0

> <PUBCHEM_ISOTOPIC_ATOM_COUNT>
0

> <PUBCHEM_COMPONENT_COUNT>
1

> <PUBCHEM_CACTVS_TAUTO_COUNT>
1

> <PUBCHEM_CONFORMER_ID>
0006BFCF00000001

> <PUBCHEM_MMFF94_ENERGY>
61.8719

> <PUBCHEM_FEATURE_SELFOVERLAP>
30.501

> <PUBCHEM_SHAPE_FINGERPRINT>
10 15 11959723834301254550
10730089 173 18413106178111222556
10759866 29 18129106795222167730
10906281 52 18270669987441321577
11963148 33 18339370677706733859
12011746 2 18334303080379346229
12166972 35 17632574925231513652
12236239 1 17703791422901962086
12390115 104 18043243750814477857
12403259 415 17968104131273149936
12788726 201 18271529796353620552
12954195 1 18115300202116486360
13009979 54 18189043210731697913
13140716 1 18339082571800359801
13288520 33 18334294262632197673
13533116 47 17489316321623456034
13782708 43 17749112192692867462
13914758 101 16486702479985924956
14117953 113 18261402092731699295
15048467 5 16630809915160443487
15183329 4 18341606054075954558
1601671 61 18409735079649940049
16087824 20 18339644573089157317
167882 2 17843673370799543500
17980427 23 17631718473891981436
21236236 1 18336264638597583169
21267235 1 18339359666016105115
21304303 64 16128649760795161277
22182313 1 18190205449534269360
2297311 6 18334853913887107921
23175994 123 17022906743877963993
23198884 109 17917987283267266726
23402539 116 18341898488959917422
23557571 272 18334289902855374484
23559900 14 18335427811586274664
25147074 1 17987524890927309520
2838139 119 16415479359169814604
335352 9 18411704288528874869
34797466 226 17968369079764591300
4325135 7 18201719586807928125
465052 167 14201402646708554693

> <PUBCHEM_SHAPE_MULTIPOLES>
470.43
14.1
2.28
1.19
16.08
0.66
0.03
-3.08
-4.32
-2.91
-0.44
1.54
0.1
-0.22

> <PUBCHEM_SHAPE_SELFOVERLAP>
995.024

> <PUBCHEM_SHAPE_VOLUME>
263.9

> <PUBCHEM_COORDINATE_TYPE>
2
5
10

$$$$

