115047
  -OEChem-07051213152D

 64 68  0     1  0  0  0  0  0999 V2000
    7.4248    2.4458    0.0000 O   0  0  0  0  0  0  0  0  0  0  0  0
    8.7140    3.6025    0.0000 O   0  0  0  0  0  0  0  0  0  0  0  0
    6.5251   -0.5043    0.0000 C   0  0  1  0  0  0  0  0  0  0  0  0
    6.5251   -1.5043    0.0000 C   0  0  1  0  0  0  0  0  0  0  0  0
    5.6591   -2.0043    0.0000 C   0  0  1  0  0  0  0  0  0  0  0  0
    4.7931   -1.5043    0.0000 C   0  0  1  0  0  0  0  0  0  0  0  0
    3.8831   -2.0112    0.0000 C   0  0  2  0  0  0  0  0  0  0  0  0
    7.4714   -0.1996    0.0000 C   0  0  2  0  0  0  0  0  0  0  0  0
    5.6591   -0.0043    0.0000 C   0  0  0  0  0  0  0  0  0  0  0  0
    4.7931   -0.5043    0.0000 C   0  0  0  0  0  0  0  0  0  0  0  0
    3.8751   -3.0528    0.0000 C   0  0  3  0  0  0  0  0  0  0  0  0
    7.4714   -1.8090    0.0000 C   0  0  0  0  0  0  0  0  0  0  0  0
    5.6752   -3.0458    0.0000 C   0  0  0  0  0  0  0  0  0  0  0  0
    8.0550   -1.0043    0.0000 C   0  0  0  0  0  0  0  0  0  0  0  0
    4.7771   -3.5736    0.0000 C   0  0  0  0  0  0  0  0  0  0  0  0
    2.9562   -1.4471    0.0000 C   0  0  0  0  0  0  0  0  0  0  0  0
    7.7820    0.7509    0.0000 C   0  0  1  0  0  0  0  0  0  0  0  0
    6.5251    0.4957    0.0000 C   0  0  0  0  0  0  0  0  0  0  0  0
    2.9396   -3.6025    0.0000 C   0  0  0  0  0  0  0  0  0  0  0  0
    3.8908   -1.0112    0.0000 C   0  0  0  0  0  0  0  0  0  0  0  0
    2.0084   -1.9750    0.0000 C   0  0  0  0  0  0  0  0  0  0  0  0
    2.0000   -3.0600    0.0000 C   0  0  0  0  0  0  0  0  0  0  0  0
    8.7605    0.9572    0.0000 C   0  0  0  0  0  0  0  0  0  0  0  0
    7.1142    1.4952    0.0000 C   0  0  0  0  0  0  0  0  0  0  0  0
    9.0712    1.9077    0.0000 C   0  0  0  0  0  0  0  0  0  0  0  0
    8.4034    2.6520    0.0000 C   0  0  0  0  0  0  0  0  0  0  0  0
    6.6151   -2.3495    0.0000 H   0  0  0  0  0  0  0  0  0  0  0  0
    6.3985   -2.4236    0.0000 H   0  0  0  0  0  0  0  0  0  0  0  0
    5.5292   -1.0793    0.0000 H   0  0  0  0  0  0  0  0  0  0  0  0
    8.3111   -0.0677    0.0000 H   0  0  0  0  0  0  0  0  0  0  0  0
    6.0576    0.4706    0.0000 H   0  0  0  0  0  0  0  0  0  0  0  0
    5.2606    0.4706    0.0000 H   0  0  0  0  0  0  0  0  0  0  0  0
    4.5810    0.0783    0.0000 H   0  0  0  0  0  0  0  0  0  0  0  0
    4.1825   -0.6120    0.0000 H   0  0  0  0  0  0  0  0  0  0  0  0
    3.8783   -3.9028    0.0000 H   0  0  0  0  0  0  0  0  0  0  0  0
    7.2203   -2.3760    0.0000 H   0  0  0  0  0  0  0  0  0  0  0  0
    8.0087   -2.1183    0.0000 H   0  0  0  0  0  0  0  0  0  0  0  0
    5.8932   -3.6262    0.0000 H   0  0  0  0  0  0  0  0  0  0  0  0
    6.2843   -2.9303    0.0000 H   0  0  0  0  0  0  0  0  0  0  0  0
    8.5158   -1.4190    0.0000 H   0  0  0  0  0  0  0  0  0  0  0  0
    8.5158   -0.5896    0.0000 H   0  0  0  0  0  0  0  0  0  0  0  0
    4.3798   -4.0496    0.0000 H   0  0  0  0  0  0  0  0  0  0  0  0
    5.1781   -4.0465    0.0000 H   0  0  0  0  0  0  0  0  0  0  0  0
    3.3645   -0.9804    0.0000 H   0  0  0  0  0  0  0  0  0  0  0  0
    2.5663   -0.9650    0.0000 H   0  0  0  0  0  0  0  0  0  0  0  0
    8.3497    0.1183    0.0000 H   0  0  0  0  0  0  0  0  0  0  0  0
    7.1451    0.4957    0.0000 H   0  0  0  0  0  0  0  0  0  0  0  0
    6.5251    1.1157    0.0000 H   0  0  0  0  0  0  0  0  0  0  0  0
    5.9051    0.4957    0.0000 H   0  0  0  0  0  0  0  0  0  0  0  0
    2.5423   -4.0785    0.0000 H   0  0  0  0  0  0  0  0  0  0  0  0
    3.3406   -4.0754    0.0000 H   0  0  0  0  0  0  0  0  0  0  0  0
    4.5108   -1.0160    0.0000 H   0  0  0  0  0  0  0  0  0  0  0  0
    3.8956   -0.3912    0.0000 H   0  0  0  0  0  0  0  0  0  0  0  0
    3.2708   -1.0064    0.0000 H   0  0  0  0  0  0  0  0  0  0  0  0
    1.8038   -1.3898    0.0000 H   0  0  0  0  0  0  0  0  0  0  0  0
    1.3967   -2.0764    0.0000 H   0  0  0  0  0  0  0  0  0  0  0  0
    1.3900   -2.9492    0.0000 H   0  0  0  0  0  0  0  0  0  0  0  0
    1.7864   -3.6421    0.0000 H   0  0  0  0  0  0  0  0  0  0  0  0
    8.7811    0.3375    0.0000 H   0  0  0  0  0  0  0  0  0  0  0  0
    9.3743    0.8698    0.0000 H   0  0  0  0  0  0  0  0  0  0  0  0
    6.5672    1.7872    0.0000 H   0  0  0  0  0  0  0  0  0  0  0  0
    6.7316    1.0073    0.0000 H   0  0  0  0  0  0  0  0  0  0  0  0
    9.6181    1.6156    0.0000 H   0  0  0  0  0  0  0  0  0  0  0  0
    9.4537    2.3956    0.0000 H   0  0  0  0  0  0  0  0  0  0  0  0
  1 24  1  0  0  0  0
  1 26  1  0  0  0  0
  2 26  2  0  0  0  0
  3  4  1  0  0  0  0
  3  8  1  0  0  0  0
  3  9  1  0  0  0  0
  3 18  1  1  0  0  0
  4  5  1  0  0  0  0
  4 12  1  0  0  0  0
  4 27  1  1  0  0  0
  5  6  1  0  0  0  0
  5 13  1  0  0  0  0
  5 28  1  1  0  0  0
  6  7  1  0  0  0  0
  6 10  1  0  0  0  0
  6 29  1  6  0  0  0
  7 11  1  0  0  0  0
  7 16  1  0  0  0  0
  7 20  1  1  0  0  0
  8 14  1  0  0  0  0
  8 17  1  0  0  0  0
  8 30  1  6  0  0  0
  9 10  1  0  0  0  0
  9 31  1  0  0  0  0
  9 32  1  0  0  0  0
 10 33  1  0  0  0  0
 10 34  1  0  0  0  0
 11 15  1  0  0  0  0
 11 19  1  0  0  0  0
 11 35  1  0  0  0  0
 12 14  1  0  0  0  0
 12 36  1  0  0  0  0
 12 37  1  0  0  0  0
 13 15  1  0  0  0  0
 13 38  1  0  0  0  0
 13 39  1  0  0  0  0
 14 40  1  0  0  0  0
 14 41  1  0  0  0  0
 15 42  1  0  0  0  0
 15 43  1  0  0  0  0
 16 21  1  0  0  0  0
 16 44  1  0  0  0  0
 16 45  1  0  0  0  0
 17 23  1  0  0  0  0
 17 24  1  0  0  0  0
 17 46  1  1  0  0  0
 18 47  1  0  0  0  0
 18 48  1  0  0  0  0
 18 49  1  0  0  0  0
 19 22  1  0  0  0  0
 19 50  1  0  0  0  0
 19 51  1  0  0  0  0
 20 52  1  0  0  0  0
 20 53  1  0  0  0  0
 20 54  1  0  0  0  0
 21 22  1  0  0  0  0
 21 55  1  0  0  0  0
 21 56  1  0  0  0  0
 22 57  1  0  0  0  0
 22 58  1  0  0  0  0
 23 25  1  0  0  0  0
 23 59  1  0  0  0  0
 23 60  1  0  0  0  0
 24 61  1  0  0  0  0
 24 62  1  0  0  0  0
 25 26  1  0  0  0  0
 25 63  1  0  0  0  0
 25 64  1  0  0  0  0
M  END
> <PUBCHEM_COMPOUND_CID>
115047

> <PUBCHEM_COMPOUND_CANONICALIZED>
1

> <PUBCHEM_CACTVS_COMPLEXITY>
571

> <PUBCHEM_CACTVS_HBOND_ACCEPTOR>
2

> <PUBCHEM_CACTVS_HBOND_DONOR>
0

> <PUBCHEM_CACTVS_ROTATABLE_BOND>
1

> <PUBCHEM_CACTVS_SUBSKEYS>
AAADcfB4MAAAAAAAAAAAAAAAAAAAAYAAAAA0YMEAAAAAAGDAAAAAGgAAAAAADwCggAICCAAABAAIAACQCAAAAAAAAAAAAAEAAAAAABIAAAACAAAEAAAAAAGIzPCPgAAAAAAAAACAAAQAACAAAQAACAAAAA==

> <PUBCHEM_IUPAC_OPENEYE_NAME>
(5R)-5-[(8R,9S,10S,13S,14R,17R)-10,13-dimethyl-2,3,4,5,6,7,8,9,11,12,14,15,16,17-tetradecahydro-1H-cyclopenta[a]phenanthren-17-yl]tetrahydropyran-2-one

> <PUBCHEM_IUPAC_CAS_NAME>
(5R)-5-[(8R,9S,10S,13S,14R,17R)-10,13-dimethyl-2,3,4,5,6,7,8,9,11,12,14,15,16,17-tetradecahydro-1H-cyclopenta[a]phenanthren-17-yl]-2-oxanone

> <PUBCHEM_IUPAC_NAME>
(5R)-5-[(8R,9S,10S,13S,14R,17R)-10,13-dimethyl-2,3,4,5,6,7,8,9,11,12,14,15,16,17-tetradecahydro-1H-cyclopenta[a]phenanthren-17-yl]oxan-2-one

> <PUBCHEM_IUPAC_SYSTEMATIC_NAME>
(5R)-5-[(8R,9S,10S,13S,14R,17R)-10,13-dimethyl-2,3,4,5,6,7,8,9,11,12,14,15,16,17-tetradecahydro-1H-cyclopenta[a]phenanthren-17-yl]oxan-2-one

> <PUBCHEM_IUPAC_TRADITIONAL_NAME>
(5R)-5-[(8R,9S,10S,13S,14R,17R)-10,13-dimethyl-2,3,4,5,6,7,8,9,11,12,14,15,16,17-tetradecahydro-1H-cyclopenta[a]phenanthren-17-yl]tetrahydropyran-2-one

> <PUBCHEM_IUPAC_INCHI>
InChI=1S/C24H38O2/c1-23-13-4-3-5-17(23)7-8-18-20-10-9-19(16-6-11-22(25)26-15-16)24(20,2)14-12-21(18)23/h16-21H,3-15H2,1-2H3/t16-,17?,18-,19+,20+,21-,23-,24+/m0/s1

> <PUBCHEM_IUPAC_INCHIKEY>
PXOHOSHERMSUCD-YQMMVUDVSA-N

> <PUBCHEM_XLOGP3_AA>
7.5

> <PUBCHEM_EXACT_MASS>
358.28718

> <PUBCHEM_MOLECULAR_FORMULA>
C24H38O2

> <PUBCHEM_MOLECULAR_WEIGHT>
358.55732

> <PUBCHEM_OPENEYE_CAN_SMILES>
CC12CCCCC1CCC3C2CCC4(C3CCC4C5CCC(=O)OC5)C

> <PUBCHEM_OPENEYE_ISO_SMILES>
C[C@]12CC[C@H]3[C@H]([C@H]1CC[C@@H]2[C@H]4CCC(=O)OC4)CCC5[C@@]3(CCCC5)C

> <PUBCHEM_CACTVS_TPSA>
26.3

> <PUBCHEM_MONOISOTOPIC_WEIGHT>
358.28718

> <PUBCHEM_TOTAL_CHARGE>
0

> <PUBCHEM_HEAVY_ATOM_COUNT>
26

> <PUBCHEM_ATOM_DEF_STEREO_COUNT>
7

> <PUBCHEM_ATOM_UDEF_STEREO_COUNT>
1

> <PUBCHEM_BOND_DEF_STEREO_COUNT>
0

> <PUBCHEM_BOND_UDEF_STEREO_COUNT>
0

> <PUBCHEM_ISOTOPIC_ATOM_COUNT>
0

> <PUBCHEM_COMPONENT_COUNT>
1

> <PUBCHEM_CACTVS_TAUTO_COUNT>
2

> <PUBCHEM_COORDINATE_TYPE>
1
5
255

> <PUBCHEM_BONDANNOTATIONS>
11  35  3
17  46  5
3  18  5
4  27  5
5  28  5
6  29  6
7  20  5
8  30  6

$$$$

