439972
  -OEChem-07051212482D

 51 54  0     1  0  0  0  0  0999 V2000
    8.8559    1.8818    0.0000 O   0  0  0  0  0  0  0  0  0  0  0  0
   10.0296    0.6081    0.0000 O   0  0  0  0  0  0  0  0  0  0  0  0
    5.9922    2.7758    0.0000 O   0  0  0  0  0  0  0  0  0  0  0  0
    5.4760    1.1225    0.0000 O   0  0  0  0  0  0  0  0  0  0  0  0
    7.0547   -1.8745    0.0000 N   0  0  0  0  0  0  0  0  0  0  0  0
    4.5274   -0.7502    0.0000 N   0  0  0  0  0  0  0  0  0  0  0  0
    6.3518   -1.1058    0.0000 C   0  0  1  0  0  0  0  0  0  0  0  0
    7.3851    0.5265    0.0000 C   0  0  1  0  0  0  0  0  0  0  0  0
    6.6498   -0.1512    0.0000 C   0  0  0  0  0  0  0  0  0  0  0  0
    5.3364   -1.3380    0.0000 C   0  0  0  0  0  0  0  0  0  0  0  0
    8.3397    0.2285    0.0000 C   0  0  2  0  0  0  0  0  0  0  0  0
    5.0274   -2.2891    0.0000 C   0  0  0  0  0  0  0  0  0  0  0  0
    5.7123   -3.0738    0.0000 C   0  0  0  0  0  0  0  0  0  0  0  0
    6.7328   -2.8651    0.0000 C   0  0  0  0  0  0  0  0  0  0  0  0
    7.1659    1.5021    0.0000 C   0  0  0  0  0  0  0  0  0  0  0  0
    9.0751    0.9061    0.0000 C   0  0  1  0  0  0  0  0  0  0  0  0
    4.0274   -2.2891    0.0000 C   0  0  0  0  0  0  0  0  0  0  0  0
    3.7183   -1.3380    0.0000 C   0  0  0  0  0  0  0  0  0  0  0  0
    8.5589   -0.7472    0.0000 C   0  0  0  0  0  0  0  0  0  0  0  0
    7.9013    2.1798    0.0000 C   0  0  0  0  0  0  0  0  0  0  0  0
    3.3424   -3.0738    0.0000 C   0  0  0  0  0  0  0  0  0  0  0  0
    6.2114    1.8001    0.0000 C   0  0  0  0  0  0  0  0  0  0  0  0
    2.7029   -1.1058    0.0000 C   0  0  0  0  0  0  0  0  0  0  0  0
    2.3219   -2.8651    0.0000 C   0  0  0  0  0  0  0  0  0  0  0  0
    2.0000   -1.8745    0.0000 C   0  0  0  0  0  0  0  0  0  0  0  0
    9.5135   -1.0452    0.0000 C   0  0  0  0  0  0  0  0  0  0  0  0
    5.0376    3.0738    0.0000 C   0  0  0  0  0  0  0  0  0  0  0  0
    6.9570   -0.9710    0.0000 H   0  0  0  0  0  0  0  0  0  0  0  0
    6.7933    0.7112    0.0000 H   0  0  0  0  0  0  0  0  0  0  0  0
    6.4109    0.4209    0.0000 H   0  0  0  0  0  0  0  0  0  0  0  0
    7.1736   -0.4829    0.0000 H   0  0  0  0  0  0  0  0  0  0  0  0
    8.9315    0.0437    0.0000 H   0  0  0  0  0  0  0  0  0  0  0  0
    7.6607   -1.7432    0.0000 H   0  0  0  0  0  0  0  0  0  0  0  0
    5.1824   -3.3956    0.0000 H   0  0  0  0  0  0  0  0  0  0  0  0
    5.9387   -3.6510    0.0000 H   0  0  0  0  0  0  0  0  0  0  0  0
    6.7513   -3.4848    0.0000 H   0  0  0  0  0  0  0  0  0  0  0  0
    7.3466   -2.9530    0.0000 H   0  0  0  0  0  0  0  0  0  0  0  0
    9.2110    0.3012    0.0000 H   0  0  0  0  0  0  0  0  0  0  0  0
    4.5274   -0.1302    0.0000 H   0  0  0  0  0  0  0  0  0  0  0  0
    8.1030   -1.1674    0.0000 H   0  0  0  0  0  0  0  0  0  0  0  0
    7.7654    2.7847    0.0000 H   0  0  0  0  0  0  0  0  0  0  0  0
    3.5408   -3.6612    0.0000 H   0  0  0  0  0  0  0  0  0  0  0  0
    2.5182   -0.5139    0.0000 H   0  0  0  0  0  0  0  0  0  0  0  0
   10.4856    1.0283    0.0000 H   0  0  0  0  0  0  0  0  0  0  0  0
    1.9088   -3.3275    0.0000 H   0  0  0  0  0  0  0  0  0  0  0  0
    1.3940   -1.7432    0.0000 H   0  0  0  0  0  0  0  0  0  0  0  0
    9.6494   -1.6501    0.0000 H   0  0  0  0  0  0  0  0  0  0  0  0
    9.9694   -0.6250    0.0000 H   0  0  0  0  0  0  0  0  0  0  0  0
    5.2223    3.6656    0.0000 H   0  0  0  0  0  0  0  0  0  0  0  0
    4.4458    3.2586    0.0000 H   0  0  0  0  0  0  0  0  0  0  0  0
    4.8528    2.4820    0.0000 H   0  0  0  0  0  0  0  0  0  0  0  0
  1 16  1  0  0  0  0
  1 20  1  0  0  0  0
 16  2  1  1  0  0  0
  2 44  1  0  0  0  0
  3 22  1  0  0  0  0
  3 27  1  0  0  0  0
  4 22  2  0  0  0  0
  5  7  1  0  0  0  0
  5 14  1  0  0  0  0
  5 33  1  0  0  0  0
  6 10  1  0  0  0  0
  6 18  1  0  0  0  0
  6 39  1  0  0  0  0
  7  9  1  6  0  0  0
  7 10  1  0  0  0  0
  7 28  1  0  0  0  0
  8  9  1  6  0  0  0
  8 11  1  0  0  0  0
  8 15  1  0  0  0  0
  8 29  1  0  0  0  0
  9 30  1  0  0  0  0
  9 31  1  0  0  0  0
 10 12  2  0  0  0  0
 11 16  1  0  0  0  0
 11 19  1  6  0  0  0
 11 32  1  0  0  0  0
 12 13  1  0  0  0  0
 12 17  1  0  0  0  0
 13 14  1  0  0  0  0
 13 34  1  0  0  0  0
 13 35  1  0  0  0  0
 14 36  1  0  0  0  0
 14 37  1  0  0  0  0
 15 20  2  0  0  0  0
 15 22  1  0  0  0  0
 16 38  1  0  0  0  0
 17 18  1  0  0  0  0
 17 21  2  0  0  0  0
 18 23  2  0  0  0  0
 19 26  2  0  0  0  0
 19 40  1  0  0  0  0
 20 41  1  0  0  0  0
 21 24  1  0  0  0  0
 21 42  1  0  0  0  0
 23 25  1  0  0  0  0
 23 43  1  0  0  0  0
 24 25  2  0  0  0  0
 24 45  1  0  0  0  0
 25 46  1  0  0  0  0
 26 47  1  0  0  0  0
 26 48  1  0  0  0  0
 27 49  1  0  0  0  0
 27 50  1  0  0  0  0
 27 51  1  0  0  0  0
M  END
> <PUBCHEM_COMPOUND_CID>
439972

> <PUBCHEM_COMPOUND_CANONICALIZED>
1

> <PUBCHEM_CACTVS_COMPLEXITY>
607

> <PUBCHEM_CACTVS_HBOND_ACCEPTOR>
5

> <PUBCHEM_CACTVS_HBOND_DONOR>
3

> <PUBCHEM_CACTVS_ROTATABLE_BOND>
5

> <PUBCHEM_CACTVS_SUBSKEYS>
AAADceB7OAAAAAAAAAAAAAAAAAAAAWAAAAA8QIAAAAAAAFgB8AAAHgAQCAAADSjxngcyyPLJlgCoAyTyTACCiCAhIiAImaE4ZNgYdPLAsZGUYAhk0ADI6IeY/euegAAAAAACAAAAAAAAAAQAAAAAAAAAAA==

> <PUBCHEM_IUPAC_OPENEYE_NAME>
methyl (2R,3R,4S)-2-hydroxy-4-[[(1S)-2,3,4,9-tetrahydro-1H-pyrido[3,4-b]indol-1-yl]methyl]-3-vinyl-3,4-dihydro-2H-pyran-5-carboxylate

> <PUBCHEM_IUPAC_CAS_NAME>
(2R,3R,4S)-3-ethenyl-2-hydroxy-4-[[(1S)-2,3,4,9-tetrahydro-1H-pyrido[3,4-b]indol-1-yl]methyl]-3,4-dihydro-2H-pyran-5-carboxylic acid methyl ester

> <PUBCHEM_IUPAC_NAME>
methyl (2R,3R,4S)-3-ethenyl-2-hydroxy-4-[[(1S)-2,3,4,9-tetrahydro-1H-pyrido[3,4-b]indol-1-yl]methyl]-3,4-dihydro-2H-pyran-5-carboxylate

> <PUBCHEM_IUPAC_SYSTEMATIC_NAME>
methyl (2R,3R,4S)-3-ethenyl-2-oxidanyl-4-[[(1S)-2,3,4,9-tetrahydro-1H-pyrido[3,4-b]indol-1-yl]methyl]-3,4-dihydro-2H-pyran-5-carboxylate

> <PUBCHEM_IUPAC_TRADITIONAL_NAME>
(2R,3R,4S)-2-hydroxy-4-[[(1S)-2,3,4,9-tetrahydro-1H-$b-carbolin-1-yl]methyl]-3-vinyl-3,4-dihydro-2H-pyran-5-carboxylic acid methyl ester

> <PUBCHEM_IUPAC_INCHI>
InChI=1S/C21H24N2O4/c1-3-12-15(16(20(24)26-2)11-27-21(12)25)10-18-19-14(8-9-22-18)13-6-4-5-7-17(13)23-19/h3-7,11-12,15,18,21-23,25H,1,8-10H2,2H3/t12-,15+,18+,21-/m1/s1

> <PUBCHEM_IUPAC_INCHIKEY>
HXLWDALZXJIPSY-LPIRWUFSSA-N

> <PUBCHEM_XLOGP3_AA>
2.2

> <PUBCHEM_EXACT_MASS>
368.173607

> <PUBCHEM_MOLECULAR_FORMULA>
C21H24N2O4

> <PUBCHEM_MOLECULAR_WEIGHT>
368.42626

> <PUBCHEM_OPENEYE_CAN_SMILES>
COC(=O)C1=COC(C(C1CC2C3=C(CCN2)C4=CC=CC=C4N3)C=C)O

> <PUBCHEM_OPENEYE_ISO_SMILES>
COC(=O)C1=CO[C@H]([C@@H]([C@@H]1C[C@H]2C3=C(CCN2)C4=CC=CC=C4N3)C=C)O

> <PUBCHEM_CACTVS_TPSA>
83.6

> <PUBCHEM_MONOISOTOPIC_WEIGHT>
368.173607

> <PUBCHEM_TOTAL_CHARGE>
0

> <PUBCHEM_HEAVY_ATOM_COUNT>
27

> <PUBCHEM_ATOM_DEF_STEREO_COUNT>
4

> <PUBCHEM_ATOM_UDEF_STEREO_COUNT>
0

> <PUBCHEM_BOND_DEF_STEREO_COUNT>
0

> <PUBCHEM_BOND_UDEF_STEREO_COUNT>
0

> <PUBCHEM_ISOTOPIC_ATOM_COUNT>
0

> <PUBCHEM_COMPONENT_COUNT>
1

> <PUBCHEM_CACTVS_TAUTO_COUNT>
1

> <PUBCHEM_COORDINATE_TYPE>
1
5
255

> <PUBCHEM_BONDANNOTATIONS>
10  12  8
11  19  6
12  17  8
17  18  8
17  21  8
18  23  8
16  2  5
21  24  8
23  25  8
24  25  8
6  10  8
6  18  8
7  9  6
8  9  6

$$$$

