10174
  -OEChem-06261204213D

 28 31  0     0  0  0  0  0  0999 V2000
   -0.6989    1.4700   -0.0002 O   0  0  0  0  0  0  0  0  0  0  0  0
    1.6371   -1.9462    0.0009 O   0  0  0  0  0  0  0  0  0  0  0  0
   -0.3211   -3.2235   -0.0028 O   0  0  0  0  0  0  0  0  0  0  0  0
   -5.5321    1.3987   -0.0003 O   0  0  0  0  0  0  0  0  0  0  0  0
    5.6323    0.6100    0.0003 O   0  0  0  0  0  0  0  0  0  0  0  0
   -0.4610   -0.8243    0.0006 C   0  0  0  0  0  0  0  0  0  0  0  0
    0.2333    0.4410    0.0002 C   0  0  0  0  0  0  0  0  0  0  0  0
   -1.8808   -0.5332    0.0005 C   0  0  0  0  0  0  0  0  0  0  0  0
    1.5718    0.5267    0.0000 C   0  0  0  0  0  0  0  0  0  0  0  0
   -1.9497    0.8695    0.0001 C   0  0  0  0  0  0  0  0  0  0  0  0
    2.3290   -0.7293    0.0004 C   0  0  0  0  0  0  0  0  0  0  0  0
    0.2400   -1.9656    0.0009 C   0  0  0  0  0  0  0  0  0  0  0  0
   -3.0297   -1.2980    0.0007 C   0  0  0  0  0  0  0  0  0  0  0  0
   -3.1514    1.5469   -0.0003 C   0  0  0  0  0  0  0  0  0  0  0  0
    2.2714    1.7970   -0.0004 C   0  0  0  0  0  0  0  0  0  0  0  0
    3.6692   -0.7126    0.0003 C   0  0  0  0  0  0  0  0  0  0  0  0
   -4.2577   -0.6275    0.0003 C   0  0  0  0  0  0  0  0  0  0  0  0
   -4.3178    0.7796   -0.0002 C   0  0  0  0  0  0  0  0  0  0  0  0
    3.6100    1.8394   -0.0007 C   0  0  0  0  0  0  0  0  0  0  0  0
    4.4060    0.5814   -0.0003 C   0  0  0  0  0  0  0  0  0  0  0  0
   -2.9966   -2.3815    0.0010 H   0  0  0  0  0  0  0  0  0  0  0  0
   -3.1887    2.6303   -0.0007 H   0  0  0  0  0  0  0  0  0  0  0  0
    1.7016    2.7206   -0.0005 H   0  0  0  0  0  0  0  0  0  0  0  0
    4.2536   -1.6257    0.0005 H   0  0  0  0  0  0  0  0  0  0  0  0
   -5.1745   -1.2128    0.0005 H   0  0  0  0  0  0  0  0  0  0  0  0
    4.1471    2.7808   -0.0011 H   0  0  0  0  0  0  0  0  0  0  0  0
    0.4271   -3.8456   -0.0036 H   0  0  0  0  0  0  0  0  0  0  0  0
   -6.2308    0.7222   -0.0001 H   0  0  0  0  0  0  0  0  0  0  0  0
  1  7  1  0  0  0  0
  1 10  1  0  0  0  0
  2 11  1  0  0  0  0
  2 12  1  0  0  0  0
  3 12  1  0  0  0  0
  3 27  1  0  0  0  0
  4 18  1  0  0  0  0
  4 28  1  0  0  0  0
  5 20  2  0  0  0  0
  6  7  1  0  0  0  0
  6  8  1  0  0  0  0
  6 12  2  0  0  0  0
  7  9  2  0  0  0  0
  8 10  2  0  0  0  0
  8 13  1  0  0  0  0
  9 11  1  0  0  0  0
  9 15  1  0  0  0  0
 10 14  1  0  0  0  0
 11 16  2  0  0  0  0
 13 17  2  0  0  0  0
 13 21  1  0  0  0  0
 14 18  2  0  0  0  0
 14 22  1  0  0  0  0
 15 19  2  0  0  0  0
 15 23  1  0  0  0  0
 16 20  1  0  0  0  0
 16 24  1  0  0  0  0
 17 18  1  0  0  0  0
 17 25  1  0  0  0  0
 19 20  1  0  0  0  0
 19 26  1  0  0  0  0
M  END
> <PUBCHEM_COMPOUND_CID>
10174

> <PUBCHEM_CONFORMER_RMSD>
0.6

> <PUBCHEM_CONFORMER_DIVERSEORDER>
1

> <PUBCHEM_MMFF94_PARTIAL_CHARGES>
27
1 -0.16
10 0.08
11 0.08
12 0.15
13 -0.15
14 -0.15
15 -0.15
16 -0.14
17 -0.15
18 0.08
19 -0.14
2 -0.15
20 0.54
21 0.15
22 0.15
23 0.15
24 0.15
25 0.15
26 0.15
27 0.45
28 0.45
3 -0.53
4 -0.53
5 -0.57
6 -0.03
7 0.08
8 0.03

> <PUBCHEM_EFFECTIVE_ROTOR_COUNT>
0

> <PUBCHEM_PHARMACOPHORE_FEATURES>
9
1 1 acceptor
1 2 acceptor
1 3 donor
1 4 donor
1 5 acceptor
5 1 6 7 8 10 rings
6 2 6 7 9 11 12 rings
6 8 10 13 14 17 18 rings
6 9 11 15 16 19 20 rings

> <PUBCHEM_HEAVY_ATOM_COUNT>
20

> <PUBCHEM_ATOM_DEF_STEREO_COUNT>
0

> <PUBCHEM_ATOM_UDEF_STEREO_COUNT>
0

> <PUBCHEM_BOND_DEF_STEREO_COUNT>
0

> <PUBCHEM_BOND_UDEF_STEREO_COUNT>
0

> <PUBCHEM_ISOTOPIC_ATOM_COUNT>
0

> <PUBCHEM_COMPONENT_COUNT>
1

> <PUBCHEM_CACTVS_TAUTO_COUNT>
3

> <PUBCHEM_CONFORMER_ID>
000027BE00000001

> <PUBCHEM_MMFF94_ENERGY>
67.3319

> <PUBCHEM_FEATURE_SELFOVERLAP>
45.898

> <PUBCHEM_SHAPE_FINGERPRINT>
10411042 1 17329710337151602439
10608611 8 18340771545724233469
10616163 171 18410010992586486735
10967382 1 18410856598310325990
11471102 20 18410013272881311364
11578080 2 13756344529167774861
12236239 1 17821730567788691077
12403259 415 18188772738860007600
12592029 89 18341894125399804178
12644460 14 18200875191989930002
13140716 1 18411983576507284787
13380535 76 18409165485403503102
13583140 156 16845306994329858009
138480 1 17762055840695519110
14790565 3 18411130320940373244
15042514 8 18124029027440382883
15099037 51 18410291398326869628
15196674 1 18410855460149449190
15536298 74 18334574667929930174
16945 1 18122625217289228291
18186145 218 18411140250898921916
19591789 44 18338235947045333003
19784866 170 18342736338775089097
19784866 9 18410294743642182793
200 152 18040719160357672489
20510252 161 18261107474025713249
20645477 70 18261110832837812319
21267235 1 18410847733503316174
21421861 104 17843971582962320906
21524375 3 18413388722218493050
21709351 56 18412551985195561901
23227448 37 18263363603292955470
23402539 116 18333737883641187940
23402655 69 18333452049161856445
23559900 14 18333730243538115302
2748010 2 18412255130056845887
3004659 81 18343014528803432118
335352 9 18410574007291108190
34934 24 18410579526318743463
350125 39 18411699902354785644
3545911 37 18411417319381825773
4214541 1 18410855447538957825
474 4 18342735217371997449
474229 33 18411136892630401411
495365 180 17313395478817408992
4990 188 17967806141994166204
5104073 3 18412263934555044299
6138700 20 18338794654341550038
633830 44 18333450962693269525
69090 78 18410014295284104726
7364860 26 18264205996598294927
8272917 22 18263077880772845951
9709674 26 18409442570575731054

> <PUBCHEM_SHAPE_MULTIPOLES>
382.24
9.71
2.34
0.59
0.12
1.13
0
-4.14
0
0.08
0
0
-0.01
0

> <PUBCHEM_SHAPE_SELFOVERLAP>
876.759

> <PUBCHEM_SHAPE_VOLUME>
196.4

> <PUBCHEM_COORDINATE_TYPE>
2
5
10

$$$$

