3500
  -OEChem-06251223273D

 61 66  0     1  0  0  0  0  0999 V2000
   -1.3761    1.5362   -2.0492 O   0  0  0  0  0  0  0  0  0  0  0  0
    0.3416   -4.5551   -0.5465 O   0  0  0  0  0  0  0  0  0  0  0  0
    4.5311   -2.6234   -0.6648 O   0  0  0  0  0  0  0  0  0  0  0  0
   -4.5455   -3.5837    0.2365 O   0  0  0  0  0  0  0  0  0  0  0  0
   -1.0114    0.6409    0.6600 N   0  0  0  0  0  0  0  0  0  0  0  0
    1.5157    1.8059    0.5889 N   0  0  0  0  0  0  0  0  0  0  0  0
    2.5933   -3.9354   -0.6943 N   0  0  0  0  0  0  0  0  0  0  0  0
   -3.3010    4.2054   -0.3558 N   0  0  0  0  0  0  0  0  0  0  0  0
    0.0844   -0.1000    0.3796 C   0  0  0  0  0  0  0  0  0  0  0  0
    1.3553    0.4859    0.3437 C   0  0  0  0  0  0  0  0  0  0  0  0
    0.0195   -1.5071    0.1050 C   0  0  0  0  0  0  0  0  0  0  0  0
    2.4539   -0.3847    0.0362 C   0  0  0  0  0  0  0  0  0  0  0  0
    1.1025   -2.3301   -0.1907 C   0  0  0  0  0  0  0  0  0  0  0  0
   -1.4390   -1.6027    0.2610 C   0  0  0  0  0  0  0  0  0  0  0  0
    2.3634   -1.7488   -0.2265 C   0  0  0  0  0  0  0  0  0  0  0  0
   -2.0050   -0.3238    0.5853 C   0  0  0  0  0  0  0  0  0  0  0  0
   -1.3317    2.0111    0.3043 C   0  0  0  0  0  0  0  0  0  0  0  0
    3.4794    0.6648    0.1226 C   0  0  0  0  0  0  0  0  0  0  0  0
    2.8895    1.9327    0.4479 C   0  0  0  0  0  0  0  0  0  0  0  0
   -2.1513    2.1007   -0.9890 C   0  0  1  0  0  0  0  0  0  0  0  0
    1.2442   -3.7438   -0.4926 C   0  0  0  0  0  0  0  0  0  0  0  0
    3.3318   -2.7814   -0.5520 C   0  0  0  0  0  0  0  0  0  0  0  0
   -2.3328   -2.6950    0.1492 C   0  0  0  0  0  0  0  0  0  0  0  0
   -3.3838   -0.1554    0.7839 C   0  0  0  0  0  0  0  0  0  0  0  0
    0.8196    2.6769    1.5182 C   0  0  0  0  0  0  0  0  0  0  0  0
    4.8839    0.6320   -0.0535 C   0  0  0  0  0  0  0  0  0  0  0  0
   -2.4899    3.5459   -1.3704 C   0  0  0  0  0  0  0  0  0  0  0  0
    3.6649    3.0939    0.5867 C   0  0  0  0  0  0  0  0  0  0  0  0
   -3.7058   -2.5161    0.3496 C   0  0  0  0  0  0  0  0  0  0  0  0
   -4.2212   -1.2649    0.6618 C   0  0  0  0  0  0  0  0  0  0  0  0
    5.6474    1.7958    0.0870 C   0  0  0  0  0  0  0  0  0  0  0  0
    5.0453    3.0069    0.4023 C   0  0  0  0  0  0  0  0  0  0  0  0
   -4.5475    3.4699   -0.1323 C   0  0  0  0  0  0  0  0  0  0  0  0
   -3.5909    5.5874   -0.7436 C   0  0  0  0  0  0  0  0  0  0  0  0
   -5.9340   -3.3409    0.4515 C   0  0  0  0  0  0  0  0  0  0  0  0
   -1.8176    2.4967    1.1540 H   0  0  0  0  0  0  0  0  0  0  0  0
   -0.4774    2.5343   -0.0798 H   0  0  0  0  0  0  0  0  0  0  0  0
   -3.0708    1.5187   -0.9818 H   0  0  0  0  0  0  0  0  0  0  0  0
   -1.9607   -3.6855   -0.0940 H   0  0  0  0  0  0  0  0  0  0  0  0
   -3.7968    0.7867    1.1133 H   0  0  0  0  0  0  0  0  0  0  0  0
    0.1013    2.1593    2.1530 H   0  0  0  0  0  0  0  0  0  0  0  0
    1.5623    2.9968    2.2648 H   0  0  0  0  0  0  0  0  0  0  0  0
    0.5041    3.6140    1.0513 H   0  0  0  0  0  0  0  0  0  0  0  0
    3.0013   -4.8347   -0.9245 H   0  0  0  0  0  0  0  0  0  0  0  0
   -1.5542    4.1020   -1.5191 H   0  0  0  0  0  0  0  0  0  0  0  0
   -2.9895    3.5502   -2.3494 H   0  0  0  0  0  0  0  0  0  0  0  0
    5.3900   -0.2958   -0.3005 H   0  0  0  0  0  0  0  0  0  0  0  0
    3.2120    4.0524    0.8225 H   0  0  0  0  0  0  0  0  0  0  0  0
   -5.2740   -1.0763    0.8461 H   0  0  0  0  0  0  0  0  0  0  0  0
    6.7241    1.7495   -0.0532 H   0  0  0  0  0  0  0  0  0  0  0  0
    5.6559    3.9003    0.5046 H   0  0  0  0  0  0  0  0  0  0  0  0
   -0.5829    2.0841   -2.1765 H   0  0  0  0  0  0  0  0  0  0  0  0
   -4.3842    2.5570    0.4302 H   0  0  0  0  0  0  0  0  0  0  0  0
   -5.0715    3.2372   -1.0665 H   0  0  0  0  0  0  0  0  0  0  0  0
   -5.2313    4.0604    0.4901 H   0  0  0  0  0  0  0  0  0  0  0  0
   -4.1745    5.6432   -1.6698 H   0  0  0  0  0  0  0  0  0  0  0  0
   -2.6614    6.1498   -0.8864 H   0  0  0  0  0  0  0  0  0  0  0  0
   -4.1477    6.1015    0.0478 H   0  0  0  0  0  0  0  0  0  0  0  0
   -6.3433   -2.6497   -0.2932 H   0  0  0  0  0  0  0  0  0  0  0  0
   -6.1320   -3.0130    1.4777 H   0  0  0  0  0  0  0  0  0  0  0  0
   -6.4529   -4.2959    0.3175 H   0  0  0  0  0  0  0  0  0  0  0  0
  1 20  1  0  0  0  0
  1 52  1  0  0  0  0
  2 21  2  0  0  0  0
  3 22  2  0  0  0  0
  4 29  1  0  0  0  0
  4 35  1  0  0  0  0
  5  9  1  0  0  0  0
  5 16  1  0  0  0  0
  5 17  1  0  0  0  0
  6 10  1  0  0  0  0
  6 19  1  0  0  0  0
  6 25  1  0  0  0  0
  7 21  1  0  0  0  0
  7 22  1  0  0  0  0
  7 44  1  0  0  0  0
  8 27  1  0  0  0  0
  8 33  1  0  0  0  0
  8 34  1  0  0  0  0
  9 10  2  0  0  0  0
  9 11  1  0  0  0  0
 10 12  1  0  0  0  0
 11 13  2  0  0  0  0
 11 14  1  0  0  0  0
 12 15  2  0  0  0  0
 12 18  1  0  0  0  0
 13 15  1  0  0  0  0
 13 21  1  0  0  0  0
 14 16  2  0  0  0  0
 14 23  1  0  0  0  0
 15 22  1  0  0  0  0
 16 24  1  0  0  0  0
 17 20  1  0  0  0  0
 17 36  1  0  0  0  0
 17 37  1  0  0  0  0
 18 19  1  0  0  0  0
 18 26  2  0  0  0  0
 19 28  2  0  0  0  0
 20 27  1  0  0  0  0
 20 38  1  0  0  0  0
 23 29  2  0  0  0  0
 23 39  1  0  0  0  0
 24 30  2  0  0  0  0
 24 40  1  0  0  0  0
 25 41  1  0  0  0  0
 25 42  1  0  0  0  0
 25 43  1  0  0  0  0
 26 31  1  0  0  0  0
 26 47  1  0  0  0  0
 27 45  1  0  0  0  0
 27 46  1  0  0  0  0
 28 32  1  0  0  0  0
 28 48  1  0  0  0  0
 29 30  1  0  0  0  0
 30 49  1  0  0  0  0
 31 32  2  0  0  0  0
 31 50  1  0  0  0  0
 32 51  1  0  0  0  0
 33 53  1  0  0  0  0
 33 54  1  0  0  0  0
 33 55  1  0  0  0  0
 34 56  1  0  0  0  0
 34 57  1  0  0  0  0
 34 58  1  0  0  0  0
 35 59  1  0  0  0  0
 35 60  1  0  0  0  0
 35 61  1  0  0  0  0
M  END
> <PUBCHEM_COMPOUND_CID>
3500

> <PUBCHEM_CONFORMER_RMSD>
0.8

> <PUBCHEM_CONFORMER_DIVERSEORDER>
2
3
1
4

> <PUBCHEM_MMFF94_PARTIAL_CHARGES>
42
1 -0.68
10 -0.05
11 -0.01
12 -0.01
13 0.09
15 0.09
16 -0.15
17 0.26
19 -0.15
2 -0.57
20 0.28
21 0.54
22 0.54
23 -0.15
24 -0.15
25 0.26
26 -0.15
27 0.27
28 -0.15
29 0.08
3 -0.57
30 -0.15
31 -0.15
32 -0.15
33 0.27
34 0.27
35 0.28
39 0.15
4 -0.36
40 0.15
44 0.37
47 0.15
48 0.15
49 0.15
5 -0.04
50 0.15
51 0.15
52 0.4
6 -0.04
7 -0.49
8 -0.81
9 -0.05

> <PUBCHEM_EFFECTIVE_ROTOR_COUNT>
5.2

> <PUBCHEM_PHARMACOPHORE_FEATURES>
15
1 1 acceptor
1 1 donor
1 2 acceptor
1 3 acceptor
1 4 acceptor
1 5 cation
1 6 cation
1 7 donor
1 8 cation
5 5 9 11 14 16 rings
5 6 10 12 18 19 rings
5 7 13 15 21 22 rings
6 14 16 23 24 29 30 rings
6 18 19 26 28 31 32 rings
6 9 10 11 12 13 15 rings

> <PUBCHEM_HEAVY_ATOM_COUNT>
35

> <PUBCHEM_ATOM_DEF_STEREO_COUNT>
0

> <PUBCHEM_ATOM_UDEF_STEREO_COUNT>
1

> <PUBCHEM_BOND_DEF_STEREO_COUNT>
0

> <PUBCHEM_BOND_UDEF_STEREO_COUNT>
0

> <PUBCHEM_ISOTOPIC_ATOM_COUNT>
0

> <PUBCHEM_COMPONENT_COUNT>
1

> <PUBCHEM_CACTVS_TAUTO_COUNT>
3

> <PUBCHEM_CONFORMER_ID>
00000DAC00000002

> <PUBCHEM_MMFF94_ENERGY>
187.295

> <PUBCHEM_FEATURE_SELFOVERLAP>
76.583

> <PUBCHEM_SHAPE_FINGERPRINT>
10050765 1 18340206388299975346
10165383 225 18045494219240392680
102385 1 18339928228700523923
10290309 65 18262524681091869736
10675989 125 16538770123322415156
1100329 8 17978511158863858434
11578080 2 18198891690626197628
11621639 148 17547855152929243232
12058002 1 17417231152940737475
12788726 201 18129675084020216513
13140716 1 18263362650274699194
13383665 225 18200292369255024469
13402501 40 18193555567037839786
13617811 41 18125709094023416140
140371 6 18055624028641747619
14068700 686 18409164372589956165
14117953 113 18122905330661190407
14415360 78 17838629103530201981
14790565 3 18119519938902486320
14955137 171 17766274276496130083
15420108 30 16322605463556868537
15484559 13 17328315044099756495
15775530 1 18340493373287093187
18681886 176 17762062038870949779
19591789 44 18263358114825832874
19611394 137 17411331019350029419
20739085 24 17979899528780650491
20775438 99 17976859611174180581
21796203 349 17120539863173016395
21857420 4 14601430660998822308
22113638 7 17690280404728520799
22311459 1 18192711142824840106
23558518 356 18201997763434170289
23559900 14 18120097436294994530
25019877 29 17535173467713934750
266924 87 18410301289409777071
3178227 256 17904186049806550715
3380486 145 18341035334547638177
350125 39 18409726223706898538
7399639 24 18264779761374287224

> <PUBCHEM_SHAPE_MULTIPOLES>
676.88
10.51
7.22
1.02
0.87
2.65
-0.17
1.22
0.8
-5.66
-1.93
-0.29
0.56
2.95

> <PUBCHEM_SHAPE_SELFOVERLAP>
1536.022

> <PUBCHEM_SHAPE_VOLUME>
358.2

> <PUBCHEM_COORDINATE_TYPE>
2
5
10

$$$$

