242865
  -OEChem-07051213063D

 72 75  0     1  0  0  0  0  0999 V2000
   -2.1609    2.2170   -0.8921 O   0  0  0  0  0  0  0  0  0  0  0  0
   -2.1985    0.0657   -2.5087 O   0  0  0  0  0  0  0  0  0  0  0  0
    8.3421   -0.6481    0.5570 O   0  0  0  0  0  0  0  0  0  0  0  0
    0.0882    1.2153   -0.5726 C   0  0  1  0  0  0  0  0  0  0  0  0
    0.4715   -0.2572   -0.3244 C   0  0  2  0  0  0  0  0  0  0  0  0
    1.9743   -0.4920   -0.4777 C   0  0  1  0  0  0  0  0  0  0  0  0
   -1.4418    1.0987   -0.4091 C   0  0  2  0  0  0  0  0  0  0  0  0
   -1.8118   -0.2090   -1.1628 C   0  0  2  0  0  0  0  0  0  0  0  0
   -0.5045   -1.0455   -1.2002 C   0  0  0  0  0  0  0  0  0  0  0  0
    2.7225    0.3609    0.5916 C   0  0  2  0  0  0  0  0  0  0  0  0
    0.7801    2.0717    0.4977 C   0  0  0  0  0  0  0  0  0  0  0  0
    2.3058    1.8543    0.5141 C   0  0  0  0  0  0  0  0  0  0  0  0
    2.3619   -1.9615   -0.3014 C   0  0  0  0  0  0  0  0  0  0  0  0
    0.4604    1.7610   -1.9732 C   0  0  0  0  0  0  0  0  0  0  0  0
   -2.9622   -0.9500   -0.4894 C   0  0  0  0  0  0  0  0  0  0  0  0
    4.2271    0.1068    0.5490 C   0  0  0  0  0  0  0  0  0  0  0  0
    3.8455   -2.1457   -0.6057 C   0  0  0  0  0  0  0  0  0  0  0  0
    4.7357   -1.0996    0.0196 C   0  0  0  0  0  0  0  0  0  0  0  0
   -4.2420   -0.1179   -0.5014 C   0  0  0  0  0  0  0  0  0  0  0  0
    5.1355    1.0206    1.1122 C   0  0  0  0  0  0  0  0  0  0  0  0
    6.1221   -1.3346    0.0185 C   0  0  0  0  0  0  0  0  0  0  0  0
   -5.4007   -0.8784    0.1457 C   0  0  0  0  0  0  0  0  0  0  0  0
    6.5096    0.7706    1.1124 C   0  0  0  0  0  0  0  0  0  0  0  0
    7.0038   -0.4047    0.5615 C   0  0  0  0  0  0  0  0  0  0  0  0
   -6.6937   -0.0621    0.1058 C   0  0  0  0  0  0  0  0  0  0  0  0
   -7.8449   -0.8093    0.7833 C   0  0  0  0  0  0  0  0  0  0  0  0
   -9.1289    0.0231    0.7710 C   0  0  0  0  0  0  0  0  0  0  0  0
    9.1859    0.3470    1.1354 C   0  0  0  0  0  0  0  0  0  0  0  0
  -10.3056   -0.6661    1.4651 C   0  0  0  0  0  0  0  0  0  0  0  0
  -11.5765    0.1690    1.4790 C   0  0  0  0  0  0  0  0  0  0  0  0
    0.2147   -0.5157    0.7168 H   0  0  0  0  0  0  0  0  0  0  0  0
    2.2925   -0.1853   -1.4825 H   0  0  0  0  0  0  0  0  0  0  0  0
   -1.6761    0.9959    0.6585 H   0  0  0  0  0  0  0  0  0  0  0  0
   -0.1192   -1.1484   -2.2215 H   0  0  0  0  0  0  0  0  0  0  0  0
   -0.6491   -2.0553   -0.8008 H   0  0  0  0  0  0  0  0  0  0  0  0
    2.4032    0.0038    1.5831 H   0  0  0  0  0  0  0  0  0  0  0  0
    0.5610    3.1352    0.3438 H   0  0  0  0  0  0  0  0  0  0  0  0
    0.3872    1.8181    1.4911 H   0  0  0  0  0  0  0  0  0  0  0  0
    2.7598    2.3205   -0.3686 H   0  0  0  0  0  0  0  0  0  0  0  0
    2.6969    2.4010    1.3801 H   0  0  0  0  0  0  0  0  0  0  0  0
    1.7820   -2.6088   -0.9686 H   0  0  0  0  0  0  0  0  0  0  0  0
    2.1475   -2.2867    0.7249 H   0  0  0  0  0  0  0  0  0  0  0  0
    1.5404    1.7797   -2.1432 H   0  0  0  0  0  0  0  0  0  0  0  0
    0.0321    1.1722   -2.7880 H   0  0  0  0  0  0  0  0  0  0  0  0
    0.1075    2.7918   -2.0932 H   0  0  0  0  0  0  0  0  0  0  0  0
   -2.6960   -1.2136    0.5417 H   0  0  0  0  0  0  0  0  0  0  0  0
   -3.1540   -1.8903   -1.0226 H   0  0  0  0  0  0  0  0  0  0  0  0
    3.9944   -2.1071   -1.6925 H   0  0  0  0  0  0  0  0  0  0  0  0
    4.1506   -3.1434   -0.2675 H   0  0  0  0  0  0  0  0  0  0  0  0
   -2.1586    2.1827   -1.8634 H   0  0  0  0  0  0  0  0  0  0  0  0
   -2.3626   -0.7836   -2.9532 H   0  0  0  0  0  0  0  0  0  0  0  0
   -4.0987    0.8177    0.0492 H   0  0  0  0  0  0  0  0  0  0  0  0
   -4.5186    0.1463   -1.5288 H   0  0  0  0  0  0  0  0  0  0  0  0
    4.7922    1.9436    1.5698 H   0  0  0  0  0  0  0  0  0  0  0  0
    6.5142   -2.2549   -0.4099 H   0  0  0  0  0  0  0  0  0  0  0  0
   -5.5545   -1.8309   -0.3758 H   0  0  0  0  0  0  0  0  0  0  0  0
   -5.1468   -1.1165    1.1860 H   0  0  0  0  0  0  0  0  0  0  0  0
    7.1333    1.5352    1.5631 H   0  0  0  0  0  0  0  0  0  0  0  0
   -6.9594    0.1574   -0.9354 H   0  0  0  0  0  0  0  0  0  0  0  0
   -6.5351    0.8996    0.6089 H   0  0  0  0  0  0  0  0  0  0  0  0
   -7.5724   -1.0440    1.8194 H   0  0  0  0  0  0  0  0  0  0  0  0
   -8.0203   -1.7626    0.2705 H   0  0  0  0  0  0  0  0  0  0  0  0
   -8.9399    0.9855    1.2629 H   0  0  0  0  0  0  0  0  0  0  0  0
   -9.4056    0.2475   -0.2666 H   0  0  0  0  0  0  0  0  0  0  0  0
   10.2168   -0.0103    1.0440 H   0  0  0  0  0  0  0  0  0  0  0  0
    8.9844    0.4729    2.2046 H   0  0  0  0  0  0  0  0  0  0  0  0
    9.1254    1.2935    0.5876 H   0  0  0  0  0  0  0  0  0  0  0  0
  -10.0286   -0.9033    2.4992 H   0  0  0  0  0  0  0  0  0  0  0  0
  -10.5132   -1.6197    0.9654 H   0  0  0  0  0  0  0  0  0  0  0  0
  -11.9054    0.3954    0.4598 H   0  0  0  0  0  0  0  0  0  0  0  0
  -12.3820   -0.3720    1.9853 H   0  0  0  0  0  0  0  0  0  0  0  0
  -11.4163    1.1146    2.0063 H   0  0  0  0  0  0  0  0  0  0  0  0
  1  7  1  0  0  0  0
  1 50  1  0  0  0  0
  2  8  1  0  0  0  0
  2 51  1  0  0  0  0
  3 24  1  0  0  0  0
  3 28  1  0  0  0  0
  4  5  1  0  0  0  0
  4  7  1  0  0  0  0
  4 11  1  0  0  0  0
  4 14  1  0  0  0  0
  5  6  1  0  0  0  0
  5  9  1  0  0  0  0
  5 31  1  0  0  0  0
  6 10  1  0  0  0  0
  6 13  1  0  0  0  0
  6 32  1  0  0  0  0
  7  8  1  0  0  0  0
  7 33  1  0  0  0  0
  8  9  1  0  0  0  0
  8 15  1  0  0  0  0
  9 34  1  0  0  0  0
  9 35  1  0  0  0  0
 10 12  1  0  0  0  0
 10 16  1  0  0  0  0
 10 36  1  0  0  0  0
 11 12  1  0  0  0  0
 11 37  1  0  0  0  0
 11 38  1  0  0  0  0
 12 39  1  0  0  0  0
 12 40  1  0  0  0  0
 13 17  1  0  0  0  0
 13 41  1  0  0  0  0
 13 42  1  0  0  0  0
 14 43  1  0  0  0  0
 14 44  1  0  0  0  0
 14 45  1  0  0  0  0
 15 19  1  0  0  0  0
 15 46  1  0  0  0  0
 15 47  1  0  0  0  0
 16 18  2  0  0  0  0
 16 20  1  0  0  0  0
 17 18  1  0  0  0  0
 17 48  1  0  0  0  0
 17 49  1  0  0  0  0
 18 21  1  0  0  0  0
 19 22  1  0  0  0  0
 19 52  1  0  0  0  0
 19 53  1  0  0  0  0
 20 23  2  0  0  0  0
 20 54  1  0  0  0  0
 21 24  2  0  0  0  0
 21 55  1  0  0  0  0
 22 25  1  0  0  0  0
 22 56  1  0  0  0  0
 22 57  1  0  0  0  0
 23 24  1  0  0  0  0
 23 58  1  0  0  0  0
 25 26  1  0  0  0  0
 25 59  1  0  0  0  0
 25 60  1  0  0  0  0
 26 27  1  0  0  0  0
 26 61  1  0  0  0  0
 26 62  1  0  0  0  0
 27 29  1  0  0  0  0
 27 63  1  0  0  0  0
 27 64  1  0  0  0  0
 28 65  1  0  0  0  0
 28 66  1  0  0  0  0
 28 67  1  0  0  0  0
 29 30  1  0  0  0  0
 29 68  1  0  0  0  0
 29 69  1  0  0  0  0
 30 70  1  0  0  0  0
 30 71  1  0  0  0  0
 30 72  1  0  0  0  0
M  END
> <PUBCHEM_COMPOUND_CID>
242865

> <PUBCHEM_CONFORMER_RMSD>
1

> <PUBCHEM_CONFORMER_DIVERSEORDER>
1
10
17
20
14
5
7
2
16
8
9
22
15
23
11
6
12
21
18
13
4
19
3

> <PUBCHEM_MMFF94_PARTIAL_CHARGES>
19
1 -0.68
10 0.14
16 -0.14
17 0.14
18 -0.14
2 -0.68
20 -0.15
21 -0.15
23 -0.15
24 0.08
28 0.28
3 -0.36
50 0.4
51 0.4
54 0.15
55 0.15
58 0.15
7 0.28
8 0.28

> <PUBCHEM_EFFECTIVE_ROTOR_COUNT>
9.4

> <PUBCHEM_PHARMACOPHORE_FEATURES>
10
1 1 acceptor
1 1 donor
1 2 acceptor
1 2 donor
1 3 acceptor
1 30 hydrophobe
5 4 5 7 8 9 rings
6 16 18 20 21 23 24 rings
6 4 5 6 10 11 12 rings
6 6 10 13 16 17 18 rings

> <PUBCHEM_HEAVY_ATOM_COUNT>
30

> <PUBCHEM_ATOM_DEF_STEREO_COUNT>
6

> <PUBCHEM_ATOM_UDEF_STEREO_COUNT>
0

> <PUBCHEM_BOND_DEF_STEREO_COUNT>
0

> <PUBCHEM_BOND_UDEF_STEREO_COUNT>
0

> <PUBCHEM_ISOTOPIC_ATOM_COUNT>
0

> <PUBCHEM_COMPONENT_COUNT>
1

> <PUBCHEM_CACTVS_TAUTO_COUNT>
1

> <PUBCHEM_CONFORMER_ID>
0003B4B100000001

> <PUBCHEM_MMFF94_ENERGY>
97.3305

> <PUBCHEM_FEATURE_SELFOVERLAP>
50.854

> <PUBCHEM_SHAPE_FINGERPRINT>
10 15 17385439930550868395
10076449 9 15267345119980144781
10165383 225 17530686502774631550
10533779 47 18337372934657729259
106641 1 18333449842123724643
11409948 35 14563076084071683908
11409948 41 12103581778614679056
11534866 41 17918273160296079507
11607047 141 15140956314624420846
12236239 1 16877952594471114462
12498461 61 17846493688020535907
12539745 222 17489873761334679677
12741549 16 17989209248057408565
13673619 4 17060341808317196373
14251764 18 17894352155673273879
14251764 46 16559031589161243539
14294032 229 15068622730177303041
14344974 52 7997677702498107315
15247644 1 16415480458665924179
15419008 145 18335696183720364153
155225 1 15357693103232046427
15840311 113 17168145607252368888
16728433 110 15482387573442860023
1754911 235 9151174230596599355
18335252 114 10015862076763329031
18335252 98 18059859489181828634
18608769 82 18412269406750008558
19315958 150 17748821934455536047
20105231 36 18410572907785359102
20554085 129 4750877035404813237
20812841 46 18186798098150391859
21150785 3 13686301287944954368
21267235 1 18408324406743134900
21403212 168 17458343044392730055
21521239 73 12319744682408689032
21585481 151 17131545056625493331
21591340 7 17240485793849696703
21792934 111 18412545410502776197
22149856 69 18261111833907797818
232437 2 14189575235379753019
23559900 14 17969807249769443968
23569917 315 15697454346450361064
246663 6 16917349230176665275
3178227 256 18410293601144185802
484989 97 11455587907835798893
5028188 123 16951130548377766828
5104073 3 18263938803104885442
54039377 194 14908180842448277995
6691757 9 16081370710110739167
9663363 56 17775571935878091183
9962374 69 17775000125829514735

> <PUBCHEM_SHAPE_MULTIPOLES>
599.78
30.32
1.81
1.45
65.73
0.24
0.5
-4.33
-22.55
-1.73
0.31
1.19
0.3
0.87

> <PUBCHEM_SHAPE_SELFOVERLAP>
1253.011

> <PUBCHEM_SHAPE_VOLUME>
339.3

> <PUBCHEM_COORDINATE_TYPE>
2
5
10

$$$$

