12199
  -OEChem-06261206393D

 22 21  0     0  0  0  0  0  0999 V2000
    1.6500    0.4390    0.0467 O   0  0  0  0  0  0  0  0  0  0  0  0
    0.3425   -1.4431    0.1983 O   0  0  0  0  0  0  0  0  0  0  0  0
   -0.5303    0.6889    0.4550 N   0  0  0  0  0  0  0  0  0  0  0  0
   -1.9190    0.3121    0.6903 C   0  0  0  0  0  0  0  0  0  0  0  0
   -2.6796    0.2397   -0.6313 C   0  0  0  0  0  0  0  0  0  0  0  0
   -4.1382   -0.1310   -0.4112 C   0  0  0  0  0  0  0  0  0  0  0  0
    0.4691   -0.2236    0.2313 C   0  0  0  0  0  0  0  0  0  0  0  0
    2.7958   -0.3840   -0.1995 C   0  0  0  0  0  0  0  0  0  0  0  0
    4.0098    0.5020   -0.3798 C   0  0  0  0  0  0  0  0  0  0  0  0
   -1.9445   -0.6540    1.2060 H   0  0  0  0  0  0  0  0  0  0  0  0
   -2.3526    1.0716    1.3489 H   0  0  0  0  0  0  0  0  0  0  0  0
   -2.6234    1.2058   -1.1474 H   0  0  0  0  0  0  0  0  0  0  0  0
   -2.2133   -0.4995   -1.2935 H   0  0  0  0  0  0  0  0  0  0  0  0
   -0.2941    1.6765    0.4500 H   0  0  0  0  0  0  0  0  0  0  0  0
   -4.2252   -1.1094    0.0720 H   0  0  0  0  0  0  0  0  0  0  0  0
   -4.6402    0.6101    0.2191 H   0  0  0  0  0  0  0  0  0  0  0  0
   -4.6663   -0.1765   -1.3688 H   0  0  0  0  0  0  0  0  0  0  0  0
    2.9514   -1.0567    0.6513 H   0  0  0  0  0  0  0  0  0  0  0  0
    2.6315   -0.9761   -1.1067 H   0  0  0  0  0  0  0  0  0  0  0  0
    4.9056   -0.0957   -0.5702 H   0  0  0  0  0  0  0  0  0  0  0  0
    3.8616    1.1933   -1.2159 H   0  0  0  0  0  0  0  0  0  0  0  0
    4.1762    1.1140    0.5129 H   0  0  0  0  0  0  0  0  0  0  0  0
  1  7  1  0  0  0  0
  1  8  1  0  0  0  0
  2  7  2  0  0  0  0
  3  4  1  0  0  0  0
  3  7  1  0  0  0  0
  3 14  1  0  0  0  0
  4  5  1  0  0  0  0
  4 10  1  0  0  0  0
  4 11  1  0  0  0  0
  5  6  1  0  0  0  0
  5 12  1  0  0  0  0
  5 13  1  0  0  0  0
  6 15  1  0  0  0  0
  6 16  1  0  0  0  0
  6 17  1  0  0  0  0
  8  9  1  0  0  0  0
  8 18  1  0  0  0  0
  8 19  1  0  0  0  0
  9 20  1  0  0  0  0
  9 21  1  0  0  0  0
  9 22  1  0  0  0  0
M  END
> <PUBCHEM_COMPOUND_CID>
12199

> <PUBCHEM_CONFORMER_RMSD>
0.6

> <PUBCHEM_CONFORMER_DIVERSEORDER>
1
38
18
7
37
29
39
5
44
26
46
25
31
47
53
2
4
8
45
36
30
32
13
10
28
48
49
6
19
35
22
15
20
27
40
33
41
42
3
23
12
9
21
51
43
24
34
16
52
11
14
17
50

> <PUBCHEM_MMFF94_PARTIAL_CHARGES>
7
1 -0.43
14 0.37
2 -0.57
3 -0.73
4 0.3
7 0.78
8 0.28

> <PUBCHEM_EFFECTIVE_ROTOR_COUNT>
5

> <PUBCHEM_PHARMACOPHORE_FEATURES>
3
1 2 acceptor
1 3 donor
1 6 hydrophobe

> <PUBCHEM_HEAVY_ATOM_COUNT>
9

> <PUBCHEM_ATOM_DEF_STEREO_COUNT>
0

> <PUBCHEM_ATOM_UDEF_STEREO_COUNT>
0

> <PUBCHEM_BOND_DEF_STEREO_COUNT>
0

> <PUBCHEM_BOND_UDEF_STEREO_COUNT>
0

> <PUBCHEM_ISOTOPIC_ATOM_COUNT>
0

> <PUBCHEM_COMPONENT_COUNT>
1

> <PUBCHEM_CACTVS_TAUTO_COUNT>
2

> <PUBCHEM_CONFORMER_ID>
00002FA700000001

> <PUBCHEM_MMFF94_ENERGY>
-0.2574

> <PUBCHEM_FEATURE_SELFOVERLAP>
15.223

> <PUBCHEM_SHAPE_FINGERPRINT>
11062470 55 16487256577573795413
12897270 3 18411705400197299933
12932764 1 17095819805328020257
14325111 11 18410571816461998568
20281407 28 14345797149476830989
21293036 1 18410575076094314852
22485316 2 14490196024442907741
23402655 69 18340214080639124309

> <PUBCHEM_SHAPE_MULTIPOLES>
168.5
7.22
0.9
0.76
0.09
0.21
0.01
-0.7
1.87
0.19
-0.05
-0.26
-0.04
-0.12

> <PUBCHEM_SHAPE_SELFOVERLAP>
303.339

> <PUBCHEM_SHAPE_VOLUME>
109.1

> <PUBCHEM_COORDINATE_TYPE>
2
5
10

$$$$

