200138
  -OEChem-07051213053D

 53 56  0     1  0  0  0  0  0999 V2000
    6.1275   -2.0540    0.2735 F   0  0  0  0  0  0  0  0  0  0  0  0
    5.2463    0.2373   -0.7312 O   0  0  0  0  0  0  0  0  0  0  0  0
   -6.3192   -0.5466    1.0227 O   0  0  0  0  0  0  0  0  0  0  0  0
    1.1126    1.1124    0.3886 C   0  0  2  0  0  0  0  0  0  0  0  0
    2.0513   -0.0166   -0.0881 C   0  0  1  0  0  0  0  0  0  0  0  0
   -0.2774    1.0438   -0.2525 C   0  0  1  0  0  0  0  0  0  0  0  0
   -0.9327   -0.3252    0.1125 C   0  0  1  0  0  0  0  0  0  0  0  0
   -2.3914   -0.4796   -0.4679 C   0  0  2  0  0  0  0  0  0  0  0  0
    3.3308    0.3803    0.6810 C   0  0  2  0  0  0  0  0  0  0  0  0
    1.4308   -1.3528    0.3414 C   0  0  0  0  0  0  0  0  0  0  0  0
    0.0045   -1.5208   -0.2127 C   0  0  0  0  0  0  0  0  0  0  0  0
    1.9528    2.3716    0.2044 C   0  0  0  0  0  0  0  0  0  0  0  0
   -1.1703    2.1974    0.2214 C   0  0  0  0  0  0  0  0  0  0  0  0
    3.3771    1.9188    0.5734 C   0  0  0  0  0  0  0  0  0  0  0  0
   -3.2137    0.7697   -0.1262 C   0  0  0  0  0  0  0  0  0  0  0  0
    2.3009   -0.0219   -1.6189 C   0  0  0  0  0  0  0  0  0  0  0  0
   -2.5609    2.1055   -0.3935 C   0  0  0  0  0  0  0  0  0  0  0  0
   -3.0431   -1.7379    0.1763 C   0  0  0  0  0  0  0  0  0  0  0  0
   -2.3875   -0.6490   -2.0040 C   0  0  0  0  0  0  0  0  0  0  0  0
    4.5829   -0.2653    0.1743 C   0  0  0  0  0  0  0  0  0  0  0  0
   -4.5526   -1.7993    0.0030 C   0  0  0  0  0  0  0  0  0  0  0  0
   -4.4636    0.7351    0.3654 C   0  0  0  0  0  0  0  0  0  0  0  0
   -5.1925   -0.5432    0.5308 C   0  0  0  0  0  0  0  0  0  0  0  0
    4.9873   -1.5597    0.8263 C   0  0  0  0  0  0  0  0  0  0  0  0
    0.9634    1.0033    1.4762 H   0  0  0  0  0  0  0  0  0  0  0  0
   -0.1777    1.1292   -1.3399 H   0  0  0  0  0  0  0  0  0  0  0  0
   -1.0349   -0.3242    1.2103 H   0  0  0  0  0  0  0  0  0  0  0  0
    3.2296    0.1281    1.7458 H   0  0  0  0  0  0  0  0  0  0  0  0
    1.3921   -1.4182    1.4364 H   0  0  0  0  0  0  0  0  0  0  0  0
    2.0432   -2.1945   -0.0002 H   0  0  0  0  0  0  0  0  0  0  0  0
    0.0593   -1.6768   -1.2946 H   0  0  0  0  0  0  0  0  0  0  0  0
   -0.4070   -2.4439    0.2101 H   0  0  0  0  0  0  0  0  0  0  0  0
    1.6174    3.1898    0.8496 H   0  0  0  0  0  0  0  0  0  0  0  0
    1.9186    2.7296   -0.8305 H   0  0  0  0  0  0  0  0  0  0  0  0
   -0.7256    3.1594   -0.0587 H   0  0  0  0  0  0  0  0  0  0  0  0
   -1.2489    2.1901    1.3163 H   0  0  0  0  0  0  0  0  0  0  0  0
    4.0895    2.2950   -0.1682 H   0  0  0  0  0  0  0  0  0  0  0  0
    3.6732    2.3474    1.5383 H   0  0  0  0  0  0  0  0  0  0  0  0
    2.7991    0.8888   -1.9660 H   0  0  0  0  0  0  0  0  0  0  0  0
    2.9342   -0.8694   -1.9056 H   0  0  0  0  0  0  0  0  0  0  0  0
    1.3782   -0.1156   -2.1976 H   0  0  0  0  0  0  0  0  0  0  0  0
   -2.4932    2.2573   -1.4778 H   0  0  0  0  0  0  0  0  0  0  0  0
   -3.1703    2.9314   -0.0062 H   0  0  0  0  0  0  0  0  0  0  0  0
   -2.8254   -1.7513    1.2536 H   0  0  0  0  0  0  0  0  0  0  0  0
   -2.6091   -2.6552   -0.2389 H   0  0  0  0  0  0  0  0  0  0  0  0
   -1.8187    0.1390   -2.5072 H   0  0  0  0  0  0  0  0  0  0  0  0
   -1.9533   -1.6089   -2.3030 H   0  0  0  0  0  0  0  0  0  0  0  0
   -3.4034   -0.6178   -2.4149 H   0  0  0  0  0  0  0  0  0  0  0  0
   -4.9440   -2.6527    0.5679 H   0  0  0  0  0  0  0  0  0  0  0  0
   -4.8376   -1.9260   -1.0461 H   0  0  0  0  0  0  0  0  0  0  0  0
   -5.0095    1.6409    0.6073 H   0  0  0  0  0  0  0  0  0  0  0  0
    4.2070   -2.3105    0.6980 H   0  0  0  0  0  0  0  0  0  0  0  0
    5.1774   -1.3914    1.8892 H   0  0  0  0  0  0  0  0  0  0  0  0
  1 24  1  0  0  0  0
  2 20  2  0  0  0  0
  3 23  2  0  0  0  0
  4  5  1  0  0  0  0
  4  6  1  0  0  0  0
  4 12  1  0  0  0  0
  4 25  1  0  0  0  0
  5  9  1  0  0  0  0
  5 10  1  0  0  0  0
  5 16  1  0  0  0  0
  6  7  1  0  0  0  0
  6 13  1  0  0  0  0
  6 26  1  0  0  0  0
  7  8  1  0  0  0  0
  7 11  1  0  0  0  0
  7 27  1  0  0  0  0
  8 15  1  0  0  0  0
  8 18  1  0  0  0  0
  8 19  1  0  0  0  0
  9 14  1  0  0  0  0
  9 20  1  0  0  0  0
  9 28  1  0  0  0  0
 10 11  1  0  0  0  0
 10 29  1  0  0  0  0
 10 30  1  0  0  0  0
 11 31  1  0  0  0  0
 11 32  1  0  0  0  0
 12 14  1  0  0  0  0
 12 33  1  0  0  0  0
 12 34  1  0  0  0  0
 13 17  1  0  0  0  0
 13 35  1  0  0  0  0
 13 36  1  0  0  0  0
 14 37  1  0  0  0  0
 14 38  1  0  0  0  0
 15 17  1  0  0  0  0
 15 22  2  0  0  0  0
 16 39  1  0  0  0  0
 16 40  1  0  0  0  0
 16 41  1  0  0  0  0
 17 42  1  0  0  0  0
 17 43  1  0  0  0  0
 18 21  1  0  0  0  0
 18 44  1  0  0  0  0
 18 45  1  0  0  0  0
 19 46  1  0  0  0  0
 19 47  1  0  0  0  0
 19 48  1  0  0  0  0
 20 24  1  0  0  0  0
 21 23  1  0  0  0  0
 21 49  1  0  0  0  0
 21 50  1  0  0  0  0
 22 23  1  0  0  0  0
 22 51  1  0  0  0  0
 24 52  1  0  0  0  0
 24 53  1  0  0  0  0
M  END
> <PUBCHEM_COMPOUND_CID>
200138

> <PUBCHEM_CONFORMER_RMSD>
0.6

> <PUBCHEM_CONFORMER_DIVERSEORDER>
1
5
3
4
2

> <PUBCHEM_MMFF94_PARTIAL_CHARGES>
13
1 -0.34
15 -0.28
17 0.14
2 -0.57
20 0.45
21 0.06
22 -0.14
23 0.49
24 0.4
3 -0.57
51 0.15
8 0.14
9 0.06

> <PUBCHEM_EFFECTIVE_ROTOR_COUNT>
3.8

> <PUBCHEM_PHARMACOPHORE_FEATURES>
6
1 2 acceptor
1 3 acceptor
5 4 5 9 12 14 rings
6 4 5 6 7 10 11 rings
6 6 7 8 13 15 17 rings
6 8 15 18 21 22 23 rings

> <PUBCHEM_HEAVY_ATOM_COUNT>
24

> <PUBCHEM_ATOM_DEF_STEREO_COUNT>
6

> <PUBCHEM_ATOM_UDEF_STEREO_COUNT>
0

> <PUBCHEM_BOND_DEF_STEREO_COUNT>
0

> <PUBCHEM_BOND_UDEF_STEREO_COUNT>
0

> <PUBCHEM_ISOTOPIC_ATOM_COUNT>
0

> <PUBCHEM_COMPONENT_COUNT>
1

> <PUBCHEM_CACTVS_TAUTO_COUNT>
15

> <PUBCHEM_CONFORMER_ID>
00030DCA00000001

> <PUBCHEM_MMFF94_ENERGY>
69.1018

> <PUBCHEM_FEATURE_SELFOVERLAP>
30.542

> <PUBCHEM_SHAPE_FINGERPRINT>
10366900 7 13398630554242181077
11405975 8 18187087217335296538
11578080 2 16699784616323497255
12166972 35 17775562039936039444
12236239 1 17847057804843434108
12403259 226 18411145718503624424
12403259 415 18272661120704047764
12422481 6 18040149634630051183
12553582 1 18338249214093509969
12616971 3 17967820418090833663
12633257 1 16950564337647297009
12788726 201 17821994403018797888
13140716 1 18263927639946942387
13224815 77 18409735019394011653
13288520 33 18411701019135414236
13533116 47 18344146999366880306
13675066 3 18041002808255493240
13862211 1 18409171000125654407
14251764 18 18342741815185504234
14341114 176 18412824676963917912
15042514 8 18265614462609373672
15196674 1 18409732824507539337
15209289 33 18342460339364735835
15788980 27 18272936028696452279
17349148 13 17846778529027044626
17804303 29 18409449171908569492
1813 80 17489311849787306925
18186145 218 18129956593298629532
19141452 34 17749106647990029407
19591789 44 18410015403232705842
200 152 12895078397097605817
20028762 73 18186807949977960558
20261772 1 18187367597301035871
21150785 3 17131541800570972286
21267235 1 18411975879714926058
21279426 13 18339645662917853076
21682296 61 18188485908085699198
21792934 111 18410298017346525617
221490 88 18411982425651377576
22182313 1 17750789033391672196
22950370 63 18413387618274663512
23402539 116 18334583442337145502
23503953 91 16660647319248394644
23522609 53 18123718002851597564
23557571 272 18260541247070260541
23559900 14 18411990130374547488
296302 2 7925915889329316077
3004659 81 18273212032924265774
335352 9 18410295843507465797
350125 39 18411417319191947712
4214541 1 18411420643691683769
4340502 62 14779260899886888319
465052 167 18335699460262867518
5104073 3 18261111846333991593
7495541 125 18409166597858042144
9709674 26 18268712714329302179

> <PUBCHEM_SHAPE_MULTIPOLES>
474.9
12.08
2.3
1.06
1.21
0.56
-0.45
-4.97
2.69
0.56
0.25
-0.15
-0.15
-0.08

> <PUBCHEM_SHAPE_SELFOVERLAP>
1017.387

> <PUBCHEM_SHAPE_VOLUME>
264.5

> <PUBCHEM_COORDINATE_TYPE>
2
5
10

$$$$

