14945680
  -OEChem-07051213083D

 28 29  0     0  0  0  0  0  0999 V2000
   -0.4995   -3.2767    0.6832 O   0  0  0  0  0  0  0  0  0  0  0  0
   -1.9806   -2.2892   -0.7302 O   0  0  0  0  0  0  0  0  0  0  0  0
   -4.7246    1.4355    1.3085 O   0  0  0  0  0  0  0  0  0  0  0  0
   -4.5682    1.1566   -0.9503 O   0  0  0  0  0  0  0  0  0  0  0  0
    1.9094    0.9439   -0.1309 C   0  0  0  0  0  0  0  0  0  0  0  0
    2.3349   -0.3924    0.0592 C   0  0  0  0  0  0  0  0  0  0  0  0
   -0.3916    0.1735   -0.3048 C   0  0  0  0  0  0  0  0  0  0  0  0
    0.0268   -1.1406   -0.1181 C   0  0  0  0  0  0  0  0  0  0  0  0
    0.5423    1.2100   -0.3115 C   0  0  0  0  0  0  0  0  0  0  0  0
    1.3810   -1.4231    0.0627 C   0  0  0  0  0  0  0  0  0  0  0  0
    2.8634    1.9746   -0.1344 C   0  0  0  0  0  0  0  0  0  0  0  0
    3.7020   -0.6587    0.2395 C   0  0  0  0  0  0  0  0  0  0  0  0
    4.2175    1.6916    0.0469 C   0  0  0  0  0  0  0  0  0  0  0  0
    4.6360    0.3776    0.2333 C   0  0  0  0  0  0  0  0  0  0  0  0
   -1.7987    0.5043   -0.4968 C   0  0  0  0  0  0  0  0  0  0  0  0
   -0.9177   -2.2518   -0.1065 C   0  0  0  0  0  0  0  0  0  0  0  0
   -2.6651    0.8191    0.4888 C   0  0  0  0  0  0  0  0  0  0  0  0
   -4.0674    1.1458    0.1613 C   0  0  0  0  0  0  0  0  0  0  0  0
    0.2100    2.2372   -0.4590 H   0  0  0  0  0  0  0  0  0  0  0  0
    1.7224   -2.4486    0.1941 H   0  0  0  0  0  0  0  0  0  0  0  0
    2.5593    3.0093   -0.2785 H   0  0  0  0  0  0  0  0  0  0  0  0
    4.0523   -1.6782    0.3872 H   0  0  0  0  0  0  0  0  0  0  0  0
    4.9451    2.4980    0.0421 H   0  0  0  0  0  0  0  0  0  0  0  0
    5.6904    0.1582    0.3742 H   0  0  0  0  0  0  0  0  0  0  0  0
   -2.1258    0.4921   -1.5341 H   0  0  0  0  0  0  0  0  0  0  0  0
   -2.3541    0.8407    1.5282 H   0  0  0  0  0  0  0  0  0  0  0  0
   -1.1391   -4.0205    0.6856 H   0  0  0  0  0  0  0  0  0  0  0  0
   -5.6657    1.6601    1.1460 H   0  0  0  0  0  0  0  0  0  0  0  0
  1 16  1  0  0  0  0
  1 27  1  0  0  0  0
  2 16  2  0  0  0  0
  3 18  1  0  0  0  0
  3 28  1  0  0  0  0
  4 18  2  0  0  0  0
  5  6  1  0  0  0  0
  5  9  1  0  0  0  0
  5 11  2  0  0  0  0
  6 10  1  0  0  0  0
  6 12  2  0  0  0  0
  7  8  1  0  0  0  0
  7  9  2  0  0  0  0
  7 15  1  0  0  0  0
  8 10  2  0  0  0  0
  8 16  1  0  0  0  0
  9 19  1  0  0  0  0
 10 20  1  0  0  0  0
 11 13  1  0  0  0  0
 11 21  1  0  0  0  0
 12 14  1  0  0  0  0
 12 22  1  0  0  0  0
 13 14  2  0  0  0  0
 13 23  1  0  0  0  0
 14 24  1  0  0  0  0
 15 17  2  0  0  0  0
 15 25  1  0  0  0  0
 17 18  1  0  0  0  0
 17 26  1  0  0  0  0
M  END
> <PUBCHEM_COMPOUND_CID>
14945680

> <PUBCHEM_CONFORMER_RMSD>
0.6

> <PUBCHEM_CONFORMER_DIVERSEORDER>
1
4
2
3

> <PUBCHEM_MMFF94_PARTIAL_CHARGES>
26
1 -0.65
10 -0.15
11 -0.15
12 -0.15
13 -0.15
14 -0.15
15 -0.18
16 0.63
17 -0.14
18 0.71
19 0.15
2 -0.57
20 0.15
21 0.15
22 0.15
23 0.15
24 0.15
25 0.15
26 0.15
27 0.5
28 0.5
3 -0.65
4 -0.57
7 0.03
8 0.09
9 -0.15

> <PUBCHEM_EFFECTIVE_ROTOR_COUNT>
3

> <PUBCHEM_PHARMACOPHORE_FEATURES>
8
1 1 acceptor
1 2 acceptor
1 3 acceptor
1 4 acceptor
3 1 2 16 anion
3 3 4 18 anion
6 5 6 11 12 13 14 rings
6 5 6 7 8 9 10 rings

> <PUBCHEM_HEAVY_ATOM_COUNT>
18

> <PUBCHEM_ATOM_DEF_STEREO_COUNT>
0

> <PUBCHEM_ATOM_UDEF_STEREO_COUNT>
0

> <PUBCHEM_BOND_DEF_STEREO_COUNT>
1

> <PUBCHEM_BOND_UDEF_STEREO_COUNT>
0

> <PUBCHEM_ISOTOPIC_ATOM_COUNT>
0

> <PUBCHEM_COMPONENT_COUNT>
1

> <PUBCHEM_CACTVS_TAUTO_COUNT>
1

> <PUBCHEM_CONFORMER_ID>
00E40D9000000001

> <PUBCHEM_MMFF94_ENERGY>
58.2077

> <PUBCHEM_FEATURE_SELFOVERLAP>
40.735

> <PUBCHEM_SHAPE_FINGERPRINT>
10493431 412 18411135822782455768
10967382 1 18339364162313782748
11471102 20 18411141372202020572
12119455 92 18273218620586407337
12236239 1 17822579403829824645
122479 349 18410008814821445554
12390115 104 18120640350189595704
12500047 106 18337113358721682512
12532896 13 18411979148211762791
12633257 1 18341346534729344384
12644460 14 18201440349788688922
13140716 1 18340211800053480216
13380535 76 18335139791078924038
13583140 156 16486431935147348204
14178342 30 18125172537092388768
14790565 3 18340195397416128060
14897335 6 18408606950296381172
15196674 1 18411140195512538374
15309172 13 18341611546727176725
15442244 35 18411987936321044090
16945 1 18341344374328957622
1741750 31 18334293132691750136
18186145 218 18335700580510879661
19591789 44 18051129499821756350
19784866 240 14563078321496093028
20157964 124 18049159171292032593
204376 136 18411416228633842129
20602899 9 15792008943954800239
20739085 24 18127393764870418684
21033648 29 18270980010380684516
21041028 32 17622715423813323475
21501502 16 18268153067743788534
21524375 3 18333453161811541677
23184049 59 18343018921394608204
2334 1 18196093240365051710
23402539 116 18186810183370970933
23558518 356 17768811970644447096
23559900 14 18259704489569128028
25147074 1 18270410378179888558
2748010 2 18266460906595647310
335352 9 18410857694307806134
350125 39 18267018354500763921
474 4 18335979874097832593
474229 33 18410572856361315179
5104073 3 18269285569427062920
633830 44 18114736157241719317
69090 78 18411985758107967261
7832392 63 18339081493447141428
81228 2 17910407090827553203
8272917 22 18192147320718939469
83771 10 10159693590680514953
9709674 26 18263923246596572286
9999458 23 18060133271618618782

> <PUBCHEM_SHAPE_MULTIPOLES>
346.95
8.52
2.63
0.8
2.54
1.96
0.05
-5.65
1.05
0.77
0.17
0.59
-0.08
-0.44

> <PUBCHEM_SHAPE_SELFOVERLAP>
759.287

> <PUBCHEM_SHAPE_VOLUME>
187.8

> <PUBCHEM_COORDINATE_TYPE>
2
5
10

$$$$

