51090856
  -OEChem-06241223002D

 45 48  0     0  0  0  0  0  0999 V2000
    7.1962   -1.5194    0.0000 O   0  0  0  0  0  0  0  0  0  0  0  0
    3.7320   -2.5194    0.0000 N   0  0  0  0  0  0  0  0  0  0  0  0
    4.5981   -4.0194    0.0000 N   0  0  0  0  0  0  0  0  0  0  0  0
    5.4641   -1.5194    0.0000 N   0  0  0  0  0  0  0  0  0  0  0  0
    6.3301    2.9806    0.0000 N   0  0  0  0  0  0  0  0  0  0  0  0
    5.5211    3.5684    0.0000 N   0  0  0  0  0  0  0  0  0  0  0  0
    6.8301    4.5194    0.0000 N   0  0  0  0  0  0  0  0  0  0  0  0
    5.8301    4.5194    0.0000 N   0  0  0  0  0  0  0  0  0  0  0  0
    2.0000   -1.5194    0.0000 C   0  0  0  0  0  0  0  0  0  0  0  0
    2.8660   -1.0194    0.0000 C   0  0  0  0  0  0  0  0  0  0  0  0
    2.0000   -2.5194    0.0000 C   0  0  0  0  0  0  0  0  0  0  0  0
    3.7320   -1.5194    0.0000 C   0  0  0  0  0  0  0  0  0  0  0  0
    2.8660   -3.0194    0.0000 C   0  0  0  0  0  0  0  0  0  0  0  0
    4.5981   -3.0194    0.0000 C   0  0  0  0  0  0  0  0  0  0  0  0
    5.4641   -2.5194    0.0000 C   0  0  0  0  0  0  0  0  0  0  0  0
    6.3301   -3.0194    0.0000 C   0  0  0  0  0  0  0  0  0  0  0  0
    5.4641   -4.5194    0.0000 C   0  0  0  0  0  0  0  0  0  0  0  0
    6.3301   -4.0194    0.0000 C   0  0  0  0  0  0  0  0  0  0  0  0
    6.3301   -1.0194    0.0000 C   0  0  0  0  0  0  0  0  0  0  0  0
    6.3301   -0.0194    0.0000 C   0  0  0  0  0  0  0  0  0  0  0  0
    7.1962    0.4806    0.0000 C   0  0  0  0  0  0  0  0  0  0  0  0
    5.4641    0.4806    0.0000 C   0  0  0  0  0  0  0  0  0  0  0  0
    6.3301    1.9806    0.0000 C   0  0  0  0  0  0  0  0  0  0  0  0
    7.1962    1.4806    0.0000 C   0  0  0  0  0  0  0  0  0  0  0  0
    5.4641    1.4806    0.0000 C   0  0  0  0  0  0  0  0  0  0  0  0
    7.1391    3.5684    0.0000 C   0  0  0  0  0  0  0  0  0  0  0  0
    1.7880   -0.9368    0.0000 H   0  0  0  0  0  0  0  0  0  0  0  0
    1.3894   -1.6271    0.0000 H   0  0  0  0  0  0  0  0  0  0  0  0
    3.2646   -0.5445    0.0000 H   0  0  0  0  0  0  0  0  0  0  0  0
    1.3894   -2.4118    0.0000 H   0  0  0  0  0  0  0  0  0  0  0  0
    1.7880   -3.1020    0.0000 H   0  0  0  0  0  0  0  0  0  0  0  0
    2.4675   -0.5445    0.0000 H   0  0  0  0  0  0  0  0  0  0  0  0
    4.3426   -1.6271    0.0000 H   0  0  0  0  0  0  0  0  0  0  0  0
    3.9441   -0.9368    0.0000 H   0  0  0  0  0  0  0  0  0  0  0  0
    2.4675   -3.4944    0.0000 H   0  0  0  0  0  0  0  0  0  0  0  0
    3.2646   -3.4944    0.0000 H   0  0  0  0  0  0  0  0  0  0  0  0
    6.8671   -2.7094    0.0000 H   0  0  0  0  0  0  0  0  0  0  0  0
    4.9272   -1.2094    0.0000 H   0  0  0  0  0  0  0  0  0  0  0  0
    5.4641   -5.1394    0.0000 H   0  0  0  0  0  0  0  0  0  0  0  0
    6.8671   -4.3294    0.0000 H   0  0  0  0  0  0  0  0  0  0  0  0
    7.7331    0.1706    0.0000 H   0  0  0  0  0  0  0  0  0  0  0  0
    4.9272    0.1706    0.0000 H   0  0  0  0  0  0  0  0  0  0  0  0
    7.7331    1.7906    0.0000 H   0  0  0  0  0  0  0  0  0  0  0  0
    4.9272    1.7906    0.0000 H   0  0  0  0  0  0  0  0  0  0  0  0
    7.7288    3.3768    0.0000 H   0  0  0  0  0  0  0  0  0  0  0  0
  1 19  2  0  0  0  0
  2 12  1  0  0  0  0
  2 13  1  0  0  0  0
  2 14  1  0  0  0  0
  3 14  1  0  0  0  0
  3 17  2  0  0  0  0
  4 15  1  0  0  0  0
  4 19  1  0  0  0  0
  4 38  1  0  0  0  0
  5  6  1  0  0  0  0
  5 23  1  0  0  0  0
  5 26  1  0  0  0  0
  6  8  2  0  0  0  0
  7  8  1  0  0  0  0
  7 26  2  0  0  0  0
  9 10  1  0  0  0  0
  9 11  1  0  0  0  0
  9 27  1  0  0  0  0
  9 28  1  0  0  0  0
 10 12  1  0  0  0  0
 10 29  1  0  0  0  0
 10 32  1  0  0  0  0
 11 13  1  0  0  0  0
 11 30  1  0  0  0  0
 11 31  1  0  0  0  0
 12 33  1  0  0  0  0
 12 34  1  0  0  0  0
 13 35  1  0  0  0  0
 13 36  1  0  0  0  0
 14 15  2  0  0  0  0
 15 16  1  0  0  0  0
 16 18  2  0  0  0  0
 16 37  1  0  0  0  0
 17 18  1  0  0  0  0
 17 39  1  0  0  0  0
 18 40  1  0  0  0  0
 19 20  1  0  0  0  0
 20 21  2  0  0  0  0
 20 22  1  0  0  0  0
 21 24  1  0  0  0  0
 21 41  1  0  0  0  0
 22 25  2  0  0  0  0
 22 42  1  0  0  0  0
 23 24  2  0  0  0  0
 23 25  1  0  0  0  0
 24 43  1  0  0  0  0
 25 44  1  0  0  0  0
 26 45  1  0  0  0  0
M  END
> <PUBCHEM_COMPOUND_CID>
51090856

> <PUBCHEM_COMPOUND_CANONICALIZED>
1

> <PUBCHEM_CACTVS_COMPLEXITY>
463

> <PUBCHEM_CACTVS_HBOND_ACCEPTOR>
6

> <PUBCHEM_CACTVS_HBOND_DONOR>
1

> <PUBCHEM_CACTVS_ROTATABLE_BOND>
4

> <PUBCHEM_CACTVS_SUBSKEYS>
AAADceB7oAAAAAAAAAAAAAAAAAAAAWAAAAA8WIAAAAAAAAAB8AAAHgAYAAAADAjBmgQ98JfIEACqAjd3dACChCs1kqAd2CE4dNiIYPLAnZGUIQholALIyacYiQCeCAAAAAAAAAAQAAAAAAAAAAAAAAAAAA==

> <PUBCHEM_IUPAC_OPENEYE_NAME>
N-[2-(1-piperidyl)-3-pyridyl]-4-(tetrazol-1-yl)benzamide

> <PUBCHEM_IUPAC_CAS_NAME>
N-[2-(1-piperidinyl)-3-pyridinyl]-4-(1-tetrazolyl)benzamide

> <PUBCHEM_IUPAC_NAME>
N-(2-piperidin-1-ylpyridin-3-yl)-4-(tetrazol-1-yl)benzamide

> <PUBCHEM_IUPAC_SYSTEMATIC_NAME>
N-(2-piperidin-1-ylpyridin-3-yl)-4-(1,2,3,4-tetrazol-1-yl)benzamide

> <PUBCHEM_IUPAC_TRADITIONAL_NAME>
N-(2-piperidino-3-pyridyl)-4-(tetrazol-1-yl)benzamide

> <PUBCHEM_IUPAC_INCHI>
InChI=1S/C18H19N7O/c26-18(14-6-8-15(9-7-14)25-13-20-22-23-25)21-16-5-4-10-19-17(16)24-11-2-1-3-12-24/h4-10,13H,1-3,11-12H2,(H,21,26)

> <PUBCHEM_IUPAC_INCHIKEY>
BYUUXTAQPMKIBS-UHFFFAOYSA-N

> <PUBCHEM_XLOGP3_AA>
2.3

> <PUBCHEM_EXACT_MASS>
349.165108

> <PUBCHEM_MOLECULAR_FORMULA>
C18H19N7O

> <PUBCHEM_MOLECULAR_WEIGHT>
349.38976

> <PUBCHEM_OPENEYE_CAN_SMILES>
C1CCN(CC1)C2=C(C=CC=N2)NC(=O)C3=CC=C(C=C3)N4C=NN=N4

> <PUBCHEM_OPENEYE_ISO_SMILES>
C1CCN(CC1)C2=C(C=CC=N2)NC(=O)C3=CC=C(C=C3)N4C=NN=N4

> <PUBCHEM_CACTVS_TPSA>
88.8

> <PUBCHEM_MONOISOTOPIC_WEIGHT>
349.165108

> <PUBCHEM_TOTAL_CHARGE>
0

> <PUBCHEM_HEAVY_ATOM_COUNT>
26

> <PUBCHEM_ATOM_DEF_STEREO_COUNT>
0

> <PUBCHEM_ATOM_UDEF_STEREO_COUNT>
0

> <PUBCHEM_BOND_DEF_STEREO_COUNT>
0

> <PUBCHEM_BOND_UDEF_STEREO_COUNT>
0

> <PUBCHEM_ISOTOPIC_ATOM_COUNT>
0

> <PUBCHEM_COMPONENT_COUNT>
1

> <PUBCHEM_CACTVS_TAUTO_COUNT>
2

> <PUBCHEM_COORDINATE_TYPE>
1
5
255

> <PUBCHEM_BONDANNOTATIONS>
14  15  8
15  16  8
16  18  8
17  18  8
20  21  8
20  22  8
21  24  8
22  25  8
23  24  8
23  25  8
3  14  8
3  17  8
5  26  8
5  6  8
6  8  8
7  26  8
7  8  8

$$$$

