30331
  -OEChem-07051213133D

 24 24  0     1  0  0  0  0  0999 V2000
   -2.8826    1.7125   -1.8166 Cl  0  0  0  0  0  0  0  0  0  0  0  0
   -4.3017   -0.5935   -0.7865 Cl  0  0  0  0  0  0  0  0  0  0  0  0
   -3.6648    1.6235    0.9887 Cl  0  0  0  0  0  0  0  0  0  0  0  0
    3.1863   -2.0594   -1.1029 Cl  0  0  0  0  0  0  0  0  0  0  0  0
    5.1841    0.2453   -0.0226 Cl  0  0  0  0  0  0  0  0  0  0  0  0
   -1.2102   -2.9436    0.1175 O   0  0  0  0  0  0  0  0  0  0  0  0
   -0.6924    0.9763    0.2410 N   0  0  0  0  0  0  0  0  0  0  0  0
   -1.7984   -0.9118    1.1131 N   0  0  0  0  0  0  0  0  0  0  0  0
   -1.6999   -0.0366   -0.0522 C   0  0  1  0  0  0  0  0  0  0  0  0
    0.6795    0.7911    0.1732 C   0  0  0  0  0  0  0  0  0  0  0  0
   -3.0559    0.6379   -0.3834 C   0  0  0  0  0  0  0  0  0  0  0  0
    1.2229   -0.3914   -0.3622 C   0  0  0  0  0  0  0  0  0  0  0  0
    1.5648    1.7812    0.6379 C   0  0  0  0  0  0  0  0  0  0  0  0
    2.6036   -0.5772   -0.4304 C   0  0  0  0  0  0  0  0  0  0  0  0
    2.9455    1.5952    0.5699 C   0  0  0  0  0  0  0  0  0  0  0  0
    3.4650    0.4160    0.0357 C   0  0  0  0  0  0  0  0  0  0  0  0
   -1.5456   -2.2654    1.0798 C   0  0  0  0  0  0  0  0  0  0  0  0
   -1.4142   -0.6296   -0.9286 H   0  0  0  0  0  0  0  0  0  0  0  0
   -1.0151    1.8358    0.6739 H   0  0  0  0  0  0  0  0  0  0  0  0
   -2.0424   -0.4859    2.0021 H   0  0  0  0  0  0  0  0  0  0  0  0
    0.5854   -1.1807   -0.7460 H   0  0  0  0  0  0  0  0  0  0  0  0
    1.1765    2.7068    1.0573 H   0  0  0  0  0  0  0  0  0  0  0  0
    3.6021    2.3797    0.9376 H   0  0  0  0  0  0  0  0  0  0  0  0
   -1.6809   -2.7082    2.0803 H   0  0  0  0  0  0  0  0  0  0  0  0
  1 11  1  0  0  0  0
  2 11  1  0  0  0  0
  3 11  1  0  0  0  0
  4 14  1  0  0  0  0
  5 16  1  0  0  0  0
  6 17  2  0  0  0  0
  7  9  1  0  0  0  0
  7 10  1  0  0  0  0
  7 19  1  0  0  0  0
  8  9  1  0  0  0  0
  8 17  1  0  0  0  0
  8 20  1  0  0  0  0
  9 11  1  0  0  0  0
  9 18  1  0  0  0  0
 10 12  2  0  0  0  0
 10 13  1  0  0  0  0
 12 14  1  0  0  0  0
 12 21  1  0  0  0  0
 13 15  2  0  0  0  0
 13 22  1  0  0  0  0
 14 16  2  0  0  0  0
 15 16  1  0  0  0  0
 15 23  1  0  0  0  0
 17 24  1  0  0  0  0
M  END
> <PUBCHEM_COMPOUND_CID>
30331

> <PUBCHEM_CONFORMER_RMSD>
0.6

> <PUBCHEM_CONFORMER_DIVERSEORDER>
1
67
34
5
52
47
43
64
33
56
44
51
15
62
70
49
68
61
31
38
60
35
12
54
11
57
2
6
69
41
66
65
59
42
28
19
29
4
55
24
32
40
48
50
58
7
53
71
39
73
20
17
27
45
14
3
30
23
63
36
25
21
16
13
8
37
26
10
72
18
9
22
46

> <PUBCHEM_MMFF94_PARTIAL_CHARGES>
23
1 -0.29
10 0.1
11 0.87
12 -0.15
13 -0.15
14 0.18
15 -0.15
16 0.18
17 0.57
19 0.4
2 -0.29
20 0.37
21 0.15
22 0.15
23 0.15
24 0.06
3 -0.29
4 -0.18
5 -0.18
6 -0.57
7 -0.87
8 -0.73
9 0.67

> <PUBCHEM_EFFECTIVE_ROTOR_COUNT>
5

> <PUBCHEM_PHARMACOPHORE_FEATURES>
5
1 6 acceptor
1 7 cation
1 7 donor
1 8 donor
6 10 12 13 14 15 16 rings

> <PUBCHEM_HEAVY_ATOM_COUNT>
17

> <PUBCHEM_ATOM_DEF_STEREO_COUNT>
0

> <PUBCHEM_ATOM_UDEF_STEREO_COUNT>
1

> <PUBCHEM_BOND_DEF_STEREO_COUNT>
0

> <PUBCHEM_BOND_UDEF_STEREO_COUNT>
0

> <PUBCHEM_ISOTOPIC_ATOM_COUNT>
0

> <PUBCHEM_COMPONENT_COUNT>
1

> <PUBCHEM_CACTVS_TAUTO_COUNT>
2

> <PUBCHEM_CONFORMER_ID>
0000767B00000001

> <PUBCHEM_MMFF94_ENERGY>
40.7779

> <PUBCHEM_FEATURE_SELFOVERLAP>
25.411

> <PUBCHEM_SHAPE_FINGERPRINT>
10366900 7 18187366502322018648
11322862 65 18343015580295219123
12236239 1 16226047786169711404
12500047 106 18343869913556218718
13583140 156 16272211872936794585
14115302 16 18272640247500222548
15375358 24 18335139800006247690
16945 1 18261662710734744376
18186145 218 18339645658538690973
200 152 17385726889367405160
20201158 50 18335417967721081338
20279233 1 18409443670424494578
20645476 183 16487258751011889915
20645477 56 18273211997504289349
20645477 70 17967530199246478390
23402539 116 18411145748547043333
23402655 69 18114466759365132021
23526113 38 18335423486384902250
23558518 356 18045487862462460752
23559900 14 18263934245596315192
25 1 18337955717740851053
2748010 2 18337944589475435766
633830 44 18263364870593293597
69090 78 18412549782204210707
81228 2 17985260773326864507
8809292 202 18340485573800440138
9709674 26 18334852805606528966

> <PUBCHEM_SHAPE_MULTIPOLES>
343.37
8.69
2.48
1.21
2.97
1.42
0.26
-1.25
1.36
-0.51
-0.27
-0.93
-0.08
1.17

> <PUBCHEM_SHAPE_SELFOVERLAP>
654.72

> <PUBCHEM_SHAPE_VOLUME>
212

> <PUBCHEM_COORDINATE_TYPE>
2
5
10

$$$$

