170569
  -OEChem-07051213113D

 46 49  0     0  0  0  0  0  0999 V2000
   -1.5309    2.2486    0.8970 O   0  0  0  0  0  0  0  0  0  0  0  0
   -5.6118   -1.0896   -0.5732 O   0  0  0  0  0  0  0  0  0  0  0  0
   -6.1482    1.0895    0.3046 O   0  0  0  0  0  0  0  0  0  0  0  0
   -2.9520   -2.0395   -0.8960 O   0  0  0  0  0  0  0  0  0  0  0  0
   -0.4476   -1.4159   -0.5438 O   0  0  0  0  0  0  0  0  0  0  0  0
    4.4206   -0.8991    2.2011 O   0  0  0  0  0  0  0  0  0  0  0  0
    4.3910    0.8673   -2.2503 O   0  0  0  0  0  0  0  0  0  0  0  0
    5.7733   -0.2527   -0.1277 O   0  0  0  0  0  0  0  0  0  0  0  0
   -2.1816    0.0834   -0.0075 C   0  0  0  0  0  0  0  0  0  0  0  0
   -2.4950    1.3539    0.5051 C   0  0  0  0  0  0  0  0  0  0  0  0
   -3.1945   -0.8017   -0.3948 C   0  0  0  0  0  0  0  0  0  0  0  0
   -4.4993   -0.3735   -0.2524 C   0  0  0  0  0  0  0  0  0  0  0  0
    0.2425    0.7045    0.2889 C   0  0  0  0  0  0  0  0  0  0  0  0
   -4.8060    0.8709    0.2494 C   0  0  0  0  0  0  0  0  0  0  0  0
   -0.7650   -0.3084   -0.1293 C   0  0  0  0  0  0  0  0  0  0  0  0
   -3.8256    1.7606    0.6383 C   0  0  0  0  0  0  0  0  0  0  0  0
    1.6891    0.4540    0.1799 C   0  0  0  0  0  0  0  0  0  0  0  0
   -0.2169    1.8748    0.7564 C   0  0  0  0  0  0  0  0  0  0  0  0
   -6.6524   -0.1563   -0.2183 C   0  0  0  0  0  0  0  0  0  0  0  0
    2.3699    0.7805   -0.9947 C   0  0  0  0  0  0  0  0  0  0  0  0
    2.3849   -0.1105    1.2510 C   0  0  0  0  0  0  0  0  0  0  0  0
    3.7556   -0.3476    1.1477 C   0  0  0  0  0  0  0  0  0  0  0  0
    3.7406    0.5432   -1.0979 C   0  0  0  0  0  0  0  0  0  0  0  0
    4.4335   -0.0207   -0.0266 C   0  0  0  0  0  0  0  0  0  0  0  0
   -3.4850   -3.1518   -0.1755 C   0  0  0  0  0  0  0  0  0  0  0  0
    4.5013   -2.3224    2.2431 C   0  0  0  0  0  0  0  0  0  0  0  0
    4.4651   -0.1397   -3.2577 C   0  0  0  0  0  0  0  0  0  0  0  0
    6.6446    0.7981    0.2832 C   0  0  0  0  0  0  0  0  0  0  0  0
   -4.0797    2.7385    1.0325 H   0  0  0  0  0  0  0  0  0  0  0  0
    0.4242    2.6841    1.0842 H   0  0  0  0  0  0  0  0  0  0  0  0
   -7.2960   -0.6197    0.5383 H   0  0  0  0  0  0  0  0  0  0  0  0
   -7.2535    0.0550   -1.1102 H   0  0  0  0  0  0  0  0  0  0  0  0
    1.8372    1.2207   -1.8350 H   0  0  0  0  0  0  0  0  0  0  0  0
    1.8639   -0.3687    2.1706 H   0  0  0  0  0  0  0  0  0  0  0  0
   -2.8239   -4.0074   -0.3411 H   0  0  0  0  0  0  0  0  0  0  0  0
   -4.4762   -3.4085   -0.5593 H   0  0  0  0  0  0  0  0  0  0  0  0
   -3.5302   -2.9565    0.9016 H   0  0  0  0  0  0  0  0  0  0  0  0
    3.5006   -2.7613    2.3074 H   0  0  0  0  0  0  0  0  0  0  0  0
    5.0663   -2.6073    3.1348 H   0  0  0  0  0  0  0  0  0  0  0  0
    5.0237   -2.7051    1.3607 H   0  0  0  0  0  0  0  0  0  0  0  0
    3.4619   -0.4200   -3.5939 H   0  0  0  0  0  0  0  0  0  0  0  0
    4.9961   -1.0208   -2.8837 H   0  0  0  0  0  0  0  0  0  0  0  0
    5.0185    0.2670   -4.1086 H   0  0  0  0  0  0  0  0  0  0  0  0
    6.4941    1.0319    1.3419 H   0  0  0  0  0  0  0  0  0  0  0  0
    6.4829    1.6933   -0.3255 H   0  0  0  0  0  0  0  0  0  0  0  0
    7.6757    0.4624    0.1431 H   0  0  0  0  0  0  0  0  0  0  0  0
  1 10  1  0  0  0  0
  1 18  1  0  0  0  0
  2 12  1  0  0  0  0
  2 19  1  0  0  0  0
  3 14  1  0  0  0  0
  3 19  1  0  0  0  0
  4 11  1  0  0  0  0
  4 25  1  0  0  0  0
  5 15  2  0  0  0  0
  6 22  1  0  0  0  0
  6 26  1  0  0  0  0
  7 23  1  0  0  0  0
  7 27  1  0  0  0  0
  8 24  1  0  0  0  0
  8 28  1  0  0  0  0
  9 10  1  0  0  0  0
  9 11  2  0  0  0  0
  9 15  1  0  0  0  0
 10 16  2  0  0  0  0
 11 12  1  0  0  0  0
 12 14  2  0  0  0  0
 13 15  1  0  0  0  0
 13 17  1  0  0  0  0
 13 18  2  0  0  0  0
 14 16  1  0  0  0  0
 16 29  1  0  0  0  0
 17 20  2  0  0  0  0
 17 21  1  0  0  0  0
 18 30  1  0  0  0  0
 19 31  1  0  0  0  0
 19 32  1  0  0  0  0
 20 23  1  0  0  0  0
 20 33  1  0  0  0  0
 21 22  2  0  0  0  0
 21 34  1  0  0  0  0
 22 24  1  0  0  0  0
 23 24  2  0  0  0  0
 25 35  1  0  0  0  0
 25 36  1  0  0  0  0
 25 37  1  0  0  0  0
 26 38  1  0  0  0  0
 26 39  1  0  0  0  0
 26 40  1  0  0  0  0
 27 41  1  0  0  0  0
 27 42  1  0  0  0  0
 27 43  1  0  0  0  0
 28 44  1  0  0  0  0
 28 45  1  0  0  0  0
 28 46  1  0  0  0  0
M  END
> <PUBCHEM_COMPOUND_CID>
170569

> <PUBCHEM_CONFORMER_RMSD>
0.8

> <PUBCHEM_CONFORMER_DIVERSEORDER>
1
5
4
3
2

> <PUBCHEM_MMFF94_PARTIAL_CHARGES>
32
1 -0.16
10 0.08
11 0.08
12 0.08
13 -0.01
14 0.08
15 0.47
16 -0.15
17 0.03
18 -0.07
19 0.56
2 -0.36
20 -0.15
21 -0.15
22 0.08
23 0.08
24 0.08
25 0.28
26 0.28
27 0.28
28 0.28
29 0.15
3 -0.36
30 0.15
33 0.15
34 0.15
4 -0.36
5 -0.57
6 -0.36
7 -0.36
8 -0.36
9 0.09

> <PUBCHEM_EFFECTIVE_ROTOR_COUNT>
5.6

> <PUBCHEM_PHARMACOPHORE_FEATURES>
12
1 1 acceptor
1 2 acceptor
1 3 acceptor
1 4 acceptor
1 5 acceptor
1 6 acceptor
1 7 acceptor
1 8 acceptor
5 2 3 12 14 19 rings
6 1 9 10 13 15 18 rings
6 17 20 21 22 23 24 rings
6 9 10 11 12 14 16 rings

> <PUBCHEM_HEAVY_ATOM_COUNT>
28

> <PUBCHEM_ATOM_DEF_STEREO_COUNT>
0

> <PUBCHEM_ATOM_UDEF_STEREO_COUNT>
0

> <PUBCHEM_BOND_DEF_STEREO_COUNT>
0

> <PUBCHEM_BOND_UDEF_STEREO_COUNT>
0

> <PUBCHEM_ISOTOPIC_ATOM_COUNT>
0

> <PUBCHEM_COMPONENT_COUNT>
1

> <PUBCHEM_CACTVS_TAUTO_COUNT>
1

> <PUBCHEM_CONFORMER_ID>
00029A4900000001

> <PUBCHEM_MMFF94_ENERGY>
127.2344

> <PUBCHEM_FEATURE_SELFOVERLAP>
61.103

> <PUBCHEM_SHAPE_FINGERPRINT>
10 15 17168157715503245346
10554248 39 18130518534462400751
11059845 2 17470459890169656336
11135609 149 16341762684175598858
11315181 36 17095520673925547801
11796584 16 18334573508215251566
12107183 9 17624144101739621848
12236239 1 18272934938133604792
12516196 113 17385723582084611320
12616971 3 17561083583739356926
12730499 353 15864073174524158828
12788726 201 18410853308513473841
13140716 1 18116159870534106161
13402501 40 17458053885207681527
13533116 47 18130232652680205362
13782708 43 16588021342260521191
13862211 1 18261402131079727811
14294032 229 18121204644637164017
14386348 63 17095239216028420788
14910302 57 18115857654448316540
15131766 46 17058918962608119533
15183329 4 18412820287813361861
15320294 125 18270140005193446226
17349148 13 18410578413273289313
1813 80 17487058014776399090
20511986 3 18201734950153859168
20645477 70 16487259897994894362
21033648 29 16298394586162179233
21033650 10 18192968612992495696
21065201 7 17967525822332100268
21267235 1 18261392201310537803
22061861 79 16271930440735320035
23366157 5 18051984619089314225
23522609 53 18127384904801637237
23557571 272 17676203597929319800
23559900 14 17967527948346504868
23569914 152 14614387057334736059
239999 70 17675927586667649480
3004659 81 18410572877292806876
335352 9 18261397728986396901
3383291 50 18041561339701157551
34797466 226 17821723910384011236
4073 2 18200313196088928066
5104073 3 18114747006792943489
5281201 14 15913052053443369942
7226269 152 18040154037478087969
86090 222 16371825423015691134

> <PUBCHEM_SHAPE_MULTIPOLES>
529.27
15.82
2.1
1.8
1.41
1.25
-0.94
1.12
-1.01
1.5
0.53
-3.9
0.3
-2.67

> <PUBCHEM_SHAPE_SELFOVERLAP>
1173.746

> <PUBCHEM_SHAPE_VOLUME>
284.4

> <PUBCHEM_COORDINATE_TYPE>
2
5
10

$$$$

