444331
  -OEChem-07051212513D

 38 40  0     1  0  0  0  0  0999 V2000
   -1.0743   -3.4885    1.8318 S   0  0  0  0  0  0  0  0  0  0  0  0
   -3.7803   -2.3784    0.3529 S   0  0  0  0  0  0  0  0  0  0  0  0
   -3.2255    2.4150    0.4245 P   0  0  0  0  0  0  0  0  0  0  0  0
   -0.7246   -0.4175   -1.4977 O   0  0  0  0  0  0  0  0  0  0  0  0
   -2.4848    1.0314    0.0212 O   0  0  0  0  0  0  0  0  0  0  0  0
    2.6121    0.2439    2.6367 O   0  0  0  0  0  0  0  0  0  0  0  0
   -4.7933    2.0189    0.4430 O   0  0  0  0  0  0  0  0  0  0  0  0
   -3.0834    3.3077   -0.9164 O   0  0  0  0  0  0  0  0  0  0  0  0
   -2.7131    3.0654    1.6762 O   0  0  0  0  0  0  0  0  0  0  0  0
    1.0110   -1.1320    0.8419 N   0  0  0  0  0  0  0  0  0  0  0  0
    1.5641   -0.8595   -1.8237 N   0  0  0  0  0  0  0  0  0  0  0  0
    3.4637    0.5445   -1.2366 N   0  0  0  0  0  0  0  0  0  0  0  0
    3.9784    1.1001    1.0003 N   0  0  0  0  0  0  0  0  0  0  0  0
    5.2711    1.8968   -0.7961 N   0  0  0  0  0  0  0  0  0  0  0  0
    0.3244   -2.0515   -0.0661 C   0  0  2  0  0  0  0  0  0  0  0  0
    0.2691   -1.4383   -1.4818 C   0  0  1  0  0  0  0  0  0  0  0  0
   -2.0581   -0.9120   -1.3022 C   0  0  1  0  0  0  0  0  0  0  0  0
   -1.0522   -2.3723    0.4758 C   0  0  0  0  0  0  0  0  0  0  0  0
   -2.1631   -1.8804   -0.1235 C   0  0  0  0  0  0  0  0  0  0  0  0
    2.3739   -0.2209   -0.8948 C   0  0  0  0  0  0  0  0  0  0  0  0
    2.0659   -0.3529    0.4151 C   0  0  0  0  0  0  0  0  0  0  0  0
   -2.9071    0.3532   -1.1457 C   0  0  0  0  0  0  0  0  0  0  0  0
    2.9010    0.3516    1.4473 C   0  0  0  0  0  0  0  0  0  0  0  0
    4.2250    1.1756   -0.2819 C   0  0  0  0  0  0  0  0  0  0  0  0
    0.9262   -2.9688   -0.1328 H   0  0  0  0  0  0  0  0  0  0  0  0
    0.0128   -2.1986   -2.2302 H   0  0  0  0  0  0  0  0  0  0  0  0
   -2.3606   -1.4314   -2.2205 H   0  0  0  0  0  0  0  0  0  0  0  0
    0.8905   -1.2398    1.8439 H   0  0  0  0  0  0  0  0  0  0  0  0
    1.7834   -0.6948   -2.8004 H   0  0  0  0  0  0  0  0  0  0  0  0
   -3.9753    0.1255   -1.0886 H   0  0  0  0  0  0  0  0  0  0  0  0
   -2.7435    1.0097   -2.0075 H   0  0  0  0  0  0  0  0  0  0  0  0
    3.6754    0.6277   -2.2244 H   0  0  0  0  0  0  0  0  0  0  0  0
    0.2485   -3.6079    2.0179 H   0  0  0  0  0  0  0  0  0  0  0  0
   -3.4480   -3.2071    1.3536 H   0  0  0  0  0  0  0  0  0  0  0  0
    5.9046    2.4073   -0.1906 H   0  0  0  0  0  0  0  0  0  0  0  0
    5.4433    1.9409   -1.7946 H   0  0  0  0  0  0  0  0  0  0  0  0
   -5.4484    2.6880    0.7349 H   0  0  0  0  0  0  0  0  0  0  0  0
   -3.3795    4.2426   -0.8978 H   0  0  0  0  0  0  0  0  0  0  0  0
  1 18  1  0  0  0  0
  1 33  1  0  0  0  0
  2 19  1  0  0  0  0
  2 34  1  0  0  0  0
  3  5  1  0  0  0  0
  3  7  1  0  0  0  0
  3  8  1  0  0  0  0
  3  9  2  0  0  0  0
  4 16  1  0  0  0  0
  4 17  1  0  0  0  0
  5 22  1  0  0  0  0
  6 23  2  0  0  0  0
  7 37  1  0  0  0  0
  8 38  1  0  0  0  0
 10 15  1  0  0  0  0
 10 21  1  0  0  0  0
 10 28  1  0  0  0  0
 11 16  1  0  0  0  0
 11 20  1  0  0  0  0
 11 29  1  0  0  0  0
 12 20  1  0  0  0  0
 12 24  1  0  0  0  0
 12 32  1  0  0  0  0
 13 23  1  0  0  0  0
 13 24  2  0  0  0  0
 14 24  1  0  0  0  0
 14 35  1  0  0  0  0
 14 36  1  0  0  0  0
 15 16  1  0  0  0  0
 15 18  1  0  0  0  0
 15 25  1  0  0  0  0
 16 26  1  0  0  0  0
 17 19  1  0  0  0  0
 17 22  1  0  0  0  0
 17 27  1  0  0  0  0
 18 19  2  0  0  0  0
 20 21  2  0  0  0  0
 21 23  1  0  0  0  0
 22 30  1  0  0  0  0
 22 31  1  0  0  0  0
M  END
> <PUBCHEM_COMPOUND_CID>
444331

> <PUBCHEM_CONFORMER_RMSD>
0.6

> <PUBCHEM_CONFORMER_DIVERSEORDER>
1
6
11
12
10
9
15
14
2
13
5
7
3
8
4

> <PUBCHEM_MMFF94_PARTIAL_CHARGES>
33
1 -0.28
10 -0.87
11 -0.87
12 -0.55
13 -0.66
14 -0.85
15 0.51
16 0.65
17 0.42
18 -0.04
19 -0.04
2 -0.28
20 0.2
21 0.11
22 0.28
23 0.77
24 0.55
28 0.4
29 0.4
3 1.51
32 0.4
33 0.18
34 0.18
35 0.4
36 0.4
37 0.5
38 0.5
4 -0.56
5 -0.55
6 -0.57
7 -0.77
8 -0.77
9 -0.7

> <PUBCHEM_EFFECTIVE_ROTOR_COUNT>
3.8

> <PUBCHEM_PHARMACOPHORE_FEATURES>
16
1 10 cation
1 10 donor
1 11 cation
1 11 donor
1 12 donor
1 13 donor
1 14 donor
1 4 acceptor
1 6 acceptor
1 7 acceptor
1 8 acceptor
1 9 acceptor
4 3 7 8 9 anion
6 10 11 15 16 20 21 rings
6 12 13 20 21 23 24 rings
6 4 15 16 17 18 19 rings

> <PUBCHEM_HEAVY_ATOM_COUNT>
24

> <PUBCHEM_ATOM_DEF_STEREO_COUNT>
3

> <PUBCHEM_ATOM_UDEF_STEREO_COUNT>
0

> <PUBCHEM_BOND_DEF_STEREO_COUNT>
0

> <PUBCHEM_BOND_UDEF_STEREO_COUNT>
0

> <PUBCHEM_ISOTOPIC_ATOM_COUNT>
0

> <PUBCHEM_COMPONENT_COUNT>
1

> <PUBCHEM_CACTVS_TAUTO_COUNT>
69

> <PUBCHEM_CONFORMER_ID>
0006C7AB00000001

> <PUBCHEM_MMFF94_ENERGY>
33.4276

> <PUBCHEM_FEATURE_SELFOVERLAP>
81.487

> <PUBCHEM_SHAPE_FINGERPRINT>
10366900 7 18194127308858192930
10498660 4 17968388930359823037
10670039 82 18408604734542104340
11221954 11 18113905991291604569
11552529 35 17985553243367586042
11595378 159 18201717340946032451
11640471 11 18201733880485319883
12156800 1 16160962139861636113
12596602 18 17560241306039626466
12633257 1 18058467550131130002
12788726 201 18269276772785459499
13140716 1 18129382768646764059
13764800 53 18410294683602590471
13965767 371 17702948191513939613
14468879 13 18040155115113763927
14787075 74 16332992596679103878
20510252 161 18271247119055312575
20600515 1 17842823431373970431
21427221 339 17773895236290397288
21524375 3 18191025818747805847
22182937 141 18335413582501735601
23503958 25 18041284257610177744
23557571 272 18264763273058251943
238 59 16588308336212385548
427121 178 18268137837636860523
469060 322 18270664378277148763
474 4 18268153243695126813
7808743 9 18410853269742891892
9981440 41 18260557705622601474

> <PUBCHEM_SHAPE_MULTIPOLES>
445.34
8.38
3.78
1.86
5.68
1.04
0.46
6.24
0.51
-5.37
1.51
0.69
-0.19
-0.27

> <PUBCHEM_SHAPE_SELFOVERLAP>
916.995

> <PUBCHEM_SHAPE_VOLUME>
257.7

> <PUBCHEM_COORDINATE_TYPE>
2
5
10

$$$$

