12726
  -OEChem-06261207182D

 27 26  0     1  0  0  0  0  0999 V2000
    4.5981    0.7500    0.0000 Hg  0  0  0  0  0  0  0  0  0  0  0  0
    3.7320    0.2500    0.0000 C   0  0  3  0  0  0  0  0  0  0  0  0
    5.4641    0.2500    0.0000 C   0  0  3  0  0  0  0  0  0  0  0  0
    2.8660    0.7500    0.0000 C   0  0  0  0  0  0  0  0  0  0  0  0
    6.3301    0.7500    0.0000 C   0  0  0  0  0  0  0  0  0  0  0  0
    3.7320   -0.7500    0.0000 C   0  0  0  0  0  0  0  0  0  0  0  0
    5.4641   -0.7500    0.0000 C   0  0  0  0  0  0  0  0  0  0  0  0
    2.0000    0.2500    0.0000 C   0  0  0  0  0  0  0  0  0  0  0  0
    7.1962    0.2500    0.0000 C   0  0  0  0  0  0  0  0  0  0  0  0
    4.2690   -0.0600    0.0000 H   0  0  0  0  0  0  0  0  0  0  0  0
    4.9272   -0.0600    0.0000 H   0  0  0  0  0  0  0  0  0  0  0  0
    6.7287    1.2250    0.0000 H   0  0  0  0  0  0  0  0  0  0  0  0
    5.9316    1.2250    0.0000 H   0  0  0  0  0  0  0  0  0  0  0  0
    3.2646    1.2250    0.0000 H   0  0  0  0  0  0  0  0  0  0  0  0
    2.4675    1.2250    0.0000 H   0  0  0  0  0  0  0  0  0  0  0  0
    3.1120   -0.7500    0.0000 H   0  0  0  0  0  0  0  0  0  0  0  0
    3.7320   -1.3700    0.0000 H   0  0  0  0  0  0  0  0  0  0  0  0
    4.3520   -0.7500    0.0000 H   0  0  0  0  0  0  0  0  0  0  0  0
    4.8441   -0.7500    0.0000 H   0  0  0  0  0  0  0  0  0  0  0  0
    5.4641   -1.3700    0.0000 H   0  0  0  0  0  0  0  0  0  0  0  0
    6.0841   -0.7500    0.0000 H   0  0  0  0  0  0  0  0  0  0  0  0
    1.6900    0.7869    0.0000 H   0  0  0  0  0  0  0  0  0  0  0  0
    1.4631   -0.0600    0.0000 H   0  0  0  0  0  0  0  0  0  0  0  0
    2.3100   -0.2869    0.0000 H   0  0  0  0  0  0  0  0  0  0  0  0
    6.8862   -0.2869    0.0000 H   0  0  0  0  0  0  0  0  0  0  0  0
    7.7331   -0.0600    0.0000 H   0  0  0  0  0  0  0  0  0  0  0  0
    7.5062    0.7869    0.0000 H   0  0  0  0  0  0  0  0  0  0  0  0
  1  2  1  0  0  0  0
  1  3  1  0  0  0  0
  2  4  1  0  0  0  0
  2  6  1  0  0  0  0
  2 10  1  0  0  0  0
  3  5  1  0  0  0  0
  3  7  1  0  0  0  0
  3 11  1  0  0  0  0
  4  8  1  0  0  0  0
  4 14  1  0  0  0  0
  4 15  1  0  0  0  0
  5  9  1  0  0  0  0
  5 12  1  0  0  0  0
  5 13  1  0  0  0  0
  6 16  1  0  0  0  0
  6 17  1  0  0  0  0
  6 18  1  0  0  0  0
  7 19  1  0  0  0  0
  7 20  1  0  0  0  0
  7 21  1  0  0  0  0
  8 22  1  0  0  0  0
  8 23  1  0  0  0  0
  8 24  1  0  0  0  0
  9 25  1  0  0  0  0
  9 26  1  0  0  0  0
  9 27  1  0  0  0  0
M  END
> <PUBCHEM_COMPOUND_CID>
12726

> <PUBCHEM_COMPOUND_CANONICALIZED>
1

> <PUBCHEM_CACTVS_COMPLEXITY>
53.6

> <PUBCHEM_CACTVS_HBOND_ACCEPTOR>
0

> <PUBCHEM_CACTVS_HBOND_DONOR>
0

> <PUBCHEM_CACTVS_ROTATABLE_BOND>
2

> <PUBCHEM_CACTVS_SUBSKEYS>
AAADceBwAAAAAAAAAAAAAQAAAAAAAAAAAAAAAAAAAAAAAAAAAAAAGAAAAAAACACAAAACAAAAAAAAAAAAAAAAAAAAAAAAAAAAAAAAAAAAAAAAAAAAAAAAAAAAAAAAAAAAAAAAAAAAAAAAAAAAAAAAAAAAAA==

> <PUBCHEM_IUPAC_OPENEYE_NAME>
disec-butylmercury

> <PUBCHEM_IUPAC_CAS_NAME>
di(butan-2-yl)mercury

> <PUBCHEM_IUPAC_NAME>
di(butan-2-yl)mercury

> <PUBCHEM_IUPAC_SYSTEMATIC_NAME>
di(butan-2-yl)mercury

> <PUBCHEM_IUPAC_TRADITIONAL_NAME>
disec-butylmercury

> <PUBCHEM_IUPAC_INCHI>
InChI=1S/2C4H9.Hg/c2*1-3-4-2;/h2*3H,4H2,1-2H3;

> <PUBCHEM_IUPAC_INCHIKEY>
WMBMHYBGXVKXNB-UHFFFAOYSA-N

> <PUBCHEM_EXACT_MASS>
316.111494

> <PUBCHEM_MOLECULAR_FORMULA>
C8H18Hg

> <PUBCHEM_MOLECULAR_WEIGHT>
314.81852

> <PUBCHEM_OPENEYE_CAN_SMILES>
CCC(C)[Hg]C(C)CC

> <PUBCHEM_OPENEYE_ISO_SMILES>
CCC(C)[Hg]C(C)CC

> <PUBCHEM_CACTVS_TPSA>
0

> <PUBCHEM_MONOISOTOPIC_WEIGHT>
316.111494

> <PUBCHEM_TOTAL_CHARGE>
0

> <PUBCHEM_HEAVY_ATOM_COUNT>
9

> <PUBCHEM_ATOM_DEF_STEREO_COUNT>
0

> <PUBCHEM_ATOM_UDEF_STEREO_COUNT>
2

> <PUBCHEM_BOND_DEF_STEREO_COUNT>
0

> <PUBCHEM_BOND_UDEF_STEREO_COUNT>
0

> <PUBCHEM_ISOTOPIC_ATOM_COUNT>
0

> <PUBCHEM_COMPONENT_COUNT>
1

> <PUBCHEM_CACTVS_TAUTO_COUNT>
1

> <PUBCHEM_COORDINATE_TYPE>
1
5
255

> <PUBCHEM_BONDANNOTATIONS>
2  6  3
3  7  3

$$$$

