46173967
  -OEChem-07051213102D

 57 60  0     1  0  0  0  0  0999 V2000
    5.9194   -0.4983    0.0000 O   0  0  0  0  0  0  0  0  0  0  0  0
    7.9664    0.5379    0.0000 O   0  0  0  0  0  0  0  0  0  0  0  0
    6.1574    1.8522    0.0000 O   0  0  0  0  0  0  0  0  0  0  0  0
    5.2304   -1.0009    0.0000 O   0  0  0  0  0  0  0  0  0  0  0  0
    5.6255   -2.2535    0.0000 O   0  0  0  0  0  0  0  0  0  0  0  0
    4.7274    0.9223    0.0000 O   0  0  0  0  0  0  0  0  0  0  0  0
    2.1289    2.4946    0.0000 O   0  0  0  0  0  0  0  0  0  0  0  0
    6.3484   -0.6377    0.0000 C   0  0  2  0  0  0  0  0  0  0  0  0
    6.8484    0.9012    0.0000 C   0  0  1  0  0  0  0  0  0  0  0  0
    7.1574   -0.0499    0.0000 C   0  0  2  0  0  0  0  0  0  0  0  0
    5.8484    0.9012    0.0000 C   0  0  2  0  0  0  0  0  0  0  0  0
    5.5394   -0.0499    0.0000 C   0  0  1  0  0  0  0  0  0  0  0  0
    6.4413   -1.6751    0.0000 C   0  0  1  0  0  0  0  0  0  0  0  0
    8.1154   -0.4588    0.0000 C   0  0  0  0  0  0  0  0  0  0  0  0
    5.0426    1.4834    0.0000 C   0  0  0  0  0  0  0  0  0  0  0  0
    6.4194    1.0406    0.0000 C   0  0  0  0  0  0  0  0  0  0  0  0
    4.5453   -0.0473    0.0000 C   0  0  0  0  0  0  0  0  0  0  0  0
    7.3896   -2.1061    0.0000 C   0  0  2  0  0  0  0  0  0  0  0  0
    7.1574    1.8522    0.0000 C   0  0  0  0  0  0  0  0  0  0  0  0
    4.2389    0.8984    0.0000 C   0  0  0  0  0  0  0  0  0  0  0  0
    8.2323   -1.4939    0.0000 C   0  0  0  0  0  0  0  0  0  0  0  0
    5.6104    0.4528    0.0000 C   0  0  0  0  0  0  0  0  0  0  0  0
    3.2879    1.2074    0.0000 C   0  0  3  0  0  0  0  0  0  0  0  0
    3.9561   -0.8553    0.0000 C   0  0  0  0  0  0  0  0  0  0  0  0
    7.4903   -3.1010    0.0000 C   0  0  0  0  0  0  0  0  0  0  0  0
    3.0800    2.1856    0.0000 C   0  0  0  0  0  0  0  0  0  0  0  0
    2.5447    0.5383    0.0000 C   0  0  0  0  0  0  0  0  0  0  0  0
    6.5002   -2.2923    0.0000 H   0  0  0  0  0  0  0  0  0  0  0  0
    8.7343   -0.4957    0.0000 H   0  0  0  0  0  0  0  0  0  0  0  0
    8.2577    0.1446    0.0000 H   0  0  0  0  0  0  0  0  0  0  0  0
    5.4566    1.9450    0.0000 H   0  0  0  0  0  0  0  0  0  0  0  0
    4.6271    1.9436    0.0000 H   0  0  0  0  0  0  0  0  0  0  0  0
    6.7294    1.5775    0.0000 H   0  0  0  0  0  0  0  0  0  0  0  0
    5.9587    1.4554    0.0000 H   0  0  0  0  0  0  0  0  0  0  0  0
    7.9555   -2.3594    0.0000 H   0  0  0  0  0  0  0  0  0  0  0  0
    7.7471    1.6607    0.0000 H   0  0  0  0  0  0  0  0  0  0  0  0
    7.3490    2.4419    0.0000 H   0  0  0  0  0  0  0  0  0  0  0  0
    6.5678    2.0438    0.0000 H   0  0  0  0  0  0  0  0  0  0  0  0
    8.5055   -2.0504    0.0000 H   0  0  0  0  0  0  0  0  0  0  0  0
    8.8274   -1.3199    0.0000 H   0  0  0  0  0  0  0  0  0  0  0  0
    8.5328    0.2857    0.0000 H   0  0  0  0  0  0  0  0  0  0  0  0
    5.7425    2.3130    0.0000 H   0  0  0  0  0  0  0  0  0  0  0  0
    4.6239   -1.1298    0.0000 H   0  0  0  0  0  0  0  0  0  0  0  0
    3.4168    0.6010    0.0000 H   0  0  0  0  0  0  0  0  0  0  0  0
    3.4552   -0.4900    0.0000 H   0  0  0  0  0  0  0  0  0  0  0  0
    3.5908   -1.3562    0.0000 H   0  0  0  0  0  0  0  0  0  0  0  0
    4.4571   -1.2206    0.0000 H   0  0  0  0  0  0  0  0  0  0  0  0
    6.8734   -3.1635    0.0000 H   0  0  0  0  0  0  0  0  0  0  0  0
    7.5527   -3.7179    0.0000 H   0  0  0  0  0  0  0  0  0  0  0  0
    8.1071   -3.0386    0.0000 H   0  0  0  0  0  0  0  0  0  0  0  0
    5.6832   -2.8708    0.0000 H   0  0  0  0  0  0  0  0  0  0  0  0
    3.6996    2.2072    0.0000 H   0  0  0  0  0  0  0  0  0  0  0  0
    3.1662    2.7995    0.0000 H   0  0  0  0  0  0  0  0  0  0  0  0
    2.1299    0.9990    0.0000 H   0  0  0  0  0  0  0  0  0  0  0  0
    2.0840    0.1234    0.0000 H   0  0  0  0  0  0  0  0  0  0  0  0
    2.9596    0.0775    0.0000 H   0  0  0  0  0  0  0  0  0  0  0  0
    2.0000    3.1010    0.0000 H   0  0  0  0  0  0  0  0  0  0  0  0
  8  1  1  1  0  0  0
  1 22  1  0  0  0  0
 10  2  1  6  0  0  0
  2 41  1  0  0  0  0
 11  3  1  6  0  0  0
  3 42  1  0  0  0  0
 12  4  1  6  0  0  0
  4 43  1  0  0  0  0
 13  5  1  1  0  0  0
  5 51  1  0  0  0  0
  6 22  2  0  0  0  0
  7 26  1  0  0  0  0
  7 57  1  0  0  0  0
  8 10  1  0  0  0  0
  8 12  1  0  0  0  0
  8 13  1  0  0  0  0
  9 10  1  0  0  0  0
  9 11  1  0  0  0  0
  9 16  1  0  0  0  0
  9 19  1  6  0  0  0
 10 14  1  0  0  0  0
 11 12  1  0  0  0  0
 11 15  1  0  0  0  0
 12 17  1  0  0  0  0
 13 18  1  0  0  0  0
 13 28  1  0  0  0  0
 14 21  1  0  0  0  0
 14 29  1  0  0  0  0
 14 30  1  0  0  0  0
 15 20  1  0  0  0  0
 15 31  1  0  0  0  0
 15 32  1  0  0  0  0
 16 22  1  0  0  0  0
 16 33  1  0  0  0  0
 16 34  1  0  0  0  0
 17 20  2  0  0  0  0
 17 24  1  0  0  0  0
 18 21  1  0  0  0  0
 18 25  1  6  0  0  0
 18 35  1  0  0  0  0
 19 36  1  0  0  0  0
 19 37  1  0  0  0  0
 19 38  1  0  0  0  0
 20 23  1  0  0  0  0
 21 39  1  0  0  0  0
 21 40  1  0  0  0  0
 23 26  1  0  0  0  0
 23 27  1  0  0  0  0
 23 44  1  0  0  0  0
 24 45  1  0  0  0  0
 24 46  1  0  0  0  0
 24 47  1  0  0  0  0
 25 48  1  0  0  0  0
 25 49  1  0  0  0  0
 25 50  1  0  0  0  0
 26 52  1  0  0  0  0
 26 53  1  0  0  0  0
 27 54  1  0  0  0  0
 27 55  1  0  0  0  0
 27 56  1  0  0  0  0
M  END
> <PUBCHEM_COMPOUND_CID>
46173967

> <PUBCHEM_COMPOUND_CANONICALIZED>
1

> <PUBCHEM_CACTVS_COMPLEXITY>
749

> <PUBCHEM_CACTVS_HBOND_ACCEPTOR>
7

> <PUBCHEM_CACTVS_HBOND_DONOR>
5

> <PUBCHEM_CACTVS_ROTATABLE_BOND>
2

> <PUBCHEM_CACTVS_SUBSKEYS>
AAADceB4OAAAAAAAAAAAAAAAAAAAAYIAAAA0QAAABIAQAGCQAAAAGgAACAAAD1SggAICCAAABgCIAgDQCAAAAAAgAAAACAEAAAgBFBIAAAACUAAFwAALEAPK7PzPgAAAAAAAAADAAAYQADCAAYQADCAAAA==

> <PUBCHEM_IUPAC_INCHI>
InChI=1S/C20H30O7/c1-10-5-6-17(24)16(4)8-14(22)27-20(17,15(10)23)19(26)12(3)13(11(2)9-21)7-18(16,19)25/h10-11,15,21,23-26H,5-9H2,1-4H3/t10-,11?,15+,16-,17-,18+,19+,20+/m0/s1

> <PUBCHEM_IUPAC_INCHIKEY>
WIFHAKQJYHVTQK-TZKDRYALSA-N

> <PUBCHEM_XLOGP3_AA>
-1.6

> <PUBCHEM_EXACT_MASS>
382.199153

> <PUBCHEM_MOLECULAR_FORMULA>
C20H30O7

> <PUBCHEM_MOLECULAR_WEIGHT>
382.448

> <PUBCHEM_OPENEYE_CAN_SMILES>
CC1CCC2(C3(CC(=O)OC2(C1O)C4(C3(CC(=C4C)C(C)CO)O)O)C)O

> <PUBCHEM_OPENEYE_ISO_SMILES>
C[C@H]1CC[C@@]2([C@@]3(CC(=O)O[C@@]2([C@@H]1O)[C@@]4([C@]3(CC(=C4C)C(C)CO)O)O)C)O

> <PUBCHEM_CACTVS_TPSA>
127

> <PUBCHEM_MONOISOTOPIC_WEIGHT>
382.199153

> <PUBCHEM_TOTAL_CHARGE>
0

> <PUBCHEM_HEAVY_ATOM_COUNT>
27

> <PUBCHEM_ATOM_DEF_STEREO_COUNT>
7

> <PUBCHEM_ATOM_UDEF_STEREO_COUNT>
1

> <PUBCHEM_BOND_DEF_STEREO_COUNT>
0

> <PUBCHEM_BOND_UDEF_STEREO_COUNT>
0

> <PUBCHEM_ISOTOPIC_ATOM_COUNT>
0

> <PUBCHEM_COMPONENT_COUNT>
1

> <PUBCHEM_CACTVS_TAUTO_COUNT>
2

> <PUBCHEM_COORDINATE_TYPE>
1
5
255

> <PUBCHEM_BONDANNOTATIONS>
8  1  5
18  25  6
10  2  6
23  27  3
11  3  6
12  4  6
13  5  5
9  19  6

$$$$

