8943
  -OEChem-06261203152D

 25 24  0     0  0  0  0  0  0999 V2000
    8.8381    0.0000    0.0000 Na  0  3  0  0  0  0  0  0  0  0  0  0
    6.2400    3.5000    0.0000 O   0  0  0  0  0  0  0  0  0  0  0  0
    9.7041    3.5000    0.0000 O   0  0  0  0  0  0  0  0  0  0  0  0
    7.9721    0.5000    0.0000 O   0  5  0  0  0  0  0  0  0  0  0  0
    7.1060    2.0000    0.0000 N   0  0  0  0  0  0  0  0  0  0  0  0
    8.8381    2.0000    0.0000 N   0  0  0  0  0  0  0  0  0  0  0  0
    7.9721    3.5000    0.0000 C   0  0  0  0  0  0  0  0  0  0  0  0
    7.4721    4.3660    0.0000 C   0  0  0  0  0  0  0  0  0  0  0  0
    8.4721    4.3660    0.0000 C   0  0  0  0  0  0  0  0  0  0  0  0
    7.1060    3.0000    0.0000 C   0  0  0  0  0  0  0  0  0  0  0  0
    8.8381    3.0000    0.0000 C   0  0  0  0  0  0  0  0  0  0  0  0
    6.4721    4.3660    0.0000 C   0  0  0  0  0  0  0  0  0  0  0  0
    7.9721    5.2321    0.0000 C   0  0  0  0  0  0  0  0  0  0  0  0
    7.9721    1.5000    0.0000 C   0  0  0  0  0  0  0  0  0  0  0  0
    8.0547    4.5781    0.0000 H   0  0  0  0  0  0  0  0  0  0  0  0
    7.3644    4.9766    0.0000 H   0  0  0  0  0  0  0  0  0  0  0  0
    8.9470    3.9675    0.0000 H   0  0  0  0  0  0  0  0  0  0  0  0
    8.9470    4.7646    0.0000 H   0  0  0  0  0  0  0  0  0  0  0  0
    6.4721    4.9860    0.0000 H   0  0  0  0  0  0  0  0  0  0  0  0
    5.8521    4.3660    0.0000 H   0  0  0  0  0  0  0  0  0  0  0  0
    6.4721    3.7460    0.0000 H   0  0  0  0  0  0  0  0  0  0  0  0
    8.5090    5.5421    0.0000 H   0  0  0  0  0  0  0  0  0  0  0  0
    7.6621    5.7690    0.0000 H   0  0  0  0  0  0  0  0  0  0  0  0
    7.4351    4.9221    0.0000 H   0  0  0  0  0  0  0  0  0  0  0  0
    6.5691    1.6900    0.0000 H   0  0  0  0  0  0  0  0  0  0  0  0
  2 10  2  0  0  0  0
  3 11  2  0  0  0  0
  4 14  1  0  0  0  0
  5 10  1  0  0  0  0
  5 14  1  0  0  0  0
  5 25  1  0  0  0  0
  6 11  1  0  0  0  0
  6 14  2  0  0  0  0
  7  8  1  0  0  0  0
  7  9  1  0  0  0  0
  7 10  1  0  0  0  0
  7 11  1  0  0  0  0
  8 12  1  0  0  0  0
  8 15  1  0  0  0  0
  8 16  1  0  0  0  0
  9 13  1  0  0  0  0
  9 17  1  0  0  0  0
  9 18  1  0  0  0  0
 12 19  1  0  0  0  0
 12 20  1  0  0  0  0
 12 21  1  0  0  0  0
 13 22  1  0  0  0  0
 13 23  1  0  0  0  0
 13 24  1  0  0  0  0
M  CHG  2   1   1   4  -1
M  END
> <PUBCHEM_COMPOUND_CID>
8943

> <PUBCHEM_COMPOUND_CANONICALIZED>
1

> <PUBCHEM_CACTVS_COMPLEXITY>
279

> <PUBCHEM_CACTVS_HBOND_ACCEPTOR>
3

> <PUBCHEM_CACTVS_HBOND_DONOR>
1

> <PUBCHEM_CACTVS_ROTATABLE_BOND>
2

> <PUBCHEM_CACTVS_SUBSKEYS>
AAADccBzMCAAAAAAAAAAAAAAAAAAAAAAAAAgAAAAAAAAAAAAAAAAHgAQAAAADgCBgAADAALAAAAoAAEQNAAAAAEAAAABAAEAAAEAABoIyAAEAAAAAAAAAAAAAAALAAAAAAAAAAAAAAAAAAAAAAAAAAAAAA==

> <PUBCHEM_IUPAC_OPENEYE_NAME>
sodium 5,5-diethyl-4,6-dioxo-1H-pyrimidin-2-olate

> <PUBCHEM_IUPAC_CAS_NAME>
sodium 5,5-diethyl-4,6-dioxo-1H-pyrimidin-2-olate

> <PUBCHEM_IUPAC_NAME>
sodium 5,5-diethyl-4,6-dioxo-1H-pyrimidin-2-olate

> <PUBCHEM_IUPAC_SYSTEMATIC_NAME>
sodium 5,5-diethyl-4,6-bis(oxidanylidene)-1H-pyrimidin-2-olate

> <PUBCHEM_IUPAC_TRADITIONAL_NAME>
sodium 5,5-diethyl-4,6-diketo-1H-pyrimidin-2-olate

> <PUBCHEM_IUPAC_INCHI>
InChI=1S/C8H12N2O3.Na/c1-3-8(4-2)5(11)9-7(13)10-6(8)12;/h3-4H2,1-2H3,(H2,9,10,11,12,13);/q;+1/p-1

> <PUBCHEM_IUPAC_INCHIKEY>
RGHFKWPGWBFQLN-UHFFFAOYSA-M

> <PUBCHEM_EXACT_MASS>
206.066737

> <PUBCHEM_MOLECULAR_FORMULA>
C8H11N2NaO3

> <PUBCHEM_MOLECULAR_WEIGHT>
206.174309

> <PUBCHEM_OPENEYE_CAN_SMILES>
CCC1(C(=O)NC(=NC1=O)[O-])CC.[Na+]

> <PUBCHEM_OPENEYE_ISO_SMILES>
CCC1(C(=O)NC(=NC1=O)[O-])CC.[Na+]

> <PUBCHEM_CACTVS_TPSA>
81.6

> <PUBCHEM_MONOISOTOPIC_WEIGHT>
206.066737

> <PUBCHEM_TOTAL_CHARGE>
0

> <PUBCHEM_HEAVY_ATOM_COUNT>
14

> <PUBCHEM_ATOM_DEF_STEREO_COUNT>
0

> <PUBCHEM_ATOM_UDEF_STEREO_COUNT>
0

> <PUBCHEM_BOND_DEF_STEREO_COUNT>
0

> <PUBCHEM_BOND_UDEF_STEREO_COUNT>
0

> <PUBCHEM_ISOTOPIC_ATOM_COUNT>
0

> <PUBCHEM_COMPONENT_COUNT>
2

> <PUBCHEM_CACTVS_TAUTO_COUNT>
2

> <PUBCHEM_COORDINATE_TYPE>
1
5
255

$$$$

