440065
  -OEChem-07051212483D

 20 19  0     0  0  0  0  0  0999 V2000
    2.2706   -1.4400    0.0166 O   0  0  0  0  0  0  0  0  0  0  0  0
   -1.7021    1.6748    0.0058 O   0  0  0  0  0  0  0  0  0  0  0  0
   -3.9640    0.4398    0.0344 O   0  0  0  0  0  0  0  0  0  0  0  0
   -2.8903   -1.5787   -0.0042 O   0  0  0  0  0  0  0  0  0  0  0  0
    3.3148    0.6349    0.0005 N   0  0  0  0  0  0  0  0  0  0  0  0
    0.9109    0.5649   -0.0377 C   0  0  0  0  0  0  0  0  0  0  0  0
   -0.3246   -0.3303   -0.0430 C   0  0  0  0  0  0  0  0  0  0  0  0
    2.2168   -0.2134   -0.0033 C   0  0  0  0  0  0  0  0  0  0  0  0
   -1.6185    0.4556   -0.0066 C   0  0  0  0  0  0  0  0  0  0  0  0
    4.6776    0.1565    0.0291 C   0  0  0  0  0  0  0  0  0  0  0  0
   -2.8913   -0.3641    0.0084 C   0  0  0  0  0  0  0  0  0  0  0  0
    0.9121    1.2022   -0.9305 H   0  0  0  0  0  0  0  0  0  0  0  0
    0.8873    1.2277    0.8363 H   0  0  0  0  0  0  0  0  0  0  0  0
   -0.3046   -0.9910    0.8315 H   0  0  0  0  0  0  0  0  0  0  0  0
   -0.3251   -0.9532   -0.9447 H   0  0  0  0  0  0  0  0  0  0  0  0
    3.1676    1.6390   -0.0454 H   0  0  0  0  0  0  0  0  0  0  0  0
    5.0814    0.2149   -0.9847 H   0  0  0  0  0  0  0  0  0  0  0  0
    4.7245   -0.8753    0.3856 H   0  0  0  0  0  0  0  0  0  0  0  0
    5.2564    0.8063    0.6898 H   0  0  0  0  0  0  0  0  0  0  0  0
   -4.8056   -0.0641    0.0438 H   0  0  0  0  0  0  0  0  0  0  0  0
  1  8  2  0  0  0  0
  2  9  2  0  0  0  0
  3 11  1  0  0  0  0
  3 20  1  0  0  0  0
  4 11  2  0  0  0  0
  5  8  1  0  0  0  0
  5 10  1  0  0  0  0
  5 16  1  0  0  0  0
  6  7  1  0  0  0  0
  6  8  1  0  0  0  0
  6 12  1  0  0  0  0
  6 13  1  0  0  0  0
  7  9  1  0  0  0  0
  7 14  1  0  0  0  0
  7 15  1  0  0  0  0
  9 11  1  0  0  0  0
 10 17  1  0  0  0  0
 10 18  1  0  0  0  0
 10 19  1  0  0  0  0
M  END
> <PUBCHEM_COMPOUND_CID>
440065

> <PUBCHEM_CONFORMER_RMSD>
0.6

> <PUBCHEM_CONFORMER_DIVERSEORDER>
1
40
39
6
3
26
14
34
29
4
12
21
2
22
38
25
19
31
20
36
18
9
11
32
37
15
8
5
30
17
33
28
35
27
10
7
24
23
16
13

> <PUBCHEM_MMFF94_PARTIAL_CHARGES>
13
1 -0.57
10 0.3
11 0.72
16 0.37
2 -0.57
20 0.5
3 -0.65
4 -0.57
5 -0.73
6 0.06
7 0.06
8 0.57
9 0.51

> <PUBCHEM_EFFECTIVE_ROTOR_COUNT>
5

> <PUBCHEM_PHARMACOPHORE_FEATURES>
6
1 1 acceptor
1 2 acceptor
1 3 acceptor
1 4 acceptor
1 5 donor
3 3 4 11 anion

> <PUBCHEM_HEAVY_ATOM_COUNT>
11

> <PUBCHEM_ATOM_DEF_STEREO_COUNT>
0

> <PUBCHEM_ATOM_UDEF_STEREO_COUNT>
0

> <PUBCHEM_BOND_DEF_STEREO_COUNT>
0

> <PUBCHEM_BOND_UDEF_STEREO_COUNT>
0

> <PUBCHEM_ISOTOPIC_ATOM_COUNT>
0

> <PUBCHEM_COMPONENT_COUNT>
1

> <PUBCHEM_CACTVS_TAUTO_COUNT>
4

> <PUBCHEM_CONFORMER_ID>
0006B70100000001

> <PUBCHEM_MMFF94_ENERGY>
10.9807

> <PUBCHEM_FEATURE_SELFOVERLAP>
30.513

> <PUBCHEM_SHAPE_FINGERPRINT>
11062470 55 17632296769826490316
12932764 1 17168440327839258164
14325111 11 18410574019674713326
14445660 50 18261382356549208905
190213 19 17458340832189030376
20201158 50 18410855455838664266
20279233 1 18334289877201673743
20645477 70 18336832016683665215
20711985 327 17203323416778579780
20828058 44 18408887326067529514
22485316 2 18412548716725273626
23402539 116 18202009806680762806
3312278 4 18410854348016637835

> <PUBCHEM_SHAPE_MULTIPOLES>
197.92
7.84
1.25
0.57
3.7
0.12
0
0.12
-0.12
-0.55
0
0.04
0
-0.01

> <PUBCHEM_SHAPE_SELFOVERLAP>
379.152

> <PUBCHEM_SHAPE_VOLUME>
120.1

> <PUBCHEM_COORDINATE_TYPE>
2
5
10

$$$$

