53297431
  -OEChem-07051213142D

 55 57  0     1  0  0  0  0  0999 V2000
    5.0836    0.6942    0.0000 O   0  0  0  0  0  0  0  0  0  0  0  0
    4.5787    0.1675    0.0000 O   0  0  0  0  0  0  0  0  0  0  0  0
    7.1188   -0.3213    0.0000 O   0  0  0  0  0  0  0  0  0  0  0  0
    2.8660    0.1787    0.0000 O   0  0  0  0  0  0  0  0  0  0  0  0
    5.8496   -2.6942    0.0000 O   0  0  0  0  0  0  0  0  0  0  0  0
    7.9848   -1.7990    0.0000 O   0  0  0  0  0  0  0  0  0  0  0  0
    7.4969   -3.0126    0.0000 O   0  0  0  0  0  0  0  0  0  0  0  0
    5.4255    2.6117    0.0000 N   0  3  3  0  0  0  0  0  0  0  0  0
    5.4255    1.6340    0.0000 C   0  0  2  0  0  0  0  0  0  0  0  0
    4.5787    1.1452    0.0000 C   0  0  1  0  0  0  0  0  0  0  0  0
    4.4056    2.8561    0.0000 C   0  0  0  0  0  0  0  0  0  0  0  0
    3.8842    2.0740    0.0000 C   0  0  0  0  0  0  0  0  0  0  0  0
    6.3609    2.8778    0.0000 C   0  0  0  0  0  0  0  0  0  0  0  0
    6.2721    1.1452    0.0000 C   0  0  0  0  0  0  0  0  0  0  0  0
    5.4045    3.6114    0.0000 C   0  0  0  0  0  0  0  0  0  0  0  0
    6.9692    2.0740    0.0000 C   0  0  0  0  0  0  0  0  0  0  0  0
    6.2721    0.1675    0.0000 C   0  0  0  0  0  0  0  0  0  0  0  0
    3.7320   -0.3213    0.0000 C   0  0  0  0  0  0  0  0  0  0  0  0
    6.2721   -1.7878    0.0000 C   0  0  2  0  0  0  0  0  0  0  0  0
    5.4255   -1.2990    0.0000 C   0  0  1  0  0  0  0  0  0  0  0  0
    3.7320   -1.2990    0.0000 C   0  0  0  0  0  0  0  0  0  0  0  0
    4.5787   -1.7878    0.0000 C   0  0  0  0  0  0  0  0  0  0  0  0
    7.1188   -1.2990    0.0000 C   0  0  0  0  0  0  0  0  0  0  0  0
    6.5309   -2.7538    0.0000 C   0  0  0  0  0  0  0  0  0  0  0  0
    5.4255   -0.2990    0.0000 C   0  0  0  0  0  0  0  0  0  0  0  0
    2.8660   -1.7990    0.0000 C   0  0  0  0  0  0  0  0  0  0  0  0
    2.0000   -1.2990    0.0000 C   0  0  0  0  0  0  0  0  0  0  0  0
    3.7721    0.8769    0.0000 H   0  0  0  0  0  0  0  0  0  0  0  0
    4.6198    3.4379    0.0000 H   0  0  0  0  0  0  0  0  0  0  0  0
    3.8529    3.1371    0.0000 H   0  0  0  0  0  0  0  0  0  0  0  0
    3.4106    2.4741    0.0000 H   0  0  0  0  0  0  0  0  0  0  0  0
    3.4329    1.6488    0.0000 H   0  0  0  0  0  0  0  0  0  0  0  0
    6.8976    3.1881    0.0000 H   0  0  0  0  0  0  0  0  0  0  0  0
    6.1190    3.4487    0.0000 H   0  0  0  0  0  0  0  0  0  0  0  0
    6.0243    3.6245    0.0000 H   0  0  0  0  0  0  0  0  0  0  0  0
    5.3914    4.2313    0.0000 H   0  0  0  0  0  0  0  0  0  0  0  0
    4.7846    3.5984    0.0000 H   0  0  0  0  0  0  0  0  0  0  0  0
    7.5892    2.0752    0.0000 H   0  0  0  0  0  0  0  0  0  0  0  0
    5.6660    0.4822    0.0000 H   0  0  0  0  0  0  0  0  0  0  0  0
    5.6615    0.2752    0.0000 H   0  0  0  0  0  0  0  0  0  0  0  0
    6.0601   -0.4151    0.0000 H   0  0  0  0  0  0  0  0  0  0  0  0
    5.9624   -0.9890    0.0000 H   0  0  0  0  0  0  0  0  0  0  0  0
    4.1802   -2.2628    0.0000 H   0  0  0  0  0  0  0  0  0  0  0  0
    4.9772   -2.2628    0.0000 H   0  0  0  0  0  0  0  0  0  0  0  0
    5.9133   -2.8078    0.0000 H   0  0  0  0  0  0  0  0  0  0  0  0
    6.4769   -3.3714    0.0000 H   0  0  0  0  0  0  0  0  0  0  0  0
    6.0455   -0.2990    0.0000 H   0  0  0  0  0  0  0  0  0  0  0  0
    5.4254    0.3210    0.0000 H   0  0  0  0  0  0  0  0  0  0  0  0
    4.8055   -0.2990    0.0000 H   0  0  0  0  0  0  0  0  0  0  0  0
    2.8660   -2.4190    0.0000 H   0  0  0  0  0  0  0  0  0  0  0  0
    5.2319   -2.7482    0.0000 H   0  0  0  0  0  0  0  0  0  0  0  0
    2.3100   -0.7621    0.0000 H   0  0  0  0  0  0  0  0  0  0  0  0
    1.4631   -0.9890    0.0000 H   0  0  0  0  0  0  0  0  0  0  0  0
    1.6900   -1.8359    0.0000 H   0  0  0  0  0  0  0  0  0  0  0  0
    7.6573   -3.6114    0.0000 H   0  0  0  0  0  0  0  0  0  0  0  0
  9  1  1  1  0  0  0
  1 39  1  0  0  0  0
  2 10  1  0  0  0  0
  2 18  1  0  0  0  0
  3 17  1  0  0  0  0
  3 23  1  0  0  0  0
  4 18  2  0  0  0  0
 19  5  1  6  0  0  0
  5 51  1  0  0  0  0
  6 23  2  0  0  0  0
  7 24  1  0  0  0  0
  7 55  1  0  0  0  0
  8  9  1  0  0  0  0
  8 11  1  0  0  0  0
  8 13  1  0  0  0  0
  8 15  1  0  0  0  0
  9 10  1  0  0  0  0
  9 14  1  0  0  0  0
 10 12  1  0  0  0  0
 10 28  1  1  0  0  0
 11 12  1  0  0  0  0
 11 29  1  0  0  0  0
 11 30  1  0  0  0  0
 12 31  1  0  0  0  0
 12 32  1  0  0  0  0
 13 16  1  0  0  0  0
 13 33  1  0  0  0  0
 13 34  1  0  0  0  0
 14 16  2  0  0  0  0
 14 17  1  0  0  0  0
 15 35  1  0  0  0  0
 15 36  1  0  0  0  0
 15 37  1  0  0  0  0
 16 38  1  0  0  0  0
 17 40  1  0  0  0  0
 17 41  1  0  0  0  0
 18 21  1  0  0  0  0
 19 20  1  0  0  0  0
 19 23  1  0  0  0  0
 19 24  1  0  0  0  0
 20 22  1  0  0  0  0
 20 25  1  1  0  0  0
 20 42  1  0  0  0  0
 21 22  1  0  0  0  0
 21 26  2  0  0  0  0
 22 43  1  0  0  0  0
 22 44  1  0  0  0  0
 24 45  1  0  0  0  0
 24 46  1  0  0  0  0
 25 47  1  0  0  0  0
 25 48  1  0  0  0  0
 25 49  1  0  0  0  0
 26 27  1  0  0  0  0
 26 50  1  0  0  0  0
 27 52  1  0  0  0  0
 27 53  1  0  0  0  0
 27 54  1  0  0  0  0
M  CHG  1   8   1
M  END
> <PUBCHEM_COMPOUND_CID>
53297431

> <PUBCHEM_COMPOUND_CANONICALIZED>
1

> <PUBCHEM_CACTVS_COMPLEXITY>
717

> <PUBCHEM_CACTVS_HBOND_ACCEPTOR>
7

> <PUBCHEM_CACTVS_HBOND_DONOR>
3

> <PUBCHEM_CACTVS_ROTATABLE_BOND>
1

> <PUBCHEM_CACTVS_SUBSKEYS>
AAADceB6OAAAAAAAAAAAAAAAAAAAAWIAAAAAAAAAAAAQAAAAAAAAHgAACAAADVzhgAYCCAMABgCIAiDSCAKAAAAgAAAACAFIAEgDFBYAoQAHUAAH4ACbMYP4bBxOgAAAAAAAAAAAAAAAAAAAAAAAAAAAAA==

> <PUBCHEM_IUPAC_INCHI>
InChI=1S/C19H28NO7/c1-4-13-9-12(2)18(24,11-21)17(23)26-10-14-5-7-20(3)8-6-15(19(14,20)25)27-16(13)22/h4-5,12,15,21,24-25H,6-11H2,1-3H3/q+1/b13-4-/t12-,15-,18-,19+,20?/m1/s1

> <PUBCHEM_IUPAC_INCHIKEY>
CRWHRMSWJOLABX-NXWCFRFGSA-N

> <PUBCHEM_XLOGP3_AA>
-0.2

> <PUBCHEM_EXACT_MASS>
382.186577

> <PUBCHEM_MOLECULAR_FORMULA>
C19H28NO7+

> <PUBCHEM_MOLECULAR_WEIGHT>
382.42812

> <PUBCHEM_OPENEYE_CAN_SMILES>
CC=C1CC(C(C(=O)OCC2=CC[N+]3(C2(C(CC3)OC1=O)O)C)(CO)O)C

> <PUBCHEM_OPENEYE_ISO_SMILES>
C/C=C\1/C[C@H]([C@@](C(=O)OCC2=CC[N+]3([C@]2([C@@H](CC3)OC1=O)O)C)(CO)O)C

> <PUBCHEM_CACTVS_TPSA>
113

> <PUBCHEM_MONOISOTOPIC_WEIGHT>
382.186577

> <PUBCHEM_TOTAL_CHARGE>
1

> <PUBCHEM_HEAVY_ATOM_COUNT>
27

> <PUBCHEM_ATOM_DEF_STEREO_COUNT>
4

> <PUBCHEM_ATOM_UDEF_STEREO_COUNT>
1

> <PUBCHEM_BOND_DEF_STEREO_COUNT>
1

> <PUBCHEM_BOND_UDEF_STEREO_COUNT>
0

> <PUBCHEM_ISOTOPIC_ATOM_COUNT>
0

> <PUBCHEM_COMPONENT_COUNT>
1

> <PUBCHEM_CACTVS_TAUTO_COUNT>
1

> <PUBCHEM_COORDINATE_TYPE>
1
5
255

> <PUBCHEM_BONDANNOTATIONS>
9  1  5
10  28  5
20  25  5
19  5  6
8  15  3

$$$$

