3875
  -OEChem-06251223442D

 67 72  0     0  0  0  0  0  0999 V2000
    3.2546   -1.7088    0.0000 O   0  0  0  0  0  0  0  0  0  0  0  0
    5.6912    4.2941    0.0000 O   0  0  0  0  0  0  0  0  0  0  0  0
    2.5693   -0.0767    0.0000 O   0  0  0  0  0  0  0  0  0  0  0  0
    7.7828    4.2941    0.0000 O   0  0  0  0  0  0  0  0  0  0  0  0
    8.8147    2.4747    0.0000 O   0  0  0  0  0  0  0  0  0  0  0  0
    6.6568   -4.1664    0.0000 O   0  0  0  0  0  0  0  0  0  0  0  0
    8.2654   -2.8391    0.0000 O   0  0  0  0  0  0  0  0  0  0  0  0
    4.7526   -5.0319    0.0000 O   0  0  0  0  0  0  0  0  0  0  0  0
    9.7517   -1.5009    0.0000 O   0  0  0  0  0  0  0  0  0  0  0  0
    4.6385    0.6862    0.0000 N   0  0  0  0  0  0  0  0  0  0  0  0
    5.6385    0.6862    0.0000 C   0  0  0  0  0  0  0  0  0  0  0  0
    4.1038    1.5802    0.0000 C   0  0  0  0  0  0  0  0  0  0  0  0
    5.9475   -0.2648    0.0000 C   0  0  0  0  0  0  0  0  0  0  0  0
    4.3294   -0.2648    0.0000 C   0  0  0  0  0  0  0  0  0  0  0  0
    4.6176    2.4863    0.0000 C   0  0  0  0  0  0  0  0  0  0  0  0
    5.1385   -0.8526    0.0000 C   0  0  0  0  0  0  0  0  0  0  0  0
    6.1731    1.5802    0.0000 C   0  0  0  0  0  0  0  0  0  0  0  0
    5.6593    2.4863    0.0000 C   0  0  0  0  0  0  0  0  0  0  0  0
    5.0456   -1.8901    0.0000 C   0  0  0  0  0  0  0  0  0  0  0  0
    6.8985   -0.5738    0.0000 C   0  0  0  0  0  0  0  0  0  0  0  0
    6.1945    3.4300    0.0000 C   0  0  0  0  0  0  0  0  0  0  0  0
    7.2578    1.5551    0.0000 C   0  0  0  0  0  0  0  0  0  0  0  0
    3.3714   -0.6738    0.0000 C   0  0  0  0  0  0  0  0  0  0  0  0
    4.0973   -2.3211    0.0000 C   0  0  0  0  0  0  0  0  0  0  0  0
    7.2795    3.4300    0.0000 C   0  0  0  0  0  0  0  0  0  0  0  0
    7.8147    2.4863    0.0000 C   0  0  0  0  0  0  0  0  0  0  0  0
    5.9379   -2.5074    0.0000 C   0  0  0  0  0  0  0  0  0  0  0  0
    7.1064   -1.5520    0.0000 C   0  0  0  0  0  0  0  0  0  0  0  0
    7.6417    0.0953    0.0000 C   0  0  0  0  0  0  0  0  0  0  0  0
    3.9755   -3.3992    0.0000 C   0  0  0  0  0  0  0  0  0  0  0  0
    5.8411   -3.5880    0.0000 C   0  0  0  0  0  0  0  0  0  0  0  0
    4.8533   -4.0370    0.0000 C   0  0  0  0  0  0  0  0  0  0  0  0
    8.0575   -1.8610    0.0000 C   0  0  0  0  0  0  0  0  0  0  0  0
    8.5927   -0.2137    0.0000 C   0  0  0  0  0  0  0  0  0  0  0  0
    8.8006   -1.1919    0.0000 C   0  0  0  0  0  0  0  0  0  0  0  0
    6.1878    5.1621    0.0000 C   0  0  0  0  0  0  0  0  0  0  0  0
    8.7828    4.2903    0.0000 C   0  0  0  0  0  0  0  0  0  0  0  0
    9.3046    1.6029    0.0000 C   0  0  0  0  0  0  0  0  0  0  0  0
    6.5638   -5.1621    0.0000 C   0  0  0  0  0  0  0  0  0  0  0  0
    9.2165   -3.1482    0.0000 C   0  0  0  0  0  0  0  0  0  0  0  0
    3.6248    1.9738    0.0000 H   0  0  0  0  0  0  0  0  0  0  0  0
    3.6340    1.1756    0.0000 H   0  0  0  0  0  0  0  0  0  0  0  0
    4.7237    3.0971    0.0000 H   0  0  0  0  0  0  0  0  0  0  0  0
    4.0339    2.6953    0.0000 H   0  0  0  0  0  0  0  0  0  0  0  0
    7.5574    1.0123    0.0000 H   0  0  0  0  0  0  0  0  0  0  0  0
    6.4993   -2.2443    0.0000 H   0  0  0  0  0  0  0  0  0  0  0  0
    6.6457   -1.9668    0.0000 H   0  0  0  0  0  0  0  0  0  0  0  0
    7.5128    0.7018    0.0000 H   0  0  0  0  0  0  0  0  0  0  0  0
    3.4082   -3.6492    0.0000 H   0  0  0  0  0  0  0  0  0  0  0  0
    2.0000   -0.3223    0.0000 H   0  0  0  0  0  0  0  0  0  0  0  0
    9.0535    0.2011    0.0000 H   0  0  0  0  0  0  0  0  0  0  0  0
    6.7260    4.8542    0.0000 H   0  0  0  0  0  0  0  0  0  0  0  0
    6.4958    5.7002    0.0000 H   0  0  0  0  0  0  0  0  0  0  0  0
    5.6497    5.4700    0.0000 H   0  0  0  0  0  0  0  0  0  0  0  0
    8.7804    3.6703    0.0000 H   0  0  0  0  0  0  0  0  0  0  0  0
    9.4028    4.2879    0.0000 H   0  0  0  0  0  0  0  0  0  0  0  0
    8.7852    4.9103    0.0000 H   0  0  0  0  0  0  0  0  0  0  0  0
    8.7641    1.2992    0.0000 H   0  0  0  0  0  0  0  0  0  0  0  0
    9.6084    1.0625    0.0000 H   0  0  0  0  0  0  0  0  0  0  0  0
    9.8451    1.9067    0.0000 H   0  0  0  0  0  0  0  0  0  0  0  0
   10.2124   -1.0860    0.0000 H   0  0  0  0  0  0  0  0  0  0  0  0
    5.9465   -5.1044    0.0000 H   0  0  0  0  0  0  0  0  0  0  0  0
    6.5062   -5.7794    0.0000 H   0  0  0  0  0  0  0  0  0  0  0  0
    7.1811   -5.2198    0.0000 H   0  0  0  0  0  0  0  0  0  0  0  0
    9.0249   -3.7378    0.0000 H   0  0  0  0  0  0  0  0  0  0  0  0
    9.8061   -3.3397    0.0000 H   0  0  0  0  0  0  0  0  0  0  0  0
    9.4081   -2.5585    0.0000 H   0  0  0  0  0  0  0  0  0  0  0  0
  1 23  1  0  0  0  0
  1 24  1  0  0  0  0
  2 21  1  0  0  0  0
  2 36  1  0  0  0  0
  3 23  1  0  0  0  0
  3 50  1  0  0  0  0
  4 25  1  0  0  0  0
  4 37  1  0  0  0  0
  5 26  1  0  0  0  0
  5 38  1  0  0  0  0
  6 31  1  0  0  0  0
  6 39  1  0  0  0  0
  7 33  1  0  0  0  0
  7 40  1  0  0  0  0
  8 32  2  0  0  0  0
  9 35  1  0  0  0  0
  9 61  1  0  0  0  0
 10 11  1  0  0  0  0
 10 12  1  0  0  0  0
 10 14  1  0  0  0  0
 11 13  2  0  0  0  0
 11 17  1  0  0  0  0
 12 15  1  0  0  0  0
 12 41  1  0  0  0  0
 12 42  1  0  0  0  0
 13 16  1  0  0  0  0
 13 20  1  0  0  0  0
 14 16  1  0  0  0  0
 14 23  2  0  0  0  0
 15 18  1  0  0  0  0
 15 43  1  0  0  0  0
 15 44  1  0  0  0  0
 16 19  2  0  0  0  0
 17 18  1  0  0  0  0
 17 22  2  0  0  0  0
 18 21  2  0  0  0  0
 19 24  1  0  0  0  0
 19 27  1  0  0  0  0
 20 28  2  0  0  0  0
 20 29  1  0  0  0  0
 21 25  1  0  0  0  0
 22 26  1  0  0  0  0
 22 45  1  0  0  0  0
 24 30  2  0  0  0  0
 25 26  2  0  0  0  0
 27 31  2  0  0  0  0
 27 46  1  0  0  0  0
 28 33  1  0  0  0  0
 28 47  1  0  0  0  0
 29 34  2  0  0  0  0
 29 48  1  0  0  0  0
 30 32  1  0  0  0  0
 30 49  1  0  0  0  0
 31 32  1  0  0  0  0
 33 35  2  0  0  0  0
 34 35  1  0  0  0  0
 34 51  1  0  0  0  0
 36 52  1  0  0  0  0
 36 53  1  0  0  0  0
 36 54  1  0  0  0  0
 37 55  1  0  0  0  0
 37 56  1  0  0  0  0
 37 57  1  0  0  0  0
 38 58  1  0  0  0  0
 38 59  1  0  0  0  0
 38 60  1  0  0  0  0
 39 62  1  0  0  0  0
 39 63  1  0  0  0  0
 39 64  1  0  0  0  0
 40 65  1  0  0  0  0
 40 66  1  0  0  0  0
 40 67  1  0  0  0  0
M  END
> <PUBCHEM_COMPOUND_CID>
3875

> <PUBCHEM_COMPOUND_CANONICALIZED>
1

> <PUBCHEM_CACTVS_COMPLEXITY>
1230

> <PUBCHEM_CACTVS_HBOND_ACCEPTOR>
10

> <PUBCHEM_CACTVS_HBOND_DONOR>
2

> <PUBCHEM_CACTVS_ROTATABLE_BOND>
6

> <PUBCHEM_CACTVS_SUBSKEYS>
AAADceB6PAAAAAAAAAAAAAAAAAAAAQAAAAA8YIECAAAAAECxQAAAHgAACAAADAzBmAYyDoMABgCIAqRSQAKCCAAgIAAIiABOjMgdJyKGsR+EcCtlwBWPuYew8L4OoAABCAAYQABAAAIQADCAAAAAAAAAAA==

> <PUBCHEM_IUPAC_INCHI>
InChI=1S/C30H27NO9/c1-35-21-10-14(6-7-18(21)32)24-25-17-12-22(36-2)19(33)13-20(17)40-30(34)27(25)31-9-8-15-16(26(24)31)11-23(37-3)29(39-5)28(15)38-4/h6-7,10-13,32,34H,8-9H2,1-5H3

> <PUBCHEM_IUPAC_INCHIKEY>
UGIWFETVIAHDHZ-UHFFFAOYSA-N

> <PUBCHEM_XLOGP3_AA>
2.9

> <PUBCHEM_EXACT_MASS>
545.168581

> <PUBCHEM_MOLECULAR_FORMULA>
C30H27NO9

> <PUBCHEM_MOLECULAR_WEIGHT>
545.53668

> <PUBCHEM_OPENEYE_CAN_SMILES>
COC1=CC2=C3C(=C4C5=CC(=C(C(=C5CCN4C3=C(OC2=CC1=O)O)OC)OC)OC)C6=CC(=C(C=C6)O)OC

> <PUBCHEM_OPENEYE_ISO_SMILES>
COC1=CC2=C3C(=C4C5=CC(=C(C(=C5CCN4C3=C(OC2=CC1=O)O)OC)OC)OC)C6=CC(=C(C=C6)O)OC

> <PUBCHEM_CACTVS_TPSA>
116

> <PUBCHEM_MONOISOTOPIC_WEIGHT>
545.168581

> <PUBCHEM_TOTAL_CHARGE>
0

> <PUBCHEM_HEAVY_ATOM_COUNT>
40

> <PUBCHEM_ATOM_DEF_STEREO_COUNT>
0

> <PUBCHEM_ATOM_UDEF_STEREO_COUNT>
0

> <PUBCHEM_BOND_DEF_STEREO_COUNT>
0

> <PUBCHEM_BOND_UDEF_STEREO_COUNT>
0

> <PUBCHEM_ISOTOPIC_ATOM_COUNT>
0

> <PUBCHEM_COMPONENT_COUNT>
1

> <PUBCHEM_CACTVS_TAUTO_COUNT>
3

> <PUBCHEM_COORDINATE_TYPE>
1
5
255

> <PUBCHEM_BONDANNOTATIONS>
1  23  8
1  24  8
10  11  8
10  14  8
11  13  8
13  16  8
14  16  8
14  23  8
16  19  8
17  18  8
17  22  8
18  21  8
19  27  8
20  28  8
20  29  8
21  25  8
22  26  8
24  30  8
25  26  8
27  31  8
28  33  8
29  34  8
30  32  8
31  32  8
33  35  8
34  35  8

$$$$

