19014
  -OEChem-07051213132D

 16 17  0     0  0  0  0  0  0999 V2000
    3.7320   -2.0000    0.0000 Cl  0  0  0  0  0  0  0  0  0  0  0  0
    3.7320    2.0000    0.0000 Cl  0  0  0  0  0  0  0  0  0  0  0  0
    2.0000   -1.0000    0.0000 Cl  0  0  0  0  0  0  0  0  0  0  0  0
    2.0000    1.0000    0.0000 Cl  0  0  0  0  0  0  0  0  0  0  0  0
    5.4920   -1.0347    0.0000 N   0  0  0  0  0  0  0  0  0  0  0  0
    5.4920    1.0347    0.0000 N   0  0  0  0  0  0  0  0  0  0  0  0
    4.5981   -0.5000    0.0000 C   0  0  0  0  0  0  0  0  0  0  0  0
    4.5981    0.5000    0.0000 C   0  0  0  0  0  0  0  0  0  0  0  0
    3.7320   -1.0000    0.0000 C   0  0  0  0  0  0  0  0  0  0  0  0
    3.7320    1.0000    0.0000 C   0  0  0  0  0  0  0  0  0  0  0  0
    2.8660   -0.5000    0.0000 C   0  0  0  0  0  0  0  0  0  0  0  0
    2.8660    0.5000    0.0000 C   0  0  0  0  0  0  0  0  0  0  0  0
    6.3981   -0.5208    0.0000 C   0  0  0  0  0  0  0  0  0  0  0  0
    6.3981    0.5208    0.0000 C   0  0  0  0  0  0  0  0  0  0  0  0
    6.9338   -0.8329    0.0000 H   0  0  0  0  0  0  0  0  0  0  0  0
    6.9338    0.8329    0.0000 H   0  0  0  0  0  0  0  0  0  0  0  0
  1  9  1  0  0  0  0
  2 10  1  0  0  0  0
  3 11  1  0  0  0  0
  4 12  1  0  0  0  0
  5  7  2  0  0  0  0
  5 13  1  0  0  0  0
  6  8  2  0  0  0  0
  6 14  1  0  0  0  0
  7  8  1  0  0  0  0
  7  9  1  0  0  0  0
  8 10  1  0  0  0  0
  9 11  2  0  0  0  0
 10 12  2  0  0  0  0
 11 12  1  0  0  0  0
 13 14  2  0  0  0  0
 13 15  1  0  0  0  0
 14 16  1  0  0  0  0
M  END
> <PUBCHEM_COMPOUND_CID>
19014

> <PUBCHEM_COMPOUND_CANONICALIZED>
1

> <PUBCHEM_CACTVS_COMPLEXITY>
194

> <PUBCHEM_CACTVS_HBOND_ACCEPTOR>
2

> <PUBCHEM_CACTVS_HBOND_DONOR>
0

> <PUBCHEM_CACTVS_ROTATABLE_BOND>
0

> <PUBCHEM_CACTVS_SUBSKEYS>
AAADcQBzAAAHAAAAAAAAAAAAAAAAAAAAAAA8QAAAAAAAAACx8AAAHAIAAAAACArBFiQswLIIEACgARRnRACCgCQxFiAI2mA4dpgIYGLBkpHUIAhggADIyAcQAAAAAABQAAKAADQAAKAABQAAaAAAAAAAAA==

> <PUBCHEM_IUPAC_OPENEYE_NAME>
5,6,7,8-tetrachloroquinoxaline

> <PUBCHEM_IUPAC_CAS_NAME>
5,6,7,8-tetrachloroquinoxaline

> <PUBCHEM_IUPAC_NAME>
5,6,7,8-tetrachloroquinoxaline

> <PUBCHEM_IUPAC_SYSTEMATIC_NAME>
5,6,7,8-tetrakis(chloranyl)quinoxaline

> <PUBCHEM_IUPAC_TRADITIONAL_NAME>
5,6,7,8-tetrachloroquinoxaline

> <PUBCHEM_IUPAC_INCHI>
InChI=1S/C8H2Cl4N2/c9-3-4(10)6(12)8-7(5(3)11)13-1-2-14-8/h1-2H

> <PUBCHEM_IUPAC_INCHIKEY>
NHTGQOXRZFUGJX-UHFFFAOYSA-N

> <PUBCHEM_XLOGP3_AA>
3.7

> <PUBCHEM_EXACT_MASS>
267.894259

> <PUBCHEM_MOLECULAR_FORMULA>
C8H2Cl4N2

> <PUBCHEM_MOLECULAR_WEIGHT>
267.92688

> <PUBCHEM_OPENEYE_CAN_SMILES>
C1=CN=C2C(=C(C(=C(C2=N1)Cl)Cl)Cl)Cl

> <PUBCHEM_OPENEYE_ISO_SMILES>
C1=CN=C2C(=C(C(=C(C2=N1)Cl)Cl)Cl)Cl

> <PUBCHEM_CACTVS_TPSA>
25.8

> <PUBCHEM_MONOISOTOPIC_WEIGHT>
265.897209

> <PUBCHEM_TOTAL_CHARGE>
0

> <PUBCHEM_HEAVY_ATOM_COUNT>
14

> <PUBCHEM_ATOM_DEF_STEREO_COUNT>
0

> <PUBCHEM_ATOM_UDEF_STEREO_COUNT>
0

> <PUBCHEM_BOND_DEF_STEREO_COUNT>
0

> <PUBCHEM_BOND_UDEF_STEREO_COUNT>
0

> <PUBCHEM_ISOTOPIC_ATOM_COUNT>
0

> <PUBCHEM_COMPONENT_COUNT>
1

> <PUBCHEM_CACTVS_TAUTO_COUNT>
1

> <PUBCHEM_COORDINATE_TYPE>
1
5
255

> <PUBCHEM_BONDANNOTATIONS>
10  12  8
11  12  8
13  14  8
5  13  8
5  7  8
6  14  8
6  8  8
7  8  8
7  9  8
8  10  8
9  11  8

$$$$

