440740
  -OEChem-07051212503D

 27 28  0     1  0  0  0  0  0999 V2000
    3.1932    1.0460    0.3833 O   0  0  0  0  0  0  0  0  0  0  0  0
    3.7165   -1.2649    1.2314 O   0  0  0  0  0  0  0  0  0  0  0  0
    1.9687   -2.1413    0.0304 O   0  0  0  0  0  0  0  0  0  0  0  0
   -1.4932    1.8022    1.0225 N   0  0  0  0  0  0  0  0  0  0  0  0
   -0.0118    0.7603   -0.2607 C   0  0  0  0  0  0  0  0  0  0  0  0
    1.2354    0.4344   -0.9818 C   0  0  1  0  0  0  0  0  0  0  0  0
   -1.2149    0.0005   -0.2634 C   0  0  0  0  0  0  0  0  0  0  0  0
   -2.1280    0.6760    0.5493 C   0  0  0  0  0  0  0  0  0  0  0  0
   -0.2138    1.8618    0.5385 C   0  0  0  0  0  0  0  0  0  0  0  0
    1.6371    1.5019   -2.0210 C   0  0  0  0  0  0  0  0  0  0  0  0
   -1.6161   -1.2007   -0.8810 C   0  0  0  0  0  0  0  0  0  0  0  0
    2.4173    0.1979   -0.0339 C   0  0  0  0  0  0  0  0  0  0  0  0
   -3.4272    0.2084    0.7761 C   0  0  0  0  0  0  0  0  0  0  0  0
   -2.9127   -1.6804   -0.6634 C   0  0  0  0  0  0  0  0  0  0  0  0
   -3.8027   -0.9851    0.1529 C   0  0  0  0  0  0  0  0  0  0  0  0
    2.6520   -1.2168    0.4207 C   0  0  0  0  0  0  0  0  0  0  0  0
    1.1002   -0.4855   -1.5635 H   0  0  0  0  0  0  0  0  0  0  0  0
    0.4351    2.6834    0.8087 H   0  0  0  0  0  0  0  0  0  0  0  0
   -1.9116    2.4856    1.6383 H   0  0  0  0  0  0  0  0  0  0  0  0
    2.5491    1.2033   -2.5496 H   0  0  0  0  0  0  0  0  0  0  0  0
    1.8311    2.4721   -1.5498 H   0  0  0  0  0  0  0  0  0  0  0  0
    0.8415    1.6416   -2.7610 H   0  0  0  0  0  0  0  0  0  0  0  0
   -0.9376   -1.7580   -1.5203 H   0  0  0  0  0  0  0  0  0  0  0  0
   -4.1208    0.7490    1.4113 H   0  0  0  0  0  0  0  0  0  0  0  0
   -3.2277   -2.6064   -1.1371 H   0  0  0  0  0  0  0  0  0  0  0  0
   -4.8051   -1.3759    0.3082 H   0  0  0  0  0  0  0  0  0  0  0  0
    3.9155   -2.1778    1.5302 H   0  0  0  0  0  0  0  0  0  0  0  0
  1 12  2  0  0  0  0
  2 16  1  0  0  0  0
  2 27  1  0  0  0  0
  3 16  2  0  0  0  0
  4  8  1  0  0  0  0
  4  9  1  0  0  0  0
  4 19  1  0  0  0  0
  5  6  1  0  0  0  0
  5  7  1  0  0  0  0
  5  9  2  0  0  0  0
  6 10  1  0  0  0  0
  6 12  1  0  0  0  0
  6 17  1  0  0  0  0
  7  8  1  0  0  0  0
  7 11  2  0  0  0  0
  8 13  2  0  0  0  0
  9 18  1  0  0  0  0
 10 20  1  0  0  0  0
 10 21  1  0  0  0  0
 10 22  1  0  0  0  0
 11 14  1  0  0  0  0
 11 23  1  0  0  0  0
 12 16  1  0  0  0  0
 13 15  1  0  0  0  0
 13 24  1  0  0  0  0
 14 15  2  0  0  0  0
 14 25  1  0  0  0  0
 15 26  1  0  0  0  0
M  END
> <PUBCHEM_COMPOUND_CID>
440740

> <PUBCHEM_CONFORMER_RMSD>
0.6

> <PUBCHEM_CONFORMER_DIVERSEORDER>
6
3
18
28
9
26
12
21
25
16
22
5
13
29
27
11
23
30
8
7
10
14
2
24
20
15
17
1
4
19

> <PUBCHEM_MMFF94_PARTIAL_CHARGES>
21
1 -0.57
11 -0.15
12 0.51
13 -0.15
14 -0.15
15 -0.15
16 0.72
18 0.15
19 0.27
2 -0.65
23 0.15
24 0.15
25 0.15
26 0.15
27 0.5
3 -0.57
4 0.03
5 -0.18
6 0.24
8 -0.15
9 -0.3

> <PUBCHEM_EFFECTIVE_ROTOR_COUNT>
3

> <PUBCHEM_PHARMACOPHORE_FEATURES>
9
1 1 acceptor
1 10 hydrophobe
1 2 acceptor
1 3 acceptor
1 4 cation
1 4 donor
3 2 3 16 anion
5 4 5 7 8 9 rings
6 7 8 11 13 14 15 rings

> <PUBCHEM_HEAVY_ATOM_COUNT>
16

> <PUBCHEM_ATOM_DEF_STEREO_COUNT>
0

> <PUBCHEM_ATOM_UDEF_STEREO_COUNT>
1

> <PUBCHEM_BOND_DEF_STEREO_COUNT>
0

> <PUBCHEM_BOND_UDEF_STEREO_COUNT>
0

> <PUBCHEM_ISOTOPIC_ATOM_COUNT>
0

> <PUBCHEM_COMPONENT_COUNT>
1

> <PUBCHEM_CACTVS_TAUTO_COUNT>
4

> <PUBCHEM_CONFORMER_ID>
0006B9A400000006

> <PUBCHEM_MMFF94_ENERGY>
28.5699

> <PUBCHEM_FEATURE_SELFOVERLAP>
45.831

> <PUBCHEM_SHAPE_FINGERPRINT>
10618630 7 18411700988933668515
10922523 26 18059580230038867413
11578080 2 18269579189701640701
11769659 78 18342744017786107371
12202030 40 16199562733000064665
12251169 10 18187931732760415426
12382932 28 18113615685936031735
12553582 1 18261385603602604223
13083527 12 16519941609746473655
13538477 17 18335410270881302189
14022347 108 17826758570080199389
14350558 41 18271805696356960455
14787075 74 17828774941230224176
15375462 189 18337103445952870763
16945 1 17968359205133481269
17804303 29 17826784030367028326
1813 80 17987788752486030910
18186145 218 14908185235498097941
19786989 88 16915649281387731109
20361792 2 17489021677649105294
20442098 301 18260550064712082638
20559304 39 18336537253030128572
20645476 183 18198604559156205775
20645477 70 17489028150175623063
20671657 53 17418098736450431014
22445834 79 18338796844046526522
2255824 54 18125713483322042004
232386 152 18260828176607763151
23388829 49 18410855447264417557
23463225 33 18409162221117412983
23552423 10 17975691693581363373
23559900 14 17604412090016137964
2748010 2 17682651259116880245
4072396 5 18187640362801436675
53812654 25 18187082836864280375
5902787 121 17969501503093324815
7097593 13 18119247509105737002
77492 1 18341320124458483213
81228 2 17387388316194177329
90316 7 18261390091738297633

> <PUBCHEM_SHAPE_MULTIPOLES>
306.68
6.09
2.02
1.25
0.36
0.21
-0.4
2.41
1.31
-0.43
0.1
-0.51
-0.31
-1.32

> <PUBCHEM_SHAPE_SELFOVERLAP>
665.311

> <PUBCHEM_SHAPE_VOLUME>
168.1

> <PUBCHEM_COORDINATE_TYPE>
2
5
10

$$$$

