13076
  -OEChem-06261207443D

 30 32  0     0  0  0  0  0  0999 V2000
   -1.2252   -0.7060    0.0000 C   0  0  0  0  0  0  0  0  0  0  0  0
   -1.2252    0.7061   -0.0001 C   0  0  0  0  0  0  0  0  0  0  0  0
    1.2250   -0.7061   -0.0001 C   0  0  0  0  0  0  0  0  0  0  0  0
    1.2250    0.7061   -0.0001 C   0  0  0  0  0  0  0  0  0  0  0  0
    0.0000   -1.3937    0.0000 C   0  0  0  0  0  0  0  0  0  0  0  0
   -0.0001    1.3937   -0.0001 C   0  0  0  0  0  0  0  0  0  0  0  0
   -2.4505   -1.3929    0.0001 C   0  0  0  0  0  0  0  0  0  0  0  0
   -2.4505    1.3929   -0.0001 C   0  0  0  0  0  0  0  0  0  0  0  0
    2.4505   -1.3930    0.0000 C   0  0  0  0  0  0  0  0  0  0  0  0
    2.4505    1.3929   -0.0001 C   0  0  0  0  0  0  0  0  0  0  0  0
    0.0002   -2.8986    0.0001 C   0  0  0  0  0  0  0  0  0  0  0  0
    0.0005    2.8988    0.0003 C   0  0  0  0  0  0  0  0  0  0  0  0
   -3.6588   -0.6956    0.0000 C   0  0  0  0  0  0  0  0  0  0  0  0
   -3.6587    0.6956   -0.0001 C   0  0  0  0  0  0  0  0  0  0  0  0
    3.6586   -0.6957    0.0000 C   0  0  0  0  0  0  0  0  0  0  0  0
    3.6586    0.6955    0.0000 C   0  0  0  0  0  0  0  0  0  0  0  0
   -2.5307   -2.4741    0.0292 H   0  0  0  0  0  0  0  0  0  0  0  0
   -2.5308    2.4742   -0.0292 H   0  0  0  0  0  0  0  0  0  0  0  0
    2.5304   -2.4742    0.0291 H   0  0  0  0  0  0  0  0  0  0  0  0
    2.5303    2.4742   -0.0291 H   0  0  0  0  0  0  0  0  0  0  0  0
    0.0024   -3.2773    1.0270 H   0  0  0  0  0  0  0  0  0  0  0  0
   -0.8468   -3.3302   -0.5392 H   0  0  0  0  0  0  0  0  0  0  0  0
    0.8455   -3.3293   -0.5426 H   0  0  0  0  0  0  0  0  0  0  0  0
   -0.8476    3.3309    0.5372 H   0  0  0  0  0  0  0  0  0  0  0  0
    0.8448    3.3285    0.5454 H   0  0  0  0  0  0  0  0  0  0  0  0
    0.0057    3.2778   -1.0265 H   0  0  0  0  0  0  0  0  0  0  0  0
   -4.5996   -1.2384    0.0052 H   0  0  0  0  0  0  0  0  0  0  0  0
   -4.5996    1.2383   -0.0052 H   0  0  0  0  0  0  0  0  0  0  0  0
    4.5995   -1.2384    0.0053 H   0  0  0  0  0  0  0  0  0  0  0  0
    4.5996    1.2382   -0.0050 H   0  0  0  0  0  0  0  0  0  0  0  0
  1  2  1  0  0  0  0
  1  5  2  0  0  0  0
  1  7  1  0  0  0  0
  2  6  2  0  0  0  0
  2  8  1  0  0  0  0
  3  4  1  0  0  0  0
  3  5  1  0  0  0  0
  3  9  2  0  0  0  0
  4  6  1  0  0  0  0
  4 10  2  0  0  0  0
  5 11  1  0  0  0  0
  6 12  1  0  0  0  0
  7 13  2  0  0  0  0
  7 17  1  0  0  0  0
  8 14  2  0  0  0  0
  8 18  1  0  0  0  0
  9 15  1  0  0  0  0
  9 19  1  0  0  0  0
 10 16  1  0  0  0  0
 10 20  1  0  0  0  0
 11 21  1  0  0  0  0
 11 22  1  0  0  0  0
 11 23  1  0  0  0  0
 12 24  1  0  0  0  0
 12 25  1  0  0  0  0
 12 26  1  0  0  0  0
 13 14  1  0  0  0  0
 13 27  1  0  0  0  0
 14 28  1  0  0  0  0
 15 16  2  0  0  0  0
 15 29  1  0  0  0  0
 16 30  1  0  0  0  0
M  END
> <PUBCHEM_COMPOUND_CID>
13076

> <PUBCHEM_CONFORMER_RMSD>
0.4

> <PUBCHEM_CONFORMER_DIVERSEORDER>
1

> <PUBCHEM_MMFF94_PARTIAL_CHARGES>
20
10 -0.15
11 0.14
12 0.14
13 -0.15
14 -0.15
15 -0.15
16 -0.15
17 0.15
18 0.15
19 0.15
20 0.15
27 0.15
28 0.15
29 0.15
30 0.15
5 -0.14
6 -0.14
7 -0.15
8 -0.15
9 -0.15

> <PUBCHEM_EFFECTIVE_ROTOR_COUNT>
0

> <PUBCHEM_PHARMACOPHORE_FEATURES>
3
6 1 2 3 4 5 6 rings
6 1 2 7 8 13 14 rings
6 3 4 9 10 15 16 rings

> <PUBCHEM_HEAVY_ATOM_COUNT>
16

> <PUBCHEM_ATOM_DEF_STEREO_COUNT>
0

> <PUBCHEM_ATOM_UDEF_STEREO_COUNT>
0

> <PUBCHEM_BOND_DEF_STEREO_COUNT>
0

> <PUBCHEM_BOND_UDEF_STEREO_COUNT>
0

> <PUBCHEM_ISOTOPIC_ATOM_COUNT>
0

> <PUBCHEM_COMPONENT_COUNT>
1

> <PUBCHEM_CACTVS_TAUTO_COUNT>
1

> <PUBCHEM_CONFORMER_ID>
0000331400000001

> <PUBCHEM_MMFF94_ENERGY>
67.9369

> <PUBCHEM_FEATURE_SELFOVERLAP>
15.274

> <PUBCHEM_SHAPE_FINGERPRINT>
10062212 137 18339090366475204043
10608611 8 18410578383198319521
108231 29 18261674787639598408
10967382 1 18410856568266809830
11132069 177 18409173220312308808
11471102 20 18410860983788491965
11680986 33 18050568434910591673
11806522 49 18337677404150272727
12032990 46 18410849962570113859
12382932 28 18409166640369715809
13132413 78 18409165493724542429
13140716 1 18410856606884430272
13221675 6 18410856559645194242
13380535 76 18410856559640205315
14144814 61 18410575076073144474
14325111 11 18410855460138821728
14614273 12 18128823112959126165
14790565 3 18338499898440080964
15196674 1 18410856563934756869
15309172 13 18409721859577261179
15442244 35 18122907791936114770
15536298 74 18334012796203100166
16945 1 18410575084663078918
18186145 218 18409163346219399108
193761 8 17690280829713907725
19591789 44 18410572885640472963
200 152 18113909238940800405
20510252 161 18261111902379763960
20511035 2 17755020800407428252
20645476 183 17916004781828795334
20905425 154 18047751791147570030
21029758 11 18334863783822557705
21267235 1 18410846668330477158
21501502 16 18410573993741385728
21634736 98 17828219704853366327
2334 1 18410855430063390727
23402539 116 18261683609818740574
23419403 2 15951408344404947707
23463225 33 18412826901814927884
23559900 14 18334012783977724228
2748010 2 18410855460128161902
335352 9 18050568748363940286
34934 24 18410583880756120618
43471831 8 18341615983254710194
5104073 3 18410855455833195496
528886 8 18410016545641103274
537710 114 18412257320337354964
53812653 166 18334861584524872368
54173680 148 18051973623614099851
589210 1 17689997838619022881
69090 78 18334862688289314743
7364860 26 18119810458795667318
84936 31 15937813145268553846
8809292 202 18272083890100307835
9709674 26 18336823109111332222

> <PUBCHEM_SHAPE_MULTIPOLES>
329.27
5.84
2.64
0.62
0
0
0
0
0
0
0
0
0
0

> <PUBCHEM_SHAPE_SELFOVERLAP>
742.175

> <PUBCHEM_SHAPE_VOLUME>
161.2

> <PUBCHEM_COORDINATE_TYPE>
2
5
10

$$$$

