10238657
  -OEChem-07051213123D

 39 41  0     0  0  0  0  0  0999 V2000
    4.5424    1.8955    2.3126 Br  0  0  0  0  0  0  0  0  0  0  0  0
    0.5506    1.3346   -1.5649 S   0  0  0  0  0  0  0  0  0  0  0  0
   -3.5746   -0.3949    1.2822 S   0  0  0  0  0  0  0  0  0  0  0  0
    2.1751   -3.8836   -0.8404 F   0  0  0  0  0  0  0  0  0  0  0  0
    0.9907    0.7758   -2.8418 O   0  0  0  0  0  0  0  0  0  0  0  0
    0.2458    2.7603   -1.4346 O   0  0  0  0  0  0  0  0  0  0  0  0
   -3.5511   -1.8286    1.5930 O   0  0  0  0  0  0  0  0  0  0  0  0
   -3.2454    0.5478    2.3573 O   0  0  0  0  0  0  0  0  0  0  0  0
    1.7596    0.9554   -0.4774 N   0  0  0  0  0  0  0  0  0  0  0  0
   -2.4465   -0.1512    0.0741 N   0  0  0  0  0  0  0  0  0  0  0  0
   -1.4080    0.6960    0.1338 N   0  0  0  0  0  0  0  0  0  0  0  0
   -5.1561    0.0054    0.6716 N   0  0  0  0  0  0  0  0  0  0  0  0
   -1.4734   -0.4148   -1.8648 N   0  0  0  0  0  0  0  0  0  0  0  0
    2.2285   -0.3151   -0.2307 C   0  0  0  0  0  0  0  0  0  0  0  0
    2.4275    1.8642    0.2989 C   0  0  0  0  0  0  0  0  0  0  0  0
    3.2292   -0.2033    0.7370 C   0  0  0  0  0  0  0  0  0  0  0  0
    3.3437    1.1775    1.0615 C   0  0  0  0  0  0  0  0  0  0  0  0
   -0.9053    0.4668   -1.0438 C   0  0  0  0  0  0  0  0  0  0  0  0
    1.8473   -1.5424   -0.7844 C   0  0  0  0  0  0  0  0  0  0  0  0
    2.1328    3.3136    0.2459 C   0  0  0  0  0  0  0  0  0  0  0  0
    3.8829   -1.3721    1.1749 C   0  0  0  0  0  0  0  0  0  0  0  0
    2.5096   -2.6882   -0.3348 C   0  0  0  0  0  0  0  0  0  0  0  0
    3.5121   -2.6068    0.6296 C   0  0  0  0  0  0  0  0  0  0  0  0
   -2.4784   -0.8073   -1.1169 C   0  0  0  0  0  0  0  0  0  0  0  0
   -5.3526    1.3994    0.2005 C   0  0  0  0  0  0  0  0  0  0  0  0
   -5.7867   -0.9836   -0.2383 C   0  0  0  0  0  0  0  0  0  0  0  0
    1.0759   -1.6280   -1.5403 H   0  0  0  0  0  0  0  0  0  0  0  0
    1.1271    3.5376    0.6148 H   0  0  0  0  0  0  0  0  0  0  0  0
    2.8121    3.8717    0.8999 H   0  0  0  0  0  0  0  0  0  0  0  0
    2.2942    3.7282   -0.7539 H   0  0  0  0  0  0  0  0  0  0  0  0
    4.6669   -1.3304    1.9256 H   0  0  0  0  0  0  0  0  0  0  0  0
    4.0127   -3.5118    0.9631 H   0  0  0  0  0  0  0  0  0  0  0  0
   -3.2131   -1.5528   -1.3850 H   0  0  0  0  0  0  0  0  0  0  0  0
   -4.8302    1.5664   -0.7457 H   0  0  0  0  0  0  0  0  0  0  0  0
   -4.9880    2.1078    0.9494 H   0  0  0  0  0  0  0  0  0  0  0  0
   -6.4199    1.5947    0.0567 H   0  0  0  0  0  0  0  0  0  0  0  0
   -5.4478   -0.8462   -1.2681 H   0  0  0  0  0  0  0  0  0  0  0  0
   -6.8732   -0.8498   -0.2107 H   0  0  0  0  0  0  0  0  0  0  0  0
   -5.5842   -2.0082    0.0828 H   0  0  0  0  0  0  0  0  0  0  0  0
  1 17  1  0  0  0  0
  2  5  2  0  0  0  0
  2  6  2  0  0  0  0
  2  9  1  0  0  0  0
  2 18  1  0  0  0  0
  3  7  2  0  0  0  0
  3  8  2  0  0  0  0
  3 10  1  0  0  0  0
  3 12  1  0  0  0  0
  4 22  1  0  0  0  0
  9 14  1  0  0  0  0
  9 15  1  0  0  0  0
 10 11  1  0  0  0  0
 10 24  1  0  0  0  0
 11 18  2  0  0  0  0
 12 25  1  0  0  0  0
 12 26  1  0  0  0  0
 13 18  1  0  0  0  0
 13 24  2  0  0  0  0
 14 16  2  0  0  0  0
 14 19  1  0  0  0  0
 15 17  2  0  0  0  0
 15 20  1  0  0  0  0
 16 17  1  0  0  0  0
 16 21  1  0  0  0  0
 19 22  2  0  0  0  0
 19 27  1  0  0  0  0
 20 28  1  0  0  0  0
 20 29  1  0  0  0  0
 20 30  1  0  0  0  0
 21 23  2  0  0  0  0
 21 31  1  0  0  0  0
 22 23  1  0  0  0  0
 23 32  1  0  0  0  0
 24 33  1  0  0  0  0
 25 34  1  0  0  0  0
 25 35  1  0  0  0  0
 25 36  1  0  0  0  0
 26 37  1  0  0  0  0
 26 38  1  0  0  0  0
 26 39  1  0  0  0  0
M  END
> <PUBCHEM_COMPOUND_CID>
10238657

> <PUBCHEM_CONFORMER_RMSD>
0.8

> <PUBCHEM_CONFORMER_DIVERSEORDER>
54
28
90
87
7
58
60
75
81
2
73
71
4
10
20
24
36
64
19
83
61
78
89
32
82
35
39
26
40
68
56
29
8
51
31
15
85
12
44
57
80
42
45
52
74
17
66
50
18
6
13
91
69
14
16
5
72
11
48
67
77
59
46
1
84
47
43
38
49
88
86
53
55
33
25
21
63
79
37
27
23
76
22
34
41
70
65
3
9
30
62

> <PUBCHEM_MMFF94_PARTIAL_CHARGES>
29
1 -0.06
10 0.58
11 -0.71
12 -0.85
13 -0.57
14 -0.15
15 -0.33
17 0.06
18 0.45
19 -0.15
2 1.35
20 0.18
21 -0.15
22 0.19
23 -0.15
24 0.04
25 0.36
26 0.36
27 0.15
3 1.42
31 0.15
32 0.15
33 0.15
4 -0.19
5 -0.65
6 -0.65
7 -0.65
8 -0.65
9 0.32

> <PUBCHEM_EFFECTIVE_ROTOR_COUNT>
4

> <PUBCHEM_PHARMACOPHORE_FEATURES>
8
1 1 hydrophobe
1 13 acceptor
1 5 acceptor
1 6 acceptor
3 11 13 18 cation
5 10 11 13 18 24 rings
5 9 14 15 16 17 rings
6 14 16 19 21 22 23 rings

> <PUBCHEM_HEAVY_ATOM_COUNT>
26

> <PUBCHEM_ATOM_DEF_STEREO_COUNT>
0

> <PUBCHEM_ATOM_UDEF_STEREO_COUNT>
0

> <PUBCHEM_BOND_DEF_STEREO_COUNT>
0

> <PUBCHEM_BOND_UDEF_STEREO_COUNT>
0

> <PUBCHEM_ISOTOPIC_ATOM_COUNT>
0

> <PUBCHEM_COMPONENT_COUNT>
1

> <PUBCHEM_CACTVS_TAUTO_COUNT>
1

> <PUBCHEM_CONFORMER_ID>
009C3AC100000036

> <PUBCHEM_MMFF94_ENERGY>
55.5627

> <PUBCHEM_FEATURE_SELFOVERLAP>
40.704

> <PUBCHEM_SHAPE_FINGERPRINT>
10064457 181 18118122472750850522
10498660 4 5256402803574413979
114674 6 18272931665068566410
11595378 159 17240199933131063035
11640471 11 17530965735345416280
12363563 72 17132119039030968856
12553582 1 18337116773489864462
12596599 1 17632283558918720689
12596602 18 17676492696435882259
12633257 1 18114754814463777182
12892183 10 18333732420690895521
13533116 47 18409157827856622731
13583140 156 18263073319881594121
13965767 371 17531235171450285952
14178342 30 18194124014565295543
14251739 40 18408321095006870951
14251764 30 17753596138650638518
14251764 38 17460309078473630177
14341114 328 17530973431916378370
14787075 74 16598470825908892772
14790565 3 18052815850038356964
14957384 54 16226056548135253536
15003188 3 17988915704237757443
15142526 21 17462022972113649664
15422964 175 18201437025257187230
15475509 84 17896606278743124232
15527383 91 18336547213454926730
15664445 248 16915917635508534636
16752209 62 15339130065088405077
17349148 13 18114452432102747295
17974551 9 18044366351764015712
1813 80 16845854611276692629
1979834 28 18411699850772499738
20429552 37 18340210803383885321
20511986 3 17895778222217576231
20715895 44 17461713193798733153
20739085 24 18408889534102920864
20775530 9 15265405666856424576
21756936 100 17170694176969866992
23557571 272 17632303431595073148
23559900 14 18271512178730009783
2748010 2 17906494153042500092
341906 21 15791733014229053091
392239 28 17247256400815497162
5104073 3 18335132108131271419
7097593 13 18041278867378722210
7288768 16 16811833325248827600
77296 10 18335146401882775863
7808743 9 15213871380890391624
8988823 20 18408326562531893981

> <PUBCHEM_SHAPE_MULTIPOLES>
493.05
10.43
3.28
2.05
13.35
1.14
-0.19
0.22
6.23
-4.26
-0.18
-0.01
-0.61
0.78

> <PUBCHEM_SHAPE_SELFOVERLAP>
1026.13

> <PUBCHEM_SHAPE_VOLUME>
287.6

> <PUBCHEM_COORDINATE_TYPE>
2
5
10

$$$$

