9543293
  -OEChem-07051213112D

 17 17  0     0  0  0  0  0  0999 V2000
    6.0010   -1.6550    0.0000 Cl  0  0  0  0  0  0  0  0  0  0  0  0
    2.5369   -1.6550    0.0000 Cl  0  0  0  0  0  0  0  0  0  0  0  0
    4.2690    1.3450    0.0000 O   0  0  0  0  0  0  0  0  0  0  0  0
    2.5369    0.3450    0.0000 O   0  0  0  0  0  0  0  0  0  0  0  0
    5.1350   -0.1550    0.0000 C   0  0  0  0  0  0  0  0  0  0  0  0
    4.2690    0.3450    0.0000 C   0  0  0  0  0  0  0  0  0  0  0  0
    5.1350   -1.1550    0.0000 C   0  0  0  0  0  0  0  0  0  0  0  0
    3.4030   -0.1550    0.0000 C   0  0  0  0  0  0  0  0  0  0  0  0
    6.0010    0.3450    0.0000 C   0  0  0  0  0  0  0  0  0  0  0  0
    4.2690   -1.6550    0.0000 C   0  0  0  0  0  0  0  0  0  0  0  0
    3.4030   -1.1550    0.0000 C   0  0  0  0  0  0  0  0  0  0  0  0
    4.2690   -2.2750    0.0000 H   0  0  0  0  0  0  0  0  0  0  0  0
    6.3110   -0.1919    0.0000 H   0  0  0  0  0  0  0  0  0  0  0  0
    6.5380    0.6550    0.0000 H   0  0  0  0  0  0  0  0  0  0  0  0
    5.6910    0.8819    0.0000 H   0  0  0  0  0  0  0  0  0  0  0  0
    4.8059    1.6550    0.0000 H   0  0  0  0  0  0  0  0  0  0  0  0
    2.0000    0.0350    0.0000 H   0  0  0  0  0  0  0  0  0  0  0  0
  1  7  1  0  0  0  0
  2 11  1  0  0  0  0
  3  6  1  0  0  0  0
  3 16  1  0  0  0  0
  4  8  1  0  0  0  0
  4 17  1  0  0  0  0
  5  6  2  0  0  0  0
  5  7  1  0  0  0  0
  5  9  1  0  0  0  0
  6  8  1  0  0  0  0
  7 10  2  0  0  0  0
  8 11  2  0  0  0  0
  9 13  1  0  0  0  0
  9 14  1  0  0  0  0
  9 15  1  0  0  0  0
 10 11  1  0  0  0  0
 10 12  1  0  0  0  0
M  END
> <PUBCHEM_COMPOUND_CID>
9543293

> <PUBCHEM_COMPOUND_CANONICALIZED>
1

> <PUBCHEM_CACTVS_COMPLEXITY>
142

> <PUBCHEM_CACTVS_HBOND_ACCEPTOR>
2

> <PUBCHEM_CACTVS_HBOND_DONOR>
2

> <PUBCHEM_CACTVS_ROTATABLE_BOND>
0

> <PUBCHEM_CACTVS_SUBSKEYS>
AAADcYBgMAAGAAAAAAAAAAAAAAAAAAAAAAAwAAAAAAAAAAABAAAAGgIACAAADAaAmCAyBoAAAgCAAiBCAAACAAAgJUAAiAAEi4gJJiKDEhKAcAEkwBEJmAeAwDAOBCABAQCJSAAIQAICARKQAAAAAAAAAA==

> <PUBCHEM_IUPAC_OPENEYE_NAME>
4,6-dichloro-3-methyl-benzene-1,2-diol

> <PUBCHEM_IUPAC_CAS_NAME>
4,6-dichloro-3-methylbenzene-1,2-diol

> <PUBCHEM_IUPAC_NAME>
4,6-dichloro-3-methylbenzene-1,2-diol

> <PUBCHEM_IUPAC_SYSTEMATIC_NAME>
4,6-bis(chloranyl)-3-methyl-benzene-1,2-diol

> <PUBCHEM_IUPAC_TRADITIONAL_NAME>
4,6-dichloro-3-methyl-pyrocatechol

> <PUBCHEM_IUPAC_INCHI>
InChI=1S/C7H6Cl2O2/c1-3-4(8)2-5(9)7(11)6(3)10/h2,10-11H,1H3

> <PUBCHEM_IUPAC_INCHIKEY>
WHZYTTYRNXQNQF-UHFFFAOYSA-N

> <PUBCHEM_XLOGP3_AA>
2.8

> <PUBCHEM_EXACT_MASS>
191.974485

> <PUBCHEM_MOLECULAR_FORMULA>
C7H6Cl2O2

> <PUBCHEM_MOLECULAR_WEIGHT>
193.02734

> <PUBCHEM_OPENEYE_CAN_SMILES>
CC1=C(C(=C(C=C1Cl)Cl)O)O

> <PUBCHEM_OPENEYE_ISO_SMILES>
CC1=C(C(=C(C=C1Cl)Cl)O)O

> <PUBCHEM_CACTVS_TPSA>
40.5

> <PUBCHEM_MONOISOTOPIC_WEIGHT>
191.974485

> <PUBCHEM_TOTAL_CHARGE>
0

> <PUBCHEM_HEAVY_ATOM_COUNT>
11

> <PUBCHEM_ATOM_DEF_STEREO_COUNT>
0

> <PUBCHEM_ATOM_UDEF_STEREO_COUNT>
0

> <PUBCHEM_BOND_DEF_STEREO_COUNT>
0

> <PUBCHEM_BOND_UDEF_STEREO_COUNT>
0

> <PUBCHEM_ISOTOPIC_ATOM_COUNT>
0

> <PUBCHEM_COMPONENT_COUNT>
1

> <PUBCHEM_CACTVS_TAUTO_COUNT>
12

> <PUBCHEM_COORDINATE_TYPE>
1
5
255

> <PUBCHEM_BONDANNOTATIONS>
10  11  8
5  6  8
5  7  8
6  8  8
7  10  8
8  11  8

$$$$

