242348
  -OEChem-07051213063D

 49 52  0     1  0  0  0  0  0999 V2000
    0.5869   -0.1638    1.2879 F   0  0  0  0  0  0  0  0  0  0  0  0
   -0.2159    2.6389   -0.8033 O   0  0  0  0  0  0  0  0  0  0  0  0
   -4.5886    0.8784    1.2114 O   0  0  0  0  0  0  0  0  0  0  0  0
    5.4016   -0.8508    1.4128 O   0  0  0  0  0  0  0  0  0  0  0  0
   -1.7951   -0.6504   -0.1347 C   0  0  1  0  0  0  0  0  0  0  0  0
   -0.4216   -0.5372   -0.8094 C   0  0  1  0  0  0  0  0  0  0  0  0
   -2.5300    0.7013   -0.0745 C   0  0  2  0  0  0  0  0  0  0  0  0
    0.4707    0.4354    0.0410 C   0  0  1  0  0  0  0  0  0  0  0  0
   -0.2471    1.7906    0.3370 C   0  0  2  0  0  0  0  0  0  0  0  0
   -1.7116    1.6431    0.8086 C   0  0  0  0  0  0  0  0  0  0  0  0
    1.9460    0.5301   -0.5144 C   0  0  1  0  0  0  0  0  0  0  0  0
   -2.8410   -1.6204   -0.6792 C   0  0  0  0  0  0  0  0  0  0  0  0
    0.2323   -1.9246   -0.9371 C   0  0  0  0  0  0  0  0  0  0  0  0
   -4.1141   -1.2455    0.1122 C   0  0  2  0  0  0  0  0  0  0  0  0
   -3.8366    0.2012    0.5225 C   0  0  0  0  0  0  0  0  0  0  0  0
    2.4818   -0.9017   -0.6345 C   0  0  0  0  0  0  0  0  0  0  0  0
    1.6576   -1.8468   -1.4714 C   0  0  0  0  0  0  0  0  0  0  0  0
   -2.8815    1.3363   -1.4312 C   0  0  0  0  0  0  0  0  0  0  0  0
    2.0539    1.1989   -1.9034 C   0  0  0  0  0  0  0  0  0  0  0  0
    2.8059    1.3622    0.4261 C   0  0  0  0  0  0  0  0  0  0  0  0
   -4.3320   -2.1189    1.3368 C   0  0  0  0  0  0  0  0  0  0  0  0
    3.5881   -1.3386   -0.0125 C   0  0  0  0  0  0  0  0  0  0  0  0
    3.9073    0.9325    1.0495 C   0  0  0  0  0  0  0  0  0  0  0  0
    4.3830   -0.4500    0.8597 C   0  0  0  0  0  0  0  0  0  0  0  0
   -1.6019   -0.9863    0.8985 H   0  0  0  0  0  0  0  0  0  0  0  0
   -0.5437   -0.1342   -1.8203 H   0  0  0  0  0  0  0  0  0  0  0  0
    0.2902    2.3099    1.1386 H   0  0  0  0  0  0  0  0  0  0  0  0
   -1.7085    1.2615    1.8386 H   0  0  0  0  0  0  0  0  0  0  0  0
   -2.1963    2.6267    0.8511 H   0  0  0  0  0  0  0  0  0  0  0  0
   -2.5591   -2.6675   -0.5283 H   0  0  0  0  0  0  0  0  0  0  0  0
   -2.9946   -1.4728   -1.7542 H   0  0  0  0  0  0  0  0  0  0  0  0
   -0.3594   -2.5561   -1.6104 H   0  0  0  0  0  0  0  0  0  0  0  0
    0.2384   -2.4258    0.0400 H   0  0  0  0  0  0  0  0  0  0  0  0
   -4.9871   -1.2772   -0.5476 H   0  0  0  0  0  0  0  0  0  0  0  0
    1.6518   -1.5114   -2.5148 H   0  0  0  0  0  0  0  0  0  0  0  0
    2.0886   -2.8555   -1.4780 H   0  0  0  0  0  0  0  0  0  0  0  0
   -2.0103    1.4806   -2.0738 H   0  0  0  0  0  0  0  0  0  0  0  0
   -3.6038    0.7385   -1.9983 H   0  0  0  0  0  0  0  0  0  0  0  0
   -3.3486    2.3171   -1.2819 H   0  0  0  0  0  0  0  0  0  0  0  0
    3.0423    1.0252   -2.3493 H   0  0  0  0  0  0  0  0  0  0  0  0
    1.3125    0.8192   -2.6126 H   0  0  0  0  0  0  0  0  0  0  0  0
    1.9319    2.2863   -1.8545 H   0  0  0  0  0  0  0  0  0  0  0  0
    2.5175    2.3989    0.5859 H   0  0  0  0  0  0  0  0  0  0  0  0
   -4.4585   -3.1673    1.0487 H   0  0  0  0  0  0  0  0  0  0  0  0
   -3.4916   -2.0547    2.0363 H   0  0  0  0  0  0  0  0  0  0  0  0
   -5.2306   -1.8056    1.8789 H   0  0  0  0  0  0  0  0  0  0  0  0
   -0.6144    3.4894   -0.5522 H   0  0  0  0  0  0  0  0  0  0  0  0
    3.9331   -2.3624   -0.1118 H   0  0  0  0  0  0  0  0  0  0  0  0
    4.4803    1.5860    1.6969 H   0  0  0  0  0  0  0  0  0  0  0  0
  1  8  1  0  0  0  0
  2  9  1  0  0  0  0
  2 47  1  0  0  0  0
  3 15  2  0  0  0  0
  4 24  2  0  0  0  0
  5  6  1  0  0  0  0
  5  7  1  0  0  0  0
  5 12  1  0  0  0  0
  5 25  1  0  0  0  0
  6  8  1  0  0  0  0
  6 13  1  0  0  0  0
  6 26  1  0  0  0  0
  7 10  1  0  0  0  0
  7 15  1  0  0  0  0
  7 18  1  0  0  0  0
  8  9  1  0  0  0  0
  8 11  1  0  0  0  0
  9 10  1  0  0  0  0
  9 27  1  0  0  0  0
 10 28  1  0  0  0  0
 10 29  1  0  0  0  0
 11 16  1  0  0  0  0
 11 19  1  0  0  0  0
 11 20  1  0  0  0  0
 12 14  1  0  0  0  0
 12 30  1  0  0  0  0
 12 31  1  0  0  0  0
 13 17  1  0  0  0  0
 13 32  1  0  0  0  0
 13 33  1  0  0  0  0
 14 15  1  0  0  0  0
 14 21  1  0  0  0  0
 14 34  1  0  0  0  0
 16 17  1  0  0  0  0
 16 22  2  0  0  0  0
 17 35  1  0  0  0  0
 17 36  1  0  0  0  0
 18 37  1  0  0  0  0
 18 38  1  0  0  0  0
 18 39  1  0  0  0  0
 19 40  1  0  0  0  0
 19 41  1  0  0  0  0
 19 42  1  0  0  0  0
 20 23  2  0  0  0  0
 20 43  1  0  0  0  0
 21 44  1  0  0  0  0
 21 45  1  0  0  0  0
 21 46  1  0  0  0  0
 22 24  1  0  0  0  0
 22 48  1  0  0  0  0
 23 24  1  0  0  0  0
 23 49  1  0  0  0  0
M  END
> <PUBCHEM_COMPOUND_CID>
242348

> <PUBCHEM_CONFORMER_RMSD>
0.6

> <PUBCHEM_CONFORMER_DIVERSEORDER>
1

> <PUBCHEM_MMFF94_PARTIAL_CHARGES>
20
1 -0.34
11 0.28
14 0.06
15 0.45
16 -0.28
17 0.14
2 -0.68
20 -0.29
22 -0.14
23 -0.14
24 0.54
3 -0.57
4 -0.57
43 0.15
47 0.4
48 0.15
49 0.15
7 0.06
8 0.34
9 0.28

> <PUBCHEM_EFFECTIVE_ROTOR_COUNT>
1.2

> <PUBCHEM_PHARMACOPHORE_FEATURES>
8
1 2 acceptor
1 2 donor
1 3 acceptor
1 4 acceptor
5 5 7 12 14 15 rings
6 11 16 20 22 23 24 rings
6 5 6 7 8 9 10 rings
6 6 8 11 13 16 17 rings

> <PUBCHEM_HEAVY_ATOM_COUNT>
24

> <PUBCHEM_ATOM_DEF_STEREO_COUNT>
7

> <PUBCHEM_ATOM_UDEF_STEREO_COUNT>
0

> <PUBCHEM_BOND_DEF_STEREO_COUNT>
0

> <PUBCHEM_BOND_UDEF_STEREO_COUNT>
0

> <PUBCHEM_ISOTOPIC_ATOM_COUNT>
0

> <PUBCHEM_COMPONENT_COUNT>
1

> <PUBCHEM_CACTVS_TAUTO_COUNT>
6

> <PUBCHEM_CONFORMER_ID>
0003B2AC00000001

> <PUBCHEM_MMFF94_ENERGY>
77.2553

> <PUBCHEM_FEATURE_SELFOVERLAP>
40.697

> <PUBCHEM_SHAPE_FINGERPRINT>
10062212 137 18410293580059616031
10863032 1 18259987063065676796
11132069 177 18333729139209033879
11796584 16 17131563726062708979
12236239 1 18273208682512035132
12403814 3 18408890624755224895
12422481 6 18188485890631192242
12553582 1 18189603969856048727
12633257 1 18201429277521229051
12839892 36 18261121780841785866
13140716 1 18263073469841705595
13224815 77 18260828193798097335
13583140 156 18059030474098307070
13675066 3 18411421708627067922
14178342 30 18262508294984364425
14223421 5 18115586096624782278
14787075 74 18129944451642433264
14790565 3 17973720281970697496
15196674 1 18260546718821516399
15209289 33 17632576058760046747
15788980 27 17704355472208677657
16752209 62 11455629663444209662
16945 1 17967808383618954524
17349148 13 17060336344617499346
1813 80 17775284989055010534
18186145 218 17894908542478810588
200 152 15051734200523097779
20261772 1 18114744832738137902
20715895 44 18125728026682900989
20775438 99 13251391456548407513
21033648 29 17677070030572154520
21069387 34 17060337413964102888
21267235 1 18335975398309523262
21637258 2 16558482971650956290
21756936 100 17024893459217774152
22182313 1 18188203324727332094
23184049 59 18334016064420063414
23402539 116 18412272739243359399
23419403 2 15580114280096117911
23557571 272 18340773731672786981
23559900 14 18188761890004681174
26918003 58 18410579504348021985
2748010 2 18334568088124533127
296302 2 15213021552664346182
3286 77 16200153175070847932
350125 39 18260265253257770600
392239 28 17386010524659983938
394222 165 17841695323811401812
4340502 62 17530682121696525291
465052 167 18128247888327107715
474 4 5256107065285678426
5104073 3 18409165485076267945
633830 44 17240480299605655148
9709674 26 18042685181315696031

> <PUBCHEM_SHAPE_MULTIPOLES>
469.03
8.86
2.28
1.45
0.66
0.07
-0.18
-2.35
4.14
-0.68
-0.3
0.32
0
0.36

> <PUBCHEM_SHAPE_SELFOVERLAP>
1025.556

> <PUBCHEM_SHAPE_VOLUME>
256.3

> <PUBCHEM_COORDINATE_TYPE>
2
5
10

$$$$

