7739
  -OEChem-06261202173D

 30 29  0     0  0  0  0  0  0999 V2000
   -3.1660   -1.1577   -0.6624 O   0  0  0  0  0  0  0  0  0  0  0  0
    1.8080   -0.0185   -0.1624 N   0  0  0  0  0  0  0  0  0  0  0  0
    0.6145    0.6897    0.2849 C   0  0  0  0  0  0  0  0  0  0  0  0
   -0.6409   -0.0892   -0.1022 C   0  0  0  0  0  0  0  0  0  0  0  0
    1.8792   -1.3464    0.4498 C   0  0  0  0  0  0  0  0  0  0  0  0
    3.0127    0.7511    0.1530 C   0  0  0  0  0  0  0  0  0  0  0  0
   -1.9050    0.6464    0.3388 C   0  0  0  0  0  0  0  0  0  0  0  0
    3.0833   -2.1212   -0.0582 C   0  0  0  0  0  0  0  0  0  0  0  0
    2.9601    2.1344   -0.4732 C   0  0  0  0  0  0  0  0  0  0  0  0
   -3.1746   -0.0813   -0.0674 C   0  0  0  0  0  0  0  0  0  0  0  0
   -4.4713    0.5926    0.2994 C   0  0  0  0  0  0  0  0  0  0  0  0
    0.6326    0.8604    1.3693 H   0  0  0  0  0  0  0  0  0  0  0  0
    0.5247    1.6665   -0.2013 H   0  0  0  0  0  0  0  0  0  0  0  0
   -0.6866   -1.0700    0.3801 H   0  0  0  0  0  0  0  0  0  0  0  0
   -0.6651   -0.2563   -1.1867 H   0  0  0  0  0  0  0  0  0  0  0  0
    1.9024   -1.2951    1.5455 H   0  0  0  0  0  0  0  0  0  0  0  0
    1.0259   -1.9658    0.1636 H   0  0  0  0  0  0  0  0  0  0  0  0
    3.1689    0.8430    1.2352 H   0  0  0  0  0  0  0  0  0  0  0  0
    3.8997    0.2687   -0.2703 H   0  0  0  0  0  0  0  0  0  0  0  0
   -1.9136    0.7582    1.4287 H   0  0  0  0  0  0  0  0  0  0  0  0
   -1.9333    1.6434   -0.1150 H   0  0  0  0  0  0  0  0  0  0  0  0
    3.1585   -2.0857   -1.1505 H   0  0  0  0  0  0  0  0  0  0  0  0
    4.0231   -1.7657    0.3753 H   0  0  0  0  0  0  0  0  0  0  0  0
    2.9892   -3.1753    0.2275 H   0  0  0  0  0  0  0  0  0  0  0  0
    2.6627    2.0947   -1.5269 H   0  0  0  0  0  0  0  0  0  0  0  0
    2.2899    2.8128    0.0636 H   0  0  0  0  0  0  0  0  0  0  0  0
    3.9561    2.5904   -0.4347 H   0  0  0  0  0  0  0  0  0  0  0  0
   -4.5286    1.5679   -0.1902 H   0  0  0  0  0  0  0  0  0  0  0  0
   -4.5286    0.7106    1.3843 H   0  0  0  0  0  0  0  0  0  0  0  0
   -5.3132   -0.0205   -0.0340 H   0  0  0  0  0  0  0  0  0  0  0  0
  1 10  2  0  0  0  0
  2  3  1  0  0  0  0
  2  5  1  0  0  0  0
  2  6  1  0  0  0  0
  3  4  1  0  0  0  0
  3 12  1  0  0  0  0
  3 13  1  0  0  0  0
  4  7  1  0  0  0  0
  4 14  1  0  0  0  0
  4 15  1  0  0  0  0
  5  8  1  0  0  0  0
  5 16  1  0  0  0  0
  5 17  1  0  0  0  0
  6  9  1  0  0  0  0
  6 18  1  0  0  0  0
  6 19  1  0  0  0  0
  7 10  1  0  0  0  0
  7 20  1  0  0  0  0
  7 21  1  0  0  0  0
  8 22  1  0  0  0  0
  8 23  1  0  0  0  0
  8 24  1  0  0  0  0
  9 25  1  0  0  0  0
  9 26  1  0  0  0  0
  9 27  1  0  0  0  0
 10 11  1  0  0  0  0
 11 28  1  0  0  0  0
 11 29  1  0  0  0  0
 11 30  1  0  0  0  0
M  END
> <PUBCHEM_COMPOUND_CID>
7739

> <PUBCHEM_CONFORMER_RMSD>
0.6

> <PUBCHEM_CONFORMER_DIVERSEORDER>
1
129
115
126
113
128
25
71
130
54
124
98
78
29
132
34
111
56
80
37
131
59
123
100
133
79
102
134
82
127
84
35
105
14
27
125
73
74
44
51
63
109
46
49
108
26
97
50
112
99
72
87
104
39
23
107
68
70
118
31
58
32
21
95
55
43
64
17
77
90
36
69
61
116
103
76
30
52
13
38
86
33
92
60
83
93
6
8
24
42
120
45
62
67
47
66
16
41
65
89
106
101
114
3
11
117
110
40
119
75
96
122
18
48
5
88
28
9
121
81
57
53
7
10
91
20
4
2
12
22
85
15
94
19

> <PUBCHEM_MMFF94_PARTIAL_CHARGES>
8
1 -0.57
10 0.45
11 0.06
2 -0.81
3 0.27
5 0.27
6 0.27
7 0.06

> <PUBCHEM_EFFECTIVE_ROTOR_COUNT>
6

> <PUBCHEM_PHARMACOPHORE_FEATURES>
2
1 1 acceptor
1 2 cation

> <PUBCHEM_HEAVY_ATOM_COUNT>
11

> <PUBCHEM_ATOM_DEF_STEREO_COUNT>
0

> <PUBCHEM_ATOM_UDEF_STEREO_COUNT>
0

> <PUBCHEM_BOND_DEF_STEREO_COUNT>
0

> <PUBCHEM_BOND_UDEF_STEREO_COUNT>
0

> <PUBCHEM_ISOTOPIC_ATOM_COUNT>
0

> <PUBCHEM_COMPONENT_COUNT>
1

> <PUBCHEM_CACTVS_TAUTO_COUNT>
3

> <PUBCHEM_CONFORMER_ID>
00001E3B00000001

> <PUBCHEM_MMFF94_ENERGY>
9.6556

> <PUBCHEM_FEATURE_SELFOVERLAP>
10.148

> <PUBCHEM_SHAPE_FINGERPRINT>
12346645 6 18409166619253452006
12932764 1 17489595601222972707
13380535 76 18271247097717223602
14251717 144 18412548703998633786
14325111 11 18409730655796662825
15442244 35 18265049326285314768
15477762 27 18339078302233835866
15669948 3 17676774180308333231
15775835 57 18334573521247456621
170605 34 18202285758319091800
18186145 218 17632860849646434907
19422 9 18333732420717184639
20279233 1 17132115732217303019
20281475 54 18333455326744149023
20645477 70 18410577322700158719
20671657 53 18196087965981993634
20711985 365 18192432085461452121
20871998 22 18119811567524814702
21499 59 18126284147426941580
22485316 2 18334581239456622825
2255824 54 18341891922350736090
23380061 81 18413384349815133305
23402655 69 18409729573196268765
23532345 1 18342736278265920793
23598291 2 18118668040560343616
3248919 1 18273219668521309649
449060 50 18272646810300109701
449060 62 18410006602982139172
581208 293 18412549786372408560
7364860 26 18408322198824022024
81539 233 18130507431913709716

> <PUBCHEM_SHAPE_MULTIPOLES>
215.52
7.76
1.9
0.7
6.39
0.15
0
-0.16
-0.19
-2.61
-0.19
0.05
0
-0.54

> <PUBCHEM_SHAPE_SELFOVERLAP>
392.021

> <PUBCHEM_SHAPE_VOLUME>
139.4

> <PUBCHEM_COORDINATE_TYPE>
2
5
10

$$$$

