129958
  -OEChem-07051213042D

 25 27  0     0  0  0  0  0  0999 V2000
    5.3923   -2.1355    0.0000 Br  0  0  0  0  0  0  0  0  0  0  0  0
    8.0321    0.2230    0.0000 Br  0  0  0  0  0  0  0  0  0  0  0  0
    7.3991   -1.7251    0.0000 O   0  0  0  0  0  0  0  0  0  0  0  0
    4.5274    1.1355    0.0000 N   0  0  0  0  0  0  0  0  0  0  0  0
    2.0000    0.0113    0.0000 N   0  0  0  0  0  0  0  0  0  0  0  0
    5.3364    0.5477    0.0000 C   0  0  0  0  0  0  0  0  0  0  0  0
    5.0274   -0.4033    0.0000 C   0  0  0  0  0  0  0  0  0  0  0  0
    4.0274   -0.4033    0.0000 C   0  0  0  0  0  0  0  0  0  0  0  0
    3.7183    0.5477    0.0000 C   0  0  0  0  0  0  0  0  0  0  0  0
    5.7123   -1.1881    0.0000 C   0  0  0  0  0  0  0  0  0  0  0  0
    6.3518    0.7800    0.0000 C   0  0  0  0  0  0  0  0  0  0  0  0
    4.5274    2.1355    0.0000 C   0  0  0  0  0  0  0  0  0  0  0  0
    3.3424   -1.1881    0.0000 C   0  0  0  0  0  0  0  0  0  0  0  0
    2.7029    0.7800    0.0000 C   0  0  0  0  0  0  0  0  0  0  0  0
    6.7328   -0.9794    0.0000 C   0  0  0  0  0  0  0  0  0  0  0  0
    7.0547    0.0113    0.0000 C   0  0  0  0  0  0  0  0  0  0  0  0
    2.3219   -0.9794    0.0000 C   0  0  0  0  0  0  0  0  0  0  0  0
    6.5365    1.3718    0.0000 H   0  0  0  0  0  0  0  0  0  0  0  0
    5.1474    2.1355    0.0000 H   0  0  0  0  0  0  0  0  0  0  0  0
    4.5274    2.7555    0.0000 H   0  0  0  0  0  0  0  0  0  0  0  0
    3.9074    2.1355    0.0000 H   0  0  0  0  0  0  0  0  0  0  0  0
    3.5408   -1.7755    0.0000 H   0  0  0  0  0  0  0  0  0  0  0  0
    2.5182    1.3718    0.0000 H   0  0  0  0  0  0  0  0  0  0  0  0
    1.9088   -1.4417    0.0000 H   0  0  0  0  0  0  0  0  0  0  0  0
    8.0060   -1.5985    0.0000 H   0  0  0  0  0  0  0  0  0  0  0  0
  1 10  1  0  0  0  0
  2 16  1  0  0  0  0
  3 15  1  0  0  0  0
  3 25  1  0  0  0  0
  4  6  1  0  0  0  0
  4  9  1  0  0  0  0
  4 12  1  0  0  0  0
  5 14  2  0  0  0  0
  5 17  1  0  0  0  0
  6  7  1  0  0  0  0
  6 11  2  0  0  0  0
  7  8  1  0  0  0  0
  7 10  2  0  0  0  0
  8  9  2  0  0  0  0
  8 13  1  0  0  0  0
  9 14  1  0  0  0  0
 10 15  1  0  0  0  0
 11 16  1  0  0  0  0
 11 18  1  0  0  0  0
 12 19  1  0  0  0  0
 12 20  1  0  0  0  0
 12 21  1  0  0  0  0
 13 17  2  0  0  0  0
 13 22  1  0  0  0  0
 14 23  1  0  0  0  0
 15 16  2  0  0  0  0
 17 24  1  0  0  0  0
M  END
> <PUBCHEM_COMPOUND_CID>
129958

> <PUBCHEM_COMPOUND_CANONICALIZED>
1

> <PUBCHEM_CACTVS_COMPLEXITY>
304

> <PUBCHEM_CACTVS_HBOND_ACCEPTOR>
2

> <PUBCHEM_CACTVS_HBOND_DONOR>
1

> <PUBCHEM_CACTVS_ROTATABLE_BOND>
0

> <PUBCHEM_CACTVS_SUBSKEYS>
AAADccBzIAAAGAAAAAAAAAAAAAAAAWAAAAA8QAAAAAAAAFgB/gAAHgBACAABrAzBngQ+xvMMEgCgAzRnRACCgCQxMiQI2CA8fLgIZuLCkJOUcAhkwBHI2hew0PMOgkABAAEihAAEgAIAAkUIAAAAAAAAAA==

> <PUBCHEM_IUPAC_OPENEYE_NAME>
5,7-dibromo-9-methyl-pyrido[3,4-b]indol-6-ol

> <PUBCHEM_IUPAC_CAS_NAME>
5,7-dibromo-9-methyl-6-pyrido[3,4-b]indolol

> <PUBCHEM_IUPAC_NAME>
5,7-dibromo-9-methylpyrido[3,4-b]indol-6-ol

> <PUBCHEM_IUPAC_SYSTEMATIC_NAME>
5,7-bis(bromanyl)-9-methyl-pyrido[3,4-b]indol-6-ol

> <PUBCHEM_IUPAC_TRADITIONAL_NAME>
5,7-dibromo-9-methyl-$b-carbolin-6-ol

> <PUBCHEM_IUPAC_INCHI>
InChI=1S/C12H8Br2N2O/c1-16-8-4-7(13)12(17)11(14)10(8)6-2-3-15-5-9(6)16/h2-5,17H,1H3

> <PUBCHEM_IUPAC_INCHIKEY>
BFWFPORISPXHAR-UHFFFAOYSA-N

> <PUBCHEM_XLOGP3_AA>
3.3

> <PUBCHEM_EXACT_MASS>
355.898291

> <PUBCHEM_MOLECULAR_FORMULA>
C12H8Br2N2O

> <PUBCHEM_MOLECULAR_WEIGHT>
356.01272

> <PUBCHEM_OPENEYE_CAN_SMILES>
CN1C2=CC(=C(C(=C2C3=C1C=NC=C3)Br)O)Br

> <PUBCHEM_OPENEYE_ISO_SMILES>
CN1C2=CC(=C(C(=C2C3=C1C=NC=C3)Br)O)Br

> <PUBCHEM_CACTVS_TPSA>
38

> <PUBCHEM_MONOISOTOPIC_WEIGHT>
353.900337

> <PUBCHEM_TOTAL_CHARGE>
0

> <PUBCHEM_HEAVY_ATOM_COUNT>
17

> <PUBCHEM_ATOM_DEF_STEREO_COUNT>
0

> <PUBCHEM_ATOM_UDEF_STEREO_COUNT>
0

> <PUBCHEM_BOND_DEF_STEREO_COUNT>
0

> <PUBCHEM_BOND_UDEF_STEREO_COUNT>
0

> <PUBCHEM_ISOTOPIC_ATOM_COUNT>
0

> <PUBCHEM_COMPONENT_COUNT>
1

> <PUBCHEM_CACTVS_TAUTO_COUNT>
3

> <PUBCHEM_COORDINATE_TYPE>
1
5
255

> <PUBCHEM_BONDANNOTATIONS>
10  15  8
11  16  8
13  17  8
15  16  8
4  6  8
4  9  8
5  14  8
5  17  8
6  11  8
6  7  8
7  10  8
7  8  8
8  13  8
8  9  8
9  14  8

$$$$

