442978
  -OEChem-07051213003D

 64 67  0     1  0  0  0  0  0999 V2000
    6.9125    0.3774    0.4991 O   0  0  0  0  0  0  0  0  0  0  0  0
   -5.5930   -0.0465    0.3152 N   0  0  0  0  0  0  0  0  0  0  0  0
   -1.7871    0.1556   -0.3373 C   0  0  1  0  0  0  0  0  0  0  0  0
   -0.9447   -1.0383    0.1543 C   0  0  2  0  0  0  0  0  0  0  0  0
    0.5173   -0.9756   -0.2993 C   0  0  1  0  0  0  0  0  0  0  0  0
    1.1629    0.3463    0.2093 C   0  0  1  0  0  0  0  0  0  0  0  0
   -3.1645   -0.2612    0.2338 C   0  0  2  0  0  0  0  0  0  0  0  0
   -1.1917    1.4269    0.2837 C   0  0  0  0  0  0  0  0  0  0  0  0
    2.6652    0.4771   -0.2668 C   0  0  2  0  0  0  0  0  0  0  0  0
   -1.7818   -2.2550   -0.2287 C   0  0  0  0  0  0  0  0  0  0  0  0
    0.2906    1.5961   -0.0927 C   0  0  0  0  0  0  0  0  0  0  0  0
   -3.2361   -1.7793   -0.0542 C   0  0  0  0  0  0  0  0  0  0  0  0
    1.3031   -2.1852    0.2288 C   0  0  0  0  0  0  0  0  0  0  0  0
   -1.8412    0.2968   -1.8788 C   0  0  0  0  0  0  0  0  0  0  0  0
   -4.3759    0.4982   -0.2876 C   0  0  2  0  0  0  0  0  0  0  0  0
    3.4137   -0.8507   -0.0833 C   0  0  0  0  0  0  0  0  0  0  0  0
    3.3564    1.5753    0.5955 C   0  0  0  0  0  0  0  0  0  0  0  0
    2.7865   -2.0167    0.1497 C   0  0  0  0  0  0  0  0  0  0  0  0
    2.7498    0.8705   -1.7613 C   0  0  0  0  0  0  0  0  0  0  0  0
    4.9221   -0.8097   -0.1665 C   0  0  0  0  0  0  0  0  0  0  0  0
    4.8757    1.6320    0.4432 C   0  0  0  0  0  0  0  0  0  0  0  0
    5.5109    0.2761    0.7299 C   0  0  2  0  0  0  0  0  0  0  0  0
   -4.2636    1.9912    0.0141 C   0  0  0  0  0  0  0  0  0  0  0  0
   -6.7696    0.6707   -0.1739 C   0  0  0  0  0  0  0  0  0  0  0  0
   -5.5176    0.0280    1.7734 C   0  0  0  0  0  0  0  0  0  0  0  0
   -0.9287   -1.0169    1.2573 H   0  0  0  0  0  0  0  0  0  0  0  0
    0.5591   -1.0065   -1.3939 H   0  0  0  0  0  0  0  0  0  0  0  0
    1.1824    0.2658    1.3086 H   0  0  0  0  0  0  0  0  0  0  0  0
   -3.0730   -0.1312    1.3207 H   0  0  0  0  0  0  0  0  0  0  0  0
   -1.2736    1.3920    1.3776 H   0  0  0  0  0  0  0  0  0  0  0  0
   -1.7008    2.3355   -0.0386 H   0  0  0  0  0  0  0  0  0  0  0  0
   -1.5660   -3.1179    0.4097 H   0  0  0  0  0  0  0  0  0  0  0  0
   -1.6003   -2.5567   -1.2663 H   0  0  0  0  0  0  0  0  0  0  0  0
    0.3472    1.8568   -1.1535 H   0  0  0  0  0  0  0  0  0  0  0  0
    0.6823    2.4600    0.4561 H   0  0  0  0  0  0  0  0  0  0  0  0
   -3.8050   -2.0032   -0.9639 H   0  0  0  0  0  0  0  0  0  0  0  0
   -3.7180   -2.3128    0.7722 H   0  0  0  0  0  0  0  0  0  0  0  0
    1.0190   -3.0748   -0.3462 H   0  0  0  0  0  0  0  0  0  0  0  0
    1.0432   -2.3884    1.2752 H   0  0  0  0  0  0  0  0  0  0  0  0
   -2.3838    1.1988   -2.1789 H   0  0  0  0  0  0  0  0  0  0  0  0
   -0.8477    0.3729   -2.3289 H   0  0  0  0  0  0  0  0  0  0  0  0
   -2.3362   -0.5535   -2.3586 H   0  0  0  0  0  0  0  0  0  0  0  0
   -4.4557    0.3632   -1.3733 H   0  0  0  0  0  0  0  0  0  0  0  0
    3.1316    1.4040    1.6572 H   0  0  0  0  0  0  0  0  0  0  0  0
    2.9511    2.5643    0.3505 H   0  0  0  0  0  0  0  0  0  0  0  0
    3.3724   -2.9216    0.2925 H   0  0  0  0  0  0  0  0  0  0  0  0
    2.3676    1.8814   -1.9357 H   0  0  0  0  0  0  0  0  0  0  0  0
    3.7791    0.8673   -2.1353 H   0  0  0  0  0  0  0  0  0  0  0  0
    2.1821    0.1822   -2.3957 H   0  0  0  0  0  0  0  0  0  0  0  0
    5.3677   -1.7747    0.1081 H   0  0  0  0  0  0  0  0  0  0  0  0
    5.2303   -0.6438   -1.2065 H   0  0  0  0  0  0  0  0  0  0  0  0
    5.1510    1.9750   -0.5618 H   0  0  0  0  0  0  0  0  0  0  0  0
    5.2891    2.3825    1.1285 H   0  0  0  0  0  0  0  0  0  0  0  0
    5.3636    0.0173    1.7856 H   0  0  0  0  0  0  0  0  0  0  0  0
   -5.1883    2.5585   -0.1122 H   0  0  0  0  0  0  0  0  0  0  0  0
   -3.8826    2.2015    1.0187 H   0  0  0  0  0  0  0  0  0  0  0  0
   -3.5950    2.4654   -0.7094 H   0  0  0  0  0  0  0  0  0  0  0  0
   -6.7458    0.8016   -1.2619 H   0  0  0  0  0  0  0  0  0  0  0  0
   -6.9410    1.6409    0.3039 H   0  0  0  0  0  0  0  0  0  0  0  0
   -7.6605    0.0659    0.0352 H   0  0  0  0  0  0  0  0  0  0  0  0
   -4.8096   -0.6854    2.2044 H   0  0  0  0  0  0  0  0  0  0  0  0
   -6.4839   -0.2796    2.1955 H   0  0  0  0  0  0  0  0  0  0  0  0
   -5.3179    1.0275    2.1716 H   0  0  0  0  0  0  0  0  0  0  0  0
    7.3041   -0.4920    0.6896 H   0  0  0  0  0  0  0  0  0  0  0  0
  1 22  1  0  0  0  0
  1 64  1  0  0  0  0
  2 15  1  0  0  0  0
  2 24  1  0  0  0  0
  2 25  1  0  0  0  0
  3  4  1  0  0  0  0
  3  7  1  0  0  0  0
  3  8  1  0  0  0  0
  3 14  1  0  0  0  0
  4  5  1  0  0  0  0
  4 10  1  0  0  0  0
  4 26  1  0  0  0  0
  5  6  1  0  0  0  0
  5 13  1  0  0  0  0
  5 27  1  0  0  0  0
  6  9  1  0  0  0  0
  6 11  1  0  0  0  0
  6 28  1  0  0  0  0
  7 12  1  0  0  0  0
  7 15  1  0  0  0  0
  7 29  1  0  0  0  0
  8 11  1  0  0  0  0
  8 30  1  0  0  0  0
  8 31  1  0  0  0  0
  9 16  1  0  0  0  0
  9 17  1  0  0  0  0
  9 19  1  0  0  0  0
 10 12  1  0  0  0  0
 10 32  1  0  0  0  0
 10 33  1  0  0  0  0
 11 34  1  0  0  0  0
 11 35  1  0  0  0  0
 12 36  1  0  0  0  0
 12 37  1  0  0  0  0
 13 18  1  0  0  0  0
 13 38  1  0  0  0  0
 13 39  1  0  0  0  0
 14 40  1  0  0  0  0
 14 41  1  0  0  0  0
 14 42  1  0  0  0  0
 15 23  1  0  0  0  0
 15 43  1  0  0  0  0
 16 18  2  0  0  0  0
 16 20  1  0  0  0  0
 17 21  1  0  0  0  0
 17 44  1  0  0  0  0
 17 45  1  0  0  0  0
 18 46  1  0  0  0  0
 19 47  1  0  0  0  0
 19 48  1  0  0  0  0
 19 49  1  0  0  0  0
 20 22  1  0  0  0  0
 20 50  1  0  0  0  0
 20 51  1  0  0  0  0
 21 22  1  0  0  0  0
 21 52  1  0  0  0  0
 21 53  1  0  0  0  0
 22 54  1  0  0  0  0
 23 55  1  0  0  0  0
 23 56  1  0  0  0  0
 23 57  1  0  0  0  0
 24 58  1  0  0  0  0
 24 59  1  0  0  0  0
 24 60  1  0  0  0  0
 25 61  1  0  0  0  0
 25 62  1  0  0  0  0
 25 63  1  0  0  0  0
M  END
> <PUBCHEM_COMPOUND_CID>
442978

> <PUBCHEM_CONFORMER_RMSD>
0.8

> <PUBCHEM_CONFORMER_DIVERSEORDER>
1

> <PUBCHEM_MMFF94_PARTIAL_CHARGES>
13
1 -0.68
13 0.14
15 0.27
16 -0.28
18 -0.29
2 -0.81
20 0.14
22 0.28
24 0.27
25 0.27
46 0.15
64 0.4
9 0.14

> <PUBCHEM_EFFECTIVE_ROTOR_COUNT>
4

> <PUBCHEM_PHARMACOPHORE_FEATURES>
7
1 1 acceptor
1 1 donor
1 2 cation
5 3 4 7 10 12 rings
6 3 4 5 6 8 11 rings
6 5 6 9 13 16 18 rings
6 9 16 17 20 21 22 rings

> <PUBCHEM_HEAVY_ATOM_COUNT>
25

> <PUBCHEM_ATOM_DEF_STEREO_COUNT>
8

> <PUBCHEM_ATOM_UDEF_STEREO_COUNT>
0

> <PUBCHEM_BOND_DEF_STEREO_COUNT>
0

> <PUBCHEM_BOND_UDEF_STEREO_COUNT>
0

> <PUBCHEM_ISOTOPIC_ATOM_COUNT>
0

> <PUBCHEM_COMPONENT_COUNT>
1

> <PUBCHEM_CACTVS_TAUTO_COUNT>
1

> <PUBCHEM_CONFORMER_ID>
0006C26200000001

> <PUBCHEM_MMFF94_ENERGY>
88.9755

> <PUBCHEM_FEATURE_SELFOVERLAP>
35.616

> <PUBCHEM_SHAPE_FINGERPRINT>
10 15 18202003205500905224
10366900 7 5617538510198405814
10411042 1 17761211420588264958
10906281 52 18188755193686150166
11089746 13 17530687584599637361
11578080 2 16879932754250564451
11646440 116 18261103063226266761
12107183 9 17614840043003530443
12236239 1 17603586348309462755
12403259 415 18271818904072875676
12403814 3 17704077287377285343
12596602 18 17822005411393958555
12616971 3 17489306334911869342
12633257 1 16845291609899460938
12788726 201 17241042218671876673
12838862 33 18338536190949960424
13140716 1 18195244421251132137
13533116 47 17967813907142419958
13782708 43 13542469756547147944
14251764 18 18113616768763422153
14341114 176 18412543245364303882
14790565 3 18409164381206342520
15142383 8 17418383509872425989
15196674 1 18409731716580017698
15788980 27 18060419096964748360
17980427 23 18200036110621619620
1813 80 16845287258823238701
18222031 100 10447930529368084301
18785283 64 17915449515509004685
19141452 34 18410576145715485391
19784866 9 18411984667518622730
20645477 56 18413112753495143125
21033648 29 18339941380070161289
21150785 3 16443351953528102757
21236236 1 18262239915959337055
21267235 1 18339071683224983118
21279426 13 18192430985633105668
21421861 104 18059024998442591570
22182313 1 17988090013833534679
23402539 116 18187654565830997182
23559900 14 18334297544372320760
335352 9 18409449185515976342
34797466 226 17022897934805126261
34934 24 18335143076644600255
350125 39 18413670206164979012
3545911 37 18411136943715912550
3633792 109 18262804089993885053
3680242 22 18412831317500452666
4073 2 18201717302481633842
4093350 32 17095519634781085782
4340502 62 18411697690356554695
465052 167 16917063352563031584
474 4 17917704695482537310
5104073 3 18338801113286360346
542803 24 17022620883934556041
7226269 152 18040434412579349417
7495541 125 15195275404895667588

> <PUBCHEM_SHAPE_MULTIPOLES>
503.64
14.14
2.1
1.09
2.16
0.58
-0.23
-3.7
3.41
-0.28
0.07
0.39
-0.19
0.2

> <PUBCHEM_SHAPE_SELFOVERLAP>
1060.748

> <PUBCHEM_SHAPE_VOLUME>
283.9

> <PUBCHEM_COORDINATE_TYPE>
2
5
10

$$$$

