5284271
  -OEChem-07051212503D

 76 79  0     1  0  0  0  0  0999 V2000
   -0.6277    0.7112   -1.5762 O   0  0  0  0  0  0  0  0  0  0  0  0
    1.8299    1.0480    2.3939 O   0  0  0  0  0  0  0  0  0  0  0  0
    6.1862    2.9192   -0.4052 O   0  0  0  0  0  0  0  0  0  0  0  0
   -0.8018   -1.3143   -0.2205 C   0  0  1  0  0  0  0  0  0  0  0  0
   -0.0469   -0.6653    0.9641 C   0  0  2  0  0  0  0  0  0  0  0  0
    1.4726   -0.8920    0.9120 C   0  0  1  0  0  0  0  0  0  0  0  0
    2.0233   -0.2930   -0.4191 C   0  0  1  0  0  0  0  0  0  0  0  0
    3.5864   -0.4416   -0.5610 C   0  0  2  0  0  0  0  0  0  0  0  0
   -2.2531   -0.9529    0.1947 C   0  0  2  0  0  0  0  0  0  0  0  0
   -0.2943   -0.6760   -1.5299 C   0  0  2  0  0  0  0  0  0  0  0  0
    1.2365   -0.8193   -1.6582 C   0  0  0  0  0  0  0  0  0  0  0  0
   -0.8163   -1.1492    2.1914 C   0  0  0  0  0  0  0  0  0  0  0  0
    4.3229    0.0576    0.7302 C   0  0  2  0  0  0  0  0  0  0  0  0
    2.1854   -0.3074    2.1441 C   0  0  1  0  0  0  0  0  0  0  0  0
   -2.2788   -1.2227    1.7171 C   0  0  0  0  0  0  0  0  0  0  0  0
    3.7000   -0.4425    2.0431 C   0  0  0  0  0  0  0  0  0  0  0  0
   -0.6232   -2.8542   -0.3034 C   0  0  0  0  0  0  0  0  0  0  0  0
    4.0599    0.3945   -1.7982 C   0  0  0  0  0  0  0  0  0  0  0  0
   -3.3687   -1.6687   -0.5534 C   0  0  1  0  0  0  0  0  0  0  0  0
    3.9944   -1.9179   -0.7942 C   0  0  0  0  0  0  0  0  0  0  0  0
    4.5351    1.5780    0.7064 C   0  0  0  0  0  0  0  0  0  0  0  0
    5.4521    0.9953   -1.6356 C   0  0  0  0  0  0  0  0  0  0  0  0
    5.4606    1.9266   -0.4422 C   0  0  0  0  0  0  0  0  0  0  0  0
   -4.7746   -1.2321   -0.0904 C   0  0  0  0  0  0  0  0  0  0  0  0
   -3.2343   -1.4200   -2.0612 C   0  0  0  0  0  0  0  0  0  0  0  0
   -5.0828    0.2673   -0.1977 C   0  0  0  0  0  0  0  0  0  0  0  0
   -6.4638    0.6476    0.3459 C   0  0  0  0  0  0  0  0  0  0  0  0
   -6.8008    2.1415    0.1727 C   0  0  0  0  0  0  0  0  0  0  0  0
   -6.7327    2.5935   -1.2870 C   0  0  0  0  0  0  0  0  0  0  0  0
   -5.8457    2.9888    1.0178 C   0  0  0  0  0  0  0  0  0  0  0  0
   -0.2072    0.4241    0.9218 H   0  0  0  0  0  0  0  0  0  0  0  0
    1.6720   -1.9693    0.9195 H   0  0  0  0  0  0  0  0  0  0  0  0
    1.8171    0.7864   -0.3843 H   0  0  0  0  0  0  0  0  0  0  0  0
   -2.3725    0.1297    0.0615 H   0  0  0  0  0  0  0  0  0  0  0  0
   -0.7249   -1.1405   -2.4170 H   0  0  0  0  0  0  0  0  0  0  0  0
    1.5607   -0.2666   -2.5477 H   0  0  0  0  0  0  0  0  0  0  0  0
    1.4761   -1.8711   -1.8389 H   0  0  0  0  0  0  0  0  0  0  0  0
   -0.7089   -0.4639    3.0383 H   0  0  0  0  0  0  0  0  0  0  0  0
   -0.4708   -2.1361    2.5189 H   0  0  0  0  0  0  0  0  0  0  0  0
    5.3364   -0.3742    0.7234 H   0  0  0  0  0  0  0  0  0  0  0  0
    1.8645   -0.8630    3.0331 H   0  0  0  0  0  0  0  0  0  0  0  0
   -2.6943   -2.2078    1.9578 H   0  0  0  0  0  0  0  0  0  0  0  0
   -2.8922   -0.4741    2.2308 H   0  0  0  0  0  0  0  0  0  0  0  0
    3.9513   -1.5056    2.1530 H   0  0  0  0  0  0  0  0  0  0  0  0
    4.1735    0.0730    2.8881 H   0  0  0  0  0  0  0  0  0  0  0  0
   -1.0394   -3.3721    0.5665 H   0  0  0  0  0  0  0  0  0  0  0  0
   -1.1158   -3.2680   -1.1886 H   0  0  0  0  0  0  0  0  0  0  0  0
    0.4257   -3.1545   -0.3701 H   0  0  0  0  0  0  0  0  0  0  0  0
    3.3647    1.2279   -1.9691 H   0  0  0  0  0  0  0  0  0  0  0  0
    4.0322   -0.2143   -2.7101 H   0  0  0  0  0  0  0  0  0  0  0  0
   -3.3110   -2.7510   -0.3833 H   0  0  0  0  0  0  0  0  0  0  0  0
    3.5970   -2.3108   -1.7351 H   0  0  0  0  0  0  0  0  0  0  0  0
    5.0846   -2.0183   -0.8532 H   0  0  0  0  0  0  0  0  0  0  0  0
    3.6510   -2.5732    0.0114 H   0  0  0  0  0  0  0  0  0  0  0  0
    5.0092    1.9128    1.6354 H   0  0  0  0  0  0  0  0  0  0  0  0
    3.6031    2.1307    0.5669 H   0  0  0  0  0  0  0  0  0  0  0  0
    5.7109    1.5722   -2.5297 H   0  0  0  0  0  0  0  0  0  0  0  0
    6.2104    0.2200   -1.4895 H   0  0  0  0  0  0  0  0  0  0  0  0
   -0.2981    1.0659   -2.4194 H   0  0  0  0  0  0  0  0  0  0  0  0
   -5.5282   -1.7886   -0.6633 H   0  0  0  0  0  0  0  0  0  0  0  0
   -4.9146   -1.5419    0.9530 H   0  0  0  0  0  0  0  0  0  0  0  0
    1.8678    1.5437    1.5617 H   0  0  0  0  0  0  0  0  0  0  0  0
   -3.0002   -0.3785   -2.2992 H   0  0  0  0  0  0  0  0  0  0  0  0
   -4.1764   -1.6566   -2.5712 H   0  0  0  0  0  0  0  0  0  0  0  0
   -2.4992   -2.0857   -2.5165 H   0  0  0  0  0  0  0  0  0  0  0  0
   -4.3290    0.8305    0.3572 H   0  0  0  0  0  0  0  0  0  0  0  0
   -5.0006    0.5587   -1.2490 H   0  0  0  0  0  0  0  0  0  0  0  0
   -6.5282    0.3760    1.4069 H   0  0  0  0  0  0  0  0  0  0  0  0
   -7.2261    0.0540   -0.1744 H   0  0  0  0  0  0  0  0  0  0  0  0
   -7.8225    2.2991    0.5396 H   0  0  0  0  0  0  0  0  0  0  0  0
   -7.1327    3.6088   -1.3858 H   0  0  0  0  0  0  0  0  0  0  0  0
   -5.7086    2.6120   -1.6724 H   0  0  0  0  0  0  0  0  0  0  0  0
   -7.3321    1.9374   -1.9266 H   0  0  0  0  0  0  0  0  0  0  0  0
   -6.1758    4.0337    1.0239 H   0  0  0  0  0  0  0  0  0  0  0  0
   -4.8218    2.9768    0.6317 H   0  0  0  0  0  0  0  0  0  0  0  0
   -5.8274    2.6439    2.0570 H   0  0  0  0  0  0  0  0  0  0  0  0
  1 10  1  0  0  0  0
  1 59  1  0  0  0  0
  2 14  1  0  0  0  0
  2 62  1  0  0  0  0
  3 23  2  0  0  0  0
  4  5  1  0  0  0  0
  4  9  1  0  0  0  0
  4 10  1  0  0  0  0
  4 17  1  0  0  0  0
  5  6  1  0  0  0  0
  5 12  1  0  0  0  0
  5 31  1  0  0  0  0
  6  7  1  0  0  0  0
  6 14  1  0  0  0  0
  6 32  1  0  0  0  0
  7  8  1  0  0  0  0
  7 11  1  0  0  0  0
  7 33  1  0  0  0  0
  8 13  1  0  0  0  0
  8 18  1  0  0  0  0
  8 20  1  0  0  0  0
  9 15  1  0  0  0  0
  9 19  1  0  0  0  0
  9 34  1  0  0  0  0
 10 11  1  0  0  0  0
 10 35  1  0  0  0  0
 11 36  1  0  0  0  0
 11 37  1  0  0  0  0
 12 15  1  0  0  0  0
 12 38  1  0  0  0  0
 12 39  1  0  0  0  0
 13 16  1  0  0  0  0
 13 21  1  0  0  0  0
 13 40  1  0  0  0  0
 14 16  1  0  0  0  0
 14 41  1  0  0  0  0
 15 42  1  0  0  0  0
 15 43  1  0  0  0  0
 16 44  1  0  0  0  0
 16 45  1  0  0  0  0
 17 46  1  0  0  0  0
 17 47  1  0  0  0  0
 17 48  1  0  0  0  0
 18 22  1  0  0  0  0
 18 49  1  0  0  0  0
 18 50  1  0  0  0  0
 19 24  1  0  0  0  0
 19 25  1  0  0  0  0
 19 51  1  0  0  0  0
 20 52  1  0  0  0  0
 20 53  1  0  0  0  0
 20 54  1  0  0  0  0
 21 23  1  0  0  0  0
 21 55  1  0  0  0  0
 21 56  1  0  0  0  0
 22 23  1  0  0  0  0
 22 57  1  0  0  0  0
 22 58  1  0  0  0  0
 24 26  1  0  0  0  0
 24 60  1  0  0  0  0
 24 61  1  0  0  0  0
 25 63  1  0  0  0  0
 25 64  1  0  0  0  0
 25 65  1  0  0  0  0
 26 27  1  0  0  0  0
 26 66  1  0  0  0  0
 26 67  1  0  0  0  0
 27 28  1  0  0  0  0
 27 68  1  0  0  0  0
 27 69  1  0  0  0  0
 28 29  1  0  0  0  0
 28 30  1  0  0  0  0
 28 70  1  0  0  0  0
 29 71  1  0  0  0  0
 29 72  1  0  0  0  0
 29 73  1  0  0  0  0
 30 74  1  0  0  0  0
 30 75  1  0  0  0  0
 30 76  1  0  0  0  0
M  END
> <PUBCHEM_COMPOUND_CID>
5284271

> <PUBCHEM_CONFORMER_RMSD>
0.8

> <PUBCHEM_CONFORMER_DIVERSEORDER>
1
6
5
8
7
3
4
2

> <PUBCHEM_MMFF94_PARTIAL_CHARGES>
10
1 -0.68
10 0.28
14 0.28
2 -0.68
21 0.06
22 0.06
23 0.45
3 -0.57
59 0.4
62 0.4

> <PUBCHEM_EFFECTIVE_ROTOR_COUNT>
7

> <PUBCHEM_PHARMACOPHORE_FEATURES>
12
1 1 acceptor
1 1 donor
1 2 acceptor
1 2 donor
1 25 hydrophobe
1 3 acceptor
3 28 29 30 hydrophobe
5 19 24 26 27 28 hydrophobe
5 4 5 9 12 15 rings
6 4 5 6 7 10 11 rings
6 6 7 8 13 14 16 rings
6 8 13 18 21 22 23 rings

> <PUBCHEM_HEAVY_ATOM_COUNT>
30

> <PUBCHEM_ATOM_DEF_STEREO_COUNT>
10

> <PUBCHEM_ATOM_UDEF_STEREO_COUNT>
0

> <PUBCHEM_BOND_DEF_STEREO_COUNT>
0

> <PUBCHEM_BOND_UDEF_STEREO_COUNT>
0

> <PUBCHEM_ISOTOPIC_ATOM_COUNT>
0

> <PUBCHEM_COMPONENT_COUNT>
1

> <PUBCHEM_CACTVS_TAUTO_COUNT>
3

> <PUBCHEM_CONFORMER_ID>
0050A1AF00000001

> <PUBCHEM_MMFF94_ENERGY>
106.0311

> <PUBCHEM_FEATURE_SELFOVERLAP>
60.998

> <PUBCHEM_SHAPE_FINGERPRINT>
10 15 14549019840578297950
10554248 39 18115034124766240151
10674148 151 18059564794743817012
10693767 8 14129334135032800028
10906281 52 17632002058187952254
11578080 2 18187072992862561327
11646440 116 15913332381611117036
11991303 11 16660652808854890693
12011746 2 16588295047841924138
12035758 1 14908180837372491417
12422481 6 16200153257218519743
12596602 18 17775565338787440377
13140716 1 15481253891255886286
13690498 29 17024035844147619143
13782708 43 9511464420324364613
14068700 675 5978116712776835178
14211702 104 9871475339369816057
14251764 30 9655576292732654877
14347329 18 18114462361819508457
14765038 42 17060329704339499255
14931854 50 16515948286947255060
15082195 135 17748823021039940576
15163728 17 18335979852644003979
15183329 4 16877938369676547731
15188451 53 9943805569705022417
15238133 3 18334870398240655010
15840311 113 17917713560870043061
16994733 274 18339643313983023728
17349148 13 6338690624614110702
18222031 100 14056996131212189446
1979834 28 15626223537284359138
20775438 99 5616095937810019740
21033648 29 18261118435019454123
21424621 283 18272085002886876683
21521239 73 14056727846317213997
21623969 137 14189575234646555633
21781055 127 17632852020148950660
22122407 14 18199177404298110497
22149856 69 15913042162534529257
22393880 68 16515690983192054543
23559900 14 15502657036300205754
23569914 152 15433668423886332789
23569914 2 17757318938751053185
2748736 6 18338523049146892741
3680242 22 16200160854920837316
3882209 13 16159032775900969383
3918712 181 18337677520389579565
392239 28 15626223472928154641
4058900 60 18040703792854509007
4093350 32 18272651260282075314
4098825 35 18409447007846133902
4340502 62 14908181945173269586
465052 167 11239998949542970918
5104073 3 14907637743142608917
6328613 192 18408602561220073957

> <PUBCHEM_SHAPE_MULTIPOLES>
599.78
16.06
2.72
2.16
14.64
1.43
-0.51
15.57
2.57
1.95
0.27
-1.1
-0.19
-0.55

> <PUBCHEM_SHAPE_SELFOVERLAP>
1244.279

> <PUBCHEM_SHAPE_VOLUME>
339.9

> <PUBCHEM_COORDINATE_TYPE>
2
5
10

$$$$

