5282242
  -OEChem-07051212543D

 41 43  0     1  0  0  0  0  0999 V2000
   -1.5645    1.2601   -2.2732 S   0  0  0  0  0  0  0  0  0  0  0  0
    5.2661    2.0499   -0.1222 S   0  0  0  0  0  0  0  0  0  0  0  0
   -2.0387    0.3123    2.2809 O   0  0  0  0  0  0  0  0  0  0  0  0
   -4.6933    0.2563    1.7830 O   0  0  0  0  0  0  0  0  0  0  0  0
    1.1045    0.4494    2.2603 O   0  0  0  0  0  0  0  0  0  0  0  0
   -5.5012   -1.1659    0.1846 O   0  0  0  0  0  0  0  0  0  0  0  0
   -0.9795   -3.5322   -0.3621 O   0  0  0  0  0  0  0  0  0  0  0  0
    0.3506   -2.2539   -1.6849 O   0  0  0  0  0  0  0  0  0  0  0  0
   -2.7078    0.9677    0.1211 N   0  0  0  0  0  0  0  0  0  0  0  0
    0.3448    0.8061    0.0974 N   0  0  0  0  0  0  0  0  0  0  0  0
    4.6555   -0.4587   -0.2496 N   0  0  0  0  0  0  0  0  0  0  0  0
    6.8702    0.0704   -0.8863 N   0  0  0  0  0  0  0  0  0  0  0  0
   -1.8818    1.9124   -0.6122 C   0  0  1  0  0  0  0  0  0  0  0  0
   -0.8098    1.6479    0.4608 C   0  0  1  0  0  0  0  0  0  0  0  0
   -1.9222    0.8645    1.2123 C   0  0  0  0  0  0  0  0  0  0  0  0
   -3.8758    0.4823   -0.3556 C   0  0  0  0  0  0  0  0  0  0  0  0
   -3.3365    1.1934   -2.7288 C   0  0  0  0  0  0  0  0  0  0  0  0
   -4.2123    0.5966   -1.6524 C   0  0  0  0  0  0  0  0  0  0  0  0
    1.2055    0.2787    1.0473 C   0  0  0  0  0  0  0  0  0  0  0  0
   -4.7817   -0.2466    0.5334 C   0  0  0  0  0  0  0  0  0  0  0  0
    2.3571   -0.4984    0.4771 C   0  0  0  0  0  0  0  0  0  0  0  0
    3.5600    0.2352    0.1876 C   0  0  0  0  0  0  0  0  0  0  0  0
    2.2068   -1.8325    0.3539 C   0  0  0  0  0  0  0  0  0  0  0  0
    0.9652   -2.6252    0.6482 C   0  0  0  0  0  0  0  0  0  0  0  0
    3.6760    1.5874    0.3239 C   0  0  0  0  0  0  0  0  0  0  0  0
    5.6270    0.4042   -0.4478 C   0  0  0  0  0  0  0  0  0  0  0  0
    0.1158   -2.7613   -0.5969 C   0  0  0  0  0  0  0  0  0  0  0  0
   -2.2854    2.9320   -0.5921 H   0  0  0  0  0  0  0  0  0  0  0  0
   -0.4902    2.5543    0.9878 H   0  0  0  0  0  0  0  0  0  0  0  0
    0.5352    0.6128   -0.8832 H   0  0  0  0  0  0  0  0  0  0  0  0
   -3.4135    0.5817   -3.6333 H   0  0  0  0  0  0  0  0  0  0  0  0
   -3.6879    2.2008   -2.9733 H   0  0  0  0  0  0  0  0  0  0  0  0
   -5.1647    0.2035   -2.0028 H   0  0  0  0  0  0  0  0  0  0  0  0
    3.0375   -2.4248   -0.0270 H   0  0  0  0  0  0  0  0  0  0  0  0
   -5.2873   -0.2082    2.4103 H   0  0  0  0  0  0  0  0  0  0  0  0
    0.3621   -2.1634    1.4359 H   0  0  0  0  0  0  0  0  0  0  0  0
    1.2575   -3.6252    0.9866 H   0  0  0  0  0  0  0  0  0  0  0  0
    2.9582    2.3283    0.6471 H   0  0  0  0  0  0  0  0  0  0  0  0
    7.1247   -0.8905   -1.0901 H   0  0  0  0  0  0  0  0  0  0  0  0
    7.5930    0.7687   -1.0262 H   0  0  0  0  0  0  0  0  0  0  0  0
   -1.5399   -3.6233   -1.1622 H   0  0  0  0  0  0  0  0  0  0  0  0
  1 13  1  0  0  0  0
  1 17  1  0  0  0  0
  2 25  1  0  0  0  0
  2 26  1  0  0  0  0
  3 15  2  0  0  0  0
  4 20  1  0  0  0  0
  4 35  1  0  0  0  0
  5 19  2  0  0  0  0
  6 20  2  0  0  0  0
  7 27  1  0  0  0  0
  7 41  1  0  0  0  0
  8 27  2  0  0  0  0
  9 13  1  0  0  0  0
  9 15  1  0  0  0  0
  9 16  1  0  0  0  0
 10 14  1  0  0  0  0
 10 19  1  0  0  0  0
 10 30  1  0  0  0  0
 11 22  1  0  0  0  0
 11 26  2  0  0  0  0
 12 26  1  0  0  0  0
 12 39  1  0  0  0  0
 12 40  1  0  0  0  0
 13 14  1  0  0  0  0
 13 28  1  0  0  0  0
 14 15  1  0  0  0  0
 14 29  1  0  0  0  0
 16 18  2  0  0  0  0
 16 20  1  0  0  0  0
 17 18  1  0  0  0  0
 17 31  1  0  0  0  0
 17 32  1  0  0  0  0
 18 33  1  0  0  0  0
 19 21  1  0  0  0  0
 21 22  1  0  0  0  0
 21 23  2  0  0  0  0
 22 25  2  0  0  0  0
 23 24  1  0  0  0  0
 23 34  1  0  0  0  0
 24 27  1  0  0  0  0
 24 36  1  0  0  0  0
 24 37  1  0  0  0  0
 25 38  1  0  0  0  0
M  END
> <PUBCHEM_COMPOUND_CID>
5282242

> <PUBCHEM_CONFORMER_RMSD>
0.8

> <PUBCHEM_CONFORMER_DIVERSEORDER>
1
104
90
43
50
58
34
113
61
49
44
112
75
56
119
100
86
71
94
5
108
83
62
116
73
101
96
115
23
103
52
82
24
15
30
64
67
53
42
12
19
80
74
105
89
59
92
84
39
54
37
95
35
51
40
31
33
2
45
87
60
65
114
70
28
68
72
36
76
46
8
48
99
109
110
106
41
3
117
32
77
6
38
21
111
85
79
20
14
69
10
102
97
26
78
7
88
18
91
66
47
11
81
107
16
25
63
57
118
29
55
9
17
98
13
27
93
22
4

> <PUBCHEM_MMFF94_PARTIAL_CHARGES>
35
1 -0.45
10 -0.65
11 -0.57
12 -0.88
13 0.44
14 0.28
15 0.58
16 0.12
17 0.37
18 -0.29
19 0.62
2 -0.08
20 0.71
21 0.06
22 0.18
23 -0.29
24 0.2
25 -0.11
26 0.46
27 0.66
3 -0.57
30 0.37
33 0.15
34 0.15
35 0.5
38 0.15
39 0.4
4 -0.65
40 0.4
41 0.5
5 -0.57
6 -0.57
7 -0.65
8 -0.57
9 -0.39

> <PUBCHEM_EFFECTIVE_ROTOR_COUNT>
7.6

> <PUBCHEM_PHARMACOPHORE_FEATURES>
14
1 10 donor
1 12 donor
1 3 acceptor
1 4 acceptor
1 5 acceptor
1 6 acceptor
1 7 acceptor
1 8 acceptor
3 11 12 26 cation
3 4 6 20 anion
3 7 8 27 anion
4 9 13 14 15 rings
5 2 11 22 25 26 rings
6 1 9 13 16 17 18 rings

> <PUBCHEM_HEAVY_ATOM_COUNT>
27

> <PUBCHEM_ATOM_DEF_STEREO_COUNT>
2

> <PUBCHEM_ATOM_UDEF_STEREO_COUNT>
0

> <PUBCHEM_BOND_DEF_STEREO_COUNT>
1

> <PUBCHEM_BOND_UDEF_STEREO_COUNT>
0

> <PUBCHEM_ISOTOPIC_ATOM_COUNT>
0

> <PUBCHEM_COMPONENT_COUNT>
1

> <PUBCHEM_CACTVS_TAUTO_COUNT>
4

> <PUBCHEM_CONFORMER_ID>
005099C200000001

> <PUBCHEM_MMFF94_ENERGY>
63.439

> <PUBCHEM_FEATURE_SELFOVERLAP>
71.418

> <PUBCHEM_SHAPE_FINGERPRINT>
10674148 151 16805313423322536504
10759866 29 18129956670745606930
11488393 25 18194399124733295954
11578080 2 18123182670249513877
12156800 1 17831266468727598231
12236239 1 17458337542186624960
12553582 1 17677066718978464385
12596599 1 15865227648531923671
12969540 114 18341622499015152932
13583140 156 17775563139869498016
13911987 19 18412548699635439428
13965767 371 13252854141646654213
14114206 34 17386304176159459729
14747281 78 17838058461342860981
14840074 17 18201714012193462261
15209289 33 17530967981676550697
15238133 3 8141809434007324299
15537594 2 17240484731906019831
17492 54 18338253608367637911
17980427 23 14404898132747420183
19489759 90 15985106314180812233
20511986 3 13470412110900975120
21344244 181 17603853503966040374
23227448 37 17631447874141592404
23557571 272 17131826620889239477
23559900 14 17128766739963639456
238 59 18194985138243605478
24893992 56 7060384730867081335
2818148 4 16299242352745861263
4325135 7 17918273143083807309
469060 322 17630904706480658022
5951187 136 16336425769996689837
6009941 240 5689596082597771974

> <PUBCHEM_SHAPE_MULTIPOLES>
508.21
11.97
2.71
1.94
8.91
2.3
0.22
-3.79
1.48
0.34
1.01
-2.06
-0.41
0.94

> <PUBCHEM_SHAPE_SELFOVERLAP>
1067.164

> <PUBCHEM_SHAPE_VOLUME>
288.1

> <PUBCHEM_COORDINATE_TYPE>
2
5
10

$$$$

