168974
  -OEChem-07051213003D

 28 30  0     1  0  0  0  0  0999 V2000
   -0.6955    1.4407   -0.2364 O   0  0  0  0  0  0  0  0  0  0  0  0
    1.0868    2.9149   -0.1993 O   0  0  0  0  0  0  0  0  0  0  0  0
   -1.8115   -0.4555    0.8668 N   0  0  2  0  0  0  0  0  0  0  0  0
   -0.9031   -0.0036   -0.1992 C   0  0  1  0  0  0  0  0  0  0  0  0
   -1.6043   -0.4124   -1.5045 C   0  0  0  0  0  0  0  0  0  0  0  0
   -3.0058   -0.8448   -1.0808 C   0  0  0  0  0  0  0  0  0  0  0  0
   -3.1629   -0.3066    0.3281 C   0  0  0  0  0  0  0  0  0  0  0  0
    0.4867   -0.5148   -0.0865 C   0  0  0  0  0  0  0  0  0  0  0  0
    1.3722    0.5462   -0.0768 C   0  0  0  0  0  0  0  0  0  0  0  0
   -1.6529    0.2266    2.1439 C   0  0  0  0  0  0  0  0  0  0  0  0
    0.6270    1.7908   -0.1773 C   0  0  0  0  0  0  0  0  0  0  0  0
    0.9586   -1.8146    0.0000 C   0  0  0  0  0  0  0  0  0  0  0  0
    2.7417    0.3783    0.0182 C   0  0  0  0  0  0  0  0  0  0  0  0
    2.3386   -2.0176    0.0973 C   0  0  0  0  0  0  0  0  0  0  0  0
    3.2244   -0.9275    0.1064 C   0  0  0  0  0  0  0  0  0  0  0  0
   -1.1155   -1.2458   -2.0219 H   0  0  0  0  0  0  0  0  0  0  0  0
   -1.6727    0.4275   -2.2061 H   0  0  0  0  0  0  0  0  0  0  0  0
   -3.7762   -0.4653   -1.7589 H   0  0  0  0  0  0  0  0  0  0  0  0
   -3.0686   -1.9401   -1.0783 H   0  0  0  0  0  0  0  0  0  0  0  0
   -3.4774    0.7444    0.2997 H   0  0  0  0  0  0  0  0  0  0  0  0
   -3.9007   -0.8812    0.8966 H   0  0  0  0  0  0  0  0  0  0  0  0
   -1.8576    1.3009    2.0779 H   0  0  0  0  0  0  0  0  0  0  0  0
   -0.6397    0.0914    2.5369 H   0  0  0  0  0  0  0  0  0  0  0  0
   -2.3358   -0.2011    2.8864 H   0  0  0  0  0  0  0  0  0  0  0  0
    0.2794   -2.6604   -0.0073 H   0  0  0  0  0  0  0  0  0  0  0  0
    3.4216    1.2225    0.0251 H   0  0  0  0  0  0  0  0  0  0  0  0
    2.7310   -3.0287    0.1664 H   0  0  0  0  0  0  0  0  0  0  0  0
    4.2937   -1.1049    0.1826 H   0  0  0  0  0  0  0  0  0  0  0  0
  1  4  1  0  0  0  0
  1 11  1  0  0  0  0
  2 11  2  0  0  0  0
  3  4  1  0  0  0  0
  3  7  1  0  0  0  0
  3 10  1  0  0  0  0
  4  5  1  0  0  0  0
  4  8  1  0  0  0  0
  5  6  1  0  0  0  0
  5 16  1  0  0  0  0
  5 17  1  0  0  0  0
  6  7  1  0  0  0  0
  6 18  1  0  0  0  0
  6 19  1  0  0  0  0
  7 20  1  0  0  0  0
  7 21  1  0  0  0  0
  8  9  1  0  0  0  0
  8 12  2  0  0  0  0
  9 11  1  0  0  0  0
  9 13  2  0  0  0  0
 10 22  1  0  0  0  0
 10 23  1  0  0  0  0
 10 24  1  0  0  0  0
 12 14  1  0  0  0  0
 12 25  1  0  0  0  0
 13 15  1  0  0  0  0
 13 26  1  0  0  0  0
 14 15  2  0  0  0  0
 14 27  1  0  0  0  0
 15 28  1  0  0  0  0
M  END
> <PUBCHEM_COMPOUND_CID>
168974

> <PUBCHEM_CONFORMER_RMSD>
0.4

> <PUBCHEM_CONFORMER_DIVERSEORDER>
2
1

> <PUBCHEM_MMFF94_PARTIAL_CHARGES>
17
1 -0.43
10 0.27
11 0.63
12 -0.15
13 -0.15
14 -0.15
15 -0.15
2 -0.57
25 0.15
26 0.15
27 0.15
28 0.15
3 -0.81
4 0.69
7 0.27
8 -0.14
9 0.09

> <PUBCHEM_EFFECTIVE_ROTOR_COUNT>
1

> <PUBCHEM_PHARMACOPHORE_FEATURES>
5
1 2 acceptor
1 3 cation
5 1 4 8 9 11 rings
5 3 4 5 6 7 rings
6 8 9 12 13 14 15 rings

> <PUBCHEM_HEAVY_ATOM_COUNT>
15

> <PUBCHEM_ATOM_DEF_STEREO_COUNT>
0

> <PUBCHEM_ATOM_UDEF_STEREO_COUNT>
1

> <PUBCHEM_BOND_DEF_STEREO_COUNT>
0

> <PUBCHEM_BOND_UDEF_STEREO_COUNT>
0

> <PUBCHEM_ISOTOPIC_ATOM_COUNT>
0

> <PUBCHEM_COMPONENT_COUNT>
1

> <PUBCHEM_CACTVS_TAUTO_COUNT>
1

> <PUBCHEM_CONFORMER_ID>
0002940E00000002

> <PUBCHEM_MMFF94_ENERGY>
38.5341

> <PUBCHEM_FEATURE_SELFOVERLAP>
25.479

> <PUBCHEM_SHAPE_FINGERPRINT>
11471102 20 18340778073931832495
11578080 2 17461477760343836769
12202030 40 17273960394332593891
12423570 1 13878576833210787653
12759256 9 18340482262338560612
13024252 1 17200780379163542023
13538477 17 17458062634325289463
13898156 1 17531514396058662305
14817 1 15380985959769394297
15207287 21 17845952739712311266
16945 1 18339924818290450814
18534176 82 16702297970654458583
19010151 120 18335712653832708026
193761 8 17619069434944764646
20201158 50 18059859484180070475
20361792 2 18336270123355060486
21061003 4 18272074015949102906
22112679 90 17313938620123211017
23236772 104 17894909585855293475
2334 1 17619349805861464828
23388829 49 18333733507074865696
23419403 2 13890461935320985817
23526113 38 17775010097820221771
23728640 28 16611122373418307179
2748010 2 18266469878513290356
568465 68 17845351324168904746
6992083 37 17896588664775689771
77492 1 17894346649034661247
81228 2 17911523404489119640
84936 182 17898012322118340985

> <PUBCHEM_SHAPE_MULTIPOLES>
291.97
4.52
2.06
1.22
0.22
1.05
-0.44
-1.7
0.02
-1.31
0.22
1.11
-0.04
-0.41

> <PUBCHEM_SHAPE_SELFOVERLAP>
644.385

> <PUBCHEM_SHAPE_VOLUME>
160.9

> <PUBCHEM_COORDINATE_TYPE>
2
5
10

$$$$

