65366
  -OEChem-07051213022D

 80 84  0     1  0  0  0  0  0999 V2000
    5.1483   -3.5141    0.0000 O   0  0  0  0  0  0  0  0  0  0  0  0
    6.3178   -1.9045    0.0000 O   0  0  0  0  0  0  0  0  0  0  0  0
    7.0057   -1.0521    0.0000 O   0  0  0  0  0  0  0  0  0  0  0  0
    7.4821    0.2944    0.0000 O   0  0  0  0  0  0  0  0  0  0  0  0
    2.4962   -0.8575    0.0000 O   0  0  0  0  0  0  0  0  0  0  0  0
    3.5446    1.9253    0.0000 O   0  0  0  0  0  0  0  0  0  0  0  0
    2.8690    0.2944    0.0000 O   0  0  0  0  0  0  0  0  0  0  0  0
    7.5875    2.7063    0.0000 O   0  0  0  0  0  0  0  0  0  0  0  0
    7.6038   -3.0648    0.0000 O   0  0  0  0  0  0  0  0  0  0  0  0
    8.4245   -0.0587    0.0000 O   0  0  0  0  0  0  0  0  0  0  0  0
    4.7693    3.1501    0.0000 O   0  0  0  0  0  0  0  0  0  0  0  0
    5.1755   -1.0122    0.0000 C   0  0  2  0  0  0  0  0  0  0  0  0
    5.3274   -2.0427    0.0000 C   0  0  2  0  0  0  0  0  0  0  0  0
    4.2517   -0.6295    0.0000 C   0  0  1  0  0  0  0  0  0  0  0  0
    4.5059   -2.6832    0.0000 C   0  0  1  0  0  0  0  0  0  0  0  0
    6.0994   -0.6295    0.0000 C   0  0  1  0  0  0  0  0  0  0  0  0
    6.4821    0.2944    0.0000 C   0  0  2  0  0  0  0  0  0  0  0  0
    3.4156   -1.2508    0.0000 C   0  0  2  0  0  0  0  0  0  0  0  0
    3.5436   -2.2846    0.0000 C   0  0  0  0  0  0  0  0  0  0  0  0
    6.0994    1.2182    0.0000 C   0  0  0  0  0  0  0  0  0  0  0  0
    5.9766   -2.8683    0.0000 C   0  0  0  0  0  0  0  0  0  0  0  0
    3.8690    0.2944    0.0000 C   0  0  0  0  0  0  0  0  0  0  0  0
    7.1552    1.0361    0.0000 C   0  0  0  0  0  0  0  0  0  0  0  0
    5.1755    1.6009    0.0000 C   0  0  0  0  0  0  0  0  0  0  0  0
    3.3278   -0.2468    0.0000 C   0  0  0  0  0  0  0  0  0  0  0  0
    4.2517    1.2182    0.0000 C   0  0  1  0  0  0  0  0  0  0  0  0
    6.8804    1.9992    0.0000 C   0  0  1  0  0  0  0  0  0  0  0  0
    5.9172    2.2740    0.0000 C   0  0  0  0  0  0  0  0  0  0  0  0
    6.3971    2.3290    0.0000 C   0  0  0  0  0  0  0  0  0  0  0  0
    7.2102    1.5159    0.0000 C   0  0  0  0  0  0  0  0  0  0  0  0
    5.6897    3.2478    0.0000 C   0  0  0  0  0  0  0  0  0  0  0  0
    6.6259   -2.8559    0.0000 C   0  0  0  0  0  0  0  0  0  0  0  0
    8.0019   -0.9651    0.0000 C   0  0  0  0  0  0  0  0  0  0  0  0
    5.9560   -3.5984    0.0000 C   0  0  0  0  0  0  0  0  0  0  0  0
    3.8034    2.8913    0.0000 C   0  0  0  0  0  0  0  0  0  0  0  0
    8.5755   -1.7841    0.0000 C   0  0  0  0  0  0  0  0  0  0  0  0
    3.0963    3.5984    0.0000 C   0  0  0  0  0  0  0  0  0  0  0  0
    9.5717   -1.6969    0.0000 C   0  0  0  0  0  0  0  0  0  0  0  0
    8.1530   -2.6905    0.0000 C   0  0  0  0  0  0  0  0  0  0  0  0
   10.1453   -2.5160    0.0000 C   0  0  0  0  0  0  0  0  0  0  0  0
    8.7266   -3.5096    0.0000 C   0  0  0  0  0  0  0  0  0  0  0  0
    9.7228   -3.4224    0.0000 C   0  0  0  0  0  0  0  0  0  0  0  0
    5.9608   -1.3375    0.0000 H   0  0  0  0  0  0  0  0  0  0  0  0
    3.9897   -3.3584    0.0000 H   0  0  0  0  0  0  0  0  0  0  0  0
    6.0859   -1.2494    0.0000 H   0  0  0  0  0  0  0  0  0  0  0  0
    2.9201   -1.6235    0.0000 H   0  0  0  0  0  0  0  0  0  0  0  0
    2.9243   -2.2543    0.0000 H   0  0  0  0  0  0  0  0  0  0  0  0
    3.4078   -2.8895    0.0000 H   0  0  0  0  0  0  0  0  0  0  0  0
    6.3585   -3.3568    0.0000 H   0  0  0  0  0  0  0  0  0  0  0  0
    6.4645   -2.4858    0.0000 H   0  0  0  0  0  0  0  0  0  0  0  0
    7.5297    0.5419    0.0000 H   0  0  0  0  0  0  0  0  0  0  0  0
    7.7099    1.3131    0.0000 H   0  0  0  0  0  0  0  0  0  0  0  0
    3.5650    0.3260    0.0000 H   0  0  0  0  0  0  0  0  0  0  0  0
    2.7550   -0.0096    0.0000 H   0  0  0  0  0  0  0  0  0  0  0  0
    3.0905   -0.8196    0.0000 H   0  0  0  0  0  0  0  0  0  0  0  0
    4.3726    1.8263    0.0000 H   0  0  0  0  0  0  0  0  0  0  0  0
    6.7248    2.5994    0.0000 H   0  0  0  0  0  0  0  0  0  0  0  0
    6.9959    2.1686    0.0000 H   0  0  0  0  0  0  0  0  0  0  0  0
    6.5575    2.9279    0.0000 H   0  0  0  0  0  0  0  0  0  0  0  0
    5.7982    2.4895    0.0000 H   0  0  0  0  0  0  0  0  0  0  0  0
    7.3707    0.9170    0.0000 H   0  0  0  0  0  0  0  0  0  0  0  0
    7.8091    1.6764    0.0000 H   0  0  0  0  0  0  0  0  0  0  0  0
    7.0498    2.1148    0.0000 H   0  0  0  0  0  0  0  0  0  0  0  0
    7.7921    0.8313    0.0000 H   0  0  0  0  0  0  0  0  0  0  0  0
    2.0000   -1.2292    0.0000 H   0  0  0  0  0  0  0  0  0  0  0  0
    6.2935    3.3889    0.0000 H   0  0  0  0  0  0  0  0  0  0  0  0
    5.5487    3.8516    0.0000 H   0  0  0  0  0  0  0  0  0  0  0  0
    5.0860    3.1068    0.0000 H   0  0  0  0  0  0  0  0  0  0  0  0
    7.4270    3.3052    0.0000 H   0  0  0  0  0  0  0  0  0  0  0  0
    5.4957   -3.1830    0.0000 H   0  0  0  0  0  0  0  0  0  0  0  0
    5.5406   -4.0587    0.0000 H   0  0  0  0  0  0  0  0  0  0  0  0
    6.4163   -4.0137    0.0000 H   0  0  0  0  0  0  0  0  0  0  0  0
    3.5347    4.0368    0.0000 H   0  0  0  0  0  0  0  0  0  0  0  0
    2.6579    4.0368    0.0000 H   0  0  0  0  0  0  0  0  0  0  0  0
    2.6579    3.1600    0.0000 H   0  0  0  0  0  0  0  0  0  0  0  0
    9.8337   -1.1350    0.0000 H   0  0  0  0  0  0  0  0  0  0  0  0
    7.5353   -2.7446    0.0000 H   0  0  0  0  0  0  0  0  0  0  0  0
   10.7630   -2.4619    0.0000 H   0  0  0  0  0  0  0  0  0  0  0  0
    8.4646   -4.0715    0.0000 H   0  0  0  0  0  0  0  0  0  0  0  0
   10.0784   -3.9302    0.0000 H   0  0  0  0  0  0  0  0  0  0  0  0
  1 15  1  0  0  0  0
  1 21  1  0  0  0  0
 13  2  1  1  0  0  0
  2 32  1  0  0  0  0
 16  3  1  1  0  0  0
  3 33  1  0  0  0  0
 17  4  1  6  0  0  0
  4 64  1  0  0  0  0
 18  5  1  6  0  0  0
  5 65  1  0  0  0  0
 26  6  1  6  0  0  0
  6 35  1  0  0  0  0
  7 22  2  0  0  0  0
 27  8  1  1  0  0  0
  8 69  1  0  0  0  0
  9 32  2  0  0  0  0
 10 33  2  0  0  0  0
 11 35  2  0  0  0  0
 12 13  1  0  0  0  0
 12 14  1  0  0  0  0
 12 16  1  0  0  0  0
 12 43  1  1  0  0  0
 13 15  1  0  0  0  0
 13 21  1  0  0  0  0
 14 18  1  0  0  0  0
 14 22  1  0  0  0  0
 14 25  1  6  0  0  0
 15 19  1  0  0  0  0
 15 44  1  1  0  0  0
 16 17  1  0  0  0  0
 16 45  1  0  0  0  0
 17 20  1  0  0  0  0
 17 23  1  0  0  0  0
 18 19  1  0  0  0  0
 18 46  1  0  0  0  0
 19 47  1  0  0  0  0
 19 48  1  0  0  0  0
 20 24  1  0  0  0  0
 20 29  1  0  0  0  0
 20 30  1  0  0  0  0
 21 49  1  0  0  0  0
 21 50  1  0  0  0  0
 22 26  1  0  0  0  0
 23 27  1  0  0  0  0
 23 51  1  0  0  0  0
 23 52  1  0  0  0  0
 24 26  1  0  0  0  0
 24 28  2  0  0  0  0
 25 53  1  0  0  0  0
 25 54  1  0  0  0  0
 25 55  1  0  0  0  0
 26 56  1  0  0  0  0
 27 28  1  0  0  0  0
 27 57  1  0  0  0  0
 28 31  1  0  0  0  0
 29 58  1  0  0  0  0
 29 59  1  0  0  0  0
 29 60  1  0  0  0  0
 30 61  1  0  0  0  0
 30 62  1  0  0  0  0
 30 63  1  0  0  0  0
 31 66  1  0  0  0  0
 31 67  1  0  0  0  0
 31 68  1  0  0  0  0
 32 34  1  0  0  0  0
 33 36  1  0  0  0  0
 34 70  1  0  0  0  0
 34 71  1  0  0  0  0
 34 72  1  0  0  0  0
 35 37  1  0  0  0  0
 36 38  2  0  0  0  0
 36 39  1  0  0  0  0
 37 73  1  0  0  0  0
 37 74  1  0  0  0  0
 37 75  1  0  0  0  0
 38 40  1  0  0  0  0
 38 76  1  0  0  0  0
 39 41  2  0  0  0  0
 39 77  1  0  0  0  0
 40 42  2  0  0  0  0
 40 78  1  0  0  0  0
 41 42  1  0  0  0  0
 41 79  1  0  0  0  0
 42 80  1  0  0  0  0
M  END
> <PUBCHEM_COMPOUND_CID>
65366

> <PUBCHEM_COMPOUND_CANONICALIZED>
1

> <PUBCHEM_CACTVS_COMPLEXITY>
1200

> <PUBCHEM_CACTVS_HBOND_ACCEPTOR>
11

> <PUBCHEM_CACTVS_HBOND_DONOR>
3

> <PUBCHEM_CACTVS_ROTATABLE_BOND>
7

> <PUBCHEM_CACTVS_SUBSKEYS>
AAADcfB4PAAAAAAAAAAAAAAAAABIAAAAAAAwYIAAAAAaIACBAAAAGgAACAAAD1SgmAIyCIAABgCIAqDSCAICAAAkAAAIiAFACMgJNjaANRyCcQAl4AELuYfK7PzPgAAAAAAAAABCAAYQADCAAAAAAAAAAA==

> <PUBCHEM_IUPAC_INCHI>
InChI=1S/C31H38O11/c1-15-19(34)13-31(38)26(41-27(37)18-10-8-7-9-11-18)24-29(6,20(35)12-21-30(24,14-39-21)42-17(3)33)25(36)23(40-16(2)32)22(15)28(31,4)5/h7-11,19-21,23-24,26,34-35,38H,12-14H2,1-6H3/t19-,20-,21+,23+,24-,26-,29+,30-,31+/m0/s1

> <PUBCHEM_IUPAC_INCHIKEY>
OVMSOCFBDVBLFW-VHLOTGQHSA-N

> <PUBCHEM_XLOGP3>
1.2

> <PUBCHEM_EXACT_MASS>
586.241412

> <PUBCHEM_MOLECULAR_FORMULA>
C31H38O11

> <PUBCHEM_MOLECULAR_WEIGHT>
586.62682

> <PUBCHEM_OPENEYE_CAN_SMILES>
CC1=C2C(C(=O)C3(C(CC4C(C3C(C(C2(C)C)(CC1O)O)OC(=O)C5=CC=CC=C5)(CO4)OC(=O)C)O)C)OC(=O)C

> <PUBCHEM_OPENEYE_ISO_SMILES>
CC1=C2[C@H](C(=O)[C@@]3([C@H](C[C@@H]4[C@]([C@H]3[C@@H]([C@@](C2(C)C)(C[C@@H]1O)O)OC(=O)C5=CC=CC=C5)(CO4)OC(=O)C)O)C)OC(=O)C

> <PUBCHEM_CACTVS_TPSA>
166

> <PUBCHEM_MONOISOTOPIC_WEIGHT>
586.241412

> <PUBCHEM_TOTAL_CHARGE>
0

> <PUBCHEM_HEAVY_ATOM_COUNT>
42

> <PUBCHEM_ATOM_DEF_STEREO_COUNT>
9

> <PUBCHEM_ATOM_UDEF_STEREO_COUNT>
0

> <PUBCHEM_BOND_DEF_STEREO_COUNT>
0

> <PUBCHEM_BOND_UDEF_STEREO_COUNT>
0

> <PUBCHEM_ISOTOPIC_ATOM_COUNT>
0

> <PUBCHEM_COMPONENT_COUNT>
1

> <PUBCHEM_CACTVS_TAUTO_COUNT>
3

> <PUBCHEM_COORDINATE_TYPE>
1
5
255

> <PUBCHEM_BONDANNOTATIONS>
12  43  5
14  25  6
15  44  5
13  2  5
16  3  5
36  38  8
36  39  8
38  40  8
39  41  8
17  4  6
40  42  8
41  42  8
18  5  6
26  6  6
27  8  5

$$$$

