443402
  -OEChem-07051213022D

 57 61  0     1  0  0  0  0  0999 V2000
    3.4685   -2.3754    0.0000 O   0  0  0  0  0  0  0  0  0  0  0  0
    6.6555   -1.3399    0.0000 O   0  0  0  0  0  0  0  0  0  0  0  0
    7.0156    0.3543    0.0000 O   0  0  0  0  0  0  0  0  0  0  0  0
    4.7556   -3.5344    0.0000 O   0  0  0  0  0  0  0  0  0  0  0  0
    2.6254    0.4021    0.0000 N   0  0  3  0  0  0  0  0  0  0  0  0
    5.7049    1.4027    0.0000 N   0  0  0  0  0  0  0  0  0  0  0  0
    3.5397    0.2078    0.0000 C   0  0  2  0  0  0  0  0  0  0  0  0
    4.1652    0.9024    0.0000 C   0  0  2  0  0  0  0  0  0  0  0  0
    3.8286   -0.6812    0.0000 C   0  0  1  0  0  0  0  0  0  0  0  0
    3.7801    1.9380    0.0000 C   0  0  0  0  0  0  0  0  0  0  0  0
    3.2031   -1.3758    0.0000 C   0  0  0  0  0  0  0  0  0  0  0  0
    4.7429   -0.8755    0.0000 C   0  0  0  0  0  0  0  0  0  0  0  0
    2.3366    1.2911    0.0000 C   0  0  0  0  0  0  0  0  0  0  0  0
    5.0795    0.7081    0.0000 C   0  0  0  0  0  0  0  0  0  0  0  0
    4.1376   -1.6322    0.0000 C   0  0  3  0  0  0  0  0  0  0  0  0
    2.0000   -0.2925    0.0000 C   0  0  0  0  0  0  0  0  0  0  0  0
    4.5018    2.4860    0.0000 C   0  0  0  0  0  0  0  0  0  0  0  0
    2.2888   -1.1815    0.0000 C   0  0  0  0  0  0  0  0  0  0  0  0
    5.3683   -0.1809    0.0000 C   0  0  0  0  0  0  0  0  0  0  0  0
    5.4161    2.2917    0.0000 C   0  0  0  0  0  0  0  0  0  0  0  0
    5.1157   -1.8402    0.0000 C   0  0  0  0  0  0  0  0  0  0  0  0
    4.2129    3.3750    0.0000 C   0  0  0  0  0  0  0  0  0  0  0  0
    6.3465   -0.3888    0.0000 C   0  0  0  0  0  0  0  0  0  0  0  0
    6.0415    2.9863    0.0000 C   0  0  0  0  0  0  0  0  0  0  0  0
    4.8384    4.0696    0.0000 C   0  0  0  0  0  0  0  0  0  0  0  0
    5.7527    3.8752    0.0000 C   0  0  0  0  0  0  0  0  0  0  0  0
    3.7775   -3.3264    0.0000 C   0  0  0  0  0  0  0  0  0  0  0  0
    3.1084   -4.0696    0.0000 C   0  0  0  0  0  0  0  0  0  0  0  0
    7.6336   -1.5478    0.0000 C   0  0  0  0  0  0  0  0  0  0  0  0
    3.2771    1.0162    0.0000 H   0  0  0  0  0  0  0  0  0  0  0  0
    4.3564    2.1667    0.0000 H   0  0  0  0  0  0  0  0  0  0  0  0
    3.5389    2.5092    0.0000 H   0  0  0  0  0  0  0  0  0  0  0  0
    2.9709   -1.9507    0.0000 H   0  0  0  0  0  0  0  0  0  0  0  0
    3.7289   -1.7044    0.0000 H   0  0  0  0  0  0  0  0  0  0  0  0
    4.5106   -1.4504    0.0000 H   0  0  0  0  0  0  0  0  0  0  0  0
    5.2687   -1.2041    0.0000 H   0  0  0  0  0  0  0  0  0  0  0  0
    2.1034    1.8656    0.0000 H   0  0  0  0  0  0  0  0  0  0  0  0
    1.7542    1.0785    0.0000 H   0  0  0  0  0  0  0  0  0  0  0  0
    3.5311   -1.5033    0.0000 H   0  0  0  0  0  0  0  0  0  0  0  0
    1.6183    0.1961    0.0000 H   0  0  0  0  0  0  0  0  0  0  0  0
    1.4526   -0.5836    0.0000 H   0  0  0  0  0  0  0  0  0  0  0  0
    1.6749   -1.2678    0.0000 H   0  0  0  0  0  0  0  0  0  0  0  0
    2.2672   -1.8011    0.0000 H   0  0  0  0  0  0  0  0  0  0  0  0
    6.3114    1.2738    0.0000 H   0  0  0  0  0  0  0  0  0  0  0  0
    4.9868   -2.4466    0.0000 H   0  0  0  0  0  0  0  0  0  0  0  0
    5.7222   -1.9691    0.0000 H   0  0  0  0  0  0  0  0  0  0  0  0
    5.2446   -1.2337    0.0000 H   0  0  0  0  0  0  0  0  0  0  0  0
    3.6065    3.5039    0.0000 H   0  0  0  0  0  0  0  0  0  0  0  0
    6.6480    2.8574    0.0000 H   0  0  0  0  0  0  0  0  0  0  0  0
    4.6468    4.6592    0.0000 H   0  0  0  0  0  0  0  0  0  0  0  0
    6.1676    4.3360    0.0000 H   0  0  0  0  0  0  0  0  0  0  0  0
    2.6476   -3.6547    0.0000 H   0  0  0  0  0  0  0  0  0  0  0  0
    2.6935   -4.5303    0.0000 H   0  0  0  0  0  0  0  0  0  0  0  0
    3.5691   -4.4844    0.0000 H   0  0  0  0  0  0  0  0  0  0  0  0
    7.5047   -2.1542    0.0000 H   0  0  0  0  0  0  0  0  0  0  0  0
    8.2401   -1.6767    0.0000 H   0  0  0  0  0  0  0  0  0  0  0  0
    7.7625   -0.9413    0.0000 H   0  0  0  0  0  0  0  0  0  0  0  0
  1 15  1  0  0  0  0
  1 27  1  0  0  0  0
  2 23  1  0  0  0  0
  2 29  1  0  0  0  0
  3 23  2  0  0  0  0
  4 27  2  0  0  0  0
  5  7  1  0  0  0  0
  5 13  1  0  0  0  0
  5 16  1  0  0  0  0
  6 14  1  0  0  0  0
  6 20  1  0  0  0  0
  6 44  1  0  0  0  0
  7  8  1  0  0  0  0
  7  9  1  0  0  0  0
  7 30  1  1  0  0  0
  8 10  1  6  0  0  0
  8 14  1  0  0  0  0
  8 17  1  0  0  0  0
  9 11  1  0  0  0  0
  9 12  1  0  0  0  0
  9 15  1  1  0  0  0
 10 13  1  0  0  0  0
 10 31  1  0  0  0  0
 10 32  1  0  0  0  0
 11 18  1  0  0  0  0
 11 33  1  0  0  0  0
 11 34  1  0  0  0  0
 12 19  1  0  0  0  0
 12 35  1  0  0  0  0
 12 36  1  0  0  0  0
 13 37  1  0  0  0  0
 13 38  1  0  0  0  0
 14 19  2  0  0  0  0
 15 21  1  0  0  0  0
 15 39  1  0  0  0  0
 16 18  1  0  0  0  0
 16 40  1  0  0  0  0
 16 41  1  0  0  0  0
 17 20  1  0  0  0  0
 17 22  2  0  0  0  0
 18 42  1  0  0  0  0
 18 43  1  0  0  0  0
 19 23  1  0  0  0  0
 20 24  2  0  0  0  0
 21 45  1  0  0  0  0
 21 46  1  0  0  0  0
 21 47  1  0  0  0  0
 22 25  1  0  0  0  0
 22 48  1  0  0  0  0
 24 26  1  0  0  0  0
 24 49  1  0  0  0  0
 25 26  2  0  0  0  0
 25 50  1  0  0  0  0
 26 51  1  0  0  0  0
 27 28  1  0  0  0  0
 28 52  1  0  0  0  0
 28 53  1  0  0  0  0
 28 54  1  0  0  0  0
 29 55  1  0  0  0  0
 29 56  1  0  0  0  0
 29 57  1  0  0  0  0
M  END
> <PUBCHEM_COMPOUND_CID>
443402

> <PUBCHEM_COMPOUND_CANONICALIZED>
1

> <PUBCHEM_CACTVS_COMPLEXITY>
764

> <PUBCHEM_CACTVS_HBOND_ACCEPTOR>
6

> <PUBCHEM_CACTVS_HBOND_DONOR>
1

> <PUBCHEM_CACTVS_ROTATABLE_BOND>
5

> <PUBCHEM_CACTVS_SUBSKEYS>
AAADceB7OAAAAAAAAAAAAAAAAAAAAWLAAAA8QIAAAAAAAFiBAAAAHgAQAAAADjzhmAYyyIPABACIAiTSSACCAAAhAgAIiAEIZMgIJDLA8ZGGMAhmkADI6UeY/f/fgAAAAAACAAAAAAAAAAQAAAAAAAAAAA==

> <PUBCHEM_IUPAC_INCHI>
InChI=1S/C23H28N2O4/c1-14(29-15(2)26)22-9-6-11-25-12-10-23(21(22)25)17-7-4-5-8-18(17)24-19(23)16(13-22)20(27)28-3/h4-5,7-8,14,21,24H,6,9-13H2,1-3H3/t14?,21-,22-,23-/m0/s1

> <PUBCHEM_IUPAC_INCHIKEY>
UELNVPGLHDEZFM-PKQGEJGHSA-N

> <PUBCHEM_XLOGP3_AA>
2.9

> <PUBCHEM_EXACT_MASS>
396.204907

> <PUBCHEM_MOLECULAR_FORMULA>
C23H28N2O4

> <PUBCHEM_MOLECULAR_WEIGHT>
396.47942

> <PUBCHEM_OPENEYE_CAN_SMILES>
CC(C12CCCN3C1C4(CC3)C5=CC=CC=C5NC4=C(C2)C(=O)OC)OC(=O)C

> <PUBCHEM_OPENEYE_ISO_SMILES>
CC([C@@]12CCCN3[C@@H]1[C@@]4(CC3)C5=CC=CC=C5NC4=C(C2)C(=O)OC)OC(=O)C

> <PUBCHEM_CACTVS_TPSA>
67.9

> <PUBCHEM_MONOISOTOPIC_WEIGHT>
396.204907

> <PUBCHEM_TOTAL_CHARGE>
0

> <PUBCHEM_HEAVY_ATOM_COUNT>
29

> <PUBCHEM_ATOM_DEF_STEREO_COUNT>
3

> <PUBCHEM_ATOM_UDEF_STEREO_COUNT>
1

> <PUBCHEM_BOND_DEF_STEREO_COUNT>
0

> <PUBCHEM_BOND_UDEF_STEREO_COUNT>
0

> <PUBCHEM_ISOTOPIC_ATOM_COUNT>
0

> <PUBCHEM_COMPONENT_COUNT>
1

> <PUBCHEM_CACTVS_TAUTO_COUNT>
3

> <PUBCHEM_COORDINATE_TYPE>
1
5
255

> <PUBCHEM_BONDANNOTATIONS>
15  21  3
17  20  8
17  22  8
20  24  8
22  25  8
24  26  8
25  26  8
7  30  5
8  10  6
9  15  5

$$$$

