5370086
  -OEChem-07051213103D

 53 57  0     1  0  0  0  0  0999 V2000
    0.0670   -2.8359    0.3225 O   0  0  0  0  0  0  0  0  0  0  0  0
   -1.6853    2.7764    1.2343 O   0  0  0  0  0  0  0  0  0  0  0  0
    0.8259    1.4892   -1.5325 O   0  0  0  0  0  0  0  0  0  0  0  0
    0.6756    3.0268    0.1851 O   0  0  0  0  0  0  0  0  0  0  0  0
    1.4092   -1.6010   -1.1889 N   0  0  0  0  0  0  0  0  0  0  0  0
   -2.2855   -2.1408   -0.9735 N   0  0  0  0  0  0  0  0  0  0  0  0
    0.2958   -0.4253    0.6415 C   0  0  1  0  0  0  0  0  0  0  0  0
    0.1565   -1.5952   -0.4157 C   0  0  2  0  0  0  0  0  0  0  0  0
   -0.5081    0.9051    0.3287 C   0  0  1  0  0  0  0  0  0  0  0  0
   -1.0148   -1.5475   -1.4281 C   0  0  2  0  0  0  0  0  0  0  0  0
   -1.6902    0.7319   -0.6900 C   0  0  1  0  0  0  0  0  0  0  0  0
   -0.0321   -1.1330    1.9616 C   0  0  0  0  0  0  0  0  0  0  0  0
   -1.2691   -0.1187   -1.8965 C   0  0  0  0  0  0  0  0  0  0  0  0
    1.8126   -0.2049    0.6046 C   0  0  0  0  0  0  0  0  0  0  0  0
    0.3180   -2.5856    1.7066 C   0  0  0  0  0  0  0  0  0  0  0  0
   -1.0031    1.6050    1.6180 C   0  0  0  0  0  0  0  0  0  0  0  0
   -2.9639    0.1157   -0.1313 C   0  0  0  0  0  0  0  0  0  0  0  0
    2.3664   -0.9038   -0.4681 C   0  0  0  0  0  0  0  0  0  0  0  0
    0.3963    1.9494   -0.3231 C   0  0  0  0  0  0  0  0  0  0  0  0
   -2.9846   -1.3783    0.0587 C   0  0  0  0  0  0  0  0  0  0  0  0
    2.6121    0.5548    1.4500 C   0  0  0  0  0  0  0  0  0  0  0  0
    3.7177   -0.8099   -0.7556 C   0  0  0  0  0  0  0  0  0  0  0  0
   -4.0558    0.8601    0.1091 C   0  0  0  0  0  0  0  0  0  0  0  0
    3.9796    0.6318    1.1829 C   0  0  0  0  0  0  0  0  0  0  0  0
    4.5281   -0.0413    0.0826 C   0  0  0  0  0  0  0  0  0  0  0  0
   -5.3548    0.3006    0.5738 C   0  0  0  0  0  0  0  0  0  0  0  0
    1.6866    2.3741   -2.2566 C   0  0  0  0  0  0  0  0  0  0  0  0
   -0.7361   -2.1433   -2.3077 H   0  0  0  0  0  0  0  0  0  0  0  0
   -1.9469    1.7210   -1.0997 H   0  0  0  0  0  0  0  0  0  0  0  0
   -1.0925   -1.0736    2.2036 H   0  0  0  0  0  0  0  0  0  0  0  0
    0.5008   -0.7427    2.8352 H   0  0  0  0  0  0  0  0  0  0  0  0
   -2.1076   -0.1326   -2.6119 H   0  0  0  0  0  0  0  0  0  0  0  0
   -0.4503    0.2325   -2.5174 H   0  0  0  0  0  0  0  0  0  0  0  0
    1.6534   -2.3423   -1.8305 H   0  0  0  0  0  0  0  0  0  0  0  0
    1.3760   -2.7866    1.9069 H   0  0  0  0  0  0  0  0  0  0  0  0
   -0.2800   -3.2697    2.3154 H   0  0  0  0  0  0  0  0  0  0  0  0
   -0.1768    1.8770    2.2841 H   0  0  0  0  0  0  0  0  0  0  0  0
   -1.7032    0.9868    2.1860 H   0  0  0  0  0  0  0  0  0  0  0  0
   -2.1206   -3.0909   -0.6423 H   0  0  0  0  0  0  0  0  0  0  0  0
   -2.5882   -1.6360    1.0393 H   0  0  0  0  0  0  0  0  0  0  0  0
   -4.0062   -1.7701    0.0525 H   0  0  0  0  0  0  0  0  0  0  0  0
    2.1904    1.0906    2.2933 H   0  0  0  0  0  0  0  0  0  0  0  0
    4.1477   -1.3286   -1.6064 H   0  0  0  0  0  0  0  0  0  0  0  0
   -4.0314    1.9297   -0.0814 H   0  0  0  0  0  0  0  0  0  0  0  0
   -1.9982    3.2089    2.0469 H   0  0  0  0  0  0  0  0  0  0  0  0
    4.6233    1.2251    1.8264 H   0  0  0  0  0  0  0  0  0  0  0  0
    5.5930    0.0365   -0.1192 H   0  0  0  0  0  0  0  0  0  0  0  0
   -5.9327    1.0929    1.0624 H   0  0  0  0  0  0  0  0  0  0  0  0
   -5.2369   -0.4937    1.3165 H   0  0  0  0  0  0  0  0  0  0  0  0
   -5.9443   -0.0649   -0.2722 H   0  0  0  0  0  0  0  0  0  0  0  0
    1.1538    3.2962   -2.5069 H   0  0  0  0  0  0  0  0  0  0  0  0
    1.9828    1.8758   -3.1834 H   0  0  0  0  0  0  0  0  0  0  0  0
    2.5860    2.5925   -1.6729 H   0  0  0  0  0  0  0  0  0  0  0  0
  1  8  1  0  0  0  0
  1 15  1  0  0  0  0
  2 16  1  0  0  0  0
  2 45  1  0  0  0  0
  3 19  1  0  0  0  0
  3 27  1  0  0  0  0
  4 19  2  0  0  0  0
  5  8  1  0  0  0  0
  5 18  1  0  0  0  0
  5 34  1  0  0  0  0
  6 10  1  0  0  0  0
  6 20  1  0  0  0  0
  6 39  1  0  0  0  0
  7  8  1  0  0  0  0
  7  9  1  0  0  0  0
  7 12  1  0  0  0  0
  7 14  1  0  0  0  0
  8 10  1  0  0  0  0
  9 11  1  0  0  0  0
  9 16  1  0  0  0  0
  9 19  1  0  0  0  0
 10 13  1  0  0  0  0
 10 28  1  0  0  0  0
 11 13  1  0  0  0  0
 11 17  1  0  0  0  0
 11 29  1  0  0  0  0
 12 15  1  0  0  0  0
 12 30  1  0  0  0  0
 12 31  1  0  0  0  0
 13 32  1  0  0  0  0
 13 33  1  0  0  0  0
 14 18  1  0  0  0  0
 14 21  2  0  0  0  0
 15 35  1  0  0  0  0
 15 36  1  0  0  0  0
 16 37  1  0  0  0  0
 16 38  1  0  0  0  0
 17 20  1  0  0  0  0
 17 23  2  0  0  0  0
 18 22  2  0  0  0  0
 20 40  1  0  0  0  0
 20 41  1  0  0  0  0
 21 24  1  0  0  0  0
 21 42  1  0  0  0  0
 22 25  1  0  0  0  0
 22 43  1  0  0  0  0
 23 26  1  0  0  0  0
 23 44  1  0  0  0  0
 24 25  2  0  0  0  0
 24 46  1  0  0  0  0
 25 47  1  0  0  0  0
 26 48  1  0  0  0  0
 26 49  1  0  0  0  0
 26 50  1  0  0  0  0
 27 51  1  0  0  0  0
 27 52  1  0  0  0  0
 27 53  1  0  0  0  0
M  END
> <PUBCHEM_COMPOUND_CID>
5370086

> <PUBCHEM_CONFORMER_RMSD>
0.8

> <PUBCHEM_CONFORMER_DIVERSEORDER>
4
7
11
22
16
25
8
3
14
27
26
13
20
19
15
5
6
10
17
21
9
12
2
24
1
23
18

> <PUBCHEM_MMFF94_PARTIAL_CHARGES>
33
1 -0.56
10 0.27
11 0.14
14 -0.14
15 0.28
16 0.28
17 -0.28
18 0.1
19 0.66
2 -0.68
20 0.41
21 -0.15
22 -0.15
23 -0.29
24 -0.15
25 -0.15
26 0.14
27 0.28
3 -0.43
34 0.4
39 0.36
4 -0.57
42 0.15
43 0.15
44 0.15
45 0.4
46 0.15
47 0.15
5 -0.87
6 -0.9
7 0.14
8 0.65
9 0.06

> <PUBCHEM_EFFECTIVE_ROTOR_COUNT>
4.6

> <PUBCHEM_PHARMACOPHORE_FEATURES>
14
1 1 acceptor
1 2 acceptor
1 2 donor
1 26 hydrophobe
1 4 acceptor
1 5 cation
1 5 donor
1 6 cation
1 6 donor
5 1 7 8 12 15 rings
5 5 7 8 14 18 rings
6 14 18 21 22 24 25 rings
6 6 10 11 13 17 20 rings
6 7 8 9 10 11 13 rings

> <PUBCHEM_HEAVY_ATOM_COUNT>
27

> <PUBCHEM_ATOM_DEF_STEREO_COUNT>
0

> <PUBCHEM_ATOM_UDEF_STEREO_COUNT>
5

> <PUBCHEM_BOND_DEF_STEREO_COUNT>
1

> <PUBCHEM_BOND_UDEF_STEREO_COUNT>
0

> <PUBCHEM_ISOTOPIC_ATOM_COUNT>
0

> <PUBCHEM_COMPONENT_COUNT>
1

> <PUBCHEM_CACTVS_TAUTO_COUNT>
1

> <PUBCHEM_CONFORMER_ID>
0051F0E600000004

> <PUBCHEM_MMFF94_ENERGY>
117.0062

> <PUBCHEM_FEATURE_SELFOVERLAP>
73.37

> <PUBCHEM_SHAPE_FINGERPRINT>
10863032 1 17168434769940795014
10948715 1 17968098659189337299
1100329 8 18337953394179303377
11578080 2 13914531296993779632
12011746 2 18188214298996455429
12788726 201 18115847660139169440
13132413 78 17896048637031312505
13140716 1 18269275673379164169
13965767 371 17546149162023344721
14142880 1 18339932635474334072
14181834 199 17983028755969118076
14223421 5 18052544557990312987
14787075 74 18337678503397961489
14790565 3 18335696174070249409
14955137 171 18411411808938583825
15209289 33 18272093747182179387
1601671 61 18199471137496280981
16945 1 17822868566344229902
17980427 23 18194699068227316852
18981168 100 16736397210903197536
20600515 1 18130233649328817212
20691752 17 16844178835444420983
20905425 154 17978228584259260902
21304253 335 18333446530171384261
229495 10 15912787045302966634
23402539 116 18337684052822989314
23419403 2 16677602772307467748
23559900 14 17967818232843958466
34934 24 18336556005237066455
350125 39 18118684567900505538
4340502 62 17774433997336362227
7495541 125 16558457613694613353
9981440 41 17110459493330525049

> <PUBCHEM_SHAPE_MULTIPOLES>
522.21
6.39
2.81
1.82
1.82
0.37
0.15
0.54
-0.81
0.1
-0.03
-0.37
0.21
-0.61

> <PUBCHEM_SHAPE_SELFOVERLAP>
1163.895

> <PUBCHEM_SHAPE_VOLUME>
272.7

> <PUBCHEM_COORDINATE_TYPE>
2
5
10

$$$$

