7851
  -OEChem-06261202232D

 10  9  0     0  0  0  0  0  0999 V2000
    5.1350    0.5600    0.0000 Br  0  0  0  0  0  0  0  0  0  0  0  0
    2.5369    0.0600    0.0000 N   0  0  0  0  0  0  0  0  0  0  0  0
    3.4030    0.5600    0.0000 C   0  0  0  0  0  0  0  0  0  0  0  0
    4.2690    0.0600    0.0000 C   0  0  0  0  0  0  0  0  0  0  0  0
    3.8015    1.0350    0.0000 H   0  0  0  0  0  0  0  0  0  0  0  0
    3.0044    1.0350    0.0000 H   0  0  0  0  0  0  0  0  0  0  0  0
    3.8705   -0.4149    0.0000 H   0  0  0  0  0  0  0  0  0  0  0  0
    4.6675   -0.4149    0.0000 H   0  0  0  0  0  0  0  0  0  0  0  0
    2.0000    0.3700    0.0000 H   0  0  0  0  0  0  0  0  0  0  0  0
    2.5369   -0.5600    0.0000 H   0  0  0  0  0  0  0  0  0  0  0  0
  1  4  1  0  0  0  0
  2  3  1  0  0  0  0
  2  9  1  0  0  0  0
  2 10  1  0  0  0  0
  3  4  1  0  0  0  0
  3  5  1  0  0  0  0
  3  6  1  0  0  0  0
  4  7  1  0  0  0  0
  4  8  1  0  0  0  0
M  END
> <PUBCHEM_COMPOUND_CID>
7851

> <PUBCHEM_COMPOUND_CANONICALIZED>
1

> <PUBCHEM_CACTVS_COMPLEXITY>
10

> <PUBCHEM_CACTVS_HBOND_ACCEPTOR>
1

> <PUBCHEM_CACTVS_HBOND_DONOR>
1

> <PUBCHEM_CACTVS_ROTATABLE_BOND>
1

> <PUBCHEM_CACTVS_SUBSKEYS>
AAADcYBCAAAAEAAAAAAAAAAAAAAAAAAAAAAAAAAAAAAAAAAAAAAAHABQAAABQADBAAQAAABAAAAAAAAAAAAAAAAAAAAAAIAAAAAAAAAAAAAAAAAAEAAAAAAAAAAAAAAAAAAAAAAAAAAAAAAAAAAAAAAAAA==

> <PUBCHEM_IUPAC_OPENEYE_NAME>
2-bromoethanamine

> <PUBCHEM_IUPAC_CAS_NAME>
2-bromoethanamine

> <PUBCHEM_IUPAC_NAME>
2-bromoethanamine

> <PUBCHEM_IUPAC_SYSTEMATIC_NAME>
2-bromanylethanamine

> <PUBCHEM_IUPAC_TRADITIONAL_NAME>
2-bromoethylamine

> <PUBCHEM_IUPAC_INCHI>
InChI=1S/C2H6BrN/c3-1-2-4/h1-2,4H2

> <PUBCHEM_IUPAC_INCHIKEY>
IZQAUUVBKYXMET-UHFFFAOYSA-N

> <PUBCHEM_XLOGP3_AA>
0

> <PUBCHEM_EXACT_MASS>
122.968361

> <PUBCHEM_MOLECULAR_FORMULA>
C2H6BrN

> <PUBCHEM_MOLECULAR_WEIGHT>
123.97974

> <PUBCHEM_OPENEYE_CAN_SMILES>
C(CBr)N

> <PUBCHEM_OPENEYE_ISO_SMILES>
C(CBr)N

> <PUBCHEM_CACTVS_TPSA>
26

> <PUBCHEM_MONOISOTOPIC_WEIGHT>
122.968361

> <PUBCHEM_TOTAL_CHARGE>
0

> <PUBCHEM_HEAVY_ATOM_COUNT>
4

> <PUBCHEM_ATOM_DEF_STEREO_COUNT>
0

> <PUBCHEM_ATOM_UDEF_STEREO_COUNT>
0

> <PUBCHEM_BOND_DEF_STEREO_COUNT>
0

> <PUBCHEM_BOND_UDEF_STEREO_COUNT>
0

> <PUBCHEM_ISOTOPIC_ATOM_COUNT>
0

> <PUBCHEM_COMPONENT_COUNT>
1

> <PUBCHEM_CACTVS_TAUTO_COUNT>
1

> <PUBCHEM_COORDINATE_TYPE>
1
5
255

$$$$

