13801
  -OEChem-06241222402D

 62 65  0     1  0  0  0  0  0999 V2000
    5.6528   -3.9869    0.0000 F   0  0  0  0  0  0  0  0  0  0  0  0
    6.6489   -2.9830    0.0000 F   0  0  0  0  0  0  0  0  0  0  0  0
    4.6489   -2.9907    0.0000 F   0  0  0  0  0  0  0  0  0  0  0  0
    8.0319    2.3387    0.0000 O   0  0  0  0  0  0  0  0  0  0  0  0
    9.7423    2.4027    0.0000 O   0  0  0  0  0  0  0  0  0  0  0  0
    2.0000   -1.9700    0.0000 O   0  0  0  0  0  0  0  0  0  0  0  0
    9.1931    3.6238    0.0000 O   0  0  0  0  0  0  0  0  0  0  0  0
    7.3931    1.0824    0.0000 C   0  0  3  0  0  0  0  0  0  0  0  0
    7.3931    0.0824    0.0000 C   0  0  3  0  0  0  0  0  0  0  0  0
    6.5271   -0.4176    0.0000 C   0  0  3  0  0  0  0  0  0  0  0  0
    5.6610    0.0824    0.0000 C   0  0  3  0  0  0  0  0  0  0  0  0
    8.3393    1.3871    0.0000 C   0  0  3  0  0  0  0  0  0  0  0  0
    4.7510   -0.4245    0.0000 C   0  0  3  0  0  0  0  0  0  0  0  0
    6.5271    1.5824    0.0000 C   0  0  0  0  0  0  0  0  0  0  0  0
    5.6610    1.0824    0.0000 C   0  0  0  0  0  0  0  0  0  0  0  0
    8.3393   -0.2224    0.0000 C   0  0  0  0  0  0  0  0  0  0  0  0
    6.5431   -1.4592    0.0000 C   0  0  0  0  0  0  0  0  0  0  0  0
    8.9229    0.5824    0.0000 C   0  0  0  0  0  0  0  0  0  0  0  0
    5.6451   -1.9869    0.0000 C   0  0  3  0  0  0  0  0  0  0  0  0
    4.7430   -1.4661    0.0000 C   0  0  0  0  0  0  0  0  0  0  0  0
    7.3931    2.0824    0.0000 C   0  0  0  0  0  0  0  0  0  0  0  0
    3.8242    0.1396    0.0000 C   0  0  0  0  0  0  0  0  0  0  0  0
    4.7587    0.5755    0.0000 C   0  0  0  0  0  0  0  0  0  0  0  0
    9.3340    1.4899    0.0000 C   0  0  0  0  0  0  0  0  0  0  0  0
    2.8763   -0.3883    0.0000 C   0  0  0  0  0  0  0  0  0  0  0  0
    3.8076   -2.0158    0.0000 C   0  0  0  0  0  0  0  0  0  0  0  0
    5.6489   -2.9869    0.0000 C   0  0  0  0  0  0  0  0  0  0  0  0
    2.8680   -1.4733    0.0000 C   0  0  0  0  0  0  0  0  0  0  0  0
    9.9204    0.6799    0.0000 C   0  0  0  0  0  0  0  0  0  0  0  0
    8.2415    3.3165    0.0000 C   0  0  0  0  0  0  0  0  0  0  0  0
    7.4996    3.9869    0.0000 C   0  0  0  0  0  0  0  0  0  0  0  0
    7.4830   -0.7629    0.0000 H   0  0  0  0  0  0  0  0  0  0  0  0
    7.2664   -0.8370    0.0000 H   0  0  0  0  0  0  0  0  0  0  0  0
    6.3972    0.5074    0.0000 H   0  0  0  0  0  0  0  0  0  0  0  0
    6.9256    2.0573    0.0000 H   0  0  0  0  0  0  0  0  0  0  0  0
    6.1285    2.0573    0.0000 H   0  0  0  0  0  0  0  0  0  0  0  0
    5.4490    1.6650    0.0000 H   0  0  0  0  0  0  0  0  0  0  0  0
    5.0504    0.9747    0.0000 H   0  0  0  0  0  0  0  0  0  0  0  0
    8.0883   -0.7893    0.0000 H   0  0  0  0  0  0  0  0  0  0  0  0
    8.8767   -0.5316    0.0000 H   0  0  0  0  0  0  0  0  0  0  0  0
    6.7612   -2.0396    0.0000 H   0  0  0  0  0  0  0  0  0  0  0  0
    7.1523   -1.3436    0.0000 H   0  0  0  0  0  0  0  0  0  0  0  0
    9.3838    0.1676    0.0000 H   0  0  0  0  0  0  0  0  0  0  0  0
    9.3838    0.9971    0.0000 H   0  0  0  0  0  0  0  0  0  0  0  0
    6.3836   -2.4076    0.0000 H   0  0  0  0  0  0  0  0  0  0  0  0
    8.0131    2.0824    0.0000 H   0  0  0  0  0  0  0  0  0  0  0  0
    7.3931    2.7024    0.0000 H   0  0  0  0  0  0  0  0  0  0  0  0
    6.7731    2.0824    0.0000 H   0  0  0  0  0  0  0  0  0  0  0  0
    4.2324    0.6063    0.0000 H   0  0  0  0  0  0  0  0  0  0  0  0
    3.4343    0.6216    0.0000 H   0  0  0  0  0  0  0  0  0  0  0  0
    5.3787    0.5707    0.0000 H   0  0  0  0  0  0  0  0  0  0  0  0
    4.7635    1.1955    0.0000 H   0  0  0  0  0  0  0  0  0  0  0  0
    4.1388    0.5803    0.0000 H   0  0  0  0  0  0  0  0  0  0  0  0
    2.6718    0.1969    0.0000 H   0  0  0  0  0  0  0  0  0  0  0  0
    2.2647   -0.4897    0.0000 H   0  0  0  0  0  0  0  0  0  0  0  0
    3.8100   -2.6358    0.0000 H   0  0  0  0  0  0  0  0  0  0  0  0
    9.4182    0.3163    0.0000 H   0  0  0  0  0  0  0  0  0  0  0  0
   10.2839    0.1776    0.0000 H   0  0  0  0  0  0  0  0  0  0  0  0
   10.4226    1.0434    0.0000 H   0  0  0  0  0  0  0  0  0  0  0  0
    7.9152    4.4469    0.0000 H   0  0  0  0  0  0  0  0  0  0  0  0
    7.0395    4.4025    0.0000 H   0  0  0  0  0  0  0  0  0  0  0  0
    7.0839    3.5268    0.0000 H   0  0  0  0  0  0  0  0  0  0  0  0
  1 27  1  0  0  0  0
  2 27  1  0  0  0  0
  3 27  1  0  0  0  0
  4 12  1  0  0  0  0
  4 30  1  0  0  0  0
  5 24  2  0  0  0  0
  6 28  2  0  0  0  0
  7 30  2  0  0  0  0
  8  9  1  0  0  0  0
  8 12  1  0  0  0  0
  8 14  1  0  0  0  0
  8 21  1  0  0  0  0
  9 10  1  0  0  0  0
  9 16  1  0  0  0  0
  9 32  1  0  0  0  0
 10 11  1  0  0  0  0
 10 17  1  0  0  0  0
 10 33  1  0  0  0  0
 11 13  1  0  0  0  0
 11 15  1  0  0  0  0
 11 34  1  0  0  0  0
 12 18  1  0  0  0  0
 12 24  1  0  0  0  0
 13 20  1  0  0  0  0
 13 22  1  0  0  0  0
 13 23  1  0  0  0  0
 14 15  1  0  0  0  0
 14 35  1  0  0  0  0
 14 36  1  0  0  0  0
 15 37  1  0  0  0  0
 15 38  1  0  0  0  0
 16 18  1  0  0  0  0
 16 39  1  0  0  0  0
 16 40  1  0  0  0  0
 17 19  1  0  0  0  0
 17 41  1  0  0  0  0
 17 42  1  0  0  0  0
 18 43  1  0  0  0  0
 18 44  1  0  0  0  0
 19 20  1  0  0  0  0
 19 27  1  0  0  0  0
 19 45  1  0  0  0  0
 20 26  2  0  0  0  0
 21 46  1  0  0  0  0
 21 47  1  0  0  0  0
 21 48  1  0  0  0  0
 22 25  1  0  0  0  0
 22 49  1  0  0  0  0
 22 50  1  0  0  0  0
 23 51  1  0  0  0  0
 23 52  1  0  0  0  0
 23 53  1  0  0  0  0
 24 29  1  0  0  0  0
 25 28  1  0  0  0  0
 25 54  1  0  0  0  0
 25 55  1  0  0  0  0
 26 28  1  0  0  0  0
 26 56  1  0  0  0  0
 29 57  1  0  0  0  0
 29 58  1  0  0  0  0
 29 59  1  0  0  0  0
 30 31  1  0  0  0  0
 31 60  1  0  0  0  0
 31 61  1  0  0  0  0
 31 62  1  0  0  0  0
M  END
> <PUBCHEM_COMPOUND_CID>
13801

> <PUBCHEM_COMPOUND_CANONICALIZED>
1

> <PUBCHEM_CACTVS_COMPLEXITY>
861

> <PUBCHEM_CACTVS_HBOND_ACCEPTOR>
7

> <PUBCHEM_CACTVS_HBOND_DONOR>
0

> <PUBCHEM_CACTVS_ROTATABLE_BOND>
3

> <PUBCHEM_CACTVS_SUBSKEYS>
AAADceB4OYAAAAAAAAAAAAAAAAAAAYAAAAAwYIAAAAAAAGDAAAAAGwAAAAAAD0SAgBACCAAABACIAqDSCAIAAAAgAAAACAFAAEgAABIAAQQCAAAEgAAIAQOIyPCPgAAAAAAAAACAAAQAACAAAYAADAAAAA==

> <PUBCHEM_IUPAC_OPENEYE_NAME>
[17-acetyl-10,13-dimethyl-3-oxo-6-(trifluoromethyl)-2,6,7,8,9,11,12,14,15,16-decahydro-1H-cyclopenta[a]phenanthren-17-yl] acetate

> <PUBCHEM_IUPAC_CAS_NAME>
acetic acid [17-acetyl-10,13-dimethyl-3-oxo-6-(trifluoromethyl)-2,6,7,8,9,11,12,14,15,16-decahydro-1H-cyclopenta[a]phenanthren-17-yl] ester

> <PUBCHEM_IUPAC_NAME>
[17-acetyl-10,13-dimethyl-3-oxo-6-(trifluoromethyl)-2,6,7,8,9,11,12,14,15,16-decahydro-1H-cyclopenta[a]phenanthren-17-yl] acetate

> <PUBCHEM_IUPAC_SYSTEMATIC_NAME>
[17-ethanoyl-10,13-dimethyl-3-oxidanylidene-6-(trifluoromethyl)-2,6,7,8,9,11,12,14,15,16-decahydro-1H-cyclopenta[a]phenanthren-17-yl] ethanoate

> <PUBCHEM_IUPAC_TRADITIONAL_NAME>
acetic acid [17-acetyl-3-keto-10,13-dimethyl-6-(trifluoromethyl)-2,6,7,8,9,11,12,14,15,16-decahydro-1H-cyclopenta[a]phenanthren-17-yl] ester

> <PUBCHEM_IUPAC_INCHI>
InChI=1S/C24H31F3O4/c1-13(28)23(31-14(2)29)10-7-18-16-12-20(24(25,26)27)19-11-15(30)5-8-21(19,3)17(16)6-9-22(18,23)4/h11,16-18,20H,5-10,12H2,1-4H3

> <PUBCHEM_IUPAC_INCHIKEY>
MXZYUFNILISKBC-UHFFFAOYSA-N

> <PUBCHEM_XLOGP3>
4.5

> <PUBCHEM_EXACT_MASS>
440.217444

> <PUBCHEM_MOLECULAR_FORMULA>
C24H31F3O4

> <PUBCHEM_MOLECULAR_WEIGHT>
440.49575

> <PUBCHEM_OPENEYE_CAN_SMILES>
CC(=O)C1(CCC2C1(CCC3C2CC(C4=CC(=O)CCC34C)C(F)(F)F)C)OC(=O)C

> <PUBCHEM_OPENEYE_ISO_SMILES>
CC(=O)C1(CCC2C1(CCC3C2CC(C4=CC(=O)CCC34C)C(F)(F)F)C)OC(=O)C

> <PUBCHEM_CACTVS_TPSA>
60.4

> <PUBCHEM_MONOISOTOPIC_WEIGHT>
440.217444

> <PUBCHEM_TOTAL_CHARGE>
0

> <PUBCHEM_HEAVY_ATOM_COUNT>
31

> <PUBCHEM_ATOM_DEF_STEREO_COUNT>
0

> <PUBCHEM_ATOM_UDEF_STEREO_COUNT>
7

> <PUBCHEM_BOND_DEF_STEREO_COUNT>
0

> <PUBCHEM_BOND_UDEF_STEREO_COUNT>
0

> <PUBCHEM_ISOTOPIC_ATOM_COUNT>
0

> <PUBCHEM_COMPONENT_COUNT>
1

> <PUBCHEM_CACTVS_TAUTO_COUNT>
10

> <PUBCHEM_COORDINATE_TYPE>
1
5
255

> <PUBCHEM_BONDANNOTATIONS>
10  33  3
11  34  3
12  24  3
13  23  3
19  45  3
8  21  3
9  32  3

$$$$

