585120
  -OEChem-06241222453D

 55 56  0     0  0  0  0  0  0999 V2000
    5.0066   -2.7384    1.3695 O   0  0  0  0  0  0  0  0  0  0  0  0
    6.5873   -3.0497   -0.4227 O   0  0  0  0  0  0  0  0  0  0  0  0
   -5.8296   -0.0072    1.5132 O   0  0  0  0  0  0  0  0  0  0  0  0
   -6.1336   -1.1471   -0.4858 N   0  0  0  0  0  0  0  0  0  0  0  0
    0.6106    3.1926    0.0478 C   0  0  0  0  0  0  0  0  0  0  0  0
   -0.1042    4.5471    0.0951 C   0  0  0  0  0  0  0  0  0  0  0  0
   -6.5756   -3.5537   -0.1229 C   0  0  0  0  0  0  0  0  0  0  0  0
    2.0180    3.2898    0.6422 C   0  0  0  0  0  0  0  0  0  0  0  0
   -1.4907    4.5280   -0.5572 C   0  0  0  0  0  0  0  0  0  0  0  0
   -7.0779   -2.1130    0.0244 C   0  0  0  0  0  0  0  0  0  0  0  0
   -5.2791   -3.7401    0.6660 C   0  0  0  0  0  0  0  0  0  0  0  0
   -6.3520   -3.9264   -1.5902 C   0  0  0  0  0  0  0  0  0  0  0  0
    2.7362    1.9726    0.5602 C   0  0  0  0  0  0  0  0  0  0  0  0
   -2.4610    3.6120    0.1335 C   0  0  0  0  0  0  0  0  0  0  0  0
    4.6147    0.5252   -0.2297 C   0  0  0  0  0  0  0  0  0  0  0  0
    3.8804    1.7967   -0.1190 C   0  0  0  0  0  0  0  0  0  0  0  0
    5.0921   -1.6474    0.5603 C   0  0  0  0  0  0  0  0  0  0  0  0
    4.3805   -0.4742    0.7050 C   0  0  0  0  0  0  0  0  0  0  0  0
    5.9949   -1.8252   -0.4630 C   0  0  0  0  0  0  0  0  0  0  0  0
    5.5284    0.3585   -1.2739 C   0  0  0  0  0  0  0  0  0  0  0  0
    6.2358   -0.8396   -1.3980 C   0  0  0  0  0  0  0  0  0  0  0  0
   -5.5859   -0.1644    0.3212 C   0  0  0  0  0  0  0  0  0  0  0  0
   -3.0918    2.5999   -0.4811 C   0  0  0  0  0  0  0  0  0  0  0  0
    5.9562   -3.6230    0.7403 C   0  0  0  0  0  0  0  0  0  0  0  0
   -4.6425    0.7094   -0.4296 C   0  0  0  0  0  0  0  0  0  0  0  0
   -4.0176    1.7177    0.1945 C   0  0  0  0  0  0  0  0  0  0  0  0
    0.6712    2.8503   -0.9931 H   0  0  0  0  0  0  0  0  0  0  0  0
    0.0328    2.4418    0.6004 H   0  0  0  0  0  0  0  0  0  0  0  0
   -0.1930    4.8768    1.1381 H   0  0  0  0  0  0  0  0  0  0  0  0
    0.5080    5.2973   -0.4209 H   0  0  0  0  0  0  0  0  0  0  0  0
   -7.3378   -4.2251    0.2915 H   0  0  0  0  0  0  0  0  0  0  0  0
    2.5844    4.0734    0.1244 H   0  0  0  0  0  0  0  0  0  0  0  0
    1.9549    3.5867    1.6960 H   0  0  0  0  0  0  0  0  0  0  0  0
   -1.3882    4.2623   -1.6166 H   0  0  0  0  0  0  0  0  0  0  0  0
   -1.9045    5.5433   -0.5290 H   0  0  0  0  0  0  0  0  0  0  0  0
   -7.3106   -1.9019    1.0739 H   0  0  0  0  0  0  0  0  0  0  0  0
   -8.0038   -1.9800   -0.5463 H   0  0  0  0  0  0  0  0  0  0  0  0
   -4.4562   -3.1450    0.2560 H   0  0  0  0  0  0  0  0  0  0  0  0
   -5.4161   -3.4569    1.7151 H   0  0  0  0  0  0  0  0  0  0  0  0
   -4.9680   -4.7903    0.6447 H   0  0  0  0  0  0  0  0  0  0  0  0
   -6.0895   -4.9864   -1.6780 H   0  0  0  0  0  0  0  0  0  0  0  0
   -7.2616   -3.7597   -2.1767 H   0  0  0  0  0  0  0  0  0  0  0  0
   -5.5409   -3.3482   -2.0447 H   0  0  0  0  0  0  0  0  0  0  0  0
    2.2549    1.1537    1.0866 H   0  0  0  0  0  0  0  0  0  0  0  0
   -5.9120   -1.1722   -1.4768 H   0  0  0  0  0  0  0  0  0  0  0  0
   -2.6470    3.8080    1.1872 H   0  0  0  0  0  0  0  0  0  0  0  0
    4.3150    2.6409   -0.6497 H   0  0  0  0  0  0  0  0  0  0  0  0
    3.6961   -0.3748    1.5390 H   0  0  0  0  0  0  0  0  0  0  0  0
    5.7015    1.1488   -2.0005 H   0  0  0  0  0  0  0  0  0  0  0  0
    6.9478   -0.9837   -2.2027 H   0  0  0  0  0  0  0  0  0  0  0  0
   -2.9043    2.4136   -1.5356 H   0  0  0  0  0  0  0  0  0  0  0  0
    6.7325   -3.8805    1.4698 H   0  0  0  0  0  0  0  0  0  0  0  0
    5.4363   -4.5404    0.4412 H   0  0  0  0  0  0  0  0  0  0  0  0
   -4.4777    0.5075   -1.4835 H   0  0  0  0  0  0  0  0  0  0  0  0
   -4.1926    1.9075    1.2504 H   0  0  0  0  0  0  0  0  0  0  0  0
  1 17  1  0  0  0  0
  1 24  1  0  0  0  0
  2 19  1  0  0  0  0
  2 24  1  0  0  0  0
  3 22  2  0  0  0  0
  4 10  1  0  0  0  0
  4 22  1  0  0  0  0
  4 45  1  0  0  0  0
  5  6  1  0  0  0  0
  5  8  1  0  0  0  0
  5 27  1  0  0  0  0
  5 28  1  0  0  0  0
  6  9  1  0  0  0  0
  6 29  1  0  0  0  0
  6 30  1  0  0  0  0
  7 10  1  0  0  0  0
  7 11  1  0  0  0  0
  7 12  1  0  0  0  0
  7 31  1  0  0  0  0
  8 13  1  0  0  0  0
  8 32  1  0  0  0  0
  8 33  1  0  0  0  0
  9 14  1  0  0  0  0
  9 34  1  0  0  0  0
  9 35  1  0  0  0  0
 10 36  1  0  0  0  0
 10 37  1  0  0  0  0
 11 38  1  0  0  0  0
 11 39  1  0  0  0  0
 11 40  1  0  0  0  0
 12 41  1  0  0  0  0
 12 42  1  0  0  0  0
 12 43  1  0  0  0  0
 13 16  2  0  0  0  0
 13 44  1  0  0  0  0
 14 23  2  0  0  0  0
 14 46  1  0  0  0  0
 15 16  1  0  0  0  0
 15 18  2  0  0  0  0
 15 20  1  0  0  0  0
 16 47  1  0  0  0  0
 17 18  1  0  0  0  0
 17 19  2  0  0  0  0
 18 48  1  0  0  0  0
 19 21  1  0  0  0  0
 20 21  2  0  0  0  0
 20 49  1  0  0  0  0
 21 50  1  0  0  0  0
 22 25  1  0  0  0  0
 23 26  1  0  0  0  0
 23 51  1  0  0  0  0
 24 52  1  0  0  0  0
 24 53  1  0  0  0  0
 25 26  2  0  0  0  0
 25 54  1  0  0  0  0
 26 55  1  0  0  0  0
M  END
> <PUBCHEM_COMPOUND_CID>
585120

> <PUBCHEM_CONFORMER_RMSD>
1

> <PUBCHEM_CONFORMER_DIVERSEORDER>
1
154
164
47
38
255
236
277
207
106
31
162
45
211
161
122
98
275
49
105
214
89
41
233
160
64
104
8
227
250
266
117
90
203
220
229
168
6
25
2
134
149
271
191
205
247
267
4
44
35
143
74
265
192
114
28
77
103
197
278
29
43
167
157
283
259
140
230
215
9
145
26
7
219
135
235
56
202
221
71
30
60
289
16
51
110
196
69
54
182
199
92
40
166
20
258
124
270
132
83
94
12
39
99
138
155
213
66
18
3
107
172
240
87
133
209
130
248
53
290
73
131
63
111
147
217
194
165
252
254
153
58
72
177
195
186
188
273
245
13
286
112
52
234
126
279
158
17
80
244
242
115
101
232
55
118
70
216
11
228
139
184
176
22
170
127
178
65
116
175
57
239
76
119
169
251
150
257
46
284
156
148
100
34
23
137
62
5
187
93
42
193
180
163
24
200
263
50
261
36
37
280
268
272
75
208
246
190
256
33
120
123
21
198
238
14
19
108
291
15
243
86
281
144
282
183
59
141
231
249
287
226
171
224
61
293
274
91
218
88
206
27
210
82
67
262
48
223
10
159
185
264
292
121
225
109
253
152
79
179
285
68
222
78
146
276
85
102
129
151
97
96
204
173
201
181
113
136
81
237
288
241
212
189
125
269
174
32
95
260
142
84
128

> <PUBCHEM_MMFF94_PARTIAL_CHARGES>
31
1 -0.36
10 0.3
13 -0.29
14 -0.29
15 0.03
16 -0.18
17 0.08
18 -0.15
19 0.08
2 -0.36
20 -0.15
21 -0.15
22 0.62
23 -0.15
24 0.56
25 -0.14
26 -0.15
3 -0.57
4 -0.73
44 0.15
45 0.37
46 0.15
47 0.15
48 0.15
49 0.15
50 0.15
51 0.15
54 0.15
55 0.15
8 0.14
9 0.14

> <PUBCHEM_EFFECTIVE_ROTOR_COUNT>
11.6

> <PUBCHEM_PHARMACOPHORE_FEATURES>
9
1 1 acceptor
1 2 acceptor
1 3 acceptor
1 4 donor
3 5 8 13 hydrophobe
3 6 9 14 hydrophobe
3 7 11 12 hydrophobe
5 1 2 17 19 24 rings
6 15 17 18 19 20 21 rings

> <PUBCHEM_HEAVY_ATOM_COUNT>
26

> <PUBCHEM_ATOM_DEF_STEREO_COUNT>
0

> <PUBCHEM_ATOM_UDEF_STEREO_COUNT>
0

> <PUBCHEM_BOND_DEF_STEREO_COUNT>
0

> <PUBCHEM_BOND_UDEF_STEREO_COUNT>
3

> <PUBCHEM_ISOTOPIC_ATOM_COUNT>
0

> <PUBCHEM_COMPONENT_COUNT>
1

> <PUBCHEM_CACTVS_TAUTO_COUNT>
2

> <PUBCHEM_CONFORMER_ID>
0008EDA000000001

> <PUBCHEM_MMFF94_ENERGY>
39.5762

> <PUBCHEM_FEATURE_SELFOVERLAP>
45.825

> <PUBCHEM_SHAPE_FINGERPRINT>
10049733 71 18123477082100717159
11197282 1 18411419479929658905
117089 54 18339356371179966707
11761917 116 18409724063486113764
11973864 118 17916888849687411194
12645989 146 18410006641584019451
13165053 68 18265606758661924334
1361 4 18410291415385659716
13911852 28 18338800010070900461
14251764 30 18411139121581336493
15019793 15 18265616485517825443
15530120 55 17632280303175671020
20775438 99 17988352668939417008
21307412 95 18269847548665926701
229767 8 18410571765059761875
23569914 2 13827847888447398118
260245 28 17695356158451440434
2835820 82 18194122903155508279
393628 194 9151172039356130755
439807 62 18270956972191698945
4756088 132 18338530672128767627
484985 159 18264766748230782529
7970288 3 18339081484836406617
9980921 52 17825125714157298663

> <PUBCHEM_SHAPE_MULTIPOLES>
512.48
24.07
7.52
1.13
10.04
1.86
0.12
-34.12
2.26
4.75
0.01
-0.29
-0.65
-1.44

> <PUBCHEM_SHAPE_SELFOVERLAP>
1045.085

> <PUBCHEM_SHAPE_VOLUME>
296.6

> <PUBCHEM_COORDINATE_TYPE>
2
5
10

$$$$

