12888
  -OEChem-06261207303D

 27 29  0     0  0  0  0  0  0999 V2000
   -0.0027   -0.1322   -0.0012 O   0  0  0  0  0  0  0  0  0  0  0  0
   -0.6954    1.9950    0.0006 N   0  0  0  0  0  0  0  0  0  0  0  0
    0.6870    1.9960   -0.0004 N   0  0  0  0  0  0  0  0  0  0  0  0
   -2.3575    0.1353    0.0006 C   0  0  0  0  0  0  0  0  0  0  0  0
    2.3518    0.1383   -0.0011 C   0  0  0  0  0  0  0  0  0  0  0  0
   -1.0459    0.7361   -0.0001 C   0  0  0  0  0  0  0  0  0  0  0  0
    1.0474    0.7339   -0.0012 C   0  0  0  0  0  0  0  0  0  0  0  0
   -2.4895   -1.2534    0.0003 C   0  0  0  0  0  0  0  0  0  0  0  0
    2.4934   -1.2538   -0.0010 C   0  0  0  0  0  0  0  0  0  0  0  0
   -3.4940    0.9438    0.0006 C   0  0  0  0  0  0  0  0  0  0  0  0
    3.4954    0.9445    0.0000 C   0  0  0  0  0  0  0  0  0  0  0  0
   -3.7581   -1.8334   -0.0001 C   0  0  0  0  0  0  0  0  0  0  0  0
    3.7626   -1.8325    0.0002 C   0  0  0  0  0  0  0  0  0  0  0  0
   -4.7626    0.3639    0.0004 C   0  0  0  0  0  0  0  0  0  0  0  0
    4.7646    0.3659    0.0011 C   0  0  0  0  0  0  0  0  0  0  0  0
   -4.8946   -1.0248   -0.0001 C   0  0  0  0  0  0  0  0  0  0  0  0
    4.8981   -1.0225    0.0013 C   0  0  0  0  0  0  0  0  0  0  0  0
   -1.6278   -1.9160    0.0001 H   0  0  0  0  0  0  0  0  0  0  0  0
    1.6326   -1.9182   -0.0016 H   0  0  0  0  0  0  0  0  0  0  0  0
   -3.4150    2.0283    0.0007 H   0  0  0  0  0  0  0  0  0  0  0  0
    3.4164    2.0292    0.0001 H   0  0  0  0  0  0  0  0  0  0  0  0
   -3.8614   -2.9146   -0.0004 H   0  0  0  0  0  0  0  0  0  0  0  0
    3.8671   -2.9136    0.0003 H   0  0  0  0  0  0  0  0  0  0  0  0
   -5.6478    0.9933    0.0003 H   0  0  0  0  0  0  0  0  0  0  0  0
    5.6491    0.9963    0.0019 H   0  0  0  0  0  0  0  0  0  0  0  0
   -5.8824   -1.4764   -0.0004 H   0  0  0  0  0  0  0  0  0  0  0  0
    5.8864   -1.4730    0.0022 H   0  0  0  0  0  0  0  0  0  0  0  0
  1  6  1  0  0  0  0
  1  7  1  0  0  0  0
  2  3  1  0  0  0  0
  2  6  2  0  0  0  0
  3  7  2  0  0  0  0
  4  6  1  0  0  0  0
  4  8  2  0  0  0  0
  4 10  1  0  0  0  0
  5  7  1  0  0  0  0
  5  9  2  0  0  0  0
  5 11  1  0  0  0  0
  8 12  1  0  0  0  0
  8 18  1  0  0  0  0
  9 13  1  0  0  0  0
  9 19  1  0  0  0  0
 10 14  2  0  0  0  0
 10 20  1  0  0  0  0
 11 15  2  0  0  0  0
 11 21  1  0  0  0  0
 12 16  2  0  0  0  0
 12 22  1  0  0  0  0
 13 17  2  0  0  0  0
 13 23  1  0  0  0  0
 14 16  1  0  0  0  0
 14 24  1  0  0  0  0
 15 17  1  0  0  0  0
 15 25  1  0  0  0  0
 16 26  1  0  0  0  0
 17 27  1  0  0  0  0
M  END
> <PUBCHEM_COMPOUND_CID>
12888

> <PUBCHEM_CONFORMER_RMSD>
0.6

> <PUBCHEM_CONFORMER_DIVERSEORDER>
1

> <PUBCHEM_MMFF94_PARTIAL_CHARGES>
27
1 -0.28
10 -0.15
11 -0.15
12 -0.15
13 -0.15
14 -0.15
15 -0.15
16 -0.15
17 -0.15
18 0.15
19 0.15
2 -0.34
20 0.15
21 0.15
22 0.15
23 0.15
24 0.15
25 0.15
26 0.15
27 0.15
3 -0.34
4 0.05
5 0.05
6 0.43
7 0.43
8 -0.15
9 -0.15

> <PUBCHEM_EFFECTIVE_ROTOR_COUNT>
2

> <PUBCHEM_PHARMACOPHORE_FEATURES>
3
5 1 2 3 6 7 rings
6 4 8 10 12 14 16 rings
6 5 9 11 13 15 17 rings

> <PUBCHEM_HEAVY_ATOM_COUNT>
17

> <PUBCHEM_ATOM_DEF_STEREO_COUNT>
0

> <PUBCHEM_ATOM_UDEF_STEREO_COUNT>
0

> <PUBCHEM_BOND_DEF_STEREO_COUNT>
0

> <PUBCHEM_BOND_UDEF_STEREO_COUNT>
0

> <PUBCHEM_ISOTOPIC_ATOM_COUNT>
0

> <PUBCHEM_COMPONENT_COUNT>
1

> <PUBCHEM_CACTVS_TAUTO_COUNT>
1

> <PUBCHEM_CONFORMER_ID>
0000325800000001

> <PUBCHEM_MMFF94_ENERGY>
37.2984

> <PUBCHEM_FEATURE_SELFOVERLAP>
15.223

> <PUBCHEM_SHAPE_FINGERPRINT>
10616163 171 18408602582294081302
10968037 39 18412542102565204790
11806522 49 18413388731050962252
12032990 46 18410855460128324197
12107183 9 17687742053070471354
12555020 224 18410866443272654943
12596602 18 16660646215331517290
13167823 11 18410575084663397218
13288520 33 18409728473636823911
13685833 64 18341890762978520251
13862211 1 18410860961981748678
14115302 16 17703498918053667990
14251764 18 18260542317413558859
14252887 29 17676198087739148798
15196674 1 18410575088958364519
15242433 33 18412261739800446367
15352361 1 18410856555429491143
17804303 29 18335137579529404025
17834072 33 18410572855717561684
1813 80 17489586766153518052
18186145 218 14979950341894033013
19141452 34 18408322181675996319
200 152 18261111872045570969
20261772 1 17894635833551879038
20281475 54 18410853261110551284
20374829 77 18342179985363933355
20645477 70 18409729594966601846
21250096 35 18335140890432101227
21267235 1 18410566288570381506
221490 88 18198617727256864179
2215653 11 18409175419899930599
22485316 2 18410857659151417345
22646028 28 18410575088958260578
22854114 59 7637402929999104563
23402539 116 18341899605645912366
23403322 49 18411419510004875395
23557571 272 18188484800210782364
23559900 14 18409736131690574568
23622692 118 17825118012948685559
239999 70 18187640302682619582
26918003 58 18334580161076972802
2871803 45 18343867744661349586
3004659 81 18201720678251899494
3268164 11 16415488176632100223
335352 9 18410575102792709205
33824 294 18411983572666264298
42 15 18409165515220055471
4214541 1 18410574019822705189
465052 167 18260261923787879927
4921388 177 16271917169777103187
5104073 3 18408323297750166240
5283173 99 18129108977308485109
559249 180 18341618173983105283
77779 3 18410855460133456044
83771 10 18410294709229806952
9709674 26 18198622129788480523

> <PUBCHEM_SHAPE_MULTIPOLES>
334.02
11.23
1.9
0.6
0.03
0.07
0
3.87
0
0
0
0
0.02
0

> <PUBCHEM_SHAPE_SELFOVERLAP>
741.768

> <PUBCHEM_SHAPE_VOLUME>
179.8

> <PUBCHEM_COORDINATE_TYPE>
2
5
10

$$$$

