5268
  -OEChem-06261200363D

 53 57  0     1  0  0  0  0  0999 V2000
   -2.1655   -3.5534   -0.4928 O   0  0  0  0  0  0  0  0  0  0  0  0
    3.9547   -1.0142    0.6616 O   0  0  0  0  0  0  0  0  0  0  0  0
    3.4532    1.6458   -0.3270 O   0  0  0  0  0  0  0  0  0  0  0  0
   -3.7794   -0.3996   -0.3120 N   0  0  3  0  0  0  0  0  0  0  0  0
    0.2636   -0.9269    0.8046 N   0  0  0  0  0  0  0  0  0  0  0  0
   -4.2204   -2.5621   -0.9021 N   0  0  0  0  0  0  0  0  0  0  0  0
   -2.5132   -1.1451   -0.0858 C   0  0  0  0  0  0  0  0  0  0  0  0
   -1.3894   -0.6679   -1.0235 C   0  0  0  0  0  0  0  0  0  0  0  0
   -2.1271   -1.1828    1.4039 C   0  0  0  0  0  0  0  0  0  0  0  0
   -0.0039   -1.1795   -0.6164 C   0  0  0  0  0  0  0  0  0  0  0  0
   -0.6914   -1.6592    1.6448 C   0  0  0  0  0  0  0  0  0  0  0  0
   -2.8978   -2.5743   -0.5059 C   0  0  0  0  0  0  0  0  0  0  0  0
   -4.8316   -1.2764   -0.8129 C   0  0  0  0  0  0  0  0  0  0  0  0
    1.6346   -1.3152    1.1391 C   0  0  0  0  0  0  0  0  0  0  0  0
   -4.0380    0.9483   -0.1044 C   0  0  0  0  0  0  0  0  0  0  0  0
    2.6466   -0.5530    0.2963 C   0  0  1  0  0  0  0  0  0  0  0  0
    2.5465    0.9481    0.5329 C   0  0  0  0  0  0  0  0  0  0  0  0
   -5.3150    1.5178   -0.3668 C   0  0  0  0  0  0  0  0  0  0  0  0
   -3.0412    1.8380    0.3840 C   0  0  0  0  0  0  0  0  0  0  0  0
    4.9439   -0.2093    0.1610 C   0  0  0  0  0  0  0  0  0  0  0  0
   -5.5750    2.8721   -0.1570 C   0  0  0  0  0  0  0  0  0  0  0  0
   -3.3011    3.1922    0.5938 C   0  0  0  0  0  0  0  0  0  0  0  0
    4.6990    1.0757   -0.3282 C   0  0  0  0  0  0  0  0  0  0  0  0
   -4.5680    3.7093    0.3234 C   0  0  0  0  0  0  0  0  0  0  0  0
    6.2417   -0.7207    0.1632 C   0  0  0  0  0  0  0  0  0  0  0  0
    5.7447    1.8334   -0.8560 C   0  0  0  0  0  0  0  0  0  0  0  0
    7.2893    0.0430   -0.3521 C   0  0  0  0  0  0  0  0  0  0  0  0
    7.0403    1.3160   -0.8660 C   0  0  0  0  0  0  0  0  0  0  0  0
   -1.3412    0.4235   -1.0745 H   0  0  0  0  0  0  0  0  0  0  0  0
   -1.5936   -0.9900   -2.0538 H   0  0  0  0  0  0  0  0  0  0  0  0
   -2.8117   -1.8396    1.9577 H   0  0  0  0  0  0  0  0  0  0  0  0
   -2.2356   -0.2019    1.8750 H   0  0  0  0  0  0  0  0  0  0  0  0
    0.0950   -2.2459   -0.8545 H   0  0  0  0  0  0  0  0  0  0  0  0
    0.6817   -0.6413   -1.2755 H   0  0  0  0  0  0  0  0  0  0  0  0
   -0.4591   -1.4925    2.7044 H   0  0  0  0  0  0  0  0  0  0  0  0
   -0.6176   -2.7407    1.4745 H   0  0  0  0  0  0  0  0  0  0  0  0
   -5.1695   -0.9936   -1.8150 H   0  0  0  0  0  0  0  0  0  0  0  0
   -5.6770   -1.3521   -0.1216 H   0  0  0  0  0  0  0  0  0  0  0  0
    1.8347   -1.1160    2.2006 H   0  0  0  0  0  0  0  0  0  0  0  0
    1.7887   -2.3949    1.0050 H   0  0  0  0  0  0  0  0  0  0  0  0
   -4.7079   -3.3917   -1.2252 H   0  0  0  0  0  0  0  0  0  0  0  0
    2.5587   -0.7905   -0.7693 H   0  0  0  0  0  0  0  0  0  0  0  0
    1.5468    1.3317    0.3072 H   0  0  0  0  0  0  0  0  0  0  0  0
    2.7829    1.2142    1.5714 H   0  0  0  0  0  0  0  0  0  0  0  0
   -6.1343    0.9092   -0.7420 H   0  0  0  0  0  0  0  0  0  0  0  0
   -2.0362    1.5017    0.6155 H   0  0  0  0  0  0  0  0  0  0  0  0
   -6.5613    3.2754   -0.3673 H   0  0  0  0  0  0  0  0  0  0  0  0
   -2.5177    3.8448    0.9681 H   0  0  0  0  0  0  0  0  0  0  0  0
   -4.7705    4.7637    0.4868 H   0  0  0  0  0  0  0  0  0  0  0  0
    6.4430   -1.7146    0.5535 H   0  0  0  0  0  0  0  0  0  0  0  0
    5.5610    2.8292   -1.2501 H   0  0  0  0  0  0  0  0  0  0  0  0
    8.2997   -0.3557   -0.3573 H   0  0  0  0  0  0  0  0  0  0  0  0
    7.8570    1.9068   -1.2704 H   0  0  0  0  0  0  0  0  0  0  0  0
  1 12  2  0  0  0  0
  2 16  1  0  0  0  0
  2 20  1  0  0  0  0
  3 17  1  0  0  0  0
  3 23  1  0  0  0  0
  4  7  1  0  0  0  0
  4 13  1  0  0  0  0
  4 15  1  0  0  0  0
  5 10  1  0  0  0  0
  5 11  1  0  0  0  0
  5 14  1  0  0  0  0
  6 12  1  0  0  0  0
  6 13  1  0  0  0  0
  6 41  1  0  0  0  0
  7  8  1  0  0  0  0
  7  9  1  0  0  0  0
  7 12  1  0  0  0  0
  8 10  1  0  0  0  0
  8 29  1  0  0  0  0
  8 30  1  0  0  0  0
  9 11  1  0  0  0  0
  9 31  1  0  0  0  0
  9 32  1  0  0  0  0
 10 33  1  0  0  0  0
 10 34  1  0  0  0  0
 11 35  1  0  0  0  0
 11 36  1  0  0  0  0
 13 37  1  0  0  0  0
 13 38  1  0  0  0  0
 14 16  1  0  0  0  0
 14 39  1  0  0  0  0
 14 40  1  0  0  0  0
 15 18  2  0  0  0  0
 15 19  1  0  0  0  0
 16 17  1  0  0  0  0
 16 42  1  0  0  0  0
 17 43  1  0  0  0  0
 17 44  1  0  0  0  0
 18 21  1  0  0  0  0
 18 45  1  0  0  0  0
 19 22  2  0  0  0  0
 19 46  1  0  0  0  0
 20 23  1  0  0  0  0
 20 25  2  0  0  0  0
 21 24  2  0  0  0  0
 21 47  1  0  0  0  0
 22 24  1  0  0  0  0
 22 48  1  0  0  0  0
 23 26  2  0  0  0  0
 24 49  1  0  0  0  0
 25 27  1  0  0  0  0
 25 50  1  0  0  0  0
 26 28  1  0  0  0  0
 26 51  1  0  0  0  0
 27 28  2  0  0  0  0
 27 52  1  0  0  0  0
 28 53  1  0  0  0  0
M  END
> <PUBCHEM_COMPOUND_CID>
5268

> <PUBCHEM_CONFORMER_RMSD>
0.8

> <PUBCHEM_CONFORMER_DIVERSEORDER>
1
35
24
32
15
12
30
8
2
28
19
22
11
34
29
33
20
25
14
31
23
10
18
26
6
16
9
21
4
5
27
17
13
7
3

> <PUBCHEM_MMFF94_PARTIAL_CHARGES>
36
1 -0.57
10 0.27
11 0.27
12 0.57
13 0.67
14 0.27
15 0.1
16 0.28
17 0.28
18 -0.15
19 -0.15
2 -0.36
20 0.08
21 -0.15
22 -0.15
23 0.08
24 -0.15
25 -0.15
26 -0.15
27 -0.15
28 -0.15
3 -0.36
4 -0.84
41 0.37
45 0.15
46 0.15
47 0.15
48 0.15
49 0.15
5 -0.81
50 0.15
51 0.15
52 0.15
53 0.15
6 -0.73
7 0.43

> <PUBCHEM_EFFECTIVE_ROTOR_COUNT>
5.4

> <PUBCHEM_PHARMACOPHORE_FEATURES>
11
1 1 acceptor
1 2 acceptor
1 3 acceptor
1 4 cation
1 5 cation
1 6 donor
5 4 6 7 12 13 rings
6 15 18 19 21 22 24 rings
6 2 3 16 17 20 23 rings
6 20 23 25 26 27 28 rings
6 5 7 8 9 10 11 rings

> <PUBCHEM_HEAVY_ATOM_COUNT>
28

> <PUBCHEM_ATOM_DEF_STEREO_COUNT>
0

> <PUBCHEM_ATOM_UDEF_STEREO_COUNT>
1

> <PUBCHEM_BOND_DEF_STEREO_COUNT>
0

> <PUBCHEM_BOND_UDEF_STEREO_COUNT>
0

> <PUBCHEM_ISOTOPIC_ATOM_COUNT>
0

> <PUBCHEM_COMPONENT_COUNT>
1

> <PUBCHEM_CACTVS_TAUTO_COUNT>
2

> <PUBCHEM_CONFORMER_ID>
0000149400000001

> <PUBCHEM_MMFF94_ENERGY>
92.7101

> <PUBCHEM_FEATURE_SELFOVERLAP>
55.865

> <PUBCHEM_SHAPE_FINGERPRINT>
10165383 225 17895186741255369795
10411042 1 18048601409569427831
10454371 7 18335417967362872557
10595046 47 18340491075901920718
10670039 82 18410018732001308189
10730089 173 18408603673521417745
11763715 3 17692236448773382575
12107183 9 18052265278079962402
12107698 1 18335703775950736693
12788726 201 18340218384344678139
12895837 130 18341324539695672741
13167372 99 18341895212669899872
13690498 29 17969790678831113263
13782708 43 16951697886886132879
14251764 75 17975686509598912529
14257110 125 18340768243105528793
14840074 17 17775280607851453701
14856354 85 18263359192525716151
15064981 113 18115603667272836870
15064981 194 18058719188091413223
15163728 17 18188764089112013935
15183329 4 18408321090822686468
15198563 99 18190195516403256471
15297060 5 18114460162764695289
15348495 7 11240001131681958198
15419008 42 17823693264895449030
15604295 49 18188496749453962936
1577012 14 18342740724100209112
15876981 60 18339641131912206669
16126227 98 18261949760822176969
16991971 28 17972614186944092967
16992828 155 17987806340156179901
17844677 252 18337948983590814180
17913733 40 15339122359795991408
18608769 82 18342167839934756233
19611394 137 18058152961431016139
20101258 96 18050284770250205147
21033650 10 18266153133444441036
21236236 1 18412544301404019316
21756936 100 18131066043744479715
21859007 373 17968673678565629656
22122407 14 18200583710283199184
221357 26 18262802856789541080
22393880 68 18260833670277110208
23198884 109 18411700963316942950
23522609 53 17988626511896107596
23559900 14 18191877716483046544
23569943 247 16843909627343286466
25147074 1 18201732777137843202
255183 451 17466802480968356783
2838139 119 18335987544461335461
3610482 184 18201140088836158636
38570 142 18059284474364404370
4073 2 17988355980532749698
445580 204 18413389834905283592
445580 37 18410288108118235460
44802255 64 17749667399041352654
4516262 110 17988650730577956927
497634 4 18201165364428694727
5104073 3 17275387595175498194
5171179 24 18042975263375914721
5283173 99 18335139778499853920
531348 171 18334573542770415590
5372103 7 17486790833778398429
6299153 45 18198345246458506458
6327066 14 18268433619556342581
6328613 192 18343298163626855892
6700243 42 17609742376168791695
7288768 16 17561075934592364571
7808743 9 18337394945647150305

> <PUBCHEM_SHAPE_MULTIPOLES>
543.68
17.5
3.68
1.09
24.91
1.16
0.2
10.14
-3.98
-6.86
-0.11
-0.13
-0.39
-1.88

> <PUBCHEM_SHAPE_SELFOVERLAP>
1187.745

> <PUBCHEM_SHAPE_VOLUME>
293

> <PUBCHEM_COORDINATE_TYPE>
2
5
10

$$$$

