17396554
  -OEChem-06241222573D

 32 32  0     1  0  0  0  0  0999 V2000
    0.6113    0.4726    0.9792 S   0  0  0  0  0  0  0  0  0  0  0  0
   -2.4285    2.0169    0.7036 O   0  0  0  0  0  0  0  0  0  0  0  0
   -4.5843    0.2239    0.5966 O   0  0  0  0  0  0  0  0  0  0  0  0
    3.2000   -0.4992    0.6681 N   0  0  0  0  0  0  0  0  0  0  0  0
    2.3512    0.2995   -1.1838 N   0  0  0  0  0  0  0  0  0  0  0  0
   -2.4470   -0.0945   -0.2830 N   0  0  0  0  0  0  0  0  0  0  0  0
    3.6284   -0.1525   -1.4494 N   0  0  0  0  0  0  0  0  0  0  0  0
   -4.0427   -1.7417   -0.5112 N   0  0  0  0  0  0  0  0  0  0  0  0
   -0.4032    1.2088   -0.3439 C   0  0  2  0  0  0  0  0  0  0  0  0
    2.1128    0.0829    0.0900 C   0  0  0  0  0  0  0  0  0  0  0  0
    4.1204   -0.6272   -0.3274 C   0  0  0  0  0  0  0  0  0  0  0  0
    0.0243    2.6525   -0.5753 C   0  0  0  0  0  0  0  0  0  0  0  0
   -1.8602    1.1181    0.0869 C   0  0  0  0  0  0  0  0  0  0  0  0
    3.3661   -0.9042    2.0448 C   0  0  0  0  0  0  0  0  0  0  0  0
    5.4556   -1.2172   -0.1228 C   0  0  0  0  0  0  0  0  0  0  0  0
   -3.7694   -0.4711   -0.0084 C   0  0  0  0  0  0  0  0  0  0  0  0
   -5.3349   -2.3675   -0.3639 C   0  0  0  0  0  0  0  0  0  0  0  0
   -0.2773    0.6420   -1.2735 H   0  0  0  0  0  0  0  0  0  0  0  0
    1.0562    2.7236   -0.9337 H   0  0  0  0  0  0  0  0  0  0  0  0
   -0.6162    3.1176   -1.3338 H   0  0  0  0  0  0  0  0  0  0  0  0
   -0.0658    3.2606    0.3324 H   0  0  0  0  0  0  0  0  0  0  0  0
    4.3505   -1.3453    2.2077 H   0  0  0  0  0  0  0  0  0  0  0  0
    2.5967   -1.6439    2.2815 H   0  0  0  0  0  0  0  0  0  0  0  0
    3.2580   -0.0205    2.6792 H   0  0  0  0  0  0  0  0  0  0  0  0
    6.0312   -0.6450    0.6114 H   0  0  0  0  0  0  0  0  0  0  0  0
    5.3804   -2.2555    0.2148 H   0  0  0  0  0  0  0  0  0  0  0  0
    6.0207   -1.2146   -1.0607 H   0  0  0  0  0  0  0  0  0  0  0  0
   -1.8754   -0.7691   -0.7843 H   0  0  0  0  0  0  0  0  0  0  0  0
   -3.2978   -2.2653   -0.9599 H   0  0  0  0  0  0  0  0  0  0  0  0
   -6.1295   -1.6198   -0.4288 H   0  0  0  0  0  0  0  0  0  0  0  0
   -5.4538   -3.1108   -1.1556 H   0  0  0  0  0  0  0  0  0  0  0  0
   -5.3722   -2.8574    0.6124 H   0  0  0  0  0  0  0  0  0  0  0  0
  1  9  1  0  0  0  0
  1 10  1  0  0  0  0
  2 13  2  0  0  0  0
  3 16  2  0  0  0  0
  4 10  1  0  0  0  0
  4 11  1  0  0  0  0
  4 14  1  0  0  0  0
  5  7  1  0  0  0  0
  5 10  2  0  0  0  0
  6 13  1  0  0  0  0
  6 16  1  0  0  0  0
  6 28  1  0  0  0  0
  7 11  2  0  0  0  0
  8 16  1  0  0  0  0
  8 17  1  0  0  0  0
  8 29  1  0  0  0  0
  9 12  1  0  0  0  0
  9 13  1  0  0  0  0
  9 18  1  0  0  0  0
 11 15  1  0  0  0  0
 12 19  1  0  0  0  0
 12 20  1  0  0  0  0
 12 21  1  0  0  0  0
 14 22  1  0  0  0  0
 14 23  1  0  0  0  0
 14 24  1  0  0  0  0
 15 25  1  0  0  0  0
 15 26  1  0  0  0  0
 15 27  1  0  0  0  0
 17 30  1  0  0  0  0
 17 31  1  0  0  0  0
 17 32  1  0  0  0  0
M  END
> <PUBCHEM_COMPOUND_CID>
17396554

> <PUBCHEM_CONFORMER_RMSD>
0.8

> <PUBCHEM_CONFORMER_DIVERSEORDER>
1
148
122
66
95
65
21
137
89
124
10
121
144
62
99
23
57
106
36
3
77
54
73
96
60
90
68
91
97
119
101
104
103
33
123
51
37
41
145
74
86
18
131
49
116
81
134
76
92
133
143
35
63
128
15
59
58
107
84
45
146
126
7
138
109
6
42
75
151
88
53
29
38
147
85
111
5
16
69
26
113
28
20
127
13
82
141
67
149
50
64
112
150
140
120
79
43
24
93
47
4
2
39
125
114
25
27
87
40
135
94
48
61
139
105
115
129
52
110
130
17
70
108
30
8
56
32
31
132
100
9
117
55
12
34
142
83
19
136
46
44
80
22
71
102
78
72
14
118
98
11

> <PUBCHEM_MMFF94_PARTIAL_CHARGES>
18
1 -0.29
10 0.24
11 0.01
13 0.57
14 0.26
15 0.18
16 0.69
17 0.3
2 -0.57
28 0.37
29 0.37
3 -0.57
4 0.05
5 -0.34
6 -0.49
7 -0.34
8 -0.73
9 0.29

> <PUBCHEM_EFFECTIVE_ROTOR_COUNT>
6

> <PUBCHEM_PHARMACOPHORE_FEATURES>
8
1 12 hydrophobe
1 2 acceptor
1 3 acceptor
1 6 donor
1 8 donor
3 4 5 10 cation
3 4 7 11 cation
5 4 5 7 10 11 rings

> <PUBCHEM_HEAVY_ATOM_COUNT>
17

> <PUBCHEM_ATOM_DEF_STEREO_COUNT>
0

> <PUBCHEM_ATOM_UDEF_STEREO_COUNT>
1

> <PUBCHEM_BOND_DEF_STEREO_COUNT>
0

> <PUBCHEM_BOND_UDEF_STEREO_COUNT>
0

> <PUBCHEM_ISOTOPIC_ATOM_COUNT>
0

> <PUBCHEM_COMPONENT_COUNT>
1

> <PUBCHEM_CACTVS_TAUTO_COUNT>
5

> <PUBCHEM_CONFORMER_ID>
0109734A00000001

> <PUBCHEM_MMFF94_ENERGY>
23.7358

> <PUBCHEM_FEATURE_SELFOVERLAP>
43.15

> <PUBCHEM_SHAPE_FINGERPRINT>
11046707 91 18410293635588242285
11796584 16 17972596864855242462
12553582 1 18343587334915416019
12633257 1 15502658148559345015
13675066 3 16732701653590793737
14123255 352 10015867574178841855
1420 369 18262520291192083815
14251752 14 17703240598078892295
14252887 29 15936401265185501780
14576447 43 17988927777707298346
15342816 4 18342458136267903156
15537594 2 18272365412580219299
15880784 105 18186518782830146234
17804303 29 18114179722785126425
1798214 20 17989495108094708295
18186145 218 13254791390829777172
18222031 100 18410581660505961485
18785283 64 17387150671516868000
18915474 69 18273493455432876182
193927 3 18336820871913249839
200 152 17489304222088665652
20281475 54 18410575119038687129
20374829 77 18409449189383616959
20388580 30 18268991995021083141
20621476 21 17822839992280589134
20671657 53 18272377425793610933
20871999 31 18059863891275335317
21054139 6 18202847660691311874
22646028 28 18272931652246064512
23402539 116 18341614840713761934
23402655 69 17059776757755508332
235170 7 15052021173369671251
23557571 272 18115026449528091844
23559900 14 18334022665964717361
23598288 3 17628923622771893929
26918003 58 17022903483902664971
270888 7 10159438513174848551
351380 3 18342454825043712475
4028521 119 12463575084151255159
465052 167 18265044748467563759
602551 16 18259985976724190150
603831 33 17703511107497895320
7495541 125 18040437698787999584
76465 3 18412829079215602028
7970288 3 18410012096356671911

> <PUBCHEM_SHAPE_MULTIPOLES>
317.06
11.44
2.15
1.22
3.16
0.54
-0.32
-9.13
0.93
2.39
0.23
-1.28
-0.15
-1

> <PUBCHEM_SHAPE_SELFOVERLAP>
621.33

> <PUBCHEM_SHAPE_VOLUME>
191.3

> <PUBCHEM_COORDINATE_TYPE>
2
5
10

$$$$

