13586
  -OEChem-06241222393D

 11 11  0     1  0  0  0  0  0999 V2000
    1.1254   -0.8580    0.0323 O   0  0  0  0  0  0  0  0  0  0  0  0
    0.3438    0.1806   -0.5220 C   0  0  2  0  0  0  0  0  0  0  0  0
    1.5345    0.4882    0.3068 C   0  0  0  0  0  0  0  0  0  0  0  0
   -0.9945    0.5271    0.0393 C   0  0  0  0  0  0  0  0  0  0  0  0
   -2.0090   -0.3378    0.1436 C   0  0  0  0  0  0  0  0  0  0  0  0
    0.4225    0.3472   -1.5904 H   0  0  0  0  0  0  0  0  0  0  0  0
    2.4266    0.8485   -0.1896 H   0  0  0  0  0  0  0  0  0  0  0  0
    1.4090    0.8458    1.3209 H   0  0  0  0  0  0  0  0  0  0  0  0
   -1.1399    1.5518    0.3696 H   0  0  0  0  0  0  0  0  0  0  0  0
   -2.9608   -0.0226    0.5569 H   0  0  0  0  0  0  0  0  0  0  0  0
   -1.9079   -1.3681   -0.1796 H   0  0  0  0  0  0  0  0  0  0  0  0
  1  2  1  0  0  0  0
  1  3  1  0  0  0  0
  2  3  1  0  0  0  0
  2  4  1  0  0  0  0
  2  6  1  0  0  0  0
  3  7  1  0  0  0  0
  3  8  1  0  0  0  0
  4  5  2  0  0  0  0
  4  9  1  0  0  0  0
  5 10  1  0  0  0  0
  5 11  1  0  0  0  0
M  END
> <PUBCHEM_COMPOUND_CID>
13586

> <PUBCHEM_CONFORMER_RMSD>
0.4

> <PUBCHEM_CONFORMER_DIVERSEORDER>
2
3
4
1

> <PUBCHEM_MMFF94_PARTIAL_CHARGES>
11
1 -0.3
10 0.15
11 0.15
2 0.09
3 -0.05
4 -0.19
5 -0.3
6 0.1
7 0.1
8 0.1
9 0.15

> <PUBCHEM_EFFECTIVE_ROTOR_COUNT>
1.6

> <PUBCHEM_PHARMACOPHORE_FEATURES>
2
1 1 acceptor
1 5 hydrophobe

> <PUBCHEM_HEAVY_ATOM_COUNT>
5

> <PUBCHEM_ATOM_DEF_STEREO_COUNT>
0

> <PUBCHEM_ATOM_UDEF_STEREO_COUNT>
1

> <PUBCHEM_BOND_DEF_STEREO_COUNT>
0

> <PUBCHEM_BOND_UDEF_STEREO_COUNT>
0

> <PUBCHEM_ISOTOPIC_ATOM_COUNT>
0

> <PUBCHEM_COMPONENT_COUNT>
1

> <PUBCHEM_CACTVS_TAUTO_COUNT>
1

> <PUBCHEM_CONFORMER_ID>
0000351200000002

> <PUBCHEM_MMFF94_ENERGY>
5.0542

> <PUBCHEM_FEATURE_SELFOVERLAP>
10.148

> <PUBCHEM_SHAPE_FINGERPRINT>
139733 1 6916259633050998701
20096714 4 16660651704389008896
24536 1 17703783726062013893
29004967 10 18131346388917859721
5460574 1 8862949372412089573
5943 1 16593143962686899468

> <PUBCHEM_SHAPE_MULTIPOLES>
97.03
2.38
0.84
0.68
0.66
0.05
-0.03
0.13
0.28
-0.1
0.02
-0.03
-0.03
0.04

> <PUBCHEM_SHAPE_SELFOVERLAP>
178.415

> <PUBCHEM_SHAPE_VOLUME>
62.8

> <PUBCHEM_COORDINATE_TYPE>
2
5
10

$$$$

