8825
  -OEChem-06261203082D

 15 13  0     0  0  0  0  0  0999 V2000
    0.0000    1.6200    0.0000 K   0  3  0  0  0  0  0  0  0  0  0  0
    0.8660    2.1200    0.0000 S   0  5  0  0  0  0  0  0  0  0  0  0
    1.7321    0.6200    0.0000 S   0  0  0  0  0  0  0  0  0  0  0  0
    2.5981    2.1200    0.0000 O   0  0  0  0  0  0  0  0  0  0  0  0
    3.4641    1.6200    0.0000 C   0  0  0  0  0  0  0  0  0  0  0  0
    4.3301    2.1200    0.0000 C   0  0  0  0  0  0  0  0  0  0  0  0
    3.4641    0.6200    0.0000 C   0  0  0  0  0  0  0  0  0  0  0  0
    1.7321    1.6200    0.0000 C   0  0  0  0  0  0  0  0  0  0  0  0
    3.4641    2.2400    0.0000 H   0  0  0  0  0  0  0  0  0  0  0  0
    4.6401    1.5831    0.0000 H   0  0  0  0  0  0  0  0  0  0  0  0
    4.8671    2.4300    0.0000 H   0  0  0  0  0  0  0  0  0  0  0  0
    4.0201    2.6569    0.0000 H   0  0  0  0  0  0  0  0  0  0  0  0
    2.8441    0.6200    0.0000 H   0  0  0  0  0  0  0  0  0  0  0  0
    3.4641    0.0000    0.0000 H   0  0  0  0  0  0  0  0  0  0  0  0
    4.0841    0.6200    0.0000 H   0  0  0  0  0  0  0  0  0  0  0  0
  2  8  1  0  0  0  0
  3  8  2  0  0  0  0
  4  5  1  0  0  0  0
  4  8  1  0  0  0  0
  5  6  1  0  0  0  0
  5  7  1  0  0  0  0
  5  9  1  0  0  0  0
  6 10  1  0  0  0  0
  6 11  1  0  0  0  0
  6 12  1  0  0  0  0
  7 13  1  0  0  0  0
  7 14  1  0  0  0  0
  7 15  1  0  0  0  0
M  CHG  2   1   1   2  -1
M  END
> <PUBCHEM_COMPOUND_CID>
8825

> <PUBCHEM_COMPOUND_CANONICALIZED>
1

> <PUBCHEM_CACTVS_COMPLEXITY>
64.6

> <PUBCHEM_CACTVS_HBOND_ACCEPTOR>
3

> <PUBCHEM_CACTVS_HBOND_DONOR>
0

> <PUBCHEM_CACTVS_ROTATABLE_BOND>
1

> <PUBCHEM_CACTVS_SUBSKEYS>
AAADcYBgIABgQAAAAAAAAAAAAAAAAAAAAAAAAAAAAAAAAAAAAAAAGgQAAAAACBSggAICAAAABAAEAAAAAAAAAAAAAAAAAAAAAAAAAAAAAAAAAAAAAAAAAAAAAAAAAAAAAAAAAAAAAAAAAAAAAAAAAAAAAA==

> <PUBCHEM_IUPAC_OPENEYE_NAME>
potassium isopropoxymethanedithioate

> <PUBCHEM_IUPAC_CAS_NAME>
potassium propan-2-yloxymethanedithioate

> <PUBCHEM_IUPAC_NAME>
potassium propan-2-yloxymethanedithioate

> <PUBCHEM_IUPAC_SYSTEMATIC_NAME>
potassium propan-2-yloxymethanedithioate

> <PUBCHEM_IUPAC_TRADITIONAL_NAME>
potassium isopropoxymethanedithioate

> <PUBCHEM_IUPAC_INCHI>
InChI=1S/C4H8OS2.K/c1-3(2)5-4(6)7;/h3H,1-2H3,(H,6,7);/q;+1/p-1

> <PUBCHEM_IUPAC_INCHIKEY>
ZMWBGRXFDPJFGC-UHFFFAOYSA-M

> <PUBCHEM_EXACT_MASS>
173.957539

> <PUBCHEM_MOLECULAR_FORMULA>
C4H7KOS2

> <PUBCHEM_MOLECULAR_WEIGHT>
174.32608

> <PUBCHEM_OPENEYE_CAN_SMILES>
CC(C)OC(=S)[S-].[K+]

> <PUBCHEM_OPENEYE_ISO_SMILES>
CC(C)OC(=S)[S-].[K+]

> <PUBCHEM_CACTVS_TPSA>
42.3

> <PUBCHEM_MONOISOTOPIC_WEIGHT>
173.957539

> <PUBCHEM_TOTAL_CHARGE>
0

> <PUBCHEM_HEAVY_ATOM_COUNT>
8

> <PUBCHEM_ATOM_DEF_STEREO_COUNT>
0

> <PUBCHEM_ATOM_UDEF_STEREO_COUNT>
0

> <PUBCHEM_BOND_DEF_STEREO_COUNT>
0

> <PUBCHEM_BOND_UDEF_STEREO_COUNT>
0

> <PUBCHEM_ISOTOPIC_ATOM_COUNT>
0

> <PUBCHEM_COMPONENT_COUNT>
2

> <PUBCHEM_CACTVS_TAUTO_COUNT>
1

> <PUBCHEM_COORDINATE_TYPE>
1
5
255

$$$$

