47205596
  -OEChem-06241222593D

 32 33  0     0  0  0  0  0  0999 V2000
   -4.1552    0.5777    1.1227 S   0  0  0  0  0  0  0  0  0  0  0  0
    4.1844   -1.8367    0.3006 O   0  0  0  0  0  0  0  0  0  0  0  0
   -0.9641    2.4566    0.8542 O   0  0  0  0  0  0  0  0  0  0  0  0
    1.6453    2.4673   -0.2557 O   0  0  0  0  0  0  0  0  0  0  0  0
   -1.2136    1.0215   -0.9872 N   0  0  0  0  0  0  0  0  0  0  0  0
    1.2753    0.1587    0.1254 N   0  0  0  0  0  0  0  0  0  0  0  0
    2.8019   -1.7041    0.3458 N   0  0  0  0  0  0  0  0  0  0  0  0
   -3.3580    0.0727   -0.3063 C   0  0  0  0  0  0  0  0  0  0  0  0
   -2.6472    1.0948   -1.1455 C   0  0  0  0  0  0  0  0  0  0  0  0
   -3.4786   -1.2839   -0.5136 C   0  0  0  0  0  0  0  0  0  0  0  0
   -4.2356   -1.9170    0.5142 C   0  0  0  0  0  0  0  0  0  0  0  0
   -2.8945   -2.0108   -1.6661 C   0  0  0  0  0  0  0  0  0  0  0  0
   -4.6646   -1.0203    1.4678 C   0  0  0  0  0  0  0  0  0  0  0  0
   -0.5326    1.7082   -0.0081 C   0  0  0  0  0  0  0  0  0  0  0  0
    2.5730   -0.4022    0.1518 C   0  0  0  0  0  0  0  0  0  0  0  0
    0.9485    1.4841   -0.0677 C   0  0  0  0  0  0  0  0  0  0  0  0
    3.7613    0.3287   -0.0201 C   0  0  0  0  0  0  0  0  0  0  0  0
    4.7445   -0.6195    0.0822 C   0  0  0  0  0  0  0  0  0  0  0  0
    6.2100   -0.5758    0.0054 C   0  0  0  0  0  0  0  0  0  0  0  0
   -2.8657    0.9259   -2.2056 H   0  0  0  0  0  0  0  0  0  0  0  0
   -2.9761    2.1124   -0.9046 H   0  0  0  0  0  0  0  0  0  0  0  0
   -4.4580   -2.9756    0.5584 H   0  0  0  0  0  0  0  0  0  0  0  0
   -0.6949    0.4294   -1.6297 H   0  0  0  0  0  0  0  0  0  0  0  0
   -3.2496   -1.5889   -2.6120 H   0  0  0  0  0  0  0  0  0  0  0  0
   -1.8014   -1.9494   -1.6469 H   0  0  0  0  0  0  0  0  0  0  0  0
   -3.1685   -3.0709   -1.6527 H   0  0  0  0  0  0  0  0  0  0  0  0
   -5.2527   -1.2272    2.3507 H   0  0  0  0  0  0  0  0  0  0  0  0
    0.5288   -0.5165    0.2709 H   0  0  0  0  0  0  0  0  0  0  0  0
    3.9106    1.3837   -0.1933 H   0  0  0  0  0  0  0  0  0  0  0  0
    6.6551   -0.9320    0.9396 H   0  0  0  0  0  0  0  0  0  0  0  0
    6.5716   -1.2083   -0.8112 H   0  0  0  0  0  0  0  0  0  0  0  0
    6.5662    0.4437   -0.1724 H   0  0  0  0  0  0  0  0  0  0  0  0
  1  8  1  0  0  0  0
  1 13  1  0  0  0  0
  2  7  1  0  0  0  0
  2 18  1  0  0  0  0
  3 14  2  0  0  0  0
  4 16  2  0  0  0  0
  5  9  1  0  0  0  0
  5 14  1  0  0  0  0
  5 23  1  0  0  0  0
  6 15  1  0  0  0  0
  6 16  1  0  0  0  0
  6 28  1  0  0  0  0
  7 15  2  0  0  0  0
  8  9  1  0  0  0  0
  8 10  2  0  0  0  0
  9 20  1  0  0  0  0
  9 21  1  0  0  0  0
 10 11  1  0  0  0  0
 10 12  1  0  0  0  0
 11 13  2  0  0  0  0
 11 22  1  0  0  0  0
 12 24  1  0  0  0  0
 12 25  1  0  0  0  0
 12 26  1  0  0  0  0
 13 27  1  0  0  0  0
 14 16  1  0  0  0  0
 15 17  1  0  0  0  0
 17 18  2  0  0  0  0
 17 29  1  0  0  0  0
 18 19  1  0  0  0  0
 19 30  1  0  0  0  0
 19 31  1  0  0  0  0
 19 32  1  0  0  0  0
M  END
> <PUBCHEM_COMPOUND_CID>
47205596

> <PUBCHEM_CONFORMER_RMSD>
0.8

> <PUBCHEM_CONFORMER_DIVERSEORDER>
1
51
58
50
7
56
62
19
52
23
45
48
64
40
21
31
13
46
57
8
29
36
18
34
53
39
20
11
10
59
3
38
55
16
17
61
2
43
63
30
12
60
5
32
41
27
28
25
33
15
6
42
47
37
49
22
24
54
9
26
4
44
14
35

> <PUBCHEM_MMFF94_PARTIAL_CHARGES>
24
1 -0.08
10 -0.18
11 -0.15
12 0.18
13 -0.11
14 0.63
15 0.35
16 0.63
17 -0.15
18 -0.04
19 0.18
2 -0.02
22 0.15
23 0.37
27 0.15
28 0.37
29 0.15
3 -0.57
4 -0.57
5 -0.73
6 -0.49
7 -0.41
8 -0.14
9 0.48

> <PUBCHEM_EFFECTIVE_ROTOR_COUNT>
6

> <PUBCHEM_PHARMACOPHORE_FEATURES>
6
1 3 acceptor
1 4 acceptor
1 5 donor
1 6 donor
5 1 8 10 11 13 rings
5 2 7 15 17 18 rings

> <PUBCHEM_HEAVY_ATOM_COUNT>
19

> <PUBCHEM_ATOM_DEF_STEREO_COUNT>
0

> <PUBCHEM_ATOM_UDEF_STEREO_COUNT>
0

> <PUBCHEM_BOND_DEF_STEREO_COUNT>
0

> <PUBCHEM_BOND_UDEF_STEREO_COUNT>
0

> <PUBCHEM_ISOTOPIC_ATOM_COUNT>
0

> <PUBCHEM_COMPONENT_COUNT>
1

> <PUBCHEM_CACTVS_TAUTO_COUNT>
16

> <PUBCHEM_CONFORMER_ID>
02D04CDC00000001

> <PUBCHEM_MMFF94_ENERGY>
17.6674

> <PUBCHEM_FEATURE_SELFOVERLAP>
30.452

> <PUBCHEM_SHAPE_FINGERPRINT>
11045515 52 17917430973154632724
11089746 13 10807930449835545662
11370993 144 16226042331703605342
11552529 35 16661505994843598815
12553582 1 18411147930258391786
12596602 18 17095525045880761643
12633257 1 16950556654393871107
13103583 49 17822560643190870075
13533116 47 18119249455380114435
13544653 18 18413673499845621981
13740256 8 18342173354155909400
14123255 352 7853852784742910882
14251732 17 8286207149600970328
14251764 30 16343122638372255281
15183329 4 9583528629213178880
15209289 33 18272084985633434075
15352361 1 18413108350979864195
15375462 189 18337107873974534045
15527383 91 18259701190259070865
15537594 2 18410852174716148446
17780758 139 18040715883128710619
1813 80 18272074007427844557
200 152 18201436999904062704
20261772 1 18259705583936923958
20281475 54 18339078190306184493
20291156 8 18410577275270570629
20603629 256 18116152160408745305
21033648 29 13985202394553450267
21095088 737 11167644478717879231
212916 134 16298928919576876683
21403212 168 18337943615477884681
221490 88 18271807891365161396
22950370 63 18410287012875077500
231179 274 6627757681764236340
23402539 116 18131072662383871858
235170 7 15770061643934886442
23559900 14 18341624693369401380
23566358 27 18127684925008678269
2838139 119 8646772166271345371
351380 3 18411981355967247826
3737641 26 18261948673873664798
4921388 177 16200144409459204849
5104073 3 18190469453480260402
5486654 36 18341322306829345115
7097593 13 18043808681005901649
83771 10 18412263917528336901
9862886 166 17203321174853292994

> <PUBCHEM_SHAPE_MULTIPOLES>
362.31
12.24
2.42
1.15
11.02
0.48
-0.11
-6.87
2.39
-0.64
-0.12
-1.68
-0.22
-0.4

> <PUBCHEM_SHAPE_SELFOVERLAP>
748.071

> <PUBCHEM_SHAPE_VOLUME>
208.9

> <PUBCHEM_COORDINATE_TYPE>
2
5
10

$$$$

