17395706
  -OEChem-06241222512D

 39 41  0     1  0  0  0  0  0999 V2000
    4.4865   -0.3100    0.0000 S   0  0  0  0  0  0  0  0  0  0  0  0
    4.9418    4.9147    0.0000 S   0  0  0  0  0  0  0  0  0  0  0  0
    5.6620    1.3080    0.0000 O   0  0  0  0  0  0  0  0  0  0  0  0
    4.2608    2.3261    0.0000 N   0  0  0  0  0  0  0  0  0  0  0  0
    2.5896   -2.0701    0.0000 N   0  0  0  0  0  0  0  0  0  0  0  0
    4.2077   -2.0701    0.0000 N   0  0  0  0  0  0  0  0  0  0  0  0
    2.8987   -1.1190    0.0000 N   0  0  0  0  0  0  0  0  0  0  0  0
    4.0797    0.6036    0.0000 C   0  0  3  0  0  0  0  0  0  0  0  0
    4.8486    3.1351    0.0000 C   0  0  0  0  0  0  0  0  0  0  0  0
    4.6675    1.4126    0.0000 C   0  0  0  0  0  0  0  0  0  0  0  0
    3.0852    0.7081    0.0000 C   0  0  0  0  0  0  0  0  0  0  0  0
    4.4418    4.0487    0.0000 C   0  0  0  0  0  0  0  0  0  0  0  0
    3.3987   -2.6578    0.0000 C   0  0  0  0  0  0  0  0  0  0  0  0
    3.8987   -1.1190    0.0000 C   0  0  0  0  0  0  0  0  0  0  0  0
    3.3987   -3.6578    0.0000 C   0  0  0  0  0  0  0  0  0  0  0  0
    3.4637    4.2566    0.0000 C   0  0  0  0  0  0  0  0  0  0  0  0
    2.5326   -4.1578    0.0000 C   0  0  0  0  0  0  0  0  0  0  0  0
    4.2647   -4.1578    0.0000 C   0  0  0  0  0  0  0  0  0  0  0  0
    3.3591    5.2511    0.0000 C   0  0  0  0  0  0  0  0  0  0  0  0
    4.2727    5.6578    0.0000 C   0  0  0  0  0  0  0  0  0  0  0  0
    2.5326   -5.1578    0.0000 C   0  0  0  0  0  0  0  0  0  0  0  0
    4.2647   -5.1578    0.0000 C   0  0  0  0  0  0  0  0  0  0  0  0
    3.3987   -5.6578    0.0000 C   0  0  0  0  0  0  0  0  0  0  0  0
    3.7153    0.1020    0.0000 H   0  0  0  0  0  0  0  0  0  0  0  0
    5.2792    2.6891    0.0000 H   0  0  0  0  0  0  0  0  0  0  0  0
    5.3626    3.4818    0.0000 H   0  0  0  0  0  0  0  0  0  0  0  0
    3.6442    2.3909    0.0000 H   0  0  0  0  0  0  0  0  0  0  0  0
    3.1500    1.3247    0.0000 H   0  0  0  0  0  0  0  0  0  0  0  0
    2.4686    0.7729    0.0000 H   0  0  0  0  0  0  0  0  0  0  0  0
    3.0204    0.0915    0.0000 H   0  0  0  0  0  0  0  0  0  0  0  0
    3.0029    3.8417    0.0000 H   0  0  0  0  0  0  0  0  0  0  0  0
    2.0000   -2.2616    0.0000 H   0  0  0  0  0  0  0  0  0  0  0  0
    1.9957   -3.8478    0.0000 H   0  0  0  0  0  0  0  0  0  0  0  0
    4.8016   -3.8478    0.0000 H   0  0  0  0  0  0  0  0  0  0  0  0
    2.8222    5.5611    0.0000 H   0  0  0  0  0  0  0  0  0  0  0  0
    4.4016    6.2643    0.0000 H   0  0  0  0  0  0  0  0  0  0  0  0
    1.9957   -5.4678    0.0000 H   0  0  0  0  0  0  0  0  0  0  0  0
    4.8016   -5.4678    0.0000 H   0  0  0  0  0  0  0  0  0  0  0  0
    3.3987   -6.2778    0.0000 H   0  0  0  0  0  0  0  0  0  0  0  0
  1  8  1  0  0  0  0
  1 14  1  0  0  0  0
  2 12  1  0  0  0  0
  2 20  1  0  0  0  0
  3 10  2  0  0  0  0
  4  9  1  0  0  0  0
  4 10  1  0  0  0  0
  4 27  1  0  0  0  0
  5  7  1  0  0  0  0
  5 13  1  0  0  0  0
  5 32  1  0  0  0  0
  6 13  2  0  0  0  0
  6 14  1  0  0  0  0
  7 14  2  0  0  0  0
  8 10  1  0  0  0  0
  8 11  1  0  0  0  0
  8 24  1  0  0  0  0
  9 12  1  0  0  0  0
  9 25  1  0  0  0  0
  9 26  1  0  0  0  0
 11 28  1  0  0  0  0
 11 29  1  0  0  0  0
 11 30  1  0  0  0  0
 12 16  2  0  0  0  0
 13 15  1  0  0  0  0
 15 17  2  0  0  0  0
 15 18  1  0  0  0  0
 16 19  1  0  0  0  0
 16 31  1  0  0  0  0
 17 21  1  0  0  0  0
 17 33  1  0  0  0  0
 18 22  2  0  0  0  0
 18 34  1  0  0  0  0
 19 20  2  0  0  0  0
 19 35  1  0  0  0  0
 20 36  1  0  0  0  0
 21 23  2  0  0  0  0
 21 37  1  0  0  0  0
 22 23  1  0  0  0  0
 22 38  1  0  0  0  0
 23 39  1  0  0  0  0
M  END
> <PUBCHEM_COMPOUND_CID>
17395706

> <PUBCHEM_COMPOUND_CANONICALIZED>
1

> <PUBCHEM_CACTVS_COMPLEXITY>
392

> <PUBCHEM_CACTVS_HBOND_ACCEPTOR>
5

> <PUBCHEM_CACTVS_HBOND_DONOR>
2

> <PUBCHEM_CACTVS_ROTATABLE_BOND>
6

> <PUBCHEM_CACTVS_SUBSKEYS>
AAADceB7oABgAAAAAAAAAAAAAAAAAWJAAAAwAAAAAAAAAAAB8AAAHgQYAAAADADF2wSzEYbrEAiuAiNyNACT0IvgCLBdqLkoBJiIKKKgmRGEIAhgngKoiAcQgAAOAAAAAAAAAAAAAAAAAAAAAAAAAAAAAA==

> <PUBCHEM_IUPAC_OPENEYE_NAME>
2-[(5-phenyl-1H-1,2,4-triazol-3-yl)sulfanyl]-N-(2-thienylmethyl)propanamide

> <PUBCHEM_IUPAC_CAS_NAME>
2-[(5-phenyl-1H-1,2,4-triazol-3-yl)thio]-N-(thiophen-2-ylmethyl)propanamide

> <PUBCHEM_IUPAC_NAME>
2-[(5-phenyl-1H-1,2,4-triazol-3-yl)sulfanyl]-N-(thiophen-2-ylmethyl)propanamide

> <PUBCHEM_IUPAC_SYSTEMATIC_NAME>
2-[(5-phenyl-1H-1,2,4-triazol-3-yl)sulfanyl]-N-(thiophen-2-ylmethyl)propanamide

> <PUBCHEM_IUPAC_TRADITIONAL_NAME>
2-[(5-phenyl-1H-1,2,4-triazol-3-yl)thio]-N-(2-thenyl)propionamide

> <PUBCHEM_IUPAC_INCHI>
InChI=1S/C16H16N4OS2/c1-11(15(21)17-10-13-8-5-9-22-13)23-16-18-14(19-20-16)12-6-3-2-4-7-12/h2-9,11H,10H2,1H3,(H,17,21)(H,18,19,20)

> <PUBCHEM_IUPAC_INCHIKEY>
SLVXDDLRSCAMAW-UHFFFAOYSA-N

> <PUBCHEM_XLOGP3_AA>
3.4

> <PUBCHEM_EXACT_MASS>
344.076553

> <PUBCHEM_MOLECULAR_FORMULA>
C16H16N4OS2

> <PUBCHEM_MOLECULAR_WEIGHT>
344.45444

> <PUBCHEM_OPENEYE_CAN_SMILES>
CC(C(=O)NCC1=CC=CS1)SC2=NNC(=N2)C3=CC=CC=C3

> <PUBCHEM_OPENEYE_ISO_SMILES>
CC(C(=O)NCC1=CC=CS1)SC2=NNC(=N2)C3=CC=CC=C3

> <PUBCHEM_CACTVS_TPSA>
124

> <PUBCHEM_MONOISOTOPIC_WEIGHT>
344.076553

> <PUBCHEM_TOTAL_CHARGE>
0

> <PUBCHEM_HEAVY_ATOM_COUNT>
23

> <PUBCHEM_ATOM_DEF_STEREO_COUNT>
0

> <PUBCHEM_ATOM_UDEF_STEREO_COUNT>
1

> <PUBCHEM_BOND_DEF_STEREO_COUNT>
0

> <PUBCHEM_BOND_UDEF_STEREO_COUNT>
0

> <PUBCHEM_ISOTOPIC_ATOM_COUNT>
0

> <PUBCHEM_COMPONENT_COUNT>
1

> <PUBCHEM_CACTVS_TAUTO_COUNT>
6

> <PUBCHEM_COORDINATE_TYPE>
1
5
255

> <PUBCHEM_BONDANNOTATIONS>
12  16  8
15  17  8
15  18  8
16  19  8
17  21  8
18  22  8
19  20  8
2  12  8
2  20  8
21  23  8
22  23  8
5  13  8
5  7  8
6  13  8
6  14  8
7  14  8
8  11  3

$$$$

