13761
  -OEChem-06241222402D

 45 45  0     1  0  0  0  0  0999 V2000
    2.0000   -1.2500    0.0000 F   0  0  0  0  0  0  0  0  0  0  0  0
    5.4641   -0.2500    0.0000 O   0  0  0  0  0  0  0  0  0  0  0  0
    5.4641    2.7500    0.0000 N   0  0  0  0  0  0  0  0  0  0  0  0
    3.7320   -0.2500    0.0000 N   0  0  0  0  0  0  0  0  0  0  0  0
    5.4641    1.7500    0.0000 C   0  0  3  0  0  0  0  0  0  0  0  0
    4.5981    1.2500    0.0000 C   0  0  0  0  0  0  0  0  0  0  0  0
    6.3301    3.2500    0.0000 C   0  0  0  0  0  0  0  0  0  0  0  0
    4.5981    3.2500    0.0000 C   0  0  0  0  0  0  0  0  0  0  0  0
    6.3301    1.2500    0.0000 C   0  0  0  0  0  0  0  0  0  0  0  0
    4.5981    0.2500    0.0000 C   0  0  0  0  0  0  0  0  0  0  0  0
    6.3301    4.2500    0.0000 C   0  0  0  0  0  0  0  0  0  0  0  0
    4.5981    4.2500    0.0000 C   0  0  0  0  0  0  0  0  0  0  0  0
    3.7320   -1.2500    0.0000 C   0  0  0  0  0  0  0  0  0  0  0  0
    4.5981   -2.7500    0.0000 C   0  0  0  0  0  0  0  0  0  0  0  0
    4.5981   -1.7500    0.0000 C   0  0  0  0  0  0  0  0  0  0  0  0
    2.8660   -1.7500    0.0000 C   0  0  0  0  0  0  0  0  0  0  0  0
    5.4641   -3.2500    0.0000 C   0  0  0  0  0  0  0  0  0  0  0  0
    3.7320   -3.2500    0.0000 C   0  0  0  0  0  0  0  0  0  0  0  0
    2.8660   -2.7500    0.0000 C   0  0  0  0  0  0  0  0  0  0  0  0
    5.4641   -4.2500    0.0000 C   0  0  0  0  0  0  0  0  0  0  0  0
    6.0010    2.0600    0.0000 H   0  0  0  0  0  0  0  0  0  0  0  0
    4.3860    1.8326    0.0000 H   0  0  0  0  0  0  0  0  0  0  0  0
    3.9875    1.1423    0.0000 H   0  0  0  0  0  0  0  0  0  0  0  0
    3.9875    3.3577    0.0000 H   0  0  0  0  0  0  0  0  0  0  0  0
    6.5422    2.6674    0.0000 H   0  0  0  0  0  0  0  0  0  0  0  0
    6.9407    3.3577    0.0000 H   0  0  0  0  0  0  0  0  0  0  0  0
    4.3860    2.6674    0.0000 H   0  0  0  0  0  0  0  0  0  0  0  0
    6.0201    0.7131    0.0000 H   0  0  0  0  0  0  0  0  0  0  0  0
    6.8671    0.9400    0.0000 H   0  0  0  0  0  0  0  0  0  0  0  0
    6.6401    1.7869    0.0000 H   0  0  0  0  0  0  0  0  0  0  0  0
    5.2181    4.2500    0.0000 H   0  0  0  0  0  0  0  0  0  0  0  0
    4.5981    4.8700    0.0000 H   0  0  0  0  0  0  0  0  0  0  0  0
    3.9781    4.2500    0.0000 H   0  0  0  0  0  0  0  0  0  0  0  0
    6.9501    4.2500    0.0000 H   0  0  0  0  0  0  0  0  0  0  0  0
    6.3301    4.8700    0.0000 H   0  0  0  0  0  0  0  0  0  0  0  0
    5.7101    4.2500    0.0000 H   0  0  0  0  0  0  0  0  0  0  0  0
    3.1951    0.0600    0.0000 H   0  0  0  0  0  0  0  0  0  0  0  0
    5.1350   -1.4400    0.0000 H   0  0  0  0  0  0  0  0  0  0  0  0
    6.0747   -3.3577    0.0000 H   0  0  0  0  0  0  0  0  0  0  0  0
    5.6762   -2.6674    0.0000 H   0  0  0  0  0  0  0  0  0  0  0  0
    3.7320   -3.8700    0.0000 H   0  0  0  0  0  0  0  0  0  0  0  0
    2.3291   -3.0600    0.0000 H   0  0  0  0  0  0  0  0  0  0  0  0
    4.8441   -4.2500    0.0000 H   0  0  0  0  0  0  0  0  0  0  0  0
    5.4641   -4.8700    0.0000 H   0  0  0  0  0  0  0  0  0  0  0  0
    6.0841   -4.2500    0.0000 H   0  0  0  0  0  0  0  0  0  0  0  0
  1 16  1  0  0  0  0
  2 10  2  0  0  0  0
  3  5  1  0  0  0  0
  3  7  1  0  0  0  0
  3  8  1  0  0  0  0
  4 10  1  0  0  0  0
  4 13  1  0  0  0  0
  4 37  1  0  0  0  0
  5  6  1  0  0  0  0
  5  9  1  0  0  0  0
  5 21  1  0  0  0  0
  6 10  1  0  0  0  0
  6 22  1  0  0  0  0
  6 23  1  0  0  0  0
  7 11  1  0  0  0  0
  7 25  1  0  0  0  0
  7 26  1  0  0  0  0
  8 12  1  0  0  0  0
  8 24  1  0  0  0  0
  8 27  1  0  0  0  0
  9 28  1  0  0  0  0
  9 29  1  0  0  0  0
  9 30  1  0  0  0  0
 11 34  1  0  0  0  0
 11 35  1  0  0  0  0
 11 36  1  0  0  0  0
 12 31  1  0  0  0  0
 12 32  1  0  0  0  0
 12 33  1  0  0  0  0
 13 15  1  0  0  0  0
 13 16  2  0  0  0  0
 14 15  2  0  0  0  0
 14 17  1  0  0  0  0
 14 18  1  0  0  0  0
 15 38  1  0  0  0  0
 16 19  1  0  0  0  0
 17 20  1  0  0  0  0
 17 39  1  0  0  0  0
 17 40  1  0  0  0  0
 18 19  2  0  0  0  0
 18 41  1  0  0  0  0
 19 42  1  0  0  0  0
 20 43  1  0  0  0  0
 20 44  1  0  0  0  0
 20 45  1  0  0  0  0
M  END
> <PUBCHEM_COMPOUND_CID>
13761

> <PUBCHEM_COMPOUND_CANONICALIZED>
1

> <PUBCHEM_CACTVS_COMPLEXITY>
294

> <PUBCHEM_CACTVS_HBOND_ACCEPTOR>
3

> <PUBCHEM_CACTVS_HBOND_DONOR>
1

> <PUBCHEM_CACTVS_ROTATABLE_BOND>
7

> <PUBCHEM_CACTVS_SUBSKEYS>
AAADceB7IQAAAAAAAAAAAAAAAAAAAAAAAAAwAAAAAAAAAAABAAAAHwAQAAAADCjBmAwywIPAAACIAiVSUACCAAAhAgAIiAEIZIgIIDrA0ZGEIAhglADIyAcQgIAOAAAAQAAAAAAAAACAAAAAAAAAAAAAAA==

> <PUBCHEM_IUPAC_OPENEYE_NAME>
3-(diethylamino)-N-(5-ethyl-2-fluoro-phenyl)butanamide

> <PUBCHEM_IUPAC_CAS_NAME>
3-(diethylamino)-N-(5-ethyl-2-fluorophenyl)butanamide

> <PUBCHEM_IUPAC_NAME>
3-(diethylamino)-N-(5-ethyl-2-fluorophenyl)butanamide

> <PUBCHEM_IUPAC_SYSTEMATIC_NAME>
3-(diethylamino)-N-(5-ethyl-2-fluoranyl-phenyl)butanamide

> <PUBCHEM_IUPAC_TRADITIONAL_NAME>
3-(diethylamino)-N-(5-ethyl-2-fluoro-phenyl)butyramide

> <PUBCHEM_IUPAC_INCHI>
InChI=1S/C16H25FN2O/c1-5-13-8-9-14(17)15(11-13)18-16(20)10-12(4)19(6-2)7-3/h8-9,11-12H,5-7,10H2,1-4H3,(H,18,20)

> <PUBCHEM_IUPAC_INCHIKEY>
QIHSCMBOVQLWIW-UHFFFAOYSA-N

> <PUBCHEM_XLOGP3_AA>
3.1

> <PUBCHEM_EXACT_MASS>
280.195092

> <PUBCHEM_MOLECULAR_FORMULA>
C16H25FN2O

> <PUBCHEM_MOLECULAR_WEIGHT>
280.380903

> <PUBCHEM_OPENEYE_CAN_SMILES>
CCC1=CC(=C(C=C1)F)NC(=O)CC(C)N(CC)CC

> <PUBCHEM_OPENEYE_ISO_SMILES>
CCC1=CC(=C(C=C1)F)NC(=O)CC(C)N(CC)CC

> <PUBCHEM_CACTVS_TPSA>
32.3

> <PUBCHEM_MONOISOTOPIC_WEIGHT>
280.195092

> <PUBCHEM_TOTAL_CHARGE>
0

> <PUBCHEM_HEAVY_ATOM_COUNT>
20

> <PUBCHEM_ATOM_DEF_STEREO_COUNT>
0

> <PUBCHEM_ATOM_UDEF_STEREO_COUNT>
1

> <PUBCHEM_BOND_DEF_STEREO_COUNT>
0

> <PUBCHEM_BOND_UDEF_STEREO_COUNT>
0

> <PUBCHEM_ISOTOPIC_ATOM_COUNT>
0

> <PUBCHEM_COMPONENT_COUNT>
1

> <PUBCHEM_CACTVS_TAUTO_COUNT>
3

> <PUBCHEM_COORDINATE_TYPE>
1
5
255

> <PUBCHEM_BONDANNOTATIONS>
13  15  8
13  16  8
14  15  8
14  18  8
16  19  8
18  19  8
5  9  3

$$$$

