9854
  -OEChem-06261204083D

 22 21  0     0  0  0  0  0  0999 V2000
   -3.9157   -1.1540    0.4011 F   0  0  0  0  0  0  0  0  0  0  0  0
   -0.1072    0.7464    0.1393 C   0  0  0  0  0  0  0  0  0  0  0  0
   -1.3597   -0.0315   -0.2696 C   0  0  0  0  0  0  0  0  0  0  0  0
    1.1634   -0.0672   -0.1292 C   0  0  0  0  0  0  0  0  0  0  0  0
   -2.6289    0.7634    0.0274 C   0  0  0  0  0  0  0  0  0  0  0  0
    2.4384    0.6650    0.2931 C   0  0  0  0  0  0  0  0  0  0  0  0
   -3.8786   -0.0154   -0.3419 C   0  0  0  0  0  0  0  0  0  0  0  0
    3.6485   -0.1305    0.0422 C   0  0  0  0  0  0  0  0  0  0  0  0
    4.6397   -0.7763   -0.1624 C   0  0  0  0  0  0  0  0  0  0  0  0
   -0.0614    1.6920   -0.4143 H   0  0  0  0  0  0  0  0  0  0  0  0
   -0.1605    0.9968    1.2057 H   0  0  0  0  0  0  0  0  0  0  0  0
   -1.3142   -0.2667   -1.3399 H   0  0  0  0  0  0  0  0  0  0  0  0
   -1.3878   -0.9864    0.2693 H   0  0  0  0  0  0  0  0  0  0  0  0
    1.2192   -0.3114   -1.1980 H   0  0  0  0  0  0  0  0  0  0  0  0
    1.1010   -1.0243    0.4049 H   0  0  0  0  0  0  0  0  0  0  0  0
   -2.6147    1.7115   -0.5220 H   0  0  0  0  0  0  0  0  0  0  0  0
   -2.6623    0.9994    1.0976 H   0  0  0  0  0  0  0  0  0  0  0  0
    2.5104    1.6157   -0.2484 H   0  0  0  0  0  0  0  0  0  0  0  0
    2.3825    0.9112    1.3601 H   0  0  0  0  0  0  0  0  0  0  0  0
   -4.7806    0.5618   -0.1207 H   0  0  0  0  0  0  0  0  0  0  0  0
   -3.8855   -0.2964   -1.3989 H   0  0  0  0  0  0  0  0  0  0  0  0
    5.5189   -1.3492   -0.3439 H   0  0  0  0  0  0  0  0  0  0  0  0
  1  7  1  0  0  0  0
  2  3  1  0  0  0  0
  2  4  1  0  0  0  0
  2 10  1  0  0  0  0
  2 11  1  0  0  0  0
  3  5  1  0  0  0  0
  3 12  1  0  0  0  0
  3 13  1  0  0  0  0
  4  6  1  0  0  0  0
  4 14  1  0  0  0  0
  4 15  1  0  0  0  0
  5  7  1  0  0  0  0
  5 16  1  0  0  0  0
  5 17  1  0  0  0  0
  6  8  1  0  0  0  0
  6 18  1  0  0  0  0
  6 19  1  0  0  0  0
  7 20  1  0  0  0  0
  7 21  1  0  0  0  0
  8  9  3  0  0  0  0
  9 22  1  0  0  0  0
M  END
> <PUBCHEM_COMPOUND_CID>
9854

> <PUBCHEM_CONFORMER_RMSD>
0.6

> <PUBCHEM_CONFORMER_DIVERSEORDER>
2
74
18
68
8
51
75
47
1
69
65
21
3
70
40
6
60
72
27
67
34
71
15
58
10
64
19
32
38
12
26
49
73
35
61
31
16
59
23
43
46
20
45
30
41
29
4
50
52
66
7
42
5
54
39
48
14
28
9
55
17
33
22
24
53
11
57
56
37
13
25
36
62
44
63

> <PUBCHEM_MMFF94_PARTIAL_CHARGES>
6
1 -0.34
22 0.18
6 0.2
7 0.34
8 -0.2
9 -0.18

> <PUBCHEM_EFFECTIVE_ROTOR_COUNT>
5

> <PUBCHEM_PHARMACOPHORE_FEATURES>
3
1 9 hydrophobe
3 2 3 5 hydrophobe
3 4 6 8 hydrophobe

> <PUBCHEM_HEAVY_ATOM_COUNT>
9

> <PUBCHEM_ATOM_DEF_STEREO_COUNT>
0

> <PUBCHEM_ATOM_UDEF_STEREO_COUNT>
0

> <PUBCHEM_BOND_DEF_STEREO_COUNT>
0

> <PUBCHEM_BOND_UDEF_STEREO_COUNT>
0

> <PUBCHEM_ISOTOPIC_ATOM_COUNT>
0

> <PUBCHEM_COMPONENT_COUNT>
1

> <PUBCHEM_CACTVS_TAUTO_COUNT>
1

> <PUBCHEM_CONFORMER_ID>
0000267E00000002

> <PUBCHEM_MMFF94_ENERGY>
-0.2552

> <PUBCHEM_FEATURE_SELFOVERLAP>
15.252

> <PUBCHEM_SHAPE_FINGERPRINT>
11062470 55 9511460030762020164
11987891 38 18411980290857536874
12032990 46 18409165506529991504
12932764 1 17060353902412266780
14123238 8 17458628904283025932
14252887 29 17240479247855437438
14325111 11 18409450284336637224
177051 138 18411138017452468288
17834072 33 18272646801915773900
17834074 16 18409164424262004262
17834076 25 13902190400111061661
18342897 14 6771862974552057274
190213 19 18410296912627164072
1986462 14 18343021124686333997
20211469 26 18408042913911529577
20719005 15 18335421274671741478
20767249 213 6844207532909420699
21119208 17 16559031592707065838
21293036 1 15410894067814700140
22485316 2 18272938232178185986
23402655 69 12535350099379516354
42 15 18113054952233000076

> <PUBCHEM_SHAPE_MULTIPOLES>
177.94
9.36
0.95
0.65
1.52
0.04
0.01
2.74
0.04
-0.2
-0.07
-0.06
0.01
0.26

> <PUBCHEM_SHAPE_SELFOVERLAP>
318.35

> <PUBCHEM_SHAPE_VOLUME>
114.5

> <PUBCHEM_COORDINATE_TYPE>
2
5
10

$$$$

