51090994
  -OEChem-06241223012D

 53 55  0     0  0  0  0  0  0999 V2000
    6.0531   -0.4606    0.0000 O   0  0  0  0  0  0  0  0  0  0  0  0
    6.4103   -3.7649    0.0000 O   0  0  0  0  0  0  0  0  0  0  0  0
    2.8660   -1.9602    0.0000 O   0  0  0  0  0  0  0  0  0  0  0  0
    8.6315    1.8529    0.0000 N   0  0  0  0  0  0  0  0  0  0  0  0
    7.6995   -0.9987    0.0000 N   0  0  0  0  0  0  0  0  0  0  0  0
    8.0102   -0.0482    0.0000 C   0  0  0  0  0  0  0  0  0  0  0  0
    7.3423    0.6961    0.0000 C   0  0  0  0  0  0  0  0  0  0  0  0
    8.9887    0.1581    0.0000 C   0  0  0  0  0  0  0  0  0  0  0  0
    7.6530    1.6467    0.0000 C   0  0  0  0  0  0  0  0  0  0  0  0
    9.2993    1.1086    0.0000 C   0  0  0  0  0  0  0  0  0  0  0  0
    8.9421    2.8034    0.0000 C   0  0  0  0  0  0  0  0  0  0  0  0
    9.9206    3.0096    0.0000 C   0  0  0  0  0  0  0  0  0  0  0  0
    6.7210   -1.2049    0.0000 C   0  0  0  0  0  0  0  0  0  0  0  0
    8.3673   -1.7430    0.0000 C   0  0  0  0  0  0  0  0  0  0  0  0
    6.4103   -2.1554    0.0000 C   0  0  0  0  0  0  0  0  0  0  0  0
   10.2313    3.9602    0.0000 C   0  0  0  0  0  0  0  0  0  0  0  0
    5.4641   -2.4602    0.0000 C   0  0  0  0  0  0  0  0  0  0  0  0
    6.9939   -2.9602    0.0000 C   0  0  0  0  0  0  0  0  0  0  0  0
    5.4641   -3.4602    0.0000 C   0  0  0  0  0  0  0  0  0  0  0  0
    4.5981   -1.9602    0.0000 C   0  0  0  0  0  0  0  0  0  0  0  0
    7.9939   -2.9602    0.0000 C   0  0  0  0  0  0  0  0  0  0  0  0
    4.5981   -3.9602    0.0000 C   0  0  0  0  0  0  0  0  0  0  0  0
    3.7320   -2.4602    0.0000 C   0  0  0  0  0  0  0  0  0  0  0  0
    3.7320   -3.4602    0.0000 C   0  0  0  0  0  0  0  0  0  0  0  0
    2.0000   -2.4602    0.0000 C   0  0  0  0  0  0  0  0  0  0  0  0
    7.4035   -0.1760    0.0000 H   0  0  0  0  0  0  0  0  0  0  0  0
    6.7954    0.9882    0.0000 H   0  0  0  0  0  0  0  0  0  0  0  0
    6.9598    0.2082    0.0000 H   0  0  0  0  0  0  0  0  0  0  0  0
    9.0092   -0.4616    0.0000 H   0  0  0  0  0  0  0  0  0  0  0  0
    9.6025    0.0707    0.0000 H   0  0  0  0  0  0  0  0  0  0  0  0
    9.8462    0.8166    0.0000 H   0  0  0  0  0  0  0  0  0  0  0  0
    9.6819    1.5965    0.0000 H   0  0  0  0  0  0  0  0  0  0  0  0
    7.6324    2.2663    0.0000 H   0  0  0  0  0  0  0  0  0  0  0  0
    7.0392    1.7340    0.0000 H   0  0  0  0  0  0  0  0  0  0  0  0
    8.9216    3.4231    0.0000 H   0  0  0  0  0  0  0  0  0  0  0  0
    8.3283    2.8908    0.0000 H   0  0  0  0  0  0  0  0  0  0  0  0
    9.9412    2.3900    0.0000 H   0  0  0  0  0  0  0  0  0  0  0  0
   10.5345    2.9223    0.0000 H   0  0  0  0  0  0  0  0  0  0  0  0
    7.9059   -2.1570    0.0000 H   0  0  0  0  0  0  0  0  0  0  0  0
    8.7814   -2.2044    0.0000 H   0  0  0  0  0  0  0  0  0  0  0  0
    8.8288   -1.3289    0.0000 H   0  0  0  0  0  0  0  0  0  0  0  0
   10.8206    3.7675    0.0000 H   0  0  0  0  0  0  0  0  0  0  0  0
   10.4239    4.5495    0.0000 H   0  0  0  0  0  0  0  0  0  0  0  0
    9.6420    4.1528    0.0000 H   0  0  0  0  0  0  0  0  0  0  0  0
    4.5981   -1.3402    0.0000 H   0  0  0  0  0  0  0  0  0  0  0  0
    7.9939   -3.5802    0.0000 H   0  0  0  0  0  0  0  0  0  0  0  0
    8.6139   -2.9602    0.0000 H   0  0  0  0  0  0  0  0  0  0  0  0
    7.9939   -2.3402    0.0000 H   0  0  0  0  0  0  0  0  0  0  0  0
    4.5981   -4.5802    0.0000 H   0  0  0  0  0  0  0  0  0  0  0  0
    3.1951   -3.7702    0.0000 H   0  0  0  0  0  0  0  0  0  0  0  0
    1.6900   -1.9232    0.0000 H   0  0  0  0  0  0  0  0  0  0  0  0
    1.4631   -2.7702    0.0000 H   0  0  0  0  0  0  0  0  0  0  0  0
    2.3100   -2.9971    0.0000 H   0  0  0  0  0  0  0  0  0  0  0  0
  1 13  2  0  0  0  0
  2 18  1  0  0  0  0
  2 19  1  0  0  0  0
  3 23  1  0  0  0  0
  3 25  1  0  0  0  0
  4  9  1  0  0  0  0
  4 10  1  0  0  0  0
  4 11  1  0  0  0  0
  5  6  1  0  0  0  0
  5 13  1  0  0  0  0
  5 14  1  0  0  0  0
  6  7  1  0  0  0  0
  6  8  1  0  0  0  0
  6 26  1  0  0  0  0
  7  9  1  0  0  0  0
  7 27  1  0  0  0  0
  7 28  1  0  0  0  0
  8 10  1  0  0  0  0
  8 29  1  0  0  0  0
  8 30  1  0  0  0  0
  9 33  1  0  0  0  0
  9 34  1  0  0  0  0
 10 31  1  0  0  0  0
 10 32  1  0  0  0  0
 11 12  1  0  0  0  0
 11 35  1  0  0  0  0
 11 36  1  0  0  0  0
 12 16  1  0  0  0  0
 12 37  1  0  0  0  0
 12 38  1  0  0  0  0
 13 15  1  0  0  0  0
 14 39  1  0  0  0  0
 14 40  1  0  0  0  0
 14 41  1  0  0  0  0
 15 17  1  0  0  0  0
 15 18  2  0  0  0  0
 16 42  1  0  0  0  0
 16 43  1  0  0  0  0
 16 44  1  0  0  0  0
 17 19  2  0  0  0  0
 17 20  1  0  0  0  0
 18 21  1  0  0  0  0
 19 22  1  0  0  0  0
 20 23  2  0  0  0  0
 20 45  1  0  0  0  0
 21 46  1  0  0  0  0
 21 47  1  0  0  0  0
 21 48  1  0  0  0  0
 22 24  2  0  0  0  0
 22 49  1  0  0  0  0
 23 24  1  0  0  0  0
 24 50  1  0  0  0  0
 25 51  1  0  0  0  0
 25 52  1  0  0  0  0
 25 53  1  0  0  0  0
M  END
> <PUBCHEM_COMPOUND_CID>
51090994

> <PUBCHEM_COMPOUND_CANONICALIZED>
1

> <PUBCHEM_CACTVS_COMPLEXITY>
450

> <PUBCHEM_CACTVS_HBOND_ACCEPTOR>
4

> <PUBCHEM_CACTVS_HBOND_DONOR>
0

> <PUBCHEM_CACTVS_ROTATABLE_BOND>
5

> <PUBCHEM_CACTVS_SUBSKEYS>
AAADceB7MAAAAAAAAAAAAAAAAAAAASAAAAA8QAAAAAAAAEgB8AAAHgAAAAAADCzBmAYyBsMABECIAqFSEACCCAAkIAAIiAEODMgMJj6M9RuGOWjm5hGIqYf//P7OgQABAAAIAAACAAIAABAAAAAAAAAAAA==

> <PUBCHEM_IUPAC_OPENEYE_NAME>
5-methoxy-N,2-dimethyl-N-(1-propyl-4-piperidyl)benzofuran-3-carboxamide

> <PUBCHEM_IUPAC_CAS_NAME>
5-methoxy-N,2-dimethyl-N-(1-propyl-4-piperidinyl)-3-benzofurancarboxamide

> <PUBCHEM_IUPAC_NAME>
5-methoxy-N,2-dimethyl-N-(1-propylpiperidin-4-yl)-1-benzofuran-3-carboxamide

> <PUBCHEM_IUPAC_SYSTEMATIC_NAME>
5-methoxy-N,2-dimethyl-N-(1-propylpiperidin-4-yl)-1-benzofuran-3-carboxamide

> <PUBCHEM_IUPAC_TRADITIONAL_NAME>
5-methoxy-N,2-dimethyl-N-(1-propyl-4-piperidyl)benzofuran-3-carboxamide

> <PUBCHEM_IUPAC_INCHI>
InChI=1S/C20H28N2O3/c1-5-10-22-11-8-15(9-12-22)21(3)20(23)19-14(2)25-18-7-6-16(24-4)13-17(18)19/h6-7,13,15H,5,8-12H2,1-4H3

> <PUBCHEM_IUPAC_INCHIKEY>
RFQRMULCBWPVGQ-UHFFFAOYSA-N

> <PUBCHEM_XLOGP3_AA>
3.6

> <PUBCHEM_EXACT_MASS>
344.209993

> <PUBCHEM_MOLECULAR_FORMULA>
C20H28N2O3

> <PUBCHEM_MOLECULAR_WEIGHT>
344.44792

> <PUBCHEM_OPENEYE_CAN_SMILES>
CCCN1CCC(CC1)N(C)C(=O)C2=C(OC3=C2C=C(C=C3)OC)C

> <PUBCHEM_OPENEYE_ISO_SMILES>
CCCN1CCC(CC1)N(C)C(=O)C2=C(OC3=C2C=C(C=C3)OC)C

> <PUBCHEM_CACTVS_TPSA>
45.9

> <PUBCHEM_MONOISOTOPIC_WEIGHT>
344.209993

> <PUBCHEM_TOTAL_CHARGE>
0

> <PUBCHEM_HEAVY_ATOM_COUNT>
25

> <PUBCHEM_ATOM_DEF_STEREO_COUNT>
0

> <PUBCHEM_ATOM_UDEF_STEREO_COUNT>
0

> <PUBCHEM_BOND_DEF_STEREO_COUNT>
0

> <PUBCHEM_BOND_UDEF_STEREO_COUNT>
0

> <PUBCHEM_ISOTOPIC_ATOM_COUNT>
0

> <PUBCHEM_COMPONENT_COUNT>
1

> <PUBCHEM_CACTVS_TAUTO_COUNT>
1

> <PUBCHEM_COORDINATE_TYPE>
1
5
255

> <PUBCHEM_BONDANNOTATIONS>
15  17  8
15  18  8
17  19  8
17  20  8
19  22  8
2  18  8
2  19  8
20  23  8
22  24  8
23  24  8

$$$$

