47205657
  -OEChem-06241222593D

 39 39  0     0  0  0  0  0  0999 V2000
    4.7341    2.0731   -0.5661 O   0  0  0  0  0  0  0  0  0  0  0  0
   -2.7726    0.9035   -1.1032 O   0  0  0  0  0  0  0  0  0  0  0  0
   -1.0787   -1.1414    1.3408 O   0  0  0  0  0  0  0  0  0  0  0  0
    0.2265   -2.3600   -0.1468 N   0  0  0  0  0  0  0  0  0  0  0  0
   -3.2341   -1.2130   -0.2687 N   0  0  0  0  0  0  0  0  0  0  0  0
    1.4472   -2.3674    0.6273 C   0  0  0  0  0  0  0  0  0  0  0  0
   -4.8233    0.5465    0.1332 C   0  0  0  0  0  0  0  0  0  0  0  0
    2.3207   -1.1882    0.3102 C   0  0  0  0  0  0  0  0  0  0  0  0
   -5.1360    2.0223   -0.0957 C   0  0  0  0  0  0  0  0  0  0  0  0
   -2.0360   -1.8505   -0.7610 C   0  0  0  0  0  0  0  0  0  0  0  0
   -3.5015    0.1308   -0.4869 C   0  0  0  0  0  0  0  0  0  0  0  0
   -0.9411   -1.7432    0.2788 C   0  0  0  0  0  0  0  0  0  0  0  0
    3.0506   -1.1598   -0.8782 C   0  0  0  0  0  0  0  0  0  0  0  0
    2.4019   -0.1205    1.2040 C   0  0  0  0  0  0  0  0  0  0  0  0
   -6.4466    2.4231    0.5613 C   0  0  0  0  0  0  0  0  0  0  0  0
    3.8619   -0.0641   -1.1726 C   0  0  0  0  0  0  0  0  0  0  0  0
    3.2132    0.9754    0.9099 C   0  0  0  0  0  0  0  0  0  0  0  0
    3.9431    1.0036   -0.2784 C   0  0  0  0  0  0  0  0  0  0  0  0
    4.7706    3.1299    0.3922 C   0  0  0  0  0  0  0  0  0  0  0  0
    1.1955   -2.3921    1.6940 H   0  0  0  0  0  0  0  0  0  0  0  0
    1.9784   -3.2990    0.4014 H   0  0  0  0  0  0  0  0  0  0  0  0
   -5.6164   -0.0759   -0.2982 H   0  0  0  0  0  0  0  0  0  0  0  0
   -4.7765    0.3360    1.2085 H   0  0  0  0  0  0  0  0  0  0  0  0
   -5.1903    2.2302   -1.1710 H   0  0  0  0  0  0  0  0  0  0  0  0
   -4.3266    2.6433    0.3066 H   0  0  0  0  0  0  0  0  0  0  0  0
   -2.2659   -2.9039   -0.9459 H   0  0  0  0  0  0  0  0  0  0  0  0
   -1.7095   -1.3736   -1.6905 H   0  0  0  0  0  0  0  0  0  0  0  0
    0.2429   -2.8120   -1.0567 H   0  0  0  0  0  0  0  0  0  0  0  0
   -3.8889   -1.7733    0.2693 H   0  0  0  0  0  0  0  0  0  0  0  0
    2.9951   -1.9859   -1.5823 H   0  0  0  0  0  0  0  0  0  0  0  0
    1.8369   -0.1294    2.1324 H   0  0  0  0  0  0  0  0  0  0  0  0
   -6.4088    2.2613    1.6433 H   0  0  0  0  0  0  0  0  0  0  0  0
   -6.6511    3.4835    0.3835 H   0  0  0  0  0  0  0  0  0  0  0  0
   -7.2820    1.8433    0.1558 H   0  0  0  0  0  0  0  0  0  0  0  0
    4.4280   -0.0476   -2.0998 H   0  0  0  0  0  0  0  0  0  0  0  0
    3.2294    1.7701    1.6478 H   0  0  0  0  0  0  0  0  0  0  0  0
    5.4483    3.8964    0.0022 H   0  0  0  0  0  0  0  0  0  0  0  0
    5.1858    2.7923    1.3479 H   0  0  0  0  0  0  0  0  0  0  0  0
    3.7887    3.6009    0.5092 H   0  0  0  0  0  0  0  0  0  0  0  0
  1 18  1  0  0  0  0
  1 19  1  0  0  0  0
  2 11  2  0  0  0  0
  3 12  2  0  0  0  0
  4  6  1  0  0  0  0
  4 12  1  0  0  0  0
  4 28  1  0  0  0  0
  5 10  1  0  0  0  0
  5 11  1  0  0  0  0
  5 29  1  0  0  0  0
  6  8  1  0  0  0  0
  6 20  1  0  0  0  0
  6 21  1  0  0  0  0
  7  9  1  0  0  0  0
  7 11  1  0  0  0  0
  7 22  1  0  0  0  0
  7 23  1  0  0  0  0
  8 13  2  0  0  0  0
  8 14  1  0  0  0  0
  9 15  1  0  0  0  0
  9 24  1  0  0  0  0
  9 25  1  0  0  0  0
 10 12  1  0  0  0  0
 10 26  1  0  0  0  0
 10 27  1  0  0  0  0
 13 16  1  0  0  0  0
 13 30  1  0  0  0  0
 14 17  2  0  0  0  0
 14 31  1  0  0  0  0
 15 32  1  0  0  0  0
 15 33  1  0  0  0  0
 15 34  1  0  0  0  0
 16 18  2  0  0  0  0
 16 35  1  0  0  0  0
 17 18  1  0  0  0  0
 17 36  1  0  0  0  0
 19 37  1  0  0  0  0
 19 38  1  0  0  0  0
 19 39  1  0  0  0  0
M  END
> <PUBCHEM_COMPOUND_CID>
47205657

> <PUBCHEM_CONFORMER_RMSD>
1

> <PUBCHEM_CONFORMER_DIVERSEORDER>
1
44
51
40
82
81
21
57
76
79
14
3
48
11
58
10
60
9
20
27
80
16
74
73
34
70
6
49
65
61
33
29
84
17
50
32
13
68
19
38
64
26
25
78
28
43
41
31
18
67
23
69
35
71
12
5
83
46
72
75
4
66
45
7
15
63
39
59
42
55
56
2
54
8
47
30
36
77
52
53
37
62
22
24

> <PUBCHEM_MMFF94_PARTIAL_CHARGES>
23
1 -0.36
10 0.36
11 0.57
12 0.57
13 -0.15
14 -0.15
16 -0.15
17 -0.15
18 0.08
19 0.28
2 -0.57
28 0.37
29 0.37
3 -0.57
30 0.15
31 0.15
35 0.15
36 0.15
4 -0.73
5 -0.73
6 0.44
7 0.06
8 -0.14

> <PUBCHEM_EFFECTIVE_ROTOR_COUNT>
9

> <PUBCHEM_PHARMACOPHORE_FEATURES>
7
1 1 acceptor
1 15 hydrophobe
1 2 acceptor
1 3 acceptor
1 4 donor
1 5 donor
6 8 13 14 16 17 18 rings

> <PUBCHEM_HEAVY_ATOM_COUNT>
19

> <PUBCHEM_ATOM_DEF_STEREO_COUNT>
0

> <PUBCHEM_ATOM_UDEF_STEREO_COUNT>
0

> <PUBCHEM_BOND_DEF_STEREO_COUNT>
0

> <PUBCHEM_BOND_UDEF_STEREO_COUNT>
0

> <PUBCHEM_ISOTOPIC_ATOM_COUNT>
0

> <PUBCHEM_COMPONENT_COUNT>
1

> <PUBCHEM_CACTVS_TAUTO_COUNT>
4

> <PUBCHEM_CONFORMER_ID>
02D04D1900000001

> <PUBCHEM_MMFF94_ENERGY>
39.6231

> <PUBCHEM_FEATURE_SELFOVERLAP>
35.52

> <PUBCHEM_SHAPE_FINGERPRINT>
10498660 4 18410292488821294784
11720765 8 17897154935583012702
12363563 72 8358261474789334926
12633257 1 15769771304066035951
12788726 201 17458621280685025577
12892183 10 12175626152954122958
13103583 49 11383297251976922638
13878862 14 17913230903387079277
13955234 65 17986110927495988971
1420 369 9871741408440520125
14251740 57 10159699092776571544
14251764 75 18408035208893649321
14341114 328 16415190148735372543
14429114 114 18336269032835190361
14429115 67 10087630516565082145
14528608 73 18334583477488038183
14537116 161 16950571042967563705
14848178 5 9151168732252326953
14848178 96 18409172125164440929
15142526 21 18272650169117490643
15210252 30 18411698777353228088
15342168 16 18337675316991189815
17834072 32 18340770325916630508
17868525 174 17338732877717593651
17959699 21 18334856104077920346
193927 3 7348884507860856983
19752476 56 18407761439182602378
20238998 120 17403452975803845891
20403669 9 9295283958956696585
20621476 91 16343404156509881833
20645477 70 7492703888527826819
21315763 87 11167933637090551740
21401589 2 18060421279166857281
21734292 116 18410576223215346253
21864079 5 18412549781829755202
23402655 69 18040995107827615230
23503958 8 10519724292308337622
270888 7 18411700958895557020
2838139 119 18046069255622635788
3057174 1 5321218885235967378
316301 35 9295023349121274044
3472631 163 18334575754815177829
4028521 119 18188767220101143626
44062 13 7781530200356255411
5104073 3 18131917061301932475
56616090 13 18412825806936105091
633830 44 18408891754036764103
76465 3 9151172056456865227
7808743 9 18268714909405769344
7970288 3 9006792981121926120
960060 61 5328448311685004299

> <PUBCHEM_SHAPE_MULTIPOLES>
363.44
13.33
3.24
1.09
13.98
1.15
-0.04
14.2
0.62
-0.91
-0.29
-0.49
-0.09
-0.27

> <PUBCHEM_SHAPE_SELFOVERLAP>
730.272

> <PUBCHEM_SHAPE_VOLUME>
213.2

> <PUBCHEM_COORDINATE_TYPE>
2
5
10

$$$$

