12108
  -OEChem-06261206323D

 18 18  0     0  0  0  0  0  0999 V2000
    4.3269    0.0230    0.5793 Cl  0  0  0  0  0  0  0  0  0  0  0  0
    0.7040   -0.0133   -0.9921 O   0  0  0  0  0  0  0  0  0  0  0  0
    1.4801    0.0040    1.2112 O   0  0  0  0  0  0  0  0  0  0  0  0
   -0.5708   -0.0059   -0.5153 C   0  0  0  0  0  0  0  0  0  0  0  0
   -1.2210    1.2057   -0.2815 C   0  0  0  0  0  0  0  0  0  0  0  0
   -1.2267   -1.2100   -0.2597 C   0  0  0  0  0  0  0  0  0  0  0  0
   -2.5272    1.2133    0.2081 C   0  0  0  0  0  0  0  0  0  0  0  0
   -2.5329   -1.2026    0.2298 C   0  0  0  0  0  0  0  0  0  0  0  0
   -3.1831    0.0092    0.4636 C   0  0  0  0  0  0  0  0  0  0  0  0
    1.6981   -0.0072    0.0074 C   0  0  0  0  0  0  0  0  0  0  0  0
    3.0525   -0.0163   -0.6507 C   0  0  0  0  0  0  0  0  0  0  0  0
   -0.7159    2.1474   -0.4788 H   0  0  0  0  0  0  0  0  0  0  0  0
   -0.7261   -2.1575   -0.4399 H   0  0  0  0  0  0  0  0  0  0  0  0
   -3.0335    2.1568    0.3901 H   0  0  0  0  0  0  0  0  0  0  0  0
   -3.0437   -2.1401    0.4289 H   0  0  0  0  0  0  0  0  0  0  0  0
   -4.2001    0.0151    0.8447 H   0  0  0  0  0  0  0  0  0  0  0  0
    3.1629    0.8682   -1.2825 H   0  0  0  0  0  0  0  0  0  0  0  0
    3.1724   -0.9301   -1.2373 H   0  0  0  0  0  0  0  0  0  0  0  0
  1 11  1  0  0  0  0
  2  4  1  0  0  0  0
  2 10  1  0  0  0  0
  3 10  2  0  0  0  0
  4  5  2  0  0  0  0
  4  6  1  0  0  0  0
  5  7  1  0  0  0  0
  5 12  1  0  0  0  0
  6  8  2  0  0  0  0
  6 13  1  0  0  0  0
  7  9  2  0  0  0  0
  7 14  1  0  0  0  0
  8  9  1  0  0  0  0
  8 15  1  0  0  0  0
  9 16  1  0  0  0  0
 10 11  1  0  0  0  0
 11 17  1  0  0  0  0
 11 18  1  0  0  0  0
M  END
> <PUBCHEM_COMPOUND_CID>
12108

> <PUBCHEM_CONFORMER_RMSD>
0.6

> <PUBCHEM_CONFORMER_DIVERSEORDER>
1
16
20
4
5
19
14
17
15
11
10
2
8
9
7
6
21
12
13
18
3

> <PUBCHEM_MMFF94_PARTIAL_CHARGES>
16
1 -0.29
10 0.66
11 0.35
12 0.15
13 0.15
14 0.15
15 0.15
16 0.15
2 -0.23
3 -0.57
4 0.08
5 -0.15
6 -0.15
7 -0.15
8 -0.15
9 -0.15

> <PUBCHEM_EFFECTIVE_ROTOR_COUNT>
3

> <PUBCHEM_PHARMACOPHORE_FEATURES>
2
1 3 acceptor
6 4 5 6 7 8 9 rings

> <PUBCHEM_HEAVY_ATOM_COUNT>
11

> <PUBCHEM_ATOM_DEF_STEREO_COUNT>
0

> <PUBCHEM_ATOM_UDEF_STEREO_COUNT>
0

> <PUBCHEM_BOND_DEF_STEREO_COUNT>
0

> <PUBCHEM_BOND_UDEF_STEREO_COUNT>
0

> <PUBCHEM_ISOTOPIC_ATOM_COUNT>
0

> <PUBCHEM_COMPONENT_COUNT>
1

> <PUBCHEM_CACTVS_TAUTO_COUNT>
1

> <PUBCHEM_CONFORMER_ID>
00002F4C00000001

> <PUBCHEM_MMFF94_ENERGY>
28.6097

> <PUBCHEM_FEATURE_SELFOVERLAP>
10.148

> <PUBCHEM_SHAPE_FINGERPRINT>
10857977 72 18335137566533615425
11062470 55 7204772583901993464
124424 183 17749393701928647610
12932764 1 17603590724786257046
13024252 1 14979958081978786797
14325111 11 18408600396334536550
15219456 202 17967805106653937734
15775835 57 18340484564372342937
190213 19 17917711309848133206
19422 9 17917704695598588294
200 152 16200437944303220731
20279233 1 17749106703602941022
20645464 45 17894629253440025799
20871998 184 18261103024835421839
23402539 116 18260838090141271279
369184 2 17167864166714192463
75552 356 18413105044007760655

> <PUBCHEM_SHAPE_MULTIPOLES>
216.51
6.38
1.16
0.91
5.67
0
0.05
0.03
1.33
-1.03
-0.01
0.36
0
0.02

> <PUBCHEM_SHAPE_SELFOVERLAP>
435.645

> <PUBCHEM_SHAPE_VOLUME>
127.1

> <PUBCHEM_COORDINATE_TYPE>
2
5
10

$$$$

