7142
  -OEChem-06261201492D

 48 52  0     0  0  0  0  0  0999 V2000
    9.8622   -1.0000    0.0000 N   0  0  0  0  0  0  0  0  0  0  0  0
    6.3981    1.0000    0.0000 N   0  0  0  0  0  0  0  0  0  0  0  0
   10.7282   -0.5000    0.0000 C   0  0  0  0  0  0  0  0  0  0  0  0
    5.5321    0.5000    0.0000 C   0  0  0  0  0  0  0  0  0  0  0  0
    3.8000    0.5000    0.0000 C   0  0  0  0  0  0  0  0  0  0  0  0
   12.4603   -0.5000    0.0000 C   0  0  0  0  0  0  0  0  0  0  0  0
    3.8000   -0.5000    0.0000 C   0  0  0  0  0  0  0  0  0  0  0  0
   12.4603    0.5000    0.0000 C   0  0  0  0  0  0  0  0  0  0  0  0
    8.9962   -0.5000    0.0000 C   0  0  0  0  0  0  0  0  0  0  0  0
    7.2641    0.5000    0.0000 C   0  0  0  0  0  0  0  0  0  0  0  0
    4.6660    1.0000    0.0000 C   0  0  0  0  0  0  0  0  0  0  0  0
   11.5942   -1.0000    0.0000 C   0  0  0  0  0  0  0  0  0  0  0  0
    5.5321   -0.5000    0.0000 C   0  0  0  0  0  0  0  0  0  0  0  0
   10.7282    0.5000    0.0000 C   0  0  0  0  0  0  0  0  0  0  0  0
    4.6660   -1.0000    0.0000 C   0  0  0  0  0  0  0  0  0  0  0  0
   11.5942    1.0000    0.0000 C   0  0  0  0  0  0  0  0  0  0  0  0
    7.2641   -0.5000    0.0000 C   0  0  0  0  0  0  0  0  0  0  0  0
    8.1301   -1.0000    0.0000 C   0  0  0  0  0  0  0  0  0  0  0  0
    8.1301    1.0000    0.0000 C   0  0  0  0  0  0  0  0  0  0  0  0
    8.9962    0.5000    0.0000 C   0  0  0  0  0  0  0  0  0  0  0  0
    2.9061    1.0347    0.0000 C   0  0  0  0  0  0  0  0  0  0  0  0
   13.3542   -1.0347    0.0000 C   0  0  0  0  0  0  0  0  0  0  0  0
   13.3542    1.0347    0.0000 C   0  0  0  0  0  0  0  0  0  0  0  0
    2.9061   -1.0347    0.0000 C   0  0  0  0  0  0  0  0  0  0  0  0
   14.2603   -0.5208    0.0000 C   0  0  0  0  0  0  0  0  0  0  0  0
    2.0000    0.5208    0.0000 C   0  0  0  0  0  0  0  0  0  0  0  0
   14.2603    0.5208    0.0000 C   0  0  0  0  0  0  0  0  0  0  0  0
    2.0000   -0.5208    0.0000 C   0  0  0  0  0  0  0  0  0  0  0  0
   11.5942   -1.6200    0.0000 H   0  0  0  0  0  0  0  0  0  0  0  0
    4.6660    1.6200    0.0000 H   0  0  0  0  0  0  0  0  0  0  0  0
    9.8622   -1.6200    0.0000 H   0  0  0  0  0  0  0  0  0  0  0  0
    6.3981    1.6200    0.0000 H   0  0  0  0  0  0  0  0  0  0  0  0
    6.0690   -0.8100    0.0000 H   0  0  0  0  0  0  0  0  0  0  0  0
   10.1913    0.8100    0.0000 H   0  0  0  0  0  0  0  0  0  0  0  0
    4.6660   -1.6200    0.0000 H   0  0  0  0  0  0  0  0  0  0  0  0
   11.5942    1.6200    0.0000 H   0  0  0  0  0  0  0  0  0  0  0  0
    6.7272   -0.8100    0.0000 H   0  0  0  0  0  0  0  0  0  0  0  0
    8.1301   -1.6200    0.0000 H   0  0  0  0  0  0  0  0  0  0  0  0
    8.1301    1.6200    0.0000 H   0  0  0  0  0  0  0  0  0  0  0  0
    9.5331    0.8100    0.0000 H   0  0  0  0  0  0  0  0  0  0  0  0
    2.9132    1.6546    0.0000 H   0  0  0  0  0  0  0  0  0  0  0  0
   13.3470   -1.6546    0.0000 H   0  0  0  0  0  0  0  0  0  0  0  0
    2.9132   -1.6546    0.0000 H   0  0  0  0  0  0  0  0  0  0  0  0
   13.3470    1.6546    0.0000 H   0  0  0  0  0  0  0  0  0  0  0  0
   14.7960   -0.8329    0.0000 H   0  0  0  0  0  0  0  0  0  0  0  0
    1.4643    0.8329    0.0000 H   0  0  0  0  0  0  0  0  0  0  0  0
   14.7960    0.8329    0.0000 H   0  0  0  0  0  0  0  0  0  0  0  0
    1.4643   -0.8329    0.0000 H   0  0  0  0  0  0  0  0  0  0  0  0
  1  3  1  0  0  0  0
  1  9  1  0  0  0  0
  1 31  1  0  0  0  0
  2  4  1  0  0  0  0
  2 10  1  0  0  0  0
  2 32  1  0  0  0  0
  3 12  2  0  0  0  0
  3 14  1  0  0  0  0
  4 11  2  0  0  0  0
  4 13  1  0  0  0  0
  5  7  1  0  0  0  0
  5 11  1  0  0  0  0
  5 21  2  0  0  0  0
  6  8  1  0  0  0  0
  6 12  1  0  0  0  0
  6 22  2  0  0  0  0
  7 15  1  0  0  0  0
  7 24  2  0  0  0  0
  8 16  1  0  0  0  0
  8 23  2  0  0  0  0
  9 18  2  0  0  0  0
  9 20  1  0  0  0  0
 10 17  2  0  0  0  0
 10 19  1  0  0  0  0
 11 30  1  0  0  0  0
 12 29  1  0  0  0  0
 13 15  2  0  0  0  0
 13 33  1  0  0  0  0
 14 16  2  0  0  0  0
 14 34  1  0  0  0  0
 15 35  1  0  0  0  0
 16 36  1  0  0  0  0
 17 18  1  0  0  0  0
 17 37  1  0  0  0  0
 18 38  1  0  0  0  0
 19 20  2  0  0  0  0
 19 39  1  0  0  0  0
 20 40  1  0  0  0  0
 21 26  1  0  0  0  0
 21 41  1  0  0  0  0
 22 25  1  0  0  0  0
 22 42  1  0  0  0  0
 23 27  1  0  0  0  0
 23 44  1  0  0  0  0
 24 28  1  0  0  0  0
 24 43  1  0  0  0  0
 25 27  2  0  0  0  0
 25 45  1  0  0  0  0
 26 28  2  0  0  0  0
 26 46  1  0  0  0  0
 27 47  1  0  0  0  0
 28 48  1  0  0  0  0
M  END
> <PUBCHEM_COMPOUND_CID>
7142

> <PUBCHEM_COMPOUND_CANONICALIZED>
1

> <PUBCHEM_CACTVS_COMPLEXITY>
439

> <PUBCHEM_CACTVS_HBOND_ACCEPTOR>
2

> <PUBCHEM_CACTVS_HBOND_DONOR>
2

> <PUBCHEM_CACTVS_ROTATABLE_BOND>
4

> <PUBCHEM_CACTVS_SUBSKEYS>
AAADceB7AAAAAAAAAAAAAAAAAAAAAAAAAAAwYMGDAAAAAADBVAAAHAAQAAAADAiBGAAwwMLAAACAAiRCQACCAAAhAgAIiAAAZIgIIGLAkZGEIAhgkADIyAcQgIAOiACAQAAQAAAQAQCAACAAAAAAAAAAAA==

> <PUBCHEM_IUPAC_OPENEYE_NAME>
N1,N4-bis(2-naphthyl)benzene-1,4-diamine

> <PUBCHEM_IUPAC_CAS_NAME>
N1,N4-bis(2-naphthalenyl)benzene-1,4-diamine

> <PUBCHEM_IUPAC_NAME>
1-N,4-N-dinaphthalen-2-ylbenzene-1,4-diamine

> <PUBCHEM_IUPAC_SYSTEMATIC_NAME>
N1,N4-dinaphthalen-2-ylbenzene-1,4-diamine

> <PUBCHEM_IUPAC_TRADITIONAL_NAME>
2-naphthyl-[4-(2-naphthylamino)phenyl]amine

> <PUBCHEM_IUPAC_INCHI>
InChI=1S/C26H20N2/c1-3-7-21-17-25(11-9-19(21)5-1)27-23-13-15-24(16-14-23)28-26-12-10-20-6-2-4-8-22(20)18-26/h1-18,27-28H

> <PUBCHEM_IUPAC_INCHIKEY>
VETPHHXZEJAYOB-UHFFFAOYSA-N

> <PUBCHEM_XLOGP3_AA>
7.5

> <PUBCHEM_EXACT_MASS>
360.162649

> <PUBCHEM_MOLECULAR_FORMULA>
C26H20N2

> <PUBCHEM_MOLECULAR_WEIGHT>
360.4504

> <PUBCHEM_OPENEYE_CAN_SMILES>
C1=CC=C2C=C(C=CC2=C1)NC3=CC=C(C=C3)NC4=CC5=CC=CC=C5C=C4

> <PUBCHEM_OPENEYE_ISO_SMILES>
C1=CC=C2C=C(C=CC2=C1)NC3=CC=C(C=C3)NC4=CC5=CC=CC=C5C=C4

> <PUBCHEM_CACTVS_TPSA>
24.1

> <PUBCHEM_MONOISOTOPIC_WEIGHT>
360.162649

> <PUBCHEM_TOTAL_CHARGE>
0

> <PUBCHEM_HEAVY_ATOM_COUNT>
28

> <PUBCHEM_ATOM_DEF_STEREO_COUNT>
0

> <PUBCHEM_ATOM_UDEF_STEREO_COUNT>
0

> <PUBCHEM_BOND_DEF_STEREO_COUNT>
0

> <PUBCHEM_BOND_UDEF_STEREO_COUNT>
0

> <PUBCHEM_ISOTOPIC_ATOM_COUNT>
0

> <PUBCHEM_COMPONENT_COUNT>
1

> <PUBCHEM_CACTVS_TAUTO_COUNT>
1

> <PUBCHEM_COORDINATE_TYPE>
1
5
255

> <PUBCHEM_BONDANNOTATIONS>
10  17  8
10  19  8
13  15  8
14  16  8
17  18  8
19  20  8
21  26  8
22  25  8
23  27  8
24  28  8
25  27  8
26  28  8
3  12  8
3  14  8
4  11  8
4  13  8
5  11  8
5  21  8
5  7  8
6  12  8
6  22  8
6  8  8
7  15  8
7  24  8
8  16  8
8  23  8
9  18  8
9  20  8

$$$$

