5649
  -OEChem-06261200482D

168168  0     1  0  0  0  0  0999 V2000
   14.8335    0.0000    0.0000 O   0  0  0  0  0  0  0  0  0  0  0  0
    6.2282    4.9683    0.0000 O   0  0  0  0  0  0  0  0  0  0  0  0
    6.2282   -4.9683    0.0000 O   0  0  0  0  0  0  0  0  0  0  0  0
   11.9650   -4.9683    0.0000 O   0  0  0  0  0  0  0  0  0  0  0  0
   11.9650    4.9683    0.0000 O   0  0  0  0  0  0  0  0  0  0  0  0
    3.3598    0.0000    0.0000 O   0  0  0  0  0  0  0  0  0  0  0  0
    3.9359   -4.3304    0.0000 O   0  0  0  0  0  0  0  0  0  0  0  0
    7.9268    6.6345    0.0000 O   0  0  0  0  0  0  0  0  0  0  0  0
   15.4272   -2.3041    0.0000 O   0  0  0  0  0  0  0  0  0  0  0  0
   15.7311    1.1698    0.0000 O   0  0  0  0  0  0  0  0  0  0  0  0
    4.7662    5.1607    0.0000 O   0  0  0  0  0  0  0  0  0  0  0  0
    6.7925   -6.3306    0.0000 O   0  0  0  0  0  0  0  0  0  0  0  0
    2.4621   -1.1698    0.0000 O   0  0  0  0  0  0  0  0  0  0  0  0
   11.4008    6.3306    0.0000 O   0  0  0  0  0  0  0  0  0  0  0  0
   13.4270   -5.1607    0.0000 O   0  0  0  0  0  0  0  0  0  0  0  0
   10.2665   -6.6345    0.0000 O   0  0  0  0  0  0  0  0  0  0  0  0
   14.2574    4.3304    0.0000 O   0  0  0  0  0  0  0  0  0  0  0  0
    2.7660    2.3041    0.0000 O   0  0  0  0  0  0  0  0  0  0  0  0
   14.0649   -2.8684    0.0000 N   0  0  0  0  0  0  0  0  0  0  0  0
    9.0966    5.7369    0.0000 N   0  0  0  0  0  0  0  0  0  0  0  0
    4.1284   -2.8684    0.0000 N   0  0  0  0  0  0  0  0  0  0  0  0
    9.0966   -5.7369    0.0000 N   0  0  0  0  0  0  0  0  0  0  0  0
   14.0649    2.8684    0.0000 N   0  0  0  0  0  0  0  0  0  0  0  0
    4.1284    2.8684    0.0000 N   0  0  0  0  0  0  0  0  0  0  0  0
   14.7463   -0.9962    0.0000 C   0  0  3  0  0  0  0  0  0  0  0  0
    7.1345    5.3909    0.0000 C   0  0  3  0  0  0  0  0  0  0  0  0
    5.4090   -4.3947    0.0000 C   0  0  3  0  0  0  0  0  0  0  0  0
   13.4913   -3.6876    0.0000 C   0  0  3  0  0  0  0  0  0  0  0  0
   10.0928    5.6497    0.0000 C   0  0  3  0  0  0  0  0  0  0  0  0
    3.7057   -1.9621    0.0000 C   0  0  3  0  0  0  0  0  0  0  0  0
    4.7019    3.6876    0.0000 C   0  0  3  0  0  0  0  0  0  0  0  0
   14.4875    1.9621    0.0000 C   0  0  3  0  0  0  0  0  0  0  0  0
    8.1004   -5.6497    0.0000 C   0  0  3  0  0  0  0  0  0  0  0  0
    4.7662   -5.1607    0.0000 C   0  0  0  0  0  0  0  0  0  0  0  0
    6.7925    6.3306    0.0000 C   0  0  0  0  0  0  0  0  0  0  0  0
   15.7311   -1.1698    0.0000 C   0  0  0  0  0  0  0  0  0  0  0  0
   14.2574   -4.3304    0.0000 C   0  0  0  0  0  0  0  0  0  0  0  0
   10.2665    6.6345    0.0000 C   0  0  0  0  0  0  0  0  0  0  0  0
    2.7660   -2.3041    0.0000 C   0  0  0  0  0  0  0  0  0  0  0  0
   15.4272    2.3041    0.0000 C   0  0  0  0  0  0  0  0  0  0  0  0
    3.9359    4.3304    0.0000 C   0  0  0  0  0  0  0  0  0  0  0  0
    7.9268   -6.6345    0.0000 C   0  0  0  0  0  0  0  0  0  0  0  0
    4.7019   -3.6876    0.0000 C   0  0  0  0  0  0  0  0  0  0  0  0
    8.1004    5.6497    0.0000 C   0  0  0  0  0  0  0  0  0  0  0  0
   14.4875   -1.9621    0.0000 C   0  0  0  0  0  0  0  0  0  0  0  0
   14.7463    0.9962    0.0000 C   0  0  0  0  0  0  0  0  0  0  0  0
    5.4090    4.3947    0.0000 C   0  0  0  0  0  0  0  0  0  0  0  0
    7.1345   -5.3909    0.0000 C   0  0  0  0  0  0  0  0  0  0  0  0
   12.7842   -4.3947    0.0000 C   0  0  0  0  0  0  0  0  0  0  0  0
   11.0587    5.3909    0.0000 C   0  0  0  0  0  0  0  0  0  0  0  0
    3.4469   -0.9962    0.0000 C   0  0  0  0  0  0  0  0  0  0  0  0
    5.1083   -6.1004    0.0000 C   0  0  0  0  0  0  0  0  0  0  0  0
    3.7814   -4.9871    0.0000 C   0  0  0  0  0  0  0  0  0  0  0  0
    5.8077    6.5042    0.0000 C   0  0  0  0  0  0  0  0  0  0  0  0
    7.4353    7.0966    0.0000 C   0  0  0  0  0  0  0  0  0  0  0  0
   16.3739   -0.4038    0.0000 C   0  0  0  0  0  0  0  0  0  0  0  0
   16.0731   -2.1095    0.0000 C   0  0  0  0  0  0  0  0  0  0  0  0
    2.5924   -3.2890    0.0000 C   0  0  0  0  0  0  0  0  0  0  0  0
    2.0000   -1.6614    0.0000 C   0  0  0  0  0  0  0  0  0  0  0  0
    9.5004    7.2773    0.0000 C   0  0  0  0  0  0  0  0  0  0  0  0
   11.2062    6.9765    0.0000 C   0  0  0  0  0  0  0  0  0  0  0  0
   15.1970   -3.9884    0.0000 C   0  0  0  0  0  0  0  0  0  0  0  0
   14.0837   -5.3152    0.0000 C   0  0  0  0  0  0  0  0  0  0  0  0
   15.6008    3.2890    0.0000 C   0  0  0  0  0  0  0  0  0  0  0  0
   16.1932    1.6614    0.0000 C   0  0  0  0  0  0  0  0  0  0  0  0
    2.9962    3.9884    0.0000 C   0  0  0  0  0  0  0  0  0  0  0  0
    4.1095    5.3152    0.0000 C   0  0  0  0  0  0  0  0  0  0  0  0
    8.6928   -7.2773    0.0000 C   0  0  0  0  0  0  0  0  0  0  0  0
    6.9871   -6.9765    0.0000 C   0  0  0  0  0  0  0  0  0  0  0  0
    3.4469    0.9962    0.0000 C   0  0  3  0  0  0  0  0  0  0  0  0
   12.7842    4.3947    0.0000 C   0  0  3  0  0  0  0  0  0  0  0  0
   11.0587   -5.3909    0.0000 C   0  0  3  0  0  0  0  0  0  0  0  0
   10.0928   -5.6497    0.0000 C   0  0  0  0  0  0  0  0  0  0  0  0
   13.4913    3.6876    0.0000 C   0  0  0  0  0  0  0  0  0  0  0  0
    3.7057    1.9621    0.0000 C   0  0  0  0  0  0  0  0  0  0  0  0
    2.4621    1.1698    0.0000 C   0  0  0  0  0  0  0  0  0  0  0  0
   13.4270    5.1607    0.0000 C   0  0  0  0  0  0  0  0  0  0  0  0
   11.4008   -6.3306    0.0000 C   0  0  0  0  0  0  0  0  0  0  0  0
    5.4900   -5.0094    0.0000 H   0  0  0  0  0  0  0  0  0  0  0  0
    6.5617    5.6282    0.0000 H   0  0  0  0  0  0  0  0  0  0  0  0
   15.2382   -0.6188    0.0000 H   0  0  0  0  0  0  0  0  0  0  0  0
    3.4685   -2.5349    0.0000 H   0  0  0  0  0  0  0  0  0  0  0  0
    9.7154    6.1416    0.0000 H   0  0  0  0  0  0  0  0  0  0  0  0
   14.1060   -3.6066    0.0000 H   0  0  0  0  0  0  0  0  0  0  0  0
    8.4779   -6.1416    0.0000 H   0  0  0  0  0  0  0  0  0  0  0  0
   14.7248    2.5349    0.0000 H   0  0  0  0  0  0  0  0  0  0  0  0
    4.0872    3.6066    0.0000 H   0  0  0  0  0  0  0  0  0  0  0  0
   16.3417   -1.2775    0.0000 H   0  0  0  0  0  0  0  0  0  0  0  0
    6.3940    5.8556    0.0000 H   0  0  0  0  0  0  0  0  0  0  0  0
    5.3768   -5.2684    0.0000 H   0  0  0  0  0  0  0  0  0  0  0  0
    2.8737   -1.6936    0.0000 H   0  0  0  0  0  0  0  0  0  0  0  0
    9.6838    6.4225    0.0000 H   0  0  0  0  0  0  0  0  0  0  0  0
   14.7323   -4.7289    0.0000 H   0  0  0  0  0  0  0  0  0  0  0  0
   16.0098    2.5162    0.0000 H   0  0  0  0  0  0  0  0  0  0  0  0
    3.4609    4.7289    0.0000 H   0  0  0  0  0  0  0  0  0  0  0  0
    7.8191   -7.2451    0.0000 H   0  0  0  0  0  0  0  0  0  0  0  0
    3.5914   -3.1784    0.0000 H   0  0  0  0  0  0  0  0  0  0  0  0
    9.0966    6.3569    0.0000 H   0  0  0  0  0  0  0  0  0  0  0  0
   14.6018   -3.1784    0.0000 H   0  0  0  0  0  0  0  0  0  0  0  0
    9.0966   -6.3569    0.0000 H   0  0  0  0  0  0  0  0  0  0  0  0
   14.6018    3.1784    0.0000 H   0  0  0  0  0  0  0  0  0  0  0  0
    3.5914    3.1784    0.0000 H   0  0  0  0  0  0  0  0  0  0  0  0
   15.4905   -2.3216    0.0000 H   0  0  0  0  0  0  0  0  0  0  0  0
    4.5257   -6.3125    0.0000 H   0  0  0  0  0  0  0  0  0  0  0  0
    5.3203   -6.6830    0.0000 H   0  0  0  0  0  0  0  0  0  0  0  0
    5.6909   -5.8884    0.0000 H   0  0  0  0  0  0  0  0  0  0  0  0
    3.8891   -4.3765    0.0000 H   0  0  0  0  0  0  0  0  0  0  0  0
    3.1709   -4.8794    0.0000 H   0  0  0  0  0  0  0  0  0  0  0  0
    3.6738   -5.5977    0.0000 H   0  0  0  0  0  0  0  0  0  0  0  0
    5.9153    7.1148    0.0000 H   0  0  0  0  0  0  0  0  0  0  0  0
    5.1971    6.6119    0.0000 H   0  0  0  0  0  0  0  0  0  0  0  0
    5.7000    5.8936    0.0000 H   0  0  0  0  0  0  0  0  0  0  0  0
    7.9102    6.6981    0.0000 H   0  0  0  0  0  0  0  0  0  0  0  0
    7.8338    7.5716    0.0000 H   0  0  0  0  0  0  0  0  0  0  0  0
    6.9603    7.4952    0.0000 H   0  0  0  0  0  0  0  0  0  0  0  0
   16.8489   -0.8023    0.0000 H   0  0  0  0  0  0  0  0  0  0  0  0
   16.7724    0.0711    0.0000 H   0  0  0  0  0  0  0  0  0  0  0  0
   15.8990   -0.0053    0.0000 H   0  0  0  0  0  0  0  0  0  0  0  0
   16.2852   -2.6922    0.0000 H   0  0  0  0  0  0  0  0  0  0  0  0
   16.6558   -1.8975    0.0000 H   0  0  0  0  0  0  0  0  0  0  0  0
    1.9818   -3.1813    0.0000 H   0  0  0  0  0  0  0  0  0  0  0  0
    2.4847   -3.8995    0.0000 H   0  0  0  0  0  0  0  0  0  0  0  0
    3.2030   -3.3966    0.0000 H   0  0  0  0  0  0  0  0  0  0  0  0
    2.3985   -1.1864    0.0000 H   0  0  0  0  0  0  0  0  0  0  0  0
    1.5250   -1.2628    0.0000 H   0  0  0  0  0  0  0  0  0  0  0  0
    1.6015   -2.1363    0.0000 H   0  0  0  0  0  0  0  0  0  0  0  0
    9.8989    7.7522    0.0000 H   0  0  0  0  0  0  0  0  0  0  0  0
    9.0255    7.6758    0.0000 H   0  0  0  0  0  0  0  0  0  0  0  0
    9.1019    6.8024    0.0000 H   0  0  0  0  0  0  0  0  0  0  0  0
   11.4182    6.3939    0.0000 H   0  0  0  0  0  0  0  0  0  0  0  0
   11.7888    7.1886    0.0000 H   0  0  0  0  0  0  0  0  0  0  0  0
   10.9941    7.5591    0.0000 H   0  0  0  0  0  0  0  0  0  0  0  0
   15.4091   -4.5710    0.0000 H   0  0  0  0  0  0  0  0  0  0  0  0
   15.7797   -3.7763    0.0000 H   0  0  0  0  0  0  0  0  0  0  0  0
   14.9850   -3.4057    0.0000 H   0  0  0  0  0  0  0  0  0  0  0  0
   13.4731   -5.2075    0.0000 H   0  0  0  0  0  0  0  0  0  0  0  0
   13.9760   -5.9258    0.0000 H   0  0  0  0  0  0  0  0  0  0  0  0
   14.6943   -5.4228    0.0000 H   0  0  0  0  0  0  0  0  0  0  0  0
    8.2943   -7.7522    0.0000 H   0  0  0  0  0  0  0  0  0  0  0  0
    9.1678   -7.6758    0.0000 H   0  0  0  0  0  0  0  0  0  0  0  0
    9.0914   -6.8024    0.0000 H   0  0  0  0  0  0  0  0  0  0  0  0
    6.7750   -6.3939    0.0000 H   0  0  0  0  0  0  0  0  0  0  0  0
    6.4045   -7.1886    0.0000 H   0  0  0  0  0  0  0  0  0  0  0  0
    7.1991   -7.5591    0.0000 H   0  0  0  0  0  0  0  0  0  0  0  0
    4.7201    5.2075    0.0000 H   0  0  0  0  0  0  0  0  0  0  0  0
    4.2172    5.9258    0.0000 H   0  0  0  0  0  0  0  0  0  0  0  0
    3.4990    5.4228    0.0000 H   0  0  0  0  0  0  0  0  0  0  0  0
    2.7841    4.5710    0.0000 H   0  0  0  0  0  0  0  0  0  0  0  0
    2.4136    3.7763    0.0000 H   0  0  0  0  0  0  0  0  0  0  0  0
    3.2082    3.4057    0.0000 H   0  0  0  0  0  0  0  0  0  0  0  0
   15.7947    1.1864    0.0000 H   0  0  0  0  0  0  0  0  0  0  0  0
   16.6682    1.2628    0.0000 H   0  0  0  0  0  0  0  0  0  0  0  0
   16.5918    2.1363    0.0000 H   0  0  0  0  0  0  0  0  0  0  0  0
   16.2114    3.1813    0.0000 H   0  0  0  0  0  0  0  0  0  0  0  0
   15.7085    3.8995    0.0000 H   0  0  0  0  0  0  0  0  0  0  0  0
   14.9903    3.3966    0.0000 H   0  0  0  0  0  0  0  0  0  0  0  0
   11.6315   -5.6282    0.0000 H   0  0  0  0  0  0  0  0  0  0  0  0
   12.7033    5.0094    0.0000 H   0  0  0  0  0  0  0  0  0  0  0  0
    2.9550    0.6188    0.0000 H   0  0  0  0  0  0  0  0  0  0  0  0
   13.9019    4.7622    0.0000 H   0  0  0  0  0  0  0  0  0  0  0  0
   10.8182   -6.5426    0.0000 H   0  0  0  0  0  0  0  0  0  0  0  0
   11.6128   -6.9132    0.0000 H   0  0  0  0  0  0  0  0  0  0  0  0
   11.9834   -6.1185    0.0000 H   0  0  0  0  0  0  0  0  0  0  0  0
   13.8255    5.6357    0.0000 H   0  0  0  0  0  0  0  0  0  0  0  0
   12.9520    5.5593    0.0000 H   0  0  0  0  0  0  0  0  0  0  0  0
    2.5698    1.7804    0.0000 H   0  0  0  0  0  0  0  0  0  0  0  0
    1.8515    1.2775    0.0000 H   0  0  0  0  0  0  0  0  0  0  0  0
    2.3544    0.5593    0.0000 H   0  0  0  0  0  0  0  0  0  0  0  0
  1 25  1  0  0  0  0
  1 46  1  0  0  0  0
  2 26  1  0  0  0  0
  2 47  1  0  0  0  0
  3 27  1  0  0  0  0
  3 48  1  0  0  0  0
  4 49  1  0  0  0  0
  4 72  1  0  0  0  0
  5 50  1  0  0  0  0
  5 71  1  0  0  0  0
  6 51  1  0  0  0  0
  6 70  1  0  0  0  0
  7 43  2  0  0  0  0
  8 44  2  0  0  0  0
  9 45  2  0  0  0  0
 10 46  2  0  0  0  0
 11 47  2  0  0  0  0
 12 48  2  0  0  0  0
 13 51  2  0  0  0  0
 14 50  2  0  0  0  0
 15 49  2  0  0  0  0
 16 73  2  0  0  0  0
 17 74  2  0  0  0  0
 18 75  2  0  0  0  0
 19 28  1  0  0  0  0
 19 45  1  0  0  0  0
 19 99  1  0  0  0  0
 20 29  1  0  0  0  0
 20 44  1  0  0  0  0
 20 98  1  0  0  0  0
 21 30  1  0  0  0  0
 21 43  1  0  0  0  0
 21 97  1  0  0  0  0
 22 33  1  0  0  0  0
 22 73  1  0  0  0  0
 22100  1  0  0  0  0
 23 32  1  0  0  0  0
 23 74  1  0  0  0  0
 23101  1  0  0  0  0
 24 31  1  0  0  0  0
 24 75  1  0  0  0  0
 24102  1  0  0  0  0
 25 36  1  0  0  0  0
 25 45  1  0  0  0  0
 25 81  1  0  0  0  0
 26 35  1  0  0  0  0
 26 44  1  0  0  0  0
 26 80  1  0  0  0  0
 27 34  1  0  0  0  0
 27 43  1  0  0  0  0
 27 79  1  0  0  0  0
 28 37  1  0  0  0  0
 28 49  1  0  0  0  0
 28 84  1  0  0  0  0
 29 38  1  0  0  0  0
 29 50  1  0  0  0  0
 29 83  1  0  0  0  0
 30 39  1  0  0  0  0
 30 51  1  0  0  0  0
 30 82  1  0  0  0  0
 31 41  1  0  0  0  0
 31 47  1  0  0  0  0
 31 87  1  0  0  0  0
 32 40  1  0  0  0  0
 32 46  1  0  0  0  0
 32 86  1  0  0  0  0
 33 42  1  0  0  0  0
 33 48  1  0  0  0  0
 33 85  1  0  0  0  0
 34 52  1  0  0  0  0
 34 53  1  0  0  0  0
 34 90  1  0  0  0  0
 35 54  1  0  0  0  0
 35 55  1  0  0  0  0
 35 89  1  0  0  0  0
 36 56  1  0  0  0  0
 36 57  1  0  0  0  0
 36 88  1  0  0  0  0
 37 62  1  0  0  0  0
 37 63  1  0  0  0  0
 37 93  1  0  0  0  0
 38 60  1  0  0  0  0
 38 61  1  0  0  0  0
 38 92  1  0  0  0  0
 39 58  1  0  0  0  0
 39 59  1  0  0  0  0
 39 91  1  0  0  0  0
 40 64  1  0  0  0  0
 40 65  1  0  0  0  0
 40 94  1  0  0  0  0
 41 66  1  0  0  0  0
 41 67  1  0  0  0  0
 41 95  1  0  0  0  0
 42 68  1  0  0  0  0
 42 69  1  0  0  0  0
 42 96  1  0  0  0  0
 52104  1  0  0  0  0
 52105  1  0  0  0  0
 52106  1  0  0  0  0
 53107  1  0  0  0  0
 53108  1  0  0  0  0
 53109  1  0  0  0  0
 54110  1  0  0  0  0
 54111  1  0  0  0  0
 54112  1  0  0  0  0
 55113  1  0  0  0  0
 55114  1  0  0  0  0
 55115  1  0  0  0  0
 56116  1  0  0  0  0
 56117  1  0  0  0  0
 56118  1  0  0  0  0
 57103  1  0  0  0  0
 57119  1  0  0  0  0
 57120  1  0  0  0  0
 58121  1  0  0  0  0
 58122  1  0  0  0  0
 58123  1  0  0  0  0
 59124  1  0  0  0  0
 59125  1  0  0  0  0
 59126  1  0  0  0  0
 60127  1  0  0  0  0
 60128  1  0  0  0  0
 60129  1  0  0  0  0
 61130  1  0  0  0  0
 61131  1  0  0  0  0
 61132  1  0  0  0  0
 62133  1  0  0  0  0
 62134  1  0  0  0  0
 62135  1  0  0  0  0
 63136  1  0  0  0  0
 63137  1  0  0  0  0
 63138  1  0  0  0  0
 64154  1  0  0  0  0
 64155  1  0  0  0  0
 64156  1  0  0  0  0
 65151  1  0  0  0  0
 65152  1  0  0  0  0
 65153  1  0  0  0  0
 66148  1  0  0  0  0
 66149  1  0  0  0  0
 66150  1  0  0  0  0
 67145  1  0  0  0  0
 67146  1  0  0  0  0
 67147  1  0  0  0  0
 68139  1  0  0  0  0
 68140  1  0  0  0  0
 68141  1  0  0  0  0
 69142  1  0  0  0  0
 69143  1  0  0  0  0
 69144  1  0  0  0  0
 70 75  1  0  0  0  0
 70 76  1  0  0  0  0
 70159  1  0  0  0  0
 71 74  1  0  0  0  0
 71 77  1  0  0  0  0
 71158  1  0  0  0  0
 72 73  1  0  0  0  0
 72 78  1  0  0  0  0
 72157  1  0  0  0  0
 76166  1  0  0  0  0
 76167  1  0  0  0  0
 76168  1  0  0  0  0
 77160  1  0  0  0  0
 77164  1  0  0  0  0
 77165  1  0  0  0  0
 78161  1  0  0  0  0
 78162  1  0  0  0  0
 78163  1  0  0  0  0
M  END
> <PUBCHEM_COMPOUND_CID>
5649

> <PUBCHEM_COMPOUND_CANONICALIZED>
1

> <PUBCHEM_CACTVS_COMPLEXITY>
1910

> <PUBCHEM_CACTVS_HBOND_ACCEPTOR>
18

> <PUBCHEM_CACTVS_HBOND_DONOR>
6

> <PUBCHEM_CACTVS_ROTATABLE_BOND>
9

> <PUBCHEM_CACTVS_SUBSKEYS>
AAADcfB/vgAAAAAAAAAAAAAAAAAAAAAAAAAAAAAAAAAAAAAAAAAAHgAQAAAADTzhgAYCCALABAAIAAGQGAIAAAAAAAAAAIHIAAACABAAgCQHAAAEFgCQAAAAAAAIAAAAAAAAAAAAAAAAAAAAAAAAAAAAAA==

> <PUBCHEM_IUPAC_OPENEYE_NAME>
3,6,9,15,18,21,27,30,33-nonaisopropyl-12,24,36-trimethyl-1,7,13,19,25,31-hexaoxa-4,10,16,22,28,34-hexazacyclohexatriacontane-2,5,8,11,14,17,20,23,26,29,32,35-dodecone

> <PUBCHEM_IUPAC_CAS_NAME>
6,18,30-trimethyl-3,9,12,15,21,24,27,33,36-nona(propan-2-yl)-1,7,13,19,25,31-hexaoxa-4,10,16,22,28,34-hexazacyclohexatriacontane-2,5,8,11,14,17,20,23,26,29,32,35-dodecone

> <PUBCHEM_IUPAC_NAME>
6,18,30-trimethyl-3,9,12,15,21,24,27,33,36-nona(propan-2-yl)-1,7,13,19,25,31-hexaoxa-4,10,16,22,28,34-hexazacyclohexatriacontane-2,5,8,11,14,17,20,23,26,29,32,35-dodecone

> <PUBCHEM_IUPAC_SYSTEMATIC_NAME>
6,18,30-trimethyl-3,9,12,15,21,24,27,33,36-nona(propan-2-yl)-1,7,13,19,25,31-hexaoxa-4,10,16,22,28,34-hexazacyclohexatriacontane-2,5,8,11,14,17,20,23,26,29,32,35-dodecone

> <PUBCHEM_IUPAC_TRADITIONAL_NAME>
3,6,9,15,18,21,27,30,33-nonaisopropyl-12,24,36-trimethyl-1,7,13,19,25,31-hexaoxa-4,10,16,22,28,34-hexazacyclohexatriacontane-2,5,8,11,14,17,20,23,26,29,32,35-hexaquinone

> <PUBCHEM_IUPAC_INCHI>
InChI=1S/C54H90N6O18/c1-22(2)34-49(67)73-31(19)43(61)55-38(26(9)10)53(71)77-41(29(15)16)47(65)59-36(24(5)6)51(69)75-33(21)45(63)57-39(27(11)12)54(72)78-42(30(17)18)48(66)60-35(23(3)4)50(68)74-32(20)44(62)56-37(25(7)8)52(70)76-40(28(13)14)46(64)58-34/h22-42H,1-21H3,(H,55,61)(H,56,62)(H,57,63)(H,58,64)(H,59,65)(H,60,66)

> <PUBCHEM_IUPAC_INCHIKEY>
FCFNRCROJUBPLU-UHFFFAOYSA-N

> <PUBCHEM_XLOGP3_AA>
9.1

> <PUBCHEM_EXACT_MASS>
1110.63116

> <PUBCHEM_MOLECULAR_FORMULA>
C54H90N6O18

> <PUBCHEM_MOLECULAR_WEIGHT>
1111.3218

> <PUBCHEM_OPENEYE_CAN_SMILES>
CC1C(=O)NC(C(=O)OC(C(=O)NC(C(=O)OC(C(=O)NC(C(=O)OC(C(=O)NC(C(=O)OC(C(=O)NC(C(=O)OC(C(=O)NC(C(=O)O1)C(C)C)C(C)C)C(C)C)C)C(C)C)C(C)C)C(C)C)C)C(C)C)C(C)C)C(C)C

> <PUBCHEM_OPENEYE_ISO_SMILES>
CC1C(=O)NC(C(=O)OC(C(=O)NC(C(=O)OC(C(=O)NC(C(=O)OC(C(=O)NC(C(=O)OC(C(=O)NC(C(=O)OC(C(=O)NC(C(=O)O1)C(C)C)C(C)C)C(C)C)C)C(C)C)C(C)C)C(C)C)C)C(C)C)C(C)C)C(C)C

> <PUBCHEM_CACTVS_TPSA>
332

> <PUBCHEM_MONOISOTOPIC_WEIGHT>
1110.63116

> <PUBCHEM_TOTAL_CHARGE>
0

> <PUBCHEM_HEAVY_ATOM_COUNT>
78

> <PUBCHEM_ATOM_DEF_STEREO_COUNT>
0

> <PUBCHEM_ATOM_UDEF_STEREO_COUNT>
12

> <PUBCHEM_BOND_DEF_STEREO_COUNT>
0

> <PUBCHEM_BOND_UDEF_STEREO_COUNT>
0

> <PUBCHEM_ISOTOPIC_ATOM_COUNT>
0

> <PUBCHEM_COMPONENT_COUNT>
1

> <PUBCHEM_CACTVS_TAUTO_COUNT>
1001

> <PUBCHEM_COORDINATE_TYPE>
1
5
255

> <PUBCHEM_BONDANNOTATIONS>
25  36  3
26  35  3
27  34  3
28  37  3
29  38  3
30  39  3
31  41  3
32  40  3
33  42  3
70  76  3
71  77  3
72  78  3

$$$$

