11587
  -OEChem-06261205523D

 13 12  0     0  0  0  0  0  0999 V2000
    0.0000    0.6026   -0.4638 C   0  0  0  0  0  0  0  0  0  0  0  0
   -1.2413    0.2851    0.3164 C   0  0  0  0  0  0  0  0  0  0  0  0
    1.2412    0.2851    0.3164 C   0  0  0  0  0  0  0  0  0  0  0  0
   -2.1738   -0.5864   -0.0845 C   0  0  0  0  0  0  0  0  0  0  0  0
    2.1739   -0.5864   -0.0844 C   0  0  0  0  0  0  0  0  0  0  0  0
    0.0000    1.6741   -0.6965 H   0  0  0  0  0  0  0  0  0  0  0  0
    0.0001    0.0756   -1.4260 H   0  0  0  0  0  0  0  0  0  0  0  0
   -1.3943    0.8123    1.2552 H   0  0  0  0  0  0  0  0  0  0  0  0
    1.3941    0.8123    1.2551 H   0  0  0  0  0  0  0  0  0  0  0  0
   -3.0549   -0.7655    0.5219 H   0  0  0  0  0  0  0  0  0  0  0  0
   -2.0768   -1.1333   -1.0158 H   0  0  0  0  0  0  0  0  0  0  0  0
    3.0550   -0.7654    0.5221 H   0  0  0  0  0  0  0  0  0  0  0  0
    2.0770   -1.1334   -1.0157 H   0  0  0  0  0  0  0  0  0  0  0  0
  1  2  1  0  0  0  0
  1  3  1  0  0  0  0
  1  6  1  0  0  0  0
  1  7  1  0  0  0  0
  2  4  2  0  0  0  0
  2  8  1  0  0  0  0
  3  5  2  0  0  0  0
  3  9  1  0  0  0  0
  4 10  1  0  0  0  0
  4 11  1  0  0  0  0
  5 12  1  0  0  0  0
  5 13  1  0  0  0  0
M  END
> <PUBCHEM_COMPOUND_CID>
11587

> <PUBCHEM_CONFORMER_RMSD>
0.4

> <PUBCHEM_CONFORMER_DIVERSEORDER>
1
6
2
3
4
5

> <PUBCHEM_MMFF94_PARTIAL_CHARGES>
11
1 0.28
10 0.15
11 0.15
12 0.15
13 0.15
2 -0.29
3 -0.29
4 -0.3
5 -0.3
8 0.15
9 0.15

> <PUBCHEM_EFFECTIVE_ROTOR_COUNT>
2

> <PUBCHEM_PHARMACOPHORE_FEATURES>
2
1 4 hydrophobe
1 5 hydrophobe

> <PUBCHEM_HEAVY_ATOM_COUNT>
5

> <PUBCHEM_ATOM_DEF_STEREO_COUNT>
0

> <PUBCHEM_ATOM_UDEF_STEREO_COUNT>
0

> <PUBCHEM_BOND_DEF_STEREO_COUNT>
0

> <PUBCHEM_BOND_UDEF_STEREO_COUNT>
0

> <PUBCHEM_ISOTOPIC_ATOM_COUNT>
0

> <PUBCHEM_COMPONENT_COUNT>
1

> <PUBCHEM_CACTVS_TAUTO_COUNT>
1

> <PUBCHEM_CONFORMER_ID>
00002D4300000001

> <PUBCHEM_MMFF94_ENERGY>
1.3631

> <PUBCHEM_FEATURE_SELFOVERLAP>
10.149

> <PUBCHEM_SHAPE_FINGERPRINT>
139733 1 7781517018410364789
16714656 1 17989485251065571279
20096714 4 8718829790373667338
29004967 10 18342175548762845968
5460574 1 9295292741710876408

> <PUBCHEM_SHAPE_MULTIPOLES>
102.9
3.12
0.86
0.7
0
0.03
0.01
0.93
-0.04
0
0.04
0
-0.04
0

> <PUBCHEM_SHAPE_SELFOVERLAP>
177.682

> <PUBCHEM_SHAPE_VOLUME>
68.5

> <PUBCHEM_COORDINATE_TYPE>
2
5
10

$$$$

