11993
  -OEChem-06261206223D

 12 12  0     0  0  0  0  0  0999 V2000
    2.5271   -1.4348   -0.0002 I   0  0  0  0  0  0  0  0  0  0  0  0
    1.6596    1.9626    0.0001 Cl  0  0  0  0  0  0  0  0  0  0  0  0
    0.6071   -0.5810    0.0002 C   0  0  0  0  0  0  0  0  0  0  0  0
    0.3817    0.7956    0.0000 C   0  0  0  0  0  0  0  0  0  0  0  0
   -0.4724   -1.4645    0.0002 C   0  0  0  0  0  0  0  0  0  0  0  0
   -0.9232    1.2886   -0.0001 C   0  0  0  0  0  0  0  0  0  0  0  0
   -1.7772   -0.9715    0.0000 C   0  0  0  0  0  0  0  0  0  0  0  0
   -2.0026    0.4050   -0.0001 C   0  0  0  0  0  0  0  0  0  0  0  0
   -0.3253   -2.5417    0.0001 H   0  0  0  0  0  0  0  0  0  0  0  0
   -1.1192    2.3580   -0.0001 H   0  0  0  0  0  0  0  0  0  0  0  0
   -2.6179   -1.6591   -0.0001 H   0  0  0  0  0  0  0  0  0  0  0  0
   -3.0187    0.7886   -0.0002 H   0  0  0  0  0  0  0  0  0  0  0  0
  1  3  1  0  0  0  0
  2  4  1  0  0  0  0
  3  4  1  0  0  0  0
  3  5  2  0  0  0  0
  4  6  2  0  0  0  0
  5  7  1  0  0  0  0
  5  9  1  0  0  0  0
  6  8  1  0  0  0  0
  6 10  1  0  0  0  0
  7  8  2  0  0  0  0
  7 11  1  0  0  0  0
  8 12  1  0  0  0  0
M  END
> <PUBCHEM_COMPOUND_CID>
11993

> <PUBCHEM_CONFORMER_RMSD>
0.4

> <PUBCHEM_CONFORMER_DIVERSEORDER>
1

> <PUBCHEM_MMFF94_PARTIAL_CHARGES>
12
1 -0.08
10 0.15
11 0.15
12 0.15
2 -0.18
3 0.08
4 0.18
5 -0.15
6 -0.15
7 -0.15
8 -0.15
9 0.15

> <PUBCHEM_EFFECTIVE_ROTOR_COUNT>
0

> <PUBCHEM_PHARMACOPHORE_FEATURES>
2
1 1 hydrophobe
6 3 4 5 6 7 8 rings

> <PUBCHEM_HEAVY_ATOM_COUNT>
8

> <PUBCHEM_ATOM_DEF_STEREO_COUNT>
0

> <PUBCHEM_ATOM_UDEF_STEREO_COUNT>
0

> <PUBCHEM_BOND_DEF_STEREO_COUNT>
0

> <PUBCHEM_BOND_UDEF_STEREO_COUNT>
0

> <PUBCHEM_ISOTOPIC_ATOM_COUNT>
0

> <PUBCHEM_COMPONENT_COUNT>
1

> <PUBCHEM_CACTVS_TAUTO_COUNT>
1

> <PUBCHEM_CONFORMER_ID>
00002ED900000001

> <PUBCHEM_MMFF94_ENERGY>
18.3112

> <PUBCHEM_FEATURE_SELFOVERLAP>
10.148

> <PUBCHEM_SHAPE_FINGERPRINT>
16714656 1 18122061172135250094
16945 1 18338799034337279558
18185500 45 18196371652476387178
193761 8 18338797814682586055
21040471 1 18194683665999527713
23552423 10 18270397183549777382
241688 4 18340208599717451136
2748010 2 18412266095081822935
5084963 1 18187372059693039131

> <PUBCHEM_SHAPE_MULTIPOLES>
178.44
3.18
2.16
0.66
1.33
0.92
0
-0.98
0
0.56
0
0.11
-0.02
0

> <PUBCHEM_SHAPE_SELFOVERLAP>
337.299

> <PUBCHEM_SHAPE_VOLUME>
115.1

> <PUBCHEM_COORDINATE_TYPE>
2
5
10

$$$$

