9780
  -OEChem-06261204032D

 16 15  0     0  0  0  0  0  0999 V2000
    3.2320    0.7990    0.0000 F   0  0  0  0  0  0  0  0  0  0  0  0
    4.2320   -0.9330    0.0000 F   0  0  0  0  0  0  0  0  0  0  0  0
    4.0981    1.2990    0.0000 F   0  0  0  0  0  0  0  0  0  0  0  0
    5.0981   -0.4330    0.0000 F   0  0  0  0  0  0  0  0  0  0  0  0
    2.0000   -1.0670    0.0000 F   0  0  0  0  0  0  0  0  0  0  0  0
    2.3660    0.2990    0.0000 F   0  0  0  0  0  0  0  0  0  0  0  0
    3.3660   -1.4330    0.0000 F   0  0  0  0  0  0  0  0  0  0  0  0
    8.0622    1.4330    0.0000 O   0  0  0  0  0  0  0  0  0  0  0  0
    6.3301    0.4330    0.0000 N   0  0  0  0  0  0  0  0  0  0  0  0
    3.7320   -0.0670    0.0000 C   0  0  0  0  0  0  0  0  0  0  0  0
    4.5981    0.4330    0.0000 C   0  0  0  0  0  0  0  0  0  0  0  0
    5.4641    0.9330    0.0000 C   0  0  0  0  0  0  0  0  0  0  0  0
    2.8660   -0.5670    0.0000 C   0  0  0  0  0  0  0  0  0  0  0  0
    7.1962    0.9330    0.0000 C   0  0  0  0  0  0  0  0  0  0  0  0
    5.8626    1.4080    0.0000 H   0  0  0  0  0  0  0  0  0  0  0  0
    5.0656    1.4080    0.0000 H   0  0  0  0  0  0  0  0  0  0  0  0
  1 10  1  0  0  0  0
  2 10  1  0  0  0  0
  3 11  1  0  0  0  0
  4 11  1  0  0  0  0
  5 13  1  0  0  0  0
  6 13  1  0  0  0  0
  7 13  1  0  0  0  0
  8 14  2  0  0  0  0
  9 12  1  0  0  0  0
  9 14  2  0  0  0  0
 10 11  1  0  0  0  0
 10 13  1  0  0  0  0
 11 12  1  0  0  0  0
 12 15  1  0  0  0  0
 12 16  1  0  0  0  0
M  END
> <PUBCHEM_COMPOUND_CID>
9780

> <PUBCHEM_COMPOUND_CANONICALIZED>
1

> <PUBCHEM_CACTVS_COMPLEXITY>
251

> <PUBCHEM_CACTVS_HBOND_ACCEPTOR>
9

> <PUBCHEM_CACTVS_HBOND_DONOR>
0

> <PUBCHEM_CACTVS_ROTATABLE_BOND>
3

> <PUBCHEM_CACTVS_SUBSKEYS>
AAADcQBiIcAAAAAAAAAAAAAAAAAAAAAAAAAAAAAAAAAAAAAAAAAAHwAAAAAACADBABQAAAIAAAAoAAAAFAAAAAAAAAAAAAAAAAAAAAAAgAAAAAAAAAAAAAAAAAAAAAAAAAAAAAAAAAAAAAAAAAAAAAAAAA==

> <PUBCHEM_IUPAC_OPENEYE_NAME>
1,1,1,2,2,3,3-heptafluoro-4-isocyanato-butane

> <PUBCHEM_IUPAC_CAS_NAME>
1,1,1,2,2,3,3-heptafluoro-4-isocyanatobutane

> <PUBCHEM_IUPAC_NAME>
1,1,1,2,2,3,3-heptafluoro-4-isocyanatobutane

> <PUBCHEM_IUPAC_SYSTEMATIC_NAME>
1,1,1,2,2,3,3-heptakis(fluoranyl)-4-isocyanato-butane

> <PUBCHEM_IUPAC_TRADITIONAL_NAME>
1,1,1,2,2,3,3-heptafluoro-4-isocyanato-butane

> <PUBCHEM_IUPAC_INCHI>
InChI=1S/C5H2F7NO/c6-3(7,1-13-2-14)4(8,9)5(10,11)12/h1H2

> <PUBCHEM_IUPAC_INCHIKEY>
NLGMQMZUOBUPCW-UHFFFAOYSA-N

> <PUBCHEM_XLOGP3_AA>
3.5

> <PUBCHEM_EXACT_MASS>
225.002461

> <PUBCHEM_MOLECULAR_FORMULA>
C5H2F7NO

> <PUBCHEM_MOLECULAR_WEIGHT>
225.064302

> <PUBCHEM_OPENEYE_CAN_SMILES>
C(C(C(C(F)(F)F)(F)F)(F)F)N=C=O

> <PUBCHEM_OPENEYE_ISO_SMILES>
C(C(C(C(F)(F)F)(F)F)(F)F)N=C=O

> <PUBCHEM_CACTVS_TPSA>
29.4

> <PUBCHEM_MONOISOTOPIC_WEIGHT>
225.002461

> <PUBCHEM_TOTAL_CHARGE>
0

> <PUBCHEM_HEAVY_ATOM_COUNT>
14

> <PUBCHEM_ATOM_DEF_STEREO_COUNT>
0

> <PUBCHEM_ATOM_UDEF_STEREO_COUNT>
0

> <PUBCHEM_BOND_DEF_STEREO_COUNT>
0

> <PUBCHEM_BOND_UDEF_STEREO_COUNT>
0

> <PUBCHEM_ISOTOPIC_ATOM_COUNT>
0

> <PUBCHEM_COMPONENT_COUNT>
1

> <PUBCHEM_CACTVS_TAUTO_COUNT>
1

> <PUBCHEM_COORDINATE_TYPE>
1
5
255

$$$$

