13369
  -OEChem-06261209253D

 10  9  0     0  0  0  0  0  0999 V2000
    2.0808    0.1736    0.0039 Cl  0  0  0  0  0  0  0  0  0  0  0  0
   -1.9333   -0.1098    0.0048 N   0  0  0  0  0  0  0  0  0  0  0  0
   -0.6113    0.5060   -0.0048 C   0  0  0  0  0  0  0  0  0  0  0  0
    0.4637   -0.5698   -0.0040 C   0  0  0  0  0  0  0  0  0  0  0  0
   -0.5089    1.1521    0.8744 H   0  0  0  0  0  0  0  0  0  0  0  0
   -0.5190    1.1370   -0.8954 H   0  0  0  0  0  0  0  0  0  0  0  0
    0.3914   -1.2072    0.8831 H   0  0  0  0  0  0  0  0  0  0  0  0
    0.3950   -1.2036   -0.8938 H   0  0  0  0  0  0  0  0  0  0  0  0
   -2.6448    0.6181    0.0553 H   0  0  0  0  0  0  0  0  0  0  0  0
   -2.0430   -0.6751    0.8458 H   0  0  0  0  0  0  0  0  0  0  0  0
  1  4  1  0  0  0  0
  2  3  1  0  0  0  0
  2  9  1  0  0  0  0
  2 10  1  0  0  0  0
  3  4  1  0  0  0  0
  3  5  1  0  0  0  0
  3  6  1  0  0  0  0
  4  7  1  0  0  0  0
  4  8  1  0  0  0  0
M  END
> <PUBCHEM_COMPOUND_CID>
13369

> <PUBCHEM_CONFORMER_RMSD>
0.4

> <PUBCHEM_CONFORMER_DIVERSEORDER>
1
3
2

> <PUBCHEM_MMFF94_PARTIAL_CHARGES>
6
1 -0.29
10 0.36
2 -0.99
3 0.27
4 0.29
9 0.36

> <PUBCHEM_EFFECTIVE_ROTOR_COUNT>
1

> <PUBCHEM_PHARMACOPHORE_FEATURES>
2
1 2 cation
1 2 donor

> <PUBCHEM_HEAVY_ATOM_COUNT>
4

> <PUBCHEM_ATOM_DEF_STEREO_COUNT>
0

> <PUBCHEM_ATOM_UDEF_STEREO_COUNT>
0

> <PUBCHEM_BOND_DEF_STEREO_COUNT>
0

> <PUBCHEM_BOND_UDEF_STEREO_COUNT>
0

> <PUBCHEM_ISOTOPIC_ATOM_COUNT>
0

> <PUBCHEM_COMPONENT_COUNT>
1

> <PUBCHEM_CACTVS_TAUTO_COUNT>
1

> <PUBCHEM_CONFORMER_ID>
0000343900000001

> <PUBCHEM_MMFF94_ENERGY>
-3.6224

> <PUBCHEM_FEATURE_SELFOVERLAP>
10.148

> <PUBCHEM_SHAPE_FINGERPRINT>
139733 1 9151173155672970405
16714656 1 18260828180965949398
20096714 4 18409730642906642072
21015797 1 9366470726457139555
5460574 1 9295291642389152672

> <PUBCHEM_SHAPE_MULTIPOLES>
79.21
2.69
0.77
0.61
0.21
0.01
0
-0.13
-0.01
0.05
0
0.06
0
0

> <PUBCHEM_SHAPE_SELFOVERLAP>
120.738

> <PUBCHEM_SHAPE_VOLUME>
57.7

> <PUBCHEM_COORDINATE_TYPE>
2
5
10

$$$$

