17395271
  -OEChem-06241222493D

 27 28  0     1  0  0  0  0  0999 V2000
    1.8275    1.4583   -0.2394 S   0  0  0  0  0  0  0  0  0  0  0  0
   -1.1268    1.3664   -1.0505 S   0  0  0  0  0  0  0  0  0  0  0  0
    4.8659   -0.8927   -0.1622 O   0  0  0  0  0  0  0  0  0  0  0  0
    4.8325    1.2881    0.5380 O   0  0  0  0  0  0  0  0  0  0  0  0
   -3.4395    0.1882   -0.4281 N   0  0  0  0  0  0  0  0  0  0  0  0
   -0.1442   -0.0404    0.8527 N   0  0  0  0  0  0  0  0  0  0  0  0
   -1.4889   -0.3643    0.8039 N   0  0  0  0  0  0  0  0  0  0  0  0
    2.7604    0.0189    0.3149 C   0  0  1  0  0  0  0  0  0  0  0  0
    2.5941   -1.1709   -0.6047 C   0  0  0  0  0  0  0  0  0  0  0  0
    3.8879   -1.9153   -0.3845 C   0  0  0  0  0  0  0  0  0  0  0  0
    4.2428    0.2598    0.2441 C   0  0  0  0  0  0  0  0  0  0  0  0
    0.1761    0.8511   -0.0609 C   0  0  0  0  0  0  0  0  0  0  0  0
   -2.1167    0.2987   -0.1436 C   0  0  0  0  0  0  0  0  0  0  0  0
   -4.3571   -0.6830    0.2772 C   0  0  0  0  0  0  0  0  0  0  0  0
   -5.7193   -0.5349   -0.3205 C   0  0  0  0  0  0  0  0  0  0  0  0
   -6.7947   -0.1280    0.3635 C   0  0  0  0  0  0  0  0  0  0  0  0
    2.5165   -0.2370    1.3523 H   0  0  0  0  0  0  0  0  0  0  0  0
    1.7201   -1.7893   -0.3813 H   0  0  0  0  0  0  0  0  0  0  0  0
    2.5363   -0.8644   -1.6572 H   0  0  0  0  0  0  0  0  0  0  0  0
    3.8530   -2.5619    0.4987 H   0  0  0  0  0  0  0  0  0  0  0  0
    4.1715   -2.5130   -1.2552 H   0  0  0  0  0  0  0  0  0  0  0  0
   -3.8218    0.7527   -1.1832 H   0  0  0  0  0  0  0  0  0  0  0  0
   -4.3627   -0.4347    1.3450 H   0  0  0  0  0  0  0  0  0  0  0  0
   -4.0363   -1.7261    0.1761 H   0  0  0  0  0  0  0  0  0  0  0  0
   -5.8394   -0.7921   -1.3702 H   0  0  0  0  0  0  0  0  0  0  0  0
   -7.7593   -0.0495   -0.1260 H   0  0  0  0  0  0  0  0  0  0  0  0
   -6.7342    0.1326    1.4143 H   0  0  0  0  0  0  0  0  0  0  0  0
  1  8  1  0  0  0  0
  1 12  1  0  0  0  0
  2 12  1  0  0  0  0
  2 13  1  0  0  0  0
  3 10  1  0  0  0  0
  3 11  1  0  0  0  0
  4 11  2  0  0  0  0
  5 13  1  0  0  0  0
  5 14  1  0  0  0  0
  5 22  1  0  0  0  0
  6  7  1  0  0  0  0
  6 12  2  0  0  0  0
  7 13  2  0  0  0  0
  8  9  1  0  0  0  0
  8 11  1  0  0  0  0
  8 17  1  0  0  0  0
  9 10  1  0  0  0  0
  9 18  1  0  0  0  0
  9 19  1  0  0  0  0
 10 20  1  0  0  0  0
 10 21  1  0  0  0  0
 14 15  1  0  0  0  0
 14 23  1  0  0  0  0
 14 24  1  0  0  0  0
 15 16  2  0  0  0  0
 15 25  1  0  0  0  0
 16 26  1  0  0  0  0
 16 27  1  0  0  0  0
M  END
> <PUBCHEM_COMPOUND_CID>
17395271

> <PUBCHEM_CONFORMER_RMSD>
0.8

> <PUBCHEM_CONFORMER_DIVERSEORDER>
1
112
153
117
142
17
81
150
30
109
95
19
126
51
119
139
7
110
151
94
65
149
100
127
77
87
155
121
9
59
154
4
137
125
12
45
97
40
89
47
106
42
62
67
16
152
5
113
148
53
39
135
46
31
63
85
108
147
136
101
66
116
2
123
124
141
73
134
49
28
115
129
44
144
10
138
55
91
102
133
36
72
70
118
24
8
98
13
50
64
78
146
34
143
111
23
120
41
18
25
79
60
103
145
105
96
132
131
58
99
71
92
29
26
75
80
48
21
76
84
56
130
54
114
107
93
104
83
15
43
88
82
14
32
86
74
57
20
122
140
6
69
27
61
35
38
52
3
128
22
90
33
68
11
37

> <PUBCHEM_MMFF94_PARTIAL_CHARGES>
19
1 -0.29
10 0.28
11 0.66
12 0.43
13 0.46
14 0.51
15 -0.29
16 -0.3
2 -0.08
22 0.4
25 0.15
26 0.15
27 0.15
3 -0.43
4 -0.57
5 -0.85
6 -0.34
7 -0.34
8 0.29

> <PUBCHEM_EFFECTIVE_ROTOR_COUNT>
5.8

> <PUBCHEM_PHARMACOPHORE_FEATURES>
7
1 16 hydrophobe
1 4 acceptor
1 5 donor
1 6 acceptor
3 5 7 13 cation
5 2 6 7 12 13 rings
5 3 8 9 10 11 rings

> <PUBCHEM_HEAVY_ATOM_COUNT>
16

> <PUBCHEM_ATOM_DEF_STEREO_COUNT>
0

> <PUBCHEM_ATOM_UDEF_STEREO_COUNT>
1

> <PUBCHEM_BOND_DEF_STEREO_COUNT>
0

> <PUBCHEM_BOND_UDEF_STEREO_COUNT>
0

> <PUBCHEM_ISOTOPIC_ATOM_COUNT>
0

> <PUBCHEM_COMPONENT_COUNT>
1

> <PUBCHEM_CACTVS_TAUTO_COUNT>
4

> <PUBCHEM_CONFORMER_ID>
01096E4700000001

> <PUBCHEM_MMFF94_ENERGY>
16.7748

> <PUBCHEM_FEATURE_SELFOVERLAP>
35.52

> <PUBCHEM_SHAPE_FINGERPRINT>
11287383 113 18343302539712662025
12236239 1 17458344130834657487
12596602 18 16732986384232173835
13533116 47 17822008731018776818
13685833 64 18342171151481401307
14123238 8 18333731308183316521
1420 363 17704351066004677433
14252887 29 18411417315313432632
14911166 2 17132113533294345409
17834072 33 18113338596136670137
17834072 8 17917436423994768207
17834076 25 5978109046365414329
187816 3 16630525137696806065
19141452 34 18409449146745518351
200 152 18259988188400024665
20279233 1 18202559584154110258
20374829 77 17989209231119339227
20645477 70 18335701689124255262
21267235 1 18261950843095445222
212847 35 8646767807496503786
220451 1 17822290154856481951
22224240 67 18261403191994679120
23402539 116 17458348537930357445
23536379 177 18259983786744179817
23557571 272 17988646332320657396
23559900 14 18268711610549606985
2871803 45 18202282541425685722
33824 294 18410295826617870050
4047638 21 8502654805416479452
4463277 17 18343866624001913453
465052 167 18333445439318269767
4990 188 17989208144445036561
5104073 3 18262808491813215672
5374978 207 16008468741690074090
54446538 1 11167949060629198287
621550 34 18411992342915720692

> <PUBCHEM_SHAPE_MULTIPOLES>
310.29
13.83
1.48
0.85
15.21
0.04
-0.05
3.9
0.92
-1.62
-0.28
0.03
-0.06
0.72

> <PUBCHEM_SHAPE_SELFOVERLAP>
612.751

> <PUBCHEM_SHAPE_VOLUME>
186.6

> <PUBCHEM_COORDINATE_TYPE>
2
5
10

$$$$

