11270
  -OEChem-06261205283D

 24 23  0     0  0  0  0  0  0999 V2000
   -1.2320   -0.4213   -0.2192 C   0  0  0  0  0  0  0  0  0  0  0  0
    0.0505    0.3853    0.0094 C   0  0  0  0  0  0  0  0  0  0  0  0
    1.2910   -0.1592   -0.0802 C   0  0  0  0  0  0  0  0  0  0  0  0
   -1.7197   -1.0696    1.0786 C   0  0  0  0  0  0  0  0  0  0  0  0
   -2.3511    0.4072   -0.8631 C   0  0  0  0  0  0  0  0  0  0  0  0
   -0.1630    1.8450    0.3483 C   0  0  0  0  0  0  0  0  0  0  0  0
    1.5582   -1.6070   -0.4147 C   0  0  0  0  0  0  0  0  0  0  0  0
    2.5661    0.6196    0.1409 C   0  0  0  0  0  0  0  0  0  0  0  0
   -1.0271   -1.2226   -0.9388 H   0  0  0  0  0  0  0  0  0  0  0  0
   -1.9921   -0.3147    1.8246 H   0  0  0  0  0  0  0  0  0  0  0  0
   -2.6027   -1.6902    0.8921 H   0  0  0  0  0  0  0  0  0  0  0  0
   -0.9492   -1.7121    1.5178 H   0  0  0  0  0  0  0  0  0  0  0  0
   -2.7511    1.1679   -0.1849 H   0  0  0  0  0  0  0  0  0  0  0  0
   -3.1873   -0.2437   -1.1432 H   0  0  0  0  0  0  0  0  0  0  0  0
   -2.0029    0.9024   -1.7761 H   0  0  0  0  0  0  0  0  0  0  0  0
   -0.4159    2.4168   -0.5498 H   0  0  0  0  0  0  0  0  0  0  0  0
    0.7029    2.3164    0.8188 H   0  0  0  0  0  0  0  0  0  0  0  0
   -0.9747    1.9527    1.0761 H   0  0  0  0  0  0  0  0  0  0  0  0
    0.6814   -2.2531   -0.3432 H   0  0  0  0  0  0  0  0  0  0  0  0
    1.9615   -1.6894   -1.4292 H   0  0  0  0  0  0  0  0  0  0  0  0
    2.2966   -2.0201    0.2822 H   0  0  0  0  0  0  0  0  0  0  0  0
    2.9151    0.4880    1.1699 H   0  0  0  0  0  0  0  0  0  0  0  0
    3.3523    0.2601   -0.5332 H   0  0  0  0  0  0  0  0  0  0  0  0
    2.4660    1.6871   -0.0693 H   0  0  0  0  0  0  0  0  0  0  0  0
  1  2  1  0  0  0  0
  1  4  1  0  0  0  0
  1  5  1  0  0  0  0
  1  9  1  0  0  0  0
  2  3  2  0  0  0  0
  2  6  1  0  0  0  0
  3  7  1  0  0  0  0
  3  8  1  0  0  0  0
  4 10  1  0  0  0  0
  4 11  1  0  0  0  0
  4 12  1  0  0  0  0
  5 13  1  0  0  0  0
  5 14  1  0  0  0  0
  5 15  1  0  0  0  0
  6 16  1  0  0  0  0
  6 17  1  0  0  0  0
  6 18  1  0  0  0  0
  7 19  1  0  0  0  0
  7 20  1  0  0  0  0
  7 21  1  0  0  0  0
  8 22  1  0  0  0  0
  8 23  1  0  0  0  0
  8 24  1  0  0  0  0
M  END
> <PUBCHEM_COMPOUND_CID>
11270

> <PUBCHEM_CONFORMER_RMSD>
0.4

> <PUBCHEM_CONFORMER_DIVERSEORDER>
1
3
2

> <PUBCHEM_MMFF94_PARTIAL_CHARGES>
6
1 0.14
2 -0.28
3 -0.28
6 0.14
7 0.14
8 0.14

> <PUBCHEM_EFFECTIVE_ROTOR_COUNT>
1

> <PUBCHEM_PHARMACOPHORE_FEATURES>
3
1 6 hydrophobe
3 1 4 5 hydrophobe
3 3 7 8 hydrophobe

> <PUBCHEM_HEAVY_ATOM_COUNT>
8

> <PUBCHEM_ATOM_DEF_STEREO_COUNT>
0

> <PUBCHEM_ATOM_UDEF_STEREO_COUNT>
0

> <PUBCHEM_BOND_DEF_STEREO_COUNT>
0

> <PUBCHEM_BOND_UDEF_STEREO_COUNT>
0

> <PUBCHEM_ISOTOPIC_ATOM_COUNT>
0

> <PUBCHEM_COMPONENT_COUNT>
1

> <PUBCHEM_CACTVS_TAUTO_COUNT>
1

> <PUBCHEM_CONFORMER_ID>
00002C0600000001

> <PUBCHEM_MMFF94_ENERGY>
13.0176

> <PUBCHEM_FEATURE_SELFOVERLAP>
15.229

> <PUBCHEM_SHAPE_FINGERPRINT>
12423570 1 9886488221405849795
12897270 3 18408603669268473212
18185500 45 18041566844825149486
20201158 50 18412832386382793351
21040471 1 17489033780782601295
21922407 69 16153427263637426266
23235687 12 17203889630479819438
23552423 10 18267864071899644958
24536 1 18342170119997958774
29004967 10 18409722928855143842

> <PUBCHEM_SHAPE_MULTIPOLES>
164.64
3.21
1.62
0.9
0.36
0.15
0.07
-0.2
-0.26
0.24
0.15
-0.44
-0.13
0.48

> <PUBCHEM_SHAPE_SELFOVERLAP>
298.675

> <PUBCHEM_SHAPE_VOLUME>
108.6

> <PUBCHEM_COORDINATE_TYPE>
2
5
10

$$$$

