9647
  -OEChem-06261203543D

 48 51  0     1  0  0  0  0  0999 V2000
   -0.2195    0.0960    1.4852 F   0  0  0  0  0  0  0  0  0  0  0  0
    0.5151   -2.3650   -1.0081 O   0  0  0  0  0  0  0  0  0  0  0  0
    4.8959   -0.7282    1.1431 O   0  0  0  0  0  0  0  0  0  0  0  0
   -5.7396    0.2680    0.4611 O   0  0  0  0  0  0  0  0  0  0  0  0
    0.6395    0.7362   -0.6342 C   0  0  2  0  0  0  0  0  0  0  0  0
   -0.1852   -0.3288    0.1666 C   0  0  2  0  0  0  0  0  0  0  0  0
    2.0173    0.8519    0.0298 C   0  0  1  0  0  0  0  0  0  0  0  0
    2.7919   -0.4860   -0.0578 C   0  0  2  0  0  0  0  0  0  0  0  0
   -1.6832   -0.3536   -0.3055 C   0  0  2  0  0  0  0  0  0  0  0  0
    0.5539   -1.6925    0.2410 C   0  0  2  0  0  0  0  0  0  0  0  0
    2.0189   -1.5504    0.7245 C   0  0  0  0  0  0  0  0  0  0  0  0
   -0.1037    2.0780   -0.7886 C   0  0  0  0  0  0  0  0  0  0  0  0
    3.0334    1.8895   -0.4375 C   0  0  0  0  0  0  0  0  0  0  0  0
   -2.2928    1.0234   -0.0103 C   0  0  0  0  0  0  0  0  0  0  0  0
    4.0966   -0.0101    0.5575 C   0  0  0  0  0  0  0  0  0  0  0  0
   -1.3597    2.2115    0.0657 C   0  0  0  0  0  0  0  0  0  0  0  0
    4.3080    1.4759    0.3171 C   0  0  0  0  0  0  0  0  0  0  0  0
   -2.4883   -1.4089    0.4978 C   0  0  0  0  0  0  0  0  0  0  0  0
    3.1557   -0.9690   -1.4767 C   0  0  0  0  0  0  0  0  0  0  0  0
   -1.8366   -0.6471   -1.8179 C   0  0  0  0  0  0  0  0  0  0  0  0
   -3.9898   -1.3476    0.2325 C   0  0  0  0  0  0  0  0  0  0  0  0
   -3.5941    1.2004    0.2749 C   0  0  0  0  0  0  0  0  0  0  0  0
   -4.5337    0.0565    0.3397 C   0  0  0  0  0  0  0  0  0  0  0  0
    0.7974    0.3837   -1.6577 H   0  0  0  0  0  0  0  0  0  0  0  0
    1.8367    1.0887    1.0921 H   0  0  0  0  0  0  0  0  0  0  0  0
    0.0521   -2.3414    0.9668 H   0  0  0  0  0  0  0  0  0  0  0  0
    2.0169   -1.2895    1.7912 H   0  0  0  0  0  0  0  0  0  0  0  0
    2.5309   -2.5175    0.6446 H   0  0  0  0  0  0  0  0  0  0  0  0
   -0.3987    2.1868   -1.8413 H   0  0  0  0  0  0  0  0  0  0  0  0
    0.5520    2.9302   -0.5859 H   0  0  0  0  0  0  0  0  0  0  0  0
    2.7505    2.9143   -0.1800 H   0  0  0  0  0  0  0  0  0  0  0  0
    3.1847    1.8453   -1.5216 H   0  0  0  0  0  0  0  0  0  0  0  0
   -1.8844    3.1296   -0.2276 H   0  0  0  0  0  0  0  0  0  0  0  0
   -1.0566    2.3470    1.1120 H   0  0  0  0  0  0  0  0  0  0  0  0
    4.3753    1.9839    1.2834 H   0  0  0  0  0  0  0  0  0  0  0  0
    5.2047    1.6534   -0.2806 H   0  0  0  0  0  0  0  0  0  0  0  0
   -2.3184   -1.2601    1.5733 H   0  0  0  0  0  0  0  0  0  0  0  0
   -2.1412   -2.4226    0.2651 H   0  0  0  0  0  0  0  0  0  0  0  0
    3.5460   -1.9934   -1.4436 H   0  0  0  0  0  0  0  0  0  0  0  0
    2.3261   -0.9537   -2.1822 H   0  0  0  0  0  0  0  0  0  0  0  0
    3.9499   -0.3615   -1.9274 H   0  0  0  0  0  0  0  0  0  0  0  0
   -1.6325   -1.6966   -2.0497 H   0  0  0  0  0  0  0  0  0  0  0  0
   -2.8572   -0.4488   -2.1668 H   0  0  0  0  0  0  0  0  0  0  0  0
   -1.1860   -0.0313   -2.4436 H   0  0  0  0  0  0  0  0  0  0  0  0
   -4.5064   -1.9735    0.9687 H   0  0  0  0  0  0  0  0  0  0  0  0
   -4.2284   -1.7321   -0.7645 H   0  0  0  0  0  0  0  0  0  0  0  0
   -4.0011    2.1811    0.4979 H   0  0  0  0  0  0  0  0  0  0  0  0
    0.5601   -1.7177   -1.7269 H   0  0  0  0  0  0  0  0  0  0  0  0
  1  6  1  0  0  0  0
  2 10  1  0  0  0  0
  2 48  1  0  0  0  0
  3 15  2  0  0  0  0
  4 23  2  0  0  0  0
  5  6  1  0  0  0  0
  5  7  1  0  0  0  0
  5 12  1  0  0  0  0
  5 24  1  0  0  0  0
  6  9  1  0  0  0  0
  6 10  1  0  0  0  0
  7  8  1  0  0  0  0
  7 13  1  0  0  0  0
  7 25  1  0  0  0  0
  8 11  1  0  0  0  0
  8 15  1  0  0  0  0
  8 19  1  0  0  0  0
  9 14  1  0  0  0  0
  9 18  1  0  0  0  0
  9 20  1  0  0  0  0
 10 11  1  0  0  0  0
 10 26  1  0  0  0  0
 11 27  1  0  0  0  0
 11 28  1  0  0  0  0
 12 16  1  0  0  0  0
 12 29  1  0  0  0  0
 12 30  1  0  0  0  0
 13 17  1  0  0  0  0
 13 31  1  0  0  0  0
 13 32  1  0  0  0  0
 14 16  1  0  0  0  0
 14 22  2  0  0  0  0
 15 17  1  0  0  0  0
 16 33  1  0  0  0  0
 16 34  1  0  0  0  0
 17 35  1  0  0  0  0
 17 36  1  0  0  0  0
 18 21  1  0  0  0  0
 18 37  1  0  0  0  0
 18 38  1  0  0  0  0
 19 39  1  0  0  0  0
 19 40  1  0  0  0  0
 19 41  1  0  0  0  0
 20 42  1  0  0  0  0
 20 43  1  0  0  0  0
 20 44  1  0  0  0  0
 21 23  1  0  0  0  0
 21 45  1  0  0  0  0
 21 46  1  0  0  0  0
 22 23  1  0  0  0  0
 22 47  1  0  0  0  0
M  END
> <PUBCHEM_COMPOUND_CID>
9647

> <PUBCHEM_CONFORMER_RMSD>
0.6

> <PUBCHEM_CONFORMER_DIVERSEORDER>
1

> <PUBCHEM_MMFF94_PARTIAL_CHARGES>
17
1 -0.34
10 0.28
14 -0.28
15 0.45
16 0.14
17 0.06
2 -0.68
21 0.06
22 -0.14
23 0.49
3 -0.57
4 -0.57
47 0.15
48 0.4
6 0.34
8 0.06
9 0.14

> <PUBCHEM_EFFECTIVE_ROTOR_COUNT>
1.6

> <PUBCHEM_PHARMACOPHORE_FEATURES>
8
1 2 acceptor
1 2 donor
1 3 acceptor
1 4 acceptor
5 7 8 13 15 17 rings
6 5 6 7 8 10 11 rings
6 5 6 9 12 14 16 rings
6 9 14 18 21 22 23 rings

> <PUBCHEM_HEAVY_ATOM_COUNT>
23

> <PUBCHEM_ATOM_DEF_STEREO_COUNT>
5

> <PUBCHEM_ATOM_UDEF_STEREO_COUNT>
1

> <PUBCHEM_BOND_DEF_STEREO_COUNT>
0

> <PUBCHEM_BOND_UDEF_STEREO_COUNT>
0

> <PUBCHEM_ISOTOPIC_ATOM_COUNT>
0

> <PUBCHEM_COMPONENT_COUNT>
1

> <PUBCHEM_CACTVS_TAUTO_COUNT>
10

> <PUBCHEM_CONFORMER_ID>
000025AF00000001

> <PUBCHEM_MMFF94_ENERGY>
84.0678

> <PUBCHEM_FEATURE_SELFOVERLAP>
40.69

> <PUBCHEM_SHAPE_FINGERPRINT>
10062212 137 18340492166575349715
10863032 1 18334851701778542461
10906281 52 18269816706182993681
10948715 1 18334856121236605981
10967382 1 18412543210476849949
11132069 177 18412260649042315881
11578080 2 14203048706411373785
12236239 1 18187085044619836687
12403259 226 18199194056503047132
12403259 415 17775295958338388812
12403814 3 18333457542804855597
12592029 89 18410852191790308458
12633257 1 18131066030806849523
12788726 201 18187633709264963208
13140716 1 18340770325552328560
13214271 11 18410295804889488303
13221675 6 18410292540429448269
13224815 77 18411702084097412580
13583140 156 16557372395580698772
13675066 3 18040998436057952498
14178342 30 18122631814707577152
14223421 5 18268992162134274541
14341114 328 18412260623188031793
14787075 74 18337110042927867273
14790565 3 18196361520712612732
15196674 1 18341331106568442217
15375358 24 18411980278209836395
15536298 74 18408036320952094524
15788980 27 15123512501855047363
1601671 61 18407757027887413529
16945 1 18268146650529969860
17349148 13 17632580461238408592
17980427 23 17896906278330259600
1813 80 17203321230281536453
18186145 218 18272373070437894286
200 152 18342463612440921627
20510252 161 18188206614925897417
21267235 1 18342166782887673083
21421861 104 17916310621933443419
22182313 1 18264208195573623502
23184049 59 18413108333852580196
23227448 37 18335702706851916111
23402539 116 18410865330026519527
23557571 272 18336541719906990116
23559900 14 18263081192187544646
2748010 2 18411980243438576716
296302 2 18334294227903265664
3286 77 17988928885682052220
335352 9 18341895216152412759
34797466 226 16588578695866715553
34934 24 18411141342358548621
350125 39 18412545414486559024
42630746 31 18335137604813820295
4340502 62 16008748000310750918
474 4 18129938979680206540
5104073 3 18341046333315435369
69090 78 18334297552160337166
7097593 13 17411352309064701714
9709674 26 18410848871701505991

> <PUBCHEM_SHAPE_MULTIPOLES>
448.45
8.91
2.16
1.13
2.42
0.27
0.3
0.36
-2.07
-0.34
0.2
-0.3
-0.27
-0.11

> <PUBCHEM_SHAPE_SELFOVERLAP>
977.959

> <PUBCHEM_SHAPE_VOLUME>
244.9

> <PUBCHEM_COORDINATE_TYPE>
2
5
10

$$$$

