8483
  -OEChem-06261202522D

 23 23  0     0  0  0  0  0  0999 V2000
    3.7320    2.0950    0.0000 S   0  0  0  0  0  0  0  0  0  0  0  0
    3.7320    3.0950    0.0000 O   0  0  0  0  0  0  0  0  0  0  0  0
    4.7320    2.0950    0.0000 O   0  0  0  0  0  0  0  0  0  0  0  0
    2.7320    2.0950    0.0000 O   0  0  0  0  0  0  0  0  0  0  0  0
    2.0000   -1.9050    0.0000 O   0  0  0  0  0  0  0  0  0  0  0  0
    3.7320   -1.9050    0.0000 N   0  0  0  0  0  0  0  0  0  0  0  0
    3.7320    1.0950    0.0000 C   0  0  0  0  0  0  0  0  0  0  0  0
    3.7320   -0.9050    0.0000 C   0  0  0  0  0  0  0  0  0  0  0  0
    2.8660    0.5950    0.0000 C   0  0  0  0  0  0  0  0  0  0  0  0
    4.5981    0.5950    0.0000 C   0  0  0  0  0  0  0  0  0  0  0  0
    2.8660   -0.4050    0.0000 C   0  0  0  0  0  0  0  0  0  0  0  0
    4.5981   -0.4050    0.0000 C   0  0  0  0  0  0  0  0  0  0  0  0
    2.8660   -2.4050    0.0000 C   0  0  0  0  0  0  0  0  0  0  0  0
    2.8660   -3.4050    0.0000 C   0  0  0  0  0  0  0  0  0  0  0  0
    2.3291    0.9050    0.0000 H   0  0  0  0  0  0  0  0  0  0  0  0
    5.1350    0.9050    0.0000 H   0  0  0  0  0  0  0  0  0  0  0  0
    2.3291   -0.7150    0.0000 H   0  0  0  0  0  0  0  0  0  0  0  0
    5.1350   -0.7150    0.0000 H   0  0  0  0  0  0  0  0  0  0  0  0
    4.2690   -2.2150    0.0000 H   0  0  0  0  0  0  0  0  0  0  0  0
    2.2460   -3.4050    0.0000 H   0  0  0  0  0  0  0  0  0  0  0  0
    2.8660   -4.0250    0.0000 H   0  0  0  0  0  0  0  0  0  0  0  0
    3.4860   -3.4050    0.0000 H   0  0  0  0  0  0  0  0  0  0  0  0
    4.2690    3.4050    0.0000 H   0  0  0  0  0  0  0  0  0  0  0  0
  1  2  1  0  0  0  0
  1  3  2  0  0  0  0
  1  4  2  0  0  0  0
  1  7  1  0  0  0  0
  2 23  1  0  0  0  0
  5 13  2  0  0  0  0
  6  8  1  0  0  0  0
  6 13  1  0  0  0  0
  6 19  1  0  0  0  0
  7  9  2  0  0  0  0
  7 10  1  0  0  0  0
  8 11  2  0  0  0  0
  8 12  1  0  0  0  0
  9 11  1  0  0  0  0
  9 15  1  0  0  0  0
 10 12  2  0  0  0  0
 10 16  1  0  0  0  0
 11 17  1  0  0  0  0
 12 18  1  0  0  0  0
 13 14  1  0  0  0  0
 14 20  1  0  0  0  0
 14 21  1  0  0  0  0
 14 22  1  0  0  0  0
M  END
> <PUBCHEM_COMPOUND_CID>
8483

> <PUBCHEM_COMPOUND_CANONICALIZED>
1

> <PUBCHEM_CACTVS_COMPLEXITY>
298

> <PUBCHEM_CACTVS_HBOND_ACCEPTOR>
4

> <PUBCHEM_CACTVS_HBOND_DONOR>
2

> <PUBCHEM_CACTVS_ROTATABLE_BOND>
2

> <PUBCHEM_CACTVS_SUBSKEYS>
AAADccByOABAAAAAAAAAAAAAAAAAAAAAAAAwAAAAAAAAAAABAAAAHgQQCAAACAiB0AAywYLAAIKIACVSUHDCAEAhAgAIiBgAZIgIICLAkZGEIAhglADIyAcQAAAAAAQAAAAAAAAACAAAAAAAAAAAAAAAAA==

> <PUBCHEM_IUPAC_OPENEYE_NAME>
4-acetamidobenzenesulfonic acid

> <PUBCHEM_IUPAC_CAS_NAME>
4-acetamidobenzenesulfonic acid

> <PUBCHEM_IUPAC_NAME>
4-acetamidobenzenesulfonic acid

> <PUBCHEM_IUPAC_SYSTEMATIC_NAME>
4-acetamidobenzenesulfonic acid

> <PUBCHEM_IUPAC_TRADITIONAL_NAME>
4-acetamidobesylic acid

> <PUBCHEM_IUPAC_INCHI>
InChI=1S/C8H9NO4S/c1-6(10)9-7-2-4-8(5-3-7)14(11,12)13/h2-5H,1H3,(H,9,10)(H,11,12,13)

> <PUBCHEM_IUPAC_INCHIKEY>
ZQPVMSLLKQTRMG-UHFFFAOYSA-N

> <PUBCHEM_XLOGP3>
0.1

> <PUBCHEM_EXACT_MASS>
215.025229

> <PUBCHEM_MOLECULAR_FORMULA>
C8H9NO4S

> <PUBCHEM_MOLECULAR_WEIGHT>
215.22636

> <PUBCHEM_OPENEYE_CAN_SMILES>
CC(=O)NC1=CC=C(C=C1)S(=O)(=O)O

> <PUBCHEM_OPENEYE_ISO_SMILES>
CC(=O)NC1=CC=C(C=C1)S(=O)(=O)O

> <PUBCHEM_CACTVS_TPSA>
91.8

> <PUBCHEM_MONOISOTOPIC_WEIGHT>
215.025229

> <PUBCHEM_TOTAL_CHARGE>
0

> <PUBCHEM_HEAVY_ATOM_COUNT>
14

> <PUBCHEM_ATOM_DEF_STEREO_COUNT>
0

> <PUBCHEM_ATOM_UDEF_STEREO_COUNT>
0

> <PUBCHEM_BOND_DEF_STEREO_COUNT>
0

> <PUBCHEM_BOND_UDEF_STEREO_COUNT>
0

> <PUBCHEM_ISOTOPIC_ATOM_COUNT>
0

> <PUBCHEM_COMPONENT_COUNT>
1

> <PUBCHEM_CACTVS_TAUTO_COUNT>
3

> <PUBCHEM_COORDINATE_TYPE>
1
5
255

> <PUBCHEM_BONDANNOTATIONS>
10  12  8
7  10  8
7  9  8
8  11  8
8  12  8
9  11  8

$$$$

