47205098
  -OEChem-06241222582D

 35 37  0     0  0  0  0  0  0999 V2000
    3.4088    0.6732    0.0000 O   0  0  0  0  0  0  0  0  0  0  0  0
    3.4088   -1.5738    0.0000 O   0  0  0  0  0  0  0  0  0  0  0  0
    6.8509    1.5738    0.0000 O   0  0  0  0  0  0  0  0  0  0  0  0
    7.7227    0.0772    0.0000 N   0  0  0  0  0  0  0  0  0  0  0  0
   10.3667    0.4941    0.0000 N   0  0  0  0  0  0  0  0  0  0  0  0
   11.0387   -0.2465    0.0000 N   0  0  0  0  0  0  0  0  0  0  0  0
    2.0000   -0.4503    0.0000 C   0  0  0  0  0  0  0  0  0  0  0  0
    2.4339    0.4506    0.0000 C   0  0  0  0  0  0  0  0  0  0  0  0
    2.4339   -1.3513    0.0000 C   0  0  0  0  0  0  0  0  0  0  0  0
    4.1906    0.0497    0.0000 C   0  0  0  0  0  0  0  0  0  0  0  0
    4.1906   -0.9503    0.0000 C   0  0  0  0  0  0  0  0  0  0  0  0
    5.9906    0.0705    0.0000 C   0  0  0  0  0  0  0  0  0  0  0  0
    5.0846    0.5843    0.0000 C   0  0  0  0  0  0  0  0  0  0  0  0
    5.0846   -1.4850    0.0000 C   0  0  0  0  0  0  0  0  0  0  0  0
    5.9906   -0.9711    0.0000 C   0  0  0  0  0  0  0  0  0  0  0  0
    8.5868    0.5805    0.0000 C   0  0  0  0  0  0  0  0  0  0  0  0
    6.8547    0.5738    0.0000 C   0  0  0  0  0  0  0  0  0  0  0  0
    9.4547    0.0838    0.0000 C   0  0  0  0  0  0  0  0  0  0  0  0
    9.5631   -0.9103    0.0000 C   0  0  0  0  0  0  0  0  0  0  0  0
   10.5420   -1.1144    0.0000 C   0  0  0  0  0  0  0  0  0  0  0  0
    1.5153   -0.0638    0.0000 H   0  0  0  0  0  0  0  0  0  0  0  0
    1.5153   -0.8369    0.0000 H   0  0  0  0  0  0  0  0  0  0  0  0
    2.4339    1.0706    0.0000 H   0  0  0  0  0  0  0  0  0  0  0  0
    1.8294    0.5886    0.0000 H   0  0  0  0  0  0  0  0  0  0  0  0
    1.8294   -1.4893    0.0000 H   0  0  0  0  0  0  0  0  0  0  0  0
    2.4339   -1.9713    0.0000 H   0  0  0  0  0  0  0  0  0  0  0  0
    5.0774    1.2043    0.0000 H   0  0  0  0  0  0  0  0  0  0  0  0
    5.0774   -2.1050    0.0000 H   0  0  0  0  0  0  0  0  0  0  0  0
    6.5264   -1.2832    0.0000 H   0  0  0  0  0  0  0  0  0  0  0  0
    8.9835    1.0570    0.0000 H   0  0  0  0  0  0  0  0  0  0  0  0
    8.1864    1.0539    0.0000 H   0  0  0  0  0  0  0  0  0  0  0  0
    7.7251   -0.5428    0.0000 H   0  0  0  0  0  0  0  0  0  0  0  0
    9.1039   -1.3269    0.0000 H   0  0  0  0  0  0  0  0  0  0  0  0
   10.4933    1.1010    0.0000 H   0  0  0  0  0  0  0  0  0  0  0  0
   10.7964   -1.6798    0.0000 H   0  0  0  0  0  0  0  0  0  0  0  0
  1  8  1  0  0  0  0
  1 10  1  0  0  0  0
  2  9  1  0  0  0  0
  2 11  1  0  0  0  0
  3 17  2  0  0  0  0
  4 16  1  0  0  0  0
  4 17  1  0  0  0  0
  4 32  1  0  0  0  0
  5  6  1  0  0  0  0
  5 18  1  0  0  0  0
  5 34  1  0  0  0  0
  6 20  2  0  0  0  0
  7  8  1  0  0  0  0
  7  9  1  0  0  0  0
  7 21  1  0  0  0  0
  7 22  1  0  0  0  0
  8 23  1  0  0  0  0
  8 24  1  0  0  0  0
  9 25  1  0  0  0  0
  9 26  1  0  0  0  0
 10 11  2  0  0  0  0
 10 13  1  0  0  0  0
 11 14  1  0  0  0  0
 12 13  2  0  0  0  0
 12 15  1  0  0  0  0
 12 17  1  0  0  0  0
 13 27  1  0  0  0  0
 14 15  2  0  0  0  0
 14 28  1  0  0  0  0
 15 29  1  0  0  0  0
 16 18  1  0  0  0  0
 16 30  1  0  0  0  0
 16 31  1  0  0  0  0
 18 19  2  0  0  0  0
 19 20  1  0  0  0  0
 19 33  1  0  0  0  0
 20 35  1  0  0  0  0
M  END
> <PUBCHEM_COMPOUND_CID>
47205098

> <PUBCHEM_COMPOUND_CANONICALIZED>
1

> <PUBCHEM_CACTVS_COMPLEXITY>
340

> <PUBCHEM_CACTVS_HBOND_ACCEPTOR>
4

> <PUBCHEM_CACTVS_HBOND_DONOR>
2

> <PUBCHEM_CACTVS_ROTATABLE_BOND>
3

> <PUBCHEM_CACTVS_SUBSKEYS>
AAADccBzMAAAAAAAAAAAAAAAAAAAAWAAAAAwAAAABIAAAAABwAAAHgAYAAAADAzhngY8hpLjBACqAzV3UACSDAAkogAYuaE+7NgNZrKE9duWvSrl3hGK6Ye63BLOIAABAAAAQABAAAIAAACAAAAAAAAAAA==

> <PUBCHEM_IUPAC_OPENEYE_NAME>
N-(1H-pyrazol-5-ylmethyl)-3,4-dihydro-2H-1,5-benzodioxepine-7-carboxamide

> <PUBCHEM_IUPAC_CAS_NAME>
N-(1H-pyrazol-5-ylmethyl)-3,4-dihydro-2H-1,5-benzodioxepin-7-carboxamide

> <PUBCHEM_IUPAC_NAME>
N-(1H-pyrazol-5-ylmethyl)-3,4-dihydro-2H-1,5-benzodioxepine-7-carboxamide

> <PUBCHEM_IUPAC_SYSTEMATIC_NAME>
N-(1H-pyrazol-5-ylmethyl)-3,4-dihydro-2H-1,5-benzodioxepine-7-carboxamide

> <PUBCHEM_IUPAC_TRADITIONAL_NAME>
N-(1H-pyrazol-5-ylmethyl)-3,4-dihydro-2H-1,5-benzodioxepin-7-carboxamide

> <PUBCHEM_IUPAC_INCHI>
InChI=1S/C14H15N3O3/c18-14(15-9-11-4-5-16-17-11)10-2-3-12-13(8-10)20-7-1-6-19-12/h2-5,8H,1,6-7,9H2,(H,15,18)(H,16,17)

> <PUBCHEM_IUPAC_INCHIKEY>
UOUUZZOFKSFVRL-UHFFFAOYSA-N

> <PUBCHEM_XLOGP3_AA>
1.1

> <PUBCHEM_EXACT_MASS>
273.111341

> <PUBCHEM_MOLECULAR_FORMULA>
C14H15N3O3

> <PUBCHEM_MOLECULAR_WEIGHT>
273.2872

> <PUBCHEM_OPENEYE_CAN_SMILES>
C1COC2=C(C=C(C=C2)C(=O)NCC3=CC=NN3)OC1

> <PUBCHEM_OPENEYE_ISO_SMILES>
C1COC2=C(C=C(C=C2)C(=O)NCC3=CC=NN3)OC1

> <PUBCHEM_CACTVS_TPSA>
76.2

> <PUBCHEM_MONOISOTOPIC_WEIGHT>
273.111341

> <PUBCHEM_TOTAL_CHARGE>
0

> <PUBCHEM_HEAVY_ATOM_COUNT>
20

> <PUBCHEM_ATOM_DEF_STEREO_COUNT>
0

> <PUBCHEM_ATOM_UDEF_STEREO_COUNT>
0

> <PUBCHEM_BOND_DEF_STEREO_COUNT>
0

> <PUBCHEM_BOND_UDEF_STEREO_COUNT>
0

> <PUBCHEM_ISOTOPIC_ATOM_COUNT>
0

> <PUBCHEM_COMPONENT_COUNT>
1

> <PUBCHEM_CACTVS_TAUTO_COUNT>
4

> <PUBCHEM_COORDINATE_TYPE>
1
5
255

> <PUBCHEM_BONDANNOTATIONS>
10  11  8
10  13  8
11  14  8
12  13  8
12  15  8
14  15  8
18  19  8
19  20  8
5  18  8
5  6  8
6  20  8

$$$$

