7251
  -OEChem-06261201563D

 17 17  0     0  0  0  0  0  0999 V2000
    3.2230   -0.4272   -0.0007 Cl  0  0  0  0  0  0  0  0  0  0  0  0
   -2.5565    0.8687   -0.0001 N   0  0  0  0  0  0  0  0  0  0  0  0
   -0.7614   -0.7848    0.0005 C   0  0  0  0  0  0  0  0  0  0  0  0
   -1.1818    0.5452    0.0000 C   0  0  0  0  0  0  0  0  0  0  0  0
    0.6007   -1.0858    0.0007 C   0  0  0  0  0  0  0  0  0  0  0  0
   -0.2400    1.5742   -0.0002 C   0  0  0  0  0  0  0  0  0  0  0  0
   -1.7483   -1.9067   -0.0006 C   0  0  0  0  0  0  0  0  0  0  0  0
    1.5423   -0.0568    0.0003 C   0  0  0  0  0  0  0  0  0  0  0  0
    1.1220    1.2732    0.0001 C   0  0  0  0  0  0  0  0  0  0  0  0
    0.9316   -2.1219    0.0007 H   0  0  0  0  0  0  0  0  0  0  0  0
   -0.5539    2.6150   -0.0005 H   0  0  0  0  0  0  0  0  0  0  0  0
   -1.2538   -2.8843    0.0005 H   0  0  0  0  0  0  0  0  0  0  0  0
   -2.3804   -1.8633    0.8925 H   0  0  0  0  0  0  0  0  0  0  0  0
   -2.3777   -1.8638   -0.8958 H   0  0  0  0  0  0  0  0  0  0  0  0
    1.8446    2.0853   -0.0003 H   0  0  0  0  0  0  0  0  0  0  0  0
   -2.8418    1.8393   -0.0011 H   0  0  0  0  0  0  0  0  0  0  0  0
   -3.2618    0.1453   -0.0007 H   0  0  0  0  0  0  0  0  0  0  0  0
  1  8  1  0  0  0  0
  2  4  1  0  0  0  0
  2 16  1  0  0  0  0
  2 17  1  0  0  0  0
  3  4  2  0  0  0  0
  3  5  1  0  0  0  0
  3  7  1  0  0  0  0
  4  6  1  0  0  0  0
  5  8  2  0  0  0  0
  5 10  1  0  0  0  0
  6  9  2  0  0  0  0
  6 11  1  0  0  0  0
  7 12  1  0  0  0  0
  7 13  1  0  0  0  0
  7 14  1  0  0  0  0
  8  9  1  0  0  0  0
  9 15  1  0  0  0  0
M  END
> <PUBCHEM_COMPOUND_CID>
7251

> <PUBCHEM_CONFORMER_RMSD>
0.4

> <PUBCHEM_CONFORMER_DIVERSEORDER>
1

> <PUBCHEM_MMFF94_PARTIAL_CHARGES>
14
1 -0.18
10 0.15
11 0.15
15 0.15
16 0.4
17 0.4
2 -0.9
3 -0.14
4 0.1
5 -0.15
6 -0.15
7 0.14
8 0.18
9 -0.15

> <PUBCHEM_EFFECTIVE_ROTOR_COUNT>
0

> <PUBCHEM_PHARMACOPHORE_FEATURES>
3
1 2 cation
1 2 donor
6 3 4 5 6 8 9 rings

> <PUBCHEM_HEAVY_ATOM_COUNT>
9

> <PUBCHEM_ATOM_DEF_STEREO_COUNT>
0

> <PUBCHEM_ATOM_UDEF_STEREO_COUNT>
0

> <PUBCHEM_BOND_DEF_STEREO_COUNT>
0

> <PUBCHEM_BOND_UDEF_STEREO_COUNT>
0

> <PUBCHEM_ISOTOPIC_ATOM_COUNT>
0

> <PUBCHEM_COMPONENT_COUNT>
1

> <PUBCHEM_CACTVS_TAUTO_COUNT>
1

> <PUBCHEM_CONFORMER_ID>
00001C5300000001

> <PUBCHEM_MMFF94_ENERGY>
30.9328

> <PUBCHEM_FEATURE_SELFOVERLAP>
15.223

> <PUBCHEM_SHAPE_FINGERPRINT>
14128692 85 18339918195788464612
15310529 11 16630245917319384864
16714656 1 18339359776904305604
16945 1 18410856611290309828
18185500 45 18413673512846529274
193761 8 18122343480209015621
20871998 184 18259983747499007310
21040471 1 18338517559386988133
23235685 24 18336833107552188256
23402655 69 17977966892725745517
23552423 10 18200875050535473054
2748010 2 18265900163659401508
5084963 1 18116146679961682594

> <PUBCHEM_SHAPE_MULTIPOLES>
182.1
3.47
1.81
0.61
1.63
0.1
0
0.59
0
-0.74
0
0.04
0.01
0

> <PUBCHEM_SHAPE_SELFOVERLAP>
367.817

> <PUBCHEM_SHAPE_VOLUME>
108.3

> <PUBCHEM_COORDINATE_TYPE>
2
5
10

$$$$

