17396263
  -OEChem-06241222552D

 43 45  0     1  0  0  0  0  0999 V2000
    4.3211    0.3240    0.0000 O   0  0  0  0  0  0  0  0  0  0  0  0
    6.8994    2.6375    0.0000 O   0  0  0  0  0  0  0  0  0  0  0  0
    4.6783   -1.3708    0.0000 N   0  0  0  0  0  0  0  0  0  0  0  0
    5.6103    1.4807    0.0000 N   0  0  0  0  0  0  0  0  0  0  0  0
    5.2619   -2.1756    0.0000 C   0  0  0  0  0  0  0  0  0  0  0  0
    4.6783   -2.9803    0.0000 C   0  0  0  0  0  0  0  0  0  0  0  0
    3.7320   -1.6756    0.0000 C   0  0  0  0  0  0  0  0  0  0  0  0
    3.7320   -2.6756    0.0000 C   0  0  0  0  0  0  0  0  0  0  0  0
    5.9674   -0.2141    0.0000 C   0  0  0  0  0  0  0  0  0  0  0  0
    6.2781    0.7364    0.0000 C   0  0  3  0  0  0  0  0  0  0  0  0
    4.9889   -0.4203    0.0000 C   0  0  0  0  0  0  0  0  0  0  0  0
    2.8660   -1.1756    0.0000 C   0  0  0  0  0  0  0  0  0  0  0  0
    2.8660   -3.1756    0.0000 C   0  0  0  0  0  0  0  0  0  0  0  0
    7.2566    0.9427    0.0000 C   0  0  0  0  0  0  0  0  0  0  0  0
    2.0000   -1.6756    0.0000 C   0  0  0  0  0  0  0  0  0  0  0  0
    2.0000   -2.6756    0.0000 C   0  0  0  0  0  0  0  0  0  0  0  0
    7.9244    0.1984    0.0000 C   0  0  0  0  0  0  0  0  0  0  0  0
    7.5673    1.8932    0.0000 C   0  0  0  0  0  0  0  0  0  0  0  0
    5.9209    2.4313    0.0000 C   0  0  0  0  0  0  0  0  0  0  0  0
    8.9030    0.4046    0.0000 C   0  0  0  0  0  0  0  0  0  0  0  0
    8.5458    2.0994    0.0000 C   0  0  0  0  0  0  0  0  0  0  0  0
    9.2136    1.3551    0.0000 C   0  0  0  0  0  0  0  0  0  0  0  0
    5.2531    3.1756    0.0000 C   0  0  0  0  0  0  0  0  0  0  0  0
    5.7227   -2.5903    0.0000 H   0  0  0  0  0  0  0  0  0  0  0  0
    5.7227   -1.7608    0.0000 H   0  0  0  0  0  0  0  0  0  0  0  0
    4.4272   -3.5472    0.0000 H   0  0  0  0  0  0  0  0  0  0  0  0
    5.2156   -3.2895    0.0000 H   0  0  0  0  0  0  0  0  0  0  0  0
    5.9880   -0.8337    0.0000 H   0  0  0  0  0  0  0  0  0  0  0  0
    6.5812   -0.3014    0.0000 H   0  0  0  0  0  0  0  0  0  0  0  0
    5.6714    0.6086    0.0000 H   0  0  0  0  0  0  0  0  0  0  0  0
    2.8660   -0.5556    0.0000 H   0  0  0  0  0  0  0  0  0  0  0  0
    2.8660   -3.7956    0.0000 H   0  0  0  0  0  0  0  0  0  0  0  0
    5.0036    1.3529    0.0000 H   0  0  0  0  0  0  0  0  0  0  0  0
    1.4631   -1.3656    0.0000 H   0  0  0  0  0  0  0  0  0  0  0  0
    1.4631   -2.9856    0.0000 H   0  0  0  0  0  0  0  0  0  0  0  0
    7.7318   -0.3910    0.0000 H   0  0  0  0  0  0  0  0  0  0  0  0
    7.1532    2.3546    0.0000 H   0  0  0  0  0  0  0  0  0  0  0  0
    9.3170   -0.0569    0.0000 H   0  0  0  0  0  0  0  0  0  0  0  0
    8.7384    2.6887    0.0000 H   0  0  0  0  0  0  0  0  0  0  0  0
    9.8203    1.4830    0.0000 H   0  0  0  0  0  0  0  0  0  0  0  0
    5.7145    3.5896    0.0000 H   0  0  0  0  0  0  0  0  0  0  0  0
    4.8390    3.6370    0.0000 H   0  0  0  0  0  0  0  0  0  0  0  0
    4.7916    2.7615    0.0000 H   0  0  0  0  0  0  0  0  0  0  0  0
  1 11  2  0  0  0  0
  2 19  2  0  0  0  0
  3  5  1  0  0  0  0
  3  7  1  0  0  0  0
  3 11  1  0  0  0  0
  4 10  1  0  0  0  0
  4 19  1  0  0  0  0
  4 33  1  0  0  0  0
  5  6  1  0  0  0  0
  5 24  1  0  0  0  0
  5 25  1  0  0  0  0
  6  8  1  0  0  0  0
  6 26  1  0  0  0  0
  6 27  1  0  0  0  0
  7  8  1  0  0  0  0
  7 12  2  0  0  0  0
  8 13  2  0  0  0  0
  9 10  1  0  0  0  0
  9 11  1  0  0  0  0
  9 28  1  0  0  0  0
  9 29  1  0  0  0  0
 10 14  1  0  0  0  0
 10 30  1  0  0  0  0
 12 15  1  0  0  0  0
 12 31  1  0  0  0  0
 13 16  1  0  0  0  0
 13 32  1  0  0  0  0
 14 17  2  0  0  0  0
 14 18  1  0  0  0  0
 15 16  2  0  0  0  0
 15 34  1  0  0  0  0
 16 35  1  0  0  0  0
 17 20  1  0  0  0  0
 17 36  1  0  0  0  0
 18 21  2  0  0  0  0
 18 37  1  0  0  0  0
 19 23  1  0  0  0  0
 20 22  2  0  0  0  0
 20 38  1  0  0  0  0
 21 22  1  0  0  0  0
 21 39  1  0  0  0  0
 22 40  1  0  0  0  0
 23 41  1  0  0  0  0
 23 42  1  0  0  0  0
 23 43  1  0  0  0  0
M  END
> <PUBCHEM_COMPOUND_CID>
17396263

> <PUBCHEM_COMPOUND_CANONICALIZED>
1

> <PUBCHEM_CACTVS_COMPLEXITY>
431

> <PUBCHEM_CACTVS_HBOND_ACCEPTOR>
2

> <PUBCHEM_CACTVS_HBOND_DONOR>
1

> <PUBCHEM_CACTVS_ROTATABLE_BOND>
4

> <PUBCHEM_CACTVS_SUBSKEYS>
AAADceB7MAAAAAAAAAAAAAAAAAAAAWAAAAAwYAAAAAAAAFgBQAAAHgAQAAAADCjBmAQywIPAAACIAiVSUACCAAAhAgAIiIEIZIgIIDrA0ZGEIAhglgDIyAcYiICOAAAAAAACAAAAAAAAAAQAAAAAAAAAAA==

> <PUBCHEM_IUPAC_OPENEYE_NAME>
N-(3-indolin-1-yl-3-oxo-1-phenyl-propyl)acetamide

> <PUBCHEM_IUPAC_CAS_NAME>
N-[3-(2,3-dihydroindol-1-yl)-3-oxo-1-phenylpropyl]acetamide

> <PUBCHEM_IUPAC_NAME>
N-[3-(2,3-dihydroindol-1-yl)-3-oxo-1-phenylpropyl]acetamide

> <PUBCHEM_IUPAC_SYSTEMATIC_NAME>
N-[3-(2,3-dihydroindol-1-yl)-3-oxidanylidene-1-phenyl-propyl]ethanamide

> <PUBCHEM_IUPAC_TRADITIONAL_NAME>
N-(3-indolin-1-yl-3-keto-1-phenyl-propyl)acetamide

> <PUBCHEM_IUPAC_INCHI>
InChI=1S/C19H20N2O2/c1-14(22)20-17(15-7-3-2-4-8-15)13-19(23)21-12-11-16-9-5-6-10-18(16)21/h2-10,17H,11-13H2,1H3,(H,20,22)

> <PUBCHEM_IUPAC_INCHIKEY>
JWRHGDLCIQAWKS-UHFFFAOYSA-N

> <PUBCHEM_XLOGP3_AA>
2.1

> <PUBCHEM_EXACT_MASS>
308.152478

> <PUBCHEM_MOLECULAR_FORMULA>
C19H20N2O2

> <PUBCHEM_MOLECULAR_WEIGHT>
308.3743

> <PUBCHEM_OPENEYE_CAN_SMILES>
CC(=O)NC(CC(=O)N1CCC2=CC=CC=C21)C3=CC=CC=C3

> <PUBCHEM_OPENEYE_ISO_SMILES>
CC(=O)NC(CC(=O)N1CCC2=CC=CC=C21)C3=CC=CC=C3

> <PUBCHEM_CACTVS_TPSA>
49.4

> <PUBCHEM_MONOISOTOPIC_WEIGHT>
308.152478

> <PUBCHEM_TOTAL_CHARGE>
0

> <PUBCHEM_HEAVY_ATOM_COUNT>
23

> <PUBCHEM_ATOM_DEF_STEREO_COUNT>
0

> <PUBCHEM_ATOM_UDEF_STEREO_COUNT>
1

> <PUBCHEM_BOND_DEF_STEREO_COUNT>
0

> <PUBCHEM_BOND_UDEF_STEREO_COUNT>
0

> <PUBCHEM_ISOTOPIC_ATOM_COUNT>
0

> <PUBCHEM_COMPONENT_COUNT>
1

> <PUBCHEM_CACTVS_TAUTO_COUNT>
2

> <PUBCHEM_COORDINATE_TYPE>
1
5
255

> <PUBCHEM_BONDANNOTATIONS>
12  15  8
13  16  8
14  17  8
14  18  8
15  16  8
17  20  8
18  21  8
20  22  8
21  22  8
7  12  8
7  8  8
8  13  8
10  9  3

$$$$

