9123
  -OEChem-06261203252D

 50 57  0     0  0  0  0  0  0999 V2000
    5.7364   -0.1487    0.0000 C   0  0  0  0  0  0  0  0  0  0  0  0
    4.8703    0.3513    0.0000 C   0  0  0  0  0  0  0  0  0  0  0  0
    6.6024    0.3513    0.0000 C   0  0  0  0  0  0  0  0  0  0  0  0
    4.8703    1.3513    0.0000 C   0  0  0  0  0  0  0  0  0  0  0  0
    5.7524   -1.1902    0.0000 C   0  0  0  0  0  0  0  0  0  0  0  0
    3.9603   -0.1555    0.0000 C   0  0  0  0  0  0  0  0  0  0  0  0
    6.6024    1.3513    0.0000 C   0  0  0  0  0  0  0  0  0  0  0  0
    5.7364    1.8513    0.0000 C   0  0  0  0  0  0  0  0  0  0  0  0
    4.8544   -1.7179    0.0000 C   0  0  0  0  0  0  0  0  0  0  0  0
    3.9523   -1.1971    0.0000 C   0  0  0  0  0  0  0  0  0  0  0  0
    7.4618   -0.1435    0.0000 C   0  0  0  0  0  0  0  0  0  0  0  0
    4.0121    1.8482    0.0000 C   0  0  0  0  0  0  0  0  0  0  0  0
    6.6295   -1.6529    0.0000 C   0  0  0  0  0  0  0  0  0  0  0  0
    3.1210    0.3727    0.0000 C   0  0  0  0  0  0  0  0  0  0  0  0
    7.5124    1.8582    0.0000 C   0  0  0  0  0  0  0  0  0  0  0  0
    5.7203    2.8928    0.0000 C   0  0  0  0  0  0  0  0  0  0  0  0
    4.8711   -2.8028    0.0000 C   0  0  0  0  0  0  0  0  0  0  0  0
    3.0044   -1.7251    0.0000 C   0  0  0  0  0  0  0  0  0  0  0  0
    7.5204    2.8998    0.0000 C   0  0  0  0  0  0  0  0  0  0  0  0
    6.6183    3.4206    0.0000 C   0  0  0  0  0  0  0  0  0  0  0  0
    3.9357   -3.3525    0.0000 C   0  0  0  0  0  0  0  0  0  0  0  0
    2.9961   -2.8100    0.0000 C   0  0  0  0  0  0  0  0  0  0  0  0
    7.4753   -1.1351    0.0000 C   0  0  0  0  0  0  0  0  0  0  0  0
    3.1466    1.3641    0.0000 C   0  0  0  0  0  0  0  0  0  0  0  0
    8.4683    3.4277    0.0000 C   0  0  0  0  0  0  0  0  0  0  0  0
    6.6016    4.5054    0.0000 C   0  0  0  0  0  0  0  0  0  0  0  0
    3.9531   -4.4826    0.0000 C   0  0  0  0  0  0  0  0  0  0  0  0
    2.0087   -3.3600    0.0000 C   0  0  0  0  0  0  0  0  0  0  0  0
    8.4767    4.5127    0.0000 C   0  0  0  0  0  0  0  0  0  0  0  0
    7.5370    5.0552    0.0000 C   0  0  0  0  0  0  0  0  0  0  0  0
    2.9787   -5.0552    0.0000 C   0  0  0  0  0  0  0  0  0  0  0  0
    2.0000   -4.4901    0.0000 C   0  0  0  0  0  0  0  0  0  0  0  0
    4.0167    2.4682    0.0000 H   0  0  0  0  0  0  0  0  0  0  0  0
    7.9965    0.1705    0.0000 H   0  0  0  0  0  0  0  0  0  0  0  0
    2.5744    0.0800    0.0000 H   0  0  0  0  0  0  0  0  0  0  0  0
    6.6494   -2.2726    0.0000 H   0  0  0  0  0  0  0  0  0  0  0  0
    8.0457    1.5420    0.0000 H   0  0  0  0  0  0  0  0  0  0  0  0
    5.1798    3.1966    0.0000 H   0  0  0  0  0  0  0  0  0  0  0  0
    5.4116   -3.1066    0.0000 H   0  0  0  0  0  0  0  0  0  0  0  0
    2.4711   -1.4089    0.0000 H   0  0  0  0  0  0  0  0  0  0  0  0
    2.6159    1.6846    0.0000 H   0  0  0  0  0  0  0  0  0  0  0  0
    8.0182   -1.4344    0.0000 H   0  0  0  0  0  0  0  0  0  0  0  0
    6.0611    4.8092    0.0000 H   0  0  0  0  0  0  0  0  0  0  0  0
    9.0016    3.1115    0.0000 H   0  0  0  0  0  0  0  0  0  0  0  0
    1.4754   -3.0438    0.0000 H   0  0  0  0  0  0  0  0  0  0  0  0
    4.4936   -4.7863    0.0000 H   0  0  0  0  0  0  0  0  0  0  0  0
    9.0148    4.8206    0.0000 H   0  0  0  0  0  0  0  0  0  0  0  0
    7.5346    5.6752    0.0000 H   0  0  0  0  0  0  0  0  0  0  0  0
    2.9811   -5.6752    0.0000 H   0  0  0  0  0  0  0  0  0  0  0  0
    1.4619   -4.7980    0.0000 H   0  0  0  0  0  0  0  0  0  0  0  0
  1  2  1  0  0  0  0
  1  3  2  0  0  0  0
  1  5  1  0  0  0  0
  2  4  2  0  0  0  0
  2  6  1  0  0  0  0
  3  7  1  0  0  0  0
  3 11  1  0  0  0  0
  4  8  1  0  0  0  0
  4 12  1  0  0  0  0
  5  9  1  0  0  0  0
  5 13  2  0  0  0  0
  6 10  1  0  0  0  0
  6 14  2  0  0  0  0
  7  8  1  0  0  0  0
  7 15  2  0  0  0  0
  8 16  2  0  0  0  0
  9 10  1  0  0  0  0
  9 17  2  0  0  0  0
 10 18  2  0  0  0  0
 11 23  2  0  0  0  0
 11 34  1  0  0  0  0
 12 24  2  0  0  0  0
 12 33  1  0  0  0  0
 13 23  1  0  0  0  0
 13 36  1  0  0  0  0
 14 24  1  0  0  0  0
 14 35  1  0  0  0  0
 15 19  1  0  0  0  0
 15 37  1  0  0  0  0
 16 20  1  0  0  0  0
 16 38  1  0  0  0  0
 17 21  1  0  0  0  0
 17 39  1  0  0  0  0
 18 22  1  0  0  0  0
 18 40  1  0  0  0  0
 19 20  1  0  0  0  0
 19 25  2  0  0  0  0
 20 26  2  0  0  0  0
 21 22  1  0  0  0  0
 21 27  2  0  0  0  0
 22 28  2  0  0  0  0
 23 42  1  0  0  0  0
 24 41  1  0  0  0  0
 25 29  1  0  0  0  0
 25 44  1  0  0  0  0
 26 30  1  0  0  0  0
 26 43  1  0  0  0  0
 27 31  1  0  0  0  0
 27 46  1  0  0  0  0
 28 32  1  0  0  0  0
 28 45  1  0  0  0  0
 29 30  2  0  0  0  0
 29 47  1  0  0  0  0
 30 48  1  0  0  0  0
 31 32  2  0  0  0  0
 31 49  1  0  0  0  0
 32 50  1  0  0  0  0
M  END
> <PUBCHEM_COMPOUND_CID>
9123

> <PUBCHEM_COMPOUND_CANONICALIZED>
1

> <PUBCHEM_CACTVS_COMPLEXITY>
593

> <PUBCHEM_CACTVS_HBOND_ACCEPTOR>
0

> <PUBCHEM_CACTVS_HBOND_DONOR>
0

> <PUBCHEM_CACTVS_ROTATABLE_BOND>
0

> <PUBCHEM_CACTVS_SUBSKEYS>
AAADceB8AAAAAAAAAAAAAAAAAAAAAAAAAAAwYMGDAAAAAADBVAAAGAAAAAAADACAGAAwAMAAAACAAiBCAAACAAAgAAAIiAAAAIgIICKAERCAIAAggAAIiAcAgMAOwAACAAAQAACAAAQAACAAAAAAAAAAAA==

> <PUBCHEM_IUPAC_INCHI>
InChI=1S/C32H18/c1-2-8-20-16-28-24-12-6-14-26-30-18-22-10-4-3-9-21(22)17-29(30)25-13-5-11-23(31(25)32(24)26)27(28)15-19(20)7-1/h1-18H

> <PUBCHEM_IUPAC_INCHIKEY>
TUYQPBKESNTOKG-UHFFFAOYSA-N

> <PUBCHEM_XLOGP3>
9.3

> <PUBCHEM_EXACT_MASS>
402.140851

> <PUBCHEM_MOLECULAR_FORMULA>
C32H18

> <PUBCHEM_MOLECULAR_WEIGHT>
402.48532

> <PUBCHEM_OPENEYE_CAN_SMILES>
C1=CC=C2C=C3C4=C5C(=CC=C4)C6=CC7=CC=CC=C7C=C6C8=CC=CC(=C85)C3=CC2=C1

> <PUBCHEM_OPENEYE_ISO_SMILES>
C1=CC=C2C=C3C4=C5C(=CC=C4)C6=CC7=CC=CC=C7C=C6C8=CC=CC(=C85)C3=CC2=C1

> <PUBCHEM_CACTVS_TPSA>
0

> <PUBCHEM_MONOISOTOPIC_WEIGHT>
402.140851

> <PUBCHEM_TOTAL_CHARGE>
0

> <PUBCHEM_HEAVY_ATOM_COUNT>
32

> <PUBCHEM_ATOM_DEF_STEREO_COUNT>
0

> <PUBCHEM_ATOM_UDEF_STEREO_COUNT>
0

> <PUBCHEM_BOND_DEF_STEREO_COUNT>
0

> <PUBCHEM_BOND_UDEF_STEREO_COUNT>
0

> <PUBCHEM_ISOTOPIC_ATOM_COUNT>
0

> <PUBCHEM_COMPONENT_COUNT>
1

> <PUBCHEM_CACTVS_TAUTO_COUNT>
1

> <PUBCHEM_COORDINATE_TYPE>
1
5
255

> <PUBCHEM_BONDANNOTATIONS>
1  2  8
1  3  8
1  5  8
10  18  8
11  23  8
12  24  8
13  23  8
14  24  8
15  19  8
16  20  8
17  21  8
18  22  8
19  20  8
19  25  8
2  4  8
2  6  8
20  26  8
21  22  8
21  27  8
22  28  8
25  29  8
26  30  8
27  31  8
28  32  8
29  30  8
3  11  8
3  7  8
31  32  8
4  12  8
4  8  8
5  13  8
5  9  8
6  10  8
6  14  8
7  15  8
7  8  8
8  16  8
9  10  8
9  17  8

$$$$

