3363
  -OEChem-06251223223D

 28 29  0     1  0  0  0  0  0999 V2000
   -2.4690    2.4382    0.8719 F   0  0  0  0  0  0  0  0  0  0  0  0
    1.5087    0.3438   -0.7932 O   0  0  0  0  0  0  0  0  0  0  0  0
    3.4856   -0.8905    1.9363 O   0  0  0  0  0  0  0  0  0  0  0  0
    3.5869    2.1814   -1.2650 O   0  0  0  0  0  0  0  0  0  0  0  0
   -1.4506   -2.5294   -1.0072 O   0  0  0  0  0  0  0  0  0  0  0  0
   -4.4794    0.7077    0.2766 O   0  0  0  0  0  0  0  0  0  0  0  0
   -0.6211   -0.4754   -0.2600 N   0  0  0  0  0  0  0  0  0  0  0  0
   -2.9576   -0.9183   -0.3672 N   0  0  0  0  0  0  0  0  0  0  0  0
    2.8250   -0.9378    0.6892 C   0  0  1  0  0  0  0  0  0  0  0  0
    0.7594   -0.8253   -0.4249 C   0  0  2  0  0  0  0  0  0  0  0  0
    1.3879   -1.3753    0.8424 C   0  0  0  0  0  0  0  0  0  0  0  0
    2.6529    0.4406    0.0714 C   0  0  1  0  0  0  0  0  0  0  0  0
    3.8590    0.8985   -0.7293 C   0  0  0  0  0  0  0  0  0  0  0  0
   -1.6527   -1.3918   -0.5765 C   0  0  0  0  0  0  0  0  0  0  0  0
   -0.9306    0.7910    0.2200 C   0  0  0  0  0  0  0  0  0  0  0  0
   -2.1805    1.2092    0.4069 C   0  0  0  0  0  0  0  0  0  0  0  0
   -3.3239    0.3334    0.1087 C   0  0  0  0  0  0  0  0  0  0  0  0
    3.3576   -1.6235    0.0194 H   0  0  0  0  0  0  0  0  0  0  0  0
    0.8639   -1.5486   -1.2423 H   0  0  0  0  0  0  0  0  0  0  0  0
    1.2759   -2.4603    0.9346 H   0  0  0  0  0  0  0  0  0  0  0  0
    0.9495   -0.9373    1.7486 H   0  0  0  0  0  0  0  0  0  0  0  0
    2.4202    1.1930    0.8359 H   0  0  0  0  0  0  0  0  0  0  0  0
    4.0651    0.2243   -1.5671 H   0  0  0  0  0  0  0  0  0  0  0  0
    4.7525    0.9669   -0.1023 H   0  0  0  0  0  0  0  0  0  0  0  0
    4.3753   -0.5295    1.7836 H   0  0  0  0  0  0  0  0  0  0  0  0
   -0.1123    1.4563    0.4687 H   0  0  0  0  0  0  0  0  0  0  0  0
   -3.7132   -1.5608   -0.5883 H   0  0  0  0  0  0  0  0  0  0  0  0
    2.7883    2.1070   -1.8151 H   0  0  0  0  0  0  0  0  0  0  0  0
  1 16  1  0  0  0  0
  2 10  1  0  0  0  0
  2 12  1  0  0  0  0
  3  9  1  0  0  0  0
  3 25  1  0  0  0  0
  4 13  1  0  0  0  0
  4 28  1  0  0  0  0
  5 14  2  0  0  0  0
  6 17  2  0  0  0  0
  7 10  1  0  0  0  0
  7 14  1  0  0  0  0
  7 15  1  0  0  0  0
  8 14  1  0  0  0  0
  8 17  1  0  0  0  0
  8 27  1  0  0  0  0
  9 11  1  0  0  0  0
  9 12  1  0  0  0  0
  9 18  1  0  0  0  0
 10 11  1  0  0  0  0
 10 19  1  0  0  0  0
 11 20  1  0  0  0  0
 11 21  1  0  0  0  0
 12 13  1  0  0  0  0
 12 22  1  0  0  0  0
 13 23  1  0  0  0  0
 13 24  1  0  0  0  0
 15 16  2  0  0  0  0
 15 26  1  0  0  0  0
 16 17  1  0  0  0  0
M  END
> <PUBCHEM_COMPOUND_CID>
3363

> <PUBCHEM_CONFORMER_RMSD>
0.6

> <PUBCHEM_CONFORMER_DIVERSEORDER>
2
45
17
18
38
13
60
42
31
40
47
55
53
64
37
23
62
59
30
3
27
22
20
65
41
19
50
1
46
14
36
29
57
63
49
33
5
4
15
32
11
54
61
28
9
25
44
24
48
6
8
43
56
39
58
7
35
34
16
10
51
21
52
12
26

> <PUBCHEM_MMFF94_PARTIAL_CHARGES>
20
1 -0.15
10 0.58
12 0.28
13 0.28
14 0.69
15 -0.04
16 0.16
17 0.62
2 -0.56
25 0.4
26 0.15
27 0.37
28 0.4
3 -0.68
4 -0.68
5 -0.57
6 -0.57
7 -0.47
8 -0.49
9 0.28

> <PUBCHEM_EFFECTIVE_ROTOR_COUNT>
3

> <PUBCHEM_PHARMACOPHORE_FEATURES>
10
1 2 acceptor
1 3 acceptor
1 3 donor
1 4 acceptor
1 4 donor
1 5 acceptor
1 6 acceptor
1 8 donor
5 2 9 10 11 12 rings
6 7 8 14 15 16 17 rings

> <PUBCHEM_HEAVY_ATOM_COUNT>
17

> <PUBCHEM_ATOM_DEF_STEREO_COUNT>
0

> <PUBCHEM_ATOM_UDEF_STEREO_COUNT>
3

> <PUBCHEM_BOND_DEF_STEREO_COUNT>
0

> <PUBCHEM_BOND_UDEF_STEREO_COUNT>
0

> <PUBCHEM_ISOTOPIC_ATOM_COUNT>
0

> <PUBCHEM_COMPONENT_COUNT>
1

> <PUBCHEM_CACTVS_TAUTO_COUNT>
3

> <PUBCHEM_CONFORMER_ID>
00000D2300000002

> <PUBCHEM_MMFF94_ENERGY>
39.6378

> <PUBCHEM_FEATURE_SELFOVERLAP>
50.747

> <PUBCHEM_SHAPE_FINGERPRINT>
11132069 177 17967821565321933123
11640471 11 18271794697215059356
12173636 292 18259990400545598149
12251169 10 18340215188366237554
12553582 1 17756998804694362695
13538477 17 18410017606524613414
14787075 74 17553188913937025259
15279307 12 18412263934766501134
15342168 16 17345741976613349868
15669948 3 18261678064741810767
15775835 57 18413102849158328588
16945 1 18187089429364928903
17846911 113 18041287655287803555
1813 80 17771910704166545706
18186145 218 18059860558301611758
201361 129 18272365386973510088
20510252 161 17895191160096378105
20559304 39 18339082691568690522
2255824 54 18060702814621535922
22854114 111 18202846547903943544
23048698 100 18060420235120486929
23236772 104 18271524191400056699
23402539 116 17969241047755119909
23557571 272 17024041354036517674
23559900 14 17967807288835012358
23598291 2 18342183279994415006
23598294 1 18263085418277381211
2748010 2 17972871746835081631
4340502 62 17203320092700629057
474 4 17702094777739710700
53812653 8 18335697252158865543
7097593 13 18197231445079482338
7615 1 18269291113628350622
77492 1 18342465819869716398
88987 49 18040724636404181726
9981440 41 17547288901085091360

> <PUBCHEM_SHAPE_MULTIPOLES>
303.27
7.22
2.08
1.12
0.02
0.18
0.22
2.56
0.4
-0.23
-0.26
0.92
-0.12
-1.89

> <PUBCHEM_SHAPE_SELFOVERLAP>
639.557

> <PUBCHEM_SHAPE_VOLUME>
170.7

> <PUBCHEM_COORDINATE_TYPE>
2
5
10

$$$$

