17395348
  -OEChem-06241222492D

 51 53  0     0  0  0  0  0  0999 V2000
    5.7788    1.0550    0.0000 O   0  0  0  0  0  0  0  0  0  0  0  0
    7.8479   -1.7929    0.0000 O   0  0  0  0  0  0  0  0  0  0  0  0
    8.8659   -1.0186    0.0000 O   0  0  0  0  0  0  0  0  0  0  0  0
   11.1885    1.7393    0.0000 O   0  0  0  0  0  0  0  0  0  0  0  0
    6.0878   -1.5141    0.0000 N   0  0  0  0  0  0  0  0  0  0  0  0
    7.0388   -0.2051    0.0000 N   0  0  0  0  0  0  0  0  0  0  0  0
    9.5704    0.5638    0.0000 N   0  0  0  0  0  0  0  0  0  0  0  0
    5.5000   -0.7051    0.0000 C   0  0  0  0  0  0  0  0  0  0  0  0
    3.5000   -0.7051    0.0000 C   0  0  0  0  0  0  0  0  0  0  0  0
    5.0000   -1.5711    0.0000 C   0  0  0  0  0  0  0  0  0  0  0  0
    5.0000    0.1609    0.0000 C   0  0  0  0  0  0  0  0  0  0  0  0
    4.0000    0.1609    0.0000 C   0  0  0  0  0  0  0  0  0  0  0  0
    4.0000   -1.5711    0.0000 C   0  0  0  0  0  0  0  0  0  0  0  0
    6.0878    0.1039    0.0000 C   0  0  0  0  0  0  0  0  0  0  0  0
    2.5000   -0.7051    0.0000 C   0  0  0  0  0  0  0  0  0  0  0  0
    7.0388   -1.2051    0.0000 C   0  0  0  0  0  0  0  0  0  0  0  0
    2.0000   -1.5711    0.0000 C   0  0  0  0  0  0  0  0  0  0  0  0
    7.8479    0.3827    0.0000 C   0  0  0  0  0  0  0  0  0  0  0  0
    8.7614   -0.0240    0.0000 C   0  0  0  0  0  0  0  0  0  0  0  0
   10.4840    0.1570    0.0000 C   0  0  0  0  0  0  0  0  0  0  0  0
   11.2930    0.7448    0.0000 C   0  0  0  0  0  0  0  0  0  0  0  0
   10.5885   -0.8375    0.0000 C   0  0  0  0  0  0  0  0  0  0  0  0
   12.2065    0.3381    0.0000 C   0  0  0  0  0  0  0  0  0  0  0  0
   11.5020   -1.2442    0.0000 C   0  0  0  0  0  0  0  0  0  0  0  0
   12.3111   -0.6565    0.0000 C   0  0  0  0  0  0  0  0  0  0  0  0
   13.2246   -1.0632    0.0000 C   0  0  0  0  0  0  0  0  0  0  0  0
    3.1900   -1.2420    0.0000 H   0  0  0  0  0  0  0  0  0  0  0  0
    5.5826    0.3730    0.0000 H   0  0  0  0  0  0  0  0  0  0  0  0
    4.8923    0.7715    0.0000 H   0  0  0  0  0  0  0  0  0  0  0  0
    4.8923   -2.1817    0.0000 H   0  0  0  0  0  0  0  0  0  0  0  0
    5.5826   -1.7832    0.0000 H   0  0  0  0  0  0  0  0  0  0  0  0
    4.1077    0.7715    0.0000 H   0  0  0  0  0  0  0  0  0  0  0  0
    3.4174    0.3730    0.0000 H   0  0  0  0  0  0  0  0  0  0  0  0
    3.4174   -1.7832    0.0000 H   0  0  0  0  0  0  0  0  0  0  0  0
    4.1077   -2.1817    0.0000 H   0  0  0  0  0  0  0  0  0  0  0  0
    5.8962   -2.1037    0.0000 H   0  0  0  0  0  0  0  0  0  0  0  0
    2.6077   -0.0945    0.0000 H   0  0  0  0  0  0  0  0  0  0  0  0
    1.9174   -0.4930    0.0000 H   0  0  0  0  0  0  0  0  0  0  0  0
    1.4631   -1.2611    0.0000 H   0  0  0  0  0  0  0  0  0  0  0  0
    1.6900   -2.1080    0.0000 H   0  0  0  0  0  0  0  0  0  0  0  0
    2.5369   -1.8811    0.0000 H   0  0  0  0  0  0  0  0  0  0  0  0
    8.1946    0.8967    0.0000 H   0  0  0  0  0  0  0  0  0  0  0  0
    7.4019    0.8134    0.0000 H   0  0  0  0  0  0  0  0  0  0  0  0
    9.5056    1.1804    0.0000 H   0  0  0  0  0  0  0  0  0  0  0  0
   10.0869   -1.2019    0.0000 H   0  0  0  0  0  0  0  0  0  0  0  0
   12.7081    0.7025    0.0000 H   0  0  0  0  0  0  0  0  0  0  0  0
   11.5668   -1.8608    0.0000 H   0  0  0  0  0  0  0  0  0  0  0  0
   12.9724   -1.6296    0.0000 H   0  0  0  0  0  0  0  0  0  0  0  0
   13.7910   -1.3154    0.0000 H   0  0  0  0  0  0  0  0  0  0  0  0
   13.4768   -0.4968    0.0000 H   0  0  0  0  0  0  0  0  0  0  0  0
   11.6900    2.1037    0.0000 H   0  0  0  0  0  0  0  0  0  0  0  0
  1 14  2  0  0  0  0
  2 16  2  0  0  0  0
  3 19  2  0  0  0  0
  4 21  1  0  0  0  0
  4 51  1  0  0  0  0
  5  8  1  0  0  0  0
  5 16  1  0  0  0  0
  5 36  1  0  0  0  0
  6 14  1  0  0  0  0
  6 16  1  0  0  0  0
  6 18  1  0  0  0  0
  7 19  1  0  0  0  0
  7 20  1  0  0  0  0
  7 44  1  0  0  0  0
  8 10  1  0  0  0  0
  8 11  1  0  0  0  0
  8 14  1  0  0  0  0
  9 12  1  0  0  0  0
  9 13  1  0  0  0  0
  9 15  1  0  0  0  0
  9 27  1  0  0  0  0
 10 13  1  0  0  0  0
 10 30  1  0  0  0  0
 10 31  1  0  0  0  0
 11 12  1  0  0  0  0
 11 28  1  0  0  0  0
 11 29  1  0  0  0  0
 12 32  1  0  0  0  0
 12 33  1  0  0  0  0
 13 34  1  0  0  0  0
 13 35  1  0  0  0  0
 15 17  1  0  0  0  0
 15 37  1  0  0  0  0
 15 38  1  0  0  0  0
 17 39  1  0  0  0  0
 17 40  1  0  0  0  0
 17 41  1  0  0  0  0
 18 19  1  0  0  0  0
 18 42  1  0  0  0  0
 18 43  1  0  0  0  0
 20 21  2  0  0  0  0
 20 22  1  0  0  0  0
 21 23  1  0  0  0  0
 22 24  2  0  0  0  0
 22 45  1  0  0  0  0
 23 25  2  0  0  0  0
 23 46  1  0  0  0  0
 24 25  1  0  0  0  0
 24 47  1  0  0  0  0
 25 26  1  0  0  0  0
 26 48  1  0  0  0  0
 26 49  1  0  0  0  0
 26 50  1  0  0  0  0
M  END
> <PUBCHEM_COMPOUND_CID>
17395348

> <PUBCHEM_COMPOUND_CANONICALIZED>
1

> <PUBCHEM_CACTVS_COMPLEXITY>
571

> <PUBCHEM_CACTVS_HBOND_ACCEPTOR>
4

> <PUBCHEM_CACTVS_HBOND_DONOR>
3

> <PUBCHEM_CACTVS_ROTATABLE_BOND>
4

> <PUBCHEM_CACTVS_SUBSKEYS>
AAADceB7OAAAAAAAAAAAAAAAAAAAAWAAAAAwYAAAAAAAAAABAAAAHgAQCAAADYzBmAQzxoPAAgCIAiVSUACCAAAhIgAIiAGPbIiKZjLSkbOUcAhs1zPY2AeYyNCOCAABAAAAEACQAAIAAAAgAAAAAAAAAA==

> <PUBCHEM_IUPAC_OPENEYE_NAME>
2-(8-ethyl-2,4-dioxo-1,3-diazaspiro[4.5]decan-3-yl)-N-(2-hydroxy-4-methyl-phenyl)acetamide

> <PUBCHEM_IUPAC_CAS_NAME>
2-(8-ethyl-2,4-dioxo-1,3-diazaspiro[4.5]decan-3-yl)-N-(2-hydroxy-4-methylphenyl)acetamide

> <PUBCHEM_IUPAC_NAME>
2-(8-ethyl-2,4-dioxo-1,3-diazaspiro[4.5]decan-3-yl)-N-(2-hydroxy-4-methylphenyl)acetamide

> <PUBCHEM_IUPAC_SYSTEMATIC_NAME>
2-[8-ethyl-2,4-bis(oxidanylidene)-1,3-diazaspiro[4.5]decan-3-yl]-N-(4-methyl-2-oxidanyl-phenyl)ethanamide

> <PUBCHEM_IUPAC_TRADITIONAL_NAME>
2-(8-ethyl-2,4-diketo-1,3-diazaspiro[4.5]decan-3-yl)-N-(2-hydroxy-4-methyl-phenyl)acetamide

> <PUBCHEM_IUPAC_INCHI>
InChI=1S/C19H25N3O4/c1-3-13-6-8-19(9-7-13)17(25)22(18(26)21-19)11-16(24)20-14-5-4-12(2)10-15(14)23/h4-5,10,13,23H,3,6-9,11H2,1-2H3,(H,20,24)(H,21,26)

> <PUBCHEM_IUPAC_INCHIKEY>
GVWJPKVWRYZICO-UHFFFAOYSA-N

> <PUBCHEM_XLOGP3_AA>
2.4

> <PUBCHEM_EXACT_MASS>
359.184506

> <PUBCHEM_MOLECULAR_FORMULA>
C19H25N3O4

> <PUBCHEM_MOLECULAR_WEIGHT>
359.4195

> <PUBCHEM_OPENEYE_CAN_SMILES>
CCC1CCC2(CC1)C(=O)N(C(=O)N2)CC(=O)NC3=C(C=C(C=C3)C)O

> <PUBCHEM_OPENEYE_ISO_SMILES>
CCC1CCC2(CC1)C(=O)N(C(=O)N2)CC(=O)NC3=C(C=C(C=C3)C)O

> <PUBCHEM_CACTVS_TPSA>
98.7

> <PUBCHEM_MONOISOTOPIC_WEIGHT>
359.184506

> <PUBCHEM_TOTAL_CHARGE>
0

> <PUBCHEM_HEAVY_ATOM_COUNT>
26

> <PUBCHEM_ATOM_DEF_STEREO_COUNT>
0

> <PUBCHEM_ATOM_UDEF_STEREO_COUNT>
0

> <PUBCHEM_BOND_DEF_STEREO_COUNT>
0

> <PUBCHEM_BOND_UDEF_STEREO_COUNT>
0

> <PUBCHEM_ISOTOPIC_ATOM_COUNT>
0

> <PUBCHEM_COMPONENT_COUNT>
1

> <PUBCHEM_CACTVS_TAUTO_COUNT>
58

> <PUBCHEM_COORDINATE_TYPE>
1
5
255

> <PUBCHEM_BONDANNOTATIONS>
20  21  8
20  22  8
21  23  8
22  24  8
23  25  8
24  25  8

$$$$

