17396037
  -OEChem-06241222543D

 41 44  0     0  0  0  0  0  0999 V2000
    2.9542    2.1522    0.6388 S   0  0  0  0  0  0  0  0  0  0  0  0
   -2.4016   -0.1652    0.2654 S   0  0  0  0  0  0  0  0  0  0  0  0
    2.5722   -2.6751   -0.2854 O   0  0  0  0  0  0  0  0  0  0  0  0
    2.6487   -0.3707    0.1586 N   0  0  0  0  0  0  0  0  0  0  0  0
    0.7465    0.6993    1.1492 N   0  0  0  0  0  0  0  0  0  0  0  0
    4.8724   -1.0292   -0.8885 C   0  0  0  0  0  0  0  0  0  0  0  0
    3.9300   -0.0440   -0.2673 C   0  0  0  0  0  0  0  0  0  0  0  0
    6.0990   -0.3543   -1.5215 C   0  0  0  0  0  0  0  0  0  0  0  0
    6.6417    0.7804   -0.6525 C   0  0  0  0  0  0  0  0  0  0  0  0
    5.5761    1.8538   -0.4014 C   0  0  0  0  0  0  0  0  0  0  0  0
    4.2521    1.2468   -0.0761 C   0  0  0  0  0  0  0  0  0  0  0  0
    1.9506    0.7125    0.6847 C   0  0  0  0  0  0  0  0  0  0  0  0
    2.0666   -1.6308    0.1139 C   0  0  0  0  0  0  0  0  0  0  0  0
    0.1132   -0.5231    1.1057 C   0  0  0  0  0  0  0  0  0  0  0  0
    0.6722   -1.6513    0.6349 C   0  0  0  0  0  0  0  0  0  0  0  0
   -1.2910   -0.5247    1.6364 C   0  0  0  0  0  0  0  0  0  0  0  0
   -3.9741   -0.2273    1.1587 C   0  0  0  0  0  0  0  0  0  0  0  0
   -5.1487    0.0421    0.2591 C   0  0  0  0  0  0  0  0  0  0  0  0
   -5.7819   -1.0140   -0.3961 C   0  0  0  0  0  0  0  0  0  0  0  0
   -5.6048    1.3480    0.0795 C   0  0  0  0  0  0  0  0  0  0  0  0
   -6.8714   -0.7644   -1.2306 C   0  0  0  0  0  0  0  0  0  0  0  0
   -6.6943    1.5976   -0.7551 C   0  0  0  0  0  0  0  0  0  0  0  0
   -7.3276    0.5414   -1.4102 C   0  0  0  0  0  0  0  0  0  0  0  0
    5.2073   -1.7340   -0.1178 H   0  0  0  0  0  0  0  0  0  0  0  0
    4.3697   -1.6059   -1.6726 H   0  0  0  0  0  0  0  0  0  0  0  0
    6.8809   -1.1030   -1.6927 H   0  0  0  0  0  0  0  0  0  0  0  0
    5.8250    0.0475   -2.5057 H   0  0  0  0  0  0  0  0  0  0  0  0
    7.5156    1.2355   -1.1321 H   0  0  0  0  0  0  0  0  0  0  0  0
    6.9825    0.3696    0.3065 H   0  0  0  0  0  0  0  0  0  0  0  0
    5.4708    2.4804   -1.2955 H   0  0  0  0  0  0  0  0  0  0  0  0
    5.9166    2.5036    0.4133 H   0  0  0  0  0  0  0  0  0  0  0  0
    0.1444   -2.5983    0.6188 H   0  0  0  0  0  0  0  0  0  0  0  0
   -1.4062    0.2249    2.4269 H   0  0  0  0  0  0  0  0  0  0  0  0
   -1.5440   -1.5008    2.0649 H   0  0  0  0  0  0  0  0  0  0  0  0
   -3.9571    0.5073    1.9721 H   0  0  0  0  0  0  0  0  0  0  0  0
   -4.0861   -1.2128    1.6255 H   0  0  0  0  0  0  0  0  0  0  0  0
   -5.4359   -2.0360   -0.2656 H   0  0  0  0  0  0  0  0  0  0  0  0
   -5.1198    2.1799    0.5833 H   0  0  0  0  0  0  0  0  0  0  0  0
   -7.3643   -1.5867   -1.7410 H   0  0  0  0  0  0  0  0  0  0  0  0
   -7.0493    2.6144   -0.8953 H   0  0  0  0  0  0  0  0  0  0  0  0
   -8.1757    0.7359   -2.0601 H   0  0  0  0  0  0  0  0  0  0  0  0
  1 11  1  0  0  0  0
  1 12  1  0  0  0  0
  2 16  1  0  0  0  0
  2 17  1  0  0  0  0
  3 13  2  0  0  0  0
  4  7  1  0  0  0  0
  4 12  1  0  0  0  0
  4 13  1  0  0  0  0
  5 12  2  0  0  0  0
  5 14  1  0  0  0  0
  6  7  1  0  0  0  0
  6  8  1  0  0  0  0
  6 24  1  0  0  0  0
  6 25  1  0  0  0  0
  7 11  2  0  0  0  0
  8  9  1  0  0  0  0
  8 26  1  0  0  0  0
  8 27  1  0  0  0  0
  9 10  1  0  0  0  0
  9 28  1  0  0  0  0
  9 29  1  0  0  0  0
 10 11  1  0  0  0  0
 10 30  1  0  0  0  0
 10 31  1  0  0  0  0
 13 15  1  0  0  0  0
 14 15  2  0  0  0  0
 14 16  1  0  0  0  0
 15 32  1  0  0  0  0
 16 33  1  0  0  0  0
 16 34  1  0  0  0  0
 17 18  1  0  0  0  0
 17 35  1  0  0  0  0
 17 36  1  0  0  0  0
 18 19  2  0  0  0  0
 18 20  1  0  0  0  0
 19 21  1  0  0  0  0
 19 37  1  0  0  0  0
 20 22  2  0  0  0  0
 20 38  1  0  0  0  0
 21 23  2  0  0  0  0
 21 39  1  0  0  0  0
 22 23  1  0  0  0  0
 22 40  1  0  0  0  0
 23 41  1  0  0  0  0
M  END
> <PUBCHEM_COMPOUND_CID>
17396037

> <PUBCHEM_CONFORMER_RMSD>
0.8

> <PUBCHEM_CONFORMER_DIVERSEORDER>
1
23
29
34
37
8
46
40
15
30
17
2
28
9
47
20
45
32
13
3
35
39
7
33
27
26
44
21
43
31
4
22
6
42
5
38
24
36
14
19
12
11
18
25
41
16
10

> <PUBCHEM_MMFF94_PARTIAL_CHARGES>
27
1 -0.24
10 0.14
11 -0.04
12 0.65
13 0.62
14 0.03
15 -0.14
16 0.37
17 0.37
18 -0.14
19 -0.15
2 -0.46
20 -0.15
21 -0.15
22 -0.15
23 -0.15
3 -0.57
32 0.15
37 0.15
38 0.15
39 0.15
4 -0.23
40 0.15
41 0.15
5 -0.62
6 0.14
7 -0.03

> <PUBCHEM_EFFECTIVE_ROTOR_COUNT>
4.8

> <PUBCHEM_PHARMACOPHORE_FEATURES>
5
1 3 acceptor
5 1 4 7 11 12 rings
6 18 19 20 21 22 23 rings
6 4 5 12 13 14 15 rings
6 6 7 8 9 10 11 rings

> <PUBCHEM_HEAVY_ATOM_COUNT>
23

> <PUBCHEM_ATOM_DEF_STEREO_COUNT>
0

> <PUBCHEM_ATOM_UDEF_STEREO_COUNT>
0

> <PUBCHEM_BOND_DEF_STEREO_COUNT>
0

> <PUBCHEM_BOND_UDEF_STEREO_COUNT>
0

> <PUBCHEM_ISOTOPIC_ATOM_COUNT>
0

> <PUBCHEM_COMPONENT_COUNT>
1

> <PUBCHEM_CACTVS_TAUTO_COUNT>
1

> <PUBCHEM_CONFORMER_ID>
0109714500000001

> <PUBCHEM_MMFF94_ENERGY>
44.6377

> <PUBCHEM_FEATURE_SELFOVERLAP>
25.513

> <PUBCHEM_SHAPE_FINGERPRINT>
10 15 12967127216401349087
10595046 47 18336267920669664755
10693767 8 17822846615273302686
10763959 59 17988639666652973484
11719270 70 18335426789779774946
12166972 35 14923945630807217451
12236239 1 17240192244638450112
12730499 353 18342733018396390507
12838862 33 18334858287198050016
13627175 4 15864365610605569647
13668630 136 16443068288212893413
13673619 4 5256404994018408067
13685833 64 6411296831898844967
13690498 29 17896889751438965399
13782708 43 5473145098135265221
13968360 50 18335138713496404518
14251757 52 16558460903855827540
14528608 73 18410580578638361643
14681490 219 18408322215630182961
15003188 100 18339642235244261553
15183329 4 18333731347059613929
15188451 53 7565047373618048353
15238133 3 14692563316914791750
15348495 7 9150880699161080007
15461852 350 15123509169514593451
15475509 35 5039392116855317550
15961568 22 17988927782055397021
16988056 13 18335423405161442728
17780758 139 9151178658502022651
18222031 100 15719400542458274275
18681886 176 17022907843352687722
21033648 29 18059575720486964264
21130935 74 10159699088260454541
21150785 3 17095241397734748016
21521239 73 17822003220992396190
21637258 2 14996280344455836056
221357 26 18334575754541396984
22289505 5 18412545439638924640
23522609 53 6121389825370345923
23559900 14 18335424517762771969
23576562 1 18197208149292530444
2767999 5 16845577504677055029
29717793 49 17458058287438584361
3004659 81 17676492756760589995
312425 54 8646775517205439149
335352 9 18336255787951588782
3663271 9 11672061948194258517
4073 2 18131628976871829947
465052 167 7925916967730104432
474113 269 18270120257972880394
504579 68 17967818267225185581
543368 44 17917715721660533805

> <PUBCHEM_SHAPE_MULTIPOLES>
465.2
20.98
1.97
1.31
21.88
0.07
-0.01
-5.94
-11.51
-1.45
-0.03
0.55
0.08
0.67

> <PUBCHEM_SHAPE_SELFOVERLAP>
983.234

> <PUBCHEM_SHAPE_VOLUME>
262.9

> <PUBCHEM_COORDINATE_TYPE>
2
5
10

$$$$

