854200
  -OEChem-06241222473D

 35 36  0     0  0  0  0  0  0999 V2000
    0.7119    2.1225   -0.0024 O   0  0  0  0  0  0  0  0  0  0  0  0
   -1.5038    0.6160   -0.0005 N   0  0  0  0  0  0  0  0  0  0  0  0
   -2.7373   -0.0156   -0.0003 C   0  0  0  0  0  0  0  0  0  0  0  0
   -0.2431   -0.0876   -0.0025 C   0  0  0  0  0  0  0  0  0  0  0  0
   -3.9422    0.7139    0.0016 C   0  0  0  0  0  0  0  0  0  0  0  0
    2.2993    0.3880    0.0000 C   0  0  0  0  0  0  0  0  0  0  0  0
    0.9359    0.8945   -0.0022 C   0  0  0  0  0  0  0  0  0  0  0  0
   -2.8125   -1.4216   -0.0021 C   0  0  0  0  0  0  0  0  0  0  0  0
    2.5328   -0.9870    0.0019 C   0  0  0  0  0  0  0  0  0  0  0  0
    3.3734    1.2779   -0.0015 C   0  0  0  0  0  0  0  0  0  0  0  0
    4.9147   -0.5825    0.0007 C   0  0  0  0  0  0  0  0  0  0  0  0
   -5.1751    0.0615    0.0018 C   0  0  0  0  0  0  0  0  0  0  0  0
    3.8406   -1.4723    0.0023 C   0  0  0  0  0  0  0  0  0  0  0  0
    4.6811    0.7927   -0.0012 C   0  0  0  0  0  0  0  0  0  0  0  0
   -3.9163    2.2078    0.0044 C   0  0  0  0  0  0  0  0  0  0  0  0
   -4.0454   -2.0740   -0.0020 C   0  0  0  0  0  0  0  0  0  0  0  0
   -5.2267   -1.3324    0.0000 C   0  0  0  0  0  0  0  0  0  0  0  0
    6.3127   -1.1019    0.0022 C   0  0  0  0  0  0  0  0  0  0  0  0
   -0.1661   -0.7047    0.8996 H   0  0  0  0  0  0  0  0  0  0  0  0
   -0.1670   -0.7027   -0.9061 H   0  0  0  0  0  0  0  0  0  0  0  0
   -1.4808    1.6288    0.0019 H   0  0  0  0  0  0  0  0  0  0  0  0
   -1.9198   -2.0414   -0.0037 H   0  0  0  0  0  0  0  0  0  0  0  0
    1.7291   -1.7164    0.0023 H   0  0  0  0  0  0  0  0  0  0  0  0
    3.2180    2.3535   -0.0038 H   0  0  0  0  0  0  0  0  0  0  0  0
   -6.1053    0.6235    0.0035 H   0  0  0  0  0  0  0  0  0  0  0  0
    4.0103   -2.5458    0.0021 H   0  0  0  0  0  0  0  0  0  0  0  0
    5.5098    1.4958   -0.0042 H   0  0  0  0  0  0  0  0  0  0  0  0
   -3.4085    2.5857   -0.8893 H   0  0  0  0  0  0  0  0  0  0  0  0
   -4.9267    2.6315    0.0049 H   0  0  0  0  0  0  0  0  0  0  0  0
   -3.4089    2.5824    0.8996 H   0  0  0  0  0  0  0  0  0  0  0  0
   -4.0862   -3.1593   -0.0034 H   0  0  0  0  0  0  0  0  0  0  0  0
   -6.1865   -1.8405    0.0002 H   0  0  0  0  0  0  0  0  0  0  0  0
    6.9915   -0.4090    0.5111 H   0  0  0  0  0  0  0  0  0  0  0  0
    6.3777   -2.0593    0.5302 H   0  0  0  0  0  0  0  0  0  0  0  0
    6.6619   -1.2434   -1.0254 H   0  0  0  0  0  0  0  0  0  0  0  0
  1  7  2  0  0  0  0
  2  3  1  0  0  0  0
  2  4  1  0  0  0  0
  2 21  1  0  0  0  0
  3  5  1  0  0  0  0
  3  8  2  0  0  0  0
  4  7  1  0  0  0  0
  4 19  1  0  0  0  0
  4 20  1  0  0  0  0
  5 12  2  0  0  0  0
  5 15  1  0  0  0  0
  6  7  1  0  0  0  0
  6  9  2  0  0  0  0
  6 10  1  0  0  0  0
  8 16  1  0  0  0  0
  8 22  1  0  0  0  0
  9 13  1  0  0  0  0
  9 23  1  0  0  0  0
 10 14  2  0  0  0  0
 10 24  1  0  0  0  0
 11 13  2  0  0  0  0
 11 14  1  0  0  0  0
 11 18  1  0  0  0  0
 12 17  1  0  0  0  0
 12 25  1  0  0  0  0
 13 26  1  0  0  0  0
 14 27  1  0  0  0  0
 15 28  1  0  0  0  0
 15 29  1  0  0  0  0
 15 30  1  0  0  0  0
 16 17  2  0  0  0  0
 16 31  1  0  0  0  0
 17 32  1  0  0  0  0
 18 33  1  0  0  0  0
 18 34  1  0  0  0  0
 18 35  1  0  0  0  0
M  END
> <PUBCHEM_COMPOUND_CID>
854200

> <PUBCHEM_CONFORMER_RMSD>
0.6

> <PUBCHEM_CONFORMER_DIVERSEORDER>
1
51
13
35
34
28
29
10
56
31
49
15
55
63
19
66
24
39
64
2
45
30
58
20
48
44
65
23
60
38
16
54
33
22
17
4
47
42
3
18
27
32
36
37
46
21
53
14
5
12
52
57
11
25
40
59
41
8
7
50
26
61
9
62
6
43

> <PUBCHEM_MMFF94_PARTIAL_CHARGES>
27
1 -0.57
10 -0.15
11 -0.14
12 -0.15
13 -0.15
14 -0.15
15 0.14
16 -0.15
17 -0.15
18 0.14
2 -0.87
21 0.4
22 0.15
23 0.15
24 0.15
25 0.15
26 0.15
27 0.15
3 0.1
31 0.15
32 0.15
4 0.43
5 -0.14
6 0.09
7 0.42
8 -0.15
9 -0.15

> <PUBCHEM_EFFECTIVE_ROTOR_COUNT>
4

> <PUBCHEM_PHARMACOPHORE_FEATURES>
5
1 1 acceptor
1 2 cation
1 2 donor
6 3 5 8 12 16 17 rings
6 6 9 10 11 13 14 rings

> <PUBCHEM_HEAVY_ATOM_COUNT>
18

> <PUBCHEM_ATOM_DEF_STEREO_COUNT>
0

> <PUBCHEM_ATOM_UDEF_STEREO_COUNT>
0

> <PUBCHEM_BOND_DEF_STEREO_COUNT>
0

> <PUBCHEM_BOND_UDEF_STEREO_COUNT>
0

> <PUBCHEM_ISOTOPIC_ATOM_COUNT>
0

> <PUBCHEM_COMPONENT_COUNT>
1

> <PUBCHEM_CACTVS_TAUTO_COUNT>
3

> <PUBCHEM_CONFORMER_ID>
000D08B800000001

> <PUBCHEM_MMFF94_ENERGY>
59.2023

> <PUBCHEM_FEATURE_SELFOVERLAP>
25.371

> <PUBCHEM_SHAPE_FINGERPRINT>
10595046 47 18341330007188735212
11315181 36 18260264144501983337
12107183 9 17763183935393109731
12236239 1 18113616776736236816
12516196 113 18186241719011636584
12596602 18 16877944897536740570
13167823 11 18411420596236020875
13288520 33 18410573985647310407
13675066 3 18040722458607712704
14251731 8 18412546543440011087
14251764 18 18259979350227683211
14341114 176 18411132507373541345
15188451 53 15647632055548706559
15196674 1 18410573972482969986
15352361 1 18410573976572072545
15788980 27 18273211997614760320
17492 89 18124875651667869019
17834072 33 18411698764298786852
17844677 252 18409724054131800704
17857418 61 18410859853969655723
1813 80 17275386503726420412
200 152 18259985963543499571
20374829 77 18342178886168693218
20645477 70 18409447011977928126
21033648 29 17023481827155967265
21267235 1 18411130333772053387
21709351 56 18343868818276352700
221490 88 18197773306553049795
23402539 116 18412267254649237292
23559900 14 18337400318725350545
239999 70 18333445444414953766
26918003 58 18187083966139953378
3004659 81 18272932730836821666
335352 9 18411139148041957757
3545911 37 18410292523450097457
4073 2 18131063801729489490
42 15 18409728452320203981
4214541 1 18410574006980007813
465052 167 18260263054144883622
4921388 177 16558459786985001915
5104073 3 18408041801319802528
559249 180 18411984697667861019
7495541 125 17749673991262373848
77779 3 18411136930873338613
9709674 26 18198339555263166851
9971528 1 17988925535644900740

> <PUBCHEM_SHAPE_MULTIPOLES>
359.58
14.54
2.03
0.61
4.39
0.23
0
-4.25
0.01
-1.28
0
0
-0.01
-0.01

> <PUBCHEM_SHAPE_SELFOVERLAP>
762.547

> <PUBCHEM_SHAPE_VOLUME>
202.3

> <PUBCHEM_COORDINATE_TYPE>
2
5
10

$$$$

