12114
  -OEChem-06261206333D

 34 35  0     0  0  0  0  0  0999 V2000
   -1.1960   -2.4216   -0.2190 S   0  0  0  0  0  0  0  0  0  0  0  0
    1.2440   -1.4939    0.0706 N   0  0  0  0  0  0  0  0  0  0  0  0
   -0.6458    0.0835    0.1927 N   0  0  0  0  0  0  0  0  0  0  0  0
    2.4175   -0.7138    0.0386 C   0  0  0  0  0  0  0  0  0  0  0  0
    4.7412    0.8308   -0.0232 C   0  0  0  0  0  0  0  0  0  0  0  0
    3.6529   -1.3193   -0.1950 C   0  0  0  0  0  0  0  0  0  0  0  0
    2.3454    0.6648    0.2413 C   0  0  0  0  0  0  0  0  0  0  0  0
   -4.8031    0.5150   -0.0721 C   0  0  0  0  0  0  0  0  0  0  0  0
    4.8143   -0.5473   -0.2260 C   0  0  0  0  0  0  0  0  0  0  0  0
    3.5067    1.4369    0.2104 C   0  0  0  0  0  0  0  0  0  0  0  0
   -2.0339    0.2270    0.1041 C   0  0  0  0  0  0  0  0  0  0  0  0
   -4.2081    0.2344    1.1578 C   0  0  0  0  0  0  0  0  0  0  0  0
   -4.0136    0.6517   -1.2139 C   0  0  0  0  0  0  0  0  0  0  0  0
   -2.8234    0.0904    1.2459 C   0  0  0  0  0  0  0  0  0  0  0  0
   -2.6291    0.5076   -1.1257 C   0  0  0  0  0  0  0  0  0  0  0  0
    5.9829    1.6560   -0.0565 C   0  0  0  0  0  0  0  0  0  0  0  0
   -0.0681   -1.0694    0.0377 C   0  0  0  0  0  0  0  0  0  0  0  0
   -6.2836    0.6674   -0.1674 C   0  0  0  0  0  0  0  0  0  0  0  0
    3.7243   -2.3922   -0.3552 H   0  0  0  0  0  0  0  0  0  0  0  0
    1.4195    1.1875    0.4445 H   0  0  0  0  0  0  0  0  0  0  0  0
    5.7699   -1.0309   -0.4107 H   0  0  0  0  0  0  0  0  0  0  0  0
    3.4380    2.5094    0.3717 H   0  0  0  0  0  0  0  0  0  0  0  0
    1.4061   -2.4916   -0.0357 H   0  0  0  0  0  0  0  0  0  0  0  0
   -4.8122    0.1276    2.0549 H   0  0  0  0  0  0  0  0  0  0  0  0
   -4.4652    0.8722   -2.1775 H   0  0  0  0  0  0  0  0  0  0  0  0
   -2.3694   -0.1247    2.2098 H   0  0  0  0  0  0  0  0  0  0  0  0
   -2.0224    0.6186   -2.0208 H   0  0  0  0  0  0  0  0  0  0  0  0
    5.8964    2.5268    0.6022 H   0  0  0  0  0  0  0  0  0  0  0  0
    6.8493    1.0802    0.2864 H   0  0  0  0  0  0  0  0  0  0  0  0
    6.1748    2.0050   -1.0759 H   0  0  0  0  0  0  0  0  0  0  0  0
   -6.6518    0.3426   -1.1466 H   0  0  0  0  0  0  0  0  0  0  0  0
   -6.7934    0.0561    0.5851 H   0  0  0  0  0  0  0  0  0  0  0  0
   -6.5638    1.7146   -0.0167 H   0  0  0  0  0  0  0  0  0  0  0  0
   -1.6592   -2.0356   -1.4164 H   0  0  0  0  0  0  0  0  0  0  0  0
  1 17  1  0  0  0  0
  1 34  1  0  0  0  0
  2  4  1  0  0  0  0
  2 17  1  0  0  0  0
  2 23  1  0  0  0  0
  3 11  1  0  0  0  0
  3 17  2  0  0  0  0
  4  6  2  0  0  0  0
  4  7  1  0  0  0  0
  5  9  2  0  0  0  0
  5 10  1  0  0  0  0
  5 16  1  0  0  0  0
  6  9  1  0  0  0  0
  6 19  1  0  0  0  0
  7 10  2  0  0  0  0
  7 20  1  0  0  0  0
  8 12  2  0  0  0  0
  8 13  1  0  0  0  0
  8 18  1  0  0  0  0
  9 21  1  0  0  0  0
 10 22  1  0  0  0  0
 11 14  2  0  0  0  0
 11 15  1  0  0  0  0
 12 14  1  0  0  0  0
 12 24  1  0  0  0  0
 13 15  2  0  0  0  0
 13 25  1  0  0  0  0
 14 26  1  0  0  0  0
 15 27  1  0  0  0  0
 16 28  1  0  0  0  0
 16 29  1  0  0  0  0
 16 30  1  0  0  0  0
 18 31  1  0  0  0  0
 18 32  1  0  0  0  0
 18 33  1  0  0  0  0
M  END
> <PUBCHEM_COMPOUND_CID>
12114

> <PUBCHEM_CONFORMER_RMSD>
0.6

> <PUBCHEM_CONFORMER_DIVERSEORDER>
1
7
6
5
3
4
2

> <PUBCHEM_MMFF94_PARTIAL_CHARGES>
28
1 -0.32
10 -0.15
11 0.18
12 -0.15
13 -0.15
14 -0.15
15 -0.15
16 0.14
17 0.64
18 0.14
19 0.15
2 -0.55
20 0.15
21 0.15
22 0.15
23 0.4
24 0.15
25 0.15
26 0.15
27 0.15
3 -0.63
34 0.18
4 0.1
5 -0.14
6 -0.15
7 -0.15
8 -0.14
9 -0.15

> <PUBCHEM_EFFECTIVE_ROTOR_COUNT>
3

> <PUBCHEM_PHARMACOPHORE_FEATURES>
4
1 2 donor
3 2 3 17 cation
6 4 5 6 7 9 10 rings
6 8 11 12 13 14 15 rings

> <PUBCHEM_HEAVY_ATOM_COUNT>
18

> <PUBCHEM_ATOM_DEF_STEREO_COUNT>
0

> <PUBCHEM_ATOM_UDEF_STEREO_COUNT>
0

> <PUBCHEM_BOND_DEF_STEREO_COUNT>
0

> <PUBCHEM_BOND_UDEF_STEREO_COUNT>
0

> <PUBCHEM_ISOTOPIC_ATOM_COUNT>
0

> <PUBCHEM_COMPONENT_COUNT>
1

> <PUBCHEM_CACTVS_TAUTO_COUNT>
2

> <PUBCHEM_CONFORMER_ID>
00002F5200000001

> <PUBCHEM_MMFF94_ENERGY>
68.0805

> <PUBCHEM_FEATURE_SELFOVERLAP>
20.297

> <PUBCHEM_SHAPE_FINGERPRINT>
10 15 17917712353984531448
10014705 185 18341052930295517342
11089746 13 17458347416938469400
11128504 68 17385447613260943336
11471102 20 18407759249002476026
12236239 1 17676206901054289905
12403259 415 18059578048047606149
12730499 353 18412538829853359938
12969540 114 18271540753226493151
13081056 2 18343584074745139900
13167372 99 18189612911793732457
13533116 47 17894630400623847518
13583140 156 17775282750928838451
13675066 3 17775280565049037946
14528608 73 18260270750235478845
15188451 53 15266772205459828921
17834072 33 17821451248716589133
17834072 8 18335132108126119702
17870717 6 4751159627189331141
19489759 90 16487256577990533273
19784866 140 7493291019136218183
200 152 18186805807352807321
20325693 3 15285357323713878581
204376 136 18410573993989805767
20645477 56 18343304738756990676
20645477 70 18336827606179441974
21033648 144 18188503371522821740
21033648 29 18200609058573648885
21033650 10 16154802748858162848
21236236 1 18336265635710880583
21652331 79 18413671326766431812
221357 26 18261392290840628556
22224240 67 18272083912514004859
22854114 59 18202561786992304435
23198884 109 16877656855544081660
23227448 37 18341612551454131782
23402539 116 17603868926713018873
23402655 69 18187085023276953670
23559900 14 18259983765554504498
29717793 49 17240478139658832164
300161 21 18261396620430913360
3004659 81 15213288777599023932
335352 9 18408318905111977886
351380 180 17775284967274361413
3545911 37 18410290290198881390
4325135 7 18335422323292881335
474 4 18260546731669488539
5104073 3 18339930308071351026
542803 24 17530963596367326297
543368 44 17822295643318641417
633830 44 18042396001368311063

> <PUBCHEM_SHAPE_MULTIPOLES>
364.32
14
1.73
0.95
1.09
0.82
-0.01
-6.69
0.61
1.3
0.11
-1.07
-0.11
0.29

> <PUBCHEM_SHAPE_SELFOVERLAP>
763.023

> <PUBCHEM_SHAPE_VOLUME>
207.1

> <PUBCHEM_COORDINATE_TYPE>
2
5
10

$$$$

