4356
  -OEChem-06261200043D

 48 48  0     1  0  0  0  0  0999 V2000
   -0.7444   -0.0937    2.0137 O   0  0  0  0  0  0  0  0  0  0  0  0
   -0.6442    3.2186   -1.3324 O   0  0  0  0  0  0  0  0  0  0  0  0
    0.2444    4.5690    0.2483 O   0  0  0  0  0  0  0  0  0  0  0  0
   -5.6459    0.4164   -0.9135 O   0  0  0  0  0  0  0  0  0  0  0  0
   -5.3195   -1.3177    0.5178 O   0  0  0  0  0  0  0  0  0  0  0  0
   -0.2133    0.9840    0.0297 N   0  0  0  0  0  0  0  0  0  0  0  0
   -2.6647   -1.3256    0.1916 N   0  0  0  0  0  0  0  0  0  0  0  0
    1.8010    2.0533    0.9830 C   0  0  0  0  0  0  0  0  0  0  0  0
    2.7494    1.5077   -0.1088 C   0  0  0  0  0  0  0  0  0  0  0  0
    0.3103    2.1812    0.6345 C   0  0  1  0  0  0  0  0  0  0  0  0
   -1.2303   -1.2176   -0.0772 C   0  0  2  0  0  0  0  0  0  0  0  0
   -0.5305   -2.5357    0.2850 C   0  0  0  0  0  0  0  0  0  0  0  0
   -0.7060   -0.0729    0.7844 C   0  0  0  0  0  0  0  0  0  0  0  0
    4.1979    1.3578    0.3506 C   0  0  0  0  0  0  0  0  0  0  0  0
    2.6956    2.4313   -1.3317 C   0  0  0  0  0  0  0  0  0  0  0  0
   -0.0071    3.4396   -0.1578 C   0  0  0  0  0  0  0  0  0  0  0  0
    0.9566   -2.5014    0.0215 C   0  0  0  0  0  0  0  0  0  0  0  0
   -3.4039   -0.3143   -0.5469 C   0  0  0  0  0  0  0  0  0  0  0  0
    1.4539   -2.8935   -1.2215 C   0  0  0  0  0  0  0  0  0  0  0  0
    1.8326   -2.0770    1.0207 C   0  0  0  0  0  0  0  0  0  0  0  0
    2.8270   -2.8616   -1.4651 C   0  0  0  0  0  0  0  0  0  0  0  0
    3.2057   -2.0450    0.7769 C   0  0  0  0  0  0  0  0  0  0  0  0
   -4.8675   -0.4658   -0.2368 C   0  0  0  0  0  0  0  0  0  0  0  0
    3.7027   -2.4373   -0.4660 C   0  0  0  0  0  0  0  0  0  0  0  0
    2.1795    3.0224    1.3344 H   0  0  0  0  0  0  0  0  0  0  0  0
    1.8823    1.3738    1.8429 H   0  0  0  0  0  0  0  0  0  0  0  0
    2.3994    0.5197   -0.4236 H   0  0  0  0  0  0  0  0  0  0  0  0
   -0.2361    2.3199    1.5778 H   0  0  0  0  0  0  0  0  0  0  0  0
   -1.0511   -1.0211   -1.1422 H   0  0  0  0  0  0  0  0  0  0  0  0
   -0.2080    0.9192   -0.9838 H   0  0  0  0  0  0  0  0  0  0  0  0
   -0.6957   -2.7861    1.3423 H   0  0  0  0  0  0  0  0  0  0  0  0
   -0.9711   -3.3656   -0.2844 H   0  0  0  0  0  0  0  0  0  0  0  0
    4.6383    2.3327    0.5865 H   0  0  0  0  0  0  0  0  0  0  0  0
    4.2596    0.7403    1.2515 H   0  0  0  0  0  0  0  0  0  0  0  0
    4.8101    0.8880   -0.4262 H   0  0  0  0  0  0  0  0  0  0  0  0
    3.4731    2.1563   -2.0539 H   0  0  0  0  0  0  0  0  0  0  0  0
    1.7449    2.3421   -1.8618 H   0  0  0  0  0  0  0  0  0  0  0  0
    2.8566    3.4789   -1.0566 H   0  0  0  0  0  0  0  0  0  0  0  0
   -2.9936   -2.2470   -0.0987 H   0  0  0  0  0  0  0  0  0  0  0  0
   -3.2702   -0.4408   -1.6268 H   0  0  0  0  0  0  0  0  0  0  0  0
   -3.1095    0.6967   -0.2474 H   0  0  0  0  0  0  0  0  0  0  0  0
    0.7812   -3.2235   -2.0087 H   0  0  0  0  0  0  0  0  0  0  0  0
    1.4635   -1.7777    1.9975 H   0  0  0  0  0  0  0  0  0  0  0  0
    3.2141   -3.1661   -2.4330 H   0  0  0  0  0  0  0  0  0  0  0  0
    3.8882   -1.7224    1.5575 H   0  0  0  0  0  0  0  0  0  0  0  0
   -0.8509    4.0555   -1.8007 H   0  0  0  0  0  0  0  0  0  0  0  0
    4.7719   -2.4126   -0.6553 H   0  0  0  0  0  0  0  0  0  0  0  0
   -6.5983    0.2920   -0.7141 H   0  0  0  0  0  0  0  0  0  0  0  0
  1 13  2  0  0  0  0
  2 16  1  0  0  0  0
  2 46  1  0  0  0  0
  3 16  2  0  0  0  0
  4 23  1  0  0  0  0
  4 48  1  0  0  0  0
  5 23  2  0  0  0  0
  6 10  1  0  0  0  0
  6 13  1  0  0  0  0
  6 30  1  0  0  0  0
  7 11  1  0  0  0  0
  7 18  1  0  0  0  0
  7 39  1  0  0  0  0
  8  9  1  0  0  0  0
  8 10  1  0  0  0  0
  8 25  1  0  0  0  0
  8 26  1  0  0  0  0
  9 14  1  0  0  0  0
  9 15  1  0  0  0  0
  9 27  1  0  0  0  0
 10 16  1  0  0  0  0
 10 28  1  0  0  0  0
 11 12  1  0  0  0  0
 11 13  1  0  0  0  0
 11 29  1  0  0  0  0
 12 17  1  0  0  0  0
 12 31  1  0  0  0  0
 12 32  1  0  0  0  0
 14 33  1  0  0  0  0
 14 34  1  0  0  0  0
 14 35  1  0  0  0  0
 15 36  1  0  0  0  0
 15 37  1  0  0  0  0
 15 38  1  0  0  0  0
 17 19  2  0  0  0  0
 17 20  1  0  0  0  0
 18 23  1  0  0  0  0
 18 40  1  0  0  0  0
 18 41  1  0  0  0  0
 19 21  1  0  0  0  0
 19 42  1  0  0  0  0
 20 22  2  0  0  0  0
 20 43  1  0  0  0  0
 21 24  2  0  0  0  0
 21 44  1  0  0  0  0
 22 24  1  0  0  0  0
 22 45  1  0  0  0  0
 24 47  1  0  0  0  0
M  END
> <PUBCHEM_COMPOUND_CID>
4356

> <PUBCHEM_CONFORMER_RMSD>
1

> <PUBCHEM_CONFORMER_DIVERSEORDER>
1
54
36
21
9
90
81
92
5
33
89
15
3
46
42
13
59
64
91
7
50
56
37
57
48
39
32
51
74
16
17
96
79
94
27
52
38
29
25
24
68
6
4
61
22
98
86
93
44
69
35
12
87
53
31
60
88
83
14
63
23
19
85
58
78
40
49
80
71
84
20
26
30
43
28
18
72
10
62
65
2
67
76
34
73
95
77
75
70
66
97
47
41
55
45
82
8
11

> <PUBCHEM_MMFF94_PARTIAL_CHARGES>
29
1 -0.57
10 0.36
11 0.33
12 0.14
13 0.57
16 0.66
17 -0.14
18 0.33
19 -0.15
2 -0.65
20 -0.15
21 -0.15
22 -0.15
23 0.66
24 -0.15
3 -0.57
30 0.37
39 0.36
4 -0.65
42 0.15
43 0.15
44 0.15
45 0.15
46 0.5
47 0.15
48 0.5
5 -0.57
6 -0.73
7 -0.9

> <PUBCHEM_EFFECTIVE_ROTOR_COUNT>
11

> <PUBCHEM_PHARMACOPHORE_FEATURES>
12
1 1 acceptor
1 2 acceptor
1 3 acceptor
1 4 acceptor
1 5 acceptor
1 6 donor
1 7 cation
1 7 donor
3 2 3 16 anion
3 4 5 23 anion
3 9 14 15 hydrophobe
6 17 19 20 21 22 24 rings

> <PUBCHEM_HEAVY_ATOM_COUNT>
24

> <PUBCHEM_ATOM_DEF_STEREO_COUNT>
0

> <PUBCHEM_ATOM_UDEF_STEREO_COUNT>
2

> <PUBCHEM_BOND_DEF_STEREO_COUNT>
0

> <PUBCHEM_BOND_UDEF_STEREO_COUNT>
0

> <PUBCHEM_ISOTOPIC_ATOM_COUNT>
0

> <PUBCHEM_COMPONENT_COUNT>
1

> <PUBCHEM_CACTVS_TAUTO_COUNT>
2

> <PUBCHEM_CONFORMER_ID>
0000110400000001

> <PUBCHEM_MMFF94_ENERGY>
43.7807

> <PUBCHEM_FEATURE_SELFOVERLAP>
61.011

> <PUBCHEM_SHAPE_FINGERPRINT>
116883 192 18265338497837885081
12173636 292 17330277169617205285
12422481 6 18122096219289724610
12592029 89 18196084443966419027
12788726 201 18126000713613068467
13140716 1 18267021841829774161
14251757 17 17915476079976247429
15081414 286 18410288095307381305
1601671 61 18340774728062891401
17093844 170 18337677404055619472
17357779 13 18118136993581786055
17492 54 18269534127705903350
17980427 26 16880506716843335713
1813 80 18189051057183708191
18785283 64 18267576923761974187
20739085 24 18264745779877579427
20775438 99 17255154617965332095
20905425 154 18336260245452311204
21285901 2 18272376377267768069
23352939 185 18188488089749360883
23419403 2 17843710926051043342
23557571 272 17685790416064034146
23566358 2 18269004235298198581
3014063 31 18338800116700810324
3060560 45 18192719946806443224
3298306 158 18196084452260727030
6443956 14 18411136935120937220
7164475 11 17763467613752255531
81228 2 17977374263698599251

> <PUBCHEM_SHAPE_MULTIPOLES>
454.6
7.84
5.2
1.26
11.42
3.86
0.01
-3.24
1.34
-3.69
1.01
-0.41
-0.08
0.61

> <PUBCHEM_SHAPE_SELFOVERLAP>
918.465

> <PUBCHEM_SHAPE_VOLUME>
263.8

> <PUBCHEM_COORDINATE_TYPE>
2
5
10

$$$$

