11167
  -OEChem-06261205212D

  7  6  0     0  0  0  0  0  0999 V2000
    4.5981    0.5000    0.0000 S   0  0  0  0  0  0  0  0  0  0  0  0
    2.8660   -0.5000    0.0000 N   0  0  0  0  0  0  0  0  0  0  0  0
    2.0000    0.0000    0.0000 C   0  0  0  0  0  0  0  0  0  0  0  0
    3.7320    0.0000    0.0000 C   0  0  0  0  0  0  0  0  0  0  0  0
    2.3100    0.5369    0.0000 H   0  0  0  0  0  0  0  0  0  0  0  0
    1.4631    0.3100    0.0000 H   0  0  0  0  0  0  0  0  0  0  0  0
    1.6900   -0.5369    0.0000 H   0  0  0  0  0  0  0  0  0  0  0  0
  1  4  2  0  0  0  0
  2  3  1  0  0  0  0
  2  4  2  0  0  0  0
  3  5  1  0  0  0  0
  3  6  1  0  0  0  0
  3  7  1  0  0  0  0
M  END
> <PUBCHEM_COMPOUND_CID>
11167

> <PUBCHEM_COMPOUND_CANONICALIZED>
1

> <PUBCHEM_CACTVS_COMPLEXITY>
44

> <PUBCHEM_CACTVS_HBOND_ACCEPTOR>
2

> <PUBCHEM_CACTVS_HBOND_DONOR>
0

> <PUBCHEM_CACTVS_ROTATABLE_BOND>
0

> <PUBCHEM_CACTVS_SUBSKEYS>
AAADcQBCAABAAAAAAAAAAAAAAAAAAAAAAAAAAAAAAAAAAAAAAAAAFAQAAAAAAAAAAAQCAAIAAAAkAAAABAAAAAAAAAAAAAAAAAAAAAAAAAAAAAAAAAAAAAAAAAAAAAAAAAAAAAAAAAAAAAAAAAAAAAAAAA==

> <PUBCHEM_IUPAC_OPENEYE_NAME>
methylimino(thioxo)methane

> <PUBCHEM_IUPAC_CAS_NAME>
methylimino(sulfanylidene)methane

> <PUBCHEM_IUPAC_NAME>
methylimino(sulfanylidene)methane

> <PUBCHEM_IUPAC_SYSTEMATIC_NAME>
methylimino(sulfanylidene)methane

> <PUBCHEM_IUPAC_TRADITIONAL_NAME>
methylimino(thioxo)methane

> <PUBCHEM_IUPAC_INCHI>
InChI=1S/C2H3NS/c1-3-2-4/h1H3

> <PUBCHEM_IUPAC_INCHIKEY>
LGDSHSYDSCRFAB-UHFFFAOYSA-N

> <PUBCHEM_XLOGP3>
0.9

> <PUBCHEM_EXACT_MASS>
72.99862

> <PUBCHEM_MOLECULAR_FORMULA>
C2H3NS

> <PUBCHEM_MOLECULAR_WEIGHT>
73.11692

> <PUBCHEM_OPENEYE_CAN_SMILES>
CN=C=S

> <PUBCHEM_OPENEYE_ISO_SMILES>
CN=C=S

> <PUBCHEM_CACTVS_TPSA>
44.4

> <PUBCHEM_MONOISOTOPIC_WEIGHT>
72.99862

> <PUBCHEM_TOTAL_CHARGE>
0

> <PUBCHEM_HEAVY_ATOM_COUNT>
4

> <PUBCHEM_ATOM_DEF_STEREO_COUNT>
0

> <PUBCHEM_ATOM_UDEF_STEREO_COUNT>
0

> <PUBCHEM_BOND_DEF_STEREO_COUNT>
0

> <PUBCHEM_BOND_UDEF_STEREO_COUNT>
0

> <PUBCHEM_ISOTOPIC_ATOM_COUNT>
0

> <PUBCHEM_COMPONENT_COUNT>
1

> <PUBCHEM_CACTVS_TAUTO_COUNT>
1

> <PUBCHEM_COORDINATE_TYPE>
1
5
255

$$$$

