11297
  -OEChem-06261205303D

 25 26  0     0  0  0  0  0  0999 V2000
   -0.2089    2.3043    0.3850 O   0  0  0  0  0  0  0  0  0  0  0  0
    0.7726   -2.2261   -0.0441 N   0  0  0  0  0  0  0  0  0  0  0  0
   -4.2687    0.7327   -0.3787 N   0  0  0  0  0  0  0  0  0  0  0  0
   -0.8445   -0.7530    0.3326 C   0  0  0  0  0  0  0  0  0  0  0  0
    0.3732   -0.0398    0.1501 C   0  0  0  0  0  0  0  0  0  0  0  0
   -2.1760   -0.1755    0.6065 C   0  0  0  0  0  0  0  0  0  0  0  0
    1.3719   -0.9873   -0.0847 C   0  0  0  0  0  0  0  0  0  0  0  0
   -0.5667   -2.0947    0.2073 C   0  0  0  0  0  0  0  0  0  0  0  0
    0.7228    1.3252    0.1622 C   0  0  0  0  0  0  0  0  0  0  0  0
   -2.9703    0.1370   -0.6749 C   0  0  0  0  0  0  0  0  0  0  0  0
    2.7081   -0.6367   -0.3087 C   0  0  0  0  0  0  0  0  0  0  0  0
    2.0554    1.6907   -0.0605 C   0  0  0  0  0  0  0  0  0  0  0  0
    3.0311    0.7232   -0.2921 C   0  0  0  0  0  0  0  0  0  0  0  0
   -2.7555   -0.8972    1.2002 H   0  0  0  0  0  0  0  0  0  0  0  0
   -2.1000    0.7083    1.2493 H   0  0  0  0  0  0  0  0  0  0  0  0
   -1.2000   -2.9685    0.2734 H   0  0  0  0  0  0  0  0  0  0  0  0
    1.2527   -3.1049   -0.1807 H   0  0  0  0  0  0  0  0  0  0  0  0
   -3.1270   -0.7840   -1.2482 H   0  0  0  0  0  0  0  0  0  0  0  0
   -2.4027    0.8195   -1.3177 H   0  0  0  0  0  0  0  0  0  0  0  0
    3.4684   -1.3892   -0.4892 H   0  0  0  0  0  0  0  0  0  0  0  0
    2.3376    2.7407   -0.0540 H   0  0  0  0  0  0  0  0  0  0  0  0
    4.0601    1.0294   -0.4627 H   0  0  0  0  0  0  0  0  0  0  0  0
   -4.7362    0.9753   -1.2512 H   0  0  0  0  0  0  0  0  0  0  0  0
   -4.1357    1.6071    0.1277 H   0  0  0  0  0  0  0  0  0  0  0  0
   -1.0797    1.9835    0.1081 H   0  0  0  0  0  0  0  0  0  0  0  0
  1  9  1  0  0  0  0
  1 25  1  0  0  0  0
  2  7  1  0  0  0  0
  2  8  1  0  0  0  0
  2 17  1  0  0  0  0
  3 10  1  0  0  0  0
  3 23  1  0  0  0  0
  3 24  1  0  0  0  0
  4  5  1  0  0  0  0
  4  6  1  0  0  0  0
  4  8  2  0  0  0  0
  5  7  2  0  0  0  0
  5  9  1  0  0  0  0
  6 10  1  0  0  0  0
  6 14  1  0  0  0  0
  6 15  1  0  0  0  0
  7 11  1  0  0  0  0
  8 16  1  0  0  0  0
  9 12  2  0  0  0  0
 10 18  1  0  0  0  0
 10 19  1  0  0  0  0
 11 13  2  0  0  0  0
 11 20  1  0  0  0  0
 12 13  1  0  0  0  0
 12 21  1  0  0  0  0
 13 22  1  0  0  0  0
M  END
> <PUBCHEM_COMPOUND_CID>
11297

> <PUBCHEM_CONFORMER_RMSD>
0.6

> <PUBCHEM_CONFORMER_DIVERSEORDER>
1
3
4
2

> <PUBCHEM_MMFF94_PARTIAL_CHARGES>
20
1 -0.53
10 0.27
11 -0.15
12 -0.15
13 -0.15
16 0.15
17 0.27
2 0.03
20 0.15
21 0.15
22 0.15
23 0.36
24 0.36
25 0.45
3 -0.99
4 -0.18
6 0.18
7 -0.15
8 -0.3
9 0.08

> <PUBCHEM_EFFECTIVE_ROTOR_COUNT>
2

> <PUBCHEM_PHARMACOPHORE_FEATURES>
7
1 1 donor
1 2 cation
1 2 donor
1 3 cation
1 3 donor
5 2 4 5 7 8 rings
6 5 7 9 11 12 13 rings

> <PUBCHEM_HEAVY_ATOM_COUNT>
13

> <PUBCHEM_ATOM_DEF_STEREO_COUNT>
0

> <PUBCHEM_ATOM_UDEF_STEREO_COUNT>
0

> <PUBCHEM_BOND_DEF_STEREO_COUNT>
0

> <PUBCHEM_BOND_UDEF_STEREO_COUNT>
0

> <PUBCHEM_ISOTOPIC_ATOM_COUNT>
0

> <PUBCHEM_COMPONENT_COUNT>
1

> <PUBCHEM_CACTVS_TAUTO_COUNT>
9

> <PUBCHEM_CONFORMER_ID>
00002C2100000001

> <PUBCHEM_MMFF94_ENERGY>
17.0135

> <PUBCHEM_FEATURE_SELFOVERLAP>
35.612

> <PUBCHEM_SHAPE_FINGERPRINT>
10967382 1 18410854386402162098
11206711 2 18194947768012705652
11471102 20 18411421743329749765
12423570 1 12170770804279267250
12654215 9 18341898523256287317
13380535 76 18411421682868131994
14251717 144 18409454704263998007
14617773 55 17677881516849694440
14911166 2 18409720773171964542
15279308 100 18340482245100662860
15775835 57 18410576163100751757
16945 1 18337659897673631082
18186145 218 18334284358163209069
193761 8 17690276431957592490
20201158 50 18341331179756901023
20606313 2 18410578409215705469
2334 1 18121493553705313434
23402539 116 18261683618524615766
23402655 69 18335990843676421797
23419403 2 17118380791734613866
23493267 7 17632568327940109640
23559900 14 18117540853266274932
25 1 18413110575994281279
2748010 2 18192700151565848494
3060560 45 18335146414108515823
5255222 1 17471279661364626344
528886 8 18409450258682754762
53812653 166 18410577253626857833

> <PUBCHEM_SHAPE_MULTIPOLES>
251.7
4.86
2.18
0.71
3.65
0.19
-0.01
-1.62
-1.07
-0.47
0.15
0.17
-0.02
0.21

> <PUBCHEM_SHAPE_SELFOVERLAP>
543.124

> <PUBCHEM_SHAPE_VOLUME>
140.1

> <PUBCHEM_COORDINATE_TYPE>
2
5
10

$$$$

