17395425
  -OEChem-06241222503D

 45 47  0     0  0  0  0  0  0999 V2000
   -2.1657    1.4093    1.4655 O   0  0  0  0  0  0  0  0  0  0  0  0
    4.5362   -0.2694   -1.9293 O   0  0  0  0  0  0  0  0  0  0  0  0
   -3.4442   -1.3336   -0.2169 N   0  0  0  0  0  0  0  0  0  0  0  0
   -2.6893    2.5773   -0.4720 N   0  0  0  0  0  0  0  0  0  0  0  0
   -1.6363   -0.4755   -1.1840 N   0  0  0  0  0  0  0  0  0  0  0  0
    4.1104   -0.0866    0.3823 N   0  0  0  0  0  0  0  0  0  0  0  0
   -3.8033    0.6842   -1.6092 C   0  0  0  0  0  0  0  0  0  0  0  0
   -2.9349   -0.3541   -1.0233 C   0  0  0  0  0  0  0  0  0  0  0  0
   -3.9527    1.9387   -0.7270 C   0  0  0  0  0  0  0  0  0  0  0  0
   -2.4048   -2.1408    0.1687 C   0  0  0  0  0  0  0  0  0  0  0  0
   -1.2874   -1.5844   -0.4479 C   0  0  0  0  0  0  0  0  0  0  0  0
   -0.6137    3.0757    0.6410 C   0  0  0  0  0  0  0  0  0  0  0  0
    0.6359    2.2386    0.5718 C   0  0  0  0  0  0  0  0  0  0  0  0
   -1.8889    2.2550    0.6188 C   0  0  0  0  0  0  0  0  0  0  0  0
   -2.3477   -3.2751    0.9792 C   0  0  0  0  0  0  0  0  0  0  0  0
   -0.0305   -2.1822   -0.2557 C   0  0  0  0  0  0  0  0  0  0  0  0
    1.2365    1.7849    1.7462 C   0  0  0  0  0  0  0  0  0  0  0  0
    1.1933    1.9172   -0.6658 C   0  0  0  0  0  0  0  0  0  0  0  0
   -1.0886   -3.8570    1.1598 C   0  0  0  0  0  0  0  0  0  0  0  0
    0.0507   -3.3219    0.5542 C   0  0  0  0  0  0  0  0  0  0  0  0
    2.9520    0.6887    0.4452 C   0  0  0  0  0  0  0  0  0  0  0  0
    2.3946    1.0099    1.6829 C   0  0  0  0  0  0  0  0  0  0  0  0
    2.3514    1.1424   -0.7292 C   0  0  0  0  0  0  0  0  0  0  0  0
    4.8091   -0.5069   -0.7572 C   0  0  0  0  0  0  0  0  0  0  0  0
    6.0180   -1.3342   -0.3982 C   0  0  0  0  0  0  0  0  0  0  0  0
   -4.8000    0.2741   -1.8123 H   0  0  0  0  0  0  0  0  0  0  0  0
   -3.3866    0.9808   -2.5801 H   0  0  0  0  0  0  0  0  0  0  0  0
   -4.5929    2.6698   -1.2314 H   0  0  0  0  0  0  0  0  0  0  0  0
   -4.4218    1.6766    0.2283 H   0  0  0  0  0  0  0  0  0  0  0  0
   -4.4133   -1.4448    0.0506 H   0  0  0  0  0  0  0  0  0  0  0  0
   -2.3780    3.2800   -1.1357 H   0  0  0  0  0  0  0  0  0  0  0  0
   -0.5995    3.8159   -0.1683 H   0  0  0  0  0  0  0  0  0  0  0  0
   -0.6210    3.6633    1.5680 H   0  0  0  0  0  0  0  0  0  0  0  0
   -3.2334   -3.6885    1.4482 H   0  0  0  0  0  0  0  0  0  0  0  0
    0.8605   -1.7761   -0.7233 H   0  0  0  0  0  0  0  0  0  0  0  0
    0.8106    2.0267    2.7163 H   0  0  0  0  0  0  0  0  0  0  0  0
    0.7310    2.2629   -1.5868 H   0  0  0  0  0  0  0  0  0  0  0  0
   -0.9958   -4.7427    1.7835 H   0  0  0  0  0  0  0  0  0  0  0  0
    1.0157   -3.7964    0.7130 H   0  0  0  0  0  0  0  0  0  0  0  0
    2.8514    0.6623    2.6061 H   0  0  0  0  0  0  0  0  0  0  0  0
    2.7226    0.9332   -1.7227 H   0  0  0  0  0  0  0  0  0  0  0  0
    4.4868   -0.3786    1.2819 H   0  0  0  0  0  0  0  0  0  0  0  0
    6.5242   -1.6656   -1.3091 H   0  0  0  0  0  0  0  0  0  0  0  0
    6.7126   -0.7345    0.1966 H   0  0  0  0  0  0  0  0  0  0  0  0
    5.7093   -2.2128    0.1753 H   0  0  0  0  0  0  0  0  0  0  0  0
  1 14  2  0  0  0  0
  2 24  2  0  0  0  0
  3  8  1  0  0  0  0
  3 10  1  0  0  0  0
  3 30  1  0  0  0  0
  4  9  1  0  0  0  0
  4 14  1  0  0  0  0
  4 31  1  0  0  0  0
  5  8  2  0  0  0  0
  5 11  1  0  0  0  0
  6 21  1  0  0  0  0
  6 24  1  0  0  0  0
  6 42  1  0  0  0  0
  7  8  1  0  0  0  0
  7  9  1  0  0  0  0
  7 26  1  0  0  0  0
  7 27  1  0  0  0  0
  9 28  1  0  0  0  0
  9 29  1  0  0  0  0
 10 11  1  0  0  0  0
 10 15  2  0  0  0  0
 11 16  2  0  0  0  0
 12 13  1  0  0  0  0
 12 14  1  0  0  0  0
 12 32  1  0  0  0  0
 12 33  1  0  0  0  0
 13 17  2  0  0  0  0
 13 18  1  0  0  0  0
 15 19  1  0  0  0  0
 15 34  1  0  0  0  0
 16 20  1  0  0  0  0
 16 35  1  0  0  0  0
 17 22  1  0  0  0  0
 17 36  1  0  0  0  0
 18 23  2  0  0  0  0
 18 37  1  0  0  0  0
 19 20  2  0  0  0  0
 19 38  1  0  0  0  0
 20 39  1  0  0  0  0
 21 22  2  0  0  0  0
 21 23  1  0  0  0  0
 22 40  1  0  0  0  0
 23 41  1  0  0  0  0
 24 25  1  0  0  0  0
 25 43  1  0  0  0  0
 25 44  1  0  0  0  0
 25 45  1  0  0  0  0
M  END
> <PUBCHEM_COMPOUND_CID>
17395425

> <PUBCHEM_CONFORMER_RMSD>
0.8

> <PUBCHEM_CONFORMER_DIVERSEORDER>
1
21
133
61
202
75
156
189
20
183
56
23
169
196
125
2
104
71
151
160
174
116
193
19
89
129
192
91
64
35
4
158
165
85
140
117
128
162
36
93
86
147
164
145
103
172
102
72
66
167
65
74
46
90
180
28
29
138
92
83
137
37
149
153
73
97
182
57
10
5
150
199
49
62
148
60
82
195
69
78
38
9
171
179
100
200
139
17
126
50
186
173
141
136
115
130
123
3
59
81
111
187
159
87
14
127
118
30
18
12
95
99
79
188
16
24
70
31
120
152
106
53
77
113
27
26
55
96
201
114
177
94
33
185
134
58
203
68
119
143
51
184
39
11
112
107
32
8
132
76
124
105
190
54
144
161
98
110
175
7
80
166
131
101
88
48
122
109
40
135
22
191
181
42
121
25
52
45
84
163
6
154
178
198
63
146
168
15
47
67
194
13
34
142
108
170
155
44
197
176
43
157
41

> <PUBCHEM_MMFF94_PARTIAL_CHARGES>
36
1 -0.57
10 -0.15
11 0.23
12 0.2
13 -0.14
14 0.57
15 -0.15
16 -0.15
17 -0.15
18 -0.15
19 -0.15
2 -0.57
20 -0.15
21 0.12
22 -0.15
23 -0.15
24 0.57
25 0.06
3 0.03
30 0.27
31 0.37
34 0.15
35 0.15
36 0.15
37 0.15
38 0.15
39 0.15
4 -0.73
40 0.15
41 0.15
42 0.37
5 -0.57
6 -0.55
7 0.18
8 0.01
9 0.3

> <PUBCHEM_EFFECTIVE_ROTOR_COUNT>
8

> <PUBCHEM_PHARMACOPHORE_FEATURES>
9
1 1 acceptor
1 2 acceptor
1 3 donor
1 4 donor
1 6 donor
3 3 5 8 cation
5 3 5 8 10 11 rings
6 10 11 15 16 19 20 rings
6 13 17 18 21 22 23 rings

> <PUBCHEM_HEAVY_ATOM_COUNT>
25

> <PUBCHEM_ATOM_DEF_STEREO_COUNT>
0

> <PUBCHEM_ATOM_UDEF_STEREO_COUNT>
0

> <PUBCHEM_BOND_DEF_STEREO_COUNT>
0

> <PUBCHEM_BOND_UDEF_STEREO_COUNT>
0

> <PUBCHEM_ISOTOPIC_ATOM_COUNT>
0

> <PUBCHEM_COMPONENT_COUNT>
1

> <PUBCHEM_CACTVS_TAUTO_COUNT>
8

> <PUBCHEM_CONFORMER_ID>
01096EE100000001

> <PUBCHEM_MMFF94_ENERGY>
47.7697

> <PUBCHEM_FEATURE_SELFOVERLAP>
45.776

> <PUBCHEM_SHAPE_FINGERPRINT>
10693767 8 17537184466498403351
10764073 3 18192688109089915843
107951 10 18339078310612384653
11135609 12 18196651800588071200
11458722 379 18335145344318728341
12553582 1 17116645341621619307
12712778 12 18339658780175639506
12788726 201 18261958574020552450
13941206 138 18129378361957460634
14251740 79 18261670497399584696
14251757 5 18341320107652985118
14289585 56 16986303044750001094
14866123 147 18337101358440983811
14931854 50 18264497358610430997
15322534 239 18121211245647944070
16752209 62 18340499884578768129
17627616 140 17908984649373409602
20600515 1 18126876844498096944
20775438 99 16744849929997018671
20905425 154 17972047100034435365
23466295 7 18270106920874975987
2818148 4 17908675376966757265
3027735 51 18188762993890656790
4058900 60 17913490422523049269
5282940 2 17907300205837815803
574716 61 17489013873915465012
6287921 2 15529938895891683498
9709674 26 18190472562229765668
9862886 166 18408042923239780100

> <PUBCHEM_SHAPE_MULTIPOLES>
482.83
8.56
4.52
1.51
11.08
2.54
-0.07
1.2
3.67
-3.38
-1.73
0.27
-0.27
1.26

> <PUBCHEM_SHAPE_SELFOVERLAP>
1037.319

> <PUBCHEM_SHAPE_VOLUME>
266.4

> <PUBCHEM_COORDINATE_TYPE>
2
5
10

$$$$

