7560
  -OEChem-06261202093D

 24 24  0     0  0  0  0  0  0999 V2000
   -1.3909   -1.6079   -0.0063 O   0  0  0  0  0  0  0  0  0  0  0  0
   -2.8434    0.1945    0.0023 N   0  0  0  0  0  0  0  0  0  0  0  0
   -0.5134    0.5467   -0.0020 N   0  0  0  0  0  0  0  0  0  0  0  0
    0.8799    0.2881   -0.0014 C   0  0  0  0  0  0  0  0  0  0  0  0
   -1.5536   -0.3859    0.0053 C   0  0  0  0  0  0  0  0  0  0  0  0
    1.7645    1.3527   -0.0095 C   0  0  0  0  0  0  0  0  0  0  0  0
    1.3241   -1.0228    0.0081 C   0  0  0  0  0  0  0  0  0  0  0  0
   -4.0565   -0.6129   -0.0146 C   0  0  0  0  0  0  0  0  0  0  0  0
   -3.0440    1.6421    0.0161 C   0  0  0  0  0  0  0  0  0  0  0  0
    3.1360    1.0985   -0.0084 C   0  0  0  0  0  0  0  0  0  0  0  0
    2.6956   -1.2769    0.0093 C   0  0  0  0  0  0  0  0  0  0  0  0
    3.6016   -0.2162    0.0010 C   0  0  0  0  0  0  0  0  0  0  0  0
   -0.7450    1.5340   -0.0088 H   0  0  0  0  0  0  0  0  0  0  0  0
    1.4126    2.3805   -0.0166 H   0  0  0  0  0  0  0  0  0  0  0  0
    0.6989   -1.9019    0.0172 H   0  0  0  0  0  0  0  0  0  0  0  0
   -4.6340   -0.3628   -0.9092 H   0  0  0  0  0  0  0  0  0  0  0  0
   -4.6426   -0.3876    0.8811 H   0  0  0  0  0  0  0  0  0  0  0  0
   -3.8218   -1.6800   -0.0281 H   0  0  0  0  0  0  0  0  0  0  0  0
   -4.1118    1.8798    0.0426 H   0  0  0  0  0  0  0  0  0  0  0  0
   -2.6076    2.0761   -0.8884 H   0  0  0  0  0  0  0  0  0  0  0  0
   -2.5671    2.0680    0.9040 H   0  0  0  0  0  0  0  0  0  0  0  0
    3.8415    1.9243   -0.0147 H   0  0  0  0  0  0  0  0  0  0  0  0
    3.0601   -2.3002    0.0172 H   0  0  0  0  0  0  0  0  0  0  0  0
    4.6694   -0.4142    0.0020 H   0  0  0  0  0  0  0  0  0  0  0  0
  1  5  2  0  0  0  0
  2  5  1  0  0  0  0
  2  8  1  0  0  0  0
  2  9  1  0  0  0  0
  3  4  1  0  0  0  0
  3  5  1  0  0  0  0
  3 13  1  0  0  0  0
  4  6  2  0  0  0  0
  4  7  1  0  0  0  0
  6 10  1  0  0  0  0
  6 14  1  0  0  0  0
  7 11  2  0  0  0  0
  7 15  1  0  0  0  0
  8 16  1  0  0  0  0
  8 17  1  0  0  0  0
  8 18  1  0  0  0  0
  9 19  1  0  0  0  0
  9 20  1  0  0  0  0
  9 21  1  0  0  0  0
 10 12  2  0  0  0  0
 10 22  1  0  0  0  0
 11 12  1  0  0  0  0
 11 23  1  0  0  0  0
 12 24  1  0  0  0  0
M  END
> <PUBCHEM_COMPOUND_CID>
7560

> <PUBCHEM_CONFORMER_RMSD>
0.6

> <PUBCHEM_CONFORMER_DIVERSEORDER>
1
4
5
2
3

> <PUBCHEM_MMFF94_PARTIAL_CHARGES>
18
1 -0.57
10 -0.15
11 -0.15
12 -0.15
13 0.37
14 0.15
15 0.15
2 -0.66
22 0.15
23 0.15
24 0.15
3 -0.55
4 0.12
5 0.69
6 -0.15
7 -0.15
8 0.3
9 0.3

> <PUBCHEM_EFFECTIVE_ROTOR_COUNT>
3

> <PUBCHEM_PHARMACOPHORE_FEATURES>
3
1 1 acceptor
1 3 donor
6 4 6 7 10 11 12 rings

> <PUBCHEM_HEAVY_ATOM_COUNT>
12

> <PUBCHEM_ATOM_DEF_STEREO_COUNT>
0

> <PUBCHEM_ATOM_UDEF_STEREO_COUNT>
0

> <PUBCHEM_BOND_DEF_STEREO_COUNT>
0

> <PUBCHEM_BOND_UDEF_STEREO_COUNT>
0

> <PUBCHEM_ISOTOPIC_ATOM_COUNT>
0

> <PUBCHEM_COMPONENT_COUNT>
1

> <PUBCHEM_CACTVS_TAUTO_COUNT>
2

> <PUBCHEM_CONFORMER_ID>
00001D8800000001

> <PUBCHEM_MMFF94_ENERGY>
36.9961

> <PUBCHEM_FEATURE_SELFOVERLAP>
15.223

> <PUBCHEM_SHAPE_FINGERPRINT>
10608611 8 18410859849616822065
11062470 55 17822010912714112834
11471102 20 18411422808418218708
12162725 195 18410011039667226349
12932764 1 17458354013306570185
13380535 76 18411138013194898490
14144814 61 18410574006700231737
14325111 11 18410574002537198049
14415576 193 18412539895173775212
15442244 35 18193838373527966280
15775835 57 18261671476277464948
18186145 218 18338232781691164269
200 152 18186812365941850901
20201158 50 18410854373702188354
20645477 70 18409735101109485151
20871998 22 18046345503502841094
23402539 116 18261402135184771973
23402655 69 18335989735231948525
3248919 1 17346589760070561617
5104073 3 18410575106143288577
69090 78 18335143068418714511
93112 12 18410575071788759149

> <PUBCHEM_SHAPE_MULTIPOLES>
231.12
6.95
1.59
0.59
3.07
0.12
0
0.25
0.01
0.04
0
-0.04
0.01
-0.02

> <PUBCHEM_SHAPE_SELFOVERLAP>
469.731

> <PUBCHEM_SHAPE_VOLUME>
135.1

> <PUBCHEM_COORDINATE_TYPE>
2
5
10

$$$$

