47205710
  -OEChem-06241223002D

 33 34  0     0  0  0  0  0  0999 V2000
    5.9313   -2.6012    0.0000 O   0  0  0  0  0  0  0  0  0  0  0  0
    9.3954   -2.6012    0.0000 O   0  0  0  0  0  0  0  0  0  0  0  0
    4.1993    0.3988    0.0000 O   0  0  0  0  0  0  0  0  0  0  0  0
    7.6634   -2.6012    0.0000 N   0  0  0  0  0  0  0  0  0  0  0  0
    8.5294   -1.1012    0.0000 N   0  0  0  0  0  0  0  0  0  0  0  0
    5.0653    1.8988    0.0000 N   0  0  0  0  0  0  0  0  0  0  0  0
    2.6166    2.7352    0.0000 N   0  0  0  0  0  0  0  0  0  0  0  0
    3.1166    3.6012    0.0000 N   0  0  0  0  0  0  0  0  0  0  0  0
    6.7974   -1.1012    0.0000 C   0  0  0  0  0  0  0  0  0  0  0  0
    6.7974   -2.1012    0.0000 C   0  0  0  0  0  0  0  0  0  0  0  0
    7.6634   -0.6012    0.0000 C   0  0  0  0  0  0  0  0  0  0  0  0
    8.5294   -2.1012    0.0000 C   0  0  0  0  0  0  0  0  0  0  0  0
    7.6634   -3.6012    0.0000 C   0  0  0  0  0  0  0  0  0  0  0  0
    9.3954   -0.6012    0.0000 C   0  0  0  0  0  0  0  0  0  0  0  0
    5.9313   -0.6012    0.0000 C   0  0  0  0  0  0  0  0  0  0  0  0
    5.9313    0.3988    0.0000 C   0  0  0  0  0  0  0  0  0  0  0  0
    5.0653    0.8988    0.0000 C   0  0  0  0  0  0  0  0  0  0  0  0
    4.1993    2.3988    0.0000 C   0  0  0  0  0  0  0  0  0  0  0  0
    3.2857    1.9920    0.0000 C   0  0  0  0  0  0  0  0  0  0  0  0
    4.0948    3.3933    0.0000 C   0  0  0  0  0  0  0  0  0  0  0  0
    7.6634    0.0188    0.0000 H   0  0  0  0  0  0  0  0  0  0  0  0
    7.0434   -3.6012    0.0000 H   0  0  0  0  0  0  0  0  0  0  0  0
    7.6634   -4.2212    0.0000 H   0  0  0  0  0  0  0  0  0  0  0  0
    8.2834   -3.6012    0.0000 H   0  0  0  0  0  0  0  0  0  0  0  0
    9.7054   -1.1382    0.0000 H   0  0  0  0  0  0  0  0  0  0  0  0
    9.9324   -0.2912    0.0000 H   0  0  0  0  0  0  0  0  0  0  0  0
    9.0854   -0.0643    0.0000 H   0  0  0  0  0  0  0  0  0  0  0  0
    5.3944   -0.9112    0.0000 H   0  0  0  0  0  0  0  0  0  0  0  0
    6.4683    0.7088    0.0000 H   0  0  0  0  0  0  0  0  0  0  0  0
    5.6022    2.2088    0.0000 H   0  0  0  0  0  0  0  0  0  0  0  0
    3.1568    1.3856    0.0000 H   0  0  0  0  0  0  0  0  0  0  0  0
    4.5555    3.8082    0.0000 H   0  0  0  0  0  0  0  0  0  0  0  0
    2.0000    2.6704    0.0000 H   0  0  0  0  0  0  0  0  0  0  0  0
  1 10  2  0  0  0  0
  2 12  2  0  0  0  0
  3 17  2  0  0  0  0
  4 10  1  0  0  0  0
  4 12  1  0  0  0  0
  4 13  1  0  0  0  0
  5 11  1  0  0  0  0
  5 12  1  0  0  0  0
  5 14  1  0  0  0  0
  6 17  1  0  0  0  0
  6 18  1  0  0  0  0
  6 30  1  0  0  0  0
  7  8  1  0  0  0  0
  7 19  1  0  0  0  0
  7 33  1  0  0  0  0
  8 20  2  0  0  0  0
  9 10  1  0  0  0  0
  9 11  2  0  0  0  0
  9 15  1  0  0  0  0
 11 21  1  0  0  0  0
 13 22  1  0  0  0  0
 13 23  1  0  0  0  0
 13 24  1  0  0  0  0
 14 25  1  0  0  0  0
 14 26  1  0  0  0  0
 14 27  1  0  0  0  0
 15 16  2  3  0  0  0
 15 28  1  0  0  0  0
 16 17  1  0  0  0  0
 16 29  1  0  0  0  0
 18 19  2  0  0  0  0
 18 20  1  0  0  0  0
 19 31  1  0  0  0  0
 20 32  1  0  0  0  0
M  END
> <PUBCHEM_COMPOUND_CID>
47205710

> <PUBCHEM_COMPOUND_CANONICALIZED>
1

> <PUBCHEM_CACTVS_COMPLEXITY>
499

> <PUBCHEM_CACTVS_HBOND_ACCEPTOR>
4

> <PUBCHEM_CACTVS_HBOND_DONOR>
2

> <PUBCHEM_CACTVS_ROTATABLE_BOND>
3

> <PUBCHEM_CACTVS_SUBSKEYS>
AAADccBzsAAAAAAAAAAAAAAAAAAAAWAAAAAgAAAAAAAAAAABgAAAHgAYAAAADAjBkgQvwJPjAACqAjV3UACQBAAhkgAYOaEodFiIQIAAQUAUhAAIHyKIgcIAAAAAAAAAAAAAAAAAAAAAAAAAAAAAAAAAAA==

> <PUBCHEM_IUPAC_OPENEYE_NAME>
3-(1,3-dimethyl-2,4-dioxo-pyrimidin-5-yl)-N-(1H-pyrazol-4-yl)prop-2-enamide

> <PUBCHEM_IUPAC_CAS_NAME>
3-(1,3-dimethyl-2,4-dioxo-5-pyrimidinyl)-N-(1H-pyrazol-4-yl)-2-propenamide

> <PUBCHEM_IUPAC_NAME>
3-(1,3-dimethyl-2,4-dioxopyrimidin-5-yl)-N-(1H-pyrazol-4-yl)prop-2-enamide

> <PUBCHEM_IUPAC_SYSTEMATIC_NAME>
3-[1,3-dimethyl-2,4-bis(oxidanylidene)pyrimidin-5-yl]-N-(1H-pyrazol-4-yl)prop-2-enamide

> <PUBCHEM_IUPAC_TRADITIONAL_NAME>
3-(2,4-diketo-1,3-dimethyl-pyrimidin-5-yl)-N-(1H-pyrazol-4-yl)acrylamide

> <PUBCHEM_IUPAC_INCHI>
InChI=1S/C12H13N5O3/c1-16-7-8(11(19)17(2)12(16)20)3-4-10(18)15-9-5-13-14-6-9/h3-7H,1-2H3,(H,13,14)(H,15,18)

> <PUBCHEM_IUPAC_INCHIKEY>
BTEGFTRXOBICQV-UHFFFAOYSA-N

> <PUBCHEM_XLOGP3_AA>
-1

> <PUBCHEM_EXACT_MASS>
275.101839

> <PUBCHEM_MOLECULAR_FORMULA>
C12H13N5O3

> <PUBCHEM_MOLECULAR_WEIGHT>
275.26332

> <PUBCHEM_OPENEYE_CAN_SMILES>
CN1C=C(C(=O)N(C1=O)C)C=CC(=O)NC2=CNN=C2

> <PUBCHEM_OPENEYE_ISO_SMILES>
CN1C=C(C(=O)N(C1=O)C)C=CC(=O)NC2=CNN=C2

> <PUBCHEM_CACTVS_TPSA>
98.4

> <PUBCHEM_MONOISOTOPIC_WEIGHT>
275.101839

> <PUBCHEM_TOTAL_CHARGE>
0

> <PUBCHEM_HEAVY_ATOM_COUNT>
20

> <PUBCHEM_ATOM_DEF_STEREO_COUNT>
0

> <PUBCHEM_ATOM_UDEF_STEREO_COUNT>
0

> <PUBCHEM_BOND_DEF_STEREO_COUNT>
0

> <PUBCHEM_BOND_UDEF_STEREO_COUNT>
1

> <PUBCHEM_ISOTOPIC_ATOM_COUNT>
0

> <PUBCHEM_COMPONENT_COUNT>
1

> <PUBCHEM_CACTVS_TAUTO_COUNT>
4

> <PUBCHEM_COORDINATE_TYPE>
1
5
255

> <PUBCHEM_BONDANNOTATIONS>
15  16  1
18  19  8
18  20  8
4  10  8
4  12  8
5  11  8
5  12  8
7  19  8
7  8  8
8  20  8
9  10  8
9  11  8

$$$$

