6510
  -OEChem-06261201212D

 23 22  0     0  0  0  0  0  0999 V2000
    2.5369   -0.2685    0.0000 O   0  0  0  0  0  0  0  0  0  0  0  0
    6.0010   -0.2685    0.0000 O   0  0  0  0  0  0  0  0  0  0  0  0
    4.2690    1.4636    0.0000 O   0  0  0  0  0  0  0  0  0  0  0  0
    4.2690   -0.2685    0.0000 C   0  0  0  0  0  0  0  0  0  0  0  0
    4.7690   -1.1345    0.0000 C   0  0  0  0  0  0  0  0  0  0  0  0
    5.1350    0.2315    0.0000 C   0  0  0  0  0  0  0  0  0  0  0  0
    3.4030   -0.7685    0.0000 C   0  0  0  0  0  0  0  0  0  0  0  0
    3.7690    0.5976    0.0000 C   0  0  0  0  0  0  0  0  0  0  0  0
    4.2690   -2.0005    0.0000 C   0  0  0  0  0  0  0  0  0  0  0  0
    5.2439   -1.5330    0.0000 H   0  0  0  0  0  0  0  0  0  0  0  0
    5.2439   -0.7360    0.0000 H   0  0  0  0  0  0  0  0  0  0  0  0
    5.5335    0.7065    0.0000 H   0  0  0  0  0  0  0  0  0  0  0  0
    4.7365    0.7065    0.0000 H   0  0  0  0  0  0  0  0  0  0  0  0
    3.0044   -1.2434    0.0000 H   0  0  0  0  0  0  0  0  0  0  0  0
    3.8015   -1.2434    0.0000 H   0  0  0  0  0  0  0  0  0  0  0  0
    3.2940    0.9961    0.0000 H   0  0  0  0  0  0  0  0  0  0  0  0
    3.2940    0.1990    0.0000 H   0  0  0  0  0  0  0  0  0  0  0  0
    3.7320   -1.6905    0.0000 H   0  0  0  0  0  0  0  0  0  0  0  0
    3.9590   -2.5375    0.0000 H   0  0  0  0  0  0  0  0  0  0  0  0
    4.8059   -2.3105    0.0000 H   0  0  0  0  0  0  0  0  0  0  0  0
    3.9590    2.0005    0.0000 H   0  0  0  0  0  0  0  0  0  0  0  0
    6.5380    0.0415    0.0000 H   0  0  0  0  0  0  0  0  0  0  0  0
    2.0000   -0.5785    0.0000 H   0  0  0  0  0  0  0  0  0  0  0  0
  1  7  1  0  0  0  0
  1 23  1  0  0  0  0
  2  6  1  0  0  0  0
  2 22  1  0  0  0  0
  3  8  1  0  0  0  0
  3 21  1  0  0  0  0
  4  5  1  0  0  0  0
  4  6  1  0  0  0  0
  4  7  1  0  0  0  0
  4  8  1  0  0  0  0
  5  9  1  0  0  0  0
  5 10  1  0  0  0  0
  5 11  1  0  0  0  0
  6 12  1  0  0  0  0
  6 13  1  0  0  0  0
  7 14  1  0  0  0  0
  7 15  1  0  0  0  0
  8 16  1  0  0  0  0
  8 17  1  0  0  0  0
  9 18  1  0  0  0  0
  9 19  1  0  0  0  0
  9 20  1  0  0  0  0
M  END
> <PUBCHEM_COMPOUND_CID>
6510

> <PUBCHEM_COMPOUND_CANONICALIZED>
1

> <PUBCHEM_CACTVS_COMPLEXITY>
60.4

> <PUBCHEM_CACTVS_HBOND_ACCEPTOR>
3

> <PUBCHEM_CACTVS_HBOND_DONOR>
3

> <PUBCHEM_CACTVS_ROTATABLE_BOND>
4

> <PUBCHEM_CACTVS_SUBSKEYS>
AAADccBgMAAAAAAAAAAAAAAAAAAAAAAAAAAAAAAAAAAAAAAAAAAAGgAACAAADgCggAICAAAAAgAAAAAAAAAAAAAAAAAAAAAAAAAAEAAAAAAAQAAFAAAAAAAAAAAJAAAAAAAAAAAAAAAAAAAAAAAAAAAAAA==

> <PUBCHEM_IUPAC_OPENEYE_NAME>
2-ethyl-2-(hydroxymethyl)propane-1,3-diol

> <PUBCHEM_IUPAC_CAS_NAME>
2-ethyl-2-(hydroxymethyl)propane-1,3-diol

> <PUBCHEM_IUPAC_NAME>
2-ethyl-2-(hydroxymethyl)propane-1,3-diol

> <PUBCHEM_IUPAC_SYSTEMATIC_NAME>
2-ethyl-2-(hydroxymethyl)propane-1,3-diol

> <PUBCHEM_IUPAC_TRADITIONAL_NAME>
2-ethyl-2-methylol-propane-1,3-diol

> <PUBCHEM_IUPAC_INCHI>
InChI=1S/C6H14O3/c1-2-6(3-7,4-8)5-9/h7-9H,2-5H2,1H3

> <PUBCHEM_IUPAC_INCHIKEY>
ZJCCRDAZUWHFQH-UHFFFAOYSA-N

> <PUBCHEM_XLOGP3_AA>
-0.8

> <PUBCHEM_EXACT_MASS>
134.094294

> <PUBCHEM_MOLECULAR_FORMULA>
C6H14O3

> <PUBCHEM_MOLECULAR_WEIGHT>
134.17356

> <PUBCHEM_OPENEYE_CAN_SMILES>
CCC(CO)(CO)CO

> <PUBCHEM_OPENEYE_ISO_SMILES>
CCC(CO)(CO)CO

> <PUBCHEM_CACTVS_TPSA>
60.7

> <PUBCHEM_MONOISOTOPIC_WEIGHT>
134.094294

> <PUBCHEM_TOTAL_CHARGE>
0

> <PUBCHEM_HEAVY_ATOM_COUNT>
9

> <PUBCHEM_ATOM_DEF_STEREO_COUNT>
0

> <PUBCHEM_ATOM_UDEF_STEREO_COUNT>
0

> <PUBCHEM_BOND_DEF_STEREO_COUNT>
0

> <PUBCHEM_BOND_UDEF_STEREO_COUNT>
0

> <PUBCHEM_ISOTOPIC_ATOM_COUNT>
0

> <PUBCHEM_COMPONENT_COUNT>
1

> <PUBCHEM_CACTVS_TAUTO_COUNT>
1

> <PUBCHEM_COORDINATE_TYPE>
1
5
255

$$$$

