17395588
  -OEChem-06241222513D

 39 41  0     1  0  0  0  0  0999 V2000
   -3.1226    2.9802   -0.5690 F   0  0  0  0  0  0  0  0  0  0  0  0
   -1.2281   -1.7221   -0.9711 N   0  0  1  0  0  0  0  0  0  0  0  0
    1.1776   -0.2691   -1.0040 N   0  0  0  0  0  0  0  0  0  0  0  0
    2.0100   -2.0203    0.4268 N   0  0  0  0  0  0  0  0  0  0  0  0
    3.9079   -1.6708    1.7729 N   0  0  0  0  0  0  0  0  0  0  0  0
   -1.7763   -1.6133    0.3793 C   0  0  0  0  0  0  0  0  0  0  0  0
    0.0644   -2.4108   -0.9428 C   0  0  0  0  0  0  0  0  0  0  0  0
   -2.7716   -0.4888    0.4706 C   0  0  0  0  0  0  0  0  0  0  0  0
    1.1559   -1.5091   -0.4744 C   0  0  0  0  0  0  0  0  0  0  0  0
   -2.1609   -2.4269   -1.8484 C   0  0  0  0  0  0  0  0  0  0  0  0
    3.1141    0.1286    0.3537 C   0  0  0  0  0  0  0  0  0  0  0  0
    2.1598    0.5490   -0.5871 C   0  0  0  0  0  0  0  0  0  0  0  0
    2.9805   -1.1752    0.8226 C   0  0  0  0  0  0  0  0  0  0  0  0
   -2.4797    0.7489   -0.1029 C   0  0  0  0  0  0  0  0  0  0  0  0
   -3.9866   -0.6843    1.1271 C   0  0  0  0  0  0  0  0  0  0  0  0
    4.1367    0.9927    0.7823 C   0  0  0  0  0  0  0  0  0  0  0  0
    2.2608    1.8479   -1.0795 C   0  0  0  0  0  0  0  0  0  0  0  0
   -3.4029    1.7912   -0.0193 C   0  0  0  0  0  0  0  0  0  0  0  0
   -4.9097    0.3579    1.2105 C   0  0  0  0  0  0  0  0  0  0  0  0
    4.2139    2.2854    0.2737 C   0  0  0  0  0  0  0  0  0  0  0  0
    3.2748    2.7132   -0.6582 C   0  0  0  0  0  0  0  0  0  0  0  0
   -4.6180    1.5957    0.6374 C   0  0  0  0  0  0  0  0  0  0  0  0
   -0.9955   -1.3723    1.1132 H   0  0  0  0  0  0  0  0  0  0  0  0
   -2.2151   -2.5652    0.7078 H   0  0  0  0  0  0  0  0  0  0  0  0
    0.3492   -2.7205   -1.9572 H   0  0  0  0  0  0  0  0  0  0  0  0
    0.0180   -3.3266   -0.3389 H   0  0  0  0  0  0  0  0  0  0  0  0
   -1.7727   -2.4588   -2.8728 H   0  0  0  0  0  0  0  0  0  0  0  0
   -3.1253   -1.9105   -1.9057 H   0  0  0  0  0  0  0  0  0  0  0  0
   -2.3415   -3.4572   -1.5203 H   0  0  0  0  0  0  0  0  0  0  0  0
   -1.5356    0.9302   -0.6089 H   0  0  0  0  0  0  0  0  0  0  0  0
   -4.2269   -1.6431    1.5786 H   0  0  0  0  0  0  0  0  0  0  0  0
    4.8814    0.6954    1.5147 H   0  0  0  0  0  0  0  0  0  0  0  0
    1.5376    2.2071   -1.8093 H   0  0  0  0  0  0  0  0  0  0  0  0
   -5.8558    0.2059    1.7218 H   0  0  0  0  0  0  0  0  0  0  0  0
    5.0009    2.9568    0.6035 H   0  0  0  0  0  0  0  0  0  0  0  0
    3.3274    3.7211   -1.0597 H   0  0  0  0  0  0  0  0  0  0  0  0
   -5.3365    2.4074    0.7024 H   0  0  0  0  0  0  0  0  0  0  0  0
    4.8755   -1.3835    1.6979 H   0  0  0  0  0  0  0  0  0  0  0  0
    3.7426   -2.6172    2.0957 H   0  0  0  0  0  0  0  0  0  0  0  0
  1 18  1  0  0  0  0
  2  6  1  0  0  0  0
  2  7  1  0  0  0  0
  2 10  1  0  0  0  0
  3  9  2  0  0  0  0
  3 12  1  0  0  0  0
  4  9  1  0  0  0  0
  4 13  2  0  0  0  0
  5 13  1  0  0  0  0
  5 38  1  0  0  0  0
  5 39  1  0  0  0  0
  6  8  1  0  0  0  0
  6 23  1  0  0  0  0
  6 24  1  0  0  0  0
  7  9  1  0  0  0  0
  7 25  1  0  0  0  0
  7 26  1  0  0  0  0
  8 14  2  0  0  0  0
  8 15  1  0  0  0  0
 10 27  1  0  0  0  0
 10 28  1  0  0  0  0
 10 29  1  0  0  0  0
 11 12  1  0  0  0  0
 11 13  1  0  0  0  0
 11 16  2  0  0  0  0
 12 17  2  0  0  0  0
 14 18  1  0  0  0  0
 14 30  1  0  0  0  0
 15 19  2  0  0  0  0
 15 31  1  0  0  0  0
 16 20  1  0  0  0  0
 16 32  1  0  0  0  0
 17 21  1  0  0  0  0
 17 33  1  0  0  0  0
 18 22  2  0  0  0  0
 19 22  1  0  0  0  0
 19 34  1  0  0  0  0
 20 21  2  0  0  0  0
 20 35  1  0  0  0  0
 21 36  1  0  0  0  0
 22 37  1  0  0  0  0
M  END
> <PUBCHEM_COMPOUND_CID>
17395588

> <PUBCHEM_CONFORMER_RMSD>
0.6

> <PUBCHEM_CONFORMER_DIVERSEORDER>
1
211
115
25
340
249
111
215
15
77
306
155
220
320
61
286
180
102
213
235
321
360
388
78
153
270
334
181
255
383
292
79
71
259
58
179
5
130
126
80
174
322
89
302
252
338
250
268
204
312
246
110
326
81
14
382
154
84
257
218
73
186
361
137
83
281
303
85
365
72
219
185
28
92
291
349
57
317
318
248
273
269
125
356
354
386
364
247
122
237
379
308
240
264
329
91
311
316
124
133
86
35
385
299
160
26
205
182
16
50
166
106
119
178
301
156
82
145
208
376
276
109
353
48
239
325
234
105
225
93
19
266
49
147
165
207
377
236
384
7
107
163
127
139
31
198
355
265
175
217
41
243
223
229
341
142
169
32
307
262
176
13
210
24
221
171
278
352
149
224
55
183
9
359
177
2
389
134
344
253
75
283
29
132
216
8
144
123
367
51
90
136
148
194
387
44
287
45
202
146
289
120
33
232
140
284
17
131
30
67
98
381
59
108
345
336
150
74
6
206
272
113
184
378
296
103
348
380
94
114
66
327
23
263
36
368
200
342
4
95
164
172
10
369
22
315
298
56
37
288
162
12
53
18
319
3
242
290
101
323
143
275
112
54
260
195
20
228
357
191
38
100
297
300
157
373
372
366
279
187
60
69
11
261
152
138
374
324
117
328
314
251
39
214
375
282
274
70
370
267
201
65
129
99
116
96
63
158
227
40
47
189
371
295
190
62
135
159
294
343
64
358
331
46
313
141
226
34
305
222
68
293
192
88
233
280
121
271
118
76
351
209
277
43
285
346
197
97
350
21
87
42
27
363
161
104
241
258
332
231
230
151
212
310
362
347
173
309
330
193
238
304
203
333
128
52
335
245
256
339
337
244
199
170
167
168
254
196
188

> <PUBCHEM_MMFF94_PARTIAL_CHARGES>
31
1 -0.19
10 0.27
12 0.31
13 0.41
14 -0.15
15 -0.15
16 -0.15
17 -0.15
18 0.19
19 -0.15
2 -0.81
20 -0.15
21 -0.15
22 -0.15
3 -0.62
30 0.15
31 0.15
32 0.15
33 0.15
34 0.15
35 0.15
36 0.15
37 0.15
38 0.4
39 0.4
4 -0.62
5 -0.9
6 0.41
7 0.41
8 -0.14
9 0.48

> <PUBCHEM_EFFECTIVE_ROTOR_COUNT>
4

> <PUBCHEM_PHARMACOPHORE_FEATURES>
7
1 2 cation
1 5 donor
3 3 4 9 cation
3 4 5 13 cation
6 11 12 16 17 20 21 rings
6 3 4 9 11 12 13 rings
6 8 14 15 18 19 22 rings

> <PUBCHEM_HEAVY_ATOM_COUNT>
22

> <PUBCHEM_ATOM_DEF_STEREO_COUNT>
0

> <PUBCHEM_ATOM_UDEF_STEREO_COUNT>
0

> <PUBCHEM_BOND_DEF_STEREO_COUNT>
0

> <PUBCHEM_BOND_UDEF_STEREO_COUNT>
0

> <PUBCHEM_ISOTOPIC_ATOM_COUNT>
0

> <PUBCHEM_COMPONENT_COUNT>
1

> <PUBCHEM_CACTVS_TAUTO_COUNT>
3

> <PUBCHEM_CONFORMER_ID>
01096F8400000001

> <PUBCHEM_MMFF94_ENERGY>
71.1984

> <PUBCHEM_FEATURE_SELFOVERLAP>
35.697

> <PUBCHEM_SHAPE_FINGERPRINT>
10382601 240 18059583447422857552
10498660 4 17458335299986355859
10670039 82 18193546784236064180
10759866 29 18271233950743520808
10871710 139 17975128747701110255
11640471 11 18334574599142134890
12363563 72 12751241367867223595
12403259 118 18338241560989452467
12422481 6 18195838300097275168
12633257 1 18057597870777486073
12788726 201 17898301502377364927
12892183 10 18060132124693740667
12978246 48 18409165532405914353
13583140 156 17774172334653585759
13965767 371 18411702092951279980
14026960 21 18338788001146512439
14251764 38 18267869569880348677
14251764 75 18189597407046618913
14739800 52 17608957304130116648
14790565 3 18129656380250558124
14957384 54 18340780350043024531
15342168 16 17968365845363677291
15475509 8 18341038637726116188
1601671 61 18338232790946029550
16994733 274 7528862759501484234
17810953 82 18264480849046834025
20715895 44 18050289468833748033
20739085 24 17988928877561616084
21033648 29 17753071653990984858
21475661 188 18126850636586330533
21503847 285 18412539912559353018
21756936 100 18053089628628020452
21864079 5 18409165485060507942
22149856 69 17676472983638865307
22749437 52 18263641925911610545
23227448 37 18335698287467608031
235170 7 5039658224001218897
23559900 14 18120079848383312015
38570 142 17628893674750981828
474 4 18200878348965030218
49207404 50 18269254872900100459
5048184 11 18335135354240647973
5104073 3 18272074038162756249
5252454 2 18187079516628012825
633830 44 18197771099546410980
636775 72 17325771375912036832
6438718 38 17750234699195251303
7097593 13 18202007650470491522
7615 1 18263944158386186982
7808743 9 18190457152124529984
960060 61 9006766550198310689

> <PUBCHEM_SHAPE_MULTIPOLES>
425.55
9.94
3.28
1.35
2.96
0.48
0.04
5.77
-3.74
-0.27
0.92
-0.02
-0.59
-1.39

> <PUBCHEM_SHAPE_SELFOVERLAP>
926.546

> <PUBCHEM_SHAPE_VOLUME>
233.6

> <PUBCHEM_COORDINATE_TYPE>
2
5
10

$$$$

