17395737
  -OEChem-06241222523D

 40 42  0     0  0  0  0  0  0999 V2000
    0.1500   -1.7253    1.5002 O   0  0  0  0  0  0  0  0  0  0  0  0
    1.8254    1.3038    0.1314 N   0  0  0  0  0  0  0  0  0  0  0  0
    3.8412    0.2498   -0.4048 N   0  0  0  0  0  0  0  0  0  0  0  0
   -0.4313   -0.5440   -0.4419 N   0  0  0  0  0  0  0  0  0  0  0  0
    0.7998    3.1279    1.2043 C   0  0  0  0  0  0  0  0  0  0  0  0
    0.5589    3.2396   -0.2911 C   0  0  0  0  0  0  0  0  0  0  0  0
    1.1685    1.6575    1.3875 C   0  0  0  0  0  0  0  0  0  0  0  0
    1.6374    2.3364   -0.8847 C   0  0  0  0  0  0  0  0  0  0  0  0
    2.5361    0.1401   -0.0696 C   0  0  0  0  0  0  0  0  0  0  0  0
    1.8732   -1.0670    0.0831 C   0  0  0  0  0  0  0  0  0  0  0  0
    2.5963   -2.2370   -0.1213 C   0  0  0  0  0  0  0  0  0  0  0  0
    0.4653   -1.1532    0.4456 C   0  0  0  0  0  0  0  0  0  0  0  0
    4.5115   -0.9087   -0.5954 C   0  0  0  0  0  0  0  0  0  0  0  0
    3.9412   -2.1650   -0.4672 C   0  0  0  0  0  0  0  0  0  0  0  0
   -1.8409   -0.4471   -0.3409 C   0  0  0  0  0  0  0  0  0  0  0  0
   -2.5014   -1.0044    0.7539 C   0  0  0  0  0  0  0  0  0  0  0  0
   -2.5683    0.2067   -1.3354 C   0  0  0  0  0  0  0  0  0  0  0  0
   -4.6167   -0.2546   -0.1403 C   0  0  0  0  0  0  0  0  0  0  0  0
   -3.8893   -0.9082    0.8543 C   0  0  0  0  0  0  0  0  0  0  0  0
   -3.9562    0.3029   -1.2352 C   0  0  0  0  0  0  0  0  0  0  0  0
   -6.1007   -0.1503   -0.0325 C   0  0  0  0  0  0  0  0  0  0  0  0
    1.6435    3.7654    1.4951 H   0  0  0  0  0  0  0  0  0  0  0  0
   -0.0701    3.4196    1.7994 H   0  0  0  0  0  0  0  0  0  0  0  0
   -0.4357    2.8496   -0.5389 H   0  0  0  0  0  0  0  0  0  0  0  0
    0.6248    4.2673   -0.6587 H   0  0  0  0  0  0  0  0  0  0  0  0
    1.8367    1.5295    2.2458 H   0  0  0  0  0  0  0  0  0  0  0  0
    0.2566    1.0844    1.5667 H   0  0  0  0  0  0  0  0  0  0  0  0
    1.3173    1.9181   -1.8446 H   0  0  0  0  0  0  0  0  0  0  0  0
    2.5714    2.8906   -1.0303 H   0  0  0  0  0  0  0  0  0  0  0  0
    2.1245   -3.2104   -0.0161 H   0  0  0  0  0  0  0  0  0  0  0  0
    5.5570   -0.7982   -0.8637 H   0  0  0  0  0  0  0  0  0  0  0  0
    4.5245   -3.0637   -0.6319 H   0  0  0  0  0  0  0  0  0  0  0  0
   -0.0341   -0.1112   -1.2732 H   0  0  0  0  0  0  0  0  0  0  0  0
   -2.0086   -1.5238    1.5632 H   0  0  0  0  0  0  0  0  0  0  0  0
   -2.0654    0.6470   -2.1926 H   0  0  0  0  0  0  0  0  0  0  0  0
   -4.3935   -1.3442    1.7129 H   0  0  0  0  0  0  0  0  0  0  0  0
   -4.5116    0.8168   -2.0152 H   0  0  0  0  0  0  0  0  0  0  0  0
   -6.3749    0.7617    0.5071 H   0  0  0  0  0  0  0  0  0  0  0  0
   -6.5682   -0.1262   -1.0228 H   0  0  0  0  0  0  0  0  0  0  0  0
   -6.5197   -1.0119    0.4983 H   0  0  0  0  0  0  0  0  0  0  0  0
  1 12  2  0  0  0  0
  2  7  1  0  0  0  0
  2  8  1  0  0  0  0
  2  9  1  0  0  0  0
  3  9  1  0  0  0  0
  3 13  2  0  0  0  0
  4 12  1  0  0  0  0
  4 15  1  0  0  0  0
  4 33  1  0  0  0  0
  5  6  1  0  0  0  0
  5  7  1  0  0  0  0
  5 22  1  0  0  0  0
  5 23  1  0  0  0  0
  6  8  1  0  0  0  0
  6 24  1  0  0  0  0
  6 25  1  0  0  0  0
  7 26  1  0  0  0  0
  7 27  1  0  0  0  0
  8 28  1  0  0  0  0
  8 29  1  0  0  0  0
  9 10  2  0  0  0  0
 10 11  1  0  0  0  0
 10 12  1  0  0  0  0
 11 14  2  0  0  0  0
 11 30  1  0  0  0  0
 13 14  1  0  0  0  0
 13 31  1  0  0  0  0
 14 32  1  0  0  0  0
 15 16  2  0  0  0  0
 15 17  1  0  0  0  0
 16 19  1  0  0  0  0
 16 34  1  0  0  0  0
 17 20  2  0  0  0  0
 17 35  1  0  0  0  0
 18 19  2  0  0  0  0
 18 20  1  0  0  0  0
 18 21  1  0  0  0  0
 19 36  1  0  0  0  0
 20 37  1  0  0  0  0
 21 38  1  0  0  0  0
 21 39  1  0  0  0  0
 21 40  1  0  0  0  0
M  END
> <PUBCHEM_COMPOUND_CID>
17395737

> <PUBCHEM_CONFORMER_RMSD>
0.8

> <PUBCHEM_CONFORMER_DIVERSEORDER>
1
2
4
3

> <PUBCHEM_MMFF94_PARTIAL_CHARGES>
27
1 -0.57
10 0.09
11 -0.15
12 0.54
13 0.16
14 -0.15
15 0.12
16 -0.15
17 -0.15
18 -0.14
19 -0.15
2 -0.84
20 -0.15
21 0.14
3 -0.62
30 0.15
31 0.15
32 0.15
33 0.37
34 0.15
35 0.15
36 0.15
37 0.15
4 -0.55
7 0.37
8 0.37
9 0.41

> <PUBCHEM_EFFECTIVE_ROTOR_COUNT>
5

> <PUBCHEM_PHARMACOPHORE_FEATURES>
7
1 1 acceptor
1 2 cation
1 3 acceptor
1 4 donor
5 2 5 6 7 8 rings
6 15 16 17 18 19 20 rings
6 3 9 10 11 13 14 rings

> <PUBCHEM_HEAVY_ATOM_COUNT>
21

> <PUBCHEM_ATOM_DEF_STEREO_COUNT>
0

> <PUBCHEM_ATOM_UDEF_STEREO_COUNT>
0

> <PUBCHEM_BOND_DEF_STEREO_COUNT>
0

> <PUBCHEM_BOND_UDEF_STEREO_COUNT>
0

> <PUBCHEM_ISOTOPIC_ATOM_COUNT>
0

> <PUBCHEM_COMPONENT_COUNT>
1

> <PUBCHEM_CACTVS_TAUTO_COUNT>
2

> <PUBCHEM_CONFORMER_ID>
0109701900000001

> <PUBCHEM_MMFF94_ENERGY>
83.0886

> <PUBCHEM_FEATURE_SELFOVERLAP>
35.52

> <PUBCHEM_SHAPE_FINGERPRINT>
10165383 225 17258746262691828161
10366900 7 17775288266284037619
104564 63 18190459565732639400
10688039 33 18272086153447982604
11045977 3 18272929402522237923
11421498 54 13686309001289591101
11578080 2 13109520509523668820
12236239 1 17385442124772897295
12617007 42 18335693949471550508
12788726 201 18266458905130708242
13134695 92 18187369822104988900
13533116 47 18336264527856445477
13911987 19 18269531928514148126
14170010 4 18334580109569137273
14251757 17 18131072674962896812
14341114 176 18409441488860663659
14866123 147 17185877731610350123
15081414 286 18408322164317214180
15210252 30 17846497079910387300
17357779 13 18336556022211506380
1813 80 17823123670137237118
18186145 218 18343030964994433579
18335252 114 18262247737426949789
18785283 64 18055348046453792392
21033648 29 18060151933615789797
21041028 32 18334572490344964609
21054139 6 11311477058167178609
21285901 2 18189045559730733774
21478907 32 18049156967282271466
21503847 285 18409731755482598001
21641784 216 18198602497888740076
221357 26 18340772623924360405
22289505 5 18339930406227610525
23175994 123 18410848893228758863
23402539 116 18261951980955953274
23419403 2 16913081977856701464
23559900 14 18060139804606793359
283562 15 18194678400934274930
3060560 45 18186520999223473798
350125 39 17761769568577305930
3524813 1 18060425715799372311
46194498 28 17845931840649492509
5895379 119 14924761481193244441
6438718 38 17606403417269667105
7164475 11 18049719913209614550
7471813 234 17894918429451639729
7495541 125 18342452612993195107
81228 2 18122056778779066104
9971528 1 18187089455203103290
9981440 41 17250915540878827569

> <PUBCHEM_SHAPE_MULTIPOLES>
411.36
9.46
2.97
1.18
10.13
2.66
-0.12
-4.21
1.82
-3.08
-0.47
0.36
0.25
0.66

> <PUBCHEM_SHAPE_SELFOVERLAP>
886.044

> <PUBCHEM_SHAPE_VOLUME>
227.6

> <PUBCHEM_COORDINATE_TYPE>
2
5
10

$$$$

