4172
  -OEChem-06251223563D

 54 54  0     1  0  0  0  0  0999 V2000
   -0.0907   -2.6733   -0.5637 I   0  0  0  0  0  0  0  0  0  0  0  0
    0.8934    3.3460   -0.8810 I   0  0  0  0  0  0  0  0  0  0  0  0
    5.6126   -0.4995   -0.4228 I   0  0  0  0  0  0  0  0  0  0  0  0
   -3.0610   -1.1153    1.8410 O   0  0  0  0  0  0  0  0  0  0  0  0
   -5.6347   -1.5437    1.1534 O   0  0  0  0  0  0  0  0  0  0  0  0
   -7.2365    0.3721   -0.0801 O   0  0  0  0  0  0  0  0  0  0  0  0
   -6.3464    0.1618   -2.6693 O   0  0  0  0  0  0  0  0  0  0  0  0
   -2.3427    1.8083    2.6988 O   0  0  0  0  0  0  0  0  0  0  0  0
   -1.2211    0.5401   -1.8874 O   0  0  0  0  0  0  0  0  0  0  0  0
    3.7063   -4.3792    0.9562 O   0  0  0  0  0  0  0  0  0  0  0  0
    4.1491    2.7880    1.6052 O   0  0  0  0  0  0  0  0  0  0  0  0
   -1.3437    0.6584    0.4256 N   0  0  0  0  0  0  0  0  0  0  0  0
    3.1258   -2.5508   -0.4170 N   0  0  0  0  0  0  0  0  0  0  0  0
    3.9061    2.2240   -0.6693 N   0  0  0  0  0  0  0  0  0  0  0  0
   -3.5640   -0.4322    0.6839 C   0  0  1  0  0  0  0  0  0  0  0  0
   -5.0845   -0.2503    0.8680 C   0  0  1  0  0  0  0  0  0  0  0  0
   -2.7675    0.8676    0.5094 C   0  0  1  0  0  0  0  0  0  0  0  0
   -5.8302    0.3589   -0.3311 C   0  0  1  0  0  0  0  0  0  0  0  0
   -5.6027   -0.4398   -1.6139 C   0  0  0  0  0  0  0  0  0  0  0  0
   -3.0022    1.8253    1.6623 C   0  0  0  0  0  0  0  0  0  0  0  0
   -0.6810    0.5101   -0.7847 C   0  0  0  0  0  0  0  0  0  0  0  0
    0.7835    0.2751   -0.7002 C   0  0  0  0  0  0  0  0  0  0  0  0
    1.2548   -1.0224   -0.5992 C   0  0  0  0  0  0  0  0  0  0  0  0
    2.6298   -1.2431   -0.5201 C   0  0  0  0  0  0  0  0  0  0  0  0
    1.6439    1.3588   -0.7247 C   0  0  0  0  0  0  0  0  0  0  0  0
    3.0190    1.1382   -0.6457 C   0  0  0  0  0  0  0  0  0  0  0  0
    3.5120   -0.1628   -0.5433 C   0  0  0  0  0  0  0  0  0  0  0  0
    3.3451   -3.3228   -1.6754 C   0  0  0  0  0  0  0  0  0  0  0  0
    3.3444   -3.2055    0.8398 C   0  0  0  0  0  0  0  0  0  0  0  0
    4.3965    2.9550    0.4153 C   0  0  0  0  0  0  0  0  0  0  0  0
    3.1544   -2.3966    2.1024 C   0  0  0  0  0  0  0  0  0  0  0  0
    5.3321    4.0497   -0.0326 C   0  0  0  0  0  0  0  0  0  0  0  0
   -3.3586   -1.1072   -0.1539 H   0  0  0  0  0  0  0  0  0  0  0  0
   -5.2895    0.3435    1.7665 H   0  0  0  0  0  0  0  0  0  0  0  0
   -3.0887    1.3834   -0.4025 H   0  0  0  0  0  0  0  0  0  0  0  0
   -5.5240    1.4001   -0.4800 H   0  0  0  0  0  0  0  0  0  0  0  0
   -0.8110    0.5923    1.2889 H   0  0  0  0  0  0  0  0  0  0  0  0
   -4.5507   -0.4450   -1.9104 H   0  0  0  0  0  0  0  0  0  0  0  0
   -5.9591   -1.4697   -1.5098 H   0  0  0  0  0  0  0  0  0  0  0  0
   -3.8552    2.5155    1.5448 H   0  0  0  0  0  0  0  0  0  0  0  0
   -3.5593   -1.9460    1.9278 H   0  0  0  0  0  0  0  0  0  0  0  0
   -6.5934   -1.4315    1.2729 H   0  0  0  0  0  0  0  0  0  0  0  0
   -7.6685    0.7656   -0.8576 H   0  0  0  0  0  0  0  0  0  0  0  0
   -6.1860   -0.3680   -3.4689 H   0  0  0  0  0  0  0  0  0  0  0  0
    4.2763    2.4455   -1.5910 H   0  0  0  0  0  0  0  0  0  0  0  0
    4.4025   -3.5990   -1.7242 H   0  0  0  0  0  0  0  0  0  0  0  0
    3.0709   -2.7291   -2.5518 H   0  0  0  0  0  0  0  0  0  0  0  0
    2.7525   -4.2412   -1.6337 H   0  0  0  0  0  0  0  0  0  0  0  0
    2.1645   -1.9355    2.1249 H   0  0  0  0  0  0  0  0  0  0  0  0
    3.9242   -1.6273    2.1831 H   0  0  0  0  0  0  0  0  0  0  0  0
    3.2354   -3.0561    2.9722 H   0  0  0  0  0  0  0  0  0  0  0  0
    6.2440    3.6071   -0.4428 H   0  0  0  0  0  0  0  0  0  0  0  0
    5.5937    4.6840    0.8188 H   0  0  0  0  0  0  0  0  0  0  0  0
    4.8501    4.6672   -0.7959 H   0  0  0  0  0  0  0  0  0  0  0  0
  1 23  1  0  0  0  0
  2 25  1  0  0  0  0
  3 27  1  0  0  0  0
  4 15  1  0  0  0  0
  4 41  1  0  0  0  0
  5 16  1  0  0  0  0
  5 42  1  0  0  0  0
  6 18  1  0  0  0  0
  6 43  1  0  0  0  0
  7 19  1  0  0  0  0
  7 44  1  0  0  0  0
  8 20  2  0  0  0  0
  9 21  2  0  0  0  0
 10 29  2  0  0  0  0
 11 30  2  0  0  0  0
 12 17  1  0  0  0  0
 12 21  1  0  0  0  0
 12 37  1  0  0  0  0
 13 24  1  0  0  0  0
 13 28  1  0  0  0  0
 13 29  1  0  0  0  0
 14 26  1  0  0  0  0
 14 30  1  0  0  0  0
 14 45  1  0  0  0  0
 15 16  1  0  0  0  0
 15 17  1  0  0  0  0
 15 33  1  0  0  0  0
 16 18  1  0  0  0  0
 16 34  1  0  0  0  0
 17 20  1  0  0  0  0
 17 35  1  0  0  0  0
 18 19  1  0  0  0  0
 18 36  1  0  0  0  0
 19 38  1  0  0  0  0
 19 39  1  0  0  0  0
 20 40  1  0  0  0  0
 21 22  1  0  0  0  0
 22 23  1  0  0  0  0
 22 25  2  0  0  0  0
 23 24  2  0  0  0  0
 24 27  1  0  0  0  0
 25 26  1  0  0  0  0
 26 27  2  0  0  0  0
 28 46  1  0  0  0  0
 28 47  1  0  0  0  0
 28 48  1  0  0  0  0
 29 31  1  0  0  0  0
 30 32  1  0  0  0  0
 31 49  1  0  0  0  0
 31 50  1  0  0  0  0
 31 51  1  0  0  0  0
 32 52  1  0  0  0  0
 32 53  1  0  0  0  0
 32 54  1  0  0  0  0
M  END
> <PUBCHEM_COMPOUND_CID>
4172

> <PUBCHEM_CONFORMER_RMSD>
1.2

> <PUBCHEM_CONFORMER_DIVERSEORDER>
1
112
197
207
4
142
119
43
72
154
38
108
83
215
93
143
121
55
21
50
102
116
182
87
34
39
75
135
173
91
58
24
3
18
156
132
152
10
90
16
206
5
66
191
65
123
84
15
13
155
158
188
37
208
110
19
166
180
174
49
27
95
60
8
176
212
56
30
199
53
92
111
159
54
69
7
124
181
125
96
88
48
164
41
115
133
168
179
79
74
81
113
185
40
200
22
146
2
14
117
47
80
9
26
44
128
169
98
134
118
192
195
23
6
86
67
198
94
175
213
64
127
171
33
177
89
57
210
186
62
172
100
42
25
138
97
28
190
162
170
178
103
61
99
148
193
36
187
68
136
194
202
204
120
52
189
105
203
163
70
51
139
214
63
183
122
153
17
78
114
71
29
109
149
82
147
141
45
73
140
59
144
130
201
12
150
137
46
101
11
145
151
104
76
31
196
129
35
77
167
85
209
184
161
106
126
107
160
131
32
20
165
157
205
211

> <PUBCHEM_MMFF94_PARTIAL_CHARGES>
39
1 -0.08
10 -0.57
11 -0.57
12 -0.73
13 -0.48
14 -0.55
15 0.28
16 0.28
17 0.36
18 0.28
19 0.28
2 -0.08
20 0.45
21 0.54
22 0.09
23 0.08
24 0.12
25 0.08
26 0.12
27 0.08
28 0.3
29 0.57
3 -0.08
30 0.57
31 0.06
32 0.06
37 0.37
4 -0.68
40 0.06
41 0.4
42 0.4
43 0.4
44 0.4
45 0.37
5 -0.68
6 -0.68
7 -0.68
8 -0.57
9 -0.57

> <PUBCHEM_EFFECTIVE_ROTOR_COUNT>
12

> <PUBCHEM_PHARMACOPHORE_FEATURES>
18
1 1 hydrophobe
1 10 acceptor
1 11 acceptor
1 12 donor
1 14 donor
1 2 hydrophobe
1 3 hydrophobe
1 4 acceptor
1 4 donor
1 5 acceptor
1 5 donor
1 6 acceptor
1 6 donor
1 7 acceptor
1 7 donor
1 8 acceptor
1 9 acceptor
6 22 23 24 25 26 27 rings

> <PUBCHEM_HEAVY_ATOM_COUNT>
32

> <PUBCHEM_ATOM_DEF_STEREO_COUNT>
0

> <PUBCHEM_ATOM_UDEF_STEREO_COUNT>
4

> <PUBCHEM_BOND_DEF_STEREO_COUNT>
0

> <PUBCHEM_BOND_UDEF_STEREO_COUNT>
0

> <PUBCHEM_ISOTOPIC_ATOM_COUNT>
0

> <PUBCHEM_COMPONENT_COUNT>
1

> <PUBCHEM_CACTVS_TAUTO_COUNT>
8

> <PUBCHEM_CONFORMER_ID>
0000104C00000001

> <PUBCHEM_MMFF94_ENERGY>
142.4638

> <PUBCHEM_FEATURE_SELFOVERLAP>
91.376

> <PUBCHEM_SHAPE_FINGERPRINT>
11475781 23 17131569314009995877
11796584 16 14836113352088424992
12236239 1 17821728304341193045
12633257 1 17979619462178822299
13140716 1 17619068774025975964
13533116 47 18412541046240626867
14787075 74 17677044647046831489
14790565 3 17550092672530635364
14955137 171 18263634230037130422
15183329 4 16487259855314207283
17349148 13 18262513810165483991
17809404 112 17917418792558010323
20511986 3 18262245421890639103
21033648 29 17489871531892724781
21049683 118 17900282814167450824
2132832 1 18189616206218141385
21703447 108 18342181115119803784
23559900 14 18272082799489487073
23845131 108 18196653995695881362
3178227 256 18412831283630979824
32027 91 18129949008650688027
3633792 109 18410577323116636829
4073 2 18129654206716875219
5104073 3 18338221765654003705
8988823 20 18412829113591385582

> <PUBCHEM_SHAPE_MULTIPOLES>
632.45
14.51
4.71
1.9
20.81
0.29
0.36
-1.49
-0.84
-9.33
0.71
1.71
0.15
-0.22

> <PUBCHEM_SHAPE_SELFOVERLAP>
1235.447

> <PUBCHEM_SHAPE_VOLUME>
389.4

> <PUBCHEM_COORDINATE_TYPE>
2
5
10

$$$$

