13515
  -OEChem-06241222392D

 13 11  0     1  0  0  0  0  0999 V2000
    1.7321    0.8660    0.0000 S   0  0  0  0  0  0  0  0  0  0  0  0
    0.0000    0.8660    0.0000 Na  0  3  0  0  0  0  0  0  0  0  0  0
    3.4641    0.8660    0.0000 O   0  0  0  0  0  0  0  0  0  0  0  0
    0.8660    0.3660    0.0000 O   0  5  0  0  0  0  0  0  0  0  0  0
    1.2321    1.7321    0.0000 O   0  0  0  0  0  0  0  0  0  0  0  0
    2.2321    0.0000    0.0000 O   0  0  0  0  0  0  0  0  0  0  0  0
    2.5981    1.3660    0.0000 C   0  0  3  0  0  0  0  0  0  0  0  0
    2.5981    2.3660    0.0000 C   0  0  0  0  0  0  0  0  0  0  0  0
    2.5981    0.7460    0.0000 H   0  0  0  0  0  0  0  0  0  0  0  0
    3.2181    2.3660    0.0000 H   0  0  0  0  0  0  0  0  0  0  0  0
    2.5981    2.9860    0.0000 H   0  0  0  0  0  0  0  0  0  0  0  0
    1.9781    2.3660    0.0000 H   0  0  0  0  0  0  0  0  0  0  0  0
    4.0010    1.1760    0.0000 H   0  0  0  0  0  0  0  0  0  0  0  0
  1  4  1  0  0  0  0
  1  5  2  0  0  0  0
  1  6  2  0  0  0  0
  1  7  1  0  0  0  0
  3  7  1  0  0  0  0
  3 13  1  0  0  0  0
  7  8  1  0  0  0  0
  7  9  1  0  0  0  0
  8 10  1  0  0  0  0
  8 11  1  0  0  0  0
  8 12  1  0  0  0  0
M  CHG  2   2   1   4  -1
M  END
> <PUBCHEM_COMPOUND_CID>
13515

> <PUBCHEM_COMPOUND_CANONICALIZED>
1

> <PUBCHEM_CACTVS_COMPLEXITY>
115

> <PUBCHEM_CACTVS_HBOND_ACCEPTOR>
4

> <PUBCHEM_CACTVS_HBOND_DONOR>
1

> <PUBCHEM_CACTVS_ROTATABLE_BOND>
0

> <PUBCHEM_CACTVS_SUBSKEYS>
AAADcYBAOCBAAAAAAAAAAAAAAAAAAAAAAAAAAAAAAAAAAAAAAAAAGgQACAAAAACkwAKCAAAAAgIAAAAAAHBAAAAAAAAAAAAAAAAAEAAAAAAAAAAAAAAAAAAAAAAAAAAAAAAAAAAAAAAAAAAAAAAAAAAAAA==

> <PUBCHEM_IUPAC_OPENEYE_NAME>
sodium 1-hydroxyethanesulfonate

> <PUBCHEM_IUPAC_CAS_NAME>
sodium 1-hydroxyethanesulfonate

> <PUBCHEM_IUPAC_NAME>
sodium 1-hydroxyethanesulfonate

> <PUBCHEM_IUPAC_SYSTEMATIC_NAME>
sodium 1-oxidanylethanesulfonate

> <PUBCHEM_IUPAC_TRADITIONAL_NAME>
sodium 1-hydroxyethanesulfonate

> <PUBCHEM_IUPAC_INCHI>
InChI=1S/C2H6O4S.Na/c1-2(3)7(4,5)6;/h2-3H,1H3,(H,4,5,6);/q;+1/p-1

> <PUBCHEM_IUPAC_INCHIKEY>
CZDZQGXAHZVGPL-UHFFFAOYSA-M

> <PUBCHEM_EXACT_MASS>
147.980624

> <PUBCHEM_MOLECULAR_FORMULA>
C2H5NaO4S

> <PUBCHEM_MOLECULAR_WEIGHT>
148.113469

> <PUBCHEM_OPENEYE_CAN_SMILES>
CC(O)S(=O)(=O)[O-].[Na+]

> <PUBCHEM_OPENEYE_ISO_SMILES>
CC(O)S(=O)(=O)[O-].[Na+]

> <PUBCHEM_CACTVS_TPSA>
85.8

> <PUBCHEM_MONOISOTOPIC_WEIGHT>
147.980624

> <PUBCHEM_TOTAL_CHARGE>
0

> <PUBCHEM_HEAVY_ATOM_COUNT>
8

> <PUBCHEM_ATOM_DEF_STEREO_COUNT>
0

> <PUBCHEM_ATOM_UDEF_STEREO_COUNT>
1

> <PUBCHEM_BOND_DEF_STEREO_COUNT>
0

> <PUBCHEM_BOND_UDEF_STEREO_COUNT>
0

> <PUBCHEM_ISOTOPIC_ATOM_COUNT>
0

> <PUBCHEM_COMPONENT_COUNT>
2

> <PUBCHEM_CACTVS_TAUTO_COUNT>
1

> <PUBCHEM_COORDINATE_TYPE>
1
5
255

> <PUBCHEM_BONDANNOTATIONS>
7  3  3

$$$$

