10354
  -OEChem-06261204293D

 26 26  0     1  0  0  0  0  0999 V2000
   -0.6727   -0.2299    0.4861 C   0  0  1  0  0  0  0  0  0  0  0  0
   -0.2218   -1.5229   -0.2153 C   0  0  0  0  0  0  0  0  0  0  0  0
    1.2220   -1.8653    0.1354 C   0  0  0  0  0  0  0  0  0  0  0  0
    2.1698   -0.7398   -0.2819 C   0  0  0  0  0  0  0  0  0  0  0  0
    1.6592    0.6337    0.0725 C   0  0  0  0  0  0  0  0  0  0  0  0
    0.3811    0.8492    0.4321 C   0  0  0  0  0  0  0  0  0  0  0  0
   -1.9737    0.2405   -0.0961 C   0  0  0  0  0  0  0  0  0  0  0  0
    2.6627    1.7474    0.0062 C   0  0  0  0  0  0  0  0  0  0  0  0
   -3.1394    0.2940    0.8463 C   0  0  0  0  0  0  0  0  0  0  0  0
   -2.0873    0.5931   -1.3852 C   0  0  0  0  0  0  0  0  0  0  0  0
   -0.8193   -0.4603    1.5507 H   0  0  0  0  0  0  0  0  0  0  0  0
   -0.2987   -1.4494   -1.3076 H   0  0  0  0  0  0  0  0  0  0  0  0
   -0.8757   -2.3516    0.0852 H   0  0  0  0  0  0  0  0  0  0  0  0
    1.5185   -2.7986   -0.3565 H   0  0  0  0  0  0  0  0  0  0  0  0
    1.3046   -2.0358    1.2164 H   0  0  0  0  0  0  0  0  0  0  0  0
    2.3317   -0.7812   -1.3662 H   0  0  0  0  0  0  0  0  0  0  0  0
    3.1417   -0.9121    0.1958 H   0  0  0  0  0  0  0  0  0  0  0  0
    0.0751    1.8529    0.7208 H   0  0  0  0  0  0  0  0  0  0  0  0
    2.2216    2.7172    0.2594 H   0  0  0  0  0  0  0  0  0  0  0  0
    3.0768    1.8237   -1.0044 H   0  0  0  0  0  0  0  0  0  0  0  0
    3.4838    1.5615    0.7059 H   0  0  0  0  0  0  0  0  0  0  0  0
   -3.3434   -0.7009    1.2555 H   0  0  0  0  0  0  0  0  0  0  0  0
   -2.9272    0.9762    1.6760 H   0  0  0  0  0  0  0  0  0  0  0  0
   -4.0523    0.6442    0.3531 H   0  0  0  0  0  0  0  0  0  0  0  0
   -3.0349    0.9309   -1.7923 H   0  0  0  0  0  0  0  0  0  0  0  0
   -1.2441    0.5646   -2.0671 H   0  0  0  0  0  0  0  0  0  0  0  0
  1  2  1  0  0  0  0
  1  6  1  0  0  0  0
  1  7  1  0  0  0  0
  1 11  1  0  0  0  0
  2  3  1  0  0  0  0
  2 12  1  0  0  0  0
  2 13  1  0  0  0  0
  3  4  1  0  0  0  0
  3 14  1  0  0  0  0
  3 15  1  0  0  0  0
  4  5  1  0  0  0  0
  4 16  1  0  0  0  0
  4 17  1  0  0  0  0
  5  6  2  0  0  0  0
  5  8  1  0  0  0  0
  6 18  1  0  0  0  0
  7  9  1  0  0  0  0
  7 10  2  0  0  0  0
  8 19  1  0  0  0  0
  8 20  1  0  0  0  0
  8 21  1  0  0  0  0
  9 22  1  0  0  0  0
  9 23  1  0  0  0  0
  9 24  1  0  0  0  0
 10 25  1  0  0  0  0
 10 26  1  0  0  0  0
M  END
> <PUBCHEM_COMPOUND_CID>
10354

> <PUBCHEM_CONFORMER_RMSD>
0.4

> <PUBCHEM_CONFORMER_DIVERSEORDER>
2
3
4
1

> <PUBCHEM_MMFF94_PARTIAL_CHARGES>
11
1 0.28
10 -0.3
18 0.15
25 0.15
26 0.15
4 0.14
5 -0.28
6 -0.29
7 -0.28
8 0.14
9 0.14

> <PUBCHEM_EFFECTIVE_ROTOR_COUNT>
1.8

> <PUBCHEM_PHARMACOPHORE_FEATURES>
1
6 1 2 3 4 5 6 rings

> <PUBCHEM_HEAVY_ATOM_COUNT>
10

> <PUBCHEM_ATOM_DEF_STEREO_COUNT>
0

> <PUBCHEM_ATOM_UDEF_STEREO_COUNT>
1

> <PUBCHEM_BOND_DEF_STEREO_COUNT>
0

> <PUBCHEM_BOND_UDEF_STEREO_COUNT>
0

> <PUBCHEM_ISOTOPIC_ATOM_COUNT>
0

> <PUBCHEM_COMPONENT_COUNT>
1

> <PUBCHEM_CACTVS_TAUTO_COUNT>
1

> <PUBCHEM_CONFORMER_ID>
0000287200000002

> <PUBCHEM_MMFF94_ENERGY>
7.6958

> <PUBCHEM_FEATURE_SELFOVERLAP>
5.074

> <PUBCHEM_SHAPE_FINGERPRINT>
1 1 18411136939663830862
10857977 72 17060044944219241569
12932764 1 17989487454579128939
13380535 21 18267007389164589474
13839132 238 17131280193448009957
14325111 11 18408881811260891313
15219456 202 18202283640921281213
15775835 57 18334292033196128501
16945 1 18338803428220776630
17844478 74 18060125570716052033
18380122 1 17988636376950136897
19973954 147 18199470033446917333
21040471 1 18264772060703218466
23211744 41 17917999364514307425
23235685 24 18336546019127146376
23552423 10 18335423512286522559
241688 4 17471849681135196122
2748010 2 18337947866693699214
29004967 10 18267583692076356243
5084963 1 17632003251808960935
528862 383 18411419526810185435
528886 8 18334575737165719008
81228 2 17475519369907048466

> <PUBCHEM_SHAPE_MULTIPOLES>
205.8
4.1
1.72
0.94
1.25
0.4
-0.19
-1.42
0.13
-1.28
-0.02
0.62
-0.13
0.14

> <PUBCHEM_SHAPE_SELFOVERLAP>
404.388

> <PUBCHEM_SHAPE_VOLUME>
123.1

> <PUBCHEM_COORDINATE_TYPE>
2
5
10

$$$$

