3552
  -OEChem-06251223303D

 20 20  0     0  0  0  0  0  0999 V2000
    2.4351   -0.7348   -2.1221 Cl  0  0  0  0  0  0  0  0  0  0  0  0
    4.5623   -1.1069   -0.2402 Cl  0  0  0  0  0  0  0  0  0  0  0  0
    2.2503    0.5010    0.4984 S   0  0  0  0  0  0  0  0  0  0  0  0
    2.6066    1.7697   -0.1254 O   0  0  0  0  0  0  0  0  0  0  0  0
    2.6063    0.2668    1.8932 O   0  0  0  0  0  0  0  0  0  0  0  0
   -4.0996   -1.3662    0.3112 O   0  0  0  0  0  0  0  0  0  0  0  0
   -4.4473    0.6723   -0.6096 O   0  0  0  0  0  0  0  0  0  0  0  0
    2.8783   -0.7927   -0.4552 N   0  0  0  0  0  0  0  0  0  0  0  0
    0.5250    0.3095    0.3123 C   0  0  0  0  0  0  0  0  0  0  0  0
   -0.2350    1.3393   -0.2426 C   0  0  0  0  0  0  0  0  0  0  0  0
   -0.0938   -0.8725    0.7195 C   0  0  0  0  0  0  0  0  0  0  0  0
   -2.2324    0.0053    0.0169 C   0  0  0  0  0  0  0  0  0  0  0  0
   -1.6136    1.1872   -0.3903 C   0  0  0  0  0  0  0  0  0  0  0  0
   -1.4725   -1.0245    0.5718 C   0  0  0  0  0  0  0  0  0  0  0  0
   -3.6696   -0.1536   -0.1379 C   0  0  0  0  0  0  0  0  0  0  0  0
    0.2172    2.2718   -0.5669 H   0  0  0  0  0  0  0  0  0  0  0  0
    0.4855   -1.6824    1.1548 H   0  0  0  0  0  0  0  0  0  0  0  0
   -2.1888    2.0008   -0.8244 H   0  0  0  0  0  0  0  0  0  0  0  0
   -1.9120   -1.9614    0.9025 H   0  0  0  0  0  0  0  0  0  0  0  0
   -5.0693   -1.4711    0.2057 H   0  0  0  0  0  0  0  0  0  0  0  0
  1  8  1  0  0  0  0
  2  8  1  0  0  0  0
  3  4  2  0  0  0  0
  3  5  2  0  0  0  0
  3  8  1  0  0  0  0
  3  9  1  0  0  0  0
  6 15  1  0  0  0  0
  6 20  1  0  0  0  0
  7 15  2  0  0  0  0
  9 10  2  0  0  0  0
  9 11  1  0  0  0  0
 10 13  1  0  0  0  0
 10 16  1  0  0  0  0
 11 14  2  0  0  0  0
 11 17  1  0  0  0  0
 12 13  2  0  0  0  0
 12 14  1  0  0  0  0
 12 15  1  0  0  0  0
 13 18  1  0  0  0  0
 14 19  1  0  0  0  0
M  END
> <PUBCHEM_COMPOUND_CID>
3552

> <PUBCHEM_CONFORMER_RMSD>
0.6

> <PUBCHEM_CONFORMER_DIVERSEORDER>
1
4
5
3
2
6

> <PUBCHEM_MMFF94_PARTIAL_CHARGES>
20
1 0.02
10 -0.15
11 -0.15
12 0.09
13 -0.15
14 -0.15
15 0.63
16 0.15
17 0.15
18 0.15
19 0.15
2 0.02
20 0.5
3 1.45
4 -0.65
5 -0.65
6 -0.65
7 -0.57
8 -0.18
9 -0.01

> <PUBCHEM_EFFECTIVE_ROTOR_COUNT>
3

> <PUBCHEM_PHARMACOPHORE_FEATURES>
6
1 4 acceptor
1 5 acceptor
1 6 acceptor
1 7 acceptor
3 6 7 15 anion
6 9 10 11 12 13 14 rings

> <PUBCHEM_HEAVY_ATOM_COUNT>
15

> <PUBCHEM_ATOM_DEF_STEREO_COUNT>
0

> <PUBCHEM_ATOM_UDEF_STEREO_COUNT>
0

> <PUBCHEM_BOND_DEF_STEREO_COUNT>
0

> <PUBCHEM_BOND_UDEF_STEREO_COUNT>
0

> <PUBCHEM_ISOTOPIC_ATOM_COUNT>
0

> <PUBCHEM_COMPONENT_COUNT>
1

> <PUBCHEM_CACTVS_TAUTO_COUNT>
1

> <PUBCHEM_CONFORMER_ID>
00000DE000000001

> <PUBCHEM_MMFF94_ENERGY>
25.5532

> <PUBCHEM_FEATURE_SELFOVERLAP>
30.524

> <PUBCHEM_SHAPE_FINGERPRINT>
10465860 71 18201140109867642997
11132069 177 18340498798142018033
11543360 7 14692569867283237339
12032990 46 18341610387228340835
12932764 1 17274832349865916665
13296908 3 18409165485397987927
13538477 17 16917064426014854858
13705890 14 18040718034838838155
13760787 19 16272209695715001323
14251717 144 17167860889401152894
14325111 11 18201163165674269041
14911166 2 18201439198705681151
14993402 34 16486970708808715150
15219456 202 18334577914919970112
16945 1 18273219724403409257
18186145 218 17917438613811092357
19026448 4 17821452348407597553
19026448 5 16081370730951980937
200 152 17385728018811779287
20201158 50 18260260884785504742
20233049 118 17846499261769116684
20374829 77 18411701019067095854
20645476 183 16559024974199756707
20645477 70 17676210190571932279
21119208 17 16845566539398916054
231179 274 11959723863827929054
23402539 116 18343024414731496622
23557571 272 18056752140018800386
23559900 14 18413389830773495684
2748010 2 17985825922150365433
3286 77 17530687619117533768
474 4 15214453035642632946
4990 188 18410008853618556639
633830 44 18343308054645803591
7364860 26 18337671898118620456
8030462 33 17060339643110340264

> <PUBCHEM_SHAPE_MULTIPOLES>
287.82
7.81
1.44
1.27
1.97
0.21
0.21
-2.17
0.87
-0.33
0.1
-1.05
-0.18
0.86

> <PUBCHEM_SHAPE_SELFOVERLAP>
567.621

> <PUBCHEM_SHAPE_VOLUME>
174.5

> <PUBCHEM_COORDINATE_TYPE>
2
5
10

$$$$

