854106
  -OEChem-06241222473D

 42 44  0     0  0  0  0  0  0999 V2000
    0.1136    2.2093    0.6849 O   0  0  0  0  0  0  0  0  0  0  0  0
    2.7001   -1.6453   -0.7800 O   0  0  0  0  0  0  0  0  0  0  0  0
   -1.9989    2.0488    1.4951 O   0  0  0  0  0  0  0  0  0  0  0  0
    3.4937   -1.8401    1.4136 O   0  0  0  0  0  0  0  0  0  0  0  0
    0.1214   -0.5959    0.3033 C   0  0  0  0  0  0  0  0  0  0  0  0
    1.3055    0.2172   -0.0432 C   0  0  0  0  0  0  0  0  0  0  0  0
   -0.9617    0.0049    0.8405 C   0  0  0  0  0  0  0  0  0  0  0  0
   -2.2084   -0.7119    1.2987 C   0  0  0  0  0  0  0  0  0  0  0  0
    1.2594    1.5934    0.1586 C   0  0  0  0  0  0  0  0  0  0  0  0
    2.4974   -0.3135   -0.5611 C   0  0  0  0  0  0  0  0  0  0  0  0
   -1.0093    1.4821    1.0417 C   0  0  0  0  0  0  0  0  0  0  0  0
    2.3339    2.4344   -0.1421 C   0  0  0  0  0  0  0  0  0  0  0  0
    0.1289   -2.0761    0.0046 C   0  0  0  0  0  0  0  0  0  0  0  0
    3.5021    1.8878   -0.6598 C   0  0  0  0  0  0  0  0  0  0  0  0
   -3.3229   -0.5040    0.3222 C   0  0  0  0  0  0  0  0  0  0  0  0
    3.5846    0.5139   -0.8678 C   0  0  0  0  0  0  0  0  0  0  0  0
    4.6607    2.7669   -0.9866 C   0  0  0  0  0  0  0  0  0  0  0  0
   -3.0797   -0.6280   -1.0433 C   0  0  0  0  0  0  0  0  0  0  0  0
   -4.5980   -0.1872    0.7835 C   0  0  0  0  0  0  0  0  0  0  0  0
   -4.1186   -0.4338   -1.9537 C   0  0  0  0  0  0  0  0  0  0  0  0
   -5.6368    0.0069   -0.1267 C   0  0  0  0  0  0  0  0  0  0  0  0
   -5.3971   -0.1164   -1.4954 C   0  0  0  0  0  0  0  0  0  0  0  0
    3.2221   -2.3321    0.3265 C   0  0  0  0  0  0  0  0  0  0  0  0
    3.4079   -3.7813   -0.0135 C   0  0  0  0  0  0  0  0  0  0  0  0
   -2.4872   -0.3279    2.2897 H   0  0  0  0  0  0  0  0  0  0  0  0
   -2.0633   -1.7839    1.4615 H   0  0  0  0  0  0  0  0  0  0  0  0
    2.2522    3.5040    0.0324 H   0  0  0  0  0  0  0  0  0  0  0  0
   -0.8664   -2.5273    0.0142 H   0  0  0  0  0  0  0  0  0  0  0  0
    0.7131   -2.6214    0.7489 H   0  0  0  0  0  0  0  0  0  0  0  0
    0.4840   -2.2844   -1.0091 H   0  0  0  0  0  0  0  0  0  0  0  0
    4.4987    0.0785   -1.2660 H   0  0  0  0  0  0  0  0  0  0  0  0
    4.3289    3.7738   -1.2620 H   0  0  0  0  0  0  0  0  0  0  0  0
    5.3300    2.8428   -0.1239 H   0  0  0  0  0  0  0  0  0  0  0  0
    5.2270    2.3727   -1.8372 H   0  0  0  0  0  0  0  0  0  0  0  0
   -2.1044   -0.8895   -1.4397 H   0  0  0  0  0  0  0  0  0  0  0  0
   -4.7991   -0.0892    1.8468 H   0  0  0  0  0  0  0  0  0  0  0  0
   -3.9334   -0.5334   -3.0192 H   0  0  0  0  0  0  0  0  0  0  0  0
   -6.6326    0.2536    0.2299 H   0  0  0  0  0  0  0  0  0  0  0  0
   -6.2062    0.0338   -2.2041 H   0  0  0  0  0  0  0  0  0  0  0  0
    2.4611   -4.2114   -0.3489 H   0  0  0  0  0  0  0  0  0  0  0  0
    3.7368   -4.3230    0.8778 H   0  0  0  0  0  0  0  0  0  0  0  0
    4.1710   -3.8816   -0.7890 H   0  0  0  0  0  0  0  0  0  0  0  0
  1  9  1  0  0  0  0
  1 11  1  0  0  0  0
  2 10  1  0  0  0  0
  2 23  1  0  0  0  0
  3 11  2  0  0  0  0
  4 23  2  0  0  0  0
  5  6  1  0  0  0  0
  5  7  2  0  0  0  0
  5 13  1  0  0  0  0
  6  9  2  0  0  0  0
  6 10  1  0  0  0  0
  7  8  1  0  0  0  0
  7 11  1  0  0  0  0
  8 15  1  0  0  0  0
  8 25  1  0  0  0  0
  8 26  1  0  0  0  0
  9 12  1  0  0  0  0
 10 16  2  0  0  0  0
 12 14  2  0  0  0  0
 12 27  1  0  0  0  0
 13 28  1  0  0  0  0
 13 29  1  0  0  0  0
 13 30  1  0  0  0  0
 14 16  1  0  0  0  0
 14 17  1  0  0  0  0
 15 18  2  0  0  0  0
 15 19  1  0  0  0  0
 16 31  1  0  0  0  0
 17 32  1  0  0  0  0
 17 33  1  0  0  0  0
 17 34  1  0  0  0  0
 18 20  1  0  0  0  0
 18 35  1  0  0  0  0
 19 21  2  0  0  0  0
 19 36  1  0  0  0  0
 20 22  2  0  0  0  0
 20 37  1  0  0  0  0
 21 22  1  0  0  0  0
 21 38  1  0  0  0  0
 22 39  1  0  0  0  0
 23 24  1  0  0  0  0
 24 40  1  0  0  0  0
 24 41  1  0  0  0  0
 24 42  1  0  0  0  0
M  END
> <PUBCHEM_COMPOUND_CID>
854106

> <PUBCHEM_CONFORMER_RMSD>
0.8

> <PUBCHEM_CONFORMER_DIVERSEORDER>
1
11
16
10
15
6
7
4
14
17
13
5
12
3
2
8
9

> <PUBCHEM_MMFF94_PARTIAL_CHARGES>
31
1 -0.23
10 0.08
11 0.71
12 -0.15
13 0.14
14 -0.14
15 -0.14
16 -0.15
17 0.14
18 -0.15
19 -0.15
2 -0.23
20 -0.15
21 -0.15
22 -0.15
23 0.66
24 0.06
27 0.15
3 -0.57
31 0.15
35 0.15
36 0.15
37 0.15
38 0.15
39 0.15
4 -0.57
5 -0.17
6 0.03
7 -0.12
8 0.28
9 0.08

> <PUBCHEM_EFFECTIVE_ROTOR_COUNT>
4

> <PUBCHEM_PHARMACOPHORE_FEATURES>
5
1 3 acceptor
1 4 acceptor
6 1 5 6 7 9 11 rings
6 15 18 19 20 21 22 rings
6 6 9 10 12 14 16 rings

> <PUBCHEM_HEAVY_ATOM_COUNT>
24

> <PUBCHEM_ATOM_DEF_STEREO_COUNT>
0

> <PUBCHEM_ATOM_UDEF_STEREO_COUNT>
0

> <PUBCHEM_BOND_DEF_STEREO_COUNT>
0

> <PUBCHEM_BOND_UDEF_STEREO_COUNT>
0

> <PUBCHEM_ISOTOPIC_ATOM_COUNT>
0

> <PUBCHEM_COMPONENT_COUNT>
1

> <PUBCHEM_CACTVS_TAUTO_COUNT>
1

> <PUBCHEM_CONFORMER_ID>
000D085A00000001

> <PUBCHEM_MMFF94_ENERGY>
83.6925

> <PUBCHEM_FEATURE_SELFOVERLAP>
25.398

> <PUBCHEM_SHAPE_FINGERPRINT>
10062212 137 18189332532201941595
11069576 57 18335706065521915654
11578080 2 17418081105467392798
12035759 4 18187362086868564326
12236239 1 17604138260371019665
12293681 160 17827059737461656064
12403259 415 17632856439015825623
12553582 1 17749385941054580031
12730499 353 18271237210422907131
12788726 201 17677037023648641105
13009979 54 17825379937091521522
13083527 12 18340779238369187944
13140716 1 17903068941792299040
13257819 101 17273990046866082868
13540713 5 18189600808470410360
13782708 43 17846773027944767515
13911987 19 18053930775986968020
15183329 4 17749108899154525805
17134984 74 18044955475934200711
17349148 13 18336552706343656282
17818456 19 17534050054619504089
1813 80 18116430538740649590
18186145 218 17775567559269538883
18681886 176 16081646656573060380
192875 21 18336269045228812683
200 152 18040708130723758161
20511986 3 17749682813199305829
20554085 129 18115879495190836624
20612939 158 18411984671987591743
20645477 70 18342452642836303306
21033648 29 16988844982267736821
21120745 212 16477156712906793810
2132832 1 18337396066475411200
22393880 68 17970630679685687885
23419403 2 17830780673666674528
23557571 272 14562526310302407899
23559900 14 18413669093657634338
23622692 118 18262236758741006340
25147074 1 18188195611098222920
268830 7 18341039800854839505
3004659 81 18259987101994884231
312423 11 18262786484120968690
34934 24 18262234400793437220
4072396 5 18340779143896043632
4098825 35 18272375300053766509
4409770 3 14798448117001474529
495365 180 18340773645947280738
5281201 14 17918275363755810669
602551 16 15213296400659740789
603831 33 18113891637395058060
7164475 11 18261674899319303785
7471813 234 18262809586903235878

> <PUBCHEM_SHAPE_MULTIPOLES>
470.43
10.53
3.18
1.38
9.28
1.31
-0.17
-0.25
-3.73
-6.07
0.21
1.21
-0.13
-1.22

> <PUBCHEM_SHAPE_SELFOVERLAP>
1026.869

> <PUBCHEM_SHAPE_VOLUME>
253.8

> <PUBCHEM_COORDINATE_TYPE>
2
5
10

$$$$

