12424
  -OEChem-06261206553D

 45 48  0     0  0  0  0  0  0999 V2000
   -0.0846   -0.0564   -0.0017 C   0  0  0  0  0  0  0  0  0  0  0  0
   -1.3753   -0.8035   -0.0249 C   0  0  0  0  0  0  0  0  0  0  0  0
    0.9321   -0.4200    1.1959 C   0  0  0  0  0  0  0  0  0  0  0  0
    0.9117   -0.3107   -1.2439 C   0  0  0  0  0  0  0  0  0  0  0  0
   -0.5122    1.4793    0.0710 C   0  0  0  0  0  0  0  0  0  0  0  0
   -1.9445   -1.2493    1.1681 C   0  0  0  0  0  0  0  0  0  0  0  0
    0.8652   -1.6786    1.6466 C   0  0  0  0  0  0  0  0  0  0  0  0
    0.8358   -1.5238   -1.8045 C   0  0  0  0  0  0  0  0  0  0  0  0
   -0.6612    1.9957    1.3049 C   0  0  0  0  0  0  0  0  0  0  0  0
   -2.0135   -1.0561   -1.2392 C   0  0  0  0  0  0  0  0  0  0  0  0
    1.7263    0.5783    1.6011 C   0  0  0  0  0  0  0  0  0  0  0  0
    1.6992    0.7208   -1.5719 C   0  0  0  0  0  0  0  0  0  0  0  0
   -0.6805    2.1048   -1.1086 C   0  0  0  0  0  0  0  0  0  0  0  0
   -3.1517   -1.9477    1.1467 C   0  0  0  0  0  0  0  0  0  0  0  0
    1.7448   -1.9934    2.6824 C   0  0  0  0  0  0  0  0  0  0  0  0
    1.6974   -1.7438   -2.8793 C   0  0  0  0  0  0  0  0  0  0  0  0
   -1.0347    3.3381    1.3687 C   0  0  0  0  0  0  0  0  0  0  0  0
   -3.2208   -1.7545   -1.2605 C   0  0  0  0  0  0  0  0  0  0  0  0
    2.6059    0.2634    2.6369 C   0  0  0  0  0  0  0  0  0  0  0  0
    2.5606    0.5006   -2.6467 C   0  0  0  0  0  0  0  0  0  0  0  0
   -1.0540    3.4474   -1.0447 C   0  0  0  0  0  0  0  0  0  0  0  0
   -3.7898   -2.2003   -0.0675 C   0  0  0  0  0  0  0  0  0  0  0  0
    2.6151   -1.0224    3.1775 C   0  0  0  0  0  0  0  0  0  0  0  0
    2.5597   -0.7317   -3.3003 C   0  0  0  0  0  0  0  0  0  0  0  0
   -1.2310    4.0638    0.1940 C   0  0  0  0  0  0  0  0  0  0  0  0
   -1.5298   -1.0154    2.1438 H   0  0  0  0  0  0  0  0  0  0  0  0
    0.2599   -2.4755    1.2361 H   0  0  0  0  0  0  0  0  0  0  0  0
    0.2231   -2.3471   -1.4633 H   0  0  0  0  0  0  0  0  0  0  0  0
   -0.5933    1.4451    2.2349 H   0  0  0  0  0  0  0  0  0  0  0  0
   -1.6339   -0.6862   -2.1871 H   0  0  0  0  0  0  0  0  0  0  0  0
    1.8047    1.5711    1.1814 H   0  0  0  0  0  0  0  0  0  0  0  0
    1.7856    1.6720   -1.0663 H   0  0  0  0  0  0  0  0  0  0  0  0
   -0.6260    1.6424   -2.0862 H   0  0  0  0  0  0  0  0  0  0  0  0
   -3.6043   -2.2797    2.0765 H   0  0  0  0  0  0  0  0  0  0  0  0
    1.7654   -2.9996    3.0910 H   0  0  0  0  0  0  0  0  0  0  0  0
    1.7076   -2.7082   -3.3790 H   0  0  0  0  0  0  0  0  0  0  0  0
   -1.1909    3.8135    2.3327 H   0  0  0  0  0  0  0  0  0  0  0  0
   -3.7243   -1.9407   -2.2046 H   0  0  0  0  0  0  0  0  0  0  0  0
    3.2943    1.0147    3.0131 H   0  0  0  0  0  0  0  0  0  0  0  0
    3.2428    1.2832   -2.9661 H   0  0  0  0  0  0  0  0  0  0  0  0
   -1.2247    4.0082   -1.9591 H   0  0  0  0  0  0  0  0  0  0  0  0
   -4.7332   -2.7382   -0.0837 H   0  0  0  0  0  0  0  0  0  0  0  0
    3.3052   -1.2697    3.9787 H   0  0  0  0  0  0  0  0  0  0  0  0
    3.2351   -0.9052   -4.1329 H   0  0  0  0  0  0  0  0  0  0  0  0
   -1.5299    5.1068    0.2436 H   0  0  0  0  0  0  0  0  0  0  0  0
  1  2  1  0  0  0  0
  1  3  1  0  0  0  0
  1  4  1  0  0  0  0
  1  5  1  0  0  0  0
  2  6  2  0  0  0  0
  2 10  1  0  0  0  0
  3  7  2  0  0  0  0
  3 11  1  0  0  0  0
  4  8  2  0  0  0  0
  4 12  1  0  0  0  0
  5  9  2  0  0  0  0
  5 13  1  0  0  0  0
  6 14  1  0  0  0  0
  6 26  1  0  0  0  0
  7 15  1  0  0  0  0
  7 27  1  0  0  0  0
  8 16  1  0  0  0  0
  8 28  1  0  0  0  0
  9 17  1  0  0  0  0
  9 29  1  0  0  0  0
 10 18  2  0  0  0  0
 10 30  1  0  0  0  0
 11 19  2  0  0  0  0
 11 31  1  0  0  0  0
 12 20  2  0  0  0  0
 12 32  1  0  0  0  0
 13 21  2  0  0  0  0
 13 33  1  0  0  0  0
 14 22  2  0  0  0  0
 14 34  1  0  0  0  0
 15 23  2  0  0  0  0
 15 35  1  0  0  0  0
 16 24  2  0  0  0  0
 16 36  1  0  0  0  0
 17 25  2  0  0  0  0
 17 37  1  0  0  0  0
 18 22  1  0  0  0  0
 18 38  1  0  0  0  0
 19 23  1  0  0  0  0
 19 39  1  0  0  0  0
 20 24  1  0  0  0  0
 20 40  1  0  0  0  0
 21 25  1  0  0  0  0
 21 41  1  0  0  0  0
 22 42  1  0  0  0  0
 23 43  1  0  0  0  0
 24 44  1  0  0  0  0
 25 45  1  0  0  0  0
M  END
> <PUBCHEM_COMPOUND_CID>
12424

> <PUBCHEM_CONFORMER_RMSD>
0.8

> <PUBCHEM_CONFORMER_DIVERSEORDER>
1

> <PUBCHEM_MMFF94_PARTIAL_CHARGES>
45
1 0.57
10 -0.15
11 -0.15
12 -0.15
13 -0.15
14 -0.15
15 -0.15
16 -0.15
17 -0.15
18 -0.15
19 -0.15
2 -0.14
20 -0.15
21 -0.15
22 -0.15
23 -0.15
24 -0.15
25 -0.15
26 0.15
27 0.15
28 0.15
29 0.15
3 -0.14
30 0.15
31 0.15
32 0.15
33 0.15
34 0.15
35 0.15
36 0.15
37 0.15
38 0.15
39 0.15
4 -0.14
40 0.15
41 0.15
42 0.15
43 0.15
44 0.15
45 0.15
5 -0.14
6 -0.15
7 -0.15
8 -0.15
9 -0.15

> <PUBCHEM_EFFECTIVE_ROTOR_COUNT>
4

> <PUBCHEM_PHARMACOPHORE_FEATURES>
4
6 2 6 10 14 18 22 rings
6 3 7 11 15 19 23 rings
6 4 8 12 16 20 24 rings
6 5 9 13 17 21 25 rings

> <PUBCHEM_HEAVY_ATOM_COUNT>
25

> <PUBCHEM_ATOM_DEF_STEREO_COUNT>
0

> <PUBCHEM_ATOM_UDEF_STEREO_COUNT>
0

> <PUBCHEM_BOND_DEF_STEREO_COUNT>
0

> <PUBCHEM_BOND_UDEF_STEREO_COUNT>
0

> <PUBCHEM_ISOTOPIC_ATOM_COUNT>
0

> <PUBCHEM_COMPONENT_COUNT>
1

> <PUBCHEM_CACTVS_TAUTO_COUNT>
1

> <PUBCHEM_CONFORMER_ID>
0000308800000001

> <PUBCHEM_MMFF94_ENERGY>
144.8442

> <PUBCHEM_FEATURE_SELFOVERLAP>
20.297

> <PUBCHEM_SHAPE_FINGERPRINT>
11421498 54 9707772223081084970
11578080 2 14161146726082314894
13134695 92 9144353787131965801
13149001 5 17121945056038751782
13911987 19 14235229564804973043
14817 1 10302660802575117484
16945 1 7591650163718222659
20600515 1 13207270850622996545
20602899 9 14596376605440840472
20691752 17 13495284262154120372
22149856 69 16771289990334516311
229495 10 16318435122951701327
23559900 14 5302407371093006546
25222932 49 15818778422850341127
266924 78 16271625893431698019
35225 105 15218424449851285510
404807 14 5252718134527098510
5845 1 15609813150351812614
81228 2 6769321805353542908

> <PUBCHEM_SHAPE_MULTIPOLES>
514.49
4.25
3.83
3.66
2
4.65
0.34
-3.23
0.08
2.98
-0.41
-4.53
-1.66
-0.31

> <PUBCHEM_SHAPE_SELFOVERLAP>
1165.041

> <PUBCHEM_SHAPE_VOLUME>
250.5

> <PUBCHEM_COORDINATE_TYPE>
2
5
10

$$$$

