17395860
  -OEChem-06241222523D

 48 50  0     1  0  0  0  0  0999 V2000
    0.0956    0.1790   -2.0635 O   0  0  0  0  0  0  0  0  0  0  0  0
   -2.0647    2.9897    0.8747 O   0  0  0  0  0  0  0  0  0  0  0  0
   -0.6445    1.6229   -0.3833 N   0  0  0  0  0  0  0  0  0  0  0  0
   -2.7738    1.8150   -1.0122 N   0  0  0  0  0  0  0  0  0  0  0  0
    0.7312    0.7105    1.3497 N   0  0  1  0  0  0  0  0  0  0  0  0
   -2.2124    0.9259   -1.9977 C   0  0  2  0  0  0  0  0  0  0  0  0
   -2.8855   -0.4310   -1.9970 C   0  0  0  0  0  0  0  0  0  0  0  0
   -0.7726    0.8434   -1.5126 C   0  0  0  0  0  0  0  0  0  0  0  0
    0.5860    1.7853    0.3650 C   0  0  0  0  0  0  0  0  0  0  0  0
   -1.8418    2.2290   -0.0581 C   0  0  0  0  0  0  0  0  0  0  0  0
    2.1437    0.5366    1.6959 C   0  0  0  0  0  0  0  0  0  0  0  0
   -2.8213   -1.0946   -0.6438 C   0  0  0  0  0  0  0  0  0  0  0  0
    2.8979   -0.2010    0.6218 C   0  0  0  0  0  0  0  0  0  0  0  0
   -0.0452    0.9818    2.5630 C   0  0  0  0  0  0  0  0  0  0  0  0
    4.1489    0.2408    0.1910 C   0  0  0  0  0  0  0  0  0  0  0  0
   -1.7441   -1.9208   -0.3226 C   0  0  0  0  0  0  0  0  0  0  0  0
   -3.8387   -0.8820    0.2865 C   0  0  0  0  0  0  0  0  0  0  0  0
    2.3280   -1.3414    0.0556 C   0  0  0  0  0  0  0  0  0  0  0  0
    4.8300   -0.4580   -0.8059 C   0  0  0  0  0  0  0  0  0  0  0  0
   -1.6845   -2.5344    0.9285 C   0  0  0  0  0  0  0  0  0  0  0  0
   -3.7788   -1.4958    1.5378 C   0  0  0  0  0  0  0  0  0  0  0  0
    4.7789    1.4596    0.7812 C   0  0  0  0  0  0  0  0  0  0  0  0
    3.0092   -2.0402   -0.9411 C   0  0  0  0  0  0  0  0  0  0  0  0
   -2.7017   -2.3218    1.8588 C   0  0  0  0  0  0  0  0  0  0  0  0
    4.2601   -1.5985   -1.3718 C   0  0  0  0  0  0  0  0  0  0  0  0
   -2.2527    1.4150   -2.9751 H   0  0  0  0  0  0  0  0  0  0  0  0
   -2.4183   -1.0860   -2.7437 H   0  0  0  0  0  0  0  0  0  0  0  0
   -3.9359   -0.3303   -2.2993 H   0  0  0  0  0  0  0  0  0  0  0  0
    0.6018    2.7751    0.8378 H   0  0  0  0  0  0  0  0  0  0  0  0
    1.3933    1.7626   -0.3760 H   0  0  0  0  0  0  0  0  0  0  0  0
   -3.7358    2.1391   -1.0273 H   0  0  0  0  0  0  0  0  0  0  0  0
    2.2388   -0.0866    2.5964 H   0  0  0  0  0  0  0  0  0  0  0  0
    2.5814    1.5058    1.9570 H   0  0  0  0  0  0  0  0  0  0  0  0
    0.0844    0.1728    3.2914 H   0  0  0  0  0  0  0  0  0  0  0  0
    0.2458    1.9235    3.0421 H   0  0  0  0  0  0  0  0  0  0  0  0
   -1.1169    1.0131    2.3469 H   0  0  0  0  0  0  0  0  0  0  0  0
   -0.9507   -2.1094   -1.0402 H   0  0  0  0  0  0  0  0  0  0  0  0
   -4.6854   -0.2434    0.0492 H   0  0  0  0  0  0  0  0  0  0  0  0
    1.3638   -1.7148    0.3866 H   0  0  0  0  0  0  0  0  0  0  0  0
    5.8052   -0.1276   -1.1538 H   0  0  0  0  0  0  0  0  0  0  0  0
   -0.8472   -3.1797    1.1776 H   0  0  0  0  0  0  0  0  0  0  0  0
   -4.5711   -1.3305    2.2622 H   0  0  0  0  0  0  0  0  0  0  0  0
    5.7826    1.6301    0.3755 H   0  0  0  0  0  0  0  0  0  0  0  0
    4.8911    1.3544    1.8654 H   0  0  0  0  0  0  0  0  0  0  0  0
    4.1854    2.3508    0.5523 H   0  0  0  0  0  0  0  0  0  0  0  0
    2.5669   -2.9300   -1.3793 H   0  0  0  0  0  0  0  0  0  0  0  0
    4.7906   -2.1431   -2.1474 H   0  0  0  0  0  0  0  0  0  0  0  0
   -2.6551   -2.7996    2.8330 H   0  0  0  0  0  0  0  0  0  0  0  0
  1  8  2  0  0  0  0
  2 10  2  0  0  0  0
  3  8  1  0  0  0  0
  3  9  1  0  0  0  0
  3 10  1  0  0  0  0
  4  6  1  0  0  0  0
  4 10  1  0  0  0  0
  4 31  1  0  0  0  0
  5  9  1  0  0  0  0
  5 11  1  0  0  0  0
  5 14  1  0  0  0  0
  6  7  1  0  0  0  0
  6  8  1  0  0  0  0
  6 26  1  0  0  0  0
  7 12  1  0  0  0  0
  7 27  1  0  0  0  0
  7 28  1  0  0  0  0
  9 29  1  0  0  0  0
  9 30  1  0  0  0  0
 11 13  1  0  0  0  0
 11 32  1  0  0  0  0
 11 33  1  0  0  0  0
 12 16  2  0  0  0  0
 12 17  1  0  0  0  0
 13 15  1  0  0  0  0
 13 18  2  0  0  0  0
 14 34  1  0  0  0  0
 14 35  1  0  0  0  0
 14 36  1  0  0  0  0
 15 19  2  0  0  0  0
 15 22  1  0  0  0  0
 16 20  1  0  0  0  0
 16 37  1  0  0  0  0
 17 21  2  0  0  0  0
 17 38  1  0  0  0  0
 18 23  1  0  0  0  0
 18 39  1  0  0  0  0
 19 25  1  0  0  0  0
 19 40  1  0  0  0  0
 20 24  2  0  0  0  0
 20 41  1  0  0  0  0
 21 24  1  0  0  0  0
 21 42  1  0  0  0  0
 22 43  1  0  0  0  0
 22 44  1  0  0  0  0
 22 45  1  0  0  0  0
 23 25  2  0  0  0  0
 23 46  1  0  0  0  0
 24 48  1  0  0  0  0
 25 47  1  0  0  0  0
M  END
> <PUBCHEM_COMPOUND_CID>
17395860

> <PUBCHEM_CONFORMER_RMSD>
1

> <PUBCHEM_CONFORMER_DIVERSEORDER>
1
223
202
132
82
213
158
97
116
30
307
195
492
40
421
266
50
51
413
410
363
182
476
63
111
62
136
205
385
497
26
313
456
2
107
312
108
166
464
128
155
500
429
67
459
181
254
349
139
273
29
46
106
141
408
315
24
135
73
547
101
373
163
124
68
160
25
416
110
93
14
156
396
298
465
44
33
229
53
386
532
109
90
162
161
45
56
173
442
358
36
12
104
279
84
41
37
343
131
438
13
149
19
3
284
326
15
39
514
203
441
88
494
483
264
200
379
251
528
341
404
21
103
280
352
186
542
217
150
86
34
48
120
191
146
65
262
55
27
94
485
553
403
538
423
121
123
43
378
330
193
16
232
52
198
484
66
32
18
219
209
95
59
7
54
169
241
291
525
133
145
512
168
5
288
87
175
331
115
28
558
75
38
277
226
122
127
57
360
513
78
20
337
382
11
74
537
364
196
79
6
49
336
453
142
297
42
23
4

> <PUBCHEM_MMFF94_PARTIAL_CHARGES>
35
1 -0.57
10 0.69
11 0.41
12 -0.14
13 -0.14
14 0.27
15 -0.14
16 -0.15
17 -0.15
18 -0.15
19 -0.15
2 -0.57
20 -0.15
21 -0.15
22 0.14
23 -0.15
24 -0.15
25 -0.15
3 -0.42
31 0.37
37 0.15
38 0.15
39 0.15
4 -0.73
40 0.15
41 0.15
42 0.15
46 0.15
47 0.15
48 0.15
5 -0.81
6 0.36
7 0.14
8 0.57
9 0.57

> <PUBCHEM_EFFECTIVE_ROTOR_COUNT>
6.6

> <PUBCHEM_PHARMACOPHORE_FEATURES>
7
1 1 acceptor
1 2 acceptor
1 4 donor
1 5 cation
5 3 4 6 8 10 rings
6 12 16 17 20 21 24 rings
6 13 15 18 19 23 25 rings

> <PUBCHEM_HEAVY_ATOM_COUNT>
25

> <PUBCHEM_ATOM_DEF_STEREO_COUNT>
0

> <PUBCHEM_ATOM_UDEF_STEREO_COUNT>
1

> <PUBCHEM_BOND_DEF_STEREO_COUNT>
0

> <PUBCHEM_BOND_UDEF_STEREO_COUNT>
0

> <PUBCHEM_ISOTOPIC_ATOM_COUNT>
0

> <PUBCHEM_COMPONENT_COUNT>
1

> <PUBCHEM_CACTVS_TAUTO_COUNT>
2

> <PUBCHEM_CONFORMER_ID>
0109709400000001

> <PUBCHEM_MMFF94_ENERGY>
61.9862

> <PUBCHEM_FEATURE_SELFOVERLAP>
35.52

> <PUBCHEM_SHAPE_FINGERPRINT>
10366900 7 18188789252982555422
10764073 3 17320380860751009603
107951 10 18123184873356493021
11552529 35 16444768033704224126
11640471 11 15912783793811951362
11954058 11 17906156370739084099
12077114 3 7565349746887236914
121448 382 16415489224572764160
12156800 1 16907436119013519587
12596599 1 17989204867464436332
12633257 1 16951109721411571523
12714826 92 18272933803919418675
12788726 201 18264787595637527273
13135754 10 18197752540787055249
13224815 77 18187090563705624606
17349148 13 13901924305755402128
17357779 13 18339647750114073399
1813 80 17703220707431300967
192875 21 13614253589638283830
23557571 272 18272370854477492408
23559900 14 18266188395300274230
35225 105 17318145574506256931
469060 322 16988264422547605411
4921388 177 18272365421022064078
77296 10 17631473245167440824
9709674 26 18334866034501088844

> <PUBCHEM_SHAPE_MULTIPOLES>
487.81
8.46
2.83
2.18
7.87
0.26
0.15
-2.64
-0.51
-1.63
0.51
-0.91
0.07
2.12

> <PUBCHEM_SHAPE_SELFOVERLAP>
1044.568

> <PUBCHEM_SHAPE_VOLUME>
270.6

> <PUBCHEM_COORDINATE_TYPE>
2
5
10

$$$$

