583015
  -OEChem-06241222443D

 49 53  0     1  0  0  0  0  0999 V2000
    0.3993    0.6825   -1.2366 O   0  0  0  0  0  0  0  0  0  0  0  0
   -1.2387   -2.7047    0.0640 O   0  0  0  0  0  0  0  0  0  0  0  0
    7.2860   -1.0828   -0.2924 O   0  5  0  0  0  0  0  0  0  0  0  0
    6.9398    0.5054    1.1830 O   0  0  0  0  0  0  0  0  0  0  0  0
   -1.2832   -0.3234    0.1265 N   0  0  1  0  0  0  0  0  0  0  0  0
    6.5156   -0.3153    0.3336 N   0  3  0  0  0  0  0  0  0  0  0  0
    0.0485   -0.7917    0.5318 C   0  0  2  0  0  0  0  0  0  0  0  0
    0.8964   -0.5644   -0.7194 C   0  0  2  0  0  0  0  0  0  0  0  0
   -0.9992    0.7096   -0.8862 C   0  0  1  0  0  0  0  0  0  0  0  0
   -1.9116   -1.5322   -0.4369 C   0  0  2  0  0  0  0  0  0  0  0  0
   -0.1891   -2.2346    0.9175 C   0  0  0  0  0  0  0  0  0  0  0  0
    2.3780   -0.4987   -0.4413 C   0  0  0  0  0  0  0  0  0  0  0  0
   -1.3881    2.0878   -0.3914 C   0  0  0  0  0  0  0  0  0  0  0  0
   -3.3877   -1.5893   -0.1108 C   0  0  0  0  0  0  0  0  0  0  0  0
    3.2577   -1.3418   -1.1243 C   0  0  0  0  0  0  0  0  0  0  0  0
    2.8759    0.4057    0.4999 C   0  0  0  0  0  0  0  0  0  0  0  0
   -2.6736    2.5739   -0.6250 C   0  0  0  0  0  0  0  0  0  0  0  0
   -0.4597    2.8676    0.2963 C   0  0  0  0  0  0  0  0  0  0  0  0
   -3.8210   -2.2191    1.0564 C   0  0  0  0  0  0  0  0  0  0  0  0
   -4.3169   -1.0128   -0.9772 C   0  0  0  0  0  0  0  0  0  0  0  0
    4.6273   -1.2810   -0.8676 C   0  0  0  0  0  0  0  0  0  0  0  0
    4.2457    0.4665    0.7564 C   0  0  0  0  0  0  0  0  0  0  0  0
   -3.0315    3.8429   -0.1698 C   0  0  0  0  0  0  0  0  0  0  0  0
   -0.8175    4.1366    0.7516 C   0  0  0  0  0  0  0  0  0  0  0  0
   -5.1820   -2.2723    1.3569 C   0  0  0  0  0  0  0  0  0  0  0  0
   -5.6780   -1.0659   -0.6766 C   0  0  0  0  0  0  0  0  0  0  0  0
    5.1214   -0.3768    0.0727 C   0  0  0  0  0  0  0  0  0  0  0  0
   -2.1035    4.6242    0.5185 C   0  0  0  0  0  0  0  0  0  0  0  0
   -6.1105   -1.6956    0.4904 C   0  0  0  0  0  0  0  0  0  0  0  0
    0.3995   -0.2122    1.3916 H   0  0  0  0  0  0  0  0  0  0  0  0
    0.6970   -1.3285   -1.4831 H   0  0  0  0  0  0  0  0  0  0  0  0
   -1.5452    0.5316   -1.8219 H   0  0  0  0  0  0  0  0  0  0  0  0
   -1.7917   -1.5978   -1.5266 H   0  0  0  0  0  0  0  0  0  0  0  0
    0.6929   -2.8692    0.7932 H   0  0  0  0  0  0  0  0  0  0  0  0
   -0.5402   -2.3177    1.9521 H   0  0  0  0  0  0  0  0  0  0  0  0
    2.8878   -2.0516   -1.8594 H   0  0  0  0  0  0  0  0  0  0  0  0
    2.2190    1.0764    1.0433 H   0  0  0  0  0  0  0  0  0  0  0  0
   -3.4058    1.9777   -1.1617 H   0  0  0  0  0  0  0  0  0  0  0  0
    0.5452    2.5135    0.4953 H   0  0  0  0  0  0  0  0  0  0  0  0
   -3.1189   -2.6679    1.7532 H   0  0  0  0  0  0  0  0  0  0  0  0
   -3.9936   -0.5214   -1.8908 H   0  0  0  0  0  0  0  0  0  0  0  0
    5.2797   -1.9533   -1.4190 H   0  0  0  0  0  0  0  0  0  0  0  0
    4.5949    1.1837    1.4947 H   0  0  0  0  0  0  0  0  0  0  0  0
   -4.0326    4.2227   -0.3518 H   0  0  0  0  0  0  0  0  0  0  0  0
   -0.0954    4.7448    1.2884 H   0  0  0  0  0  0  0  0  0  0  0  0
   -5.5189   -2.7606    2.2667 H   0  0  0  0  0  0  0  0  0  0  0  0
   -6.4010   -0.6170   -1.3514 H   0  0  0  0  0  0  0  0  0  0  0  0
   -2.3822    5.6121    0.8731 H   0  0  0  0  0  0  0  0  0  0  0  0
   -7.1703   -1.7365    0.7247 H   0  0  0  0  0  0  0  0  0  0  0  0
  1  8  1  0  0  0  0
  1  9  1  0  0  0  0
  2 10  1  0  0  0  0
  2 11  1  0  0  0  0
  3  6  1  0  0  0  0
  4  6  2  0  0  0  0
  5  7  1  0  0  0  0
  5  9  1  0  0  0  0
  5 10  1  0  0  0  0
  6 27  1  0  0  0  0
  7  8  1  0  0  0  0
  7 11  1  0  0  0  0
  7 30  1  0  0  0  0
  8 12  1  0  0  0  0
  8 31  1  0  0  0  0
  9 13  1  0  0  0  0
  9 32  1  0  0  0  0
 10 14  1  0  0  0  0
 10 33  1  0  0  0  0
 11 34  1  0  0  0  0
 11 35  1  0  0  0  0
 12 15  2  0  0  0  0
 12 16  1  0  0  0  0
 13 17  2  0  0  0  0
 13 18  1  0  0  0  0
 14 19  2  0  0  0  0
 14 20  1  0  0  0  0
 15 21  1  0  0  0  0
 15 36  1  0  0  0  0
 16 22  2  0  0  0  0
 16 37  1  0  0  0  0
 17 23  1  0  0  0  0
 17 38  1  0  0  0  0
 18 24  2  0  0  0  0
 18 39  1  0  0  0  0
 19 25  1  0  0  0  0
 19 40  1  0  0  0  0
 20 26  2  0  0  0  0
 20 41  1  0  0  0  0
 21 27  2  0  0  0  0
 21 42  1  0  0  0  0
 22 27  1  0  0  0  0
 22 43  1  0  0  0  0
 23 28  2  0  0  0  0
 23 44  1  0  0  0  0
 24 28  1  0  0  0  0
 24 45  1  0  0  0  0
 25 29  2  0  0  0  0
 25 46  1  0  0  0  0
 26 29  1  0  0  0  0
 26 47  1  0  0  0  0
 28 48  1  0  0  0  0
 29 49  1  0  0  0  0
M  CHG  2   3  -1   6   1
M  END
> <PUBCHEM_COMPOUND_CID>
583015

> <PUBCHEM_CONFORMER_RMSD>
0.8

> <PUBCHEM_CONFORMER_DIVERSEORDER>
2
27
37
6
35
42
13
31
22
40
20
41
7
26
38
36
11
5
12
32
43
29
10
25
33
16
34
8
39
3
28
21
4
9
30
44
23
17
14
15
24
19
18
1

> <PUBCHEM_MMFF94_PARTIAL_CHARGES>
43
1 -0.56
10 0.69
11 0.28
12 -0.14
13 -0.14
14 -0.14
15 -0.15
16 -0.15
17 -0.15
18 -0.15
19 -0.15
2 -0.56
20 -0.15
21 -0.15
22 -0.15
23 -0.15
24 -0.15
25 -0.15
26 -0.15
27 0.13
28 -0.15
29 -0.15
3 -0.52
36 0.15
37 0.15
38 0.15
39 0.15
4 -0.52
40 0.15
41 0.15
42 0.15
43 0.15
44 0.15
45 0.15
46 0.15
47 0.15
48 0.15
49 0.15
5 -0.81
6 0.91
7 0.27
8 0.42
9 0.69

> <PUBCHEM_EFFECTIVE_ROTOR_COUNT>
5.2

> <PUBCHEM_PHARMACOPHORE_FEATURES>
11
1 1 acceptor
1 2 acceptor
1 3 acceptor
1 3 anion
1 4 acceptor
1 5 cation
5 1 5 7 8 9 rings
5 2 5 7 10 11 rings
6 12 15 16 21 22 27 rings
6 13 17 18 23 24 28 rings
6 14 19 20 25 26 29 rings

> <PUBCHEM_HEAVY_ATOM_COUNT>
29

> <PUBCHEM_ATOM_DEF_STEREO_COUNT>
0

> <PUBCHEM_ATOM_UDEF_STEREO_COUNT>
4

> <PUBCHEM_BOND_DEF_STEREO_COUNT>
0

> <PUBCHEM_BOND_UDEF_STEREO_COUNT>
0

> <PUBCHEM_ISOTOPIC_ATOM_COUNT>
0

> <PUBCHEM_COMPONENT_COUNT>
1

> <PUBCHEM_CACTVS_TAUTO_COUNT>
1

> <PUBCHEM_CONFORMER_ID>
0008E56700000002

> <PUBCHEM_MMFF94_ENERGY>
89.475

> <PUBCHEM_FEATURE_SELFOVERLAP>
56.349

> <PUBCHEM_SHAPE_FINGERPRINT>
10006869 2 18194970875590879067
10050765 1 18194401319751598190
10319926 262 18264785418800966058
10411042 1 18338515227821094183
10930396 42 18195834898156018720
11445158 3 16009605550830049352
11456790 92 18200860792214885035
11646440 116 18341885256645960547
12107698 1 18411985741698335360
12166972 35 17489587818773836038
12236239 1 16486979475343771238
12516196 113 18337670815422774063
12645989 146 18263085414567989887
12788726 201 18269821073800691604
12954195 1 18338232790297066150
13073987 5 18339932610369045394
13140716 1 18126280835595920371
13383665 225 18266432426689029452
13540713 4 17969776578890810798
13782708 43 18114733949956071006
14028597 1 17846786234108879035
140371 6 18270948081619666694
14068700 675 18201154364911603732
14955137 171 18269267955423562923
15131766 46 16011021666504716720
15198563 99 18410293648785037341
15419008 47 18113903745382697984
15775530 1 17536851627231852199
16087824 20 18338799044283715581
16090146 7 17131536302844301474
17980427 23 17531790382663255137
1813 80 18115288004810019823
18608769 82 18334579070335043512
20642791 105 18272372001065540397
20642791 13 18337951289508139564
21236236 1 18410012173617648893
21304253 13 18261671485411095537
2132832 1 18201148880481557732
23419403 2 17603882078451843809
23557571 272 18408886252441646244
23559900 14 18269840809523537172
23845131 108 17761485194661870217
23929065 36 18338249239963988976
25147074 1 17845636111061325020
2747138 104 18340480080875171138
283562 15 18341613758735684515
314173 85 18335693923570124543
3380486 145 18051684456398051827
3418910 222 18270673178919378468
392239 28 18410005568011215217
4409770 3 18341902913514548573
469060 322 17346316046100041365
5104073 3 18267876145802002090
5171179 24 18041859302661561801
5969126 39 18261683627014349821
6004065 56 18192437368609089943
7226269 152 18272373044573573515
9658208 31 17831278859391683573

> <PUBCHEM_SHAPE_MULTIPOLES>
563.37
13.99
4.61
1.11
18.55
7.3
0.03
-9
1.9
-6.62
1.03
-0.16
-0.23
1.31

> <PUBCHEM_SHAPE_SELFOVERLAP>
1247.337

> <PUBCHEM_SHAPE_VOLUME>
300.6

> <PUBCHEM_COORDINATE_TYPE>
2
5
10

$$$$

