7846997
  -OEChem-06241222483D

 52 54  0     1  0  0  0  0  0999 V2000
    2.8361    0.2108   -1.9875 S   0  0  0  0  0  0  0  0  0  0  0  0
   -0.3640   -0.0054    1.1848 O   0  0  0  0  0  0  0  0  0  0  0  0
   -0.6940    2.5664    0.9307 O   0  0  0  0  0  0  0  0  0  0  0  0
   -0.4812    1.8278   -1.2447 O   0  0  0  0  0  0  0  0  0  0  0  0
   -2.4555   -0.4617    0.2605 N   0  0  0  0  0  0  0  0  0  0  0  0
    2.8982    1.0726    0.4427 N   0  0  0  0  0  0  0  0  0  0  0  0
   -2.0947   -1.8802    0.0390 C   0  0  1  0  0  0  0  0  0  0  0  0
   -3.7448    0.0367   -0.2807 C   0  0  2  0  0  0  0  0  0  0  0  0
   -3.2812   -2.8330    0.2216 C   0  0  0  0  0  0  0  0  0  0  0  0
   -4.8912   -0.9635   -0.0844 C   0  0  0  0  0  0  0  0  0  0  0  0
   -4.5249   -2.3736   -0.5247 C   0  0  0  0  0  0  0  0  0  0  0  0
   -1.3836   -2.0886   -1.3008 C   0  0  0  0  0  0  0  0  0  0  0  0
   -3.6187    0.4803   -1.7415 C   0  0  0  0  0  0  0  0  0  0  0  0
   -1.4892    0.3731    0.8463 C   0  0  0  0  0  0  0  0  0  0  0  0
   -1.8781    1.8118    1.0850 C   0  0  1  0  0  0  0  0  0  0  0  0
   -2.4590    1.9879    2.4682 C   0  0  0  0  0  0  0  0  0  0  0  0
   -0.0811    2.4898   -0.2970 C   0  0  0  0  0  0  0  0  0  0  0  0
    1.1616    3.3508   -0.2972 C   0  0  0  0  0  0  0  0  0  0  0  0
    2.2485    2.7863   -1.2132 C   0  0  0  0  0  0  0  0  0  0  0  0
    2.6646    1.4008   -0.7900 C   0  0  0  0  0  0  0  0  0  0  0  0
    3.2798   -0.9132   -0.7575 C   0  0  0  0  0  0  0  0  0  0  0  0
    3.2568   -0.2669    0.4822 C   0  0  0  0  0  0  0  0  0  0  0  0
    3.6235   -2.2690   -0.8807 C   0  0  0  0  0  0  0  0  0  0  0  0
    3.5900   -1.0062    1.6378 C   0  0  0  0  0  0  0  0  0  0  0  0
    3.9489   -2.9776    0.2786 C   0  0  0  0  0  0  0  0  0  0  0  0
    3.9331   -2.3563    1.5225 C   0  0  0  0  0  0  0  0  0  0  0  0
   -1.3602   -2.1510    0.8091 H   0  0  0  0  0  0  0  0  0  0  0  0
   -4.0525    0.9164    0.2892 H   0  0  0  0  0  0  0  0  0  0  0  0
   -3.0102   -3.8482   -0.0909 H   0  0  0  0  0  0  0  0  0  0  0  0
   -3.5216   -2.8910    1.2916 H   0  0  0  0  0  0  0  0  0  0  0  0
   -5.1532   -0.9914    0.9819 H   0  0  0  0  0  0  0  0  0  0  0  0
   -5.7894   -0.6278   -0.6158 H   0  0  0  0  0  0  0  0  0  0  0  0
   -5.3560   -3.0536   -0.3057 H   0  0  0  0  0  0  0  0  0  0  0  0
   -4.3619   -2.4106   -1.6069 H   0  0  0  0  0  0  0  0  0  0  0  0
   -2.0548   -1.9725   -2.1539 H   0  0  0  0  0  0  0  0  0  0  0  0
   -0.9635   -3.0989   -1.3545 H   0  0  0  0  0  0  0  0  0  0  0  0
   -0.5598   -1.3777   -1.4242 H   0  0  0  0  0  0  0  0  0  0  0  0
   -4.5487    0.9556   -2.0729 H   0  0  0  0  0  0  0  0  0  0  0  0
   -3.4259   -0.3539   -2.4183 H   0  0  0  0  0  0  0  0  0  0  0  0
   -2.8160    1.2084   -1.8733 H   0  0  0  0  0  0  0  0  0  0  0  0
   -2.5799    2.2018    0.3466 H   0  0  0  0  0  0  0  0  0  0  0  0
   -2.6866    3.0423    2.6571 H   0  0  0  0  0  0  0  0  0  0  0  0
   -1.7415    1.6801    3.2376 H   0  0  0  0  0  0  0  0  0  0  0  0
   -3.3726    1.4010    2.6038 H   0  0  0  0  0  0  0  0  0  0  0  0
    1.5462    3.4244    0.7273 H   0  0  0  0  0  0  0  0  0  0  0  0
    0.8760    4.3563   -0.6238 H   0  0  0  0  0  0  0  0  0  0  0  0
    1.8884    2.7928   -2.2495 H   0  0  0  0  0  0  0  0  0  0  0  0
    3.1277    3.4406   -1.1749 H   0  0  0  0  0  0  0  0  0  0  0  0
    3.6377   -2.7606   -1.8485 H   0  0  0  0  0  0  0  0  0  0  0  0
    3.5804   -0.5309    2.6146 H   0  0  0  0  0  0  0  0  0  0  0  0
    4.2176   -4.0282    0.2054 H   0  0  0  0  0  0  0  0  0  0  0  0
    4.1889   -2.9235    2.4133 H   0  0  0  0  0  0  0  0  0  0  0  0
  1 20  1  0  0  0  0
  1 21  1  0  0  0  0
  2 14  2  0  0  0  0
  3 15  1  0  0  0  0
  3 17  1  0  0  0  0
  4 17  2  0  0  0  0
  5  7  1  0  0  0  0
  5  8  1  0  0  0  0
  5 14  1  0  0  0  0
  6 20  2  0  0  0  0
  6 22  1  0  0  0  0
  7  9  1  0  0  0  0
  7 12  1  0  0  0  0
  7 27  1  0  0  0  0
  8 10  1  0  0  0  0
  8 13  1  0  0  0  0
  8 28  1  0  0  0  0
  9 11  1  0  0  0  0
  9 29  1  0  0  0  0
  9 30  1  0  0  0  0
 10 11  1  0  0  0  0
 10 31  1  0  0  0  0
 10 32  1  0  0  0  0
 11 33  1  0  0  0  0
 11 34  1  0  0  0  0
 12 35  1  0  0  0  0
 12 36  1  0  0  0  0
 12 37  1  0  0  0  0
 13 38  1  0  0  0  0
 13 39  1  0  0  0  0
 13 40  1  0  0  0  0
 14 15  1  0  0  0  0
 15 16  1  0  0  0  0
 15 41  1  0  0  0  0
 16 42  1  0  0  0  0
 16 43  1  0  0  0  0
 16 44  1  0  0  0  0
 17 18  1  0  0  0  0
 18 19  1  0  0  0  0
 18 45  1  0  0  0  0
 18 46  1  0  0  0  0
 19 20  1  0  0  0  0
 19 47  1  0  0  0  0
 19 48  1  0  0  0  0
 21 22  1  0  0  0  0
 21 23  2  0  0  0  0
 22 24  2  0  0  0  0
 23 25  1  0  0  0  0
 23 49  1  0  0  0  0
 24 26  1  0  0  0  0
 24 50  1  0  0  0  0
 25 26  2  0  0  0  0
 25 51  1  0  0  0  0
 26 52  1  0  0  0  0
M  END
> <PUBCHEM_COMPOUND_CID>
7846997

> <PUBCHEM_CONFORMER_RMSD>
1

> <PUBCHEM_CONFORMER_DIVERSEORDER>
1
8
334
159
323
282
391
166
51
112
377
217
231
30
385
41
348
205
263
135
338
204
189
94
12
178
251
142
213
427
67
305
63
199
158
116
91
87
380
375
129
292
64
106
167
293
214
295
304
57
117
25
345
226
33
342
310
89
289
24
436
424
160
257
192
118
121
108
351
336
357
368
329
103
381
169
110
96
175
83
344
244
255
144
2
286
58
434
387
287
403
202
220
407
79
297
80
69
254
418
256
379
11
308
145
146
321
272
252
53
410
14
341
237
243
10
191
332
409
161
50
441
211
138
88
203
279
99
222
150
71
180
432
340
40
102
36
128
298
299
234
370
314
378
32
303
152
84
18
151
27
81
268
281
183
134
374
215
262
198
132
172
153
54
422
300
156
270
197
278
240
56
154
371
208
406
149
224
261
271
206
111
147
184
34
173
360
77
423
188
309
398
179
187
157
388
307
283
367
82
193
433
258
439
400
265
239
229
75
392
196
361
127
241
412
65
230
366
352
90
442
29
72
337
365
373
62
186
356
182
207
104
246
326
363
347
125
399
185
402
171
148
330
249
405
233
43
141
318
130
396
290
250
238
350
174
437
113
438
5
390
301
23
260
276
358
369
74
267
105
253
194
136
428
60
55
228
35
95
119
248
38
20
324
200
435
21
100
339
313
284
383
316
15
210
354
45
137
408
333
109
382
73
131
415
76
216
349
17
288
419
296
269
285
31
315
401
280
416
386
331
232
397
359
322
209
48
120
16
155
164
13
425
61
28
266
78
123
294
317
124
426
168
394
212
393
139
302
411
312
223
335
97
190
143
259
376
431
245
44
274
343
319
275
49
225
277
413
176
165
93
429
264
420
126
236
353
42
133
218
219
355
92
328
66
235
115
384
346
364
140
417
291
273
46
9
201
39
311
181
170
122
85
227
114
86
395
22
59
389
98
163
162
47
306
247
52
404
440
7
414
372
37
68
26
70
177
325
327
195
3
430
421
6
101
362
19
242
107
4
320
221

> <PUBCHEM_MMFF94_PARTIAL_CHARGES>
24
1 -0.08
14 0.57
15 0.34
17 0.66
18 0.06
19 0.18
2 -0.57
20 0.2
21 0.04
22 0.23
23 -0.15
24 -0.15
25 -0.15
26 -0.15
3 -0.43
4 -0.57
49 0.15
5 -0.66
50 0.15
51 0.15
52 0.15
6 -0.57
7 0.3
8 0.3

> <PUBCHEM_EFFECTIVE_ROTOR_COUNT>
8.2

> <PUBCHEM_PHARMACOPHORE_FEATURES>
6
1 2 acceptor
1 4 acceptor
1 6 acceptor
5 1 6 20 21 22 rings
6 21 22 23 24 25 26 rings
6 5 7 8 9 10 11 rings

> <PUBCHEM_HEAVY_ATOM_COUNT>
26

> <PUBCHEM_ATOM_DEF_STEREO_COUNT>
3

> <PUBCHEM_ATOM_UDEF_STEREO_COUNT>
0

> <PUBCHEM_BOND_DEF_STEREO_COUNT>
0

> <PUBCHEM_BOND_UDEF_STEREO_COUNT>
0

> <PUBCHEM_ISOTOPIC_ATOM_COUNT>
0

> <PUBCHEM_COMPONENT_COUNT>
1

> <PUBCHEM_CACTVS_TAUTO_COUNT>
2

> <PUBCHEM_CONFORMER_ID>
0077BC5500000001

> <PUBCHEM_MMFF94_ENERGY>
48.032

> <PUBCHEM_FEATURE_SELFOVERLAP>
30.52

> <PUBCHEM_SHAPE_FINGERPRINT>
10483366 6 17695932281433230693
12156800 1 16388540323409110502
12422481 6 17897702466477065363
12553582 1 18199172070459671682
12596599 1 18410851105210938330
12633257 1 17825660316730245880
12788726 201 17823116978879195041
13692114 37 17835242616713138161
14114206 34 17058919168966755258
14117953 113 18049439541791228845
14251757 17 17987822764041767893
14713325 29 11274351528079669453
14950920 106 5328462575086863085
15420108 30 17325759778998229465
17349148 13 18259985998267429815
17492 89 18410853231040999163
17809404 112 18339096916247479210
17818456 19 18115010996647016657
17974551 9 15651250797138872542
19026451 147 18341900628181042594
20775530 9 18410576192981373850
21315759 227 18056204561711782827
21315764 371 15502384387301778599
21421861 104 18265321820500993505
23559900 14 18114169843943595142
238 59 17842825643228626618
3004659 81 18412265012692438287
3027735 51 17905906012514810477
339767 52 18411710889207884114
345986 75 18114170883874326571
3680242 22 18409437095135753595
460360 51 18342730819768662929
463206 1 18201439202811238530
484985 159 17410516680739521550
508706 21 17829885782691785166
56633871 153 18049151469513006539
6433294 58 18053100618843195459

> <PUBCHEM_SHAPE_MULTIPOLES>
511.35
9.19
4.1
1.8
2.02
0.64
-0.29
-7.18
0.23
-1.04
-0.07
-0.29
0.47
-1.94

> <PUBCHEM_SHAPE_SELFOVERLAP>
1062.629

> <PUBCHEM_SHAPE_VOLUME>
292.5

> <PUBCHEM_COORDINATE_TYPE>
2
5
10

$$$$

