51090866
  -OEChem-06241223002D

 43 45  0     0  0  0  0  0  0999 V2000
    5.4641   -2.6307    0.0000 O   0  0  0  0  0  0  0  0  0  0  0  0
    8.5622    1.4081    0.0000 N   0  0  0  0  0  0  0  0  0  0  0  0
    7.2532    0.4571    0.0000 N   0  0  0  0  0  0  0  0  0  0  0  0
    8.8712    0.4571    0.0000 N   0  0  0  0  0  0  0  0  0  0  0  0
    6.3301   -1.1307    0.0000 N   0  0  0  0  0  0  0  0  0  0  0  0
    2.8660   -1.1307    0.0000 N   0  0  0  0  0  0  0  0  0  0  0  0
    6.9744    2.2172    0.0000 C   0  0  0  0  0  0  0  0  0  0  0  0
    7.5622    1.4081    0.0000 C   0  0  0  0  0  0  0  0  0  0  0  0
    8.0622   -1.1307    0.0000 C   0  0  0  0  0  0  0  0  0  0  0  0
    7.3811    3.1307    0.0000 C   0  0  0  0  0  0  0  0  0  0  0  0
    5.9799    2.1126    0.0000 C   0  0  0  0  0  0  0  0  0  0  0  0
    8.0622   -0.1307    0.0000 C   0  0  0  0  0  0  0  0  0  0  0  0
    7.1962   -1.6307    0.0000 C   0  0  0  0  0  0  0  0  0  0  0  0
    8.9282   -1.6307    0.0000 C   0  0  0  0  0  0  0  0  0  0  0  0
    7.1962   -2.6307    0.0000 C   0  0  0  0  0  0  0  0  0  0  0  0
    8.9282   -2.6307    0.0000 C   0  0  0  0  0  0  0  0  0  0  0  0
    8.0622   -3.1307    0.0000 C   0  0  0  0  0  0  0  0  0  0  0  0
    5.4641   -1.6307    0.0000 C   0  0  0  0  0  0  0  0  0  0  0  0
    4.5981   -1.1307    0.0000 C   0  0  0  0  0  0  0  0  0  0  0  0
    4.5981   -0.1307    0.0000 C   0  0  0  0  0  0  0  0  0  0  0  0
    3.7320   -1.6307    0.0000 C   0  0  0  0  0  0  0  0  0  0  0  0
    2.8660   -0.1307    0.0000 C   0  0  0  0  0  0  0  0  0  0  0  0
    3.7320    0.3693    0.0000 C   0  0  0  0  0  0  0  0  0  0  0  0
    2.0000    0.3693    0.0000 C   0  0  0  0  0  0  0  0  0  0  0  0
    6.6100    2.7188    0.0000 H   0  0  0  0  0  0  0  0  0  0  0  0
    7.9475    2.8785    0.0000 H   0  0  0  0  0  0  0  0  0  0  0  0
    7.6333    3.6971    0.0000 H   0  0  0  0  0  0  0  0  0  0  0  0
    6.8147    3.3829    0.0000 H   0  0  0  0  0  0  0  0  0  0  0  0
    5.9151    2.7292    0.0000 H   0  0  0  0  0  0  0  0  0  0  0  0
    5.3633    2.0478    0.0000 H   0  0  0  0  0  0  0  0  0  0  0  0
    6.0447    1.4960    0.0000 H   0  0  0  0  0  0  0  0  0  0  0  0
    8.9266    1.9097    0.0000 H   0  0  0  0  0  0  0  0  0  0  0  0
    9.4651   -1.3207    0.0000 H   0  0  0  0  0  0  0  0  0  0  0  0
    6.6592   -2.9407    0.0000 H   0  0  0  0  0  0  0  0  0  0  0  0
    6.3301   -0.5107    0.0000 H   0  0  0  0  0  0  0  0  0  0  0  0
    9.4651   -2.9407    0.0000 H   0  0  0  0  0  0  0  0  0  0  0  0
    8.0622   -3.7507    0.0000 H   0  0  0  0  0  0  0  0  0  0  0  0
    5.1350    0.1793    0.0000 H   0  0  0  0  0  0  0  0  0  0  0  0
    3.7320   -2.2507    0.0000 H   0  0  0  0  0  0  0  0  0  0  0  0
    3.7320    0.9893    0.0000 H   0  0  0  0  0  0  0  0  0  0  0  0
    2.3100    0.9062    0.0000 H   0  0  0  0  0  0  0  0  0  0  0  0
    1.4631    0.6793    0.0000 H   0  0  0  0  0  0  0  0  0  0  0  0
    1.6900   -0.1676    0.0000 H   0  0  0  0  0  0  0  0  0  0  0  0
  1 18  2  0  0  0  0
  2  4  1  0  0  0  0
  2  8  1  0  0  0  0
  2 32  1  0  0  0  0
  3  8  2  0  0  0  0
  3 12  1  0  0  0  0
  4 12  2  0  0  0  0
  5 13  1  0  0  0  0
  5 18  1  0  0  0  0
  5 35  1  0  0  0  0
  6 21  1  0  0  0  0
  6 22  2  0  0  0  0
  7  8  1  0  0  0  0
  7 10  1  0  0  0  0
  7 11  1  0  0  0  0
  7 25  1  0  0  0  0
  9 12  1  0  0  0  0
  9 13  1  0  0  0  0
  9 14  2  0  0  0  0
 10 26  1  0  0  0  0
 10 27  1  0  0  0  0
 10 28  1  0  0  0  0
 11 29  1  0  0  0  0
 11 30  1  0  0  0  0
 11 31  1  0  0  0  0
 13 15  2  0  0  0  0
 14 16  1  0  0  0  0
 14 33  1  0  0  0  0
 15 17  1  0  0  0  0
 15 34  1  0  0  0  0
 16 17  2  0  0  0  0
 16 36  1  0  0  0  0
 17 37  1  0  0  0  0
 18 19  1  0  0  0  0
 19 20  1  0  0  0  0
 19 21  2  0  0  0  0
 20 23  2  0  0  0  0
 20 38  1  0  0  0  0
 21 39  1  0  0  0  0
 22 23  1  0  0  0  0
 22 24  1  0  0  0  0
 23 40  1  0  0  0  0
 24 41  1  0  0  0  0
 24 42  1  0  0  0  0
 24 43  1  0  0  0  0
M  END
> <PUBCHEM_COMPOUND_CID>
51090866

> <PUBCHEM_COMPOUND_CANONICALIZED>
1

> <PUBCHEM_CACTVS_COMPLEXITY>
430

> <PUBCHEM_CACTVS_HBOND_ACCEPTOR>
4

> <PUBCHEM_CACTVS_HBOND_DONOR>
2

> <PUBCHEM_CACTVS_ROTATABLE_BOND>
4

> <PUBCHEM_CACTVS_SUBSKEYS>
AAADceB7oAAAAAAAAAAAAAAAAAAAAWAAAAA8QAAAAAAAAAAB8AAAHgAYAAAADQjBnwQ/0JbrEACqAzd3dACSgCu1AqAd+CE4ZNiIKPrA3ZGEIYhgnALIyccYiQAeAAAAAAACAAAAAAAAAAQAAAAAAAAAAA==

> <PUBCHEM_IUPAC_OPENEYE_NAME>
N-[2-(5-isopropyl-1H-1,2,4-triazol-3-yl)phenyl]-6-methyl-pyridine-3-carboxamide

> <PUBCHEM_IUPAC_CAS_NAME>
6-methyl-N-[2-(5-propan-2-yl-1H-1,2,4-triazol-3-yl)phenyl]-3-pyridinecarboxamide

> <PUBCHEM_IUPAC_NAME>
6-methyl-N-[2-(5-propan-2-yl-1H-1,2,4-triazol-3-yl)phenyl]pyridine-3-carboxamide

> <PUBCHEM_IUPAC_SYSTEMATIC_NAME>
6-methyl-N-[2-(5-propan-2-yl-1H-1,2,4-triazol-3-yl)phenyl]pyridine-3-carboxamide

> <PUBCHEM_IUPAC_TRADITIONAL_NAME>
N-[2-(5-isopropyl-1H-1,2,4-triazol-3-yl)phenyl]-6-methyl-nicotinamide

> <PUBCHEM_IUPAC_INCHI>
InChI=1S/C18H19N5O/c1-11(2)16-21-17(23-22-16)14-6-4-5-7-15(14)20-18(24)13-9-8-12(3)19-10-13/h4-11H,1-3H3,(H,20,24)(H,21,22,23)

> <PUBCHEM_IUPAC_INCHIKEY>
WCZUJRMWTGFSNK-UHFFFAOYSA-N

> <PUBCHEM_XLOGP3_AA>
3

> <PUBCHEM_EXACT_MASS>
321.15896

> <PUBCHEM_MOLECULAR_FORMULA>
C18H19N5O

> <PUBCHEM_MOLECULAR_WEIGHT>
321.37636

> <PUBCHEM_OPENEYE_CAN_SMILES>
CC1=NC=C(C=C1)C(=O)NC2=CC=CC=C2C3=NNC(=N3)C(C)C

> <PUBCHEM_OPENEYE_ISO_SMILES>
CC1=NC=C(C=C1)C(=O)NC2=CC=CC=C2C3=NNC(=N3)C(C)C

> <PUBCHEM_CACTVS_TPSA>
83.6

> <PUBCHEM_MONOISOTOPIC_WEIGHT>
321.15896

> <PUBCHEM_TOTAL_CHARGE>
0

> <PUBCHEM_HEAVY_ATOM_COUNT>
24

> <PUBCHEM_ATOM_DEF_STEREO_COUNT>
0

> <PUBCHEM_ATOM_UDEF_STEREO_COUNT>
0

> <PUBCHEM_BOND_DEF_STEREO_COUNT>
0

> <PUBCHEM_BOND_UDEF_STEREO_COUNT>
0

> <PUBCHEM_ISOTOPIC_ATOM_COUNT>
0

> <PUBCHEM_COMPONENT_COUNT>
1

> <PUBCHEM_CACTVS_TAUTO_COUNT>
166

> <PUBCHEM_COORDINATE_TYPE>
1
5
255

> <PUBCHEM_BONDANNOTATIONS>
13  15  8
14  16  8
15  17  8
16  17  8
19  20  8
19  21  8
2  4  8
2  8  8
20  23  8
22  23  8
3  12  8
3  8  8
4  12  8
6  21  8
6  22  8
9  13  8
9  14  8

$$$$

