4448
  -OEChem-06261200072D

 53 54  0     1  0  0  0  0  0999 V2000
    3.0000    0.1900    0.0000 S   0  0  0  0  0  0  0  0  0  0  0  0
    4.0000    0.1900    0.0000 O   0  0  0  0  0  0  0  0  0  0  0  0
    2.0000    0.1900    0.0000 O   0  0  0  0  0  0  0  0  0  0  0  0
    4.7320    3.1900    0.0000 O   0  0  0  0  0  0  0  0  0  0  0  0
    3.0000    3.1900    0.0000 O   0  0  0  0  0  0  0  0  0  0  0  0
    9.0622    1.6900    0.0000 O   0  0  0  0  0  0  0  0  0  0  0  0
    8.1962    0.1900    0.0000 O   0  0  0  0  0  0  0  0  0  0  0  0
    3.0000    1.1900    0.0000 N   0  0  0  0  0  0  0  0  0  0  0  0
    7.3301    1.6900    0.0000 N   0  0  0  0  0  0  0  0  0  0  0  0
    3.8660    1.6900    0.0000 C   0  0  3  0  0  0  0  0  0  0  0  0
    4.7320    1.1900    0.0000 C   0  0  0  0  0  0  0  0  0  0  0  0
    5.5981    1.6900    0.0000 C   0  0  0  0  0  0  0  0  0  0  0  0
    6.4641    1.1900    0.0000 C   0  0  0  0  0  0  0  0  0  0  0  0
    3.8660    2.6900    0.0000 C   0  0  0  0  0  0  0  0  0  0  0  0
    3.0000   -0.8100    0.0000 C   0  0  0  0  0  0  0  0  0  0  0  0
    2.1340   -1.3100    0.0000 C   0  0  0  0  0  0  0  0  0  0  0  0
    3.8660   -1.3100    0.0000 C   0  0  0  0  0  0  0  0  0  0  0  0
    3.0000   -2.8100    0.0000 C   0  0  0  0  0  0  0  0  0  0  0  0
    2.1340   -2.3100    0.0000 C   0  0  0  0  0  0  0  0  0  0  0  0
    3.8660   -2.3100    0.0000 C   0  0  0  0  0  0  0  0  0  0  0  0
    8.1962    1.1900    0.0000 C   0  0  0  0  0  0  0  0  0  0  0  0
    3.0000   -3.8100    0.0000 C   0  0  0  0  0  0  0  0  0  0  0  0
    9.9282    1.1900    0.0000 C   0  0  0  0  0  0  0  0  0  0  0  0
   10.7942    1.6900    0.0000 C   0  0  0  0  0  0  0  0  0  0  0  0
   11.6603    1.1900    0.0000 C   0  0  0  0  0  0  0  0  0  0  0  0
   10.7942    2.6900    0.0000 C   0  0  0  0  0  0  0  0  0  0  0  0
   12.5263    1.6900    0.0000 C   0  0  0  0  0  0  0  0  0  0  0  0
   11.6603    3.1900    0.0000 C   0  0  0  0  0  0  0  0  0  0  0  0
   12.5263    2.6900    0.0000 C   0  0  0  0  0  0  0  0  0  0  0  0
    3.8660    0.8400    0.0000 H   0  0  0  0  0  0  0  0  0  0  0  0
    4.3335    0.7151    0.0000 H   0  0  0  0  0  0  0  0  0  0  0  0
    5.1306    0.7151    0.0000 H   0  0  0  0  0  0  0  0  0  0  0  0
    5.9966    2.1650    0.0000 H   0  0  0  0  0  0  0  0  0  0  0  0
    5.1996    2.1650    0.0000 H   0  0  0  0  0  0  0  0  0  0  0  0
    2.4631    1.5000    0.0000 H   0  0  0  0  0  0  0  0  0  0  0  0
    6.0656    0.7151    0.0000 H   0  0  0  0  0  0  0  0  0  0  0  0
    6.8626    0.7151    0.0000 H   0  0  0  0  0  0  0  0  0  0  0  0
    7.3301    2.3100    0.0000 H   0  0  0  0  0  0  0  0  0  0  0  0
    1.5970   -1.0000    0.0000 H   0  0  0  0  0  0  0  0  0  0  0  0
    4.4030   -1.0000    0.0000 H   0  0  0  0  0  0  0  0  0  0  0  0
    1.5970   -2.6200    0.0000 H   0  0  0  0  0  0  0  0  0  0  0  0
    4.4030   -2.6200    0.0000 H   0  0  0  0  0  0  0  0  0  0  0  0
    4.7320    3.8100    0.0000 H   0  0  0  0  0  0  0  0  0  0  0  0
    2.3800   -3.8100    0.0000 H   0  0  0  0  0  0  0  0  0  0  0  0
    3.0000   -4.4300    0.0000 H   0  0  0  0  0  0  0  0  0  0  0  0
    3.6200   -3.8100    0.0000 H   0  0  0  0  0  0  0  0  0  0  0  0
    9.5297    0.7151    0.0000 H   0  0  0  0  0  0  0  0  0  0  0  0
   10.3267    0.7151    0.0000 H   0  0  0  0  0  0  0  0  0  0  0  0
   11.6603    0.5700    0.0000 H   0  0  0  0  0  0  0  0  0  0  0  0
   10.2573    3.0000    0.0000 H   0  0  0  0  0  0  0  0  0  0  0  0
   13.0632    1.3800    0.0000 H   0  0  0  0  0  0  0  0  0  0  0  0
   11.6603    3.8100    0.0000 H   0  0  0  0  0  0  0  0  0  0  0  0
   13.0632    3.0000    0.0000 H   0  0  0  0  0  0  0  0  0  0  0  0
  1  2  2  0  0  0  0
  1  3  2  0  0  0  0
  1  8  1  0  0  0  0
  1 15  1  0  0  0  0
  4 14  1  0  0  0  0
  4 43  1  0  0  0  0
  5 14  2  0  0  0  0
  6 21  1  0  0  0  0
  6 23  1  0  0  0  0
  7 21  2  0  0  0  0
  8 10  1  0  0  0  0
  8 35  1  0  0  0  0
  9 13  1  0  0  0  0
  9 21  1  0  0  0  0
  9 38  1  0  0  0  0
 10 11  1  0  0  0  0
 10 14  1  0  0  0  0
 10 30  1  0  0  0  0
 11 12  1  0  0  0  0
 11 31  1  0  0  0  0
 11 32  1  0  0  0  0
 12 13  1  0  0  0  0
 12 33  1  0  0  0  0
 12 34  1  0  0  0  0
 13 36  1  0  0  0  0
 13 37  1  0  0  0  0
 15 16  2  0  0  0  0
 15 17  1  0  0  0  0
 16 19  1  0  0  0  0
 16 39  1  0  0  0  0
 17 20  2  0  0  0  0
 17 40  1  0  0  0  0
 18 19  2  0  0  0  0
 18 20  1  0  0  0  0
 18 22  1  0  0  0  0
 19 41  1  0  0  0  0
 20 42  1  0  0  0  0
 22 44  1  0  0  0  0
 22 45  1  0  0  0  0
 22 46  1  0  0  0  0
 23 24  1  0  0  0  0
 23 47  1  0  0  0  0
 23 48  1  0  0  0  0
 24 25  2  0  0  0  0
 24 26  1  0  0  0  0
 25 27  1  0  0  0  0
 25 49  1  0  0  0  0
 26 28  2  0  0  0  0
 26 50  1  0  0  0  0
 27 29  2  0  0  0  0
 27 51  1  0  0  0  0
 28 29  1  0  0  0  0
 28 52  1  0  0  0  0
 29 53  1  0  0  0  0
M  END
> <PUBCHEM_COMPOUND_CID>
4448

> <PUBCHEM_COMPOUND_CANONICALIZED>
1

> <PUBCHEM_CACTVS_COMPLEXITY>
619

> <PUBCHEM_CACTVS_HBOND_ACCEPTOR>
7

> <PUBCHEM_CACTVS_HBOND_DONOR>
3

> <PUBCHEM_CACTVS_ROTATABLE_BOND>
11

> <PUBCHEM_CACTVS_SUBSKEYS>
AAADceB7OABAAAAAAAAAAAAAAAAAAAAAAAAwYAAAAAAAAAABQAAAHgQQSAAADCjh2AYyCYLABgKIAiDSGHBCABAgAAAIiJmICIkKJjKAsRiMcAAk1gEIqAeY0SIOEAAAAAAAAAAgAAAAAAAAAAAAAAAAAA==

> <PUBCHEM_IUPAC_OPENEYE_NAME>
5-(benzyloxycarbonylamino)-2-(p-tolylsulfonylamino)pentanoic acid

> <PUBCHEM_IUPAC_CAS_NAME>
2-[(4-methylphenyl)sulfonylamino]-5-(phenylmethoxycarbonylamino)pentanoic acid

> <PUBCHEM_IUPAC_NAME>
2-[(4-methylphenyl)sulfonylamino]-5-(phenylmethoxycarbonylamino)pentanoic acid

> <PUBCHEM_IUPAC_SYSTEMATIC_NAME>
2-[(4-methylphenyl)sulfonylamino]-5-(phenylmethoxycarbonylamino)pentanoic acid

> <PUBCHEM_IUPAC_TRADITIONAL_NAME>
5-(benzyloxycarbonylamino)-2-(tosylamino)valeric acid

> <PUBCHEM_IUPAC_INCHI>
InChI=1S/C20H24N2O6S/c1-15-9-11-17(12-10-15)29(26,27)22-18(19(23)24)8-5-13-21-20(25)28-14-16-6-3-2-4-7-16/h2-4,6-7,9-12,18,22H,5,8,13-14H2,1H3,(H,21,25)(H,23,24)

> <PUBCHEM_IUPAC_INCHIKEY>
OZSAGZLRQMVNHG-UHFFFAOYSA-N

> <PUBCHEM_XLOGP3_AA>
2.8

> <PUBCHEM_EXACT_MASS>
420.135507

> <PUBCHEM_MOLECULAR_FORMULA>
C20H24N2O6S

> <PUBCHEM_MOLECULAR_WEIGHT>
420.47936

> <PUBCHEM_OPENEYE_CAN_SMILES>
CC1=CC=C(C=C1)S(=O)(=O)NC(CCCNC(=O)OCC2=CC=CC=C2)C(=O)O

> <PUBCHEM_OPENEYE_ISO_SMILES>
CC1=CC=C(C=C1)S(=O)(=O)NC(CCCNC(=O)OCC2=CC=CC=C2)C(=O)O

> <PUBCHEM_CACTVS_TPSA>
130

> <PUBCHEM_MONOISOTOPIC_WEIGHT>
420.135507

> <PUBCHEM_TOTAL_CHARGE>
0

> <PUBCHEM_HEAVY_ATOM_COUNT>
29

> <PUBCHEM_ATOM_DEF_STEREO_COUNT>
0

> <PUBCHEM_ATOM_UDEF_STEREO_COUNT>
1

> <PUBCHEM_BOND_DEF_STEREO_COUNT>
0

> <PUBCHEM_BOND_UDEF_STEREO_COUNT>
0

> <PUBCHEM_ISOTOPIC_ATOM_COUNT>
0

> <PUBCHEM_COMPONENT_COUNT>
1

> <PUBCHEM_CACTVS_TAUTO_COUNT>
2

> <PUBCHEM_COORDINATE_TYPE>
1
5
255

> <PUBCHEM_BONDANNOTATIONS>
10  30  3
15  16  8
15  17  8
16  19  8
17  20  8
18  19  8
18  20  8
24  25  8
24  26  8
25  27  8
26  28  8
27  29  8
28  29  8

$$$$

