7846970
  -OEChem-06241222483D

 53 55  0     1  0  0  0  0  0999 V2000
    4.9464    0.1578    0.0194 S   0  0  0  0  0  0  0  0  0  0  0  0
    1.0690    3.0256    0.5006 O   0  0  0  0  0  0  0  0  0  0  0  0
    0.4657    0.5018    1.3061 O   0  0  0  0  0  0  0  0  0  0  0  0
    0.8053    1.8679   -1.4773 O   0  0  0  0  0  0  0  0  0  0  0  0
    2.7622   -0.3780   -1.2432 N   0  0  0  0  0  0  0  0  0  0  0  0
   -5.5119   -1.1624   -0.4755 C   0  0  0  0  0  0  0  0  0  0  0  0
   -4.1643   -0.5244   -0.0999 C   0  0  0  0  0  0  0  0  0  0  0  0
   -5.3886   -2.5926   -1.0484 C   0  0  0  0  0  0  0  0  0  0  0  0
   -6.2135   -0.3009   -1.5478 C   0  0  0  0  0  0  0  0  0  0  0  0
   -6.4128   -1.2488    0.7755 C   0  0  0  0  0  0  0  0  0  0  0  0
   -3.0195   -1.2546   -0.2998 C   0  0  0  0  0  0  0  0  0  0  0  0
   -4.1673    0.7461    0.4193 C   0  0  0  0  0  0  0  0  0  0  0  0
   -1.7600    0.6137    0.5721 C   0  0  0  0  0  0  0  0  0  0  0  0
   -1.7971   -0.6760    0.0419 C   0  0  0  0  0  0  0  0  0  0  0  0
   -2.9450    1.3247    0.7608 C   0  0  0  0  0  0  0  0  0  0  0  0
   -0.2814    2.7453    0.8524 C   0  0  1  0  0  0  0  0  0  0  0  0
   -0.4853    1.2169    0.9279 C   0  0  0  0  0  0  0  0  0  0  0  0
    3.6864    1.8577   -1.7415 C   0  0  0  0  0  0  0  0  0  0  0  0
    2.9330    2.9089   -0.9251 C   0  0  0  0  0  0  0  0  0  0  0  0
   -0.5437    3.4001    2.1986 C   0  0  0  0  0  0  0  0  0  0  0  0
    3.6825    0.5160   -1.0547 C   0  0  0  0  0  0  0  0  0  0  0  0
    1.4883    2.5232   -0.7024 C   0  0  0  0  0  0  0  0  0  0  0  0
    4.2232   -1.3817    0.3020 C   0  0  0  0  0  0  0  0  0  0  0  0
    3.0584   -1.4870   -0.4642 C   0  0  0  0  0  0  0  0  0  0  0  0
    4.6554   -2.4212    1.1412 C   0  0  0  0  0  0  0  0  0  0  0  0
    2.3013   -2.6761   -0.3859 C   0  0  0  0  0  0  0  0  0  0  0  0
    3.8878   -3.5870    1.2003 C   0  0  0  0  0  0  0  0  0  0  0  0
    2.7256   -3.7150    0.4476 C   0  0  0  0  0  0  0  0  0  0  0  0
   -6.3772   -2.9978   -1.2980 H   0  0  0  0  0  0  0  0  0  0  0  0
   -4.7996   -2.6153   -1.9729 H   0  0  0  0  0  0  0  0  0  0  0  0
   -4.9401   -3.2863   -0.3275 H   0  0  0  0  0  0  0  0  0  0  0  0
   -7.1584   -0.7579   -1.8647 H   0  0  0  0  0  0  0  0  0  0  0  0
   -6.4533    0.7047   -1.1853 H   0  0  0  0  0  0  0  0  0  0  0  0
   -5.5834   -0.1885   -2.4382 H   0  0  0  0  0  0  0  0  0  0  0  0
   -5.9273   -1.8247    1.5724 H   0  0  0  0  0  0  0  0  0  0  0  0
   -7.3649   -1.7403    0.5428 H   0  0  0  0  0  0  0  0  0  0  0  0
   -6.6566   -0.2622    1.1843 H   0  0  0  0  0  0  0  0  0  0  0  0
   -2.9899   -2.2566   -0.7081 H   0  0  0  0  0  0  0  0  0  0  0  0
   -5.0760    1.3177    0.5736 H   0  0  0  0  0  0  0  0  0  0  0  0
   -0.8833   -1.2428   -0.1169 H   0  0  0  0  0  0  0  0  0  0  0  0
   -2.9601    2.3301    1.1654 H   0  0  0  0  0  0  0  0  0  0  0  0
   -0.9366    3.1806    0.0890 H   0  0  0  0  0  0  0  0  0  0  0  0
    3.2174    1.7448   -2.7271 H   0  0  0  0  0  0  0  0  0  0  0  0
    4.7124    2.1995   -1.9237 H   0  0  0  0  0  0  0  0  0  0  0  0
    2.9475    3.8728   -1.4446 H   0  0  0  0  0  0  0  0  0  0  0  0
    3.4233    3.0382    0.0472 H   0  0  0  0  0  0  0  0  0  0  0  0
   -1.5540    3.2192    2.5717 H   0  0  0  0  0  0  0  0  0  0  0  0
   -0.3859    4.4821    2.1327 H   0  0  0  0  0  0  0  0  0  0  0  0
    0.1596    3.0272    2.9526 H   0  0  0  0  0  0  0  0  0  0  0  0
    5.5616   -2.3283    1.7318 H   0  0  0  0  0  0  0  0  0  0  0  0
    1.3912   -2.7861   -0.9689 H   0  0  0  0  0  0  0  0  0  0  0  0
    4.2045   -4.4036    1.8438 H   0  0  0  0  0  0  0  0  0  0  0  0
    2.1411   -4.6290    0.5067 H   0  0  0  0  0  0  0  0  0  0  0  0
  1 21  1  0  0  0  0
  1 23  1  0  0  0  0
  2 16  1  0  0  0  0
  2 22  1  0  0  0  0
  3 17  2  0  0  0  0
  4 22  2  0  0  0  0
  5 21  2  0  0  0  0
  5 24  1  0  0  0  0
  6  7  1  0  0  0  0
  6  8  1  0  0  0  0
  6  9  1  0  0  0  0
  6 10  1  0  0  0  0
  7 11  2  0  0  0  0
  7 12  1  0  0  0  0
  8 29  1  0  0  0  0
  8 30  1  0  0  0  0
  8 31  1  0  0  0  0
  9 32  1  0  0  0  0
  9 33  1  0  0  0  0
  9 34  1  0  0  0  0
 10 35  1  0  0  0  0
 10 36  1  0  0  0  0
 10 37  1  0  0  0  0
 11 14  1  0  0  0  0
 11 38  1  0  0  0  0
 12 15  2  0  0  0  0
 12 39  1  0  0  0  0
 13 14  2  0  0  0  0
 13 15  1  0  0  0  0
 13 17  1  0  0  0  0
 14 40  1  0  0  0  0
 15 41  1  0  0  0  0
 16 17  1  0  0  0  0
 16 20  1  0  0  0  0
 16 42  1  0  0  0  0
 18 19  1  0  0  0  0
 18 21  1  0  0  0  0
 18 43  1  0  0  0  0
 18 44  1  0  0  0  0
 19 22  1  0  0  0  0
 19 45  1  0  0  0  0
 19 46  1  0  0  0  0
 20 47  1  0  0  0  0
 20 48  1  0  0  0  0
 20 49  1  0  0  0  0
 23 24  1  0  0  0  0
 23 25  2  0  0  0  0
 24 26  2  0  0  0  0
 25 27  1  0  0  0  0
 25 50  1  0  0  0  0
 26 28  1  0  0  0  0
 26 51  1  0  0  0  0
 27 28  2  0  0  0  0
 27 52  1  0  0  0  0
 28 53  1  0  0  0  0
M  END
> <PUBCHEM_COMPOUND_CID>
7846970

> <PUBCHEM_CONFORMER_RMSD>
1.2

> <PUBCHEM_CONFORMER_DIVERSEORDER>
1
63
76
101
120
80
53
7
20
104
74
24
89
71
47
132
12
145
67
84
59
150
18
58
33
10
44
68
141
87
127
133
85
146
23
113
122
82
135
139
153
102
81
131
36
70
130
69
103
75
27
138
46
147
4
119
37
112
83
149
55
114
19
42
94
116
16
41
8
128
65
106
144
57
17
115
21
155
121
117
22
61
25
43
142
152
148
52
105
35
30
140
124
110
99
6
137
51
49
3
90
97
154
62
93
111
91
13
134
95
14
26
125
123
96
29
38
151
126
2
88
79
108
40
45
28
50
60
78
11
109
129
64
39
15
98
9
107
77
34
143
32
72
136
5
73
118
92
86
56
48
31
54
100
66

> <PUBCHEM_MMFF94_PARTIAL_CHARGES>
32
1 -0.08
11 -0.15
12 -0.15
13 0.09
14 -0.15
15 -0.15
16 0.34
17 0.42
18 0.18
19 0.06
2 -0.43
21 0.2
22 0.66
23 0.04
24 0.23
25 -0.15
26 -0.15
27 -0.15
28 -0.15
3 -0.57
38 0.15
39 0.15
4 -0.57
40 0.15
41 0.15
5 -0.57
50 0.15
51 0.15
52 0.15
53 0.15
6 0.14
7 -0.14

> <PUBCHEM_EFFECTIVE_ROTOR_COUNT>
8

> <PUBCHEM_PHARMACOPHORE_FEATURES>
7
1 3 acceptor
1 4 acceptor
1 5 acceptor
4 6 8 9 10 hydrophobe
5 1 5 21 23 24 rings
6 23 24 25 26 27 28 rings
6 7 11 12 13 14 15 rings

> <PUBCHEM_HEAVY_ATOM_COUNT>
28

> <PUBCHEM_ATOM_DEF_STEREO_COUNT>
1

> <PUBCHEM_ATOM_UDEF_STEREO_COUNT>
0

> <PUBCHEM_BOND_DEF_STEREO_COUNT>
0

> <PUBCHEM_BOND_UDEF_STEREO_COUNT>
0

> <PUBCHEM_ISOTOPIC_ATOM_COUNT>
0

> <PUBCHEM_COMPONENT_COUNT>
1

> <PUBCHEM_CACTVS_TAUTO_COUNT>
4

> <PUBCHEM_CONFORMER_ID>
0077BC3A00000001

> <PUBCHEM_MMFF94_ENERGY>
73.0368

> <PUBCHEM_FEATURE_SELFOVERLAP>
35.595

> <PUBCHEM_SHAPE_FINGERPRINT>
10448021 39 18410299128946580519
10622 236 18268997659708659978
11069576 57 18342450465804784446
11186622 123 17755027402078741535
11552529 35 17831864925681543970
11973864 118 15508904379680611919
12166972 35 18131631218406888838
12422481 6 17473790271951147569
12655364 74 4958528778551007098
12717326 68 17696779992129973466
12788726 201 18115292475396312009
13533116 47 18340203003818188935
1361 2 18342457007018720962
14068700 675 18338236085212208834
14117953 113 17833548272871206423
14251757 17 17488195969938660060
14347332 77 18408324372431135605
1454969 45 18271803554402773182
14675020 138 18264776446192642328
14931854 50 18338502063545911700
15183329 4 18334006178123162765
15250474 111 18407758127821157887
15968369 26 18124899875009008507
17134984 74 18268990873855335807
17138139 8 17826792534459887798
17492 89 18120653793173676538
17857418 61 18334576824356901695
19026451 147 18413673526043168042
19315092 285 18114468950362352216
19319366 153 18266176128477960438
20028762 73 18334009498159510046
20511986 3 18261119560148099612
20567600 247 18337112250994887375
20715895 44 17762339514995906045
20775530 9 18055060215294515330
21033648 29 15285638841429324355
21285901 2 17346884437898339660
21304303 94 18130790001690505947
21703447 108 18187932746357828392
23559900 14 18336561430266240187
3004659 81 18412543245084878510
314194 84 18410008810938175523
3411729 13 16589159203725623664
345986 75 18187642535353671433
3680242 22 18337943584616722987
397830 11 6988040215580347375
439807 62 18268430145154822223
46194498 28 17703793574253394733
463206 1 18190178992614677983
474144 1 18410291385099505582
504843 32 16604659929718393353
56633871 153 17762892573401943282
6438754 60 18409728456768431529
6669772 16 17827930515888804737

> <PUBCHEM_SHAPE_MULTIPOLES>
557.49
13.51
4.55
1.53
15.96
0.24
0.05
10.06
-2.58
-4.6
1.19
-0.21
-0.77
-2.98

> <PUBCHEM_SHAPE_SELFOVERLAP>
1182.11

> <PUBCHEM_SHAPE_VOLUME>
315.7

> <PUBCHEM_COORDINATE_TYPE>
2
5
10

$$$$

