8107
  -OEChem-06261202353D

 19 18  0     0  0  0  0  0  0999 V2000
    2.4241   -0.4503    0.0061 O   0  0  0  0  0  0  0  0  0  0  0  0
   -3.6341    0.3493    0.0048 O   0  0  0  0  0  0  0  0  0  0  0  0
    0.0299   -0.4727   -0.0195 C   0  0  0  0  0  0  0  0  0  0  0  0
   -1.2396    0.3717   -0.0105 C   0  0  0  0  0  0  0  0  0  0  0  0
    1.2812    0.3935    0.0007 C   0  0  0  0  0  0  0  0  0  0  0  0
   -2.4909   -0.4946    0.0126 C   0  0  0  0  0  0  0  0  0  0  0  0
    3.6295    0.3030    0.0057 C   0  0  0  0  0  0  0  0  0  0  0  0
    0.0491   -1.1209   -0.9045 H   0  0  0  0  0  0  0  0  0  0  0  0
    0.0430   -1.1469    0.8462 H   0  0  0  0  0  0  0  0  0  0  0  0
   -1.2466    1.0393    0.8601 H   0  0  0  0  0  0  0  0  0  0  0  0
   -1.2657    1.0267   -0.8903 H   0  0  0  0  0  0  0  0  0  0  0  0
    1.2887    1.0241    0.8976 H   0  0  0  0  0  0  0  0  0  0  0  0
    1.3050    1.0389   -0.8853 H   0  0  0  0  0  0  0  0  0  0  0  0
   -2.5324   -1.1443   -0.8674 H   0  0  0  0  0  0  0  0  0  0  0  0
   -2.5210   -1.1138    0.9148 H   0  0  0  0  0  0  0  0  0  0  0  0
    4.4713   -0.3945    0.0128 H   0  0  0  0  0  0  0  0  0  0  0  0
    3.6893    0.9315    0.8996 H   0  0  0  0  0  0  0  0  0  0  0  0
    3.6955    0.9208   -0.8951 H   0  0  0  0  0  0  0  0  0  0  0  0
   -4.4156   -0.2291    0.0200 H   0  0  0  0  0  0  0  0  0  0  0  0
  1  5  1  0  0  0  0
  1  7  1  0  0  0  0
  2  6  1  0  0  0  0
  2 19  1  0  0  0  0
  3  4  1  0  0  0  0
  3  5  1  0  0  0  0
  3  8  1  0  0  0  0
  3  9  1  0  0  0  0
  4  6  1  0  0  0  0
  4 10  1  0  0  0  0
  4 11  1  0  0  0  0
  5 12  1  0  0  0  0
  5 13  1  0  0  0  0
  6 14  1  0  0  0  0
  6 15  1  0  0  0  0
  7 16  1  0  0  0  0
  7 17  1  0  0  0  0
  7 18  1  0  0  0  0
M  END
> <PUBCHEM_COMPOUND_CID>
8107

> <PUBCHEM_CONFORMER_RMSD>
0.6

> <PUBCHEM_CONFORMER_DIVERSEORDER>
1
28
25
23
11
20
2
22
12
33
34
13
27
29
10
14
24
32
17
15
7
9
16
21
26
5
4
18
6
19
30
8
31
3

> <PUBCHEM_MMFF94_PARTIAL_CHARGES>
6
1 -0.56
19 0.4
2 -0.68
5 0.28
6 0.28
7 0.28

> <PUBCHEM_EFFECTIVE_ROTOR_COUNT>
4

> <PUBCHEM_PHARMACOPHORE_FEATURES>
3
1 1 acceptor
1 2 acceptor
1 2 donor

> <PUBCHEM_HEAVY_ATOM_COUNT>
7

> <PUBCHEM_ATOM_DEF_STEREO_COUNT>
0

> <PUBCHEM_ATOM_UDEF_STEREO_COUNT>
0

> <PUBCHEM_BOND_DEF_STEREO_COUNT>
0

> <PUBCHEM_BOND_UDEF_STEREO_COUNT>
0

> <PUBCHEM_ISOTOPIC_ATOM_COUNT>
0

> <PUBCHEM_COMPONENT_COUNT>
1

> <PUBCHEM_CACTVS_TAUTO_COUNT>
1

> <PUBCHEM_CONFORMER_ID>
00001FAB00000001

> <PUBCHEM_MMFF94_ENERGY>
6.4482

> <PUBCHEM_FEATURE_SELFOVERLAP>
15.223

> <PUBCHEM_SHAPE_FINGERPRINT>
11062470 55 18410855460128220265
14325111 11 18410575080384046310
14390081 3 18335141998612940817
5460574 1 9223232948823785702

> <PUBCHEM_SHAPE_MULTIPOLES>
132.32
6.22
0.76
0.59
0.49
0.01
0
-0.51
-0.04
-0.04
0
0.02
0
0

> <PUBCHEM_SHAPE_SELFOVERLAP>
227.542

> <PUBCHEM_SHAPE_VOLUME>
89.2

> <PUBCHEM_COORDINATE_TYPE>
2
5
10

$$$$

