13604
  -OEChem-06241222392D

 20 20  0     1  0  0  0  0  0999 V2000
    3.7601   -0.4594    0.0000 N   0  0  0  0  0  0  0  0  0  0  0  0
    4.2601    1.0794    0.0000 N   0  0  0  0  0  0  0  0  0  0  0  0
    2.9511    0.1284    0.0000 C   0  0  3  0  0  0  0  0  0  0  0  0
    3.2601    1.0794    0.0000 C   0  0  0  0  0  0  0  0  0  0  0  0
    4.5691    0.1284    0.0000 C   0  0  0  0  0  0  0  0  0  0  0  0
    2.0000   -0.1807    0.0000 C   0  0  0  0  0  0  0  0  0  0  0  0
    5.5202   -0.1807    0.0000 C   0  0  0  0  0  0  0  0  0  0  0  0
    6.2633    0.4885    0.0000 C   0  0  0  0  0  0  0  0  0  0  0  0
    2.8181   -0.7112    0.0000 H   0  0  0  0  0  0  0  0  0  0  0  0
    3.3249    1.6960    0.0000 H   0  0  0  0  0  0  0  0  0  0  0  0
    2.6536    1.2083    0.0000 H   0  0  0  0  0  0  0  0  0  0  0  0
    3.7601   -1.0794    0.0000 H   0  0  0  0  0  0  0  0  0  0  0  0
    1.8084    0.4090    0.0000 H   0  0  0  0  0  0  0  0  0  0  0  0
    1.4103   -0.3722    0.0000 H   0  0  0  0  0  0  0  0  0  0  0  0
    2.1916   -0.7703    0.0000 H   0  0  0  0  0  0  0  0  0  0  0  0
    5.2291   -0.7281    0.0000 H   0  0  0  0  0  0  0  0  0  0  0  0
    6.0087   -0.5624    0.0000 H   0  0  0  0  0  0  0  0  0  0  0  0
    6.6782    0.0277    0.0000 H   0  0  0  0  0  0  0  0  0  0  0  0
    6.7240    0.9033    0.0000 H   0  0  0  0  0  0  0  0  0  0  0  0
    5.8484    0.9492    0.0000 H   0  0  0  0  0  0  0  0  0  0  0  0
  1  3  1  0  0  0  0
  1  5  1  0  0  0  0
  1 12  1  0  0  0  0
  2  4  1  0  0  0  0
  2  5  2  0  0  0  0
  3  4  1  0  0  0  0
  3  6  1  0  0  0  0
  3  9  1  0  0  0  0
  4 10  1  0  0  0  0
  4 11  1  0  0  0  0
  5  7  1  0  0  0  0
  6 13  1  0  0  0  0
  6 14  1  0  0  0  0
  6 15  1  0  0  0  0
  7  8  1  0  0  0  0
  7 16  1  0  0  0  0
  7 17  1  0  0  0  0
  8 18  1  0  0  0  0
  8 19  1  0  0  0  0
  8 20  1  0  0  0  0
M  END
> <PUBCHEM_COMPOUND_CID>
13604

> <PUBCHEM_COMPOUND_CANONICALIZED>
1

> <PUBCHEM_CACTVS_COMPLEXITY>
107

> <PUBCHEM_CACTVS_HBOND_ACCEPTOR>
1

> <PUBCHEM_CACTVS_HBOND_DONOR>
1

> <PUBCHEM_CACTVS_ROTATABLE_BOND>
1

> <PUBCHEM_CACTVS_SUBSKEYS>
AAADccBjAAAAAAAAAAAAAAAAAAAAAQAAAAAAAAAAAAAAAAAAAAAAHAAQAAAACCjBAAQDAALAAAAgAAIgJAAAAAEAAAABAIA4AAAAQAAACAAUAAAAEACAAAAAAAAAAAAAAAAAAAAAAAAAAAAAAAAAAAAAAA==

> <PUBCHEM_IUPAC_OPENEYE_NAME>
2-ethyl-5-methyl-4,5-dihydro-1H-imidazole

> <PUBCHEM_IUPAC_CAS_NAME>
2-ethyl-5-methyl-4,5-dihydro-1H-imidazole

> <PUBCHEM_IUPAC_NAME>
2-ethyl-5-methyl-4,5-dihydro-1H-imidazole

> <PUBCHEM_IUPAC_SYSTEMATIC_NAME>
2-ethyl-5-methyl-4,5-dihydro-1H-imidazole

> <PUBCHEM_IUPAC_TRADITIONAL_NAME>
2-ethyl-4-methyl-2-imidazoline

> <PUBCHEM_IUPAC_INCHI>
InChI=1S/C6H12N2/c1-3-6-7-4-5(2)8-6/h5H,3-4H2,1-2H3,(H,7,8)

> <PUBCHEM_IUPAC_INCHIKEY>
SHYARJUKNREDGB-UHFFFAOYSA-N

> <PUBCHEM_XLOGP3_AA>
0.1

> <PUBCHEM_EXACT_MASS>
112.100048

> <PUBCHEM_MOLECULAR_FORMULA>
C6H12N2

> <PUBCHEM_MOLECULAR_WEIGHT>
112.17288

> <PUBCHEM_OPENEYE_CAN_SMILES>
CCC1=NCC(N1)C

> <PUBCHEM_OPENEYE_ISO_SMILES>
CCC1=NCC(N1)C

> <PUBCHEM_CACTVS_TPSA>
24.4

> <PUBCHEM_MONOISOTOPIC_WEIGHT>
112.100048

> <PUBCHEM_TOTAL_CHARGE>
0

> <PUBCHEM_HEAVY_ATOM_COUNT>
8

> <PUBCHEM_ATOM_DEF_STEREO_COUNT>
0

> <PUBCHEM_ATOM_UDEF_STEREO_COUNT>
1

> <PUBCHEM_BOND_DEF_STEREO_COUNT>
0

> <PUBCHEM_BOND_UDEF_STEREO_COUNT>
0

> <PUBCHEM_ISOTOPIC_ATOM_COUNT>
0

> <PUBCHEM_COMPONENT_COUNT>
1

> <PUBCHEM_CACTVS_TAUTO_COUNT>
2

> <PUBCHEM_COORDINATE_TYPE>
1
5
255

> <PUBCHEM_BONDANNOTATIONS>
3  9  3

$$$$

