17396622
  -OEChem-06241222573D

 45 47  0     1  0  0  0  0  0999 V2000
   -0.6862    1.3115   -0.4233 O   0  0  0  0  0  0  0  0  0  0  0  0
    7.0309   -1.5965   -0.0785 O   0  0  0  0  0  0  0  0  0  0  0  0
   -5.5341   -2.2877   -0.1085 O   0  0  0  0  0  0  0  0  0  0  0  0
   -2.3833   -0.6149   -1.1646 O   0  0  0  0  0  0  0  0  0  0  0  0
   -0.3296    2.8466    1.2547 O   0  0  0  0  0  0  0  0  0  0  0  0
   -4.2482    0.7525   -0.9688 N   0  0  0  0  0  0  0  0  0  0  0  0
    3.0792   -0.2718    0.0374 C   0  0  0  0  0  0  0  0  0  0  0  0
    4.1318    0.6130    0.3722 C   0  0  0  0  0  0  0  0  0  0  0  0
   -2.0681    1.6810   -0.4808 C   0  0  2  0  0  0  0  0  0  0  0  0
    1.4702    1.5054    0.4505 C   0  0  0  0  0  0  0  0  0  0  0  0
    1.7537    0.1901    0.0815 C   0  0  0  0  0  0  0  0  0  0  0  0
    3.8281    1.9336    0.7411 C   0  0  0  0  0  0  0  0  0  0  0  0
    2.5053    2.3755    0.7797 C   0  0  0  0  0  0  0  0  0  0  0  0
    5.4574    0.1511    0.3280 C   0  0  0  0  0  0  0  0  0  0  0  0
    3.3830   -1.5923   -0.3318 C   0  0  0  0  0  0  0  0  0  0  0  0
   -2.8922    0.4725   -0.9014 C   0  0  0  0  0  0  0  0  0  0  0  0
    0.0918    1.9680    0.4909 C   0  0  0  0  0  0  0  0  0  0  0  0
   -5.2251   -0.2339   -1.3662 C   0  0  0  0  0  0  0  0  0  0  0  0
    5.7409   -1.1642   -0.0409 C   0  0  0  0  0  0  0  0  0  0  0  0
   -2.2149    2.8193   -1.4780 C   0  0  0  0  0  0  0  0  0  0  0  0
    4.7058   -2.0343   -0.3700 C   0  0  0  0  0  0  0  0  0  0  0  0
   -5.7415   -0.9456   -0.1530 C   0  0  0  0  0  0  0  0  0  0  0  0
   -6.4077   -0.5221    0.9734 C   0  0  0  0  0  0  0  0  0  0  0  0
   -6.6237   -1.6783    1.7606 C   0  0  0  0  0  0  0  0  0  0  0  0
   -6.0738   -2.7260    1.0592 C   0  0  0  0  0  0  0  0  0  0  0  0
    7.2503   -2.9527   -0.4636 C   0  0  0  0  0  0  0  0  0  0  0  0
   -2.4305    1.9865    0.5089 H   0  0  0  0  0  0  0  0  0  0  0  0
    0.9482   -0.4998   -0.1648 H   0  0  0  0  0  0  0  0  0  0  0  0
    4.6214    2.6311    1.0017 H   0  0  0  0  0  0  0  0  0  0  0  0
    2.3015    3.4041    1.0662 H   0  0  0  0  0  0  0  0  0  0  0  0
    6.2786    0.8189    0.5825 H   0  0  0  0  0  0  0  0  0  0  0  0
    2.5891   -2.2892   -0.5931 H   0  0  0  0  0  0  0  0  0  0  0  0
   -6.0435    0.2906   -1.8689 H   0  0  0  0  0  0  0  0  0  0  0  0
   -4.7748   -0.9388   -2.0728 H   0  0  0  0  0  0  0  0  0  0  0  0
   -3.2397    3.1984   -1.5291 H   0  0  0  0  0  0  0  0  0  0  0  0
   -1.5580    3.6558   -1.2164 H   0  0  0  0  0  0  0  0  0  0  0  0
   -1.9249    2.4936   -2.4838 H   0  0  0  0  0  0  0  0  0  0  0  0
   -4.5879    1.6675   -0.6880 H   0  0  0  0  0  0  0  0  0  0  0  0
    4.8550   -3.0674   -0.6648 H   0  0  0  0  0  0  0  0  0  0  0  0
   -6.7023    0.4924    1.2010 H   0  0  0  0  0  0  0  0  0  0  0  0
   -7.1180   -1.7402    2.7192 H   0  0  0  0  0  0  0  0  0  0  0  0
   -5.9886   -3.7868    1.2441 H   0  0  0  0  0  0  0  0  0  0  0  0
    8.3314   -3.1247   -0.4389 H   0  0  0  0  0  0  0  0  0  0  0  0
    6.9208   -3.1375   -1.4917 H   0  0  0  0  0  0  0  0  0  0  0  0
    6.7993   -3.6515    0.2490 H   0  0  0  0  0  0  0  0  0  0  0  0
  1  9  1  0  0  0  0
  1 17  1  0  0  0  0
  2 19  1  0  0  0  0
  2 26  1  0  0  0  0
  3 22  1  0  0  0  0
  3 25  1  0  0  0  0
  4 16  2  0  0  0  0
  5 17  2  0  0  0  0
  6 16  1  0  0  0  0
  6 18  1  0  0  0  0
  6 38  1  0  0  0  0
  7  8  2  0  0  0  0
  7 11  1  0  0  0  0
  7 15  1  0  0  0  0
  8 12  1  0  0  0  0
  8 14  1  0  0  0  0
  9 16  1  0  0  0  0
  9 20  1  0  0  0  0
  9 27  1  0  0  0  0
 10 11  2  0  0  0  0
 10 13  1  0  0  0  0
 10 17  1  0  0  0  0
 11 28  1  0  0  0  0
 12 13  2  0  0  0  0
 12 29  1  0  0  0  0
 13 30  1  0  0  0  0
 14 19  2  0  0  0  0
 14 31  1  0  0  0  0
 15 21  2  0  0  0  0
 15 32  1  0  0  0  0
 18 22  1  0  0  0  0
 18 33  1  0  0  0  0
 18 34  1  0  0  0  0
 19 21  1  0  0  0  0
 20 35  1  0  0  0  0
 20 36  1  0  0  0  0
 20 37  1  0  0  0  0
 21 39  1  0  0  0  0
 22 23  2  0  0  0  0
 23 24  1  0  0  0  0
 23 40  1  0  0  0  0
 24 25  2  0  0  0  0
 24 41  1  0  0  0  0
 25 42  1  0  0  0  0
 26 43  1  0  0  0  0
 26 44  1  0  0  0  0
 26 45  1  0  0  0  0
M  END
> <PUBCHEM_COMPOUND_CID>
17396622

> <PUBCHEM_CONFORMER_RMSD>
1.2

> <PUBCHEM_CONFORMER_DIVERSEORDER>
1
72
84
46
25
54
63
38
60
81
86
58
11
64
24
78
45
85
4
42
5
88
87
27
19
44
69
22
35
2
14
89
49
66
75
41
47
53
70
28
50
52
6
17
57
26
73
62
92
15
3
55
65
23
29
77
7
12
32
30
80
33
91
10
90
51
68
43
39
82
34
16
67
76
9
37
20
21
83
71
61
59
79
36
31
74
40
56
8
48
13
18

> <PUBCHEM_MMFF94_PARTIAL_CHARGES>
33
1 -0.43
10 0.09
11 -0.15
12 -0.15
13 -0.15
14 -0.15
15 -0.15
16 0.57
17 0.63
18 0.48
19 0.08
2 -0.36
21 -0.15
22 -0.04
23 -0.15
24 -0.15
25 -0.01
26 0.28
28 0.15
29 0.15
3 -0.28
30 0.15
31 0.15
32 0.15
38 0.37
39 0.15
4 -0.57
40 0.15
41 0.15
42 0.15
5 -0.57
6 -0.73
9 0.34

> <PUBCHEM_EFFECTIVE_ROTOR_COUNT>
8

> <PUBCHEM_PHARMACOPHORE_FEATURES>
8
1 2 acceptor
1 3 acceptor
1 4 acceptor
1 5 acceptor
1 6 donor
5 3 22 23 24 25 rings
6 7 8 10 11 12 13 rings
6 7 8 14 15 19 21 rings

> <PUBCHEM_HEAVY_ATOM_COUNT>
26

> <PUBCHEM_ATOM_DEF_STEREO_COUNT>
0

> <PUBCHEM_ATOM_UDEF_STEREO_COUNT>
1

> <PUBCHEM_BOND_DEF_STEREO_COUNT>
0

> <PUBCHEM_BOND_UDEF_STEREO_COUNT>
0

> <PUBCHEM_ISOTOPIC_ATOM_COUNT>
0

> <PUBCHEM_COMPONENT_COUNT>
1

> <PUBCHEM_CACTVS_TAUTO_COUNT>
2

> <PUBCHEM_CONFORMER_ID>
0109738E00000001

> <PUBCHEM_MMFF94_ENERGY>
64.2444

> <PUBCHEM_FEATURE_SELFOVERLAP>
40.621

> <PUBCHEM_SHAPE_FINGERPRINT>
10883706 17 17846780750217013578
11135609 12 18410859824337291296
117089 54 18200585879300109139
11809386 21 18128265668884798232
12166972 35 18060415816068657732
12633257 1 17023185968803579189
12760667 363 18333455352587741101
13103583 49 16660366939926408893
13402501 40 18413388713818878387
13673619 4 18411418414598512437
13685833 64 18408886239340466386
13690498 29 18343024436195874828
13782708 43 18272940426880165578
13955234 65 18043540412832665488
14123256 34 18411979169607237554
14251764 30 18342457015561052601
14420673 8 18413105053294326403
14647877 103 6483346755468457530
14767858 380 13470692529605543621
14950920 106 17313947395242498491
15238133 3 5545191770640994008
15352257 5 18342454812111344355
15475509 84 17313095358987448689
16993427 108 16737497526819954815
18335252 98 18200591385088888408
18608769 82 18272088279541345698
19246450 95 17168698765107337201
20621476 21 18059852814871255147
21033650 10 16988287606792300813
21049683 271 18410571770088738372
21095086 4 18271517616254084971
21095123 293 6771278060933288498
21196832 93 18131060503284601378
21267235 1 18187364376909078774
21298829 104 10663823000579218087
21344244 246 18272079475976818924
21585482 111 9006470825128078482
21623969 137 18335700512028786023
21682296 61 18410856526166580047
22149856 69 18259979401535371096
22288116 15 14836111153133526955
2260408 40 16298378098115208118
2303208 19 18272374144338103573
23424784 1240 18187921850247039214
23522609 53 17824241736377984601
23559900 14 18115890623319361224
23729398 52 18262798464083489912
25269216 80 15985099709581193323
2748736 6 9727638293122581871
2838139 119 9367077648781694081
3004659 81 18340778125745986812
3089732 80 18342458123604956563
314194 84 18115036207909722189
3862424 121 17416382300517028451
393628 194 9655574141171473711
404807 78 17060043805784566034
4073 2 18341617040038119905
4107672 100 17489311940661972565
437815 12 18411979131638087715
439807 62 18342175604507853950
4461854 278 17530966895736557062
46194498 28 18060145310634275652
465052 167 18259703402594242940
484989 97 18342451539615459130
5104073 3 17968101957951483960
54039377 194 18334291003137428262
54583773 228 18342170065418944350
5470011 282 17988920089900591814
636775 8 18335692906565235262
6608658 132 14189301482221796295
7918774 8 18201996587145998097
8863177 126 18340206297820968451
999808 66 18411416224249606975

> <PUBCHEM_SHAPE_MULTIPOLES>
500.74
20.18
3.41
1.23
5.41
0.01
-0.03
-20.69
-2.19
-0.8
-0.31
1.9
0.18
3.18

> <PUBCHEM_SHAPE_SELFOVERLAP>
1082.313

> <PUBCHEM_SHAPE_VOLUME>
276.1

> <PUBCHEM_COORDINATE_TYPE>
2
5
10

$$$$

