7102
  -OEChem-06261201462D

 24 25  0     0  0  0  0  0  0999 V2000
    2.8660   -2.8450    0.0000 N   0  0  0  0  0  0  0  0  0  0  0  0
    2.8660    0.1550    0.0000 C   0  0  0  0  0  0  0  0  0  0  0  0
    2.8660    1.1550    0.0000 C   0  0  0  0  0  0  0  0  0  0  0  0
    2.0000   -0.3450    0.0000 C   0  0  0  0  0  0  0  0  0  0  0  0
    3.7320   -0.3450    0.0000 C   0  0  0  0  0  0  0  0  0  0  0  0
    3.7320    1.6550    0.0000 C   0  0  0  0  0  0  0  0  0  0  0  0
    2.0000    1.6550    0.0000 C   0  0  0  0  0  0  0  0  0  0  0  0
    2.8660   -1.8450    0.0000 C   0  0  0  0  0  0  0  0  0  0  0  0
    2.0000   -1.3450    0.0000 C   0  0  0  0  0  0  0  0  0  0  0  0
    3.7320   -1.3450    0.0000 C   0  0  0  0  0  0  0  0  0  0  0  0
    3.7320    2.6550    0.0000 C   0  0  0  0  0  0  0  0  0  0  0  0
    2.0000    2.6550    0.0000 C   0  0  0  0  0  0  0  0  0  0  0  0
    2.8660    3.1550    0.0000 C   0  0  0  0  0  0  0  0  0  0  0  0
    1.4631   -0.0350    0.0000 H   0  0  0  0  0  0  0  0  0  0  0  0
    4.2690   -0.0350    0.0000 H   0  0  0  0  0  0  0  0  0  0  0  0
    4.2690    1.3450    0.0000 H   0  0  0  0  0  0  0  0  0  0  0  0
    1.4631    1.3450    0.0000 H   0  0  0  0  0  0  0  0  0  0  0  0
    1.4631   -1.6550    0.0000 H   0  0  0  0  0  0  0  0  0  0  0  0
    4.2690   -1.6550    0.0000 H   0  0  0  0  0  0  0  0  0  0  0  0
    4.2690    2.9650    0.0000 H   0  0  0  0  0  0  0  0  0  0  0  0
    1.4631    2.9650    0.0000 H   0  0  0  0  0  0  0  0  0  0  0  0
    2.8660    3.7750    0.0000 H   0  0  0  0  0  0  0  0  0  0  0  0
    2.3291   -3.1550    0.0000 H   0  0  0  0  0  0  0  0  0  0  0  0
    3.4030   -3.1550    0.0000 H   0  0  0  0  0  0  0  0  0  0  0  0
  1  8  1  0  0  0  0
  1 23  1  0  0  0  0
  1 24  1  0  0  0  0
  2  3  1  0  0  0  0
  2  4  2  0  0  0  0
  2  5  1  0  0  0  0
  3  6  2  0  0  0  0
  3  7  1  0  0  0  0
  4  9  1  0  0  0  0
  4 14  1  0  0  0  0
  5 10  2  0  0  0  0
  5 15  1  0  0  0  0
  6 11  1  0  0  0  0
  6 16  1  0  0  0  0
  7 12  2  0  0  0  0
  7 17  1  0  0  0  0
  8  9  2  0  0  0  0
  8 10  1  0  0  0  0
  9 18  1  0  0  0  0
 10 19  1  0  0  0  0
 11 13  2  0  0  0  0
 11 20  1  0  0  0  0
 12 13  1  0  0  0  0
 12 21  1  0  0  0  0
 13 22  1  0  0  0  0
M  END
> <PUBCHEM_COMPOUND_CID>
7102

> <PUBCHEM_COMPOUND_CANONICALIZED>
1

> <PUBCHEM_CACTVS_COMPLEXITY>
141

> <PUBCHEM_CACTVS_HBOND_ACCEPTOR>
1

> <PUBCHEM_CACTVS_HBOND_DONOR>
1

> <PUBCHEM_CACTVS_ROTATABLE_BOND>
1

> <PUBCHEM_CACTVS_SUBSKEYS>
AAADccByAAAAAAAAAAAAAAAAAAAAAAAAAAAwYAAAAAAAAAABQAAAHAAQAAAADAiBGAAwwIBAAACAAiRCQACCAAAgAgAIiAAAZIgIICKAkZGAIABgkAAIyAcQgMAOiAAAAAAAAAAQAAAAAAAAAAAAAAAAAA==

> <PUBCHEM_IUPAC_OPENEYE_NAME>
4-phenylaniline

> <PUBCHEM_IUPAC_CAS_NAME>
4-phenylaniline

> <PUBCHEM_IUPAC_NAME>
4-phenylaniline

> <PUBCHEM_IUPAC_SYSTEMATIC_NAME>
4-phenylaniline

> <PUBCHEM_IUPAC_TRADITIONAL_NAME>
(4-phenylphenyl)amine

> <PUBCHEM_IUPAC_INCHI>
InChI=1S/C12H11N/c13-12-8-6-11(7-9-12)10-4-2-1-3-5-10/h1-9H,13H2

> <PUBCHEM_IUPAC_INCHIKEY>
DMVOXQPQNTYEKQ-UHFFFAOYSA-N

> <PUBCHEM_XLOGP3>
2.9

> <PUBCHEM_EXACT_MASS>
169.089149

> <PUBCHEM_MOLECULAR_FORMULA>
C12H11N

> <PUBCHEM_MOLECULAR_WEIGHT>
169.22244

> <PUBCHEM_OPENEYE_CAN_SMILES>
C1=CC=C(C=C1)C2=CC=C(C=C2)N

> <PUBCHEM_OPENEYE_ISO_SMILES>
C1=CC=C(C=C1)C2=CC=C(C=C2)N

> <PUBCHEM_CACTVS_TPSA>
26

> <PUBCHEM_MONOISOTOPIC_WEIGHT>
169.089149

> <PUBCHEM_TOTAL_CHARGE>
0

> <PUBCHEM_HEAVY_ATOM_COUNT>
13

> <PUBCHEM_ATOM_DEF_STEREO_COUNT>
0

> <PUBCHEM_ATOM_UDEF_STEREO_COUNT>
0

> <PUBCHEM_BOND_DEF_STEREO_COUNT>
0

> <PUBCHEM_BOND_UDEF_STEREO_COUNT>
0

> <PUBCHEM_ISOTOPIC_ATOM_COUNT>
0

> <PUBCHEM_COMPONENT_COUNT>
1

> <PUBCHEM_CACTVS_TAUTO_COUNT>
1

> <PUBCHEM_COORDINATE_TYPE>
1
5
255

> <PUBCHEM_BONDANNOTATIONS>
11  13  8
12  13  8
2  4  8
2  5  8
3  6  8
3  7  8
4  9  8
5  10  8
6  11  8
7  12  8
8  10  8
8  9  8

$$$$

