17395468
  -OEChem-06241222502D

 35 36  0     0  0  0  0  0  0999 V2000
    4.9641    5.0194    0.0000 S   0  0  0  0  0  0  0  0  0  0  0  0
    2.8660   -5.0194    0.0000 F   0  0  0  0  0  0  0  0  0  0  0  0
    2.0000   -3.5194    0.0000 F   0  0  0  0  0  0  0  0  0  0  0  0
    7.2242    3.7594    0.0000 O   0  0  0  0  0  0  0  0  0  0  0  0
    3.7320    2.4806    0.0000 O   0  0  0  0  0  0  0  0  0  0  0  0
    3.7320   -3.5194    0.0000 O   0  0  0  0  0  0  0  0  0  0  0  0
    5.4641    3.4806    0.0000 N   0  0  0  0  0  0  0  0  0  0  0  0
    4.5981    0.9806    0.0000 N   0  0  0  0  0  0  0  0  0  0  0  0
    5.4641    2.4806    0.0000 C   0  0  0  0  0  0  0  0  0  0  0  0
    4.6551    4.0684    0.0000 C   0  0  0  0  0  0  0  0  0  0  0  0
    6.2731    4.0684    0.0000 C   0  0  0  0  0  0  0  0  0  0  0  0
    5.9641    5.0194    0.0000 C   0  0  0  0  0  0  0  0  0  0  0  0
    4.5981    1.9806    0.0000 C   0  0  0  0  0  0  0  0  0  0  0  0
    3.7320    0.4806    0.0000 C   0  0  0  0  0  0  0  0  0  0  0  0
    3.7320   -0.5194    0.0000 C   0  0  0  0  0  0  0  0  0  0  0  0
    2.8660   -1.0194    0.0000 C   0  0  0  0  0  0  0  0  0  0  0  0
    4.5981   -1.0194    0.0000 C   0  0  0  0  0  0  0  0  0  0  0  0
    2.8660   -2.0194    0.0000 C   0  0  0  0  0  0  0  0  0  0  0  0
    4.5981   -2.0194    0.0000 C   0  0  0  0  0  0  0  0  0  0  0  0
    3.7320   -2.5194    0.0000 C   0  0  0  0  0  0  0  0  0  0  0  0
    2.8660   -4.0194    0.0000 C   0  0  0  0  0  0  0  0  0  0  0  0
    5.6762    1.8980    0.0000 H   0  0  0  0  0  0  0  0  0  0  0  0
    6.0747    2.5882    0.0000 H   0  0  0  0  0  0  0  0  0  0  0  0
    4.0887    4.3205    0.0000 H   0  0  0  0  0  0  0  0  0  0  0  0
    4.3451    3.5314    0.0000 H   0  0  0  0  0  0  0  0  0  0  0  0
    6.5706    5.1483    0.0000 H   0  0  0  0  0  0  0  0  0  0  0  0
    5.8993    5.6360    0.0000 H   0  0  0  0  0  0  0  0  0  0  0  0
    3.5200    1.0632    0.0000 H   0  0  0  0  0  0  0  0  0  0  0  0
    3.1215    0.3729    0.0000 H   0  0  0  0  0  0  0  0  0  0  0  0
    5.1350    0.6706    0.0000 H   0  0  0  0  0  0  0  0  0  0  0  0
    2.3291   -0.7094    0.0000 H   0  0  0  0  0  0  0  0  0  0  0  0
    5.1350   -0.7094    0.0000 H   0  0  0  0  0  0  0  0  0  0  0  0
    2.3291   -2.3294    0.0000 H   0  0  0  0  0  0  0  0  0  0  0  0
    5.1350   -2.3294    0.0000 H   0  0  0  0  0  0  0  0  0  0  0  0
    3.4030   -4.3294    0.0000 H   0  0  0  0  0  0  0  0  0  0  0  0
  1 10  1  0  0  0  0
  1 12  1  0  0  0  0
  2 21  1  0  0  0  0
  3 21  1  0  0  0  0
  4 11  2  0  0  0  0
  5 13  2  0  0  0  0
  6 20  1  0  0  0  0
  6 21  1  0  0  0  0
  7  9  1  0  0  0  0
  7 10  1  0  0  0  0
  7 11  1  0  0  0  0
  8 13  1  0  0  0  0
  8 14  1  0  0  0  0
  8 30  1  0  0  0  0
  9 13  1  0  0  0  0
  9 22  1  0  0  0  0
  9 23  1  0  0  0  0
 10 24  1  0  0  0  0
 10 25  1  0  0  0  0
 11 12  1  0  0  0  0
 12 26  1  0  0  0  0
 12 27  1  0  0  0  0
 14 15  1  0  0  0  0
 14 28  1  0  0  0  0
 14 29  1  0  0  0  0
 15 16  2  0  0  0  0
 15 17  1  0  0  0  0
 16 18  1  0  0  0  0
 16 31  1  0  0  0  0
 17 19  2  0  0  0  0
 17 32  1  0  0  0  0
 18 20  2  0  0  0  0
 18 33  1  0  0  0  0
 19 20  1  0  0  0  0
 19 34  1  0  0  0  0
 21 35  1  0  0  0  0
M  END
> <PUBCHEM_COMPOUND_CID>
17395468

> <PUBCHEM_COMPOUND_CANONICALIZED>
1

> <PUBCHEM_CACTVS_COMPLEXITY>
376

> <PUBCHEM_CACTVS_HBOND_ACCEPTOR>
6

> <PUBCHEM_CACTVS_HBOND_DONOR>
1

> <PUBCHEM_CACTVS_ROTATABLE_BOND>
6

> <PUBCHEM_CACTVS_SUBSKEYS>
AAADccBzMYBAAAAAAAAAAAAAAAAAAWAAAAAwAAAAAAAAAAABAAAAHwQQAAAADATF2BawBoPABAiIAiFSEACCCABgIBAIiICODIgMZiKEsTuUMChk1hGIqAeQ0AIOIAAAAAAAAABAAAAAAAAAAAAAAAAAAA==

> <PUBCHEM_IUPAC_OPENEYE_NAME>
N-[[4-(difluoromethoxy)phenyl]methyl]-2-(4-oxothiazolidin-3-yl)acetamide

> <PUBCHEM_IUPAC_CAS_NAME>
N-[[4-(difluoromethoxy)phenyl]methyl]-2-(4-oxo-3-thiazolidinyl)acetamide

> <PUBCHEM_IUPAC_NAME>
N-[[4-(difluoromethoxy)phenyl]methyl]-2-(4-oxo-1,3-thiazolidin-3-yl)acetamide

> <PUBCHEM_IUPAC_SYSTEMATIC_NAME>
N-[[4-[bis(fluoranyl)methoxy]phenyl]methyl]-2-(4-oxidanylidene-1,3-thiazolidin-3-yl)ethanamide

> <PUBCHEM_IUPAC_TRADITIONAL_NAME>
N-[4-(difluoromethoxy)benzyl]-2-(4-ketothiazolidin-3-yl)acetamide

> <PUBCHEM_IUPAC_INCHI>
InChI=1S/C13H14F2N2O3S/c14-13(15)20-10-3-1-9(2-4-10)5-16-11(18)6-17-8-21-7-12(17)19/h1-4,13H,5-8H2,(H,16,18)

> <PUBCHEM_IUPAC_INCHIKEY>
HPGFZKYPVNMQIG-UHFFFAOYSA-N

> <PUBCHEM_XLOGP3_AA>
2

> <PUBCHEM_EXACT_MASS>
316.06932

> <PUBCHEM_MOLECULAR_FORMULA>
C13H14F2N2O3S

> <PUBCHEM_MOLECULAR_WEIGHT>
316.323666

> <PUBCHEM_OPENEYE_CAN_SMILES>
C1C(=O)N(CS1)CC(=O)NCC2=CC=C(C=C2)OC(F)F

> <PUBCHEM_OPENEYE_ISO_SMILES>
C1C(=O)N(CS1)CC(=O)NCC2=CC=C(C=C2)OC(F)F

> <PUBCHEM_CACTVS_TPSA>
83.9

> <PUBCHEM_MONOISOTOPIC_WEIGHT>
316.06932

> <PUBCHEM_TOTAL_CHARGE>
0

> <PUBCHEM_HEAVY_ATOM_COUNT>
21

> <PUBCHEM_ATOM_DEF_STEREO_COUNT>
0

> <PUBCHEM_ATOM_UDEF_STEREO_COUNT>
0

> <PUBCHEM_BOND_DEF_STEREO_COUNT>
0

> <PUBCHEM_BOND_UDEF_STEREO_COUNT>
0

> <PUBCHEM_ISOTOPIC_ATOM_COUNT>
0

> <PUBCHEM_COMPONENT_COUNT>
1

> <PUBCHEM_CACTVS_TAUTO_COUNT>
4

> <PUBCHEM_COORDINATE_TYPE>
1
5
255

> <PUBCHEM_BONDANNOTATIONS>
15  16  8
15  17  8
16  18  8
17  19  8
18  20  8
19  20  8

$$$$

