5109
  -OEChem-06261200313D

 46 50  0     1  0  0  0  0  0999 V2000
   -3.2357   -0.7995    1.3319 S   0  0  0  0  0  0  0  0  0  0  0  0
   -1.2630    1.3399    1.5656 S   0  0  0  0  0  0  0  0  0  0  0  0
   -1.4341   -1.1393   -1.6839 O   0  0  0  0  0  0  0  0  0  0  0  0
   -3.4266   -0.5239    2.7426 O   0  0  0  0  0  0  0  0  0  0  0  0
   -4.3592   -1.0798    0.4595 O   0  0  0  0  0  0  0  0  0  0  0  0
    0.0240   -2.8870   -1.0861 N   0  0  0  0  0  0  0  0  0  0  0  0
   -2.0632   -2.0379    1.1521 N   0  0  0  0  0  0  0  0  0  0  0  0
    2.0085   -0.3061   -1.0390 N   0  0  0  0  0  0  0  0  0  0  0  0
    4.2317    1.8752    0.9415 N   0  0  0  0  0  0  0  0  0  0  0  0
   -2.0171    3.4556   -1.6110 N   0  0  0  0  0  0  0  0  0  0  0  0
   -2.0855   -2.8393   -0.0835 C   0  0  2  0  0  0  0  0  0  0  0  0
   -1.4502   -4.2081    0.1346 C   0  0  0  0  0  0  0  0  0  0  0  0
    0.0246   -3.9865   -0.1501 C   0  0  0  0  0  0  0  0  0  0  0  0
   -1.1663   -2.1615   -1.0690 C   0  0  0  0  0  0  0  0  0  0  0  0
    1.2147   -2.5211   -1.8218 C   0  0  0  0  0  0  0  0  0  0  0  0
    2.1346   -1.6535   -1.0046 C   0  0  0  0  0  0  0  0  0  0  0  0
    3.1481   -2.0044   -0.1742 C   0  0  0  0  0  0  0  0  0  0  0  0
   -2.5305    0.6980    0.6435 C   0  0  0  0  0  0  0  0  0  0  0  0
    3.6899   -0.7953    0.3445 C   0  0  0  0  0  0  0  0  0  0  0  0
    2.9566    0.2528   -0.2143 C   0  0  0  0  0  0  0  0  0  0  0  0
   -2.8224    1.4065   -0.4706 C   0  0  0  0  0  0  0  0  0  0  0  0
   -1.9724    2.5464   -0.5981 C   0  0  0  0  0  0  0  0  0  0  0  0
   -1.0613    2.6366    0.4553 C   0  0  0  0  0  0  0  0  0  0  0  0
    4.7302   -0.4885    1.2329 C   0  0  0  0  0  0  0  0  0  0  0  0
    3.2268    1.5821    0.0835 C   0  0  0  0  0  0  0  0  0  0  0  0
    4.9432    0.8605    1.4839 C   0  0  0  0  0  0  0  0  0  0  0  0
   -0.1425    3.6946    0.4997 C   0  0  0  0  0  0  0  0  0  0  0  0
   -0.1836    4.6251   -0.5307 C   0  0  0  0  0  0  0  0  0  0  0  0
   -1.1193    4.4584   -1.5343 C   0  0  0  0  0  0  0  0  0  0  0  0
   -3.0910   -2.9578   -0.4926 H   0  0  0  0  0  0  0  0  0  0  0  0
   -1.8540   -4.9138   -0.6026 H   0  0  0  0  0  0  0  0  0  0  0  0
   -1.6246   -4.6275    1.1302 H   0  0  0  0  0  0  0  0  0  0  0  0
    0.5680   -3.6813    0.7498 H   0  0  0  0  0  0  0  0  0  0  0  0
    0.4960   -4.8703   -0.5892 H   0  0  0  0  0  0  0  0  0  0  0  0
    0.9090   -1.9786   -2.7246 H   0  0  0  0  0  0  0  0  0  0  0  0
    1.7263   -3.4352   -2.1428 H   0  0  0  0  0  0  0  0  0  0  0  0
   -1.1332   -1.8756    1.5599 H   0  0  0  0  0  0  0  0  0  0  0  0
    3.4773   -3.0101    0.0489 H   0  0  0  0  0  0  0  0  0  0  0  0
    1.3285    0.2146   -1.5768 H   0  0  0  0  0  0  0  0  0  0  0  0
   -3.6006    1.1433   -1.1756 H   0  0  0  0  0  0  0  0  0  0  0  0
    5.3374   -1.2544    1.7012 H   0  0  0  0  0  0  0  0  0  0  0  0
    2.6768    2.4124   -0.3385 H   0  0  0  0  0  0  0  0  0  0  0  0
    5.7322    1.1713    2.1622 H   0  0  0  0  0  0  0  0  0  0  0  0
    0.5771    3.7881    1.3064 H   0  0  0  0  0  0  0  0  0  0  0  0
    0.5048    5.4630   -0.5463 H   0  0  0  0  0  0  0  0  0  0  0  0
   -1.1708    5.1727   -2.3513 H   0  0  0  0  0  0  0  0  0  0  0  0
  1  4  2  0  0  0  0
  1  5  2  0  0  0  0
  1  7  1  0  0  0  0
  1 18  1  0  0  0  0
  2 18  1  0  0  0  0
  2 23  1  0  0  0  0
  3 14  2  0  0  0  0
  6 13  1  0  0  0  0
  6 14  1  0  0  0  0
  6 15  1  0  0  0  0
  7 11  1  0  0  0  0
  7 37  1  0  0  0  0
  8 16  1  0  0  0  0
  8 20  1  0  0  0  0
  8 39  1  0  0  0  0
  9 25  2  0  0  0  0
  9 26  1  0  0  0  0
 10 22  1  0  0  0  0
 10 29  2  0  0  0  0
 11 12  1  0  0  0  0
 11 14  1  0  0  0  0
 11 30  1  0  0  0  0
 12 13  1  0  0  0  0
 12 31  1  0  0  0  0
 12 32  1  0  0  0  0
 13 33  1  0  0  0  0
 13 34  1  0  0  0  0
 15 16  1  0  0  0  0
 15 35  1  0  0  0  0
 15 36  1  0  0  0  0
 16 17  2  0  0  0  0
 17 19  1  0  0  0  0
 17 38  1  0  0  0  0
 18 21  2  0  0  0  0
 19 20  2  0  0  0  0
 19 24  1  0  0  0  0
 20 25  1  0  0  0  0
 21 22  1  0  0  0  0
 21 40  1  0  0  0  0
 22 23  2  0  0  0  0
 23 27  1  0  0  0  0
 24 26  2  0  0  0  0
 24 41  1  0  0  0  0
 25 42  1  0  0  0  0
 26 43  1  0  0  0  0
 27 28  2  0  0  0  0
 27 44  1  0  0  0  0
 28 29  1  0  0  0  0
 28 45  1  0  0  0  0
 29 46  1  0  0  0  0
M  END
> <PUBCHEM_COMPOUND_CID>
5109

> <PUBCHEM_CONFORMER_RMSD>
1

> <PUBCHEM_CONFORMER_DIVERSEORDER>
1
89
48
12
27
588
259
572
200
412
119
510
118
527
287
141
484
176
519
107
247
421
471
416
70
307
57
508
184
381
168
384
281
377
51
435
454
229
399
234
66
589
34
93
75
79
461
212
156
219
68
260
95
246
367
256
100
25
2
509
65
494
269
591
469
115
458
37
262
473
376
244
345
120
139
167
280
53
71
13
313
279
32
447
585
180
291
289
179
201
290
472
152
62
382
44
320
131
477
133
443
420
22
140
217
106
233
375
385
358
159
571
433
401
130
305
303
151
271
7
544
132
354
186
67
492
46
263
537
160
20
52
333
114
436
161
528
451
550
232
8
104
221
3
554
39
352
250
30
314
16
346
235
499
171
18
154
4
535
425
47
409
94
28
31
77
142
9
497
116
69
5
389
64
45
112
42
90
417
76
496
274
24
74
14
415
92
23
29
103
49
73
6
61
50
99
10
87
11
110
153
335
17
371

> <PUBCHEM_MMFF94_PARTIAL_CHARGES>
37
1 1.5
10 -0.57
11 0.42
13 0.3
14 0.57
15 0.48
16 -0.33
17 -0.15
18 -0.02
2 -0.08
20 -0.15
21 -0.15
22 0.26
23 0.04
24 -0.15
25 0.16
26 0.16
27 -0.15
28 -0.15
29 0.16
3 -0.57
37 0.42
38 0.15
39 0.27
4 -0.65
40 0.15
41 0.15
42 0.15
43 0.15
44 0.15
45 0.15
46 0.15
5 -0.65
6 -0.66
7 -0.91
8 0.03
9 -0.62

> <PUBCHEM_EFFECTIVE_ROTOR_COUNT>
5.8

> <PUBCHEM_PHARMACOPHORE_FEATURES>
13
1 10 acceptor
1 3 acceptor
1 4 acceptor
1 5 acceptor
1 7 donor
1 8 cation
1 8 donor
1 9 acceptor
5 2 18 21 22 23 rings
5 6 11 12 13 14 rings
5 8 16 17 19 20 rings
6 10 22 23 27 28 29 rings
6 9 19 20 24 25 26 rings

> <PUBCHEM_HEAVY_ATOM_COUNT>
29

> <PUBCHEM_ATOM_DEF_STEREO_COUNT>
0

> <PUBCHEM_ATOM_UDEF_STEREO_COUNT>
1

> <PUBCHEM_BOND_DEF_STEREO_COUNT>
0

> <PUBCHEM_BOND_UDEF_STEREO_COUNT>
0

> <PUBCHEM_ISOTOPIC_ATOM_COUNT>
0

> <PUBCHEM_COMPONENT_COUNT>
1

> <PUBCHEM_CACTVS_TAUTO_COUNT>
4

> <PUBCHEM_CONFORMER_ID>
000013F500000001

> <PUBCHEM_MMFF94_ENERGY>
51.0304

> <PUBCHEM_FEATURE_SELFOVERLAP>
66.161

> <PUBCHEM_SHAPE_FINGERPRINT>
10653451 467 18199743808381443737
10670039 82 18118959197247778100
10838868 49 17770258012754674161
11370993 70 18049456021501966076
11513181 2 17028231502998557500
12156800 1 14215938349494426704
12553582 1 18267007380368881253
13122387 1 17472414830016797180
1361 2 18336837480499211549
14117953 113 18409161087082679341
14725015 67 18053095405037234819
14840074 17 18194953046480591448
15297060 5 17174295081545126480
17977149 70 18047155646019730868
19930381 70 17832710445206545501
21315764 21 16824504011083909663
21796203 349 17767084702323287912
22113638 7 18265331699062943711
238 59 17683821173167895485
25019877 29 16661479580742247703
3187 122 18272357703140192369
35225 105 17986417652347269392
469060 322 18263097538648223399
474144 1 17621027669016388316
5282940 2 17114378144181671660
6004065 56 18335427825309504581
9981440 41 18051430748411127705

> <PUBCHEM_SHAPE_MULTIPOLES>
561.99
7.38
6.46
1.75
7.44
1.43
0.3
1.69
3.28
-3.45
-2.02
-0.69
0.02
2.38

> <PUBCHEM_SHAPE_SELFOVERLAP>
1222.414

> <PUBCHEM_SHAPE_VOLUME>
308.6

> <PUBCHEM_COORDINATE_TYPE>
2
5
10

$$$$

