13810
  -OEChem-06241222402D

 74 75  0     0  0  0  0  0  0999 V2000
    7.0749    8.1200    0.0000 O   0  0  0  0  0  0  0  0  0  0  0  0
    2.7690    4.3695    0.0000 O   0  0  0  0  0  0  0  0  0  0  0  0
    4.0010    5.2355    0.0000 O   0  0  0  0  0  0  0  0  0  0  0  0
    3.1350    6.7355    0.0000 O   0  0  0  0  0  0  0  0  0  0  0  0
    0.5369    3.2355    0.0000 O   0  0  0  0  0  0  0  0  0  0  0  0
    0.2690    6.9676    0.0000 O   0  0  0  0  0  0  0  0  0  0  0  0
    2.2690    3.2355    0.0000 O   0  0  0  0  0  0  0  0  0  0  0  0
    0.2690    5.2355    0.0000 O   0  0  0  0  0  0  0  0  0  0  0  0
    8.8070    5.1200    0.0000 N   0  0  0  0  0  0  0  0  0  0  0  0
    8.8070    8.1200    0.0000 N   0  0  0  0  0  0  0  0  0  0  0  0
    8.8070    7.1200    0.0000 C   0  0  0  0  0  0  0  0  0  0  0  0
    9.6730    6.6200    0.0000 C   0  0  0  0  0  0  0  0  0  0  0  0
    7.9409    6.6200    0.0000 C   0  0  0  0  0  0  0  0  0  0  0  0
    7.9409    5.6200    0.0000 C   0  0  0  0  0  0  0  0  0  0  0  0
    9.6730    5.6200    0.0000 C   0  0  0  0  0  0  0  0  0  0  0  0
    8.8070    4.1200    0.0000 C   0  0  0  0  0  0  0  0  0  0  0  0
    7.9409    3.6200    0.0000 C   0  0  0  0  0  0  0  0  0  0  0  0
    9.6730    8.6200    0.0000 C   0  0  0  0  0  0  0  0  0  0  0  0
    7.9409    8.6200    0.0000 C   0  0  0  0  0  0  0  0  0  0  0  0
    7.9409    2.6200    0.0000 C   0  0  0  0  0  0  0  0  0  0  0  0
    7.9409    9.6200    0.0000 C   0  0  0  0  0  0  0  0  0  0  0  0
   10.5390    8.1200    0.0000 C   0  0  0  0  0  0  0  0  0  0  0  0
    9.6730    9.6200    0.0000 C   0  0  0  0  0  0  0  0  0  0  0  0
    7.0749   10.1200    0.0000 C   0  0  0  0  0  0  0  0  0  0  0  0
    7.0749    2.1200    0.0000 C   0  0  0  0  0  0  0  0  0  0  0  0
    8.8070    2.1200    0.0000 C   0  0  0  0  0  0  0  0  0  0  0  0
   11.4050    8.6200    0.0000 C   0  0  0  0  0  0  0  0  0  0  0  0
   10.5390   10.1200    0.0000 C   0  0  0  0  0  0  0  0  0  0  0  0
   11.4050    9.6200    0.0000 C   0  0  0  0  0  0  0  0  0  0  0  0
    7.0749    1.1200    0.0000 C   0  0  0  0  0  0  0  0  0  0  0  0
    8.8070    1.1200    0.0000 C   0  0  0  0  0  0  0  0  0  0  0  0
    7.9409    0.6200    0.0000 C   0  0  0  0  0  0  0  0  0  0  0  0
    2.2690    5.2355    0.0000 C   0  0  0  0  0  0  0  0  0  0  0  0
    1.4030    4.7355    0.0000 C   0  0  0  0  0  0  0  0  0  0  0  0
    1.7690    6.1015    0.0000 C   0  0  0  0  0  0  0  0  0  0  0  0
    3.1350    5.7355    0.0000 C   0  0  0  0  0  0  0  0  0  0  0  0
    1.4030    3.7355    0.0000 C   0  0  0  0  0  0  0  0  0  0  0  0
    0.7690    6.1015    0.0000 C   0  0  0  0  0  0  0  0  0  0  0  0
    9.3439    7.4300    0.0000 H   0  0  0  0  0  0  0  0  0  0  0  0
   10.2836    6.5123    0.0000 H   0  0  0  0  0  0  0  0  0  0  0  0
    9.8850    7.2026    0.0000 H   0  0  0  0  0  0  0  0  0  0  0  0
    7.7289    7.2026    0.0000 H   0  0  0  0  0  0  0  0  0  0  0  0
    7.3304    6.5123    0.0000 H   0  0  0  0  0  0  0  0  0  0  0  0
    9.8850    5.0374    0.0000 H   0  0  0  0  0  0  0  0  0  0  0  0
   10.2836    5.7277    0.0000 H   0  0  0  0  0  0  0  0  0  0  0  0
    7.3304    5.7277    0.0000 H   0  0  0  0  0  0  0  0  0  0  0  0
    7.7289    5.0374    0.0000 H   0  0  0  0  0  0  0  0  0  0  0  0
    9.0190    3.5374    0.0000 H   0  0  0  0  0  0  0  0  0  0  0  0
    9.4175    4.2277    0.0000 H   0  0  0  0  0  0  0  0  0  0  0  0
    7.7289    4.2026    0.0000 H   0  0  0  0  0  0  0  0  0  0  0  0
    7.3304    3.5123    0.0000 H   0  0  0  0  0  0  0  0  0  0  0  0
    8.5515    9.5123    0.0000 H   0  0  0  0  0  0  0  0  0  0  0  0
    8.1530   10.2026    0.0000 H   0  0  0  0  0  0  0  0  0  0  0  0
   10.5390    7.5000    0.0000 H   0  0  0  0  0  0  0  0  0  0  0  0
    9.1360    9.9300    0.0000 H   0  0  0  0  0  0  0  0  0  0  0  0
    7.3849   10.6569    0.0000 H   0  0  0  0  0  0  0  0  0  0  0  0
    6.5380   10.4300    0.0000 H   0  0  0  0  0  0  0  0  0  0  0  0
    6.7649    9.5831    0.0000 H   0  0  0  0  0  0  0  0  0  0  0  0
    6.5380    2.4300    0.0000 H   0  0  0  0  0  0  0  0  0  0  0  0
    9.3439    2.4300    0.0000 H   0  0  0  0  0  0  0  0  0  0  0  0
   11.9420    8.3100    0.0000 H   0  0  0  0  0  0  0  0  0  0  0  0
   10.5390   10.7400    0.0000 H   0  0  0  0  0  0  0  0  0  0  0  0
   11.9420    9.9300    0.0000 H   0  0  0  0  0  0  0  0  0  0  0  0
    6.5380    0.8100    0.0000 H   0  0  0  0  0  0  0  0  0  0  0  0
    9.3439    0.8100    0.0000 H   0  0  0  0  0  0  0  0  0  0  0  0
    7.9409    0.0000    0.0000 H   0  0  0  0  0  0  0  0  0  0  0  0
    2.3516    6.3136    0.0000 H   0  0  0  0  0  0  0  0  0  0  0  0
    1.6613    6.7121    0.0000 H   0  0  0  0  0  0  0  0  0  0  0  0
    1.1909    5.3181    0.0000 H   0  0  0  0  0  0  0  0  0  0  0  0
    0.7924    4.6278    0.0000 H   0  0  0  0  0  0  0  0  0  0  0  0
    2.4590    3.8326    0.0000 H   0  0  0  0  0  0  0  0  0  0  0  0
    4.5380    5.5455    0.0000 H   0  0  0  0  0  0  0  0  0  0  0  0
    0.0000    3.5455    0.0000 H   0  0  0  0  0  0  0  0  0  0  0  0
    0.5790    7.5045    0.0000 H   0  0  0  0  0  0  0  0  0  0  0  0
  1 19  2  0  0  0  0
  2 33  1  0  0  0  0
  2 71  1  0  0  0  0
  3 36  1  0  0  0  0
  3 72  1  0  0  0  0
  4 36  2  0  0  0  0
  5 37  1  0  0  0  0
  5 73  1  0  0  0  0
  6 38  1  0  0  0  0
  6 74  1  0  0  0  0
  7 37  2  0  0  0  0
  8 38  2  0  0  0  0
  9 14  1  0  0  0  0
  9 15  1  0  0  0  0
  9 16  1  0  0  0  0
 10 11  1  0  0  0  0
 10 18  1  0  0  0  0
 10 19  1  0  0  0  0
 11 12  1  0  0  0  0
 11 13  1  0  0  0  0
 11 39  1  0  0  0  0
 12 15  1  0  0  0  0
 12 40  1  0  0  0  0
 12 41  1  0  0  0  0
 13 14  1  0  0  0  0
 13 42  1  0  0  0  0
 13 43  1  0  0  0  0
 14 46  1  0  0  0  0
 14 47  1  0  0  0  0
 15 44  1  0  0  0  0
 15 45  1  0  0  0  0
 16 17  1  0  0  0  0
 16 48  1  0  0  0  0
 16 49  1  0  0  0  0
 17 20  1  0  0  0  0
 17 50  1  0  0  0  0
 17 51  1  0  0  0  0
 18 22  2  0  0  0  0
 18 23  1  0  0  0  0
 19 21  1  0  0  0  0
 20 25  2  0  0  0  0
 20 26  1  0  0  0  0
 21 24  1  0  0  0  0
 21 52  1  0  0  0  0
 21 53  1  0  0  0  0
 22 27  1  0  0  0  0
 22 54  1  0  0  0  0
 23 28  2  0  0  0  0
 23 55  1  0  0  0  0
 24 56  1  0  0  0  0
 24 57  1  0  0  0  0
 24 58  1  0  0  0  0
 25 30  1  0  0  0  0
 25 59  1  0  0  0  0
 26 31  2  0  0  0  0
 26 60  1  0  0  0  0
 27 29  2  0  0  0  0
 27 61  1  0  0  0  0
 28 29  1  0  0  0  0
 28 62  1  0  0  0  0
 29 63  1  0  0  0  0
 30 32  2  0  0  0  0
 30 64  1  0  0  0  0
 31 32  1  0  0  0  0
 31 65  1  0  0  0  0
 32 66  1  0  0  0  0
 33 34  1  0  0  0  0
 33 35  1  0  0  0  0
 33 36  1  0  0  0  0
 34 37  1  0  0  0  0
 34 69  1  0  0  0  0
 34 70  1  0  0  0  0
 35 38  1  0  0  0  0
 35 67  1  0  0  0  0
 35 68  1  0  0  0  0
M  END
> <PUBCHEM_COMPOUND_CID>
13810

> <PUBCHEM_COMPOUND_CANONICALIZED>
1

> <PUBCHEM_CACTVS_COMPLEXITY>
618

> <PUBCHEM_CACTVS_HBOND_ACCEPTOR>
9

> <PUBCHEM_CACTVS_HBOND_DONOR>
4

> <PUBCHEM_CACTVS_ROTATABLE_BOND>
11

> <PUBCHEM_CACTVS_SUBSKEYS>
AAADcfB7PAAAAAAAAAAAAAAAAAAAAAAAAAA8YIAAAAAAAAABQAAAHgAACAAADGzBmAQyyIMAAgCIAiXSWAKCAAAhAgAIiAFIZIgJIDbA0ZGEYAhlpgDJyAfbpoAOAAAAAAAAAAAAAAAAAAAAAAAAAAAAAA==

> <PUBCHEM_IUPAC_OPENEYE_NAME>
citric acid; N-phenyl-N-[1-(2-phenylethyl)-4-piperidyl]propanamide

> <PUBCHEM_IUPAC_CAS_NAME>
2-hydroxypropane-1,2,3-tricarboxylic acid; N-phenyl-N-[1-(2-phenylethyl)-4-piperidinyl]propanamide

> <PUBCHEM_IUPAC_NAME>
2-hydroxypropane-1,2,3-tricarboxylic acid; N-phenyl-N-[1-(2-phenylethyl)piperidin-4-yl]propanamide

> <PUBCHEM_IUPAC_SYSTEMATIC_NAME>
2-oxidanylpropane-1,2,3-tricarboxylic acid; N-phenyl-N-[1-(2-phenylethyl)piperidin-4-yl]propanamide

> <PUBCHEM_IUPAC_TRADITIONAL_NAME>
citric acid; N-(1-phenethyl-4-piperidyl)-N-phenyl-propionamide

> <PUBCHEM_IUPAC_INCHI>
InChI=1S/C22H28N2O.C6H8O7/c1-2-22(25)24(20-11-7-4-8-12-20)21-14-17-23(18-15-21)16-13-19-9-5-3-6-10-19;7-3(8)1-6(13,5(11)12)2-4(9)10/h3-12,21H,2,13-18H2,1H3;13H,1-2H2,(H,7,8)(H,9,10)(H,11,12)

> <PUBCHEM_IUPAC_INCHIKEY>
IVLVTNPOHDFFCJ-UHFFFAOYSA-N

> <PUBCHEM_EXACT_MASS>
528.247166

> <PUBCHEM_MOLECULAR_FORMULA>
C28H36N2O8

> <PUBCHEM_MOLECULAR_WEIGHT>
528.59404

> <PUBCHEM_OPENEYE_CAN_SMILES>
CCC(=O)N(C1CCN(CC1)CCC2=CC=CC=C2)C3=CC=CC=C3.C(C(=O)O)C(CC(=O)O)(C(=O)O)O

> <PUBCHEM_OPENEYE_ISO_SMILES>
CCC(=O)N(C1CCN(CC1)CCC2=CC=CC=C2)C3=CC=CC=C3.C(C(=O)O)C(CC(=O)O)(C(=O)O)O

> <PUBCHEM_CACTVS_TPSA>
156

> <PUBCHEM_MONOISOTOPIC_WEIGHT>
528.247166

> <PUBCHEM_TOTAL_CHARGE>
0

> <PUBCHEM_HEAVY_ATOM_COUNT>
38

> <PUBCHEM_ATOM_DEF_STEREO_COUNT>
0

> <PUBCHEM_ATOM_UDEF_STEREO_COUNT>
0

> <PUBCHEM_BOND_DEF_STEREO_COUNT>
0

> <PUBCHEM_BOND_UDEF_STEREO_COUNT>
0

> <PUBCHEM_ISOTOPIC_ATOM_COUNT>
0

> <PUBCHEM_COMPONENT_COUNT>
2

> <PUBCHEM_CACTVS_TAUTO_COUNT>
1

> <PUBCHEM_COORDINATE_TYPE>
1
5
255

> <PUBCHEM_BONDANNOTATIONS>
18  22  8
18  23  8
20  25  8
20  26  8
22  27  8
23  28  8
25  30  8
26  31  8
27  29  8
28  29  8
30  32  8
31  32  8

$$$$

