583231
  -OEChem-06241222452D

 36 37  0     1  0  0  0  0  0999 V2000
    3.5000    1.4205    0.0000 N   0  0  3  0  0  0  0  0  0  0  0  0
    4.9142    1.4205    0.0000 C   0  0  0  0  0  0  0  0  0  0  0  0
    4.2071    0.7134    0.0000 C   0  0  3  0  0  0  0  0  0  0  0  0
    4.2071    2.1276    0.0000 C   0  0  0  0  0  0  0  0  0  0  0  0
    2.5000    1.4205    0.0000 C   0  0  0  0  0  0  0  0  0  0  0  0
    5.6213    2.1276    0.0000 C   0  0  0  0  0  0  0  0  0  0  0  0
    5.6213    0.7134    0.0000 C   0  0  0  0  0  0  0  0  0  0  0  0
    4.2071   -0.2866    0.0000 C   0  0  0  0  0  0  0  0  0  0  0  0
    2.0000    2.2866    0.0000 C   0  0  0  0  0  0  0  0  0  0  0  0
    2.0000    0.5545    0.0000 C   0  0  0  0  0  0  0  0  0  0  0  0
    3.3411   -0.7866    0.0000 C   0  0  0  0  0  0  0  0  0  0  0  0
    5.0731   -0.7866    0.0000 C   0  0  0  0  0  0  0  0  0  0  0  0
    3.3411   -1.7866    0.0000 C   0  0  0  0  0  0  0  0  0  0  0  0
    5.0731   -1.7866    0.0000 C   0  0  0  0  0  0  0  0  0  0  0  0
    4.2071   -2.2866    0.0000 C   0  0  0  0  0  0  0  0  0  0  0  0
    3.6343    0.4762    0.0000 H   0  0  0  0  0  0  0  0  0  0  0  0
    4.6455    2.5660    0.0000 H   0  0  0  0  0  0  0  0  0  0  0  0
    3.7687    2.5660    0.0000 H   0  0  0  0  0  0  0  0  0  0  0  0
    2.8100    1.9575    0.0000 H   0  0  0  0  0  0  0  0  0  0  0  0
    6.0597    1.6892    0.0000 H   0  0  0  0  0  0  0  0  0  0  0  0
    6.0597    2.5660    0.0000 H   0  0  0  0  0  0  0  0  0  0  0  0
    5.1829    2.5660    0.0000 H   0  0  0  0  0  0  0  0  0  0  0  0
    5.1829    0.2750    0.0000 H   0  0  0  0  0  0  0  0  0  0  0  0
    6.0597    0.2750    0.0000 H   0  0  0  0  0  0  0  0  0  0  0  0
    6.0597    1.1518    0.0000 H   0  0  0  0  0  0  0  0  0  0  0  0
    2.5369    2.5966    0.0000 H   0  0  0  0  0  0  0  0  0  0  0  0
    1.4631    0.8645    0.0000 H   0  0  0  0  0  0  0  0  0  0  0  0
    1.6900    0.0176    0.0000 H   0  0  0  0  0  0  0  0  0  0  0  0
    1.6900    2.8235    0.0000 H   0  0  0  0  0  0  0  0  0  0  0  0
    1.4631    1.9766    0.0000 H   0  0  0  0  0  0  0  0  0  0  0  0
    2.5369    0.2445    0.0000 H   0  0  0  0  0  0  0  0  0  0  0  0
    2.8042   -0.4766    0.0000 H   0  0  0  0  0  0  0  0  0  0  0  0
    5.6101   -0.4766    0.0000 H   0  0  0  0  0  0  0  0  0  0  0  0
    2.8042   -2.0966    0.0000 H   0  0  0  0  0  0  0  0  0  0  0  0
    5.6101   -2.0966    0.0000 H   0  0  0  0  0  0  0  0  0  0  0  0
    4.2071   -2.9066    0.0000 H   0  0  0  0  0  0  0  0  0  0  0  0
  1  3  1  0  0  0  0
  1  4  1  0  0  0  0
  1  5  1  0  0  0  0
  2  3  1  0  0  0  0
  2  4  1  0  0  0  0
  2  6  1  0  0  0  0
  2  7  1  0  0  0  0
  3  8  1  0  0  0  0
  3 16  1  0  0  0  0
  4 17  1  0  0  0  0
  4 18  1  0  0  0  0
  5  9  1  0  0  0  0
  5 10  1  0  0  0  0
  5 19  1  0  0  0  0
  6 20  1  0  0  0  0
  6 21  1  0  0  0  0
  6 22  1  0  0  0  0
  7 23  1  0  0  0  0
  7 24  1  0  0  0  0
  7 25  1  0  0  0  0
  8 11  2  0  0  0  0
  8 12  1  0  0  0  0
  9 26  1  0  0  0  0
  9 29  1  0  0  0  0
  9 30  1  0  0  0  0
 10 27  1  0  0  0  0
 10 28  1  0  0  0  0
 10 31  1  0  0  0  0
 11 13  1  0  0  0  0
 11 32  1  0  0  0  0
 12 14  2  0  0  0  0
 12 33  1  0  0  0  0
 13 15  2  0  0  0  0
 13 34  1  0  0  0  0
 14 15  1  0  0  0  0
 14 35  1  0  0  0  0
 15 36  1  0  0  0  0
M  END
> <PUBCHEM_COMPOUND_CID>
583231

> <PUBCHEM_COMPOUND_CANONICALIZED>
1

> <PUBCHEM_CACTVS_COMPLEXITY>
213

> <PUBCHEM_CACTVS_HBOND_ACCEPTOR>
1

> <PUBCHEM_CACTVS_HBOND_DONOR>
0

> <PUBCHEM_CACTVS_ROTATABLE_BOND>
2

> <PUBCHEM_CACTVS_SUBSKEYS>
AAADceByAAAAAAAAAAAAAAAAAABYAAAAAAAwAAAAAAAAAAABAAAAHAAAAAAADijBGAQyAIMAAACAAiBCAACCAAAgAAAIiAAIBIgIICKAkRGEIAhggACIiAcQgMAPAAAAAAAAAAAAAAAAAAAAAAAAAAAAAA==

> <PUBCHEM_IUPAC_OPENEYE_NAME>
1-isopropyl-3,3-dimethyl-2-phenyl-azetidine

> <PUBCHEM_IUPAC_CAS_NAME>
3,3-dimethyl-2-phenyl-1-propan-2-ylazetidine

> <PUBCHEM_IUPAC_NAME>
3,3-dimethyl-2-phenyl-1-propan-2-ylazetidine

> <PUBCHEM_IUPAC_SYSTEMATIC_NAME>
3,3-dimethyl-2-phenyl-1-propan-2-yl-azetidine

> <PUBCHEM_IUPAC_TRADITIONAL_NAME>
1-isopropyl-3,3-dimethyl-2-phenyl-azetidine

> <PUBCHEM_IUPAC_INCHI>
InChI=1S/C14H21N/c1-11(2)15-10-14(3,4)13(15)12-8-6-5-7-9-12/h5-9,11,13H,10H2,1-4H3

> <PUBCHEM_IUPAC_INCHIKEY>
CFBRJBCAKZSMNO-UHFFFAOYSA-N

> <PUBCHEM_XLOGP3_AA>
3.6

> <PUBCHEM_EXACT_MASS>
203.1674

> <PUBCHEM_MOLECULAR_FORMULA>
C14H21N

> <PUBCHEM_MOLECULAR_WEIGHT>
203.32324

> <PUBCHEM_OPENEYE_CAN_SMILES>
CC(C)N1CC(C1C2=CC=CC=C2)(C)C

> <PUBCHEM_OPENEYE_ISO_SMILES>
CC(C)N1CC(C1C2=CC=CC=C2)(C)C

> <PUBCHEM_CACTVS_TPSA>
3.2

> <PUBCHEM_MONOISOTOPIC_WEIGHT>
203.1674

> <PUBCHEM_TOTAL_CHARGE>
0

> <PUBCHEM_HEAVY_ATOM_COUNT>
15

> <PUBCHEM_ATOM_DEF_STEREO_COUNT>
0

> <PUBCHEM_ATOM_UDEF_STEREO_COUNT>
1

> <PUBCHEM_BOND_DEF_STEREO_COUNT>
0

> <PUBCHEM_BOND_UDEF_STEREO_COUNT>
0

> <PUBCHEM_ISOTOPIC_ATOM_COUNT>
0

> <PUBCHEM_COMPONENT_COUNT>
1

> <PUBCHEM_CACTVS_TAUTO_COUNT>
1

> <PUBCHEM_COORDINATE_TYPE>
1
5
255

> <PUBCHEM_BONDANNOTATIONS>
11  13  8
12  14  8
13  15  8
14  15  8
3  8  3
8  11  8
8  12  8

$$$$

