5949
  -OEChem-06261201002D

 49 47  0     0  0  0  0  0  0999 V2000
    5.3884    0.7895    0.0000 Sn  0  0  0  0  0  0  0  0  0  0  0  0
    5.3884    1.7895    0.0000 O   0  0  0  0  0  0  0  0  0  0  0  0
    6.8884    0.9235    0.0000 O   0  0  0  0  0  0  0  0  0  0  0  0
    4.8006   -0.0195    0.0000 C   0  0  0  0  0  0  0  0  0  0  0  0
    5.9762   -0.0195    0.0000 C   0  0  0  0  0  0  0  0  0  0  0  0
    4.4373    1.0986    0.0000 C   0  0  0  0  0  0  0  0  0  0  0  0
    5.2074   -0.9330    0.0000 C   0  0  0  0  0  0  0  0  0  0  0  0
    6.9707    0.0851    0.0000 C   0  0  0  0  0  0  0  0  0  0  0  0
    3.6942    0.4294    0.0000 C   0  0  0  0  0  0  0  0  0  0  0  0
    4.6196   -1.7420    0.0000 C   0  0  0  0  0  0  0  0  0  0  0  0
    7.5585   -0.7240    0.0000 C   0  0  0  0  0  0  0  0  0  0  0  0
    2.7431    0.7385    0.0000 C   0  0  0  0  0  0  0  0  0  0  0  0
    6.3884    1.7895    0.0000 C   0  0  0  0  0  0  0  0  0  0  0  0
    5.0263   -2.6556    0.0000 C   0  0  0  0  0  0  0  0  0  0  0  0
    8.5530   -0.6194    0.0000 C   0  0  0  0  0  0  0  0  0  0  0  0
    2.0000    0.0693    0.0000 C   0  0  0  0  0  0  0  0  0  0  0  0
    6.8884    2.6556    0.0000 C   0  0  0  0  0  0  0  0  0  0  0  0
    5.9781    0.9811    0.0000 H   0  0  0  0  0  0  0  0  0  0  0  0
    4.3699    0.4265    0.0000 H   0  0  0  0  0  0  0  0  0  0  0  0
    4.2866   -0.3662    0.0000 H   0  0  0  0  0  0  0  0  0  0  0  0
    5.4189   -0.2913    0.0000 H   0  0  0  0  0  0  0  0  0  0  0  0
    6.1471   -0.6154    0.0000 H   0  0  0  0  0  0  0  0  0  0  0  0
    3.9488    1.4803    0.0000 H   0  0  0  0  0  0  0  0  0  0  0  0
    4.7284    1.6460    0.0000 H   0  0  0  0  0  0  0  0  0  0  0  0
    4.7684    1.7895    0.0000 H   0  0  0  0  0  0  0  0  0  0  0  0
    5.6380   -1.3790    0.0000 H   0  0  0  0  0  0  0  0  0  0  0  0
    5.7214   -0.5863    0.0000 H   0  0  0  0  0  0  0  0  0  0  0  0
    7.5280    0.3569    0.0000 H   0  0  0  0  0  0  0  0  0  0  0  0
    6.7998    0.6810    0.0000 H   0  0  0  0  0  0  0  0  0  0  0  0
    4.1828    0.0477    0.0000 H   0  0  0  0  0  0  0  0  0  0  0  0
    3.4031   -0.1180    0.0000 H   0  0  0  0  0  0  0  0  0  0  0  0
    4.1056   -2.0887    0.0000 H   0  0  0  0  0  0  0  0  0  0  0  0
    4.1889   -1.2960    0.0000 H   0  0  0  0  0  0  0  0  0  0  0  0
    7.7294   -1.3199    0.0000 H   0  0  0  0  0  0  0  0  0  0  0  0
    7.0012   -0.9957    0.0000 H   0  0  0  0  0  0  0  0  0  0  0  0
    2.2546    1.1202    0.0000 H   0  0  0  0  0  0  0  0  0  0  0  0
    3.0342    1.2859    0.0000 H   0  0  0  0  0  0  0  0  0  0  0  0
    5.2785   -3.2220    0.0000 H   0  0  0  0  0  0  0  0  0  0  0  0
    4.4599   -2.9078    0.0000 H   0  0  0  0  0  0  0  0  0  0  0  0
    5.5927   -2.4034    0.0000 H   0  0  0  0  0  0  0  0  0  0  0  0
    8.4882   -0.0028    0.0000 H   0  0  0  0  0  0  0  0  0  0  0  0
    9.1696   -0.5546    0.0000 H   0  0  0  0  0  0  0  0  0  0  0  0
    8.6178   -1.2360    0.0000 H   0  0  0  0  0  0  0  0  0  0  0  0
    2.4149   -0.3914    0.0000 H   0  0  0  0  0  0  0  0  0  0  0  0
    1.5393   -0.3455    0.0000 H   0  0  0  0  0  0  0  0  0  0  0  0
    1.5851    0.5301    0.0000 H   0  0  0  0  0  0  0  0  0  0  0  0
    7.4253    2.3456    0.0000 H   0  0  0  0  0  0  0  0  0  0  0  0
    7.1984    3.1925    0.0000 H   0  0  0  0  0  0  0  0  0  0  0  0
    6.3515    2.9656    0.0000 H   0  0  0  0  0  0  0  0  0  0  0  0
  1  4  1  0  0  0  0
  1  5  1  0  0  0  0
  1  6  1  0  0  0  0
  1 18  1  0  0  0  0
  2 13  1  0  0  0  0
  2 25  1  0  0  0  0
  3 13  2  0  0  0  0
  4  7  1  0  0  0  0
  4 19  1  0  0  0  0
  4 20  1  0  0  0  0
  5  8  1  0  0  0  0
  5 21  1  0  0  0  0
  5 22  1  0  0  0  0
  6  9  1  0  0  0  0
  6 23  1  0  0  0  0
  6 24  1  0  0  0  0
  7 10  1  0  0  0  0
  7 26  1  0  0  0  0
  7 27  1  0  0  0  0
  8 11  1  0  0  0  0
  8 28  1  0  0  0  0
  8 29  1  0  0  0  0
  9 12  1  0  0  0  0
  9 30  1  0  0  0  0
  9 31  1  0  0  0  0
 10 14  1  0  0  0  0
 10 32  1  0  0  0  0
 10 33  1  0  0  0  0
 11 15  1  0  0  0  0
 11 34  1  0  0  0  0
 11 35  1  0  0  0  0
 12 16  1  0  0  0  0
 12 36  1  0  0  0  0
 12 37  1  0  0  0  0
 13 17  1  0  0  0  0
 14 38  1  0  0  0  0
 14 39  1  0  0  0  0
 14 40  1  0  0  0  0
 15 41  1  0  0  0  0
 15 42  1  0  0  0  0
 15 43  1  0  0  0  0
 16 44  1  0  0  0  0
 16 45  1  0  0  0  0
 16 46  1  0  0  0  0
 17 47  1  0  0  0  0
 17 48  1  0  0  0  0
 17 49  1  0  0  0  0
M  END
> <PUBCHEM_COMPOUND_CID>
5949

> <PUBCHEM_COMPOUND_CANONICALIZED>
1

> <PUBCHEM_CACTVS_COMPLEXITY>
141

> <PUBCHEM_CACTVS_HBOND_ACCEPTOR>
2

> <PUBCHEM_CACTVS_HBOND_DONOR>
1

> <PUBCHEM_CACTVS_ROTATABLE_BOND>
9

> <PUBCHEM_CACTVS_SUBSKEYS>
AAADcfBwMAAAAAAAAACAAAAAAAAAAAAAAAAAAAAAAAAAAAAAAAAAGgAACAAACACAgAACCAAAAgAIAACQCAAAAAAAAAAAAAAAAAAAAAAAAAAAAAAAAAAAAAAAAAAAAAAAAAAAAAAAAAAAAAAAAAAAAAAAAA==

> <PUBCHEM_IUPAC_OPENEYE_NAME>
acetic acid; tributylstannane

> <PUBCHEM_IUPAC_CAS_NAME>
acetic acid; tributylstannane

> <PUBCHEM_IUPAC_NAME>
acetic acid; tributylstannane

> <PUBCHEM_IUPAC_SYSTEMATIC_NAME>
ethanoic acid; tributylstannane

> <PUBCHEM_IUPAC_TRADITIONAL_NAME>
acetic acid; tributylstannane

> <PUBCHEM_IUPAC_INCHI>
InChI=1S/3C4H9.C2H4O2.Sn.H/c3*1-3-4-2;1-2(3)4;;/h3*1,3-4H2,2H3;1H3,(H,3,4);;

> <PUBCHEM_IUPAC_INCHIKEY>
MQLOAMURDGMDHF-UHFFFAOYSA-N

> <PUBCHEM_EXACT_MASS>
352.142425

> <PUBCHEM_MOLECULAR_FORMULA>
C14H32O2Sn

> <PUBCHEM_MOLECULAR_WEIGHT>
351.11268

> <PUBCHEM_OPENEYE_CAN_SMILES>
CCCC[SnH](CCCC)CCCC.CC(=O)O

> <PUBCHEM_OPENEYE_ISO_SMILES>
CCCC[SnH](CCCC)CCCC.CC(=O)O

> <PUBCHEM_CACTVS_TPSA>
37.3

> <PUBCHEM_MONOISOTOPIC_WEIGHT>
352.142425

> <PUBCHEM_TOTAL_CHARGE>
0

> <PUBCHEM_HEAVY_ATOM_COUNT>
17

> <PUBCHEM_ATOM_DEF_STEREO_COUNT>
0

> <PUBCHEM_ATOM_UDEF_STEREO_COUNT>
0

> <PUBCHEM_BOND_DEF_STEREO_COUNT>
0

> <PUBCHEM_BOND_UDEF_STEREO_COUNT>
0

> <PUBCHEM_ISOTOPIC_ATOM_COUNT>
0

> <PUBCHEM_COMPONENT_COUNT>
2

> <PUBCHEM_CACTVS_TAUTO_COUNT>
2

> <PUBCHEM_NONSTANDARDBOND>
1  2  6

> <PUBCHEM_COORDINATE_TYPE>
1
5
255

> <PUBCHEM_BONDANNOTATIONS>
1  2  4

$$$$

