13586
  -OEChem-06241222392D

 11 11  0     1  0  0  0  0  0999 V2000
    4.2320    0.6830    0.0000 O   0  0  0  0  0  0  0  0  0  0  0  0
    3.7320   -0.1830    0.0000 C   0  0  3  0  0  0  0  0  0  0  0  0
    4.7320   -0.1830    0.0000 C   0  0  0  0  0  0  0  0  0  0  0  0
    2.8660   -0.6830    0.0000 C   0  0  0  0  0  0  0  0  0  0  0  0
    2.0000   -0.1830    0.0000 C   0  0  0  0  0  0  0  0  0  0  0  0
    3.2936    0.2554    0.0000 H   0  0  0  0  0  0  0  0  0  0  0  0
    4.8397   -0.7936    0.0000 H   0  0  0  0  0  0  0  0  0  0  0  0
    5.3147    0.0290    0.0000 H   0  0  0  0  0  0  0  0  0  0  0  0
    2.8660   -1.3030    0.0000 H   0  0  0  0  0  0  0  0  0  0  0  0
    2.0000    0.4370    0.0000 H   0  0  0  0  0  0  0  0  0  0  0  0
    1.4631   -0.4930    0.0000 H   0  0  0  0  0  0  0  0  0  0  0  0
  1  2  1  0  0  0  0
  1  3  1  0  0  0  0
  2  3  1  0  0  0  0
  2  4  1  0  0  0  0
  2  6  1  0  0  0  0
  3  7  1  0  0  0  0
  3  8  1  0  0  0  0
  4  5  2  0  0  0  0
  4  9  1  0  0  0  0
  5 10  1  0  0  0  0
  5 11  1  0  0  0  0
M  END
> <PUBCHEM_COMPOUND_CID>
13586

> <PUBCHEM_COMPOUND_CANONICALIZED>
1

> <PUBCHEM_CACTVS_COMPLEXITY>
49.6

> <PUBCHEM_CACTVS_HBOND_ACCEPTOR>
1

> <PUBCHEM_CACTVS_HBOND_DONOR>
0

> <PUBCHEM_CACTVS_ROTATABLE_BOND>
1

> <PUBCHEM_CACTVS_SUBSKEYS>
AAADcYBgIAAAAAAAAAAAAAAAEgAAAAAAAAAAAAAAAAAAAAAAAAAAGgAAAAAACBSggAIAAAAABACAACBCAAAAAAAgAAAIAAAAAAgABAAAIQAAAAAAQAAAIAAAAAAAAAAAAAAAAAAAAAAAAAAAAAAAAAAAAA==

> <PUBCHEM_IUPAC_OPENEYE_NAME>
2-vinyloxirane

> <PUBCHEM_IUPAC_CAS_NAME>
2-ethenyloxirane

> <PUBCHEM_IUPAC_NAME>
2-ethenyloxirane

> <PUBCHEM_IUPAC_SYSTEMATIC_NAME>
2-ethenyloxirane

> <PUBCHEM_IUPAC_TRADITIONAL_NAME>
2-vinyloxirane

> <PUBCHEM_IUPAC_INCHI>
InChI=1S/C4H6O/c1-2-4-3-5-4/h2,4H,1,3H2

> <PUBCHEM_IUPAC_INCHIKEY>
GXBYFVGCMPJVJX-UHFFFAOYSA-N

> <PUBCHEM_XLOGP3_AA>
0.5

> <PUBCHEM_EXACT_MASS>
70.041865

> <PUBCHEM_MOLECULAR_FORMULA>
C4H6O

> <PUBCHEM_MOLECULAR_WEIGHT>
70.08984

> <PUBCHEM_OPENEYE_CAN_SMILES>
C=CC1CO1

> <PUBCHEM_OPENEYE_ISO_SMILES>
C=CC1CO1

> <PUBCHEM_CACTVS_TPSA>
12.5

> <PUBCHEM_MONOISOTOPIC_WEIGHT>
70.041865

> <PUBCHEM_TOTAL_CHARGE>
0

> <PUBCHEM_HEAVY_ATOM_COUNT>
5

> <PUBCHEM_ATOM_DEF_STEREO_COUNT>
0

> <PUBCHEM_ATOM_UDEF_STEREO_COUNT>
1

> <PUBCHEM_BOND_DEF_STEREO_COUNT>
0

> <PUBCHEM_BOND_UDEF_STEREO_COUNT>
0

> <PUBCHEM_ISOTOPIC_ATOM_COUNT>
0

> <PUBCHEM_COMPONENT_COUNT>
1

> <PUBCHEM_CACTVS_TAUTO_COUNT>
1

> <PUBCHEM_COORDINATE_TYPE>
1
5
255

> <PUBCHEM_BONDANNOTATIONS>
2  4  3

$$$$

