582898
  -OEChem-06241222443D

 15 16  0     0  0  0  0  0  0999 V2000
   -1.1610    1.3752    0.0000 N   0  0  0  0  0  0  0  0  0  0  0  0
    1.1545    1.3763    0.0001 N   0  0  0  0  0  0  0  0  0  0  0  0
    2.4138   -0.6764   -0.0001 N   0  0  0  0  0  0  0  0  0  0  0  0
    0.0015   -0.6966    0.0001 C   0  0  0  0  0  0  0  0  0  0  0  0
   -0.0017    0.7031    0.0000 C   0  0  0  0  0  0  0  0  0  0  0  0
   -1.2141   -1.3964    0.0000 C   0  0  0  0  0  0  0  0  0  0  0  0
    1.2410   -1.3317    0.0000 C   0  0  0  0  0  0  0  0  0  0  0  0
   -2.4066   -0.6945    0.0000 C   0  0  0  0  0  0  0  0  0  0  0  0
   -2.3252    0.6819   -0.0001 C   0  0  0  0  0  0  0  0  0  0  0  0
    2.2977    0.6590    0.0000 C   0  0  0  0  0  0  0  0  0  0  0  0
   -1.2315   -2.4831    0.0000 H   0  0  0  0  0  0  0  0  0  0  0  0
    1.3243   -2.4145    0.0000 H   0  0  0  0  0  0  0  0  0  0  0  0
   -3.3621   -1.2047   -0.0001 H   0  0  0  0  0  0  0  0  0  0  0  0
   -3.2223    1.2924   -0.0001 H   0  0  0  0  0  0  0  0  0  0  0  0
    3.2205    1.2264    0.0000 H   0  0  0  0  0  0  0  0  0  0  0  0
  1  5  1  0  0  0  0
  1  9  2  0  0  0  0
  2  5  2  0  0  0  0
  2 10  1  0  0  0  0
  3  7  1  0  0  0  0
  3 10  2  0  0  0  0
  4  5  1  0  0  0  0
  4  6  1  0  0  0  0
  4  7  2  0  0  0  0
  6  8  2  0  0  0  0
  6 11  1  0  0  0  0
  7 12  1  0  0  0  0
  8  9  1  0  0  0  0
  8 13  1  0  0  0  0
  9 14  1  0  0  0  0
 10 15  1  0  0  0  0
M  END
> <PUBCHEM_COMPOUND_CID>
582898

> <PUBCHEM_CONFORMER_RMSD>
0.4

> <PUBCHEM_CONFORMER_DIVERSEORDER>
1

> <PUBCHEM_MMFF94_PARTIAL_CHARGES>
14
1 -0.62
10 0.47
11 0.15
12 0.15
13 0.15
14 0.15
15 0.15
2 -0.62
3 -0.62
5 0.62
6 -0.15
7 0.16
8 -0.15
9 0.16

> <PUBCHEM_EFFECTIVE_ROTOR_COUNT>
0

> <PUBCHEM_PHARMACOPHORE_FEATURES>
5
1 1 acceptor
3 1 2 5 cation
3 2 3 10 cation
6 1 4 5 6 8 9 rings
6 2 3 4 5 7 10 rings

> <PUBCHEM_HEAVY_ATOM_COUNT>
10

> <PUBCHEM_ATOM_DEF_STEREO_COUNT>
0

> <PUBCHEM_ATOM_UDEF_STEREO_COUNT>
0

> <PUBCHEM_BOND_DEF_STEREO_COUNT>
0

> <PUBCHEM_BOND_UDEF_STEREO_COUNT>
0

> <PUBCHEM_ISOTOPIC_ATOM_COUNT>
0

> <PUBCHEM_COMPONENT_COUNT>
1

> <PUBCHEM_CACTVS_TAUTO_COUNT>
1

> <PUBCHEM_CONFORMER_ID>
0008E4F200000001

> <PUBCHEM_MMFF94_ENERGY>
29.952

> <PUBCHEM_FEATURE_SELFOVERLAP>
25.543

> <PUBCHEM_SHAPE_FINGERPRINT>
12897270 3 18410575054619445975
14325111 11 18410575080389424993
16945 1 18410573985183158119
18185500 45 18265616485364480951
193761 8 15888841146316932609
19973954 147 18411416202500106433
21040471 1 18410574002410493572
23402655 69 18264787609033904957
23552423 10 18272368646384364742
2748010 2 18410856538180784015
29004967 10 18342453707903491354
369184 2 18410858758795004931
5084963 1 18260830397116398083
528886 8 18410016519929367211

> <PUBCHEM_SHAPE_MULTIPOLES>
190.85
3.38
1.59
0.59
0.07
0.01
0
-0.01
0
-0.02
0
-0.02
0.02
0

> <PUBCHEM_SHAPE_SELFOVERLAP>
421.129

> <PUBCHEM_SHAPE_VOLUME>
99.7

> <PUBCHEM_COORDINATE_TYPE>
2
5
10

$$$$

