6034
  -OEChem-06261201033D

 32 32  0     0  0  0  0  0  0999 V2000
   -0.9226    1.7212   -0.4917 O   0  0  0  0  0  0  0  0  0  0  0  0
   -3.2555   -1.4985    0.4859 O   0  0  0  0  0  0  0  0  0  0  0  0
   -3.2309    0.3146   -0.9321 O   0  0  0  0  0  0  0  0  0  0  0  0
    3.7498    1.2048   -0.1604 O   0  0  0  0  0  0  0  0  0  0  0  0
    2.9748   -1.0051    0.1116 N   0  0  0  0  0  0  0  0  0  0  0  0
   -0.3762    0.4895   -0.2858 C   0  0  0  0  0  0  0  0  0  0  0  0
   -1.1847   -0.6409   -0.1673 C   0  0  0  0  0  0  0  0  0  0  0  0
    1.5882   -0.8836    0.0182 C   0  0  0  0  0  0  0  0  0  0  0  0
    1.0102    0.3682   -0.1929 C   0  0  0  0  0  0  0  0  0  0  0  0
   -0.6067   -1.8927    0.0437 C   0  0  0  0  0  0  0  0  0  0  0  0
    0.7798   -2.0141    0.1365 C   0  0  0  0  0  0  0  0  0  0  0  0
   -0.6603    2.7185    0.4931 C   0  0  0  0  0  0  0  0  0  0  0  0
   -2.6341   -0.5362   -0.2611 C   0  0  0  0  0  0  0  0  0  0  0  0
   -1.8229    3.6873    0.5356 C   0  0  0  0  0  0  0  0  0  0  0  0
    3.9403    0.0062    0.0190 C   0  0  0  0  0  0  0  0  0  0  0  0
    5.3379   -0.5388    0.1738 C   0  0  0  0  0  0  0  0  0  0  0  0
   -4.6871   -1.5004    0.4741 C   0  0  0  0  0  0  0  0  0  0  0  0
    1.5856    1.2760   -0.3060 H   0  0  0  0  0  0  0  0  0  0  0  0
   -1.2075   -2.7947    0.1263 H   0  0  0  0  0  0  0  0  0  0  0  0
    1.2170   -2.9962    0.2981 H   0  0  0  0  0  0  0  0  0  0  0  0
   -0.5304    2.2678    1.4849 H   0  0  0  0  0  0  0  0  0  0  0  0
    0.2574    3.2528    0.2243 H   0  0  0  0  0  0  0  0  0  0  0  0
    3.3183   -1.9509    0.2660 H   0  0  0  0  0  0  0  0  0  0  0  0
   -1.6492    4.4749    1.2741 H   0  0  0  0  0  0  0  0  0  0  0  0
   -1.9757    4.1498   -0.4451 H   0  0  0  0  0  0  0  0  0  0  0  0
   -2.7509    3.1638    0.7884 H   0  0  0  0  0  0  0  0  0  0  0  0
    5.4500   -0.9918    1.1629 H   0  0  0  0  0  0  0  0  0  0  0  0
    6.0654    0.2708    0.0688 H   0  0  0  0  0  0  0  0  0  0  0  0
    5.5308   -1.2905   -0.5968 H   0  0  0  0  0  0  0  0  0  0  0  0
   -5.0553   -1.6671   -0.5425 H   0  0  0  0  0  0  0  0  0  0  0  0
   -5.0687   -0.5560    0.8735 H   0  0  0  0  0  0  0  0  0  0  0  0
   -5.0319   -2.3181    1.1125 H   0  0  0  0  0  0  0  0  0  0  0  0
  1  6  1  0  0  0  0
  1 12  1  0  0  0  0
  2 13  1  0  0  0  0
  2 17  1  0  0  0  0
  3 13  2  0  0  0  0
  4 15  2  0  0  0  0
  5  8  1  0  0  0  0
  5 15  1  0  0  0  0
  5 23  1  0  0  0  0
  6  7  2  0  0  0  0
  6  9  1  0  0  0  0
  7 10  1  0  0  0  0
  7 13  1  0  0  0  0
  8  9  2  0  0  0  0
  8 11  1  0  0  0  0
  9 18  1  0  0  0  0
 10 11  2  0  0  0  0
 10 19  1  0  0  0  0
 11 20  1  0  0  0  0
 12 14  1  0  0  0  0
 12 21  1  0  0  0  0
 12 22  1  0  0  0  0
 14 24  1  0  0  0  0
 14 25  1  0  0  0  0
 14 26  1  0  0  0  0
 15 16  1  0  0  0  0
 16 27  1  0  0  0  0
 16 28  1  0  0  0  0
 16 29  1  0  0  0  0
 17 30  1  0  0  0  0
 17 31  1  0  0  0  0
 17 32  1  0  0  0  0
M  END
> <PUBCHEM_COMPOUND_CID>
6034

> <PUBCHEM_CONFORMER_RMSD>
0.8

> <PUBCHEM_CONFORMER_DIVERSEORDER>
1
3
10
11
2
12
5
14
7
8
9
15
17
13
6
4
16

> <PUBCHEM_MMFF94_PARTIAL_CHARGES>
20
1 -0.36
10 -0.15
11 -0.15
12 0.28
13 0.63
15 0.57
16 0.06
17 0.28
18 0.15
19 0.15
2 -0.43
20 0.15
23 0.37
3 -0.57
4 -0.57
5 -0.55
6 0.08
7 0.09
8 0.12
9 -0.15

> <PUBCHEM_EFFECTIVE_ROTOR_COUNT>
6

> <PUBCHEM_PHARMACOPHORE_FEATURES>
5
1 1 acceptor
1 3 acceptor
1 4 acceptor
1 5 donor
6 6 7 8 9 10 11 rings

> <PUBCHEM_HEAVY_ATOM_COUNT>
17

> <PUBCHEM_ATOM_DEF_STEREO_COUNT>
0

> <PUBCHEM_ATOM_UDEF_STEREO_COUNT>
0

> <PUBCHEM_BOND_DEF_STEREO_COUNT>
0

> <PUBCHEM_BOND_UDEF_STEREO_COUNT>
0

> <PUBCHEM_ISOTOPIC_ATOM_COUNT>
0

> <PUBCHEM_COMPONENT_COUNT>
1

> <PUBCHEM_CACTVS_TAUTO_COUNT>
3

> <PUBCHEM_CONFORMER_ID>
0000179200000001

> <PUBCHEM_MMFF94_ENERGY>
55.9161

> <PUBCHEM_FEATURE_SELFOVERLAP>
25.377

> <PUBCHEM_SHAPE_FINGERPRINT>
108231 29 18340486647489607531
12032990 46 18340765953260199535
12390115 104 18116418418711977776
12954195 1 18190165962290141358
13027679 85 18338237055552947357
13140716 1 18195529190789590290
13862211 1 18339929224911799774
14614273 12 18057613263544571533
14787075 74 18129379298080865971
15196674 1 18341614793753932244
16945 1 18410007783918667687
193761 8 17977947109193197727
20510252 161 18335702766949692808
20671657 1 17831575384508415649
21029758 11 18338521833412191215
21041028 32 18337383847578368289
21061003 4 18337392634991486297
21267235 1 18342450422470281226
21339142 126 18261117369746368630
21501502 16 18050575332754766866
22182937 141 18117272773342871080
2297311 6 18336535071846229334
23402539 116 18260836972653656967
23557571 272 18410284826557687950
23558518 356 18198048386418596978
23559900 14 18339650048480823886
25610 137 18411981351561133934
2748010 2 18121512262287260799
283562 15 18411702114230905059
3250762 1 17756412017629639823
3312278 4 18342742948555625903
5104073 3 18265905833876193010
537710 114 18270955726835143676
68521 5 18410008857855618429
7364860 26 17905044751296994937
81228 2 18199168750133479633

> <PUBCHEM_SHAPE_MULTIPOLES>
321.39
7.96
3.06
0.72
5.93
3.38
-0.01
-2.62
0.65
-2.68
0.67
-0.27
0.07
0.01

> <PUBCHEM_SHAPE_SELFOVERLAP>
659.739

> <PUBCHEM_SHAPE_VOLUME>
185.5

> <PUBCHEM_COORDINATE_TYPE>
2
5
10

$$$$

