11034
  -OEChem-06261205152D

 30 30  0     0  0  0  0  0  0999 V2000
    5.1350    3.6550    0.0000 S   0  0  0  0  0  0  0  0  0  0  0  0
    6.0010    5.1550    0.0000 Na  0  3  0  0  0  0  0  0  0  0  0  0
    2.5369   -1.8450    0.0000 O   0  0  0  0  0  0  0  0  0  0  0  0
    5.1350    4.6550    0.0000 O   0  5  0  0  0  0  0  0  0  0  0  0
    6.1350    3.6550    0.0000 O   0  0  0  0  0  0  0  0  0  0  0  0
    4.1350    3.6550    0.0000 O   0  0  0  0  0  0  0  0  0  0  0  0
    4.2690   -4.8450    0.0000 O   0  0  0  0  0  0  0  0  0  0  0  0
    5.1350   -0.3450    0.0000 N   0  0  0  0  0  0  0  0  0  0  0  0
    4.2690   -0.8450    0.0000 N   0  0  0  0  0  0  0  0  0  0  0  0
    5.1350    2.6550    0.0000 C   0  0  0  0  0  0  0  0  0  0  0  0
    5.1350    0.6550    0.0000 C   0  0  0  0  0  0  0  0  0  0  0  0
    4.2690    2.1550    0.0000 C   0  0  0  0  0  0  0  0  0  0  0  0
    6.0010    2.1550    0.0000 C   0  0  0  0  0  0  0  0  0  0  0  0
    4.2690    1.1550    0.0000 C   0  0  0  0  0  0  0  0  0  0  0  0
    6.0010    1.1550    0.0000 C   0  0  0  0  0  0  0  0  0  0  0  0
    4.2690   -1.8450    0.0000 C   0  0  0  0  0  0  0  0  0  0  0  0
    3.4030   -2.3450    0.0000 C   0  0  0  0  0  0  0  0  0  0  0  0
    5.1350   -2.3450    0.0000 C   0  0  0  0  0  0  0  0  0  0  0  0
    3.4030   -3.3450    0.0000 C   0  0  0  0  0  0  0  0  0  0  0  0
    4.2690   -3.8450    0.0000 C   0  0  0  0  0  0  0  0  0  0  0  0
    5.1350   -3.3450    0.0000 C   0  0  0  0  0  0  0  0  0  0  0  0
    3.7321    2.4650    0.0000 H   0  0  0  0  0  0  0  0  0  0  0  0
    6.5380    2.4650    0.0000 H   0  0  0  0  0  0  0  0  0  0  0  0
    3.7321    0.8450    0.0000 H   0  0  0  0  0  0  0  0  0  0  0  0
    6.5380    0.8450    0.0000 H   0  0  0  0  0  0  0  0  0  0  0  0
    5.6719   -2.0350    0.0000 H   0  0  0  0  0  0  0  0  0  0  0  0
    2.8660   -3.6550    0.0000 H   0  0  0  0  0  0  0  0  0  0  0  0
    5.6719   -3.6550    0.0000 H   0  0  0  0  0  0  0  0  0  0  0  0
    2.0000   -2.1550    0.0000 H   0  0  0  0  0  0  0  0  0  0  0  0
    4.8059   -5.1550    0.0000 H   0  0  0  0  0  0  0  0  0  0  0  0
  1  4  1  0  0  0  0
  1  5  2  0  0  0  0
  1  6  2  0  0  0  0
  1 10  1  0  0  0  0
  3 17  1  0  0  0  0
  3 29  1  0  0  0  0
  7 20  1  0  0  0  0
  7 30  1  0  0  0  0
  8  9  2  0  0  0  0
  8 11  1  0  0  0  0
  9 16  1  0  0  0  0
 10 12  2  0  0  0  0
 10 13  1  0  0  0  0
 11 14  2  0  0  0  0
 11 15  1  0  0  0  0
 12 14  1  0  0  0  0
 12 22  1  0  0  0  0
 13 15  2  0  0  0  0
 13 23  1  0  0  0  0
 14 24  1  0  0  0  0
 15 25  1  0  0  0  0
 16 17  2  0  0  0  0
 16 18  1  0  0  0  0
 17 19  1  0  0  0  0
 18 21  2  0  0  0  0
 18 26  1  0  0  0  0
 19 20  2  0  0  0  0
 19 27  1  0  0  0  0
 20 21  1  0  0  0  0
 21 28  1  0  0  0  0
M  CHG  2   2   1   4  -1
M  END
> <PUBCHEM_COMPOUND_CID>
11034

> <PUBCHEM_COMPOUND_CANONICALIZED>
1

> <PUBCHEM_CACTVS_COMPLEXITY>
426

> <PUBCHEM_CACTVS_HBOND_ACCEPTOR>
7

> <PUBCHEM_CACTVS_HBOND_DONOR>
2

> <PUBCHEM_CACTVS_ROTATABLE_BOND>
2

> <PUBCHEM_CACTVS_SUBSKEYS>
AAADccBzOCBAAAAAAAAAAAAAAAAAAAAAAAAwYAAAAAAAAAABQAAAHgQICAAACAyB0AAwx4AAAgKCACRCQHDCAEAgIgAIiBgHbIgKJyKSkZOAcABlwBUI2AewYAQAAEQACAAAEAAAiAAQAAAgAAAAAAAAAA==

> <PUBCHEM_IUPAC_OPENEYE_NAME>
sodium 4-(2,4-dihydroxyphenyl)azobenzenesulfonate

> <PUBCHEM_IUPAC_CAS_NAME>
sodium 4-(2,4-dihydroxyphenyl)azobenzenesulfonate

> <PUBCHEM_IUPAC_NAME>
sodium 4-[(2,4-dihydroxyphenyl)diazenyl]benzenesulfonate

> <PUBCHEM_IUPAC_SYSTEMATIC_NAME>
sodium 4-[[2,4-bis(oxidanyl)phenyl]diazenyl]benzenesulfonate

> <PUBCHEM_IUPAC_TRADITIONAL_NAME>
sodium 4-(2,4-dihydroxyphenyl)azobesylate

> <PUBCHEM_IUPAC_INCHI>
InChI=1S/C12H10N2O5S.Na/c15-9-3-6-11(12(16)7-9)14-13-8-1-4-10(5-2-8)20(17,18)19;/h1-7,15-16H,(H,17,18,19);/q;+1/p-1

> <PUBCHEM_IUPAC_INCHIKEY>
COEZWFYORILMOM-UHFFFAOYSA-M

> <PUBCHEM_EXACT_MASS>
316.012987

> <PUBCHEM_MOLECULAR_FORMULA>
C12H9N2NaO5S

> <PUBCHEM_MOLECULAR_WEIGHT>
316.265029

> <PUBCHEM_OPENEYE_CAN_SMILES>
C1=CC(=CC=C1N=NC2=C(C=C(C=C2)O)O)S(=O)(=O)[O-].[Na+]

> <PUBCHEM_OPENEYE_ISO_SMILES>
C1=CC(=CC=C1N=NC2=C(C=C(C=C2)O)O)S(=O)(=O)[O-].[Na+]

> <PUBCHEM_CACTVS_TPSA>
131

> <PUBCHEM_MONOISOTOPIC_WEIGHT>
316.012987

> <PUBCHEM_TOTAL_CHARGE>
0

> <PUBCHEM_HEAVY_ATOM_COUNT>
21

> <PUBCHEM_ATOM_DEF_STEREO_COUNT>
0

> <PUBCHEM_ATOM_UDEF_STEREO_COUNT>
0

> <PUBCHEM_BOND_DEF_STEREO_COUNT>
0

> <PUBCHEM_BOND_UDEF_STEREO_COUNT>
0

> <PUBCHEM_ISOTOPIC_ATOM_COUNT>
0

> <PUBCHEM_COMPONENT_COUNT>
2

> <PUBCHEM_CACTVS_TAUTO_COUNT>
12

> <PUBCHEM_COORDINATE_TYPE>
1
5
255

> <PUBCHEM_BONDANNOTATIONS>
10  12  8
10  13  8
11  14  8
11  15  8
12  14  8
13  15  8
16  17  8
16  18  8
17  19  8
18  21  8
19  20  8
20  21  8

$$$$

