17395863
  -OEChem-06241222522D

 49 52  0     1  0  0  0  0  0999 V2000
    4.9889    1.9786    0.0000 O   0  0  0  0  0  0  0  0  0  0  0  0
    4.9889   -1.5319    0.0000 O   0  0  0  0  0  0  0  0  0  0  0  0
   10.4329    2.2254    0.0000 O   0  0  0  0  0  0  0  0  0  0  0  0
    6.7619   -0.6427    0.0000 N   0  0  3  0  0  0  0  0  0  0  0  0
    5.2619    0.2233    0.0000 N   0  0  0  0  0  0  0  0  0  0  0  0
    3.7320    0.7233    0.0000 C   0  0  3  0  0  0  0  0  0  0  0  0
    3.7320   -0.2767    0.0000 C   0  0  3  0  0  0  0  0  0  0  0  0
    7.7564   -0.7472    0.0000 C   0  0  3  0  0  0  0  0  0  0  0  0
    6.2619    0.2233    0.0000 C   0  0  0  0  0  0  0  0  0  0  0  0
    7.9643   -1.7254    0.0000 C   0  0  0  0  0  0  0  0  0  0  0  0
    6.3551   -1.5562    0.0000 C   0  0  0  0  0  0  0  0  0  0  0  0
    7.0983   -2.2254    0.0000 C   0  0  0  0  0  0  0  0  0  0  0  0
    4.6783   -0.5814    0.0000 C   0  0  0  0  0  0  0  0  0  0  0  0
    4.6783    1.0281    0.0000 C   0  0  0  0  0  0  0  0  0  0  0  0
    2.8660    1.2233    0.0000 C   0  0  0  0  0  0  0  0  0  0  0  0
    2.8660   -0.7767    0.0000 C   0  0  0  0  0  0  0  0  0  0  0  0
    8.4255   -0.0041    0.0000 C   0  0  0  0  0  0  0  0  0  0  0  0
    2.0000    0.7233    0.0000 C   0  0  0  0  0  0  0  0  0  0  0  0
    2.0000   -0.2767    0.0000 C   0  0  0  0  0  0  0  0  0  0  0  0
    8.1165    0.9470    0.0000 C   0  0  0  0  0  0  0  0  0  0  0  0
    9.4037   -0.2120    0.0000 C   0  0  0  0  0  0  0  0  0  0  0  0
    8.7856    1.6901    0.0000 C   0  0  0  0  0  0  0  0  0  0  0  0
   10.0728    0.5312    0.0000 C   0  0  0  0  0  0  0  0  0  0  0  0
    9.7638    1.4822    0.0000 C   0  0  0  0  0  0  0  0  0  0  0  0
   11.4111    2.0175    0.0000 C   0  0  0  0  0  0  0  0  0  0  0  0
    3.7977    1.3399    0.0000 H   0  0  0  0  0  0  0  0  0  0  0  0
    3.7977   -0.8932    0.0000 H   0  0  0  0  0  0  0  0  0  0  0  0
    7.5342   -0.1684    0.0000 H   0  0  0  0  0  0  0  0  0  0  0  0
    6.8445    0.4354    0.0000 H   0  0  0  0  0  0  0  0  0  0  0  0
    6.1542    0.8339    0.0000 H   0  0  0  0  0  0  0  0  0  0  0  0
    8.2165   -2.2918    0.0000 H   0  0  0  0  0  0  0  0  0  0  0  0
    8.5540   -1.5338    0.0000 H   0  0  0  0  0  0  0  0  0  0  0  0
    5.8182   -1.2462    0.0000 H   0  0  0  0  0  0  0  0  0  0  0  0
    5.9907   -2.0578    0.0000 H   0  0  0  0  0  0  0  0  0  0  0  0
    6.6375   -2.6402    0.0000 H   0  0  0  0  0  0  0  0  0  0  0  0
    7.4627   -2.7270    0.0000 H   0  0  0  0  0  0  0  0  0  0  0  0
    3.2646    1.6983    0.0000 H   0  0  0  0  0  0  0  0  0  0  0  0
    2.4675    1.6983    0.0000 H   0  0  0  0  0  0  0  0  0  0  0  0
    2.4675   -1.2516    0.0000 H   0  0  0  0  0  0  0  0  0  0  0  0
    3.2646   -1.2516    0.0000 H   0  0  0  0  0  0  0  0  0  0  0  0
    1.4631   -0.5867    0.0000 H   0  0  0  0  0  0  0  0  0  0  0  0
    1.4631    1.0333    0.0000 H   0  0  0  0  0  0  0  0  0  0  0  0
    7.5101    1.0759    0.0000 H   0  0  0  0  0  0  0  0  0  0  0  0
    9.5953   -0.8016    0.0000 H   0  0  0  0  0  0  0  0  0  0  0  0
    8.5941    2.2798    0.0000 H   0  0  0  0  0  0  0  0  0  0  0  0
   10.6793    0.4023    0.0000 H   0  0  0  0  0  0  0  0  0  0  0  0
   11.2822    1.4110    0.0000 H   0  0  0  0  0  0  0  0  0  0  0  0
   12.0175    1.8886    0.0000 H   0  0  0  0  0  0  0  0  0  0  0  0
   11.5400    2.6239    0.0000 H   0  0  0  0  0  0  0  0  0  0  0  0
  1 14  2  0  0  0  0
  2 13  2  0  0  0  0
  3 24  1  0  0  0  0
  3 25  1  0  0  0  0
  4  8  1  0  0  0  0
  4  9  1  0  0  0  0
  4 11  1  0  0  0  0
  5  9  1  0  0  0  0
  5 13  1  0  0  0  0
  5 14  1  0  0  0  0
  6  7  1  0  0  0  0
  6 14  1  0  0  0  0
  6 15  1  0  0  0  0
  6 26  1  0  0  0  0
  7 13  1  0  0  0  0
  7 16  1  0  0  0  0
  7 27  1  0  0  0  0
  8 10  1  0  0  0  0
  8 17  1  0  0  0  0
  8 28  1  0  0  0  0
  9 29  1  0  0  0  0
  9 30  1  0  0  0  0
 10 12  1  0  0  0  0
 10 31  1  0  0  0  0
 10 32  1  0  0  0  0
 11 12  1  0  0  0  0
 11 33  1  0  0  0  0
 11 34  1  0  0  0  0
 12 35  1  0  0  0  0
 12 36  1  0  0  0  0
 15 18  1  0  0  0  0
 15 37  1  0  0  0  0
 15 38  1  0  0  0  0
 16 19  1  0  0  0  0
 16 39  1  0  0  0  0
 16 40  1  0  0  0  0
 17 20  2  0  0  0  0
 17 21  1  0  0  0  0
 18 19  2  0  0  0  0
 18 42  1  0  0  0  0
 19 41  1  0  0  0  0
 20 22  1  0  0  0  0
 20 43  1  0  0  0  0
 21 23  2  0  0  0  0
 21 44  1  0  0  0  0
 22 24  2  0  0  0  0
 22 45  1  0  0  0  0
 23 24  1  0  0  0  0
 23 46  1  0  0  0  0
 25 47  1  0  0  0  0
 25 48  1  0  0  0  0
 25 49  1  0  0  0  0
M  END
> <PUBCHEM_COMPOUND_CID>
17395863

> <PUBCHEM_COMPOUND_CANONICALIZED>
1

> <PUBCHEM_CACTVS_COMPLEXITY>
527

> <PUBCHEM_CACTVS_HBOND_ACCEPTOR>
4

> <PUBCHEM_CACTVS_HBOND_DONOR>
0

> <PUBCHEM_CACTVS_ROTATABLE_BOND>
4

> <PUBCHEM_CACTVS_SUBSKEYS>
AAADceB7MAAAAAAAAAAAAAAAAAAAAWLAAAAwQAAAAAAAAEABAAAAHgAAAAAADSzBmAYzBoMABACIAiFSEACCCAAgIAAIiAEODIiMJjKEsRuEMChsxzOIqAed0KMOoAAAAAAAAABAAAAAAAAAAAAAAAAAAA==

> <PUBCHEM_IUPAC_OPENEYE_NAME>
2-[[2-(4-methoxyphenyl)pyrrolidin-1-yl]methyl]-3a,4,7,7a-tetrahydroisoindole-1,3-dione

> <PUBCHEM_IUPAC_CAS_NAME>
2-[[2-(4-methoxyphenyl)-1-pyrrolidinyl]methyl]-3a,4,7,7a-tetrahydroisoindole-1,3-dione

> <PUBCHEM_IUPAC_NAME>
2-[[2-(4-methoxyphenyl)pyrrolidin-1-yl]methyl]-3a,4,7,7a-tetrahydroisoindole-1,3-dione

> <PUBCHEM_IUPAC_SYSTEMATIC_NAME>
2-[[2-(4-methoxyphenyl)pyrrolidin-1-yl]methyl]-3a,4,7,7a-tetrahydroisoindole-1,3-dione

> <PUBCHEM_IUPAC_TRADITIONAL_NAME>
2-[[2-(4-methoxyphenyl)pyrrolidino]methyl]-3a,4,7,7a-tetrahydroisoindole-1,3-quinone

> <PUBCHEM_IUPAC_INCHI>
InChI=1S/C20H24N2O3/c1-25-15-10-8-14(9-11-15)18-7-4-12-21(18)13-22-19(23)16-5-2-3-6-17(16)20(22)24/h2-3,8-11,16-18H,4-7,12-13H2,1H3

> <PUBCHEM_IUPAC_INCHIKEY>
XJNMCCSPRVAPQX-UHFFFAOYSA-N

> <PUBCHEM_XLOGP3_AA>
2.5

> <PUBCHEM_EXACT_MASS>
340.178693

> <PUBCHEM_MOLECULAR_FORMULA>
C20H24N2O3

> <PUBCHEM_MOLECULAR_WEIGHT>
340.41616

> <PUBCHEM_OPENEYE_CAN_SMILES>
COC1=CC=C(C=C1)C2CCCN2CN3C(=O)C4CC=CCC4C3=O

> <PUBCHEM_OPENEYE_ISO_SMILES>
COC1=CC=C(C=C1)C2CCCN2CN3C(=O)C4CC=CCC4C3=O

> <PUBCHEM_CACTVS_TPSA>
49.8

> <PUBCHEM_MONOISOTOPIC_WEIGHT>
340.178693

> <PUBCHEM_TOTAL_CHARGE>
0

> <PUBCHEM_HEAVY_ATOM_COUNT>
25

> <PUBCHEM_ATOM_DEF_STEREO_COUNT>
0

> <PUBCHEM_ATOM_UDEF_STEREO_COUNT>
3

> <PUBCHEM_BOND_DEF_STEREO_COUNT>
0

> <PUBCHEM_BOND_UDEF_STEREO_COUNT>
0

> <PUBCHEM_ISOTOPIC_ATOM_COUNT>
0

> <PUBCHEM_COMPONENT_COUNT>
1

> <PUBCHEM_CACTVS_TAUTO_COUNT>
3

> <PUBCHEM_COORDINATE_TYPE>
1
5
255

> <PUBCHEM_BONDANNOTATIONS>
17  20  8
17  21  8
20  22  8
21  23  8
22  24  8
23  24  8
6  15  3
7  16  3
8  17  3

$$$$

