4143
  -OEChem-06251223552D

 41 43  0     0  0  0  0  0  0999 V2000
    9.4651   -0.5000    0.0000 S   0  0  0  0  0  0  0  0  0  0  0  0
    8.9651    0.3660    0.0000 O   0  0  0  0  0  0  0  0  0  0  0  0
    9.9651   -1.3660    0.0000 O   0  0  0  0  0  0  0  0  0  0  0  0
    4.2690   -0.5000    0.0000 O   0  0  0  0  0  0  0  0  0  0  0  0
    2.5369    0.5000    0.0000 O   0  0  0  0  0  0  0  0  0  0  0  0
    8.5991   -1.0000    0.0000 N   0  0  0  0  0  0  0  0  0  0  0  0
    3.4030    1.0000    0.0000 N   0  0  0  0  0  0  0  0  0  0  0  0
   10.3312    0.0000    0.0000 C   0  0  0  0  0  0  0  0  0  0  0  0
   12.0632    0.0000    0.0000 C   0  0  0  0  0  0  0  0  0  0  0  0
   12.0632    1.0000    0.0000 C   0  0  0  0  0  0  0  0  0  0  0  0
   11.1972   -0.5000    0.0000 C   0  0  0  0  0  0  0  0  0  0  0  0
    7.7331   -0.5000    0.0000 C   0  0  0  0  0  0  0  0  0  0  0  0
   10.3312    1.0000    0.0000 C   0  0  0  0  0  0  0  0  0  0  0  0
   11.1972    1.5000    0.0000 C   0  0  0  0  0  0  0  0  0  0  0  0
    6.0010    0.5000    0.0000 C   0  0  0  0  0  0  0  0  0  0  0  0
   12.9572   -0.5347    0.0000 C   0  0  0  0  0  0  0  0  0  0  0  0
    7.7331    0.5000    0.0000 C   0  0  0  0  0  0  0  0  0  0  0  0
    6.8671   -1.0000    0.0000 C   0  0  0  0  0  0  0  0  0  0  0  0
   12.9572    1.5347    0.0000 C   0  0  0  0  0  0  0  0  0  0  0  0
    6.8671    1.0000    0.0000 C   0  0  0  0  0  0  0  0  0  0  0  0
    6.0010   -0.5000    0.0000 C   0  0  0  0  0  0  0  0  0  0  0  0
    5.1350    1.0000    0.0000 C   0  0  0  0  0  0  0  0  0  0  0  0
   13.8632   -0.0208    0.0000 C   0  0  0  0  0  0  0  0  0  0  0  0
   13.8632    1.0208    0.0000 C   0  0  0  0  0  0  0  0  0  0  0  0
    4.2690    0.5000    0.0000 C   0  0  0  0  0  0  0  0  0  0  0  0
   11.1972   -1.1200    0.0000 H   0  0  0  0  0  0  0  0  0  0  0  0
    8.5991   -1.6200    0.0000 H   0  0  0  0  0  0  0  0  0  0  0  0
    9.7942    1.3100    0.0000 H   0  0  0  0  0  0  0  0  0  0  0  0
   11.1972    2.1200    0.0000 H   0  0  0  0  0  0  0  0  0  0  0  0
   12.9500   -1.1546    0.0000 H   0  0  0  0  0  0  0  0  0  0  0  0
    8.2700    0.8100    0.0000 H   0  0  0  0  0  0  0  0  0  0  0  0
    6.8671   -1.6200    0.0000 H   0  0  0  0  0  0  0  0  0  0  0  0
   12.9500    2.1546    0.0000 H   0  0  0  0  0  0  0  0  0  0  0  0
    6.8671    1.6200    0.0000 H   0  0  0  0  0  0  0  0  0  0  0  0
    5.4641   -0.8100    0.0000 H   0  0  0  0  0  0  0  0  0  0  0  0
    5.5335    1.4750    0.0000 H   0  0  0  0  0  0  0  0  0  0  0  0
    4.7365    1.4750    0.0000 H   0  0  0  0  0  0  0  0  0  0  0  0
   14.3990   -0.3329    0.0000 H   0  0  0  0  0  0  0  0  0  0  0  0
   14.3990    1.3329    0.0000 H   0  0  0  0  0  0  0  0  0  0  0  0
    3.4030    1.6200    0.0000 H   0  0  0  0  0  0  0  0  0  0  0  0
    2.0000    0.8100    0.0000 H   0  0  0  0  0  0  0  0  0  0  0  0
  1  2  2  0  0  0  0
  1  3  2  0  0  0  0
  1  6  1  0  0  0  0
  1  8  1  0  0  0  0
  4 25  2  0  0  0  0
  5  7  1  0  0  0  0
  5 41  1  0  0  0  0
  6 12  1  0  0  0  0
  6 27  1  0  0  0  0
  7 25  1  0  0  0  0
  7 40  1  0  0  0  0
  8 11  2  0  0  0  0
  8 13  1  0  0  0  0
  9 10  1  0  0  0  0
  9 11  1  0  0  0  0
  9 16  2  0  0  0  0
 10 14  1  0  0  0  0
 10 19  2  0  0  0  0
 11 26  1  0  0  0  0
 12 17  2  0  0  0  0
 12 18  1  0  0  0  0
 13 14  2  0  0  0  0
 13 28  1  0  0  0  0
 14 29  1  0  0  0  0
 15 20  2  0  0  0  0
 15 21  1  0  0  0  0
 15 22  1  0  0  0  0
 16 23  1  0  0  0  0
 16 30  1  0  0  0  0
 17 20  1  0  0  0  0
 17 31  1  0  0  0  0
 18 21  2  0  0  0  0
 18 32  1  0  0  0  0
 19 24  1  0  0  0  0
 19 33  1  0  0  0  0
 20 34  1  0  0  0  0
 21 35  1  0  0  0  0
 22 25  1  0  0  0  0
 22 36  1  0  0  0  0
 22 37  1  0  0  0  0
 23 24  2  0  0  0  0
 23 38  1  0  0  0  0
 24 39  1  0  0  0  0
M  END
> <PUBCHEM_COMPOUND_CID>
4143

> <PUBCHEM_COMPOUND_CANONICALIZED>
1

> <PUBCHEM_CACTVS_COMPLEXITY>
552

> <PUBCHEM_CACTVS_HBOND_ACCEPTOR>
5

> <PUBCHEM_CACTVS_HBOND_DONOR>
3

> <PUBCHEM_CACTVS_ROTATABLE_BOND>
5

> <PUBCHEM_CACTVS_SUBSKEYS>
AAADceB7OABAAAAAAAAAAAAAAAAAAAAAAAAwYMAAAAAAAADBVAAAHgQUSAAADAiB2AAwwcBQAAKIAiVSUHDCABAgAgAoiBkAZIgIIDKAlZGAIABgkAAIyAcYiICOmAAAgAAQAAAwAAEAACAAAAAAAAAAAA==

> <PUBCHEM_IUPAC_OPENEYE_NAME>
2-[4-(2-naphthylsulfonylamino)phenyl]ethanehydroxamic acid

> <PUBCHEM_IUPAC_CAS_NAME>
N-hydroxy-2-[4-(2-naphthalenylsulfonylamino)phenyl]acetamide

> <PUBCHEM_IUPAC_NAME>
N-hydroxy-2-[4-(naphthalen-2-ylsulfonylamino)phenyl]acetamide

> <PUBCHEM_IUPAC_SYSTEMATIC_NAME>
2-[4-(naphthalen-2-ylsulfonylamino)phenyl]-N-oxidanyl-ethanamide

> <PUBCHEM_IUPAC_TRADITIONAL_NAME>
2-[4-(2-naphthylsulfonylamino)phenyl]ethanehydroxamic acid

> <PUBCHEM_IUPAC_INCHI>
InChI=1S/C18H16N2O4S/c21-18(19-22)11-13-5-8-16(9-6-13)20-25(23,24)17-10-7-14-3-1-2-4-15(14)12-17/h1-10,12,20,22H,11H2,(H,19,21)

> <PUBCHEM_IUPAC_INCHIKEY>
OBPFRKHHOFVYEG-UHFFFAOYSA-N

> <PUBCHEM_XLOGP3_AA>
2.4

> <PUBCHEM_EXACT_MASS>
356.083078

> <PUBCHEM_MOLECULAR_FORMULA>
C18H16N2O4S

> <PUBCHEM_MOLECULAR_WEIGHT>
356.39564

> <PUBCHEM_OPENEYE_CAN_SMILES>
C1=CC=C2C=C(C=CC2=C1)S(=O)(=O)NC3=CC=C(C=C3)CC(=O)NO

> <PUBCHEM_OPENEYE_ISO_SMILES>
C1=CC=C2C=C(C=CC2=C1)S(=O)(=O)NC3=CC=C(C=C3)CC(=O)NO

> <PUBCHEM_CACTVS_TPSA>
104

> <PUBCHEM_MONOISOTOPIC_WEIGHT>
356.083078

> <PUBCHEM_TOTAL_CHARGE>
0

> <PUBCHEM_HEAVY_ATOM_COUNT>
25

> <PUBCHEM_ATOM_DEF_STEREO_COUNT>
0

> <PUBCHEM_ATOM_UDEF_STEREO_COUNT>
0

> <PUBCHEM_BOND_DEF_STEREO_COUNT>
0

> <PUBCHEM_BOND_UDEF_STEREO_COUNT>
0

> <PUBCHEM_ISOTOPIC_ATOM_COUNT>
0

> <PUBCHEM_COMPONENT_COUNT>
1

> <PUBCHEM_CACTVS_TAUTO_COUNT>
4

> <PUBCHEM_COORDINATE_TYPE>
1
5
255

> <PUBCHEM_BONDANNOTATIONS>
10  14  8
10  19  8
12  17  8
12  18  8
13  14  8
15  20  8
15  21  8
16  23  8
17  20  8
18  21  8
19  24  8
23  24  8
8  11  8
8  13  8
9  10  8
9  11  8
9  16  8

$$$$

