13893
  -OEChem-06241222403D

 26 26  0     1  0  0  0  0  0999 V2000
   -4.8484    0.0055    0.1117 O   0  0  0  0  0  0  0  0  0  0  0  0
   -3.4200   -1.5266   -0.7656 O   0  0  0  0  0  0  0  0  0  0  0  0
   -0.1619    2.1998    0.0912 N   0  0  0  0  0  0  0  0  0  0  0  0
   -0.0038    0.8248    0.5754 C   0  0  1  0  0  0  0  0  0  0  0  0
   -1.1265   -0.0775    0.0226 C   0  0  0  0  0  0  0  0  0  0  0  0
    1.3731    0.2697    0.2533 C   0  0  0  0  0  0  0  0  0  0  0  0
   -2.5285    0.4418    0.3572 C   0  0  0  0  0  0  0  0  0  0  0  0
    1.9709   -0.5983    1.1461 C   0  0  0  0  0  0  0  0  0  0  0  0
    1.9893    0.6479   -0.9236 C   0  0  0  0  0  0  0  0  0  0  0  0
   -3.6090   -0.4767   -0.1672 C   0  0  0  0  0  0  0  0  0  0  0  0
    3.2351   -1.1081    0.8504 C   0  0  0  0  0  0  0  0  0  0  0  0
    3.2534    0.1379   -1.2194 C   0  0  0  0  0  0  0  0  0  0  0  0
    3.8763   -0.7402   -0.3322 C   0  0  0  0  0  0  0  0  0  0  0  0
   -0.0988    0.8720    1.6684 H   0  0  0  0  0  0  0  0  0  0  0  0
   -1.0278   -0.1791   -1.0671 H   0  0  0  0  0  0  0  0  0  0  0  0
   -1.0107   -1.0914    0.4291 H   0  0  0  0  0  0  0  0  0  0  0  0
   -2.6460    0.5223    1.4432 H   0  0  0  0  0  0  0  0  0  0  0  0
   -2.6971    1.4227   -0.0990 H   0  0  0  0  0  0  0  0  0  0  0  0
   -0.9635    2.6357    0.5452 H   0  0  0  0  0  0  0  0  0  0  0  0
   -0.3756    2.1993   -0.9057 H   0  0  0  0  0  0  0  0  0  0  0  0
    1.4779   -0.8924    2.0679 H   0  0  0  0  0  0  0  0  0  0  0  0
    1.5248    1.3126   -1.6446 H   0  0  0  0  0  0  0  0  0  0  0  0
    3.7196   -1.7926    1.5405 H   0  0  0  0  0  0  0  0  0  0  0  0
    3.7512    0.4204   -2.1425 H   0  0  0  0  0  0  0  0  0  0  0  0
    4.8601   -1.1384   -0.5633 H   0  0  0  0  0  0  0  0  0  0  0  0
   -5.5549   -0.5865   -0.2242 H   0  0  0  0  0  0  0  0  0  0  0  0
  1 10  1  0  0  0  0
  1 26  1  0  0  0  0
  2 10  2  0  0  0  0
  3  4  1  0  0  0  0
  3 19  1  0  0  0  0
  3 20  1  0  0  0  0
  4  5  1  0  0  0  0
  4  6  1  0  0  0  0
  4 14  1  0  0  0  0
  5  7  1  0  0  0  0
  5 15  1  0  0  0  0
  5 16  1  0  0  0  0
  6  8  2  0  0  0  0
  6  9  1  0  0  0  0
  7 10  1  0  0  0  0
  7 17  1  0  0  0  0
  7 18  1  0  0  0  0
  8 11  1  0  0  0  0
  8 21  1  0  0  0  0
  9 12  2  0  0  0  0
  9 22  1  0  0  0  0
 11 13  2  0  0  0  0
 11 23  1  0  0  0  0
 12 13  1  0  0  0  0
 12 24  1  0  0  0  0
 13 25  1  0  0  0  0
M  END
> <PUBCHEM_COMPOUND_CID>
13893

> <PUBCHEM_CONFORMER_RMSD>
0.6

> <PUBCHEM_CONFORMER_DIVERSEORDER>
3
2
33
8
31
28
20
27
1
30
16
24
13
11
5
6
19
32
15
26
23
9
25
29
18
14
10
4
21
22
17
12
7

> <PUBCHEM_MMFF94_PARTIAL_CHARGES>
20
1 -0.65
10 0.66
11 -0.15
12 -0.15
13 -0.15
19 0.36
2 -0.57
20 0.36
21 0.15
22 0.15
23 0.15
24 0.15
25 0.15
26 0.5
3 -0.99
4 0.41
6 -0.14
7 0.06
8 -0.15
9 -0.15

> <PUBCHEM_EFFECTIVE_ROTOR_COUNT>
4

> <PUBCHEM_PHARMACOPHORE_FEATURES>
6
1 1 acceptor
1 2 acceptor
1 3 cation
1 3 donor
3 1 2 10 anion
6 6 8 9 11 12 13 rings

> <PUBCHEM_HEAVY_ATOM_COUNT>
13

> <PUBCHEM_ATOM_DEF_STEREO_COUNT>
0

> <PUBCHEM_ATOM_UDEF_STEREO_COUNT>
1

> <PUBCHEM_BOND_DEF_STEREO_COUNT>
0

> <PUBCHEM_BOND_UDEF_STEREO_COUNT>
0

> <PUBCHEM_ISOTOPIC_ATOM_COUNT>
0

> <PUBCHEM_COMPONENT_COUNT>
1

> <PUBCHEM_CACTVS_TAUTO_COUNT>
1

> <PUBCHEM_CONFORMER_ID>
0000364500000003

> <PUBCHEM_MMFF94_ENERGY>
24.2992

> <PUBCHEM_FEATURE_SELFOVERLAP>
30.504

> <PUBCHEM_SHAPE_FINGERPRINT>
11543360 7 16630241412020114651
12251169 10 5473138526808909057
12346177 29 17603878788717430271
13705890 14 16917064447526471456
14252887 29 15502369045878874742
14576447 43 18202282507182043762
15477762 27 17775284997624047114
17844478 74 15791730858108075832
18186145 218 15482671298977151937
18915474 69 18342174444930201934
200 152 17988924504794265800
20279233 1 16298104281080912663
20281407 28 18040431118101594786
20361792 2 18335991899705555037
20645477 70 16845574257407804650
21119208 17 17489867141644954631
21524375 3 9511461117294034473
22485316 2 18334860510745897511
23402539 116 18341896329028977180
23402655 69 17489871565424197148
23557571 272 18041278867880122808
26918003 58 15502376737885902183
276578 36 9367350331797046804
3060560 45 16702303447117744738
3268164 11 12679183761414126395
4047638 21 14261348050930533316
42 15 15430032171370880619
4990 188 14908181966695617771
522135 26 17775286071001783259
5281201 14 15913330229537290975
6333272 397 9583512135894969405

> <PUBCHEM_SHAPE_MULTIPOLES>
250.81
8.08
1.34
1.04
6.52
0.35
0.06
-2.86
1.42
0
-0.06
-0.62
-0.08
-0.83

> <PUBCHEM_SHAPE_SELFOVERLAP>
510.197

> <PUBCHEM_SHAPE_VOLUME>
145.2

> <PUBCHEM_COORDINATE_TYPE>
2
5
10

$$$$

