10982
  -OEChem-06261205123D

 28 27  0     1  0  0  0  0  0999 V2000
    2.4709   -1.4395   -0.2835 N   0  0  0  0  0  0  0  0  0  0  0  0
   -1.2829    0.7135    0.6884 C   0  0  0  0  0  0  0  0  0  0  0  0
   -0.1330    0.0842   -0.1060 C   0  0  0  0  0  0  0  0  0  0  0  0
   -2.6708    0.1815    0.2854 C   0  0  0  0  0  0  0  0  0  0  0  0
    1.2256    0.5978    0.3882 C   0  0  0  0  0  0  0  0  0  0  0  0
    2.4206    0.0187   -0.3886 C   0  0  1  0  0  0  0  0  0  0  0  0
   -2.7801   -1.3371    0.4296 C   0  0  0  0  0  0  0  0  0  0  0  0
   -2.9821    0.5859   -1.1578 C   0  0  0  0  0  0  0  0  0  0  0  0
    3.7320    0.5950    0.1443 C   0  0  0  0  0  0  0  0  0  0  0  0
   -1.2595    1.8039    0.5686 H   0  0  0  0  0  0  0  0  0  0  0  0
   -1.1308    0.5146    1.7571 H   0  0  0  0  0  0  0  0  0  0  0  0
   -0.2300    0.3142   -1.1722 H   0  0  0  0  0  0  0  0  0  0  0  0
   -0.1665   -1.0029    0.0046 H   0  0  0  0  0  0  0  0  0  0  0  0
   -3.4133    0.6485    0.9445 H   0  0  0  0  0  0  0  0  0  0  0  0
    1.3307    0.3670    1.4567 H   0  0  0  0  0  0  0  0  0  0  0  0
    1.2436    1.6920    0.3025 H   0  0  0  0  0  0  0  0  0  0  0  0
    2.3289    0.2864   -1.4477 H   0  0  0  0  0  0  0  0  0  0  0  0
   -2.1792   -1.8723   -0.3121 H   0  0  0  0  0  0  0  0  0  0  0  0
   -2.4653   -1.6579    1.4280 H   0  0  0  0  0  0  0  0  0  0  0  0
   -3.8197   -1.6546    0.2918 H   0  0  0  0  0  0  0  0  0  0  0  0
   -2.8587    1.6648   -1.2995 H   0  0  0  0  0  0  0  0  0  0  0  0
   -2.3470    0.0679   -1.8830 H   0  0  0  0  0  0  0  0  0  0  0  0
   -4.0212    0.3385   -1.4025 H   0  0  0  0  0  0  0  0  0  0  0  0
    4.5885    0.2037   -0.4159 H   0  0  0  0  0  0  0  0  0  0  0  0
    3.7425    1.6858    0.0457 H   0  0  0  0  0  0  0  0  0  0  0  0
    3.8800    0.3513    1.2025 H   0  0  0  0  0  0  0  0  0  0  0  0
    1.6559   -1.8539   -0.7317 H   0  0  0  0  0  0  0  0  0  0  0  0
    2.4342   -1.7189    0.6960 H   0  0  0  0  0  0  0  0  0  0  0  0
  1  6  1  0  0  0  0
  1 27  1  0  0  0  0
  1 28  1  0  0  0  0
  2  3  1  0  0  0  0
  2  4  1  0  0  0  0
  2 10  1  0  0  0  0
  2 11  1  0  0  0  0
  3  5  1  0  0  0  0
  3 12  1  0  0  0  0
  3 13  1  0  0  0  0
  4  7  1  0  0  0  0
  4  8  1  0  0  0  0
  4 14  1  0  0  0  0
  5  6  1  0  0  0  0
  5 15  1  0  0  0  0
  5 16  1  0  0  0  0
  6  9  1  0  0  0  0
  6 17  1  0  0  0  0
  7 18  1  0  0  0  0
  7 19  1  0  0  0  0
  7 20  1  0  0  0  0
  8 21  1  0  0  0  0
  8 22  1  0  0  0  0
  8 23  1  0  0  0  0
  9 24  1  0  0  0  0
  9 25  1  0  0  0  0
  9 26  1  0  0  0  0
M  END
> <PUBCHEM_COMPOUND_CID>
10982

> <PUBCHEM_CONFORMER_RMSD>
0.6

> <PUBCHEM_CONFORMER_DIVERSEORDER>
4
11
9
5
8
6
10
1
2
7
3

> <PUBCHEM_MMFF94_PARTIAL_CHARGES>
4
1 -0.99
27 0.36
28 0.36
6 0.27

> <PUBCHEM_EFFECTIVE_ROTOR_COUNT>
4

> <PUBCHEM_PHARMACOPHORE_FEATURES>
4
1 1 cation
1 1 donor
3 4 7 8 hydrophobe
4 2 3 4 5 hydrophobe

> <PUBCHEM_HEAVY_ATOM_COUNT>
9

> <PUBCHEM_ATOM_DEF_STEREO_COUNT>
0

> <PUBCHEM_ATOM_UDEF_STEREO_COUNT>
1

> <PUBCHEM_BOND_DEF_STEREO_COUNT>
0

> <PUBCHEM_BOND_UDEF_STEREO_COUNT>
0

> <PUBCHEM_ISOTOPIC_ATOM_COUNT>
0

> <PUBCHEM_COMPONENT_COUNT>
1

> <PUBCHEM_CACTVS_TAUTO_COUNT>
1

> <PUBCHEM_CONFORMER_ID>
00002AE600000004

> <PUBCHEM_MMFF94_ENERGY>
1.0717

> <PUBCHEM_FEATURE_SELFOVERLAP>
20.369

> <PUBCHEM_SHAPE_FINGERPRINT>
11062470 55 18411982468142094889
12897270 3 18412262843638696401
12932741 1 18339090302129686041
12932764 1 17632294588046537553
14325111 11 18408881849783650128
14390081 3 15769774654283107621
20201158 50 18408885135338854954
20279233 1 18413109467560389919
20645477 56 18060140968232129541
20645477 70 18188775070784649766
20651381 32 18337396031761991324
20653085 51 17489583506743013725
22169311 21 18413113870049665338
23402539 116 17417822725131063428
3248919 1 18335985345537858560
42627469 27 14548740637729074285

> <PUBCHEM_SHAPE_MULTIPOLES>
180.23
6.47
1.17
0.89
2.28
0.44
0.11
0.23
0.59
-0.16
-0.01
-0.48
-0.12
0.51

> <PUBCHEM_SHAPE_SELFOVERLAP>
318.807

> <PUBCHEM_SHAPE_VOLUME>
118.1

> <PUBCHEM_COORDINATE_TYPE>
2
5
10

$$$$

