586302
  -OEChem-06241222462D

 27 28  0     1  0  0  0  0  0999 V2000
    3.7601   -1.7504    0.0000 O   0  0  0  0  0  0  0  0  0  0  0  0
    5.3461    1.4369    0.0000 C   0  0  3  0  0  0  0  0  0  0  0  0
    5.0873    0.4709    0.0000 C   0  0  3  0  0  0  0  0  0  0  0  0
    4.6095    2.4195    0.0000 C   0  0  0  0  0  0  0  0  0  0  0  0
    7.1781    0.6780    0.0000 C   0  0  0  0  0  0  0  0  0  0  0  0
    6.9193   -0.2879    0.0000 C   0  0  0  0  0  0  0  0  0  0  0  0
    2.7431    0.6291    0.0000 C   0  0  3  0  0  0  0  0  0  0  0  0
    3.5522   -0.7722    0.0000 C   0  0  0  0  0  0  0  0  0  0  0  0
    2.6386   -0.3655    0.0000 C   0  0  0  0  0  0  0  0  0  0  0  0
    2.0000    1.2982    0.0000 C   0  0  0  0  0  0  0  0  0  0  0  0
    3.0169   -2.4195    0.0000 C   0  0  0  0  0  0  0  0  0  0  0  0
    5.3177    0.8175    0.0000 H   0  0  0  0  0  0  0  0  0  0  0  0
    5.1763   -0.1426    0.0000 H   0  0  0  0  0  0  0  0  0  0  0  0
    4.9273    2.9518    0.0000 H   0  0  0  0  0  0  0  0  0  0  0  0
    3.9964    2.5114    0.0000 H   0  0  0  0  0  0  0  0  0  0  0  0
    7.7694    0.4916    0.0000 H   0  0  0  0  0  0  0  0  0  0  0  0
    7.3901    1.2607    0.0000 H   0  0  0  0  0  0  0  0  0  0  0  0
    6.7072   -0.8705    0.0000 H   0  0  0  0  0  0  0  0  0  0  0  0
    7.5106   -0.4743    0.0000 H   0  0  0  0  0  0  0  0  0  0  0  0
    2.1643    0.4069    0.0000 H   0  0  0  0  0  0  0  0  0  0  0  0
    2.1017   -0.6755    0.0000 H   0  0  0  0  0  0  0  0  0  0  0  0
    2.4149    1.7589    0.0000 H   0  0  0  0  0  0  0  0  0  0  0  0
    1.5392    1.7130    0.0000 H   0  0  0  0  0  0  0  0  0  0  0  0
    1.5851    0.8374    0.0000 H   0  0  0  0  0  0  0  0  0  0  0  0
    2.6021   -1.9587    0.0000 H   0  0  0  0  0  0  0  0  0  0  0  0
    2.5562   -2.8343    0.0000 H   0  0  0  0  0  0  0  0  0  0  0  0
    3.4318   -2.8802    0.0000 H   0  0  0  0  0  0  0  0  0  0  0  0
  1  8  1  0  0  0  0
  1 11  1  0  0  0  0
  2  4  1  0  0  0  0
  2  5  1  0  0  0  0
  2  7  1  0  0  0  0
  2 12  1  0  0  0  0
  3  4  1  0  0  0  0
  3  6  1  0  0  0  0
  3  8  1  0  0  0  0
  3 13  1  0  0  0  0
  4 14  1  0  0  0  0
  4 15  1  0  0  0  0
  5  6  1  0  0  0  0
  5 16  1  0  0  0  0
  5 17  1  0  0  0  0
  6 18  1  0  0  0  0
  6 19  1  0  0  0  0
  7  9  1  0  0  0  0
  7 10  1  0  0  0  0
  7 20  1  0  0  0  0
  8  9  2  0  0  0  0
  9 21  1  0  0  0  0
 10 22  1  0  0  0  0
 10 23  1  0  0  0  0
 10 24  1  0  0  0  0
 11 25  1  0  0  0  0
 11 26  1  0  0  0  0
 11 27  1  0  0  0  0
M  END
> <PUBCHEM_COMPOUND_CID>
586302

> <PUBCHEM_COMPOUND_CANONICALIZED>
1

> <PUBCHEM_CACTVS_COMPLEXITY>
183

> <PUBCHEM_CACTVS_HBOND_ACCEPTOR>
1

> <PUBCHEM_CACTVS_HBOND_DONOR>
0

> <PUBCHEM_CACTVS_ROTATABLE_BOND>
1

> <PUBCHEM_CACTVS_SUBSKEYS>
AAADceBwIAAAAAAAAAAAAAAAAAAAAYAAAAAgAAAABAAAAAAAAAAAGgAAAAAADQSAgAICAAAABACAACBCAAAACAAgIAAACAAAAAgAAAIAAQAAAAAEgAAIAAOAwHAOgAAAAAAAAAAAAAAAAAAAAQAAAAAAAA==

> <PUBCHEM_IUPAC_OPENEYE_NAME>
4-methoxy-2-methyl-bicyclo[3.2.1]oct-3-ene

> <PUBCHEM_IUPAC_CAS_NAME>
4-methoxy-2-methylbicyclo[3.2.1]oct-3-ene

> <PUBCHEM_IUPAC_NAME>
4-methoxy-2-methylbicyclo[3.2.1]oct-3-ene

> <PUBCHEM_IUPAC_SYSTEMATIC_NAME>
4-methoxy-2-methyl-bicyclo[3.2.1]oct-3-ene

> <PUBCHEM_IUPAC_TRADITIONAL_NAME>
4-methoxy-2-methyl-bicyclo[3.2.1]oct-3-ene

> <PUBCHEM_IUPAC_INCHI>
InChI=1S/C10H16O/c1-7-5-10(11-2)9-4-3-8(7)6-9/h5,7-9H,3-4,6H2,1-2H3

> <PUBCHEM_IUPAC_INCHIKEY>
PDUGPAJRHTZLSP-UHFFFAOYSA-N

> <PUBCHEM_XLOGP3_AA>
2.5

> <PUBCHEM_EXACT_MASS>
152.120115

> <PUBCHEM_MOLECULAR_FORMULA>
C10H16O

> <PUBCHEM_MOLECULAR_WEIGHT>
152.23344

> <PUBCHEM_OPENEYE_CAN_SMILES>
CC1C=C(C2CCC1C2)OC

> <PUBCHEM_OPENEYE_ISO_SMILES>
CC1C=C(C2CCC1C2)OC

> <PUBCHEM_CACTVS_TPSA>
9.2

> <PUBCHEM_MONOISOTOPIC_WEIGHT>
152.120115

> <PUBCHEM_TOTAL_CHARGE>
0

> <PUBCHEM_HEAVY_ATOM_COUNT>
11

> <PUBCHEM_ATOM_DEF_STEREO_COUNT>
0

> <PUBCHEM_ATOM_UDEF_STEREO_COUNT>
3

> <PUBCHEM_BOND_DEF_STEREO_COUNT>
0

> <PUBCHEM_BOND_UDEF_STEREO_COUNT>
0

> <PUBCHEM_ISOTOPIC_ATOM_COUNT>
0

> <PUBCHEM_COMPONENT_COUNT>
1

> <PUBCHEM_CACTVS_TAUTO_COUNT>
1

> <PUBCHEM_COORDINATE_TYPE>
1
5
255

> <PUBCHEM_BONDANNOTATIONS>
2  4  3
3  4  3
7  10  3

$$$$

