3437
  -OEChem-06251223252D

 30 32  0     0  0  0  0  0  0999 V2000
    8.1424   -0.8047    0.0000 O   0  0  0  0  0  0  0  0  0  0  0  0
   10.2260   -0.8660    0.0000 O   0  0  0  0  0  0  0  0  0  0  0  0
   10.2260    0.8660    0.0000 O   0  0  0  0  0  0  0  0  0  0  0  0
    2.8660   -1.0000    0.0000 N   0  0  0  0  0  0  0  0  0  0  0  0
    5.4641    0.5000    0.0000 C   0  0  0  0  0  0  0  0  0  0  0  0
    4.5981    1.0000    0.0000 C   0  0  0  0  0  0  0  0  0  0  0  0
    7.1962    0.5000    0.0000 C   0  0  0  0  0  0  0  0  0  0  0  0
    6.3301    1.0000    0.0000 C   0  0  0  0  0  0  0  0  0  0  0  0
    7.1962   -0.5000    0.0000 C   0  0  0  0  0  0  0  0  0  0  0  0
    5.4641   -0.5000    0.0000 C   0  0  0  0  0  0  0  0  0  0  0  0
    6.3301   -1.0000    0.0000 C   0  0  0  0  0  0  0  0  0  0  0  0
    3.7320    0.5000    0.0000 C   0  0  0  0  0  0  0  0  0  0  0  0
    8.1424    0.8047    0.0000 C   0  0  0  0  0  0  0  0  0  0  0  0
    8.7260    0.0000    0.0000 C   0  0  0  0  0  0  0  0  0  0  0  0
    2.8660    1.0000    0.0000 C   0  0  0  0  0  0  0  0  0  0  0  0
    3.7320   -0.5000    0.0000 C   0  0  0  0  0  0  0  0  0  0  0  0
    2.0000    0.5000    0.0000 C   0  0  0  0  0  0  0  0  0  0  0  0
    9.7260    0.0000    0.0000 C   0  0  0  0  0  0  0  0  0  0  0  0
    2.0000   -0.5000    0.0000 C   0  0  0  0  0  0  0  0  0  0  0  0
    4.9966    1.4750    0.0000 H   0  0  0  0  0  0  0  0  0  0  0  0
    4.1996    1.4750    0.0000 H   0  0  0  0  0  0  0  0  0  0  0  0
    6.3301    1.6200    0.0000 H   0  0  0  0  0  0  0  0  0  0  0  0
    4.9272   -0.8100    0.0000 H   0  0  0  0  0  0  0  0  0  0  0  0
    6.3301   -1.6200    0.0000 H   0  0  0  0  0  0  0  0  0  0  0  0
    8.3350    1.3941    0.0000 H   0  0  0  0  0  0  0  0  0  0  0  0
    2.8660    1.6200    0.0000 H   0  0  0  0  0  0  0  0  0  0  0  0
    4.2690   -0.8100    0.0000 H   0  0  0  0  0  0  0  0  0  0  0  0
    1.4631    0.8100    0.0000 H   0  0  0  0  0  0  0  0  0  0  0  0
    1.4631   -0.8100    0.0000 H   0  0  0  0  0  0  0  0  0  0  0  0
   10.8460   -0.8660    0.0000 H   0  0  0  0  0  0  0  0  0  0  0  0
  1  9  1  0  0  0  0
  1 14  1  0  0  0  0
  2 18  1  0  0  0  0
  2 30  1  0  0  0  0
  3 18  2  0  0  0  0
  4 16  1  0  0  0  0
  4 19  2  0  0  0  0
  5  6  1  0  0  0  0
  5  8  2  0  0  0  0
  5 10  1  0  0  0  0
  6 12  1  0  0  0  0
  6 20  1  0  0  0  0
  6 21  1  0  0  0  0
  7  8  1  0  0  0  0
  7  9  2  0  0  0  0
  7 13  1  0  0  0  0
  8 22  1  0  0  0  0
  9 11  1  0  0  0  0
 10 11  2  0  0  0  0
 10 23  1  0  0  0  0
 11 24  1  0  0  0  0
 12 15  1  0  0  0  0
 12 16  2  0  0  0  0
 13 14  2  0  0  0  0
 13 25  1  0  0  0  0
 14 18  1  0  0  0  0
 15 17  2  0  0  0  0
 15 26  1  0  0  0  0
 16 27  1  0  0  0  0
 17 19  1  0  0  0  0
 17 28  1  0  0  0  0
 19 29  1  0  0  0  0
M  END
> <PUBCHEM_COMPOUND_CID>
3437

> <PUBCHEM_COMPOUND_CANONICALIZED>
1

> <PUBCHEM_CACTVS_COMPLEXITY>
333

> <PUBCHEM_CACTVS_HBOND_ACCEPTOR>
4

> <PUBCHEM_CACTVS_HBOND_DONOR>
1

> <PUBCHEM_CACTVS_ROTATABLE_BOND>
3

> <PUBCHEM_CACTVS_SUBSKEYS>
AAADccByMAAAAAAAAAAAAAAAAAAAASAAAAA8QAAAAAAAAEgB/AAAHgAACAAADATBmgQ8jtIIFkCoArD3TAKCiCA1IiAI2CF+bNgNJvLEtZ+GeSjkwBHL+YeY7vTuIAACAAAIAABAAAQAABAAAAAAAAAAAA==

> <PUBCHEM_IUPAC_OPENEYE_NAME>
5-(3-pyridylmethyl)benzofuran-2-carboxylic acid

> <PUBCHEM_IUPAC_CAS_NAME>
5-(3-pyridinylmethyl)-2-benzofurancarboxylic acid

> <PUBCHEM_IUPAC_NAME>
5-(pyridin-3-ylmethyl)-1-benzofuran-2-carboxylic acid

> <PUBCHEM_IUPAC_SYSTEMATIC_NAME>
5-(pyridin-3-ylmethyl)-1-benzofuran-2-carboxylic acid

> <PUBCHEM_IUPAC_TRADITIONAL_NAME>
5-(3-pyridylmethyl)coumarilic acid

> <PUBCHEM_IUPAC_INCHI>
InChI=1S/C15H11NO3/c17-15(18)14-8-12-7-10(3-4-13(12)19-14)6-11-2-1-5-16-9-11/h1-5,7-9H,6H2,(H,17,18)

> <PUBCHEM_IUPAC_INCHIKEY>
VHWFITPGPFLBGT-UHFFFAOYSA-N

> <PUBCHEM_XLOGP3_AA>
3

> <PUBCHEM_EXACT_MASS>
253.073893

> <PUBCHEM_MOLECULAR_FORMULA>
C15H11NO3

> <PUBCHEM_MOLECULAR_WEIGHT>
253.25274

> <PUBCHEM_OPENEYE_CAN_SMILES>
C1=CC(=CN=C1)CC2=CC3=C(C=C2)OC(=C3)C(=O)O

> <PUBCHEM_OPENEYE_ISO_SMILES>
C1=CC(=CN=C1)CC2=CC3=C(C=C2)OC(=C3)C(=O)O

> <PUBCHEM_CACTVS_TPSA>
63.3

> <PUBCHEM_MONOISOTOPIC_WEIGHT>
253.073893

> <PUBCHEM_TOTAL_CHARGE>
0

> <PUBCHEM_HEAVY_ATOM_COUNT>
19

> <PUBCHEM_ATOM_DEF_STEREO_COUNT>
0

> <PUBCHEM_ATOM_UDEF_STEREO_COUNT>
0

> <PUBCHEM_BOND_DEF_STEREO_COUNT>
0

> <PUBCHEM_BOND_UDEF_STEREO_COUNT>
0

> <PUBCHEM_ISOTOPIC_ATOM_COUNT>
0

> <PUBCHEM_COMPONENT_COUNT>
1

> <PUBCHEM_CACTVS_TAUTO_COUNT>
1

> <PUBCHEM_COORDINATE_TYPE>
1
5
255

> <PUBCHEM_BONDANNOTATIONS>
1  14  8
1  9  8
10  11  8
12  15  8
12  16  8
13  14  8
15  17  8
17  19  8
4  16  8
4  19  8
5  10  8
5  8  8
7  13  8
7  8  8
7  9  8
9  11  8

$$$$

