17395651
  -OEChem-06241222512D

 36 38  0     0  0  0  0  0  0999 V2000
    9.8418    1.8020    0.0000 S   0  0  0  0  0  0  0  0  0  0  0  0
    2.0000   -0.7912    0.0000 F   0  0  0  0  0  0  0  0  0  0  0  0
    8.0622    0.7088    0.0000 O   0  0  0  0  0  0  0  0  0  0  0  0
    7.1962    2.2088    0.0000 O   0  0  0  0  0  0  0  0  0  0  0  0
    5.4641   -2.7912    0.0000 N   0  0  0  0  0  0  0  0  0  0  0  0
    6.3301   -1.2912    0.0000 N   0  0  0  0  0  0  0  0  0  0  0  0
    8.0622   -1.2912    0.0000 N   0  0  0  0  0  0  0  0  0  0  0  0
    7.1962   -2.7912    0.0000 N   0  0  0  0  0  0  0  0  0  0  0  0
    8.9282   -2.7912    0.0000 N   0  0  0  0  0  0  0  0  0  0  0  0
    4.5981   -2.2912    0.0000 C   0  0  0  0  0  0  0  0  0  0  0  0
    7.1962   -0.7912    0.0000 C   0  0  0  0  0  0  0  0  0  0  0  0
    6.3301   -2.2912    0.0000 C   0  0  0  0  0  0  0  0  0  0  0  0
    7.1962    0.2088    0.0000 C   0  0  0  0  0  0  0  0  0  0  0  0
    4.5981   -1.2912    0.0000 C   0  0  0  0  0  0  0  0  0  0  0  0
    3.7320   -2.7912    0.0000 C   0  0  0  0  0  0  0  0  0  0  0  0
    3.7320   -0.7912    0.0000 C   0  0  0  0  0  0  0  0  0  0  0  0
    2.8660   -2.2912    0.0000 C   0  0  0  0  0  0  0  0  0  0  0  0
    8.0622   -2.2912    0.0000 C   0  0  0  0  0  0  0  0  0  0  0  0
    2.8660   -1.2912    0.0000 C   0  0  0  0  0  0  0  0  0  0  0  0
    8.9282    2.2088    0.0000 C   0  0  0  0  0  0  0  0  0  0  0  0
    8.0622    1.7088    0.0000 C   0  0  0  0  0  0  0  0  0  0  0  0
    9.0327    3.2033    0.0000 C   0  0  0  0  0  0  0  0  0  0  0  0
   10.0109    3.4112    0.0000 C   0  0  0  0  0  0  0  0  0  0  0  0
   10.5109    2.5452    0.0000 C   0  0  0  0  0  0  0  0  0  0  0  0
    6.9841    0.7914    0.0000 H   0  0  0  0  0  0  0  0  0  0  0  0
    6.5856    0.1011    0.0000 H   0  0  0  0  0  0  0  0  0  0  0  0
    5.4641   -3.4112    0.0000 H   0  0  0  0  0  0  0  0  0  0  0  0
    5.1350   -0.9812    0.0000 H   0  0  0  0  0  0  0  0  0  0  0  0
    3.7320   -3.4112    0.0000 H   0  0  0  0  0  0  0  0  0  0  0  0
    3.7320   -0.1712    0.0000 H   0  0  0  0  0  0  0  0  0  0  0  0
    2.3291   -2.6012    0.0000 H   0  0  0  0  0  0  0  0  0  0  0  0
    8.5720    3.6182    0.0000 H   0  0  0  0  0  0  0  0  0  0  0  0
   10.2631    3.9776    0.0000 H   0  0  0  0  0  0  0  0  0  0  0  0
   11.1275    2.4804    0.0000 H   0  0  0  0  0  0  0  0  0  0  0  0
    9.4651   -2.4812    0.0000 H   0  0  0  0  0  0  0  0  0  0  0  0
    8.9282   -3.4112    0.0000 H   0  0  0  0  0  0  0  0  0  0  0  0
  1 20  1  0  0  0  0
  1 24  1  0  0  0  0
  2 19  1  0  0  0  0
  3 13  1  0  0  0  0
  3 21  1  0  0  0  0
  4 21  2  0  0  0  0
  5 10  1  0  0  0  0
  5 12  1  0  0  0  0
  5 27  1  0  0  0  0
  6 11  1  0  0  0  0
  6 12  2  0  0  0  0
  7 11  2  0  0  0  0
  7 18  1  0  0  0  0
  8 12  1  0  0  0  0
  8 18  2  0  0  0  0
  9 18  1  0  0  0  0
  9 35  1  0  0  0  0
  9 36  1  0  0  0  0
 10 14  2  0  0  0  0
 10 15  1  0  0  0  0
 11 13  1  0  0  0  0
 13 25  1  0  0  0  0
 13 26  1  0  0  0  0
 14 16  1  0  0  0  0
 14 28  1  0  0  0  0
 15 17  2  0  0  0  0
 15 29  1  0  0  0  0
 16 19  2  0  0  0  0
 16 30  1  0  0  0  0
 17 19  1  0  0  0  0
 17 31  1  0  0  0  0
 20 21  1  0  0  0  0
 20 22  2  0  0  0  0
 22 23  1  0  0  0  0
 22 32  1  0  0  0  0
 23 24  2  0  0  0  0
 23 33  1  0  0  0  0
 24 34  1  0  0  0  0
M  END
> <PUBCHEM_COMPOUND_CID>
17395651

> <PUBCHEM_COMPOUND_CANONICALIZED>
1

> <PUBCHEM_CACTVS_COMPLEXITY>
425

> <PUBCHEM_CACTVS_HBOND_ACCEPTOR>
9

> <PUBCHEM_CACTVS_HBOND_DONOR>
2

> <PUBCHEM_CACTVS_ROTATABLE_BOND>
6

> <PUBCHEM_CACTVS_SUBSKEYS>
AAADccBzsQBAAAAAAAAAAAAAAAAAASAAAAA8QAAAAAAAAAAB8AAAHwQQAAAACAil0wqx2YbIFAisACbybASDgIklCrBJiBkQbMiKLjLgvZmHMQhs0AN46aeYAAAAAAAAAAAAAAAAAAAAAAAAAAAAAAAAAA==

> <PUBCHEM_IUPAC_OPENEYE_NAME>
[4-amino-6-(4-fluoroanilino)-1,3,5-triazin-2-yl]methyl thiophene-2-carboxylate

> <PUBCHEM_IUPAC_CAS_NAME>
2-thiophenecarboxylic acid [4-amino-6-(4-fluoroanilino)-1,3,5-triazin-2-yl]methyl ester

> <PUBCHEM_IUPAC_NAME>
[4-amino-6-(4-fluoroanilino)-1,3,5-triazin-2-yl]methyl thiophene-2-carboxylate

> <PUBCHEM_IUPAC_SYSTEMATIC_NAME>
[4-azanyl-6-[(4-fluorophenyl)amino]-1,3,5-triazin-2-yl]methyl thiophene-2-carboxylate

> <PUBCHEM_IUPAC_TRADITIONAL_NAME>
thiophene-2-carboxylic acid [4-amino-6-(4-fluoroanilino)-s-triazin-2-yl]methyl ester

> <PUBCHEM_IUPAC_INCHI>
InChI=1S/C15H12FN5O2S/c16-9-3-5-10(6-4-9)18-15-20-12(19-14(17)21-15)8-23-13(22)11-2-1-7-24-11/h1-7H,8H2,(H3,17,18,19,20,21)

> <PUBCHEM_IUPAC_INCHIKEY>
CNFITMWYGICWJH-UHFFFAOYSA-N

> <PUBCHEM_XLOGP3_AA>
3

> <PUBCHEM_EXACT_MASS>
345.069574

> <PUBCHEM_MOLECULAR_FORMULA>
C15H12FN5O2S

> <PUBCHEM_MOLECULAR_WEIGHT>
345.351483

> <PUBCHEM_OPENEYE_CAN_SMILES>
C1=CSC(=C1)C(=O)OCC2=NC(=NC(=N2)NC3=CC=C(C=C3)F)N

> <PUBCHEM_OPENEYE_ISO_SMILES>
C1=CSC(=C1)C(=O)OCC2=NC(=NC(=N2)NC3=CC=C(C=C3)F)N

> <PUBCHEM_CACTVS_TPSA>
131

> <PUBCHEM_MONOISOTOPIC_WEIGHT>
345.069574

> <PUBCHEM_TOTAL_CHARGE>
0

> <PUBCHEM_HEAVY_ATOM_COUNT>
24

> <PUBCHEM_ATOM_DEF_STEREO_COUNT>
0

> <PUBCHEM_ATOM_UDEF_STEREO_COUNT>
0

> <PUBCHEM_BOND_DEF_STEREO_COUNT>
0

> <PUBCHEM_BOND_UDEF_STEREO_COUNT>
0

> <PUBCHEM_ISOTOPIC_ATOM_COUNT>
0

> <PUBCHEM_COMPONENT_COUNT>
1

> <PUBCHEM_CACTVS_TAUTO_COUNT>
9

> <PUBCHEM_COORDINATE_TYPE>
1
5
255

> <PUBCHEM_BONDANNOTATIONS>
1  20  8
1  24  8
10  14  8
10  15  8
14  16  8
15  17  8
16  19  8
17  19  8
20  22  8
22  23  8
23  24  8
6  11  8
6  12  8
7  11  8
7  18  8
8  12  8
8  18  8

$$$$

