7073
  -OEChem-06261201433D

 31 31  0     0  0  0  0  0  0999 V2000
    1.6540    3.7631   -0.1829 O   0  0  0  0  0  0  0  0  0  0  0  0
    3.5669   -2.4906    0.3198 O   0  0  0  0  0  0  0  0  0  0  0  0
    1.0316    0.1458   -0.0245 N   0  0  0  0  0  0  0  0  0  0  0  0
    1.3680    1.4679    0.4649 C   0  0  0  0  0  0  0  0  0  0  0  0
    2.0967   -0.7476   -0.4348 C   0  0  0  0  0  0  0  0  0  0  0  0
   -0.3144   -0.2710   -0.0880 C   0  0  0  0  0  0  0  0  0  0  0  0
   -1.3320    0.5900    0.3223 C   0  0  0  0  0  0  0  0  0  0  0  0
    1.3574    2.4647   -0.6815 C   0  0  0  0  0  0  0  0  0  0  0  0
    2.5474   -1.5944    0.7433 C   0  0  0  0  0  0  0  0  0  0  0  0
   -0.6275   -1.5455   -0.5606 C   0  0  0  0  0  0  0  0  0  0  0  0
   -2.6628    0.1767    0.2601 C   0  0  0  0  0  0  0  0  0  0  0  0
   -1.9583   -1.9589   -0.6230 C   0  0  0  0  0  0  0  0  0  0  0  0
   -2.9759   -1.0977   -0.2126 C   0  0  0  0  0  0  0  0  0  0  0  0
   -3.7512    1.0975    0.6973 C   0  0  0  0  0  0  0  0  0  0  0  0
    2.3837    1.4526    0.8852 H   0  0  0  0  0  0  0  0  0  0  0  0
    0.7641    1.8003    1.3167 H   0  0  0  0  0  0  0  0  0  0  0  0
    2.9590   -0.1540   -0.7703 H   0  0  0  0  0  0  0  0  0  0  0  0
    1.8644   -1.3497   -1.3202 H   0  0  0  0  0  0  0  0  0  0  0  0
   -1.1466    1.5969    0.6800 H   0  0  0  0  0  0  0  0  0  0  0  0
    0.3791    2.5119   -1.1692 H   0  0  0  0  0  0  0  0  0  0  0  0
    2.0978    2.2085   -1.4469 H   0  0  0  0  0  0  0  0  0  0  0  0
    1.7266   -2.1933    1.1493 H   0  0  0  0  0  0  0  0  0  0  0  0
    2.9426   -0.9777    1.5576 H   0  0  0  0  0  0  0  0  0  0  0  0
    0.1142   -2.2691   -0.8786 H   0  0  0  0  0  0  0  0  0  0  0  0
   -2.2027   -2.9524   -0.9877 H   0  0  0  0  0  0  0  0  0  0  0  0
   -4.0084   -1.4323   -0.2676 H   0  0  0  0  0  0  0  0  0  0  0  0
   -3.4666    1.6291    1.6117 H   0  0  0  0  0  0  0  0  0  0  0  0
   -3.9618    1.8302   -0.0881 H   0  0  0  0  0  0  0  0  0  0  0  0
   -4.6754    0.5523    0.9173 H   0  0  0  0  0  0  0  0  0  0  0  0
    2.5374    3.7268    0.2219 H   0  0  0  0  0  0  0  0  0  0  0  0
    4.3083   -1.9556   -0.0115 H   0  0  0  0  0  0  0  0  0  0  0  0
  1  8  1  0  0  0  0
  1 30  1  0  0  0  0
  2  9  1  0  0  0  0
  2 31  1  0  0  0  0
  3  4  1  0  0  0  0
  3  5  1  0  0  0  0
  3  6  1  0  0  0  0
  4  8  1  0  0  0  0
  4 15  1  0  0  0  0
  4 16  1  0  0  0  0
  5  9  1  0  0  0  0
  5 17  1  0  0  0  0
  5 18  1  0  0  0  0
  6  7  1  0  0  0  0
  6 10  2  0  0  0  0
  7 11  2  0  0  0  0
  7 19  1  0  0  0  0
  8 20  1  0  0  0  0
  8 21  1  0  0  0  0
  9 22  1  0  0  0  0
  9 23  1  0  0  0  0
 10 12  1  0  0  0  0
 10 24  1  0  0  0  0
 11 13  1  0  0  0  0
 11 14  1  0  0  0  0
 12 13  2  0  0  0  0
 12 25  1  0  0  0  0
 13 26  1  0  0  0  0
 14 27  1  0  0  0  0
 14 28  1  0  0  0  0
 14 29  1  0  0  0  0
M  END
> <PUBCHEM_COMPOUND_CID>
7073

> <PUBCHEM_CONFORMER_RMSD>
0.6

> <PUBCHEM_CONFORMER_DIVERSEORDER>
9
62
85
80
75
57
27
36
64
25
74
88
67
51
77
18
44
78
31
87
7
71
70
2
81
32
73
14
66
58
20
61
76
43
69
63
3
50
82
46
24
22
55
47
45
21
26
53
5
56
49
52
38
30
6
86
72
60
42
84
59
29
40
17
23
33
37
13
65
19
48
15
35
54
34
41
83
1
39
11
8
16
79
28
12
68
4
10

> <PUBCHEM_MMFF94_PARTIAL_CHARGES>
20
1 -0.68
10 -0.15
11 -0.14
12 -0.15
13 -0.15
14 0.14
19 0.15
2 -0.68
24 0.15
25 0.15
26 0.15
3 -0.84
30 0.4
31 0.4
4 0.37
5 0.37
6 0.1
7 -0.15
8 0.28
9 0.28

> <PUBCHEM_EFFECTIVE_ROTOR_COUNT>
5

> <PUBCHEM_PHARMACOPHORE_FEATURES>
6
1 1 acceptor
1 1 donor
1 2 acceptor
1 2 donor
1 3 cation
6 6 7 10 11 12 13 rings

> <PUBCHEM_HEAVY_ATOM_COUNT>
14

> <PUBCHEM_ATOM_DEF_STEREO_COUNT>
0

> <PUBCHEM_ATOM_UDEF_STEREO_COUNT>
0

> <PUBCHEM_BOND_DEF_STEREO_COUNT>
0

> <PUBCHEM_BOND_UDEF_STEREO_COUNT>
0

> <PUBCHEM_ISOTOPIC_ATOM_COUNT>
0

> <PUBCHEM_COMPONENT_COUNT>
1

> <PUBCHEM_CACTVS_TAUTO_COUNT>
1

> <PUBCHEM_CONFORMER_ID>
00001BA100000009

> <PUBCHEM_MMFF94_ENERGY>
44.3365

> <PUBCHEM_FEATURE_SELFOVERLAP>
30.446

> <PUBCHEM_SHAPE_FINGERPRINT>
10130415 120 18270678795796922314
11357001 24 17694232462099579834
13380536 55 18191868912042871173
14648413 74 18411413973454271507
15279308 51 18335147487623388727
15375462 189 18058452174106330786
15442244 35 18408886260699251867
15490181 8 17981892938950841682
16945 1 17829052005201253003
17041 49 18338513139902460003
18511873 20 18335701701776918699
201361 129 18267015051280873936
20511035 2 18041286473670883975
20559304 39 18336830775368959986
20671657 1 18338228271886125004
207724 885 18337673121666990963
21029758 27 18269261533966913450
21130352 189 18340210803051647437
21501502 16 18261954038292507495
21524375 3 17758111506213605396
22094290 62 18408880763426150977
2255824 54 18340202986374634062
23402539 116 17973177398098370397
23463225 33 18338234997873631678
23552423 10 18266180526266053695
23557571 272 14345792730424930011
23598291 2 18408886239235114431
23598294 1 17764597912084625418
2748010 2 17469307593214008647
305870 269 18124316004280424292
3071541 12 18339075974203214996
4175511 71 18339356473958319490
43471831 8 17907020569164954626
6992083 37 18190735521623263771
7364860 26 18337110043080653028
74978 22 18410857642288338719
81228 2 17904751529584639032
90316 7 18123763207703264738
9939556 21 18335702715447027743

> <PUBCHEM_SHAPE_MULTIPOLES>
271.39
5.33
3.25
0.82
1.47
2.23
-0.01
-1.3
-0.94
-2.97
0.34
0
-0.03
-1.09

> <PUBCHEM_SHAPE_SELFOVERLAP>
544.412

> <PUBCHEM_SHAPE_VOLUME>
160.9

> <PUBCHEM_COORDINATE_TYPE>
2
5
10

$$$$

