12488
  -OEChem-06261207003D

 12 12  0     0  0  0  0  0  0999 V2000
   -2.9467    1.8858   -0.0007 I   0  0  0  0  0  0  0  0  0  0  0  0
   -2.9468   -1.8857    0.0004 I   0  0  0  0  0  0  0  0  0  0  0  0
    2.9467    1.8857    0.0002 I   0  0  0  0  0  0  0  0  0  0  0  0
    2.9469   -1.8856    0.0002 I   0  0  0  0  0  0  0  0  0  0  0  0
   -1.2079    0.6976    0.0007 C   0  0  0  0  0  0  0  0  0  0  0  0
   -1.2081   -0.6973    0.0001 C   0  0  0  0  0  0  0  0  0  0  0  0
    1.2080    0.6973   -0.0002 C   0  0  0  0  0  0  0  0  0  0  0  0
    1.2079   -0.6976   -0.0007 C   0  0  0  0  0  0  0  0  0  0  0  0
    0.0001    1.3949    0.0006 C   0  0  0  0  0  0  0  0  0  0  0  0
   -0.0002   -1.3950   -0.0006 C   0  0  0  0  0  0  0  0  0  0  0  0
    0.0002    2.4832    0.0008 H   0  0  0  0  0  0  0  0  0  0  0  0
   -0.0003   -2.4833   -0.0008 H   0  0  0  0  0  0  0  0  0  0  0  0
  1  5  1  0  0  0  0
  2  6  1  0  0  0  0
  3  7  1  0  0  0  0
  4  8  1  0  0  0  0
  5  6  2  0  0  0  0
  5  9  1  0  0  0  0
  6 10  1  0  0  0  0
  7  8  1  0  0  0  0
  7  9  2  0  0  0  0
  8 10  2  0  0  0  0
  9 11  1  0  0  0  0
 10 12  1  0  0  0  0
M  END
> <PUBCHEM_COMPOUND_CID>
12488

> <PUBCHEM_CONFORMER_RMSD>
0.4

> <PUBCHEM_CONFORMER_DIVERSEORDER>
1

> <PUBCHEM_MMFF94_PARTIAL_CHARGES>
12
1 -0.08
10 -0.15
11 0.15
12 0.15
2 -0.08
3 -0.08
4 -0.08
5 0.08
6 0.08
7 0.08
8 0.08
9 -0.15

> <PUBCHEM_EFFECTIVE_ROTOR_COUNT>
0

> <PUBCHEM_PHARMACOPHORE_FEATURES>
5
1 1 hydrophobe
1 2 hydrophobe
1 3 hydrophobe
1 4 hydrophobe
6 5 6 7 8 9 10 rings

> <PUBCHEM_HEAVY_ATOM_COUNT>
10

> <PUBCHEM_ATOM_DEF_STEREO_COUNT>
0

> <PUBCHEM_ATOM_UDEF_STEREO_COUNT>
0

> <PUBCHEM_BOND_DEF_STEREO_COUNT>
0

> <PUBCHEM_BOND_UDEF_STEREO_COUNT>
0

> <PUBCHEM_ISOTOPIC_ATOM_COUNT>
0

> <PUBCHEM_COMPONENT_COUNT>
1

> <PUBCHEM_CACTVS_TAUTO_COUNT>
1

> <PUBCHEM_CONFORMER_ID>
000030C800000001

> <PUBCHEM_MMFF94_ENERGY>
27.4211

> <PUBCHEM_FEATURE_SELFOVERLAP>
25.372

> <PUBCHEM_SHAPE_FINGERPRINT>
11680986 33 18336831982613433864
13140716 1 18410574032396091809
13380535 21 18410566288570413988
14325111 11 18410855451554389248
14576447 43 17682975288519394495
14648413 74 18410572928863822570
14897335 6 18410017640884559613
14911166 2 18122344845950321006
14993402 34 18050286169580634253
15442244 35 18338517550802217955
161256 15 18337383838555748166
16945 1 15744443396590141444
193761 8 15744442619206348646
20510252 161 18045778988141151344
20511035 2 18187941611090192166
20588541 1 18052818039917023138
20645477 70 18337961086619465039
20671657 1 18339634650527345084
20711985 365 18409731776741331831
21501502 16 18410573985151451143
2334 1 18410575054598307846
23402539 116 17975139746732664021
23402655 69 18263940873553539199
23526114 1 18410291410932144668
23552423 10 18342457041109459646
23558518 356 18272647931022810611
23559900 14 18191025814986153558
2748010 2 18410856563934757029
7364860 26 18335420171297643522

> <PUBCHEM_SHAPE_MULTIPOLES>
253.54
5.66
3.03
0.73
0
0
0
0
0
0
0
0
0
0

> <PUBCHEM_SHAPE_SELFOVERLAP>
436.535

> <PUBCHEM_SHAPE_VOLUME>
180.2

> <PUBCHEM_COORDINATE_TYPE>
2
5
10

$$$$

