582957
  -OEChem-06241222443D

 27 26  0     1  0  0  0  0  0999 V2000
    0.1069    1.7980    0.7798 O   0  0  0  0  0  0  0  0  0  0  0  0
   -2.2057   -0.6777    0.8733 O   0  0  0  0  0  0  0  0  0  0  0  0
    2.3022   -0.9661    0.2937 O   0  0  0  0  0  0  0  0  0  0  0  0
   -2.7178    0.6537   -0.9314 O   0  0  0  0  0  0  0  0  0  0  0  0
    2.6546    1.3114    0.3036 O   0  0  0  0  0  0  0  0  0  0  0  0
   -0.4156   -0.1228   -0.6095 C   0  0  0  0  0  0  0  0  0  0  0  0
    0.4106    0.4164    0.5871 C   0  0  1  0  0  0  0  0  0  0  0  0
   -0.1487    0.6613   -1.9070 C   0  0  0  0  0  0  0  0  0  0  0  0
   -0.1175   -1.6125   -0.8776 C   0  0  0  0  0  0  0  0  0  0  0  0
   -1.9090    0.0186   -0.2652 C   0  0  0  0  0  0  0  0  0  0  0  0
    1.9148    0.3392    0.3867 C   0  0  0  0  0  0  0  0  0  0  0  0
   -3.5757   -0.6375    1.2857 C   0  0  0  0  0  0  0  0  0  0  0  0
    3.7007   -1.1820    0.0808 C   0  0  0  0  0  0  0  0  0  0  0  0
    0.1666   -0.1028    1.5212 H   0  0  0  0  0  0  0  0  0  0  0  0
    0.9022    0.5928   -2.2083 H   0  0  0  0  0  0  0  0  0  0  0  0
   -0.3954    1.7233   -1.7969 H   0  0  0  0  0  0  0  0  0  0  0  0
   -0.7536    0.2739   -2.7357 H   0  0  0  0  0  0  0  0  0  0  0  0
   -0.0811   -2.1913    0.0522 H   0  0  0  0  0  0  0  0  0  0  0  0
   -0.9095   -2.0571   -1.4933 H   0  0  0  0  0  0  0  0  0  0  0  0
    0.8191   -1.7610   -1.4240 H   0  0  0  0  0  0  0  0  0  0  0  0
    0.5266    2.0768    1.6118 H   0  0  0  0  0  0  0  0  0  0  0  0
   -3.8761    0.3924    1.5007 H   0  0  0  0  0  0  0  0  0  0  0  0
   -3.6728   -1.2294    2.1996 H   0  0  0  0  0  0  0  0  0  0  0  0
   -4.2163   -1.0750    0.5142 H   0  0  0  0  0  0  0  0  0  0  0  0
    3.8736   -2.2600    0.0266 H   0  0  0  0  0  0  0  0  0  0  0  0
    4.2784   -0.7750    0.9161 H   0  0  0  0  0  0  0  0  0  0  0  0
    4.0138   -0.7283   -0.8644 H   0  0  0  0  0  0  0  0  0  0  0  0
  1  7  1  0  0  0  0
  1 21  1  0  0  0  0
  2 10  1  0  0  0  0
  2 12  1  0  0  0  0
  3 11  1  0  0  0  0
  3 13  1  0  0  0  0
  4 10  2  0  0  0  0
  5 11  2  0  0  0  0
  6  7  1  0  0  0  0
  6  8  1  0  0  0  0
  6  9  1  0  0  0  0
  6 10  1  0  0  0  0
  7 11  1  0  0  0  0
  7 14  1  0  0  0  0
  8 15  1  0  0  0  0
  8 16  1  0  0  0  0
  8 17  1  0  0  0  0
  9 18  1  0  0  0  0
  9 19  1  0  0  0  0
  9 20  1  0  0  0  0
 12 22  1  0  0  0  0
 12 23  1  0  0  0  0
 12 24  1  0  0  0  0
 13 25  1  0  0  0  0
 13 26  1  0  0  0  0
 13 27  1  0  0  0  0
M  END
> <PUBCHEM_COMPOUND_CID>
582957

> <PUBCHEM_CONFORMER_RMSD>
0.6

> <PUBCHEM_CONFORMER_DIVERSEORDER>
2
28
13
10
16
4
24
30
34
25
9
22
26
21
29
8
3
11
27
33
14
7
32
19
23
5
20
31
17
1
18
6
12
15

> <PUBCHEM_MMFF94_PARTIAL_CHARGES>
12
1 -0.68
10 0.66
11 0.66
12 0.28
13 0.28
2 -0.43
21 0.4
3 -0.43
4 -0.57
5 -0.57
6 0.06
7 0.34

> <PUBCHEM_EFFECTIVE_ROTOR_COUNT>
5

> <PUBCHEM_PHARMACOPHORE_FEATURES>
5
1 1 acceptor
1 1 donor
1 4 acceptor
1 5 acceptor
3 6 8 9 hydrophobe

> <PUBCHEM_HEAVY_ATOM_COUNT>
13

> <PUBCHEM_ATOM_DEF_STEREO_COUNT>
0

> <PUBCHEM_ATOM_UDEF_STEREO_COUNT>
1

> <PUBCHEM_BOND_DEF_STEREO_COUNT>
0

> <PUBCHEM_BOND_UDEF_STEREO_COUNT>
0

> <PUBCHEM_ISOTOPIC_ATOM_COUNT>
0

> <PUBCHEM_COMPONENT_COUNT>
1

> <PUBCHEM_CACTVS_TAUTO_COUNT>
1

> <PUBCHEM_CONFORMER_ID>
0008E52D00000002

> <PUBCHEM_MMFF94_ENERGY>
25.9884

> <PUBCHEM_FEATURE_SELFOVERLAP>
25.381

> <PUBCHEM_SHAPE_FINGERPRINT>
10219947 1 18187079551114026611
10857977 72 17274831215957516837
12932764 1 18335703793220055596
13024252 1 13542171865988705516
13380535 21 18191866726147123430
14128692 85 15410602662762974303
14993402 34 17240772743691378421
15219456 202 18272655640320080777
16945 1 18410860931974532214
17844478 74 18202567276097678268
18175812 5 18202568392630965359
20715346 28 18202009797816541101
207724 885 18040439853975384641
20871999 31 16415760838483930215
23402539 116 5255818941699632101
2748010 2 18261967361191720136
305870 269 14996554152974017255
369184 2 18113912532368397932
449060 23 16845288294269299731

> <PUBCHEM_SHAPE_MULTIPOLES>
238.19
5.05
1.44
1.33
0.44
0.04
-0.4
-1.59
1.63
0.5
0.01
-0.62
0.17
0.57

> <PUBCHEM_SHAPE_SELFOVERLAP>
463.073

> <PUBCHEM_SHAPE_VOLUME>
144.7

> <PUBCHEM_COORDINATE_TYPE>
2
5
10

$$$$

