8116
  -OEChem-06261202363D

 17 16  0     0  0  0  0  0  0999 V2000
    0.0508    0.2317   -0.2125 O   0  0  0  0  0  0  0  0  0  0  0  0
   -3.5446   -0.1003    0.1938 O   0  0  0  0  0  0  0  0  0  0  0  0
   -1.1763   -0.4278    0.0701 C   0  0  0  0  0  0  0  0  0  0  0  0
   -2.3148    0.5644   -0.0691 C   0  0  0  0  0  0  0  0  0  0  0  0
    1.1589   -0.6465   -0.0759 C   0  0  0  0  0  0  0  0  0  0  0  0
    2.4094    0.1073   -0.3856 C   0  0  0  0  0  0  0  0  0  0  0  0
    3.4167    0.2712    0.4792 C   0  0  0  0  0  0  0  0  0  0  0  0
   -1.3202   -1.2652   -0.6233 H   0  0  0  0  0  0  0  0  0  0  0  0
   -1.1626   -0.8373    1.0874 H   0  0  0  0  0  0  0  0  0  0  0  0
   -2.3464    0.9986   -1.0738 H   0  0  0  0  0  0  0  0  0  0  0  0
   -2.2011    1.3902    0.6405 H   0  0  0  0  0  0  0  0  0  0  0  0
    1.1828   -1.0548    0.9414 H   0  0  0  0  0  0  0  0  0  0  0  0
    1.0593   -1.4780   -0.7830 H   0  0  0  0  0  0  0  0  0  0  0  0
    2.4988    0.5413   -1.3780 H   0  0  0  0  0  0  0  0  0  0  0  0
   -3.6434   -0.8062   -0.4678 H   0  0  0  0  0  0  0  0  0  0  0  0
    4.3015    0.8287    0.1922 H   0  0  0  0  0  0  0  0  0  0  0  0
    3.3786   -0.1432    1.4805 H   0  0  0  0  0  0  0  0  0  0  0  0
  1  3  1  0  0  0  0
  1  5  1  0  0  0  0
  2  4  1  0  0  0  0
  2 15  1  0  0  0  0
  3  4  1  0  0  0  0
  3  8  1  0  0  0  0
  3  9  1  0  0  0  0
  4 10  1  0  0  0  0
  4 11  1  0  0  0  0
  5  6  1  0  0  0  0
  5 12  1  0  0  0  0
  5 13  1  0  0  0  0
  6  7  2  0  0  0  0
  6 14  1  0  0  0  0
  7 16  1  0  0  0  0
  7 17  1  0  0  0  0
M  END
> <PUBCHEM_COMPOUND_CID>
8116

> <PUBCHEM_CONFORMER_RMSD>
0.6

> <PUBCHEM_CONFORMER_DIVERSEORDER>
2
13
8
17
14
20
9
11
1
16
18
6
3
10
7
12
4
5
19
15

> <PUBCHEM_MMFF94_PARTIAL_CHARGES>
11
1 -0.56
14 0.15
15 0.4
16 0.15
17 0.15
2 -0.68
3 0.28
4 0.28
5 0.42
6 -0.29
7 -0.3

> <PUBCHEM_EFFECTIVE_ROTOR_COUNT>
4

> <PUBCHEM_PHARMACOPHORE_FEATURES>
4
1 1 acceptor
1 2 acceptor
1 2 donor
1 7 hydrophobe

> <PUBCHEM_HEAVY_ATOM_COUNT>
7

> <PUBCHEM_ATOM_DEF_STEREO_COUNT>
0

> <PUBCHEM_ATOM_UDEF_STEREO_COUNT>
0

> <PUBCHEM_BOND_DEF_STEREO_COUNT>
0

> <PUBCHEM_BOND_UDEF_STEREO_COUNT>
0

> <PUBCHEM_ISOTOPIC_ATOM_COUNT>
0

> <PUBCHEM_COMPONENT_COUNT>
1

> <PUBCHEM_CACTVS_TAUTO_COUNT>
1

> <PUBCHEM_CONFORMER_ID>
00001FB400000002

> <PUBCHEM_MMFF94_ENERGY>
7.1719

> <PUBCHEM_FEATURE_SELFOVERLAP>
20.297

> <PUBCHEM_SHAPE_FINGERPRINT>
11062470 55 18408886234913656249
12932764 1 4895264859288128807
14325111 11 18408322211149904159
14390081 3 18113901580265246064
21293036 1 5328739690798166530
5460574 1 9367344829727344455

> <PUBCHEM_SHAPE_MULTIPOLES>
132.32
5.94
0.75
0.66
0.84
0.02
0
-0.75
0.7
0
0
-0.19
-0.01
0.09

> <PUBCHEM_SHAPE_SELFOVERLAP>
231.846

> <PUBCHEM_SHAPE_VOLUME>
87.3

> <PUBCHEM_COORDINATE_TYPE>
2
5
10

$$$$

