3601
  -OEChem-06251223323D

 80 85  0     0  0  0  0  0  0999 V2000
   -4.3250    1.6256   -0.7577 N   0  3  0  0  0  0  0  0  0  0  0  0
    4.3188    1.6750    0.7415 N   0  3  0  0  0  0  0  0  0  0  0  0
   -4.5842    0.4600    0.1287 C   0  0  0  0  0  0  0  0  0  0  0  0
    4.5909    0.4578   -0.1540 C   0  0  0  0  0  0  0  0  0  0  0  0
   -2.8877    1.5914   -1.2923 C   0  0  0  0  0  0  0  0  0  0  0  0
    2.9293    1.6498    1.2584 C   0  0  0  0  0  0  0  0  0  0  0  0
   -1.9192    1.6014   -0.1190 C   0  0  0  0  0  0  0  0  0  0  0  0
    1.9612    1.6399    0.0848 C   0  0  0  0  0  0  0  0  0  0  0  0
   -5.9942    0.4368    0.6917 C   0  0  0  0  0  0  0  0  0  0  0  0
   -4.5184   -0.8718   -0.5978 C   0  0  0  0  0  0  0  0  0  0  0  0
    6.0138    0.4083   -0.6821 C   0  0  0  0  0  0  0  0  0  0  0  0
    4.4882   -0.8649    0.5846 C   0  0  0  0  0  0  0  0  0  0  0  0
   -0.4691    1.6145   -0.6044 C   0  0  0  0  0  0  0  0  0  0  0  0
    0.5108    1.6605    0.5693 C   0  0  0  0  0  0  0  0  0  0  0  0
   -4.5211    2.9415    0.0057 C   0  0  0  0  0  0  0  0  0  0  0  0
   -5.2827    1.6191   -1.9559 C   0  0  0  0  0  0  0  0  0  0  0  0
    4.5700    2.9422   -0.0883 C   0  0  0  0  0  0  0  0  0  0  0  0
    5.3317    1.6530    1.8952 C   0  0  0  0  0  0  0  0  0  0  0  0
   -6.6492   -0.7613    0.3273 C   0  0  0  0  0  0  0  0  0  0  0  0
   -5.7428   -1.5649   -0.4649 C   0  0  0  0  0  0  0  0  0  0  0  0
    6.6422   -0.7950   -0.2891 C   0  0  0  0  0  0  0  0  0  0  0  0
    5.7053   -1.5770    0.4891 C   0  0  0  0  0  0  0  0  0  0  0  0
   -6.6323    1.4052    1.4489 C   0  0  0  0  0  0  0  0  0  0  0  0
   -3.4636   -1.4047   -1.3202 C   0  0  0  0  0  0  0  0  0  0  0  0
    6.6842    1.3591   -1.4337 C   0  0  0  0  0  0  0  0  0  0  0  0
    3.4084   -1.3748    1.2865 C   0  0  0  0  0  0  0  0  0  0  0  0
   -7.9532   -1.0013    0.7285 C   0  0  0  0  0  0  0  0  0  0  0  0
   -5.9162   -2.8075   -1.0523 C   0  0  0  0  0  0  0  0  0  0  0  0
    7.9520   -1.0580   -0.6557 C   0  0  0  0  0  0  0  0  0  0  0  0
    5.8462   -2.8154    1.0937 C   0  0  0  0  0  0  0  0  0  0  0  0
   -7.9464    1.1626    1.8531 C   0  0  0  0  0  0  0  0  0  0  0  0
   -3.6388   -2.6569   -1.9119 C   0  0  0  0  0  0  0  0  0  0  0  0
    8.0041    1.0934   -1.8030 C   0  0  0  0  0  0  0  0  0  0  0  0
    3.5510   -2.6229    1.8957 C   0  0  0  0  0  0  0  0  0  0  0  0
   -8.6001   -0.0291    1.4972 C   0  0  0  0  0  0  0  0  0  0  0  0
   -4.8528   -3.3518   -1.7787 C   0  0  0  0  0  0  0  0  0  0  0  0
    8.6315   -0.1036   -1.4186 C   0  0  0  0  0  0  0  0  0  0  0  0
    4.7576   -3.3363    1.7995 C   0  0  0  0  0  0  0  0  0  0  0  0
   -3.9116    0.4609    0.9919 H   0  0  0  0  0  0  0  0  0  0  0  0
    3.9340    0.4691   -1.0292 H   0  0  0  0  0  0  0  0  0  0  0  0
   -2.7554    2.5203   -1.8651 H   0  0  0  0  0  0  0  0  0  0  0  0
   -2.7576    0.8072   -2.0333 H   0  0  0  0  0  0  0  0  0  0  0  0
    2.7875    2.5850    1.8187 H   0  0  0  0  0  0  0  0  0  0  0  0
    2.7889    0.8737    2.0077 H   0  0  0  0  0  0  0  0  0  0  0  0
   -2.0193    0.7104    0.5060 H   0  0  0  0  0  0  0  0  0  0  0  0
   -2.0638    2.4754    0.5233 H   0  0  0  0  0  0  0  0  0  0  0  0
    2.1031    2.5030   -0.5734 H   0  0  0  0  0  0  0  0  0  0  0  0
    2.0579    0.7391   -0.5259 H   0  0  0  0  0  0  0  0  0  0  0  0
   -0.3050    2.4850   -1.2513 H   0  0  0  0  0  0  0  0  0  0  0  0
   -0.2788    0.7206   -1.2109 H   0  0  0  0  0  0  0  0  0  0  0  0
    0.3336    2.5664    1.1618 H   0  0  0  0  0  0  0  0  0  0  0  0
    0.3328    0.8026    1.2293 H   0  0  0  0  0  0  0  0  0  0  0  0
   -4.1468    2.8413    1.0278 H   0  0  0  0  0  0  0  0  0  0  0  0
   -3.9658    3.7301   -0.5139 H   0  0  0  0  0  0  0  0  0  0  0  0
   -5.5749    3.2287   -0.0273 H   0  0  0  0  0  0  0  0  0  0  0  0
   -5.1018    0.7358   -2.5736 H   0  0  0  0  0  0  0  0  0  0  0  0
   -6.3183    1.6529   -1.6078 H   0  0  0  0  0  0  0  0  0  0  0  0
   -5.0755    2.5163   -2.5490 H   0  0  0  0  0  0  0  0  0  0  0  0
    5.6261    3.2168   -0.0380 H   0  0  0  0  0  0  0  0  0  0  0  0
    4.2113    2.8022   -1.1114 H   0  0  0  0  0  0  0  0  0  0  0  0
    4.0156    3.7640    0.3792 H   0  0  0  0  0  0  0  0  0  0  0  0
    5.1502    2.5482    2.5000 H   0  0  0  0  0  0  0  0  0  0  0  0
    5.1654    0.7694    2.5168 H   0  0  0  0  0  0  0  0  0  0  0  0
    6.3549    1.6866    1.5140 H   0  0  0  0  0  0  0  0  0  0  0  0
   -6.1472    2.3013    1.8097 H   0  0  0  0  0  0  0  0  0  0  0  0
   -2.4756   -0.9694   -1.3584 H   0  0  0  0  0  0  0  0  0  0  0  0
    6.2224    2.2554   -1.8228 H   0  0  0  0  0  0  0  0  0  0  0  0
    2.4304   -0.9154    1.3047 H   0  0  0  0  0  0  0  0  0  0  0  0
   -8.4719   -1.9157    0.4601 H   0  0  0  0  0  0  0  0  0  0  0  0
   -6.8479   -3.3556   -0.9595 H   0  0  0  0  0  0  0  0  0  0  0  0
    8.4506   -1.9767   -0.3651 H   0  0  0  0  0  0  0  0  0  0  0  0
    6.7718   -3.3777    1.0297 H   0  0  0  0  0  0  0  0  0  0  0  0
   -8.4663    1.8954    2.4647 H   0  0  0  0  0  0  0  0  0  0  0  0
   -2.8193   -3.1135   -2.4608 H   0  0  0  0  0  0  0  0  0  0  0  0
    8.5489    1.8112   -2.4106 H   0  0  0  0  0  0  0  0  0  0  0  0
    2.7127   -3.0602    2.4317 H   0  0  0  0  0  0  0  0  0  0  0  0
   -9.6220   -0.1971    1.8268 H   0  0  0  0  0  0  0  0  0  0  0  0
   -4.9636   -4.3281   -2.2434 H   0  0  0  0  0  0  0  0  0  0  0  0
    9.6585   -0.2900   -1.7216 H   0  0  0  0  0  0  0  0  0  0  0  0
    4.8431   -4.3087    2.2778 H   0  0  0  0  0  0  0  0  0  0  0  0
  1  3  1  0  0  0  0
  1  5  1  0  0  0  0
  1 15  1  0  0  0  0
  1 16  1  0  0  0  0
  2  4  1  0  0  0  0
  2  6  1  0  0  0  0
  2 17  1  0  0  0  0
  2 18  1  0  0  0  0
  3  9  1  0  0  0  0
  3 10  1  0  0  0  0
  3 39  1  0  0  0  0
  4 11  1  0  0  0  0
  4 12  1  0  0  0  0
  4 40  1  0  0  0  0
  5  7  1  0  0  0  0
  5 41  1  0  0  0  0
  5 42  1  0  0  0  0
  6  8  1  0  0  0  0
  6 43  1  0  0  0  0
  6 44  1  0  0  0  0
  7 13  1  0  0  0  0
  7 45  1  0  0  0  0
  7 46  1  0  0  0  0
  8 14  1  0  0  0  0
  8 47  1  0  0  0  0
  8 48  1  0  0  0  0
  9 19  1  0  0  0  0
  9 23  2  0  0  0  0
 10 20  1  0  0  0  0
 10 24  2  0  0  0  0
 11 21  1  0  0  0  0
 11 25  2  0  0  0  0
 12 22  1  0  0  0  0
 12 26  2  0  0  0  0
 13 14  1  0  0  0  0
 13 49  1  0  0  0  0
 13 50  1  0  0  0  0
 14 51  1  0  0  0  0
 14 52  1  0  0  0  0
 15 53  1  0  0  0  0
 15 54  1  0  0  0  0
 15 55  1  0  0  0  0
 16 56  1  0  0  0  0
 16 57  1  0  0  0  0
 16 58  1  0  0  0  0
 17 59  1  0  0  0  0
 17 60  1  0  0  0  0
 17 61  1  0  0  0  0
 18 62  1  0  0  0  0
 18 63  1  0  0  0  0
 18 64  1  0  0  0  0
 19 20  1  0  0  0  0
 19 27  2  0  0  0  0
 20 28  2  0  0  0  0
 21 22  1  0  0  0  0
 21 29  2  0  0  0  0
 22 30  2  0  0  0  0
 23 31  1  0  0  0  0
 23 65  1  0  0  0  0
 24 32  1  0  0  0  0
 24 66  1  0  0  0  0
 25 33  1  0  0  0  0
 25 67  1  0  0  0  0
 26 34  1  0  0  0  0
 26 68  1  0  0  0  0
 27 35  1  0  0  0  0
 27 69  1  0  0  0  0
 28 36  1  0  0  0  0
 28 70  1  0  0  0  0
 29 37  1  0  0  0  0
 29 71  1  0  0  0  0
 30 38  1  0  0  0  0
 30 72  1  0  0  0  0
 31 35  2  0  0  0  0
 31 73  1  0  0  0  0
 32 36  2  0  0  0  0
 32 74  1  0  0  0  0
 33 37  2  0  0  0  0
 33 75  1  0  0  0  0
 34 38  2  0  0  0  0
 34 76  1  0  0  0  0
 35 77  1  0  0  0  0
 36 78  1  0  0  0  0
 37 79  1  0  0  0  0
 38 80  1  0  0  0  0
M  CHG  2   1   1   2   1
M  END
> <PUBCHEM_COMPOUND_CID>
3601

> <PUBCHEM_CONFORMER_RMSD>
1

> <PUBCHEM_CONFORMER_DIVERSEORDER>
24
8
22
30
23
39
28
26
6
16
18
36
14
20
2
9
5
25
31
21
33
15
34
29
27
40
13
12
38
11
1
41
4
19
32
42
7
35
10
17
3
37

> <PUBCHEM_MMFF94_PARTIAL_CHARGES>
46
1 -1.01
10 -0.14
11 -0.14
12 -0.14
15 0.5
16 0.5
17 0.5
18 0.5
2 -1.01
23 -0.15
24 -0.15
25 -0.15
26 -0.15
27 -0.15
28 -0.15
29 -0.15
3 0.79
30 -0.15
31 -0.15
32 -0.15
33 -0.15
34 -0.15
35 -0.15
36 -0.15
37 -0.15
38 -0.15
4 0.79
5 0.5
6 0.5
65 0.15
66 0.15
67 0.15
68 0.15
69 0.15
70 0.15
71 0.15
72 0.15
73 0.15
74 0.15
75 0.15
76 0.15
77 0.15
78 0.15
79 0.15
80 0.15
9 -0.14

> <PUBCHEM_EFFECTIVE_ROTOR_COUNT>
9.4

> <PUBCHEM_PHARMACOPHORE_FEATURES>
9
1 1 cation
1 2 cation
4 7 8 13 14 hydrophobe
5 3 9 10 19 20 rings
5 4 11 12 21 22 rings
6 10 20 24 28 32 36 rings
6 11 21 25 29 33 37 rings
6 12 22 26 30 34 38 rings
6 9 19 23 27 31 35 rings

> <PUBCHEM_HEAVY_ATOM_COUNT>
38

> <PUBCHEM_ATOM_DEF_STEREO_COUNT>
0

> <PUBCHEM_ATOM_UDEF_STEREO_COUNT>
0

> <PUBCHEM_BOND_DEF_STEREO_COUNT>
0

> <PUBCHEM_BOND_UDEF_STEREO_COUNT>
0

> <PUBCHEM_ISOTOPIC_ATOM_COUNT>
0

> <PUBCHEM_COMPONENT_COUNT>
1

> <PUBCHEM_CACTVS_TAUTO_COUNT>
1

> <PUBCHEM_CONFORMER_ID>
00000E1100000018

> <PUBCHEM_MMFF94_ENERGY>
175.5331

> <PUBCHEM_FEATURE_SELFOVERLAP>
45.994

> <PUBCHEM_SHAPE_FINGERPRINT>
10299344 5 18410569587110474624
10462385 53 17988916782411595419
10677351 27 18342179951004539275
11103572 155 18130505357544538027
11387372 6 18131067118183006131
117089 54 17840862981009960723
12082328 90 16486978414222838917
12144603 126 18410564093842184216
13690498 29 18272376386243038925
14118638 360 17704076217535198657
15183329 4 18335145292979412007
15230672 131 18113335319556807715
15274700 208 13973096742121883950
15276724 80 18343587360611632999
15351334 14 16845304885701421607
15352257 5 18411139134128160486
15361156 5 17988643033875775853
15684393 108 17775566455046426627
15776043 110 18408876340021189609
16110190 28 18334860528685701287
19303781 99 17628941189774068242
21599406 157 17274555311706805654
21772528 278 18131069303462172627
21792938 703 17203029808598301577
21814621 53 17095529439605717699
23516275 137 18192406762139726914
23522609 53 18266433508335621517
25269216 80 16845572024420390525
335507 130 17988921163289039612
3504750 166 17968662602134811959
397638 26 15574714694704192405
439807 62 18343584061786332970
44880168 125 17095528413546254156
4760202 70 18122909728855700237
6057620 51 18130779067263504108
6176135 31 18113337535364813663

> <PUBCHEM_SHAPE_MULTIPOLES>
772.06
30.34
3.69
1.94
0.26
1.76
-0.01
4.17
-0.18
-0.03
0
-0.16
0.54
-3.96

> <PUBCHEM_SHAPE_SELFOVERLAP>
1693.54

> <PUBCHEM_SHAPE_VOLUME>
422.8

> <PUBCHEM_COORDINATE_TYPE>
2
5
10

$$$$

