12075
  -OEChem-06261206293D

 19 19  0     0  0  0  0  0  0999 V2000
    3.2156    1.5016    0.0000 O   0  5  0  0  0  0  0  0  0  0  0  0
    3.3763   -0.6877    0.0002 O   0  0  0  0  0  0  0  0  0  0  0  0
   -3.5982    1.0841   -0.0001 O   0  5  0  0  0  0  0  0  0  0  0  0
   -3.4753   -1.1077   -0.0002 O   0  0  0  0  0  0  0  0  0  0  0  0
    2.6919    0.3626   -0.0001 N   0  3  0  0  0  0  0  0  0  0  0  0
   -2.9298    0.0223    0.0002 N   0  3  0  0  0  0  0  0  0  0  0  0
    0.6450   -0.9867   -0.0001 C   0  0  0  0  0  0  0  0  0  0  0  0
    1.2734    0.2585   -0.0002 C   0  0  0  0  0  0  0  0  0  0  0  0
   -0.7477   -1.0652    0.0001 C   0  0  0  0  0  0  0  0  0  0  0  0
   -1.5119    0.1017    0.0002 C   0  0  0  0  0  0  0  0  0  0  0  0
    0.5092    1.4253   -0.0001 C   0  0  0  0  0  0  0  0  0  0  0  0
   -0.8835    1.3470    0.0002 C   0  0  0  0  0  0  0  0  0  0  0  0
    1.4350   -2.2556    0.0000 C   0  0  0  0  0  0  0  0  0  0  0  0
   -1.2215   -2.0442    0.0001 H   0  0  0  0  0  0  0  0  0  0  0  0
    0.9611    2.4140   -0.0002 H   0  0  0  0  0  0  0  0  0  0  0  0
   -1.4470    2.2766    0.0003 H   0  0  0  0  0  0  0  0  0  0  0  0
    2.0337   -2.3663   -0.9101 H   0  0  0  0  0  0  0  0  0  0  0  0
    2.0335   -2.3662    0.9103 H   0  0  0  0  0  0  0  0  0  0  0  0
    0.7624   -3.1235    0.0000 H   0  0  0  0  0  0  0  0  0  0  0  0
  1  5  1  0  0  0  0
  2  5  2  0  0  0  0
  3  6  1  0  0  0  0
  4  6  2  0  0  0  0
  5  8  1  0  0  0  0
  6 10  1  0  0  0  0
  7  8  2  0  0  0  0
  7  9  1  0  0  0  0
  7 13  1  0  0  0  0
  8 11  1  0  0  0  0
  9 10  2  0  0  0  0
  9 14  1  0  0  0  0
 10 12  1  0  0  0  0
 11 12  2  0  0  0  0
 11 15  1  0  0  0  0
 12 16  1  0  0  0  0
 13 17  1  0  0  0  0
 13 18  1  0  0  0  0
 13 19  1  0  0  0  0
M  CHG  4   1  -1   3  -1   5   1   6   1
M  END
> <PUBCHEM_COMPOUND_CID>
12075

> <PUBCHEM_CONFORMER_RMSD>
0.6

> <PUBCHEM_CONFORMER_DIVERSEORDER>
1

> <PUBCHEM_MMFF94_PARTIAL_CHARGES>
16
1 -0.52
10 0.13
11 -0.15
12 -0.15
13 0.14
14 0.15
15 0.15
16 0.15
2 -0.52
3 -0.52
4 -0.52
5 0.91
6 0.91
7 -0.14
8 0.13
9 -0.15

> <PUBCHEM_EFFECTIVE_ROTOR_COUNT>
2

> <PUBCHEM_PHARMACOPHORE_FEATURES>
7
1 1 acceptor
1 1 anion
1 2 acceptor
1 3 acceptor
1 3 anion
1 4 acceptor
6 7 8 9 10 11 12 rings

> <PUBCHEM_HEAVY_ATOM_COUNT>
13

> <PUBCHEM_ATOM_DEF_STEREO_COUNT>
0

> <PUBCHEM_ATOM_UDEF_STEREO_COUNT>
0

> <PUBCHEM_BOND_DEF_STEREO_COUNT>
0

> <PUBCHEM_BOND_UDEF_STEREO_COUNT>
0

> <PUBCHEM_ISOTOPIC_ATOM_COUNT>
0

> <PUBCHEM_COMPONENT_COUNT>
1

> <PUBCHEM_CACTVS_TAUTO_COUNT>
1

> <PUBCHEM_CONFORMER_ID>
00002F2B00000001

> <PUBCHEM_MMFF94_ENERGY>
48.3598

> <PUBCHEM_FEATURE_SELFOVERLAP>
35.684

> <PUBCHEM_SHAPE_FINGERPRINT>
10219947 1 18341611494886817372
10608611 8 18340772627829275165
11132069 177 18409738356425189336
11471102 20 18410860979345929061
11806522 49 18265338305086791263
12032990 46 18410567383808082550
12897270 3 18410855494498482228
13380535 76 18413109433253795458
14325111 11 18410855442985384769
16945 1 18410855490261569604
19021347 11 18411983567759321682
193761 8 17834396005005244388
20201158 50 18341613745676579315
20645476 183 17844511220381995854
20645477 70 18337114587494032951
21501502 16 18122061163381648888
23235685 24 18412550885657338848
23402539 116 18261402135000175036
23402655 69 18264505034677454757
23463225 33 18341615940499689666
23552423 10 18270114767738007842
23559900 14 18261106328414241564
2748010 2 18123185693272960836
3312278 4 18408601474635156425
528886 8 18409735027772735402
53812653 166 18334581230471322481
7364860 26 18262800812454011150

> <PUBCHEM_SHAPE_MULTIPOLES>
234.09
5.27
1.88
0.57
1.62
0.41
0
-0.45
0
-0.64
0
-0.01
0.01
0

> <PUBCHEM_SHAPE_SELFOVERLAP>
495.363

> <PUBCHEM_SHAPE_VOLUME>
132.3

> <PUBCHEM_COORDINATE_TYPE>
2
5
10

$$$$

