11480
  -OEChem-06261205433D

 24 24  0     0  0  0  0  0  0999 V2000
    4.1761    1.7097   -0.0112 Cl  0  0  0  0  0  0  0  0  0  0  0  0
   -1.9289   -1.5630   -0.0096 O   0  0  0  0  0  0  0  0  0  0  0  0
   -3.1444    0.4071    0.0016 N   0  0  0  0  0  0  0  0  0  0  0  0
   -0.7886    0.4649    0.0006 N   0  0  0  0  0  0  0  0  0  0  0  0
    0.5614    0.0340    0.0021 C   0  0  0  0  0  0  0  0  0  0  0  0
   -1.9374   -0.3302    0.0046 C   0  0  0  0  0  0  0  0  0  0  0  0
    1.5731    0.9784   -0.0040 C   0  0  0  0  0  0  0  0  0  0  0  0
    0.8364   -1.3225    0.0083 C   0  0  0  0  0  0  0  0  0  0  0  0
   -4.4490   -0.2421   -0.0185 C   0  0  0  0  0  0  0  0  0  0  0  0
   -3.1623    1.8683    0.0184 C   0  0  0  0  0  0  0  0  0  0  0  0
    2.9015    0.5531   -0.0036 C   0  0  0  0  0  0  0  0  0  0  0  0
    2.1647   -1.7479    0.0086 C   0  0  0  0  0  0  0  0  0  0  0  0
    3.1973   -0.8100    0.0027 C   0  0  0  0  0  0  0  0  0  0  0  0
   -0.8951    1.4734   -0.0044 H   0  0  0  0  0  0  0  0  0  0  0  0
    1.3387    2.0402   -0.0091 H   0  0  0  0  0  0  0  0  0  0  0  0
    0.1057   -2.1159    0.0155 H   0  0  0  0  0  0  0  0  0  0  0  0
   -4.9896    0.0803   -0.9131 H   0  0  0  0  0  0  0  0  0  0  0  0
   -5.0034    0.0527    0.8771 H   0  0  0  0  0  0  0  0  0  0  0  0
   -4.3497   -1.3302   -0.0345 H   0  0  0  0  0  0  0  0  0  0  0  0
   -4.1920    2.2377    0.0445 H   0  0  0  0  0  0  0  0  0  0  0  0
   -2.6740    2.2461   -0.8848 H   0  0  0  0  0  0  0  0  0  0  0  0
   -2.6369    2.2293    0.9076 H   0  0  0  0  0  0  0  0  0  0  0  0
    2.3968   -2.8091    0.0141 H   0  0  0  0  0  0  0  0  0  0  0  0
    4.2277   -1.1561    0.0032 H   0  0  0  0  0  0  0  0  0  0  0  0
  1 11  1  0  0  0  0
  2  6  2  0  0  0  0
  3  6  1  0  0  0  0
  3  9  1  0  0  0  0
  3 10  1  0  0  0  0
  4  5  1  0  0  0  0
  4  6  1  0  0  0  0
  4 14  1  0  0  0  0
  5  7  2  0  0  0  0
  5  8  1  0  0  0  0
  7 11  1  0  0  0  0
  7 15  1  0  0  0  0
  8 12  2  0  0  0  0
  8 16  1  0  0  0  0
  9 17  1  0  0  0  0
  9 18  1  0  0  0  0
  9 19  1  0  0  0  0
 10 20  1  0  0  0  0
 10 21  1  0  0  0  0
 10 22  1  0  0  0  0
 11 13  2  0  0  0  0
 12 13  1  0  0  0  0
 12 23  1  0  0  0  0
 13 24  1  0  0  0  0
M  END
> <PUBCHEM_COMPOUND_CID>
11480

> <PUBCHEM_CONFORMER_RMSD>
0.6

> <PUBCHEM_CONFORMER_DIVERSEORDER>
1
7
10
3
5
9
2
8
4
6

> <PUBCHEM_MMFF94_PARTIAL_CHARGES>
18
1 -0.18
10 0.3
11 0.18
12 -0.15
13 -0.15
14 0.37
15 0.15
16 0.15
2 -0.57
23 0.15
24 0.15
3 -0.66
4 -0.55
5 0.12
6 0.69
7 -0.15
8 -0.15
9 0.3

> <PUBCHEM_EFFECTIVE_ROTOR_COUNT>
3

> <PUBCHEM_PHARMACOPHORE_FEATURES>
3
1 2 acceptor
1 4 donor
6 5 7 8 11 12 13 rings

> <PUBCHEM_HEAVY_ATOM_COUNT>
13

> <PUBCHEM_ATOM_DEF_STEREO_COUNT>
0

> <PUBCHEM_ATOM_UDEF_STEREO_COUNT>
0

> <PUBCHEM_BOND_DEF_STEREO_COUNT>
0

> <PUBCHEM_BOND_UDEF_STEREO_COUNT>
0

> <PUBCHEM_ISOTOPIC_ATOM_COUNT>
0

> <PUBCHEM_COMPONENT_COUNT>
1

> <PUBCHEM_CACTVS_TAUTO_COUNT>
2

> <PUBCHEM_CONFORMER_ID>
00002CD800000001

> <PUBCHEM_MMFF94_ENERGY>
37.8422

> <PUBCHEM_FEATURE_SELFOVERLAP>
15.223

> <PUBCHEM_SHAPE_FINGERPRINT>
10608611 8 18411984688719405693
10980938 120 18409448106972639650
11471102 20 18410577292545288030
12346645 44 18411139108622217736
12932764 1 17458357329047683465
13380535 76 18412545388046731898
14144814 61 18411136974028662057
14325111 11 18410856572529985696
14415576 193 18411133649819018028
14897335 6 18410295795877560430
15196674 1 18410575119281539973
15219456 202 18342461473283542260
15442244 35 18121499321629893360
15536298 74 18335419084454756822
15775835 57 18334293132760302390
170605 34 18342458140568203634
18186145 218 18268428108506068429
20279233 1 17775280560532388475
20645477 70 18335701680144067142
21501502 16 18410579508484714047
23402539 116 18336274479053058029
23402655 69 18334583464323749877
23559900 14 18189903200206780002
449060 50 18341330015810383309
449060 62 18408884023337827696
4990 188 18040703767558809596
5104073 3 18412543249384868073
53812653 166 18262241019380446544
69090 78 18408608063236587007
7364860 26 18334574685542608350
77779 3 18410009970431255785
9709674 26 18409725183924568383

> <PUBCHEM_SHAPE_MULTIPOLES>
253.57
7.88
1.87
0.6
3.54
0.09
0
2.54
0.03
-0.7
0
-0.05
0.01
-0.02

> <PUBCHEM_SHAPE_SELFOVERLAP>
508.786

> <PUBCHEM_SHAPE_VOLUME>
150.9

> <PUBCHEM_COORDINATE_TYPE>
2
5
10

$$$$

