13685
  -OEChem-06241222392D

 21 21  0     0  0  0  0  0  0999 V2000
    4.5032   -1.0008    0.0000 O   0  0  0  0  0  0  0  0  0  0  0  0
    2.0000   -0.0529    0.0000 O   0  5  0  0  0  0  0  0  0  0  0  0
    2.5352   -1.7002    0.0000 O   0  0  0  0  0  0  0  0  0  0  0  0
    2.7431   -0.7221    0.0000 N   0  3  0  0  0  0  0  0  0  0  0  0
    7.0064   -0.0529    0.0000 N   0  0  0  0  0  0  0  0  0  0  0  0
    7.9575   -0.3619    0.0000 N   0  0  0  0  0  0  0  0  0  0  0  0
    9.6517   -0.0018    0.0000 N   0  0  0  0  0  0  0  0  0  0  0  0
    8.4927    1.2853    0.0000 N   0  0  0  0  0  0  0  0  0  0  0  0
    5.3122   -0.4130    0.0000 C   0  0  0  0  0  0  0  0  0  0  0  0
    5.0032    0.5380    0.0000 C   0  0  0  0  0  0  0  0  0  0  0  0
    3.6942   -0.4130    0.0000 C   0  0  0  0  0  0  0  0  0  0  0  0
    4.0032    0.5380    0.0000 C   0  0  0  0  0  0  0  0  0  0  0  0
    6.2633   -0.7221    0.0000 C   0  0  0  0  0  0  0  0  0  0  0  0
    8.7006    0.3072    0.0000 C   0  0  0  0  0  0  0  0  0  0  0  0
    5.3676    1.0396    0.0000 H   0  0  0  0  0  0  0  0  0  0  0  0
    3.6388    1.0396    0.0000 H   0  0  0  0  0  0  0  0  0  0  0  0
    6.3922   -1.3285    0.0000 H   0  0  0  0  0  0  0  0  0  0  0  0
   10.1124    0.4130    0.0000 H   0  0  0  0  0  0  0  0  0  0  0  0
    9.7806   -0.6083    0.0000 H   0  0  0  0  0  0  0  0  0  0  0  0
    8.9535    1.7002    0.0000 H   0  0  0  0  0  0  0  0  0  0  0  0
    7.9031    1.4769    0.0000 H   0  0  0  0  0  0  0  0  0  0  0  0
  1  9  1  0  0  0  0
  1 11  1  0  0  0  0
  2  4  1  0  0  0  0
  3  4  2  0  0  0  0
  4 11  1  0  0  0  0
  5  6  1  0  0  0  0
  5 13  2  3  0  0  0
  6 14  2  0  0  0  0
  7 14  1  0  0  0  0
  7 18  1  0  0  0  0
  7 19  1  0  0  0  0
  8 14  1  0  0  0  0
  8 20  1  0  0  0  0
  8 21  1  0  0  0  0
  9 10  2  0  0  0  0
  9 13  1  0  0  0  0
 10 12  1  0  0  0  0
 10 15  1  0  0  0  0
 11 12  2  0  0  0  0
 12 16  1  0  0  0  0
 13 17  1  0  0  0  0
M  CHG  2   2  -1   4   1
M  END
> <PUBCHEM_COMPOUND_CID>
13685

> <PUBCHEM_COMPOUND_CANONICALIZED>
1

> <PUBCHEM_CACTVS_COMPLEXITY>
267

> <PUBCHEM_CACTVS_HBOND_ACCEPTOR>
5

> <PUBCHEM_CACTVS_HBOND_DONOR>
2

> <PUBCHEM_CACTVS_ROTATABLE_BOND>
2

> <PUBCHEM_CACTVS_SUBSKEYS>
AAADcYBjsAAAAAAAAAAAAAAAAAAAASAAAAAAAAAAAAAAAAABgAAAHgAcAAAACATBkAQxhIBQRECpALFzcwSCCAAsIgAoiAEmbNoMJrKEtZuKGSDkwBEI6Ya8AAAAAAAAAAAAAAAAAAAAAAAAAAAAAAAAAA==

> <PUBCHEM_IUPAC_OPENEYE_NAME>
2-[(5-nitro-2-furyl)methyleneamino]guanidine

> <PUBCHEM_IUPAC_CAS_NAME>
2-[(5-nitro-2-furanyl)methylideneamino]guanidine

> <PUBCHEM_IUPAC_NAME>
2-[(5-nitrofuran-2-yl)methylideneamino]guanidine

> <PUBCHEM_IUPAC_SYSTEMATIC_NAME>
2-[(5-nitrofuran-2-yl)methylideneamino]guanidine

> <PUBCHEM_IUPAC_TRADITIONAL_NAME>
2-[(5-nitro-2-furyl)methyleneamino]guanidine

> <PUBCHEM_IUPAC_INCHI>
InChI=1S/C6H7N5O3/c7-6(8)10-9-3-4-1-2-5(14-4)11(12)13/h1-3H,(H4,7,8,10)

> <PUBCHEM_IUPAC_INCHIKEY>
ZGJOBTCQXNGPBN-UHFFFAOYSA-N

> <PUBCHEM_XLOGP3>
-0.9

> <PUBCHEM_EXACT_MASS>
197.054889

> <PUBCHEM_MOLECULAR_FORMULA>
C6H7N5O3

> <PUBCHEM_MOLECULAR_WEIGHT>
197.15148

> <PUBCHEM_OPENEYE_CAN_SMILES>
C1=C(OC(=C1)[N+](=O)[O-])C=NN=C(N)N

> <PUBCHEM_OPENEYE_ISO_SMILES>
C1=C(OC(=C1)[N+](=O)[O-])C=NN=C(N)N

> <PUBCHEM_CACTVS_TPSA>
136

> <PUBCHEM_MONOISOTOPIC_WEIGHT>
197.054889

> <PUBCHEM_TOTAL_CHARGE>
0

> <PUBCHEM_HEAVY_ATOM_COUNT>
14

> <PUBCHEM_ATOM_DEF_STEREO_COUNT>
0

> <PUBCHEM_ATOM_UDEF_STEREO_COUNT>
0

> <PUBCHEM_BOND_DEF_STEREO_COUNT>
0

> <PUBCHEM_BOND_UDEF_STEREO_COUNT>
1

> <PUBCHEM_ISOTOPIC_ATOM_COUNT>
0

> <PUBCHEM_COMPONENT_COUNT>
1

> <PUBCHEM_CACTVS_TAUTO_COUNT>
2

> <PUBCHEM_COORDINATE_TYPE>
1
5
255

> <PUBCHEM_BONDANNOTATIONS>
1  11  8
1  9  8
10  12  8
11  12  8
5  13  1
9  10  8

$$$$

