17396190
  -OEChem-06241222553D

 41 43  0     0  0  0  0  0  0999 V2000
   -1.2941    0.0940    0.3866 O   0  0  0  0  0  0  0  0  0  0  0  0
    3.8318    1.1351   -0.0069 O   0  0  0  0  0  0  0  0  0  0  0  0
   -1.0367    3.6286    0.1057 O   0  0  0  0  0  0  0  0  0  0  0  0
   -5.1328    0.9481   -0.6931 O   0  0  0  0  0  0  0  0  0  0  0  0
    0.5151    1.9832    0.6708 N   0  0  0  0  0  0  0  0  0  0  0  0
    2.4638    3.0629   -0.3931 C   0  0  0  0  0  0  0  0  0  0  0  0
    1.6537    2.8488    0.8788 C   0  0  0  0  0  0  0  0  0  0  0  0
    3.0025    1.7623   -0.9764 C   0  0  0  0  0  0  0  0  0  0  0  0
   -3.5357   -0.6986   -0.1169 C   0  0  0  0  0  0  0  0  0  0  0  0
   -1.7240    1.3825    0.1491 C   0  0  0  0  0  0  0  0  0  0  0  0
   -2.2077   -0.9215    0.2492 C   0  0  0  0  0  0  0  0  0  0  0  0
   -0.7347    2.4509    0.3011 C   0  0  0  0  0  0  0  0  0  0  0  0
   -3.9839    0.6819   -0.3680 C   0  0  0  0  0  0  0  0  0  0  0  0
   -2.9643    1.7384   -0.2071 C   0  0  0  0  0  0  0  0  0  0  0  0
   -4.4225   -1.7705   -0.2426 C   0  0  0  0  0  0  0  0  0  0  0  0
   -1.7595   -2.2200    0.4918 C   0  0  0  0  0  0  0  0  0  0  0  0
    3.9108   -0.2323   -0.0529 C   0  0  0  0  0  0  0  0  0  0  0  0
   -3.9709   -3.0682    0.0006 C   0  0  0  0  0  0  0  0  0  0  0  0
   -2.6428   -3.2927    0.3670 C   0  0  0  0  0  0  0  0  0  0  0  0
    3.7680   -0.8990   -1.2699 C   0  0  0  0  0  0  0  0  0  0  0  0
    4.1333   -0.9577    1.1176 C   0  0  0  0  0  0  0  0  0  0  0  0
    3.8476   -2.2907   -1.3164 C   0  0  0  0  0  0  0  0  0  0  0  0
    4.2130   -2.3496    1.0710 C   0  0  0  0  0  0  0  0  0  0  0  0
    4.0702   -3.0160   -0.1460 C   0  0  0  0  0  0  0  0  0  0  0  0
    1.8497    3.5665   -1.1488 H   0  0  0  0  0  0  0  0  0  0  0  0
    3.3034    3.7269   -0.1545 H   0  0  0  0  0  0  0  0  0  0  0  0
    2.2659    2.3964    1.6658 H   0  0  0  0  0  0  0  0  0  0  0  0
    1.2985    3.8158    1.2519 H   0  0  0  0  0  0  0  0  0  0  0  0
    2.1541    1.1319   -1.2712 H   0  0  0  0  0  0  0  0  0  0  0  0
    3.6020    1.9870   -1.8661 H   0  0  0  0  0  0  0  0  0  0  0  0
    0.6549    0.9852    0.8018 H   0  0  0  0  0  0  0  0  0  0  0  0
   -3.2791    2.7593   -0.3886 H   0  0  0  0  0  0  0  0  0  0  0  0
   -5.4594   -1.6157   -0.5268 H   0  0  0  0  0  0  0  0  0  0  0  0
   -0.7272   -2.4037    0.7768 H   0  0  0  0  0  0  0  0  0  0  0  0
   -4.6549   -3.9066   -0.0954 H   0  0  0  0  0  0  0  0  0  0  0  0
   -2.2963   -4.3048    0.5551 H   0  0  0  0  0  0  0  0  0  0  0  0
    3.6220   -0.3711   -2.2076 H   0  0  0  0  0  0  0  0  0  0  0  0
    4.2443   -0.4437    2.0685 H   0  0  0  0  0  0  0  0  0  0  0  0
    3.7429   -2.8098   -2.2647 H   0  0  0  0  0  0  0  0  0  0  0  0
    4.3863   -2.9144    1.9824 H   0  0  0  0  0  0  0  0  0  0  0  0
    4.1337   -4.0996   -0.1825 H   0  0  0  0  0  0  0  0  0  0  0  0
  1 10  1  0  0  0  0
  1 11  1  0  0  0  0
  2  8  1  0  0  0  0
  2 17  1  0  0  0  0
  3 12  2  0  0  0  0
  4 13  2  0  0  0  0
  5  7  1  0  0  0  0
  5 12  1  0  0  0  0
  5 31  1  0  0  0  0
  6  7  1  0  0  0  0
  6  8  1  0  0  0  0
  6 25  1  0  0  0  0
  6 26  1  0  0  0  0
  7 27  1  0  0  0  0
  7 28  1  0  0  0  0
  8 29  1  0  0  0  0
  8 30  1  0  0  0  0
  9 11  1  0  0  0  0
  9 13  1  0  0  0  0
  9 15  2  0  0  0  0
 10 12  1  0  0  0  0
 10 14  2  0  0  0  0
 11 16  2  0  0  0  0
 13 14  1  0  0  0  0
 14 32  1  0  0  0  0
 15 18  1  0  0  0  0
 15 33  1  0  0  0  0
 16 19  1  0  0  0  0
 16 34  1  0  0  0  0
 17 20  2  0  0  0  0
 17 21  1  0  0  0  0
 18 19  2  0  0  0  0
 18 35  1  0  0  0  0
 19 36  1  0  0  0  0
 20 22  1  0  0  0  0
 20 37  1  0  0  0  0
 21 23  2  0  0  0  0
 21 38  1  0  0  0  0
 22 24  2  0  0  0  0
 22 39  1  0  0  0  0
 23 24  1  0  0  0  0
 23 40  1  0  0  0  0
 24 41  1  0  0  0  0
M  END
> <PUBCHEM_COMPOUND_CID>
17396190

> <PUBCHEM_CONFORMER_RMSD>
0.8

> <PUBCHEM_CONFORMER_DIVERSEORDER>
1
126
20
65
57
151
236
24
155
91
229
143
156
122
19
184
64
23
165
32
3
108
203
89
164
182
150
47
76
26
69
85
9
171
97
191
224
56
142
113
208
204
99
178
2
181
127
218
22
195
103
125
35
241
198
238
216
120
55
18
109
192
79
205
130
66
213
29
11
214
223
161
100
177
87
235
62
131
154
187
106
144
215
232
49
31
74
170
90
160
30
39
71
34
111
67
21
201
80
14
42
139
4
36
78
207
16
221
180
51
219
96
202
134
240
124
92
188
209
59
43
226
46
116
75
167
114
6
10
222
61
199
220
86
13
15
234
132
117
40
145
5
25
28
194
135
233
121
84
200
133
190
48
148
169
217
8
115
237
239
70
119
138
53
137
206
44
168
147
72
45
152
7
118
50
98
17
225
107
166
41
179
149
33
183
73
158
27
52
110
210
58
101
60
38
197
104
153
95
83
88
176
136
185
112
242
162
82
175
54
211
37
193
173
63
186
105
196
128
230
146
141
12
94
81
163
228
172
231
93
189
68
123
102
77
212
157
129
159
174
227
140

> <PUBCHEM_MMFF94_PARTIAL_CHARGES>
34
1 -0.16
10 0.09
11 0.08
12 0.62
13 0.47
14 -0.14
15 -0.15
16 -0.15
17 0.08
18 -0.15
19 -0.15
2 -0.36
20 -0.15
21 -0.15
22 -0.15
23 -0.15
24 -0.15
3 -0.57
31 0.37
32 0.15
33 0.15
34 0.15
35 0.15
36 0.15
37 0.15
38 0.15
39 0.15
4 -0.57
40 0.15
41 0.15
5 -0.73
7 0.3
8 0.28
9 0.09

> <PUBCHEM_EFFECTIVE_ROTOR_COUNT>
7

> <PUBCHEM_PHARMACOPHORE_FEATURES>
8
1 1 acceptor
1 2 acceptor
1 3 acceptor
1 4 acceptor
1 5 donor
6 1 9 10 11 13 14 rings
6 17 20 21 22 23 24 rings
6 9 11 15 16 18 19 rings

> <PUBCHEM_HEAVY_ATOM_COUNT>
24

> <PUBCHEM_ATOM_DEF_STEREO_COUNT>
0

> <PUBCHEM_ATOM_UDEF_STEREO_COUNT>
0

> <PUBCHEM_BOND_DEF_STEREO_COUNT>
0

> <PUBCHEM_BOND_UDEF_STEREO_COUNT>
0

> <PUBCHEM_ISOTOPIC_ATOM_COUNT>
0

> <PUBCHEM_COMPONENT_COUNT>
1

> <PUBCHEM_CACTVS_TAUTO_COUNT>
2

> <PUBCHEM_CONFORMER_ID>
010971DE00000001

> <PUBCHEM_MMFF94_ENERGY>
62.4151

> <PUBCHEM_FEATURE_SELFOVERLAP>
40.623

> <PUBCHEM_SHAPE_FINGERPRINT>
10693767 8 18043839557826376551
10764073 3 17553720275118285001
12633257 1 18264477550157886014
13122387 1 18410569617629114762
1361 2 16896521984096640691
14790565 3 18049438442575746913
14866123 147 18046340005749549641
15003188 105 18270965618577953426
15352361 1 18409167740308526858
17492 89 18411134719197958926
19930381 70 18266741285675709018
20567600 70 18411705387729012776
20775530 9 18340763758679331814
21279426 13 18412270532500477757
21315759 227 18342184319302569646
23559900 14 18408887338952327516
23572383 38 18263095442967991694
3004659 81 18344148094419633420
312425 83 17489590047530040884
325973 47 18410571803530676294
3680242 22 18267579285545353835
4280585 95 18341334496130997634
4394409 98 17626129772494705687
444735 86 18050296868524211855
463206 1 18340763849000141746
5309563 4 17619339905909899123
556388 4 18339080376438912490
6433294 58 18265894653385289098
6823239 73 18187631532243473758
9709674 26 18410852131602542398

> <PUBCHEM_SHAPE_MULTIPOLES>
465.45
11.03
4.89
1.01
0.76
0.48
-0.07
-6.89
-1.38
0.61
0.36
1.03
-0.21
0.24

> <PUBCHEM_SHAPE_SELFOVERLAP>
1005.186

> <PUBCHEM_SHAPE_VOLUME>
253.4

> <PUBCHEM_COORDINATE_TYPE>
2
5
10

$$$$

