10055
  -OEChem-06261204172D

 90 95  0     1  0  0  0  0  0999 V2000
   11.3876   -2.0254    0.0000 O   0  0  0  0  0  0  0  0  0  0  0  0
   13.9174   -0.5254    0.0000 O   0  0  0  0  0  0  0  0  0  0  0  0
    5.9945   -3.0778    0.0000 O   0  0  0  0  0  0  0  0  0  0  0  0
   12.6473    2.8479    0.0000 O   0  0  0  0  0  0  0  0  0  0  0  0
    4.2625   -3.0711    0.0000 O   0  0  0  0  0  0  0  0  0  0  0  0
   13.9174   -2.2575    0.0000 O   0  0  0  0  0  0  0  0  0  0  0  0
   14.4078    3.1236    0.0000 O   0  0  0  0  0  0  0  0  0  0  0  0
    6.0022   -1.0778    0.0000 O   0  0  0  0  0  0  0  0  0  0  0  0
    4.2740   -0.0711    0.0000 O   0  0  0  0  0  0  0  0  0  0  0  0
    2.5381   -1.0644    0.0000 O   0  0  0  0  0  0  0  0  0  0  0  0
   11.3876   -1.0254    0.0000 C   0  0  1  0  0  0  0  0  0  0  0  0
   10.5216   -1.5254    0.0000 C   0  0  3  0  0  0  0  0  0  0  0  0
   11.3876   -0.0254    0.0000 C   0  0  1  0  0  0  0  0  0  0  0  0
    9.6555   -1.0254    0.0000 C   0  0  3  0  0  0  0  0  0  0  0  0
    8.7455   -1.5323    0.0000 C   0  0  2  0  0  0  0  0  0  0  0  0
    8.7375   -2.5739    0.0000 C   0  0  2  0  0  0  0  0  0  0  0  0
   12.3338    0.2793    0.0000 C   0  0  3  0  0  0  0  0  0  0  0  0
   10.5216    0.4746    0.0000 C   0  0  0  0  0  0  0  0  0  0  0  0
    9.6555   -0.0254    0.0000 C   0  0  0  0  0  0  0  0  0  0  0  0
   12.3338   -1.3302    0.0000 C   0  0  0  0  0  0  0  0  0  0  0  0
   10.5376   -2.5669    0.0000 C   0  0  0  0  0  0  0  0  0  0  0  0
   12.9174   -0.5254    0.0000 C   0  0  2  0  0  0  0  0  0  0  0  0
    9.6396   -3.0947    0.0000 C   0  0  0  0  0  0  0  0  0  0  0  0
    7.8187   -0.9682    0.0000 C   0  0  0  0  0  0  0  0  0  0  0  0
   11.3876    0.9746    0.0000 C   0  0  0  0  0  0  0  0  0  0  0  0
    7.8021   -3.1236    0.0000 C   0  0  0  0  0  0  0  0  0  0  0  0
    8.7532   -0.5323    0.0000 C   0  0  0  0  0  0  0  0  0  0  0  0
    6.8708   -1.4961    0.0000 C   0  0  0  0  0  0  0  0  0  0  0  0
    6.8624   -2.5811    0.0000 C   0  0  2  0  0  0  0  0  0  0  0  0
   12.6445    1.2298    0.0000 C   0  0  0  0  0  0  0  0  0  0  0  0
   12.0581    2.0399    0.0000 C   0  0  0  0  0  0  0  0  0  0  0  0
   13.5960    1.5372    0.0000 C   0  0  0  0  0  0  0  0  0  0  0  0
   14.4174   -1.3914    0.0000 C   0  0  0  0  0  0  0  0  0  0  0  0
   13.5978    2.5372    0.0000 C   0  0  0  0  0  0  0  0  0  0  0  0
    5.1304   -2.5744    0.0000 C   0  0  2  0  0  0  0  0  0  0  0  0
    5.1343   -1.5744    0.0000 C   0  0  3  0  0  0  0  0  0  0  0  0
   15.4174   -1.3914    0.0000 C   0  0  0  0  0  0  0  0  0  0  0  0
    4.2702   -1.0711    0.0000 C   0  0  3  0  0  0  0  0  0  0  0  0
    3.3984   -2.5677    0.0000 C   0  0  3  0  0  0  0  0  0  0  0  0
    3.4022   -1.5678    0.0000 C   0  0  2  0  0  0  0  0  0  0  0  0
    2.5304   -3.0644    0.0000 C   0  0  0  0  0  0  0  0  0  0  0  0
    3.4099    0.4322    0.0000 C   0  0  0  0  0  0  0  0  0  0  0  0
   11.2609   -1.9447    0.0000 H   0  0  0  0  0  0  0  0  0  0  0  0
   10.3916   -0.6004    0.0000 H   0  0  0  0  0  0  0  0  0  0  0  0
    8.7408   -3.4239    0.0000 H   0  0  0  0  0  0  0  0  0  0  0  0
   13.1735    0.4112    0.0000 H   0  0  0  0  0  0  0  0  0  0  0  0
   10.9201    0.9495    0.0000 H   0  0  0  0  0  0  0  0  0  0  0  0
   10.1230    0.9495    0.0000 H   0  0  0  0  0  0  0  0  0  0  0  0
    9.4435    0.5572    0.0000 H   0  0  0  0  0  0  0  0  0  0  0  0
    9.0450   -0.1331    0.0000 H   0  0  0  0  0  0  0  0  0  0  0  0
   12.0828   -1.8971    0.0000 H   0  0  0  0  0  0  0  0  0  0  0  0
   12.8712   -1.6394    0.0000 H   0  0  0  0  0  0  0  0  0  0  0  0
   10.7556   -3.1473    0.0000 H   0  0  0  0  0  0  0  0  0  0  0  0
   11.1468   -2.4514    0.0000 H   0  0  0  0  0  0  0  0  0  0  0  0
   13.1991    0.0269    0.0000 H   0  0  0  0  0  0  0  0  0  0  0  0
    9.2423   -3.5706    0.0000 H   0  0  0  0  0  0  0  0  0  0  0  0
   10.0405   -3.5676    0.0000 H   0  0  0  0  0  0  0  0  0  0  0  0
    8.2269   -0.5015    0.0000 H   0  0  0  0  0  0  0  0  0  0  0  0
    7.4288   -0.4861    0.0000 H   0  0  0  0  0  0  0  0  0  0  0  0
   12.0076    0.9746    0.0000 H   0  0  0  0  0  0  0  0  0  0  0  0
   11.3876    1.5946    0.0000 H   0  0  0  0  0  0  0  0  0  0  0  0
   10.7676    0.9746    0.0000 H   0  0  0  0  0  0  0  0  0  0  0  0
    7.4048   -3.5996    0.0000 H   0  0  0  0  0  0  0  0  0  0  0  0
    8.2030   -3.5965    0.0000 H   0  0  0  0  0  0  0  0  0  0  0  0
    9.3732   -0.5371    0.0000 H   0  0  0  0  0  0  0  0  0  0  0  0
    8.7580    0.0877    0.0000 H   0  0  0  0  0  0  0  0  0  0  0  0
    8.1332   -0.5275    0.0000 H   0  0  0  0  0  0  0  0  0  0  0  0
    6.6662   -0.9108    0.0000 H   0  0  0  0  0  0  0  0  0  0  0  0
    6.2592   -1.5975    0.0000 H   0  0  0  0  0  0  0  0  0  0  0  0
    6.3273   -2.2680    0.0000 H   0  0  0  0  0  0  0  0  0  0  0  0
   11.9245   -2.3354    0.0000 H   0  0  0  0  0  0  0  0  0  0  0  0
   11.5980    2.4555    0.0000 H   0  0  0  0  0  0  0  0  0  0  0  0
   11.5966    1.6258    0.0000 H   0  0  0  0  0  0  0  0  0  0  0  0
   14.0970    1.1719    0.0000 H   0  0  0  0  0  0  0  0  0  0  0  0
    5.1280   -3.1944    0.0000 H   0  0  0  0  0  0  0  0  0  0  0  0
    5.8687   -2.0023    0.0000 H   0  0  0  0  0  0  0  0  0  0  0  0
   15.4174   -2.0114    0.0000 H   0  0  0  0  0  0  0  0  0  0  0  0
   16.0374   -1.3914    0.0000 H   0  0  0  0  0  0  0  0  0  0  0  0
   15.4174   -0.7714    0.0000 H   0  0  0  0  0  0  0  0  0  0  0  0
    3.5357   -0.6433    0.0000 H   0  0  0  0  0  0  0  0  0  0  0  0
    3.3951   -3.4177    0.0000 H   0  0  0  0  0  0  0  0  0  0  0  0
    2.8641   -1.8757    0.0000 H   0  0  0  0  0  0  0  0  0  0  0  0
    6.0046   -0.4578    0.0000 H   0  0  0  0  0  0  0  0  0  0  0  0
    2.2225   -2.5263    0.0000 H   0  0  0  0  0  0  0  0  0  0  0  0
    1.9923   -3.3723    0.0000 H   0  0  0  0  0  0  0  0  0  0  0  0
    2.8384   -3.6025    0.0000 H   0  0  0  0  0  0  0  0  0  0  0  0
    2.0000   -1.3723    0.0000 H   0  0  0  0  0  0  0  0  0  0  0  0
    3.7220    0.9680    0.0000 H   0  0  0  0  0  0  0  0  0  0  0  0
    2.8742    0.7443    0.0000 H   0  0  0  0  0  0  0  0  0  0  0  0
    3.0979   -0.1035    0.0000 H   0  0  0  0  0  0  0  0  0  0  0  0
 11  1  1  1  0  0  0
  1 71  1  0  0  0  0
 22  2  1  1  0  0  0
  2 33  1  0  0  0  0
 29  3  1  1  0  0  0
 35  3  1  6  0  0  0
  4 31  1  0  0  0  0
  4 34  1  0  0  0  0
  5 35  1  0  0  0  0
  5 39  1  0  0  0  0
  6 33  2  0  0  0  0
  7 34  2  0  0  0  0
  8 36  1  0  0  0  0
  8 83  1  0  0  0  0
  9 38  1  0  0  0  0
  9 42  1  0  0  0  0
 40 10  1  6  0  0  0
 10 87  1  0  0  0  0
 11 12  1  0  0  0  0
 11 13  1  0  0  0  0
 11 20  1  0  0  0  0
 12 14  1  0  0  0  0
 12 21  1  0  0  0  0
 12 43  1  0  0  0  0
 13 17  1  0  0  0  0
 13 18  1  0  0  0  0
 13 25  1  1  0  0  0
 14 15  1  0  0  0  0
 14 19  1  0  0  0  0
 14 44  1  0  0  0  0
 15 16  1  0  0  0  0
 15 24  1  0  0  0  0
 15 27  1  1  0  0  0
 16 23  1  0  0  0  0
 16 26  1  0  0  0  0
 16 45  1  1  0  0  0
 17 22  1  0  0  0  0
 17 30  1  0  0  0  0
 17 46  1  0  0  0  0
 18 19  1  0  0  0  0
 18 47  1  0  0  0  0
 18 48  1  0  0  0  0
 19 49  1  0  0  0  0
 19 50  1  0  0  0  0
 20 22  1  0  0  0  0
 20 51  1  0  0  0  0
 20 52  1  0  0  0  0
 21 23  1  0  0  0  0
 21 53  1  0  0  0  0
 21 54  1  0  0  0  0
 22 55  1  0  0  0  0
 23 56  1  0  0  0  0
 23 57  1  0  0  0  0
 24 28  1  0  0  0  0
 24 58  1  0  0  0  0
 24 59  1  0  0  0  0
 25 60  1  0  0  0  0
 25 61  1  0  0  0  0
 25 62  1  0  0  0  0
 26 29  1  0  0  0  0
 26 63  1  0  0  0  0
 26 64  1  0  0  0  0
 27 65  1  0  0  0  0
 27 66  1  0  0  0  0
 27 67  1  0  0  0  0
 28 29  1  0  0  0  0
 28 68  1  0  0  0  0
 28 69  1  0  0  0  0
 29 70  1  0  0  0  0
 30 31  1  0  0  0  0
 30 32  2  0  0  0  0
 31 72  1  0  0  0  0
 31 73  1  0  0  0  0
 32 34  1  0  0  0  0
 32 74  1  0  0  0  0
 33 37  1  0  0  0  0
 35 36  1  0  0  0  0
 35 75  1  0  0  0  0
 36 38  1  0  0  0  0
 36 76  1  0  0  0  0
 37 77  1  0  0  0  0
 37 78  1  0  0  0  0
 37 79  1  0  0  0  0
 38 40  1  0  0  0  0
 38 80  1  0  0  0  0
 39 40  1  0  0  0  0
 39 41  1  0  0  0  0
 39 81  1  0  0  0  0
 40 82  1  0  0  0  0
 41 84  1  0  0  0  0
 41 85  1  0  0  0  0
 41 86  1  0  0  0  0
 42 88  1  0  0  0  0
 42 89  1  0  0  0  0
 42 90  1  0  0  0  0
M  END
> <PUBCHEM_COMPOUND_CID>
10055

> <PUBCHEM_COMPOUND_CANONICALIZED>
1

> <PUBCHEM_CACTVS_COMPLEXITY>
1110

> <PUBCHEM_CACTVS_HBOND_ACCEPTOR>
10

> <PUBCHEM_CACTVS_HBOND_DONOR>
3

> <PUBCHEM_CACTVS_ROTATABLE_BOND>
6

> <PUBCHEM_CACTVS_SUBSKEYS>
AAADcfB8PAAAAAAAAAAAAAAAAAAAAYIAAAA0YMEAAAAAAGDAAAAAGgAACAAAD1SwgAMCCAAABgCIAiDSCAAAAAAgAAAACAAAAEgRFAIAIQAiUAAFwAAPIQPA4PwPgAAAAAAAAADAAAYAADAAAYQADAAAAA==

> <PUBCHEM_IUPAC_OPENEYE_NAME>
[(3S,5R,10S,13R,14S,16S)-3-[(2R,5S)-3,5-dihydroxy-4-methoxy-6-methyl-tetrahydropyran-2-yl]oxy-14-hydroxy-10,13-dimethyl-17-(5-oxo-2H-furan-3-yl)-1,2,3,4,5,6,7,8,9,11,12,15,16,17-tetradecahydrocyclopenta[a]phenanthren-16-yl] acetate

> <PUBCHEM_IUPAC_CAS_NAME>
acetic acid [(3S,5R,10S,13R,14S,16S)-3-[[(2R,5S)-3,5-dihydroxy-4-methoxy-6-methyl-2-oxanyl]oxy]-14-hydroxy-10,13-dimethyl-17-(5-oxo-2H-furan-3-yl)-1,2,3,4,5,6,7,8,9,11,12,15,16,17-tetradecahydrocyclopenta[a]phenanthren-16-yl] ester

> <PUBCHEM_IUPAC_NAME>
[(3S,5R,10S,13R,14S,16S)-3-[(2R,5S)-3,5-dihydroxy-4-methoxy-6-methyloxan-2-yl]oxy-14-hydroxy-10,13-dimethyl-17-(5-oxo-2H-furan-3-yl)-1,2,3,4,5,6,7,8,9,11,12,15,16,17-tetradecahydrocyclopenta[a]phenanthren-16-yl] acetate

> <PUBCHEM_IUPAC_SYSTEMATIC_NAME>
[(3S,5R,10S,13R,14S,16S)-3-[(2R,5S)-4-methoxy-6-methyl-3,5-bis(oxidanyl)oxan-2-yl]oxy-10,13-dimethyl-14-oxidanyl-17-(5-oxidanylidene-2H-furan-3-yl)-1,2,3,4,5,6,7,8,9,11,12,15,16,17-tetradecahydrocyclopenta[a]phenanthren-16-yl] ethanoate

> <PUBCHEM_IUPAC_TRADITIONAL_NAME>
acetic acid [(3S,5R,10S,13R,14S,16S)-3-[(2R,5S)-3,5-dihydroxy-4-methoxy-6-methyl-tetrahydropyran-2-yl]oxy-14-hydroxy-17-(5-keto-2H-furan-3-yl)-10,13-dimethyl-1,2,3,4,5,6,7,8,9,11,12,15,16,17-tetradecahydrocyclopenta[a]phenanthren-16-yl] ester

> <PUBCHEM_IUPAC_INCHI>
InChI=1S/C32H48O10/c1-16-26(35)28(38-5)27(36)29(40-16)42-20-8-10-30(3)19(13-20)6-7-22-21(30)9-11-31(4)25(18-12-24(34)39-15-18)23(41-17(2)33)14-32(22,31)37/h12,16,19-23,25-29,35-37H,6-11,13-15H2,1-5H3/t16?,19-,20+,21?,22?,23+,25?,26+,27?,28?,29+,30+,31-,32+/m1/s1

> <PUBCHEM_IUPAC_INCHIKEY>
UZQOZJNEDXAJEZ-PBCLCOBXSA-N

> <PUBCHEM_XLOGP3>
1.4

> <PUBCHEM_EXACT_MASS>
592.324748

> <PUBCHEM_MOLECULAR_FORMULA>
C32H48O10

> <PUBCHEM_MOLECULAR_WEIGHT>
592.71752

> <PUBCHEM_OPENEYE_CAN_SMILES>
CC1C(C(C(C(O1)OC2CCC3(C(C2)CCC4C3CCC5(C4(CC(C5C6=CC(=O)OC6)OC(=O)C)O)C)C)O)OC)O

> <PUBCHEM_OPENEYE_ISO_SMILES>
CC1[C@@H](C(C([C@@H](O1)O[C@H]2CC[C@]3([C@@H](C2)CCC4C3CC[C@]5([C@@]4(C[C@@H](C5C6=CC(=O)OC6)OC(=O)C)O)C)C)O)OC)O

> <PUBCHEM_CACTVS_TPSA>
141

> <PUBCHEM_MONOISOTOPIC_WEIGHT>
592.324748

> <PUBCHEM_TOTAL_CHARGE>
0

> <PUBCHEM_HEAVY_ATOM_COUNT>
42

> <PUBCHEM_ATOM_DEF_STEREO_COUNT>
8

> <PUBCHEM_ATOM_UDEF_STEREO_COUNT>
6

> <PUBCHEM_BOND_DEF_STEREO_COUNT>
0

> <PUBCHEM_BOND_UDEF_STEREO_COUNT>
0

> <PUBCHEM_ISOTOPIC_ATOM_COUNT>
0

> <PUBCHEM_COMPONENT_COUNT>
1

> <PUBCHEM_CACTVS_TAUTO_COUNT>
1

> <PUBCHEM_COORDINATE_TYPE>
1
5
255

> <PUBCHEM_BONDANNOTATIONS>
11  1  5
40  10  6
12  43  3
13  25  5
14  44  3
15  27  5
16  45  5
17  46  3
22  2  5
29  3  5
35  3  6
36  76  3
38  80  3
39  81  3

$$$$

