6499
  -OEChem-06261201212D

 71 74  0     0  0  0  0  0  0999 V2000
    4.9109    0.1834    0.0000 Sn  0  0  0  0  0  0  0  0  0  0  0  0
    6.4402   -0.6298    0.0000 Sn  0  3  0  0  0  0  0  0  0  0  0  0
    5.9103    0.2183    0.0000 S   0  5  0  0  0  0  0  0  0  0  0  0
    3.9406    0.4253    0.0000 C   0  0  0  0  0  0  0  0  0  0  0  0
    5.1865    1.1446    0.0000 C   0  0  0  0  0  0  0  0  0  0  0  0
    5.2529   -0.7563    0.0000 C   0  0  0  0  0  0  0  0  0  0  0  0
    5.5921   -1.1597    0.0000 C   0  0  0  0  0  0  0  0  0  0  0  0
    7.1093   -1.3729    0.0000 C   0  0  0  0  0  0  0  0  0  0  0  0
    7.2882   -0.0999    0.0000 C   0  0  0  0  0  0  0  0  0  0  0  0
    3.2459   -0.2941    0.0000 C   0  0  0  0  0  0  0  0  0  0  0  0
    4.4919    1.8640    0.0000 C   0  0  0  0  0  0  0  0  0  0  0  0
    6.1189   -1.2563    0.0000 C   0  0  0  0  0  0  0  0  0  0  0  0
    3.6650    1.3865    0.0000 C   0  0  0  0  0  0  0  0  0  0  0  0
    6.1568    1.3865    0.0000 C   0  0  0  0  0  0  0  0  0  0  0  0
    4.3869   -1.2563    0.0000 C   0  0  0  0  0  0  0  0  0  0  0  0
    5.6271   -2.1591    0.0000 C   0  0  0  0  0  0  0  0  0  0  0  0
    8.0875   -1.1650    0.0000 C   0  0  0  0  0  0  0  0  0  0  0  0
    7.2533    0.8995    0.0000 C   0  0  0  0  0  0  0  0  0  0  0  0
    4.7092   -0.6902    0.0000 C   0  0  0  0  0  0  0  0  0  0  0  0
    6.8003   -2.3240    0.0000 C   0  0  0  0  0  0  0  0  0  0  0  0
    8.1712   -0.5693    0.0000 C   0  0  0  0  0  0  0  0  0  0  0  0
    2.2756   -0.0521    0.0000 C   0  0  0  0  0  0  0  0  0  0  0  0
    4.7675    2.8252    0.0000 C   0  0  0  0  0  0  0  0  0  0  0  0
    6.1189   -2.2563    0.0000 C   0  0  0  0  0  0  0  0  0  0  0  0
    2.6947    1.6285    0.0000 C   0  0  0  0  0  0  0  0  0  0  0  0
    6.4325    2.3478    0.0000 C   0  0  0  0  0  0  0  0  0  0  0  0
    4.3869   -2.2563    0.0000 C   0  0  0  0  0  0  0  0  0  0  0  0
    2.0000    0.9091    0.0000 C   0  0  0  0  0  0  0  0  0  0  0  0
    5.7378    3.0671    0.0000 C   0  0  0  0  0  0  0  0  0  0  0  0
    5.2529   -2.7563    0.0000 C   0  0  0  0  0  0  0  0  0  0  0  0
    4.7790   -2.6890    0.0000 C   0  0  0  0  0  0  0  0  0  0  0  0
    8.7566   -1.9082    0.0000 C   0  0  0  0  0  0  0  0  0  0  0  0
    8.1014    1.4294    0.0000 C   0  0  0  0  0  0  0  0  0  0  0  0
    3.8612   -1.2202    0.0000 C   0  0  0  0  0  0  0  0  0  0  0  0
    7.4694   -3.0671    0.0000 C   0  0  0  0  0  0  0  0  0  0  0  0
    9.0192   -0.0394    0.0000 C   0  0  0  0  0  0  0  0  0  0  0  0
    3.8960   -2.2195    0.0000 C   0  0  0  0  0  0  0  0  0  0  0  0
    8.4476   -2.8592    0.0000 C   0  0  0  0  0  0  0  0  0  0  0  0
    8.9843    0.9600    0.0000 C   0  0  0  0  0  0  0  0  0  0  0  0
    4.3212   -0.0082    0.0000 H   0  0  0  0  0  0  0  0  0  0  0  0
    6.2014    0.7657    0.0000 H   0  0  0  0  0  0  0  0  0  0  0  0
    3.4168   -0.8900    0.0000 H   0  0  0  0  0  0  0  0  0  0  0  0
    3.8903    1.7140    0.0000 H   0  0  0  0  0  0  0  0  0  0  0  0
    6.6559   -0.9463    0.0000 H   0  0  0  0  0  0  0  0  0  0  0  0
    4.0956    1.8325    0.0000 H   0  0  0  0  0  0  0  0  0  0  0  0
    6.5875    0.9405    0.0000 H   0  0  0  0  0  0  0  0  0  0  0  0
    3.8499   -0.9463    0.0000 H   0  0  0  0  0  0  0  0  0  0  0  0
    6.1746   -2.4501    0.0000 H   0  0  0  0  0  0  0  0  0  0  0  0
    8.2791   -0.5754    0.0000 H   0  0  0  0  0  0  0  0  0  0  0  0
    6.7059    1.1906    0.0000 H   0  0  0  0  0  0  0  0  0  0  0  0
    4.6876   -0.0706    0.0000 H   0  0  0  0  0  0  0  0  0  0  0  0
    6.1939   -2.4529    0.0000 H   0  0  0  0  0  0  0  0  0  0  0  0
    8.1928   -1.1890    0.0000 H   0  0  0  0  0  0  0  0  0  0  0  0
    1.8449   -0.4981    0.0000 H   0  0  0  0  0  0  0  0  0  0  0  0
    4.3368    3.2712    0.0000 H   0  0  0  0  0  0  0  0  0  0  0  0
    6.6559   -2.5663    0.0000 H   0  0  0  0  0  0  0  0  0  0  0  0
    2.5238    2.2244    0.0000 H   0  0  0  0  0  0  0  0  0  0  0  0
    7.0340    2.4978    0.0000 H   0  0  0  0  0  0  0  0  0  0  0  0
    3.8499   -2.5663    0.0000 H   0  0  0  0  0  0  0  0  0  0  0  0
    1.3984    1.0591    0.0000 H   0  0  0  0  0  0  0  0  0  0  0  0
    5.9087    3.6631    0.0000 H   0  0  0  0  0  0  0  0  0  0  0  0
    5.2529   -3.3763    0.0000 H   0  0  0  0  0  0  0  0  0  0  0  0
    4.8007   -3.3087    0.0000 H   0  0  0  0  0  0  0  0  0  0  0  0
    9.3631   -1.7793    0.0000 H   0  0  0  0  0  0  0  0  0  0  0  0
    8.0798    2.0491    0.0000 H   0  0  0  0  0  0  0  0  0  0  0  0
    3.3137   -0.9291    0.0000 H   0  0  0  0  0  0  0  0  0  0  0  0
    7.2779   -3.6568    0.0000 H   0  0  0  0  0  0  0  0  0  0  0  0
    9.5667   -0.3305    0.0000 H   0  0  0  0  0  0  0  0  0  0  0  0
    3.3702   -2.5481    0.0000 H   0  0  0  0  0  0  0  0  0  0  0  0
    8.8624   -3.3200    0.0000 H   0  0  0  0  0  0  0  0  0  0  0  0
    9.5101    1.2885    0.0000 H   0  0  0  0  0  0  0  0  0  0  0  0
  1  4  1  0  0  0  0
  1  5  1  0  0  0  0
  1  6  1  0  0  0  0
  1 40  1  0  0  0  0
  2  7  1  0  0  0  0
  2  8  1  0  0  0  0
  2  9  1  0  0  0  0
  3 41  1  0  0  0  0
  4 10  2  0  0  0  0
  4 13  1  0  0  0  0
  5 11  2  0  0  0  0
  5 14  1  0  0  0  0
  6 12  2  0  0  0  0
  6 15  1  0  0  0  0
  7 16  2  0  0  0  0
  7 19  1  0  0  0  0
  8 17  2  0  0  0  0
  8 20  1  0  0  0  0
  9 18  2  0  0  0  0
  9 21  1  0  0  0  0
 10 22  1  0  0  0  0
 10 42  1  0  0  0  0
 11 23  1  0  0  0  0
 11 43  1  0  0  0  0
 12 24  1  0  0  0  0
 12 44  1  0  0  0  0
 13 25  2  0  0  0  0
 13 45  1  0  0  0  0
 14 26  2  0  0  0  0
 14 46  1  0  0  0  0
 15 27  2  0  0  0  0
 15 47  1  0  0  0  0
 16 31  1  0  0  0  0
 16 48  1  0  0  0  0
 17 32  1  0  0  0  0
 17 49  1  0  0  0  0
 18 33  1  0  0  0  0
 18 50  1  0  0  0  0
 19 34  2  0  0  0  0
 19 51  1  0  0  0  0
 20 35  2  0  0  0  0
 20 52  1  0  0  0  0
 21 36  2  0  0  0  0
 21 53  1  0  0  0  0
 22 28  2  0  0  0  0
 22 54  1  0  0  0  0
 23 29  2  0  0  0  0
 23 55  1  0  0  0  0
 24 30  2  0  0  0  0
 24 56  1  0  0  0  0
 25 28  1  0  0  0  0
 25 57  1  0  0  0  0
 26 29  1  0  0  0  0
 26 58  1  0  0  0  0
 27 30  1  0  0  0  0
 27 59  1  0  0  0  0
 28 60  1  0  0  0  0
 29 61  1  0  0  0  0
 30 62  1  0  0  0  0
 31 37  2  0  0  0  0
 31 63  1  0  0  0  0
 32 38  2  0  0  0  0
 32 64  1  0  0  0  0
 33 39  2  0  0  0  0
 33 65  1  0  0  0  0
 34 37  1  0  0  0  0
 34 66  1  0  0  0  0
 35 38  1  0  0  0  0
 35 67  1  0  0  0  0
 36 39  1  0  0  0  0
 36 68  1  0  0  0  0
 37 69  1  0  0  0  0
 38 70  1  0  0  0  0
 39 71  1  0  0  0  0
M  CHG  2   2   1   3  -1
M  END
> <PUBCHEM_COMPOUND_CID>
6499

> <PUBCHEM_COMPOUND_CANONICALIZED>
1

> <PUBCHEM_CACTVS_COMPLEXITY>
518

> <PUBCHEM_CACTVS_HBOND_ACCEPTOR>
1

> <PUBCHEM_CACTVS_HBOND_DONOR>
1

> <PUBCHEM_CACTVS_ROTATABLE_BOND>
6

> <PUBCHEM_CACTVS_SUBSKEYS>
AAADcfB8AABAAAAAAACAAAAAAAAAAAAAAAAwYMGDAAAAAAABVAAAGAAAAAAACACAEAAwAIAAAACAACBCAAACAAAgAAAIiAAAAIgIICKAERCAIAAggAAIiAcAAAAAAAAAAAAAAAAAAAAAAAAAAAAAAAAAAA==

> <PUBCHEM_IUPAC_OPENEYE_NAME>
sulfanide; triphenylstannane; triphenylstannanylium

> <PUBCHEM_IUPAC_CAS_NAME>
sulfanide; triphenylstannane; triphenylstannanylium

> <PUBCHEM_IUPAC_NAME>
sulfanide; triphenylstannane; triphenylstannanylium

> <PUBCHEM_IUPAC_SYSTEMATIC_NAME>
sulfanide; triphenylstannane; triphenylstannanylium

> <PUBCHEM_IUPAC_TRADITIONAL_NAME>
triphenylstannane; triphenylstannanylium; bisulfide

> <PUBCHEM_IUPAC_INCHI>
InChI=1S/6C6H5.H2S.2Sn.H/c6*1-2-4-6-5-3-1;;;;/h6*1-5H;1H2;;;/q;;;;;;;;+1;/p-1

> <PUBCHEM_IUPAC_INCHIKEY>
UZFPTJDXSIHUGL-UHFFFAOYSA-M

> <PUBCHEM_EXACT_MASS>
734.02627

> <PUBCHEM_MOLECULAR_FORMULA>
C36H32SSn2

> <PUBCHEM_MOLECULAR_WEIGHT>
734.12428

> <PUBCHEM_OPENEYE_CAN_SMILES>
C1=CC=C(C=C1)[SnH](C2=CC=CC=C2)C3=CC=CC=C3.C1=CC=C(C=C1)[Sn+](C2=CC=CC=C2)C3=CC=CC=C3.[SH-]

> <PUBCHEM_OPENEYE_ISO_SMILES>
C1=CC=C(C=C1)[SnH](C2=CC=CC=C2)C3=CC=CC=C3.C1=CC=C(C=C1)[Sn+](C2=CC=CC=C2)C3=CC=CC=C3.[SH-]

> <PUBCHEM_CACTVS_TPSA>
1

> <PUBCHEM_MONOISOTOPIC_WEIGHT>
736.026861

> <PUBCHEM_TOTAL_CHARGE>
0

> <PUBCHEM_HEAVY_ATOM_COUNT>
39

> <PUBCHEM_ATOM_DEF_STEREO_COUNT>
0

> <PUBCHEM_ATOM_UDEF_STEREO_COUNT>
0

> <PUBCHEM_BOND_DEF_STEREO_COUNT>
0

> <PUBCHEM_BOND_UDEF_STEREO_COUNT>
0

> <PUBCHEM_ISOTOPIC_ATOM_COUNT>
0

> <PUBCHEM_COMPONENT_COUNT>
3

> <PUBCHEM_CACTVS_TAUTO_COUNT>
1

> <PUBCHEM_NONSTANDARDBOND>
1  3  6
2  3  6

> <PUBCHEM_COORDINATE_TYPE>
1
5
255

> <PUBCHEM_BONDANNOTATIONS>
1  3  4
10  22  8
11  23  8
12  24  8
13  25  8
14  26  8
15  27  8
16  31  8
17  32  8
18  33  8
19  34  8
2  3  4
20  35  8
21  36  8
22  28  8
23  29  8
24  30  8
25  28  8
26  29  8
27  30  8
31  37  8
32  38  8
33  39  8
34  37  8
35  38  8
36  39  8
4  10  8
4  13  8
5  11  8
5  14  8
6  12  8
6  15  8
7  16  8
7  19  8
8  17  8
8  20  8
9  18  8
9  21  8

$$$$

