10016
  -OEChem-06261204153D

 14 13  0     0  0  0  0  0  0999 V2000
   -2.5297   -0.7027    0.5218 F   0  0  0  0  0  0  0  0  0  0  0  0
    0.1003   -0.3012   -0.2158 O   0  0  0  0  0  0  0  0  0  0  0  0
    1.8259    1.1421    0.3094 O   0  0  0  0  0  0  0  0  0  0  0  0
   -0.8375    0.7752   -0.1160 C   0  0  0  0  0  0  0  0  0  0  0  0
   -2.2226    0.2431   -0.4079 C   0  0  0  0  0  0  0  0  0  0  0  0
    1.4009    0.0309    0.0236 C   0  0  0  0  0  0  0  0  0  0  0  0
    2.2627   -1.1873   -0.1150 C   0  0  0  0  0  0  0  0  0  0  0  0
   -0.5771    1.5588   -0.8356 H   0  0  0  0  0  0  0  0  0  0  0  0
   -0.8057    1.1782    0.9022 H   0  0  0  0  0  0  0  0  0  0  0  0
   -2.9760    1.0332   -0.3537 H   0  0  0  0  0  0  0  0  0  0  0  0
   -2.2662   -0.2400   -1.3881 H   0  0  0  0  0  0  0  0  0  0  0  0
    2.1870   -1.5815   -1.1316 H   0  0  0  0  0  0  0  0  0  0  0  0
    1.9585   -1.9419    0.6148 H   0  0  0  0  0  0  0  0  0  0  0  0
    3.3052   -0.9176    0.0770 H   0  0  0  0  0  0  0  0  0  0  0  0
  1  5  1  0  0  0  0
  2  4  1  0  0  0  0
  2  6  1  0  0  0  0
  3  6  2  0  0  0  0
  4  5  1  0  0  0  0
  4  8  1  0  0  0  0
  4  9  1  0  0  0  0
  5 10  1  0  0  0  0
  5 11  1  0  0  0  0
  6  7  1  0  0  0  0
  7 12  1  0  0  0  0
  7 13  1  0  0  0  0
  7 14  1  0  0  0  0
M  END
> <PUBCHEM_COMPOUND_CID>
10016

> <PUBCHEM_CONFORMER_RMSD>
0.4

> <PUBCHEM_CONFORMER_DIVERSEORDER>
1
22
36
29
31
34
17
23
5
24
30
25
35
16
6
11
14
33
12
28
3
15
4
32
2
9
8
18
20
7
27
26
13
19
10
21

> <PUBCHEM_MMFF94_PARTIAL_CHARGES>
7
1 -0.34
2 -0.43
3 -0.57
4 0.28
5 0.34
6 0.66
7 0.06

> <PUBCHEM_EFFECTIVE_ROTOR_COUNT>
3

> <PUBCHEM_PHARMACOPHORE_FEATURES>
1
1 3 acceptor

> <PUBCHEM_HEAVY_ATOM_COUNT>
7

> <PUBCHEM_ATOM_DEF_STEREO_COUNT>
0

> <PUBCHEM_ATOM_UDEF_STEREO_COUNT>
0

> <PUBCHEM_BOND_DEF_STEREO_COUNT>
0

> <PUBCHEM_BOND_UDEF_STEREO_COUNT>
0

> <PUBCHEM_ISOTOPIC_ATOM_COUNT>
0

> <PUBCHEM_COMPONENT_COUNT>
1

> <PUBCHEM_CACTVS_TAUTO_COUNT>
1

> <PUBCHEM_CONFORMER_ID>
0000272000000001

> <PUBCHEM_MMFF94_ENERGY>
2.932

> <PUBCHEM_FEATURE_SELFOVERLAP>
5.074

> <PUBCHEM_SHAPE_FINGERPRINT>
12932741 1 18201446895171044221
20096714 4 18187934936779832740
23552423 10 18131629014761189295
24536 1 18337968877293896585
29004967 10 18410294704929519568
5460574 1 9151172060371881492

> <PUBCHEM_SHAPE_MULTIPOLES>
125.04
3.75
1.11
0.65
0.85
0.05
0.02
-0.85
-0.12
-0.44
-0.07
0.1
-0.02
0.28

> <PUBCHEM_SHAPE_SELFOVERLAP>
226.092

> <PUBCHEM_SHAPE_VOLUME>
80.3

> <PUBCHEM_COORDINATE_TYPE>
2
5
10

$$$$

