14048
  -OEChem-06241222412D

 76 72  0     0  0  0  0  0  0999 V2000
    8.9282    2.7315    0.0000 Al  0  1  0  0  0  0  0  0  0  0  0  0
    9.7942    3.2315    0.0000 C   0  5  0  0  0  0  0  0  0  0  0  0
    8.0622    3.2315    0.0000 C   0  5  0  0  0  0  0  0  0  0  0  0
    8.9282    1.7315    0.0000 C   0  5  0  0  0  0  0  0  0  0  0  0
   10.6603    3.7315    0.0000 C   0  0  0  0  0  0  0  0  0  0  0  0
    7.1962    3.7315    0.0000 C   0  0  0  0  0  0  0  0  0  0  0  0
    8.9282    0.7315    0.0000 C   0  0  0  0  0  0  0  0  0  0  0  0
   11.5263    3.2315    0.0000 C   0  0  0  0  0  0  0  0  0  0  0  0
    6.3301    3.2315    0.0000 C   0  0  0  0  0  0  0  0  0  0  0  0
    8.0622    0.2315    0.0000 C   0  0  0  0  0  0  0  0  0  0  0  0
   12.3923    3.7315    0.0000 C   0  0  0  0  0  0  0  0  0  0  0  0
    5.4641    3.7315    0.0000 C   0  0  0  0  0  0  0  0  0  0  0  0
    8.0622   -0.7685    0.0000 C   0  0  0  0  0  0  0  0  0  0  0  0
   13.2583    3.2315    0.0000 C   0  0  0  0  0  0  0  0  0  0  0  0
    4.5981    3.2315    0.0000 C   0  0  0  0  0  0  0  0  0  0  0  0
    7.1962   -1.2685    0.0000 C   0  0  0  0  0  0  0  0  0  0  0  0
   14.1244    3.7315    0.0000 C   0  0  0  0  0  0  0  0  0  0  0  0
    3.7320    3.7315    0.0000 C   0  0  0  0  0  0  0  0  0  0  0  0
    7.1962   -2.2685    0.0000 C   0  0  0  0  0  0  0  0  0  0  0  0
   14.9904    3.2315    0.0000 C   0  0  0  0  0  0  0  0  0  0  0  0
    2.8660    3.2315    0.0000 C   0  0  0  0  0  0  0  0  0  0  0  0
    6.3301   -2.7685    0.0000 C   0  0  0  0  0  0  0  0  0  0  0  0
   15.8564    3.7315    0.0000 C   0  0  0  0  0  0  0  0  0  0  0  0
    2.0000    3.7315    0.0000 C   0  0  0  0  0  0  0  0  0  0  0  0
    6.3301   -3.7685    0.0000 C   0  0  0  0  0  0  0  0  0  0  0  0
    8.3082    1.7315    0.0000 H   0  0  0  0  0  0  0  0  0  0  0  0
    9.5482    1.7315    0.0000 H   0  0  0  0  0  0  0  0  0  0  0  0
    7.7522    2.6946    0.0000 H   0  0  0  0  0  0  0  0  0  0  0  0
    8.3722    3.7685    0.0000 H   0  0  0  0  0  0  0  0  0  0  0  0
   10.1042    2.6946    0.0000 H   0  0  0  0  0  0  0  0  0  0  0  0
    9.4842    3.7685    0.0000 H   0  0  0  0  0  0  0  0  0  0  0  0
    9.1403    0.1489    0.0000 H   0  0  0  0  0  0  0  0  0  0  0  0
    9.5388    0.8392    0.0000 H   0  0  0  0  0  0  0  0  0  0  0  0
    7.5947    4.2065    0.0000 H   0  0  0  0  0  0  0  0  0  0  0  0
    6.7976    4.2065    0.0000 H   0  0  0  0  0  0  0  0  0  0  0  0
   11.0588    4.2065    0.0000 H   0  0  0  0  0  0  0  0  0  0  0  0
   10.2617    4.2065    0.0000 H   0  0  0  0  0  0  0  0  0  0  0  0
    7.8501    0.8141    0.0000 H   0  0  0  0  0  0  0  0  0  0  0  0
    7.4516    0.1239    0.0000 H   0  0  0  0  0  0  0  0  0  0  0  0
    5.9316    2.7566    0.0000 H   0  0  0  0  0  0  0  0  0  0  0  0
    6.7287    2.7566    0.0000 H   0  0  0  0  0  0  0  0  0  0  0  0
   11.1278    2.7566    0.0000 H   0  0  0  0  0  0  0  0  0  0  0  0
   11.9248    2.7566    0.0000 H   0  0  0  0  0  0  0  0  0  0  0  0
    8.2742   -1.3511    0.0000 H   0  0  0  0  0  0  0  0  0  0  0  0
    8.6728   -0.6608    0.0000 H   0  0  0  0  0  0  0  0  0  0  0  0
    5.8626    4.2065    0.0000 H   0  0  0  0  0  0  0  0  0  0  0  0
    5.0656    4.2065    0.0000 H   0  0  0  0  0  0  0  0  0  0  0  0
   12.7908    4.2065    0.0000 H   0  0  0  0  0  0  0  0  0  0  0  0
   11.9938    4.2065    0.0000 H   0  0  0  0  0  0  0  0  0  0  0  0
   12.8598    2.7566    0.0000 H   0  0  0  0  0  0  0  0  0  0  0  0
   13.6569    2.7566    0.0000 H   0  0  0  0  0  0  0  0  0  0  0  0
    4.1996    2.7566    0.0000 H   0  0  0  0  0  0  0  0  0  0  0  0
    4.9966    2.7566    0.0000 H   0  0  0  0  0  0  0  0  0  0  0  0
    6.9841   -0.6859    0.0000 H   0  0  0  0  0  0  0  0  0  0  0  0
    6.5856   -1.3761    0.0000 H   0  0  0  0  0  0  0  0  0  0  0  0
    7.4082   -2.8511    0.0000 H   0  0  0  0  0  0  0  0  0  0  0  0
    7.8067   -2.1608    0.0000 H   0  0  0  0  0  0  0  0  0  0  0  0
    4.1306    4.2065    0.0000 H   0  0  0  0  0  0  0  0  0  0  0  0
    3.3335    4.2065    0.0000 H   0  0  0  0  0  0  0  0  0  0  0  0
   14.5229    4.2065    0.0000 H   0  0  0  0  0  0  0  0  0  0  0  0
   13.7258    4.2065    0.0000 H   0  0  0  0  0  0  0  0  0  0  0  0
    6.1181   -2.1859    0.0000 H   0  0  0  0  0  0  0  0  0  0  0  0
    5.7196   -2.8761    0.0000 H   0  0  0  0  0  0  0  0  0  0  0  0
    2.4675    2.7566    0.0000 H   0  0  0  0  0  0  0  0  0  0  0  0
    3.2646    2.7566    0.0000 H   0  0  0  0  0  0  0  0  0  0  0  0
   14.5919    2.7566    0.0000 H   0  0  0  0  0  0  0  0  0  0  0  0
   15.3889    2.7566    0.0000 H   0  0  0  0  0  0  0  0  0  0  0  0
   16.1664    3.1946    0.0000 H   0  0  0  0  0  0  0  0  0  0  0  0
    2.3100    4.2685    0.0000 H   0  0  0  0  0  0  0  0  0  0  0  0
    1.4631    4.0415    0.0000 H   0  0  0  0  0  0  0  0  0  0  0  0
    1.6900    3.1946    0.0000 H   0  0  0  0  0  0  0  0  0  0  0  0
    5.7101   -3.7685    0.0000 H   0  0  0  0  0  0  0  0  0  0  0  0
    6.3301   -4.3885    0.0000 H   0  0  0  0  0  0  0  0  0  0  0  0
    6.9501   -3.7685    0.0000 H   0  0  0  0  0  0  0  0  0  0  0  0
   16.3933    4.0415    0.0000 H   0  0  0  0  0  0  0  0  0  0  0  0
   15.5464    4.2685    0.0000 H   0  0  0  0  0  0  0  0  0  0  0  0
  2  5  1  0  0  0  0
  2 30  1  0  0  0  0
  2 31  1  0  0  0  0
  3  6  1  0  0  0  0
  3 28  1  0  0  0  0
  3 29  1  0  0  0  0
  4  7  1  0  0  0  0
  4 26  1  0  0  0  0
  4 27  1  0  0  0  0
  5  8  1  0  0  0  0
  5 36  1  0  0  0  0
  5 37  1  0  0  0  0
  6  9  1  0  0  0  0
  6 34  1  0  0  0  0
  6 35  1  0  0  0  0
  7 10  1  0  0  0  0
  7 32  1  0  0  0  0
  7 33  1  0  0  0  0
  8 11  1  0  0  0  0
  8 42  1  0  0  0  0
  8 43  1  0  0  0  0
  9 12  1  0  0  0  0
  9 40  1  0  0  0  0
  9 41  1  0  0  0  0
 10 13  1  0  0  0  0
 10 38  1  0  0  0  0
 10 39  1  0  0  0  0
 11 14  1  0  0  0  0
 11 48  1  0  0  0  0
 11 49  1  0  0  0  0
 12 15  1  0  0  0  0
 12 46  1  0  0  0  0
 12 47  1  0  0  0  0
 13 16  1  0  0  0  0
 13 44  1  0  0  0  0
 13 45  1  0  0  0  0
 14 17  1  0  0  0  0
 14 50  1  0  0  0  0
 14 51  1  0  0  0  0
 15 18  1  0  0  0  0
 15 52  1  0  0  0  0
 15 53  1  0  0  0  0
 16 19  1  0  0  0  0
 16 54  1  0  0  0  0
 16 55  1  0  0  0  0
 17 20  1  0  0  0  0
 17 60  1  0  0  0  0
 17 61  1  0  0  0  0
 18 21  1  0  0  0  0
 18 58  1  0  0  0  0
 18 59  1  0  0  0  0
 19 22  1  0  0  0  0
 19 56  1  0  0  0  0
 19 57  1  0  0  0  0
 20 23  1  0  0  0  0
 20 66  1  0  0  0  0
 20 67  1  0  0  0  0
 21 24  1  0  0  0  0
 21 64  1  0  0  0  0
 21 65  1  0  0  0  0
 22 25  1  0  0  0  0
 22 62  1  0  0  0  0
 22 63  1  0  0  0  0
 23 68  1  0  0  0  0
 23 75  1  0  0  0  0
 23 76  1  0  0  0  0
 24 69  1  0  0  0  0
 24 70  1  0  0  0  0
 24 71  1  0  0  0  0
 25 72  1  0  0  0  0
 25 73  1  0  0  0  0
 25 74  1  0  0  0  0
M  CHG  4   1   3   2  -1   3  -1   4  -1
M  END
> <PUBCHEM_COMPOUND_CID>
14048

> <PUBCHEM_COMPOUND_CANONICALIZED>
1

> <PUBCHEM_CACTVS_COMPLEXITY>
128

> <PUBCHEM_CACTVS_HBOND_ACCEPTOR>
3

> <PUBCHEM_CACTVS_HBOND_DONOR>
0

> <PUBCHEM_CACTVS_ROTATABLE_BOND>
15

> <PUBCHEM_CACTVS_SUBSKEYS>
AAADcfB4AAAAABAAAAAAAAAAAAAAAAAAAAAAAAAAAAAAAAAAAAAAGAAAAAAACACAAAACAAAAAAAAAAAAAAAAAAAAAAAAAAAAAAAAAAIAAAAAAAAAAAAAAAEAgIAAAAAAAAAAAAAAAAAAAAAAAAAAAAAAAA==

> <PUBCHEM_IUPAC_OPENEYE_NAME>
aluminum octane

> <PUBCHEM_IUPAC_CAS_NAME>
aluminum octane

> <PUBCHEM_IUPAC_NAME>
aluminum octane

> <PUBCHEM_IUPAC_SYSTEMATIC_NAME>
aluminum octane

> <PUBCHEM_IUPAC_TRADITIONAL_NAME>
aluminum octane

> <PUBCHEM_IUPAC_INCHI>
InChI=1S/3C8H17.Al/c3*1-3-5-7-8-6-4-2;/h3*1,3-8H2,2H3;/q3*-1;+3

> <PUBCHEM_IUPAC_INCHIKEY>
KYELBGLTHRCOGQ-UHFFFAOYSA-N

> <PUBCHEM_EXACT_MASS>
366.380615

> <PUBCHEM_MOLECULAR_FORMULA>
C24H51Al

> <PUBCHEM_MOLECULAR_WEIGHT>
366.643279

> <PUBCHEM_OPENEYE_CAN_SMILES>
CCCCCCC[CH2-].CCCCCCC[CH2-].CCCCCCC[CH2-].[Al+3]

> <PUBCHEM_OPENEYE_ISO_SMILES>
CCCCCCC[CH2-].CCCCCCC[CH2-].CCCCCCC[CH2-].[Al+3]

> <PUBCHEM_CACTVS_TPSA>
0

> <PUBCHEM_MONOISOTOPIC_WEIGHT>
366.380615

> <PUBCHEM_TOTAL_CHARGE>
0

> <PUBCHEM_HEAVY_ATOM_COUNT>
25

> <PUBCHEM_ATOM_DEF_STEREO_COUNT>
0

> <PUBCHEM_ATOM_UDEF_STEREO_COUNT>
0

> <PUBCHEM_BOND_DEF_STEREO_COUNT>
0

> <PUBCHEM_BOND_UDEF_STEREO_COUNT>
0

> <PUBCHEM_ISOTOPIC_ATOM_COUNT>
0

> <PUBCHEM_COMPONENT_COUNT>
4

> <PUBCHEM_CACTVS_TAUTO_COUNT>
1

> <PUBCHEM_NONSTANDARDBOND>
1  2  6
1  3  6
1  4  6

> <PUBCHEM_COORDINATE_TYPE>
1
5
255

$$$$

