14102
  -OEChem-06241222422D

 21 20  0     0  0  0  0  0  0999 V2000
    0.5369    2.6200    0.0000 Cl  0  0  0  0  0  0  0  0  0  0  0  0
    4.0010    0.6200    0.0000 Cl  0  0  0  0  0  0  0  0  0  0  0  0
    3.1350    4.1200    0.0000 O   0  5  0  0  0  0  0  0  0  0  0  0
    1.4030    4.1200    0.0000 O   0  0  0  0  0  0  0  0  0  0  0  0
    0.5369    0.6200    0.0000 N   0  0  0  0  0  0  0  0  0  0  0  0
    2.0005    6.6569    0.0000 N   0  3  0  0  0  0  0  0  0  0  0  0
    2.2690    2.6200    0.0000 C   0  0  0  0  0  0  0  0  0  0  0  0
    1.4030    1.1200    0.0000 C   0  0  0  0  0  0  0  0  0  0  0  0
    1.4030    2.1200    0.0000 C   0  0  0  0  0  0  0  0  0  0  0  0
    3.1350    2.1200    0.0000 C   0  0  0  0  0  0  0  0  0  0  0  0
    2.2690    0.6200    0.0000 C   0  0  0  0  0  0  0  0  0  0  0  0
    3.1350    1.1200    0.0000 C   0  0  0  0  0  0  0  0  0  0  0  0
    2.2690    3.6200    0.0000 C   0  0  0  0  0  0  0  0  0  0  0  0
    3.6720    2.4300    0.0000 H   0  0  0  0  0  0  0  0  0  0  0  0
    2.2690    0.0000    0.0000 H   0  0  0  0  0  0  0  0  0  0  0  0
    0.5369    0.0000    0.0000 H   0  0  0  0  0  0  0  0  0  0  0  0
    0.0000    0.9300    0.0000 H   0  0  0  0  0  0  0  0  0  0  0  0
    2.5375    6.9669    0.0000 H   0  0  0  0  0  0  0  0  0  0  0  0
    1.4636    6.3469    0.0000 H   0  0  0  0  0  0  0  0  0  0  0  0
    1.6905    7.1939    0.0000 H   0  0  0  0  0  0  0  0  0  0  0  0
    2.3105    6.1200    0.0000 H   0  0  0  0  0  0  0  0  0  0  0  0
  1  9  1  0  0  0  0
  2 12  1  0  0  0  0
  3 13  1  0  0  0  0
  4 13  2  0  0  0  0
  5  8  1  0  0  0  0
  5 16  1  0  0  0  0
  5 17  1  0  0  0  0
  6 18  1  0  0  0  0
  6 19  1  0  0  0  0
  6 20  1  0  0  0  0
  6 21  1  0  0  0  0
  7  9  2  0  0  0  0
  7 10  1  0  0  0  0
  7 13  1  0  0  0  0
  8  9  1  0  0  0  0
  8 11  2  0  0  0  0
 10 12  2  0  0  0  0
 10 14  1  0  0  0  0
 11 12  1  0  0  0  0
 11 15  1  0  0  0  0
M  CHG  2   3  -1   6   1
M  END
> <PUBCHEM_COMPOUND_CID>
14102

> <PUBCHEM_COMPOUND_CANONICALIZED>
1

> <PUBCHEM_CACTVS_COMPLEXITY>
183

> <PUBCHEM_CACTVS_HBOND_ACCEPTOR>
3

> <PUBCHEM_CACTVS_HBOND_DONOR>
2

> <PUBCHEM_CACTVS_ROTATABLE_BOND>
0

> <PUBCHEM_CACTVS_SUBSKEYS>
AAADccBjMAAGAAAAAAAAAAAAAAAAAAAAAAAwAAAAAAAAAAABAAAAHgIQAAAADAqBmCAwyIBAAACIAiTSSACCAAAkBwAAiAEAbsgIJjKBl5GAMQBk0AEIzYe8yCCOAAAQYAIBABAAACDABAIAIAAAAAAAAA==

> <PUBCHEM_IUPAC_OPENEYE_NAME>
ammonium 3-amino-2,5-dichloro-benzoate

> <PUBCHEM_IUPAC_CAS_NAME>
ammonium 3-amino-2,5-dichlorobenzoate

> <PUBCHEM_IUPAC_NAME>
azanium 3-amino-2,5-dichlorobenzoate

> <PUBCHEM_IUPAC_SYSTEMATIC_NAME>
azanium 3-azanyl-2,5-bis(chloranyl)benzoate

> <PUBCHEM_IUPAC_TRADITIONAL_NAME>
ammonium 3-amino-2,5-dichloro-benzoate

> <PUBCHEM_IUPAC_INCHI>
InChI=1S/C7H5Cl2NO2.H3N/c8-3-1-4(7(11)12)6(9)5(10)2-3;/h1-2H,10H2,(H,11,12);1H3

> <PUBCHEM_IUPAC_INCHIKEY>
RSSKZIYCSDAOJD-UHFFFAOYSA-N

> <PUBCHEM_EXACT_MASS>
221.996283

> <PUBCHEM_MOLECULAR_FORMULA>
C7H8Cl2N2O2

> <PUBCHEM_MOLECULAR_WEIGHT>
223.05662

> <PUBCHEM_OPENEYE_CAN_SMILES>
C1=C(C=C(C(=C1N)Cl)C(=O)[O-])Cl.[NH4+]

> <PUBCHEM_OPENEYE_ISO_SMILES>
C1=C(C=C(C(=C1N)Cl)C(=O)[O-])Cl.[NH4+]

> <PUBCHEM_CACTVS_TPSA>
67.2

> <PUBCHEM_MONOISOTOPIC_WEIGHT>
221.996283

> <PUBCHEM_TOTAL_CHARGE>
0

> <PUBCHEM_HEAVY_ATOM_COUNT>
13

> <PUBCHEM_ATOM_DEF_STEREO_COUNT>
0

> <PUBCHEM_ATOM_UDEF_STEREO_COUNT>
0

> <PUBCHEM_BOND_DEF_STEREO_COUNT>
0

> <PUBCHEM_BOND_UDEF_STEREO_COUNT>
0

> <PUBCHEM_ISOTOPIC_ATOM_COUNT>
0

> <PUBCHEM_COMPONENT_COUNT>
2

> <PUBCHEM_CACTVS_TAUTO_COUNT>
1

> <PUBCHEM_COORDINATE_TYPE>
1
5
255

> <PUBCHEM_BONDANNOTATIONS>
10  12  8
11  12  8
7  10  8
7  9  8
8  11  8
8  9  8

$$$$

