13246
  -OEChem-06261208033D

 35 35  0     0  0  0  0  0  0999 V2000
   -2.5521    0.4406    1.2373 O   0  0  0  0  0  0  0  0  0  0  0  0
    2.9922   -0.9026   -0.0495 C   0  0  0  0  0  0  0  0  0  0  0  0
    1.7973   -1.6070    0.5954 C   0  0  0  0  0  0  0  0  0  0  0  0
    2.7570    0.5011   -0.6322 C   0  0  0  0  0  0  0  0  0  0  0  0
    0.6029   -1.7809   -0.3471 C   0  0  0  0  0  0  0  0  0  0  0  0
    2.2692    1.5787    0.3477 C   0  0  0  0  0  0  0  0  0  0  0  0
   -0.6811   -2.0911    0.4258 C   0  0  0  0  0  0  0  0  0  0  0  0
    0.7593    1.6524    0.6170 C   0  0  0  0  0  0  0  0  0  0  0  0
   -1.9653   -1.8915   -0.3913 C   0  0  0  0  0  0  0  0  0  0  0  0
   -0.0868    1.9881   -0.6168 C   0  0  0  0  0  0  0  0  0  0  0  0
   -2.1796   -0.4817   -0.9552 C   0  0  0  0  0  0  0  0  0  0  0  0
   -1.5886    1.9766   -0.3265 C   0  0  0  0  0  0  0  0  0  0  0  0
   -2.1243    0.6170    0.0954 C   0  0  0  0  0  0  0  0  0  0  0  0
    3.7932   -0.8380    0.6979 H   0  0  0  0  0  0  0  0  0  0  0  0
    3.3799   -1.5413   -0.8534 H   0  0  0  0  0  0  0  0  0  0  0  0
    1.5109   -1.0600    1.4995 H   0  0  0  0  0  0  0  0  0  0  0  0
    2.1173   -2.5981    0.9412 H   0  0  0  0  0  0  0  0  0  0  0  0
    2.1161    0.4468   -1.5163 H   0  0  0  0  0  0  0  0  0  0  0  0
    3.7314    0.8373   -1.0133 H   0  0  0  0  0  0  0  0  0  0  0  0
    0.8089   -2.5853   -1.0632 H   0  0  0  0  0  0  0  0  0  0  0  0
    0.4677   -0.8772   -0.9368 H   0  0  0  0  0  0  0  0  0  0  0  0
    2.5800    2.5550   -0.0470 H   0  0  0  0  0  0  0  0  0  0  0  0
    2.7936    1.4582    1.3036 H   0  0  0  0  0  0  0  0  0  0  0  0
   -0.7364   -1.4719    1.3280 H   0  0  0  0  0  0  0  0  0  0  0  0
   -0.6422   -3.1302    0.7757 H   0  0  0  0  0  0  0  0  0  0  0  0
    0.5905    2.4332    1.3702 H   0  0  0  0  0  0  0  0  0  0  0  0
    0.4130    0.7254    1.0740 H   0  0  0  0  0  0  0  0  0  0  0  0
   -2.8178   -2.1503    0.2494 H   0  0  0  0  0  0  0  0  0  0  0  0
   -1.9749   -2.6053   -1.2240 H   0  0  0  0  0  0  0  0  0  0  0  0
    0.1283    1.2992   -1.4366 H   0  0  0  0  0  0  0  0  0  0  0  0
    0.1915    2.9873   -0.9741 H   0  0  0  0  0  0  0  0  0  0  0  0
   -3.1669   -0.4243   -1.4281 H   0  0  0  0  0  0  0  0  0  0  0  0
   -1.4493   -0.2791   -1.7427 H   0  0  0  0  0  0  0  0  0  0  0  0
   -2.1468    2.2936   -1.2148 H   0  0  0  0  0  0  0  0  0  0  0  0
   -1.8209    2.6976    0.4663 H   0  0  0  0  0  0  0  0  0  0  0  0
  1 13  2  0  0  0  0
  2  3  1  0  0  0  0
  2  4  1  0  0  0  0
  2 14  1  0  0  0  0
  2 15  1  0  0  0  0
  3  5  1  0  0  0  0
  3 16  1  0  0  0  0
  3 17  1  0  0  0  0
  4  6  1  0  0  0  0
  4 18  1  0  0  0  0
  4 19  1  0  0  0  0
  5  7  1  0  0  0  0
  5 20  1  0  0  0  0
  5 21  1  0  0  0  0
  6  8  1  0  0  0  0
  6 22  1  0  0  0  0
  6 23  1  0  0  0  0
  7  9  1  0  0  0  0
  7 24  1  0  0  0  0
  7 25  1  0  0  0  0
  8 10  1  0  0  0  0
  8 26  1  0  0  0  0
  8 27  1  0  0  0  0
  9 11  1  0  0  0  0
  9 28  1  0  0  0  0
  9 29  1  0  0  0  0
 10 12  1  0  0  0  0
 10 30  1  0  0  0  0
 10 31  1  0  0  0  0
 11 13  1  0  0  0  0
 11 32  1  0  0  0  0
 11 33  1  0  0  0  0
 12 13  1  0  0  0  0
 12 34  1  0  0  0  0
 12 35  1  0  0  0  0
M  END
> <PUBCHEM_COMPOUND_CID>
13246

> <PUBCHEM_CONFORMER_RMSD>
0.6

> <PUBCHEM_CONFORMER_DIVERSEORDER>
1
14
24
3
20
22
11
19
18
5
21
27
12
9
16
15
25
13
4
10
6
2
17
8
26
23
7

> <PUBCHEM_MMFF94_PARTIAL_CHARGES>
4
1 -0.57
11 0.06
12 0.06
13 0.45

> <PUBCHEM_EFFECTIVE_ROTOR_COUNT>
2.2

> <PUBCHEM_PHARMACOPHORE_FEATURES>
1
1 1 acceptor

> <PUBCHEM_HEAVY_ATOM_COUNT>
13

> <PUBCHEM_ATOM_DEF_STEREO_COUNT>
0

> <PUBCHEM_ATOM_UDEF_STEREO_COUNT>
0

> <PUBCHEM_BOND_DEF_STEREO_COUNT>
0

> <PUBCHEM_BOND_UDEF_STEREO_COUNT>
0

> <PUBCHEM_ISOTOPIC_ATOM_COUNT>
0

> <PUBCHEM_COMPONENT_COUNT>
1

> <PUBCHEM_CACTVS_TAUTO_COUNT>
2

> <PUBCHEM_CONFORMER_ID>
000033BE00000001

> <PUBCHEM_MMFF94_ENERGY>
13.4715

> <PUBCHEM_FEATURE_SELFOVERLAP>
5.074

> <PUBCHEM_SHAPE_FINGERPRINT>
11132069 177 18335427914939211386
1420 336 18410577326847270346
14251711 518 18196097856874983970
14251717 144 18121226634668304573
14251745 187 18191309273746709384
15775835 57 18409722976157858204
16945 1 18411422847020215766
19930374 2 17547053690709830160
20201158 50 17980766261296364968
21249577 28 18341336694795823354
22721475 48 18266176136867427948
22802520 49 18262222357731877038
2334 1 18266743476293262974
23559900 14 18189336935324479350
241688 4 18339367357421330417
2748010 2 18194688055350414422
2897 32 18340487880134613460
66348 1 18266463109323084742

> <PUBCHEM_SHAPE_MULTIPOLES>
261.66
4.28
2.86
0.94
1.16
0.1
-0.05
0.14
0.1
-0.17
-0.02
-0.23
-0.06
-0.14

> <PUBCHEM_SHAPE_SELFOVERLAP>
493.071

> <PUBCHEM_SHAPE_VOLUME>
160.5

> <PUBCHEM_COORDINATE_TYPE>
2
5
10

$$$$

