9645
  -OEChem-06261203542D

 43 46  0     1  0  0  0  0  0999 V2000
    0.0000    2.9766    0.0000 Cl  0  0  0  0  0  0  0  0  0  0  0  0
    7.4943    3.1497    0.0000 O   0  0  0  0  0  0  0  0  0  0  0  0
    5.0497    5.5770    0.0000 O   0  0  0  0  0  0  0  0  0  0  0  0
    8.5248    5.0868    0.0000 O   0  0  0  0  0  0  0  0  0  0  0  0
    7.2157    0.6069    0.0000 O   0  0  0  0  0  0  0  0  0  0  0  0
    4.5467    3.9185    0.0000 N   0  0  3  0  0  0  0  0  0  0  0  0
    6.1019    3.9568    0.0000 C   0  0  1  0  0  0  0  0  0  0  0  0
    5.3587    4.6260    0.0000 C   0  0  1  0  0  0  0  0  0  0  0  0
    4.4077    4.3169    0.0000 C   0  0  2  0  0  0  0  0  0  0  0  0
    7.0908    4.0582    0.0000 C   0  0  2  0  0  0  0  0  0  0  0  0
    5.8128    3.6494    0.0000 C   0  0  0  0  0  0  0  0  0  0  0  0
    5.8940    2.9787    0.0000 C   0  0  0  0  0  0  0  0  0  0  0  0
    5.8989    5.7347    0.0000 C   0  0  0  0  0  0  0  0  0  0  0  0
    4.1998    3.3388    0.0000 C   0  0  0  0  0  0  0  0  0  0  0  0
    5.0820    3.3240    0.0000 C   0  0  0  0  0  0  0  0  0  0  0  0
    4.9429    2.6697    0.0000 C   0  0  0  0  0  0  0  0  0  0  0  0
    6.9290    5.8403    0.0000 C   0  0  0  0  0  0  0  0  0  0  0  0
    7.5289    4.9964    0.0000 C   0  0  0  0  0  0  0  0  0  0  0  0
    6.6787    2.2937    0.0000 C   0  0  0  0  0  0  0  0  0  0  0  0
    3.5522    3.8140    0.0000 C   0  0  0  0  0  0  0  0  0  0  0  0
    4.7107    1.6543    0.0000 C   0  0  0  0  0  0  0  0  0  0  0  0
    6.4700    1.2732    0.0000 C   0  0  0  0  0  0  0  0  0  0  0  0
    5.4794    0.9513    0.0000 C   0  0  0  0  0  0  0  0  0  0  0  0
    3.6252    4.4833    0.0000 H   0  0  0  0  0  0  0  0  0  0  0  0
    7.8908    4.0506    0.0000 H   0  0  0  0  0  0  0  0  0  0  0  0
    5.8300    3.0296    0.0000 H   0  0  0  0  0  0  0  0  0  0  0  0
    5.4538    4.1548    0.0000 H   0  0  0  0  0  0  0  0  0  0  0  0
    5.9503    6.3526    0.0000 H   0  0  0  0  0  0  0  0  0  0  0  0
    5.3010    5.8990    0.0000 H   0  0  0  0  0  0  0  0  0  0  0  0
    3.6249    3.5711    0.0000 H   0  0  0  0  0  0  0  0  0  0  0  0
    3.8712    2.8130    0.0000 H   0  0  0  0  0  0  0  0  0  0  0  0
    4.5804    2.9595    0.0000 H   0  0  0  0  0  0  0  0  0  0  0  0
    5.3920    2.7870    0.0000 H   0  0  0  0  0  0  0  0  0  0  0  0
    7.4883    6.1078    0.0000 H   0  0  0  0  0  0  0  0  0  0  0  0
    6.7611    6.4372    0.0000 H   0  0  0  0  0  0  0  0  0  0  0  0
    4.4433    5.7059    0.0000 H   0  0  0  0  0  0  0  0  0  0  0  0
    3.4874    4.4306    0.0000 H   0  0  0  0  0  0  0  0  0  0  0  0
    2.9356    3.7492    0.0000 H   0  0  0  0  0  0  0  0  0  0  0  0
    3.6170    3.1974    0.0000 H   0  0  0  0  0  0  0  0  0  0  0  0
    4.1188    1.4695    0.0000 H   0  0  0  0  0  0  0  0  0  0  0  0
    5.3481    0.3454    0.0000 H   0  0  0  0  0  0  0  0  0  0  0  0
    7.0892    0.0000    0.0000 H   0  0  0  0  0  0  0  0  0  0  0  0
    1.0000    2.9766    0.0000 H   0  0  0  0  0  0  0  0  0  0  0  0
  1 43  1  0  0  0  0
  2 10  1  0  0  0  0
  2 19  1  0  0  0  0
  3  8  1  0  0  0  0
  3 36  1  0  0  0  0
  4 18  2  0  0  0  0
  5 22  1  0  0  0  0
  5 42  1  0  0  0  0
  6  9  1  0  0  0  0
  6 15  1  0  0  0  0
  6 20  1  0  0  0  0
  7  8  1  0  0  0  0
  7 10  1  0  0  0  0
  7 11  1  0  0  0  0
  7 12  1  0  0  0  0
  8  9  1  0  0  0  0
  8 13  1  0  0  0  0
  9 14  1  0  0  0  0
  9 24  1  0  0  0  0
 10 18  1  0  0  0  0
 10 25  1  0  0  0  0
 11 15  1  0  0  0  0
 11 26  1  0  0  0  0
 11 27  1  0  0  0  0
 12 16  2  0  0  0  0
 12 19  1  0  0  0  0
 13 17  1  0  0  0  0
 13 28  1  0  0  0  0
 13 29  1  0  0  0  0
 14 16  1  0  0  0  0
 14 30  1  0  0  0  0
 14 31  1  0  0  0  0
 15 32  1  0  0  0  0
 15 33  1  0  0  0  0
 16 21  1  0  0  0  0
 17 18  1  0  0  0  0
 17 34  1  0  0  0  0
 17 35  1  0  0  0  0
 19 22  2  0  0  0  0
 20 37  1  0  0  0  0
 20 38  1  0  0  0  0
 20 39  1  0  0  0  0
 21 23  2  0  0  0  0
 21 40  1  0  0  0  0
 22 23  1  0  0  0  0
 23 41  1  0  0  0  0
M  END
> <PUBCHEM_COMPOUND_CID>
9645

> <PUBCHEM_COMPOUND_CANONICALIZED>
1

> <PUBCHEM_CACTVS_COMPLEXITY>
539

> <PUBCHEM_CACTVS_HBOND_ACCEPTOR>
5

> <PUBCHEM_CACTVS_HBOND_DONOR>
3

> <PUBCHEM_CACTVS_ROTATABLE_BOND>
0

> <PUBCHEM_CACTVS_SUBSKEYS>
AAADceB6OAAEAAAAAAAAAAAAAAAAASAAAAA8YMEAAAAWAEjxAAAAHgAACAAADnzhmAYyBoMABgCIAqBSAAICCAAgIAAIiAFOiIgPJjKGsR+GeCOlwBGbuAf6/f/foAABAAAYQADQAAaQADSgAAAAAAAAAA==

> <PUBCHEM_IUPAC_OPENEYE_NAME>
(4S,4aS,7aR,12bS)-4a,9-dihydroxy-3-methyl-2,4,5,6,7a,13-hexahydro-1H-4,12-methanobenzofuro[3,2-e]isoquinoline-7-one hydrochloride

> <PUBCHEM_IUPAC_CAS_NAME>
(4S,4aS,7aR,12bS)-4a,9-dihydroxy-3-methyl-2,4,5,6,7a,13-hexahydro-1H-4,12-methanobenzofuro[3,2-e]isoquinoline-7-one hydrochloride

> <PUBCHEM_IUPAC_NAME>
(4S,4aS,7aR,12bS)-4a,9-dihydroxy-3-methyl-2,4,5,6,7a,13-hexahydro-1H-4,12-methanobenzofuro[3,2-e]isoquinoline-7-one hydrochloride

> <PUBCHEM_IUPAC_SYSTEMATIC_NAME>
(4S,4aS,7aR,12bS)-3-methyl-4a,9-bis(oxidanyl)-2,4,5,6,7a,13-hexahydro-1H-4,12-methanobenzofuro[3,2-e]isoquinoline-7-one hydrochloride

> <PUBCHEM_IUPAC_TRADITIONAL_NAME>
(4S,4aS,7aR,12bS)-4a,9-dihydroxy-3-methyl-2,4,5,6,7a,13-hexahydro-1H-4,12-methanobenzofuro[3,2-e]isoquinoline-7-one hydrochloride

> <PUBCHEM_IUPAC_INCHI>
InChI=1S/C17H19NO4.ClH/c1-18-7-6-16-13-9-2-3-10(19)14(13)22-15(16)11(20)4-5-17(16,21)12(18)8-9;/h2-3,12,15,19,21H,4-8H2,1H3;1H/t12-,15-,16-,17+;/m0./s1

> <PUBCHEM_IUPAC_INCHIKEY>
BCGJBQBWUGVESK-IFBMBXJHSA-N

> <PUBCHEM_XLOGP3_AA>
1.712

> <PUBCHEM_EXACT_MASS>
337.108086

> <PUBCHEM_MOLECULAR_FORMULA>
C17H20ClNO4

> <PUBCHEM_MOLECULAR_WEIGHT>
337.798

> <PUBCHEM_OPENEYE_CAN_SMILES>
CN1CCC23C4C(=O)CCC2(C1CC5=C3C(=C(C=C5)O)O4)O.Cl

> <PUBCHEM_OPENEYE_ISO_SMILES>
CN1CC[C@]23[C@@H]4C(=O)CC[C@]2([C@@H]1CC5=C3C(=C(C=C5)O)O4)O.Cl

> <PUBCHEM_CACTVS_TPSA>
70

> <PUBCHEM_MONOISOTOPIC_WEIGHT>
337.108086

> <PUBCHEM_TOTAL_CHARGE>
0

> <PUBCHEM_HEAVY_ATOM_COUNT>
23

> <PUBCHEM_ATOM_DEF_STEREO_COUNT>
4

> <PUBCHEM_ATOM_UDEF_STEREO_COUNT>
0

> <PUBCHEM_BOND_DEF_STEREO_COUNT>
0

> <PUBCHEM_BOND_UDEF_STEREO_COUNT>
0

> <PUBCHEM_ISOTOPIC_ATOM_COUNT>
0

> <PUBCHEM_COMPONENT_COUNT>
2

> <PUBCHEM_CACTVS_TAUTO_COUNT>
9

> <PUBCHEM_COORDINATE_TYPE>
1
5
255

> <PUBCHEM_BONDANNOTATIONS>
10  25  3
12  16  8
12  19  8
16  21  8
19  22  8
21  23  8
22  23  8
8  3  3
7  11  3
9  24  3

$$$$

