3466
  -OEChem-06251223262D

 30 32  0     0  0  0  0  0  0999 V2000
    6.8671    1.7327    0.0000 O   0  0  0  0  0  0  0  0  0  0  0  0
    6.8671   -1.2673    0.0000 O   0  0  0  0  0  0  0  0  0  0  0  0
    8.6155   -1.3019    0.0000 O   0  0  0  0  0  0  0  0  0  0  0  0
   10.3972    1.7568    0.0000 O   0  0  0  0  0  0  0  0  0  0  0  0
    2.5369   -1.7673    0.0000 O   0  0  0  0  0  0  0  0  0  0  0  0
    7.7331    0.2327    0.0000 C   0  0  0  0  0  0  0  0  0  0  0  0
    6.0010    0.2327    0.0000 C   0  0  0  0  0  0  0  0  0  0  0  0
    6.8671   -0.2673    0.0000 C   0  0  0  0  0  0  0  0  0  0  0  0
    7.7331    1.2327    0.0000 C   0  0  0  0  0  0  0  0  0  0  0  0
    5.1350   -0.2673    0.0000 C   0  0  0  0  0  0  0  0  0  0  0  0
    8.6270   -0.3020    0.0000 C   0  0  0  0  0  0  0  0  0  0  0  0
    6.0010    1.2327    0.0000 C   0  0  0  0  0  0  0  0  0  0  0  0
    8.6270    1.7673    0.0000 C   0  0  0  0  0  0  0  0  0  0  0  0
    5.1350   -1.2673    0.0000 C   0  0  0  0  0  0  0  0  0  0  0  0
    4.2690    0.2327    0.0000 C   0  0  0  0  0  0  0  0  0  0  0  0
    9.5331    0.2119    0.0000 C   0  0  0  0  0  0  0  0  0  0  0  0
    9.5331    1.2535    0.0000 C   0  0  0  0  0  0  0  0  0  0  0  0
    4.2690   -1.7673    0.0000 C   0  0  0  0  0  0  0  0  0  0  0  0
    3.4030   -0.2673    0.0000 C   0  0  0  0  0  0  0  0  0  0  0  0
    3.4030   -1.2673    0.0000 C   0  0  0  0  0  0  0  0  0  0  0  0
    5.4641    1.5427    0.0000 H   0  0  0  0  0  0  0  0  0  0  0  0
    8.6199    2.3873    0.0000 H   0  0  0  0  0  0  0  0  0  0  0  0
    5.6719   -1.5773    0.0000 H   0  0  0  0  0  0  0  0  0  0  0  0
    4.2690    0.8527    0.0000 H   0  0  0  0  0  0  0  0  0  0  0  0
   10.0688   -0.1002    0.0000 H   0  0  0  0  0  0  0  0  0  0  0  0
    4.2690   -2.3873    0.0000 H   0  0  0  0  0  0  0  0  0  0  0  0
    2.8660    0.0427    0.0000 H   0  0  0  0  0  0  0  0  0  0  0  0
    7.4040   -1.5773    0.0000 H   0  0  0  0  0  0  0  0  0  0  0  0
    9.1488   -1.6181    0.0000 H   0  0  0  0  0  0  0  0  0  0  0  0
    2.0000   -1.4573    0.0000 H   0  0  0  0  0  0  0  0  0  0  0  0
  1  9  1  0  0  0  0
  1 12  1  0  0  0  0
  2  8  1  0  0  0  0
  2 28  1  0  0  0  0
  3 11  1  0  0  0  0
  3 29  1  0  0  0  0
  4 17  2  0  0  0  0
  5 20  1  0  0  0  0
  5 30  1  0  0  0  0
  6  8  2  0  0  0  0
  6  9  1  0  0  0  0
  6 11  1  0  0  0  0
  7  8  1  0  0  0  0
  7 10  1  0  0  0  0
  7 12  2  0  0  0  0
  9 13  2  0  0  0  0
 10 14  2  0  0  0  0
 10 15  1  0  0  0  0
 11 16  2  0  0  0  0
 12 21  1  0  0  0  0
 13 17  1  0  0  0  0
 13 22  1  0  0  0  0
 14 18  1  0  0  0  0
 14 23  1  0  0  0  0
 15 19  2  0  0  0  0
 15 24  1  0  0  0  0
 16 17  1  0  0  0  0
 16 25  1  0  0  0  0
 18 20  2  0  0  0  0
 18 26  1  0  0  0  0
 19 20  1  0  0  0  0
 19 27  1  0  0  0  0
M  END
> <PUBCHEM_COMPOUND_CID>
3466

> <PUBCHEM_COMPOUND_CANONICALIZED>
1

> <PUBCHEM_CACTVS_COMPLEXITY>
571

> <PUBCHEM_CACTVS_HBOND_ACCEPTOR>
5

> <PUBCHEM_CACTVS_HBOND_DONOR>
3

> <PUBCHEM_CACTVS_ROTATABLE_BOND>
1

> <PUBCHEM_CACTVS_SUBSKEYS>
AAADccBwOAAAAAAAAAAAAAAAAAAAAAAAAAAwQIAAAAAAAACBAAAAGgAACAAADASgmAIwBoAABgCIAqBSAAACCAAgIAAIiAAGCMgIJiKCMRKAcAAlwBEIuQeAwKAOIAAAAAAAAABAAAAAAAAAAAAAAAAAAA==

> <PUBCHEM_IUPAC_OPENEYE_NAME>
4,5-dihydroxy-3-(4-hydroxyphenyl)chromen-7-one

> <PUBCHEM_IUPAC_CAS_NAME>
4,5-dihydroxy-3-(4-hydroxyphenyl)-1-benzopyran-7-one

> <PUBCHEM_IUPAC_NAME>
4,5-dihydroxy-3-(4-hydroxyphenyl)chromen-7-one

> <PUBCHEM_IUPAC_SYSTEMATIC_NAME>
3-(4-hydroxyphenyl)-4,5-bis(oxidanyl)chromen-7-one

> <PUBCHEM_IUPAC_TRADITIONAL_NAME>
4,5-dihydroxy-3-(4-hydroxyphenyl)chromen-7-one

> <PUBCHEM_IUPAC_INCHI>
InChI=1S/C15H10O5/c16-9-3-1-8(2-4-9)11-7-20-13-6-10(17)5-12(18)14(13)15(11)19/h1-7,16,18-19H

> <PUBCHEM_IUPAC_INCHIKEY>
KZFLHFXGBQDMOO-UHFFFAOYSA-N

> <PUBCHEM_XLOGP3_AA>
1.1

> <PUBCHEM_EXACT_MASS>
270.052823

> <PUBCHEM_MOLECULAR_FORMULA>
C15H10O5

> <PUBCHEM_MOLECULAR_WEIGHT>
270.2369

> <PUBCHEM_OPENEYE_CAN_SMILES>
C1=CC(=CC=C1C2=COC3=CC(=O)C=C(C3=C2O)O)O

> <PUBCHEM_OPENEYE_ISO_SMILES>
C1=CC(=CC=C1C2=COC3=CC(=O)C=C(C3=C2O)O)O

> <PUBCHEM_CACTVS_TPSA>
87

> <PUBCHEM_MONOISOTOPIC_WEIGHT>
270.052823

> <PUBCHEM_TOTAL_CHARGE>
0

> <PUBCHEM_HEAVY_ATOM_COUNT>
20

> <PUBCHEM_ATOM_DEF_STEREO_COUNT>
0

> <PUBCHEM_ATOM_UDEF_STEREO_COUNT>
0

> <PUBCHEM_BOND_DEF_STEREO_COUNT>
0

> <PUBCHEM_BOND_UDEF_STEREO_COUNT>
0

> <PUBCHEM_ISOTOPIC_ATOM_COUNT>
0

> <PUBCHEM_COMPONENT_COUNT>
1

> <PUBCHEM_CACTVS_TAUTO_COUNT>
24

> <PUBCHEM_COORDINATE_TYPE>
1
5
255

> <PUBCHEM_BONDANNOTATIONS>
1  12  8
1  9  8
10  14  8
10  15  8
11  16  8
13  17  8
14  18  8
15  19  8
16  17  8
18  20  8
19  20  8
6  11  8
6  8  8
7  12  8
7  8  8
9  13  8

$$$$

