47205309
  -OEChem-06241222583D

 33 34  0     1  0  0  0  0  0999 V2000
   -4.6461    1.5272   -0.1652 Cl  0  0  0  0  0  0  0  0  0  0  0  0
   -1.7014    1.0133   -0.5256 O   0  0  0  0  0  0  0  0  0  0  0  0
    0.7683    1.0338   -1.5300 O   0  0  0  0  0  0  0  0  0  0  0  0
    1.7395    1.5445    0.5163 N   0  0  0  0  0  0  0  0  0  0  0  0
    3.9243   -0.6049   -0.9617 N   0  0  0  0  0  0  0  0  0  0  0  0
    4.4788   -1.8004   -0.6979 N   0  0  0  0  0  0  0  0  0  0  0  0
   -0.6675    1.3361    0.3893 C   0  0  1  0  0  0  0  0  0  0  0  0
    3.1127    1.5353    0.0686 C   0  0  0  0  0  0  0  0  0  0  0  0
    0.6724    1.2899   -0.3316 C   0  0  0  0  0  0  0  0  0  0  0  0
    3.7197    0.1642    0.1461 C   0  0  0  0  0  0  0  0  0  0  0  0
   -0.9423    2.7236    0.9470 C   0  0  0  0  0  0  0  0  0  0  0  0
   -2.4620   -0.0925   -0.2391 C   0  0  0  0  0  0  0  0  0  0  0  0
    4.1716   -0.5800    1.2085 C   0  0  0  0  0  0  0  0  0  0  0  0
   -3.8402    0.0064   -0.0482 C   0  0  0  0  0  0  0  0  0  0  0  0
   -1.8313   -1.3329   -0.1397 C   0  0  0  0  0  0  0  0  0  0  0  0
    4.6276   -1.7794    0.6293 C   0  0  0  0  0  0  0  0  0  0  0  0
   -4.5879   -1.1349    0.2421 C   0  0  0  0  0  0  0  0  0  0  0  0
   -2.5791   -2.4742    0.1503 C   0  0  0  0  0  0  0  0  0  0  0  0
   -3.9572   -2.3752    0.3414 C   0  0  0  0  0  0  0  0  0  0  0  0
   -0.6256    0.6291    1.2293 H   0  0  0  0  0  0  0  0  0  0  0  0
    3.6704    2.2226    0.7136 H   0  0  0  0  0  0  0  0  0  0  0  0
    3.1602    1.9217   -0.9558 H   0  0  0  0  0  0  0  0  0  0  0  0
    1.5684    1.6958    1.5059 H   0  0  0  0  0  0  0  0  0  0  0  0
   -1.9367    2.7635    1.4046 H   0  0  0  0  0  0  0  0  0  0  0  0
   -0.2085    3.0231    1.7010 H   0  0  0  0  0  0  0  0  0  0  0  0
   -0.9313    3.4733    0.1475 H   0  0  0  0  0  0  0  0  0  0  0  0
    4.1716   -0.2966    2.2508 H   0  0  0  0  0  0  0  0  0  0  0  0
    3.7103   -0.3792   -1.9252 H   0  0  0  0  0  0  0  0  0  0  0  0
   -0.7603   -1.4298   -0.2959 H   0  0  0  0  0  0  0  0  0  0  0  0
    5.0620   -2.6389    1.1193 H   0  0  0  0  0  0  0  0  0  0  0  0
   -5.6626   -1.0743    0.3934 H   0  0  0  0  0  0  0  0  0  0  0  0
   -2.0886   -3.4403    0.2252 H   0  0  0  0  0  0  0  0  0  0  0  0
   -4.5393   -3.2640    0.5668 H   0  0  0  0  0  0  0  0  0  0  0  0
  1 14  1  0  0  0  0
  2  7  1  0  0  0  0
  2 12  1  0  0  0  0
  3  9  2  0  0  0  0
  4  8  1  0  0  0  0
  4  9  1  0  0  0  0
  4 23  1  0  0  0  0
  5  6  1  0  0  0  0
  5 10  1  0  0  0  0
  5 28  1  0  0  0  0
  6 16  2  0  0  0  0
  7  9  1  0  0  0  0
  7 11  1  0  0  0  0
  7 20  1  0  0  0  0
  8 10  1  0  0  0  0
  8 21  1  0  0  0  0
  8 22  1  0  0  0  0
 10 13  2  0  0  0  0
 11 24  1  0  0  0  0
 11 25  1  0  0  0  0
 11 26  1  0  0  0  0
 12 14  1  0  0  0  0
 12 15  2  0  0  0  0
 13 16  1  0  0  0  0
 13 27  1  0  0  0  0
 14 17  2  0  0  0  0
 15 18  1  0  0  0  0
 15 29  1  0  0  0  0
 16 30  1  0  0  0  0
 17 19  1  0  0  0  0
 17 31  1  0  0  0  0
 18 19  2  0  0  0  0
 18 32  1  0  0  0  0
 19 33  1  0  0  0  0
M  END
> <PUBCHEM_COMPOUND_CID>
47205309

> <PUBCHEM_CONFORMER_RMSD>
1

> <PUBCHEM_CONFORMER_DIVERSEORDER>
2
1
80
134
79
131
14
41
109
99
86
106
139
25
44
9
35
39
81
94
26
3
117
50
61
63
28
62
132
87
54
135
98
111
16
6
141
30
32
123
29
47
85
119
142
74
102
78
90
31
95
92
71
130
22
66
4
57
43
93
82
27
18
42
120
70
136
73
114
48
75
76
121
5
133
116
108
60
69
38
68
122
55
34
46
45
51
21
103
77
88
124
37
17
56
91
19
112
59
67
105
96
58
101
126
145
107
40
10
13
83
137
100
33
24
118
128
49
84
72
129
143
52
115
104
53
15
65
7
20
144
36
113
64
125
8
97
11
12
89
140
110
138
23
127

> <PUBCHEM_MMFF94_PARTIAL_CHARGES>
26
1 -0.18
10 -0.33
12 0.08
13 -0.15
14 0.18
15 -0.15
16 0.14
17 -0.15
18 -0.15
19 -0.15
2 -0.36
23 0.37
27 0.15
28 0.27
29 0.15
3 -0.57
30 0.15
31 0.15
32 0.15
33 0.15
4 -0.73
5 0.3
6 -0.71
7 0.34
8 0.48
9 0.57

> <PUBCHEM_EFFECTIVE_ROTOR_COUNT>
6

> <PUBCHEM_PHARMACOPHORE_FEATURES>
7
1 2 acceptor
1 3 acceptor
1 4 donor
1 5 donor
1 6 acceptor
5 5 6 10 13 16 rings
6 12 14 15 17 18 19 rings

> <PUBCHEM_HEAVY_ATOM_COUNT>
19

> <PUBCHEM_ATOM_DEF_STEREO_COUNT>
0

> <PUBCHEM_ATOM_UDEF_STEREO_COUNT>
1

> <PUBCHEM_BOND_DEF_STEREO_COUNT>
0

> <PUBCHEM_BOND_UDEF_STEREO_COUNT>
0

> <PUBCHEM_ISOTOPIC_ATOM_COUNT>
0

> <PUBCHEM_COMPONENT_COUNT>
1

> <PUBCHEM_CACTVS_TAUTO_COUNT>
4

> <PUBCHEM_CONFORMER_ID>
02D04BBD00000002

> <PUBCHEM_MMFF94_ENERGY>
37.3922

> <PUBCHEM_FEATURE_SELFOVERLAP>
35.528

> <PUBCHEM_SHAPE_MULTIPOLES>
366.2
11.08
2.85
0.96
4.55
0.23
0.05
5.66
-0.66
-1.19
-0.46
0.64
-0.11
0.18

> <PUBCHEM_SHAPE_SELFOVERLAP>
760.811

> <PUBCHEM_SHAPE_VOLUME>
209

> <PUBCHEM_COORDINATE_TYPE>
2
5
10

$$$$

