582790
  -OEChem-06241222443D

 29 30  0     1  0  0  0  0  0999 V2000
   -2.9150   -0.1583   -0.1841 S   0  0  0  0  0  0  0  0  0  0  0  0
   -0.5126   -1.9935    0.7893 O   0  0  0  0  0  0  0  0  0  0  0  0
   -3.3197   -1.3888    0.4681 O   0  0  0  0  0  0  0  0  0  0  0  0
   -2.9530   -0.0310   -1.6281 O   0  0  0  0  0  0  0  0  0  0  0  0
   -1.2635    0.2285    0.3554 C   0  0  1  0  0  0  0  0  0  0  0  0
   -0.2878   -0.8778   -0.0776 C   0  0  1  0  0  0  0  0  0  0  0  0
   -0.8525    1.5952   -0.1866 C   0  0  0  0  0  0  0  0  0  0  0  0
    0.5209    1.9929    0.3461 C   0  0  0  0  0  0  0  0  0  0  0  0
    1.1621   -0.4769   -0.0168 C   0  5  3  0  0  0  0  0  0  0  0  0
    1.5504    0.9292    0.1348 C   0  5  3  0  0  0  0  0  0  0  0  0
    2.2003   -1.4746   -0.2835 C   0  5  3  0  0  0  0  0  0  0  0  0
   -3.8817    1.1638    0.5032 C   0  0  0  0  0  0  0  0  0  0  0  0
    2.9629    1.2992    0.1374 C   0  5  3  0  0  0  0  0  0  0  0  0
    3.6042   -1.0967   -0.2817 C   0  5  3  0  0  0  0  0  0  0  0  0
    3.9850    0.2889   -0.0760 C   0  5  3  0  0  0  0  0  0  0  0  0
   -1.3191    0.2624    1.4521 H   0  0  0  0  0  0  0  0  0  0  0  0
   -0.5044   -1.2075   -1.1016 H   0  0  0  0  0  0  0  0  0  0  0  0
   -1.5591    2.3771    0.1059 H   0  0  0  0  0  0  0  0  0  0  0  0
   -0.8332    1.5846   -1.2842 H   0  0  0  0  0  0  0  0  0  0  0  0
    0.4476    2.2036    1.4206 H   0  0  0  0  0  0  0  0  0  0  0  0
    0.8294    2.9259   -0.1410 H   0  0  0  0  0  0  0  0  0  0  0  0
    1.9282   -2.4905   -0.5415 H   0  0  0  0  0  0  0  0  0  0  0  0
   -3.6384    1.2729    1.5614 H   0  0  0  0  0  0  0  0  0  0  0  0
   -3.6964    2.0873   -0.0455 H   0  0  0  0  0  0  0  0  0  0  0  0
   -4.9352    0.8927    0.3979 H   0  0  0  0  0  0  0  0  0  0  0  0
    3.2605    2.3274    0.3007 H   0  0  0  0  0  0  0  0  0  0  0  0
   -1.3941   -2.3514    0.5908 H   0  0  0  0  0  0  0  0  0  0  0  0
    4.3629   -1.8405   -0.4870 H   0  0  0  0  0  0  0  0  0  0  0  0
    5.0288    0.5726   -0.0999 H   0  0  0  0  0  0  0  0  0  0  0  0
  1  3  2  0  0  0  0
  1  4  2  0  0  0  0
  1  5  1  0  0  0  0
  1 12  1  0  0  0  0
  2  6  1  0  0  0  0
  2 27  1  0  0  0  0
  5  6  1  0  0  0  0
  5  7  1  0  0  0  0
  5 16  1  0  0  0  0
  6  9  1  0  0  0  0
  6 17  1  0  0  0  0
  7  8  1  0  0  0  0
  7 18  1  0  0  0  0
  7 19  1  0  0  0  0
  8 10  1  0  0  0  0
  8 20  1  0  0  0  0
  8 21  1  0  0  0  0
  9 10  1  0  0  0  0
  9 11  1  0  0  0  0
 10 13  1  0  0  0  0
 11 14  1  0  0  0  0
 11 22  1  0  0  0  0
 12 23  1  0  0  0  0
 12 24  1  0  0  0  0
 12 25  1  0  0  0  0
 13 15  1  0  0  0  0
 13 26  1  0  0  0  0
 14 15  1  0  0  0  0
 14 28  1  0  0  0  0
 15 29  1  0  0  0  0
M  CHG  6   9  -1  10  -1  11  -1  13  -1  14  -1  15  -1
M  END
> <PUBCHEM_COMPOUND_CID>
582790

> <PUBCHEM_CONFORMER_RMSD>
0.6

> <PUBCHEM_CONFORMER_DIVERSEORDER>
1
13
6
9
11
7
8
10
3
5
12
4
2

> <PUBCHEM_EFFECTIVE_ROTOR_COUNT>
2.6

> <PUBCHEM_PHARMACOPHORE_FEATURES>
6
1 2 acceptor
1 2 donor
1 3 acceptor
1 4 acceptor
6 5 6 7 8 9 10 rings
6 9 10 11 13 14 15 rings

> <PUBCHEM_HEAVY_ATOM_COUNT>
15

> <PUBCHEM_ATOM_DEF_STEREO_COUNT>
0

> <PUBCHEM_ATOM_UDEF_STEREO_COUNT>
2

> <PUBCHEM_BOND_DEF_STEREO_COUNT>
0

> <PUBCHEM_BOND_UDEF_STEREO_COUNT>
0

> <PUBCHEM_ISOTOPIC_ATOM_COUNT>
0

> <PUBCHEM_COMPONENT_COUNT>
1

> <PUBCHEM_CACTVS_TAUTO_COUNT>
1

> <PUBCHEM_CONFORMER_ID>
0008E48600000001

> <PUBCHEM_MMFF94_ENERGY>
35.9854

> <PUBCHEM_FEATURE_SELFOVERLAP>
30.482

> <PUBCHEM_SHAPE_FINGERPRINT>
10062212 137 18260555545074333215
10608611 8 18411139095584504024
10967382 1 18338514256588656202
11132069 177 18335987535981761544
11206711 2 18268989959058774964
11471102 20 18409451405365280124
12032990 46 18410568479172299682
12932764 1 17418099831825256179
13221675 6 18408605868143957580
13296908 3 18411980247744112755
13380535 76 18410857633883026906
13897977 150 18266180535056532704
14115302 16 18059278925493628078
14144814 61 18408885135491647456
14251717 144 18334582321519453758
14325111 11 18410291402115545113
15196674 1 18410008832159420872
15219456 202 18411135805591881138
15536298 74 18259703410878293512
15775835 57 18334573564007394421
16945 1 18262244304682235648
17844478 74 18131347518515474493
18186145 218 18273216425678621774
193761 8 17617658756993775992
200 152 17822297898128583068
20201158 50 18410292510544116042
20588541 1 18411416172746578280
20645477 70 18260551164086456911
21267235 1 18336817641375098294
21501502 16 18196650687969592086
2334 1 18337955696282033728
23402539 116 18335708268929379910
23402655 69 18260548956594624668
23463225 33 18410290324363616332
23493267 7 17060062591981670889
23559900 14 18411417337268427270
25 1 18341897423823813207
2748010 2 17905889171905980776
5104073 3 18409729560527314250
528886 8 18410014351150256897
581208 293 18261681398121631376
8809292 202 18343577443157548251
9709674 26 18408878525711493910

> <PUBCHEM_SHAPE_MULTIPOLES>
294.93
6.76
1.94
0.83
0.51
0.1
0.18
-0.22
0.35
-0.21
-0.26
0.5
-0.08
0.15

> <PUBCHEM_SHAPE_SELFOVERLAP>
596.99

> <PUBCHEM_SHAPE_VOLUME>
172.3

> <PUBCHEM_COORDINATE_TYPE>
2
5
10

$$$$

