17395284
  -OEChem-06241222493D

 45 47  0     1  0  0  0  0  0999 V2000
    2.7815    2.3079   -1.9548 Cl  0  0  0  0  0  0  0  0  0  0  0  0
    6.0636   -1.5675    1.6758 Cl  0  0  0  0  0  0  0  0  0  0  0  0
    7.1646   -0.6916   -1.2380 Cl  0  0  0  0  0  0  0  0  0  0  0  0
   -4.3710    2.1618   -0.6796 S   0  0  0  0  0  0  0  0  0  0  0  0
   -5.5422    1.4246   -1.1058 O   0  0  0  0  0  0  0  0  0  0  0  0
   -3.9846    3.4192   -1.2854 O   0  0  0  0  0  0  0  0  0  0  0  0
   -0.4345    2.1111    0.4187 O   0  0  0  0  0  0  0  0  0  0  0  0
    2.0110    1.3267    0.7846 O   0  0  0  0  0  0  0  0  0  0  0  0
   -1.4647    0.1160    1.0135 N   0  0  0  0  0  0  0  0  0  0  0  0
   -3.3280   -4.1490   -0.0493 N   0  0  0  0  0  0  0  0  0  0  0  0
   -2.7859    0.6166    0.7559 C   0  0  2  0  0  0  0  0  0  0  0  0
   -2.9610    1.0637   -0.6949 C   0  0  0  0  0  0  0  0  0  0  0  0
   -3.1170    1.8386    1.6166 C   0  0  0  0  0  0  0  0  0  0  0  0
   -4.4442    2.3748    1.0929 C   0  0  0  0  0  0  0  0  0  0  0  0
   -1.3908   -1.2771    1.4674 C   0  0  0  0  0  0  0  0  0  0  0  0
   -0.3506    0.9441    0.8138 C   0  0  0  0  0  0  0  0  0  0  0  0
   -1.9435   -2.2304    0.4476 C   0  0  0  0  0  0  0  0  0  0  0  0
    1.0219    0.3671    1.0899 C   0  0  0  0  0  0  0  0  0  0  0  0
   -1.6136   -2.1107   -0.8979 C   0  0  0  0  0  0  0  0  0  0  0  0
   -2.7971   -3.2575    0.8172 C   0  0  0  0  0  0  0  0  0  0  0  0
   -2.1399   -3.0090   -1.8196 C   0  0  0  0  0  0  0  0  0  0  0  0
    3.2126    0.8596    0.3064 C   0  0  0  0  0  0  0  0  0  0  0  0
   -2.9846   -4.0013   -1.3485 C   0  0  0  0  0  0  0  0  0  0  0  0
    3.6870    1.2373   -0.9498 C   0  0  0  0  0  0  0  0  0  0  0  0
    3.9607   -0.0072    1.1029 C   0  0  0  0  0  0  0  0  0  0  0  0
    5.1833   -0.4966    0.6431 C   0  0  0  0  0  0  0  0  0  0  0  0
    4.9095    0.7478   -1.4095 C   0  0  0  0  0  0  0  0  0  0  0  0
    5.6577   -0.1190   -0.6132 C   0  0  0  0  0  0  0  0  0  0  0  0
   -3.5352   -0.1537    0.9821 H   0  0  0  0  0  0  0  0  0  0  0  0
   -3.1882    0.2261   -1.3589 H   0  0  0  0  0  0  0  0  0  0  0  0
   -2.1236    1.6217   -1.1165 H   0  0  0  0  0  0  0  0  0  0  0  0
   -3.1915    1.5753    2.6773 H   0  0  0  0  0  0  0  0  0  0  0  0
   -2.3725    2.6358    1.5434 H   0  0  0  0  0  0  0  0  0  0  0  0
   -4.5967    3.4288    1.3338 H   0  0  0  0  0  0  0  0  0  0  0  0
   -5.2826    1.7801    1.4672 H   0  0  0  0  0  0  0  0  0  0  0  0
   -0.3690   -1.5777    1.7087 H   0  0  0  0  0  0  0  0  0  0  0  0
   -1.9640   -1.3317    2.4015 H   0  0  0  0  0  0  0  0  0  0  0  0
    1.1475   -0.5309    0.4729 H   0  0  0  0  0  0  0  0  0  0  0  0
    1.0914    0.1108    2.1521 H   0  0  0  0  0  0  0  0  0  0  0  0
   -0.9377   -1.3351   -1.2467 H   0  0  0  0  0  0  0  0  0  0  0  0
   -3.0909   -3.4040    1.8519 H   0  0  0  0  0  0  0  0  0  0  0  0
   -1.8941   -2.9368   -2.8728 H   0  0  0  0  0  0  0  0  0  0  0  0
   -3.4205   -4.7274   -2.0266 H   0  0  0  0  0  0  0  0  0  0  0  0
    3.5925   -0.2938    2.0855 H   0  0  0  0  0  0  0  0  0  0  0  0
    5.2779    1.0435   -2.3898 H   0  0  0  0  0  0  0  0  0  0  0  0
  1 24  1  0  0  0  0
  2 26  1  0  0  0  0
  3 28  1  0  0  0  0
  4  5  2  0  0  0  0
  4  6  2  0  0  0  0
  4 12  1  0  0  0  0
  4 14  1  0  0  0  0
  7 16  2  0  0  0  0
  8 18  1  0  0  0  0
  8 22  1  0  0  0  0
  9 11  1  0  0  0  0
  9 15  1  0  0  0  0
  9 16  1  0  0  0  0
 10 20  1  0  0  0  0
 10 23  2  0  0  0  0
 11 12  1  0  0  0  0
 11 13  1  0  0  0  0
 11 29  1  0  0  0  0
 12 30  1  0  0  0  0
 12 31  1  0  0  0  0
 13 14  1  0  0  0  0
 13 32  1  0  0  0  0
 13 33  1  0  0  0  0
 14 34  1  0  0  0  0
 14 35  1  0  0  0  0
 15 17  1  0  0  0  0
 15 36  1  0  0  0  0
 15 37  1  0  0  0  0
 16 18  1  0  0  0  0
 17 19  1  0  0  0  0
 17 20  2  0  0  0  0
 18 38  1  0  0  0  0
 18 39  1  0  0  0  0
 19 21  2  0  0  0  0
 19 40  1  0  0  0  0
 20 41  1  0  0  0  0
 21 23  1  0  0  0  0
 21 42  1  0  0  0  0
 22 24  1  0  0  0  0
 22 25  2  0  0  0  0
 23 43  1  0  0  0  0
 24 27  2  0  0  0  0
 25 26  1  0  0  0  0
 25 44  1  0  0  0  0
 26 28  2  0  0  0  0
 27 28  1  0  0  0  0
 27 45  1  0  0  0  0
M  END
> <PUBCHEM_COMPOUND_CID>
17395284

> <PUBCHEM_CONFORMER_RMSD>
1.2

> <PUBCHEM_CONFORMER_DIVERSEORDER>
1
71
224
134
85
115
95
158
198
124
86
132
112
98
220
222
53
154
177
190
162
107
102
228
93
212
175
30
152
148
49
155
193
221
159
189
89
183
92
232
62
141
78
210
145
181
203
207
163
201
191
168
176
79
87
160
173
157
104
192
91
68
54
150
135
172
106
197
103
125
42
94
41
14
147
136
83
188
45
109
211
114
121
187
38
230
180
216
128
120
108
206
143
61
81
39
11
126
90
123
84
58
164
179
138
65
219
178
129
43
170
64
196
215
161
208
48
214
153
4
16
186
15
182
24
225
137
97
69
194
218
55
70
18
171
229
29
231
77
185
44
20
12
33
166
96
169
127
3
88
200
209
151
202
82
2
119
35
223
75
122
50
101
167
144
34
5
46
195
63
40
213
116
31
156
72
205
118
105
139
146
142
184
52
57
60
36
10
56
100
22
165
73
76
110
217
37
140
199
204
113
149
9
51
28
66
17
111
117
130
59
227
19
131
74
133
26
67
99
6
7
80
25
13
32
226
21
47
27
8
174
23

> <PUBCHEM_MMFF94_PARTIAL_CHARGES>
33
1 -0.18
10 -0.62
11 0.3
12 0.11
14 0.11
15 0.44
16 0.57
17 -0.14
18 0.34
19 -0.15
2 -0.18
20 0.16
21 -0.15
22 0.08
23 0.16
24 0.18
25 -0.15
26 0.18
27 -0.15
28 0.18
3 -0.18
4 1.09
40 0.15
41 0.15
42 0.15
43 0.15
44 0.15
45 0.15
5 -0.65
6 -0.65
7 -0.57
8 -0.36
9 -0.66

> <PUBCHEM_EFFECTIVE_ROTOR_COUNT>
7.8

> <PUBCHEM_PHARMACOPHORE_FEATURES>
8
1 10 acceptor
1 5 acceptor
1 6 acceptor
1 7 acceptor
1 8 acceptor
5 4 11 12 13 14 rings
6 10 17 19 20 21 23 rings
6 22 24 25 26 27 28 rings

> <PUBCHEM_HEAVY_ATOM_COUNT>
28

> <PUBCHEM_ATOM_DEF_STEREO_COUNT>
0

> <PUBCHEM_ATOM_UDEF_STEREO_COUNT>
1

> <PUBCHEM_BOND_DEF_STEREO_COUNT>
0

> <PUBCHEM_BOND_UDEF_STEREO_COUNT>
0

> <PUBCHEM_ISOTOPIC_ATOM_COUNT>
0

> <PUBCHEM_COMPONENT_COUNT>
1

> <PUBCHEM_CACTVS_TAUTO_COUNT>
1

> <PUBCHEM_CONFORMER_ID>
01096E5400000001

> <PUBCHEM_MMFF94_ENERGY>
77.5972

> <PUBCHEM_FEATURE_SELFOVERLAP>
40.623

> <PUBCHEM_SHAPE_FINGERPRINT>
10254770 206 17763469817767369658
10391435 84 18187081789847581686
105312 117 18337387244512332285
10622 236 18270131123638817738
10928967 22 18044930178519200438
11796584 16 18333723646700249202
11809386 21 18340210696026066810
11991303 11 18343025497728068799
12373685 5 18266200395676036120
12616971 3 17418097637708891610
12643181 29 18261387902001237206
12788726 201 18267878198580429443
12977781 61 16083942441004262787
13690498 29 18264758870869383878
13726171 33 17754422735139791056
14347332 77 18267868289499903667
15131766 46 15912175639665207940
15183329 4 18130784620444857356
15775530 1 17461460026502869945
1813 80 17613433342752141047
19958102 18 18336278906826821215
20511986 3 18343589547245742128
21703447 108 17976550416304825200
21781051 124 18412259515914605907
22393880 68 18411417276996246146
22907989 373 18264201405821464269
23559900 14 18260267439391200896
23598288 3 18268412569351288769
3027735 51 18187928331110270807
32027 91 17750783524004101254
3383291 50 17894918421104610111
340366 18 18343013415526116276
3610482 184 17846202355196289214
38695281 34 18195252341598015809
4015057 19 16950296091196590024
4058900 60 18124034791913903721
44062 13 18409166584777948310
484985 159 17604692422341923099
497634 4 16343412913098956819
5085150 59 17968105247812361166
508706 21 18260256447910351734
513202 73 18268419149563790947
559249 180 18411425041833238194
633830 44 16845570907670891296
6691757 9 18114464560494455234
7164475 11 18123755257434099297

> <PUBCHEM_SHAPE_MULTIPOLES>
552.25
14.48
4.45
1.85
20.9
4.02
0.23
-1.31
2.38
-8.57
1.56
0.49
0.03
-1.68

> <PUBCHEM_SHAPE_SELFOVERLAP>
1135.721

> <PUBCHEM_SHAPE_VOLUME>
320.7

> <PUBCHEM_COORDINATE_TYPE>
2
5
10

$$$$

