11665
  -OEChem-06261205583D

 17 16  0     0  0  0  0  0  0999 V2000
    2.2474    0.9627   -0.0057 I   0  0  0  0  0  0  0  0  0  0  0  0
    0.2824   -0.1625    0.0014 C   0  0  0  0  0  0  0  0  0  0  0  0
   -0.8312    0.9062    0.0666 C   0  0  0  0  0  0  0  0  0  0  0  0
    0.2448   -0.9846   -1.2926 C   0  0  0  0  0  0  0  0  0  0  0  0
    0.3058   -1.0752    1.2335 C   0  0  0  0  0  0  0  0  0  0  0  0
   -2.2493    0.3533   -0.0031 C   0  0  0  0  0  0  0  0  0  0  0  0
   -0.7091    1.6212   -0.7575 H   0  0  0  0  0  0  0  0  0  0  0  0
   -0.7330    1.4878    0.9925 H   0  0  0  0  0  0  0  0  0  0  0  0
    1.1164   -1.6442   -1.3749 H   0  0  0  0  0  0  0  0  0  0  0  0
    0.2354   -0.3380   -2.1772 H   0  0  0  0  0  0  0  0  0  0  0  0
   -0.6454   -1.6211   -1.3330 H   0  0  0  0  0  0  0  0  0  0  0  0
   -0.5918   -1.7006    1.2799 H   0  0  0  0  0  0  0  0  0  0  0  0
    1.1701   -1.7491    1.2179 H   0  0  0  0  0  0  0  0  0  0  0  0
    0.3566   -0.4943    2.1613 H   0  0  0  0  0  0  0  0  0  0  0  0
   -2.9713    1.1731    0.0731 H   0  0  0  0  0  0  0  0  0  0  0  0
   -2.4349   -0.1607   -0.9506 H   0  0  0  0  0  0  0  0  0  0  0  0
   -2.4507   -0.3418    0.8168 H   0  0  0  0  0  0  0  0  0  0  0  0
  1  2  1  0  0  0  0
  2  3  1  0  0  0  0
  2  4  1  0  0  0  0
  2  5  1  0  0  0  0
  3  6  1  0  0  0  0
  3  7  1  0  0  0  0
  3  8  1  0  0  0  0
  4  9  1  0  0  0  0
  4 10  1  0  0  0  0
  4 11  1  0  0  0  0
  5 12  1  0  0  0  0
  5 13  1  0  0  0  0
  5 14  1  0  0  0  0
  6 15  1  0  0  0  0
  6 16  1  0  0  0  0
  6 17  1  0  0  0  0
M  END
> <PUBCHEM_COMPOUND_CID>
11665

> <PUBCHEM_CONFORMER_RMSD>
0.4

> <PUBCHEM_CONFORMER_DIVERSEORDER>
1
2
3

> <PUBCHEM_MMFF94_PARTIAL_CHARGES>
2
1 -0.19
2 0.19

> <PUBCHEM_EFFECTIVE_ROTOR_COUNT>
1

> <PUBCHEM_PHARMACOPHORE_FEATURES>
3
1 1 hydrophobe
1 6 hydrophobe
4 1 2 4 5 hydrophobe

> <PUBCHEM_HEAVY_ATOM_COUNT>
6

> <PUBCHEM_ATOM_DEF_STEREO_COUNT>
0

> <PUBCHEM_ATOM_UDEF_STEREO_COUNT>
0

> <PUBCHEM_BOND_DEF_STEREO_COUNT>
0

> <PUBCHEM_BOND_UDEF_STEREO_COUNT>
0

> <PUBCHEM_ISOTOPIC_ATOM_COUNT>
0

> <PUBCHEM_COMPONENT_COUNT>
1

> <PUBCHEM_CACTVS_TAUTO_COUNT>
1

> <PUBCHEM_CONFORMER_ID>
00002D9100000001

> <PUBCHEM_MMFF94_ENERGY>
10.216

> <PUBCHEM_FEATURE_SELFOVERLAP>
15.447

> <PUBCHEM_SHAPE_FINGERPRINT>
137420 1 14113803430200360978
16714656 1 17896043152284053644
20096714 4 18410015424950297808
21040471 1 17989198222875527472
23552449 11 17201093718528918001
24536 1 17681283470567131313
29004967 10 17822841112812845675
5084963 1 18413387648555965680
5943 1 5148724344142384430

> <PUBCHEM_SHAPE_MULTIPOLES>
135.41
2.77
1.33
1.16
0.48
0.12
0.05
-1.33
0
0.05
-0.04
0.08
0.51
-0.02

> <PUBCHEM_SHAPE_SELFOVERLAP>
216.129

> <PUBCHEM_SHAPE_VOLUME>
99.4

> <PUBCHEM_COORDINATE_TYPE>
2
5
10

$$$$

