582818
  -OEChem-06241222443D

 37 38  0     0  0  0  0  0  0999 V2000
   -3.9202    1.4878    0.9654 O   0  0  0  0  0  0  0  0  0  0  0  0
   -3.8897    2.1506   -1.2795 O   0  0  0  0  0  0  0  0  0  0  0  0
    7.2042   -0.0972    1.2617 O   0  5  0  0  0  0  0  0  0  0  0  0
    7.0123    1.5253   -0.2109 O   0  0  0  0  0  0  0  0  0  0  0  0
    1.3727   -1.2241   -0.8624 N   0  0  0  0  0  0  0  0  0  0  0  0
    6.5513    0.5261    0.3909 N   0  3  0  0  0  0  0  0  0  0  0  0
   -3.3824   -0.7494    0.2714 C   0  0  0  0  0  0  0  0  0  0  0  0
   -4.3150    0.2449    0.5670 C   0  0  0  0  0  0  0  0  0  0  0  0
   -3.8144   -2.0125   -0.1337 C   0  0  0  0  0  0  0  0  0  0  0  0
   -5.6794   -0.0239    0.4574 C   0  0  0  0  0  0  0  0  0  0  0  0
   -1.9522   -0.4940    0.3780 C   0  0  0  0  0  0  0  0  0  0  0  0
    2.6705   -0.7855   -0.5483 C   0  0  0  0  0  0  0  0  0  0  0  0
   -5.1788   -2.2811   -0.2432 C   0  0  0  0  0  0  0  0  0  0  0  0
   -6.1112   -1.2869    0.0525 C   0  0  0  0  0  0  0  0  0  0  0  0
    5.2401    0.0832    0.0737 C   0  0  0  0  0  0  0  0  0  0  0  0
    3.4135   -1.4612    0.4144 C   0  0  0  0  0  0  0  0  0  0  0  0
    3.2024    0.3214   -1.2025 C   0  0  0  0  0  0  0  0  0  0  0  0
    4.7014   -1.0257    0.7264 C   0  0  0  0  0  0  0  0  0  0  0  0
    4.4905    0.7569   -0.8908 C   0  0  0  0  0  0  0  0  0  0  0  0
   -0.9983   -1.0701   -0.3824 C   0  0  0  0  0  0  0  0  0  0  0  0
    0.4163   -0.7029   -0.1633 C   0  0  0  0  0  0  0  0  0  0  0  0
   -3.7323    2.3933   -0.0904 C   0  0  0  0  0  0  0  0  0  0  0  0
   -3.3010    3.7250    0.4486 C   0  0  0  0  0  0  0  0  0  0  0  0
   -3.1189   -2.8177   -0.3556 H   0  0  0  0  0  0  0  0  0  0  0  0
   -6.4122    0.7451    0.6869 H   0  0  0  0  0  0  0  0  0  0  0  0
   -1.6583    0.2315    1.1339 H   0  0  0  0  0  0  0  0  0  0  0  0
   -5.5157   -3.2656   -0.5546 H   0  0  0  0  0  0  0  0  0  0  0  0
   -7.1735   -1.4965   -0.0316 H   0  0  0  0  0  0  0  0  0  0  0  0
    3.0016   -2.3264    0.9270 H   0  0  0  0  0  0  0  0  0  0  0  0
    2.6252    0.8513   -1.9556 H   0  0  0  0  0  0  0  0  0  0  0  0
    5.2557   -1.5753    1.4829 H   0  0  0  0  0  0  0  0  0  0  0  0
    4.8769    1.6243   -1.4198 H   0  0  0  0  0  0  0  0  0  0  0  0
   -1.2112   -1.7855   -1.1680 H   0  0  0  0  0  0  0  0  0  0  0  0
    0.6113    0.0405    0.6321 H   0  0  0  0  0  0  0  0  0  0  0  0
   -4.0713    4.1204    1.1150 H   0  0  0  0  0  0  0  0  0  0  0  0
   -3.1632    4.4247   -0.3805 H   0  0  0  0  0  0  0  0  0  0  0  0
   -2.3508    3.6181    0.9777 H   0  0  0  0  0  0  0  0  0  0  0  0
  1  8  1  0  0  0  0
  1 22  1  0  0  0  0
  2 22  2  0  0  0  0
  3  6  1  0  0  0  0
  4  6  2  0  0  0  0
  5 12  1  0  0  0  0
  5 21  2  0  0  0  0
  6 15  1  0  0  0  0
  7  8  1  0  0  0  0
  7  9  2  0  0  0  0
  7 11  1  0  0  0  0
  8 10  2  0  0  0  0
  9 13  1  0  0  0  0
  9 24  1  0  0  0  0
 10 14  1  0  0  0  0
 10 25  1  0  0  0  0
 11 20  2  0  0  0  0
 11 26  1  0  0  0  0
 12 16  2  0  0  0  0
 12 17  1  0  0  0  0
 13 14  2  0  0  0  0
 13 27  1  0  0  0  0
 14 28  1  0  0  0  0
 15 18  2  0  0  0  0
 15 19  1  0  0  0  0
 16 18  1  0  0  0  0
 16 29  1  0  0  0  0
 17 19  2  0  0  0  0
 17 30  1  0  0  0  0
 18 31  1  0  0  0  0
 19 32  1  0  0  0  0
 20 21  1  0  0  0  0
 20 33  1  0  0  0  0
 21 34  1  0  0  0  0
 22 23  1  0  0  0  0
 23 35  1  0  0  0  0
 23 36  1  0  0  0  0
 23 37  1  0  0  0  0
M  CHG  2   3  -1   6   1
M  END
> <PUBCHEM_COMPOUND_CID>
582818

> <PUBCHEM_CONFORMER_RMSD>
0.8

> <PUBCHEM_CONFORMER_DIVERSEORDER>
1
15
9
5
7
8
18
10
2
11
6
19
16
4
14
3
17
13
12

> <PUBCHEM_MMFF94_PARTIAL_CHARGES>
34
1 -0.23
10 -0.15
11 -0.18
12 0.18
13 -0.15
14 -0.15
15 0.13
16 -0.15
17 -0.15
18 -0.15
19 -0.15
2 -0.57
20 -0.14
21 0.38
22 0.66
23 0.06
24 0.15
25 0.15
26 0.15
27 0.15
28 0.15
29 0.15
3 -0.52
30 0.15
31 0.15
32 0.15
33 0.15
34 0.06
4 -0.52
5 -0.63
6 0.91
7 0.03
8 0.08
9 -0.15

> <PUBCHEM_EFFECTIVE_ROTOR_COUNT>
6

> <PUBCHEM_PHARMACOPHORE_FEATURES>
7
1 2 acceptor
1 3 acceptor
1 3 anion
1 4 acceptor
1 5 acceptor
6 12 15 16 17 18 19 rings
6 7 8 9 10 13 14 rings

> <PUBCHEM_HEAVY_ATOM_COUNT>
23

> <PUBCHEM_ATOM_DEF_STEREO_COUNT>
0

> <PUBCHEM_ATOM_UDEF_STEREO_COUNT>
0

> <PUBCHEM_BOND_DEF_STEREO_COUNT>
0

> <PUBCHEM_BOND_UDEF_STEREO_COUNT>
1

> <PUBCHEM_ISOTOPIC_ATOM_COUNT>
0

> <PUBCHEM_COMPONENT_COUNT>
1

> <PUBCHEM_CACTVS_TAUTO_COUNT>
1

> <PUBCHEM_CONFORMER_ID>
0008E4A200000001

> <PUBCHEM_MMFF94_ENERGY>
69.9027

> <PUBCHEM_FEATURE_SELFOVERLAP>
35.601

> <PUBCHEM_SHAPE_FINGERPRINT>
10087517 78 18412263943382640621
10595046 47 18413107260026704482
11101153 10 18338235942956379965
11315181 36 18201719505842047643
12107183 9 17694225868945135107
12236239 1 18411138018080690002
12596602 18 18059860588128733530
13073987 5 18341331183920389466
13167372 99 18412828006375890608
13403585 85 18410012135057797737
13785724 45 17833834155477120026
13914758 101 16558758940294704101
14251764 18 17988924445097279462
14840074 17 4895557372520915425
14849402 71 18128251191378822836
15348495 7 11743546653281142526
15419008 145 18270694155634188424
15419008 47 17822010891239816481
16993438 75 16772690977345336069
17093844 174 11312057625601577279
17686467 74 18117285743869473587
17844677 252 18338226171757848158
19377110 9 18202288008792433738
19489759 90 18342457036825094003
20281389 69 18260832584045925674
21033650 10 18122595453107923022
21065198 48 18272372005402484554
21315763 129 18409448068508221304
21315763 191 8574710195940947514
21315763 28 18411420601306402866
21315764 268 18410296869883706700
22224240 67 17632020746186937842
22956985 138 17333641679979249947
23035841 295 8935006962086608486
23559900 14 18261398802400848641
32027 91 17756136048875336742
34797466 226 17458897163381557982
5104073 3 18129377266576912914
999808 66 6627464160174361949

> <PUBCHEM_SHAPE_MULTIPOLES>
439.89
19.16
2.71
0.97
21.34
2.57
-0.07
1.45
3.12
-4.88
-0.01
0.55
0.14
-0.59

> <PUBCHEM_SHAPE_SELFOVERLAP>
937.273

> <PUBCHEM_SHAPE_VOLUME>
242.4

> <PUBCHEM_COORDINATE_TYPE>
2
5
10

$$$$

