13396
  -OEChem-06261209393D

 15 15  0     0  0  0  0  0  0999 V2000
    3.2502   -0.0001    0.0000 N   0  0  0  0  0  0  0  0  0  0  0  0
   -3.5408    0.0001    0.0000 N   0  0  0  0  0  0  0  0  0  0  0  0
    1.8398    0.0000    0.0000 C   0  0  0  0  0  0  0  0  0  0  0  0
    1.1422   -1.2080    0.0000 C   0  0  0  0  0  0  0  0  0  0  0  0
    1.1424    1.2081    0.0000 C   0  0  0  0  0  0  0  0  0  0  0  0
   -0.9499   -0.0001    0.0000 C   0  0  0  0  0  0  0  0  0  0  0  0
   -0.2526   -1.2080    0.0000 C   0  0  0  0  0  0  0  0  0  0  0  0
   -0.2525    1.2080    0.0000 C   0  0  0  0  0  0  0  0  0  0  0  0
   -2.3788    0.0000    0.0000 C   0  0  0  0  0  0  0  0  0  0  0  0
    1.6743   -2.1559    0.0001 H   0  0  0  0  0  0  0  0  0  0  0  0
    1.6746    2.1560    0.0000 H   0  0  0  0  0  0  0  0  0  0  0  0
   -0.7821   -2.1578    0.0000 H   0  0  0  0  0  0  0  0  0  0  0  0
   -0.7821    2.1578    0.0000 H   0  0  0  0  0  0  0  0  0  0  0  0
    3.7564    0.8754   -0.0006 H   0  0  0  0  0  0  0  0  0  0  0  0
    3.7563   -0.8757   -0.0006 H   0  0  0  0  0  0  0  0  0  0  0  0
  1  3  1  0  0  0  0
  1 14  1  0  0  0  0
  1 15  1  0  0  0  0
  2  9  3  0  0  0  0
  3  4  2  0  0  0  0
  3  5  1  0  0  0  0
  4  7  1  0  0  0  0
  4 10  1  0  0  0  0
  5  8  2  0  0  0  0
  5 11  1  0  0  0  0
  6  7  2  0  0  0  0
  6  8  1  0  0  0  0
  6  9  1  0  0  0  0
  7 12  1  0  0  0  0
  8 13  1  0  0  0  0
M  END
> <PUBCHEM_COMPOUND_CID>
13396

> <PUBCHEM_CONFORMER_RMSD>
0.4

> <PUBCHEM_CONFORMER_DIVERSEORDER>
1

> <PUBCHEM_MMFF94_PARTIAL_CHARGES>
15
1 -0.9
10 0.15
11 0.15
12 0.15
13 0.15
14 0.4
15 0.4
2 -0.56
3 0.1
4 -0.15
5 -0.15
6 0.07
7 -0.15
8 -0.15
9 0.48

> <PUBCHEM_EFFECTIVE_ROTOR_COUNT>
0

> <PUBCHEM_PHARMACOPHORE_FEATURES>
4
1 1 cation
1 1 donor
1 2 acceptor
6 3 4 5 6 7 8 rings

> <PUBCHEM_HEAVY_ATOM_COUNT>
9

> <PUBCHEM_ATOM_DEF_STEREO_COUNT>
0

> <PUBCHEM_ATOM_UDEF_STEREO_COUNT>
0

> <PUBCHEM_BOND_DEF_STEREO_COUNT>
0

> <PUBCHEM_BOND_UDEF_STEREO_COUNT>
0

> <PUBCHEM_ISOTOPIC_ATOM_COUNT>
0

> <PUBCHEM_COMPONENT_COUNT>
1

> <PUBCHEM_CACTVS_TAUTO_COUNT>
1

> <PUBCHEM_CONFORMER_ID>
0000345400000001

> <PUBCHEM_MMFF94_ENERGY>
27.375

> <PUBCHEM_FEATURE_SELFOVERLAP>
20.297

> <PUBCHEM_SHAPE_FINGERPRINT>
10219947 1 9151174259395097997
11062470 55 14201396079756144115
14325111 11 9295277344522236515
16945 1 9223231849185531392
193761 8 9292249293662381444
21040471 1 9222356633619114594
23235685 24 9223227429753893574
23402655 69 9438581029294327195
23552423 10 7996879486424949408
2748010 2 9222069674016561834
29004967 10 8142089779433808167
5084963 1 10159697992847998103
528886 8 9583515399832861045

> <PUBCHEM_SHAPE_MULTIPOLES>
175.25
4.14
1.28
0.6
1.58
0
0
0
0
-0.3
0
0
0
0

> <PUBCHEM_SHAPE_SELFOVERLAP>
365.799

> <PUBCHEM_SHAPE_VOLUME>
98.3

> <PUBCHEM_COORDINATE_TYPE>
2
5
10

$$$$

