17395462
  -OEChem-06241222503D

 54 57  0     0  0  0  0  0  0999 V2000
    5.7777    1.0912    0.5627 S   0  0  0  0  0  0  0  0  0  0  0  0
   -2.5934    1.0613   -2.0967 O   0  0  0  0  0  0  0  0  0  0  0  0
   -4.0037   -0.1445   -0.6989 N   0  0  0  0  0  0  0  0  0  0  0  0
    1.2318   -0.8853   -0.2139 N   0  0  0  0  0  0  0  0  0  0  0  0
    3.0509   -2.3353    0.2157 N   0  0  0  0  0  0  0  0  0  0  0  0
    5.3037   -1.5301    0.6100 N   0  0  0  0  0  0  0  0  0  0  0  0
   -1.5856   -0.6408   -0.7927 C   0  0  0  0  0  0  0  0  0  0  0  0
   -0.5503   -0.7520   -1.9095 C   0  0  0  0  0  0  0  0  0  0  0  0
   -0.9637    0.0240    0.4330 C   0  0  0  0  0  0  0  0  0  0  0  0
   -6.2432    0.1100    1.1273 C   0  0  0  0  0  0  0  0  0  0  0  0
   -4.9557   -0.6291    1.5230 C   0  0  0  0  0  0  0  0  0  0  0  0
   -5.9370    1.1774    0.0659 C   0  0  0  0  0  0  0  0  0  0  0  0
   -4.2414   -1.1959    0.2972 C   0  0  0  0  0  0  0  0  0  0  0  0
   -5.2047    0.5729   -1.1298 C   0  0  0  0  0  0  0  0  0  0  0  0
   -2.7670    0.1715   -1.2600 C   0  0  0  0  0  0  0  0  0  0  0  0
    0.6962   -1.4981   -1.4380 C   0  0  0  0  0  0  0  0  0  0  0  0
    0.2890   -0.7176    0.8977 C   0  0  0  0  0  0  0  0  0  0  0  0
   -6.9088    0.7352    2.3508 C   0  0  0  0  0  0  0  0  0  0  0  0
    2.5918   -1.0752    0.0599 C   0  0  0  0  0  0  0  0  0  0  0  0
    3.4656    0.0113    0.1717 C   0  0  0  0  0  0  0  0  0  0  0  0
    3.2813    1.4255    0.0608 C   0  0  0  0  0  0  0  0  0  0  0  0
    4.7925   -0.2945    0.4452 C   0  0  0  0  0  0  0  0  0  0  0  0
    4.4523    2.1266    0.2502 C   0  0  0  0  0  0  0  0  0  0  0  0
    4.3642   -2.4835    0.4783 C   0  0  0  0  0  0  0  0  0  0  0  0
    1.9817    2.0856   -0.2261 C   0  0  0  0  0  0  0  0  0  0  0  0
    4.6760    3.5895    0.2160 C   0  0  0  0  0  0  0  0  0  0  0  0
   -1.8757   -1.6708   -0.5733 H   0  0  0  0  0  0  0  0  0  0  0  0
   -0.2493    0.2453   -2.2563 H   0  0  0  0  0  0  0  0  0  0  0  0
   -0.9801   -1.2661   -2.7779 H   0  0  0  0  0  0  0  0  0  0  0  0
   -1.6840    0.0628    1.2586 H   0  0  0  0  0  0  0  0  0  0  0  0
   -0.7169    1.0666    0.1997 H   0  0  0  0  0  0  0  0  0  0  0  0
   -6.9426   -0.6183    0.6955 H   0  0  0  0  0  0  0  0  0  0  0  0
   -5.1887   -1.4430    2.2195 H   0  0  0  0  0  0  0  0  0  0  0  0
   -4.2812    0.0609    2.0466 H   0  0  0  0  0  0  0  0  0  0  0  0
   -5.3156    1.9678    0.5067 H   0  0  0  0  0  0  0  0  0  0  0  0
   -6.8662    1.6490   -0.2742 H   0  0  0  0  0  0  0  0  0  0  0  0
   -3.3329   -1.6831    0.6453 H   0  0  0  0  0  0  0  0  0  0  0  0
   -4.8583   -1.9639   -0.1839 H   0  0  0  0  0  0  0  0  0  0  0  0
   -5.8476   -0.1472   -1.6499 H   0  0  0  0  0  0  0  0  0  0  0  0
   -4.9525    1.3620   -1.8452 H   0  0  0  0  0  0  0  0  0  0  0  0
    0.4590   -2.5522   -1.2480 H   0  0  0  0  0  0  0  0  0  0  0  0
    1.4442   -1.4679   -2.2400 H   0  0  0  0  0  0  0  0  0  0  0  0
    0.7515   -0.1532    1.7162 H   0  0  0  0  0  0  0  0  0  0  0  0
    0.0181   -1.7033    1.2960 H   0  0  0  0  0  0  0  0  0  0  0  0
   -6.2552    1.4740    2.8267 H   0  0  0  0  0  0  0  0  0  0  0  0
   -7.8406    1.2378    2.0709 H   0  0  0  0  0  0  0  0  0  0  0  0
   -7.1512   -0.0312    3.0945 H   0  0  0  0  0  0  0  0  0  0  0  0
    4.7077   -3.5050    0.5990 H   0  0  0  0  0  0  0  0  0  0  0  0
    1.3400    2.0576    0.6586 H   0  0  0  0  0  0  0  0  0  0  0  0
    2.1058    3.1385   -0.4997 H   0  0  0  0  0  0  0  0  0  0  0  0
    1.4709    1.6119   -1.0683 H   0  0  0  0  0  0  0  0  0  0  0  0
    3.9886    4.0989    0.8999 H   0  0  0  0  0  0  0  0  0  0  0  0
    5.6932    3.8708    0.5088 H   0  0  0  0  0  0  0  0  0  0  0  0
    4.5038    3.9774   -0.7936 H   0  0  0  0  0  0  0  0  0  0  0  0
  1 22  1  0  0  0  0
  1 23  1  0  0  0  0
  2 15  2  0  0  0  0
  3 13  1  0  0  0  0
  3 14  1  0  0  0  0
  3 15  1  0  0  0  0
  4 16  1  0  0  0  0
  4 17  1  0  0  0  0
  4 19  1  0  0  0  0
  5 19  1  0  0  0  0
  5 24  2  0  0  0  0
  6 22  2  0  0  0  0
  6 24  1  0  0  0  0
  7  8  1  0  0  0  0
  7  9  1  0  0  0  0
  7 15  1  0  0  0  0
  7 27  1  0  0  0  0
  8 16  1  0  0  0  0
  8 28  1  0  0  0  0
  8 29  1  0  0  0  0
  9 17  1  0  0  0  0
  9 30  1  0  0  0  0
  9 31  1  0  0  0  0
 10 11  1  0  0  0  0
 10 12  1  0  0  0  0
 10 18  1  0  0  0  0
 10 32  1  0  0  0  0
 11 13  1  0  0  0  0
 11 33  1  0  0  0  0
 11 34  1  0  0  0  0
 12 14  1  0  0  0  0
 12 35  1  0  0  0  0
 12 36  1  0  0  0  0
 13 37  1  0  0  0  0
 13 38  1  0  0  0  0
 14 39  1  0  0  0  0
 14 40  1  0  0  0  0
 16 41  1  0  0  0  0
 16 42  1  0  0  0  0
 17 43  1  0  0  0  0
 17 44  1  0  0  0  0
 18 45  1  0  0  0  0
 18 46  1  0  0  0  0
 18 47  1  0  0  0  0
 19 20  2  0  0  0  0
 20 21  1  0  0  0  0
 20 22  1  0  0  0  0
 21 23  2  0  0  0  0
 21 25  1  0  0  0  0
 23 26  1  0  0  0  0
 24 48  1  0  0  0  0
 25 49  1  0  0  0  0
 25 50  1  0  0  0  0
 25 51  1  0  0  0  0
 26 52  1  0  0  0  0
 26 53  1  0  0  0  0
 26 54  1  0  0  0  0
M  END
> <PUBCHEM_COMPOUND_CID>
17395462

> <PUBCHEM_CONFORMER_RMSD>
0.8

> <PUBCHEM_CONFORMER_DIVERSEORDER>
1
15
18
31
30
32
26
29
14
10
27
7
24
34
35
28
23
12
22
11
21
8
2
3
9
25
20
33
19
17
16
13
5
36
6
4

> <PUBCHEM_MMFF94_PARTIAL_CHARGES>
20
1 -0.08
13 0.3
14 0.3
15 0.57
16 0.37
17 0.37
19 0.41
2 -0.57
21 -0.18
22 0.3
23 -0.14
24 0.47
25 0.18
26 0.18
3 -0.66
4 -0.84
48 0.15
5 -0.62
6 -0.57
7 0.06

> <PUBCHEM_EFFECTIVE_ROTOR_COUNT>
5.4

> <PUBCHEM_PHARMACOPHORE_FEATURES>
8
1 2 acceptor
1 4 cation
1 6 acceptor
3 5 6 24 cation
5 1 20 21 22 23 rings
6 3 10 11 12 13 14 rings
6 4 7 8 9 16 17 rings
6 5 6 19 20 22 24 rings

> <PUBCHEM_HEAVY_ATOM_COUNT>
26

> <PUBCHEM_ATOM_DEF_STEREO_COUNT>
0

> <PUBCHEM_ATOM_UDEF_STEREO_COUNT>
0

> <PUBCHEM_BOND_DEF_STEREO_COUNT>
0

> <PUBCHEM_BOND_UDEF_STEREO_COUNT>
0

> <PUBCHEM_ISOTOPIC_ATOM_COUNT>
0

> <PUBCHEM_COMPONENT_COUNT>
1

> <PUBCHEM_CACTVS_TAUTO_COUNT>
1

> <PUBCHEM_CONFORMER_ID>
01096F0600000001

> <PUBCHEM_MMFF94_ENERGY>
67.5656

> <PUBCHEM_FEATURE_SELFOVERLAP>
40.675

> <PUBCHEM_SHAPE_FINGERPRINT>
10319926 262 17418088845789653573
10411042 1 18050292767838194538
10554248 39 17241331425159471053
10670039 82 15719657831962366849
10906281 52 17531234072518490795
11045977 3 18060421326485278711
11370993 144 18342737438329038395
12236239 1 17748831808321059254
12403259 415 17917719019087550630
12422481 6 18188206632179606221
12596602 18 18410849967804215227
12616971 3 18187654608443306998
12730499 353 18130787871835171538
12788726 201 17240473706767747704
13167372 99 18187926226507152481
13583140 156 18128832995531532207
13782708 43 17203056308446966346
13785724 45 17899971927012467270
14251764 75 18120088386556997144
14341114 176 18343582962279927951
14464042 87 17822008722370969944
15081414 286 18271812293949766060
15183329 4 17676209065591628797
15188451 53 15698000696244301625
15238133 3 16950003646883668339
15348495 7 18272647931297097923
15475509 35 16701473376427012498
1601671 61 16805322206182523129
1768 85 18341615854368826308
17844677 252 18411701027841503941
18785283 64 17630882707806108084
19958102 18 6627476202893718765
21033648 29 17560815337372830989
21033650 10 15213565780813516226
21267235 1 18338517560368468790
21315764 119 15792000169806385548
22033318 11 17825930796326766617
22122407 14 18113887244102477193
23081809 10 17676213472280477879
23559900 14 17632574984955074894
312425 54 18060129951925638027
3178227 256 18342741836834628698
3472631 163 15719403797874744466
392239 28 18131631167099032481
397830 11 18131064897156886475
4144715 1 18341603871810458131
4340502 62 18131633378801728146
5104073 3 18338807710350975394
8272917 22 18409171004832098038

> <PUBCHEM_SHAPE_MULTIPOLES>
513.12
16.92
2.52
1.57
15.14
1.03
0.16
5.57
-7.56
-5.15
-0.14
2.83
-0.01
-0.47

> <PUBCHEM_SHAPE_SELFOVERLAP>
1079.804

> <PUBCHEM_SHAPE_VOLUME>
290.8

> <PUBCHEM_COORDINATE_TYPE>
2
5
10

$$$$

