586053
  -OEChem-06241222453D

 31 32  0     1  0  0  0  0  0999 V2000
   -1.0881   -1.8355    0.0187 O   0  0  0  0  0  0  0  0  0  0  0  0
   -2.8463   -0.2027   -0.1065 O   0  0  0  0  0  0  0  0  0  0  0  0
   -2.0143    0.9245   -0.0312 N   0  0  0  0  0  0  0  0  0  0  0  0
    1.4550    0.4960   -0.6295 C   0  0  0  0  0  0  0  0  0  0  0  0
    1.1720   -0.8003    0.2031 C   0  0  1  0  0  0  0  0  0  0  0  0
    0.4487    1.3697    0.1801 C   0  0  2  0  0  0  0  0  0  0  0  0
    1.3913   -0.3212    1.6629 C   0  0  0  0  0  0  0  0  0  0  0  0
    0.8982    1.1547    1.6426 C   0  0  0  0  0  0  0  0  0  0  0  0
   -0.3451   -0.8843    0.0684 C   0  0  0  0  0  0  0  0  0  0  0  0
   -0.7959    0.5302    0.0532 C   0  0  0  0  0  0  0  0  0  0  0  0
    2.9110    1.0049   -0.5571 C   0  0  0  0  0  0  0  0  0  0  0  0
    1.1032    0.3866   -2.1261 C   0  0  0  0  0  0  0  0  0  0  0  0
    1.9023   -2.0636   -0.1790 C   0  0  0  0  0  0  0  0  0  0  0  0
   -4.1918    0.2409   -0.1996 C   0  0  0  0  0  0  0  0  0  0  0  0
    0.3237    2.4052   -0.1358 H   0  0  0  0  0  0  0  0  0  0  0  0
    2.4444   -0.3711    1.9596 H   0  0  0  0  0  0  0  0  0  0  0  0
    0.8134   -0.9118    2.3834 H   0  0  0  0  0  0  0  0  0  0  0  0
    0.0803    1.3029    2.3567 H   0  0  0  0  0  0  0  0  0  0  0  0
    1.7110    1.8351    1.9165 H   0  0  0  0  0  0  0  0  0  0  0  0
    3.3004    1.0974    0.4594 H   0  0  0  0  0  0  0  0  0  0  0  0
    3.5851    0.3279   -1.0940 H   0  0  0  0  0  0  0  0  0  0  0  0
    2.9922    1.9943   -1.0216 H   0  0  0  0  0  0  0  0  0  0  0  0
    1.1635    1.3705   -2.6055 H   0  0  0  0  0  0  0  0  0  0  0  0
    1.8044   -0.2787   -2.6425 H   0  0  0  0  0  0  0  0  0  0  0  0
    0.0988   -0.0013   -2.3202 H   0  0  0  0  0  0  0  0  0  0  0  0
    2.9868   -1.9372   -0.1028 H   0  0  0  0  0  0  0  0  0  0  0  0
    1.6147   -2.8930    0.4764 H   0  0  0  0  0  0  0  0  0  0  0  0
    1.6655   -2.3668   -1.2042 H   0  0  0  0  0  0  0  0  0  0  0  0
   -4.3317    0.8438   -1.1021 H   0  0  0  0  0  0  0  0  0  0  0  0
   -4.4630    0.8213    0.6877 H   0  0  0  0  0  0  0  0  0  0  0  0
   -4.8422   -0.6358   -0.2583 H   0  0  0  0  0  0  0  0  0  0  0  0
  1  9  2  0  0  0  0
  2  3  1  0  0  0  0
  2 14  1  0  0  0  0
  3 10  2  0  0  0  0
  4  5  1  0  0  0  0
  4  6  1  0  0  0  0
  4 11  1  0  0  0  0
  4 12  1  0  0  0  0
  5  7  1  0  0  0  0
  5  9  1  0  0  0  0
  5 13  1  0  0  0  0
  6  8  1  0  0  0  0
  6 10  1  0  0  0  0
  6 15  1  0  0  0  0
  7  8  1  0  0  0  0
  7 16  1  0  0  0  0
  7 17  1  0  0  0  0
  8 18  1  0  0  0  0
  8 19  1  0  0  0  0
  9 10  1  0  0  0  0
 11 20  1  0  0  0  0
 11 21  1  0  0  0  0
 11 22  1  0  0  0  0
 12 23  1  0  0  0  0
 12 24  1  0  0  0  0
 12 25  1  0  0  0  0
 13 26  1  0  0  0  0
 13 27  1  0  0  0  0
 13 28  1  0  0  0  0
 14 29  1  0  0  0  0
 14 30  1  0  0  0  0
 14 31  1  0  0  0  0
M  END
> <PUBCHEM_COMPOUND_CID>
586053

> <PUBCHEM_CONFORMER_RMSD>
0.6

> <PUBCHEM_CONFORMER_DIVERSEORDER>
1
2

> <PUBCHEM_MMFF94_PARTIAL_CHARGES>
8
1 -0.57
10 0.39
14 0.28
2 -0.22
3 -0.51
5 0.06
6 0.06
9 0.51

> <PUBCHEM_EFFECTIVE_ROTOR_COUNT>
1.6

> <PUBCHEM_PHARMACOPHORE_FEATURES>
4
1 1 acceptor
1 3 acceptor
3 4 11 12 hydrophobe
7 4 5 6 7 8 9 10 rings

> <PUBCHEM_HEAVY_ATOM_COUNT>
14

> <PUBCHEM_ATOM_DEF_STEREO_COUNT>
0

> <PUBCHEM_ATOM_UDEF_STEREO_COUNT>
2

> <PUBCHEM_BOND_DEF_STEREO_COUNT>
0

> <PUBCHEM_BOND_UDEF_STEREO_COUNT>
1

> <PUBCHEM_ISOTOPIC_ATOM_COUNT>
0

> <PUBCHEM_COMPONENT_COUNT>
1

> <PUBCHEM_CACTVS_TAUTO_COUNT>
1

> <PUBCHEM_CONFORMER_ID>
0008F14500000001

> <PUBCHEM_MMFF94_ENERGY>
60.6305

> <PUBCHEM_FEATURE_SELFOVERLAP>
20.299

> <PUBCHEM_SHAPE_FINGERPRINT>
12326174 3 16877665655979537498
12423570 1 16087015417342866088
12725867 57 18187372081046621232
12932764 1 17894357678916937285
13024252 1 13101928114992358548
14128692 85 18122616412606492486
14817 1 10837882567735377204
15219459 52 18271237334755639982
15775835 57 18410572873245512525
16945 1 18339344315106527012
21524375 3 16699468768333035700
22344851 262 17988635251600140372
23419403 2 17619111572737024194
23559900 14 18189042115784361332
2748010 2 18194977458921298925
5084963 1 18269276927298481467
528886 8 18342174419376331612
5337951 7 17676206840439399241
53812653 166 18260552169108589552
7364860 26 18409449206584591606

> <PUBCHEM_SHAPE_MULTIPOLES>
271.39
4.21
1.64
1.42
5.51
0.68
-0.08
-0.35
-0.68
-0.67
0.09
-0.89
-0.33
-0.1

> <PUBCHEM_SHAPE_SELFOVERLAP>
577.319

> <PUBCHEM_SHAPE_VOLUME>
157.6

> <PUBCHEM_COORDINATE_TYPE>
2
5
10

$$$$

