585936
  -OEChem-06241222452D

 36 37  0     1  0  0  0  0  0999 V2000
    5.4641   -1.0000    0.0000 O   0  0  0  0  0  0  0  0  0  0  0  0
    6.3301    0.5000    0.0000 N   0  0  0  0  0  0  0  0  0  0  0  0
    6.3301    2.5000    0.0000 N   0  0  0  0  0  0  0  0  0  0  0  0
    4.5981    0.5000    0.0000 C   0  0  0  0  0  0  0  0  0  0  0  0
    4.5981   -0.5000    0.0000 C   0  0  3  0  0  0  0  0  0  0  0  0
    5.4641    1.0000    0.0000 C   0  0  0  0  0  0  0  0  0  0  0  0
    3.7320   -1.0000    0.0000 C   0  0  0  0  0  0  0  0  0  0  0  0
    5.4641    2.0000    0.0000 C   0  0  0  0  0  0  0  0  0  0  0  0
    7.1962    1.0000    0.0000 C   0  0  0  0  0  0  0  0  0  0  0  0
    7.1962    2.0000    0.0000 C   0  0  0  0  0  0  0  0  0  0  0  0
    2.8660   -0.5000    0.0000 C   0  0  0  0  0  0  0  0  0  0  0  0
    3.7320   -2.0000    0.0000 C   0  0  0  0  0  0  0  0  0  0  0  0
    4.5981    2.5000    0.0000 C   0  0  0  0  0  0  0  0  0  0  0  0
    8.0622    0.5000    0.0000 C   0  0  0  0  0  0  0  0  0  0  0  0
    8.0622    2.5000    0.0000 C   0  0  0  0  0  0  0  0  0  0  0  0
    2.0000   -1.0000    0.0000 C   0  0  0  0  0  0  0  0  0  0  0  0
    2.8660   -2.5000    0.0000 C   0  0  0  0  0  0  0  0  0  0  0  0
    2.0000   -2.0000    0.0000 C   0  0  0  0  0  0  0  0  0  0  0  0
    4.3860    1.0826    0.0000 H   0  0  0  0  0  0  0  0  0  0  0  0
    3.9875    0.3923    0.0000 H   0  0  0  0  0  0  0  0  0  0  0  0
    4.5981   -1.3500    0.0000 H   0  0  0  0  0  0  0  0  0  0  0  0
    2.8660    0.1200    0.0000 H   0  0  0  0  0  0  0  0  0  0  0  0
    4.2690   -2.3100    0.0000 H   0  0  0  0  0  0  0  0  0  0  0  0
    4.9081    3.0369    0.0000 H   0  0  0  0  0  0  0  0  0  0  0  0
    4.0611    2.8100    0.0000 H   0  0  0  0  0  0  0  0  0  0  0  0
    4.2881    1.9631    0.0000 H   0  0  0  0  0  0  0  0  0  0  0  0
    5.4641   -1.6200    0.0000 H   0  0  0  0  0  0  0  0  0  0  0  0
    7.7522   -0.0369    0.0000 H   0  0  0  0  0  0  0  0  0  0  0  0
    8.5991    0.1900    0.0000 H   0  0  0  0  0  0  0  0  0  0  0  0
    8.3722    1.0369    0.0000 H   0  0  0  0  0  0  0  0  0  0  0  0
    8.3722    1.9631    0.0000 H   0  0  0  0  0  0  0  0  0  0  0  0
    8.5991    2.8100    0.0000 H   0  0  0  0  0  0  0  0  0  0  0  0
    7.7522    3.0369    0.0000 H   0  0  0  0  0  0  0  0  0  0  0  0
    1.4631   -0.6900    0.0000 H   0  0  0  0  0  0  0  0  0  0  0  0
    2.8660   -3.1200    0.0000 H   0  0  0  0  0  0  0  0  0  0  0  0
    1.4631   -2.3100    0.0000 H   0  0  0  0  0  0  0  0  0  0  0  0
  1  5  1  0  0  0  0
  1 27  1  0  0  0  0
  2  6  2  0  0  0  0
  2  9  1  0  0  0  0
  3  8  2  0  0  0  0
  3 10  1  0  0  0  0
  4  5  1  0  0  0  0
  4  6  1  0  0  0  0
  4 19  1  0  0  0  0
  4 20  1  0  0  0  0
  5  7  1  0  0  0  0
  5 21  1  0  0  0  0
  6  8  1  0  0  0  0
  7 11  2  0  0  0  0
  7 12  1  0  0  0  0
  8 13  1  0  0  0  0
  9 10  2  0  0  0  0
  9 14  1  0  0  0  0
 10 15  1  0  0  0  0
 11 16  1  0  0  0  0
 11 22  1  0  0  0  0
 12 17  2  0  0  0  0
 12 23  1  0  0  0  0
 13 24  1  0  0  0  0
 13 25  1  0  0  0  0
 13 26  1  0  0  0  0
 14 28  1  0  0  0  0
 14 29  1  0  0  0  0
 14 30  1  0  0  0  0
 15 31  1  0  0  0  0
 15 32  1  0  0  0  0
 15 33  1  0  0  0  0
 16 18  2  0  0  0  0
 16 34  1  0  0  0  0
 17 18  1  0  0  0  0
 17 35  1  0  0  0  0
 18 36  1  0  0  0  0
M  END
> <PUBCHEM_COMPOUND_CID>
585936

> <PUBCHEM_COMPOUND_CANONICALIZED>
1

> <PUBCHEM_CACTVS_COMPLEXITY>
253

> <PUBCHEM_CACTVS_HBOND_ACCEPTOR>
3

> <PUBCHEM_CACTVS_HBOND_DONOR>
1

> <PUBCHEM_CACTVS_ROTATABLE_BOND>
3

> <PUBCHEM_CACTVS_SUBSKEYS>
AAADceBzIAAAAAAAAAAAAAAAAAAAAAAAAAA8QAAAAAAAAAABwAAAHgAACAAADByhngIygJIIEgCgAyRiRAACgCQhECAImAAwWIgIdmLAkRCUcAAmwAHI2AewwOAOAAAAAAAAAAAAAAAAAAAAAAAAAAAAAA==

> <PUBCHEM_IUPAC_OPENEYE_NAME>
1-phenyl-2-(3,5,6-trimethylpyrazin-2-yl)ethanol

> <PUBCHEM_IUPAC_CAS_NAME>
1-phenyl-2-(3,5,6-trimethyl-2-pyrazinyl)ethanol

> <PUBCHEM_IUPAC_NAME>
1-phenyl-2-(3,5,6-trimethylpyrazin-2-yl)ethanol

> <PUBCHEM_IUPAC_SYSTEMATIC_NAME>
1-phenyl-2-(3,5,6-trimethylpyrazin-2-yl)ethanol

> <PUBCHEM_IUPAC_TRADITIONAL_NAME>
1-phenyl-2-(3,5,6-trimethylpyrazin-2-yl)ethanol

> <PUBCHEM_IUPAC_INCHI>
InChI=1S/C15H18N2O/c1-10-11(2)17-14(12(3)16-10)9-15(18)13-7-5-4-6-8-13/h4-8,15,18H,9H2,1-3H3

> <PUBCHEM_IUPAC_INCHIKEY>
LOVSABZZXLEOGD-UHFFFAOYSA-N

> <PUBCHEM_XLOGP3_AA>
2.1

> <PUBCHEM_EXACT_MASS>
242.141913

> <PUBCHEM_MOLECULAR_FORMULA>
C15H18N2O

> <PUBCHEM_MOLECULAR_WEIGHT>
242.31622

> <PUBCHEM_OPENEYE_CAN_SMILES>
CC1=C(N=C(C(=N1)C)CC(C2=CC=CC=C2)O)C

> <PUBCHEM_OPENEYE_ISO_SMILES>
CC1=C(N=C(C(=N1)C)CC(C2=CC=CC=C2)O)C

> <PUBCHEM_CACTVS_TPSA>
46

> <PUBCHEM_MONOISOTOPIC_WEIGHT>
242.141913

> <PUBCHEM_TOTAL_CHARGE>
0

> <PUBCHEM_HEAVY_ATOM_COUNT>
18

> <PUBCHEM_ATOM_DEF_STEREO_COUNT>
0

> <PUBCHEM_ATOM_UDEF_STEREO_COUNT>
1

> <PUBCHEM_BOND_DEF_STEREO_COUNT>
0

> <PUBCHEM_BOND_UDEF_STEREO_COUNT>
0

> <PUBCHEM_ISOTOPIC_ATOM_COUNT>
0

> <PUBCHEM_COMPONENT_COUNT>
1

> <PUBCHEM_CACTVS_TAUTO_COUNT>
2

> <PUBCHEM_COORDINATE_TYPE>
1
5
255

> <PUBCHEM_BONDANNOTATIONS>
11  16  8
12  17  8
16  18  8
17  18  8
2  6  8
2  9  8
3  10  8
3  8  8
5  21  3
6  8  8
7  11  8
7  12  8
9  10  8

$$$$

