6903
  -OEChem-06261201342D

 74 73  0     0  0  0  0  0  0999 V2000
    7.8982    4.0000    0.0000 Cl  0  0  0  0  0  0  0  0  0  0  0  0
    6.1661    3.0000    0.0000 Cl  0  0  0  0  0  0  0  0  0  0  0  0
    9.6302    3.0000    0.0000 Cl  0  0  0  0  0  0  0  0  0  0  0  0
    9.6302    1.0000    0.0000 Cl  0  0  0  0  0  0  0  0  0  0  0  0
    6.1661    1.0000    0.0000 Cl  0  0  0  0  0  0  0  0  0  0  0  0
    7.8982    0.0000    0.0000 O   0  5  0  0  0  0  0  0  0  0  0  0
    1.4030    7.4030    0.0000 N   0  3  0  0  0  0  0  0  0  0  0  0
    2.2690    7.9030    0.0000 C   0  0  0  0  0  0  0  0  0  0  0  0
    3.1350    7.4030    0.0000 C   0  0  0  0  0  0  0  0  0  0  0  0
    4.0010    7.9030    0.0000 C   0  0  0  0  0  0  0  0  0  0  0  0
    4.8671    7.4030    0.0000 C   0  0  0  0  0  0  0  0  0  0  0  0
    5.7331    7.9030    0.0000 C   0  0  0  0  0  0  0  0  0  0  0  0
    6.5991    7.4030    0.0000 C   0  0  0  0  0  0  0  0  0  0  0  0
    7.4651    7.9030    0.0000 C   0  0  0  0  0  0  0  0  0  0  0  0
    0.5369    6.9030    0.0000 C   0  0  0  0  0  0  0  0  0  0  0  0
    0.9030    8.2690    0.0000 C   0  0  0  0  0  0  0  0  0  0  0  0
    1.9030    6.5369    0.0000 C   0  0  0  0  0  0  0  0  0  0  0  0
    8.3312    7.4030    0.0000 C   0  0  0  0  0  0  0  0  0  0  0  0
    9.1972    7.9030    0.0000 C   0  0  0  0  0  0  0  0  0  0  0  0
   10.0632    7.4030    0.0000 C   0  0  0  0  0  0  0  0  0  0  0  0
   10.9292    7.9030    0.0000 C   0  0  0  0  0  0  0  0  0  0  0  0
   11.7953    7.4030    0.0000 C   0  0  0  0  0  0  0  0  0  0  0  0
   12.6613    7.9030    0.0000 C   0  0  0  0  0  0  0  0  0  0  0  0
   13.5273    7.4030    0.0000 C   0  0  0  0  0  0  0  0  0  0  0  0
   14.3933    7.9030    0.0000 C   0  0  0  0  0  0  0  0  0  0  0  0
   15.2594    7.4030    0.0000 C   0  0  0  0  0  0  0  0  0  0  0  0
    7.8982    3.0000    0.0000 C   0  0  0  0  0  0  0  0  0  0  0  0
    7.0321    2.5000    0.0000 C   0  0  0  0  0  0  0  0  0  0  0  0
    8.7642    2.5000    0.0000 C   0  0  0  0  0  0  0  0  0  0  0  0
    8.7642    1.5000    0.0000 C   0  0  0  0  0  0  0  0  0  0  0  0
    7.0321    1.5000    0.0000 C   0  0  0  0  0  0  0  0  0  0  0  0
    7.8982    1.0000    0.0000 C   0  0  0  0  0  0  0  0  0  0  0  0
    2.6675    8.3779    0.0000 H   0  0  0  0  0  0  0  0  0  0  0  0
    1.8705    8.3779    0.0000 H   0  0  0  0  0  0  0  0  0  0  0  0
    2.7365    6.9280    0.0000 H   0  0  0  0  0  0  0  0  0  0  0  0
    3.5335    6.9280    0.0000 H   0  0  0  0  0  0  0  0  0  0  0  0
    4.3996    8.3779    0.0000 H   0  0  0  0  0  0  0  0  0  0  0  0
    3.6025    8.3779    0.0000 H   0  0  0  0  0  0  0  0  0  0  0  0
    4.4685    6.9280    0.0000 H   0  0  0  0  0  0  0  0  0  0  0  0
    5.2656    6.9280    0.0000 H   0  0  0  0  0  0  0  0  0  0  0  0
    6.1316    8.3779    0.0000 H   0  0  0  0  0  0  0  0  0  0  0  0
    5.3346    8.3779    0.0000 H   0  0  0  0  0  0  0  0  0  0  0  0
    6.2006    6.9280    0.0000 H   0  0  0  0  0  0  0  0  0  0  0  0
    6.9976    6.9280    0.0000 H   0  0  0  0  0  0  0  0  0  0  0  0
    7.8637    8.3779    0.0000 H   0  0  0  0  0  0  0  0  0  0  0  0
    7.0666    8.3779    0.0000 H   0  0  0  0  0  0  0  0  0  0  0  0
    1.3660    6.2269    0.0000 H   0  0  0  0  0  0  0  0  0  0  0  0
    2.2130    6.0000    0.0000 H   0  0  0  0  0  0  0  0  0  0  0  0
    2.4399    6.8469    0.0000 H   0  0  0  0  0  0  0  0  0  0  0  0
    1.4399    8.5790    0.0000 H   0  0  0  0  0  0  0  0  0  0  0  0
    0.5930    8.8059    0.0000 H   0  0  0  0  0  0  0  0  0  0  0  0
    0.3660    7.9590    0.0000 H   0  0  0  0  0  0  0  0  0  0  0  0
    0.2269    7.4399    0.0000 H   0  0  0  0  0  0  0  0  0  0  0  0
    0.0000    6.5930    0.0000 H   0  0  0  0  0  0  0  0  0  0  0  0
    0.8469    6.3660    0.0000 H   0  0  0  0  0  0  0  0  0  0  0  0
    7.9326    6.9280    0.0000 H   0  0  0  0  0  0  0  0  0  0  0  0
    8.7297    6.9280    0.0000 H   0  0  0  0  0  0  0  0  0  0  0  0
    9.5957    8.3779    0.0000 H   0  0  0  0  0  0  0  0  0  0  0  0
    8.7987    8.3779    0.0000 H   0  0  0  0  0  0  0  0  0  0  0  0
    9.6647    6.9280    0.0000 H   0  0  0  0  0  0  0  0  0  0  0  0
   10.4617    6.9280    0.0000 H   0  0  0  0  0  0  0  0  0  0  0  0
   11.3278    8.3779    0.0000 H   0  0  0  0  0  0  0  0  0  0  0  0
   10.5307    8.3779    0.0000 H   0  0  0  0  0  0  0  0  0  0  0  0
   11.3967    6.9280    0.0000 H   0  0  0  0  0  0  0  0  0  0  0  0
   12.1938    6.9280    0.0000 H   0  0  0  0  0  0  0  0  0  0  0  0
   13.0598    8.3779    0.0000 H   0  0  0  0  0  0  0  0  0  0  0  0
   12.2628    8.3779    0.0000 H   0  0  0  0  0  0  0  0  0  0  0  0
   13.1288    6.9280    0.0000 H   0  0  0  0  0  0  0  0  0  0  0  0
   13.9258    6.9280    0.0000 H   0  0  0  0  0  0  0  0  0  0  0  0
   14.7919    8.3779    0.0000 H   0  0  0  0  0  0  0  0  0  0  0  0
   13.9948    8.3779    0.0000 H   0  0  0  0  0  0  0  0  0  0  0  0
   14.9494    6.8660    0.0000 H   0  0  0  0  0  0  0  0  0  0  0  0
   15.7963    7.0930    0.0000 H   0  0  0  0  0  0  0  0  0  0  0  0
   15.5694    7.9399    0.0000 H   0  0  0  0  0  0  0  0  0  0  0  0
  1 27  1  0  0  0  0
  2 28  1  0  0  0  0
  3 29  1  0  0  0  0
  4 30  1  0  0  0  0
  5 31  1  0  0  0  0
  6 32  1  0  0  0  0
  7  8  1  0  0  0  0
  7 15  1  0  0  0  0
  7 16  1  0  0  0  0
  7 17  1  0  0  0  0
  8  9  1  0  0  0  0
  8 33  1  0  0  0  0
  8 34  1  0  0  0  0
  9 10  1  0  0  0  0
  9 35  1  0  0  0  0
  9 36  1  0  0  0  0
 10 11  1  0  0  0  0
 10 37  1  0  0  0  0
 10 38  1  0  0  0  0
 11 12  1  0  0  0  0
 11 39  1  0  0  0  0
 11 40  1  0  0  0  0
 12 13  1  0  0  0  0
 12 41  1  0  0  0  0
 12 42  1  0  0  0  0
 13 14  1  0  0  0  0
 13 43  1  0  0  0  0
 13 44  1  0  0  0  0
 14 18  1  0  0  0  0
 14 45  1  0  0  0  0
 14 46  1  0  0  0  0
 15 53  1  0  0  0  0
 15 54  1  0  0  0  0
 15 55  1  0  0  0  0
 16 50  1  0  0  0  0
 16 51  1  0  0  0  0
 16 52  1  0  0  0  0
 17 47  1  0  0  0  0
 17 48  1  0  0  0  0
 17 49  1  0  0  0  0
 18 19  1  0  0  0  0
 18 56  1  0  0  0  0
 18 57  1  0  0  0  0
 19 20  1  0  0  0  0
 19 58  1  0  0  0  0
 19 59  1  0  0  0  0
 20 21  1  0  0  0  0
 20 60  1  0  0  0  0
 20 61  1  0  0  0  0
 21 22  1  0  0  0  0
 21 62  1  0  0  0  0
 21 63  1  0  0  0  0
 22 23  1  0  0  0  0
 22 64  1  0  0  0  0
 22 65  1  0  0  0  0
 23 24  1  0  0  0  0
 23 66  1  0  0  0  0
 23 67  1  0  0  0  0
 24 25  1  0  0  0  0
 24 68  1  0  0  0  0
 24 69  1  0  0  0  0
 25 26  1  0  0  0  0
 25 70  1  0  0  0  0
 25 71  1  0  0  0  0
 26 72  1  0  0  0  0
 26 73  1  0  0  0  0
 26 74  1  0  0  0  0
 27 28  2  0  0  0  0
 27 29  1  0  0  0  0
 28 31  1  0  0  0  0
 29 30  2  0  0  0  0
 30 32  1  0  0  0  0
 31 32  2  0  0  0  0
M  CHG  2   6  -1   7   1
M  END
> <PUBCHEM_COMPOUND_CID>
6903

> <PUBCHEM_COMPOUND_CANONICALIZED>
1

> <PUBCHEM_CACTVS_COMPLEXITY>
331

> <PUBCHEM_CACTVS_HBOND_ACCEPTOR>
1

> <PUBCHEM_CACTVS_HBOND_DONOR>
0

> <PUBCHEM_CACTVS_ROTATABLE_BOND>
15

> <PUBCHEM_CACTVS_SUBSKEYS>
AAADcfB6IAAHAAAAAAAAAAAAAAAAAAAAAAAwAAAAAAAAAAABAAAAHgIAAAAACAbBkCQCBoMAAACAAABAAAACAAAgJEAAikAMC4gIJiKBkhKEMAAkwBEIiAeQwIAAACAQAQCACAQAQCACAQAQCAAAAAAAAA==

> <PUBCHEM_IUPAC_OPENEYE_NAME>
hexadecyl(trimethyl)ammonium; 2,3,4,5,6-pentachlorophenolate

> <PUBCHEM_IUPAC_CAS_NAME>
hexadecyl(trimethyl)ammonium; 2,3,4,5,6-pentachlorophenolate

> <PUBCHEM_IUPAC_NAME>
hexadecyl(trimethyl)azanium; 2,3,4,5,6-pentachlorophenolate

> <PUBCHEM_IUPAC_SYSTEMATIC_NAME>
hexadecyl(trimethyl)azanium; 2,3,4,5,6-pentakis(chloranyl)phenolate

> <PUBCHEM_IUPAC_TRADITIONAL_NAME>
cetyl(trimethyl)ammonium; 2,3,4,5,6-pentachlorophenolate

> <PUBCHEM_IUPAC_INCHI>
InChI=1S/C19H42N.C6HCl5O/c1-5-6-7-8-9-10-11-12-13-14-15-16-17-18-19-20(2,3)4;7-1-2(8)4(10)6(12)5(11)3(1)9/h5-19H2,1-4H3;12H/q+1;/p-1

> <PUBCHEM_IUPAC_INCHIKEY>
FDODMJVLXHAZON-UHFFFAOYSA-M

> <PUBCHEM_EXACT_MASS>
549.167953

> <PUBCHEM_MOLECULAR_FORMULA>
C25H42Cl5NO

> <PUBCHEM_MOLECULAR_WEIGHT>
549.87208

> <PUBCHEM_OPENEYE_CAN_SMILES>
CCCCCCCCCCCCCCCC[N+](C)(C)C.C1(=C(C(=C(C(=C1Cl)Cl)Cl)Cl)Cl)[O-]

> <PUBCHEM_OPENEYE_ISO_SMILES>
CCCCCCCCCCCCCCCC[N+](C)(C)C.C1(=C(C(=C(C(=C1Cl)Cl)Cl)Cl)Cl)[O-]

> <PUBCHEM_CACTVS_TPSA>
23.1

> <PUBCHEM_MONOISOTOPIC_WEIGHT>
547.170903

> <PUBCHEM_TOTAL_CHARGE>
0

> <PUBCHEM_HEAVY_ATOM_COUNT>
32

> <PUBCHEM_ATOM_DEF_STEREO_COUNT>
0

> <PUBCHEM_ATOM_UDEF_STEREO_COUNT>
0

> <PUBCHEM_BOND_DEF_STEREO_COUNT>
0

> <PUBCHEM_BOND_UDEF_STEREO_COUNT>
0

> <PUBCHEM_ISOTOPIC_ATOM_COUNT>
0

> <PUBCHEM_COMPONENT_COUNT>
2

> <PUBCHEM_CACTVS_TAUTO_COUNT>
1

> <PUBCHEM_COORDINATE_TYPE>
1
5
255

> <PUBCHEM_BONDANNOTATIONS>
27  28  8
27  29  8
28  31  8
29  30  8
30  32  8
31  32  8

$$$$

