4046
  -OEChem-06251223503D

 42 44  0     1  0  0  0  0  0999 V2000
   -0.0541    3.9101    0.3361 F   0  0  0  0  0  0  0  0  0  0  0  0
    2.0185    3.5624    0.8721 F   0  0  0  0  0  0  0  0  0  0  0  0
    1.3961    3.4129   -1.2061 F   0  0  0  0  0  0  0  0  0  0  0  0
    4.7880   -1.9670   -0.7526 F   0  0  0  0  0  0  0  0  0  0  0  0
    3.8730   -0.2518   -1.7142 F   0  0  0  0  0  0  0  0  0  0  0  0
    4.4743   -0.1325    0.3721 F   0  0  0  0  0  0  0  0  0  0  0  0
   -2.6806    0.4453    2.0924 O   0  0  0  0  0  0  0  0  0  0  0  0
   -4.3651   -1.2131    0.5253 N   0  0  0  0  0  0  0  0  0  0  0  0
    1.7458    0.7981   -0.0101 N   0  0  0  0  0  0  0  0  0  0  0  0
   -3.0599   -0.7530    0.0346 C   0  0  1  0  0  0  0  0  0  0  0  0
   -3.2082    0.5442   -0.7724 C   0  0  0  0  0  0  0  0  0  0  0  0
   -2.1260   -0.5397    1.2245 C   0  0  1  0  0  0  0  0  0  0  0  0
   -4.2016    0.3722   -1.9183 C   0  0  0  0  0  0  0  0  0  0  0  0
   -5.5227   -0.1879   -1.4022 C   0  0  0  0  0  0  0  0  0  0  0  0
   -5.3017   -1.4508   -0.5733 C   0  0  0  0  0  0  0  0  0  0  0  0
   -0.7485   -0.1035    0.7889 C   0  0  0  0  0  0  0  0  0  0  0  0
    0.2690   -1.0248    0.5408 C   0  0  0  0  0  0  0  0  0  0  0  0
   -0.5335    1.2534    0.6426 C   0  0  0  0  0  0  0  0  0  0  0  0
    1.5232   -0.5218    0.1359 C   0  0  0  0  0  0  0  0  0  0  0  0
    0.7264    1.6505    0.2429 C   0  0  0  0  0  0  0  0  0  0  0  0
    0.0717   -2.4088    0.6827 C   0  0  0  0  0  0  0  0  0  0  0  0
    2.5448   -1.4340   -0.1144 C   0  0  0  0  0  0  0  0  0  0  0  0
    1.1109   -3.2984    0.4257 C   0  0  0  0  0  0  0  0  0  0  0  0
    2.3489   -2.8100    0.0267 C   0  0  0  0  0  0  0  0  0  0  0  0
    1.0150    3.1041    0.0673 C   0  0  0  0  0  0  0  0  0  0  0  0
    3.8963   -0.9561   -0.5469 C   0  0  0  0  0  0  0  0  0  0  0  0
   -2.6362   -1.5308   -0.6149 H   0  0  0  0  0  0  0  0  0  0  0  0
   -2.2610    0.8418   -1.2318 H   0  0  0  0  0  0  0  0  0  0  0  0
   -3.5480    1.3716   -0.1369 H   0  0  0  0  0  0  0  0  0  0  0  0
   -2.0659   -1.4405    1.8428 H   0  0  0  0  0  0  0  0  0  0  0  0
   -3.7827   -0.3118   -2.6668 H   0  0  0  0  0  0  0  0  0  0  0  0
   -4.3702    1.3323   -2.4184 H   0  0  0  0  0  0  0  0  0  0  0  0
   -6.0268    0.5711   -0.7905 H   0  0  0  0  0  0  0  0  0  0  0  0
   -6.1853   -0.4096   -2.2463 H   0  0  0  0  0  0  0  0  0  0  0  0
   -4.7639   -0.5039    1.1402 H   0  0  0  0  0  0  0  0  0  0  0  0
   -6.2579   -1.7872   -0.1581 H   0  0  0  0  0  0  0  0  0  0  0  0
   -4.9318   -2.2648   -1.2084 H   0  0  0  0  0  0  0  0  0  0  0  0
   -1.3065    1.9896    0.8309 H   0  0  0  0  0  0  0  0  0  0  0  0
   -3.4527    0.0530    2.5336 H   0  0  0  0  0  0  0  0  0  0  0  0
   -0.8794   -2.8432    0.9727 H   0  0  0  0  0  0  0  0  0  0  0  0
    0.9537   -4.3674    0.5320 H   0  0  0  0  0  0  0  0  0  0  0  0
    3.1494   -3.5173   -0.1711 H   0  0  0  0  0  0  0  0  0  0  0  0
  1 25  1  0  0  0  0
  2 25  1  0  0  0  0
  3 25  1  0  0  0  0
  4 26  1  0  0  0  0
  5 26  1  0  0  0  0
  6 26  1  0  0  0  0
  7 12  1  0  0  0  0
  7 39  1  0  0  0  0
  8 10  1  0  0  0  0
  8 15  1  0  0  0  0
  8 35  1  0  0  0  0
  9 19  1  0  0  0  0
  9 20  2  0  0  0  0
 10 11  1  0  0  0  0
 10 12  1  0  0  0  0
 10 27  1  0  0  0  0
 11 13  1  0  0  0  0
 11 28  1  0  0  0  0
 11 29  1  0  0  0  0
 12 16  1  0  0  0  0
 12 30  1  0  0  0  0
 13 14  1  0  0  0  0
 13 31  1  0  0  0  0
 13 32  1  0  0  0  0
 14 15  1  0  0  0  0
 14 33  1  0  0  0  0
 14 34  1  0  0  0  0
 15 36  1  0  0  0  0
 15 37  1  0  0  0  0
 16 17  1  0  0  0  0
 16 18  2  0  0  0  0
 17 19  2  0  0  0  0
 17 21  1  0  0  0  0
 18 20  1  0  0  0  0
 18 38  1  0  0  0  0
 19 22  1  0  0  0  0
 20 25  1  0  0  0  0
 21 23  2  0  0  0  0
 21 40  1  0  0  0  0
 22 24  2  0  0  0  0
 22 26  1  0  0  0  0
 23 24  1  0  0  0  0
 23 41  1  0  0  0  0
 24 42  1  0  0  0  0
M  END
> <PUBCHEM_COMPOUND_CID>
4046

> <PUBCHEM_CONFORMER_RMSD>
0.8

> <PUBCHEM_CONFORMER_DIVERSEORDER>
2
7
8
10
11
5
4
6
9
3
1

> <PUBCHEM_MMFF94_PARTIAL_CHARGES>
28
1 -0.34
10 0.27
12 0.42
15 0.27
16 -0.14
18 -0.15
19 0.31
2 -0.34
20 0.17
21 -0.15
22 -0.14
23 -0.15
24 -0.15
25 1.16
26 1.16
3 -0.34
35 0.36
38 0.15
39 0.4
4 -0.34
40 0.15
41 0.15
42 0.15
5 -0.34
6 -0.34
7 -0.68
8 -0.9
9 -0.62

> <PUBCHEM_EFFECTIVE_ROTOR_COUNT>
5.2

> <PUBCHEM_PHARMACOPHORE_FEATURES>
8
1 7 acceptor
1 7 donor
1 8 cation
1 8 donor
1 9 acceptor
6 17 19 21 22 23 24 rings
6 8 10 11 13 14 15 rings
6 9 16 17 18 19 20 rings

> <PUBCHEM_HEAVY_ATOM_COUNT>
26

> <PUBCHEM_ATOM_DEF_STEREO_COUNT>
0

> <PUBCHEM_ATOM_UDEF_STEREO_COUNT>
2

> <PUBCHEM_BOND_DEF_STEREO_COUNT>
0

> <PUBCHEM_BOND_UDEF_STEREO_COUNT>
0

> <PUBCHEM_ISOTOPIC_ATOM_COUNT>
0

> <PUBCHEM_COMPONENT_COUNT>
1

> <PUBCHEM_CACTVS_TAUTO_COUNT>
1

> <PUBCHEM_CONFORMER_ID>
00000FCE00000002

> <PUBCHEM_MMFF94_ENERGY>
49.7742

> <PUBCHEM_FEATURE_SELFOVERLAP>
40.629

> <PUBCHEM_SHAPE_FINGERPRINT>
10165383 225 17477452362920278945
10693767 8 18187653525985682286
10930396 42 18125754269491677824
11045515 52 18269836570143091149
11115154 58 17895774992840662253
12035758 1 18268162971933280872
12236239 1 17675923209990739651
12553582 1 18339069505607986210
12730499 353 18271244899073880019
12788726 201 17764315332974317385
13140716 1 18194949747961188786
13149001 5 18267291050248239190
13911987 19 18271790320875558542
13944108 23 16400595562951025117
14537116 161 17404634238213383037
14790565 3 18123151759227810224
15210252 30 17917147320397076164
17357779 13 18339367456079263500
17492 54 18269823264629670974
1813 80 17967805080815399973
200 152 18114184150981090547
20645477 70 18340211769888521211
20771845 165 18056201267451177588
221357 26 18341623646177434381
221490 88 18268146457773860995
22182313 1 17984414132035378267
22393880 68 18271818886861481191
23402539 116 18262510524288746602
23559900 14 18337966597367720243
23566358 2 17975126539756110615
238 59 18342743966531531335
24771293 8 18187650167959033992
266924 87 18125155189645847886
2748010 2 17981027627436649738
283562 15 18267017444205106794
3060560 45 18410865330032002150
350125 39 17908686346461262050
46194498 28 18130511829970588919
532947 4 18337112242098958832
6287921 2 17985269569546234221
6443956 14 18410577275102194321
6669772 16 18119812404689853980
7164475 11 17978795941102861670
7471813 234 17967535662123482585
81228 2 17910392024040354120

> <PUBCHEM_SHAPE_MULTIPOLES>
475.59
9.07
3.86
1.34
7.04
3.23
0.12
-4.2
4.43
-3.4
-0.37
0.94
0.18
0.41

> <PUBCHEM_SHAPE_SELFOVERLAP>
1038.265

> <PUBCHEM_SHAPE_VOLUME>
259.4

> <PUBCHEM_COORDINATE_TYPE>
2
5
10

$$$$

