10646
  -OEChem-06261204473D

 41 44  0     0  0  0  0  0  0999 V2000
    3.5525   -0.4296   -0.3573 S   0  0  0  0  0  0  0  0  0  0  0  0
   -3.1856    0.6346   -0.0256 N   0  0  0  0  0  0  0  0  0  0  0  0
    0.4791    0.0371   -0.3850 N   0  0  0  0  0  0  0  0  0  0  0  0
   -4.0865    0.8390    1.1083 C   0  0  0  0  0  0  0  0  0  0  0  0
   -3.7448   -0.5036   -0.7544 C   0  0  0  0  0  0  0  0  0  0  0  0
   -5.4634    0.6667    0.4842 C   0  0  0  0  0  0  0  0  0  0  0  0
   -5.2394   -0.2186   -0.7379 C   0  0  0  0  0  0  0  0  0  0  0  0
   -1.8103    0.4056    0.3918 C   0  0  0  0  0  0  0  0  0  0  0  0
   -0.9078    0.2392   -0.8240 C   0  0  0  0  0  0  0  0  0  0  0  0
    0.8966   -1.2943   -0.1331 C   0  0  0  0  0  0  0  0  0  0  0  0
    1.2747    1.1931   -0.1825 C   0  0  0  0  0  0  0  0  0  0  0  0
    2.2644   -1.6272   -0.0725 C   0  0  0  0  0  0  0  0  0  0  0  0
    2.6800    1.1065   -0.1264 C   0  0  0  0  0  0  0  0  0  0  0  0
   -0.0273   -2.3359    0.1030 C   0  0  0  0  0  0  0  0  0  0  0  0
    0.7034    2.4705    0.0072 C   0  0  0  0  0  0  0  0  0  0  0  0
    2.6731   -2.9479    0.1848 C   0  0  0  0  0  0  0  0  0  0  0  0
    3.4642    2.2551    0.0824 C   0  0  0  0  0  0  0  0  0  0  0  0
    0.3845   -3.6458    0.3633 C   0  0  0  0  0  0  0  0  0  0  0  0
    1.4873    3.6079    0.2193 C   0  0  0  0  0  0  0  0  0  0  0  0
    1.7361   -3.9528    0.4009 C   0  0  0  0  0  0  0  0  0  0  0  0
    2.8692    3.5006    0.2538 C   0  0  0  0  0  0  0  0  0  0  0  0
   -3.9688    1.8306    1.5564 H   0  0  0  0  0  0  0  0  0  0  0  0
   -3.9375    0.0822    1.8892 H   0  0  0  0  0  0  0  0  0  0  0  0
   -3.5455   -1.4553   -0.2455 H   0  0  0  0  0  0  0  0  0  0  0  0
   -3.3874   -0.5721   -1.7862 H   0  0  0  0  0  0  0  0  0  0  0  0
   -5.8727    1.6343    0.1708 H   0  0  0  0  0  0  0  0  0  0  0  0
   -6.1700    0.2154    1.1881 H   0  0  0  0  0  0  0  0  0  0  0  0
   -5.8234   -1.1428   -0.6811 H   0  0  0  0  0  0  0  0  0  0  0  0
   -5.5451    0.3172   -1.6443 H   0  0  0  0  0  0  0  0  0  0  0  0
   -1.7541   -0.4556    1.0664 H   0  0  0  0  0  0  0  0  0  0  0  0
   -1.4923    1.2518    1.0080 H   0  0  0  0  0  0  0  0  0  0  0  0
   -0.9865    1.1083   -1.4918 H   0  0  0  0  0  0  0  0  0  0  0  0
   -1.2147   -0.5965   -1.4645 H   0  0  0  0  0  0  0  0  0  0  0  0
   -1.1001   -2.1816    0.0718 H   0  0  0  0  0  0  0  0  0  0  0  0
   -0.3665    2.6434   -0.0302 H   0  0  0  0  0  0  0  0  0  0  0  0
    3.7292   -3.2082    0.2196 H   0  0  0  0  0  0  0  0  0  0  0  0
    4.5500    2.1908    0.1137 H   0  0  0  0  0  0  0  0  0  0  0  0
   -0.3552   -4.4233    0.5310 H   0  0  0  0  0  0  0  0  0  0  0  0
    1.0132    4.5762    0.3509 H   0  0  0  0  0  0  0  0  0  0  0  0
    2.0613   -4.9694    0.5994 H   0  0  0  0  0  0  0  0  0  0  0  0
    3.4829    4.3817    0.4148 H   0  0  0  0  0  0  0  0  0  0  0  0
  1 12  1  0  0  0  0
  1 13  1  0  0  0  0
  2  4  1  0  0  0  0
  2  5  1  0  0  0  0
  2  8  1  0  0  0  0
  3  9  1  0  0  0  0
  3 10  1  0  0  0  0
  3 11  1  0  0  0  0
  4  6  1  0  0  0  0
  4 22  1  0  0  0  0
  4 23  1  0  0  0  0
  5  7  1  0  0  0  0
  5 24  1  0  0  0  0
  5 25  1  0  0  0  0
  6  7  1  0  0  0  0
  6 26  1  0  0  0  0
  6 27  1  0  0  0  0
  7 28  1  0  0  0  0
  7 29  1  0  0  0  0
  8  9  1  0  0  0  0
  8 30  1  0  0  0  0
  8 31  1  0  0  0  0
  9 32  1  0  0  0  0
  9 33  1  0  0  0  0
 10 12  1  0  0  0  0
 10 14  2  0  0  0  0
 11 13  1  0  0  0  0
 11 15  2  0  0  0  0
 12 16  2  0  0  0  0
 13 17  2  0  0  0  0
 14 18  1  0  0  0  0
 14 34  1  0  0  0  0
 15 19  1  0  0  0  0
 15 35  1  0  0  0  0
 16 20  1  0  0  0  0
 16 36  1  0  0  0  0
 17 21  1  0  0  0  0
 17 37  1  0  0  0  0
 18 20  2  0  0  0  0
 18 38  1  0  0  0  0
 19 21  2  0  0  0  0
 19 39  1  0  0  0  0
 20 40  1  0  0  0  0
 21 41  1  0  0  0  0
M  END
> <PUBCHEM_COMPOUND_CID>
10646

> <PUBCHEM_CONFORMER_RMSD>
0.6

> <PUBCHEM_CONFORMER_DIVERSEORDER>
1
9
7
4
6
2
8
3
5

> <PUBCHEM_MMFF94_PARTIAL_CHARGES>
27
1 -0.2
10 0.1
11 0.1
12 0.1
13 0.1
14 -0.15
15 -0.15
16 -0.15
17 -0.15
18 -0.15
19 -0.15
2 -0.81
20 -0.15
21 -0.15
3 -0.57
34 0.15
35 0.15
36 0.15
37 0.15
38 0.15
39 0.15
4 0.27
40 0.15
41 0.15
5 0.27
8 0.27
9 0.37

> <PUBCHEM_EFFECTIVE_ROTOR_COUNT>
4.4

> <PUBCHEM_PHARMACOPHORE_FEATURES>
6
1 2 cation
1 3 cation
5 2 4 5 6 7 rings
6 1 3 10 11 12 13 rings
6 10 12 14 16 18 20 rings
6 11 13 15 17 19 21 rings

> <PUBCHEM_HEAVY_ATOM_COUNT>
21

> <PUBCHEM_ATOM_DEF_STEREO_COUNT>
0

> <PUBCHEM_ATOM_UDEF_STEREO_COUNT>
0

> <PUBCHEM_BOND_DEF_STEREO_COUNT>
0

> <PUBCHEM_BOND_UDEF_STEREO_COUNT>
0

> <PUBCHEM_ISOTOPIC_ATOM_COUNT>
0

> <PUBCHEM_COMPONENT_COUNT>
1

> <PUBCHEM_CACTVS_TAUTO_COUNT>
1

> <PUBCHEM_CONFORMER_ID>
0000299600000001

> <PUBCHEM_MMFF94_ENERGY>
67.9431

> <PUBCHEM_FEATURE_SELFOVERLAP>
30.477

> <PUBCHEM_SHAPE_FINGERPRINT>
10165383 225 18200583710198719460
10411042 1 17978511158764255014
10693767 8 18114742737137275502
10967382 1 18411136965623499614
1100329 8 18410295779251865074
11370993 70 18194967344373485257
12107183 9 17830446538555065769
12553582 1 18121784090841862487
12730499 353 18341603781800657307
12788726 201 17118035665253243667
13004483 165 17475520950534056891
13009979 54 17605830545862327059
13140716 1 18339648824356713250
13533116 47 18411695513820797187
13785724 45 17684916296109747871
138480 1 18266742569981317010
13955234 65 18411417323945552659
14790565 3 18339348726502910796
14844126 61 16829816314245963115
15927050 60 18265332794902297838
16728300 4 17413627100797808042
17138139 8 17391660795257622263
1813 80 17899126397689905006
19427546 62 18196372516192289525
19591789 44 18339922606725301758
20028762 73 18260555484897799518
20645477 70 18272097123400721431
20739085 24 18272088279673370612
21041028 32 17978795932444147534
21197605 99 18123742064002117211
21344244 78 18117009964557357737
21524375 3 18115869594510367117
2255824 54 18408322198418048119
23558518 356 17904486203431877438
23559900 14 18411143575673159371
23845131 108 18270122280068695771
25147074 1 17967254213728692309
283562 15 18051402170516631630
3091708 16 9185090886076886026
3178227 256 18341316843277360746
335352 9 18338234865605150828
33824 294 18412545405210360971
3421961 26 18339643468121057923
350125 39 17980470170762093962
4409770 3 17258225068462815875
474 4 18337112263499818705
633830 44 18260825947736300501
6443956 14 18196652015051144197
7364860 26 18411138064860749303
81228 2 16899645176907668248
8272917 22 18408881850052889893
84936 182 18260549978839143385
9777508 108 17833268623266061290
9981440 41 18194970634603290761
9999458 23 18411133619574951180

> <PUBCHEM_SHAPE_MULTIPOLES>
426.06
8.48
4.9
0.82
14.86
1.59
0.01
-2.72
0.04
-6.36
0.95
0.51
0
-0.37

> <PUBCHEM_SHAPE_SELFOVERLAP>
910.528

> <PUBCHEM_SHAPE_VOLUME>
236.4

> <PUBCHEM_COORDINATE_TYPE>
2
5
10

$$$$

