47205667
  -OEChem-06241222593D

 35 35  0     0  0  0  0  0  0999 V2000
    4.1059    3.0303    0.0122 F   0  0  0  0  0  0  0  0  0  0  0  0
   -2.3096    0.5114    1.2910 O   0  0  0  0  0  0  0  0  0  0  0  0
   -0.5479   -1.8210   -1.5106 O   0  0  0  0  0  0  0  0  0  0  0  0
   -2.8157   -1.3629    0.0182 N   0  0  0  0  0  0  0  0  0  0  0  0
    0.6311   -2.2256    0.4511 N   0  0  0  0  0  0  0  0  0  0  0  0
   -4.1667    0.6069   -0.2594 C   0  0  0  0  0  0  0  0  0  0  0  0
   -4.3842    2.0460    0.1986 C   0  0  0  0  0  0  0  0  0  0  0  0
    1.9626   -2.1750   -0.1091 C   0  0  0  0  0  0  0  0  0  0  0  0
   -1.7664   -2.2061    0.5398 C   0  0  0  0  0  0  0  0  0  0  0  0
    2.5335   -0.7868   -0.0767 C   0  0  0  0  0  0  0  0  0  0  0  0
   -2.9980   -0.0562    0.4469 C   0  0  0  0  0  0  0  0  0  0  0  0
   -0.5193   -2.0429   -0.3027 C   0  0  0  0  0  0  0  0  0  0  0  0
   -5.5784    2.6784   -0.4972 C   0  0  0  0  0  0  0  0  0  0  0  0
    2.3316    0.0760   -1.1540 C   0  0  0  0  0  0  0  0  0  0  0  0
    3.2666   -0.3601    1.0309 C   0  0  0  0  0  0  0  0  0  0  0  0
    2.8623    1.3657   -1.1237 C   0  0  0  0  0  0  0  0  0  0  0  0
    3.7974    0.9296    1.0610 C   0  0  0  0  0  0  0  0  0  0  0  0
    3.5952    1.7925   -0.0162 C   0  0  0  0  0  0  0  0  0  0  0  0
   -5.0663    0.0112   -0.0631 H   0  0  0  0  0  0  0  0  0  0  0  0
   -3.9747    0.5823   -1.3388 H   0  0  0  0  0  0  0  0  0  0  0  0
   -3.4871    2.6426   -0.0058 H   0  0  0  0  0  0  0  0  0  0  0  0
   -4.5428    2.0739    1.2833 H   0  0  0  0  0  0  0  0  0  0  0  0
    2.5900   -2.8630    0.4690 H   0  0  0  0  0  0  0  0  0  0  0  0
    1.9392   -2.5538   -1.1378 H   0  0  0  0  0  0  0  0  0  0  0  0
   -2.1000   -3.2461    0.4790 H   0  0  0  0  0  0  0  0  0  0  0  0
   -1.5773   -1.9473    1.5863 H   0  0  0  0  0  0  0  0  0  0  0  0
   -3.4253   -1.7447   -0.6993 H   0  0  0  0  0  0  0  0  0  0  0  0
    0.5511   -2.4029    1.4480 H   0  0  0  0  0  0  0  0  0  0  0  0
   -6.4974    2.1244   -0.2806 H   0  0  0  0  0  0  0  0  0  0  0  0
   -5.7146    3.7090   -0.1550 H   0  0  0  0  0  0  0  0  0  0  0  0
   -5.4355    2.6967   -1.5824 H   0  0  0  0  0  0  0  0  0  0  0  0
    1.7655   -0.2436   -2.0245 H   0  0  0  0  0  0  0  0  0  0  0  0
    3.4295   -1.0223    1.8770 H   0  0  0  0  0  0  0  0  0  0  0  0
    2.7058    2.0375   -1.9625 H   0  0  0  0  0  0  0  0  0  0  0  0
    4.3679    1.2623    1.9230 H   0  0  0  0  0  0  0  0  0  0  0  0
  1 18  1  0  0  0  0
  2 11  2  0  0  0  0
  3 12  2  0  0  0  0
  4  9  1  0  0  0  0
  4 11  1  0  0  0  0
  4 27  1  0  0  0  0
  5  8  1  0  0  0  0
  5 12  1  0  0  0  0
  5 28  1  0  0  0  0
  6  7  1  0  0  0  0
  6 11  1  0  0  0  0
  6 19  1  0  0  0  0
  6 20  1  0  0  0  0
  7 13  1  0  0  0  0
  7 21  1  0  0  0  0
  7 22  1  0  0  0  0
  8 10  1  0  0  0  0
  8 23  1  0  0  0  0
  8 24  1  0  0  0  0
  9 12  1  0  0  0  0
  9 25  1  0  0  0  0
  9 26  1  0  0  0  0
 10 14  2  0  0  0  0
 10 15  1  0  0  0  0
 13 29  1  0  0  0  0
 13 30  1  0  0  0  0
 13 31  1  0  0  0  0
 14 16  1  0  0  0  0
 14 32  1  0  0  0  0
 15 17  2  0  0  0  0
 15 33  1  0  0  0  0
 16 18  2  0  0  0  0
 16 34  1  0  0  0  0
 17 18  1  0  0  0  0
 17 35  1  0  0  0  0
M  END
> <PUBCHEM_COMPOUND_CID>
47205667

> <PUBCHEM_CONFORMER_RMSD>
1

> <PUBCHEM_CONFORMER_DIVERSEORDER>
1
29
65
6
46
42
32
41
36
2
21
37
64
23
69
44
39
58
30
40
11
60
31
53
49
17
35
47
45
24
16
5
62
68
33
52
34
3
67
18
51
56
14
25
8
48
4
55
26
22
66
13
27
38
43
19
63
61
9
59
10
20
57
7
50
28
15
54
12

> <PUBCHEM_MMFF94_PARTIAL_CHARGES>
22
1 -0.19
10 -0.14
11 0.57
12 0.57
14 -0.15
15 -0.15
16 -0.15
17 -0.15
18 0.19
2 -0.57
27 0.37
28 0.37
3 -0.57
32 0.15
33 0.15
34 0.15
35 0.15
4 -0.73
5 -0.73
6 0.06
8 0.44
9 0.36

> <PUBCHEM_EFFECTIVE_ROTOR_COUNT>
8

> <PUBCHEM_PHARMACOPHORE_FEATURES>
6
1 13 hydrophobe
1 2 acceptor
1 3 acceptor
1 4 donor
1 5 donor
6 10 14 15 16 17 18 rings

> <PUBCHEM_HEAVY_ATOM_COUNT>
18

> <PUBCHEM_ATOM_DEF_STEREO_COUNT>
0

> <PUBCHEM_ATOM_UDEF_STEREO_COUNT>
0

> <PUBCHEM_BOND_DEF_STEREO_COUNT>
0

> <PUBCHEM_BOND_UDEF_STEREO_COUNT>
0

> <PUBCHEM_ISOTOPIC_ATOM_COUNT>
0

> <PUBCHEM_COMPONENT_COUNT>
1

> <PUBCHEM_CACTVS_TAUTO_COUNT>
4

> <PUBCHEM_CONFORMER_ID>
02D04D2300000001

> <PUBCHEM_MMFF94_ENERGY>
25.3434

> <PUBCHEM_FEATURE_SELFOVERLAP>
30.446

> <PUBCHEM_SHAPE_FINGERPRINT>
10498660 4 18260542307937641385
122479 349 18411419505536088243
12633257 1 15841269255296608836
13103583 49 17346055397925891562
13965767 371 18060429018676682516
14123255 52 18410291380598348141
14251710 61 9583522018451278139
14251764 30 7781224604875268613
14251764 38 18194400215770910277
14251764 75 18337939134999605465
14468879 13 18272362075532886393
14576447 43 8502371157260144098
14848178 96 18337110167708902081
14957384 54 18410580556810136344
15848702 68 18268711786790621302
17810953 82 18268146638046377773
17834072 32 18411134753652129617
17859628 37 18201431527836068823
1798214 55 18409725157959046529
18915474 69 8141821498981674738
193927 3 10519987079924144769
20621476 13 18408885165414428800
20715895 44 18195817494896365161
21354914 76 9439102257560407399
21475661 188 18271246131085740195
21864079 5 18339641127332206990
22749437 52 18409727374204492841
22950370 63 8934994906614458157
22956985 138 9716753257242240911
235170 7 15574716897991097501
23559900 14 18193275419544159691
43658 37 18409730707541985729
474 4 18339078323724321315
6328613 192 18342451531394321852
7808743 9 18121495748570823240
8199 26 18410009897068723642
94968 8 8574419933355803218

> <PUBCHEM_SHAPE_MULTIPOLES>
341.46
10.44
3.34
1.11
10.05
0.5
0.09
10.52
-0.5
0.2
0.24
-0.49
-0.01
0.22

> <PUBCHEM_SHAPE_SELFOVERLAP>
688.496

> <PUBCHEM_SHAPE_VOLUME>
199.8

> <PUBCHEM_COORDINATE_TYPE>
2
5
10

$$$$

