13869
  -OEChem-06241222403D

 22 23  0     0  0  0  0  0  0999 V2000
    1.7019    0.1538    0.0000 P   0  0  0  0  0  0  0  0  0  0  0  0
    1.2383   -1.3991   -0.0341 O   0  0  0  0  0  0  0  0  0  0  0  0
    0.8742    0.7835   -1.2434 O   0  0  0  0  0  0  0  0  0  0  0  0
    0.8840    0.7252    1.2776 O   0  0  0  0  0  0  0  0  0  0  0  0
    3.1795    0.4003    0.0000 O   0  0  0  0  0  0  0  0  0  0  0  0
   -0.9503   -0.2886    0.0000 C   0  0  0  0  0  0  0  0  0  0  0  0
   -0.1733   -1.6286   -0.0340 C   0  0  0  0  0  0  0  0  0  0  0  0
   -0.5359    0.5450   -1.2384 C   0  0  0  0  0  0  0  0  0  0  0  0
   -0.5263    0.4871    1.2723 C   0  0  0  0  0  0  0  0  0  0  0  0
   -2.4576   -0.5402    0.0000 C   0  0  0  0  0  0  0  0  0  0  0  0
   -3.2346    0.7617    0.0000 C   0  0  0  0  0  0  0  0  0  0  0  0
   -0.4124   -2.2449    0.8392 H   0  0  0  0  0  0  0  0  0  0  0  0
   -0.4189   -2.2040   -0.9328 H   0  0  0  0  0  0  0  0  0  0  0  0
   -0.7933    0.0280   -2.1688 H   0  0  0  0  0  0  0  0  0  0  0  0
   -1.0049    1.5319   -1.2534 H   0  0  0  0  0  0  0  0  0  0  0  0
   -0.9967    1.4709    1.3385 H   0  0  0  0  0  0  0  0  0  0  0  0
   -0.7757   -0.0734    2.1794 H   0  0  0  0  0  0  0  0  0  0  0  0
   -2.7435   -1.1300    0.8796 H   0  0  0  0  0  0  0  0  0  0  0  0
   -2.7446   -1.1280   -0.8806 H   0  0  0  0  0  0  0  0  0  0  0  0
   -3.0423    1.3806    0.8792 H   0  0  0  0  0  0  0  0  0  0  0  0
   -3.0746    1.3564   -0.9024 H   0  0  0  0  0  0  0  0  0  0  0  0
   -4.3063    0.5297    0.0215 H   0  0  0  0  0  0  0  0  0  0  0  0
  1  2  1  0  0  0  0
  1  3  1  0  0  0  0
  1  4  1  0  0  0  0
  1  5  2  0  0  0  0
  2  7  1  0  0  0  0
  3  8  1  0  0  0  0
  4  9  1  0  0  0  0
  6  7  1  0  0  0  0
  6  8  1  0  0  0  0
  6  9  1  0  0  0  0
  6 10  1  0  0  0  0
  7 12  1  0  0  0  0
  7 13  1  0  0  0  0
  8 14  1  0  0  0  0
  8 15  1  0  0  0  0
  9 16  1  0  0  0  0
  9 17  1  0  0  0  0
 10 11  1  0  0  0  0
 10 18  1  0  0  0  0
 10 19  1  0  0  0  0
 11 20  1  0  0  0  0
 11 21  1  0  0  0  0
 11 22  1  0  0  0  0
M  END
> <PUBCHEM_COMPOUND_CID>
13869

> <PUBCHEM_CONFORMER_RMSD>
0.6

> <PUBCHEM_CONFORMER_DIVERSEORDER>
1

> <PUBCHEM_MMFF94_PARTIAL_CHARGES>
8
1 1.51
2 -0.55
3 -0.55
4 -0.55
5 -0.7
7 0.28
8 0.28
9 0.28

> <PUBCHEM_EFFECTIVE_ROTOR_COUNT>
2.2

> <PUBCHEM_PHARMACOPHORE_FEATURES>
3
1 11 hydrophobe
1 5 acceptor
8 1 2 3 4 6 7 8 9 rings

> <PUBCHEM_HEAVY_ATOM_COUNT>
11

> <PUBCHEM_ATOM_DEF_STEREO_COUNT>
0

> <PUBCHEM_ATOM_UDEF_STEREO_COUNT>
0

> <PUBCHEM_BOND_DEF_STEREO_COUNT>
0

> <PUBCHEM_BOND_UDEF_STEREO_COUNT>
0

> <PUBCHEM_ISOTOPIC_ATOM_COUNT>
0

> <PUBCHEM_COMPONENT_COUNT>
1

> <PUBCHEM_CACTVS_TAUTO_COUNT>
1

> <PUBCHEM_CONFORMER_ID>
0000362D00000001

> <PUBCHEM_MMFF94_ENERGY>
28.8742

> <PUBCHEM_FEATURE_SELFOVERLAP>
15.223

> <PUBCHEM_SHAPE_FINGERPRINT>
10219947 1 18060701701691820783
12423570 1 7145975481972794950
13024252 1 14476971060140185190
137420 1 9417447886577740227
14993402 34 18059576840982590663
15775835 57 18187081780434246169
16945 1 18410292501627120847
21040471 1 18338235964325344463
23235685 24 18343025479730236061
29004967 10 17846491552007323611
369184 2 17967813817047898314
5084963 1 18343022155663016691
528886 8 18273498970202396367

> <PUBCHEM_SHAPE_MULTIPOLES>
206.75
3.64
1.24
1.13
0.69
0.49
0.03
-0.76
0
-0.01
-0.03
-0.06
-0.34
0

> <PUBCHEM_SHAPE_SELFOVERLAP>
413.411

> <PUBCHEM_SHAPE_VOLUME>
124.7

> <PUBCHEM_COORDINATE_TYPE>
2
5
10

$$$$

