5630
  -OEChem-06261200472D

 64 68  0     1  0  0  0  0  0999 V2000
    5.9550   -1.6466    0.0000 S   0  0  0  0  0  0  0  0  0  0  0  0
    8.9540    1.8539    0.0000 O   0  0  0  0  0  0  0  0  0  0  0  0
    8.2863    0.2145    0.0000 O   0  0  0  0  0  0  0  0  0  0  0  0
   11.7941    0.6900    0.0000 O   0  0  0  0  0  0  0  0  0  0  0  0
    5.3432   -0.8556    0.0000 O   0  0  0  0  0  0  0  0  0  0  0  0
    6.5668   -2.4376    0.0000 O   0  0  0  0  0  0  0  0  0  0  0  0
    6.7460   -1.0348    0.0000 N   0  0  0  0  0  0  0  0  0  0  0  0
    2.0000   -4.7056    0.0000 N   0  0  0  0  0  0  0  0  0  0  0  0
   11.1041   -0.9485    0.0000 C   0  0  0  0  0  0  0  0  0  0  0  0
   11.7159   -1.7395    0.0000 C   0  0  0  0  0  0  0  0  0  0  0  0
   12.0950   -0.8141    0.0000 C   0  0  0  0  0  0  0  0  0  0  0  0
   10.1787   -0.5694    0.0000 C   0  0  3  0  0  0  0  0  0  0  0  0
   10.0444    0.4216    0.0000 C   0  0  0  0  0  0  0  0  0  0  0  0
    9.3877   -1.1812    0.0000 C   0  0  0  0  0  0  0  0  0  0  0  0
   10.8658    1.0620    0.0000 C   0  0  0  0  0  0  0  0  0  0  0  0
    9.0820    0.8202    0.0000 C   0  0  0  0  0  0  0  0  0  0  0  0
    8.4624   -0.8021    0.0000 C   0  0  0  0  0  0  0  0  0  0  0  0
   10.7140    2.0925    0.0000 C   0  0  0  0  0  0  0  0  0  0  0  0
    9.5220   -2.1721    0.0000 C   0  0  0  0  0  0  0  0  0  0  0  0
    9.7901    2.4752    0.0000 C   0  0  0  0  0  0  0  0  0  0  0  0
   11.6378    2.4752    0.0000 C   0  0  0  0  0  0  0  0  0  0  0  0
    9.4074    3.3991    0.0000 C   0  0  0  0  0  0  0  0  0  0  0  0
   12.0205    3.3991    0.0000 C   0  0  0  0  0  0  0  0  0  0  0  0
    7.6714   -1.4139    0.0000 C   0  0  0  0  0  0  0  0  0  0  0  0
    9.7901    4.3230    0.0000 C   0  0  0  0  0  0  0  0  0  0  0  0
   11.6378    4.3230    0.0000 C   0  0  0  0  0  0  0  0  0  0  0  0
    8.7310   -2.7839    0.0000 C   0  0  0  0  0  0  0  0  0  0  0  0
   10.7140    4.7056    0.0000 C   0  0  0  0  0  0  0  0  0  0  0  0
    7.8057   -2.4048    0.0000 C   0  0  0  0  0  0  0  0  0  0  0  0
    5.1640   -2.2584    0.0000 C   0  0  0  0  0  0  0  0  0  0  0  0
    4.2387   -1.8793    0.0000 C   0  0  0  0  0  0  0  0  0  0  0  0
    5.2984   -3.2493    0.0000 C   0  0  0  0  0  0  0  0  0  0  0  0
    3.4477   -2.4911    0.0000 C   0  0  0  0  0  0  0  0  0  0  0  0
    4.5074   -3.8611    0.0000 C   0  0  0  0  0  0  0  0  0  0  0  0
    3.5820   -3.4820    0.0000 C   0  0  0  0  0  0  0  0  0  0  0  0
    2.7910   -4.0938    0.0000 C   0  0  0  0  0  0  0  0  0  0  0  0
   10.7285   -1.4418    0.0000 H   0  0  0  0  0  0  0  0  0  0  0  0
   11.2988   -2.1982    0.0000 H   0  0  0  0  0  0  0  0  0  0  0  0
   12.2400   -2.0706    0.0000 H   0  0  0  0  0  0  0  0  0  0  0  0
   12.7008   -0.9460    0.0000 H   0  0  0  0  0  0  0  0  0  0  0  0
   12.1196   -0.1946    0.0000 H   0  0  0  0  0  0  0  0  0  0  0  0
   10.2620   -1.1838    0.0000 H   0  0  0  0  0  0  0  0  0  0  0  0
    8.3791   -0.1877    0.0000 H   0  0  0  0  0  0  0  0  0  0  0  0
   10.0958   -2.4072    0.0000 H   0  0  0  0  0  0  0  0  0  0  0  0
   11.7188    1.8605    0.0000 H   0  0  0  0  0  0  0  0  0  0  0  0
   12.2525    2.3943    0.0000 H   0  0  0  0  0  0  0  0  0  0  0  0
    8.9155    3.7765    0.0000 H   0  0  0  0  0  0  0  0  0  0  0  0
    8.9155    3.0216    0.0000 H   0  0  0  0  0  0  0  0  0  0  0  0
   12.5124    3.0216    0.0000 H   0  0  0  0  0  0  0  0  0  0  0  0
   12.5124    3.7765    0.0000 H   0  0  0  0  0  0  0  0  0  0  0  0
    9.7092    4.9377    0.0000 H   0  0  0  0  0  0  0  0  0  0  0  0
    9.1754    4.4039    0.0000 H   0  0  0  0  0  0  0  0  0  0  0  0
   12.2525    4.4039    0.0000 H   0  0  0  0  0  0  0  0  0  0  0  0
   11.7188    4.9377    0.0000 H   0  0  0  0  0  0  0  0  0  0  0  0
   11.0914    5.1975    0.0000 H   0  0  0  0  0  0  0  0  0  0  0  0
   10.3365    5.1975    0.0000 H   0  0  0  0  0  0  0  0  0  0  0  0
    8.8143   -3.3983    0.0000 H   0  0  0  0  0  0  0  0  0  0  0  0
    7.3153   -2.7841    0.0000 H   0  0  0  0  0  0  0  0  0  0  0  0
    7.7144    0.4540    0.0000 H   0  0  0  0  0  0  0  0  0  0  0  0
    6.6627   -0.4204    0.0000 H   0  0  0  0  0  0  0  0  0  0  0  0
    4.1554   -1.2649    0.0000 H   0  0  0  0  0  0  0  0  0  0  0  0
    5.8721   -3.4844    0.0000 H   0  0  0  0  0  0  0  0  0  0  0  0
    2.8739   -2.2560    0.0000 H   0  0  0  0  0  0  0  0  0  0  0  0
    4.5906   -4.4755    0.0000 H   0  0  0  0  0  0  0  0  0  0  0  0
  1  5  2  0  0  0  0
  1  6  2  0  0  0  0
  1  7  1  0  0  0  0
  1 30  1  0  0  0  0
  2 16  1  0  0  0  0
  2 20  1  0  0  0  0
  3 16  1  0  0  0  0
  3 59  1  0  0  0  0
  4 15  2  0  0  0  0
  7 24  1  0  0  0  0
  7 60  1  0  0  0  0
  8 36  3  0  0  0  0
  9 10  1  0  0  0  0
  9 11  1  0  0  0  0
  9 12  1  0  0  0  0
  9 37  1  0  0  0  0
 10 11  1  0  0  0  0
 10 38  1  0  0  0  0
 10 39  1  0  0  0  0
 11 40  1  0  0  0  0
 11 41  1  0  0  0  0
 12 13  1  0  0  0  0
 12 14  1  0  0  0  0
 12 42  1  0  0  0  0
 13 15  1  0  0  0  0
 13 16  2  0  0  0  0
 14 17  2  0  0  0  0
 14 19  1  0  0  0  0
 15 18  1  0  0  0  0
 17 24  1  0  0  0  0
 17 43  1  0  0  0  0
 18 20  2  0  0  0  0
 18 21  1  0  0  0  0
 19 27  2  0  0  0  0
 19 44  1  0  0  0  0
 20 22  1  0  0  0  0
 21 23  1  0  0  0  0
 21 45  1  0  0  0  0
 21 46  1  0  0  0  0
 22 25  1  0  0  0  0
 22 47  1  0  0  0  0
 22 48  1  0  0  0  0
 23 26  1  0  0  0  0
 23 49  1  0  0  0  0
 23 50  1  0  0  0  0
 24 29  2  0  0  0  0
 25 28  1  0  0  0  0
 25 51  1  0  0  0  0
 25 52  1  0  0  0  0
 26 28  1  0  0  0  0
 26 53  1  0  0  0  0
 26 54  1  0  0  0  0
 27 29  1  0  0  0  0
 27 57  1  0  0  0  0
 28 55  1  0  0  0  0
 28 56  1  0  0  0  0
 29 58  1  0  0  0  0
 30 31  2  0  0  0  0
 30 32  1  0  0  0  0
 31 33  1  0  0  0  0
 31 61  1  0  0  0  0
 32 34  2  0  0  0  0
 32 62  1  0  0  0  0
 33 35  2  0  0  0  0
 33 63  1  0  0  0  0
 34 35  1  0  0  0  0
 34 64  1  0  0  0  0
 35 36  1  0  0  0  0
M  END
> <PUBCHEM_COMPOUND_CID>
5630

> <PUBCHEM_COMPOUND_CANONICALIZED>
1

> <PUBCHEM_CACTVS_COMPLEXITY>
1070

> <PUBCHEM_CACTVS_HBOND_ACCEPTOR>
7

> <PUBCHEM_CACTVS_HBOND_DONOR>
2

> <PUBCHEM_CACTVS_ROTATABLE_BOND>
6

> <PUBCHEM_CACTVS_SUBSKEYS>
AAADceB7OABAAAAAAAAAAAAAGAAAAAAAAAAwYIAAAAAQAAABQAAAHgQQSAAADQyB2AAwyYBABgKYBqRSQHDiCBAgIgAIiBkAZMgYoDKAkZGAIABkkAAMyQ+YyOCOkAAAQAAAAAAgAACAAAAAAAAAAAAAAA==

> <PUBCHEM_IUPAC_OPENEYE_NAME>
4-cyano-N-[3-[cyclopropyl-(2-hydroxy-4-oxo-5,6,7,8,9,10-hexahydrocycloocta[b]pyran-3-yl)methyl]phenyl]benzenesulfonamide

> <PUBCHEM_IUPAC_CAS_NAME>
4-cyano-N-[3-[cyclopropyl-(2-hydroxy-4-oxo-5,6,7,8,9,10-hexahydrocycloocta[b]pyran-3-yl)methyl]phenyl]benzenesulfonamide

> <PUBCHEM_IUPAC_NAME>
4-cyano-N-[3-[cyclopropyl-(2-hydroxy-4-oxo-5,6,7,8,9,10-hexahydrocycloocta[b]pyran-3-yl)methyl]phenyl]benzenesulfonamide

> <PUBCHEM_IUPAC_SYSTEMATIC_NAME>
4-cyano-N-[3-[cyclopropyl-(2-oxidanyl-4-oxidanylidene-5,6,7,8,9,10-hexahydrocycloocta[b]pyran-3-yl)methyl]phenyl]benzenesulfonamide

> <PUBCHEM_IUPAC_TRADITIONAL_NAME>
4-cyano-N-[3-[cyclopropyl-(2-hydroxy-4-keto-5,6,7,8,9,10-hexahydrocycloocta[b]pyran-3-yl)methyl]phenyl]benzenesulfonamide

> <PUBCHEM_IUPAC_INCHI>
InChI=1S/C28H28N2O5S/c29-17-18-10-14-22(15-11-18)36(33,34)30-21-7-5-6-20(16-21)25(19-12-13-19)26-27(31)23-8-3-1-2-4-9-24(23)35-28(26)32/h5-7,10-11,14-16,19,25,30,32H,1-4,8-9,12-13H2

> <PUBCHEM_IUPAC_INCHIKEY>
MKFMCZXWZFBAFX-UHFFFAOYSA-N

> <PUBCHEM_XLOGP3_AA>
5.4

> <PUBCHEM_EXACT_MASS>
504.171893

> <PUBCHEM_MOLECULAR_FORMULA>
C28H28N2O5S

> <PUBCHEM_MOLECULAR_WEIGHT>
504.59732

> <PUBCHEM_OPENEYE_CAN_SMILES>
C1CCCC2=C(CC1)C(=O)C(=C(O2)O)C(C3CC3)C4=CC(=CC=C4)NS(=O)(=O)C5=CC=C(C=C5)C#N

> <PUBCHEM_OPENEYE_ISO_SMILES>
C1CCCC2=C(CC1)C(=O)C(=C(O2)O)C(C3CC3)C4=CC(=CC=C4)NS(=O)(=O)C5=CC=C(C=C5)C#N

> <PUBCHEM_CACTVS_TPSA>
125

> <PUBCHEM_MONOISOTOPIC_WEIGHT>
504.171893

> <PUBCHEM_TOTAL_CHARGE>
0

> <PUBCHEM_HEAVY_ATOM_COUNT>
36

> <PUBCHEM_ATOM_DEF_STEREO_COUNT>
0

> <PUBCHEM_ATOM_UDEF_STEREO_COUNT>
1

> <PUBCHEM_BOND_DEF_STEREO_COUNT>
0

> <PUBCHEM_BOND_UDEF_STEREO_COUNT>
0

> <PUBCHEM_ISOTOPIC_ATOM_COUNT>
0

> <PUBCHEM_COMPONENT_COUNT>
1

> <PUBCHEM_CACTVS_TAUTO_COUNT>
8

> <PUBCHEM_COORDINATE_TYPE>
1
5
255

> <PUBCHEM_BONDANNOTATIONS>
12  14  3
13  15  8
13  16  8
14  17  8
14  19  8
15  18  8
17  24  8
18  20  8
19  27  8
2  16  8
2  20  8
24  29  8
27  29  8
30  31  8
30  32  8
31  33  8
32  34  8
33  35  8
34  35  8

$$$$

