12826
  -OEChem-06261207253D

 24 24  0     0  0  0  0  0  0999 V2000
    2.2062   -0.1788   -0.2206 O   0  0  0  0  0  0  0  0  0  0  0  0
    4.6744   -1.1098    0.7298 O   0  0  0  0  0  0  0  0  0  0  0  0
    0.8638    1.6503    0.0671 O   0  0  0  0  0  0  0  0  0  0  0  0
   -0.0212   -0.5106   -0.1524 N   0  0  0  0  0  0  0  0  0  0  0  0
   -1.4006   -0.3212   -0.0621 C   0  0  0  0  0  0  0  0  0  0  0  0
    3.3567    0.6730   -0.1737 C   0  0  0  0  0  0  0  0  0  0  0  0
   -2.2620   -1.4146   -0.1533 C   0  0  0  0  0  0  0  0  0  0  0  0
   -1.9183    0.9612    0.1203 C   0  0  0  0  0  0  0  0  0  0  0  0
    4.6052   -0.1722   -0.3376 C   0  0  0  0  0  0  0  0  0  0  0  0
   -3.6410   -1.2256   -0.0626 C   0  0  0  0  0  0  0  0  0  0  0  0
   -3.2974    1.1501    0.2111 C   0  0  0  0  0  0  0  0  0  0  0  0
    0.9929    0.4417   -0.0858 C   0  0  0  0  0  0  0  0  0  0  0  0
   -4.1586    0.0566    0.1197 C   0  0  0  0  0  0  0  0  0  0  0  0
    3.2988    1.4111   -0.9811 H   0  0  0  0  0  0  0  0  0  0  0  0
    3.3744    1.1844    0.7956 H   0  0  0  0  0  0  0  0  0  0  0  0
    0.2867   -1.4711   -0.2845 H   0  0  0  0  0  0  0  0  0  0  0  0
   -1.8724   -2.4195   -0.2952 H   0  0  0  0  0  0  0  0  0  0  0  0
   -1.3144    1.8544    0.2000 H   0  0  0  0  0  0  0  0  0  0  0  0
    5.5096    0.4429   -0.3294 H   0  0  0  0  0  0  0  0  0  0  0  0
    4.5689   -0.7421   -1.2708 H   0  0  0  0  0  0  0  0  0  0  0  0
   -4.3118   -2.0768   -0.1336 H   0  0  0  0  0  0  0  0  0  0  0  0
   -3.7019    2.1481    0.3530 H   0  0  0  0  0  0  0  0  0  0  0  0
   -5.2323    0.2038    0.1904 H   0  0  0  0  0  0  0  0  0  0  0  0
    4.7277   -0.6057    1.5597 H   0  0  0  0  0  0  0  0  0  0  0  0
  1  6  1  0  0  0  0
  1 12  1  0  0  0  0
  2  9  1  0  0  0  0
  2 24  1  0  0  0  0
  3 12  2  0  0  0  0
  4  5  1  0  0  0  0
  4 12  1  0  0  0  0
  4 16  1  0  0  0  0
  5  7  2  0  0  0  0
  5  8  1  0  0  0  0
  6  9  1  0  0  0  0
  6 14  1  0  0  0  0
  6 15  1  0  0  0  0
  7 10  1  0  0  0  0
  7 17  1  0  0  0  0
  8 11  2  0  0  0  0
  8 18  1  0  0  0  0
  9 19  1  0  0  0  0
  9 20  1  0  0  0  0
 10 13  2  0  0  0  0
 10 21  1  0  0  0  0
 11 13  1  0  0  0  0
 11 22  1  0  0  0  0
 13 23  1  0  0  0  0
M  END
> <PUBCHEM_COMPOUND_CID>
12826

> <PUBCHEM_CONFORMER_RMSD>
0.6

> <PUBCHEM_CONFORMER_DIVERSEORDER>
1
32
36
26
33
19
25
30
5
31
27
34
12
24
37
13
39
35
4
28
7
29
8
6
38
3
15
14
10
21
2
20
9
17
11
16
23
18
22

> <PUBCHEM_MMFF94_PARTIAL_CHARGES>
20
1 -0.43
10 -0.15
11 -0.15
12 0.78
13 -0.15
16 0.37
17 0.15
18 0.15
2 -0.68
21 0.15
22 0.15
23 0.15
24 0.4
3 -0.57
4 -0.55
5 0.12
6 0.28
7 -0.15
8 -0.15
9 0.28

> <PUBCHEM_EFFECTIVE_ROTOR_COUNT>
5

> <PUBCHEM_PHARMACOPHORE_FEATURES>
5
1 2 acceptor
1 2 donor
1 3 acceptor
1 4 donor
6 5 7 8 10 11 13 rings

> <PUBCHEM_HEAVY_ATOM_COUNT>
13

> <PUBCHEM_ATOM_DEF_STEREO_COUNT>
0

> <PUBCHEM_ATOM_UDEF_STEREO_COUNT>
0

> <PUBCHEM_BOND_DEF_STEREO_COUNT>
0

> <PUBCHEM_BOND_UDEF_STEREO_COUNT>
0

> <PUBCHEM_ISOTOPIC_ATOM_COUNT>
0

> <PUBCHEM_COMPONENT_COUNT>
1

> <PUBCHEM_CACTVS_TAUTO_COUNT>
2

> <PUBCHEM_CONFORMER_ID>
0000321A00000001

> <PUBCHEM_MMFF94_ENERGY>
29.7812

> <PUBCHEM_FEATURE_SELFOVERLAP>
25.371

> <PUBCHEM_SHAPE_FINGERPRINT>
10465860 250 17967254204141784472
11062470 55 5978390508077395477
124424 183 18408887334551897605
13167823 11 18342458145005881522
13690532 89 18412262826432336495
14123238 8 18113899347098393508
14325111 11 18408882910609079621
14965852 173 18336828580920350495
17804303 29 18335417946024802629
17834072 33 18341327795739565820
18186145 218 15051728669027369812
18522853 276 18333448733484196017
19422 9 18272366447561439412
1986462 14 18411135827193201405
200 152 17822016385077389679
20279233 1 17530956986423168631
20281475 54 18272935986052877422
22485316 2 18412547600397559146
2306618 200 18113610210280049849
23402539 116 18113905966102108221
23559900 14 18260551108890165720
42 15 18412825798240486874
4214541 1 18410574006700368036
5104073 3 18335699399510704081
573450 72 18411707607557341266
77779 3 18411979144148449316

> <PUBCHEM_SHAPE_MULTIPOLES>
244.94
9.4
1.39
0.64
8.01
0.04
0.02
-1.74
0.54
-0.61
0.06
0.15
-0.04
-0.39

> <PUBCHEM_SHAPE_SELFOVERLAP>
497.561

> <PUBCHEM_SHAPE_VOLUME>
141.3

> <PUBCHEM_COORDINATE_TYPE>
2
5
10

$$$$

