854158
  -OEChem-06241222473D

 21 21  0     1  0  0  0  0  0999 V2000
   -2.0946    0.8247    0.9423 O   0  0  0  0  0  0  0  0  0  0  0  0
    1.8340    1.1154   -0.4900 N   0  0  0  0  0  0  0  0  0  0  0  0
   -2.6439   -0.7010   -0.6900 N   0  0  0  0  0  0  0  0  0  0  0  0
   -0.3363   -0.0827   -0.3964 C   0  0  2  0  0  0  0  0  0  0  0  0
    0.3121   -1.2321    0.3756 C   0  0  0  0  0  0  0  0  0  0  0  0
    1.8090   -1.2955    0.0857 C   0  0  0  0  0  0  0  0  0  0  0  0
    0.4116    1.2319   -0.1578 C   0  0  0  0  0  0  0  0  0  0  0  0
    2.4723    0.0632    0.3046 C   0  0  0  0  0  0  0  0  0  0  0  0
   -1.7643    0.0761    0.0260 C   0  0  0  0  0  0  0  0  0  0  0  0
   -0.3036   -0.3104   -1.4708 H   0  0  0  0  0  0  0  0  0  0  0  0
   -0.1581   -2.1864    0.1099 H   0  0  0  0  0  0  0  0  0  0  0  0
    0.1555   -1.0990    1.4543 H   0  0  0  0  0  0  0  0  0  0  0  0
    2.2796   -2.0469    0.7297 H   0  0  0  0  0  0  0  0  0  0  0  0
    1.9661   -1.6186   -0.9512 H   0  0  0  0  0  0  0  0  0  0  0  0
   -0.0283    2.0209   -0.7797 H   0  0  0  0  0  0  0  0  0  0  0  0
    0.3120    1.5665    0.8830 H   0  0  0  0  0  0  0  0  0  0  0  0
    2.4480    0.3291    1.3686 H   0  0  0  0  0  0  0  0  0  0  0  0
    3.5273   -0.0038    0.0168 H   0  0  0  0  0  0  0  0  0  0  0  0
    2.2969    2.0047   -0.3042 H   0  0  0  0  0  0  0  0  0  0  0  0
   -3.6384   -0.6812   -0.4900 H   0  0  0  0  0  0  0  0  0  0  0  0
   -2.3424   -1.3215   -1.4344 H   0  0  0  0  0  0  0  0  0  0  0  0
  1  9  2  0  0  0  0
  2  7  1  0  0  0  0
  2  8  1  0  0  0  0
  2 19  1  0  0  0  0
  3  9  1  0  0  0  0
  3 20  1  0  0  0  0
  3 21  1  0  0  0  0
  4  5  1  0  0  0  0
  4  7  1  0  0  0  0
  4  9  1  0  0  0  0
  4 10  1  0  0  0  0
  5  6  1  0  0  0  0
  5 11  1  0  0  0  0
  5 12  1  0  0  0  0
  6  8  1  0  0  0  0
  6 13  1  0  0  0  0
  6 14  1  0  0  0  0
  7 15  1  0  0  0  0
  7 16  1  0  0  0  0
  8 17  1  0  0  0  0
  8 18  1  0  0  0  0
M  END
> <PUBCHEM_COMPOUND_CID>
854158

> <PUBCHEM_CONFORMER_RMSD>
0.4

> <PUBCHEM_CONFORMER_DIVERSEORDER>
1
15
10
19
21
11
17
2
14
3
18
16
4
20
7
5
6
12
13
8
9

> <PUBCHEM_MMFF94_PARTIAL_CHARGES>
10
1 -0.57
19 0.36
2 -0.9
20 0.37
21 0.37
3 -0.8
4 0.06
7 0.27
8 0.27
9 0.57

> <PUBCHEM_EFFECTIVE_ROTOR_COUNT>
2.2

> <PUBCHEM_PHARMACOPHORE_FEATURES>
5
1 1 acceptor
1 2 cation
1 2 donor
1 3 donor
6 2 4 5 6 7 8 rings

> <PUBCHEM_HEAVY_ATOM_COUNT>
9

> <PUBCHEM_ATOM_DEF_STEREO_COUNT>
1

> <PUBCHEM_ATOM_UDEF_STEREO_COUNT>
0

> <PUBCHEM_BOND_DEF_STEREO_COUNT>
0

> <PUBCHEM_BOND_UDEF_STEREO_COUNT>
0

> <PUBCHEM_ISOTOPIC_ATOM_COUNT>
0

> <PUBCHEM_COMPONENT_COUNT>
1

> <PUBCHEM_CACTVS_TAUTO_COUNT>
2

> <PUBCHEM_CONFORMER_ID>
000D088E00000001

> <PUBCHEM_MMFF94_ENERGY>
6.8518

> <PUBCHEM_FEATURE_SELFOVERLAP>
25.371

> <PUBCHEM_SHAPE_FINGERPRINT>
16945 1 18201716267045952514
18185500 45 18408606988945811963
21040471 1 18268988692095987868
23235685 24 18342178830434410044
23552423 10 18341047514188828310
29004967 10 17917987317162697080
5084963 1 18410582772665101248

> <PUBCHEM_SHAPE_MULTIPOLES>
169.38
3.48
1.38
0.78
0.76
0.03
0.05
0.16
0.03
-0.45
-0.01
0.22
-0.04
-0.37

> <PUBCHEM_SHAPE_SELFOVERLAP>
332.415

> <PUBCHEM_SHAPE_VOLUME>
100.7

> <PUBCHEM_COORDINATE_TYPE>
2
5
10

$$$$

