4228
  -OEChem-06251223583D

 44 46  0     1  0  0  0  0  0999 V2000
   -0.6119    1.7599   -0.2911 S   0  0  0  0  0  0  0  0  0  0  0  0
   -0.7017    2.6942   -1.3971 O   0  0  0  0  0  0  0  0  0  0  0  0
   -0.3108    2.2300    1.0478 O   0  0  0  0  0  0  0  0  0  0  0  0
    2.6502    1.0793    1.4191 O   0  0  0  0  0  0  0  0  0  0  0  0
    3.2735    3.7124    1.3851 O   0  0  0  0  0  0  0  0  0  0  0  0
   -5.7121   -1.1938   -0.0908 O   0  0  0  0  0  0  0  0  0  0  0  0
    2.7785    3.0663    0.2440 N   0  0  0  0  0  0  0  0  0  0  0  0
    0.5814    0.5159   -0.7014 C   0  0  1  0  0  0  0  0  0  0  0  0
    1.9862    1.0972   -0.8751 C   0  0  2  0  0  0  0  0  0  0  0  0
    0.5522   -0.6229    0.3195 C   0  0  0  0  0  0  0  0  0  0  0  0
    2.9580    0.0115   -1.3523 C   0  0  0  0  0  0  0  0  0  0  0  0
    1.6604   -1.6248    0.1133 C   0  0  0  0  0  0  0  0  0  0  0  0
    2.8051   -1.3146   -0.6435 C   0  0  0  0  0  0  0  0  0  0  0  0
    2.5007    1.7324    0.3886 C   0  0  0  0  0  0  0  0  0  0  0  0
   -2.1398    0.8752   -0.2317 C   0  0  0  0  0  0  0  0  0  0  0  0
    1.5668   -2.8778    0.7385 C   0  0  0  0  0  0  0  0  0  0  0  0
    3.8156   -2.2781   -0.7880 C   0  0  0  0  0  0  0  0  0  0  0  0
    2.5825   -3.8221    0.5951 C   0  0  0  0  0  0  0  0  0  0  0  0
    3.7055   -3.5234   -0.1703 C   0  0  0  0  0  0  0  0  0  0  0  0
   -2.5516    0.3153    0.9663 C   0  0  0  0  0  0  0  0  0  0  0  0
   -2.8996    0.7567   -1.3835 C   0  0  0  0  0  0  0  0  0  0  0  0
   -3.7577   -0.3836    1.0137 C   0  0  0  0  0  0  0  0  0  0  0  0
   -4.1059    0.0578   -1.3360 C   0  0  0  0  0  0  0  0  0  0  0  0
   -4.5349   -0.5123   -0.1373 C   0  0  0  0  0  0  0  0  0  0  0  0
   -6.0907   -1.7508    1.1670 C   0  0  0  0  0  0  0  0  0  0  0  0
    0.2632    0.1213   -1.6772 H   0  0  0  0  0  0  0  0  0  0  0  0
    1.9525    1.8667   -1.6583 H   0  0  0  0  0  0  0  0  0  0  0  0
   -0.3914   -1.1701    0.2123 H   0  0  0  0  0  0  0  0  0  0  0  0
    0.5903   -0.2587    1.3519 H   0  0  0  0  0  0  0  0  0  0  0  0
    3.9912    0.3650   -1.2419 H   0  0  0  0  0  0  0  0  0  0  0  0
    2.7863   -0.1695   -2.4216 H   0  0  0  0  0  0  0  0  0  0  0  0
    0.6969   -3.1242    1.3428 H   0  0  0  0  0  0  0  0  0  0  0  0
    4.6980   -2.0600   -1.3848 H   0  0  0  0  0  0  0  0  0  0  0  0
    2.4968   -4.7898    1.0805 H   0  0  0  0  0  0  0  0  0  0  0  0
    4.4961   -4.2589   -0.2862 H   0  0  0  0  0  0  0  0  0  0  0  0
   -1.9603    0.4032    1.8727 H   0  0  0  0  0  0  0  0  0  0  0  0
   -2.5790    1.1862   -2.3277 H   0  0  0  0  0  0  0  0  0  0  0  0
    2.7418    3.6054   -0.6138 H   0  0  0  0  0  0  0  0  0  0  0  0
   -4.0307   -0.8016    1.9766 H   0  0  0  0  0  0  0  0  0  0  0  0
   -4.7064   -0.0407   -2.2363 H   0  0  0  0  0  0  0  0  0  0  0  0
    3.9179    4.3157    0.9779 H   0  0  0  0  0  0  0  0  0  0  0  0
   -7.0509   -2.2564    1.0208 H   0  0  0  0  0  0  0  0  0  0  0  0
   -6.2510   -0.9720    1.9201 H   0  0  0  0  0  0  0  0  0  0  0  0
   -5.3768   -2.5112    1.5016 H   0  0  0  0  0  0  0  0  0  0  0  0
  1  2  2  0  0  0  0
  1  3  2  0  0  0  0
  1  8  1  0  0  0  0
  1 15  1  0  0  0  0
  4 14  2  0  0  0  0
  5  7  1  0  0  0  0
  5 41  1  0  0  0  0
  6 24  1  0  0  0  0
  6 25  1  0  0  0  0
  7 14  1  0  0  0  0
  7 38  1  0  0  0  0
  8  9  1  0  0  0  0
  8 10  1  0  0  0  0
  8 26  1  0  0  0  0
  9 11  1  0  0  0  0
  9 14  1  0  0  0  0
  9 27  1  0  0  0  0
 10 12  1  0  0  0  0
 10 28  1  0  0  0  0
 10 29  1  0  0  0  0
 11 13  1  0  0  0  0
 11 30  1  0  0  0  0
 11 31  1  0  0  0  0
 12 13  1  0  0  0  0
 12 16  2  0  0  0  0
 13 17  2  0  0  0  0
 15 20  2  0  0  0  0
 15 21  1  0  0  0  0
 16 18  1  0  0  0  0
 16 32  1  0  0  0  0
 17 19  1  0  0  0  0
 17 33  1  0  0  0  0
 18 19  2  0  0  0  0
 18 34  1  0  0  0  0
 19 35  1  0  0  0  0
 20 22  1  0  0  0  0
 20 36  1  0  0  0  0
 21 23  2  0  0  0  0
 21 37  1  0  0  0  0
 22 24  2  0  0  0  0
 22 39  1  0  0  0  0
 23 24  1  0  0  0  0
 23 40  1  0  0  0  0
 25 42  1  0  0  0  0
 25 43  1  0  0  0  0
 25 44  1  0  0  0  0
M  END
> <PUBCHEM_COMPOUND_CID>
4228

> <PUBCHEM_CONFORMER_RMSD>
0.8

> <PUBCHEM_CONFORMER_DIVERSEORDER>
14
8
10
21
2
5
23
16
20
15
17
9
19
11
4
6
7
24
12
1
18
13
25
22
3

> <PUBCHEM_MMFF94_PARTIAL_CHARGES>
35
1 1.2
10 0.14
11 0.14
12 -0.14
13 -0.14
14 0.57
15 -0.01
16 -0.15
17 -0.15
18 -0.15
19 -0.15
2 -0.65
20 -0.15
21 -0.15
22 -0.15
23 -0.15
24 0.08
25 0.28
3 -0.65
32 0.15
33 0.15
34 0.15
35 0.15
36 0.15
37 0.15
38 0.37
39 0.15
4 -0.57
40 0.15
41 0.4
5 -0.44
6 -0.36
7 -0.39
8 0.11
9 0.06

> <PUBCHEM_EFFECTIVE_ROTOR_COUNT>
5.8

> <PUBCHEM_PHARMACOPHORE_FEATURES>
8
1 2 acceptor
1 3 acceptor
1 4 acceptor
1 6 acceptor
1 7 donor
6 12 13 16 17 18 19 rings
6 15 20 21 22 23 24 rings
6 8 9 10 11 12 13 rings

> <PUBCHEM_HEAVY_ATOM_COUNT>
25

> <PUBCHEM_ATOM_DEF_STEREO_COUNT>
0

> <PUBCHEM_ATOM_UDEF_STEREO_COUNT>
2

> <PUBCHEM_BOND_DEF_STEREO_COUNT>
0

> <PUBCHEM_BOND_UDEF_STEREO_COUNT>
0

> <PUBCHEM_ISOTOPIC_ATOM_COUNT>
0

> <PUBCHEM_COMPONENT_COUNT>
1

> <PUBCHEM_CACTVS_TAUTO_COUNT>
3

> <PUBCHEM_CONFORMER_ID>
000010840000000E

> <PUBCHEM_MMFF94_ENERGY>
68.8474

> <PUBCHEM_FEATURE_SELFOVERLAP>
40.634

> <PUBCHEM_SHAPE_FINGERPRINT>
11070050 100 17824273600539251064
11405975 8 18336264660705500337
114674 6 18343580720207240666
11475781 23 17273727345972086735
11578080 2 17970369189308707825
12107183 9 18046331201456762513
12403259 226 18270120256837970726
12553582 1 18122060068196974691
12596602 18 17604976028518867147
12788726 201 17114111521423091992
12969540 37 18342181110814592174
13140716 1 18265338300833710090
13533116 47 18409160001104695715
13911987 19 17698692875546394932
13955234 65 18335138648570027336
14767858 380 18198601372718136750
14787075 74 17752206076537213353
14863182 85 18200024019634663740
16994733 274 15213869177946540496
17909252 39 18341325677867495619
20626108 58 17416131805154942466
20693207 138 18059579143591561191
20775530 9 17981602989650981690
21033650 10 16199870695493848533
221490 88 18340770458817744518
22182313 1 18131081424254410045
22224240 67 18045788883571669465
22393880 68 17703232931219903495
23557571 272 17632303367318724781
23559900 14 18059859505950059653
239999 70 18114453479209701895
25222932 49 17970912146732464391
312423 11 18187917421966418809
33824 294 18339079285369617217
3421961 26 18411697694989073631
345986 75 17894905269961657777
46194498 28 17131260256721681215
463206 1 18343014468073204619
5486654 36 18192704777224365179
621550 34 18340212869147655965
6669772 16 18263643962369550844
6673363 416 18046056328473150134
7288768 16 16594530223327266352
7399639 24 18270127807686363581
7970288 3 18193272116556443503
9709674 26 18270412701488423973

> <PUBCHEM_SHAPE_MULTIPOLES>
484.01
9.91
4.22
1.34
13.91
0.09
-0.03
7.16
0.43
-5.71
1.27
0.23
-0.48
1.56

> <PUBCHEM_SHAPE_SELFOVERLAP>
1033.64

> <PUBCHEM_SHAPE_VOLUME>
268

> <PUBCHEM_COORDINATE_TYPE>
2
5
10

$$$$

