17396164
  -OEChem-06241222553D

 45 48  0     1  0  0  0  0  0999 V2000
   -0.0101    2.9262    0.1998 S   0  0  0  0  0  0  0  0  0  0  0  0
   -1.6714    1.5626   -2.1031 O   0  0  0  0  0  0  0  0  0  0  0  0
   -2.4778    0.2607   -0.3596 N   0  0  0  0  0  0  0  0  0  0  0  0
    1.4295    0.6455    0.8274 N   0  0  0  0  0  0  0  0  0  0  0  0
    0.7553    0.2057    2.8030 N   0  0  0  0  0  0  0  0  0  0  0  0
    2.4466   -1.1745    1.5839 N   0  0  0  0  0  0  0  0  0  0  0  0
    0.0730    1.3530    2.4069 N   0  0  0  0  0  0  0  0  0  0  0  0
   -2.7182   -0.9363   -1.1346 C   0  0  0  0  0  0  0  0  0  0  0  0
   -1.4625   -1.8122   -1.1988 C   0  0  0  0  0  0  0  0  0  0  0  0
   -3.9141   -1.7193   -0.5824 C   0  0  0  0  0  0  0  0  0  0  0  0
   -1.1551   -2.4925    0.1352 C   0  0  0  0  0  0  0  0  0  0  0  0
   -3.6027   -2.3996    0.7507 C   0  0  0  0  0  0  0  0  0  0  0  0
   -2.3561   -3.2743    0.6587 C   0  0  0  0  0  0  0  0  0  0  0  0
   -1.9678    1.4241   -0.9179 C   0  0  0  0  0  0  0  0  0  0  0  0
   -1.7878    2.5322    0.1094 C   0  0  2  0  0  0  0  0  0  0  0  0
   -2.5732    3.7819   -0.2667 C   0  0  0  0  0  0  0  0  0  0  0  0
    0.5046    1.5990    1.1954 C   0  0  0  0  0  0  0  0  0  0  0  0
    2.2385    0.2822   -0.2029 C   0  0  0  0  0  0  0  0  0  0  0  0
    1.5848   -0.2312    1.8444 C   0  0  0  0  0  0  0  0  0  0  0  0
    2.8721   -0.8699    0.2962 C   0  0  0  0  0  0  0  0  0  0  0  0
    2.4928    0.7978   -1.4749 C   0  0  0  0  0  0  0  0  0  0  0  0
    3.8050   -1.5396   -0.5149 C   0  0  0  0  0  0  0  0  0  0  0  0
    3.4247    0.1123   -2.2618 C   0  0  0  0  0  0  0  0  0  0  0  0
    4.0697   -1.0340   -1.7931 C   0  0  0  0  0  0  0  0  0  0  0  0
   -2.9626   -0.6181   -2.1558 H   0  0  0  0  0  0  0  0  0  0  0  0
   -0.5946   -1.2194   -1.5112 H   0  0  0  0  0  0  0  0  0  0  0  0
   -1.6077   -2.5867   -1.9628 H   0  0  0  0  0  0  0  0  0  0  0  0
   -4.2041   -2.4876   -1.3106 H   0  0  0  0  0  0  0  0  0  0  0  0
   -4.7789   -1.0562   -0.4586 H   0  0  0  0  0  0  0  0  0  0  0  0
   -0.2991   -3.1662    0.0159 H   0  0  0  0  0  0  0  0  0  0  0  0
   -0.8657   -1.7384    0.8754 H   0  0  0  0  0  0  0  0  0  0  0  0
   -4.4580   -3.0144    1.0539 H   0  0  0  0  0  0  0  0  0  0  0  0
   -3.4654   -1.6463    1.5353 H   0  0  0  0  0  0  0  0  0  0  0  0
   -2.1238   -3.6902    1.6455 H   0  0  0  0  0  0  0  0  0  0  0  0
   -2.5554   -4.1234   -0.0066 H   0  0  0  0  0  0  0  0  0  0  0  0
   -2.6299    0.2196    0.6434 H   0  0  0  0  0  0  0  0  0  0  0  0
   -2.1342    2.2090    1.0966 H   0  0  0  0  0  0  0  0  0  0  0  0
   -3.6423    3.5499   -0.3324 H   0  0  0  0  0  0  0  0  0  0  0  0
   -2.2728    4.1772   -1.2440 H   0  0  0  0  0  0  0  0  0  0  0  0
   -2.4504    4.5732    0.4807 H   0  0  0  0  0  0  0  0  0  0  0  0
    0.5993   -0.2026    3.7168 H   0  0  0  0  0  0  0  0  0  0  0  0
    1.9966    1.6858   -1.8481 H   0  0  0  0  0  0  0  0  0  0  0  0
    4.3123   -2.4318   -0.1616 H   0  0  0  0  0  0  0  0  0  0  0  0
    3.6507    0.4809   -3.2595 H   0  0  0  0  0  0  0  0  0  0  0  0
    4.7886   -1.5428   -2.4302 H   0  0  0  0  0  0  0  0  0  0  0  0
  1 15  1  0  0  0  0
  1 17  1  0  0  0  0
  2 14  2  0  0  0  0
  3  8  1  0  0  0  0
  3 14  1  0  0  0  0
  3 36  1  0  0  0  0
  4 17  1  0  0  0  0
  4 18  1  0  0  0  0
  4 19  1  0  0  0  0
  5  7  1  0  0  0  0
  5 19  1  0  0  0  0
  5 41  1  0  0  0  0
  6 19  2  0  0  0  0
  6 20  1  0  0  0  0
  7 17  2  0  0  0  0
  8  9  1  0  0  0  0
  8 10  1  0  0  0  0
  8 25  1  0  0  0  0
  9 11  1  0  0  0  0
  9 26  1  0  0  0  0
  9 27  1  0  0  0  0
 10 12  1  0  0  0  0
 10 28  1  0  0  0  0
 10 29  1  0  0  0  0
 11 13  1  0  0  0  0
 11 30  1  0  0  0  0
 11 31  1  0  0  0  0
 12 13  1  0  0  0  0
 12 32  1  0  0  0  0
 12 33  1  0  0  0  0
 13 34  1  0  0  0  0
 13 35  1  0  0  0  0
 14 15  1  0  0  0  0
 15 16  1  0  0  0  0
 15 37  1  0  0  0  0
 16 38  1  0  0  0  0
 16 39  1  0  0  0  0
 16 40  1  0  0  0  0
 18 20  1  0  0  0  0
 18 21  2  0  0  0  0
 20 22  2  0  0  0  0
 21 23  1  0  0  0  0
 21 42  1  0  0  0  0
 22 24  1  0  0  0  0
 22 43  1  0  0  0  0
 23 24  2  0  0  0  0
 23 44  1  0  0  0  0
 24 45  1  0  0  0  0
M  END
> <PUBCHEM_COMPOUND_CID>
17396164

> <PUBCHEM_CONFORMER_RMSD>
0.8

> <PUBCHEM_CONFORMER_DIVERSEORDER>
1
221
138
136
134
106
17
104
223
244
117
44
25
167
207
37
4
143
199
103
139
109
112
114
41
183
150
144
50
115
208
2
191
258
161
189
184
87
252
230
164
157
168
216
66
156
14
163
125
240
256
89
52
60
141
128
178
36
77
181
188
229
95
46
232
217
131
35
54
49
71
145
76
132
173
137
123
63
146
195
162
111
30
118
96
33
155
206
13
171
255
127
55
179
148
238
130
234
205
226
248
147
159
182
152
31
211
107
176
126
224
153
98
249
246
3
169
210
88
253
251
215
121
166
20
23
53
200
175
242
47
201
187
19
257
6
42
237
81
254
213
48
135
80
160
79
102
185
83
90
133
73
222
225
239
10
235
140
11
113
61
67
40
124
101
149
70
5
197
245
8
129
69
142
233
190
174
202
192
194
94
154
82
198
122
220
119
64
7
22
57
18
158
75
59
78
74
120
219
203
26
34
172
65
236
209
227
105
85
38
39
196
68
170
241
16
72
193
247
99
29
97
214
93
186
165
9
21
43
84
58
228
108
86
91
177
56
45
259
32
62
250
51
100
212
243
12
180
151
28
27
231
24
15
92
204
218
116
110

> <PUBCHEM_MMFF94_PARTIAL_CHARGES>
24
1 -0.37
14 0.57
15 0.29
17 0.6
18 -0.15
19 0.27
2 -0.57
20 0.23
21 -0.15
22 -0.15
23 -0.15
24 -0.15
3 -0.73
36 0.37
4 0.29
41 0.4
42 0.15
43 0.15
44 0.15
45 0.15
5 -0.44
6 -0.57
7 -0.49
8 0.3

> <PUBCHEM_EFFECTIVE_ROTOR_COUNT>
6.2

> <PUBCHEM_PHARMACOPHORE_FEATURES>
9
1 16 hydrophobe
1 2 acceptor
1 3 donor
1 5 donor
4 4 5 6 19 cation
5 4 5 7 17 19 rings
5 4 6 18 19 20 rings
6 18 20 21 22 23 24 rings
6 8 9 10 11 12 13 rings

> <PUBCHEM_HEAVY_ATOM_COUNT>
24

> <PUBCHEM_ATOM_DEF_STEREO_COUNT>
0

> <PUBCHEM_ATOM_UDEF_STEREO_COUNT>
1

> <PUBCHEM_BOND_DEF_STEREO_COUNT>
0

> <PUBCHEM_BOND_UDEF_STEREO_COUNT>
0

> <PUBCHEM_ISOTOPIC_ATOM_COUNT>
0

> <PUBCHEM_COMPONENT_COUNT>
1

> <PUBCHEM_CACTVS_TAUTO_COUNT>
4

> <PUBCHEM_CONFORMER_ID>
010971C400000001

> <PUBCHEM_MMFF94_ENERGY>
54.054

> <PUBCHEM_FEATURE_SELFOVERLAP>
46.11

> <PUBCHEM_SHAPE_FINGERPRINT>
10764073 3 5539355407848398398
107951 10 17902784494608561877
11140007 195 17531511093524464227
11244481 83 17758387479184099343
11578080 2 17968088707924771312
12539773 59 17700949275127596660
12553582 1 18339925918229547887
12714826 92 18187074066198320086
12788726 201 18342737438260284631
13009979 54 17916044510382038346
14022347 108 18269570372691976353
14251740 79 17972581458564945990
14251751 93 18200020892893067279
14932701 244 18267285561770762716
15664445 248 17343230619294565605
16752209 62 18198644257660027527
20397935 3 18339659861953139382
20429585 67 17898834765669348924
20645476 183 18124310768578134117
23419403 2 17385738988759627722
23557571 272 18336276677776009864
238 59 15195572273151250806
35225 105 16738004705255706261
484985 159 16807829186977898966
5283178 26 17385990742014524103
6287921 2 16967439401613807851

> <PUBCHEM_SHAPE_MULTIPOLES>
466.98
6.62
3.9
2.21
1.87
1.68
0.66
-4.22
-2.93
-4.43
0.12
1.38
0.23
0.66

> <PUBCHEM_SHAPE_SELFOVERLAP>
995.895

> <PUBCHEM_SHAPE_VOLUME>
262.9

> <PUBCHEM_COORDINATE_TYPE>
2
5
10

$$$$

