17395585
  -OEChem-06241222513D

 29 29  0     1  0  0  0  0  0999 V2000
    2.2089    1.0846    0.4440 S   0  0  0  0  0  0  0  0  0  0  0  0
   -0.7506    1.7605    0.2109 S   0  0  0  0  0  0  0  0  0  0  0  0
    5.3662    0.1802   -0.5068 O   0  0  0  0  0  0  0  0  0  0  0  0
   -3.1624    0.6131    0.0609 N   0  0  0  0  0  0  0  0  0  0  0  0
   -1.2256   -0.7572    0.2349 N   0  0  0  0  0  0  0  0  0  0  0  0
    0.1495   -0.6356    0.3331 N   0  0  0  0  0  0  0  0  0  0  0  0
    4.6320   -1.0726    1.2729 N   0  0  0  0  0  0  0  0  0  0  0  0
   -4.1362   -0.4509    0.0140 C   0  0  0  0  0  0  0  0  0  0  0  0
   -5.5424    0.1116   -0.1649 C   0  0  0  0  0  0  0  0  0  0  0  0
    3.0026   -0.3343   -0.3578 C   0  0  1  0  0  0  0  0  0  0  0  0
   -6.6044   -0.9745   -0.2656 C   0  0  0  0  0  0  0  0  0  0  0  0
   -1.8157    0.4169    0.1643 C   0  0  0  0  0  0  0  0  0  0  0  0
    2.8986   -0.1944   -1.8709 C   0  0  0  0  0  0  0  0  0  0  0  0
    0.5290    0.6245    0.3315 C   0  0  0  0  0  0  0  0  0  0  0  0
    4.4507   -0.3719    0.0994 C   0  0  0  0  0  0  0  0  0  0  0  0
   -4.0895   -1.0366    0.9398 H   0  0  0  0  0  0  0  0  0  0  0  0
   -3.9049   -1.1260   -0.8187 H   0  0  0  0  0  0  0  0  0  0  0  0
   -5.5807    0.7303   -1.0701 H   0  0  0  0  0  0  0  0  0  0  0  0
   -5.7850    0.7733    0.6757 H   0  0  0  0  0  0  0  0  0  0  0  0
    2.5292   -1.2735   -0.0507 H   0  0  0  0  0  0  0  0  0  0  0  0
   -3.5164    1.5653    0.0182 H   0  0  0  0  0  0  0  0  0  0  0  0
   -6.6205   -1.5896    0.6397 H   0  0  0  0  0  0  0  0  0  0  0  0
   -7.5950   -0.5265   -0.3913 H   0  0  0  0  0  0  0  0  0  0  0  0
   -6.4143   -1.6283   -1.1226 H   0  0  0  0  0  0  0  0  0  0  0  0
    3.3531    0.7350   -2.2337 H   0  0  0  0  0  0  0  0  0  0  0  0
    3.4264   -1.0194   -2.3634 H   0  0  0  0  0  0  0  0  0  0  0  0
    1.8579   -0.2246   -2.2110 H   0  0  0  0  0  0  0  0  0  0  0  0
    3.8635   -1.5117    1.7697 H   0  0  0  0  0  0  0  0  0  0  0  0
    5.5540   -1.1677    1.6856 H   0  0  0  0  0  0  0  0  0  0  0  0
  1 10  1  0  0  0  0
  1 14  1  0  0  0  0
  2 12  1  0  0  0  0
  2 14  1  0  0  0  0
  3 15  2  0  0  0  0
  4  8  1  0  0  0  0
  4 12  1  0  0  0  0
  4 21  1  0  0  0  0
  5  6  1  0  0  0  0
  5 12  2  0  0  0  0
  6 14  2  0  0  0  0
  7 15  1  0  0  0  0
  7 28  1  0  0  0  0
  7 29  1  0  0  0  0
  8  9  1  0  0  0  0
  8 16  1  0  0  0  0
  8 17  1  0  0  0  0
  9 11  1  0  0  0  0
  9 18  1  0  0  0  0
  9 19  1  0  0  0  0
 10 13  1  0  0  0  0
 10 15  1  0  0  0  0
 10 20  1  0  0  0  0
 11 22  1  0  0  0  0
 11 23  1  0  0  0  0
 11 24  1  0  0  0  0
 13 25  1  0  0  0  0
 13 26  1  0  0  0  0
 13 27  1  0  0  0  0
M  END
> <PUBCHEM_COMPOUND_CID>
17395585

> <PUBCHEM_CONFORMER_RMSD>
1

> <PUBCHEM_CONFORMER_DIVERSEORDER>
1
32
86
91
25
83
65
7
35
2
87
95
40
93
62
61
48
77
68
18
72
85
43
64
54
71
52
63
81
45
15
79
26
28
88
82
16
92
51
19
49
58
42
75
84
50
29
37
78
73
11
90
55
60
36
24
9
17
67
70
27
13
14
10
66
20
80
89
8
46
34
53
31
59
5
69
30
56
44
33
6
47
23
3
38
76
21
12
57
94
74
22
39
41
4

> <PUBCHEM_MMFF94_PARTIAL_CHARGES>
15
1 -0.29
10 0.29
12 0.46
14 0.43
15 0.57
2 -0.08
21 0.4
28 0.37
29 0.37
3 -0.57
4 -0.85
5 -0.34
6 -0.34
7 -0.8
8 0.37

> <PUBCHEM_EFFECTIVE_ROTOR_COUNT>
6

> <PUBCHEM_PHARMACOPHORE_FEATURES>
8
1 11 hydrophobe
1 13 hydrophobe
1 3 acceptor
1 4 donor
1 6 acceptor
1 7 donor
3 4 5 12 cation
5 2 5 6 12 14 rings

> <PUBCHEM_HEAVY_ATOM_COUNT>
15

> <PUBCHEM_ATOM_DEF_STEREO_COUNT>
0

> <PUBCHEM_ATOM_UDEF_STEREO_COUNT>
1

> <PUBCHEM_BOND_DEF_STEREO_COUNT>
0

> <PUBCHEM_BOND_UDEF_STEREO_COUNT>
0

> <PUBCHEM_ISOTOPIC_ATOM_COUNT>
0

> <PUBCHEM_COMPONENT_COUNT>
1

> <PUBCHEM_CACTVS_TAUTO_COUNT>
4

> <PUBCHEM_CONFORMER_ID>
01096F8100000001

> <PUBCHEM_MMFF94_ENERGY>
16.5775

> <PUBCHEM_FEATURE_SELFOVERLAP>
40.594

> <PUBCHEM_SHAPE_FINGERPRINT>
100836 57 9799691515073245113
10354089 29 5256402803737859482
117890 112 9727640509731608943
12236239 1 17846781827498565841
12596602 18 5184060457753079127
12714333 28 14908184144581653205
12815109 37 18333449837622873020
13533116 47 18130793399431714522
13690532 89 18342177777771855233
13862211 1 18410016533283929891
14115302 16 17917703583312821938
14123238 8 17748826323536870472
1420 363 17167859764140657583
14251740 57 17969784270903658654
14251752 14 17845945129779264445
14252887 29 17095234848088768374
14911166 2 18272368655338218265
15048467 5 10952052256012892975
17834072 33 17530685368655092113
17834076 25 14490190509757530004
18186145 218 13758074047882764717
187816 3 18059853969811061361
19141452 34 17313388890195217287
200 152 18131634499666560801
20369508 70 18411705374454091016
20374829 77 18409169905067022073
20605781 2 10879992454066200295
20645477 70 18113051627659352868
21267235 1 18335133181582989843
22079108 93 14923955539323109918
22224240 67 16660655042327729526
23402539 116 18260834817091562741
23536379 177 16989127569403574029
23557571 272 17749944565770628228
23559900 14 18341613646829275056
293599 30 10664104458771016033
42788 4 18409449185173058673
4340502 62 15140961742433856525
4463277 17 18408603660821262137
465052 167 18333730204155389942
4990 188 18261107483063722149
522135 26 15339123446332759848
633830 44 12823003167280525267

> <PUBCHEM_SHAPE_MULTIPOLES>
290.6
13.64
1.24
1
12.22
0.44
0.24
-5.08
0.3
0.18
-0.04
-1.28
-0.23
-0.05

> <PUBCHEM_SHAPE_SELFOVERLAP>
548.182

> <PUBCHEM_SHAPE_VOLUME>
181.2

> <PUBCHEM_COORDINATE_TYPE>
2
5
10

$$$$

