13632
  -OEChem-06241222392D

 25 25  0     0  0  0  0  0  0999 V2000
    5.2597   -1.5111    0.0000 O   0  0  0  0  0  0  0  0  0  0  0  0
    4.8356    0.0714    0.0000 N   0  0  0  0  0  0  0  0  0  0  0  0
    2.0000    0.5714    0.0000 C   0  0  0  0  0  0  0  0  0  0  0  0
    2.6428    1.3374    0.0000 C   0  0  0  0  0  0  0  0  0  0  0  0
    2.0000   -0.4286    0.0000 C   0  0  0  0  0  0  0  0  0  0  0  0
    3.6276    1.5111    0.0000 C   0  0  0  0  0  0  0  0  0  0  0  0
    2.6428   -1.1946    0.0000 C   0  0  0  0  0  0  0  0  0  0  0  0
    4.4936    1.0111    0.0000 C   0  0  0  0  0  0  0  0  0  0  0  0
    3.6276   -1.3683    0.0000 C   0  0  0  0  0  0  0  0  0  0  0  0
    4.4936   -0.8683    0.0000 C   0  0  0  0  0  0  0  0  0  0  0  0
    1.6593    1.0894    0.0000 H   0  0  0  0  0  0  0  0  0  0  0  0
    1.4060    0.3936    0.0000 H   0  0  0  0  0  0  0  0  0  0  0  0
    2.7148    1.9532    0.0000 H   0  0  0  0  0  0  0  0  0  0  0  0
    2.0735    1.5830    0.0000 H   0  0  0  0  0  0  0  0  0  0  0  0
    1.4060   -0.2508    0.0000 H   0  0  0  0  0  0  0  0  0  0  0  0
    1.6593   -0.9466    0.0000 H   0  0  0  0  0  0  0  0  0  0  0  0
    4.0786    1.9366    0.0000 H   0  0  0  0  0  0  0  0  0  0  0  0
    3.3493    2.0651    0.0000 H   0  0  0  0  0  0  0  0  0  0  0  0
    2.0735   -1.4402    0.0000 H   0  0  0  0  0  0  0  0  0  0  0  0
    2.7148   -1.8105    0.0000 H   0  0  0  0  0  0  0  0  0  0  0  0
    5.1126    1.0471    0.0000 H   0  0  0  0  0  0  0  0  0  0  0  0
    4.6366    1.6144    0.0000 H   0  0  0  0  0  0  0  0  0  0  0  0
    3.3493   -1.9224    0.0000 H   0  0  0  0  0  0  0  0  0  0  0  0
    4.0786   -1.7938    0.0000 H   0  0  0  0  0  0  0  0  0  0  0  0
    5.4556    0.0714    0.0000 H   0  0  0  0  0  0  0  0  0  0  0  0
  1 10  2  0  0  0  0
  2  8  1  0  0  0  0
  2 10  1  0  0  0  0
  2 25  1  0  0  0  0
  3  4  1  0  0  0  0
  3  5  1  0  0  0  0
  3 11  1  0  0  0  0
  3 12  1  0  0  0  0
  4  6  1  0  0  0  0
  4 13  1  0  0  0  0
  4 14  1  0  0  0  0
  5  7  1  0  0  0  0
  5 15  1  0  0  0  0
  5 16  1  0  0  0  0
  6  8  1  0  0  0  0
  6 17  1  0  0  0  0
  6 18  1  0  0  0  0
  7  9  1  0  0  0  0
  7 19  1  0  0  0  0
  7 20  1  0  0  0  0
  8 21  1  0  0  0  0
  8 22  1  0  0  0  0
  9 10  1  0  0  0  0
  9 23  1  0  0  0  0
  9 24  1  0  0  0  0
M  END
> <PUBCHEM_COMPOUND_CID>
13632

> <PUBCHEM_COMPOUND_CANONICALIZED>
1

> <PUBCHEM_CACTVS_COMPLEXITY>
112

> <PUBCHEM_CACTVS_HBOND_ACCEPTOR>
1

> <PUBCHEM_CACTVS_HBOND_DONOR>
1

> <PUBCHEM_CACTVS_ROTATABLE_BOND>
0

> <PUBCHEM_CACTVS_SUBSKEYS>
AAADccByIAAAAAAAAAAAAAAAAAAAAAAAAAAAAAAAAAAAAFgAAAAAHgAQAAAACADBgAQAAALAAAAIAAEQEAAAAAAAAAAAAIEIAAAAABIAgAAEAAAAFgCAAAEYiICAAAAAAAAAAAAAAAAAAAAAAAAAAAAAAA==

> <PUBCHEM_IUPAC_OPENEYE_NAME>
azonan-2-one

> <PUBCHEM_IUPAC_CAS_NAME>
2-azonanone

> <PUBCHEM_IUPAC_NAME>
azonan-2-one

> <PUBCHEM_IUPAC_SYSTEMATIC_NAME>
azonan-2-one

> <PUBCHEM_IUPAC_TRADITIONAL_NAME>
azonan-2-one

> <PUBCHEM_IUPAC_INCHI>
InChI=1S/C8H15NO/c10-8-6-4-2-1-3-5-7-9-8/h1-7H2,(H,9,10)

> <PUBCHEM_IUPAC_INCHIKEY>
YDLSUFFXJYEVHW-UHFFFAOYSA-N

> <PUBCHEM_XLOGP3>
0.7

> <PUBCHEM_EXACT_MASS>
141.115364

> <PUBCHEM_MOLECULAR_FORMULA>
C8H15NO

> <PUBCHEM_MOLECULAR_WEIGHT>
141.2108

> <PUBCHEM_OPENEYE_CAN_SMILES>
C1CCCC(=O)NCCC1

> <PUBCHEM_OPENEYE_ISO_SMILES>
C1CCCC(=O)NCCC1

> <PUBCHEM_CACTVS_TPSA>
29.1

> <PUBCHEM_MONOISOTOPIC_WEIGHT>
141.115364

> <PUBCHEM_TOTAL_CHARGE>
0

> <PUBCHEM_HEAVY_ATOM_COUNT>
10

> <PUBCHEM_ATOM_DEF_STEREO_COUNT>
0

> <PUBCHEM_ATOM_UDEF_STEREO_COUNT>
0

> <PUBCHEM_BOND_DEF_STEREO_COUNT>
0

> <PUBCHEM_BOND_UDEF_STEREO_COUNT>
0

> <PUBCHEM_ISOTOPIC_ATOM_COUNT>
0

> <PUBCHEM_COMPONENT_COUNT>
1

> <PUBCHEM_CACTVS_TAUTO_COUNT>
3

> <PUBCHEM_COORDINATE_TYPE>
1
5
255

$$$$

