8234
  -OEChem-06261202402D

 19 18  0     1  0  0  0  0  0999 V2000
    8.2700    5.6200    0.0000 Na  0  3  0  0  0  0  0  0  0  0  0  0
    5.6720    4.1200    0.0000 O   0  0  0  0  0  0  0  0  0  0  0  0
    7.4040    5.1200    0.0000 O   0  5  0  0  0  0  0  0  0  0  0  0
    8.2700    3.6200    0.0000 O   0  0  0  0  0  0  0  0  0  0  0  0
    6.5380    2.6200    0.0000 C   0  0  0  0  0  0  0  0  0  0  0  0
    6.5380    3.6200    0.0000 C   0  0  3  0  0  0  0  0  0  0  0  0
    5.6720    2.1200    0.0000 C   0  0  0  0  0  0  0  0  0  0  0  0
    7.4040    2.1200    0.0000 C   0  0  0  0  0  0  0  0  0  0  0  0
    5.6720    1.1200    0.0000 C   0  0  0  0  0  0  0  0  0  0  0  0
    7.4040    1.1200    0.0000 C   0  0  0  0  0  0  0  0  0  0  0  0
    6.5380    0.6200    0.0000 C   0  0  0  0  0  0  0  0  0  0  0  0
    7.4040    4.1200    0.0000 C   0  0  0  0  0  0  0  0  0  0  0  0
    6.5380    4.2400    0.0000 H   0  0  0  0  0  0  0  0  0  0  0  0
    5.1350    2.4300    0.0000 H   0  0  0  0  0  0  0  0  0  0  0  0
    7.9409    2.4300    0.0000 H   0  0  0  0  0  0  0  0  0  0  0  0
    5.1350    0.8100    0.0000 H   0  0  0  0  0  0  0  0  0  0  0  0
    7.9409    0.8100    0.0000 H   0  0  0  0  0  0  0  0  0  0  0  0
    6.5380    0.0000    0.0000 H   0  0  0  0  0  0  0  0  0  0  0  0
    5.6720    4.7400    0.0000 H   0  0  0  0  0  0  0  0  0  0  0  0
  2  6  1  0  0  0  0
  2 19  1  0  0  0  0
  3 12  1  0  0  0  0
  4 12  2  0  0  0  0
  5  6  1  0  0  0  0
  5  7  2  0  0  0  0
  5  8  1  0  0  0  0
  6 12  1  0  0  0  0
  6 13  1  0  0  0  0
  7  9  1  0  0  0  0
  7 14  1  0  0  0  0
  8 10  2  0  0  0  0
  8 15  1  0  0  0  0
  9 11  2  0  0  0  0
  9 16  1  0  0  0  0
 10 11  1  0  0  0  0
 10 17  1  0  0  0  0
 11 18  1  0  0  0  0
M  CHG  2   1   1   3  -1
M  END
> <PUBCHEM_COMPOUND_CID>
8234

> <PUBCHEM_COMPOUND_CANONICALIZED>
1

> <PUBCHEM_CACTVS_COMPLEXITY>
133

> <PUBCHEM_CACTVS_HBOND_ACCEPTOR>
3

> <PUBCHEM_CACTVS_HBOND_DONOR>
1

> <PUBCHEM_CACTVS_ROTATABLE_BOND>
1

> <PUBCHEM_CACTVS_SUBSKEYS>
AAADcYBwMCAAAAAAAAAAAAAAAAAAAAAAAAAwAAAAAAAAAAABAAAAGgAACAAADBSgmAIwCIAAAgCIAiDSCAICAAAgAAAIiAFACIgJNjKAFRCAcAAkwAEJmAeIyKCOAAAAAAAAAAAAAAAAAAAAAAAAAAAAAA==

> <PUBCHEM_IUPAC_OPENEYE_NAME>
sodium 2-hydroxy-2-phenyl-acetate

> <PUBCHEM_IUPAC_CAS_NAME>
sodium 2-hydroxy-2-phenylacetate

> <PUBCHEM_IUPAC_NAME>
sodium 2-hydroxy-2-phenylacetate

> <PUBCHEM_IUPAC_SYSTEMATIC_NAME>
sodium 2-oxidanyl-2-phenyl-ethanoate

> <PUBCHEM_IUPAC_TRADITIONAL_NAME>
sodium 2-hydroxy-2-phenyl-acetate

> <PUBCHEM_IUPAC_INCHI>
InChI=1S/C8H8O3.Na/c9-7(8(10)11)6-4-2-1-3-5-6;/h1-5,7,9H,(H,10,11);/q;+1/p-1

> <PUBCHEM_IUPAC_INCHIKEY>
FWDLHTBMGQEUDU-UHFFFAOYSA-M

> <PUBCHEM_EXACT_MASS>
174.029288

> <PUBCHEM_MOLECULAR_FORMULA>
C8H7NaO3

> <PUBCHEM_MOLECULAR_WEIGHT>
174.129149

> <PUBCHEM_OPENEYE_CAN_SMILES>
C1=CC=C(C=C1)C(C(=O)[O-])O.[Na+]

> <PUBCHEM_OPENEYE_ISO_SMILES>
C1=CC=C(C=C1)C(C(=O)[O-])O.[Na+]

> <PUBCHEM_CACTVS_TPSA>
60.4

> <PUBCHEM_MONOISOTOPIC_WEIGHT>
174.029288

> <PUBCHEM_TOTAL_CHARGE>
0

> <PUBCHEM_HEAVY_ATOM_COUNT>
12

> <PUBCHEM_ATOM_DEF_STEREO_COUNT>
0

> <PUBCHEM_ATOM_UDEF_STEREO_COUNT>
1

> <PUBCHEM_BOND_DEF_STEREO_COUNT>
0

> <PUBCHEM_BOND_UDEF_STEREO_COUNT>
0

> <PUBCHEM_ISOTOPIC_ATOM_COUNT>
0

> <PUBCHEM_COMPONENT_COUNT>
2

> <PUBCHEM_CACTVS_TAUTO_COUNT>
1

> <PUBCHEM_COORDINATE_TYPE>
1
5
255

> <PUBCHEM_BONDANNOTATIONS>
10  11  8
6  5  3
5  7  8
5  8  8
7  9  8
8  10  8
9  11  8

$$$$

