12147
  -OEChem-06261206353D

 19 19  0     0  0  0  0  0  0999 V2000
    4.4969    0.5117    0.0002 I   0  0  0  0  0  0  0  0  0  0  0  0
   -2.6388    1.4362   -0.0016 O   0  0  0  0  0  0  0  0  0  0  0  0
   -1.6465   -0.7024   -0.0001 N   0  0  0  0  0  0  0  0  0  0  0  0
   -0.2778   -0.4323   -0.0005 C   0  0  0  0  0  0  0  0  0  0  0  0
    0.1721    0.8879    0.0002 C   0  0  0  0  0  0  0  0  0  0  0  0
    0.6406   -1.4822   -0.0007 C   0  0  0  0  0  0  0  0  0  0  0  0
    1.5405    1.1583    0.0005 C   0  0  0  0  0  0  0  0  0  0  0  0
    2.0090   -1.2117   -0.0002 C   0  0  0  0  0  0  0  0  0  0  0  0
    2.4590    0.1085    0.0004 C   0  0  0  0  0  0  0  0  0  0  0  0
   -2.7088    0.2115    0.0009 C   0  0  0  0  0  0  0  0  0  0  0  0
   -4.0462   -0.4856    0.0010 C   0  0  0  0  0  0  0  0  0  0  0  0
   -0.4772    1.7522    0.0008 H   0  0  0  0  0  0  0  0  0  0  0  0
    0.3040   -2.5159   -0.0010 H   0  0  0  0  0  0  0  0  0  0  0  0
   -1.8943   -1.6898   -0.0002 H   0  0  0  0  0  0  0  0  0  0  0  0
    1.8710    2.1941    0.0010 H   0  0  0  0  0  0  0  0  0  0  0  0
    2.7076   -2.0446   -0.0004 H   0  0  0  0  0  0  0  0  0  0  0  0
   -4.1496   -1.0860   -0.9072 H   0  0  0  0  0  0  0  0  0  0  0  0
   -4.8502    0.2550    0.0313 H   0  0  0  0  0  0  0  0  0  0  0  0
   -4.1275   -1.1329    0.8787 H   0  0  0  0  0  0  0  0  0  0  0  0
  1  9  1  0  0  0  0
  2 10  2  0  0  0  0
  3  4  1  0  0  0  0
  3 10  1  0  0  0  0
  3 14  1  0  0  0  0
  4  5  2  0  0  0  0
  4  6  1  0  0  0  0
  5  7  1  0  0  0  0
  5 12  1  0  0  0  0
  6  8  2  0  0  0  0
  6 13  1  0  0  0  0
  7  9  2  0  0  0  0
  7 15  1  0  0  0  0
  8  9  1  0  0  0  0
  8 16  1  0  0  0  0
 10 11  1  0  0  0  0
 11 17  1  0  0  0  0
 11 18  1  0  0  0  0
 11 19  1  0  0  0  0
M  END
> <PUBCHEM_COMPOUND_CID>
12147

> <PUBCHEM_CONFORMER_RMSD>
0.4

> <PUBCHEM_CONFORMER_DIVERSEORDER>
1
2

> <PUBCHEM_MMFF94_PARTIAL_CHARGES>
16
1 -0.08
10 0.57
11 0.06
12 0.15
13 0.15
14 0.37
15 0.15
16 0.15
2 -0.57
3 -0.55
4 0.12
5 -0.15
6 -0.15
7 -0.15
8 -0.15
9 0.08

> <PUBCHEM_EFFECTIVE_ROTOR_COUNT>
2

> <PUBCHEM_PHARMACOPHORE_FEATURES>
4
1 1 hydrophobe
1 2 acceptor
1 3 donor
6 4 5 6 7 8 9 rings

> <PUBCHEM_HEAVY_ATOM_COUNT>
11

> <PUBCHEM_ATOM_DEF_STEREO_COUNT>
0

> <PUBCHEM_ATOM_UDEF_STEREO_COUNT>
0

> <PUBCHEM_BOND_DEF_STEREO_COUNT>
0

> <PUBCHEM_BOND_UDEF_STEREO_COUNT>
0

> <PUBCHEM_ISOTOPIC_ATOM_COUNT>
0

> <PUBCHEM_COMPONENT_COUNT>
1

> <PUBCHEM_CACTVS_TAUTO_COUNT>
2

> <PUBCHEM_CONFORMER_ID>
00002F7300000001

> <PUBCHEM_MMFF94_ENERGY>
28.7972

> <PUBCHEM_FEATURE_SELFOVERLAP>
20.297

> <PUBCHEM_SHAPE_FINGERPRINT>
10219947 1 18060137635205203580
11062470 55 14345790539490500744
11401426 45 18334581218066214876
12032990 46 18409442618120713774
12932764 1 17168157749024303911
13380535 76 18412543189303096634
14144814 61 18410575114928316715
14325111 11 18410575110432941153
14993402 34 18113902649817513502
15775835 57 18260828185345306125
16945 1 18410575063357164422
18522853 276 18408322185612313017
193761 8 17689998929899483588
200 152 18260557706038787391
20201158 50 18341893000065514243
20645477 70 18337960111740750263
21293036 1 18333728009748588628
22485316 2 8790888467186556500
23235685 24 18411424994741208040
23402539 116 18339651057523481391
23402655 69 18335993055531786277
3248919 1 16916773115642079307
366044 4 18410293580239048546
4990 188 17967805064199896654
528886 8 18410297990880194362
53812653 166 18334862688748029968

> <PUBCHEM_SHAPE_MULTIPOLES>
227.46
7.37
1.4
0.63
0.15
0.08
0
-1.08
0
-0.09
0
-0.17
0
0

> <PUBCHEM_SHAPE_SELFOVERLAP>
445.555

> <PUBCHEM_SHAPE_VOLUME>
139.6

> <PUBCHEM_COORDINATE_TYPE>
2
5
10

$$$$

