47205749
  -OEChem-06241223002D

 31 32  0     0  0  0  0  0  0999 V2000
    2.0000   -2.3080    0.0000 F   0  0  0  0  0  0  0  0  0  0  0  0
    4.5981   -0.8080    0.0000 O   0  0  0  0  0  0  0  0  0  0  0  0
    7.9128    2.5284    0.0000 O   0  0  0  0  0  0  0  0  0  0  0  0
    6.3301    0.1920    0.0000 O   0  0  0  0  0  0  0  0  0  0  0  0
    3.7320    0.6920    0.0000 O   0  0  0  0  0  0  0  0  0  0  0  0
    5.4641    1.6920    0.0000 N   0  0  0  0  0  0  0  0  0  0  0  0
    7.2437    1.7853    0.0000 N   0  0  0  0  0  0  0  0  0  0  0  0
    3.7320   -2.3080    0.0000 C   0  0  0  0  0  0  0  0  0  0  0  0
    3.7320   -1.3080    0.0000 C   0  0  0  0  0  0  0  0  0  0  0  0
    2.8660   -2.8080    0.0000 C   0  0  0  0  0  0  0  0  0  0  0  0
    4.5981   -2.8080    0.0000 C   0  0  0  0  0  0  0  0  0  0  0  0
    6.3301    2.1920    0.0000 C   0  0  0  0  0  0  0  0  0  0  0  0
    7.4128    3.3944    0.0000 C   0  0  0  0  0  0  0  0  0  0  0  0
    2.8660   -3.8080    0.0000 C   0  0  0  0  0  0  0  0  0  0  0  0
    4.5981   -3.8080    0.0000 C   0  0  0  0  0  0  0  0  0  0  0  0
    6.4347    3.1865    0.0000 C   0  0  0  0  0  0  0  0  0  0  0  0
    3.7320   -4.3080    0.0000 C   0  0  0  0  0  0  0  0  0  0  0  0
    5.4641    0.6920    0.0000 C   0  0  0  0  0  0  0  0  0  0  0  0
    4.5981    0.1920    0.0000 C   0  0  0  0  0  0  0  0  0  0  0  0
    7.8195    4.3080    0.0000 C   0  0  0  0  0  0  0  0  0  0  0  0
    3.5200   -0.7254    0.0000 H   0  0  0  0  0  0  0  0  0  0  0  0
    3.1215   -1.4156    0.0000 H   0  0  0  0  0  0  0  0  0  0  0  0
    5.1350   -2.4980    0.0000 H   0  0  0  0  0  0  0  0  0  0  0  0
    5.9739    3.6014    0.0000 H   0  0  0  0  0  0  0  0  0  0  0  0
    2.3291   -4.1180    0.0000 H   0  0  0  0  0  0  0  0  0  0  0  0
    5.1350   -4.1180    0.0000 H   0  0  0  0  0  0  0  0  0  0  0  0
    3.7320   -4.9280    0.0000 H   0  0  0  0  0  0  0  0  0  0  0  0
    4.9272    2.0020    0.0000 H   0  0  0  0  0  0  0  0  0  0  0  0
    8.3859    4.0558    0.0000 H   0  0  0  0  0  0  0  0  0  0  0  0
    8.0717    4.8744    0.0000 H   0  0  0  0  0  0  0  0  0  0  0  0
    7.2531    4.5602    0.0000 H   0  0  0  0  0  0  0  0  0  0  0  0
  1 10  1  0  0  0  0
  2  9  1  0  0  0  0
  2 19  1  0  0  0  0
  3  7  1  0  0  0  0
  3 13  1  0  0  0  0
  4 18  2  0  0  0  0
  5 19  2  0  0  0  0
  6 12  1  0  0  0  0
  6 18  1  0  0  0  0
  6 28  1  0  0  0  0
  7 12  2  0  0  0  0
  8  9  1  0  0  0  0
  8 10  1  0  0  0  0
  8 11  2  0  0  0  0
  9 21  1  0  0  0  0
  9 22  1  0  0  0  0
 10 14  2  0  0  0  0
 11 15  1  0  0  0  0
 11 23  1  0  0  0  0
 12 16  1  0  0  0  0
 13 16  2  0  0  0  0
 13 20  1  0  0  0  0
 14 17  1  0  0  0  0
 14 25  1  0  0  0  0
 15 17  2  0  0  0  0
 15 26  1  0  0  0  0
 16 24  1  0  0  0  0
 17 27  1  0  0  0  0
 18 19  1  0  0  0  0
 20 29  1  0  0  0  0
 20 30  1  0  0  0  0
 20 31  1  0  0  0  0
M  END
> <PUBCHEM_COMPOUND_CID>
47205749

> <PUBCHEM_COMPOUND_CANONICALIZED>
1

> <PUBCHEM_CACTVS_COMPLEXITY>
366

> <PUBCHEM_CACTVS_HBOND_ACCEPTOR>
6

> <PUBCHEM_CACTVS_HBOND_DONOR>
1

> <PUBCHEM_CACTVS_ROTATABLE_BOND>
5

> <PUBCHEM_CACTVS_SUBSKEYS>
AAADccBzOQAAAAAAAAAAAAAAAAAAAWAAAAAwAAAAAAAAAAABwAAAHwAUAAAADAShmgozvJLQBACpAqPyegKCAAAlIgApmCH2bNqKJirAubyHMIhm1QvY6EeAwCAOAAAAAAAAAAAAAAAAAAAAAAAAAAAAAA==

> <PUBCHEM_IUPAC_OPENEYE_NAME>
(2-fluorophenyl)methyl 2-[(5-methylisoxazol-3-yl)amino]-2-oxo-acetate

> <PUBCHEM_IUPAC_CAS_NAME>
2-[(5-methyl-3-isoxazolyl)amino]-2-oxoacetic acid (2-fluorophenyl)methyl ester

> <PUBCHEM_IUPAC_NAME>
(2-fluorophenyl)methyl 2-[(5-methyl-1,2-oxazol-3-yl)amino]-2-oxoacetate

> <PUBCHEM_IUPAC_SYSTEMATIC_NAME>
(2-fluorophenyl)methyl 2-[(5-methyl-1,2-oxazol-3-yl)amino]-2-oxidanylidene-ethanoate

> <PUBCHEM_IUPAC_TRADITIONAL_NAME>
2-keto-2-[(5-methylisoxazol-3-yl)amino]acetic acid (2-fluorobenzyl) ester

> <PUBCHEM_IUPAC_INCHI>
InChI=1S/C13H11FN2O4/c1-8-6-11(16-20-8)15-12(17)13(18)19-7-9-4-2-3-5-10(9)14/h2-6H,7H2,1H3,(H,15,16,17)

> <PUBCHEM_IUPAC_INCHIKEY>
UYHJOGRNKCWNAC-UHFFFAOYSA-N

> <PUBCHEM_XLOGP3_AA>
2.2

> <PUBCHEM_EXACT_MASS>
278.070285

> <PUBCHEM_MOLECULAR_FORMULA>
C13H11FN2O4

> <PUBCHEM_MOLECULAR_WEIGHT>
278.235843

> <PUBCHEM_OPENEYE_CAN_SMILES>
CC1=CC(=NO1)NC(=O)C(=O)OCC2=CC=CC=C2F

> <PUBCHEM_OPENEYE_ISO_SMILES>
CC1=CC(=NO1)NC(=O)C(=O)OCC2=CC=CC=C2F

> <PUBCHEM_CACTVS_TPSA>
81.4

> <PUBCHEM_MONOISOTOPIC_WEIGHT>
278.070285

> <PUBCHEM_TOTAL_CHARGE>
0

> <PUBCHEM_HEAVY_ATOM_COUNT>
20

> <PUBCHEM_ATOM_DEF_STEREO_COUNT>
0

> <PUBCHEM_ATOM_UDEF_STEREO_COUNT>
0

> <PUBCHEM_BOND_DEF_STEREO_COUNT>
0

> <PUBCHEM_BOND_UDEF_STEREO_COUNT>
0

> <PUBCHEM_ISOTOPIC_ATOM_COUNT>
0

> <PUBCHEM_COMPONENT_COUNT>
1

> <PUBCHEM_CACTVS_TAUTO_COUNT>
8

> <PUBCHEM_COORDINATE_TYPE>
1
5
255

> <PUBCHEM_BONDANNOTATIONS>
10  14  8
11  15  8
12  16  8
13  16  8
14  17  8
15  17  8
3  13  8
3  7  8
7  12  8
8  10  8
8  11  8

$$$$

