17396272
  -OEChem-06241222553D

 43 44  0     0  0  0  0  0  0999 V2000
   -4.9621   -2.7187   -0.0777 F   0  0  0  0  0  0  0  0  0  0  0  0
   -6.3537   -1.5124    1.0679 F   0  0  0  0  0  0  0  0  0  0  0  0
   -6.3692   -1.4171   -1.1046 F   0  0  0  0  0  0  0  0  0  0  0  0
    0.1495    2.1794    0.0301 O   0  0  0  0  0  0  0  0  0  0  0  0
    4.0244    0.3193    2.2728 O   0  0  0  0  0  0  0  0  0  0  0  0
    5.8997   -0.6204   -1.1010 N   0  0  0  0  0  0  0  0  0  0  0  0
   -0.8614    0.0603   -0.0332 N   0  0  0  0  0  0  0  0  0  0  0  0
    5.8446   -0.6296    1.2565 N   0  0  0  0  0  0  0  0  0  0  0  0
    2.7258    1.1508   -0.0445 C   0  0  0  0  0  0  0  0  0  0  0  0
    4.0231    0.3993   -0.1030 C   0  0  0  0  0  0  0  0  0  0  0  0
    1.5306    0.2069   -0.0615 C   0  0  0  0  0  0  0  0  0  0  0  0
    4.6987    0.0425   -1.2161 C   0  0  0  0  0  0  0  0  0  0  0  0
    0.2049    0.9549   -0.0161 C   0  0  0  0  0  0  0  0  0  0  0  0
   -2.2432    0.3643   -0.0028 C   0  0  0  0  0  0  0  0  0  0  0  0
    4.6262    0.0295    1.2411 C   0  0  0  0  0  0  0  0  0  0  0  0
   -4.5468   -0.3640    0.0015 C   0  0  0  0  0  0  0  0  0  0  0  0
   -4.9669    0.9650    0.0548 C   0  0  0  0  0  0  0  0  0  0  0  0
   -3.1850   -0.6644   -0.0272 C   0  0  0  0  0  0  0  0  0  0  0  0
    6.4219   -0.9232    0.1292 C   0  0  0  0  0  0  0  0  0  0  0  0
    4.2372    0.2982   -2.6231 C   0  0  0  0  0  0  0  0  0  0  0  0
   -2.6633    1.6934    0.0505 C   0  0  0  0  0  0  0  0  0  0  0  0
   -4.0251    1.9937    0.0793 C   0  0  0  0  0  0  0  0  0  0  0  0
   -5.5372   -1.4818   -0.0256 C   0  0  0  0  0  0  0  0  0  0  0  0
   -6.4195    1.3115    0.0872 C   0  0  0  0  0  0  0  0  0  0  0  0
    7.7469   -1.6372    0.1658 C   0  0  0  0  0  0  0  0  0  0  0  0
    2.6580    1.8524   -0.8852 H   0  0  0  0  0  0  0  0  0  0  0  0
    2.6900    1.7945    0.8435 H   0  0  0  0  0  0  0  0  0  0  0  0
    1.5682   -0.4700    0.8012 H   0  0  0  0  0  0  0  0  0  0  0  0
    1.5418   -0.4083   -0.9699 H   0  0  0  0  0  0  0  0  0  0  0  0
    6.3815   -0.8706   -1.9581 H   0  0  0  0  0  0  0  0  0  0  0  0
   -0.6395   -0.9323   -0.0724 H   0  0  0  0  0  0  0  0  0  0  0  0
   -2.8488   -1.6977   -0.0690 H   0  0  0  0  0  0  0  0  0  0  0  0
    4.2353   -0.6358   -3.1961 H   0  0  0  0  0  0  0  0  0  0  0  0
    3.2254    0.7072   -2.6789 H   0  0  0  0  0  0  0  0  0  0  0  0
    4.9125    1.0034   -3.1189 H   0  0  0  0  0  0  0  0  0  0  0  0
   -1.9958    2.5432    0.0721 H   0  0  0  0  0  0  0  0  0  0  0  0
   -4.3363    3.0343    0.1209 H   0  0  0  0  0  0  0  0  0  0  0  0
   -6.9241    0.9567   -0.8168 H   0  0  0  0  0  0  0  0  0  0  0  0
   -6.9023    0.8820    0.9704 H   0  0  0  0  0  0  0  0  0  0  0  0
   -6.5744    2.3953    0.1347 H   0  0  0  0  0  0  0  0  0  0  0  0
    7.6645   -2.5842   -0.3751 H   0  0  0  0  0  0  0  0  0  0  0  0
    8.0508   -1.8389    1.1966 H   0  0  0  0  0  0  0  0  0  0  0  0
    8.5068   -1.0160   -0.3167 H   0  0  0  0  0  0  0  0  0  0  0  0
  1 23  1  0  0  0  0
  2 23  1  0  0  0  0
  3 23  1  0  0  0  0
  4 13  2  0  0  0  0
  5 15  2  0  0  0  0
  6 12  1  0  0  0  0
  6 19  1  0  0  0  0
  6 30  1  0  0  0  0
  7 13  1  0  0  0  0
  7 14  1  0  0  0  0
  7 31  1  0  0  0  0
  8 15  1  0  0  0  0
  8 19  2  0  0  0  0
  9 10  1  0  0  0  0
  9 11  1  0  0  0  0
  9 26  1  0  0  0  0
  9 27  1  0  0  0  0
 10 12  2  0  0  0  0
 10 15  1  0  0  0  0
 11 13  1  0  0  0  0
 11 28  1  0  0  0  0
 11 29  1  0  0  0  0
 12 20  1  0  0  0  0
 14 18  2  0  0  0  0
 14 21  1  0  0  0  0
 16 17  2  0  0  0  0
 16 18  1  0  0  0  0
 16 23  1  0  0  0  0
 17 22  1  0  0  0  0
 17 24  1  0  0  0  0
 18 32  1  0  0  0  0
 19 25  1  0  0  0  0
 20 33  1  0  0  0  0
 20 34  1  0  0  0  0
 20 35  1  0  0  0  0
 21 22  2  0  0  0  0
 21 36  1  0  0  0  0
 22 37  1  0  0  0  0
 24 38  1  0  0  0  0
 24 39  1  0  0  0  0
 24 40  1  0  0  0  0
 25 41  1  0  0  0  0
 25 42  1  0  0  0  0
 25 43  1  0  0  0  0
M  END
> <PUBCHEM_COMPOUND_CID>
17396272

> <PUBCHEM_CONFORMER_RMSD>
0.8

> <PUBCHEM_CONFORMER_DIVERSEORDER>
1
58
16
28
70
6
67
86
29
65
15
80
48
76
64
84
55
22
74
43
78
71
4
11
40
27
51
63
81
53
82
66
46
19
88
44
23
18
79
35
42
59
50
25
91
12
2
89
21
75
60
37
85
62
20
68
3
33
8
49
41
92
56
61
73
7
54
26
38
83
5
72
9
77
32
69
24
47
57
31
39
87
13
17
34
90
45
36
10
14
30
52

> <PUBCHEM_MMFF94_PARTIAL_CHARGES>
30
1 -0.34
10 -0.12
11 0.06
12 -0.04
13 0.57
14 0.12
15 0.77
16 -0.14
17 -0.14
18 -0.15
19 0.44
2 -0.34
20 0.14
21 -0.15
22 -0.15
23 1.16
24 0.14
25 0.06
3 -0.34
30 0.4
31 0.37
32 0.15
36 0.15
37 0.15
4 -0.57
5 -0.57
6 -0.55
7 -0.55
8 -0.66
9 0.14

> <PUBCHEM_EFFECTIVE_ROTOR_COUNT>
6

> <PUBCHEM_PHARMACOPHORE_FEATURES>
7
1 4 acceptor
1 5 acceptor
1 6 donor
1 7 donor
1 8 donor
6 14 16 17 18 21 22 rings
6 6 8 10 12 15 19 rings

> <PUBCHEM_HEAVY_ATOM_COUNT>
25

> <PUBCHEM_ATOM_DEF_STEREO_COUNT>
0

> <PUBCHEM_ATOM_UDEF_STEREO_COUNT>
0

> <PUBCHEM_BOND_DEF_STEREO_COUNT>
0

> <PUBCHEM_BOND_UDEF_STEREO_COUNT>
0

> <PUBCHEM_ISOTOPIC_ATOM_COUNT>
0

> <PUBCHEM_COMPONENT_COUNT>
1

> <PUBCHEM_CACTVS_TAUTO_COUNT>
6

> <PUBCHEM_CONFORMER_ID>
0109723000000001

> <PUBCHEM_MMFF94_ENERGY>
59.7136

> <PUBCHEM_FEATURE_SELFOVERLAP>
35.559

> <PUBCHEM_SHAPE_FINGERPRINT>
10 15 17531253842157807264
10299344 5 17988921193305973770
10693767 8 17059221513817851378
11315181 36 18334855026426569409
11524674 6 17385443211610809071
11545043 162 18113340820682063512
11646440 116 16443347585636105218
11963148 33 18412269445357975518
12166972 35 17988921163231257836
12236239 1 17988921180505649964
12596602 18 18335707126426226048
12616971 3 13984662550933666320
13288520 33 18411699881549563389
13668630 136 17918275355097713090
13782708 43 18040998380661448399
13862211 1 18409168779664401263
14251764 18 18343300354075422956
15183329 4 16702307857684868327
15348495 7 17385730140567990795
15352257 5 18335701676065461862
15419008 47 17676210203779361016
15799311 1 18201424896259331771
16990350 14 16824178027462668457
17093844 174 16950282940744876009
17844677 252 18334571330529896961
17857418 61 18202849858986027904
18222031 100 18131354089879007300
18681886 176 18273216392205217208
18927931 339 18411134711330048311
19489759 90 18408604781775973977
21150785 3 13973964286026727179
21267235 1 18342171121622163635
21623969 137 16877941646467517486
220451 1 17846217782465816281
22061861 79 14908187459969286992
221357 26 15410897375371983478
22224240 67 15357993282880897702
2303208 19 17748819722156286589
23035841 295 18412259554189704321
23081809 10 18060411417626799748
23522609 53 17915148369524485141
23559900 14 18266183842682803025
23569914 152 13896905103556874835
29717793 49 17846774131476275902
3004659 81 17846780711287168760
312425 54 16733254690997495055
3383291 50 18340208488650545979
397830 11 17531822241955170802
4015057 19 16558456513877504661
4340502 62 15647052660154796662
465052 167 18335417959489739132
504579 68 17703795825216982599
5104073 3 18262233318689091465
559249 180 18411982468875077599

> <PUBCHEM_SHAPE_MULTIPOLES>
465.99
21.65
1.9
1.35
5.48
0.43
0.31
9.86
-0.36
-3.12
-0.02
2.62
-0.02
-0.52

> <PUBCHEM_SHAPE_SELFOVERLAP>
986.178

> <PUBCHEM_SHAPE_VOLUME>
261.3

> <PUBCHEM_COORDINATE_TYPE>
2
5
10

$$$$

