586326
  -OEChem-06241222463D

 28 29  0     1  0  0  0  0  0999 V2000
    2.6892    1.7283   -1.2355 O   0  0  0  0  0  0  0  0  0  0  0  0
    2.5383   -2.3161    0.0116 O   0  0  0  0  0  0  0  0  0  0  0  0
   -2.4084    2.1937    0.1218 O   0  0  0  0  0  0  0  0  0  0  0  0
   -4.2333   -1.3783   -0.6808 O   0  0  0  0  0  0  0  0  0  0  0  0
   -4.5635    0.5213    0.5231 O   0  0  0  0  0  0  0  0  0  0  0  0
    1.8814   -0.0212    0.1037 N   0  0  0  0  0  0  0  0  0  0  0  0
    2.6109    1.2346    0.0951 C   0  0  1  0  0  0  0  0  0  0  0  0
    3.9925    0.8537    0.5953 C   0  0  0  0  0  0  0  0  0  0  0  0
    4.1733   -0.5585    0.0665 C   0  0  0  0  0  0  0  0  0  0  0  0
    2.7682   -1.1171    0.0746 C   0  0  0  0  0  0  0  0  0  0  0  0
    0.4547   -0.0821    0.0790 C   0  0  0  0  0  0  0  0  0  0  0  0
   -0.2998    1.0938    0.1126 C   0  0  0  0  0  0  0  0  0  0  0  0
   -0.1945   -1.3183    0.0203 C   0  0  0  0  0  0  0  0  0  0  0  0
   -1.6933    1.0338    0.0878 C   0  0  0  0  0  0  0  0  0  0  0  0
   -1.5878   -1.3783   -0.0046 C   0  0  0  0  0  0  0  0  0  0  0  0
   -2.3372   -0.2022    0.0289 C   0  0  0  0  0  0  0  0  0  0  0  0
   -3.7907   -0.2870    0.0006 C   0  0  0  0  0  0  0  0  0  0  0  0
    2.1741    1.9914    0.7524 H   0  0  0  0  0  0  0  0  0  0  0  0
    4.0026    0.8318    1.6920 H   0  0  0  0  0  0  0  0  0  0  0  0
    4.7833    1.5247    0.2478 H   0  0  0  0  0  0  0  0  0  0  0  0
    4.8322   -1.1495    0.7076 H   0  0  0  0  0  0  0  0  0  0  0  0
    4.5504   -0.5634   -0.9610 H   0  0  0  0  0  0  0  0  0  0  0  0
    0.1672    2.0728    0.1473 H   0  0  0  0  0  0  0  0  0  0  0  0
    0.3232   -2.2675   -0.0046 H   0  0  0  0  0  0  0  0  0  0  0  0
    2.8770    0.9726   -1.8169 H   0  0  0  0  0  0  0  0  0  0  0  0
   -2.0614   -2.3562   -0.0373 H   0  0  0  0  0  0  0  0  0  0  0  0
   -1.7948    2.9472    0.1623 H   0  0  0  0  0  0  0  0  0  0  0  0
   -5.2130   -1.4272   -0.6951 H   0  0  0  0  0  0  0  0  0  0  0  0
  1  7  1  0  0  0  0
  1 25  1  0  0  0  0
  2 10  2  0  0  0  0
  3 14  1  0  0  0  0
  3 27  1  0  0  0  0
  4 17  1  0  0  0  0
  4 28  1  0  0  0  0
  5 17  2  0  0  0  0
  6  7  1  0  0  0  0
  6 10  1  0  0  0  0
  6 11  1  0  0  0  0
  7  8  1  0  0  0  0
  7 18  1  0  0  0  0
  8  9  1  0  0  0  0
  8 19  1  0  0  0  0
  8 20  1  0  0  0  0
  9 10  1  0  0  0  0
  9 21  1  0  0  0  0
  9 22  1  0  0  0  0
 11 12  2  0  0  0  0
 11 13  1  0  0  0  0
 12 14  1  0  0  0  0
 12 23  1  0  0  0  0
 13 15  2  0  0  0  0
 13 24  1  0  0  0  0
 14 16  2  0  0  0  0
 15 16  1  0  0  0  0
 15 26  1  0  0  0  0
 16 17  1  0  0  0  0
M  END
> <PUBCHEM_COMPOUND_CID>
586326

> <PUBCHEM_CONFORMER_RMSD>
0.6

> <PUBCHEM_CONFORMER_DIVERSEORDER>
2
4
1
5
6
3

> <PUBCHEM_MMFF94_PARTIAL_CHARGES>
22
1 -0.68
10 0.57
11 0.12
12 -0.15
13 -0.15
14 0.08
15 -0.15
16 0.09
17 0.63
2 -0.57
23 0.15
24 0.15
25 0.4
26 0.15
27 0.45
28 0.5
3 -0.53
4 -0.65
5 -0.57
6 -0.48
7 0.58
9 0.06

> <PUBCHEM_EFFECTIVE_ROTOR_COUNT>
2.8

> <PUBCHEM_PHARMACOPHORE_FEATURES>
9
1 1 acceptor
1 1 donor
1 2 acceptor
1 3 donor
1 4 acceptor
1 5 acceptor
3 4 5 17 anion
5 6 7 8 9 10 rings
6 11 12 13 14 15 16 rings

> <PUBCHEM_HEAVY_ATOM_COUNT>
17

> <PUBCHEM_ATOM_DEF_STEREO_COUNT>
0

> <PUBCHEM_ATOM_UDEF_STEREO_COUNT>
1

> <PUBCHEM_BOND_DEF_STEREO_COUNT>
0

> <PUBCHEM_BOND_UDEF_STEREO_COUNT>
0

> <PUBCHEM_ISOTOPIC_ATOM_COUNT>
0

> <PUBCHEM_COMPONENT_COUNT>
1

> <PUBCHEM_CACTVS_TAUTO_COUNT>
8

> <PUBCHEM_CONFORMER_ID>
0008F25600000002

> <PUBCHEM_MMFF94_ENERGY>
52.2772

> <PUBCHEM_FEATURE_SELFOVERLAP>
45.727

> <PUBCHEM_SHAPE_FINGERPRINT>
10608611 8 18409453617463471552
10616163 171 18335700503333785303
10967382 1 18410856551313703082
11132069 177 18408606954860432249
11471102 20 18411985741292101462
12251169 10 18413389839094391908
13380535 76 18340769256459341410
13760787 5 18341611486892845445
14144814 61 18411420643759989330
14325111 11 18409730707056877480
15196674 1 18409168813607252275
15442244 35 18194402418898696546
15536298 74 18334857242539691738
16945 1 18339353059348594864
17492 89 18337111267047021623
17802600 8 18410017628205191232
18186145 218 17632300059903424827
18522853 276 18409169909056268304
19050596 39 18409167701263463715
19422 9 18335419071554043627
200 152 18187368713844943651
20281475 54 18335422340129722347
20510252 161 18260548965216221121
20559304 39 18411698781758373700
20645477 70 18335422399795502358
21267235 1 18410284835532744042
21501502 16 18336825393774918576
2255824 54 18130783469483013458
22854114 111 18411418397528997122
23402539 116 18335430058022280333
23402655 69 18408608088547253605
23463225 33 18411136965174931294
23557571 272 17967809474809822152
23559900 14 18408609175516844818
2748010 2 18267584795835342140
42 15 18410856577062362434
474 4 17631730440256429980
5104073 3 18409731772145405827
5374978 207 18410579478451637361
537710 114 18410289168922585101
633830 44 17847061095146903497
69090 78 18334299751173374447
7364860 26 18334012822247515862
77779 3 18335420192144791122
9709674 26 18410288120829589870

> <PUBCHEM_SHAPE_MULTIPOLES>
315.52
8.25
1.94
0.71
1.94
0.04
-0.08
0.19
0.22
-0.32
-0.15
-0.16
-0.13
-0.43

> <PUBCHEM_SHAPE_SELFOVERLAP>
680.485

> <PUBCHEM_SHAPE_VOLUME>
172.9

> <PUBCHEM_COORDINATE_TYPE>
2
5
10

$$$$

