11072
  -OEChem-06261205182D

 45 45  0     0  0  0  0  0  0999 V2000
    8.4388    4.4626    0.0000 Cl  0  0  0  0  0  0  0  0  0  0  0  0
    2.3521    4.6200    0.0000 O   0  0  0  0  0  0  0  0  0  0  0  0
    4.0841    4.6200    0.0000 O   0  0  0  0  0  0  0  0  0  0  0  0
    1.4860    2.1200    0.0000 N   0  0  0  0  0  0  0  0  0  0  0  0
    3.2181    9.1200    0.0000 N   0  0  0  0  0  0  0  0  0  0  0  0
    1.4860    3.1200    0.0000 C   0  0  0  0  0  0  0  0  0  0  0  0
    0.6200    1.6200    0.0000 C   0  0  0  0  0  0  0  0  0  0  0  0
    2.3521    1.6200    0.0000 C   0  0  0  0  0  0  0  0  0  0  0  0
    2.3521    3.6200    0.0000 C   0  0  0  0  0  0  0  0  0  0  0  0
    4.0841    6.6200    0.0000 C   0  0  0  0  0  0  0  0  0  0  0  0
    3.2181    6.1200    0.0000 C   0  0  0  0  0  0  0  0  0  0  0  0
    4.0841    7.6200    0.0000 C   0  0  0  0  0  0  0  0  0  0  0  0
    0.6200    0.6200    0.0000 C   0  0  0  0  0  0  0  0  0  0  0  0
    2.3521    0.6200    0.0000 C   0  0  0  0  0  0  0  0  0  0  0  0
    3.2181    8.1200    0.0000 C   0  0  0  0  0  0  0  0  0  0  0  0
    3.2181    5.1200    0.0000 C   0  0  0  0  0  0  0  0  0  0  0  0
    2.3521    6.6200    0.0000 C   0  0  0  0  0  0  0  0  0  0  0  0
    4.9780    6.0853    0.0000 C   0  0  0  0  0  0  0  0  0  0  0  0
    2.3521    7.6200    0.0000 C   0  0  0  0  0  0  0  0  0  0  0  0
    4.9780    8.1547    0.0000 C   0  0  0  0  0  0  0  0  0  0  0  0
    5.8841    6.5992    0.0000 C   0  0  0  0  0  0  0  0  0  0  0  0
    5.8841    7.6408    0.0000 C   0  0  0  0  0  0  0  0  0  0  0  0
    1.2740    3.7026    0.0000 H   0  0  0  0  0  0  0  0  0  0  0  0
    0.8754    3.0123    0.0000 H   0  0  0  0  0  0  0  0  0  0  0  0
    0.4079    2.2026    0.0000 H   0  0  0  0  0  0  0  0  0  0  0  0
    0.0094    1.5123    0.0000 H   0  0  0  0  0  0  0  0  0  0  0  0
    2.9626    1.5123    0.0000 H   0  0  0  0  0  0  0  0  0  0  0  0
    2.5641    2.2026    0.0000 H   0  0  0  0  0  0  0  0  0  0  0  0
    2.5641    3.0374    0.0000 H   0  0  0  0  0  0  0  0  0  0  0  0
    2.9626    3.7277    0.0000 H   0  0  0  0  0  0  0  0  0  0  0  0
    1.7320    0.6200    0.0000 H   0  0  0  0  0  0  0  0  0  0  0  0
    0.0000    0.6200    0.0000 H   0  0  0  0  0  0  0  0  0  0  0  0
    0.6200    0.0000    0.0000 H   0  0  0  0  0  0  0  0  0  0  0  0
    1.2400    0.6200    0.0000 H   0  0  0  0  0  0  0  0  0  0  0  0
    2.3521    0.0000    0.0000 H   0  0  0  0  0  0  0  0  0  0  0  0
    2.9720    0.6200    0.0000 H   0  0  0  0  0  0  0  0  0  0  0  0
    1.8151    6.3100    0.0000 H   0  0  0  0  0  0  0  0  0  0  0  0
    4.9709    5.4654    0.0000 H   0  0  0  0  0  0  0  0  0  0  0  0
    1.8151    7.9300    0.0000 H   0  0  0  0  0  0  0  0  0  0  0  0
    4.9709    8.7746    0.0000 H   0  0  0  0  0  0  0  0  0  0  0  0
    6.4198    6.2871    0.0000 H   0  0  0  0  0  0  0  0  0  0  0  0
    6.4198    7.9529    0.0000 H   0  0  0  0  0  0  0  0  0  0  0  0
    2.6811    9.4300    0.0000 H   0  0  0  0  0  0  0  0  0  0  0  0
    3.7550    9.4300    0.0000 H   0  0  0  0  0  0  0  0  0  0  0  0
    9.4388    4.4626    0.0000 H   0  0  0  0  0  0  0  0  0  0  0  0
  1 45  1  0  0  0  0
  2  9  1  0  0  0  0
  2 16  1  0  0  0  0
  3 16  2  0  0  0  0
  4  6  1  0  0  0  0
  4  7  1  0  0  0  0
  4  8  1  0  0  0  0
  5 15  1  0  0  0  0
  5 43  1  0  0  0  0
  5 44  1  0  0  0  0
  6  9  1  0  0  0  0
  6 23  1  0  0  0  0
  6 24  1  0  0  0  0
  7 13  1  0  0  0  0
  7 25  1  0  0  0  0
  7 26  1  0  0  0  0
  8 14  1  0  0  0  0
  8 27  1  0  0  0  0
  8 28  1  0  0  0  0
  9 29  1  0  0  0  0
  9 30  1  0  0  0  0
 10 11  1  0  0  0  0
 10 12  1  0  0  0  0
 10 18  2  0  0  0  0
 11 16  1  0  0  0  0
 11 17  2  0  0  0  0
 12 15  1  0  0  0  0
 12 20  2  0  0  0  0
 13 32  1  0  0  0  0
 13 33  1  0  0  0  0
 13 34  1  0  0  0  0
 14 31  1  0  0  0  0
 14 35  1  0  0  0  0
 14 36  1  0  0  0  0
 15 19  2  0  0  0  0
 17 19  1  0  0  0  0
 17 37  1  0  0  0  0
 18 21  1  0  0  0  0
 18 38  1  0  0  0  0
 19 39  1  0  0  0  0
 20 22  1  0  0  0  0
 20 40  1  0  0  0  0
 21 22  2  0  0  0  0
 21 41  1  0  0  0  0
 22 42  1  0  0  0  0
M  END
> <PUBCHEM_COMPOUND_CID>
11072

> <PUBCHEM_COMPOUND_CANONICALIZED>
1

> <PUBCHEM_CACTVS_COMPLEXITY>
331

> <PUBCHEM_CACTVS_HBOND_ACCEPTOR>
4

> <PUBCHEM_CACTVS_HBOND_DONOR>
2

> <PUBCHEM_CACTVS_ROTATABLE_BOND>
7

> <PUBCHEM_CACTVS_SUBSKEYS>
AAADceB7MAAEAAAAAAAAAAAAAAAAAAAAAAAwYAAAAAAAAADBUAAAHgAQAAAADAjhmAYyyMNABACIAiTSSACCAAAkAgAIiAEIbMgKJjKAtZmDMQBk0AGY6YeY2eGeiAACQAASAAAQAASAACQAAAAAAAAAAA==

> <PUBCHEM_IUPAC_OPENEYE_NAME>
2-(diethylamino)ethyl 4-aminonaphthalene-1-carboxylate hydrochloride

> <PUBCHEM_IUPAC_CAS_NAME>
4-amino-1-naphthalenecarboxylic acid 2-(diethylamino)ethyl ester hydrochloride

> <PUBCHEM_IUPAC_NAME>
2-(diethylamino)ethyl 4-aminonaphthalene-1-carboxylate hydrochloride

> <PUBCHEM_IUPAC_SYSTEMATIC_NAME>
2-(diethylamino)ethyl 4-azanylnaphthalene-1-carboxylate hydrochloride

> <PUBCHEM_IUPAC_TRADITIONAL_NAME>
4-aminonaphthalene-1-carboxylic acid 2-(diethylamino)ethyl ester hydrochloride

> <PUBCHEM_IUPAC_INCHI>
InChI=1S/C17H22N2O2.ClH/c1-3-19(4-2)11-12-21-17(20)15-9-10-16(18)14-8-6-5-7-13(14)15;/h5-10H,3-4,11-12,18H2,1-2H3;1H

> <PUBCHEM_IUPAC_INCHIKEY>
APOQVZGVHWXWRX-UHFFFAOYSA-N

> <PUBCHEM_EXACT_MASS>
322.144806

> <PUBCHEM_MOLECULAR_FORMULA>
C17H23ClN2O2

> <PUBCHEM_MOLECULAR_WEIGHT>
322.82972

> <PUBCHEM_OPENEYE_CAN_SMILES>
CCN(CC)CCOC(=O)C1=CC=C(C2=CC=CC=C21)N.Cl

> <PUBCHEM_OPENEYE_ISO_SMILES>
CCN(CC)CCOC(=O)C1=CC=C(C2=CC=CC=C21)N.Cl

> <PUBCHEM_CACTVS_TPSA>
55.6

> <PUBCHEM_MONOISOTOPIC_WEIGHT>
322.144806

> <PUBCHEM_TOTAL_CHARGE>
0

> <PUBCHEM_HEAVY_ATOM_COUNT>
22

> <PUBCHEM_ATOM_DEF_STEREO_COUNT>
0

> <PUBCHEM_ATOM_UDEF_STEREO_COUNT>
0

> <PUBCHEM_BOND_DEF_STEREO_COUNT>
0

> <PUBCHEM_BOND_UDEF_STEREO_COUNT>
0

> <PUBCHEM_ISOTOPIC_ATOM_COUNT>
0

> <PUBCHEM_COMPONENT_COUNT>
2

> <PUBCHEM_CACTVS_TAUTO_COUNT>
3

> <PUBCHEM_COORDINATE_TYPE>
1
5
255

> <PUBCHEM_BONDANNOTATIONS>
10  11  8
10  12  8
10  18  8
11  17  8
12  15  8
12  20  8
15  19  8
17  19  8
18  21  8
20  22  8
21  22  8

$$$$

