13169
  -OEChem-06261207512D

 24 22  0     0  0  0  0  0  0999 V2000
    2.0190    0.0000    0.0000 Cl  0  5  0  0  0  0  0  0  0  0  0  0
    2.2690    4.6200    0.0000 N   0  3  0  0  0  0  0  0  0  0  0  0
    3.1350    5.1200    0.0000 C   0  0  0  0  0  0  0  0  0  0  0  0
    1.4030    4.1200    0.0000 C   0  0  0  0  0  0  0  0  0  0  0  0
    4.0010    4.6200    0.0000 C   0  0  0  0  0  0  0  0  0  0  0  0
    0.5369    4.6200    0.0000 C   0  0  0  0  0  0  0  0  0  0  0  0
    1.4030    3.1200    0.0000 C   0  0  0  0  0  0  0  0  0  0  0  0
    3.1350    6.1200    0.0000 C   0  0  0  0  0  0  0  0  0  0  0  0
    1.9590    5.1569    0.0000 H   0  0  0  0  0  0  0  0  0  0  0  0
    2.5790    4.0831    0.0000 H   0  0  0  0  0  0  0  0  0  0  0  0
    3.1350    4.5000    0.0000 H   0  0  0  0  0  0  0  0  0  0  0  0
    1.4030    4.7400    0.0000 H   0  0  0  0  0  0  0  0  0  0  0  0
    3.7550    6.1200    0.0000 H   0  0  0  0  0  0  0  0  0  0  0  0
    3.1350    6.7400    0.0000 H   0  0  0  0  0  0  0  0  0  0  0  0
    2.5150    6.1200    0.0000 H   0  0  0  0  0  0  0  0  0  0  0  0
    0.7830    3.1200    0.0000 H   0  0  0  0  0  0  0  0  0  0  0  0
    1.4030    2.5000    0.0000 H   0  0  0  0  0  0  0  0  0  0  0  0
    2.0230    3.1200    0.0000 H   0  0  0  0  0  0  0  0  0  0  0  0
    0.8469    5.1569    0.0000 H   0  0  0  0  0  0  0  0  0  0  0  0
    0.0000    4.9300    0.0000 H   0  0  0  0  0  0  0  0  0  0  0  0
    0.2269    4.0831    0.0000 H   0  0  0  0  0  0  0  0  0  0  0  0
    3.6910    4.0831    0.0000 H   0  0  0  0  0  0  0  0  0  0  0  0
    4.5380    4.3100    0.0000 H   0  0  0  0  0  0  0  0  0  0  0  0
    4.3110    5.1569    0.0000 H   0  0  0  0  0  0  0  0  0  0  0  0
  2  3  1  0  0  0  0
  2  4  1  0  0  0  0
  2  9  1  0  0  0  0
  2 10  1  0  0  0  0
  3  5  1  0  0  0  0
  3  8  1  0  0  0  0
  3 11  1  0  0  0  0
  4  6  1  0  0  0  0
  4  7  1  0  0  0  0
  4 12  1  0  0  0  0
  5 22  1  0  0  0  0
  5 23  1  0  0  0  0
  5 24  1  0  0  0  0
  6 19  1  0  0  0  0
  6 20  1  0  0  0  0
  6 21  1  0  0  0  0
  7 16  1  0  0  0  0
  7 17  1  0  0  0  0
  7 18  1  0  0  0  0
  8 13  1  0  0  0  0
  8 14  1  0  0  0  0
  8 15  1  0  0  0  0
M  CHG  2   1  -1   2   1
M  END
> <PUBCHEM_COMPOUND_CID>
13169

> <PUBCHEM_COMPOUND_CANONICALIZED>
1

> <PUBCHEM_CACTVS_COMPLEXITY>
33.4

> <PUBCHEM_CACTVS_HBOND_ACCEPTOR>
1

> <PUBCHEM_CACTVS_HBOND_DONOR>
1

> <PUBCHEM_CACTVS_ROTATABLE_BOND>
2

> <PUBCHEM_CACTVS_SUBSKEYS>
AAADceBiAAAEAAAAAAAAAAAAAAAAAAAAAAAAAAAAAAAAAAAAAAAAHAAQAAAACCjBAAQCAALAAAAAAAAAAAAAAAAAAAAAAIAIAAAAAAAAAAAAAAAAEACAAAAAAAAAAAAAAAAAAAAAAAAAAAAAAAAAAAAAAA==

> <PUBCHEM_IUPAC_OPENEYE_NAME>
diisopropylammonium chloride

> <PUBCHEM_IUPAC_CAS_NAME>
di(propan-2-yl)ammonium chloride

> <PUBCHEM_IUPAC_NAME>
di(propan-2-yl)azanium chloride

> <PUBCHEM_IUPAC_SYSTEMATIC_NAME>
di(propan-2-yl)azanium chloride

> <PUBCHEM_IUPAC_TRADITIONAL_NAME>
diisopropylammonium chloride

> <PUBCHEM_IUPAC_INCHI>
InChI=1S/C6H15N.ClH/c1-5(2)7-6(3)4;/h5-7H,1-4H3;1H

> <PUBCHEM_IUPAC_INCHIKEY>
URAZVWXGWMBUGJ-UHFFFAOYSA-N

> <PUBCHEM_EXACT_MASS>
137.097127

> <PUBCHEM_MOLECULAR_FORMULA>
C6H16ClN

> <PUBCHEM_MOLECULAR_WEIGHT>
137.65094

> <PUBCHEM_OPENEYE_CAN_SMILES>
CC(C)[NH2+]C(C)C.[Cl-]

> <PUBCHEM_OPENEYE_ISO_SMILES>
CC(C)[NH2+]C(C)C.[Cl-]

> <PUBCHEM_CACTVS_TPSA>
16.6

> <PUBCHEM_MONOISOTOPIC_WEIGHT>
137.097127

> <PUBCHEM_TOTAL_CHARGE>
0

> <PUBCHEM_HEAVY_ATOM_COUNT>
8

> <PUBCHEM_ATOM_DEF_STEREO_COUNT>
0

> <PUBCHEM_ATOM_UDEF_STEREO_COUNT>
0

> <PUBCHEM_BOND_DEF_STEREO_COUNT>
0

> <PUBCHEM_BOND_UDEF_STEREO_COUNT>
0

> <PUBCHEM_ISOTOPIC_ATOM_COUNT>
0

> <PUBCHEM_COMPONENT_COUNT>
2

> <PUBCHEM_CACTVS_TAUTO_COUNT>
1

> <PUBCHEM_COORDINATE_TYPE>
1
5
255

$$$$

