17395563
  -OEChem-06241222513D

 52 53  0     1  0  0  0  0  0999 V2000
    7.8583   -1.3109   -0.0504 F   0  0  0  0  0  0  0  0  0  0  0  0
   -2.6248    0.8684   -1.5738 O   0  0  0  0  0  0  0  0  0  0  0  0
   -0.1019    1.2979   -0.1134 N   0  0  0  0  0  0  0  0  0  0  0  0
    2.5878    0.3536    0.0685 N   0  0  0  0  0  0  0  0  0  0  0  0
   -3.1631   -0.0195    0.4998 N   0  0  0  0  0  0  0  0  0  0  0  0
   -5.1587   -2.2345    2.1227 N   0  0  0  0  0  0  0  0  0  0  0  0
    0.9282    2.1130    0.5422 C   0  0  0  0  0  0  0  0  0  0  0  0
    0.1721   -0.1269    0.1096 C   0  0  0  0  0  0  0  0  0  0  0  0
   -1.4300    1.6495    0.3878 C   0  0  2  0  0  0  0  0  0  0  0  0
    2.3175    1.7944   -0.0150 C   0  0  0  0  0  0  0  0  0  0  0  0
    1.5368   -0.5208   -0.4611 C   0  0  0  0  0  0  0  0  0  0  0  0
   -4.1942   -0.9303    0.0352 C   0  0  1  0  0  0  0  0  0  0  0  0
   -2.4604    0.8101   -0.3570 C   0  0  0  0  0  0  0  0  0  0  0  0
   -5.3449   -0.1526   -0.6844 C   0  0  0  0  0  0  0  0  0  0  0  0
   -1.7001    3.1331    0.1698 C   0  0  0  0  0  0  0  0  0  0  0  0
    3.9218   -0.0680    0.0385 C   0  0  0  0  0  0  0  0  0  0  0  0
   -3.5460   -1.9696   -0.8974 C   0  0  0  0  0  0  0  0  0  0  0  0
   -6.0098    0.9108    0.2019 C   0  0  0  0  0  0  0  0  0  0  0  0
   -6.4408   -1.0789   -1.2404 C   0  0  0  0  0  0  0  0  0  0  0  0
    4.3595   -0.9264   -0.9702 C   0  0  0  0  0  0  0  0  0  0  0  0
    4.8140    0.3708    1.0167 C   0  0  0  0  0  0  0  0  0  0  0  0
   -4.7357   -1.6608    1.2067 C   0  0  0  0  0  0  0  0  0  0  0  0
    5.6893   -1.3461   -1.0005 C   0  0  0  0  0  0  0  0  0  0  0  0
    6.1439   -0.0490    0.9865 C   0  0  0  0  0  0  0  0  0  0  0  0
    6.5815   -0.9074   -0.0221 C   0  0  0  0  0  0  0  0  0  0  0  0
    0.7803    3.1825    0.3639 H   0  0  0  0  0  0  0  0  0  0  0  0
    0.9213    1.9525    1.6288 H   0  0  0  0  0  0  0  0  0  0  0  0
    0.1416   -0.3647    1.1818 H   0  0  0  0  0  0  0  0  0  0  0  0
   -0.5634   -0.7677   -0.3878 H   0  0  0  0  0  0  0  0  0  0  0  0
   -1.4975    1.4538    1.4664 H   0  0  0  0  0  0  0  0  0  0  0  0
    3.0533    2.3793    0.5489 H   0  0  0  0  0  0  0  0  0  0  0  0
    2.3868    2.1131   -1.0632 H   0  0  0  0  0  0  0  0  0  0  0  0
    1.5105   -0.4525   -1.5563 H   0  0  0  0  0  0  0  0  0  0  0  0
    1.7292   -1.5664   -0.1897 H   0  0  0  0  0  0  0  0  0  0  0  0
   -4.9386    0.3767   -1.5538 H   0  0  0  0  0  0  0  0  0  0  0  0
   -2.7712    3.3423    0.2792 H   0  0  0  0  0  0  0  0  0  0  0  0
   -1.1850    3.7642    0.9010 H   0  0  0  0  0  0  0  0  0  0  0  0
   -1.4203    3.4585   -0.8394 H   0  0  0  0  0  0  0  0  0  0  0  0
   -2.9494   -0.0028    1.4931 H   0  0  0  0  0  0  0  0  0  0  0  0
   -3.2455   -1.5369   -1.8570 H   0  0  0  0  0  0  0  0  0  0  0  0
   -2.6475   -2.4042   -0.4403 H   0  0  0  0  0  0  0  0  0  0  0  0
   -4.2207   -2.8062   -1.1129 H   0  0  0  0  0  0  0  0  0  0  0  0
   -6.5217    0.4649    1.0607 H   0  0  0  0  0  0  0  0  0  0  0  0
   -5.2787    1.6338    0.5771 H   0  0  0  0  0  0  0  0  0  0  0  0
   -6.7561    1.4741   -0.3695 H   0  0  0  0  0  0  0  0  0  0  0  0
   -6.9266   -1.6617   -0.4515 H   0  0  0  0  0  0  0  0  0  0  0  0
   -7.2196   -0.4914   -1.7403 H   0  0  0  0  0  0  0  0  0  0  0  0
   -6.0413   -1.7715   -1.9869 H   0  0  0  0  0  0  0  0  0  0  0  0
    3.6964   -1.2766   -1.7561 H   0  0  0  0  0  0  0  0  0  0  0  0
    4.4894    1.0281    1.8191 H   0  0  0  0  0  0  0  0  0  0  0  0
    6.0316   -2.0121   -1.7872 H   0  0  0  0  0  0  0  0  0  0  0  0
    6.8381    0.2897    1.7499 H   0  0  0  0  0  0  0  0  0  0  0  0
  1 25  1  0  0  0  0
  2 13  2  0  0  0  0
  3  7  1  0  0  0  0
  3  8  1  0  0  0  0
  3  9  1  0  0  0  0
  4 10  1  0  0  0  0
  4 11  1  0  0  0  0
  4 16  1  0  0  0  0
  5 12  1  0  0  0  0
  5 13  1  0  0  0  0
  5 39  1  0  0  0  0
  6 22  3  0  0  0  0
  7 10  1  0  0  0  0
  7 26  1  0  0  0  0
  7 27  1  0  0  0  0
  8 11  1  0  0  0  0
  8 28  1  0  0  0  0
  8 29  1  0  0  0  0
  9 13  1  0  0  0  0
  9 15  1  0  0  0  0
  9 30  1  0  0  0  0
 10 31  1  0  0  0  0
 10 32  1  0  0  0  0
 11 33  1  0  0  0  0
 11 34  1  0  0  0  0
 12 14  1  0  0  0  0
 12 17  1  0  0  0  0
 12 22  1  0  0  0  0
 14 18  1  0  0  0  0
 14 19  1  0  0  0  0
 14 35  1  0  0  0  0
 15 36  1  0  0  0  0
 15 37  1  0  0  0  0
 15 38  1  0  0  0  0
 16 20  2  0  0  0  0
 16 21  1  0  0  0  0
 17 40  1  0  0  0  0
 17 41  1  0  0  0  0
 17 42  1  0  0  0  0
 18 43  1  0  0  0  0
 18 44  1  0  0  0  0
 18 45  1  0  0  0  0
 19 46  1  0  0  0  0
 19 47  1  0  0  0  0
 19 48  1  0  0  0  0
 20 23  1  0  0  0  0
 20 49  1  0  0  0  0
 21 24  2  0  0  0  0
 21 50  1  0  0  0  0
 23 25  2  0  0  0  0
 23 51  1  0  0  0  0
 24 25  1  0  0  0  0
 24 52  1  0  0  0  0
M  END
> <PUBCHEM_COMPOUND_CID>
17395563

> <PUBCHEM_CONFORMER_RMSD>
1.2

> <PUBCHEM_CONFORMER_DIVERSEORDER>
1
41
28
32
31
7
13
12
35
8
24
33
37
20
5
38
45
9
30
16
44
3
36
21
11
42
43
14
23
15
25
2
27
29
22
4
10
40
19
17
34
18
26
39
6

> <PUBCHEM_MMFF94_PARTIAL_CHARGES>
25
1 -0.19
10 0.37
11 0.37
12 0.5
13 0.57
16 0.1
2 -0.57
20 -0.15
21 -0.15
22 0.36
23 -0.15
24 -0.15
25 0.19
3 -0.81
39 0.37
4 -0.84
49 0.15
5 -0.73
50 0.15
51 0.15
52 0.15
6 -0.56
7 0.27
8 0.27
9 0.33

> <PUBCHEM_EFFECTIVE_ROTOR_COUNT>
7.2

> <PUBCHEM_PHARMACOPHORE_FEATURES>
8
1 2 acceptor
1 3 cation
1 4 cation
1 5 donor
1 6 acceptor
3 14 18 19 hydrophobe
6 16 20 21 23 24 25 rings
6 3 4 7 8 10 11 rings

> <PUBCHEM_HEAVY_ATOM_COUNT>
25

> <PUBCHEM_ATOM_DEF_STEREO_COUNT>
0

> <PUBCHEM_ATOM_UDEF_STEREO_COUNT>
2

> <PUBCHEM_BOND_DEF_STEREO_COUNT>
0

> <PUBCHEM_BOND_UDEF_STEREO_COUNT>
0

> <PUBCHEM_ISOTOPIC_ATOM_COUNT>
0

> <PUBCHEM_COMPONENT_COUNT>
1

> <PUBCHEM_CACTVS_TAUTO_COUNT>
2

> <PUBCHEM_CONFORMER_ID>
01096F6B00000001

> <PUBCHEM_MMFF94_ENERGY>
70.6348

> <PUBCHEM_FEATURE_SELFOVERLAP>
40.597

> <PUBCHEM_SHAPE_FINGERPRINT>
10 15 18187661180808620704
10591671 39 8790878601625682585
11315181 36 17917706902995500660
11524674 6 16443351970090911279
11796584 16 17989210326114577475
11809386 21 18200035169681000400
11963148 33 18411425007732923814
12166972 35 17846777408536823284
12236239 1 17095244709333751413
12403259 118 4967617187220394699
12422481 6 17530959194115421838
12516196 113 17967256394443288320
12596602 18 14345787258072703223
12643181 29 18273498966118815611
12760667 363 18407760339760833749
13288520 33 18411700997671341685
13402501 40 18335138687151347470
13673619 4 17988639654384840521
13862211 1 18334014977672076806
1420 363 18261112989317290646
14211702 104 18268989955334201826
14251752 14 17131841983844598717
14849402 71 15575296272474200114
15183329 4 16558755619662777458
15510800 12 18340761551546903883
16087824 20 18194683890462512221
17138139 8 17345758477946370786
17492 89 17902799561886910623
17844677 252 18113897174125010480
18222031 100 17989205958697411052
18927931 339 18408039623945410751
193927 3 18410287008554002764
20028762 73 18041001717629849422
20281389 69 7781518114112399886
21150785 3 16702297950023537198
21236236 1 18261672674763692913
21267235 1 18409446985785884237
21307412 95 18130233662514938879
21623969 137 17530683225656264102
21682296 61 18041553745438894358
220451 1 16845577529871891794
23035841 295 18413109480450540571
23198884 109 15195286439067447669
23402539 116 18409735053674479405
23522609 53 18119498064597858400
23559900 14 18129664093114834129
3004659 81 18202568358419056292
335352 9 18408887347969822685
3383291 50 18339081493753889523
4107672 100 16487263171250922031
437815 12 18408047299506064893
5104073 3 18336541634150543985
559249 180 18407761452426349861
5718773 13 18191028907294132551
636775 8 18341036481404717406
8863177 126 17985536763461877699

> <PUBCHEM_SHAPE_MULTIPOLES>
481.42
18.85
2.36
1.21
13.05
1.1
0.27
-11.13
0.61
-1.66
0.21
-1.18
-0.58
1.29

> <PUBCHEM_SHAPE_SELFOVERLAP>
991.957

> <PUBCHEM_SHAPE_VOLUME>
276.2

> <PUBCHEM_COORDINATE_TYPE>
2
5
10

$$$$

