583118
  -OEChem-06241222442D

 26 28  0     1  0  0  0  0  0999 V2000
    9.2491   -0.8724    0.0000 O   0  0  0  0  0  0  0  0  0  0  0  0
    5.8013   -0.1983    0.0000 N   0  0  3  0  0  0  0  0  0  0  0  0
    6.0601    0.7677    0.0000 N   0  0  3  0  0  0  0  0  0  0  0  0
    5.6895    2.1163    0.0000 C   0  0  0  0  0  0  0  0  0  0  0  0
    4.8235    1.6163    0.0000 C   0  0  0  0  0  0  0  0  0  0  0  0
    3.5693   -0.3322    0.0000 C   0  0  0  0  0  0  0  0  0  0  0  0
    4.0693   -1.1983    0.0000 C   0  0  0  0  0  0  0  0  0  0  0  0
    7.9248    0.3200    0.0000 C   0  0  0  0  0  0  0  0  0  0  0  0
    7.5060   -1.2429    0.0000 C   0  0  0  0  0  0  0  0  0  0  0  0
    8.2831   -0.6136    0.0000 C   0  0  0  0  0  0  0  0  0  0  0  0
    2.5278   -0.3162    0.0000 C   0  0  0  0  0  0  0  0  0  0  0  0
    3.5624   -2.1083    0.0000 C   0  0  0  0  0  0  0  0  0  0  0  0
    2.5208   -2.1163    0.0000 C   0  0  0  0  0  0  0  0  0  0  0  0
    2.0000   -1.2142    0.0000 C   0  0  0  0  0  0  0  0  0  0  0  0
    6.2712    2.3308    0.0000 H   0  0  0  0  0  0  0  0  0  0  0  0
    5.4263    2.6776    0.0000 H   0  0  0  0  0  0  0  0  0  0  0  0
    4.5188    2.1562    0.0000 H   0  0  0  0  0  0  0  0  0  0  0  0
    4.2806    1.3169    0.0000 H   0  0  0  0  0  0  0  0  0  0  0  0
    8.5363    0.4223    0.0000 H   0  0  0  0  0  0  0  0  0  0  0  0
    7.9464    0.9396    0.0000 H   0  0  0  0  0  0  0  0  0  0  0  0
    7.1243   -1.7315    0.0000 H   0  0  0  0  0  0  0  0  0  0  0  0
    7.9482   -1.6775    0.0000 H   0  0  0  0  0  0  0  0  0  0  0  0
    2.2240    0.2243    0.0000 H   0  0  0  0  0  0  0  0  0  0  0  0
    3.8786   -2.6416    0.0000 H   0  0  0  0  0  0  0  0  0  0  0  0
    1.3800   -1.2118    0.0000 H   0  0  0  0  0  0  0  0  0  0  0  0
    2.2129   -2.6544    0.0000 H   0  0  0  0  0  0  0  0  0  0  0  0
  1 10  2  0  0  0  0
  2  5  1  0  0  0  0
  2  7  1  0  0  0  0
  2  9  1  0  0  0  0
  3  4  1  0  0  0  0
  3  6  1  0  0  0  0
  3  8  1  0  0  0  0
  4  5  1  0  0  0  0
  4 15  1  0  0  0  0
  4 16  1  0  0  0  0
  5 17  1  0  0  0  0
  5 18  1  0  0  0  0
  6  7  1  0  0  0  0
  6 11  2  0  0  0  0
  7 12  2  0  0  0  0
  8 10  1  0  0  0  0
  8 19  1  0  0  0  0
  8 20  1  0  0  0  0
  9 10  1  0  0  0  0
  9 21  1  0  0  0  0
  9 22  1  0  0  0  0
 11 14  1  0  0  0  0
 11 23  1  0  0  0  0
 12 13  1  0  0  0  0
 12 24  1  0  0  0  0
 13 14  2  0  0  0  0
 13 26  1  0  0  0  0
 14 25  1  0  0  0  0
M  END
> <PUBCHEM_COMPOUND_CID>
583118

> <PUBCHEM_COMPOUND_CANONICALIZED>
1

> <PUBCHEM_CACTVS_COMPLEXITY>
230

> <PUBCHEM_CACTVS_HBOND_ACCEPTOR>
3

> <PUBCHEM_CACTVS_HBOND_DONOR>
0

> <PUBCHEM_CACTVS_ROTATABLE_BOND>
0

> <PUBCHEM_CACTVS_SUBSKEYS>
AAADccBzIAAAAAAAAAAAAAAAAAAAAAAAAAA8QAAABYsAAACxAAAAHgAAAAAACAzBkAQwwIMAAACIAKRSQACCAAAhAgAIiACIdIgIYCLA0bGUIAhggADIyAcQAAAAAAAAAAAAACAAAAAAAAAAQAAAAAAAAA==

> <PUBCHEM_IUPAC_INCHI>
InChI=1S/C11H12N2O/c14-9-7-12-5-6-13(8-9)11-4-2-1-3-10(11)12/h1-4H,5-8H2

> <PUBCHEM_IUPAC_INCHIKEY>
MDZCFBXNVPYNTR-UHFFFAOYSA-N

> <PUBCHEM_XLOGP3_AA>
1.6

> <PUBCHEM_EXACT_MASS>
188.094963

> <PUBCHEM_MOLECULAR_FORMULA>
C11H12N2O

> <PUBCHEM_MOLECULAR_WEIGHT>
188.22578

> <PUBCHEM_OPENEYE_CAN_SMILES>
C1CN2CC(=O)CN1C3=CC=CC=C32

> <PUBCHEM_OPENEYE_ISO_SMILES>
C1CN2CC(=O)CN1C3=CC=CC=C32

> <PUBCHEM_CACTVS_TPSA>
23.6

> <PUBCHEM_MONOISOTOPIC_WEIGHT>
188.094963

> <PUBCHEM_TOTAL_CHARGE>
0

> <PUBCHEM_HEAVY_ATOM_COUNT>
14

> <PUBCHEM_ATOM_DEF_STEREO_COUNT>
0

> <PUBCHEM_ATOM_UDEF_STEREO_COUNT>
0

> <PUBCHEM_BOND_DEF_STEREO_COUNT>
0

> <PUBCHEM_BOND_UDEF_STEREO_COUNT>
0

> <PUBCHEM_ISOTOPIC_ATOM_COUNT>
0

> <PUBCHEM_COMPONENT_COUNT>
1

> <PUBCHEM_CACTVS_TAUTO_COUNT>
2

> <PUBCHEM_COORDINATE_TYPE>
1
5
255

> <PUBCHEM_BONDANNOTATIONS>
11  14  8
12  13  8
13  14  8
6  11  8
6  7  8
7  12  8

$$$$

