10498
  -OEChem-06261204372D

 42 46  0     1  0  0  0  0  0999 V2000
    5.9422    0.4155    0.0000 O   0  0  0  0  0  0  0  0  0  0  0  0
    3.4976    2.8429    0.0000 O   0  0  0  0  0  0  0  0  0  0  0  0
    6.9727    2.3527    0.0000 O   0  0  0  0  0  0  0  0  0  0  0  0
    5.6636   -2.1272    0.0000 O   0  0  0  0  0  0  0  0  0  0  0  0
    2.9945    1.1843    0.0000 N   0  0  3  0  0  0  0  0  0  0  0  0
    4.5497    1.2227    0.0000 C   0  0  2  0  0  0  0  0  0  0  0  0
    3.8066    1.8918    0.0000 C   0  0  1  0  0  0  0  0  0  0  0  0
    2.8555    1.5828    0.0000 C   0  0  2  0  0  0  0  0  0  0  0  0
    4.2607    0.9152    0.0000 C   0  0  0  0  0  0  0  0  0  0  0  0
    5.5386    1.3240    0.0000 C   0  0  3  0  0  0  0  0  0  0  0  0
    4.3418    0.2445    0.0000 C   0  0  0  0  0  0  0  0  0  0  0  0
    2.6476    0.6046    0.0000 C   0  0  0  0  0  0  0  0  0  0  0  0
    3.5298    0.5898    0.0000 C   0  0  0  0  0  0  0  0  0  0  0  0
    3.3907   -0.0645    0.0000 C   0  0  0  0  0  0  0  0  0  0  0  0
    4.3467    3.0006    0.0000 C   0  0  0  0  0  0  0  0  0  0  0  0
    5.1265   -0.4404    0.0000 C   0  0  0  0  0  0  0  0  0  0  0  0
    5.9767    2.2622    0.0000 C   0  0  0  0  0  0  0  0  0  0  0  0
    5.3768    3.1062    0.0000 C   0  0  0  0  0  0  0  0  0  0  0  0
    2.0000    1.0798    0.0000 C   0  0  0  0  0  0  0  0  0  0  0  0
    3.1585   -1.0799    0.0000 C   0  0  0  0  0  0  0  0  0  0  0  0
    4.9178   -1.4610    0.0000 C   0  0  0  0  0  0  0  0  0  0  0  0
    3.9272   -1.7828    0.0000 C   0  0  0  0  0  0  0  0  0  0  0  0
    5.4594   -3.1062    0.0000 C   0  0  0  0  0  0  0  0  0  0  0  0
    2.0730    1.7491    0.0000 H   0  0  0  0  0  0  0  0  0  0  0  0
    4.2779    0.2954    0.0000 H   0  0  0  0  0  0  0  0  0  0  0  0
    3.9016    1.4207    0.0000 H   0  0  0  0  0  0  0  0  0  0  0  0
    6.1586    1.3182    0.0000 H   0  0  0  0  0  0  0  0  0  0  0  0
    2.0727    0.8369    0.0000 H   0  0  0  0  0  0  0  0  0  0  0  0
    2.3191    0.0788    0.0000 H   0  0  0  0  0  0  0  0  0  0  0  0
    3.0282    0.2254    0.0000 H   0  0  0  0  0  0  0  0  0  0  0  0
    3.8398    0.0529    0.0000 H   0  0  0  0  0  0  0  0  0  0  0  0
    3.9916    3.5088    0.0000 H   0  0  0  0  0  0  0  0  0  0  0  0
    2.8911    2.9718    0.0000 H   0  0  0  0  0  0  0  0  0  0  0  0
    5.6326    3.6709    0.0000 H   0  0  0  0  0  0  0  0  0  0  0  0
    1.9352    1.6964    0.0000 H   0  0  0  0  0  0  0  0  0  0  0  0
    1.3834    1.0150    0.0000 H   0  0  0  0  0  0  0  0  0  0  0  0
    2.0648    0.4632    0.0000 H   0  0  0  0  0  0  0  0  0  0  0  0
    2.5667   -1.2647    0.0000 H   0  0  0  0  0  0  0  0  0  0  0  0
    3.7959   -2.3888    0.0000 H   0  0  0  0  0  0  0  0  0  0  0  0
    4.8525   -2.9796    0.0000 H   0  0  0  0  0  0  0  0  0  0  0  0
    5.3328   -3.7131    0.0000 H   0  0  0  0  0  0  0  0  0  0  0  0
    6.0664   -3.2327    0.0000 H   0  0  0  0  0  0  0  0  0  0  0  0
  1 10  1  0  0  0  0
  1 16  1  0  0  0  0
  2  7  1  0  0  0  0
  2 33  1  0  0  0  0
  3 17  2  0  0  0  0
  4 21  1  0  0  0  0
  4 23  1  0  0  0  0
  5  8  1  0  0  0  0
  5 13  1  0  0  0  0
  5 19  1  0  0  0  0
  6  7  1  0  0  0  0
  6  9  1  0  0  0  0
  6 10  1  0  0  0  0
  6 11  1  0  0  0  0
  7  8  1  0  0  0  0
  7 15  1  0  0  0  0
  8 12  1  0  0  0  0
  8 24  1  0  0  0  0
  9 13  1  0  0  0  0
  9 25  1  0  0  0  0
  9 26  1  0  0  0  0
 10 17  1  0  0  0  0
 10 27  1  0  0  0  0
 11 14  2  0  0  0  0
 11 16  1  0  0  0  0
 12 14  1  0  0  0  0
 12 28  1  0  0  0  0
 12 29  1  0  0  0  0
 13 30  1  0  0  0  0
 13 31  1  0  0  0  0
 14 20  1  0  0  0  0
 15 18  2  0  0  0  0
 15 32  1  0  0  0  0
 16 21  2  0  0  0  0
 17 18  1  0  0  0  0
 18 34  1  0  0  0  0
 19 35  1  0  0  0  0
 19 36  1  0  0  0  0
 19 37  1  0  0  0  0
 20 22  2  0  0  0  0
 20 38  1  0  0  0  0
 21 22  1  0  0  0  0
 22 39  1  0  0  0  0
 23 40  1  0  0  0  0
 23 41  1  0  0  0  0
 23 42  1  0  0  0  0
M  END
> <PUBCHEM_COMPOUND_CID>
10498

> <PUBCHEM_COMPOUND_CANONICALIZED>
1

> <PUBCHEM_CACTVS_COMPLEXITY>
592

> <PUBCHEM_CACTVS_HBOND_ACCEPTOR>
5

> <PUBCHEM_CACTVS_HBOND_DONOR>
1

> <PUBCHEM_CACTVS_ROTATABLE_BOND>
1

> <PUBCHEM_CACTVS_SUBSKEYS>
AAADceB6OAAAAAAAAAAAAAAAAAAAASAAAAA8YIEAAAAWAEjBAAAAHgAACAAADnzhmAYyBoMABgCIAqBSAAICCAAgIAAIiAFOiMgPJjKEsR+GeCKlwBGauYf6/f/foAABAAAYQADQAAaAADSgAAAAAAAAAA==

> <PUBCHEM_IUPAC_OPENEYE_NAME>
(4S,4aS,12bS)-4a-hydroxy-9-methoxy-3-methyl-2,4,7a,13-tetrahydro-1H-4,12-methanobenzofuro[3,2-e]isoquinoline-7-one

> <PUBCHEM_IUPAC_CAS_NAME>
(4S,4aS,12bS)-4a-hydroxy-9-methoxy-3-methyl-2,4,7a,13-tetrahydro-1H-4,12-methanobenzofuro[3,2-e]isoquinoline-7-one

> <PUBCHEM_IUPAC_NAME>
(4S,4aS,12bS)-4a-hydroxy-9-methoxy-3-methyl-2,4,7a,13-tetrahydro-1H-4,12-methanobenzofuro[3,2-e]isoquinoline-7-one

> <PUBCHEM_IUPAC_SYSTEMATIC_NAME>
(4S,4aS,12bS)-9-methoxy-3-methyl-4a-oxidanyl-2,4,7a,13-tetrahydro-1H-4,12-methanobenzofuro[3,2-e]isoquinoline-7-one

> <PUBCHEM_IUPAC_TRADITIONAL_NAME>
(4S,4aS,12bS)-4a-hydroxy-9-methoxy-3-methyl-2,4,7a,13-tetrahydro-1H-4,12-methanobenzofuro[3,2-e]isoquinoline-7-one

> <PUBCHEM_IUPAC_INCHI>
InChI=1S/C18H19NO4/c1-19-8-7-17-14-10-3-4-12(22-2)15(14)23-16(17)11(20)5-6-18(17,21)13(19)9-10/h3-6,13,16,21H,7-9H2,1-2H3/t13-,16?,17-,18+/m0/s1

> <PUBCHEM_IUPAC_INCHIKEY>
YYCRAERBSFHMPL-DXJOGWAWSA-N

> <PUBCHEM_XLOGP3_AA>
1.1

> <PUBCHEM_EXACT_MASS>
313.131408

> <PUBCHEM_MOLECULAR_FORMULA>
C18H19NO4

> <PUBCHEM_MOLECULAR_WEIGHT>
313.34776

> <PUBCHEM_OPENEYE_CAN_SMILES>
CN1CCC23C4C(=O)C=CC2(C1CC5=C3C(=C(C=C5)OC)O4)O

> <PUBCHEM_OPENEYE_ISO_SMILES>
CN1CC[C@]23C4C(=O)C=C[C@]2([C@@H]1CC5=C3C(=C(C=C5)OC)O4)O

> <PUBCHEM_CACTVS_TPSA>
59

> <PUBCHEM_MONOISOTOPIC_WEIGHT>
313.131408

> <PUBCHEM_TOTAL_CHARGE>
0

> <PUBCHEM_HEAVY_ATOM_COUNT>
23

> <PUBCHEM_ATOM_DEF_STEREO_COUNT>
3

> <PUBCHEM_ATOM_UDEF_STEREO_COUNT>
1

> <PUBCHEM_BOND_DEF_STEREO_COUNT>
0

> <PUBCHEM_BOND_UDEF_STEREO_COUNT>
0

> <PUBCHEM_ISOTOPIC_ATOM_COUNT>
0

> <PUBCHEM_COMPONENT_COUNT>
1

> <PUBCHEM_CACTVS_TAUTO_COUNT>
2

> <PUBCHEM_COORDINATE_TYPE>
1
5
255

> <PUBCHEM_BONDANNOTATIONS>
10  27  3
11  14  8
11  16  8
14  20  8
16  21  8
7  2  3
20  22  8
21  22  8
6  9  3
8  24  3

$$$$

