9198
  -OEChem-06261203303D

 27 30  0     0  0  0  0  0  0999 V2000
    0.7319    1.8613    0.0016 S   0  0  0  0  0  0  0  0  0  0  0  0
    0.4964   -0.6992    0.0010 C   0  0  0  0  0  0  0  0  0  0  0  0
   -0.2813    0.4640    0.0010 C   0  0  0  0  0  0  0  0  0  0  0  0
    1.9213   -0.4165    0.0003 C   0  0  0  0  0  0  0  0  0  0  0  0
   -1.7146    0.4062    0.0005 C   0  0  0  0  0  0  0  0  0  0  0  0
    2.1809    0.9522    0.0007 C   0  0  0  0  0  0  0  0  0  0  0  0
   -2.3431   -0.8625    0.0004 C   0  0  0  0  0  0  0  0  0  0  0  0
   -0.1752   -1.9475    0.0010 C   0  0  0  0  0  0  0  0  0  0  0  0
   -1.5693   -2.0201    0.0008 C   0  0  0  0  0  0  0  0  0  0  0  0
    3.0340   -1.2988   -0.0009 C   0  0  0  0  0  0  0  0  0  0  0  0
   -2.5140    1.5715   -0.0004 C   0  0  0  0  0  0  0  0  0  0  0  0
    3.4964    1.4586    0.0002 C   0  0  0  0  0  0  0  0  0  0  0  0
   -3.7454   -0.9334   -0.0009 C   0  0  0  0  0  0  0  0  0  0  0  0
    4.3404   -0.8031   -0.0017 C   0  0  0  0  0  0  0  0  0  0  0  0
   -3.9059    1.4760   -0.0010 C   0  0  0  0  0  0  0  0  0  0  0  0
    4.5671    0.5642   -0.0012 C   0  0  0  0  0  0  0  0  0  0  0  0
   -4.5198    0.2273   -0.0014 C   0  0  0  0  0  0  0  0  0  0  0  0
    0.3966   -2.8730    0.0009 H   0  0  0  0  0  0  0  0  0  0  0  0
   -2.0380   -3.0023    0.0006 H   0  0  0  0  0  0  0  0  0  0  0  0
    2.8784   -2.3751   -0.0013 H   0  0  0  0  0  0  0  0  0  0  0  0
   -2.0714    2.5640   -0.0005 H   0  0  0  0  0  0  0  0  0  0  0  0
    3.6824    2.5292    0.0005 H   0  0  0  0  0  0  0  0  0  0  0  0
   -4.2508   -1.8973   -0.0012 H   0  0  0  0  0  0  0  0  0  0  0  0
    5.1790   -1.4935   -0.0026 H   0  0  0  0  0  0  0  0  0  0  0  0
   -4.5109    2.3781   -0.0014 H   0  0  0  0  0  0  0  0  0  0  0  0
    5.5850    0.9443   -0.0018 H   0  0  0  0  0  0  0  0  0  0  0  0
   -5.6036    0.1553   -0.0021 H   0  0  0  0  0  0  0  0  0  0  0  0
  1  3  1  0  0  0  0
  1  6  1  0  0  0  0
  2  3  2  0  0  0  0
  2  4  1  0  0  0  0
  2  8  1  0  0  0  0
  3  5  1  0  0  0  0
  4  6  1  0  0  0  0
  4 10  2  0  0  0  0
  5  7  1  0  0  0  0
  5 11  2  0  0  0  0
  6 12  2  0  0  0  0
  7  9  1  0  0  0  0
  7 13  2  0  0  0  0
  8  9  2  0  0  0  0
  8 18  1  0  0  0  0
  9 19  1  0  0  0  0
 10 14  1  0  0  0  0
 10 20  1  0  0  0  0
 11 15  1  0  0  0  0
 11 21  1  0  0  0  0
 12 16  1  0  0  0  0
 12 22  1  0  0  0  0
 13 17  1  0  0  0  0
 13 23  1  0  0  0  0
 14 16  2  0  0  0  0
 14 24  1  0  0  0  0
 15 17  2  0  0  0  0
 15 25  1  0  0  0  0
 16 26  1  0  0  0  0
 17 27  1  0  0  0  0
M  END
> <PUBCHEM_COMPOUND_CID>
9198

> <PUBCHEM_CONFORMER_RMSD>
0.4

> <PUBCHEM_CONFORMER_DIVERSEORDER>
1

> <PUBCHEM_MMFF94_PARTIAL_CHARGES>
23
1 -0.08
10 -0.15
11 -0.15
12 -0.15
13 -0.15
14 -0.15
15 -0.15
16 -0.15
17 -0.15
18 0.15
19 0.15
20 0.15
21 0.15
22 0.15
23 0.15
24 0.15
25 0.15
26 0.15
27 0.15
3 0.04
6 0.04
8 -0.15
9 -0.15

> <PUBCHEM_EFFECTIVE_ROTOR_COUNT>
0

> <PUBCHEM_PHARMACOPHORE_FEATURES>
4
5 1 2 3 4 6 rings
6 2 3 5 7 8 9 rings
6 4 6 10 12 14 16 rings
6 5 7 11 13 15 17 rings

> <PUBCHEM_HEAVY_ATOM_COUNT>
17

> <PUBCHEM_ATOM_DEF_STEREO_COUNT>
0

> <PUBCHEM_ATOM_UDEF_STEREO_COUNT>
0

> <PUBCHEM_BOND_DEF_STEREO_COUNT>
0

> <PUBCHEM_BOND_UDEF_STEREO_COUNT>
0

> <PUBCHEM_ISOTOPIC_ATOM_COUNT>
0

> <PUBCHEM_COMPONENT_COUNT>
1

> <PUBCHEM_CACTVS_TAUTO_COUNT>
1

> <PUBCHEM_CONFORMER_ID>
000023EE00000001

> <PUBCHEM_MMFF94_ENERGY>
50.8268

> <PUBCHEM_FEATURE_SELFOVERLAP>
20.434

> <PUBCHEM_SHAPE_FINGERPRINT>
10062212 137 18335711545657416111
10411042 1 16753530484631321478
10608611 8 18336830792823350120
10616163 171 18337106752993779878
10967382 1 18410855490214031874
11132069 177 18410298012091260720
11471102 20 18410014338412982924
11578080 2 16807866316970153483
12236239 1 17846499236342048098
12251169 10 18412826867349694580
12403814 3 17703794725515619757
12592029 89 18342454897715285107
13140716 1 18339080492176202504
13221675 6 18412827966824496499
13380535 76 18409446998823961823
13675066 3 18342735191507001378
14144814 61 18411419505335179968
14178342 30 18050024198683729586
14866123 147 16890595092721403610
15042514 8 18267580196553817083
15196674 1 18410575084663078917
15375358 24 18261110772855871966
15442244 35 18411139164588531520
15536298 74 18335421266266416648
16945 1 18194401078488942471
17802600 8 18410296899842508469
17804303 29 18409726240275084813
1813 80 17060339639221366836
18186145 218 18340771532517363948
18522853 276 18408041809878172265
19591789 44 18340207500174434386
200 152 17894635846610399045
20510252 161 18261390074468491265
20645477 70 18261672666316209326
21029758 11 18333455330833660977
21267235 1 18411128139291749906
21501502 16 18338798888413795798
21524375 3 18411136952627912351
221490 88 18268986488466548362
23402539 116 18261119577238018669
23402655 69 18334296478445049436
23463225 33 18412826906204827758
23559900 14 18333732442666690318
2748010 2 18410571799013130126
3004659 81 18271236236436398862
335352 9 18338799034405741334
34934 24 18410017607110013410
350125 39 18410852145131282329
3545911 37 18409446977480753696
4214541 1 18410573993752130113
474 4 17273972433469088716
495365 180 17386019342712885576
4990 188 18113892788788795396
5104073 3 18411138026047672114
69090 78 18407762525445591303
7364860 26 18336265768670022958
77779 3 18411135831314114624
8809292 202 18342736273875956155
9709674 26 18408316666495305478
9981440 41 17191221934027014224

> <PUBCHEM_SHAPE_MULTIPOLES>
353.7
8.62
2.08
0.62
1.2
0.12
0
-1.12
0.01
-0.3
0
0
-0.01
0

> <PUBCHEM_SHAPE_SELFOVERLAP>
798.615

> <PUBCHEM_SHAPE_VOLUME>
186.2

> <PUBCHEM_COORDINATE_TYPE>
2
5
10

$$$$

