6722
  -OEChem-06261201283D

 24 25  0     0  0  0  0  0  0999 V2000
    2.3130    0.2955   -0.0770 S   0  0  0  0  0  0  0  0  0  0  0  0
    2.4357    0.9782    1.3992 O   0  0  0  0  0  0  0  0  0  0  0  0
    3.3730   -0.6890   -0.1887 O   0  0  0  0  0  0  0  0  0  0  0  0
    2.1579    1.3501   -1.0605 O   0  0  0  0  0  0  0  0  0  0  0  0
    0.3769    2.3310   -0.0487 N   0  0  0  0  0  0  0  0  0  0  0  0
   -0.4979   -0.0042   -0.0167 C   0  0  0  0  0  0  0  0  0  0  0  0
    0.7839   -0.5777   -0.0402 C   0  0  0  0  0  0  0  0  0  0  0  0
   -1.6332   -0.8487    0.0119 C   0  0  0  0  0  0  0  0  0  0  0  0
   -0.6780    1.3885   -0.0210 C   0  0  0  0  0  0  0  0  0  0  0  0
    0.9441   -1.9637   -0.0354 C   0  0  0  0  0  0  0  0  0  0  0  0
   -1.4534   -2.2416    0.0159 C   0  0  0  0  0  0  0  0  0  0  0  0
   -2.9151   -0.2755    0.0352 C   0  0  0  0  0  0  0  0  0  0  0  0
   -0.1724   -2.7941   -0.0077 C   0  0  0  0  0  0  0  0  0  0  0  0
   -1.9589    1.9408    0.0028 C   0  0  0  0  0  0  0  0  0  0  0  0
   -3.0755    1.1104    0.0309 C   0  0  0  0  0  0  0  0  0  0  0  0
    1.9118   -2.4546   -0.0475 H   0  0  0  0  0  0  0  0  0  0  0  0
   -2.3118   -2.9098    0.0377 H   0  0  0  0  0  0  0  0  0  0  0  0
   -3.8020   -0.9055    0.0573 H   0  0  0  0  0  0  0  0  0  0  0  0
   -0.0482   -3.8733   -0.0028 H   0  0  0  0  0  0  0  0  0  0  0  0
   -2.1072    3.0182    0.0011 H   0  0  0  0  0  0  0  0  0  0  0  0
   -4.0725    1.5407    0.0496 H   0  0  0  0  0  0  0  0  0  0  0  0
    1.0852    2.2432    0.6686 H   0  0  0  0  0  0  0  0  0  0  0  0
    0.1366    3.2865   -0.2895 H   0  0  0  0  0  0  0  0  0  0  0  0
    2.4684    0.3475    2.1565 H   0  0  0  0  0  0  0  0  0  0  0  0
  1  2  1  0  0  0  0
  1  3  2  0  0  0  0
  1  4  2  0  0  0  0
  1  7  1  0  0  0  0
  2 24  1  0  0  0  0
  5  9  1  0  0  0  0
  5 22  1  0  0  0  0
  5 23  1  0  0  0  0
  6  7  1  0  0  0  0
  6  8  2  0  0  0  0
  6  9  1  0  0  0  0
  7 10  2  0  0  0  0
  8 11  1  0  0  0  0
  8 12  1  0  0  0  0
  9 14  2  0  0  0  0
 10 13  1  0  0  0  0
 10 16  1  0  0  0  0
 11 13  2  0  0  0  0
 11 17  1  0  0  0  0
 12 15  2  0  0  0  0
 12 18  1  0  0  0  0
 13 19  1  0  0  0  0
 14 15  1  0  0  0  0
 14 20  1  0  0  0  0
 15 21  1  0  0  0  0
M  END
> <PUBCHEM_COMPOUND_CID>
6722

> <PUBCHEM_CONFORMER_RMSD>
0.4

> <PUBCHEM_CONFORMER_DIVERSEORDER>
1

> <PUBCHEM_MMFF94_PARTIAL_CHARGES>
22
1 1.49
10 -0.15
11 -0.15
12 -0.15
13 -0.15
14 -0.15
15 -0.15
16 0.15
17 0.15
18 0.15
19 0.15
2 -0.68
20 0.15
21 0.15
22 0.4
23 0.4
24 0.5
3 -0.65
4 -0.65
5 -0.9
7 -0.01
9 0.1

> <PUBCHEM_EFFECTIVE_ROTOR_COUNT>
1

> <PUBCHEM_PHARMACOPHORE_FEATURES>
8
1 2 acceptor
1 3 acceptor
1 4 acceptor
1 5 cation
1 5 donor
4 1 2 3 4 anion
6 6 7 8 10 11 13 rings
6 6 8 9 12 14 15 rings

> <PUBCHEM_HEAVY_ATOM_COUNT>
15

> <PUBCHEM_ATOM_DEF_STEREO_COUNT>
0

> <PUBCHEM_ATOM_UDEF_STEREO_COUNT>
0

> <PUBCHEM_BOND_DEF_STEREO_COUNT>
0

> <PUBCHEM_BOND_UDEF_STEREO_COUNT>
0

> <PUBCHEM_ISOTOPIC_ATOM_COUNT>
0

> <PUBCHEM_COMPONENT_COUNT>
1

> <PUBCHEM_CACTVS_TAUTO_COUNT>
1

> <PUBCHEM_CONFORMER_ID>
00001A4200000001

> <PUBCHEM_MMFF94_ENERGY>
69.2607

> <PUBCHEM_FEATURE_SELFOVERLAP>
40.678

> <PUBCHEM_SHAPE_FINGERPRINT>
10967382 1 18267020755129103991
11132069 177 18411143532275021961
12382932 28 18192719946880147112
12423570 1 17533768313217748559
12524768 44 18052256494818502875
13140716 1 18338515240120349579
13172582 1 18411133602458177297
13380535 76 18339363083981975543
13897977 150 18194686097283274717
14614273 12 18200317765638887613
15775835 57 18262514921902344881
16945 1 18266458698481374967
17804303 29 18336549417031774970
193761 8 17762054337767337917
20510252 161 18261952947049067825
20645476 183 17844789439409505790
21524375 3 18336828688247384871
22802520 49 18187909673803420398
2334 1 18338797930878818143
23402539 116 18334587853268610574
23419403 2 16242733841625886821
23463225 33 18270963556555236250
23493267 7 17703501203118545089
23552423 10 18052253183451549687
23559900 14 18261104189541231084
241688 4 16465862611112250243
2748010 2 18267300009744872767
2897 32 18051127291707295829
5255222 1 18050009084129266644
528886 8 18411140276700270115
53812653 166 18263082269886479113
7364860 26 17901951068920940775
81228 2 18121788222721467227

> <PUBCHEM_SHAPE_MULTIPOLES>
289.95
4.2
2.81
0.76
0.59
0.98
-0.08
-1.16
-0.07
-0.37
0.05
0.34
-0.18
0.04

> <PUBCHEM_SHAPE_SELFOVERLAP>
627.169

> <PUBCHEM_SHAPE_VOLUME>
158.7

> <PUBCHEM_COORDINATE_TYPE>
2
5
10

$$$$

