13633
  -OEChem-06241222393D

 28 28  0     0  0  0  0  0  0999 V2000
   -0.5367   -1.6374   -0.3894 C   0  0  0  0  0  0  0  0  0  0  0  0
    0.5896   -1.5634    0.6515 C   0  0  0  0  0  0  0  0  0  0  0  0
   -1.9133   -1.2703    0.1950 C   0  0  0  0  0  0  0  0  0  0  0  0
    1.9857   -1.2974    0.0705 C   0  0  0  0  0  0  0  0  0  0  0  0
   -2.5226    0.0396   -0.3431 C   0  0  0  0  0  0  0  0  0  0  0  0
    2.2074    0.0195   -0.6978 C   0  0  0  0  0  0  0  0  0  0  0  0
   -1.8907    1.3443    0.1707 C   0  0  0  0  0  0  0  0  0  0  0  0
    1.9860    1.3211    0.0948 C   0  0  0  0  0  0  0  0  0  0  0  0
   -0.4770    1.5037   -0.2935 C   0  0  0  0  0  0  0  0  0  0  0  0
    0.5716    1.5404    0.5413 C   0  0  0  0  0  0  0  0  0  0  0  0
   -0.5788   -2.6736   -0.7507 H   0  0  0  0  0  0  0  0  0  0  0  0
   -0.3243   -1.0360   -1.2767 H   0  0  0  0  0  0  0  0  0  0  0  0
    0.6221   -2.5261    1.1793 H   0  0  0  0  0  0  0  0  0  0  0  0
    0.3684   -0.8309    1.4318 H   0  0  0  0  0  0  0  0  0  0  0  0
   -1.8922   -1.2491    1.2907 H   0  0  0  0  0  0  0  0  0  0  0  0
   -2.6083   -2.0758   -0.0774 H   0  0  0  0  0  0  0  0  0  0  0  0
    2.2434   -2.1269   -0.6004 H   0  0  0  0  0  0  0  0  0  0  0  0
    2.7087   -1.3386    0.8952 H   0  0  0  0  0  0  0  0  0  0  0  0
   -3.5812    0.0545   -0.0530 H   0  0  0  0  0  0  0  0  0  0  0  0
   -2.5089    0.0242   -1.4405 H   0  0  0  0  0  0  0  0  0  0  0  0
    1.6052    0.0240   -1.6131 H   0  0  0  0  0  0  0  0  0  0  0  0
    3.2511    0.0217   -1.0396 H   0  0  0  0  0  0  0  0  0  0  0  0
   -1.9564    1.3723    1.2649 H   0  0  0  0  0  0  0  0  0  0  0  0
   -2.4746    2.1933   -0.2035 H   0  0  0  0  0  0  0  0  0  0  0  0
    2.3065    2.1786   -0.5092 H   0  0  0  0  0  0  0  0  0  0  0  0
    2.6338    1.3089    0.9799 H   0  0  0  0  0  0  0  0  0  0  0  0
   -0.3075    1.4565   -1.3663 H   0  0  0  0  0  0  0  0  0  0  0  0
    0.4008    1.5708    1.6147 H   0  0  0  0  0  0  0  0  0  0  0  0
  1  2  1  0  0  0  0
  1  3  1  0  0  0  0
  1 11  1  0  0  0  0
  1 12  1  0  0  0  0
  2  4  1  0  0  0  0
  2 13  1  0  0  0  0
  2 14  1  0  0  0  0
  3  5  1  0  0  0  0
  3 15  1  0  0  0  0
  3 16  1  0  0  0  0
  4  6  1  0  0  0  0
  4 17  1  0  0  0  0
  4 18  1  0  0  0  0
  5  7  1  0  0  0  0
  5 19  1  0  0  0  0
  5 20  1  0  0  0  0
  6  8  1  0  0  0  0
  6 21  1  0  0  0  0
  6 22  1  0  0  0  0
  7  9  1  0  0  0  0
  7 23  1  0  0  0  0
  7 24  1  0  0  0  0
  8 10  1  0  0  0  0
  8 25  1  0  0  0  0
  8 26  1  0  0  0  0
  9 10  2  0  0  0  0
  9 27  1  0  0  0  0
 10 28  1  0  0  0  0
M  END
> <PUBCHEM_COMPOUND_CID>
13633

> <PUBCHEM_CONFORMER_RMSD>
0.4

> <PUBCHEM_CONFORMER_DIVERSEORDER>
1

> <PUBCHEM_MMFF94_PARTIAL_CHARGES>
6
10 -0.29
27 0.15
28 0.15
7 0.14
8 0.14
9 -0.29

> <PUBCHEM_EFFECTIVE_ROTOR_COUNT>
1.6

> <PUBCHEM_PHARMACOPHORE_FEATURES>
0

> <PUBCHEM_HEAVY_ATOM_COUNT>
10

> <PUBCHEM_ATOM_DEF_STEREO_COUNT>
0

> <PUBCHEM_ATOM_UDEF_STEREO_COUNT>
0

> <PUBCHEM_BOND_DEF_STEREO_COUNT>
0

> <PUBCHEM_BOND_UDEF_STEREO_COUNT>
1

> <PUBCHEM_ISOTOPIC_ATOM_COUNT>
0

> <PUBCHEM_COMPONENT_COUNT>
1

> <PUBCHEM_CACTVS_TAUTO_COUNT>
1

> <PUBCHEM_CONFORMER_ID>
0000354100000001

> <PUBCHEM_MMFF94_ENERGY>
16.1584

> <PUBCHEM_FEATURE_SELFOVERLAP>
0

> <PUBCHEM_SHAPE_FINGERPRINT>
12897270 3 18412543197618367381
14251711 518 18337117760820795207
14251717 144 17761780959200249341
15775835 57 18341321292536600340
16945 1 18410008810410258272
18185500 45 17835241529409931530
20201158 50 18337113371369025668
22802520 49 18262777628215175390
23552423 10 18342737377724658157
241688 4 17905045850507994563
2748010 2 18410856525343361335
2897 32 18412824719871353796
5084963 1 17775003513514134967
528862 383 18055347200424090217
66348 1 18410575089068829031

> <PUBCHEM_SHAPE_MULTIPOLES>
205.8
3.37
2.28
0.78
0.33
0.07
0
-0.04
-0.34
-0.06
0.21
-0.1
0.03
-0.01

> <PUBCHEM_SHAPE_SELFOVERLAP>
386.34

> <PUBCHEM_SHAPE_VOLUME>
124.8

> <PUBCHEM_COORDINATE_TYPE>
2
5
10

$$$$

