5113
  -OEChem-06261200312D

 61 62  0     1  0  0  0  0  0999 V2000
    6.3301   -5.9151    0.0000 Br  0  0  0  0  0  0  0  0  0  0  0  0
    5.4641    1.5849    0.0000 P   0  0  0  0  0  0  0  0  0  0  0  0
    3.7320    1.5849    0.0000 O   0  0  0  0  0  0  0  0  0  0  0  0
    6.3301    2.0849    0.0000 O   0  0  0  0  0  0  0  0  0  0  0  0
    4.9641    2.4510    0.0000 O   0  0  0  0  0  0  0  0  0  0  0  0
    5.9641    0.7189    0.0000 O   0  0  0  0  0  0  0  0  0  0  0  0
    6.3301   -1.9151    0.0000 O   0  0  0  0  0  0  0  0  0  0  0  0
    2.8660    3.0849    0.0000 O   0  0  0  0  0  0  0  0  0  0  0  0
    8.0622    2.0849    0.0000 O   0  0  0  0  0  0  0  0  0  0  0  0
    4.9641    4.1830    0.0000 O   0  0  0  0  0  0  0  0  0  0  0  0
    2.0000   -0.4151    0.0000 O   0  5  0  0  0  0  0  0  0  0  0  0
    2.8660    1.0849    0.0000 O   0  0  0  0  0  0  0  0  0  0  0  0
    3.7320    4.5849    0.0000 O   0  0  0  0  0  0  0  0  0  0  0  0
    6.4641    5.0490    0.0000 O   0  0  0  0  0  0  0  0  0  0  0  0
    8.9282    0.5849    0.0000 O   0  0  0  0  0  0  0  0  0  0  0  0
    2.8660    0.0849    0.0000 N   0  3  0  0  0  0  0  0  0  0  0  0
    4.5981    1.0849    0.0000 C   0  0  3  0  0  0  0  0  0  0  0  0
    4.5981    0.0849    0.0000 C   0  0  0  0  0  0  0  0  0  0  0  0
    3.7320   -0.4151    0.0000 C   0  0  0  0  0  0  0  0  0  0  0  0
    5.4641   -0.4151    0.0000 C   0  0  0  0  0  0  0  0  0  0  0  0
    5.4641   -1.4151    0.0000 C   0  0  0  0  0  0  0  0  0  0  0  0
    3.7320   -1.4151    0.0000 C   0  0  0  0  0  0  0  0  0  0  0  0
    4.5981   -1.9151    0.0000 C   0  0  0  0  0  0  0  0  0  0  0  0
    3.7320    2.5849    0.0000 C   0  0  0  0  0  0  0  0  0  0  0  0
    7.1962    1.5849    0.0000 C   0  0  0  0  0  0  0  0  0  0  0  0
    5.4641    3.3170    0.0000 C   0  0  0  0  0  0  0  0  0  0  0  0
    6.3301   -2.9151    0.0000 C   0  0  0  0  0  0  0  0  0  0  0  0
    5.4641   -3.4151    0.0000 C   0  0  0  0  0  0  0  0  0  0  0  0
    7.1962   -3.4151    0.0000 C   0  0  0  0  0  0  0  0  0  0  0  0
    2.8660    4.0849    0.0000 C   0  0  0  0  0  0  0  0  0  0  0  0
    5.4641   -4.4151    0.0000 C   0  0  0  0  0  0  0  0  0  0  0  0
    7.1962   -4.4151    0.0000 C   0  0  0  0  0  0  0  0  0  0  0  0
    8.9282    1.5849    0.0000 C   0  0  0  0  0  0  0  0  0  0  0  0
    5.4641    5.0490    0.0000 C   0  0  0  0  0  0  0  0  0  0  0  0
    6.3301   -4.9151    0.0000 C   0  0  0  0  0  0  0  0  0  0  0  0
    2.0000    4.5849    0.0000 C   0  0  0  0  0  0  0  0  0  0  0  0
    9.7942    2.0849    0.0000 C   0  0  0  0  0  0  0  0  0  0  0  0
    4.9641    5.9151    0.0000 C   0  0  0  0  0  0  0  0  0  0  0  0
    4.5981    1.7049    0.0000 H   0  0  0  0  0  0  0  0  0  0  0  0
    6.0010   -0.1051    0.0000 H   0  0  0  0  0  0  0  0  0  0  0  0
    3.1951   -1.7251    0.0000 H   0  0  0  0  0  0  0  0  0  0  0  0
    4.5981   -2.5351    0.0000 H   0  0  0  0  0  0  0  0  0  0  0  0
    4.3426    2.4773    0.0000 H   0  0  0  0  0  0  0  0  0  0  0  0
    3.9441    3.1676    0.0000 H   0  0  0  0  0  0  0  0  0  0  0  0
    6.7976    1.1100    0.0000 H   0  0  0  0  0  0  0  0  0  0  0  0
    7.5947    1.1100    0.0000 H   0  0  0  0  0  0  0  0  0  0  0  0
    5.9390    2.9185    0.0000 H   0  0  0  0  0  0  0  0  0  0  0  0
    5.9390    3.7155    0.0000 H   0  0  0  0  0  0  0  0  0  0  0  0
    4.9272   -3.1051    0.0000 H   0  0  0  0  0  0  0  0  0  0  0  0
    7.7331   -3.1051    0.0000 H   0  0  0  0  0  0  0  0  0  0  0  0
    4.9272   -4.7251    0.0000 H   0  0  0  0  0  0  0  0  0  0  0  0
    7.7331   -4.7251    0.0000 H   0  0  0  0  0  0  0  0  0  0  0  0
    2.3100    5.1219    0.0000 H   0  0  0  0  0  0  0  0  0  0  0  0
    1.4631    4.8949    0.0000 H   0  0  0  0  0  0  0  0  0  0  0  0
    1.6900    4.0480    0.0000 H   0  0  0  0  0  0  0  0  0  0  0  0
    5.5010    6.2251    0.0000 H   0  0  0  0  0  0  0  0  0  0  0  0
    4.6541    6.4520    0.0000 H   0  0  0  0  0  0  0  0  0  0  0  0
    4.4272    5.6051    0.0000 H   0  0  0  0  0  0  0  0  0  0  0  0
   10.1042    1.5480    0.0000 H   0  0  0  0  0  0  0  0  0  0  0  0
   10.3312    2.3949    0.0000 H   0  0  0  0  0  0  0  0  0  0  0  0
    9.4842    2.6219    0.0000 H   0  0  0  0  0  0  0  0  0  0  0  0
  1 35  1  0  0  0  0
  2  4  1  0  0  0  0
  2  5  1  0  0  0  0
  2  6  2  0  0  0  0
  2 17  1  0  0  0  0
  3 17  1  0  0  0  0
  3 24  1  0  0  0  0
  4 25  1  0  0  0  0
  5 26  1  0  0  0  0
  7 21  1  0  0  0  0
  7 27  1  0  0  0  0
  8 24  1  0  0  0  0
  8 30  1  0  0  0  0
  9 25  1  0  0  0  0
  9 33  1  0  0  0  0
 10 26  1  0  0  0  0
 10 34  1  0  0  0  0
 11 16  1  0  0  0  0
 12 16  2  0  0  0  0
 13 30  2  0  0  0  0
 14 34  2  0  0  0  0
 15 33  2  0  0  0  0
 16 19  1  0  0  0  0
 17 18  1  0  0  0  0
 17 39  1  0  0  0  0
 18 19  2  0  0  0  0
 18 20  1  0  0  0  0
 19 22  1  0  0  0  0
 20 21  2  0  0  0  0
 20 40  1  0  0  0  0
 21 23  1  0  0  0  0
 22 23  2  0  0  0  0
 22 41  1  0  0  0  0
 23 42  1  0  0  0  0
 24 43  1  0  0  0  0
 24 44  1  0  0  0  0
 25 45  1  0  0  0  0
 25 46  1  0  0  0  0
 26 47  1  0  0  0  0
 26 48  1  0  0  0  0
 27 28  2  0  0  0  0
 27 29  1  0  0  0  0
 28 31  1  0  0  0  0
 28 49  1  0  0  0  0
 29 32  2  0  0  0  0
 29 50  1  0  0  0  0
 30 36  1  0  0  0  0
 31 35  2  0  0  0  0
 31 51  1  0  0  0  0
 32 35  1  0  0  0  0
 32 52  1  0  0  0  0
 33 37  1  0  0  0  0
 34 38  1  0  0  0  0
 36 53  1  0  0  0  0
 36 54  1  0  0  0  0
 36 55  1  0  0  0  0
 37 59  1  0  0  0  0
 37 60  1  0  0  0  0
 37 61  1  0  0  0  0
 38 56  1  0  0  0  0
 38 57  1  0  0  0  0
 38 58  1  0  0  0  0
M  CHG  2  11  -1  16   1
M  END
> <PUBCHEM_COMPOUND_CID>
5113

> <PUBCHEM_COMPOUND_CANONICALIZED>
1

> <PUBCHEM_CACTVS_COMPLEXITY>
837

> <PUBCHEM_CACTVS_HBOND_ACCEPTOR>
13

> <PUBCHEM_CACTVS_HBOND_DONOR>
0

> <PUBCHEM_CACTVS_ROTATABLE_BOND>
16

> <PUBCHEM_CACTVS_SUBSKEYS>
AAADceB6PAIAEAAAAAAAAAAAAAAAAAAAAAAwYAAAAAAAAAABQAAAHghEACABrAypmAMyzoAQRRCJQiTSS4CCCAAgIgQoiAAGbKocJiKEsZuiOCDmwBEM6hfwwDAOAFABAAACAAAAoAIAAAQAAAAAAAAAAA==

> <PUBCHEM_IUPAC_OPENEYE_NAME>
[bis(acetoxymethoxy)phosphoryl-[5-(4-bromophenoxy)-2-nitro-phenyl]methoxy]methyl acetate

> <PUBCHEM_IUPAC_CAS_NAME>
acetic acid [bis(acetyloxymethoxy)phosphoryl-[5-(4-bromophenoxy)-2-nitrophenyl]methoxy]methyl ester

> <PUBCHEM_IUPAC_NAME>
[bis(acetyloxymethoxy)phosphoryl-[5-(4-bromophenoxy)-2-nitrophenyl]methoxy]methyl acetate

> <PUBCHEM_IUPAC_SYSTEMATIC_NAME>
[bis(acetyloxymethoxy)phosphoryl-[5-(4-bromanylphenoxy)-2-nitro-phenyl]methoxy]methyl ethanoate

> <PUBCHEM_IUPAC_TRADITIONAL_NAME>
acetic acid [bis(acetoxymethoxy)phosphoryl-[5-(4-bromophenoxy)-2-nitro-phenyl]methoxy]methyl ester

> <PUBCHEM_IUPAC_INCHI>
InChI=1S/C22H23BrNO13P/c1-14(25)31-11-34-22(38(30,35-12-32-15(2)26)36-13-33-16(3)27)20-10-19(8-9-21(20)24(28)29)37-18-6-4-17(23)5-7-18/h4-10,22H,11-13H2,1-3H3

> <PUBCHEM_IUPAC_INCHIKEY>
PNSMAGLFLKTDRF-UHFFFAOYSA-N

> <PUBCHEM_XLOGP3_AA>
3

> <PUBCHEM_EXACT_MASS>
619.009039

> <PUBCHEM_MOLECULAR_FORMULA>
C22H23BrNO13P

> <PUBCHEM_MOLECULAR_WEIGHT>
620.294682

> <PUBCHEM_OPENEYE_CAN_SMILES>
CC(=O)OCOC(C1=C(C=CC(=C1)OC2=CC=C(C=C2)Br)[N+](=O)[O-])P(=O)(OCOC(=O)C)OCOC(=O)C

> <PUBCHEM_OPENEYE_ISO_SMILES>
CC(=O)OCOC(C1=C(C=CC(=C1)OC2=CC=C(C=C2)Br)[N+](=O)[O-])P(=O)(OCOC(=O)C)OCOC(=O)C

> <PUBCHEM_CACTVS_TPSA>
179

> <PUBCHEM_MONOISOTOPIC_WEIGHT>
619.009039

> <PUBCHEM_TOTAL_CHARGE>
0

> <PUBCHEM_HEAVY_ATOM_COUNT>
38

> <PUBCHEM_ATOM_DEF_STEREO_COUNT>
0

> <PUBCHEM_ATOM_UDEF_STEREO_COUNT>
1

> <PUBCHEM_BOND_DEF_STEREO_COUNT>
0

> <PUBCHEM_BOND_UDEF_STEREO_COUNT>
0

> <PUBCHEM_ISOTOPIC_ATOM_COUNT>
0

> <PUBCHEM_COMPONENT_COUNT>
1

> <PUBCHEM_CACTVS_TAUTO_COUNT>
1

> <PUBCHEM_COORDINATE_TYPE>
1
5
255

> <PUBCHEM_BONDANNOTATIONS>
18  19  8
18  20  8
19  22  8
20  21  8
21  23  8
22  23  8
27  28  8
27  29  8
28  31  8
29  32  8
17  3  3
31  35  8
32  35  8

$$$$

