12961
  -OEChem-06261207353D

 10  9  0     0  0  0  0  0  0999 V2000
   -2.0958    0.0495    0.4040 S   0  0  0  0  0  0  0  0  0  0  0  0
    0.7614    1.2814   -0.0404 O   0  0  0  0  0  0  0  0  0  0  0  0
    1.4846   -0.8689    0.3291 N   0  0  0  0  0  0  0  0  0  0  0  0
   -0.7150   -0.5306   -0.6096 C   0  0  0  0  0  0  0  0  0  0  0  0
    0.5648    0.0687   -0.0830 C   0  0  0  0  0  0  0  0  0  0  0  0
   -0.6898   -1.6237   -0.5912 H   0  0  0  0  0  0  0  0  0  0  0  0
   -0.8523   -0.2066   -1.6454 H   0  0  0  0  0  0  0  0  0  0  0  0
    2.3856   -0.5851    0.6995 H   0  0  0  0  0  0  0  0  0  0  0  0
    1.3075   -1.8673    0.2849 H   0  0  0  0  0  0  0  0  0  0  0  0
   -1.7020   -0.5271    1.5492 H   0  0  0  0  0  0  0  0  0  0  0  0
  1  4  1  0  0  0  0
  1 10  1  0  0  0  0
  2  5  2  0  0  0  0
  3  5  1  0  0  0  0
  3  8  1  0  0  0  0
  3  9  1  0  0  0  0
  4  5  1  0  0  0  0
  4  6  1  0  0  0  0
  4  7  1  0  0  0  0
M  END
> <PUBCHEM_COMPOUND_CID>
12961

> <PUBCHEM_CONFORMER_RMSD>
0.4

> <PUBCHEM_CONFORMER_DIVERSEORDER>
2
6
3
4
5
1

> <PUBCHEM_MMFF94_PARTIAL_CHARGES>
8
1 -0.41
10 0.18
2 -0.57
3 -0.8
4 0.29
5 0.57
8 0.37
9 0.37

> <PUBCHEM_EFFECTIVE_ROTOR_COUNT>
1

> <PUBCHEM_PHARMACOPHORE_FEATURES>
2
1 2 acceptor
1 3 donor

> <PUBCHEM_HEAVY_ATOM_COUNT>
5

> <PUBCHEM_ATOM_DEF_STEREO_COUNT>
0

> <PUBCHEM_ATOM_UDEF_STEREO_COUNT>
0

> <PUBCHEM_BOND_DEF_STEREO_COUNT>
0

> <PUBCHEM_BOND_UDEF_STEREO_COUNT>
0

> <PUBCHEM_ISOTOPIC_ATOM_COUNT>
0

> <PUBCHEM_COMPONENT_COUNT>
1

> <PUBCHEM_CACTVS_TAUTO_COUNT>
2

> <PUBCHEM_CONFORMER_ID>
000032A100000002

> <PUBCHEM_MMFF94_ENERGY>
6.2835

> <PUBCHEM_FEATURE_SELFOVERLAP>
10.148

> <PUBCHEM_SHAPE_FINGERPRINT>
139733 1 8069729815318995258
20096714 4 18189046495711681269
21015797 1 9869544631094213422
29004967 10 18202283640657504866
5943 1 16551389067776289782

> <PUBCHEM_SHAPE_MULTIPOLES>
95.9
2.3
1.04
0.74
1.01
0.2
0.02
-0.12
-0.45
-0.32
0.01
0.12
-0.07
-0.16

> <PUBCHEM_SHAPE_SELFOVERLAP>
161.067

> <PUBCHEM_SHAPE_VOLUME>
66.5

> <PUBCHEM_COORDINATE_TYPE>
2
5
10

$$$$

