5497
  -OEChem-06261200423D

 27 27  0     0  0  0  0  0  0999 V2000
    0.8825   -1.6622   -1.2102 O   0  0  0  0  0  0  0  0  0  0  0  0
    1.6369    0.1890    0.0017 N   0  0  0  0  0  0  0  0  0  0  0  0
   -2.6444   -0.6924    1.2154 N   0  0  0  0  0  0  0  0  0  0  0  0
    3.0425   -0.0840   -0.2624 C   0  0  0  0  0  0  0  0  0  0  0  0
    1.3638    1.3710    0.8164 C   0  0  0  0  0  0  0  0  0  0  0  0
    0.6619   -0.6659   -0.5228 C   0  0  0  0  0  0  0  0  0  0  0  0
    3.6130   -0.9797    0.8203 C   0  0  0  0  0  0  0  0  0  0  0  0
    1.2011    2.5904   -0.0706 C   0  0  0  0  0  0  0  0  0  0  0  0
   -0.7508   -0.3784   -0.2276 C   0  0  0  0  0  0  0  0  0  0  0  0
   -1.4876    0.4344   -1.0662 C   0  0  0  0  0  0  0  0  0  0  0  0
   -1.3523   -0.9163    0.8868 C   0  0  0  0  0  0  0  0  0  0  0  0
   -2.8203    0.6882   -0.7614 C   0  0  0  0  0  0  0  0  0  0  0  0
   -3.3466    0.1060    0.3806 C   0  0  0  0  0  0  0  0  0  0  0  0
    3.1372   -0.5875   -1.2310 H   0  0  0  0  0  0  0  0  0  0  0  0
    3.5985    0.8574   -0.3256 H   0  0  0  0  0  0  0  0  0  0  0  0
    0.4532    1.2239    1.4032 H   0  0  0  0  0  0  0  0  0  0  0  0
    2.1825    1.5194    1.5290 H   0  0  0  0  0  0  0  0  0  0  0  0
    3.5489   -0.5062    1.8053 H   0  0  0  0  0  0  0  0  0  0  0  0
    3.0733   -1.9313    0.8734 H   0  0  0  0  0  0  0  0  0  0  0  0
    4.6660   -1.1974    0.6165 H   0  0  0  0  0  0  0  0  0  0  0  0
    2.1153    2.7900   -0.6395 H   0  0  0  0  0  0  0  0  0  0  0  0
    0.3876    2.4767   -0.7900 H   0  0  0  0  0  0  0  0  0  0  0  0
    0.9881    3.4733    0.5404 H   0  0  0  0  0  0  0  0  0  0  0  0
   -1.0483    0.8689   -1.9593 H   0  0  0  0  0  0  0  0  0  0  0  0
   -0.8119   -1.5596    1.5739 H   0  0  0  0  0  0  0  0  0  0  0  0
   -3.4283    1.3200   -1.3986 H   0  0  0  0  0  0  0  0  0  0  0  0
   -4.3812    0.2721    0.6621 H   0  0  0  0  0  0  0  0  0  0  0  0
  1  6  2  0  0  0  0
  2  4  1  0  0  0  0
  2  5  1  0  0  0  0
  2  6  1  0  0  0  0
  3 11  1  0  0  0  0
  3 13  2  0  0  0  0
  4  7  1  0  0  0  0
  4 14  1  0  0  0  0
  4 15  1  0  0  0  0
  5  8  1  0  0  0  0
  5 16  1  0  0  0  0
  5 17  1  0  0  0  0
  6  9  1  0  0  0  0
  7 18  1  0  0  0  0
  7 19  1  0  0  0  0
  7 20  1  0  0  0  0
  8 21  1  0  0  0  0
  8 22  1  0  0  0  0
  8 23  1  0  0  0  0
  9 10  1  0  0  0  0
  9 11  2  0  0  0  0
 10 12  2  0  0  0  0
 10 24  1  0  0  0  0
 11 25  1  0  0  0  0
 12 13  1  0  0  0  0
 12 26  1  0  0  0  0
 13 27  1  0  0  0  0
M  END
> <PUBCHEM_COMPOUND_CID>
5497

> <PUBCHEM_CONFORMER_RMSD>
0.6

> <PUBCHEM_CONFORMER_DIVERSEORDER>
1
10
9
8
6
3
4
2
7
5

> <PUBCHEM_MMFF94_PARTIAL_CHARGES>
15
1 -0.57
10 -0.15
11 0.16
12 -0.15
13 0.16
2 -0.66
24 0.15
25 0.15
26 0.15
27 0.15
3 -0.62
4 0.3
5 0.3
6 0.54
9 0.09

> <PUBCHEM_EFFECTIVE_ROTOR_COUNT>
4

> <PUBCHEM_PHARMACOPHORE_FEATURES>
3
1 1 acceptor
1 3 acceptor
6 3 9 10 11 12 13 rings

> <PUBCHEM_HEAVY_ATOM_COUNT>
13

> <PUBCHEM_ATOM_DEF_STEREO_COUNT>
0

> <PUBCHEM_ATOM_UDEF_STEREO_COUNT>
0

> <PUBCHEM_BOND_DEF_STEREO_COUNT>
0

> <PUBCHEM_BOND_UDEF_STEREO_COUNT>
0

> <PUBCHEM_ISOTOPIC_ATOM_COUNT>
0

> <PUBCHEM_COMPONENT_COUNT>
1

> <PUBCHEM_CACTVS_TAUTO_COUNT>
1

> <PUBCHEM_CONFORMER_ID>
0000157900000001

> <PUBCHEM_MMFF94_ENERGY>
31.2972

> <PUBCHEM_FEATURE_SELFOVERLAP>
15.223

> <PUBCHEM_SHAPE_FINGERPRINT>
10130415 120 18271250512168692624
10219947 1 18187086178338345526
10465860 250 18201450219897659610
10857977 72 17632291221245676069
124424 183 18200885066135534602
12696612 119 18337666429991918629
12932764 1 18270677571678378366
14648413 74 18271528576604169168
15219456 202 18272089340303003945
15653759 3 18060138725778847665
15775835 57 17095521743087749649
16945 1 18113613503865649255
17357990 137 16734082588524051209
17841504 4 18343021047450749672
19422 9 15195282066569363122
20201158 50 18411136969680992607
20511035 2 18267867181450738092
20645464 45 18271803557990891127
20671657 1 18119810214309598516
21061003 4 18335977657567413160
21130352 189 18410863156910432072
21501502 16 18265894644731979583
21524375 3 17469882186729408368
23175994 123 18339922722736807044
23402539 116 18272101517236661607
31174 14 18197489628411136129
3286 77 18411422774137647045
449060 23 14908181971180716530
5084963 1 17968670297671720415
77492 1 16587744256592777815
81228 2 17976250558926233088

> <PUBCHEM_SHAPE_MULTIPOLES>
251.7
5.32
1.74
1.13
0.37
1.1
-0.01
-0.74
0.95
0.96
0.04
-0.26
-0.21
0.46

> <PUBCHEM_SHAPE_SELFOVERLAP>
509.29

> <PUBCHEM_SHAPE_VOLUME>
147.3

> <PUBCHEM_COORDINATE_TYPE>
2
5
10

$$$$

