6640
  -OEChem-06261201252D

 25 25  0     0  0  0  0  0  0999 V2000
    3.0000    1.5950    0.0000 S   0  0  0  0  0  0  0  0  0  0  0  0
    3.0000    2.5950    0.0000 O   0  0  0  0  0  0  0  0  0  0  0  0
    4.0000    1.5950    0.0000 O   0  0  0  0  0  0  0  0  0  0  0  0
    2.0000    1.5950    0.0000 O   0  0  0  0  0  0  0  0  0  0  0  0
    3.0000   -2.4050    0.0000 C   0  0  0  0  0  0  0  0  0  0  0  0
    3.0000   -1.4050    0.0000 C   0  0  0  0  0  0  0  0  0  0  0  0
    2.1340   -2.9050    0.0000 C   0  0  0  0  0  0  0  0  0  0  0  0
    3.8660   -2.9050    0.0000 C   0  0  0  0  0  0  0  0  0  0  0  0
    3.8660   -0.9050    0.0000 C   0  0  0  0  0  0  0  0  0  0  0  0
    2.1340   -0.9050    0.0000 C   0  0  0  0  0  0  0  0  0  0  0  0
    3.0000    0.5950    0.0000 C   0  0  0  0  0  0  0  0  0  0  0  0
    3.8660    0.0950    0.0000 C   0  0  0  0  0  0  0  0  0  0  0  0
    2.1340    0.0950    0.0000 C   0  0  0  0  0  0  0  0  0  0  0  0
    3.0000   -3.0250    0.0000 H   0  0  0  0  0  0  0  0  0  0  0  0
    1.8240   -2.3681    0.0000 H   0  0  0  0  0  0  0  0  0  0  0  0
    1.5970   -3.2150    0.0000 H   0  0  0  0  0  0  0  0  0  0  0  0
    2.4440   -3.4419    0.0000 H   0  0  0  0  0  0  0  0  0  0  0  0
    3.5560   -3.4419    0.0000 H   0  0  0  0  0  0  0  0  0  0  0  0
    4.4030   -3.2150    0.0000 H   0  0  0  0  0  0  0  0  0  0  0  0
    4.1760   -2.3681    0.0000 H   0  0  0  0  0  0  0  0  0  0  0  0
    4.4030   -1.2150    0.0000 H   0  0  0  0  0  0  0  0  0  0  0  0
    1.5970   -1.2150    0.0000 H   0  0  0  0  0  0  0  0  0  0  0  0
    4.4030    0.4050    0.0000 H   0  0  0  0  0  0  0  0  0  0  0  0
    1.5970    0.4050    0.0000 H   0  0  0  0  0  0  0  0  0  0  0  0
    3.5369    2.9050    0.0000 H   0  0  0  0  0  0  0  0  0  0  0  0
  1  2  1  0  0  0  0
  1  3  2  0  0  0  0
  1  4  2  0  0  0  0
  1 11  1  0  0  0  0
  2 25  1  0  0  0  0
  5  6  1  0  0  0  0
  5  7  1  0  0  0  0
  5  8  1  0  0  0  0
  5 14  1  0  0  0  0
  6  9  2  0  0  0  0
  6 10  1  0  0  0  0
  7 15  1  0  0  0  0
  7 16  1  0  0  0  0
  7 17  1  0  0  0  0
  8 18  1  0  0  0  0
  8 19  1  0  0  0  0
  8 20  1  0  0  0  0
  9 12  1  0  0  0  0
  9 21  1  0  0  0  0
 10 13  2  0  0  0  0
 10 22  1  0  0  0  0
 11 12  2  0  0  0  0
 11 13  1  0  0  0  0
 12 23  1  0  0  0  0
 13 24  1  0  0  0  0
M  END
> <PUBCHEM_COMPOUND_CID>
6640

> <PUBCHEM_COMPOUND_CANONICALIZED>
1

> <PUBCHEM_CACTVS_COMPLEXITY>
243

> <PUBCHEM_CACTVS_HBOND_ACCEPTOR>
3

> <PUBCHEM_CACTVS_HBOND_DONOR>
1

> <PUBCHEM_CACTVS_ROTATABLE_BOND>
2

> <PUBCHEM_CACTVS_SUBSKEYS>
AAADccBwMABAAAAAAAAAAAAAAAAAAAAAAAAwAAAAAAAAAAABAAAAGAQACAAADQCAWAAyAYAAAIKAAiBCAHBCAEAgAAAIiBgAAIgIICKAERCAIAAggAAIiAcAgMAOkAAAAAAAAAAgAAAAAAAAAAAAAAAAAA==

> <PUBCHEM_IUPAC_OPENEYE_NAME>
4-isopropylbenzenesulfonic acid

> <PUBCHEM_IUPAC_CAS_NAME>
4-propan-2-ylbenzenesulfonic acid

> <PUBCHEM_IUPAC_NAME>
4-propan-2-ylbenzenesulfonic acid

> <PUBCHEM_IUPAC_SYSTEMATIC_NAME>
4-propan-2-ylbenzenesulfonic acid

> <PUBCHEM_IUPAC_TRADITIONAL_NAME>
4-isopropylbesylic acid

> <PUBCHEM_IUPAC_INCHI>
InChI=1S/C9H12O3S/c1-7(2)8-3-5-9(6-4-8)13(10,11)12/h3-7H,1-2H3,(H,10,11,12)

> <PUBCHEM_IUPAC_INCHIKEY>
CVLHGLWXLDOELD-UHFFFAOYSA-N

> <PUBCHEM_XLOGP3>
1.9

> <PUBCHEM_EXACT_MASS>
200.050715

> <PUBCHEM_MOLECULAR_FORMULA>
C9H12O3S

> <PUBCHEM_MOLECULAR_WEIGHT>
200.25478

> <PUBCHEM_OPENEYE_CAN_SMILES>
CC(C)C1=CC=C(C=C1)S(=O)(=O)O

> <PUBCHEM_OPENEYE_ISO_SMILES>
CC(C)C1=CC=C(C=C1)S(=O)(=O)O

> <PUBCHEM_CACTVS_TPSA>
62.8

> <PUBCHEM_MONOISOTOPIC_WEIGHT>
200.050715

> <PUBCHEM_TOTAL_CHARGE>
0

> <PUBCHEM_HEAVY_ATOM_COUNT>
13

> <PUBCHEM_ATOM_DEF_STEREO_COUNT>
0

> <PUBCHEM_ATOM_UDEF_STEREO_COUNT>
0

> <PUBCHEM_BOND_DEF_STEREO_COUNT>
0

> <PUBCHEM_BOND_UDEF_STEREO_COUNT>
0

> <PUBCHEM_ISOTOPIC_ATOM_COUNT>
0

> <PUBCHEM_COMPONENT_COUNT>
1

> <PUBCHEM_CACTVS_TAUTO_COUNT>
1

> <PUBCHEM_COORDINATE_TYPE>
1
5
255

> <PUBCHEM_BONDANNOTATIONS>
10  13  8
11  12  8
11  13  8
6  10  8
6  9  8
9  12  8

$$$$

