17396061
  -OEChem-06241222542D

 52 53  0     0  0  0  0  0  0999 V2000
    5.4921    3.2702    0.0000 S   0  0  0  0  0  0  0  0  0  0  0  0
    6.4921    3.2702    0.0000 O   0  0  0  0  0  0  0  0  0  0  0  0
    4.4921    3.2702    0.0000 O   0  0  0  0  0  0  0  0  0  0  0  0
    3.7601   -0.7298    0.0000 O   0  0  0  0  0  0  0  0  0  0  0  0
    5.4921    4.2702    0.0000 N   0  0  0  0  0  0  0  0  0  0  0  0
    5.4921   -0.7298    0.0000 N   0  0  0  0  0  0  0  0  0  0  0  0
    4.2601   -5.2686    0.0000 N   0  0  0  0  0  0  0  0  0  0  0  0
    3.2601   -5.2686    0.0000 N   0  0  0  0  0  0  0  0  0  0  0  0
    3.7601   -2.7298    0.0000 C   0  0  0  0  0  0  0  0  0  0  0  0
    5.4921    2.2702    0.0000 C   0  0  0  0  0  0  0  0  0  0  0  0
    6.3582    4.7702    0.0000 C   0  0  0  0  0  0  0  0  0  0  0  0
    4.6261    4.7702    0.0000 C   0  0  0  0  0  0  0  0  0  0  0  0
    3.7601   -3.7298    0.0000 C   0  0  0  0  0  0  0  0  0  0  0  0
    4.6261   -2.2298    0.0000 C   0  0  0  0  0  0  0  0  0  0  0  0
    4.5691   -4.3176    0.0000 C   0  0  0  0  0  0  0  0  0  0  0  0
    2.9511   -4.3176    0.0000 C   0  0  0  0  0  0  0  0  0  0  0  0
    4.6261    1.7702    0.0000 C   0  0  0  0  0  0  0  0  0  0  0  0
    6.3582    1.7702    0.0000 C   0  0  0  0  0  0  0  0  0  0  0  0
    5.4921    0.2702    0.0000 C   0  0  0  0  0  0  0  0  0  0  0  0
    4.6261   -1.2298    0.0000 C   0  0  0  0  0  0  0  0  0  0  0  0
    4.6261    5.7702    0.0000 C   0  0  0  0  0  0  0  0  0  0  0  0
    6.3582    5.7702    0.0000 C   0  0  0  0  0  0  0  0  0  0  0  0
    4.6261    0.7702    0.0000 C   0  0  0  0  0  0  0  0  0  0  0  0
    6.3582    0.7702    0.0000 C   0  0  0  0  0  0  0  0  0  0  0  0
    5.5202   -4.0085    0.0000 C   0  0  0  0  0  0  0  0  0  0  0  0
    2.0000   -4.0085    0.0000 C   0  0  0  0  0  0  0  0  0  0  0  0
    3.5480   -2.1472    0.0000 H   0  0  0  0  0  0  0  0  0  0  0  0
    3.1495   -2.8374    0.0000 H   0  0  0  0  0  0  0  0  0  0  0  0
    4.0155    4.8779    0.0000 H   0  0  0  0  0  0  0  0  0  0  0  0
    4.4140    4.1876    0.0000 H   0  0  0  0  0  0  0  0  0  0  0  0
    6.5702    4.1876    0.0000 H   0  0  0  0  0  0  0  0  0  0  0  0
    6.9687    4.8779    0.0000 H   0  0  0  0  0  0  0  0  0  0  0  0
    4.8382   -2.8124    0.0000 H   0  0  0  0  0  0  0  0  0  0  0  0
    5.2367   -2.1221    0.0000 H   0  0  0  0  0  0  0  0  0  0  0  0
    4.0892    2.0802    0.0000 H   0  0  0  0  0  0  0  0  0  0  0  0
    6.8951    2.0802    0.0000 H   0  0  0  0  0  0  0  0  0  0  0  0
    6.9782    5.7702    0.0000 H   0  0  0  0  0  0  0  0  0  0  0  0
    5.2461    5.7702    0.0000 H   0  0  0  0  0  0  0  0  0  0  0  0
    4.6261    6.3902    0.0000 H   0  0  0  0  0  0  0  0  0  0  0  0
    4.0061    5.7702    0.0000 H   0  0  0  0  0  0  0  0  0  0  0  0
    6.3582    6.3902    0.0000 H   0  0  0  0  0  0  0  0  0  0  0  0
    5.7382    5.7702    0.0000 H   0  0  0  0  0  0  0  0  0  0  0  0
    4.0892    0.4602    0.0000 H   0  0  0  0  0  0  0  0  0  0  0  0
    6.8951    0.4602    0.0000 H   0  0  0  0  0  0  0  0  0  0  0  0
    6.0291   -1.0398    0.0000 H   0  0  0  0  0  0  0  0  0  0  0  0
    4.6245   -5.7702    0.0000 H   0  0  0  0  0  0  0  0  0  0  0  0
    5.7117   -4.5982    0.0000 H   0  0  0  0  0  0  0  0  0  0  0  0
    6.1098   -3.8170    0.0000 H   0  0  0  0  0  0  0  0  0  0  0  0
    5.3286   -3.4189    0.0000 H   0  0  0  0  0  0  0  0  0  0  0  0
    2.1916   -3.4189    0.0000 H   0  0  0  0  0  0  0  0  0  0  0  0
    1.4103   -3.8170    0.0000 H   0  0  0  0  0  0  0  0  0  0  0  0
    1.8084   -4.5982    0.0000 H   0  0  0  0  0  0  0  0  0  0  0  0
  1  2  2  0  0  0  0
  1  3  2  0  0  0  0
  1  5  1  0  0  0  0
  1 10  1  0  0  0  0
  4 20  2  0  0  0  0
  5 11  1  0  0  0  0
  5 12  1  0  0  0  0
  6 19  1  0  0  0  0
  6 20  1  0  0  0  0
  6 45  1  0  0  0  0
  7  8  1  0  0  0  0
  7 15  1  0  0  0  0
  7 46  1  0  0  0  0
  8 16  2  0  0  0  0
  9 13  1  0  0  0  0
  9 14  1  0  0  0  0
  9 27  1  0  0  0  0
  9 28  1  0  0  0  0
 10 17  2  0  0  0  0
 10 18  1  0  0  0  0
 11 22  1  0  0  0  0
 11 31  1  0  0  0  0
 11 32  1  0  0  0  0
 12 21  1  0  0  0  0
 12 29  1  0  0  0  0
 12 30  1  0  0  0  0
 13 15  2  0  0  0  0
 13 16  1  0  0  0  0
 14 20  1  0  0  0  0
 14 33  1  0  0  0  0
 14 34  1  0  0  0  0
 15 25  1  0  0  0  0
 16 26  1  0  0  0  0
 17 23  1  0  0  0  0
 17 35  1  0  0  0  0
 18 24  2  0  0  0  0
 18 36  1  0  0  0  0
 19 23  2  0  0  0  0
 19 24  1  0  0  0  0
 21 38  1  0  0  0  0
 21 39  1  0  0  0  0
 21 40  1  0  0  0  0
 22 37  1  0  0  0  0
 22 41  1  0  0  0  0
 22 42  1  0  0  0  0
 23 43  1  0  0  0  0
 24 44  1  0  0  0  0
 25 47  1  0  0  0  0
 25 48  1  0  0  0  0
 25 49  1  0  0  0  0
 26 50  1  0  0  0  0
 26 51  1  0  0  0  0
 26 52  1  0  0  0  0
M  END
> <PUBCHEM_COMPOUND_CID>
17396061

> <PUBCHEM_COMPOUND_CANONICALIZED>
1

> <PUBCHEM_CACTVS_COMPLEXITY>
551

> <PUBCHEM_CACTVS_HBOND_ACCEPTOR>
5

> <PUBCHEM_CACTVS_HBOND_DONOR>
2

> <PUBCHEM_CACTVS_ROTATABLE_BOND>
8

> <PUBCHEM_CACTVS_SUBSKEYS>
AAADceB7sABAAAAAAAAAAAAAAAAAAWAAAAAwAAAAAAAAAAABwAAAHgQYQAAADAjB3gQywZLjAAKqAyVyUHDSBBAhAgAYuTk4ZJgIIDLA0dGEpAhgnADIyAcYCQAeAAQAAAAAAAAACAAAAAAAAAAAAAAAAA==

> <PUBCHEM_IUPAC_OPENEYE_NAME>
N-[4-(diethylsulfamoyl)phenyl]-3-(3,5-dimethyl-1H-pyrazol-4-yl)propanamide

> <PUBCHEM_IUPAC_CAS_NAME>
N-[4-(diethylsulfamoyl)phenyl]-3-(3,5-dimethyl-1H-pyrazol-4-yl)propanamide

> <PUBCHEM_IUPAC_NAME>
N-[4-(diethylsulfamoyl)phenyl]-3-(3,5-dimethyl-1H-pyrazol-4-yl)propanamide

> <PUBCHEM_IUPAC_SYSTEMATIC_NAME>
N-[4-(diethylsulfamoyl)phenyl]-3-(3,5-dimethyl-1H-pyrazol-4-yl)propanamide

> <PUBCHEM_IUPAC_TRADITIONAL_NAME>
N-[4-(diethylsulfamoyl)phenyl]-3-(3,5-dimethyl-1H-pyrazol-4-yl)propionamide

> <PUBCHEM_IUPAC_INCHI>
InChI=1S/C18H26N4O3S/c1-5-22(6-2)26(24,25)16-9-7-15(8-10-16)19-18(23)12-11-17-13(3)20-21-14(17)4/h7-10H,5-6,11-12H2,1-4H3,(H,19,23)(H,20,21)

> <PUBCHEM_IUPAC_INCHIKEY>
LPQUXQDSOSNKGG-UHFFFAOYSA-N

> <PUBCHEM_XLOGP3_AA>
2

> <PUBCHEM_EXACT_MASS>
378.172562

> <PUBCHEM_MOLECULAR_FORMULA>
C18H26N4O3S

> <PUBCHEM_MOLECULAR_WEIGHT>
378.48904

> <PUBCHEM_OPENEYE_CAN_SMILES>
CCN(CC)S(=O)(=O)C1=CC=C(C=C1)NC(=O)CCC2=C(NN=C2C)C

> <PUBCHEM_OPENEYE_ISO_SMILES>
CCN(CC)S(=O)(=O)C1=CC=C(C=C1)NC(=O)CCC2=C(NN=C2C)C

> <PUBCHEM_CACTVS_TPSA>
104

> <PUBCHEM_MONOISOTOPIC_WEIGHT>
378.172562

> <PUBCHEM_TOTAL_CHARGE>
0

> <PUBCHEM_HEAVY_ATOM_COUNT>
26

> <PUBCHEM_ATOM_DEF_STEREO_COUNT>
0

> <PUBCHEM_ATOM_UDEF_STEREO_COUNT>
0

> <PUBCHEM_BOND_DEF_STEREO_COUNT>
0

> <PUBCHEM_BOND_UDEF_STEREO_COUNT>
0

> <PUBCHEM_ISOTOPIC_ATOM_COUNT>
0

> <PUBCHEM_COMPONENT_COUNT>
1

> <PUBCHEM_CACTVS_TAUTO_COUNT>
3

> <PUBCHEM_COORDINATE_TYPE>
1
5
255

> <PUBCHEM_BONDANNOTATIONS>
10  17  8
10  18  8
13  15  8
13  16  8
17  23  8
18  24  8
19  23  8
19  24  8
7  15  8
7  8  8
8  16  8

$$$$

