4288
  -OEChem-06261200012D

 34 35  0     0  0  0  0  0  0999 V2000
    5.4641    3.0950    0.0000 S   0  0  0  0  0  0  0  0  0  0  0  0
    2.8660   -1.4050    0.0000 F   0  0  0  0  0  0  0  0  0  0  0  0
    4.5981   -4.4050    0.0000 F   0  0  0  0  0  0  0  0  0  0  0  0
    6.3301   -1.4050    0.0000 O   0  0  0  0  0  0  0  0  0  0  0  0
    6.4641    3.0950    0.0000 O   0  0  0  0  0  0  0  0  0  0  0  0
    4.4641    3.0950    0.0000 O   0  0  0  0  0  0  0  0  0  0  0  0
    4.5981   -1.4050    0.0000 N   0  0  0  0  0  0  0  0  0  0  0  0
    5.4641    4.0950    0.0000 N   0  0  0  0  0  0  0  0  0  0  0  0
    4.5981   -2.4050    0.0000 C   0  0  0  0  0  0  0  0  0  0  0  0
    5.4641    0.0950    0.0000 C   0  0  0  0  0  0  0  0  0  0  0  0
    5.4641    2.0950    0.0000 C   0  0  0  0  0  0  0  0  0  0  0  0
    3.7320   -2.9050    0.0000 C   0  0  0  0  0  0  0  0  0  0  0  0
    5.4641   -0.9050    0.0000 C   0  0  0  0  0  0  0  0  0  0  0  0
    6.3301    0.5950    0.0000 C   0  0  0  0  0  0  0  0  0  0  0  0
    4.5981    0.5950    0.0000 C   0  0  0  0  0  0  0  0  0  0  0  0
    6.3301    1.5950    0.0000 C   0  0  0  0  0  0  0  0  0  0  0  0
    4.5981    1.5950    0.0000 C   0  0  0  0  0  0  0  0  0  0  0  0
    2.8660   -2.4050    0.0000 C   0  0  0  0  0  0  0  0  0  0  0  0
    3.7320   -3.9050    0.0000 C   0  0  0  0  0  0  0  0  0  0  0  0
    2.0000   -2.9050    0.0000 C   0  0  0  0  0  0  0  0  0  0  0  0
    2.8660   -4.4050    0.0000 C   0  0  0  0  0  0  0  0  0  0  0  0
    2.0000   -3.9050    0.0000 C   0  0  0  0  0  0  0  0  0  0  0  0
    4.8101   -2.9876    0.0000 H   0  0  0  0  0  0  0  0  0  0  0  0
    5.2087   -2.2973    0.0000 H   0  0  0  0  0  0  0  0  0  0  0  0
    4.0611   -1.0950    0.0000 H   0  0  0  0  0  0  0  0  0  0  0  0
    6.8671    0.2850    0.0000 H   0  0  0  0  0  0  0  0  0  0  0  0
    4.0611    0.2850    0.0000 H   0  0  0  0  0  0  0  0  0  0  0  0
    6.8671    1.9050    0.0000 H   0  0  0  0  0  0  0  0  0  0  0  0
    4.0611    1.9050    0.0000 H   0  0  0  0  0  0  0  0  0  0  0  0
    1.4631   -2.5950    0.0000 H   0  0  0  0  0  0  0  0  0  0  0  0
    2.8660   -5.0250    0.0000 H   0  0  0  0  0  0  0  0  0  0  0  0
    1.4631   -4.2150    0.0000 H   0  0  0  0  0  0  0  0  0  0  0  0
    6.0010    4.4050    0.0000 H   0  0  0  0  0  0  0  0  0  0  0  0
    4.9272    4.4050    0.0000 H   0  0  0  0  0  0  0  0  0  0  0  0
  1  5  2  0  0  0  0
  1  6  2  0  0  0  0
  1  8  1  0  0  0  0
  1 11  1  0  0  0  0
  2 18  1  0  0  0  0
  3 19  1  0  0  0  0
  4 13  2  0  0  0  0
  7  9  1  0  0  0  0
  7 13  1  0  0  0  0
  7 25  1  0  0  0  0
  8 33  1  0  0  0  0
  8 34  1  0  0  0  0
  9 12  1  0  0  0  0
  9 23  1  0  0  0  0
  9 24  1  0  0  0  0
 10 13  1  0  0  0  0
 10 14  2  0  0  0  0
 10 15  1  0  0  0  0
 11 16  2  0  0  0  0
 11 17  1  0  0  0  0
 12 18  2  0  0  0  0
 12 19  1  0  0  0  0
 14 16  1  0  0  0  0
 14 26  1  0  0  0  0
 15 17  2  0  0  0  0
 15 27  1  0  0  0  0
 16 28  1  0  0  0  0
 17 29  1  0  0  0  0
 18 20  1  0  0  0  0
 19 21  2  0  0  0  0
 20 22  2  0  0  0  0
 20 30  1  0  0  0  0
 21 22  1  0  0  0  0
 21 31  1  0  0  0  0
 22 32  1  0  0  0  0
M  END
> <PUBCHEM_COMPOUND_CID>
4288

> <PUBCHEM_COMPOUND_CANONICALIZED>
1

> <PUBCHEM_CACTVS_COMPLEXITY>
477

> <PUBCHEM_CACTVS_HBOND_ACCEPTOR>
6

> <PUBCHEM_CACTVS_HBOND_DONOR>
2

> <PUBCHEM_CACTVS_ROTATABLE_BOND>
4

> <PUBCHEM_CACTVS_SUBSKEYS>
AAADccBzMYBAAAAAAAAAAAAAAAAAAAAAAAAwYAAAAAAAAAABQAAAHwQQQAAADADB2AwwAYLAAAKIAiFSEHDCABAkAAAIiJkIBMgIIDKAlRGEIQhghgCIiYcYiACOEAAAAAAAAAAgAAAAAAAAAAAAAAAAAA==

> <PUBCHEM_IUPAC_OPENEYE_NAME>
N-[(2,6-difluorophenyl)methyl]-4-sulfamoyl-benzamide

> <PUBCHEM_IUPAC_CAS_NAME>
N-[(2,6-difluorophenyl)methyl]-4-sulfamoylbenzamide

> <PUBCHEM_IUPAC_NAME>
N-[(2,6-difluorophenyl)methyl]-4-sulfamoylbenzamide

> <PUBCHEM_IUPAC_SYSTEMATIC_NAME>
N-[[2,6-bis(fluoranyl)phenyl]methyl]-4-sulfamoyl-benzamide

> <PUBCHEM_IUPAC_TRADITIONAL_NAME>
N-(2,6-difluorobenzyl)-4-sulfamoyl-benzamide

> <PUBCHEM_IUPAC_INCHI>
InChI=1S/C14H12F2N2O3S/c15-12-2-1-3-13(16)11(12)8-18-14(19)9-4-6-10(7-5-9)22(17,20)21/h1-7H,8H2,(H,18,19)(H2,17,20,21)

> <PUBCHEM_IUPAC_INCHIKEY>
ZFNCKGXGCCDDFN-UHFFFAOYSA-N

> <PUBCHEM_XLOGP3_AA>
1.5

> <PUBCHEM_EXACT_MASS>
326.05367

> <PUBCHEM_MOLECULAR_FORMULA>
C14H12F2N2O3S

> <PUBCHEM_MOLECULAR_WEIGHT>
326.318486

> <PUBCHEM_OPENEYE_CAN_SMILES>
C1=CC(=C(C(=C1)F)CNC(=O)C2=CC=C(C=C2)S(=O)(=O)N)F

> <PUBCHEM_OPENEYE_ISO_SMILES>
C1=CC(=C(C(=C1)F)CNC(=O)C2=CC=C(C=C2)S(=O)(=O)N)F

> <PUBCHEM_CACTVS_TPSA>
97.6

> <PUBCHEM_MONOISOTOPIC_WEIGHT>
326.05367

> <PUBCHEM_TOTAL_CHARGE>
0

> <PUBCHEM_HEAVY_ATOM_COUNT>
22

> <PUBCHEM_ATOM_DEF_STEREO_COUNT>
0

> <PUBCHEM_ATOM_UDEF_STEREO_COUNT>
0

> <PUBCHEM_BOND_DEF_STEREO_COUNT>
0

> <PUBCHEM_BOND_UDEF_STEREO_COUNT>
0

> <PUBCHEM_ISOTOPIC_ATOM_COUNT>
0

> <PUBCHEM_COMPONENT_COUNT>
1

> <PUBCHEM_CACTVS_TAUTO_COUNT>
2

> <PUBCHEM_COORDINATE_TYPE>
1
5
255

> <PUBCHEM_BONDANNOTATIONS>
10  14  8
10  15  8
11  16  8
11  17  8
12  18  8
12  19  8
14  16  8
15  17  8
18  20  8
19  21  8
20  22  8
21  22  8

$$$$

