17395338
  -OEChem-06241222493D

 43 45  0     0  0  0  0  0  0999 V2000
   -4.7975    1.0122   -1.1235 S   0  0  0  0  0  0  0  0  0  0  0  0
    1.5309   -1.0253   -0.1859 O   0  0  0  0  0  0  0  0  0  0  0  0
   -3.3879    1.3133    1.9934 O   0  0  0  0  0  0  0  0  0  0  0  0
   -1.7730    0.4401    0.5821 N   0  0  0  0  0  0  0  0  0  0  0  0
    3.0362    0.7602   -0.4742 N   0  0  0  0  0  0  0  0  0  0  0  0
    0.6990    1.1187   -0.7812 C   0  0  0  0  0  0  0  0  0  0  0  0
    0.2370    1.8525    0.4823 C   0  0  0  0  0  0  0  0  0  0  0  0
   -0.4593    0.4221   -1.5039 C   0  0  0  0  0  0  0  0  0  0  0  0
   -0.6692    0.9949    1.3648 C   0  0  0  0  0  0  0  0  0  0  0  0
   -1.3506   -0.3819   -0.5581 C   0  0  0  0  0  0  0  0  0  0  0  0
    1.7909    0.1452   -0.4448 C   0  0  0  0  0  0  0  0  0  0  0  0
   -3.1018    0.6607    0.9880 C   0  0  0  0  0  0  0  0  0  0  0  0
   -4.1579    0.0832    0.1648 C   0  0  0  0  0  0  0  0  0  0  0  0
   -4.7582   -1.1531    0.2585 C   0  0  0  0  0  0  0  0  0  0  0  0
    4.2949    0.1686   -0.2134 C   0  0  0  0  0  0  0  0  0  0  0  0
   -5.7563   -1.3403   -0.7408 C   0  0  0  0  0  0  0  0  0  0  0  0
   -4.4168   -2.1784    1.2741 C   0  0  0  0  0  0  0  0  0  0  0  0
   -5.8809   -0.2399   -1.5601 C   0  0  0  0  0  0  0  0  0  0  0  0
    5.4558    0.9386   -0.2869 C   0  0  0  0  0  0  0  0  0  0  0  0
    4.3751   -1.1841    0.1176 C   0  0  0  0  0  0  0  0  0  0  0  0
    6.6967    0.3559   -0.0294 C   0  0  0  0  0  0  0  0  0  0  0  0
    5.6161   -1.7667    0.3751 C   0  0  0  0  0  0  0  0  0  0  0  0
    6.7768   -0.9967    0.3015 C   0  0  0  0  0  0  0  0  0  0  0  0
    1.1092    1.8609   -1.4797 H   0  0  0  0  0  0  0  0  0  0  0  0
    1.0930    2.2018    1.0715 H   0  0  0  0  0  0  0  0  0  0  0  0
   -0.3231    2.7456    0.1756 H   0  0  0  0  0  0  0  0  0  0  0  0
   -1.0753    1.1920   -1.9870 H   0  0  0  0  0  0  0  0  0  0  0  0
   -0.0856   -0.2317   -2.3008 H   0  0  0  0  0  0  0  0  0  0  0  0
   -0.1143    0.1550    1.7984 H   0  0  0  0  0  0  0  0  0  0  0  0
   -1.0442    1.5984    2.1974 H   0  0  0  0  0  0  0  0  0  0  0  0
   -2.2062   -0.7608   -1.1208 H   0  0  0  0  0  0  0  0  0  0  0  0
   -0.8423   -1.2620   -0.1534 H   0  0  0  0  0  0  0  0  0  0  0  0
    3.0712    1.7518   -0.7005 H   0  0  0  0  0  0  0  0  0  0  0  0
   -6.3563   -2.2338   -0.8590 H   0  0  0  0  0  0  0  0  0  0  0  0
   -3.3764   -2.5004    1.1605 H   0  0  0  0  0  0  0  0  0  0  0  0
   -4.5466   -1.7786    2.2853 H   0  0  0  0  0  0  0  0  0  0  0  0
   -5.0532   -3.0646    1.1817 H   0  0  0  0  0  0  0  0  0  0  0  0
   -6.5563   -0.1113   -2.3941 H   0  0  0  0  0  0  0  0  0  0  0  0
    5.4077    1.9937   -0.5435 H   0  0  0  0  0  0  0  0  0  0  0  0
    3.5216   -1.8432    0.1936 H   0  0  0  0  0  0  0  0  0  0  0  0
    7.6007    0.9553   -0.0866 H   0  0  0  0  0  0  0  0  0  0  0  0
    5.6800   -2.8200    0.6329 H   0  0  0  0  0  0  0  0  0  0  0  0
    7.7430   -1.4504    0.5020 H   0  0  0  0  0  0  0  0  0  0  0  0
  1 13  1  0  0  0  0
  1 18  1  0  0  0  0
  2 11  2  0  0  0  0
  3 12  2  0  0  0  0
  4  9  1  0  0  0  0
  4 10  1  0  0  0  0
  4 12  1  0  0  0  0
  5 11  1  0  0  0  0
  5 15  1  0  0  0  0
  5 33  1  0  0  0  0
  6  7  1  0  0  0  0
  6  8  1  0  0  0  0
  6 11  1  0  0  0  0
  6 24  1  0  0  0  0
  7  9  1  0  0  0  0
  7 25  1  0  0  0  0
  7 26  1  0  0  0  0
  8 10  1  0  0  0  0
  8 27  1  0  0  0  0
  8 28  1  0  0  0  0
  9 29  1  0  0  0  0
  9 30  1  0  0  0  0
 10 31  1  0  0  0  0
 10 32  1  0  0  0  0
 12 13  1  0  0  0  0
 13 14  2  0  0  0  0
 14 16  1  0  0  0  0
 14 17  1  0  0  0  0
 15 19  2  0  0  0  0
 15 20  1  0  0  0  0
 16 18  2  0  0  0  0
 16 34  1  0  0  0  0
 17 35  1  0  0  0  0
 17 36  1  0  0  0  0
 17 37  1  0  0  0  0
 18 38  1  0  0  0  0
 19 21  1  0  0  0  0
 19 39  1  0  0  0  0
 20 22  2  0  0  0  0
 20 40  1  0  0  0  0
 21 23  2  0  0  0  0
 21 41  1  0  0  0  0
 22 23  1  0  0  0  0
 22 42  1  0  0  0  0
 23 43  1  0  0  0  0
M  END
> <PUBCHEM_COMPOUND_CID>
17395338

> <PUBCHEM_CONFORMER_RMSD>
0.8

> <PUBCHEM_CONFORMER_DIVERSEORDER>
1
16
51
58
22
53
24
35
48
41
50
57
5
21
29
42
19
6
39
40
55
26
28
44
27
17
46
18
36
49
37
31
12
43
10
52
56
25
54
13
32
2
33
23
45
38
15
4
3
47
14
20
7
11
34
8
30
9

> <PUBCHEM_MMFF94_PARTIAL_CHARGES>
29
1 -0.08
10 0.3
11 0.57
12 0.71
13 -0.05
14 -0.18
15 0.12
16 -0.15
17 0.18
18 -0.11
19 -0.15
2 -0.57
20 -0.15
21 -0.15
22 -0.15
23 -0.15
3 -0.57
33 0.37
34 0.15
38 0.15
39 0.15
4 -0.66
40 0.15
41 0.15
42 0.15
43 0.15
5 -0.55
6 0.06
9 0.3

> <PUBCHEM_EFFECTIVE_ROTOR_COUNT>
6.2

> <PUBCHEM_PHARMACOPHORE_FEATURES>
6
1 2 acceptor
1 3 acceptor
1 5 donor
5 1 13 14 16 18 rings
6 15 19 20 21 22 23 rings
6 4 6 7 8 9 10 rings

> <PUBCHEM_HEAVY_ATOM_COUNT>
23

> <PUBCHEM_ATOM_DEF_STEREO_COUNT>
0

> <PUBCHEM_ATOM_UDEF_STEREO_COUNT>
0

> <PUBCHEM_BOND_DEF_STEREO_COUNT>
0

> <PUBCHEM_BOND_UDEF_STEREO_COUNT>
0

> <PUBCHEM_ISOTOPIC_ATOM_COUNT>
0

> <PUBCHEM_COMPONENT_COUNT>
1

> <PUBCHEM_CACTVS_TAUTO_COUNT>
2

> <PUBCHEM_CONFORMER_ID>
01096E8A00000001

> <PUBCHEM_MMFF94_ENERGY>
57.168

> <PUBCHEM_FEATURE_SELFOVERLAP>
30.446

> <PUBCHEM_SHAPE_FINGERPRINT>
10 15 16081380644164021490
11315181 36 18260830389085703937
11796584 16 17989490714237942723
12166972 35 18409168775074567477
12236239 1 18333450954288080756
12516196 113 18410577284019001188
12596602 18 18040714792623872386
12670543 26 15769781272885525048
12730499 353 5112011634455127108
13288520 33 18412263926613922925
13533116 47 18409450323840786074
13668630 136 18272651251038038814
13862211 1 18113057125275513958
13914758 101 18270965747263214701
14211702 104 18335691745879780998
14848160 23 18343582932394563314
14849402 71 5689013406034400674
15183329 4 16486982807657663473
15716309 27 17095241423319812087
15788980 27 17346593071421788119
17349148 13 17749381542765696741
17834072 8 15267342920334429453
17857418 61 18410855468908201858
17980427 23 18040703780201747921
18927931 339 17676199165907782869
19377110 9 16805598183390384070
19489759 90 18408886252473457001
200 152 18413389847362761613
20028762 73 18334859441927749990
21033650 10 16773808017299076893
21623969 137 18408041818959029542
21756936 100 8142079845264383061
22079108 93 5184341915375502844
2215653 11 16845574227506218928
22224240 67 4678816160365474301
22393880 68 17560807580777893443
23081809 10 18334568058260461944
23198884 109 15482674580711831399
23402539 116 15770057220054696613
23536379 177 18060142050088829109
23559900 14 18272093734587486145
2838139 119 8070023346801928834
2916195 48 6266897961280795046
29717793 49 12823296823828895002
3004659 81 17918277554452966178
3009799 131 17060623299867088300
347723 3 13183022925510778580
4015057 19 17987789718247413616
4340502 62 14056716842690298868
439807 62 18268427924604027887
4938544 92 14924211756145838251
5104073 3 18041270002439844640
5283173 99 17917719049126500269
531348 171 17560528407893031995
542803 24 8502653692903872692
5718773 13 18190464857860855375
7495541 125 17676490536431309960
9953998 17 14273458059499260399

> <PUBCHEM_SHAPE_MULTIPOLES>
455.48
17.74
1.73
1.33
14.47
0.57
-0.25
6.3
2.17
-0.39
-0.33
-2
-0.29
-0.05

> <PUBCHEM_SHAPE_SELFOVERLAP>
958.473

> <PUBCHEM_SHAPE_VOLUME>
256.4

> <PUBCHEM_COORDINATE_TYPE>
2
5
10

$$$$

