4625
  -OEChem-06261200153D

 26 28  0     0  0  0  0  0  0999 V2000
   -1.0478    2.0057   -0.0375 O   0  0  0  0  0  0  0  0  0  0  0  0
    1.3082    1.8401    0.0173 N   0  0  0  0  0  0  0  0  0  0  0  0
   -2.9344   -0.5073    1.0710 N   0  0  0  0  0  0  0  0  0  0  0  0
    1.5554   -0.4459   -0.0235 C   0  0  0  0  0  0  0  0  0  0  0  0
    0.1331   -0.1228   -0.0522 C   0  0  0  0  0  0  0  0  0  0  0  0
    2.2234    0.7815    0.0181 C   0  0  0  0  0  0  0  0  0  0  0  0
   -0.0090    1.3715   -0.0250 C   0  0  0  0  0  0  0  0  0  0  0  0
   -0.9081   -0.9563   -0.0955 C   0  0  0  0  0  0  0  0  0  0  0  0
    2.2619   -1.6337   -0.0312 C   0  0  0  0  0  0  0  0  0  0  0  0
   -2.3132   -0.6235   -0.1235 C   0  0  0  0  0  0  0  0  0  0  0  0
    3.6010    0.8728    0.0537 C   0  0  0  0  0  0  0  0  0  0  0  0
    3.6588   -1.5642    0.0042 C   0  0  0  0  0  0  0  0  0  0  0  0
    4.3217   -0.3231    0.0463 C   0  0  0  0  0  0  0  0  0  0  0  0
   -3.1775   -0.3927   -1.1335 C   0  0  0  0  0  0  0  0  0  0  0  0
   -4.2471   -0.1897    0.8374 C   0  0  0  0  0  0  0  0  0  0  0  0
   -4.4264   -0.1124   -0.5259 C   0  0  0  0  0  0  0  0  0  0  0  0
    1.5806    2.8156    0.0440 H   0  0  0  0  0  0  0  0  0  0  0  0
   -0.7062   -2.0261   -0.1159 H   0  0  0  0  0  0  0  0  0  0  0  0
    1.7625   -2.5957   -0.0636 H   0  0  0  0  0  0  0  0  0  0  0  0
    4.1102    1.8291    0.0859 H   0  0  0  0  0  0  0  0  0  0  0  0
    4.2424   -2.4812   -0.0008 H   0  0  0  0  0  0  0  0  0  0  0  0
    5.4079   -0.2978    0.0731 H   0  0  0  0  0  0  0  0  0  0  0  0
   -2.5185   -0.6289    1.9853 H   0  0  0  0  0  0  0  0  0  0  0  0
   -2.9638   -0.4154   -2.1931 H   0  0  0  0  0  0  0  0  0  0  0  0
   -4.9341   -0.0475    1.6598 H   0  0  0  0  0  0  0  0  0  0  0  0
   -5.3555    0.1210   -1.0267 H   0  0  0  0  0  0  0  0  0  0  0  0
  1  7  2  0  0  0  0
  2  6  1  0  0  0  0
  2  7  1  0  0  0  0
  2 17  1  0  0  0  0
  3 10  1  0  0  0  0
  3 15  1  0  0  0  0
  3 23  1  0  0  0  0
  4  5  1  0  0  0  0
  4  6  1  0  0  0  0
  4  9  2  0  0  0  0
  5  7  1  0  0  0  0
  5  8  2  0  0  0  0
  6 11  2  0  0  0  0
  8 10  1  0  0  0  0
  8 18  1  0  0  0  0
  9 12  1  0  0  0  0
  9 19  1  0  0  0  0
 10 14  2  0  0  0  0
 11 13  1  0  0  0  0
 11 20  1  0  0  0  0
 12 13  2  0  0  0  0
 12 21  1  0  0  0  0
 13 22  1  0  0  0  0
 14 16  1  0  0  0  0
 14 24  1  0  0  0  0
 15 16  2  0  0  0  0
 15 25  1  0  0  0  0
 16 26  1  0  0  0  0
M  END
> <PUBCHEM_COMPOUND_CID>
4625

> <PUBCHEM_CONFORMER_RMSD>
0.6

> <PUBCHEM_CONFORMER_DIVERSEORDER>
2
1

> <PUBCHEM_MMFF94_PARTIAL_CHARGES>
26
1 -0.57
10 -0.2
11 -0.15
12 -0.15
13 -0.15
14 -0.15
15 -0.3
16 -0.15
17 0.37
18 0.15
19 0.15
2 -0.55
20 0.15
21 0.15
22 0.15
23 0.27
24 0.15
25 0.15
26 0.15
3 0.03
4 0.03
5 -0.01
6 0.12
7 0.62
8 -0.11
9 -0.15

> <PUBCHEM_EFFECTIVE_ROTOR_COUNT>
1.2

> <PUBCHEM_PHARMACOPHORE_FEATURES>
7
1 1 acceptor
1 2 donor
1 3 cation
1 3 donor
5 2 4 5 6 7 rings
5 3 10 14 15 16 rings
6 4 6 9 11 12 13 rings

> <PUBCHEM_HEAVY_ATOM_COUNT>
16

> <PUBCHEM_ATOM_DEF_STEREO_COUNT>
0

> <PUBCHEM_ATOM_UDEF_STEREO_COUNT>
0

> <PUBCHEM_BOND_DEF_STEREO_COUNT>
0

> <PUBCHEM_BOND_UDEF_STEREO_COUNT>
1

> <PUBCHEM_ISOTOPIC_ATOM_COUNT>
0

> <PUBCHEM_COMPONENT_COUNT>
1

> <PUBCHEM_CACTVS_TAUTO_COUNT>
2

> <PUBCHEM_CONFORMER_ID>
0000121100000002

> <PUBCHEM_MMFF94_ENERGY>
49.557

> <PUBCHEM_FEATURE_SELFOVERLAP>
35.609

> <PUBCHEM_SHAPE_FINGERPRINT>
10618630 7 18412544331621563364
11471102 20 18411704266172888134
11578080 2 17388008401934124249
12032990 46 18342454850385897386
12236239 1 17749107777735187359
124424 183 18272934912448118919
12670546 56 17530969085388349881
13140716 1 18194406576553405970
13296908 3 18202282489759308659
13571099 22 18411985745391844535
13675066 3 18271807895638750361
13760787 5 18410573972287687516
14115302 16 17703498931038920102
14144814 61 18334292063255592283
14251717 144 18335423460836832774
14252887 29 18260540147827813942
14289901 80 14923941223901654799
14576447 43 18043545918800929591
15196674 1 18410575123376008253
15375358 24 18272935998742600618
15375462 189 18260548917849936474
15653759 3 17418094295786536819
15848700 24 18408893931484540340
16945 1 18410294670912672436
18186145 218 17489873738804268563
200 152 18187090563294161461
20279233 1 17989205936705590291
20281475 54 18335140873310436238
20645477 70 18410860987809685478
20871998 22 18189327038902210470
21267235 1 18410003364829895158
21501502 16 18265612259496495768
21501925 9 18411708716154645762
22094290 60 16128659656515647199
23175994 123 18202279208673333021
23184049 59 18334290963775697519
23402539 116 18334584550428177855
23559900 14 18131070442144548154
26918003 58 18131353007441467914
2748010 2 18265622163727951868
2871803 45 18343021137972175254
34934 24 18337117765511076446
5104073 3 18339082695647705512
7364860 26 18335703776473222672
77492 1 17676486116730496839
83771 10 18408324410331317772
8809292 202 18130783425958516275

> <PUBCHEM_SHAPE_MULTIPOLES>
313.44
8.48
1.64
0.81
2.59
0.44
0
-1.82
-0.22
-1.08
0.01
0.71
-0.08
0.01

> <PUBCHEM_SHAPE_SELFOVERLAP>
704.392

> <PUBCHEM_SHAPE_VOLUME>
167.9

> <PUBCHEM_COORDINATE_TYPE>
2
5
10

$$$$

