14060
  -OEChem-06241222413D

 33 32  0     0  0  0  0  0  0999 V2000
    1.7118   -0.6706   -0.4795 N   0  0  0  0  0  0  0  0  0  0  0  0
    3.6533    0.5739   -0.6369 N   0  0  0  0  0  0  0  0  0  0  0  0
    1.9908    1.4177    0.6743 N   0  0  0  0  0  0  0  0  0  0  0  0
   -2.0539    0.4409   -0.1116 C   0  0  0  0  0  0  0  0  0  0  0  0
   -0.5232    0.3789   -0.4105 C   0  0  0  0  0  0  0  0  0  0  0  0
    0.3602   -0.7937    0.0880 C   0  0  0  0  0  0  0  0  0  0  0  0
   -2.6036    1.8733   -0.0764 C   0  0  0  0  0  0  0  0  0  0  0  0
   -2.7741   -0.3137   -1.2557 C   0  0  0  0  0  0  0  0  0  0  0  0
   -2.4154   -0.2818    1.1989 C   0  0  0  0  0  0  0  0  0  0  0  0
   -0.2241   -2.1135   -0.4470 C   0  0  0  0  0  0  0  0  0  0  0  0
    0.4963   -0.8962    1.6047 C   0  0  0  0  0  0  0  0  0  0  0  0
    2.3820    0.3848   -0.1483 C   0  0  0  0  0  0  0  0  0  0  0  0
   -0.1548    1.3414   -0.0623 H   0  0  0  0  0  0  0  0  0  0  0  0
   -0.3855    0.4561   -1.5005 H   0  0  0  0  0  0  0  0  0  0  0  0
   -3.6894    1.8875    0.0705 H   0  0  0  0  0  0  0  0  0  0  0  0
   -2.3854    2.4002   -1.0121 H   0  0  0  0  0  0  0  0  0  0  0  0
   -2.1503    2.4446    0.7414 H   0  0  0  0  0  0  0  0  0  0  0  0
   -2.5524   -1.3808   -1.2876 H   0  0  0  0  0  0  0  0  0  0  0  0
   -2.5225    0.1132   -2.2334 H   0  0  0  0  0  0  0  0  0  0  0  0
   -3.8625   -0.2307   -1.1434 H   0  0  0  0  0  0  0  0  0  0  0  0
   -3.4901   -0.1646    1.3945 H   0  0  0  0  0  0  0  0  0  0  0  0
   -1.9127    0.1754    2.0561 H   0  0  0  0  0  0  0  0  0  0  0  0
   -2.2503   -1.3558    1.2053 H   0  0  0  0  0  0  0  0  0  0  0  0
    0.4898   -2.9294   -0.2701 H   0  0  0  0  0  0  0  0  0  0  0  0
   -1.1564   -2.4379    0.0095 H   0  0  0  0  0  0  0  0  0  0  0  0
   -0.3593   -2.0698   -1.5342 H   0  0  0  0  0  0  0  0  0  0  0  0
    1.4890   -1.2570    1.9028 H   0  0  0  0  0  0  0  0  0  0  0  0
   -0.2050   -1.6229    2.0303 H   0  0  0  0  0  0  0  0  0  0  0  0
    0.3134    0.0377    2.1399 H   0  0  0  0  0  0  0  0  0  0  0  0
    4.0813   -0.1040   -1.2582 H   0  0  0  0  0  0  0  0  0  0  0  0
    4.2005    1.3918   -0.3917 H   0  0  0  0  0  0  0  0  0  0  0  0
    2.6191    2.2030    0.8133 H   0  0  0  0  0  0  0  0  0  0  0  0
    1.1517    1.4566    1.2311 H   0  0  0  0  0  0  0  0  0  0  0  0
  1  6  1  0  0  0  0
  1 12  2  0  0  0  0
  2 12  1  0  0  0  0
  2 30  1  0  0  0  0
  2 31  1  0  0  0  0
  3 12  1  0  0  0  0
  3 32  1  0  0  0  0
  3 33  1  0  0  0  0
  4  5  1  0  0  0  0
  4  7  1  0  0  0  0
  4  8  1  0  0  0  0
  4  9  1  0  0  0  0
  5  6  1  0  0  0  0
  5 13  1  0  0  0  0
  5 14  1  0  0  0  0
  6 10  1  0  0  0  0
  6 11  1  0  0  0  0
  7 15  1  0  0  0  0
  7 16  1  0  0  0  0
  7 17  1  0  0  0  0
  8 18  1  0  0  0  0
  8 19  1  0  0  0  0
  8 20  1  0  0  0  0
  9 21  1  0  0  0  0
  9 22  1  0  0  0  0
  9 23  1  0  0  0  0
 10 24  1  0  0  0  0
 10 25  1  0  0  0  0
 10 26  1  0  0  0  0
 11 27  1  0  0  0  0
 11 28  1  0  0  0  0
 11 29  1  0  0  0  0
M  END
> <PUBCHEM_COMPOUND_CID>
14060

> <PUBCHEM_CONFORMER_RMSD>
0.6

> <PUBCHEM_CONFORMER_DIVERSEORDER>
1
2
6
3
7
5
4

> <PUBCHEM_MMFF94_PARTIAL_CHARGES>
9
1 -0.7
12 0.55
2 -0.85
3 -0.85
30 0.4
31 0.4
32 0.4
33 0.4
6 0.25

> <PUBCHEM_EFFECTIVE_ROTOR_COUNT>
3

> <PUBCHEM_PHARMACOPHORE_FEATURES>
5
1 2 donor
1 3 donor
3 6 10 11 hydrophobe
4 1 2 3 12 cation
4 4 7 8 9 hydrophobe

> <PUBCHEM_HEAVY_ATOM_COUNT>
12

> <PUBCHEM_ATOM_DEF_STEREO_COUNT>
0

> <PUBCHEM_ATOM_UDEF_STEREO_COUNT>
0

> <PUBCHEM_BOND_DEF_STEREO_COUNT>
0

> <PUBCHEM_BOND_UDEF_STEREO_COUNT>
0

> <PUBCHEM_ISOTOPIC_ATOM_COUNT>
0

> <PUBCHEM_COMPONENT_COUNT>
1

> <PUBCHEM_CACTVS_TAUTO_COUNT>
2

> <PUBCHEM_CONFORMER_ID>
000036EC00000001

> <PUBCHEM_MMFF94_ENERGY>
62.737

> <PUBCHEM_FEATURE_SELFOVERLAP>
25.428

> <PUBCHEM_SHAPE_FINGERPRINT>
10857977 72 17632005369423029785
12491281 212 18409443691529994480
12897270 3 18261120664117958557
12932764 1 18113337522183758577
13839132 238 18058720433288751443
14128692 85 6843911793581260034
14325111 11 18412260657684900708
14390081 3 18412266172449509797
14648413 74 17979067520400575575
15775835 57 18412262869382269413
16945 1 18337956692561199242
18186145 218 17458341944617267088
20361792 2 5400799479332378000
20653085 51 18335129861241045088
21028194 46 18411412904091830168
23552423 10 18046356489770474687
305870 269 18340492278165436682
369184 2 15339123437674272837
5084963 1 17846490426657313767
528886 8 18260267477190753017
6333449 129 18264205811977829310
81228 2 17758964718488705890

> <PUBCHEM_SHAPE_MULTIPOLES>
232.01
4.68
1.67
1.2
1.44
0.13
-0.3
-2.03
0.83
-0.26
0.02
-0.34
0.28
-0.05

> <PUBCHEM_SHAPE_SELFOVERLAP>
441.479

> <PUBCHEM_SHAPE_VOLUME>
143

> <PUBCHEM_COORDINATE_TYPE>
2
5
10

$$$$

