14362
  -OEChem-06241222433D

 32 32  0     1  0  0  0  0  0999 V2000
    2.4016    2.0035    1.8252 Br  0  0  0  0  0  0  0  0  0  0  0  0
    0.9396   -0.0185   -2.2794 O   0  0  0  0  0  0  0  0  0  0  0  0
   -0.1438    0.3226    2.2769 O   0  0  0  0  0  0  0  0  0  0  0  0
    0.5229   -3.7752    0.3223 O   0  0  0  0  0  0  0  0  0  0  0  0
    0.6342   -1.8981   -1.0003 N   0  0  0  0  0  0  0  0  0  0  0  0
    0.0924   -1.7278    1.2756 N   0  0  0  0  0  0  0  0  0  0  0  0
   -0.1821    0.2524   -0.1467 C   0  0  0  0  0  0  0  0  0  0  0  0
   -1.6795    0.2519   -0.5029 C   0  0  1  0  0  0  0  0  0  0  0  0
    0.3355    1.6981   -0.1318 C   0  0  0  0  0  0  0  0  0  0  0  0
   -2.4699    0.9969    0.5846 C   0  0  0  0  0  0  0  0  0  0  0  0
    0.5367   -0.5351   -1.2376 C   0  0  0  0  0  0  0  0  0  0  0  0
   -0.0549   -0.3490    1.2494 C   0  0  0  0  0  0  0  0  0  0  0  0
   -1.8754    0.8594   -1.8907 C   0  0  0  0  0  0  0  0  0  0  0  0
   -3.9734    0.9941    0.3479 C   0  0  0  0  0  0  0  0  0  0  0  0
    1.8200    1.7641    0.0613 C   0  0  0  0  0  0  0  0  0  0  0  0
    0.4073   -2.5542    0.2036 C   0  0  0  0  0  0  0  0  0  0  0  0
    2.6887    1.7148   -0.9575 C   0  0  0  0  0  0  0  0  0  0  0  0
   -2.0497   -0.7823   -0.5409 H   0  0  0  0  0  0  0  0  0  0  0  0
   -0.1400    2.3129    0.6402 H   0  0  0  0  0  0  0  0  0  0  0  0
    0.1282    2.2189   -1.0730 H   0  0  0  0  0  0  0  0  0  0  0  0
   -2.1677    2.0442    0.6717 H   0  0  0  0  0  0  0  0  0  0  0  0
   -2.3422    0.5302    1.5640 H   0  0  0  0  0  0  0  0  0  0  0  0
   -1.6871    1.9353   -1.9299 H   0  0  0  0  0  0  0  0  0  0  0  0
   -2.9245    0.7385   -2.1885 H   0  0  0  0  0  0  0  0  0  0  0  0
   -1.3174    0.3628   -2.6856 H   0  0  0  0  0  0  0  0  0  0  0  0
   -4.4906    1.4299    1.2093 H   0  0  0  0  0  0  0  0  0  0  0  0
   -4.3493   -0.0245    0.2092 H   0  0  0  0  0  0  0  0  0  0  0  0
   -4.2448    1.5886   -0.5294 H   0  0  0  0  0  0  0  0  0  0  0  0
    0.9838   -2.4682   -1.7655 H   0  0  0  0  0  0  0  0  0  0  0  0
    0.0426   -2.1725    2.1880 H   0  0  0  0  0  0  0  0  0  0  0  0
    3.7586    1.7790   -0.7810 H   0  0  0  0  0  0  0  0  0  0  0  0
    2.3846    1.6933   -1.9953 H   0  0  0  0  0  0  0  0  0  0  0  0
  1 15  1  0  0  0  0
  2 11  2  0  0  0  0
  3 12  2  0  0  0  0
  4 16  2  0  0  0  0
  5 11  1  0  0  0  0
  5 16  1  0  0  0  0
  5 29  1  0  0  0  0
  6 12  1  0  0  0  0
  6 16  1  0  0  0  0
  6 30  1  0  0  0  0
  7  8  1  0  0  0  0
  7  9  1  0  0  0  0
  7 11  1  0  0  0  0
  7 12  1  0  0  0  0
  8 10  1  0  0  0  0
  8 13  1  0  0  0  0
  8 18  1  0  0  0  0
  9 15  1  0  0  0  0
  9 19  1  0  0  0  0
  9 20  1  0  0  0  0
 10 14  1  0  0  0  0
 10 21  1  0  0  0  0
 10 22  1  0  0  0  0
 13 23  1  0  0  0  0
 13 24  1  0  0  0  0
 13 25  1  0  0  0  0
 14 26  1  0  0  0  0
 14 27  1  0  0  0  0
 14 28  1  0  0  0  0
 15 17  2  0  0  0  0
 17 31  1  0  0  0  0
 17 32  1  0  0  0  0
M  END
> <PUBCHEM_COMPOUND_CID>
14362

> <PUBCHEM_CONFORMER_RMSD>
0.6

> <PUBCHEM_CONFORMER_DIVERSEORDER>
1
15
28
4
22
19
17
6
30
31
26
27
32
23
16
12
8
24
14
5
9
20
21
11
18
10
2
3
29
25
7
33
13

> <PUBCHEM_MMFF94_PARTIAL_CHARGES>
17
1 -0.11
11 0.57
12 0.57
15 -0.03
16 0.69
17 -0.3
2 -0.57
29 0.37
3 -0.57
30 0.37
31 0.15
32 0.15
4 -0.57
5 -0.49
6 -0.49
7 0.12
9 0.14

> <PUBCHEM_EFFECTIVE_ROTOR_COUNT>
4.6

> <PUBCHEM_PHARMACOPHORE_FEATURES>
9
1 1 hydrophobe
1 13 hydrophobe
1 14 hydrophobe
1 2 acceptor
1 3 acceptor
1 4 acceptor
1 5 donor
1 6 donor
6 5 6 7 11 12 16 rings

> <PUBCHEM_HEAVY_ATOM_COUNT>
17

> <PUBCHEM_ATOM_DEF_STEREO_COUNT>
0

> <PUBCHEM_ATOM_UDEF_STEREO_COUNT>
1

> <PUBCHEM_BOND_DEF_STEREO_COUNT>
0

> <PUBCHEM_BOND_UDEF_STEREO_COUNT>
0

> <PUBCHEM_ISOTOPIC_ATOM_COUNT>
0

> <PUBCHEM_COMPONENT_COUNT>
1

> <PUBCHEM_CACTVS_TAUTO_COUNT>
5

> <PUBCHEM_CONFORMER_ID>
0000381A00000001

> <PUBCHEM_MMFF94_ENERGY>
57.3999

> <PUBCHEM_FEATURE_SELFOVERLAP>
45.711

> <PUBCHEM_SHAPE_FINGERPRINT>
10702982 57 17767446458564333260
12326174 3 18262517125373652653
12423570 1 14743062851081342128
12716301 132 18053362332648347352
13024252 1 15838763361123256524
141345 1 5584304052924146089
14617773 55 16982116872632453736
14817 1 8282863358309679604
15852999 172 18116976824262757324
15881359 60 16883842510398657180
15906896 17 17902242108657534988
16945 1 17973755710785754106
19765921 60 17894916191794816697
20711985 344 17621595012947836378
21524375 3 18041853808981496081
22112679 90 17106189483967447579
22344851 341 18260824886910902919
23419403 2 17410722151726315274
2748010 2 17267729487602549047
430814 3 18117585979442681033
7364860 26 18267864067852506425
81228 2 17620484510198134545

> <PUBCHEM_SHAPE_MULTIPOLES>
328.22
3.65
3
1.97
0.12
3.51
-0.16
-3.87
0.49
0.72
0.61
-0.5
-0.2
0.24

> <PUBCHEM_SHAPE_SELFOVERLAP>
663.713

> <PUBCHEM_SHAPE_VOLUME>
194.2

> <PUBCHEM_COORDINATE_TYPE>
2
5
10

$$$$

