17396281
  -OEChem-06241222553D

 29 31  0     0  0  0  0  0  0999 V2000
    7.1191    1.3893    0.0427 Br  0  0  0  0  0  0  0  0  0  0  0  0
   -6.9286   -1.1945   -0.1121 F   0  0  0  0  0  0  0  0  0  0  0  0
    4.3960    0.4310    0.0179 O   0  0  0  0  0  0  0  0  0  0  0  0
    1.6204   -1.7472   -0.1264 O   0  0  0  0  0  0  0  0  0  0  0  0
   -1.5214    2.1374    0.1992 N   0  0  0  0  0  0  0  0  0  0  0  0
   -0.6245    0.0408    0.0198 N   0  0  0  0  0  0  0  0  0  0  0  0
    1.6801    0.5991    0.0789 N   0  0  0  0  0  0  0  0  0  0  0  0
   -0.1802    2.1721    0.2077 N   0  0  0  0  0  0  0  0  0  0  0  0
   -3.0835    0.3031    0.0339 C   0  0  0  0  0  0  0  0  0  0  0  0
   -1.7399    0.8258    0.0842 C   0  0  0  0  0  0  0  0  0  0  0  0
    0.3452    0.9220    0.1009 C   0  0  0  0  0  0  0  0  0  0  0  0
   -3.3544   -0.9729    0.5283 C   0  0  0  0  0  0  0  0  0  0  0  0
   -4.1116    1.0731   -0.5100 C   0  0  0  0  0  0  0  0  0  0  0  0
    3.7137   -0.7415   -0.0607 C   0  0  0  0  0  0  0  0  0  0  0  0
    2.2279   -0.6866   -0.0309 C   0  0  0  0  0  0  0  0  0  0  0  0
   -4.6532   -1.4788    0.4788 C   0  0  0  0  0  0  0  0  0  0  0  0
   -5.4106    0.5672   -0.5594 C   0  0  0  0  0  0  0  0  0  0  0  0
   -5.6813   -0.7089   -0.0651 C   0  0  0  0  0  0  0  0  0  0  0  0
    4.5845   -1.8017   -0.1584 C   0  0  0  0  0  0  0  0  0  0  0  0
    5.8854   -1.2448   -0.1388 C   0  0  0  0  0  0  0  0  0  0  0  0
    5.7170    0.1160   -0.0304 C   0  0  0  0  0  0  0  0  0  0  0  0
   -2.5694   -1.5893    0.9599 H   0  0  0  0  0  0  0  0  0  0  0  0
   -3.9334    2.0661   -0.9153 H   0  0  0  0  0  0  0  0  0  0  0  0
   -2.0917    2.9753    0.2774 H   0  0  0  0  0  0  0  0  0  0  0  0
    2.3140    1.3912    0.1464 H   0  0  0  0  0  0  0  0  0  0  0  0
   -4.8649   -2.4717    0.8644 H   0  0  0  0  0  0  0  0  0  0  0  0
   -6.2112    1.1651   -0.9850 H   0  0  0  0  0  0  0  0  0  0  0  0
    4.3204   -2.8469   -0.2348 H   0  0  0  0  0  0  0  0  0  0  0  0
    6.8241   -1.7778   -0.1971 H   0  0  0  0  0  0  0  0  0  0  0  0
  1 21  1  0  0  0  0
  2 18  1  0  0  0  0
  3 14  1  0  0  0  0
  3 21  1  0  0  0  0
  4 15  2  0  0  0  0
  5  8  1  0  0  0  0
  5 10  1  0  0  0  0
  5 24  1  0  0  0  0
  6 10  2  0  0  0  0
  6 11  1  0  0  0  0
  7 11  1  0  0  0  0
  7 15  1  0  0  0  0
  7 25  1  0  0  0  0
  8 11  2  0  0  0  0
  9 10  1  0  0  0  0
  9 12  2  0  0  0  0
  9 13  1  0  0  0  0
 12 16  1  0  0  0  0
 12 22  1  0  0  0  0
 13 17  2  0  0  0  0
 13 23  1  0  0  0  0
 14 15  1  0  0  0  0
 14 19  2  0  0  0  0
 16 18  2  0  0  0  0
 16 26  1  0  0  0  0
 17 18  1  0  0  0  0
 17 27  1  0  0  0  0
 19 20  1  0  0  0  0
 19 28  1  0  0  0  0
 20 21  2  0  0  0  0
 20 29  1  0  0  0  0
M  END
> <PUBCHEM_COMPOUND_CID>
17396281

> <PUBCHEM_CONFORMER_RMSD>
0.6

> <PUBCHEM_CONFORMER_DIVERSEORDER>
1
34
25
14
35
28
32
6
29
17
30
27
4
23
26
21
8
31
20
3
33
11
24
2
22
19
10
18
9
7
16
13
12
15
5

> <PUBCHEM_MMFF94_PARTIAL_CHARGES>
29
1 -0.06
10 0.13
11 0.58
12 -0.15
13 -0.15
14 0.05
15 0.71
16 -0.15
17 -0.15
18 0.19
19 -0.15
2 -0.19
20 -0.15
21 0.2
22 0.15
23 0.15
24 0.27
25 0.37
26 0.15
27 0.15
28 0.15
29 0.15
3 -0.28
4 -0.57
5 0.3
6 -0.57
7 -0.49
8 -0.71
9 0.05

> <PUBCHEM_EFFECTIVE_ROTOR_COUNT>
4

> <PUBCHEM_PHARMACOPHORE_FEATURES>
9
1 1 hydrophobe
1 3 acceptor
1 4 acceptor
1 5 donor
1 7 donor
3 5 6 10 cation
5 3 14 19 20 21 rings
5 5 6 8 10 11 rings
6 9 12 13 16 17 18 rings

> <PUBCHEM_HEAVY_ATOM_COUNT>
21

> <PUBCHEM_ATOM_DEF_STEREO_COUNT>
0

> <PUBCHEM_ATOM_UDEF_STEREO_COUNT>
0

> <PUBCHEM_BOND_DEF_STEREO_COUNT>
0

> <PUBCHEM_BOND_UDEF_STEREO_COUNT>
0

> <PUBCHEM_ISOTOPIC_ATOM_COUNT>
0

> <PUBCHEM_COMPONENT_COUNT>
1

> <PUBCHEM_CACTVS_TAUTO_COUNT>
8

> <PUBCHEM_CONFORMER_ID>
0109723900000001

> <PUBCHEM_MMFF94_ENERGY>
43.6151

> <PUBCHEM_FEATURE_SELFOVERLAP>
45.669

> <PUBCHEM_SHAPE_FINGERPRINT>
10 15 18337963303576229984
10354089 29 5472858151718470006
10447042 23 18412550933144877806
10595046 47 18340485660042807248
10638233 991 16008751269419186520
10835480 77 18341057401235653733
10968037 39 18411136931210792893
11315181 36 18260546719612872361
11524674 6 16370728127881313247
12236239 1 18130788988236199598
12516196 113 18333452040693377505
12730499 353 17967249798444380734
12838862 33 18339098024676095387
13288520 33 18411419510532188285
13402501 40 18410572886004411443
13685833 64 18410853248884889643
13740256 8 18410011014266505849
13862211 1 18409731776430114923
13899415 154 17240481386664852600
14123256 10 18334574629792241100
1420 363 18333729134929981782
14251718 22 18343021099090473352
14251732 16 18410012118073276312
14251764 18 18259981583626449457
14461889 52 18412267203927353306
14840074 17 17749394766785164623
15183329 4 11023831695289343990
15196674 1 18410572933042927066
15716309 27 18040998448927134247
15927050 60 17611471826945967948
17492 89 18119810472429765894
18006028 8 18187086152853534249
18335252 98 18410007720100748178
19489759 90 17346880074005636445
200 152 18261112997596138241
20374829 77 18341614836867096491
21049683 271 18337951182124401168
21095086 128 16298381358306433756
21236236 1 18262235637955534969
21267235 1 18411414004194340675
21365058 27 16081083754111596182
21521721 280 17895194364331709594
21623969 137 18040712580315177998
21774942 28 13829590772542476983
22224240 67 16805329881252482934
22896161 15 18410012113593569268
23035841 295 18341332266262515699
23198884 109 15554728884963111443
23402539 116 18131634503908709238
23522609 53 18118935127318232136
23559900 14 18339932532564008665
23622692 88 15285361708416733825
3004659 81 18131633382774525804
3246875 12 18265618680989698232
329604 57 18410852170489460480
335352 9 18411422817994792045
34797466 226 17603579713128673484
4073 2 18201995529882709498
4325135 7 18411135814878089764
445580 204 13542199315752864663
4463277 17 18408603677526267113
465052 167 18113616794211609342
474229 33 18408040728037231942
5104073 3 18188213238202766064
5207 217 18341611495614772096
5283173 99 18130231574359064253
5385378 56 9439139666356738941
5486654 2 18410289186492734078
7495541 125 17894919538027618136
9862886 166 17560511811886440163
999808 66 17988350495965267907

> <PUBCHEM_SHAPE_MULTIPOLES>
399.18
18.48
1.91
0.66
6.44
0.19
0
-2.85
-1.05
0.55
0.07
-0.17
0
0.57

> <PUBCHEM_SHAPE_SELFOVERLAP>
863.924

> <PUBCHEM_SHAPE_VOLUME>
223.5

> <PUBCHEM_COORDINATE_TYPE>
2
5
10

$$$$

