10447
  -OEChem-06261204333D

 29 28  0     1  0  0  0  0  0999 V2000
    4.7915   -0.7109    0.2085 O   0  0  0  0  0  0  0  0  0  0  0  0
    3.8645    1.2703   -0.3996 O   0  0  0  0  0  0  0  0  0  0  0  0
   -2.6857   -0.1861    0.2124 C   0  0  1  0  0  0  0  0  0  0  0  0
   -1.3187    0.4768   -0.0667 C   0  0  0  0  0  0  0  0  0  0  0  0
   -0.1197   -0.4245    0.2478 C   0  0  0  0  0  0  0  0  0  0  0  0
   -3.8017    0.8515   -0.0331 C   0  0  0  0  0  0  0  0  0  0  0  0
    1.2032    0.3010   -0.0255 C   0  0  0  0  0  0  0  0  0  0  0  0
   -2.8897   -1.4440   -0.6377 C   0  0  0  0  0  0  0  0  0  0  0  0
    2.4209   -0.5846    0.2410 C   0  0  0  0  0  0  0  0  0  0  0  0
   -5.2013    0.3346    0.2696 C   0  0  0  0  0  0  0  0  0  0  0  0
    3.7366    0.1158   -0.0165 C   0  0  0  0  0  0  0  0  0  0  0  0
   -2.7168   -0.4811    1.2694 H   0  0  0  0  0  0  0  0  0  0  0  0
   -1.2713    0.7867   -1.1187 H   0  0  0  0  0  0  0  0  0  0  0  0
   -1.2364    1.3916    0.5343 H   0  0  0  0  0  0  0  0  0  0  0  0
   -0.1587   -0.7406    1.2969 H   0  0  0  0  0  0  0  0  0  0  0  0
   -0.1480   -1.3282   -0.3694 H   0  0  0  0  0  0  0  0  0  0  0  0
   -3.6174    1.7289    0.5993 H   0  0  0  0  0  0  0  0  0  0  0  0
   -3.7693    1.1999   -1.0727 H   0  0  0  0  0  0  0  0  0  0  0  0
    1.2258    0.6433   -1.0679 H   0  0  0  0  0  0  0  0  0  0  0  0
    1.2631    1.2012    0.5991 H   0  0  0  0  0  0  0  0  0  0  0  0
   -3.8533   -1.9178   -0.4284 H   0  0  0  0  0  0  0  0  0  0  0  0
   -2.1293   -2.2011   -0.4262 H   0  0  0  0  0  0  0  0  0  0  0  0
   -2.8506   -1.2092   -1.7066 H   0  0  0  0  0  0  0  0  0  0  0  0
    2.3782   -1.4683   -0.4057 H   0  0  0  0  0  0  0  0  0  0  0  0
    2.4136   -0.9116    1.2867 H   0  0  0  0  0  0  0  0  0  0  0  0
   -5.9219    1.1574    0.2173 H   0  0  0  0  0  0  0  0  0  0  0  0
   -5.5189   -0.4212   -0.4544 H   0  0  0  0  0  0  0  0  0  0  0  0
   -5.2538   -0.0971    1.2739 H   0  0  0  0  0  0  0  0  0  0  0  0
    5.6481   -0.2661    0.0330 H   0  0  0  0  0  0  0  0  0  0  0  0
  1 11  1  0  0  0  0
  1 29  1  0  0  0  0
  2 11  2  0  0  0  0
  3  4  1  0  0  0  0
  3  6  1  0  0  0  0
  3  8  1  0  0  0  0
  3 12  1  0  0  0  0
  4  5  1  0  0  0  0
  4 13  1  0  0  0  0
  4 14  1  0  0  0  0
  5  7  1  0  0  0  0
  5 15  1  0  0  0  0
  5 16  1  0  0  0  0
  6 10  1  0  0  0  0
  6 17  1  0  0  0  0
  6 18  1  0  0  0  0
  7  9  1  0  0  0  0
  7 19  1  0  0  0  0
  7 20  1  0  0  0  0
  8 21  1  0  0  0  0
  8 22  1  0  0  0  0
  8 23  1  0  0  0  0
  9 11  1  0  0  0  0
  9 24  1  0  0  0  0
  9 25  1  0  0  0  0
 10 26  1  0  0  0  0
 10 27  1  0  0  0  0
 10 28  1  0  0  0  0
M  END
> <PUBCHEM_COMPOUND_CID>
10447

> <PUBCHEM_CONFORMER_RMSD>
0.6

> <PUBCHEM_CONFORMER_DIVERSEORDER>
2
216
46
201
34
187
81
214
58
19
222
123
176
50
223
10
90
220
75
213
22
198
20
191
71
4
59
221
48
73
207
6
8
224
154
203
30
156
32
199
15
151
17
195
206
175
45
210
101
80
64
202
5
194
83
215
86
24
62
95
70
200
113
192
84
219
78
94
115
97
197
102
141
168
55
85
54
211
33
61
28
39
160
150
147
208
144
129
167
178
88
21
41
63
40
35
189
89
145
68
14
118
217
106
162
67
98
36
218
146
82
109
57
139
69
209
170
114
29
105
49
92
125
1
60
158
128
117
165
3
9
153
23
148
47
152
190
159
38
65
179
134
185
99
173
169
193
177
149
103
51
182
161
212
56
119
204
155
157
104
72
142
27
108
127
186
26
100
180
53
138
132
137
166
111
31
135
122
183
18
87
96
174
16
12
163
91
13
205
130
112
143
140
66
133
171
77
196
93
7
136
107
76
79
116
110
44
124
164
121
184
37
42
120
11
52
181
74
25
172
188
131
126
43

> <PUBCHEM_MMFF94_PARTIAL_CHARGES>
5
1 -0.65
11 0.66
2 -0.57
29 0.5
9 0.06

> <PUBCHEM_EFFECTIVE_ROTOR_COUNT>
6

> <PUBCHEM_PHARMACOPHORE_FEATURES>
7
1 1 acceptor
1 10 hydrophobe
1 2 acceptor
1 8 hydrophobe
3 1 2 11 anion
3 3 4 6 hydrophobe
3 5 7 9 hydrophobe

> <PUBCHEM_HEAVY_ATOM_COUNT>
11

> <PUBCHEM_ATOM_DEF_STEREO_COUNT>
0

> <PUBCHEM_ATOM_UDEF_STEREO_COUNT>
1

> <PUBCHEM_BOND_DEF_STEREO_COUNT>
0

> <PUBCHEM_BOND_UDEF_STEREO_COUNT>
0

> <PUBCHEM_ISOTOPIC_ATOM_COUNT>
0

> <PUBCHEM_COMPONENT_COUNT>
1

> <PUBCHEM_CACTVS_TAUTO_COUNT>
1

> <PUBCHEM_CONFORMER_ID>
000028CF00000002

> <PUBCHEM_MMFF94_ENERGY>
6.0056

> <PUBCHEM_FEATURE_SELFOVERLAP>
35.803

> <PUBCHEM_SHAPE_FINGERPRINT>
11062470 55 18411136939410395761
14123238 8 12391510888532172321
14251718 22 7204481217267518449
14325111 11 18411419496945783274
15242433 33 18408603668915188079
17834072 33 18334579001783949549
17834076 25 18410854373506710657
18186145 218 17275390880529943066
187816 3 16805325513919238371
190213 19 16587739824371053554
20279233 1 16298382457164037503
20645477 70 18262798596135049998
20719005 15 18341894103893065321
20828058 44 18187367622955002910
21119208 17 18407760347828373049
22485316 2 18187368722609003478
23402539 116 18335990817231176798
23402655 69 18409728456831618020
42788 4 18342738529208358121
449060 50 18412260653658945743

> <PUBCHEM_SHAPE_MULTIPOLES>
214.64
10.82
1.11
0.67
1.9
0.14
0.01
-1.04
-0.22
-0.24
0.16
-0.11
0.04
-0.48

> <PUBCHEM_SHAPE_SELFOVERLAP>
390.125

> <PUBCHEM_SHAPE_VOLUME>
137.6

> <PUBCHEM_COORDINATE_TYPE>
2
5
10

$$$$

