17396367
  -OEChem-06241222563D

 34 35  0     0  0  0  0  0  0999 V2000
    2.8855   -1.4222    1.6843 F   0  0  0  0  0  0  0  0  0  0  0  0
    4.2381   -2.2900    0.2034 F   0  0  0  0  0  0  0  0  0  0  0  0
    2.2944   -3.2259    0.5523 F   0  0  0  0  0  0  0  0  0  0  0  0
    2.3979   -1.2196   -0.5405 O   0  0  0  0  0  0  0  0  0  0  0  0
   -3.1607    0.8897    1.6020 O   0  0  0  0  0  0  0  0  0  0  0  0
   -1.3432    2.2319   -0.3130 O   0  0  0  0  0  0  0  0  0  0  0  0
    0.0680    0.3628   -0.4554 N   0  0  0  0  0  0  0  0  0  0  0  0
    1.3598    0.9359   -0.3577 C   0  0  0  0  0  0  0  0  0  0  0  0
   -2.3416    0.1416   -0.5251 C   0  0  0  0  0  0  0  0  0  0  0  0
    2.4994    0.1328   -0.4031 C   0  0  0  0  0  0  0  0  0  0  0  0
   -1.1751    1.0082   -0.4300 C   0  0  0  0  0  0  0  0  0  0  0  0
   -3.2954    0.1104    0.4921 C   0  0  0  0  0  0  0  0  0  0  0  0
    1.4855    2.3178   -0.2158 C   0  0  0  0  0  0  0  0  0  0  0  0
   -2.4979   -0.6644   -1.6528 C   0  0  0  0  0  0  0  0  0  0  0  0
    3.7647    0.7117   -0.3064 C   0  0  0  0  0  0  0  0  0  0  0  0
   -4.4056   -0.7269    0.3817 C   0  0  0  0  0  0  0  0  0  0  0  0
    2.7510    2.8967   -0.1190 C   0  0  0  0  0  0  0  0  0  0  0  0
    3.8905    2.0937   -0.1642 C   0  0  0  0  0  0  0  0  0  0  0  0
   -3.6080   -1.5018   -1.7631 C   0  0  0  0  0  0  0  0  0  0  0  0
   -4.5619   -1.5331   -0.7458 C   0  0  0  0  0  0  0  0  0  0  0  0
    2.9391   -2.0416    0.4861 C   0  0  0  0  0  0  0  0  0  0  0  0
   -4.1843    0.7921    2.5900 C   0  0  0  0  0  0  0  0  0  0  0  0
    0.0626   -0.6512   -0.5471 H   0  0  0  0  0  0  0  0  0  0  0  0
    0.6565    3.0088   -0.1722 H   0  0  0  0  0  0  0  0  0  0  0  0
   -1.7666   -0.6483   -2.4570 H   0  0  0  0  0  0  0  0  0  0  0  0
    4.6632    0.1028   -0.3498 H   0  0  0  0  0  0  0  0  0  0  0  0
   -5.1868   -0.8051    1.1298 H   0  0  0  0  0  0  0  0  0  0  0  0
    2.8505    3.9727   -0.0089 H   0  0  0  0  0  0  0  0  0  0  0  0
    4.8759    2.5448   -0.0912 H   0  0  0  0  0  0  0  0  0  0  0  0
   -3.7305   -2.1285   -2.6416 H   0  0  0  0  0  0  0  0  0  0  0  0
   -5.4261   -2.1853   -0.8331 H   0  0  0  0  0  0  0  0  0  0  0  0
   -5.1536    1.1237    2.2021 H   0  0  0  0  0  0  0  0  0  0  0  0
   -4.2297   -0.2110    3.0277 H   0  0  0  0  0  0  0  0  0  0  0  0
   -3.9160    1.4787    3.3998 H   0  0  0  0  0  0  0  0  0  0  0  0
  1 21  1  0  0  0  0
  2 21  1  0  0  0  0
  3 21  1  0  0  0  0
  4 10  1  0  0  0  0
  4 21  1  0  0  0  0
  5 12  1  0  0  0  0
  5 22  1  0  0  0  0
  6 11  2  0  0  0  0
  7  8  1  0  0  0  0
  7 11  1  0  0  0  0
  7 23  1  0  0  0  0
  8 10  1  0  0  0  0
  8 13  2  0  0  0  0
  9 11  1  0  0  0  0
  9 12  1  0  0  0  0
  9 14  2  0  0  0  0
 10 15  2  0  0  0  0
 12 16  2  0  0  0  0
 13 17  1  0  0  0  0
 13 24  1  0  0  0  0
 14 19  1  0  0  0  0
 14 25  1  0  0  0  0
 15 18  1  0  0  0  0
 15 26  1  0  0  0  0
 16 20  1  0  0  0  0
 16 27  1  0  0  0  0
 17 18  2  0  0  0  0
 17 28  1  0  0  0  0
 18 29  1  0  0  0  0
 19 20  2  0  0  0  0
 19 30  1  0  0  0  0
 20 31  1  0  0  0  0
 22 32  1  0  0  0  0
 22 33  1  0  0  0  0
 22 34  1  0  0  0  0
M  END
> <PUBCHEM_COMPOUND_CID>
17396367

> <PUBCHEM_CONFORMER_RMSD>
0.8

> <PUBCHEM_CONFORMER_DIVERSEORDER>
4
21
12
25
17
30
16
46
13
36
43
18
37
45
27
2
19
35
7
23
9
33
11
38
20
26
24
5
14
42
10
41
47
3
44
31
39
22
15
6
1
28
29
32
34
8
40

> <PUBCHEM_MMFF94_PARTIAL_CHARGES>
31
1 -0.34
10 0.08
11 0.54
12 0.08
13 -0.15
14 -0.15
15 -0.15
16 -0.15
17 -0.15
18 -0.15
19 -0.15
2 -0.34
20 -0.15
21 1.3
22 0.28
23 0.37
24 0.15
25 0.15
26 0.15
27 0.15
28 0.15
29 0.15
3 -0.34
30 0.15
31 0.15
4 -0.36
5 -0.36
6 -0.57
7 -0.55
8 0.12
9 0.09

> <PUBCHEM_EFFECTIVE_ROTOR_COUNT>
6

> <PUBCHEM_PHARMACOPHORE_FEATURES>
6
1 4 acceptor
1 5 acceptor
1 6 acceptor
1 7 donor
6 8 10 13 15 17 18 rings
6 9 12 14 16 19 20 rings

> <PUBCHEM_HEAVY_ATOM_COUNT>
22

> <PUBCHEM_ATOM_DEF_STEREO_COUNT>
0

> <PUBCHEM_ATOM_UDEF_STEREO_COUNT>
0

> <PUBCHEM_BOND_DEF_STEREO_COUNT>
0

> <PUBCHEM_BOND_UDEF_STEREO_COUNT>
0

> <PUBCHEM_ISOTOPIC_ATOM_COUNT>
0

> <PUBCHEM_COMPONENT_COUNT>
1

> <PUBCHEM_CACTVS_TAUTO_COUNT>
2

> <PUBCHEM_CONFORMER_ID>
0109728F00000004

> <PUBCHEM_MMFF94_ENERGY>
82.9168

> <PUBCHEM_FEATURE_SELFOVERLAP>
30.447

> <PUBCHEM_SHAPE_FINGERPRINT>
10090160 65 18126852599170445020
10366900 7 18271801264193830252
11578080 2 17970375709380429265
11595378 159 17530970159272559697
12107183 9 18046334508169915657
12236239 1 18042117683656513821
12553582 1 18339921640289315766
12633257 1 18188202225510973023
12788726 201 17604426289731983911
13009979 54 17895471544188331666
13140716 1 17978797809503254152
13167823 11 18187359887950829725
13533116 47 18336828602870057667
13583140 156 18339062801955464425
13631057 29 17829895326182807271
13726171 33 16226869061226307688
13911987 19 17770780113253472941
14386348 63 17275103895178795969
14844126 61 17190397811465001338
14848160 33 18130801082674577874
15375462 189 18260548883490470789
15537594 2 18338217336899181620
17134984 74 17834141666281549903
17492 89 18410862078894960911
19078846 21 17530681026174215408
20511986 3 18041287573689219141
20645477 70 18130238085349558606
20681651 13 18187089438382157433
21065198 48 18187077335037651713
21421861 104 18263347226588014816
21427221 339 18042388291959692825
2255824 54 18340485543862724508
23503953 91 17968371359616427713
235170 7 15913318109102697206
23559900 14 18270134490285996548
23598288 3 18041562554427614637
23598291 2 18259982682177994509
312423 11 18333726909899409407
33824 294 18270124504829645252
341906 21 16443057331382257713
474 4 18122906434589734404
5104073 3 18187079546613351017
573450 72 17748823012628742725
633830 44 18118948223000247148
7097593 13 18261949768725750081
7615 1 18113342998552112077
9709674 26 18273497861974233403

> <PUBCHEM_SHAPE_MULTIPOLES>
408.34
9.85
2.94
1.53
3.31
0.93
0.72
1.81
1.26
-3.63
0.43
2.13
0.09
-2.46

> <PUBCHEM_SHAPE_SELFOVERLAP>
878.148

> <PUBCHEM_SHAPE_VOLUME>
225.2

> <PUBCHEM_COORDINATE_TYPE>
2
5
10

$$$$

