12354
  -OEChem-06261206513D

 17 16  0     0  0  0  0  0  0999 V2000
   -4.2814   -0.6415    0.0126 I   0  0  0  0  0  0  0  0  0  0  0  0
    4.2986   -0.6382   -0.0285 I   0  0  0  0  0  0  0  0  0  0  0  0
   -0.0127    0.6116   -0.0121 C   0  0  0  0  0  0  0  0  0  0  0  0
   -1.2699   -0.2627   -0.0128 C   0  0  0  0  0  0  0  0  0  0  0  0
    1.2576   -0.2446    0.0357 C   0  0  0  0  0  0  0  0  0  0  0  0
   -2.5362    0.5928   -0.0202 C   0  0  0  0  0  0  0  0  0  0  0  0
    2.5441    0.5825    0.0252 C   0  0  0  0  0  0  0  0  0  0  0  0
    0.0006    1.2389   -0.9115 H   0  0  0  0  0  0  0  0  0  0  0  0
   -0.0298    1.2848    0.8535 H   0  0  0  0  0  0  0  0  0  0  0  0
   -1.2556   -0.9213   -0.8903 H   0  0  0  0  0  0  0  0  0  0  0  0
   -1.2615   -0.9103    0.8730 H   0  0  0  0  0  0  0  0  0  0  0  0
    1.2556   -0.9279   -0.8234 H   0  0  0  0  0  0  0  0  0  0  0  0
    1.2361   -0.8738    0.9346 H   0  0  0  0  0  0  0  0  0  0  0  0
   -2.5555    1.2272   -0.9134 H   0  0  0  0  0  0  0  0  0  0  0  0
   -2.5466    1.2566    0.8516 H   0  0  0  0  0  0  0  0  0  0  0  0
    2.5764    1.2235    0.9135 H   0  0  0  0  0  0  0  0  0  0  0  0
    2.5481    1.2450   -0.8479 H   0  0  0  0  0  0  0  0  0  0  0  0
  1  6  1  0  0  0  0
  2  7  1  0  0  0  0
  3  4  1  0  0  0  0
  3  5  1  0  0  0  0
  3  8  1  0  0  0  0
  3  9  1  0  0  0  0
  4  6  1  0  0  0  0
  4 10  1  0  0  0  0
  4 11  1  0  0  0  0
  5  7  1  0  0  0  0
  5 12  1  0  0  0  0
  5 13  1  0  0  0  0
  6 14  1  0  0  0  0
  6 15  1  0  0  0  0
  7 16  1  0  0  0  0
  7 17  1  0  0  0  0
M  END
> <PUBCHEM_COMPOUND_CID>
12354

> <PUBCHEM_CONFORMER_RMSD>
0.6

> <PUBCHEM_CONFORMER_DIVERSEORDER>
1
20
9
15
21
10
14
3
22
17
4
6
12
16
7
13
2
5
18
19
11
8

> <PUBCHEM_MMFF94_PARTIAL_CHARGES>
4
1 -0.19
2 -0.19
6 0.19
7 0.19

> <PUBCHEM_EFFECTIVE_ROTOR_COUNT>
4

> <PUBCHEM_PHARMACOPHORE_FEATURES>
2
1 1 hydrophobe
1 2 hydrophobe

> <PUBCHEM_HEAVY_ATOM_COUNT>
7

> <PUBCHEM_ATOM_DEF_STEREO_COUNT>
0

> <PUBCHEM_ATOM_UDEF_STEREO_COUNT>
0

> <PUBCHEM_BOND_DEF_STEREO_COUNT>
0

> <PUBCHEM_BOND_UDEF_STEREO_COUNT>
0

> <PUBCHEM_ISOTOPIC_ATOM_COUNT>
0

> <PUBCHEM_COMPONENT_COUNT>
1

> <PUBCHEM_CACTVS_TAUTO_COUNT>
1

> <PUBCHEM_CONFORMER_ID>
0000304200000001

> <PUBCHEM_MMFF94_ENERGY>
1.4351

> <PUBCHEM_FEATURE_SELFOVERLAP>
10.149

> <PUBCHEM_SHAPE_FINGERPRINT>
11062470 55 9511462220989547815
11987891 38 18410853274048304626
14123238 8 17894912919024130630
14325111 11 18410575088958072193
177051 138 18408885148534915154
17834076 25 13398632757887308263
18342897 14 7709458324987617494
20211469 26 18341894086850320187
20719005 15 18410575089047827426
20828058 44 17458063746653319015
21293036 1 15123789582742558518
22485316 2 18410296912537558254
23402539 116 17895201017130659709
5460574 1 9007061266374714401

> <PUBCHEM_SHAPE_MULTIPOLES>
167.93
9.8
1
0.7
0.16
0.09
0
2.95
0.03
-0.01
0
0
0.05
0.02

> <PUBCHEM_SHAPE_SELFOVERLAP>
254.088

> <PUBCHEM_SHAPE_VOLUME>
126.6

> <PUBCHEM_COORDINATE_TYPE>
2
5
10

$$$$

