13832
  -OEChem-06241222403D

 21 20  0     0  0  0  0  0  0999 V2000
   -2.8027   -0.5812    0.0016 O   0  0  0  0  0  0  0  0  0  0  0  0
   -2.0241    1.5904   -0.0027 O   0  0  0  0  0  0  0  0  0  0  0  0
    2.4966    1.6530   -0.0029 O   0  5  0  0  0  0  0  0  0  0  0  0
    0.5553    0.7115    0.0042 N   0  0  0  0  0  0  0  0  0  0  0  0
    3.9291   -0.8865   -0.0018 N   0  3  0  0  0  0  0  0  0  0  0  0
    4.9998   -1.0174   -0.0037 N   0  0  0  0  0  0  0  0  0  0  0  0
   -0.4839   -0.2879    0.0073 C   0  0  0  0  0  0  0  0  0  0  0  0
   -4.1505   -0.0993   -0.0037 C   0  0  0  0  0  0  0  0  0  0  0  0
   -1.8332    0.3818    0.0015 C   0  0  0  0  0  0  0  0  0  0  0  0
   -5.0966   -1.2810   -0.0028 C   0  0  0  0  0  0  0  0  0  0  0  0
    1.9313    0.5256    0.0011 C   0  0  0  0  0  0  0  0  0  0  0  0
    2.4789   -0.7089    0.0017 C   0  0  0  0  0  0  0  0  0  0  0  0
   -0.4066   -0.9141   -0.8877 H   0  0  0  0  0  0  0  0  0  0  0  0
   -0.4094   -0.9054    0.9085 H   0  0  0  0  0  0  0  0  0  0  0  0
   -4.3226    0.5135    0.8882 H   0  0  0  0  0  0  0  0  0  0  0  0
   -4.3175    0.5080   -0.9002 H   0  0  0  0  0  0  0  0  0  0  0  0
    0.2699    1.6871    0.0040 H   0  0  0  0  0  0  0  0  0  0  0  0
   -6.1382   -0.9480   -0.0068 H   0  0  0  0  0  0  0  0  0  0  0  0
   -4.9241   -1.9134   -0.8799 H   0  0  0  0  0  0  0  0  0  0  0  0
   -4.9292   -1.9081    0.8791 H   0  0  0  0  0  0  0  0  0  0  0  0
    1.8720   -1.6079    0.0052 H   0  0  0  0  0  0  0  0  0  0  0  0
  1  8  1  0  0  0  0
  1  9  1  0  0  0  0
  2  9  2  0  0  0  0
  3 11  1  0  0  0  0
  4  7  1  0  0  0  0
  4 11  1  0  0  0  0
  4 17  1  0  0  0  0
  5  6  3  0  0  0  0
  5 12  1  0  0  0  0
  7  9  1  0  0  0  0
  7 13  1  0  0  0  0
  7 14  1  0  0  0  0
  8 10  1  0  0  0  0
  8 15  1  0  0  0  0
  8 16  1  0  0  0  0
 10 18  1  0  0  0  0
 10 19  1  0  0  0  0
 10 20  1  0  0  0  0
 11 12  2  0  0  0  0
 12 21  1  0  0  0  0
M  CHG  2   3  -1   5   1
M  END
> <PUBCHEM_COMPOUND_CID>
13832

> <PUBCHEM_CONFORMER_RMSD>
0.6

> <PUBCHEM_CONFORMER_DIVERSEORDER>
1
116
54
22
100
24
9
67
68
73
40
17
115
110
75
50
60
30
18
87
26
15
86
90
120
35
69
41
88
61
89
14
4
95
55
46
96
80
53
102
3
118
112
109
13
114
93
107
44
65
83
79
36
66
81
49
103
10
56
20
43
23
5
101
84
72
117
74
71
106
42
27
29
6
2
85
33
58
111
94
21
105
48
16
34
77
76
32
82
63
7
51
12
99
8
119
31
104
121
52
28
45
57
78
108
98
70
19
47
113
39
62
59
11
92
91
37
38
97
25
64

> <PUBCHEM_MMFF94_PARTIAL_CHARGES>
13
1 -0.43
11 -0.05
12 -0.02
17 0.4
2 -0.57
21 0.15
3 -0.85
4 -0.87
5 1.36
6 -0.49
7 0.43
8 0.28
9 0.66

> <PUBCHEM_EFFECTIVE_ROTOR_COUNT>
5

> <PUBCHEM_PHARMACOPHORE_FEATURES>
3
1 2 acceptor
1 4 cation
1 4 donor

> <PUBCHEM_HEAVY_ATOM_COUNT>
12

> <PUBCHEM_ATOM_DEF_STEREO_COUNT>
0

> <PUBCHEM_ATOM_UDEF_STEREO_COUNT>
0

> <PUBCHEM_BOND_DEF_STEREO_COUNT>
0

> <PUBCHEM_BOND_UDEF_STEREO_COUNT>
1

> <PUBCHEM_ISOTOPIC_ATOM_COUNT>
0

> <PUBCHEM_COMPONENT_COUNT>
1

> <PUBCHEM_CACTVS_TAUTO_COUNT>
1

> <PUBCHEM_CONFORMER_ID>
0000360800000001

> <PUBCHEM_MMFF94_ENERGY>
14.1424

> <PUBCHEM_FEATURE_SELFOVERLAP>
15.223

> <PUBCHEM_SHAPE_FINGERPRINT>
100836 57 8070023393835546410
11062470 55 9799692597405023155
12032990 46 18341611482629526563
13690532 89 18411982476900808570
14123238 8 18186521007834084582
14252887 29 17676763262528145734
14325111 11 18410856547129641921
14455015 7 18201148885045335547
14993402 34 15554446288604414567
15477762 27 18410854382687605934
177051 138 18410856551229203051
17834072 33 18412823560641601780
17834072 8 18202292424635635333
17834076 25 9727632804159379267
18186145 218 17561372751324267333
1986462 14 18342457092401121613
200 152 18333734619734951123
20645477 70 18411418401586990486
20871998 22 18115017649529979614
23402539 116 18334582360580269909
42 15 18333731329404951947

> <PUBCHEM_SHAPE_MULTIPOLES>
214.4
10.2
1.37
0.57
1.36
0.31
0
-4.98
0.02
-0.22
0
0.06
-0.01
0

> <PUBCHEM_SHAPE_SELFOVERLAP>
408.489

> <PUBCHEM_SHAPE_VOLUME>
130.5

> <PUBCHEM_COORDINATE_TYPE>
2
5
10

$$$$

