9168
  -OEChem-06261203282D

 42 47  0     0  0  0  0  0  0999 V2000
    6.6552   -0.1877    0.0000 C   0  0  0  0  0  0  0  0  0  0  0  0
    5.7892    0.3123    0.0000 C   0  0  0  0  0  0  0  0  0  0  0  0
    4.8792   -0.1946    0.0000 C   0  0  0  0  0  0  0  0  0  0  0  0
    7.5212    0.3123    0.0000 C   0  0  0  0  0  0  0  0  0  0  0  0
    4.8711   -1.2362    0.0000 C   0  0  0  0  0  0  0  0  0  0  0  0
    7.5212    1.3123    0.0000 C   0  0  0  0  0  0  0  0  0  0  0  0
    8.4151    1.8469    0.0000 C   0  0  0  0  0  0  0  0  0  0  0  0
    3.9357   -1.7859    0.0000 C   0  0  0  0  0  0  0  0  0  0  0  0
    5.7892    1.3123    0.0000 C   0  0  0  0  0  0  0  0  0  0  0  0
    6.6712   -1.2292    0.0000 C   0  0  0  0  0  0  0  0  0  0  0  0
    6.6552    1.8123    0.0000 C   0  0  0  0  0  0  0  0  0  0  0  0
    5.7732   -1.7570    0.0000 C   0  0  0  0  0  0  0  0  0  0  0  0
    8.4151   -0.2224    0.0000 C   0  0  0  0  0  0  0  0  0  0  0  0
    3.9523    0.3695    0.0000 C   0  0  0  0  0  0  0  0  0  0  0  0
    9.3212    1.3331    0.0000 C   0  0  0  0  0  0  0  0  0  0  0  0
    2.9961   -1.2434    0.0000 C   0  0  0  0  0  0  0  0  0  0  0  0
    9.3212    0.2914    0.0000 C   0  0  0  0  0  0  0  0  0  0  0  0
    3.0044   -0.1584    0.0000 C   0  0  0  0  0  0  0  0  0  0  0  0
    8.3900    2.9316    0.0000 C   0  0  0  0  0  0  0  0  0  0  0  0
    3.9531   -2.9159    0.0000 C   0  0  0  0  0  0  0  0  0  0  0  0
    2.0087   -1.7933    0.0000 C   0  0  0  0  0  0  0  0  0  0  0  0
   10.2650    1.8683    0.0000 C   0  0  0  0  0  0  0  0  0  0  0  0
    2.9787   -3.4886    0.0000 C   0  0  0  0  0  0  0  0  0  0  0  0
    9.3212    3.4886    0.0000 C   0  0  0  0  0  0  0  0  0  0  0  0
    2.0000   -2.9235    0.0000 C   0  0  0  0  0  0  0  0  0  0  0  0
   10.2650    2.9533    0.0000 C   0  0  0  0  0  0  0  0  0  0  0  0
    7.2117   -1.5330    0.0000 H   0  0  0  0  0  0  0  0  0  0  0  0
    5.2522    1.6223    0.0000 H   0  0  0  0  0  0  0  0  0  0  0  0
    6.6552    2.4323    0.0000 H   0  0  0  0  0  0  0  0  0  0  0  0
    5.7756   -2.3770    0.0000 H   0  0  0  0  0  0  0  0  0  0  0  0
    8.4080   -0.8424    0.0000 H   0  0  0  0  0  0  0  0  0  0  0  0
    3.9643    0.9894    0.0000 H   0  0  0  0  0  0  0  0  0  0  0  0
    9.8569   -0.0206    0.0000 H   0  0  0  0  0  0  0  0  0  0  0  0
    2.4711    0.1577    0.0000 H   0  0  0  0  0  0  0  0  0  0  0  0
    7.8472    3.2312    0.0000 H   0  0  0  0  0  0  0  0  0  0  0  0
    4.4936   -3.2197    0.0000 H   0  0  0  0  0  0  0  0  0  0  0  0
   10.8007    1.5562    0.0000 H   0  0  0  0  0  0  0  0  0  0  0  0
    1.4754   -1.4772    0.0000 H   0  0  0  0  0  0  0  0  0  0  0  0
    9.3140    4.1085    0.0000 H   0  0  0  0  0  0  0  0  0  0  0  0
    2.9811   -4.1085    0.0000 H   0  0  0  0  0  0  0  0  0  0  0  0
    1.4619   -3.2314    0.0000 H   0  0  0  0  0  0  0  0  0  0  0  0
   10.8007    3.2654    0.0000 H   0  0  0  0  0  0  0  0  0  0  0  0
  1  2  2  0  0  0  0
  1  4  1  0  0  0  0
  1 10  1  0  0  0  0
  2  3  1  0  0  0  0
  2  9  1  0  0  0  0
  3  5  2  0  0  0  0
  3 14  1  0  0  0  0
  4  6  2  0  0  0  0
  4 13  1  0  0  0  0
  5  8  1  0  0  0  0
  5 12  1  0  0  0  0
  6  7  1  0  0  0  0
  6 11  1  0  0  0  0
  7 15  1  0  0  0  0
  7 19  2  0  0  0  0
  8 16  1  0  0  0  0
  8 20  2  0  0  0  0
  9 11  2  0  0  0  0
  9 28  1  0  0  0  0
 10 12  2  0  0  0  0
 10 27  1  0  0  0  0
 11 29  1  0  0  0  0
 12 30  1  0  0  0  0
 13 17  2  0  0  0  0
 13 31  1  0  0  0  0
 14 18  2  0  0  0  0
 14 32  1  0  0  0  0
 15 17  1  0  0  0  0
 15 22  2  0  0  0  0
 16 18  1  0  0  0  0
 16 21  2  0  0  0  0
 17 33  1  0  0  0  0
 18 34  1  0  0  0  0
 19 24  1  0  0  0  0
 19 35  1  0  0  0  0
 20 23  1  0  0  0  0
 20 36  1  0  0  0  0
 21 25  1  0  0  0  0
 21 38  1  0  0  0  0
 22 26  1  0  0  0  0
 22 37  1  0  0  0  0
 23 25  2  0  0  0  0
 23 40  1  0  0  0  0
 24 26  2  0  0  0  0
 24 39  1  0  0  0  0
 25 41  1  0  0  0  0
 26 42  1  0  0  0  0
M  END
> <PUBCHEM_COMPOUND_CID>
9168

> <PUBCHEM_COMPOUND_CANONICALIZED>
1

> <PUBCHEM_CACTVS_COMPLEXITY>
462

> <PUBCHEM_CACTVS_HBOND_ACCEPTOR>
0

> <PUBCHEM_CACTVS_HBOND_DONOR>
0

> <PUBCHEM_CACTVS_ROTATABLE_BOND>
0

> <PUBCHEM_CACTVS_SUBSKEYS>
AAADceB4AAAAAAAAAAAAAAAAAAAAAAAAAAAwYMGDAAAAAADBVAAAGAAAAAAADACAGAAwAMAAAACAAiBCAAACAAAgAAAIiAAAAIgIICKAERCAIAAggAAIiAcAgMAOwAACAAAQAACAAAQAACAAAAAAAAAAAA==

> <PUBCHEM_IUPAC_INCHI>
InChI=1S/C26H16/c1-3-7-19-17(5-1)9-11-23-21(19)13-15-26-24-12-10-18-6-2-4-8-20(18)22(24)14-16-25(23)26/h1-16H

> <PUBCHEM_IUPAC_INCHIKEY>
BBZGENAFADIERZ-UHFFFAOYSA-N

> <PUBCHEM_XLOGP3>
8.2

> <PUBCHEM_EXACT_MASS>
328.125201

> <PUBCHEM_MOLECULAR_FORMULA>
C26H16

> <PUBCHEM_MOLECULAR_WEIGHT>
328.40524

> <PUBCHEM_OPENEYE_CAN_SMILES>
C1=CC=C2C(=C1)C=CC3=C2C=CC4=C3C=CC5=C4C=CC6=CC=CC=C65

> <PUBCHEM_OPENEYE_ISO_SMILES>
C1=CC=C2C(=C1)C=CC3=C2C=CC4=C3C=CC5=C4C=CC6=CC=CC=C65

> <PUBCHEM_CACTVS_TPSA>
0

> <PUBCHEM_MONOISOTOPIC_WEIGHT>
328.125201

> <PUBCHEM_TOTAL_CHARGE>
0

> <PUBCHEM_HEAVY_ATOM_COUNT>
26

> <PUBCHEM_ATOM_DEF_STEREO_COUNT>
0

> <PUBCHEM_ATOM_UDEF_STEREO_COUNT>
0

> <PUBCHEM_BOND_DEF_STEREO_COUNT>
0

> <PUBCHEM_BOND_UDEF_STEREO_COUNT>
0

> <PUBCHEM_ISOTOPIC_ATOM_COUNT>
0

> <PUBCHEM_COMPONENT_COUNT>
1

> <PUBCHEM_CACTVS_TAUTO_COUNT>
1

> <PUBCHEM_COORDINATE_TYPE>
1
5
255

> <PUBCHEM_BONDANNOTATIONS>
1  10  8
1  2  8
1  4  8
10  12  8
13  17  8
14  18  8
15  17  8
15  22  8
16  18  8
16  21  8
19  24  8
2  3  8
2  9  8
20  23  8
21  25  8
22  26  8
23  25  8
24  26  8
3  14  8
3  5  8
4  13  8
4  6  8
5  12  8
5  8  8
6  11  8
6  7  8
7  15  8
7  19  8
8  16  8
8  20  8
9  11  8

$$$$

