586336
  -OEChem-06241222463D

 57 60  0     1  0  0  0  0  0999 V2000
    3.2468    0.7805    1.2605 O   0  0  0  0  0  0  0  0  0  0  0  0
    1.6472   -1.4891   -1.0629 O   0  0  0  0  0  0  0  0  0  0  0  0
   -3.7456   -0.1902   -1.7995 O   0  0  0  0  0  0  0  0  0  0  0  0
   -0.3205   -0.3833    0.4318 C   0  0  2  0  0  0  0  0  0  0  0  0
    0.9527   -0.1015    1.3294 C   0  0  0  0  0  0  0  0  0  0  0  0
    2.1506    0.3957    0.4136 C   0  0  2  0  0  0  0  0  0  0  0  0
   -0.5914    0.6702   -0.7167 C   0  0  1  0  0  0  0  0  0  0  0  0
    2.6789   -0.6809   -0.5277 C   0  0  0  0  0  0  0  0  0  0  0  0
   -1.6738   -0.6614    1.1852 C   0  0  2  0  0  0  0  0  0  0  0  0
   -2.0755    1.1820   -0.6393 C   0  0  1  0  0  0  0  0  0  0  0  0
   -2.7549   -1.2030    0.1769 C   0  0  0  0  0  0  0  0  0  0  0  0
    3.8485   -0.3522   -1.3729 C   0  0  0  0  0  0  0  0  0  0  0  0
    3.9880   -1.2967   -0.2152 C   0  0  0  0  0  0  0  0  0  0  0  0
    1.7131    1.6329   -0.3677 C   0  0  0  0  0  0  0  0  0  0  0  0
    0.4616    1.7402   -0.8467 C   0  0  0  0  0  0  0  0  0  0  0  0
   -2.9546   -0.0791   -0.8647 C   0  0  0  0  0  0  0  0  0  0  0  0
    0.7018    0.9495    2.4472 C   0  0  0  0  0  0  0  0  0  0  0  0
    1.3235   -1.4097    2.0814 C   0  0  0  0  0  0  0  0  0  0  0  0
   -2.2025    0.6601    1.7123 C   0  0  0  0  0  0  0  0  0  0  0  0
   -2.4063    1.5988    0.7767 C   0  0  0  0  0  0  0  0  0  0  0  0
   -2.4404    2.2683   -1.6517 C   0  0  0  0  0  0  0  0  0  0  0  0
   -4.0954   -1.4796    0.8844 C   0  0  0  0  0  0  0  0  0  0  0  0
   -2.3135   -2.4878   -0.5398 C   0  0  0  0  0  0  0  0  0  0  0  0
    2.7320    2.7063   -0.6404 C   0  0  0  0  0  0  0  0  0  0  0  0
    2.1297   -2.7696   -1.4544 C   0  0  0  0  0  0  0  0  0  0  0  0
   -0.1405   -1.3417   -0.0470 H   0  0  0  0  0  0  0  0  0  0  0  0
   -0.5235    0.1124   -1.6649 H   0  0  0  0  0  0  0  0  0  0  0  0
   -1.5380   -1.3726    2.0056 H   0  0  0  0  0  0  0  0  0  0  0  0
    4.4143    0.5627   -1.2657 H   0  0  0  0  0  0  0  0  0  0  0  0
    3.9025   -0.7524   -2.3781 H   0  0  0  0  0  0  0  0  0  0  0  0
    4.2748   -2.3106   -0.4674 H   0  0  0  0  0  0  0  0  0  0  0  0
    4.6100   -0.9632    0.6089 H   0  0  0  0  0  0  0  0  0  0  0  0
    0.2170    2.6115   -1.4473 H   0  0  0  0  0  0  0  0  0  0  0  0
    0.3461    1.9048    2.0509 H   0  0  0  0  0  0  0  0  0  0  0  0
   -0.0242    0.5898    3.1832 H   0  0  0  0  0  0  0  0  0  0  0  0
    1.6123    1.1586    3.0200 H   0  0  0  0  0  0  0  0  0  0  0  0
    2.2187   -1.2968    2.7000 H   0  0  0  0  0  0  0  0  0  0  0  0
    0.5214   -1.7161    2.7616 H   0  0  0  0  0  0  0  0  0  0  0  0
    1.4951   -2.2489    1.4030 H   0  0  0  0  0  0  0  0  0  0  0  0
   -2.4147    0.8182    2.7614 H   0  0  0  0  0  0  0  0  0  0  0  0
   -2.7873    2.5824    1.0211 H   0  0  0  0  0  0  0  0  0  0  0  0
   -3.5213    2.4541   -1.6651 H   0  0  0  0  0  0  0  0  0  0  0  0
   -1.9573    3.2237   -1.4208 H   0  0  0  0  0  0  0  0  0  0  0  0
   -2.1507    1.9732   -2.6664 H   0  0  0  0  0  0  0  0  0  0  0  0
    3.3853    0.1094    1.9461 H   0  0  0  0  0  0  0  0  0  0  0  0
   -4.8335   -1.8905    0.1854 H   0  0  0  0  0  0  0  0  0  0  0  0
   -3.9658   -2.2020    1.6977 H   0  0  0  0  0  0  0  0  0  0  0  0
   -4.5435   -0.5720    1.3023 H   0  0  0  0  0  0  0  0  0  0  0  0
   -1.5449   -2.3027   -1.2973 H   0  0  0  0  0  0  0  0  0  0  0  0
   -1.9317   -3.2257    0.1738 H   0  0  0  0  0  0  0  0  0  0  0  0
   -3.1521   -2.9476   -1.0764 H   0  0  0  0  0  0  0  0  0  0  0  0
    2.2575    3.6073   -1.0476 H   0  0  0  0  0  0  0  0  0  0  0  0
    3.4755    2.3931   -1.3733 H   0  0  0  0  0  0  0  0  0  0  0  0
    3.2385    3.0202    0.2772 H   0  0  0  0  0  0  0  0  0  0  0  0
    2.4319   -3.3688   -0.5897 H   0  0  0  0  0  0  0  0  0  0  0  0
    2.9026   -2.7229   -2.2265 H   0  0  0  0  0  0  0  0  0  0  0  0
    1.2821   -3.2971   -1.9057 H   0  0  0  0  0  0  0  0  0  0  0  0
  1  6  1  0  0  0  0
  1 45  1  0  0  0  0
  2  8  1  0  0  0  0
  2 25  1  0  0  0  0
  3 16  2  0  0  0  0
  4  5  1  0  0  0  0
  4  7  1  0  0  0  0
  4  9  1  0  0  0  0
  4 26  1  0  0  0  0
  5  6  1  0  0  0  0
  5 17  1  0  0  0  0
  5 18  1  0  0  0  0
  6  8  1  0  0  0  0
  6 14  1  0  0  0  0
  7 10  1  0  0  0  0
  7 15  1  0  0  0  0
  7 27  1  0  0  0  0
  8 12  1  0  0  0  0
  8 13  1  0  0  0  0
  9 11  1  0  0  0  0
  9 19  1  0  0  0  0
  9 28  1  0  0  0  0
 10 16  1  0  0  0  0
 10 20  1  0  0  0  0
 10 21  1  0  0  0  0
 11 16  1  0  0  0  0
 11 22  1  0  0  0  0
 11 23  1  0  0  0  0
 12 13  1  0  0  0  0
 12 29  1  0  0  0  0
 12 30  1  0  0  0  0
 13 31  1  0  0  0  0
 13 32  1  0  0  0  0
 14 15  2  0  0  0  0
 14 24  1  0  0  0  0
 15 33  1  0  0  0  0
 17 34  1  0  0  0  0
 17 35  1  0  0  0  0
 17 36  1  0  0  0  0
 18 37  1  0  0  0  0
 18 38  1  0  0  0  0
 18 39  1  0  0  0  0
 19 20  2  0  0  0  0
 19 40  1  0  0  0  0
 20 41  1  0  0  0  0
 21 42  1  0  0  0  0
 21 43  1  0  0  0  0
 21 44  1  0  0  0  0
 22 46  1  0  0  0  0
 22 47  1  0  0  0  0
 22 48  1  0  0  0  0
 23 49  1  0  0  0  0
 23 50  1  0  0  0  0
 23 51  1  0  0  0  0
 24 52  1  0  0  0  0
 24 53  1  0  0  0  0
 24 54  1  0  0  0  0
 25 55  1  0  0  0  0
 25 56  1  0  0  0  0
 25 57  1  0  0  0  0
M  END
> <PUBCHEM_COMPOUND_CID>
586336

> <PUBCHEM_CONFORMER_RMSD>
0.6

> <PUBCHEM_CONFORMER_DIVERSEORDER>
2
26
17
24
14
23
5
16
18
19
21
3
27
6
9
4
15
1
7
28
10
12
13
11
25
20
8
22

> <PUBCHEM_MMFF94_PARTIAL_CHARGES>
26
1 -0.68
10 0.2
11 0.06
12 -0.2
13 -0.2
14 -0.28
15 -0.29
16 0.45
19 -0.29
2 -0.43
20 -0.29
24 0.14
25 0.28
29 0.1
3 -0.57
30 0.1
31 0.1
32 0.1
33 0.15
40 0.15
41 0.15
45 0.4
6 0.51
7 0.14
8 0.05
9 0.14

> <PUBCHEM_EFFECTIVE_ROTOR_COUNT>
3.2

> <PUBCHEM_PHARMACOPHORE_FEATURES>
8
1 1 acceptor
1 1 donor
1 2 acceptor
1 3 acceptor
3 11 22 23 hydrophobe
3 5 17 18 hydrophobe
6 4 5 6 7 14 15 rings
8 4 7 9 10 11 16 19 20 rings

> <PUBCHEM_HEAVY_ATOM_COUNT>
25

> <PUBCHEM_ATOM_DEF_STEREO_COUNT>
0

> <PUBCHEM_ATOM_UDEF_STEREO_COUNT>
5

> <PUBCHEM_BOND_DEF_STEREO_COUNT>
0

> <PUBCHEM_BOND_UDEF_STEREO_COUNT>
0

> <PUBCHEM_ISOTOPIC_ATOM_COUNT>
0

> <PUBCHEM_COMPONENT_COUNT>
1

> <PUBCHEM_CACTVS_TAUTO_COUNT>
1

> <PUBCHEM_CONFORMER_ID>
0008F26000000002

> <PUBCHEM_MMFF94_ENERGY>
120.6978

> <PUBCHEM_FEATURE_SELFOVERLAP>
40.603

> <PUBCHEM_SHAPE_FINGERPRINT>
10498660 4 17560805415818970533
10863032 1 18262510407934213592
11370993 70 18113344115122419686
11578080 2 17169287003412051032
11640471 11 15913049867009513095
121448 382 16200142149894957096
12403259 327 16805868595037982987
12553582 1 18265883821688512134
12596599 1 18412821378344599633
13140716 1 18060423503596523537
13224815 77 17561080289325464756
14223421 5 18340487751175207957
15420108 30 15102623640252407034
16752209 62 18199487574530801423
16945 1 18335693996652971276
18522851 268 18409730633963156342
19862831 5 17060623308293427390
19868273 293 17845662572048561501
200 152 17821736039418602063
20691752 17 16487252136409241732
23402539 116 17917986226926864710
23493267 7 14333403454398282776
23557571 272 18193856863626043363
23559900 14 18261403238316165924
238 59 18341065054803617087
463206 1 17534081687317948711
5262128 65 18343014476008472468
6287921 2 18263628581437445116
74978 22 18271530883001373269

> <PUBCHEM_SHAPE_MULTIPOLES>
496.88
6.53
2.61
1.96
0.24
0.06
0.67
-1.49
-1.58
0.27
-0.95
-0.06
-0.05
0.68

> <PUBCHEM_SHAPE_SELFOVERLAP>
1076.581

> <PUBCHEM_SHAPE_VOLUME>
271

> <PUBCHEM_COORDINATE_TYPE>
2
5
10

$$$$

