47205557
  -OEChem-06241222593D

 34 36  0     1  0  0  0  0  0999 V2000
    1.2286   -1.2104    1.0151 S   0  0  0  0  0  0  0  0  0  0  0  0
   -1.4951    2.3411   -0.3387 O   0  0  0  0  0  0  0  0  0  0  0  0
   -3.7501   -0.2568    0.1127 N   0  0  0  0  0  0  0  0  0  0  0  0
   -0.8869    0.2841    0.6399 N   0  0  0  0  0  0  0  0  0  0  0  0
    1.2287    1.0640   -0.2013 N   0  0  0  0  0  0  0  0  0  0  0  0
   -4.3861   -1.7259   -1.4264 N   0  0  0  0  0  0  0  0  0  0  0  0
   -3.2293    1.0344    0.7180 C   0  0  1  0  0  0  0  0  0  0  0  0
   -1.7905    1.3160    0.2690 C   0  0  0  0  0  0  0  0  0  0  0  0
   -4.1605    2.2039    0.3880 C   0  0  0  0  0  0  0  0  0  0  0  0
    2.7358   -0.6360    0.4057 C   0  0  0  0  0  0  0  0  0  0  0  0
    2.5364    0.6006   -0.2155 C   0  0  0  0  0  0  0  0  0  0  0  0
    0.4616    0.1965    0.4165 C   0  0  0  0  0  0  0  0  0  0  0  0
   -4.1398   -1.3725    0.7987 C   0  0  0  0  0  0  0  0  0  0  0  0
   -3.9157   -0.5160   -1.2195 C   0  0  0  0  0  0  0  0  0  0  0  0
    5.0851   -0.5653   -0.1027 C   0  0  0  0  0  0  0  0  0  0  0  0
    4.0033   -1.2365    0.4727 C   0  0  0  0  0  0  0  0  0  0  0  0
    3.6466    1.2574   -0.7890 C   0  0  0  0  0  0  0  0  0  0  0  0
    4.9114    0.6656   -0.7258 C   0  0  0  0  0  0  0  0  0  0  0  0
   -4.5280   -2.2652   -0.1724 C   0  0  0  0  0  0  0  0  0  0  0  0
    6.4446   -1.1790   -0.0451 C   0  0  0  0  0  0  0  0  0  0  0  0
   -3.2254    0.8629    1.8017 H   0  0  0  0  0  0  0  0  0  0  0  0
   -4.1892    2.4090   -0.6879 H   0  0  0  0  0  0  0  0  0  0  0  0
   -5.1840    1.9895    0.7139 H   0  0  0  0  0  0  0  0  0  0  0  0
   -3.8273    3.1177    0.8916 H   0  0  0  0  0  0  0  0  0  0  0  0
   -1.2727   -0.5065    1.1501 H   0  0  0  0  0  0  0  0  0  0  0  0
   -4.1085   -1.4348    1.8774 H   0  0  0  0  0  0  0  0  0  0  0  0
   -3.6775    0.2064   -1.9880 H   0  0  0  0  0  0  0  0  0  0  0  0
    4.1354   -2.1971    0.9624 H   0  0  0  0  0  0  0  0  0  0  0  0
    3.5221    2.2196   -1.2779 H   0  0  0  0  0  0  0  0  0  0  0  0
    5.7572    1.1846   -1.1701 H   0  0  0  0  0  0  0  0  0  0  0  0
   -4.9022   -3.2688   -0.0323 H   0  0  0  0  0  0  0  0  0  0  0  0
    6.9681   -0.8475    0.8572 H   0  0  0  0  0  0  0  0  0  0  0  0
    6.3851   -2.2727   -0.0343 H   0  0  0  0  0  0  0  0  0  0  0  0
    7.0416   -0.9002   -0.9201 H   0  0  0  0  0  0  0  0  0  0  0  0
  1 10  1  0  0  0  0
  1 12  1  0  0  0  0
  2  8  2  0  0  0  0
  3  7  1  0  0  0  0
  3 13  1  0  0  0  0
  3 14  1  0  0  0  0
  4  8  1  0  0  0  0
  4 12  1  0  0  0  0
  4 25  1  0  0  0  0
  5 11  1  0  0  0  0
  5 12  2  0  0  0  0
  6 14  2  0  0  0  0
  6 19  1  0  0  0  0
  7  8  1  0  0  0  0
  7  9  1  0  0  0  0
  7 21  1  0  0  0  0
  9 22  1  0  0  0  0
  9 23  1  0  0  0  0
  9 24  1  0  0  0  0
 10 11  2  0  0  0  0
 10 16  1  0  0  0  0
 11 17  1  0  0  0  0
 13 19  2  0  0  0  0
 13 26  1  0  0  0  0
 14 27  1  0  0  0  0
 15 16  2  0  0  0  0
 15 18  1  0  0  0  0
 15 20  1  0  0  0  0
 16 28  1  0  0  0  0
 17 18  2  0  0  0  0
 17 29  1  0  0  0  0
 18 30  1  0  0  0  0
 19 31  1  0  0  0  0
 20 32  1  0  0  0  0
 20 33  1  0  0  0  0
 20 34  1  0  0  0  0
M  END
> <PUBCHEM_COMPOUND_CID>
47205557

> <PUBCHEM_CONFORMER_RMSD>
0.6

> <PUBCHEM_CONFORMER_DIVERSEORDER>
1
36
16
28
21
31
44
5
30
46
29
15
23
45
40
34
4
22
37
3
13
48
35
6
17
14
26
33
18
39
27
10
41
19
47
2
43
8
32
9
25
20
42
7
38
12
24
11

> <PUBCHEM_MMFF94_PARTIAL_CHARGES>
26
1 -0.08
10 0.04
11 0.23
12 0.44
13 -0.3
14 0.04
15 -0.14
16 -0.15
17 -0.15
18 -0.15
19 0.08
2 -0.57
20 0.14
25 0.37
26 0.15
27 0.15
28 0.15
29 0.15
3 0.05
30 0.15
31 0.15
4 -0.49
5 -0.57
6 -0.57
7 0.32
8 0.57

> <PUBCHEM_EFFECTIVE_ROTOR_COUNT>
4

> <PUBCHEM_PHARMACOPHORE_FEATURES>
6
1 2 acceptor
1 4 donor
3 3 6 14 cation
5 1 5 10 11 12 rings
5 3 6 13 14 19 rings
6 10 11 15 16 17 18 rings

> <PUBCHEM_HEAVY_ATOM_COUNT>
20

> <PUBCHEM_ATOM_DEF_STEREO_COUNT>
0

> <PUBCHEM_ATOM_UDEF_STEREO_COUNT>
1

> <PUBCHEM_BOND_DEF_STEREO_COUNT>
0

> <PUBCHEM_BOND_UDEF_STEREO_COUNT>
0

> <PUBCHEM_ISOTOPIC_ATOM_COUNT>
0

> <PUBCHEM_COMPONENT_COUNT>
1

> <PUBCHEM_CACTVS_TAUTO_COUNT>
3

> <PUBCHEM_CONFORMER_ID>
02D04CB500000001

> <PUBCHEM_MMFF94_ENERGY>
36.1522

> <PUBCHEM_FEATURE_SELFOVERLAP>
30.517

> <PUBCHEM_SHAPE_FINGERPRINT>
10291535 26 14117520978088146863
10616163 171 18408603695149403827
11045515 52 17988646276834671053
11046707 91 18187366515190875289
11545043 162 17603308167329991042
11796584 16 17895754127224484478
12236239 1 18409448103199885764
12616971 3 18201427099635485528
13167823 11 18410009940218824158
13288520 33 18335137596561404793
13583140 156 17023193767899549512
13675066 3 5328751776540770914
13862211 1 18130790096965769570
14573314 32 13326858855050263082
14576447 43 18341898476370473130
15188451 53 15502949515362671127
15196674 1 18341889697462607840
15250474 111 18341905137643768690
15788980 27 18335136505455108282
17349148 13 17917710206099586664
17357779 13 16415483752699877380
17834072 33 18412259537025535908
17844677 252 17385443215478339360
17857418 61 18412831300135921122
18927931 339 18411128152197640471
200 152 18343019982214366697
21033648 29 14189571897388473260
21054139 6 18342179955879924250
21267235 1 18341885282246744763
21709351 56 18130787888656227788
22393880 68 18059587900565439309
22646028 1 18410855464686970688
23402539 116 18343581867195369972
23402655 69 18200876295744082193
23559900 14 18261968340676502593
25122255 55 17677038162015558158
329604 57 18341890732354657691
351380 3 18334576794208189271
4214541 1 18410853291217449017
5104073 3 18335420170939325104
602551 16 17095528348879300478
633830 44 17489579108237553873
7062679 117 18410854360880505538
7495541 125 17748830696467816432
7970288 3 18117565029004473671
90127 26 15213020487538837680
9709674 26 18342164605365952722

> <PUBCHEM_SHAPE_MULTIPOLES>
389.65
13.75
2.18
1.01
7.05
0.22
-0.15
-4.67
-2.22
-2.54
-0.06
-0.63
-0.21
-1.37

> <PUBCHEM_SHAPE_SELFOVERLAP>
828.421

> <PUBCHEM_SHAPE_VOLUME>
220.4

> <PUBCHEM_COORDINATE_TYPE>
2
5
10

$$$$

