11883
  -OEChem-06261206143D

 19 19  0     0  0  0  0  0  0999 V2000
    1.3941   -2.0478   -1.0970 O   0  5  0  0  0  0  0  0  0  0  0  0
    1.3891   -2.0492    1.0982 O   0  0  0  0  0  0  0  0  0  0  0  0
    2.2578    1.3447    1.0983 O   0  5  0  0  0  0  0  0  0  0  0  0
    2.2582    1.3473   -1.0969 O   0  0  0  0  0  0  0  0  0  0  0  0
    0.9691   -1.6167   -0.0001 N   0  3  0  0  0  0  0  0  0  0  0  0
    1.6803    1.1694    0.0004 N   0  3  0  0  0  0  0  0  0  0  0  0
   -2.3672   -0.0008   -0.0008 C   0  0  0  0  0  0  0  0  0  0  0  0
   -0.0264   -0.5986   -0.0018 C   0  0  0  0  0  0  0  0  0  0  0  0
    0.3187    0.7529   -0.0003 C   0  0  0  0  0  0  0  0  0  0  0  0
   -1.3693   -0.9755   -0.0019 C   0  0  0  0  0  0  0  0  0  0  0  0
   -2.0222    1.3507    0.0004 C   0  0  0  0  0  0  0  0  0  0  0  0
   -0.6792    1.7275    0.0008 C   0  0  0  0  0  0  0  0  0  0  0  0
   -3.8032   -0.4038    0.0007 C   0  0  0  0  0  0  0  0  0  0  0  0
   -1.6421   -2.0288   -0.0041 H   0  0  0  0  0  0  0  0  0  0  0  0
   -2.7902    2.1196   -0.0004 H   0  0  0  0  0  0  0  0  0  0  0  0
   -0.4260    2.7850    0.0015 H   0  0  0  0  0  0  0  0  0  0  0  0
   -4.1511   -0.5574   -1.0256 H   0  0  0  0  0  0  0  0  0  0  0  0
   -3.9509   -1.3306    0.5654 H   0  0  0  0  0  0  0  0  0  0  0  0
   -4.4300    0.3612    0.4715 H   0  0  0  0  0  0  0  0  0  0  0  0
  1  5  1  0  0  0  0
  2  5  2  0  0  0  0
  3  6  1  0  0  0  0
  4  6  2  0  0  0  0
  5  8  1  0  0  0  0
  6  9  1  0  0  0  0
  7 10  2  0  0  0  0
  7 11  1  0  0  0  0
  7 13  1  0  0  0  0
  8  9  2  0  0  0  0
  8 10  1  0  0  0  0
  9 12  1  0  0  0  0
 10 14  1  0  0  0  0
 11 12  2  0  0  0  0
 11 15  1  0  0  0  0
 12 16  1  0  0  0  0
 13 17  1  0  0  0  0
 13 18  1  0  0  0  0
 13 19  1  0  0  0  0
M  CHG  4   1  -1   3  -1   5   1   6   1
M  END
> <PUBCHEM_COMPOUND_CID>
11883

> <PUBCHEM_CONFORMER_RMSD>
0.6

> <PUBCHEM_CONFORMER_DIVERSEORDER>
1

> <PUBCHEM_MMFF94_PARTIAL_CHARGES>
16
1 -0.52
10 -0.15
11 -0.15
12 -0.15
13 0.14
14 0.15
15 0.15
16 0.15
2 -0.52
3 -0.52
4 -0.52
5 0.91
6 0.91
7 -0.14
8 0.13
9 0.13

> <PUBCHEM_EFFECTIVE_ROTOR_COUNT>
2

> <PUBCHEM_PHARMACOPHORE_FEATURES>
7
1 1 acceptor
1 1 anion
1 2 acceptor
1 3 acceptor
1 3 anion
1 4 acceptor
6 7 8 9 10 11 12 rings

> <PUBCHEM_HEAVY_ATOM_COUNT>
13

> <PUBCHEM_ATOM_DEF_STEREO_COUNT>
0

> <PUBCHEM_ATOM_UDEF_STEREO_COUNT>
0

> <PUBCHEM_BOND_DEF_STEREO_COUNT>
0

> <PUBCHEM_BOND_UDEF_STEREO_COUNT>
0

> <PUBCHEM_ISOTOPIC_ATOM_COUNT>
0

> <PUBCHEM_COMPONENT_COUNT>
1

> <PUBCHEM_CACTVS_TAUTO_COUNT>
1

> <PUBCHEM_CONFORMER_ID>
00002E6B00000001

> <PUBCHEM_MMFF94_ENERGY>
44.1639

> <PUBCHEM_FEATURE_SELFOVERLAP>
35.684

> <PUBCHEM_SHAPE_FINGERPRINT>
12423570 1 16960124389281909870
12524768 44 18409164446052962063
13380535 21 18337375141537279945
13380535 220 18051962920549875437
13380535 76 18339929203800551003
14128692 85 18192421098586611663
161256 15 18337667615597869821
16945 1 18338517426659856773
17990270 104 18263644146277606295
193761 8 18266458904756148517
20511035 2 18120387694036856717
20645476 183 17414709870004922332
20645477 70 18409735084530879271
20653091 64 18269834383672298235
21040471 1 18266459789376778820
21501502 16 18338514265595581969
2334 1 17473544651540088841
23552423 10 18271519909549628221
23559900 14 17109882791430385406
241688 4 18054506073939255265
2748010 2 18340490088022318133
528862 383 18412833486094881123
7364860 26 18187366574982885222

> <PUBCHEM_SHAPE_MULTIPOLES>
234.09
3.99
2.19
0.87
2.61
0.5
0
-0.21
0
-1.22
0
-0.54
0.1
0

> <PUBCHEM_SHAPE_SELFOVERLAP>
491.418

> <PUBCHEM_SHAPE_VOLUME>
133.1

> <PUBCHEM_COORDINATE_TYPE>
2
5
10

$$$$

