17395460
  -OEChem-06241222502D

 46 47  0     0  0  0  0  0  0999 V2000
    8.9282    0.8170    0.0000 O   0  0  0  0  0  0  0  0  0  0  0  0
    4.5981   -1.6830    0.0000 O   0  0  0  0  0  0  0  0  0  0  0  0
    5.4641   -0.1830    0.0000 O   0  0  0  0  0  0  0  0  0  0  0  0
    8.0622    2.3170    0.0000 N   0  0  0  0  0  0  0  0  0  0  0  0
    7.1962   -0.1830    0.0000 N   0  0  0  0  0  0  0  0  0  0  0  0
    8.9282    2.8170    0.0000 C   0  0  0  0  0  0  0  0  0  0  0  0
    9.7942    3.3170    0.0000 C   0  0  0  0  0  0  0  0  0  0  0  0
    8.4282    3.6830    0.0000 C   0  0  0  0  0  0  0  0  0  0  0  0
    9.4282    1.9510    0.0000 C   0  0  0  0  0  0  0  0  0  0  0  0
    8.0622    1.3170    0.0000 C   0  0  0  0  0  0  0  0  0  0  0  0
    7.1962    0.8170    0.0000 C   0  0  0  0  0  0  0  0  0  0  0  0
    6.3301   -1.6830    0.0000 C   0  0  0  0  0  0  0  0  0  0  0  0
    6.3301   -0.6830    0.0000 C   0  0  0  0  0  0  0  0  0  0  0  0
    5.4641   -2.1830    0.0000 C   0  0  0  0  0  0  0  0  0  0  0  0
    7.1962   -2.1830    0.0000 C   0  0  0  0  0  0  0  0  0  0  0  0
    5.4641   -3.1830    0.0000 C   0  0  0  0  0  0  0  0  0  0  0  0
    7.1962   -3.1830    0.0000 C   0  0  0  0  0  0  0  0  0  0  0  0
    6.3301   -3.6830    0.0000 C   0  0  0  0  0  0  0  0  0  0  0  0
    3.7320   -2.1830    0.0000 C   0  0  0  0  0  0  0  0  0  0  0  0
    2.8660   -1.6830    0.0000 C   0  0  0  0  0  0  0  0  0  0  0  0
    3.7320   -3.1830    0.0000 C   0  0  0  0  0  0  0  0  0  0  0  0
    2.0000   -2.1830    0.0000 C   0  0  0  0  0  0  0  0  0  0  0  0
    2.8660   -3.6830    0.0000 C   0  0  0  0  0  0  0  0  0  0  0  0
    2.0000   -3.1830    0.0000 C   0  0  0  0  0  0  0  0  0  0  0  0
   10.1042    2.7800    0.0000 H   0  0  0  0  0  0  0  0  0  0  0  0
    8.8913    1.6410    0.0000 H   0  0  0  0  0  0  0  0  0  0  0  0
    9.7382    1.4140    0.0000 H   0  0  0  0  0  0  0  0  0  0  0  0
    9.9651    2.2610    0.0000 H   0  0  0  0  0  0  0  0  0  0  0  0
    8.9651    3.9930    0.0000 H   0  0  0  0  0  0  0  0  0  0  0  0
    8.1182    4.2200    0.0000 H   0  0  0  0  0  0  0  0  0  0  0  0
    7.8913    3.3730    0.0000 H   0  0  0  0  0  0  0  0  0  0  0  0
   10.3312    3.6270    0.0000 H   0  0  0  0  0  0  0  0  0  0  0  0
    9.4842    3.8539    0.0000 H   0  0  0  0  0  0  0  0  0  0  0  0
    7.5252    2.6270    0.0000 H   0  0  0  0  0  0  0  0  0  0  0  0
    6.9841    1.3996    0.0000 H   0  0  0  0  0  0  0  0  0  0  0  0
    6.5856    0.7093    0.0000 H   0  0  0  0  0  0  0  0  0  0  0  0
    7.7331   -0.4930    0.0000 H   0  0  0  0  0  0  0  0  0  0  0  0
    7.7331   -1.8730    0.0000 H   0  0  0  0  0  0  0  0  0  0  0  0
    4.9272   -3.4930    0.0000 H   0  0  0  0  0  0  0  0  0  0  0  0
    7.7331   -3.4930    0.0000 H   0  0  0  0  0  0  0  0  0  0  0  0
    6.3301   -4.3030    0.0000 H   0  0  0  0  0  0  0  0  0  0  0  0
    2.8660   -1.0630    0.0000 H   0  0  0  0  0  0  0  0  0  0  0  0
    4.2690   -3.4930    0.0000 H   0  0  0  0  0  0  0  0  0  0  0  0
    1.4631   -1.8730    0.0000 H   0  0  0  0  0  0  0  0  0  0  0  0
    2.8660   -4.3030    0.0000 H   0  0  0  0  0  0  0  0  0  0  0  0
    1.4631   -3.4930    0.0000 H   0  0  0  0  0  0  0  0  0  0  0  0
  1 10  2  0  0  0  0
  2 14  1  0  0  0  0
  2 19  1  0  0  0  0
  3 13  2  0  0  0  0
  4  6  1  0  0  0  0
  4 10  1  0  0  0  0
  4 34  1  0  0  0  0
  5 11  1  0  0  0  0
  5 13  1  0  0  0  0
  5 37  1  0  0  0  0
  6  7  1  0  0  0  0
  6  8  1  0  0  0  0
  6  9  1  0  0  0  0
  7 25  1  0  0  0  0
  7 32  1  0  0  0  0
  7 33  1  0  0  0  0
  8 29  1  0  0  0  0
  8 30  1  0  0  0  0
  8 31  1  0  0  0  0
  9 26  1  0  0  0  0
  9 27  1  0  0  0  0
  9 28  1  0  0  0  0
 10 11  1  0  0  0  0
 11 35  1  0  0  0  0
 11 36  1  0  0  0  0
 12 13  1  0  0  0  0
 12 14  1  0  0  0  0
 12 15  2  0  0  0  0
 14 16  2  0  0  0  0
 15 17  1  0  0  0  0
 15 38  1  0  0  0  0
 16 18  1  0  0  0  0
 16 39  1  0  0  0  0
 17 18  2  0  0  0  0
 17 40  1  0  0  0  0
 18 41  1  0  0  0  0
 19 20  2  0  0  0  0
 19 21  1  0  0  0  0
 20 22  1  0  0  0  0
 20 42  1  0  0  0  0
 21 23  2  0  0  0  0
 21 43  1  0  0  0  0
 22 24  2  0  0  0  0
 22 44  1  0  0  0  0
 23 24  1  0  0  0  0
 23 45  1  0  0  0  0
 24 46  1  0  0  0  0
M  END
> <PUBCHEM_COMPOUND_CID>
17395460

> <PUBCHEM_COMPOUND_CANONICALIZED>
1

> <PUBCHEM_CACTVS_COMPLEXITY>
425

> <PUBCHEM_CACTVS_HBOND_ACCEPTOR>
3

> <PUBCHEM_CACTVS_HBOND_DONOR>
2

> <PUBCHEM_CACTVS_ROTATABLE_BOND>
6

> <PUBCHEM_CACTVS_SUBSKEYS>
AAADceB7MAAAAAAAAAAAAAAAAAAAAAAAAAAwYAAAAAAAAAABQAAAHgAQAAAADIzBmAQyBoLABACIAiFSEACCCAAkIAAIiIGODMgMZjaEtTuWOWjm9hGIqYeYyCCOAAAAAAAIAAAAAAAAABAAAAAAAAAAAA==

> <PUBCHEM_IUPAC_OPENEYE_NAME>
N-[2-(tert-butylamino)-2-oxo-ethyl]-2-phenoxy-benzamide

> <PUBCHEM_IUPAC_CAS_NAME>
N-[2-(tert-butylamino)-2-oxoethyl]-2-phenoxybenzamide

> <PUBCHEM_IUPAC_NAME>
N-[2-(tert-butylamino)-2-oxoethyl]-2-phenoxybenzamide

> <PUBCHEM_IUPAC_SYSTEMATIC_NAME>
N-[2-(tert-butylamino)-2-oxidanylidene-ethyl]-2-phenoxy-benzamide

> <PUBCHEM_IUPAC_TRADITIONAL_NAME>
N-[2-(tert-butylamino)-2-keto-ethyl]-2-phenoxy-benzamide

> <PUBCHEM_IUPAC_INCHI>
InChI=1S/C19H22N2O3/c1-19(2,3)21-17(22)13-20-18(23)15-11-7-8-12-16(15)24-14-9-5-4-6-10-14/h4-12H,13H2,1-3H3,(H,20,23)(H,21,22)

> <PUBCHEM_IUPAC_INCHIKEY>
BQLNOLNLLKXRRZ-UHFFFAOYSA-N

> <PUBCHEM_XLOGP3_AA>
3.1

> <PUBCHEM_EXACT_MASS>
326.163043

> <PUBCHEM_MOLECULAR_FORMULA>
C19H22N2O3

> <PUBCHEM_MOLECULAR_WEIGHT>
326.38958

> <PUBCHEM_OPENEYE_CAN_SMILES>
CC(C)(C)NC(=O)CNC(=O)C1=CC=CC=C1OC2=CC=CC=C2

> <PUBCHEM_OPENEYE_ISO_SMILES>
CC(C)(C)NC(=O)CNC(=O)C1=CC=CC=C1OC2=CC=CC=C2

> <PUBCHEM_CACTVS_TPSA>
67.4

> <PUBCHEM_MONOISOTOPIC_WEIGHT>
326.163043

> <PUBCHEM_TOTAL_CHARGE>
0

> <PUBCHEM_HEAVY_ATOM_COUNT>
24

> <PUBCHEM_ATOM_DEF_STEREO_COUNT>
0

> <PUBCHEM_ATOM_UDEF_STEREO_COUNT>
0

> <PUBCHEM_BOND_DEF_STEREO_COUNT>
0

> <PUBCHEM_BOND_UDEF_STEREO_COUNT>
0

> <PUBCHEM_ISOTOPIC_ATOM_COUNT>
0

> <PUBCHEM_COMPONENT_COUNT>
1

> <PUBCHEM_CACTVS_TAUTO_COUNT>
4

> <PUBCHEM_COORDINATE_TYPE>
1
5
255

> <PUBCHEM_BONDANNOTATIONS>
12  14  8
12  15  8
14  16  8
15  17  8
16  18  8
17  18  8
19  20  8
19  21  8
20  22  8
21  23  8
22  24  8
23  24  8

$$$$

