12586
  -OEChem-06261207072D

 11 11  0     0  0  0  0  0  0999 V2000
    2.8090   -0.7694    0.0000 O   0  0  0  0  0  0  0  0  0  0  0  0
    2.3090    0.7694    0.0000 O   0  0  0  0  0  0  0  0  0  0  0  0
    3.6180   -0.1816    0.0000 C   0  0  0  0  0  0  0  0  0  0  0  0
    3.3090    0.7694    0.0000 C   0  0  0  0  0  0  0  0  0  0  0  0
    2.0000   -0.1816    0.0000 C   0  0  0  0  0  0  0  0  0  0  0  0
    3.9280   -0.7186    0.0000 H   0  0  0  0  0  0  0  0  0  0  0  0
    4.1844    0.0705    0.0000 H   0  0  0  0  0  0  0  0  0  0  0  0
    3.9155    0.8983    0.0000 H   0  0  0  0  0  0  0  0  0  0  0  0
    3.2442    1.3860    0.0000 H   0  0  0  0  0  0  0  0  0  0  0  0
    1.4336    0.0705    0.0000 H   0  0  0  0  0  0  0  0  0  0  0  0
    1.6900   -0.7186    0.0000 H   0  0  0  0  0  0  0  0  0  0  0  0
  1  3  1  0  0  0  0
  1  5  1  0  0  0  0
  2  4  1  0  0  0  0
  2  5  1  0  0  0  0
  3  4  1  0  0  0  0
  3  6  1  0  0  0  0
  3  7  1  0  0  0  0
  4  8  1  0  0  0  0
  4  9  1  0  0  0  0
  5 10  1  0  0  0  0
  5 11  1  0  0  0  0
M  END
> <PUBCHEM_COMPOUND_CID>
12586

> <PUBCHEM_COMPOUND_CANONICALIZED>
1

> <PUBCHEM_CACTVS_COMPLEXITY>
24.1

> <PUBCHEM_CACTVS_HBOND_ACCEPTOR>
2

> <PUBCHEM_CACTVS_HBOND_DONOR>
0

> <PUBCHEM_CACTVS_ROTATABLE_BOND>
0

> <PUBCHEM_CACTVS_SUBSKEYS>
AAADcYBAMAAAAAAAAAAAAAAAAAAAASAAAAAAAAAAAAAAAAAAAAAAGgAAAAAAAACggAMACAAABAAAAAAAAAAAAAAAAAAAAAAAAAARAAAAAAAgAAAAAAAGAAAAAAAAAAAAAAAAAAAAAAAAAAAAAAAAAAAAAA==

> <PUBCHEM_IUPAC_OPENEYE_NAME>
1,3-dioxolane

> <PUBCHEM_IUPAC_CAS_NAME>
1,3-dioxolane

> <PUBCHEM_IUPAC_NAME>
1,3-dioxolane

> <PUBCHEM_IUPAC_SYSTEMATIC_NAME>
1,3-dioxolane

> <PUBCHEM_IUPAC_TRADITIONAL_NAME>
1,3-dioxolane

> <PUBCHEM_IUPAC_INCHI>
InChI=1S/C3H6O2/c1-2-5-3-4-1/h1-3H2

> <PUBCHEM_IUPAC_INCHIKEY>
WNXJIVFYUVYPPR-UHFFFAOYSA-N

> <PUBCHEM_XLOGP3>
-0.4

> <PUBCHEM_EXACT_MASS>
74.036779

> <PUBCHEM_MOLECULAR_FORMULA>
C3H6O2

> <PUBCHEM_MOLECULAR_WEIGHT>
74.07854

> <PUBCHEM_OPENEYE_CAN_SMILES>
C1COCO1

> <PUBCHEM_OPENEYE_ISO_SMILES>
C1COCO1

> <PUBCHEM_CACTVS_TPSA>
18.5

> <PUBCHEM_MONOISOTOPIC_WEIGHT>
74.036779

> <PUBCHEM_TOTAL_CHARGE>
0

> <PUBCHEM_HEAVY_ATOM_COUNT>
5

> <PUBCHEM_ATOM_DEF_STEREO_COUNT>
0

> <PUBCHEM_ATOM_UDEF_STEREO_COUNT>
0

> <PUBCHEM_BOND_DEF_STEREO_COUNT>
0

> <PUBCHEM_BOND_UDEF_STEREO_COUNT>
0

> <PUBCHEM_ISOTOPIC_ATOM_COUNT>
0

> <PUBCHEM_COMPONENT_COUNT>
1

> <PUBCHEM_CACTVS_TAUTO_COUNT>
1

> <PUBCHEM_COORDINATE_TYPE>
1
5
255

$$$$

