854256
  -OEChem-06241222473D

 37 37  0     1  0  0  0  0  0999 V2000
   -2.7632    2.2283    0.7136 Cl  0  0  0  0  0  0  0  0  0  0  0  0
    1.7610    1.4905   -1.2780 O   0  0  0  0  0  0  0  0  0  0  0  0
    2.1449    2.0423    0.9285 O   0  0  0  0  0  0  0  0  0  0  0  0
   -0.6794    0.1957    1.9546 O   0  0  0  0  0  0  0  0  0  0  0  0
    0.1906   -0.4316   -0.0772 N   0  0  0  0  0  0  0  0  0  0  0  0
    4.0116   -0.9787   -0.1030 C   0  0  0  0  0  0  0  0  0  0  0  0
    2.5272   -1.1215   -0.4951 C   0  0  0  0  0  0  0  0  0  0  0  0
    1.5654   -0.2386    0.3043 C   0  0  1  0  0  0  0  0  0  0  0  0
    4.1840   -1.2852    1.3873 C   0  0  0  0  0  0  0  0  0  0  0  0
    4.9219   -1.8921   -0.9251 C   0  0  0  0  0  0  0  0  0  0  0  0
    1.8768    1.2248    0.0574 C   0  0  0  0  0  0  0  0  0  0  0  0
   -0.8681   -0.1939    0.8007 C   0  0  0  0  0  0  0  0  0  0  0  0
   -2.2159   -0.4047    0.2540 C   0  0  0  0  0  0  0  0  0  0  0  0
   -3.1378    0.6307    0.1754 C   0  0  0  0  0  0  0  0  0  0  0  0
   -2.5407   -1.6824   -0.1848 C   0  0  0  0  0  0  0  0  0  0  0  0
    1.9785    2.8534   -1.6568 C   0  0  0  0  0  0  0  0  0  0  0  0
   -4.4061    0.3852   -0.3509 C   0  0  0  0  0  0  0  0  0  0  0  0
   -3.8089   -1.9279   -0.7110 C   0  0  0  0  0  0  0  0  0  0  0  0
   -4.7416   -0.8942   -0.7941 C   0  0  0  0  0  0  0  0  0  0  0  0
    4.3353    0.0538   -0.2825 H   0  0  0  0  0  0  0  0  0  0  0  0
    2.4267   -0.9229   -1.5705 H   0  0  0  0  0  0  0  0  0  0  0  0
    2.2235   -2.1697   -0.3660 H   0  0  0  0  0  0  0  0  0  0  0  0
    1.6499   -0.4351    1.3770 H   0  0  0  0  0  0  0  0  0  0  0  0
    3.7275   -0.5154    2.0162 H   0  0  0  0  0  0  0  0  0  0  0  0
    5.2466   -1.3142    1.6538 H   0  0  0  0  0  0  0  0  0  0  0  0
    3.7480   -2.2547    1.6512 H   0  0  0  0  0  0  0  0  0  0  0  0
    4.8224   -1.6739   -1.9936 H   0  0  0  0  0  0  0  0  0  0  0  0
    4.6698   -2.9466   -0.7700 H   0  0  0  0  0  0  0  0  0  0  0  0
    5.9722   -1.7490   -0.6502 H   0  0  0  0  0  0  0  0  0  0  0  0
   -0.0120   -0.6886   -1.0394 H   0  0  0  0  0  0  0  0  0  0  0  0
   -1.8268   -2.4994   -0.1220 H   0  0  0  0  0  0  0  0  0  0  0  0
    1.2397    3.5020   -1.1763 H   0  0  0  0  0  0  0  0  0  0  0  0
    1.8588    2.9280   -2.7408 H   0  0  0  0  0  0  0  0  0  0  0  0
    2.9947    3.1619   -1.3933 H   0  0  0  0  0  0  0  0  0  0  0  0
   -5.1446    1.1796   -0.4224 H   0  0  0  0  0  0  0  0  0  0  0  0
   -4.0708   -2.9243   -1.0549 H   0  0  0  0  0  0  0  0  0  0  0  0
   -5.7292   -1.0856   -1.2035 H   0  0  0  0  0  0  0  0  0  0  0  0
  1 14  1  0  0  0  0
  2 11  1  0  0  0  0
  2 16  1  0  0  0  0
  3 11  2  0  0  0  0
  4 12  2  0  0  0  0
  5  8  1  0  0  0  0
  5 12  1  0  0  0  0
  5 30  1  0  0  0  0
  6  7  1  0  0  0  0
  6  9  1  0  0  0  0
  6 10  1  0  0  0  0
  6 20  1  0  0  0  0
  7  8  1  0  0  0  0
  7 21  1  0  0  0  0
  7 22  1  0  0  0  0
  8 11  1  0  0  0  0
  8 23  1  0  0  0  0
  9 24  1  0  0  0  0
  9 25  1  0  0  0  0
  9 26  1  0  0  0  0
 10 27  1  0  0  0  0
 10 28  1  0  0  0  0
 10 29  1  0  0  0  0
 12 13  1  0  0  0  0
 13 14  1  0  0  0  0
 13 15  2  0  0  0  0
 14 17  2  0  0  0  0
 15 18  1  0  0  0  0
 15 31  1  0  0  0  0
 16 32  1  0  0  0  0
 16 33  1  0  0  0  0
 16 34  1  0  0  0  0
 17 19  1  0  0  0  0
 17 35  1  0  0  0  0
 18 19  2  0  0  0  0
 18 36  1  0  0  0  0
 19 37  1  0  0  0  0
M  END
> <PUBCHEM_COMPOUND_CID>
854256

> <PUBCHEM_CONFORMER_RMSD>
0.8

> <PUBCHEM_CONFORMER_DIVERSEORDER>
1
29
16
19
18
32
37
7
34
3
31
9
35
25
14
20
36
26
22
27
33
2
24
12
28
23
6
17
30
10
11
13
4
21
5
15
8

> <PUBCHEM_MMFF94_PARTIAL_CHARGES>
20
1 -0.18
11 0.66
12 0.54
13 0.09
14 0.18
15 -0.15
16 0.28
17 -0.15
18 -0.15
19 -0.15
2 -0.43
3 -0.57
30 0.37
31 0.15
35 0.15
36 0.15
37 0.15
4 -0.57
5 -0.73
8 0.36

> <PUBCHEM_EFFECTIVE_ROTOR_COUNT>
7

> <PUBCHEM_PHARMACOPHORE_FEATURES>
5
1 3 acceptor
1 4 acceptor
1 5 donor
3 6 9 10 hydrophobe
6 13 14 15 17 18 19 rings

> <PUBCHEM_HEAVY_ATOM_COUNT>
19

> <PUBCHEM_ATOM_DEF_STEREO_COUNT>
1

> <PUBCHEM_ATOM_UDEF_STEREO_COUNT>
0

> <PUBCHEM_BOND_DEF_STEREO_COUNT>
0

> <PUBCHEM_BOND_UDEF_STEREO_COUNT>
0

> <PUBCHEM_ISOTOPIC_ATOM_COUNT>
0

> <PUBCHEM_COMPONENT_COUNT>
1

> <PUBCHEM_CACTVS_TAUTO_COUNT>
2

> <PUBCHEM_CONFORMER_ID>
000D08F000000001

> <PUBCHEM_MMFF94_ENERGY>
48.6008

> <PUBCHEM_FEATURE_SELFOVERLAP>
25.371

> <PUBCHEM_SHAPE_FINGERPRINT>
11405975 8 18341894065628918987
12363563 72 16660357073980276563
12916754 54 18260547793080370115
13583140 156 16805903869392855776
13899415 180 18059030439886164718
14115302 16 18187085040103609195
14250199 8 18202278070317199405
14341114 328 8790878579913488926
15848700 24 18342176713247615822
17492 89 18337671901854684975
17834072 14 17967258623784327946
1813 80 18271525394639629326
18186145 218 17560808693190129939
18222031 100 18335419110641675278
192875 21 18411136935125984463
19784866 240 18040709290248799143
19862831 5 17989492917904078051
200 152 17748548147301109267
20626108 58 18340219539353023786
20645477 70 18410857616360474246
21033648 29 16661229059831825898
21069387 34 18410005533461254050
221490 88 18263922150789158826
22224240 67 7492987558158791094
2255824 54 18202002088688062674
23402539 116 18340494476998703759
23532345 12 18335699463803285382
23557571 272 17386000732176759617
23559900 14 18260839176071716779
23598291 2 18411973672043635733
2916195 48 12390925910372583022
3004659 81 18409736140649657311
3082319 5 18337106774673798845
312423 11 18338784633696908699
3286 77 18334299751168112805
474 4 17702950206196570197
5104073 3 18334576798629530571
5281201 14 18202002080039924263
53777708 50 18338506431411463421
633830 44 17561087964922418829
74978 22 17917705764760628210
7615 1 18187628198573430809
960060 61 18059849593619565222
9709674 26 18337111138202894195
9971528 1 18412829092691354092
9981440 41 17552073996430766584

> <PUBCHEM_SHAPE_MULTIPOLES>
370.29
9.86
2.56
1.32
0.58
1.48
0.11
-4.96
-1.67
0.84
-0.8
0.7
0.4
-1.1

> <PUBCHEM_SHAPE_SELFOVERLAP>
745.144

> <PUBCHEM_SHAPE_VOLUME>
217.7

> <PUBCHEM_COORDINATE_TYPE>
2
5
10

$$$$

