8223
  -OEChem-06261202403D

 78 85  0     1  0  0  0  0  0999 V2000
   -1.3765    1.6080   -1.3125 O   0  0  0  0  0  0  0  0  0  0  0  0
   -1.9349    1.2823    0.9482 O   0  0  0  0  0  0  0  0  0  0  0  0
   -6.3213    1.0626    0.9424 O   0  0  0  0  0  0  0  0  0  0  0  0
   -2.7674   -1.5082   -2.1688 O   0  0  0  0  0  0  0  0  0  0  0  0
    1.6298    1.0444   -1.8637 O   0  0  0  0  0  0  0  0  0  0  0  0
   -4.6103    2.4415    0.2639 N   0  0  0  0  0  0  0  0  0  0  0  0
   -3.1739    0.3230   -0.7621 N   0  0  0  0  0  0  0  0  0  0  0  0
   -0.1177   -0.3779   -1.2742 N   0  0  0  0  0  0  0  0  0  0  0  0
    3.8371   -2.6409   -0.8505 N   0  0  2  0  0  0  0  0  0  0  0  0
    8.9537   -0.1552    1.1174 N   0  0  0  0  0  0  0  0  0  0  0  0
   -3.3827    2.6789   -0.4813 C   0  0  2  0  0  0  0  0  0  0  0  0
   -2.4414    1.4938   -0.3625 C   0  0  2  0  0  0  0  0  0  0  0  0
   -2.9047    4.0392    0.0254 C   0  0  0  0  0  0  0  0  0  0  0  0
   -4.4897    0.0073   -0.2149 C   0  0  2  0  0  0  0  0  0  0  0  0
   -5.1190    3.6717    0.8507 C   0  0  0  0  0  0  0  0  0  0  0  0
   -4.2257    4.7659    0.2781 C   0  0  0  0  0  0  0  0  0  0  0  0
   -1.1822    0.3289   -1.9311 C   0  0  1  0  0  0  0  0  0  0  0  0
   -5.2312    1.2144    0.3852 C   0  0  0  0  0  0  0  0  0  0  0  0
   -2.4678   -0.4281   -1.6843 C   0  0  0  0  0  0  0  0  0  0  0  0
   -4.3816   -1.0994    0.8337 C   0  0  0  0  0  0  0  0  0  0  0  0
   -0.9012    0.5194   -3.4100 C   0  0  0  0  0  0  0  0  0  0  0  0
    2.1066   -0.8634   -0.5109 C   0  0  1  0  0  0  0  0  0  0  0  0
    4.9358   -1.6728   -0.5856 C   0  0  1  0  0  0  0  0  0  0  0  0
    1.2057    0.0414   -1.2957 C   0  0  0  0  0  0  0  0  0  0  0  0
   -5.6838   -1.8321    1.0006 C   0  0  0  0  0  0  0  0  0  0  0  0
    2.6807   -1.9457   -1.4348 C   0  0  0  0  0  0  0  0  0  0  0  0
    4.4767   -0.3244    0.0444 C   0  0  0  0  0  0  0  0  0  0  0  0
    6.1611   -2.3546    0.1238 C   0  0  0  0  0  0  0  0  0  0  0  0
    3.1722    0.0035    0.0959 C   0  0  0  0  0  0  0  0  0  0  0  0
    5.5291    0.5971    0.5365 C   0  0  0  0  0  0  0  0  0  0  0  0
    7.1799   -1.3389    0.4964 C   0  0  0  0  0  0  0  0  0  0  0  0
    6.7907    0.0045    0.6883 C   0  0  0  0  0  0  0  0  0  0  0  0
    3.4411   -3.4502    0.3023 C   0  0  0  0  0  0  0  0  0  0  0  0
   -6.6077   -1.3837    1.9357 C   0  0  0  0  0  0  0  0  0  0  0  0
   -5.9477   -2.9483    0.2172 C   0  0  0  0  0  0  0  0  0  0  0  0
    7.8997    0.7323    1.0894 C   0  0  0  0  0  0  0  0  0  0  0  0
    8.5262   -1.4159    0.7628 C   0  0  0  0  0  0  0  0  0  0  0  0
    5.4320    1.9660    0.8212 C   0  0  0  0  0  0  0  0  0  0  0  0
    7.8166    2.0952    1.3764 C   0  0  0  0  0  0  0  0  0  0  0  0
   -7.8160   -2.0632    2.0906 C   0  0  0  0  0  0  0  0  0  0  0  0
   -7.1562   -3.6278    0.3720 C   0  0  0  0  0  0  0  0  0  0  0  0
    6.5562    2.6946    1.2358 C   0  0  0  0  0  0  0  0  0  0  0  0
   -8.0902   -3.1851    1.3086 C   0  0  0  0  0  0  0  0  0  0  0  0
   -3.6856    2.7957   -1.5328 H   0  0  0  0  0  0  0  0  0  0  0  0
   -2.2719    4.5574   -0.7009 H   0  0  0  0  0  0  0  0  0  0  0  0
   -2.3552    3.9656    0.9690 H   0  0  0  0  0  0  0  0  0  0  0  0
   -5.0872   -0.3418   -1.0676 H   0  0  0  0  0  0  0  0  0  0  0  0
   -5.0136    3.5909    1.9379 H   0  0  0  0  0  0  0  0  0  0  0  0
   -6.1767    3.8073    0.6067 H   0  0  0  0  0  0  0  0  0  0  0  0
   -4.1218    5.6203    0.9524 H   0  0  0  0  0  0  0  0  0  0  0  0
   -4.6369    5.1270   -0.6724 H   0  0  0  0  0  0  0  0  0  0  0  0
   -3.6065   -1.8271    0.5585 H   0  0  0  0  0  0  0  0  0  0  0  0
   -4.0566   -0.6905    1.8002 H   0  0  0  0  0  0  0  0  0  0  0  0
   -1.6334    2.1308    1.3071 H   0  0  0  0  0  0  0  0  0  0  0  0
   -0.3489   -1.2279   -0.7670 H   0  0  0  0  0  0  0  0  0  0  0  0
   -0.1039    1.2457   -3.5945 H   0  0  0  0  0  0  0  0  0  0  0  0
   -0.6345   -0.4247   -3.8975 H   0  0  0  0  0  0  0  0  0  0  0  0
   -1.7889    0.9150   -3.9185 H   0  0  0  0  0  0  0  0  0  0  0  0
    1.5427   -1.3214    0.3115 H   0  0  0  0  0  0  0  0  0  0  0  0
    5.3126   -1.3867   -1.5816 H   0  0  0  0  0  0  0  0  0  0  0  0
    1.8962   -2.6687   -1.6953 H   0  0  0  0  0  0  0  0  0  0  0  0
    2.9830   -1.5092   -2.3975 H   0  0  0  0  0  0  0  0  0  0  0  0
    6.5974   -3.1152   -0.5344 H   0  0  0  0  0  0  0  0  0  0  0  0
    5.8557   -2.8482    1.0535 H   0  0  0  0  0  0  0  0  0  0  0  0
    2.8456    0.9218    0.5772 H   0  0  0  0  0  0  0  0  0  0  0  0
    2.5463   -4.0413    0.0740 H   0  0  0  0  0  0  0  0  0  0  0  0
    4.2161   -4.1837    0.5462 H   0  0  0  0  0  0  0  0  0  0  0  0
    3.2335   -2.8518    1.1955 H   0  0  0  0  0  0  0  0  0  0  0  0
   -6.3876   -0.5599    2.6082 H   0  0  0  0  0  0  0  0  0  0  0  0
   -5.2281   -3.3000   -0.5169 H   0  0  0  0  0  0  0  0  0  0  0  0
    9.2194   -2.2452    0.7485 H   0  0  0  0  0  0  0  0  0  0  0  0
    4.4886    2.4943    0.7116 H   0  0  0  0  0  0  0  0  0  0  0  0
    9.9023    0.0810    1.3739 H   0  0  0  0  0  0  0  0  0  0  0  0
    8.6811    2.6679    1.6920 H   0  0  0  0  0  0  0  0  0  0  0  0
   -8.5360   -1.7292    2.8319 H   0  0  0  0  0  0  0  0  0  0  0  0
   -7.3697   -4.5016   -0.2366 H   0  0  0  0  0  0  0  0  0  0  0  0
    6.4504    3.7565    1.4468 H   0  0  0  0  0  0  0  0  0  0  0  0
   -9.0294   -3.7166    1.4319 H   0  0  0  0  0  0  0  0  0  0  0  0
  1 12  1  0  0  0  0
  1 17  1  0  0  0  0
  2 12  1  0  0  0  0
  2 54  1  0  0  0  0
  3 18  2  0  0  0  0
  4 19  2  0  0  0  0
  5 24  2  0  0  0  0
  6 11  1  0  0  0  0
  6 15  1  0  0  0  0
  6 18  1  0  0  0  0
  7 12  1  0  0  0  0
  7 14  1  0  0  0  0
  7 19  1  0  0  0  0
  8 17  1  0  0  0  0
  8 24  1  0  0  0  0
  8 55  1  0  0  0  0
  9 23  1  0  0  0  0
  9 26  1  0  0  0  0
  9 33  1  0  0  0  0
 10 36  1  0  0  0  0
 10 37  1  0  0  0  0
 10 73  1  0  0  0  0
 11 12  1  0  0  0  0
 11 13  1  0  0  0  0
 11 44  1  0  0  0  0
 13 16  1  0  0  0  0
 13 45  1  0  0  0  0
 13 46  1  0  0  0  0
 14 18  1  0  0  0  0
 14 20  1  0  0  0  0
 14 47  1  0  0  0  0
 15 16  1  0  0  0  0
 15 48  1  0  0  0  0
 15 49  1  0  0  0  0
 16 50  1  0  0  0  0
 16 51  1  0  0  0  0
 17 19  1  0  0  0  0
 17 21  1  0  0  0  0
 20 25  1  0  0  0  0
 20 52  1  0  0  0  0
 20 53  1  0  0  0  0
 21 56  1  0  0  0  0
 21 57  1  0  0  0  0
 21 58  1  0  0  0  0
 22 24  1  0  0  0  0
 22 26  1  0  0  0  0
 22 29  1  0  0  0  0
 22 59  1  0  0  0  0
 23 27  1  0  0  0  0
 23 28  1  0  0  0  0
 23 60  1  0  0  0  0
 25 34  2  0  0  0  0
 25 35  1  0  0  0  0
 26 61  1  0  0  0  0
 26 62  1  0  0  0  0
 27 29  2  0  0  0  0
 27 30  1  0  0  0  0
 28 31  1  0  0  0  0
 28 63  1  0  0  0  0
 28 64  1  0  0  0  0
 29 65  1  0  0  0  0
 30 32  2  0  0  0  0
 30 38  1  0  0  0  0
 31 32  1  0  0  0  0
 31 37  2  0  0  0  0
 32 36  1  0  0  0  0
 33 66  1  0  0  0  0
 33 67  1  0  0  0  0
 33 68  1  0  0  0  0
 34 40  1  0  0  0  0
 34 69  1  0  0  0  0
 35 41  2  0  0  0  0
 35 70  1  0  0  0  0
 36 39  2  0  0  0  0
 37 71  1  0  0  0  0
 38 42  2  0  0  0  0
 38 72  1  0  0  0  0
 39 42  1  0  0  0  0
 39 74  1  0  0  0  0
 40 43  2  0  0  0  0
 40 75  1  0  0  0  0
 41 43  1  0  0  0  0
 41 76  1  0  0  0  0
 42 77  1  0  0  0  0
 43 78  1  0  0  0  0
M  END
> <PUBCHEM_COMPOUND_CID>
8223

> <PUBCHEM_CONFORMER_RMSD>
1

> <PUBCHEM_CONFORMER_DIVERSEORDER>
1
21
24
23
31
15
6
19
28
26
9
16
8
12
29
10
34
5
30
22
18
2
3
33
17
27
20
25
14
7
13
32
11
4

> <PUBCHEM_MMFF94_PARTIAL_CHARGES>
52
1 -0.56
10 0.03
11 0.3
12 0.86
14 0.36
15 0.3
17 0.64
18 0.57
19 0.57
2 -0.68
20 0.14
22 0.2
23 0.41
24 0.57
25 -0.14
26 0.27
27 -0.17
28 0.18
29 -0.29
3 -0.57
30 0.03
31 -0.18
33 0.27
34 -0.15
35 -0.15
36 -0.15
37 -0.3
38 -0.15
39 -0.15
4 -0.57
40 -0.15
41 -0.15
42 -0.15
43 -0.15
5 -0.57
54 0.4
55 0.37
6 -0.66
65 0.15
69 0.15
7 -0.66
70 0.15
71 0.15
72 0.15
73 0.27
74 0.15
75 0.15
76 0.15
77 0.15
78 0.15
8 -0.73
9 -0.81

> <PUBCHEM_EFFECTIVE_ROTOR_COUNT>
7

> <PUBCHEM_PHARMACOPHORE_FEATURES>
18
1 1 acceptor
1 10 cation
1 10 donor
1 2 acceptor
1 2 donor
1 3 acceptor
1 4 acceptor
1 5 acceptor
1 8 donor
1 9 cation
5 1 7 12 17 19 rings
5 10 31 32 36 37 rings
5 6 11 13 15 16 rings
6 23 27 28 30 31 32 rings
6 25 34 35 40 41 43 rings
6 30 32 36 38 39 42 rings
6 6 7 11 12 14 18 rings
6 9 22 23 26 27 29 rings

> <PUBCHEM_HEAVY_ATOM_COUNT>
43

> <PUBCHEM_ATOM_DEF_STEREO_COUNT>
6

> <PUBCHEM_ATOM_UDEF_STEREO_COUNT>
0

> <PUBCHEM_BOND_DEF_STEREO_COUNT>
0

> <PUBCHEM_BOND_UDEF_STEREO_COUNT>
0

> <PUBCHEM_ISOTOPIC_ATOM_COUNT>
0

> <PUBCHEM_COMPONENT_COUNT>
1

> <PUBCHEM_CACTVS_TAUTO_COUNT>
2

> <PUBCHEM_CONFORMER_ID>
0000201F00000001

> <PUBCHEM_MMFF94_ENERGY>
128.3374

> <PUBCHEM_FEATURE_SELFOVERLAP>
91.805

> <PUBCHEM_SHAPE_FINGERPRINT>
10 15 18259987084946773172
10100884 174 18130223740407827883
10930396 42 18408880755664495985
10952577 141 9655034238687517307
11399510 152 18335425689845641282
11411753 29 17750494330295426614
11411753 3 18043236045236259287
11456790 92 18335997454300997370
11621639 179 6698989504216232027
12144600 37 18337106869448552738
12758862 11 17988380225702381021
12988421 55 16732979856129609615
13782708 43 16271929324587116220
13811026 1 18412265030035545451
14017579 51 18410289246727589457
14068700 675 18059287678800247511
15064981 113 13110700319427896435
15183329 4 14562540587322240756
15320295 40 17703512082851630003
15328684 2 18130207324968618572
15347590 135 18410009901348127194
15510800 12 17418084374454879451
15664458 50 18116704300842651761
18603816 31 15123497113383177081
18608769 82 18408604742862805787
19303781 99 17416960626764781075
19611394 137 18338515244494678665
20105231 36 18187638125298413286
21130935 74 18270401719616270466
21136928 126 16610532395785143403
21647283 7 18409454700275479856
2747138 104 18411975836728459742
3383291 50 17774999038675814795
3418910 222 18340759378172438380
397830 11 18334289890012748590
3986486 107 7132437934983832658
4073 2 18339360885069074130
4144715 1 18119239816793046364
42767 23 13686300136619744370
4403749 210 18335426811127439471
4408954 87 18339077082295423226
5080951 261 18202006556086943503
5104073 3 18339926042699138450
5109719 28 18040151799968645526
6126387 218 18410856535162917187
9555976 147 18336815507119711313

> <PUBCHEM_SHAPE_MULTIPOLES>
830.67
27.45
4.76
1.94
21.77
2.62
-1.16
-11
18.73
-8.03
1.3
-1.29
-0.15
3.27

> <PUBCHEM_SHAPE_SELFOVERLAP>
1862.477

> <PUBCHEM_SHAPE_VOLUME>
434.5

> <PUBCHEM_COORDINATE_TYPE>
2
5
10

$$$$

