47204990
  -OEChem-06241222562D

 33 34  0     0  0  0  0  0  0999 V2000
    7.9497    3.8512    0.0000 O   0  0  0  0  0  0  0  0  0  0  0  0
    4.2690    1.1488    0.0000 O   0  0  0  0  0  0  0  0  0  0  0  0
    2.5369   -1.8512    0.0000 O   0  0  0  0  0  0  0  0  0  0  0  0
    6.0010    1.1488    0.0000 N   0  0  0  0  0  0  0  0  0  0  0  0
    4.2690   -0.8512    0.0000 C   0  0  0  0  0  0  0  0  0  0  0  0
    5.1350   -0.3512    0.0000 C   0  0  0  0  0  0  0  0  0  0  0  0
    4.2690   -1.8512    0.0000 C   0  0  0  0  0  0  0  0  0  0  0  0
    5.1350    0.6488    0.0000 C   0  0  0  0  0  0  0  0  0  0  0  0
    6.0010    2.1488    0.0000 C   0  0  0  0  0  0  0  0  0  0  0  0
    3.4030   -2.3512    0.0000 C   0  0  0  0  0  0  0  0  0  0  0  0
    6.8671    2.6488    0.0000 C   0  0  0  0  0  0  0  0  0  0  0  0
    5.1350   -2.3512    0.0000 C   0  0  0  0  0  0  0  0  0  0  0  0
    3.4030   -3.3512    0.0000 C   0  0  0  0  0  0  0  0  0  0  0  0
    5.1350   -3.3512    0.0000 C   0  0  0  0  0  0  0  0  0  0  0  0
    7.7806    2.2420    0.0000 C   0  0  0  0  0  0  0  0  0  0  0  0
    4.2690   -3.8512    0.0000 C   0  0  0  0  0  0  0  0  0  0  0  0
    6.9716    3.6433    0.0000 C   0  0  0  0  0  0  0  0  0  0  0  0
    8.4497    2.9852    0.0000 C   0  0  0  0  0  0  0  0  0  0  0  0
    4.0569   -0.2686    0.0000 H   0  0  0  0  0  0  0  0  0  0  0  0
    3.6584   -0.9589    0.0000 H   0  0  0  0  0  0  0  0  0  0  0  0
    5.3471   -0.9338    0.0000 H   0  0  0  0  0  0  0  0  0  0  0  0
    5.7456   -0.2436    0.0000 H   0  0  0  0  0  0  0  0  0  0  0  0
    5.7890    2.7314    0.0000 H   0  0  0  0  0  0  0  0  0  0  0  0
    5.3905    2.0411    0.0000 H   0  0  0  0  0  0  0  0  0  0  0  0
    6.5380    0.8388    0.0000 H   0  0  0  0  0  0  0  0  0  0  0  0
    5.6720   -2.0412    0.0000 H   0  0  0  0  0  0  0  0  0  0  0  0
    2.8660   -3.6612    0.0000 H   0  0  0  0  0  0  0  0  0  0  0  0
    5.6720   -3.6612    0.0000 H   0  0  0  0  0  0  0  0  0  0  0  0
    7.9095    1.6356    0.0000 H   0  0  0  0  0  0  0  0  0  0  0  0
    4.2690   -4.4712    0.0000 H   0  0  0  0  0  0  0  0  0  0  0  0
    6.5108    4.0582    0.0000 H   0  0  0  0  0  0  0  0  0  0  0  0
    9.0663    2.9204    0.0000 H   0  0  0  0  0  0  0  0  0  0  0  0
    2.0000   -2.1612    0.0000 H   0  0  0  0  0  0  0  0  0  0  0  0
  1 17  1  0  0  0  0
  1 18  1  0  0  0  0
  2  8  2  0  0  0  0
  3 10  1  0  0  0  0
  3 33  1  0  0  0  0
  4  8  1  0  0  0  0
  4  9  1  0  0  0  0
  4 25  1  0  0  0  0
  5  6  1  0  0  0  0
  5  7  1  0  0  0  0
  5 19  1  0  0  0  0
  5 20  1  0  0  0  0
  6  8  1  0  0  0  0
  6 21  1  0  0  0  0
  6 22  1  0  0  0  0
  7 10  1  0  0  0  0
  7 12  2  0  0  0  0
  9 11  1  0  0  0  0
  9 23  1  0  0  0  0
  9 24  1  0  0  0  0
 10 13  2  0  0  0  0
 11 15  1  0  0  0  0
 11 17  2  0  0  0  0
 12 14  1  0  0  0  0
 12 26  1  0  0  0  0
 13 16  1  0  0  0  0
 13 27  1  0  0  0  0
 14 16  2  0  0  0  0
 14 28  1  0  0  0  0
 15 18  2  0  0  0  0
 15 29  1  0  0  0  0
 16 30  1  0  0  0  0
 17 31  1  0  0  0  0
 18 32  1  0  0  0  0
M  END
> <PUBCHEM_COMPOUND_CID>
47204990

> <PUBCHEM_COMPOUND_CANONICALIZED>
1

> <PUBCHEM_CACTVS_COMPLEXITY>
270

> <PUBCHEM_CACTVS_HBOND_ACCEPTOR>
3

> <PUBCHEM_CACTVS_HBOND_DONOR>
2

> <PUBCHEM_CACTVS_ROTATABLE_BOND>
5

> <PUBCHEM_CACTVS_SUBSKEYS>
AAADccByMAAAAAAAAAAAAAAAAAAAASAAAAAwAAAAAAAAAAABwAAAHgAQCAAADAThmAYwBoLABkCIAilSkACCCAAkIAAIiIEODMgMJjqGtRuGeSjm1hGIuYe83KLOAAAAAAAIAAAAAAAAABAAAAAAAAAAAA==

> <PUBCHEM_IUPAC_OPENEYE_NAME>
N-(3-furylmethyl)-3-(2-hydroxyphenyl)propanamide

> <PUBCHEM_IUPAC_CAS_NAME>
N-(3-furanylmethyl)-3-(2-hydroxyphenyl)propanamide

> <PUBCHEM_IUPAC_NAME>
N-(furan-3-ylmethyl)-3-(2-hydroxyphenyl)propanamide

> <PUBCHEM_IUPAC_SYSTEMATIC_NAME>
N-(furan-3-ylmethyl)-3-(2-hydroxyphenyl)propanamide

> <PUBCHEM_IUPAC_TRADITIONAL_NAME>
N-(3-furfuryl)-3-(2-hydroxyphenyl)propionamide

> <PUBCHEM_IUPAC_INCHI>
InChI=1S/C14H15NO3/c16-13-4-2-1-3-12(13)5-6-14(17)15-9-11-7-8-18-10-11/h1-4,7-8,10,16H,5-6,9H2,(H,15,17)

> <PUBCHEM_IUPAC_INCHIKEY>
VZVJKGUFOKNEAC-UHFFFAOYSA-N

> <PUBCHEM_XLOGP3_AA>
1.6

> <PUBCHEM_EXACT_MASS>
245.105193

> <PUBCHEM_MOLECULAR_FORMULA>
C14H15NO3

> <PUBCHEM_MOLECULAR_WEIGHT>
245.2738

> <PUBCHEM_OPENEYE_CAN_SMILES>
C1=CC=C(C(=C1)CCC(=O)NCC2=COC=C2)O

> <PUBCHEM_OPENEYE_ISO_SMILES>
C1=CC=C(C(=C1)CCC(=O)NCC2=COC=C2)O

> <PUBCHEM_CACTVS_TPSA>
62.5

> <PUBCHEM_MONOISOTOPIC_WEIGHT>
245.105193

> <PUBCHEM_TOTAL_CHARGE>
0

> <PUBCHEM_HEAVY_ATOM_COUNT>
18

> <PUBCHEM_ATOM_DEF_STEREO_COUNT>
0

> <PUBCHEM_ATOM_UDEF_STEREO_COUNT>
0

> <PUBCHEM_BOND_DEF_STEREO_COUNT>
0

> <PUBCHEM_BOND_UDEF_STEREO_COUNT>
0

> <PUBCHEM_ISOTOPIC_ATOM_COUNT>
0

> <PUBCHEM_COMPONENT_COUNT>
1

> <PUBCHEM_CACTVS_TAUTO_COUNT>
6

> <PUBCHEM_COORDINATE_TYPE>
1
5
255

> <PUBCHEM_BONDANNOTATIONS>
1  17  8
1  18  8
10  13  8
11  15  8
11  17  8
12  14  8
13  16  8
14  16  8
15  18  8
7  10  8
7  12  8

$$$$

