586168
  -OEChem-06241222453D

 38 38  0     0  0  0  0  0  0999 V2000
   -3.4611   -0.1520    0.5001 O   0  0  0  0  0  0  0  0  0  0  0  0
    6.8700   -0.8286   -0.7896 O   0  0  0  0  0  0  0  0  0  0  0  0
    6.1960    0.2967    1.1083 O   0  0  0  0  0  0  0  0  0  0  0  0
   -6.6752   -1.2355   -0.5956 O   0  0  0  0  0  0  0  0  0  0  0  0
    1.0325    0.7533    0.5199 C   0  0  0  0  0  0  0  0  0  0  0  0
    2.1218    0.1581   -0.3751 C   0  0  0  0  0  0  0  0  0  0  0  0
   -0.3761    0.6190   -0.0655 C   0  0  0  0  0  0  0  0  0  0  0  0
    3.5035    0.2983    0.2668 C   0  0  0  0  0  0  0  0  0  0  0  0
   -1.4733    1.1480    0.8638 C   0  0  0  0  0  0  0  0  0  0  0  0
    4.5888   -0.3290   -0.6066 C   0  0  0  0  0  0  0  0  0  0  0  0
   -2.8394    1.0080    0.2384 C   0  0  0  0  0  0  0  0  0  0  0  0
   -3.5625    1.8358   -0.5437 C   0  0  0  0  0  0  0  0  0  0  0  0
    5.9555   -0.2324    0.0319 C   0  0  0  0  0  0  0  0  0  0  0  0
   -4.6524   -0.0699   -0.1486 C   0  0  0  0  0  0  0  0  0  0  0  0
   -4.7628    1.1333   -0.8057 C   0  0  0  0  0  0  0  0  0  0  0  0
   -5.5421   -1.1761   -0.0494 C   0  0  0  0  0  0  0  0  0  0  0  0
   -5.1446   -2.4112    0.7698 C   0  0  0  0  0  0  0  0  0  0  0  0
    8.2217   -0.8158   -0.3192 C   0  0  0  0  0  0  0  0  0  0  0  0
    1.0600    0.2562    1.4977 H   0  0  0  0  0  0  0  0  0  0  0  0
    1.2468    1.8143    0.6981 H   0  0  0  0  0  0  0  0  0  0  0  0
    2.1131    0.6622   -1.3489 H   0  0  0  0  0  0  0  0  0  0  0  0
    1.9055   -0.9016   -0.5566 H   0  0  0  0  0  0  0  0  0  0  0  0
   -0.5723   -0.4374   -0.2910 H   0  0  0  0  0  0  0  0  0  0  0  0
   -0.4172    1.1517   -1.0244 H   0  0  0  0  0  0  0  0  0  0  0  0
    3.7292    1.3590    0.4333 H   0  0  0  0  0  0  0  0  0  0  0  0
    3.5021   -0.1822    1.2533 H   0  0  0  0  0  0  0  0  0  0  0  0
   -1.2909    2.2051    1.0914 H   0  0  0  0  0  0  0  0  0  0  0  0
   -1.4515    0.6062    1.8171 H   0  0  0  0  0  0  0  0  0  0  0  0
    4.3639   -1.3890   -0.7699 H   0  0  0  0  0  0  0  0  0  0  0  0
    4.6256    0.1822   -1.5750 H   0  0  0  0  0  0  0  0  0  0  0  0
   -3.2855    2.8195   -0.8942 H   0  0  0  0  0  0  0  0  0  0  0  0
   -5.6012    1.4675   -1.4004 H   0  0  0  0  0  0  0  0  0  0  0  0
   -4.2342   -2.8493    0.3521 H   0  0  0  0  0  0  0  0  0  0  0  0
   -5.9445   -3.1563    0.7312 H   0  0  0  0  0  0  0  0  0  0  0  0
   -4.9819   -2.1220    1.8115 H   0  0  0  0  0  0  0  0  0  0  0  0
    8.5733    0.2141   -0.2057 H   0  0  0  0  0  0  0  0  0  0  0  0
    8.8452   -1.3197   -1.0626 H   0  0  0  0  0  0  0  0  0  0  0  0
    8.2979   -1.3575    0.6284 H   0  0  0  0  0  0  0  0  0  0  0  0
  1 11  1  0  0  0  0
  1 14  1  0  0  0  0
  2 13  1  0  0  0  0
  2 18  1  0  0  0  0
  3 13  2  0  0  0  0
  4 16  2  0  0  0  0
  5  6  1  0  0  0  0
  5  7  1  0  0  0  0
  5 19  1  0  0  0  0
  5 20  1  0  0  0  0
  6  8  1  0  0  0  0
  6 21  1  0  0  0  0
  6 22  1  0  0  0  0
  7  9  1  0  0  0  0
  7 23  1  0  0  0  0
  7 24  1  0  0  0  0
  8 10  1  0  0  0  0
  8 25  1  0  0  0  0
  8 26  1  0  0  0  0
  9 11  1  0  0  0  0
  9 27  1  0  0  0  0
  9 28  1  0  0  0  0
 10 13  1  0  0  0  0
 10 29  1  0  0  0  0
 10 30  1  0  0  0  0
 11 12  2  0  0  0  0
 12 15  1  0  0  0  0
 12 31  1  0  0  0  0
 14 15  2  0  0  0  0
 14 16  1  0  0  0  0
 15 32  1  0  0  0  0
 16 17  1  0  0  0  0
 17 33  1  0  0  0  0
 17 34  1  0  0  0  0
 17 35  1  0  0  0  0
 18 36  1  0  0  0  0
 18 37  1  0  0  0  0
 18 38  1  0  0  0  0
M  END
> <PUBCHEM_COMPOUND_CID>
586168

> <PUBCHEM_CONFORMER_RMSD>
1

> <PUBCHEM_CONFORMER_DIVERSEORDER>
1
285
38
116
237
303
104
12
298
251
159
201
248
186
54
261
202
294
26
185
9
246
65
59
244
212
258
22
51
16
243
281
128
42
220
193
167
291
278
199
223
77
5
308
100
262
301
30
80
284
6
279
179
29
255
99
55
120
213
304
48
71
252
232
181
148
94
307
123
286
195
215
106
310
166
25
10
132
182
63
306
178
288
209
297
87
311
268
196
34
72
299
198
46
183
216
274
4
242
135
254
117
231
174
97
250
271
188
49
300
197
240
70
283
13
28
207
119
67
107
105
112
58
133
267
230
50
18
190
17
138
131
189
66
121
266
169
192
172
83
92
229
168
33
69
217
141
124
289
175
91
184
145
96
47
263
226
287
280
176
224
41
32
292
249
206
225
302
39
228
109
144
312
259
60
277
270
137
75
295
170
180
276
98
73
21
208
136
37
227
162
171
194
101
74
85
15
68
173
64
122
151
154
79
14
56
95
8
203
7
273
264
239
20
81
152
265
62
61
40
2
221
86
78
110
44
90
153
161
146
272
165
309
155
45
76
43
164
214
57
31
205
241
115
256
238
282
19
139
3
27
257
187
211
269
35
53
127
305
210
130
219
36
290
275
157
103
111
142
84
247
191
245
24
113
89
108
52
204
158
102
296
236
126
23
156
134
200
82
11
222
118
233
93
129
177
253
114
234
163
88
147
260
160
235
125
218
293
150
149
143
140

> <PUBCHEM_MMFF94_PARTIAL_CHARGES>
16
1 -0.28
10 0.06
11 -0.04
12 -0.15
13 0.66
14 0.05
15 -0.15
16 0.59
17 0.06
18 0.28
2 -0.43
3 -0.57
31 0.15
32 0.15
4 -0.57
9 0.18

> <PUBCHEM_EFFECTIVE_ROTOR_COUNT>
9

> <PUBCHEM_PHARMACOPHORE_FEATURES>
6
1 1 acceptor
1 3 acceptor
1 4 acceptor
3 5 7 9 hydrophobe
3 6 8 10 hydrophobe
5 1 11 12 14 15 rings

> <PUBCHEM_HEAVY_ATOM_COUNT>
18

> <PUBCHEM_ATOM_DEF_STEREO_COUNT>
0

> <PUBCHEM_ATOM_UDEF_STEREO_COUNT>
0

> <PUBCHEM_BOND_DEF_STEREO_COUNT>
0

> <PUBCHEM_BOND_UDEF_STEREO_COUNT>
0

> <PUBCHEM_ISOTOPIC_ATOM_COUNT>
0

> <PUBCHEM_COMPONENT_COUNT>
1

> <PUBCHEM_CACTVS_TAUTO_COUNT>
2

> <PUBCHEM_CONFORMER_ID>
0008F1B800000001

> <PUBCHEM_MMFF94_ENERGY>
13.3357

> <PUBCHEM_FEATURE_SELFOVERLAP>
30.446

> <PUBCHEM_SHAPE_FINGERPRINT>
10066227 112 11312052141366371998
11089746 13 16702299049282087340
11315181 36 18409163324781973105
12091667 2 17417806274842226449
12166972 35 18342453725627491452
13167372 99 7709456122334143530
13288520 33 18412263926724861501
13668630 136 18335417998202597054
13885169 127 18114179770415187521
14123256 34 18259981574593474520
1420 363 17676204680466527124
14251718 22 18411700993534532496
14251732 16 18410013204821509936
14251764 18 6050442613490212029
14729087 3 10807934851776116966
14848160 23 18333733524550127552
15048467 5 10087641494295593460
15183329 4 16128658552840829976
15716309 27 17458064850206498525
16992828 155 16198475470962604661
17093844 174 17240483637259305601
17780758 139 14779552258242782079
17834072 8 13758072991463267324
18643901 69 18342455925135439671
18927931 339 18201717337073181539
19489759 90 18130787879876466657
20281389 69 9007063456644537646
21054139 6 18059857255477217946
21150785 3 17846776296129282444
21267235 1 18272367539163575675
21307412 95 18197789813284259911
21623969 137 17458339754194704038
220451 1 18060138786114189896
22288116 15 14764057910124414475
22896161 15 18334858299481474168
23035841 295 18413387627513301809
23081809 10 16917071100853228448
23198884 109 16558751204779061195
23402539 116 17561366200945474141
23559900 14 18127977408556410337
445580 160 18408881811018869822
636775 8 18337379470806474246
7062679 117 18272932721909270611

> <PUBCHEM_SHAPE_MULTIPOLES>
346.95
22.43
1.65
0.9
32.43
0.54
-0.05
10.38
3.06
-3.5
-0.1
0.12
-0.03
1.01

> <PUBCHEM_SHAPE_SELFOVERLAP>
690.396

> <PUBCHEM_SHAPE_VOLUME>
207.3

> <PUBCHEM_COORDINATE_TYPE>
2
5
10

$$$$

