51090933
  -OEChem-06241223003D

 38 39  0     1  0  0  0  0  0999 V2000
   -5.7181    2.3591    0.3173 F   0  0  0  0  0  0  0  0  0  0  0  0
   -4.5786    1.7890   -1.4511 F   0  0  0  0  0  0  0  0  0  0  0  0
   -5.8266    0.3137   -0.4285 F   0  0  0  0  0  0  0  0  0  0  0  0
    2.0479   -2.1148   -1.1550 O   0  0  0  0  0  0  0  0  0  0  0  0
   -3.0400   -0.0692    0.0487 N   0  0  1  0  0  0  0  0  0  0  0  0
    1.1065   -1.2076    0.7617 N   0  0  0  0  0  0  0  0  0  0  0  0
    3.1980    0.5015    0.9062 N   0  0  0  0  0  0  0  0  0  0  0  0
    5.2686    0.5020   -0.9857 N   0  0  0  0  0  0  0  0  0  0  0  0
   -1.2085   -1.4799    0.0439 C   0  0  1  0  0  0  0  0  0  0  0  0
   -2.4597   -2.3612    0.0650 C   0  0  0  0  0  0  0  0  0  0  0  0
   -1.6896   -0.1476    0.6069 C   0  0  0  0  0  0  0  0  0  0  0  0
   -3.6251   -1.3942    0.2643 C   0  0  0  0  0  0  0  0  0  0  0  0
   -0.0394   -2.0682    0.8159 C   0  0  0  0  0  0  0  0  0  0  0  0
   -3.8311    0.9937    0.6502 C   0  0  0  0  0  0  0  0  0  0  0  0
   -4.9961    1.3614   -0.2405 C   0  0  0  0  0  0  0  0  0  0  0  0
    2.0733   -1.3014   -0.2351 C   0  0  0  0  0  0  0  0  0  0  0  0
    3.2132   -0.3540   -0.1353 C   0  0  0  0  0  0  0  0  0  0  0  0
    4.2301   -0.3537   -1.0644 C   0  0  0  0  0  0  0  0  0  0  0  0
    4.2363    1.3573    0.9848 C   0  0  0  0  0  0  0  0  0  0  0  0
    5.2533    1.3576    0.0555 C   0  0  0  0  0  0  0  0  0  0  0  0
    6.3857    2.3167    0.1752 C   0  0  0  0  0  0  0  0  0  0  0  0
   -0.9109   -1.3306   -1.0044 H   0  0  0  0  0  0  0  0  0  0  0  0
   -2.5526   -2.9051   -0.8819 H   0  0  0  0  0  0  0  0  0  0  0  0
   -2.4346   -3.0993    0.8745 H   0  0  0  0  0  0  0  0  0  0  0  0
   -1.0626    0.6840    0.2686 H   0  0  0  0  0  0  0  0  0  0  0  0
   -1.7052   -0.1584    1.7047 H   0  0  0  0  0  0  0  0  0  0  0  0
   -4.4303   -1.6102   -0.4444 H   0  0  0  0  0  0  0  0  0  0  0  0
   -4.0186   -1.5128    1.2819 H   0  0  0  0  0  0  0  0  0  0  0  0
   -0.2936   -2.2044    1.8729 H   0  0  0  0  0  0  0  0  0  0  0  0
    0.2265   -3.0499    0.4079 H   0  0  0  0  0  0  0  0  0  0  0  0
   -3.2150    1.8957    0.7562 H   0  0  0  0  0  0  0  0  0  0  0  0
   -4.1794    0.7344    1.6572 H   0  0  0  0  0  0  0  0  0  0  0  0
    1.2104   -0.5024    1.4858 H   0  0  0  0  0  0  0  0  0  0  0  0
    4.2584   -1.0335   -1.9078 H   0  0  0  0  0  0  0  0  0  0  0  0
    4.2169    2.0416    1.8248 H   0  0  0  0  0  0  0  0  0  0  0  0
    6.9183    2.1616    1.1189 H   0  0  0  0  0  0  0  0  0  0  0  0
    7.1016    2.1836   -0.6425 H   0  0  0  0  0  0  0  0  0  0  0  0
    6.0181    3.3470    0.1377 H   0  0  0  0  0  0  0  0  0  0  0  0
  1 15  1  0  0  0  0
  2 15  1  0  0  0  0
  3 15  1  0  0  0  0
  4 16  2  0  0  0  0
  5 11  1  0  0  0  0
  5 12  1  0  0  0  0
  5 14  1  0  0  0  0
  6 13  1  0  0  0  0
  6 16  1  0  0  0  0
  6 33  1  0  0  0  0
  7 17  2  0  0  0  0
  7 19  1  0  0  0  0
  8 18  2  0  0  0  0
  8 20  1  0  0  0  0
  9 10  1  0  0  0  0
  9 11  1  0  0  0  0
  9 13  1  0  0  0  0
  9 22  1  0  0  0  0
 10 12  1  0  0  0  0
 10 23  1  0  0  0  0
 10 24  1  0  0  0  0
 11 25  1  0  0  0  0
 11 26  1  0  0  0  0
 12 27  1  0  0  0  0
 12 28  1  0  0  0  0
 13 29  1  0  0  0  0
 13 30  1  0  0  0  0
 14 15  1  0  0  0  0
 14 31  1  0  0  0  0
 14 32  1  0  0  0  0
 16 17  1  0  0  0  0
 17 18  1  0  0  0  0
 18 34  1  0  0  0  0
 19 20  2  0  0  0  0
 19 35  1  0  0  0  0
 20 21  1  0  0  0  0
 21 36  1  0  0  0  0
 21 37  1  0  0  0  0
 21 38  1  0  0  0  0
M  END
> <PUBCHEM_COMPOUND_CID>
51090933

> <PUBCHEM_CONFORMER_RMSD>
0.8

> <PUBCHEM_CONFORMER_DIVERSEORDER>
1
37
47
143
160
124
44
63
191
57
39
125
106
4
101
190
163
195
71
48
36
22
94
155
166
161
21
167
165
119
142
170
70
83
73
50
15
158
107
35
105
196
200
76
55
184
181
54
69
173
38
31
7
95
189
150
180
64
185
187
188
72
68
16
139
120
175
58
132
123
108
88
65
112
171
45
172
145
182
12
80
117
152
192
194
174
127
147
34
146
138
13
99
199
59
81
159
93
198
24
91
113
77
157
122
41
53
111
162
115
26
33
141
96
42
186
114
30
154
136
28
14
97
179
60
66
121
177
92
104
90
148
193
183
156
151
56
169
51
130
110
62
9
118
134
133
153
103
197
86
23
178
17
5
79
2
19
67
87
109
61
168
84
49
8
89
43
128
10
164
85
11
82
18
52
100
78
201
3
32
144
131
27
116
6
20
74
135
98
102
140
75
176
25
149
126
29
137
129
40
46

> <PUBCHEM_MMFF94_PARTIAL_CHARGES>
22
1 -0.34
11 0.27
12 0.27
13 0.3
14 0.27
15 1.02
16 0.54
17 0.4
18 0.16
19 0.16
2 -0.34
20 0.17
21 0.14
3 -0.34
33 0.37
34 0.15
35 0.15
4 -0.57
5 -0.81
6 -0.73
7 -0.62
8 -0.62

> <PUBCHEM_EFFECTIVE_ROTOR_COUNT>
7

> <PUBCHEM_PHARMACOPHORE_FEATURES>
7
1 4 acceptor
1 5 cation
1 6 donor
1 7 acceptor
1 8 acceptor
5 5 9 10 11 12 rings
6 7 8 17 18 19 20 rings

> <PUBCHEM_HEAVY_ATOM_COUNT>
21

> <PUBCHEM_ATOM_DEF_STEREO_COUNT>
0

> <PUBCHEM_ATOM_UDEF_STEREO_COUNT>
1

> <PUBCHEM_BOND_DEF_STEREO_COUNT>
0

> <PUBCHEM_BOND_UDEF_STEREO_COUNT>
0

> <PUBCHEM_ISOTOPIC_ATOM_COUNT>
0

> <PUBCHEM_COMPONENT_COUNT>
1

> <PUBCHEM_CACTVS_TAUTO_COUNT>
7

> <PUBCHEM_CONFORMER_ID>
030B95F500000001

> <PUBCHEM_MMFF94_ENERGY>
40.4835

> <PUBCHEM_FEATURE_SELFOVERLAP>
35.524

> <PUBCHEM_SHAPE_FINGERPRINT>
10014705 185 18410572872992532315
10378564 45 18260539066007557390
10498660 4 18335698338838410696
12107183 9 18200609098130266370
12390115 104 18410281524271104323
12403259 415 18337096896318005522
12596602 18 15554158207757324408
12633257 1 14476950181993137619
12730499 353 18334565858789066922
12760667 363 9079114454182326689
12769317 202 18260835895017435056
13402501 40 18409731738102716800
13955234 65 17914050065151550691
14123255 352 18411418393165484074
14216079 64 9079110056273335857
14251764 30 9151184146921808756
14251764 38 18125437501998879788
14251764 75 18337382872499642185
14341114 328 15697991938151948140
14528608 73 18113622287126562565
14739800 52 18341065059467680896
14950920 106 14189284946386566845
15238133 3 17917146097159356996
15342816 4 6483359902558444322
17780758 139 11959743671858499775
17834072 32 18411980256238958872
17959699 21 18408885165493244963
19784866 240 7060377041836125347
20281389 69 18272933825483822048
20621476 21 10087650320638483960
20645477 56 18411132537644287731
20645477 70 17168685480969098326
21054139 6 6122514501738548404
21401589 2 18201431485223993115
22289505 5 18113333107780499536
23227448 37 18337955593323852303
23402655 69 18113616789811231074
23522609 53 9294165875743406226
23557571 272 18336536123538593439
23559900 14 18188491418571295114
25122255 55 9223232957471989609
270888 7 18412546513349177992
2748736 6 18342184370520768157
2767999 5 18273218603274656549
2838139 119 18409453621457583213
2916195 48 18341610391090849954
312425 54 11672060861266729261
316301 35 9151173134673219140
3472631 163 18412545401015614229
34797466 226 17821720629002175527
351380 3 7925912573393218853
4028521 119 18334290955238471610
465052 167 10303810995333983888
5104073 3 18060137656342924491
543368 44 18408323294257311129
56633871 153 10087339146274417689
5969126 39 18120378657985491287
7062679 13 8718554900019963748
7808743 9 18342461413106397545
7970288 3 8574416622163469013
8863177 126 10159696889521528756
960060 61 16226050023868609114
9981440 41 18272367525683459066

> <PUBCHEM_SHAPE_MULTIPOLES>
384.56
15.46
2.61
1.01
1.82
0.08
-0.12
13.32
-1.88
-1.34
-0.03
0.34
0.04
1.19

> <PUBCHEM_SHAPE_SELFOVERLAP>
800.856

> <PUBCHEM_SHAPE_VOLUME>
221.3

> <PUBCHEM_COORDINATE_TYPE>
2
5
10

$$$$

