4575
  -OEChem-06261200133D

 47 50  0     1  0  0  0  0  0999 V2000
    0.7658   -0.0338    0.0438 O   0  0  0  0  0  0  0  0  0  0  0  0
   -3.9890    0.4974    0.1496 O   0  0  0  0  0  0  0  0  0  0  0  0
    1.4508    4.0656   -0.0967 O   0  0  0  0  0  0  0  0  0  0  0  0
   -1.2777    4.3620   -0.0385 O   0  0  0  0  0  0  0  0  0  0  0  0
   -2.6597   -1.7188   -0.9851 N   0  0  2  0  0  0  0  0  0  0  0  0
   -1.8459   -1.2247    0.1494 C   0  0  2  0  0  0  0  0  0  0  0  0
   -2.5368   -1.5217    1.4944 C   0  0  0  0  0  0  0  0  0  0  0  0
   -2.8722   -2.9998    1.6489 C   0  0  0  0  0  0  0  0  0  0  0  0
   -2.9472   -3.1587   -0.8541 C   0  0  0  0  0  0  0  0  0  0  0  0
   -3.6735   -3.4807    0.4495 C   0  0  0  0  0  0  0  0  0  0  0  0
   -1.5990    0.2581    0.0960 C   0  0  0  0  0  0  0  0  0  0  0  0
   -1.9992   -1.4829   -2.2758 C   0  0  0  0  0  0  0  0  0  0  0  0
   -0.3606    0.7902    0.0473 C   0  0  0  0  0  0  0  0  0  0  0  0
   -2.7641    1.1343    0.0985 C   0  0  0  0  0  0  0  0  0  0  0  0
   -0.1473    2.2377   -0.0025 C   0  0  0  0  0  0  0  0  0  0  0  0
   -2.6687    2.4706    0.0543 C   0  0  0  0  0  0  0  0  0  0  0  0
   -1.3447    3.1389    0.0000 C   0  0  0  0  0  0  0  0  0  0  0  0
    1.1046    2.7367   -0.0484 C   0  0  0  0  0  0  0  0  0  0  0  0
    2.0417    0.5164   -0.0076 C   0  0  0  0  0  0  0  0  0  0  0  0
    2.2391    1.8442   -0.0469 C   0  0  0  0  0  0  0  0  0  0  0  0
    3.1391   -0.4695    0.0070 C   0  0  0  0  0  0  0  0  0  0  0  0
    4.3688   -0.1453    0.5876 C   0  0  0  0  0  0  0  0  0  0  0  0
    2.9564   -1.7343   -0.5600 C   0  0  0  0  0  0  0  0  0  0  0  0
    5.4064   -1.0774    0.6012 C   0  0  0  0  0  0  0  0  0  0  0  0
    3.9939   -2.6665   -0.5462 C   0  0  0  0  0  0  0  0  0  0  0  0
    5.2189   -2.3382    0.0345 C   0  0  0  0  0  0  0  0  0  0  0  0
   -0.8945   -1.7745    0.1474 H   0  0  0  0  0  0  0  0  0  0  0  0
   -3.4620   -0.9734    1.6821 H   0  0  0  0  0  0  0  0  0  0  0  0
   -1.8622   -1.2403    2.3150 H   0  0  0  0  0  0  0  0  0  0  0  0
   -3.4375   -3.1652    2.5727 H   0  0  0  0  0  0  0  0  0  0  0  0
   -1.9456   -3.5811    1.7313 H   0  0  0  0  0  0  0  0  0  0  0  0
   -2.0205   -3.7455   -0.9103 H   0  0  0  0  0  0  0  0  0  0  0  0
   -3.5869   -3.4832   -1.6840 H   0  0  0  0  0  0  0  0  0  0  0  0
   -3.8392   -4.5614    0.5241 H   0  0  0  0  0  0  0  0  0  0  0  0
   -4.6617   -3.0036    0.4500 H   0  0  0  0  0  0  0  0  0  0  0  0
   -1.0134   -1.9594   -2.3267 H   0  0  0  0  0  0  0  0  0  0  0  0
   -1.8789   -0.4135   -2.4771 H   0  0  0  0  0  0  0  0  0  0  0  0
   -2.6114   -1.8736   -3.0968 H   0  0  0  0  0  0  0  0  0  0  0  0
   -3.5505    3.1019    0.0571 H   0  0  0  0  0  0  0  0  0  0  0  0
    3.2268    2.2898   -0.0991 H   0  0  0  0  0  0  0  0  0  0  0  0
   -3.9576   -0.2966   -0.4084 H   0  0  0  0  0  0  0  0  0  0  0  0
    0.6409    4.6014   -0.0941 H   0  0  0  0  0  0  0  0  0  0  0  0
    4.5463    0.8196    1.0555 H   0  0  0  0  0  0  0  0  0  0  0  0
    2.0142   -2.0138   -1.0256 H   0  0  0  0  0  0  0  0  0  0  0  0
    6.3591   -0.8237    1.0570 H   0  0  0  0  0  0  0  0  0  0  0  0
    3.8487   -3.6477   -0.9888 H   0  0  0  0  0  0  0  0  0  0  0  0
    6.0265   -3.0642    0.0459 H   0  0  0  0  0  0  0  0  0  0  0  0
  1 13  1  0  0  0  0
  1 19  1  0  0  0  0
  2 14  1  0  0  0  0
  2 41  1  0  0  0  0
  3 18  1  0  0  0  0
  3 42  1  0  0  0  0
  4 17  2  0  0  0  0
  5  6  1  0  0  0  0
  5  9  1  0  0  0  0
  5 12  1  0  0  0  0
  6  7  1  0  0  0  0
  6 11  1  0  0  0  0
  6 27  1  0  0  0  0
  7  8  1  0  0  0  0
  7 28  1  0  0  0  0
  7 29  1  0  0  0  0
  8 10  1  0  0  0  0
  8 30  1  0  0  0  0
  8 31  1  0  0  0  0
  9 10  1  0  0  0  0
  9 32  1  0  0  0  0
  9 33  1  0  0  0  0
 10 34  1  0  0  0  0
 10 35  1  0  0  0  0
 11 13  2  0  0  0  0
 11 14  1  0  0  0  0
 12 36  1  0  0  0  0
 12 37  1  0  0  0  0
 12 38  1  0  0  0  0
 13 15  1  0  0  0  0
 14 16  2  0  0  0  0
 15 17  1  0  0  0  0
 15 18  2  0  0  0  0
 16 17  1  0  0  0  0
 16 39  1  0  0  0  0
 18 20  1  0  0  0  0
 19 20  2  0  0  0  0
 19 21  1  0  0  0  0
 20 40  1  0  0  0  0
 21 22  2  0  0  0  0
 21 23  1  0  0  0  0
 22 24  1  0  0  0  0
 22 43  1  0  0  0  0
 23 25  2  0  0  0  0
 23 44  1  0  0  0  0
 24 26  2  0  0  0  0
 24 45  1  0  0  0  0
 25 26  1  0  0  0  0
 25 46  1  0  0  0  0
 26 47  1  0  0  0  0
M  END
> <PUBCHEM_COMPOUND_CID>
4575

> <PUBCHEM_CONFORMER_RMSD>
0.6

> <PUBCHEM_CONFORMER_DIVERSEORDER>
2
5
7
4
1
6
3

> <PUBCHEM_MMFF94_PARTIAL_CHARGES>
32
1 -0.15
11 -0.14
12 0.27
13 0.08
14 0.08
15 0.01
16 -0.14
17 0.54
18 0.08
19 0.05
2 -0.53
20 -0.15
21 0.03
22 -0.15
23 -0.15
24 -0.15
25 -0.15
26 -0.15
3 -0.53
39 0.15
4 -0.57
40 0.15
41 0.45
42 0.45
43 0.15
44 0.15
45 0.15
46 0.15
47 0.15
5 -0.81
6 0.41
9 0.27

> <PUBCHEM_EFFECTIVE_ROTOR_COUNT>
3.2

> <PUBCHEM_PHARMACOPHORE_FEATURES>
9
1 1 acceptor
1 2 donor
1 3 donor
1 4 acceptor
1 5 cation
6 1 13 15 18 19 20 rings
6 11 13 14 15 16 17 rings
6 21 22 23 24 25 26 rings
6 5 6 7 8 9 10 rings

> <PUBCHEM_HEAVY_ATOM_COUNT>
26

> <PUBCHEM_ATOM_DEF_STEREO_COUNT>
0

> <PUBCHEM_ATOM_UDEF_STEREO_COUNT>
1

> <PUBCHEM_BOND_DEF_STEREO_COUNT>
0

> <PUBCHEM_BOND_UDEF_STEREO_COUNT>
0

> <PUBCHEM_ISOTOPIC_ATOM_COUNT>
0

> <PUBCHEM_COMPONENT_COUNT>
1

> <PUBCHEM_CACTVS_TAUTO_COUNT>
12

> <PUBCHEM_CONFORMER_ID>
000011DF00000002

> <PUBCHEM_MMFF94_ENERGY>
72.9975

> <PUBCHEM_FEATURE_SELFOVERLAP>
45.695

> <PUBCHEM_SHAPE_FINGERPRINT>
10411042 1 18339360755925357731
10616163 171 18337109081235234910
10622 236 17318184818066657359
1100329 8 18412543223847393057
11014199 57 18411134701922598454
11578080 2 17314530157241889745
11720765 8 17246716618633115149
12035758 1 18264467642443931179
12107183 9 18264470833805592603
12363563 72 18341609270421351490
12422481 6 18042941303828855051
12553582 1 18265042531910816118
12788726 201 18268722773195548131
13140716 1 18409444748250607945
138480 1 15456494508537471066
14251757 5 18050266348918727214
14725015 67 17328298559451369086
14790565 3 17761487397832510192
14844126 61 18339648940004936626
14863182 85 17549534115969749460
14866123 147 18339359803001319851
15042514 8 18411414042643227185
15927050 60 17328023686409435797
16719943 64 17619063280204401562
16728300 4 17413312721544074499
17492 89 18338518508638551346
19141452 34 18262518207641997128
19315092 285 16590856802434372435
19591789 44 17834675272395002339
19930381 70 17907578025971879211
20028762 73 18116993493780256997
20101258 96 18410284792371860194
20775438 99 17542275265337343661
21133410 52 17179702359994073822
21133410 58 18049457950217862407
21133665 82 17398950965541007550
221490 88 18341047398599049850
23557571 272 18189894404498399060
23559900 14 18337963298274109464
23728640 28 18266458896034092059
283562 15 17687470478205387456
3383291 50 18340487889052076851
3421961 26 18122620557192086499
4616759 239 17969801846478728554
5104073 3 18335145306486917258
5309563 4 18051124800653346026
5364581 5 18190483635599597456
550186 72 18339928126387018564
613672 6 18266760007818109890
9709674 26 18263361567905841734

> <PUBCHEM_SHAPE_MULTIPOLES>
506.61
8.88
5.3
1.13
10.46
2.79
-0.23
-8.33
1.02
-3.01
0.05
-0.94
-1.01
0.42

> <PUBCHEM_SHAPE_SELFOVERLAP>
1112.01

> <PUBCHEM_SHAPE_VOLUME>
271.9

> <PUBCHEM_COORDINATE_TYPE>
2
5
10

$$$$

