47205294
  -OEChem-06241222583D

 33 34  0     0  0  0  0  0  0999 V2000
    0.1952    2.5771    1.2975 O   0  0  0  0  0  0  0  0  0  0  0  0
   -3.0376   -0.3061   -1.6916 O   0  0  0  0  0  0  0  0  0  0  0  0
    0.6370    1.8989   -0.8787 N   0  0  0  0  0  0  0  0  0  0  0  0
    2.2315   -0.6774   -1.1094 N   0  0  0  0  0  0  0  0  0  0  0  0
    2.6971   -1.8288   -0.5959 N   0  0  0  0  0  0  0  0  0  0  0  0
   -2.5038    1.3515    0.5831 C   0  0  0  0  0  0  0  0  0  0  0  0
   -1.6478    2.3050   -0.2485 C   0  0  0  0  0  0  0  0  0  0  0  0
   -2.0239   -0.0722    0.4681 C   0  0  0  0  0  0  0  0  0  0  0  0
   -0.1878    2.2849    0.1679 C   0  0  0  0  0  0  0  0  0  0  0  0
    2.0707    1.7999   -0.7384 C   0  0  0  0  0  0  0  0  0  0  0  0
   -2.3139   -0.8330   -0.6643 C   0  0  0  0  0  0  0  0  0  0  0  0
    2.5023    0.4174   -0.3423 C   0  0  0  0  0  0  0  0  0  0  0  0
   -1.2821   -0.6279    1.5105 C   0  0  0  0  0  0  0  0  0  0  0  0
   -1.8622   -2.1497   -0.7545 C   0  0  0  0  0  0  0  0  0  0  0  0
   -0.8304   -1.9446    1.4203 C   0  0  0  0  0  0  0  0  0  0  0  0
    3.1928   -0.0503    0.7490 C   0  0  0  0  0  0  0  0  0  0  0  0
   -1.1204   -2.7055    0.2879 C   0  0  0  0  0  0  0  0  0  0  0  0
    3.2834   -1.4394    0.5393 C   0  0  0  0  0  0  0  0  0  0  0  0
   -2.4896    1.6644    1.6351 H   0  0  0  0  0  0  0  0  0  0  0  0
   -3.5526    1.4168    0.2685 H   0  0  0  0  0  0  0  0  0  0  0  0
   -2.0076    3.3318   -0.1116 H   0  0  0  0  0  0  0  0  0  0  0  0
   -1.7538    2.0818   -1.3160 H   0  0  0  0  0  0  0  0  0  0  0  0
    2.4158    2.5294    0.0025 H   0  0  0  0  0  0  0  0  0  0  0  0
    2.5139    2.0631   -1.7048 H   0  0  0  0  0  0  0  0  0  0  0  0
    0.2346    1.6507   -1.7775 H   0  0  0  0  0  0  0  0  0  0  0  0
   -1.0460   -0.0479    2.3987 H   0  0  0  0  0  0  0  0  0  0  0  0
   -2.0802   -2.7538   -1.6311 H   0  0  0  0  0  0  0  0  0  0  0  0
   -0.2509   -2.3767    2.2309 H   0  0  0  0  0  0  0  0  0  0  0  0
    3.5752    0.5286    1.5769 H   0  0  0  0  0  0  0  0  0  0  0  0
   -0.7672   -3.7300    0.2173 H   0  0  0  0  0  0  0  0  0  0  0  0
    1.7334   -0.7128   -1.9902 H   0  0  0  0  0  0  0  0  0  0  0  0
    3.7516   -2.1841    1.1667 H   0  0  0  0  0  0  0  0  0  0  0  0
   -3.1364   -0.9780   -2.3878 H   0  0  0  0  0  0  0  0  0  0  0  0
  1  9  2  0  0  0  0
  2 11  1  0  0  0  0
  2 33  1  0  0  0  0
  3  9  1  0  0  0  0
  3 10  1  0  0  0  0
  3 25  1  0  0  0  0
  4  5  1  0  0  0  0
  4 12  1  0  0  0  0
  4 31  1  0  0  0  0
  5 18  2  0  0  0  0
  6  7  1  0  0  0  0
  6  8  1  0  0  0  0
  6 19  1  0  0  0  0
  6 20  1  0  0  0  0
  7  9  1  0  0  0  0
  7 21  1  0  0  0  0
  7 22  1  0  0  0  0
  8 11  1  0  0  0  0
  8 13  2  0  0  0  0
 10 12  1  0  0  0  0
 10 23  1  0  0  0  0
 10 24  1  0  0  0  0
 11 14  2  0  0  0  0
 12 16  2  0  0  0  0
 13 15  1  0  0  0  0
 13 26  1  0  0  0  0
 14 17  1  0  0  0  0
 14 27  1  0  0  0  0
 15 17  2  0  0  0  0
 15 28  1  0  0  0  0
 16 18  1  0  0  0  0
 16 29  1  0  0  0  0
 17 30  1  0  0  0  0
 18 32  1  0  0  0  0
M  END
> <PUBCHEM_COMPOUND_CID>
47205294

> <PUBCHEM_CONFORMER_RMSD>
0.8

> <PUBCHEM_CONFORMER_DIVERSEORDER>
1
105
118
168
36
186
55
176
9
182
12
96
133
183
115
38
185
97
68
138
151
213
2
131
145
108
53
13
197
117
130
120
18
79
24
4
76
65
119
22
154
106
158
28
164
60
172
88
21
214
10
102
111
74
71
162
136
139
98
208
126
73
201
150
43
155
210
72
207
188
159
160
46
82
89
147
99
87
205
35
69
83
211
8
146
84
184
137
195
57
41
125
93
157
104
39
3
204
167
47
193
95
17
152
163
178
142
114
19
58
54
78
121
11
113
206
70
5
50
149
77
32
181
109
110
103
42
165
91
26
23
148
215
199
161
27
31
179
202
62
85
25
218
189
100
107
175
171
141
92
166
81
132
63
127
194
56
173
59
129
15
203
34
219
6
66
112
80
40
143
190
156
101
180
20
198
16
49
61
177
153
128
7
48
51
192
174
37
212
135
67
216
144
33
122
64
94
14
209
140
44
187
123
75
124
200
169
52
86
90
116
191
30
170
29
134
45
196
217

> <PUBCHEM_MMFF94_PARTIAL_CHARGES>
27
1 -0.57
10 0.48
11 0.08
12 -0.33
13 -0.15
14 -0.15
15 -0.15
16 -0.15
17 -0.15
18 0.14
2 -0.53
25 0.37
26 0.15
27 0.15
28 0.15
29 0.15
3 -0.73
30 0.15
31 0.27
32 0.15
33 0.45
4 0.3
5 -0.71
6 0.14
7 0.06
8 -0.14
9 0.57

> <PUBCHEM_EFFECTIVE_ROTOR_COUNT>
6

> <PUBCHEM_PHARMACOPHORE_FEATURES>
7
1 1 acceptor
1 2 donor
1 3 donor
1 4 donor
1 5 acceptor
5 4 5 12 16 18 rings
6 8 11 13 14 15 17 rings

> <PUBCHEM_HEAVY_ATOM_COUNT>
18

> <PUBCHEM_ATOM_DEF_STEREO_COUNT>
0

> <PUBCHEM_ATOM_UDEF_STEREO_COUNT>
0

> <PUBCHEM_BOND_DEF_STEREO_COUNT>
0

> <PUBCHEM_BOND_UDEF_STEREO_COUNT>
0

> <PUBCHEM_ISOTOPIC_ATOM_COUNT>
0

> <PUBCHEM_COMPONENT_COUNT>
1

> <PUBCHEM_CACTVS_TAUTO_COUNT>
12

> <PUBCHEM_CONFORMER_ID>
02D04BAE00000001

> <PUBCHEM_MMFF94_ENERGY>
26.2632

> <PUBCHEM_FEATURE_SELFOVERLAP>
35.521

> <PUBCHEM_SHAPE_FINGERPRINT>
11321824 6 18260822657617063775
12035759 4 18048621466839301405
12553582 1 18338226072963128668
12592029 89 17696739327126055985
12633257 1 18043263516432647000
14081887 123 18334871540902669064
1420 336 18340483464845052986
14251711 518 18341316813202397162
14251745 187 18264222330622393312
15881359 60 18190440813926193027
18981168 100 11455075496762107817
192875 21 18337973232522753318
20645476 183 17486175033196558324
22713034 7 17760911962128649067
23419403 2 17617152071191612292
238 59 17259074990977675455
257057 1 18265061244898422414
6443956 14 16613335063702796347
81228 2 18339077198152850040

> <PUBCHEM_SHAPE_MULTIPOLES>
343.75
4.98
3.29
1.34
2.95
0.5
0.07
-1.34
-0.71
-0.55
0.24
-0.43
-0.17
-0.27

> <PUBCHEM_SHAPE_SELFOVERLAP>
724.584

> <PUBCHEM_SHAPE_VOLUME>
192.3

> <PUBCHEM_COORDINATE_TYPE>
2
5
10

$$$$

