17395323
  -OEChem-06241222492D

 48 49  0     0  0  0  0  0  0999 V2000
    5.1350    4.5000    0.0000 O   0  0  0  0  0  0  0  0  0  0  0  0
    2.5369   -3.0000    0.0000 O   0  0  0  0  0  0  0  0  0  0  0  0
    6.0010   -2.0000    0.0000 O   0  0  0  0  0  0  0  0  0  0  0  0
    6.8671    4.5000    0.0000 N   0  0  0  0  0  0  0  0  0  0  0  0
    6.0010    3.0000    0.0000 N   0  0  0  0  0  0  0  0  0  0  0  0
    4.2690   -2.0000    0.0000 N   0  0  0  0  0  0  0  0  0  0  0  0
    6.8671    5.5000    0.0000 C   0  0  0  0  0  0  0  0  0  0  0  0
    5.1350    1.5000    0.0000 C   0  0  0  0  0  0  0  0  0  0  0  0
    5.1350    2.5000    0.0000 C   0  0  0  0  0  0  0  0  0  0  0  0
    5.1350   -0.5000    0.0000 C   0  0  0  0  0  0  0  0  0  0  0  0
    6.0010    1.0000    0.0000 C   0  0  0  0  0  0  0  0  0  0  0  0
    4.2690    1.0000    0.0000 C   0  0  0  0  0  0  0  0  0  0  0  0
    7.7331    6.0000    0.0000 C   0  0  0  0  0  0  0  0  0  0  0  0
    6.0010    6.0000    0.0000 C   0  0  0  0  0  0  0  0  0  0  0  0
    6.0010    4.0000    0.0000 C   0  0  0  0  0  0  0  0  0  0  0  0
    6.0010    0.0000    0.0000 C   0  0  0  0  0  0  0  0  0  0  0  0
    4.2690    0.0000    0.0000 C   0  0  0  0  0  0  0  0  0  0  0  0
    4.2690   -3.0000    0.0000 C   0  0  0  0  0  0  0  0  0  0  0  0
    5.1350   -1.5000    0.0000 C   0  0  0  0  0  0  0  0  0  0  0  0
    3.4030   -3.5000    0.0000 C   0  0  0  0  0  0  0  0  0  0  0  0
    4.2690   -5.0000    0.0000 C   0  0  0  0  0  0  0  0  0  0  0  0
    5.1350   -3.5000    0.0000 C   0  0  0  0  0  0  0  0  0  0  0  0
    3.4030   -4.5000    0.0000 C   0  0  0  0  0  0  0  0  0  0  0  0
    5.1350   -4.5000    0.0000 C   0  0  0  0  0  0  0  0  0  0  0  0
    4.2690   -6.0000    0.0000 C   0  0  0  0  0  0  0  0  0  0  0  0
    6.3301    5.1900    0.0000 H   0  0  0  0  0  0  0  0  0  0  0  0
    4.9230    3.0826    0.0000 H   0  0  0  0  0  0  0  0  0  0  0  0
    4.5244    2.3923    0.0000 H   0  0  0  0  0  0  0  0  0  0  0  0
    7.4040    4.1900    0.0000 H   0  0  0  0  0  0  0  0  0  0  0  0
    6.5380    2.6900    0.0000 H   0  0  0  0  0  0  0  0  0  0  0  0
    6.5380    1.3100    0.0000 H   0  0  0  0  0  0  0  0  0  0  0  0
    3.7320    1.3100    0.0000 H   0  0  0  0  0  0  0  0  0  0  0  0
    8.0431    5.4631    0.0000 H   0  0  0  0  0  0  0  0  0  0  0  0
    8.2700    6.3100    0.0000 H   0  0  0  0  0  0  0  0  0  0  0  0
    7.4231    6.5369    0.0000 H   0  0  0  0  0  0  0  0  0  0  0  0
    6.3110    6.5369    0.0000 H   0  0  0  0  0  0  0  0  0  0  0  0
    5.4641    6.3100    0.0000 H   0  0  0  0  0  0  0  0  0  0  0  0
    5.6910    5.4631    0.0000 H   0  0  0  0  0  0  0  0  0  0  0  0
    6.5380   -0.3100    0.0000 H   0  0  0  0  0  0  0  0  0  0  0  0
    3.7320   -0.3100    0.0000 H   0  0  0  0  0  0  0  0  0  0  0  0
    3.7320   -1.6900    0.0000 H   0  0  0  0  0  0  0  0  0  0  0  0
    5.6720   -3.1900    0.0000 H   0  0  0  0  0  0  0  0  0  0  0  0
    2.8660   -4.8100    0.0000 H   0  0  0  0  0  0  0  0  0  0  0  0
    5.6720   -4.8100    0.0000 H   0  0  0  0  0  0  0  0  0  0  0  0
    3.6490   -6.0000    0.0000 H   0  0  0  0  0  0  0  0  0  0  0  0
    4.2690   -6.6200    0.0000 H   0  0  0  0  0  0  0  0  0  0  0  0
    4.8890   -6.0000    0.0000 H   0  0  0  0  0  0  0  0  0  0  0  0
    2.0000   -3.3100    0.0000 H   0  0  0  0  0  0  0  0  0  0  0  0
  1 15  2  0  0  0  0
  2 20  1  0  0  0  0
  2 48  1  0  0  0  0
  3 19  2  0  0  0  0
  4  7  1  0  0  0  0
  4 15  1  0  0  0  0
  4 29  1  0  0  0  0
  5  9  1  0  0  0  0
  5 15  1  0  0  0  0
  5 30  1  0  0  0  0
  6 18  1  0  0  0  0
  6 19  1  0  0  0  0
  6 41  1  0  0  0  0
  7 13  1  0  0  0  0
  7 14  1  0  0  0  0
  7 26  1  0  0  0  0
  8  9  1  0  0  0  0
  8 11  2  0  0  0  0
  8 12  1  0  0  0  0
  9 27  1  0  0  0  0
  9 28  1  0  0  0  0
 10 16  2  0  0  0  0
 10 17  1  0  0  0  0
 10 19  1  0  0  0  0
 11 16  1  0  0  0  0
 11 31  1  0  0  0  0
 12 17  2  0  0  0  0
 12 32  1  0  0  0  0
 13 33  1  0  0  0  0
 13 34  1  0  0  0  0
 13 35  1  0  0  0  0
 14 36  1  0  0  0  0
 14 37  1  0  0  0  0
 14 38  1  0  0  0  0
 16 39  1  0  0  0  0
 17 40  1  0  0  0  0
 18 20  2  0  0  0  0
 18 22  1  0  0  0  0
 20 23  1  0  0  0  0
 21 23  2  0  0  0  0
 21 24  1  0  0  0  0
 21 25  1  0  0  0  0
 22 24  2  0  0  0  0
 22 42  1  0  0  0  0
 23 43  1  0  0  0  0
 24 44  1  0  0  0  0
 25 45  1  0  0  0  0
 25 46  1  0  0  0  0
 25 47  1  0  0  0  0
M  END
> <PUBCHEM_COMPOUND_CID>
17395323

> <PUBCHEM_COMPOUND_CANONICALIZED>
1

> <PUBCHEM_CACTVS_COMPLEXITY>
447

> <PUBCHEM_CACTVS_HBOND_ACCEPTOR>
3

> <PUBCHEM_CACTVS_HBOND_DONOR>
4

> <PUBCHEM_CACTVS_ROTATABLE_BOND>
5

> <PUBCHEM_CACTVS_SUBSKEYS>
AAADceB7MAAAAAAAAAAAAAAAAAAAAAAAAAAwYAAAAAAAAAABQAAAHgAQCAAADCzBmAQzxoLAAgCIAiVSUACCAAAlIgAIiIEPbMiKJjLSlZOEcQhs1hPY2YeYyBCOSAABAAAAEACQAAIAAAAgAAAAAAAAAA==

> <PUBCHEM_IUPAC_OPENEYE_NAME>
N-(2-hydroxy-4-methyl-phenyl)-4-[(isopropylcarbamoylamino)methyl]benzamide

> <PUBCHEM_IUPAC_CAS_NAME>
N-(2-hydroxy-4-methylphenyl)-4-[[[oxo-(propan-2-ylamino)methyl]amino]methyl]benzamide

> <PUBCHEM_IUPAC_NAME>
N-(2-hydroxy-4-methylphenyl)-4-[(propan-2-ylcarbamoylamino)methyl]benzamide

> <PUBCHEM_IUPAC_SYSTEMATIC_NAME>
N-(4-methyl-2-oxidanyl-phenyl)-4-[(propan-2-ylcarbamoylamino)methyl]benzamide

> <PUBCHEM_IUPAC_TRADITIONAL_NAME>
N-(2-hydroxy-4-methyl-phenyl)-4-[(isopropylcarbamoylamino)methyl]benzamide

> <PUBCHEM_IUPAC_INCHI>
InChI=1S/C19H23N3O3/c1-12(2)21-19(25)20-11-14-5-7-15(8-6-14)18(24)22-16-9-4-13(3)10-17(16)23/h4-10,12,23H,11H2,1-3H3,(H,22,24)(H2,20,21,25)

> <PUBCHEM_IUPAC_INCHIKEY>
RVDMSJMJLBOPMM-UHFFFAOYSA-N

> <PUBCHEM_XLOGP3>
2.8

> <PUBCHEM_EXACT_MASS>
341.173942

> <PUBCHEM_MOLECULAR_FORMULA>
C19H23N3O3

> <PUBCHEM_MOLECULAR_WEIGHT>
341.40422

> <PUBCHEM_OPENEYE_CAN_SMILES>
CC1=CC(=C(C=C1)NC(=O)C2=CC=C(C=C2)CNC(=O)NC(C)C)O

> <PUBCHEM_OPENEYE_ISO_SMILES>
CC1=CC(=C(C=C1)NC(=O)C2=CC=C(C=C2)CNC(=O)NC(C)C)O

> <PUBCHEM_CACTVS_TPSA>
90.5

> <PUBCHEM_MONOISOTOPIC_WEIGHT>
341.173942

> <PUBCHEM_TOTAL_CHARGE>
0

> <PUBCHEM_HEAVY_ATOM_COUNT>
25

> <PUBCHEM_ATOM_DEF_STEREO_COUNT>
0

> <PUBCHEM_ATOM_UDEF_STEREO_COUNT>
0

> <PUBCHEM_BOND_DEF_STEREO_COUNT>
0

> <PUBCHEM_BOND_UDEF_STEREO_COUNT>
0

> <PUBCHEM_ISOTOPIC_ATOM_COUNT>
0

> <PUBCHEM_COMPONENT_COUNT>
1

> <PUBCHEM_CACTVS_TAUTO_COUNT>
60

> <PUBCHEM_COORDINATE_TYPE>
1
5
255

> <PUBCHEM_BONDANNOTATIONS>
10  16  8
10  17  8
11  16  8
12  17  8
18  20  8
18  22  8
20  23  8
21  23  8
21  24  8
22  24  8
8  11  8
8  12  8

$$$$

