17396386
  -OEChem-06241222562D

 40 42  0     0  0  0  0  0  0999 V2000
    6.1808   -2.0000    0.0000 O   0  0  0  0  0  0  0  0  0  0  0  0
    9.6448    2.0000    0.0000 O   0  0  0  0  0  0  0  0  0  0  0  0
    7.0468   -0.5000    0.0000 N   0  0  0  0  0  0  0  0  0  0  0  0
    3.5827   -0.5000    0.0000 N   0  0  0  0  0  0  0  0  0  0  0  0
    9.6448   -1.0000    0.0000 N   0  0  0  0  0  0  0  0  0  0  0  0
    8.7788    0.5000    0.0000 N   0  0  0  0  0  0  0  0  0  0  0  0
    2.0000   -0.1636    0.0000 N   0  0  0  0  0  0  0  0  0  0  0  0
    7.9128   -1.0000    0.0000 C   0  0  0  0  0  0  0  0  0  0  0  0
    5.3147   -0.5000    0.0000 C   0  0  0  0  0  0  0  0  0  0  0  0
    4.4487   -1.0000    0.0000 C   0  0  0  0  0  0  0  0  0  0  0  0
    6.1808   -1.0000    0.0000 C   0  0  0  0  0  0  0  0  0  0  0  0
    8.7788   -0.5000    0.0000 C   0  0  0  0  0  0  0  0  0  0  0  0
   10.5109   -0.5000    0.0000 C   0  0  0  0  0  0  0  0  0  0  0  0
   10.5109    0.5000    0.0000 C   0  0  0  0  0  0  0  0  0  0  0  0
    7.0468    0.5000    0.0000 C   0  0  0  0  0  0  0  0  0  0  0  0
    9.6448    1.0000    0.0000 C   0  0  0  0  0  0  0  0  0  0  0  0
   11.4048   -1.0347    0.0000 C   0  0  0  0  0  0  0  0  0  0  0  0
    3.4782    0.4945    0.0000 C   0  0  0  0  0  0  0  0  0  0  0  0
   11.4048    1.0347    0.0000 C   0  0  0  0  0  0  0  0  0  0  0  0
    2.6691   -0.9067    0.0000 C   0  0  0  0  0  0  0  0  0  0  0  0
   12.3109   -0.5208    0.0000 C   0  0  0  0  0  0  0  0  0  0  0  0
   12.3109    0.5208    0.0000 C   0  0  0  0  0  0  0  0  0  0  0  0
    2.5000    0.7024    0.0000 C   0  0  0  0  0  0  0  0  0  0  0  0
    7.5143   -1.4750    0.0000 H   0  0  0  0  0  0  0  0  0  0  0  0
    8.3113   -1.4750    0.0000 H   0  0  0  0  0  0  0  0  0  0  0  0
    5.7133   -0.0251    0.0000 H   0  0  0  0  0  0  0  0  0  0  0  0
    4.9162   -0.0251    0.0000 H   0  0  0  0  0  0  0  0  0  0  0  0
    4.0502   -1.4750    0.0000 H   0  0  0  0  0  0  0  0  0  0  0  0
    4.8472   -1.4750    0.0000 H   0  0  0  0  0  0  0  0  0  0  0  0
    9.6448   -1.6200    0.0000 H   0  0  0  0  0  0  0  0  0  0  0  0
    7.6668    0.5000    0.0000 H   0  0  0  0  0  0  0  0  0  0  0  0
    7.0468    1.1200    0.0000 H   0  0  0  0  0  0  0  0  0  0  0  0
    6.4268    0.5000    0.0000 H   0  0  0  0  0  0  0  0  0  0  0  0
   11.3977   -1.6546    0.0000 H   0  0  0  0  0  0  0  0  0  0  0  0
    3.9389    0.9094    0.0000 H   0  0  0  0  0  0  0  0  0  0  0  0
   11.3977    1.6546    0.0000 H   0  0  0  0  0  0  0  0  0  0  0  0
    2.5402   -1.5132    0.0000 H   0  0  0  0  0  0  0  0  0  0  0  0
   12.8466   -0.8329    0.0000 H   0  0  0  0  0  0  0  0  0  0  0  0
   12.8466    0.8329    0.0000 H   0  0  0  0  0  0  0  0  0  0  0  0
    2.2478    1.2688    0.0000 H   0  0  0  0  0  0  0  0  0  0  0  0
  1 11  2  0  0  0  0
  2 16  2  0  0  0  0
  3  8  1  0  0  0  0
  3 11  1  0  0  0  0
  3 15  1  0  0  0  0
  4 10  1  0  0  0  0
  4 18  1  0  0  0  0
  4 20  1  0  0  0  0
  5 12  1  0  0  0  0
  5 13  1  0  0  0  0
  5 30  1  0  0  0  0
  6 12  2  0  0  0  0
  6 16  1  0  0  0  0
  7 20  2  0  0  0  0
  7 23  1  0  0  0  0
  8 12  1  0  0  0  0
  8 24  1  0  0  0  0
  8 25  1  0  0  0  0
  9 10  1  0  0  0  0
  9 11  1  0  0  0  0
  9 26  1  0  0  0  0
  9 27  1  0  0  0  0
 10 28  1  0  0  0  0
 10 29  1  0  0  0  0
 13 14  1  0  0  0  0
 13 17  2  0  0  0  0
 14 16  1  0  0  0  0
 14 19  2  0  0  0  0
 15 31  1  0  0  0  0
 15 32  1  0  0  0  0
 15 33  1  0  0  0  0
 17 21  1  0  0  0  0
 17 34  1  0  0  0  0
 18 23  2  0  0  0  0
 18 35  1  0  0  0  0
 19 22  1  0  0  0  0
 19 36  1  0  0  0  0
 20 37  1  0  0  0  0
 21 22  2  0  0  0  0
 21 38  1  0  0  0  0
 22 39  1  0  0  0  0
 23 40  1  0  0  0  0
M  END
> <PUBCHEM_COMPOUND_CID>
17396386

> <PUBCHEM_COMPOUND_CANONICALIZED>
1

> <PUBCHEM_CACTVS_COMPLEXITY>
493

> <PUBCHEM_CACTVS_HBOND_ACCEPTOR>
3

> <PUBCHEM_CACTVS_HBOND_DONOR>
1

> <PUBCHEM_CACTVS_ROTATABLE_BOND>
5

> <PUBCHEM_CACTVS_SUBSKEYS>
AAADceB7sAAAAAAAAAAAAAAAAAAAAWAAAAAwQAAAAAAAAACBwAAAHgAQAAAADAjBmgQ/0JfMEACoAjd3dACCgC01EqAJyAEYdMiIaDrA3ZGUIYholgLIyecYiACOAAAAAAACAAAAAAAAAAQAAAAAAAAAAA==

> <PUBCHEM_IUPAC_OPENEYE_NAME>
3-imidazol-1-yl-N-methyl-N-[(4-oxo-1H-quinazolin-2-yl)methyl]propanamide

> <PUBCHEM_IUPAC_CAS_NAME>
3-(1-imidazolyl)-N-methyl-N-[(4-oxo-1H-quinazolin-2-yl)methyl]propanamide

> <PUBCHEM_IUPAC_NAME>
3-imidazol-1-yl-N-methyl-N-[(4-oxo-1H-quinazolin-2-yl)methyl]propanamide

> <PUBCHEM_IUPAC_SYSTEMATIC_NAME>
3-imidazol-1-yl-N-methyl-N-[(4-oxidanylidene-1H-quinazolin-2-yl)methyl]propanamide

> <PUBCHEM_IUPAC_TRADITIONAL_NAME>
3-imidazol-1-yl-N-[(4-keto-1H-quinazolin-2-yl)methyl]-N-methyl-propionamide

> <PUBCHEM_IUPAC_INCHI>
InChI=1S/C16H17N5O2/c1-20(15(22)6-8-21-9-7-17-11-21)10-14-18-13-5-3-2-4-12(13)16(23)19-14/h2-5,7,9,11H,6,8,10H2,1H3,(H,18,19,23)

> <PUBCHEM_IUPAC_INCHIKEY>
OLGKDGBSYOFMGR-UHFFFAOYSA-N

> <PUBCHEM_XLOGP3_AA>
-0.1

> <PUBCHEM_EXACT_MASS>
311.138225

> <PUBCHEM_MOLECULAR_FORMULA>
C16H17N5O2

> <PUBCHEM_MOLECULAR_WEIGHT>
311.33848

> <PUBCHEM_OPENEYE_CAN_SMILES>
CN(CC1=NC(=O)C2=CC=CC=C2N1)C(=O)CCN3C=CN=C3

> <PUBCHEM_OPENEYE_ISO_SMILES>
CN(CC1=NC(=O)C2=CC=CC=C2N1)C(=O)CCN3C=CN=C3

> <PUBCHEM_CACTVS_TPSA>
79.6

> <PUBCHEM_MONOISOTOPIC_WEIGHT>
311.138225

> <PUBCHEM_TOTAL_CHARGE>
0

> <PUBCHEM_HEAVY_ATOM_COUNT>
23

> <PUBCHEM_ATOM_DEF_STEREO_COUNT>
0

> <PUBCHEM_ATOM_UDEF_STEREO_COUNT>
0

> <PUBCHEM_BOND_DEF_STEREO_COUNT>
0

> <PUBCHEM_BOND_UDEF_STEREO_COUNT>
0

> <PUBCHEM_ISOTOPIC_ATOM_COUNT>
0

> <PUBCHEM_COMPONENT_COUNT>
1

> <PUBCHEM_CACTVS_TAUTO_COUNT>
10

> <PUBCHEM_COORDINATE_TYPE>
1
5
255

> <PUBCHEM_BONDANNOTATIONS>
13  14  8
13  17  8
14  16  8
14  19  8
17  21  8
18  23  8
19  22  8
21  22  8
4  18  8
4  20  8
5  12  8
5  13  8
6  12  8
6  16  8
7  20  8
7  23  8

$$$$

