12840
  -OEChem-06261207263D

 19 20  0     0  0  0  0  0  0999 V2000
    2.7611    1.2748    0.1572 O   0  0  0  0  0  0  0  0  0  0  0  0
    2.9296   -1.1190   -0.0641 O   0  0  0  0  0  0  0  0  0  0  0  0
   -2.1428    2.4261    0.0668 O   0  5  0  0  0  0  0  0  0  0  0  0
   -3.1299    0.4779   -0.1561 O   0  0  0  0  0  0  0  0  0  0  0  0
   -2.5055   -2.1753    0.6587 O   0  0  0  0  0  0  0  0  0  0  0  0
   -2.0970    1.1790   -0.0474 N   0  3  0  0  0  0  0  0  0  0  0  0
    1.5422    0.6782    0.0532 C   0  0  0  0  0  0  0  0  0  0  0  0
    1.6386   -0.6887   -0.0732 C   0  0  0  0  0  0  0  0  0  0  0  0
   -0.8268    0.5364   -0.0547 C   0  0  0  0  0  0  0  0  0  0  0  0
   -0.7283   -0.8603   -0.1839 C   0  0  0  0  0  0  0  0  0  0  0  0
    0.3219    1.3220    0.0661 C   0  0  0  0  0  0  0  0  0  0  0  0
    0.5200   -1.4873   -0.1939 C   0  0  0  0  0  0  0  0  0  0  0  0
    3.6352    0.1301    0.0827 C   0  0  0  0  0  0  0  0  0  0  0  0
   -1.9182   -1.6939   -0.3113 C   0  0  0  0  0  0  0  0  0  0  0  0
    0.2924    2.4019    0.1672 H   0  0  0  0  0  0  0  0  0  0  0  0
    0.6132   -2.5637   -0.2931 H   0  0  0  0  0  0  0  0  0  0  0  0
    4.2369    0.0879    0.9979 H   0  0  0  0  0  0  0  0  0  0  0  0
    4.3067    0.2566   -0.7742 H   0  0  0  0  0  0  0  0  0  0  0  0
   -2.2533   -1.8911   -1.3441 H   0  0  0  0  0  0  0  0  0  0  0  0
  1  7  1  0  0  0  0
  1 13  1  0  0  0  0
  2  8  1  0  0  0  0
  2 13  1  0  0  0  0
  3  6  1  0  0  0  0
  4  6  2  0  0  0  0
  5 14  2  0  0  0  0
  6  9  1  0  0  0  0
  7  8  2  0  0  0  0
  7 11  1  0  0  0  0
  8 12  1  0  0  0  0
  9 10  1  0  0  0  0
  9 11  2  0  0  0  0
 10 12  2  0  0  0  0
 10 14  1  0  0  0  0
 11 15  1  0  0  0  0
 12 16  1  0  0  0  0
 13 17  1  0  0  0  0
 13 18  1  0  0  0  0
 14 19  1  0  0  0  0
M  CHG  2   3  -1   6   1
M  END
> <PUBCHEM_COMPOUND_CID>
12840

> <PUBCHEM_CONFORMER_RMSD>
0.6

> <PUBCHEM_CONFORMER_DIVERSEORDER>
1

> <PUBCHEM_MMFF94_PARTIAL_CHARGES>
17
1 -0.36
10 0.09
11 -0.15
12 -0.15
13 0.56
14 0.42
15 0.15
16 0.15
19 0.06
2 -0.36
3 -0.52
4 -0.52
5 -0.57
6 0.91
7 0.08
8 0.08
9 0.13

> <PUBCHEM_EFFECTIVE_ROTOR_COUNT>
2.6

> <PUBCHEM_PHARMACOPHORE_FEATURES>
8
1 1 acceptor
1 2 acceptor
1 3 acceptor
1 3 anion
1 4 acceptor
1 5 acceptor
5 1 2 7 8 13 rings
6 7 8 9 10 11 12 rings

> <PUBCHEM_HEAVY_ATOM_COUNT>
14

> <PUBCHEM_ATOM_DEF_STEREO_COUNT>
0

> <PUBCHEM_ATOM_UDEF_STEREO_COUNT>
0

> <PUBCHEM_BOND_DEF_STEREO_COUNT>
0

> <PUBCHEM_BOND_UDEF_STEREO_COUNT>
0

> <PUBCHEM_ISOTOPIC_ATOM_COUNT>
0

> <PUBCHEM_COMPONENT_COUNT>
1

> <PUBCHEM_CACTVS_TAUTO_COUNT>
1

> <PUBCHEM_CONFORMER_ID>
0000322800000001

> <PUBCHEM_MMFF94_ENERGY>
50.5186

> <PUBCHEM_FEATURE_SELFOVERLAP>
40.835

> <PUBCHEM_SHAPE_FINGERPRINT>
10608611 8 18335707130663131432
10967382 1 18337954613807525516
11206711 2 18337673005628780860
12730499 353 17552082114615437933
13380535 21 18337378431186589246
13380535 76 18336551628401875263
14325111 11 18337111271272754468
15442244 35 18266744764999840098
16945 1 18338795722938482948
17844478 74 18267859493295838811
193761 8 18194121819763167148
19973954 147 18410573955303016428
20510252 161 18261954038055066080
20588541 1 18336263569203129692
20871998 184 18260545589382404359
21501502 16 18411139121491256430
22802520 49 18115008827398290734
2334 1 18337955580317578934
23402539 116 18335997440593142741
23402655 69 18189630491490423053
23463225 33 18413110584679180766
23552423 10 18272089357783345638
23559900 14 18189051070864883622
2748010 2 18335985294161677430
528886 8 18409174332903945778
53812653 166 18260555502372567360
54173680 148 18411698777009855747
6333449 129 18408888429684162055
69090 78 18334863839667363855
8809292 202 18341890788025689418

> <PUBCHEM_SHAPE_MULTIPOLES>
253.79
4.89
2.17
0.62
1.72
0.16
0
0.07
0.22
-1.51
0.11
-0.06
-0.09
0.21

> <PUBCHEM_SHAPE_SELFOVERLAP>
560.103

> <PUBCHEM_SHAPE_VOLUME>
136.6

> <PUBCHEM_COORDINATE_TYPE>
2
5
10

$$$$

