17395913
  -OEChem-06241222533D

 47 51  0     1  0  0  0  0  0999 V2000
   -1.3334    3.7667    1.1028 O   0  0  0  0  0  0  0  0  0  0  0  0
   -2.4936    2.2798   -0.2381 N   0  0  0  0  0  0  0  0  0  0  0  0
   -2.0316   -1.2898   -1.2521 N   0  0  0  0  0  0  0  0  0  0  0  0
   -2.8499   -0.5403    0.6737 N   0  0  0  0  0  0  0  0  0  0  0  0
    2.2465    0.5472   -0.1848 N   0  0  0  0  0  0  0  0  0  0  0  0
    4.6167    1.4387    0.9585 N   0  0  0  0  0  0  0  0  0  0  0  0
   -2.6068    1.1594   -1.1904 C   0  0  2  0  0  0  0  0  0  0  0  0
   -3.9731    1.3844   -1.8555 C   0  0  0  0  0  0  0  0  0  0  0  0
   -4.7923    2.0779   -0.7735 C   0  0  0  0  0  0  0  0  0  0  0  0
   -3.7698    2.9720   -0.0925 C   0  0  0  0  0  0  0  0  0  0  0  0
   -2.5100   -0.2162   -0.5538 C   0  0  0  0  0  0  0  0  0  0  0  0
   -1.3598    2.7596    0.3947 C   0  0  0  0  0  0  0  0  0  0  0  0
   -2.0653   -2.3792   -0.4200 C   0  0  0  0  0  0  0  0  0  0  0  0
   -2.5796   -1.8856    0.7758 C   0  0  0  0  0  0  0  0  0  0  0  0
   -0.1067    2.0047    0.1991 C   0  0  0  0  0  0  0  0  0  0  0  0
   -1.7012   -3.7135   -0.6050 C   0  0  0  0  0  0  0  0  0  0  0  0
   -2.7473   -2.7607    1.8622 C   0  0  0  0  0  0  0  0  0  0  0  0
   -1.8749   -4.5705    0.4867 C   0  0  0  0  0  0  0  0  0  0  0  0
    1.0577    2.3675    0.7586 C   0  0  0  0  0  0  0  0  0  0  0  0
   -2.3884   -4.1046    1.6992 C   0  0  0  0  0  0  0  0  0  0  0  0
    2.2898    1.6600    0.5697 C   0  0  0  0  0  0  0  0  0  0  0  0
    3.4581    2.0995    1.1331 C   0  0  0  0  0  0  0  0  0  0  0  0
    3.3942   -0.1279   -0.3714 C   0  0  0  0  0  0  0  0  0  0  0  0
    4.5945    0.3237    0.2074 C   0  0  0  0  0  0  0  0  0  0  0  0
    3.4085   -1.2871   -1.1434 C   0  0  0  0  0  0  0  0  0  0  0  0
    5.7647   -0.4009   -0.0073 C   0  0  0  0  0  0  0  0  0  0  0  0
    4.5850   -2.0049   -1.3521 C   0  0  0  0  0  0  0  0  0  0  0  0
    5.7681   -1.5597   -0.7816 C   0  0  0  0  0  0  0  0  0  0  0  0
   -1.8120    1.2593   -1.9398 H   0  0  0  0  0  0  0  0  0  0  0  0
   -4.4491    0.4689   -2.2203 H   0  0  0  0  0  0  0  0  0  0  0  0
   -3.8578    2.0678   -2.7066 H   0  0  0  0  0  0  0  0  0  0  0  0
   -5.6417    2.6385   -1.1733 H   0  0  0  0  0  0  0  0  0  0  0  0
   -5.1759    1.3357   -0.0634 H   0  0  0  0  0  0  0  0  0  0  0  0
   -3.6837    3.9394   -0.6002 H   0  0  0  0  0  0  0  0  0  0  0  0
   -3.9929    3.1500    0.9638 H   0  0  0  0  0  0  0  0  0  0  0  0
   -1.7101   -1.2842   -2.2110 H   0  0  0  0  0  0  0  0  0  0  0  0
   -0.1400    1.1296   -0.4372 H   0  0  0  0  0  0  0  0  0  0  0  0
   -1.3024   -4.0725   -1.5471 H   0  0  0  0  0  0  0  0  0  0  0  0
   -3.1454   -2.4085    2.8084 H   0  0  0  0  0  0  0  0  0  0  0  0
    1.0998    3.2501    1.3918 H   0  0  0  0  0  0  0  0  0  0  0  0
   -1.6046   -5.6191    0.3888 H   0  0  0  0  0  0  0  0  0  0  0  0
   -2.5117   -4.7949    2.5298 H   0  0  0  0  0  0  0  0  0  0  0  0
    3.5215    2.9921    1.7448 H   0  0  0  0  0  0  0  0  0  0  0  0
    2.4870   -1.6478   -1.5964 H   0  0  0  0  0  0  0  0  0  0  0  0
    6.7002   -0.0631    0.4344 H   0  0  0  0  0  0  0  0  0  0  0  0
    4.5738   -2.9061   -1.9572 H   0  0  0  0  0  0  0  0  0  0  0  0
    6.6914   -2.1094   -0.9363 H   0  0  0  0  0  0  0  0  0  0  0  0
  1 12  2  0  0  0  0
  2  7  1  0  0  0  0
  2 10  1  0  0  0  0
  2 12  1  0  0  0  0
  3 11  1  0  0  0  0
  3 13  1  0  0  0  0
  3 36  1  0  0  0  0
  4 11  2  0  0  0  0
  4 14  1  0  0  0  0
  5 21  2  0  0  0  0
  5 23  1  0  0  0  0
  6 22  2  0  0  0  0
  6 24  1  0  0  0  0
  7  8  1  0  0  0  0
  7 11  1  0  0  0  0
  7 29  1  0  0  0  0
  8  9  1  0  0  0  0
  8 30  1  0  0  0  0
  8 31  1  0  0  0  0
  9 10  1  0  0  0  0
  9 32  1  0  0  0  0
  9 33  1  0  0  0  0
 10 34  1  0  0  0  0
 10 35  1  0  0  0  0
 12 15  1  0  0  0  0
 13 14  1  0  0  0  0
 13 16  2  0  0  0  0
 14 17  2  0  0  0  0
 15 19  2  0  0  0  0
 15 37  1  0  0  0  0
 16 18  1  0  0  0  0
 16 38  1  0  0  0  0
 17 20  1  0  0  0  0
 17 39  1  0  0  0  0
 18 20  2  0  0  0  0
 18 41  1  0  0  0  0
 19 21  1  0  0  0  0
 19 40  1  0  0  0  0
 20 42  1  0  0  0  0
 21 22  1  0  0  0  0
 22 43  1  0  0  0  0
 23 24  1  0  0  0  0
 23 25  2  0  0  0  0
 24 26  2  0  0  0  0
 25 27  1  0  0  0  0
 25 44  1  0  0  0  0
 26 28  1  0  0  0  0
 26 45  1  0  0  0  0
 27 28  2  0  0  0  0
 27 46  1  0  0  0  0
 28 47  1  0  0  0  0
M  END
> <PUBCHEM_COMPOUND_CID>
17395913

> <PUBCHEM_CONFORMER_RMSD>
0.8

> <PUBCHEM_CONFORMER_DIVERSEORDER>
1
3
66
31
2
70
53
87
38
92
75
55
69
23
65
81
61
79
4
74
88
85
32
80
86
24
56
49
18
82
76
93
35
58
14
17
89
41
77
84
43
22
50
30
37
68
6
71
5
46
36
13
19
29
67
63
60
72
12
40
59
16
52
42
62
73
11
47
45
57
10
26
15
9
21
44
34
20
90
27
91
54
25
78
8
39
48
7
28
83
64
51
33

> <PUBCHEM_MMFF94_PARTIAL_CHARGES>
38
1 -0.57
10 0.3
11 0.01
12 0.62
13 -0.15
14 0.23
15 -0.14
16 -0.15
17 -0.15
18 -0.15
19 -0.18
2 -0.66
20 -0.15
21 0.34
22 0.16
23 0.31
24 0.31
25 -0.15
26 -0.15
27 -0.15
28 -0.15
3 0.03
36 0.27
37 0.15
38 0.15
39 0.15
4 -0.57
40 0.15
41 0.15
42 0.15
43 0.15
44 0.15
45 0.15
46 0.15
47 0.15
5 -0.62
6 -0.62
7 0.48

> <PUBCHEM_EFFECTIVE_ROTOR_COUNT>
5

> <PUBCHEM_PHARMACOPHORE_FEATURES>
10
1 1 acceptor
1 3 donor
1 5 acceptor
1 6 acceptor
3 3 4 11 cation
5 2 7 8 9 10 rings
5 3 4 11 13 14 rings
6 13 14 16 17 18 20 rings
6 23 24 25 26 27 28 rings
6 5 6 21 22 23 24 rings

> <PUBCHEM_HEAVY_ATOM_COUNT>
28

> <PUBCHEM_ATOM_DEF_STEREO_COUNT>
0

> <PUBCHEM_ATOM_UDEF_STEREO_COUNT>
1

> <PUBCHEM_BOND_DEF_STEREO_COUNT>
1

> <PUBCHEM_BOND_UDEF_STEREO_COUNT>
0

> <PUBCHEM_ISOTOPIC_ATOM_COUNT>
0

> <PUBCHEM_COMPONENT_COUNT>
1

> <PUBCHEM_CACTVS_TAUTO_COUNT>
1

> <PUBCHEM_CONFORMER_ID>
010970C900000001

> <PUBCHEM_MMFF94_ENERGY>
69.8206

> <PUBCHEM_FEATURE_SELFOVERLAP>
50.892

> <PUBCHEM_SHAPE_FINGERPRINT>
10653451 467 18270108017226526659
10764073 3 18192120808334312035
107951 10 18341333413414182399
10928967 22 17899404295496727110
11135609 12 18341324492683147960
11828532 37 16766207925886323202
12202916 173 17115542561212976042
12712778 12 18269571553956196162
12788726 201 18043258048486176224
13135754 10 17488443240249376163
13402501 40 18261674873691645940
1361 87 18189034530544972046
13941206 138 18126563655086844019
14251757 5 18412820304871943682
14363568 33 17545027209402138256
15322534 239 18120089739049130790
15351339 4 17977109285611715875
15927050 60 18192717972102811877
16067689 391 17028783818977639958
16719943 64 18267304416170503714
16993438 75 18409451358253041550
17627616 140 17547284970350874950
19958102 18 18270690890588332612
20775530 9 18122621648224614290
21133410 230 17912610731806354507
21133410 52 16171453396915290068
221490 88 18335137554097535312
23466295 7 18341883061452993891
23559900 14 18334586732989723016
3383291 50 18408891754326940091
340366 18 18060413629561643333
3737641 26 17905591221382027132
4015057 19 17968396579417275265
4058900 60 17911519015264833765
4073 2 18410016529448009136
44802255 64 17489311948460466879
474144 1 17698737126683895290
4921388 177 18272933816788639108
508706 21 18341054025475728966
5309563 4 17474956424074637771
56633871 153 18048023087416247451
6695519 79 17244712161474729088
9709674 26 18334584512021801108

> <PUBCHEM_SHAPE_MULTIPOLES>
545.45
11.31
5.69
1.46
15.34
4.02
-0.02
-0.03
2.37
-6.7
-1.92
-0.65
0.5
3.34

> <PUBCHEM_SHAPE_SELFOVERLAP>
1218.174

> <PUBCHEM_SHAPE_VOLUME>
288

> <PUBCHEM_COORDINATE_TYPE>
2
5
10

$$$$

