17396320
  -OEChem-06241222552D

 40 42  0     0  0  0  0  0  0999 V2000
    4.4865    0.6416    0.0000 S   0  0  0  0  0  0  0  0  0  0  0  0
    3.3987   -5.7063    0.0000 O   0  0  0  0  0  0  0  0  0  0  0  0
    7.4254    4.6866    0.0000 O   0  0  0  0  0  0  0  0  0  0  0  0
    2.5896   -1.1185    0.0000 N   0  0  0  0  0  0  0  0  0  0  0  0
    4.2077   -1.1185    0.0000 N   0  0  0  0  0  0  0  0  0  0  0  0
    2.8987   -0.1675    0.0000 N   0  0  0  0  0  0  0  0  0  0  0  0
    6.0241    5.7047    0.0000 N   0  0  0  0  0  0  0  0  0  0  0  0
    4.6675    2.3641    0.0000 C   0  0  0  0  0  0  0  0  0  0  0  0
    4.0797    1.5551    0.0000 C   0  0  0  0  0  0  0  0  0  0  0  0
    3.3987   -2.7063    0.0000 C   0  0  0  0  0  0  0  0  0  0  0  0
    3.3987   -1.7063    0.0000 C   0  0  0  0  0  0  0  0  0  0  0  0
    5.6620    2.2596    0.0000 C   0  0  0  0  0  0  0  0  0  0  0  0
    4.2608    3.2777    0.0000 C   0  0  0  0  0  0  0  0  0  0  0  0
    5.8431    3.9822    0.0000 C   0  0  0  0  0  0  0  0  0  0  0  0
    2.5326   -3.2063    0.0000 C   0  0  0  0  0  0  0  0  0  0  0  0
    4.2647   -3.2063    0.0000 C   0  0  0  0  0  0  0  0  0  0  0  0
    6.2498    3.0686    0.0000 C   0  0  0  0  0  0  0  0  0  0  0  0
    4.8486    4.0867    0.0000 C   0  0  0  0  0  0  0  0  0  0  0  0
    3.8987   -0.1675    0.0000 C   0  0  0  0  0  0  0  0  0  0  0  0
    3.3987   -4.7063    0.0000 C   0  0  0  0  0  0  0  0  0  0  0  0
    2.5326   -4.2063    0.0000 C   0  0  0  0  0  0  0  0  0  0  0  0
    4.2647   -4.2063    0.0000 C   0  0  0  0  0  0  0  0  0  0  0  0
    6.4309    4.7912    0.0000 C   0  0  0  0  0  0  0  0  0  0  0  0
    4.2647   -6.2063    0.0000 C   0  0  0  0  0  0  0  0  0  0  0  0
    3.6490    2.0011    0.0000 H   0  0  0  0  0  0  0  0  0  0  0  0
    3.5657    1.2084    0.0000 H   0  0  0  0  0  0  0  0  0  0  0  0
    5.9142    1.6932    0.0000 H   0  0  0  0  0  0  0  0  0  0  0  0
    3.6442    3.3425    0.0000 H   0  0  0  0  0  0  0  0  0  0  0  0
    1.9957   -2.8963    0.0000 H   0  0  0  0  0  0  0  0  0  0  0  0
    4.8016   -2.8963    0.0000 H   0  0  0  0  0  0  0  0  0  0  0  0
    6.8664    3.0038    0.0000 H   0  0  0  0  0  0  0  0  0  0  0  0
    4.5964    4.6531    0.0000 H   0  0  0  0  0  0  0  0  0  0  0  0
    2.0000   -1.3101    0.0000 H   0  0  0  0  0  0  0  0  0  0  0  0
    1.9957   -4.5163    0.0000 H   0  0  0  0  0  0  0  0  0  0  0  0
    4.8016   -4.5163    0.0000 H   0  0  0  0  0  0  0  0  0  0  0  0
    3.9547   -6.7432    0.0000 H   0  0  0  0  0  0  0  0  0  0  0  0
    4.8016   -6.5163    0.0000 H   0  0  0  0  0  0  0  0  0  0  0  0
    4.5747   -5.6694    0.0000 H   0  0  0  0  0  0  0  0  0  0  0  0
    6.3886    6.2063    0.0000 H   0  0  0  0  0  0  0  0  0  0  0  0
    5.4075    5.7695    0.0000 H   0  0  0  0  0  0  0  0  0  0  0  0
  1  9  1  0  0  0  0
  1 19  1  0  0  0  0
  2 20  1  0  0  0  0
  2 24  1  0  0  0  0
  3 23  2  0  0  0  0
  4  6  1  0  0  0  0
  4 11  1  0  0  0  0
  4 33  1  0  0  0  0
  5 11  2  0  0  0  0
  5 19  1  0  0  0  0
  6 19  2  0  0  0  0
  7 23  1  0  0  0  0
  7 39  1  0  0  0  0
  7 40  1  0  0  0  0
  8  9  1  0  0  0  0
  8 12  2  0  0  0  0
  8 13  1  0  0  0  0
  9 25  1  0  0  0  0
  9 26  1  0  0  0  0
 10 11  1  0  0  0  0
 10 15  2  0  0  0  0
 10 16  1  0  0  0  0
 12 17  1  0  0  0  0
 12 27  1  0  0  0  0
 13 18  2  0  0  0  0
 13 28  1  0  0  0  0
 14 17  2  0  0  0  0
 14 18  1  0  0  0  0
 14 23  1  0  0  0  0
 15 21  1  0  0  0  0
 15 29  1  0  0  0  0
 16 22  2  0  0  0  0
 16 30  1  0  0  0  0
 17 31  1  0  0  0  0
 18 32  1  0  0  0  0
 20 21  2  0  0  0  0
 20 22  1  0  0  0  0
 21 34  1  0  0  0  0
 22 35  1  0  0  0  0
 24 36  1  0  0  0  0
 24 37  1  0  0  0  0
 24 38  1  0  0  0  0
M  END
> <PUBCHEM_COMPOUND_CID>
17396320

> <PUBCHEM_COMPOUND_CANONICALIZED>
1

> <PUBCHEM_CACTVS_COMPLEXITY>
409

> <PUBCHEM_CACTVS_HBOND_ACCEPTOR>
5

> <PUBCHEM_CACTVS_HBOND_DONOR>
2

> <PUBCHEM_CACTVS_ROTATABLE_BOND>
6

> <PUBCHEM_CACTVS_SUBSKEYS>
AAADceB7sABAAAAAAAAAAAAAAAAAAWAAAAAwYAAAAAAAAAAB0AAAHgQYAAAADASF2wKzFoZrFAiqAiNyNACS2AvkILAdqCEmDNiMLrKkvRuEMShkyBMIqYeY2AKOYAAAAAAAAADAAAAAAAAAAAAAAAAAAA==

> <PUBCHEM_IUPAC_OPENEYE_NAME>
4-[[5-(4-methoxyphenyl)-1H-1,2,4-triazol-3-yl]sulfanylmethyl]benzamide

> <PUBCHEM_IUPAC_CAS_NAME>
4-[[[5-(4-methoxyphenyl)-1H-1,2,4-triazol-3-yl]thio]methyl]benzamide

> <PUBCHEM_IUPAC_NAME>
4-[[5-(4-methoxyphenyl)-1H-1,2,4-triazol-3-yl]sulfanylmethyl]benzamide

> <PUBCHEM_IUPAC_SYSTEMATIC_NAME>
4-[[5-(4-methoxyphenyl)-1H-1,2,4-triazol-3-yl]sulfanylmethyl]benzamide

> <PUBCHEM_IUPAC_TRADITIONAL_NAME>
4-[[[5-(4-methoxyphenyl)-1H-1,2,4-triazol-3-yl]thio]methyl]benzamide

> <PUBCHEM_IUPAC_INCHI>
InChI=1S/C17H16N4O2S/c1-23-14-8-6-13(7-9-14)16-19-17(21-20-16)24-10-11-2-4-12(5-3-11)15(18)22/h2-9H,10H2,1H3,(H2,18,22)(H,19,20,21)

> <PUBCHEM_IUPAC_INCHIKEY>
SUEWADFANHYOCD-UHFFFAOYSA-N

> <PUBCHEM_XLOGP3_AA>
2.8

> <PUBCHEM_EXACT_MASS>
340.099397

> <PUBCHEM_MOLECULAR_FORMULA>
C17H16N4O2S

> <PUBCHEM_MOLECULAR_WEIGHT>
340.39954

> <PUBCHEM_OPENEYE_CAN_SMILES>
COC1=CC=C(C=C1)C2=NC(=NN2)SCC3=CC=C(C=C3)C(=O)N

> <PUBCHEM_OPENEYE_ISO_SMILES>
COC1=CC=C(C=C1)C2=NC(=NN2)SCC3=CC=C(C=C3)C(=O)N

> <PUBCHEM_CACTVS_TPSA>
119

> <PUBCHEM_MONOISOTOPIC_WEIGHT>
340.099397

> <PUBCHEM_TOTAL_CHARGE>
0

> <PUBCHEM_HEAVY_ATOM_COUNT>
24

> <PUBCHEM_ATOM_DEF_STEREO_COUNT>
0

> <PUBCHEM_ATOM_UDEF_STEREO_COUNT>
0

> <PUBCHEM_BOND_DEF_STEREO_COUNT>
0

> <PUBCHEM_BOND_UDEF_STEREO_COUNT>
0

> <PUBCHEM_ISOTOPIC_ATOM_COUNT>
0

> <PUBCHEM_COMPONENT_COUNT>
1

> <PUBCHEM_CACTVS_TAUTO_COUNT>
6

> <PUBCHEM_COORDINATE_TYPE>
1
5
255

> <PUBCHEM_BONDANNOTATIONS>
10  15  8
10  16  8
12  17  8
13  18  8
14  17  8
14  18  8
15  21  8
16  22  8
20  21  8
20  22  8
4  11  8
4  6  8
5  11  8
5  19  8
6  19  8
8  12  8
8  13  8

$$$$

