47205801
  -OEChem-06241223003D

 37 39  0     0  0  0  0  0  0999 V2000
    2.2407    0.2394   -1.6711 O   0  0  0  0  0  0  0  0  0  0  0  0
    0.4559   -0.1578    1.8985 O   0  0  0  0  0  0  0  0  0  0  0  0
   -2.8530    0.9807   -0.8583 O   0  0  0  0  0  0  0  0  0  0  0  0
   -1.1780   -1.0260    0.4938 N   0  0  0  0  0  0  0  0  0  0  0  0
    2.4466   -1.0512    0.2579 N   0  0  0  0  0  0  0  0  0  0  0  0
   -1.5477   -1.8835   -0.6139 C   0  0  0  0  0  0  0  0  0  0  0  0
   -2.6091   -2.9339   -0.4655 C   0  0  0  0  0  0  0  0  0  0  0  0
   -1.1726   -3.3364   -0.6278 C   0  0  0  0  0  0  0  0  0  0  0  0
    4.2333    0.4294   -0.4351 C   0  0  0  0  0  0  0  0  0  0  0  0
    4.4049    1.9177   -0.3528 C   0  0  0  0  0  0  0  0  0  0  0  0
    4.5222    1.0794    0.8862 C   0  0  0  0  0  0  0  0  0  0  0  0
   -2.2659   -0.2916    1.1280 C   0  0  0  0  0  0  0  0  0  0  0  0
    2.8730   -0.1305   -0.6887 C   0  0  0  0  0  0  0  0  0  0  0  0
    0.1365   -0.8861    0.9566 C   0  0  0  0  0  0  0  0  0  0  0  0
    1.1722   -1.7077    0.2059 C   0  0  0  0  0  0  0  0  0  0  0  0
   -2.5185    1.0282    0.4581 C   0  0  0  0  0  0  0  0  0  0  0  0
   -2.4849    2.3299    0.9016 C   0  0  0  0  0  0  0  0  0  0  0  0
   -2.8204    3.1339   -0.2138 C   0  0  0  0  0  0  0  0  0  0  0  0
   -3.0350    2.2661   -1.2595 C   0  0  0  0  0  0  0  0  0  0  0  0
   -1.5044   -1.3634   -1.5660 H   0  0  0  0  0  0  0  0  0  0  0  0
   -0.7092   -3.7913    0.2386 H   0  0  0  0  0  0  0  0  0  0  0  0
   -0.8759   -3.7725   -1.5739 H   0  0  0  0  0  0  0  0  0  0  0  0
   -3.2765   -3.0967   -1.3030 H   0  0  0  0  0  0  0  0  0  0  0  0
   -3.0592   -3.1102    0.5035 H   0  0  0  0  0  0  0  0  0  0  0  0
    5.0413   -0.1226   -0.9046 H   0  0  0  0  0  0  0  0  0  0  0  0
    3.7299    1.1632    1.6201 H   0  0  0  0  0  0  0  0  0  0  0  0
    5.5094    0.9411    1.3102 H   0  0  0  0  0  0  0  0  0  0  0  0
    5.3132    2.3445   -0.7605 H   0  0  0  0  0  0  0  0  0  0  0  0
    3.5312    2.5507   -0.4492 H   0  0  0  0  0  0  0  0  0  0  0  0
   -3.1852   -0.8855    1.1188 H   0  0  0  0  0  0  0  0  0  0  0  0
   -2.0117   -0.1163    2.1799 H   0  0  0  0  0  0  0  0  0  0  0  0
    0.9203   -1.8320   -0.8485 H   0  0  0  0  0  0  0  0  0  0  0  0
    1.2809   -2.6807    0.6919 H   0  0  0  0  0  0  0  0  0  0  0  0
    3.0604   -1.2750    1.0358 H   0  0  0  0  0  0  0  0  0  0  0  0
   -2.2480    2.6602    1.9028 H   0  0  0  0  0  0  0  0  0  0  0  0
   -2.8961    4.2109   -0.2512 H   0  0  0  0  0  0  0  0  0  0  0  0
   -3.3086    2.3977   -2.2961 H   0  0  0  0  0  0  0  0  0  0  0  0
  1 13  2  0  0  0  0
  2 14  2  0  0  0  0
  3 16  1  0  0  0  0
  3 19  1  0  0  0  0
  4  6  1  0  0  0  0
  4 12  1  0  0  0  0
  4 14  1  0  0  0  0
  5 13  1  0  0  0  0
  5 15  1  0  0  0  0
  5 34  1  0  0  0  0
  6  7  1  0  0  0  0
  6  8  1  0  0  0  0
  6 20  1  0  0  0  0
  7  8  1  0  0  0  0
  7 23  1  0  0  0  0
  7 24  1  0  0  0  0
  8 21  1  0  0  0  0
  8 22  1  0  0  0  0
  9 10  1  0  0  0  0
  9 11  1  0  0  0  0
  9 13  1  0  0  0  0
  9 25  1  0  0  0  0
 10 11  1  0  0  0  0
 10 28  1  0  0  0  0
 10 29  1  0  0  0  0
 11 26  1  0  0  0  0
 11 27  1  0  0  0  0
 12 16  1  0  0  0  0
 12 30  1  0  0  0  0
 12 31  1  0  0  0  0
 14 15  1  0  0  0  0
 15 32  1  0  0  0  0
 15 33  1  0  0  0  0
 16 17  2  0  0  0  0
 17 18  1  0  0  0  0
 17 35  1  0  0  0  0
 18 19  2  0  0  0  0
 18 36  1  0  0  0  0
 19 37  1  0  0  0  0
M  END
> <PUBCHEM_COMPOUND_CID>
47205801

> <PUBCHEM_CONFORMER_RMSD>
1

> <PUBCHEM_CONFORMER_DIVERSEORDER>
1
34
77
125
108
67
14
69
152
133
39
51
38
10
45
74
135
115
46
109
150
75
4
102
112
54
106
52
8
122
134
81
143
17
12
85
71
110
107
66
60
136
155
123
64
80
138
97
149
16
92
56
99
19
21
40
89
47
128
43
62
118
28
121
9
73
124
145
94
151
6
48
103
154
41
25
50
78
55
13
83
23
79
49
93
3
22
144
84
63
126
27
127
61
130
42
98
114
33
116
88
96
2
120
117
68
104
70
30
148
76
101
36
90
142
86
32
147
15
53
87
132
140
72
37
35
31
146
65
5
59
156
119
29
131
153
129
58
26
95
100
139
44
20
18
11
111
137
105
7
113
57
82
91
24
141

> <PUBCHEM_MMFF94_PARTIAL_CHARGES>
33
1 -0.57
10 -0.2
11 -0.2
12 0.48
13 0.63
14 0.57
15 0.36
16 -0.04
17 -0.15
18 -0.15
19 -0.01
2 -0.57
20 0.1
21 0.1
22 0.1
23 0.1
24 0.1
25 0.1
26 0.1
27 0.1
28 0.1
29 0.1
3 -0.28
34 0.37
35 0.15
36 0.15
37 0.15
4 -0.51
5 -0.73
6 0.05
7 -0.2
8 -0.2
9 -0.1

> <PUBCHEM_EFFECTIVE_ROTOR_COUNT>
9.2

> <PUBCHEM_PHARMACOPHORE_FEATURES>
5
1 1 acceptor
1 2 acceptor
1 3 acceptor
1 5 donor
5 3 16 17 18 19 rings

> <PUBCHEM_HEAVY_ATOM_COUNT>
19

> <PUBCHEM_ATOM_DEF_STEREO_COUNT>
0

> <PUBCHEM_ATOM_UDEF_STEREO_COUNT>
0

> <PUBCHEM_BOND_DEF_STEREO_COUNT>
0

> <PUBCHEM_BOND_UDEF_STEREO_COUNT>
0

> <PUBCHEM_ISOTOPIC_ATOM_COUNT>
0

> <PUBCHEM_COMPONENT_COUNT>
1

> <PUBCHEM_CACTVS_TAUTO_COUNT>
2

> <PUBCHEM_CONFORMER_ID>
02D04DA900000001

> <PUBCHEM_MMFF94_ENERGY>
32.0164

> <PUBCHEM_FEATURE_SELFOVERLAP>
25.371

> <PUBCHEM_SHAPE_FINGERPRINT>
10670039 82 17837475372900101412
11045515 52 17908709423505361047
11640471 11 18130795589437383946
11715629 250 18411973663754413818
11833330 49 18122627158641183699
12173636 292 18408604790154801735
12403814 3 18338504241025927507
12788726 201 18269852934079785107
13134695 92 17120015881495073283
13583140 156 17773872193411527299
14142880 1 18060426798162805541
15534591 1 18202281415801401939
17134986 127 18122343742286455847
1741750 31 18337109059264123562
18186145 218 18189040053466413704
18785283 64 17760350490082100643
192875 21 17772755961807961252
20567600 299 17330567951535527332
20645477 56 18334845117715178914
21095088 737 18410023125853137573
21524375 3 18127969909115762987
22749437 52 18272366516286879580
22907989 373 18260840267278448055
23227448 37 18336544919552267101
23352939 185 17827068511862842939
23382010 3 17968107467966749537
23419403 2 17097785551698287153
23557571 272 18188200984202179366
23559900 14 17895472652796835094
3268164 11 18116432548958943014
474 4 17905609161634508825
9862522 239 17845664757965843700

> <PUBCHEM_SHAPE_MULTIPOLES>
363.44
7.84
3.76
1.32
9.82
0.59
-0.1
-5.34
0.97
-4.4
0.84
-0.07
-0.22
-0.04

> <PUBCHEM_SHAPE_SELFOVERLAP>
753.178

> <PUBCHEM_SHAPE_VOLUME>
209.4

> <PUBCHEM_COORDINATE_TYPE>
2
5
10

$$$$

