12725
  -OEChem-06261207173D

 17 16  0     0  0  0  0  0  0999 V2000
    1.5034   -0.9965   -0.7595 O   0  0  0  0  0  0  0  0  0  0  0  0
    0.0344    0.5032    0.2422 N   0  0  0  0  0  0  0  0  0  0  0  0
    2.3050    0.7359    0.5158 N   0  0  0  0  0  0  0  0  0  0  0  0
   -1.1969   -0.0804   -0.2325 C   0  0  0  0  0  0  0  0  0  0  0  0
   -2.2517    0.9998   -0.4337 C   0  0  0  0  0  0  0  0  0  0  0  0
   -1.6847   -1.1560    0.7300 C   0  0  0  0  0  0  0  0  0  0  0  0
    1.2905   -0.0060   -0.0623 C   0  0  0  0  0  0  0  0  0  0  0  0
   -0.9965   -0.5533   -1.2016 H   0  0  0  0  0  0  0  0  0  0  0  0
   -3.1795    0.5728   -0.8283 H   0  0  0  0  0  0  0  0  0  0  0  0
   -2.4844    1.5100    0.5078 H   0  0  0  0  0  0  0  0  0  0  0  0
   -1.9002    1.7586   -1.1414 H   0  0  0  0  0  0  0  0  0  0  0  0
   -0.9356   -1.9468    0.8463 H   0  0  0  0  0  0  0  0  0  0  0  0
   -2.6084   -1.6176    0.3657 H   0  0  0  0  0  0  0  0  0  0  0  0
   -1.8799   -0.7395    1.7245 H   0  0  0  0  0  0  0  0  0  0  0  0
   -0.0192    1.2838    0.8898 H   0  0  0  0  0  0  0  0  0  0  0  0
    2.1100    1.5513    1.0870 H   0  0  0  0  0  0  0  0  0  0  0  0
    3.2793    0.4860    0.3837 H   0  0  0  0  0  0  0  0  0  0  0  0
  1  7  2  0  0  0  0
  2  4  1  0  0  0  0
  2  7  1  0  0  0  0
  2 15  1  0  0  0  0
  3  7  1  0  0  0  0
  3 16  1  0  0  0  0
  3 17  1  0  0  0  0
  4  5  1  0  0  0  0
  4  6  1  0  0  0  0
  4  8  1  0  0  0  0
  5  9  1  0  0  0  0
  5 10  1  0  0  0  0
  5 11  1  0  0  0  0
  6 12  1  0  0  0  0
  6 13  1  0  0  0  0
  6 14  1  0  0  0  0
M  END
> <PUBCHEM_COMPOUND_CID>
12725

> <PUBCHEM_CONFORMER_RMSD>
0.4

> <PUBCHEM_CONFORMER_DIVERSEORDER>
2
1
3

> <PUBCHEM_MMFF94_PARTIAL_CHARGES>
8
1 -0.57
15 0.37
16 0.37
17 0.37
2 -0.73
3 -0.8
4 0.3
7 0.69

> <PUBCHEM_EFFECTIVE_ROTOR_COUNT>
2

> <PUBCHEM_PHARMACOPHORE_FEATURES>
4
1 1 acceptor
1 2 donor
1 3 donor
3 4 5 6 hydrophobe

> <PUBCHEM_HEAVY_ATOM_COUNT>
7

> <PUBCHEM_ATOM_DEF_STEREO_COUNT>
0

> <PUBCHEM_ATOM_UDEF_STEREO_COUNT>
0

> <PUBCHEM_BOND_DEF_STEREO_COUNT>
0

> <PUBCHEM_BOND_UDEF_STEREO_COUNT>
0

> <PUBCHEM_ISOTOPIC_ATOM_COUNT>
0

> <PUBCHEM_COMPONENT_COUNT>
1

> <PUBCHEM_CACTVS_TAUTO_COUNT>
3

> <PUBCHEM_CONFORMER_ID>
000031B500000002

> <PUBCHEM_MMFF94_ENERGY>
5.3466

> <PUBCHEM_FEATURE_SELFOVERLAP>
20.348

> <PUBCHEM_SHAPE_FINGERPRINT>
12932741 1 18335693957718535094
14390081 3 18259994763931911241
16714656 1 17846211206981564789
21040471 1 17916306211249748061
23552449 1 18271811164093265717
24536 1 18411699880800392709
29004967 10 18187920651502101242
5460574 1 10303814302084371973

> <PUBCHEM_SHAPE_MULTIPOLES>
128.23
3.22
1.17
0.8
0.45
0.16
0.03
-0.48
-0.11
-0.53
-0.05
0.1
0.1
0.54

> <PUBCHEM_SHAPE_SELFOVERLAP>
231.255

> <PUBCHEM_SHAPE_VOLUME>
83.2

> <PUBCHEM_COORDINATE_TYPE>
2
5
10

$$$$

