586338
  -OEChem-06241222462D

 44 45  0     1  0  0  0  0  0999 V2000
    4.5981   -0.7500    0.0000 O   0  0  0  0  0  0  0  0  0  0  0  0
    3.7320    0.7500    0.0000 O   0  0  0  0  0  0  0  0  0  0  0  0
    7.1962    0.7500    0.0000 O   0  0  0  0  0  0  0  0  0  0  0  0
    4.5981    2.2500    0.0000 O   0  0  0  0  0  0  0  0  0  0  0  0
   10.6603   -2.2500    0.0000 O   0  0  0  0  0  0  0  0  0  0  0  0
    2.8660   -0.7500    0.0000 C   0  0  0  0  0  0  0  0  0  0  0  0
    3.7320   -0.2500    0.0000 C   0  0  3  0  0  0  0  0  0  0  0  0
    2.0000   -1.2500    0.0000 C   0  0  0  0  0  0  0  0  0  0  0  0
    2.3660    0.1160    0.0000 C   0  0  0  0  0  0  0  0  0  0  0  0
    3.3660   -1.6160    0.0000 C   0  0  0  0  0  0  0  0  0  0  0  0
    5.4641   -0.2500    0.0000 C   0  0  0  0  0  0  0  0  0  0  0  0
    6.3301   -0.7500    0.0000 C   0  0  0  0  0  0  0  0  0  0  0  0
    7.1962   -0.2500    0.0000 C   0  0  3  0  0  0  0  0  0  0  0  0
    5.4641    0.7500    0.0000 C   0  0  0  0  0  0  0  0  0  0  0  0
    4.5981    1.2500    0.0000 C   0  0  0  0  0  0  0  0  0  0  0  0
    8.0622   -0.7500    0.0000 C   0  0  0  0  0  0  0  0  0  0  0  0
    8.0622   -1.7500    0.0000 C   0  0  0  0  0  0  0  0  0  0  0  0
    8.9282   -0.2500    0.0000 C   0  0  0  0  0  0  0  0  0  0  0  0
    8.9282   -2.2500    0.0000 C   0  0  0  0  0  0  0  0  0  0  0  0
    9.7942   -0.7500    0.0000 C   0  0  0  0  0  0  0  0  0  0  0  0
    9.7942   -1.7500    0.0000 C   0  0  0  0  0  0  0  0  0  0  0  0
   11.5263   -1.7500    0.0000 C   0  0  0  0  0  0  0  0  0  0  0  0
    2.9959    0.1750    0.0000 H   0  0  0  0  0  0  0  0  0  0  0  0
    1.6900   -0.7131    0.0000 H   0  0  0  0  0  0  0  0  0  0  0  0
    1.4631   -1.5600    0.0000 H   0  0  0  0  0  0  0  0  0  0  0  0
    2.3100   -1.7869    0.0000 H   0  0  0  0  0  0  0  0  0  0  0  0
    2.9030    0.4260    0.0000 H   0  0  0  0  0  0  0  0  0  0  0  0
    2.0560    0.6530    0.0000 H   0  0  0  0  0  0  0  0  0  0  0  0
    1.8291   -0.1940    0.0000 H   0  0  0  0  0  0  0  0  0  0  0  0
    2.8291   -1.9260    0.0000 H   0  0  0  0  0  0  0  0  0  0  0  0
    3.6760   -2.1530    0.0000 H   0  0  0  0  0  0  0  0  0  0  0  0
    3.9030   -1.3060    0.0000 H   0  0  0  0  0  0  0  0  0  0  0  0
    5.9316   -1.2250    0.0000 H   0  0  0  0  0  0  0  0  0  0  0  0
    6.7287   -1.2250    0.0000 H   0  0  0  0  0  0  0  0  0  0  0  0
    6.4600    0.1750    0.0000 H   0  0  0  0  0  0  0  0  0  0  0  0
    6.0010    1.0600    0.0000 H   0  0  0  0  0  0  0  0  0  0  0  0
    7.5252   -2.0600    0.0000 H   0  0  0  0  0  0  0  0  0  0  0  0
    8.9282    0.3700    0.0000 H   0  0  0  0  0  0  0  0  0  0  0  0
    7.7331    1.0600    0.0000 H   0  0  0  0  0  0  0  0  0  0  0  0
    8.9282   -2.8700    0.0000 H   0  0  0  0  0  0  0  0  0  0  0  0
   10.3312   -0.4400    0.0000 H   0  0  0  0  0  0  0  0  0  0  0  0
   11.8363   -2.2869    0.0000 H   0  0  0  0  0  0  0  0  0  0  0  0
   12.0632   -1.4400    0.0000 H   0  0  0  0  0  0  0  0  0  0  0  0
   11.2163   -1.2131    0.0000 H   0  0  0  0  0  0  0  0  0  0  0  0
  1  7  1  0  0  0  0
  1 11  1  0  0  0  0
  2  7  1  0  0  0  0
  2 15  1  0  0  0  0
  3 13  1  0  0  0  0
  3 39  1  0  0  0  0
  4 15  2  0  0  0  0
  5 21  1  0  0  0  0
  5 22  1  0  0  0  0
  6  7  1  0  0  0  0
  6  8  1  0  0  0  0
  6  9  1  0  0  0  0
  6 10  1  0  0  0  0
  7 23  1  0  0  0  0
  8 24  1  0  0  0  0
  8 25  1  0  0  0  0
  8 26  1  0  0  0  0
  9 27  1  0  0  0  0
  9 28  1  0  0  0  0
  9 29  1  0  0  0  0
 10 30  1  0  0  0  0
 10 31  1  0  0  0  0
 10 32  1  0  0  0  0
 11 12  1  0  0  0  0
 11 14  2  0  0  0  0
 12 13  1  0  0  0  0
 12 33  1  0  0  0  0
 12 34  1  0  0  0  0
 13 16  1  0  0  0  0
 13 35  1  0  0  0  0
 14 15  1  0  0  0  0
 14 36  1  0  0  0  0
 16 17  2  0  0  0  0
 16 18  1  0  0  0  0
 17 19  1  0  0  0  0
 17 37  1  0  0  0  0
 18 20  2  0  0  0  0
 18 38  1  0  0  0  0
 19 21  2  0  0  0  0
 19 40  1  0  0  0  0
 20 21  1  0  0  0  0
 20 41  1  0  0  0  0
 22 42  1  0  0  0  0
 22 43  1  0  0  0  0
 22 44  1  0  0  0  0
M  END
> <PUBCHEM_COMPOUND_CID>
586338

> <PUBCHEM_COMPOUND_CANONICALIZED>
1

> <PUBCHEM_CACTVS_COMPLEXITY>
415

> <PUBCHEM_CACTVS_HBOND_ACCEPTOR>
5

> <PUBCHEM_CACTVS_HBOND_DONOR>
1

> <PUBCHEM_CACTVS_ROTATABLE_BOND>
5

> <PUBCHEM_CACTVS_SUBSKEYS>
AAADceB4OAAAAAAAAAAAAAAAAAAAAAAAAAAwQAAAAAAAAAABAAAAGgAACAAADhSwmAMyDoAABgCIAiDSCAACCAAgIAAIiAAGCMgcNiKEMRqicCAlwBEMuQeA4KwOIAAAAAAAAABAAAAAAAAAAAAAAAAAAA==

> <PUBCHEM_IUPAC_OPENEYE_NAME>
2-tert-butyl-6-[2-hydroxy-2-(4-methoxyphenyl)ethyl]-1,3-dioxin-4-one

> <PUBCHEM_IUPAC_CAS_NAME>
2-tert-butyl-6-[2-hydroxy-2-(4-methoxyphenyl)ethyl]-1,3-dioxin-4-one

> <PUBCHEM_IUPAC_NAME>
2-tert-butyl-6-[2-hydroxy-2-(4-methoxyphenyl)ethyl]-1,3-dioxin-4-one

> <PUBCHEM_IUPAC_SYSTEMATIC_NAME>
2-tert-butyl-6-[2-(4-methoxyphenyl)-2-oxidanyl-ethyl]-1,3-dioxin-4-one

> <PUBCHEM_IUPAC_TRADITIONAL_NAME>
2-tert-butyl-6-[2-hydroxy-2-(4-methoxyphenyl)ethyl]-1,3-dioxin-4-one

> <PUBCHEM_IUPAC_INCHI>
InChI=1S/C17H22O5/c1-17(2,3)16-21-13(10-15(19)22-16)9-14(18)11-5-7-12(20-4)8-6-11/h5-8,10,14,16,18H,9H2,1-4H3

> <PUBCHEM_IUPAC_INCHIKEY>
FVRXZLOUBNGNBI-UHFFFAOYSA-N

> <PUBCHEM_XLOGP3_AA>
3.1

> <PUBCHEM_EXACT_MASS>
306.146724

> <PUBCHEM_MOLECULAR_FORMULA>
C17H22O5

> <PUBCHEM_MOLECULAR_WEIGHT>
306.35358

> <PUBCHEM_OPENEYE_CAN_SMILES>
CC(C)(C)C1OC(=CC(=O)O1)CC(C2=CC=C(C=C2)OC)O

> <PUBCHEM_OPENEYE_ISO_SMILES>
CC(C)(C)C1OC(=CC(=O)O1)CC(C2=CC=C(C=C2)OC)O

> <PUBCHEM_CACTVS_TPSA>
65

> <PUBCHEM_MONOISOTOPIC_WEIGHT>
306.146724

> <PUBCHEM_TOTAL_CHARGE>
0

> <PUBCHEM_HEAVY_ATOM_COUNT>
22

> <PUBCHEM_ATOM_DEF_STEREO_COUNT>
0

> <PUBCHEM_ATOM_UDEF_STEREO_COUNT>
2

> <PUBCHEM_BOND_DEF_STEREO_COUNT>
0

> <PUBCHEM_BOND_UDEF_STEREO_COUNT>
0

> <PUBCHEM_ISOTOPIC_ATOM_COUNT>
0

> <PUBCHEM_COMPONENT_COUNT>
1

> <PUBCHEM_CACTVS_TAUTO_COUNT>
1

> <PUBCHEM_COORDINATE_TYPE>
1
5
255

> <PUBCHEM_BONDANNOTATIONS>
13  35  3
16  17  8
16  18  8
17  19  8
18  20  8
19  21  8
20  21  8
7  23  3

$$$$

