5190
  -OEChem-06261200343D

 65 69  0     1  0  0  0  0  0999 V2000
    3.2376   -3.6427   -2.5777 O   0  0  0  0  0  0  0  0  0  0  0  0
    4.0544   -1.9312   -0.5443 O   0  0  0  0  0  0  0  0  0  0  0  0
   -2.0018   -0.4728   -0.4655 N   0  0  0  0  0  0  0  0  0  0  0  0
    0.6388   -1.3676   -1.2307 N   0  0  0  0  0  0  0  0  0  0  0  0
    4.3411    2.3993    1.1317 N   0  0  0  0  0  0  0  0  0  0  0  0
    3.2477    4.6638   -1.3683 N   0  0  0  0  0  0  0  0  0  0  0  0
   -1.4400   -1.7245    0.0568 C   0  0  0  0  0  0  0  0  0  0  0  0
   -0.9296    0.4845   -0.7640 C   0  0  0  0  0  0  0  0  0  0  0  0
   -0.4337   -2.3244   -0.9313 C   0  0  0  0  0  0  0  0  0  0  0  0
    0.0777   -0.1148   -1.7513 C   0  0  0  0  0  0  0  0  0  0  0  0
   -2.9607    0.0991    0.4775 C   0  0  0  0  0  0  0  0  0  0  0  0
    1.5962   -1.9398   -2.1752 C   0  0  0  0  0  0  0  0  0  0  0  0
    2.2970   -3.1758   -1.6064 C   0  0  2  0  0  0  0  0  0  0  0  0
   -3.4334    1.4825    0.0558 C   0  0  0  0  0  0  0  0  0  0  0  0
   -4.1272   -0.8368    0.7581 C   0  0  0  0  0  0  0  0  0  0  0  0
    3.0411   -2.9022   -0.3013 C   0  0  0  0  0  0  0  0  0  0  0  0
   -2.7321    2.5887    0.4911 C   0  0  0  0  0  0  0  0  0  0  0  0
   -4.7443   -0.7828    1.9914 C   0  0  0  0  0  0  0  0  0  0  0  0
   -4.5488    1.5902   -0.7498 C   0  0  0  0  0  0  0  0  0  0  0  0
   -4.5335   -1.7115   -0.2290 C   0  0  0  0  0  0  0  0  0  0  0  0
   -3.1651    3.8571    0.1044 C   0  0  0  0  0  0  0  0  0  0  0  0
   -5.8137   -1.6405    2.2488 C   0  0  0  0  0  0  0  0  0  0  0  0
   -4.9817    2.8586   -1.1364 C   0  0  0  0  0  0  0  0  0  0  0  0
   -5.6030   -2.5692    0.0283 C   0  0  0  0  0  0  0  0  0  0  0  0
   -4.2897    3.9919   -0.7094 C   0  0  0  0  0  0  0  0  0  0  0  0
   -6.2431   -2.5337    1.2673 C   0  0  0  0  0  0  0  0  0  0  0  0
    4.3736   -1.1012    0.4969 C   0  0  0  0  0  0  0  0  0  0  0  0
    4.2296    0.2967    0.3939 C   0  0  0  0  0  0  0  0  0  0  0  0
    4.5725    1.0904    1.4907 C   0  0  0  0  0  0  0  0  0  0  0  0
    4.8546   -1.6518    1.6905 C   0  0  0  0  0  0  0  0  0  0  0  0
    3.7846    1.1746   -0.6339 C   0  0  0  0  0  0  0  0  0  0  0  0
    5.0543    0.5540    2.6899 C   0  0  0  0  0  0  0  0  0  0  0  0
    5.1893   -0.8350    2.7687 C   0  0  0  0  0  0  0  0  0  0  0  0
    3.8647    2.4602   -0.1502 C   0  0  0  0  0  0  0  0  0  0  0  0
    3.5269    3.6667   -0.8171 C   0  0  0  0  0  0  0  0  0  0  0  0
   -0.9344   -1.5472    1.0170 H   0  0  0  0  0  0  0  0  0  0  0  0
   -2.1898   -2.4984    0.2416 H   0  0  0  0  0  0  0  0  0  0  0  0
   -0.4007    0.7943    0.1474 H   0  0  0  0  0  0  0  0  0  0  0  0
   -1.3089    1.3766   -1.2715 H   0  0  0  0  0  0  0  0  0  0  0  0
   -0.0415   -3.2264   -0.4516 H   0  0  0  0  0  0  0  0  0  0  0  0
   -0.9539   -2.6351   -1.8474 H   0  0  0  0  0  0  0  0  0  0  0  0
   -0.4099   -0.2799   -2.7220 H   0  0  0  0  0  0  0  0  0  0  0  0
    0.8798    0.6155   -1.9106 H   0  0  0  0  0  0  0  0  0  0  0  0
   -2.4426    0.2239    1.4427 H   0  0  0  0  0  0  0  0  0  0  0  0
    1.1103   -2.2057   -3.1243 H   0  0  0  0  0  0  0  0  0  0  0  0
    2.3548   -1.1928   -2.4417 H   0  0  0  0  0  0  0  0  0  0  0  0
    1.5957   -4.0022   -1.4619 H   0  0  0  0  0  0  0  0  0  0  0  0
    2.3490   -2.5793    0.4858 H   0  0  0  0  0  0  0  0  0  0  0  0
    3.5389   -3.8211    0.0304 H   0  0  0  0  0  0  0  0  0  0  0  0
   -1.8634    2.5009    1.1363 H   0  0  0  0  0  0  0  0  0  0  0  0
   -4.4181   -0.0897    2.7610 H   0  0  0  0  0  0  0  0  0  0  0  0
   -5.1021    0.7378   -1.1250 H   0  0  0  0  0  0  0  0  0  0  0  0
   -4.0781   -1.7465   -1.2139 H   0  0  0  0  0  0  0  0  0  0  0  0
    3.9131   -2.9523   -2.6918 H   0  0  0  0  0  0  0  0  0  0  0  0
   -2.6281    4.7397    0.4392 H   0  0  0  0  0  0  0  0  0  0  0  0
   -6.3127   -1.6123    3.2131 H   0  0  0  0  0  0  0  0  0  0  0  0
   -5.8543    2.9642   -1.7746 H   0  0  0  0  0  0  0  0  0  0  0  0
   -5.9420   -3.2602   -0.7380 H   0  0  0  0  0  0  0  0  0  0  0  0
   -4.6263    4.9794   -1.0111 H   0  0  0  0  0  0  0  0  0  0  0  0
   -7.0770   -3.2003    1.4670 H   0  0  0  0  0  0  0  0  0  0  0  0
    4.9814   -2.7273    1.7877 H   0  0  0  0  0  0  0  0  0  0  0  0
    3.4475    0.8921   -1.6222 H   0  0  0  0  0  0  0  0  0  0  0  0
    5.3154    1.1890    3.5298 H   0  0  0  0  0  0  0  0  0  0  0  0
    4.5012    3.1968    1.7321 H   0  0  0  0  0  0  0  0  0  0  0  0
    5.5630   -1.2836    3.6857 H   0  0  0  0  0  0  0  0  0  0  0  0
  1 13  1  0  0  0  0
  1 54  1  0  0  0  0
  2 16  1  0  0  0  0
  2 27  1  0  0  0  0
  3  7  1  0  0  0  0
  3  8  1  0  0  0  0
  3 11  1  0  0  0  0
  4  9  1  0  0  0  0
  4 10  1  0  0  0  0
  4 12  1  0  0  0  0
  5 29  1  0  0  0  0
  5 34  1  0  0  0  0
  5 64  1  0  0  0  0
  6 35  3  0  0  0  0
  7  9  1  0  0  0  0
  7 36  1  0  0  0  0
  7 37  1  0  0  0  0
  8 10  1  0  0  0  0
  8 38  1  0  0  0  0
  8 39  1  0  0  0  0
  9 40  1  0  0  0  0
  9 41  1  0  0  0  0
 10 42  1  0  0  0  0
 10 43  1  0  0  0  0
 11 14  1  0  0  0  0
 11 15  1  0  0  0  0
 11 44  1  0  0  0  0
 12 13  1  0  0  0  0
 12 45  1  0  0  0  0
 12 46  1  0  0  0  0
 13 16  1  0  0  0  0
 13 47  1  0  0  0  0
 14 17  2  0  0  0  0
 14 19  1  0  0  0  0
 15 18  2  0  0  0  0
 15 20  1  0  0  0  0
 16 48  1  0  0  0  0
 16 49  1  0  0  0  0
 17 21  1  0  0  0  0
 17 50  1  0  0  0  0
 18 22  1  0  0  0  0
 18 51  1  0  0  0  0
 19 23  2  0  0  0  0
 19 52  1  0  0  0  0
 20 24  2  0  0  0  0
 20 53  1  0  0  0  0
 21 25  2  0  0  0  0
 21 55  1  0  0  0  0
 22 26  2  0  0  0  0
 22 56  1  0  0  0  0
 23 25  1  0  0  0  0
 23 57  1  0  0  0  0
 24 26  1  0  0  0  0
 24 58  1  0  0  0  0
 25 59  1  0  0  0  0
 26 60  1  0  0  0  0
 27 28  1  0  0  0  0
 27 30  2  0  0  0  0
 28 29  2  0  0  0  0
 28 31  1  0  0  0  0
 29 32  1  0  0  0  0
 30 33  1  0  0  0  0
 30 61  1  0  0  0  0
 31 34  2  0  0  0  0
 31 62  1  0  0  0  0
 32 33  2  0  0  0  0
 32 63  1  0  0  0  0
 33 65  1  0  0  0  0
 34 35  1  0  0  0  0
M  END
> <PUBCHEM_COMPOUND_CID>
5190

> <PUBCHEM_CONFORMER_RMSD>
1.2

> <PUBCHEM_CONFORMER_DIVERSEORDER>
1
485
18
128
291
267
494
333
438
171
314
269
328
157
308
17
216
61
481
479
205
39
430
52
270
117
238
217
229
380
49
161
440
200
247
13
109
296
508
517
221
257
78
263
388
476
347
375
22
36
134
495
206
64
218
498
130
298
234
262
23
363
381
155
89
47
33
326
441
185
409
242
284
182
343
193
518
300
512
288
10
84
44
209
304
165
90
350
111
196
121
219
312
40
255
433
160
386
139
330
329
81
302
405
289
41
198
389
114
368
331
396
100
98
415
131
335
435
7
56
85
309
239
4
202
488
220
259
400
211
12
55
129
514
99
473
452
175
164
474
79
2
465
486
148
48
16
15
172
133
80
158
14
223
179
125
35
19
353
8
138
11
21
3

> <PUBCHEM_MMFF94_PARTIAL_CHARGES>
50
1 -0.68
10 0.27
11 0.56
12 0.27
13 0.28
14 -0.14
15 -0.14
16 0.28
17 -0.15
18 -0.15
19 -0.15
2 -0.36
20 -0.15
21 -0.15
22 -0.15
23 -0.15
24 -0.15
25 -0.15
26 -0.15
27 0.08
29 -0.15
3 -0.81
30 -0.15
31 -0.15
32 -0.15
33 -0.15
34 -0.13
35 0.54
4 -0.81
5 0.03
50 0.15
51 0.15
52 0.15
53 0.15
54 0.4
55 0.15
56 0.15
57 0.15
58 0.15
59 0.15
6 -0.56
60 0.15
61 0.15
62 0.15
63 0.15
64 0.27
65 0.15
7 0.27
8 0.27
9 0.27

> <PUBCHEM_EFFECTIVE_ROTOR_COUNT>
9.2

> <PUBCHEM_PHARMACOPHORE_FEATURES>
13
1 1 acceptor
1 1 donor
1 2 acceptor
1 3 cation
1 4 cation
1 5 cation
1 5 donor
1 6 acceptor
5 5 28 29 31 34 rings
6 14 17 19 21 23 25 rings
6 15 18 20 22 24 26 rings
6 27 28 29 30 32 33 rings
6 3 4 7 8 9 10 rings

> <PUBCHEM_HEAVY_ATOM_COUNT>
35

> <PUBCHEM_ATOM_DEF_STEREO_COUNT>
0

> <PUBCHEM_ATOM_UDEF_STEREO_COUNT>
1

> <PUBCHEM_BOND_DEF_STEREO_COUNT>
0

> <PUBCHEM_BOND_UDEF_STEREO_COUNT>
0

> <PUBCHEM_ISOTOPIC_ATOM_COUNT>
0

> <PUBCHEM_COMPONENT_COUNT>
1

> <PUBCHEM_CACTVS_TAUTO_COUNT>
1

> <PUBCHEM_CONFORMER_ID>
0000144600000001

> <PUBCHEM_MMFF94_ENERGY>
99.3829

> <PUBCHEM_FEATURE_SELFOVERLAP>
66.065

> <PUBCHEM_SHAPE_FINGERPRINT>
10258939 38 18410856526050951539
10319926 262 18269559493202705938
12403259 118 18411711992755841048
12422481 6 18191327033726589938
12633257 1 18058742419679935828
12925494 130 18192715768167534161
13560911 23 18058746787334888888
14190465 44 18200588224721154149
14251764 38 18338516442912055093
14950920 106 17917441912256188514
150020 26 18260838128480057016
15131766 46 16660653938257378227
15336146 87 18412816984719708782
17844677 252 18343584040300921305
19301679 30 18270389504860454555
19319366 153 17697034735013727804
23559900 14 18118677953234203814
23572383 38 18263372549562470977
3493558 16 18116436036172187600
3886686 26 17914059947791664059
50150288 127 14034991317728212044
508706 21 18124594442551954125
6523845 18 17821998775806609998
9981440 41 18264779925273803097

> <PUBCHEM_SHAPE_MULTIPOLES>
688.62
15.74
5.47
2.28
4.41
4.54
-0.66
-0.97
-8.46
0.78
2.46
-2.29
-1.4
2.64

> <PUBCHEM_SHAPE_SELFOVERLAP>
1500.838

> <PUBCHEM_SHAPE_VOLUME>
373.1

> <PUBCHEM_COORDINATE_TYPE>
2
5
10

$$$$

