13871
  -OEChem-06241222402D

 15 15  0     0  0  0  0  0  0999 V2000
    5.4641    0.5000    0.0000 Cl  0  0  0  0  0  0  0  0  0  0  0  0
    3.7320    1.5000    0.0000 Cl  0  0  0  0  0  0  0  0  0  0  0  0
    2.0000   -1.5000    0.0000 Cl  0  0  0  0  0  0  0  0  0  0  0  0
    2.0000    0.5000    0.0000 Cl  0  0  0  0  0  0  0  0  0  0  0  0
    4.5981   -1.0000    0.0000 C   0  0  0  0  0  0  0  0  0  0  0  0
    4.5981    0.0000    0.0000 C   0  0  0  0  0  0  0  0  0  0  0  0
    3.7320   -1.5000    0.0000 C   0  0  0  0  0  0  0  0  0  0  0  0
    3.7320    0.5000    0.0000 C   0  0  0  0  0  0  0  0  0  0  0  0
    2.8660   -1.0000    0.0000 C   0  0  0  0  0  0  0  0  0  0  0  0
    2.8660    0.0000    0.0000 C   0  0  0  0  0  0  0  0  0  0  0  0
    5.4641   -1.5000    0.0000 C   0  0  0  0  0  0  0  0  0  0  0  0
    3.7320   -2.1200    0.0000 H   0  0  0  0  0  0  0  0  0  0  0  0
    5.1541   -2.0369    0.0000 H   0  0  0  0  0  0  0  0  0  0  0  0
    6.0010   -1.8100    0.0000 H   0  0  0  0  0  0  0  0  0  0  0  0
    5.7741   -0.9631    0.0000 H   0  0  0  0  0  0  0  0  0  0  0  0
  1  6  1  0  0  0  0
  2  8  1  0  0  0  0
  3  9  1  0  0  0  0
  4 10  1  0  0  0  0
  5  6  1  0  0  0  0
  5  7  2  0  0  0  0
  5 11  1  0  0  0  0
  6  8  2  0  0  0  0
  7  9  1  0  0  0  0
  7 12  1  0  0  0  0
  8 10  1  0  0  0  0
  9 10  2  0  0  0  0
 11 13  1  0  0  0  0
 11 14  1  0  0  0  0
 11 15  1  0  0  0  0
M  END
> <PUBCHEM_COMPOUND_CID>
13871

> <PUBCHEM_COMPOUND_CANONICALIZED>
1

> <PUBCHEM_CACTVS_COMPLEXITY>
138

> <PUBCHEM_CACTVS_HBOND_ACCEPTOR>
0

> <PUBCHEM_CACTVS_HBOND_DONOR>
0

> <PUBCHEM_CACTVS_ROTATABLE_BOND>
0

> <PUBCHEM_CACTVS_SUBSKEYS>
AAADcYBgAAAHAAAAAAAAAAAAAAAAAAAAAAAwAAAAAAAAAAABAAAAGAIAAAAADAKAGCAyAIAAAACAAiBCAAACAAAgBQAAikAAAogIICKBExCAIAAggAAIiAcAgAAOBAAQIACBAAQIACBAAQIACAAAAAAAAA==

> <PUBCHEM_IUPAC_OPENEYE_NAME>
1,2,3,4-tetrachloro-5-methyl-benzene

> <PUBCHEM_IUPAC_CAS_NAME>
1,2,3,4-tetrachloro-5-methylbenzene

> <PUBCHEM_IUPAC_NAME>
1,2,3,4-tetrachloro-5-methylbenzene

> <PUBCHEM_IUPAC_SYSTEMATIC_NAME>
1,2,3,4-tetrakis(chloranyl)-5-methyl-benzene

> <PUBCHEM_IUPAC_TRADITIONAL_NAME>
1,2,3,4-tetrachloro-5-methyl-benzene

> <PUBCHEM_IUPAC_INCHI>
InChI=1S/C7H4Cl4/c1-3-2-4(8)6(10)7(11)5(3)9/h2H,1H3

> <PUBCHEM_IUPAC_INCHIKEY>
ZLELNPSBDOUFHN-UHFFFAOYSA-N

> <PUBCHEM_XLOGP3>
5.1

> <PUBCHEM_EXACT_MASS>
229.903761

> <PUBCHEM_MOLECULAR_FORMULA>
C7H4Cl4

> <PUBCHEM_MOLECULAR_WEIGHT>
229.91866

> <PUBCHEM_OPENEYE_CAN_SMILES>
CC1=CC(=C(C(=C1Cl)Cl)Cl)Cl

> <PUBCHEM_OPENEYE_ISO_SMILES>
CC1=CC(=C(C(=C1Cl)Cl)Cl)Cl

> <PUBCHEM_CACTVS_TPSA>
0

> <PUBCHEM_MONOISOTOPIC_WEIGHT>
227.906711

> <PUBCHEM_TOTAL_CHARGE>
0

> <PUBCHEM_HEAVY_ATOM_COUNT>
11

> <PUBCHEM_ATOM_DEF_STEREO_COUNT>
0

> <PUBCHEM_ATOM_UDEF_STEREO_COUNT>
0

> <PUBCHEM_BOND_DEF_STEREO_COUNT>
0

> <PUBCHEM_BOND_UDEF_STEREO_COUNT>
0

> <PUBCHEM_ISOTOPIC_ATOM_COUNT>
0

> <PUBCHEM_COMPONENT_COUNT>
1

> <PUBCHEM_CACTVS_TAUTO_COUNT>
1

> <PUBCHEM_COORDINATE_TYPE>
1
5
255

> <PUBCHEM_BONDANNOTATIONS>
5  6  8
5  7  8
6  8  8
7  9  8
8  10  8
9  10  8

$$$$

