8792
  -OEChem-06261203062D

 33 33  0     0  0  0  0  0  0999 V2000
    3.7320    0.7500    0.0000 O   0  0  0  0  0  0  0  0  0  0  0  0
    5.4641    0.7500    0.0000 O   0  0  0  0  0  0  0  0  0  0  0  0
    5.4641    2.7500    0.0000 C   0  0  0  0  0  0  0  0  0  0  0  0
    4.5981    2.2500    0.0000 C   0  0  0  0  0  0  0  0  0  0  0  0
    5.4641    3.7500    0.0000 C   0  0  0  0  0  0  0  0  0  0  0  0
    6.3301    2.2500    0.0000 C   0  0  0  0  0  0  0  0  0  0  0  0
    2.8660   -0.7500    0.0000 C   0  0  0  0  0  0  0  0  0  0  0  0
    4.5981    1.2500    0.0000 C   0  0  0  0  0  0  0  0  0  0  0  0
    3.7320   -0.2500    0.0000 C   0  0  0  0  0  0  0  0  0  0  0  0
    2.8660   -1.7500    0.0000 C   0  0  0  0  0  0  0  0  0  0  0  0
    2.0000   -2.2500    0.0000 C   0  0  0  0  0  0  0  0  0  0  0  0
    3.7320   -2.2500    0.0000 C   0  0  0  0  0  0  0  0  0  0  0  0
    2.0000   -3.2500    0.0000 C   0  0  0  0  0  0  0  0  0  0  0  0
    3.7320   -3.2500    0.0000 C   0  0  0  0  0  0  0  0  0  0  0  0
    2.8660   -3.7500    0.0000 C   0  0  0  0  0  0  0  0  0  0  0  0
    5.4641    2.1300    0.0000 H   0  0  0  0  0  0  0  0  0  0  0  0
    4.3860    2.8326    0.0000 H   0  0  0  0  0  0  0  0  0  0  0  0
    3.9875    2.1423    0.0000 H   0  0  0  0  0  0  0  0  0  0  0  0
    6.0841    3.7500    0.0000 H   0  0  0  0  0  0  0  0  0  0  0  0
    6.0201    1.7131    0.0000 H   0  0  0  0  0  0  0  0  0  0  0  0
    6.8671    1.9400    0.0000 H   0  0  0  0  0  0  0  0  0  0  0  0
    6.6401    2.7869    0.0000 H   0  0  0  0  0  0  0  0  0  0  0  0
    5.4641    4.3700    0.0000 H   0  0  0  0  0  0  0  0  0  0  0  0
    4.8441    3.7500    0.0000 H   0  0  0  0  0  0  0  0  0  0  0  0
    2.6540   -0.1674    0.0000 H   0  0  0  0  0  0  0  0  0  0  0  0
    2.2554   -0.8577    0.0000 H   0  0  0  0  0  0  0  0  0  0  0  0
    3.9441   -0.8326    0.0000 H   0  0  0  0  0  0  0  0  0  0  0  0
    4.3426   -0.1423    0.0000 H   0  0  0  0  0  0  0  0  0  0  0  0
    1.4631   -1.9400    0.0000 H   0  0  0  0  0  0  0  0  0  0  0  0
    4.2690   -1.9400    0.0000 H   0  0  0  0  0  0  0  0  0  0  0  0
    1.4631   -3.5600    0.0000 H   0  0  0  0  0  0  0  0  0  0  0  0
    4.2690   -3.5600    0.0000 H   0  0  0  0  0  0  0  0  0  0  0  0
    2.8660   -4.3700    0.0000 H   0  0  0  0  0  0  0  0  0  0  0  0
  1  8  1  0  0  0  0
  1  9  1  0  0  0  0
  2  8  2  0  0  0  0
  3  4  1  0  0  0  0
  3  5  1  0  0  0  0
  3  6  1  0  0  0  0
  3 16  1  0  0  0  0
  4  8  1  0  0  0  0
  4 17  1  0  0  0  0
  4 18  1  0  0  0  0
  5 19  1  0  0  0  0
  5 23  1  0  0  0  0
  5 24  1  0  0  0  0
  6 20  1  0  0  0  0
  6 21  1  0  0  0  0
  6 22  1  0  0  0  0
  7  9  1  0  0  0  0
  7 10  1  0  0  0  0
  7 25  1  0  0  0  0
  7 26  1  0  0  0  0
  9 27  1  0  0  0  0
  9 28  1  0  0  0  0
 10 11  2  0  0  0  0
 10 12  1  0  0  0  0
 11 13  1  0  0  0  0
 11 29  1  0  0  0  0
 12 14  2  0  0  0  0
 12 30  1  0  0  0  0
 13 15  2  0  0  0  0
 13 31  1  0  0  0  0
 14 15  1  0  0  0  0
 14 32  1  0  0  0  0
 15 33  1  0  0  0  0
M  END
> <PUBCHEM_COMPOUND_CID>
8792

> <PUBCHEM_COMPOUND_CANONICALIZED>
1

> <PUBCHEM_CACTVS_COMPLEXITY>
181

> <PUBCHEM_CACTVS_HBOND_ACCEPTOR>
2

> <PUBCHEM_CACTVS_HBOND_DONOR>
0

> <PUBCHEM_CACTVS_ROTATABLE_BOND>
6

> <PUBCHEM_CACTVS_SUBSKEYS>
AAADceBwMAAAAAAAAAAAAAAAAAAAAAAAAAAwAAAAAAAAAAABAAAAGgAAAAAADQCgmAIyCIAABACIAiDSCAACAAAgAAAIiAEAAIgIIDKAERCCIAAkwAEIiAeAwKAOAAAAAAAAAAAAAAAAAAAAAAAAAAAAAA==

> <PUBCHEM_IUPAC_OPENEYE_NAME>
2-phenylethyl 3-methylbutanoate

> <PUBCHEM_IUPAC_CAS_NAME>
3-methylbutanoic acid 2-phenylethyl ester

> <PUBCHEM_IUPAC_NAME>
2-phenylethyl 3-methylbutanoate

> <PUBCHEM_IUPAC_SYSTEMATIC_NAME>
2-phenylethyl 3-methylbutanoate

> <PUBCHEM_IUPAC_TRADITIONAL_NAME>
3-methylbutyric acid phenethyl ester

> <PUBCHEM_IUPAC_INCHI>
InChI=1S/C13H18O2/c1-11(2)10-13(14)15-9-8-12-6-4-3-5-7-12/h3-7,11H,8-10H2,1-2H3

> <PUBCHEM_IUPAC_INCHIKEY>
JIMGVOCOYZFDKB-UHFFFAOYSA-N

> <PUBCHEM_XLOGP3>
3.6

> <PUBCHEM_EXACT_MASS>
206.13068

> <PUBCHEM_MOLECULAR_FORMULA>
C13H18O2

> <PUBCHEM_MOLECULAR_WEIGHT>
206.28082

> <PUBCHEM_OPENEYE_CAN_SMILES>
CC(C)CC(=O)OCCC1=CC=CC=C1

> <PUBCHEM_OPENEYE_ISO_SMILES>
CC(C)CC(=O)OCCC1=CC=CC=C1

> <PUBCHEM_CACTVS_TPSA>
26.3

> <PUBCHEM_MONOISOTOPIC_WEIGHT>
206.13068

> <PUBCHEM_TOTAL_CHARGE>
0

> <PUBCHEM_HEAVY_ATOM_COUNT>
15

> <PUBCHEM_ATOM_DEF_STEREO_COUNT>
0

> <PUBCHEM_ATOM_UDEF_STEREO_COUNT>
0

> <PUBCHEM_BOND_DEF_STEREO_COUNT>
0

> <PUBCHEM_BOND_UDEF_STEREO_COUNT>
0

> <PUBCHEM_ISOTOPIC_ATOM_COUNT>
0

> <PUBCHEM_COMPONENT_COUNT>
1

> <PUBCHEM_CACTVS_TAUTO_COUNT>
1

> <PUBCHEM_COORDINATE_TYPE>
1
5
255

> <PUBCHEM_BONDANNOTATIONS>
10  11  8
10  12  8
11  13  8
12  14  8
13  15  8
14  15  8

$$$$

