4397
  -OEChem-06261200052D

 50 53  0     1  0  0  0  0  0999 V2000
    8.4036    2.7969    0.0000 O   0  0  0  0  0  0  0  0  0  0  0  0
   10.7496    1.7050    0.0000 O   0  0  0  0  0  0  0  0  0  0  0  0
   10.7533    3.8806    0.0000 O   0  0  0  0  0  0  0  0  0  0  0  0
    9.3558    5.2984    0.0000 O   0  0  0  0  0  0  0  0  0  0  0  0
    8.6793    1.0363    0.0000 N   0  0  0  0  0  0  0  0  0  0  0  0
    8.6793   -0.5732    0.0000 N   0  0  0  0  0  0  0  0  0  0  0  0
    6.8671    1.2316    0.0000 N   0  0  0  0  0  0  0  0  0  0  0  0
    6.8671   -1.7684    0.0000 N   0  0  0  0  0  0  0  0  0  0  0  0
    6.0010   -0.2684    0.0000 N   0  0  0  0  0  0  0  0  0  0  0  0
    2.5369   -5.2684    0.0000 N   0  0  0  0  0  0  0  0  0  0  0  0
    9.9416    2.2942    0.0000 C   0  0  3  0  0  0  0  0  0  0  0  0
    8.9900    1.9868    0.0000 C   0  0  3  0  0  0  0  0  0  0  0  0
    9.9433    3.2942    0.0000 C   0  0  3  0  0  0  0  0  0  0  0  0
    8.9928    3.6049    0.0000 C   0  0  3  0  0  0  0  0  0  0  0  0
    8.6854    4.5564    0.0000 C   0  0  0  0  0  0  0  0  0  0  0  0
    7.7331    0.7316    0.0000 C   0  0  0  0  0  0  0  0  0  0  0  0
    9.2629    0.2316    0.0000 C   0  0  0  0  0  0  0  0  0  0  0  0
    7.7331   -0.2684    0.0000 C   0  0  0  0  0  0  0  0  0  0  0  0
    6.8671   -0.7684    0.0000 C   0  0  0  0  0  0  0  0  0  0  0  0
    6.0010   -2.2684    0.0000 C   0  0  0  0  0  0  0  0  0  0  0  0
    6.0010    0.7316    0.0000 C   0  0  0  0  0  0  0  0  0  0  0  0
    6.0010   -3.2684    0.0000 C   0  0  0  0  0  0  0  0  0  0  0  0
    5.1350   -3.7684    0.0000 C   0  0  0  0  0  0  0  0  0  0  0  0
    4.2690   -3.2684    0.0000 C   0  0  0  0  0  0  0  0  0  0  0  0
    5.1350   -4.7684    0.0000 C   0  0  0  0  0  0  0  0  0  0  0  0
    3.4030   -3.7684    0.0000 C   0  0  0  0  0  0  0  0  0  0  0  0
    4.2690   -5.2684    0.0000 C   0  0  0  0  0  0  0  0  0  0  0  0
    3.4030   -4.7684    0.0000 C   0  0  0  0  0  0  0  0  0  0  0  0
    9.8435    1.6820    0.0000 H   0  0  0  0  0  0  0  0  0  0  0  0
    9.4276    1.5477    0.0000 H   0  0  0  0  0  0  0  0  0  0  0  0
   10.4952    3.0118    0.0000 H   0  0  0  0  0  0  0  0  0  0  0  0
    8.3806    3.7029    0.0000 H   0  0  0  0  0  0  0  0  0  0  0  0
    8.3045    5.0457    0.0000 H   0  0  0  0  0  0  0  0  0  0  0  0
    8.1375    4.2663    0.0000 H   0  0  0  0  0  0  0  0  0  0  0  0
   11.3164    1.9562    0.0000 H   0  0  0  0  0  0  0  0  0  0  0  0
   11.3193    3.6274    0.0000 H   0  0  0  0  0  0  0  0  0  0  0  0
    9.8829    0.2316    0.0000 H   0  0  0  0  0  0  0  0  0  0  0  0
    9.1652    5.8884    0.0000 H   0  0  0  0  0  0  0  0  0  0  0  0
    7.4040   -2.0784    0.0000 H   0  0  0  0  0  0  0  0  0  0  0  0
    5.7890   -1.6858    0.0000 H   0  0  0  0  0  0  0  0  0  0  0  0
    5.3905   -2.3761    0.0000 H   0  0  0  0  0  0  0  0  0  0  0  0
    5.4641    1.0416    0.0000 H   0  0  0  0  0  0  0  0  0  0  0  0
    6.2131   -3.8510    0.0000 H   0  0  0  0  0  0  0  0  0  0  0  0
    6.6116   -3.1608    0.0000 H   0  0  0  0  0  0  0  0  0  0  0  0
    4.2690   -2.6484    0.0000 H   0  0  0  0  0  0  0  0  0  0  0  0
    5.6720   -5.0784    0.0000 H   0  0  0  0  0  0  0  0  0  0  0  0
    2.8660   -3.4584    0.0000 H   0  0  0  0  0  0  0  0  0  0  0  0
    4.2690   -5.8884    0.0000 H   0  0  0  0  0  0  0  0  0  0  0  0
    2.5369   -5.8884    0.0000 H   0  0  0  0  0  0  0  0  0  0  0  0
    2.0000   -4.9584    0.0000 H   0  0  0  0  0  0  0  0  0  0  0  0
  1 12  1  0  0  0  0
  1 14  1  0  0  0  0
  2 11  1  0  0  0  0
  2 35  1  0  0  0  0
  3 13  1  0  0  0  0
  3 36  1  0  0  0  0
  4 15  1  0  0  0  0
  4 38  1  0  0  0  0
  5 12  1  0  0  0  0
  5 16  1  0  0  0  0
  5 17  1  0  0  0  0
  6 17  2  0  0  0  0
  6 18  1  0  0  0  0
  7 16  2  0  0  0  0
  7 21  1  0  0  0  0
  8 19  1  0  0  0  0
  8 20  1  0  0  0  0
  8 39  1  0  0  0  0
  9 19  1  0  0  0  0
  9 21  2  0  0  0  0
 10 28  1  0  0  0  0
 10 49  1  0  0  0  0
 10 50  1  0  0  0  0
 11 12  1  0  0  0  0
 11 13  1  0  0  0  0
 11 29  1  0  0  0  0
 12 30  1  0  0  0  0
 13 14  1  0  0  0  0
 13 31  1  0  0  0  0
 14 15  1  0  0  0  0
 14 32  1  0  0  0  0
 15 33  1  0  0  0  0
 15 34  1  0  0  0  0
 16 18  1  0  0  0  0
 17 37  1  0  0  0  0
 18 19  2  0  0  0  0
 20 22  1  0  0  0  0
 20 40  1  0  0  0  0
 20 41  1  0  0  0  0
 21 42  1  0  0  0  0
 22 23  1  0  0  0  0
 22 43  1  0  0  0  0
 22 44  1  0  0  0  0
 23 24  2  0  0  0  0
 23 25  1  0  0  0  0
 24 26  1  0  0  0  0
 24 45  1  0  0  0  0
 25 27  2  0  0  0  0
 25 46  1  0  0  0  0
 26 28  2  0  0  0  0
 26 47  1  0  0  0  0
 27 28  1  0  0  0  0
 27 48  1  0  0  0  0
M  END
> <PUBCHEM_COMPOUND_CID>
4397

> <PUBCHEM_COMPOUND_CANONICALIZED>
1

> <PUBCHEM_CACTVS_COMPLEXITY>
509

> <PUBCHEM_CACTVS_HBOND_ACCEPTOR>
9

> <PUBCHEM_CACTVS_HBOND_DONOR>
5

> <PUBCHEM_CACTVS_ROTATABLE_BOND>
6

> <PUBCHEM_CACTVS_SUBSKEYS>
AAADceB7uAAAAAAAAAAAAAAAAAAAAWJAAAA8QAAAAAAAAFgB/AAAHgAQCAAADBzhnwY18L/MFgCgAyZjZACCgC0xEqAJ2KAodJiLeCLA2dGeZAhvkALbyCfwsIIOCAAAAAAAAAAQAAAAAAAAAAAAAAAAAA==

> <PUBCHEM_IUPAC_OPENEYE_NAME>
2-[6-[2-(4-aminophenyl)ethylamino]purin-9-yl]-5-(hydroxymethyl)tetrahydrofuran-3,4-diol

> <PUBCHEM_IUPAC_CAS_NAME>
2-[6-[2-(4-aminophenyl)ethylamino]-9-purinyl]-5-(hydroxymethyl)oxolane-3,4-diol

> <PUBCHEM_IUPAC_NAME>
2-[6-[2-(4-aminophenyl)ethylamino]purin-9-yl]-5-(hydroxymethyl)oxolane-3,4-diol

> <PUBCHEM_IUPAC_SYSTEMATIC_NAME>
2-[6-[2-(4-aminophenyl)ethylamino]purin-9-yl]-5-(hydroxymethyl)oxolane-3,4-diol

> <PUBCHEM_IUPAC_TRADITIONAL_NAME>
2-[6-[2-(4-aminophenyl)ethylamino]purin-9-yl]-5-methylol-tetrahydrofuran-3,4-diol

> <PUBCHEM_IUPAC_INCHI>
InChI=1S/C18H22N6O4/c19-11-3-1-10(2-4-11)5-6-20-16-13-17(22-8-21-16)24(9-23-13)18-15(27)14(26)12(7-25)28-18/h1-4,8-9,12,14-15,18,25-27H,5-7,19H2,(H,20,21,22)

> <PUBCHEM_IUPAC_INCHIKEY>
XTPOZVLRZZIEBW-UHFFFAOYSA-N

> <PUBCHEM_XLOGP3>
0.9

> <PUBCHEM_EXACT_MASS>
386.170253

> <PUBCHEM_MOLECULAR_FORMULA>
C18H22N6O4

> <PUBCHEM_MOLECULAR_WEIGHT>
386.40508

> <PUBCHEM_OPENEYE_CAN_SMILES>
C1=CC(=CC=C1CCNC2=NC=NC3=C2N=CN3C4C(C(C(O4)CO)O)O)N

> <PUBCHEM_OPENEYE_ISO_SMILES>
C1=CC(=CC=C1CCNC2=NC=NC3=C2N=CN3C4C(C(C(O4)CO)O)O)N

> <PUBCHEM_CACTVS_TPSA>
152

> <PUBCHEM_MONOISOTOPIC_WEIGHT>
386.170253

> <PUBCHEM_TOTAL_CHARGE>
0

> <PUBCHEM_HEAVY_ATOM_COUNT>
28

> <PUBCHEM_ATOM_DEF_STEREO_COUNT>
0

> <PUBCHEM_ATOM_UDEF_STEREO_COUNT>
4

> <PUBCHEM_BOND_DEF_STEREO_COUNT>
0

> <PUBCHEM_BOND_UDEF_STEREO_COUNT>
0

> <PUBCHEM_ISOTOPIC_ATOM_COUNT>
0

> <PUBCHEM_COMPONENT_COUNT>
1

> <PUBCHEM_CACTVS_TAUTO_COUNT>
3

> <PUBCHEM_COORDINATE_TYPE>
1
5
255

> <PUBCHEM_BONDANNOTATIONS>
14  15  3
16  18  8
18  19  8
11  2  3
23  24  8
23  25  8
24  26  8
25  27  8
26  28  8
27  28  8
13  3  3
12  5  3
5  16  8
5  17  8
6  17  8
6  18  8
7  16  8
7  21  8
9  19  8
9  21  8

$$$$

