10854
  -OEChem-06261205023D

 34 35  0     0  0  0  0  0  0999 V2000
   -0.4232   -0.0206   -0.6208 C   0  0  0  0  0  0  0  0  0  0  0  0
    0.4284   -0.0209    0.6643 C   0  0  0  0  0  0  0  0  0  0  0  0
   -1.8939   -0.0098   -0.3754 C   0  0  0  0  0  0  0  0  0  0  0  0
    1.9132   -0.0099    0.3934 C   0  0  0  0  0  0  0  0  0  0  0  0
   -2.5897   -1.2129   -0.2554 C   0  0  0  0  0  0  0  0  0  0  0  0
    2.5893   -1.2129    0.2657 C   0  0  0  0  0  0  0  0  0  0  0  0
   -2.5740    1.2029   -0.2656 C   0  0  0  0  0  0  0  0  0  0  0  0
    2.5736    1.2029    0.2770 C   0  0  0  0  0  0  0  0  0  0  0  0
   -4.6455    0.0099    0.0842 C   0  0  0  0  0  0  0  0  0  0  0  0
    4.6396    0.0099   -0.1047 C   0  0  0  0  0  0  0  0  0  0  0  0
   -3.9656   -1.2030   -0.0256 C   0  0  0  0  0  0  0  0  0  0  0  0
    3.9614   -1.2030    0.0150 C   0  0  0  0  0  0  0  0  0  0  0  0
   -3.9497    1.2129   -0.0357 C   0  0  0  0  0  0  0  0  0  0  0  0
    3.9457    1.2130    0.0263 C   0  0  0  0  0  0  0  0  0  0  0  0
   -6.1163    0.0206    0.3292 C   0  0  0  0  0  0  0  0  0  0  0  0
    6.1066    0.0208   -0.3720 C   0  0  0  0  0  0  0  0  0  0  0  0
   -0.1625   -0.8942   -1.2340 H   0  0  0  0  0  0  0  0  0  0  0  0
   -0.1527    0.8455   -1.2405 H   0  0  0  0  0  0  0  0  0  0  0  0
    0.1768   -0.8967    1.2777 H   0  0  0  0  0  0  0  0  0  0  0  0
    0.1669    0.8469    1.2849 H   0  0  0  0  0  0  0  0  0  0  0  0
   -2.0708   -2.1644   -0.3365 H   0  0  0  0  0  0  0  0  0  0  0  0
    2.0691   -2.1623    0.3556 H   0  0  0  0  0  0  0  0  0  0  0  0
   -2.0428    2.1469   -0.3547 H   0  0  0  0  0  0  0  0  0  0  0  0
    2.0412    2.1445    0.3758 H   0  0  0  0  0  0  0  0  0  0  0  0
   -4.4962   -2.1468    0.0683 H   0  0  0  0  0  0  0  0  0  0  0  0
    4.4911   -2.1468   -0.0835 H   0  0  0  0  0  0  0  0  0  0  0  0
   -4.4679    2.1643    0.0502 H   0  0  0  0  0  0  0  0  0  0  0  0
    4.4632    2.1644   -0.0635 H   0  0  0  0  0  0  0  0  0  0  0  0
   -6.5857    0.9016   -0.1218 H   0  0  0  0  0  0  0  0  0  0  0  0
   -6.5970   -0.8591   -0.1120 H   0  0  0  0  0  0  0  0  0  0  0  0
   -6.3179    0.0279    1.4049 H   0  0  0  0  0  0  0  0  0  0  0  0
    6.6605    0.0212    0.5720 H   0  0  0  0  0  0  0  0  0  0  0  0
    6.4085   -0.8556   -0.9557 H   0  0  0  0  0  0  0  0  0  0  0  0
    6.3965    0.9052   -0.9495 H   0  0  0  0  0  0  0  0  0  0  0  0
  1  2  1  0  0  0  0
  1  3  1  0  0  0  0
  1 17  1  0  0  0  0
  1 18  1  0  0  0  0
  2  4  1  0  0  0  0
  2 19  1  0  0  0  0
  2 20  1  0  0  0  0
  3  5  2  0  0  0  0
  3  7  1  0  0  0  0
  4  6  2  0  0  0  0
  4  8  1  0  0  0  0
  5 11  1  0  0  0  0
  5 21  1  0  0  0  0
  6 12  1  0  0  0  0
  6 22  1  0  0  0  0
  7 13  2  0  0  0  0
  7 23  1  0  0  0  0
  8 14  2  0  0  0  0
  8 24  1  0  0  0  0
  9 11  2  0  0  0  0
  9 13  1  0  0  0  0
  9 15  1  0  0  0  0
 10 12  2  0  0  0  0
 10 14  1  0  0  0  0
 10 16  1  0  0  0  0
 11 25  1  0  0  0  0
 12 26  1  0  0  0  0
 13 27  1  0  0  0  0
 14 28  1  0  0  0  0
 15 29  1  0  0  0  0
 15 30  1  0  0  0  0
 15 31  1  0  0  0  0
 16 32  1  0  0  0  0
 16 33  1  0  0  0  0
 16 34  1  0  0  0  0
M  END
> <PUBCHEM_COMPOUND_CID>
10854

> <PUBCHEM_CONFORMER_RMSD>
0.6

> <PUBCHEM_CONFORMER_DIVERSEORDER>
1
5
6
4
3
2

> <PUBCHEM_MMFF94_PARTIAL_CHARGES>
24
1 0.14
10 -0.14
11 -0.15
12 -0.15
13 -0.15
14 -0.15
15 0.14
16 0.14
2 0.14
21 0.15
22 0.15
23 0.15
24 0.15
25 0.15
26 0.15
27 0.15
28 0.15
3 -0.14
4 -0.14
5 -0.15
6 -0.15
7 -0.15
8 -0.15
9 -0.14

> <PUBCHEM_EFFECTIVE_ROTOR_COUNT>
3

> <PUBCHEM_PHARMACOPHORE_FEATURES>
2
6 3 5 7 9 11 13 rings
6 4 6 8 10 12 14 rings

> <PUBCHEM_HEAVY_ATOM_COUNT>
16

> <PUBCHEM_ATOM_DEF_STEREO_COUNT>
0

> <PUBCHEM_ATOM_UDEF_STEREO_COUNT>
0

> <PUBCHEM_BOND_DEF_STEREO_COUNT>
0

> <PUBCHEM_BOND_UDEF_STEREO_COUNT>
0

> <PUBCHEM_ISOTOPIC_ATOM_COUNT>
0

> <PUBCHEM_COMPONENT_COUNT>
1

> <PUBCHEM_CACTVS_TAUTO_COUNT>
1

> <PUBCHEM_CONFORMER_ID>
00002A6600000001

> <PUBCHEM_MMFF94_ENERGY>
40.8145

> <PUBCHEM_FEATURE_SELFOVERLAP>
10.149

> <PUBCHEM_SHAPE_FINGERPRINT>
10354089 29 18410011039957279288
10366900 7 16272208591481625057
10968037 39 18273213089048175927
11287383 113 18272087180213704208
11401426 45 7132716093538869741
12107183 9 17690280834151320041
12236239 1 17846498145161866125
12730499 353 18273207595769401298
128620 24 15769779065082632134
13167823 11 18410858762963650959
13533116 47 5400531138502965332
13760787 19 18334860506388003574
14123238 8 18411138043206434822
1420 363 17774997990597402211
14251718 22 18202281398621194638
14341114 176 18410569578636558617
15242433 33 18409449189088425694
17834072 33 18411139121269606486
17834076 25 16988562398588115778
17844677 252 18409442591987328880
18186145 218 18202293502081673376
19489759 90 14129055924689968059
200 152 18186521007681065090
20645477 70 18335701706378165870
21267235 1 18410567388086978721
221357 26 18408606976150996608
2297311 6 18334569157518758845
23402539 116 18410299094370213494
23402655 69 18410294726900098172
23557571 272 18341047505593840220
23559900 14 18336834099763493473
29717793 49 17240193344656687684
300161 21 18411428305702115823
3004659 81 18340766053004725134
3545911 37 18410855464433789044
4073 2 18059569144960619018
42 15 18411699889474612975
4214541 1 18410013255954838053
42788 4 18410855464423148581
4990 188 18334571352616110910
5104073 3 18411422829618775376
522135 26 18335140903812894706
542803 24 18411700984569954037
54446538 1 18410855464423655276
77779 3 18410575084663078912

> <PUBCHEM_SHAPE_MULTIPOLES>
329.27
14.03
1.35
0.72
0.1
0
0
-0.1
-0.13
0
0
-0.02
0
0

> <PUBCHEM_SHAPE_SELFOVERLAP>
695.015

> <PUBCHEM_SHAPE_VOLUME>
174.9

> <PUBCHEM_COORDINATE_TYPE>
2
5
10

$$$$

