47205790
  -OEChem-06241223003D

 42 42  0     0  0  0  0  0  0999 V2000
    1.5394   -1.5741   -0.7652 O   0  0  0  0  0  0  0  0  0  0  0  0
   -1.8382    0.7249    1.2957 O   0  0  0  0  0  0  0  0  0  0  0  0
   -1.3468   -2.3051   -1.3444 O   0  0  0  0  0  0  0  0  0  0  0  0
   -0.4488   -3.0832    0.6531 N   0  0  0  0  0  0  0  0  0  0  0  0
   -3.1479   -0.7923    0.1245 N   0  0  0  0  0  0  0  0  0  0  0  0
   -3.4754    1.5548   -0.2831 C   0  0  0  0  0  0  0  0  0  0  0  0
    0.7563   -3.6672    0.1093 C   0  0  0  0  0  0  0  0  0  0  0  0
   -3.0182    2.9620    0.0896 C   0  0  0  0  0  0  0  0  0  0  0  0
    1.8953   -2.6646    0.0748 C   0  0  0  0  0  0  0  0  0  0  0  0
   -2.5816   -1.9854    0.7075 C   0  0  0  0  0  0  0  0  0  0  0  0
   -2.7191    0.4793    0.4759 C   0  0  0  0  0  0  0  0  0  0  0  0
   -1.4049   -2.4472   -0.1256 C   0  0  0  0  0  0  0  0  0  0  0  0
    2.0834   -0.3545   -0.4575 C   0  0  0  0  0  0  0  0  0  0  0  0
   -3.8110    4.0221   -0.6573 C   0  0  0  0  0  0  0  0  0  0  0  0
    3.1900    2.1281    0.1704 C   0  0  0  0  0  0  0  0  0  0  0  0
    3.3355   -0.2835    0.1533 C   0  0  0  0  0  0  0  0  0  0  0  0
    1.3846    0.8157   -0.7542 C   0  0  0  0  0  0  0  0  0  0  0  0
    3.8887    0.9578    0.4672 C   0  0  0  0  0  0  0  0  0  0  0  0
    1.9379    2.0570   -0.4401 C   0  0  0  0  0  0  0  0  0  0  0  0
    3.7809    3.4553    0.5061 C   0  0  0  0  0  0  0  0  0  0  0  0
   -4.5440    1.4382   -0.0661 H   0  0  0  0  0  0  0  0  0  0  0  0
   -3.3285    1.3854   -1.3565 H   0  0  0  0  0  0  0  0  0  0  0  0
    0.5394   -4.0258   -0.9029 H   0  0  0  0  0  0  0  0  0  0  0  0
    1.0194   -4.5250    0.7357 H   0  0  0  0  0  0  0  0  0  0  0  0
   -1.9515    3.0799   -0.1360 H   0  0  0  0  0  0  0  0  0  0  0  0
   -3.1329    3.1197    1.1687 H   0  0  0  0  0  0  0  0  0  0  0  0
    2.7958   -3.1457   -0.3231 H   0  0  0  0  0  0  0  0  0  0  0  0
    2.0826   -2.3382    1.1065 H   0  0  0  0  0  0  0  0  0  0  0  0
   -2.2825   -1.7798    1.7400 H   0  0  0  0  0  0  0  0  0  0  0  0
   -3.3470   -2.7668    0.7012 H   0  0  0  0  0  0  0  0  0  0  0  0
   -0.5903   -3.1558    1.6563 H   0  0  0  0  0  0  0  0  0  0  0  0
   -3.8732   -0.9002   -0.5787 H   0  0  0  0  0  0  0  0  0  0  0  0
   -4.8779    3.9526   -0.4222 H   0  0  0  0  0  0  0  0  0  0  0  0
   -3.4657    5.0219   -0.3761 H   0  0  0  0  0  0  0  0  0  0  0  0
   -3.6894    3.9126   -1.7397 H   0  0  0  0  0  0  0  0  0  0  0  0
    3.9246   -1.1684    0.3747 H   0  0  0  0  0  0  0  0  0  0  0  0
    0.4080    0.7659   -1.2283 H   0  0  0  0  0  0  0  0  0  0  0  0
    4.8684    1.0010    0.9357 H   0  0  0  0  0  0  0  0  0  0  0  0
    1.3837    2.9614   -0.6769 H   0  0  0  0  0  0  0  0  0  0  0  0
    4.3741    3.8262   -0.3356 H   0  0  0  0  0  0  0  0  0  0  0  0
    3.0003    4.1887    0.7356 H   0  0  0  0  0  0  0  0  0  0  0  0
    4.4268    3.3889    1.3883 H   0  0  0  0  0  0  0  0  0  0  0  0
  1  9  1  0  0  0  0
  1 13  1  0  0  0  0
  2 11  2  0  0  0  0
  3 12  2  0  0  0  0
  4  7  1  0  0  0  0
  4 12  1  0  0  0  0
  4 31  1  0  0  0  0
  5 10  1  0  0  0  0
  5 11  1  0  0  0  0
  5 32  1  0  0  0  0
  6  8  1  0  0  0  0
  6 11  1  0  0  0  0
  6 21  1  0  0  0  0
  6 22  1  0  0  0  0
  7  9  1  0  0  0  0
  7 23  1  0  0  0  0
  7 24  1  0  0  0  0
  8 14  1  0  0  0  0
  8 25  1  0  0  0  0
  8 26  1  0  0  0  0
  9 27  1  0  0  0  0
  9 28  1  0  0  0  0
 10 12  1  0  0  0  0
 10 29  1  0  0  0  0
 10 30  1  0  0  0  0
 13 16  2  0  0  0  0
 13 17  1  0  0  0  0
 14 33  1  0  0  0  0
 14 34  1  0  0  0  0
 14 35  1  0  0  0  0
 15 18  2  0  0  0  0
 15 19  1  0  0  0  0
 15 20  1  0  0  0  0
 16 18  1  0  0  0  0
 16 36  1  0  0  0  0
 17 19  2  0  0  0  0
 17 37  1  0  0  0  0
 18 38  1  0  0  0  0
 19 39  1  0  0  0  0
 20 40  1  0  0  0  0
 20 41  1  0  0  0  0
 20 42  1  0  0  0  0
M  END
> <PUBCHEM_COMPOUND_CID>
47205790

> <PUBCHEM_CONFORMER_RMSD>
1

> <PUBCHEM_CONFORMER_DIVERSEORDER>
1
82
137
139
142
117
54
116
73
65
103
5
61
128
135
125
2
88
60
29
51
99
32
91
24
129
33
4
114
40
64
140
101
102
17
113
144
26
118
141
95
147
100
81
21
89
8
83
63
15
58
108
122
138
133
42
92
9
22
59
56
69
53
46
143
48
124
10
36
104
96
76
112
77
23
11
47
130
45
105
110
75
111
79
85
44
120
78
31
66
98
86
123
68
62
25
14
94
19
13
7
149
136
49
146
27
74
39
119
106
72
109
50
71
121
38
52
16
12
30
34
132
80
87
55
145
131
90
126
67
115
28
57
93
148
127
37
84
97
41
70
43
134
18
20
3
107
6
35

> <PUBCHEM_MMFF94_PARTIAL_CHARGES>
24
1 -0.36
10 0.36
11 0.57
12 0.57
13 0.08
15 -0.14
16 -0.15
17 -0.15
18 -0.15
19 -0.15
2 -0.57
20 0.14
3 -0.57
31 0.37
32 0.37
36 0.15
37 0.15
38 0.15
39 0.15
4 -0.73
5 -0.73
6 0.06
7 0.3
9 0.28

> <PUBCHEM_EFFECTIVE_ROTOR_COUNT>
10

> <PUBCHEM_PHARMACOPHORE_FEATURES>
7
1 1 acceptor
1 14 hydrophobe
1 2 acceptor
1 3 acceptor
1 4 donor
1 5 donor
6 13 15 16 17 18 19 rings

> <PUBCHEM_HEAVY_ATOM_COUNT>
20

> <PUBCHEM_ATOM_DEF_STEREO_COUNT>
0

> <PUBCHEM_ATOM_UDEF_STEREO_COUNT>
0

> <PUBCHEM_BOND_DEF_STEREO_COUNT>
0

> <PUBCHEM_BOND_UDEF_STEREO_COUNT>
0

> <PUBCHEM_ISOTOPIC_ATOM_COUNT>
0

> <PUBCHEM_COMPONENT_COUNT>
1

> <PUBCHEM_CACTVS_TAUTO_COUNT>
4

> <PUBCHEM_CONFORMER_ID>
02D04D9E00000001

> <PUBCHEM_MMFF94_ENERGY>
37.2793

> <PUBCHEM_FEATURE_SELFOVERLAP>
35.521

> <PUBCHEM_SHAPE_FINGERPRINT>
11370993 70 18410580582311174481
138480 1 17690280838319679563
14251764 38 18338806731446383349
14466204 15 18410859897631563514
14790565 3 18341607067835884044
15003188 8 18196385920489912256
15256400 18 18337671893944342336
17093844 170 17907584971012799776
1768 85 18194108849801249433
19930381 70 18339643468475005329
20567600 299 17688035622981548613
20621476 13 17907581685210090781
21860390 5 17613440360496218095
22749437 52 18409730668423251361
3117164 225 18266200357085056640
3524813 1 17030494246161818954
469060 322 17691102856595963475
5939293 188 17834115621040151095
6443956 14 17402890519127305765

> <PUBCHEM_SHAPE_MULTIPOLES>
384.02
7.54
5.63
0.92
1.12
0.17
0.03
7.88
-0.56
1.42
0.09
0.18
-0.07
0.91

> <PUBCHEM_SHAPE_SELFOVERLAP>
768.016

> <PUBCHEM_SHAPE_VOLUME>
225.9

> <PUBCHEM_COORDINATE_TYPE>
2
5
10

$$$$

