8081
  -OEChem-06261202342D

 12 12  0     0  0  0  0  0  0999 V2000
    2.8660   -1.0000    0.0000 O   0  0  0  0  0  0  0  0  0  0  0  0
    2.0000    0.5000    0.0000 O   0  0  0  0  0  0  0  0  0  0  0  0
    3.7320    0.5000    0.0000 O   0  0  0  0  0  0  0  0  0  0  0  0
    2.0000   -0.5000    0.0000 C   0  0  0  0  0  0  0  0  0  0  0  0
    2.8660    1.0000    0.0000 C   0  0  0  0  0  0  0  0  0  0  0  0
    3.7320   -0.5000    0.0000 C   0  0  0  0  0  0  0  0  0  0  0  0
    1.3894   -0.3923    0.0000 H   0  0  0  0  0  0  0  0  0  0  0  0
    1.7880   -1.0826    0.0000 H   0  0  0  0  0  0  0  0  0  0  0  0
    3.2646    1.4750    0.0000 H   0  0  0  0  0  0  0  0  0  0  0  0
    2.4675    1.4750    0.0000 H   0  0  0  0  0  0  0  0  0  0  0  0
    3.9441   -1.0826    0.0000 H   0  0  0  0  0  0  0  0  0  0  0  0
    4.3426   -0.3923    0.0000 H   0  0  0  0  0  0  0  0  0  0  0  0
  1  4  1  0  0  0  0
  1  6  1  0  0  0  0
  2  4  1  0  0  0  0
  2  5  1  0  0  0  0
  3  5  1  0  0  0  0
  3  6  1  0  0  0  0
  4  7  1  0  0  0  0
  4  8  1  0  0  0  0
  5  9  1  0  0  0  0
  5 10  1  0  0  0  0
  6 11  1  0  0  0  0
  6 12  1  0  0  0  0
M  END
> <PUBCHEM_COMPOUND_CID>
8081

> <PUBCHEM_COMPOUND_CANONICALIZED>
1

> <PUBCHEM_CACTVS_COMPLEXITY>
21.5

> <PUBCHEM_CACTVS_HBOND_ACCEPTOR>
3

> <PUBCHEM_CACTVS_HBOND_DONOR>
0

> <PUBCHEM_CACTVS_ROTATABLE_BOND>
0

> <PUBCHEM_CACTVS_SUBSKEYS>
AAADcYBAMAAAAAAAAAAAAAAAAAAAAAAAAAAkAAAAAAAAAAAAAAAAEgAAAAAAAAAAAAMACAAABAAAAAAAAAAAAAAAAAAAAAAAAAAQAAAAAAAgAAAAAAAAAAAAAAAAAAAAAAAAAAAAAAAAAAAAAAAAAAAAAA==

> <PUBCHEM_IUPAC_OPENEYE_NAME>
1,3,5-trioxane

> <PUBCHEM_IUPAC_CAS_NAME>
1,3,5-trioxane

> <PUBCHEM_IUPAC_NAME>
1,3,5-trioxane

> <PUBCHEM_IUPAC_SYSTEMATIC_NAME>
1,3,5-trioxane

> <PUBCHEM_IUPAC_TRADITIONAL_NAME>
1,3,5-trioxane

> <PUBCHEM_IUPAC_INCHI>
InChI=1S/C3H6O3/c1-4-2-6-3-5-1/h1-3H2

> <PUBCHEM_IUPAC_INCHIKEY>
BGJSXRVXTHVRSN-UHFFFAOYSA-N

> <PUBCHEM_XLOGP3>
-0.4

> <PUBCHEM_EXACT_MASS>
90.031694

> <PUBCHEM_MOLECULAR_FORMULA>
C3H6O3

> <PUBCHEM_MOLECULAR_WEIGHT>
90.07794

> <PUBCHEM_OPENEYE_CAN_SMILES>
C1OCOCO1

> <PUBCHEM_OPENEYE_ISO_SMILES>
C1OCOCO1

> <PUBCHEM_CACTVS_TPSA>
27.7

> <PUBCHEM_MONOISOTOPIC_WEIGHT>
90.031694

> <PUBCHEM_TOTAL_CHARGE>
0

> <PUBCHEM_HEAVY_ATOM_COUNT>
6

> <PUBCHEM_ATOM_DEF_STEREO_COUNT>
0

> <PUBCHEM_ATOM_UDEF_STEREO_COUNT>
0

> <PUBCHEM_BOND_DEF_STEREO_COUNT>
0

> <PUBCHEM_BOND_UDEF_STEREO_COUNT>
0

> <PUBCHEM_ISOTOPIC_ATOM_COUNT>
0

> <PUBCHEM_COMPONENT_COUNT>
1

> <PUBCHEM_CACTVS_TAUTO_COUNT>
1

> <PUBCHEM_COORDINATE_TYPE>
1
5
255

$$$$

