3583
  -OEChem-06251223312D

 84 85  0     1  0  0  0  0  0999 V2000
    6.9459   -1.2634    0.0000 O   0  0  0  0  0  0  0  0  0  0  0  0
    7.2101    2.3325    0.0000 O   0  0  0  0  0  0  0  0  0  0  0  0
   11.7454    5.0584    0.0000 O   0  0  0  0  0  0  0  0  0  0  0  0
   12.1026    3.3636    0.0000 O   0  0  0  0  0  0  0  0  0  0  0  0
    6.5888    0.4315    0.0000 N   0  0  0  0  0  0  0  0  0  0  0  0
    4.6318    0.0190    0.0000 N   0  0  0  0  0  0  0  0  0  0  0  0
    8.8564    1.7944    0.0000 N   0  0  0  0  0  0  0  0  0  0  0  0
    4.6783   -4.2358    0.0000 N   0  0  0  0  0  0  0  0  0  0  0  0
    4.9889   -1.6758    0.0000 C   0  0  0  0  0  0  0  0  0  0  0  0
    5.2996   -0.7253    0.0000 C   0  0  3  0  0  0  0  0  0  0  0  0
    8.2351   -0.1066    0.0000 C   0  0  0  0  0  0  0  0  0  0  0  0
    7.5673    0.6377    0.0000 C   0  0  3  0  0  0  0  0  0  0  0  0
    4.6783   -2.6263    0.0000 C   0  0  0  0  0  0  0  0  0  0  0  0
    6.2781   -0.5190    0.0000 C   0  0  0  0  0  0  0  0  0  0  0  0
    5.9394   -1.9864    0.0000 C   0  0  0  0  0  0  0  0  0  0  0  0
    4.0384   -1.3651    0.0000 C   0  0  0  0  0  0  0  0  0  0  0  0
    3.7320   -2.9310    0.0000 C   0  0  0  0  0  0  0  0  0  0  0  0
    7.8779    1.5882    0.0000 C   0  0  0  0  0  0  0  0  0  0  0  0
    8.9030   -0.8509    0.0000 C   0  0  0  0  0  0  0  0  0  0  0  0
    8.9794    0.5612    0.0000 C   0  0  0  0  0  0  0  0  0  0  0  0
    7.4908   -0.7744    0.0000 C   0  0  0  0  0  0  0  0  0  0  0  0
    5.2619   -3.4310    0.0000 C   0  0  0  0  0  0  0  0  0  0  0  0
    9.1671    2.7449    0.0000 C   0  0  3  0  0  0  0  0  0  0  0  0
    3.7320   -3.9310    0.0000 C   0  0  0  0  0  0  0  0  0  0  0  0
    8.4993    3.4893    0.0000 C   0  0  0  0  0  0  0  0  0  0  0  0
    2.8660   -2.4310    0.0000 C   0  0  0  0  0  0  0  0  0  0  0  0
    4.9424    0.9696    0.0000 C   0  0  0  0  0  0  0  0  0  0  0  0
    9.5243    1.0501    0.0000 C   0  0  0  0  0  0  0  0  0  0  0  0
    2.8660   -4.4310    0.0000 C   0  0  0  0  0  0  0  0  0  0  0  0
   10.1456    2.9512    0.0000 C   0  0  0  0  0  0  0  0  0  0  0  0
    4.9889   -5.1863    0.0000 C   0  0  0  0  0  0  0  0  0  0  0  0
    8.8099    4.4398    0.0000 C   0  0  0  0  0  0  0  0  0  0  0  0
    7.5208    3.2830    0.0000 C   0  0  0  0  0  0  0  0  0  0  0  0
    2.0000   -2.9310    0.0000 C   0  0  0  0  0  0  0  0  0  0  0  0
    2.0000   -3.9310    0.0000 C   0  0  0  0  0  0  0  0  0  0  0  0
   10.4563    3.9017    0.0000 C   0  0  0  0  0  0  0  0  0  0  0  0
    9.7884    4.6460    0.0000 C   0  0  0  0  0  0  0  0  0  0  0  0
   11.4348    4.1079    0.0000 C   0  0  0  0  0  0  0  0  0  0  0  0
    5.4922   -0.1359    0.0000 H   0  0  0  0  0  0  0  0  0  0  0  0
    7.3747    0.0484    0.0000 H   0  0  0  0  0  0  0  0  0  0  0  0
    4.2310   -0.7758    0.0000 H   0  0  0  0  0  0  0  0  0  0  0  0
    3.4491   -1.1725    0.0000 H   0  0  0  0  0  0  0  0  0  0  0  0
    3.8458   -1.9544    0.0000 H   0  0  0  0  0  0  0  0  0  0  0  0
    5.7468   -2.5758    0.0000 H   0  0  0  0  0  0  0  0  0  0  0  0
    6.5288   -2.1791    0.0000 H   0  0  0  0  0  0  0  0  0  0  0  0
    6.1321   -1.3971    0.0000 H   0  0  0  0  0  0  0  0  0  0  0  0
    6.1747    0.8929    0.0000 H   0  0  0  0  0  0  0  0  0  0  0  0
    8.4415   -1.2650    0.0000 H   0  0  0  0  0  0  0  0  0  0  0  0
    9.3170   -1.3124    0.0000 H   0  0  0  0  0  0  0  0  0  0  0  0
    9.3644   -0.4368    0.0000 H   0  0  0  0  0  0  0  0  0  0  0  0
    9.3935    0.0998    0.0000 H   0  0  0  0  0  0  0  0  0  0  0  0
    9.4409    0.9753    0.0000 H   0  0  0  0  0  0  0  0  0  0  0  0
    8.5654    1.0227    0.0000 H   0  0  0  0  0  0  0  0  0  0  0  0
    7.0768   -0.3130    0.0000 H   0  0  0  0  0  0  0  0  0  0  0  0
    7.0293   -1.1885    0.0000 H   0  0  0  0  0  0  0  0  0  0  0  0
    7.9049   -1.2359    0.0000 H   0  0  0  0  0  0  0  0  0  0  0  0
    4.0251   -0.1088    0.0000 H   0  0  0  0  0  0  0  0  0  0  0  0
    5.8819   -3.4310    0.0000 H   0  0  0  0  0  0  0  0  0  0  0  0
    9.5812    2.2835    0.0000 H   0  0  0  0  0  0  0  0  0  0  0  0
    8.3066    2.8999    0.0000 H   0  0  0  0  0  0  0  0  0  0  0  0
    2.8660   -1.8110    0.0000 H   0  0  0  0  0  0  0  0  0  0  0  0
    5.5317    0.7769    0.0000 H   0  0  0  0  0  0  0  0  0  0  0  0
    5.1350    1.5589    0.0000 H   0  0  0  0  0  0  0  0  0  0  0  0
    4.3531    1.1622    0.0000 H   0  0  0  0  0  0  0  0  0  0  0  0
    9.0628    0.6361    0.0000 H   0  0  0  0  0  0  0  0  0  0  0  0
    9.9383    0.5887    0.0000 H   0  0  0  0  0  0  0  0  0  0  0  0
    9.9858    1.4642    0.0000 H   0  0  0  0  0  0  0  0  0  0  0  0
    2.8660   -5.0510    0.0000 H   0  0  0  0  0  0  0  0  0  0  0  0
   10.5597    2.4897    0.0000 H   0  0  0  0  0  0  0  0  0  0  0  0
    4.3996   -5.3789    0.0000 H   0  0  0  0  0  0  0  0  0  0  0  0
    5.1815   -5.7756    0.0000 H   0  0  0  0  0  0  0  0  0  0  0  0
    5.5783   -4.9937    0.0000 H   0  0  0  0  0  0  0  0  0  0  0  0
    9.3992    4.2472    0.0000 H   0  0  0  0  0  0  0  0  0  0  0  0
    7.3929    3.8897    0.0000 H   0  0  0  0  0  0  0  0  0  0  0  0
    6.9141    3.1552    0.0000 H   0  0  0  0  0  0  0  0  0  0  0  0
    7.6486    2.6764    0.0000 H   0  0  0  0  0  0  0  0  0  0  0  0
    9.0025    5.0291    0.0000 H   0  0  0  0  0  0  0  0  0  0  0  0
    8.2206    4.6324    0.0000 H   0  0  0  0  0  0  0  0  0  0  0  0
    1.4631   -2.6210    0.0000 H   0  0  0  0  0  0  0  0  0  0  0  0
    1.4631   -4.2410    0.0000 H   0  0  0  0  0  0  0  0  0  0  0  0
   10.2499    5.0601    0.0000 H   0  0  0  0  0  0  0  0  0  0  0  0
    9.3744    5.1075    0.0000 H   0  0  0  0  0  0  0  0  0  0  0  0
    9.3270    4.2319    0.0000 H   0  0  0  0  0  0  0  0  0  0  0  0
   12.3521    5.1863    0.0000 H   0  0  0  0  0  0  0  0  0  0  0  0
  1 14  2  0  0  0  0
  2 18  2  0  0  0  0
  3 38  1  0  0  0  0
  3 84  1  0  0  0  0
  4 38  2  0  0  0  0
  5 12  1  0  0  0  0
  5 14  1  0  0  0  0
  5 47  1  0  0  0  0
  6 10  1  0  0  0  0
  6 27  1  0  0  0  0
  6 57  1  0  0  0  0
  7 18  1  0  0  0  0
  7 23  1  0  0  0  0
  7 28  1  0  0  0  0
  8 22  1  0  0  0  0
  8 24  1  0  0  0  0
  8 31  1  0  0  0  0
  9 10  1  0  0  0  0
  9 13  1  0  0  0  0
  9 15  1  0  0  0  0
  9 16  1  0  0  0  0
 10 14  1  0  0  0  0
 10 39  1  0  0  0  0
 11 12  1  0  0  0  0
 11 19  1  0  0  0  0
 11 20  1  0  0  0  0
 11 21  1  0  0  0  0
 12 18  1  0  0  0  0
 12 40  1  0  0  0  0
 13 17  1  0  0  0  0
 13 22  2  0  0  0  0
 15 44  1  0  0  0  0
 15 45  1  0  0  0  0
 15 46  1  0  0  0  0
 16 41  1  0  0  0  0
 16 42  1  0  0  0  0
 16 43  1  0  0  0  0
 17 24  1  0  0  0  0
 17 26  2  0  0  0  0
 19 48  1  0  0  0  0
 19 49  1  0  0  0  0
 19 50  1  0  0  0  0
 20 51  1  0  0  0  0
 20 52  1  0  0  0  0
 20 53  1  0  0  0  0
 21 54  1  0  0  0  0
 21 55  1  0  0  0  0
 21 56  1  0  0  0  0
 22 58  1  0  0  0  0
 23 25  1  0  0  0  0
 23 30  1  0  0  0  0
 23 59  1  0  0  0  0
 24 29  2  0  0  0  0
 25 32  1  0  0  0  0
 25 33  1  0  0  0  0
 25 60  1  0  0  0  0
 26 34  1  0  0  0  0
 26 61  1  0  0  0  0
 27 62  1  0  0  0  0
 27 63  1  0  0  0  0
 27 64  1  0  0  0  0
 28 65  1  0  0  0  0
 28 66  1  0  0  0  0
 28 67  1  0  0  0  0
 29 35  1  0  0  0  0
 29 68  1  0  0  0  0
 30 36  2  3  0  0  0
 30 69  1  0  0  0  0
 31 70  1  0  0  0  0
 31 71  1  0  0  0  0
 31 72  1  0  0  0  0
 32 73  1  0  0  0  0
 32 77  1  0  0  0  0
 32 78  1  0  0  0  0
 33 74  1  0  0  0  0
 33 75  1  0  0  0  0
 33 76  1  0  0  0  0
 34 35  2  0  0  0  0
 34 79  1  0  0  0  0
 35 80  1  0  0  0  0
 36 37  1  0  0  0  0
 36 38  1  0  0  0  0
 37 81  1  0  0  0  0
 37 82  1  0  0  0  0
 37 83  1  0  0  0  0
M  END
> <PUBCHEM_COMPOUND_CID>
3583

> <PUBCHEM_COMPOUND_CANONICALIZED>
1

> <PUBCHEM_CACTVS_COMPLEXITY>
891

> <PUBCHEM_CACTVS_HBOND_ACCEPTOR>
5

> <PUBCHEM_CACTVS_HBOND_DONOR>
3

> <PUBCHEM_CACTVS_ROTATABLE_BOND>
11

> <PUBCHEM_CACTVS_SUBSKEYS>
AAADcfB7uAAAAAAAAAAAAAAAAAAAAWAAAAAwAAAAAAAAAFgB8AAAHgAQCAAADyjBngQ+yPPMEgCoAzX3XACCgCAxAiAI2KG4ZNgIZPLAkbGUcAhglgDI2YcYicCPgAAAAAACAAAAAAAAAAQAAAAAAAAAAA==

> <PUBCHEM_IUPAC_OPENEYE_NAME>
4-[[3,3-dimethyl-2-[[3-methyl-2-(methylamino)-3-(1-methylindol-3-yl)butanoyl]amino]butanoyl]-methyl-amino]-2,5-dimethyl-hex-2-enoic acid

> <PUBCHEM_IUPAC_CAS_NAME>
4-[[3,3-dimethyl-2-[[3-methyl-2-(methylamino)-3-(1-methyl-3-indolyl)-1-oxobutyl]amino]-1-oxobutyl]-methylamino]-2,5-dimethyl-2-hexenoic acid

> <PUBCHEM_IUPAC_NAME>
4-[[3,3-dimethyl-2-[[3-methyl-2-(methylamino)-3-(1-methylindol-3-yl)butanoyl]amino]butanoyl]-methylamino]-2,5-dimethylhex-2-enoic acid

> <PUBCHEM_IUPAC_SYSTEMATIC_NAME>
4-[[3,3-dimethyl-2-[[3-methyl-2-(methylamino)-3-(1-methylindol-3-yl)butanoyl]amino]butanoyl]-methyl-amino]-2,5-dimethyl-hex-2-enoic acid

> <PUBCHEM_IUPAC_TRADITIONAL_NAME>
4-[[3,3-dimethyl-2-[[3-methyl-2-(methylamino)-3-(1-methylindol-3-yl)butanoyl]amino]butanoyl]-methyl-amino]-2,5-dimethyl-hex-2-enoic acid

> <PUBCHEM_IUPAC_INCHI>
InChI=1S/C30H46N4O4/c1-18(2)23(16-19(3)28(37)38)34(11)27(36)25(29(4,5)6)32-26(35)24(31-9)30(7,8)21-17-33(10)22-15-13-12-14-20(21)22/h12-18,23-25,31H,1-11H3,(H,32,35)(H,37,38)

> <PUBCHEM_IUPAC_INCHIKEY>
KQODQNJLJQHFQV-UHFFFAOYSA-N

> <PUBCHEM_XLOGP3_AA>
2.7

> <PUBCHEM_EXACT_MASS>
526.351906

> <PUBCHEM_MOLECULAR_FORMULA>
C30H46N4O4

> <PUBCHEM_MOLECULAR_WEIGHT>
526.71064

> <PUBCHEM_OPENEYE_CAN_SMILES>
CC(C)C(C=C(C)C(=O)O)N(C)C(=O)C(C(C)(C)C)NC(=O)C(C(C)(C)C1=CN(C2=CC=CC=C21)C)NC

> <PUBCHEM_OPENEYE_ISO_SMILES>
CC(C)C(C=C(C)C(=O)O)N(C)C(=O)C(C(C)(C)C)NC(=O)C(C(C)(C)C1=CN(C2=CC=CC=C21)C)NC

> <PUBCHEM_CACTVS_TPSA>
104

> <PUBCHEM_MONOISOTOPIC_WEIGHT>
526.351906

> <PUBCHEM_TOTAL_CHARGE>
0

> <PUBCHEM_HEAVY_ATOM_COUNT>
38

> <PUBCHEM_ATOM_DEF_STEREO_COUNT>
0

> <PUBCHEM_ATOM_UDEF_STEREO_COUNT>
3

> <PUBCHEM_BOND_DEF_STEREO_COUNT>
0

> <PUBCHEM_BOND_UDEF_STEREO_COUNT>
1

> <PUBCHEM_ISOTOPIC_ATOM_COUNT>
0

> <PUBCHEM_COMPONENT_COUNT>
1

> <PUBCHEM_CACTVS_TAUTO_COUNT>
2

> <PUBCHEM_COORDINATE_TYPE>
1
5
255

> <PUBCHEM_BONDANNOTATIONS>
10  14  3
12  18  3
13  17  8
13  22  8
17  24  8
17  26  8
23  30  3
24  29  8
26  34  8
29  35  8
30  36  1
34  35  8
8  22  8
8  24  8

$$$$

