3912
  -OEChem-06251223453D

 46 49  0     1  0  0  0  0  0999 V2000
    3.8881    2.5353   -0.9845 O   0  0  0  0  0  0  0  0  0  0  0  0
   -2.3665   -0.3369    0.0435 N   0  0  2  0  0  0  0  0  0  0  0  0
    0.3828   -0.9638   -0.7551 C   0  0  2  0  0  0  0  0  0  0  0  0
   -0.3798   -1.7308    0.3620 C   0  0  2  0  0  0  0  0  0  0  0  0
   -1.3626   -0.7601    1.0453 C   0  0  1  0  0  0  0  0  0  0  0  0
   -0.6764   -0.4664   -1.7768 C   0  0  0  0  0  0  0  0  0  0  0  0
    1.3311   -1.9733   -1.4589 C   0  0  0  0  0  0  0  0  0  0  0  0
    0.5672   -2.4426    1.3489 C   0  0  0  0  0  0  0  0  0  0  0  0
    1.0942    0.2765   -0.1837 C   0  0  0  0  0  0  0  0  0  0  0  0
   -0.5907    0.3788    1.7436 C   0  0  0  0  0  0  0  0  0  0  0  0
   -1.8056    0.3460   -1.1250 C   0  0  0  0  0  0  0  0  0  0  0  0
    2.2824   -2.6762   -0.4890 C   0  0  0  0  0  0  0  0  0  0  0  0
    1.5179   -3.3890    0.6212 C   0  0  0  0  0  0  0  0  0  0  0  0
    0.6063    0.9048    0.9847 C   0  0  0  0  0  0  0  0  0  0  0  0
   -3.4777    0.4161    0.6161 C   0  0  0  0  0  0  0  0  0  0  0  0
    2.1938    0.8596   -0.8396 C   0  0  0  0  0  0  0  0  0  0  0  0
    1.2519    2.0467    1.4896 C   0  0  0  0  0  0  0  0  0  0  0  0
    2.8209    1.9991   -0.3313 C   0  0  0  0  0  0  0  0  0  0  0  0
    2.3545    2.5889    0.8364 C   0  0  0  0  0  0  0  0  0  0  0  0
   -4.5883    0.5977   -0.3723 C   0  0  0  0  0  0  0  0  0  0  0  0
   -5.0435    1.7896   -0.7751 C   0  0  0  0  0  0  0  0  0  0  0  0
   -0.9751   -2.5288   -0.1104 H   0  0  0  0  0  0  0  0  0  0  0  0
   -1.9029   -1.3210    1.8201 H   0  0  0  0  0  0  0  0  0  0  0  0
   -1.1272   -1.3312   -2.2833 H   0  0  0  0  0  0  0  0  0  0  0  0
   -0.2056    0.1385   -2.5626 H   0  0  0  0  0  0  0  0  0  0  0  0
    1.9063   -1.5040   -2.2637 H   0  0  0  0  0  0  0  0  0  0  0  0
    0.7267   -2.7474   -1.9526 H   0  0  0  0  0  0  0  0  0  0  0  0
   -0.0224   -3.0137    2.0761 H   0  0  0  0  0  0  0  0  0  0  0  0
    1.1635   -1.7272    1.9251 H   0  0  0  0  0  0  0  0  0  0  0  0
   -0.2215   -0.0006    2.7063 H   0  0  0  0  0  0  0  0  0  0  0  0
   -1.2578    1.2108    1.9922 H   0  0  0  0  0  0  0  0  0  0  0  0
   -1.4482    1.3499   -0.8648 H   0  0  0  0  0  0  0  0  0  0  0  0
   -2.5636    0.4841   -1.9047 H   0  0  0  0  0  0  0  0  0  0  0  0
    2.9810   -1.9539   -0.0517 H   0  0  0  0  0  0  0  0  0  0  0  0
    2.8877   -3.4064   -1.0385 H   0  0  0  0  0  0  0  0  0  0  0  0
    0.9457   -4.2215    0.1934 H   0  0  0  0  0  0  0  0  0  0  0  0
    2.2249   -3.8246    1.3363 H   0  0  0  0  0  0  0  0  0  0  0  0
   -3.1498    1.3916    0.9940 H   0  0  0  0  0  0  0  0  0  0  0  0
   -3.8948   -0.1320    1.4701 H   0  0  0  0  0  0  0  0  0  0  0  0
    2.5695    0.4355   -1.7662 H   0  0  0  0  0  0  0  0  0  0  0  0
    0.8890    2.5225    2.3978 H   0  0  0  0  0  0  0  0  0  0  0  0
    2.8382    3.4745    1.2386 H   0  0  0  0  0  0  0  0  0  0  0  0
   -5.0562   -0.2983   -0.7730 H   0  0  0  0  0  0  0  0  0  0  0  0
    4.0779    2.0004   -1.7743 H   0  0  0  0  0  0  0  0  0  0  0  0
   -5.8561    1.8537   -1.4904 H   0  0  0  0  0  0  0  0  0  0  0  0
   -4.6174    2.7152   -0.4043 H   0  0  0  0  0  0  0  0  0  0  0  0
  1 18  1  0  0  0  0
  1 44  1  0  0  0  0
  2  5  1  0  0  0  0
  2 11  1  0  0  0  0
  2 15  1  0  0  0  0
  3  4  1  0  0  0  0
  3  6  1  0  0  0  0
  3  7  1  0  0  0  0
  3  9  1  0  0  0  0
  4  5  1  0  0  0  0
  4  8  1  0  0  0  0
  4 22  1  0  0  0  0
  5 10  1  0  0  0  0
  5 23  1  0  0  0  0
  6 11  1  0  0  0  0
  6 24  1  0  0  0  0
  6 25  1  0  0  0  0
  7 12  1  0  0  0  0
  7 26  1  0  0  0  0
  7 27  1  0  0  0  0
  8 13  1  0  0  0  0
  8 28  1  0  0  0  0
  8 29  1  0  0  0  0
  9 14  2  0  0  0  0
  9 16  1  0  0  0  0
 10 14  1  0  0  0  0
 10 30  1  0  0  0  0
 10 31  1  0  0  0  0
 11 32  1  0  0  0  0
 11 33  1  0  0  0  0
 12 13  1  0  0  0  0
 12 34  1  0  0  0  0
 12 35  1  0  0  0  0
 13 36  1  0  0  0  0
 13 37  1  0  0  0  0
 14 17  1  0  0  0  0
 15 20  1  0  0  0  0
 15 38  1  0  0  0  0
 15 39  1  0  0  0  0
 16 18  2  0  0  0  0
 16 40  1  0  0  0  0
 17 19  2  0  0  0  0
 17 41  1  0  0  0  0
 18 19  1  0  0  0  0
 19 42  1  0  0  0  0
 20 21  2  0  0  0  0
 20 43  1  0  0  0  0
 21 45  1  0  0  0  0
 21 46  1  0  0  0  0
M  END
> <PUBCHEM_COMPOUND_CID>
3912

> <PUBCHEM_CONFORMER_RMSD>
0.6

> <PUBCHEM_CONFORMER_DIVERSEORDER>
1
19
7
22
13
5
12
18
4
20
21
15
2
8
3
14
6
11
10
17
16
9

> <PUBCHEM_MMFF94_PARTIAL_CHARGES>
22
1 -0.53
10 0.14
11 0.27
14 -0.14
15 0.41
16 -0.15
17 -0.15
18 0.08
19 -0.15
2 -0.81
20 -0.29
21 -0.3
3 0.14
40 0.15
41 0.15
42 0.15
43 0.15
44 0.45
45 0.15
46 0.15
5 0.27
9 -0.14

> <PUBCHEM_EFFECTIVE_ROTOR_COUNT>
3.6

> <PUBCHEM_PHARMACOPHORE_FEATURES>
7
1 1 donor
1 2 cation
1 21 hydrophobe
6 2 3 4 5 6 11 rings
6 3 4 5 9 10 14 rings
6 3 4 7 8 12 13 rings
6 9 14 16 17 18 19 rings

> <PUBCHEM_HEAVY_ATOM_COUNT>
21

> <PUBCHEM_ATOM_DEF_STEREO_COUNT>
0

> <PUBCHEM_ATOM_UDEF_STEREO_COUNT>
3

> <PUBCHEM_BOND_DEF_STEREO_COUNT>
0

> <PUBCHEM_BOND_UDEF_STEREO_COUNT>
0

> <PUBCHEM_ISOTOPIC_ATOM_COUNT>
0

> <PUBCHEM_COMPONENT_COUNT>
1

> <PUBCHEM_CACTVS_TAUTO_COUNT>
3

> <PUBCHEM_CONFORMER_ID>
00000F4800000001

> <PUBCHEM_MMFF94_ENERGY>
56.0614

> <PUBCHEM_FEATURE_SELFOVERLAP>
37.137

> <PUBCHEM_SHAPE_FINGERPRINT>
10165383 225 18196067985577906801
10863032 1 18410289168933011183
10948715 1 18270679757795444633
11578080 2 18056446583508711753
12035759 4 17240755194750334441
12173636 292 17907863903015514812
12423570 1 6028427504125521323
12592029 89 18413672417962204434
12730499 353 18409721838703558081
13004483 165 17547025477143801771
13009979 54 16589976364245479723
13132413 78 17834395996383583496
13134695 92 18046080499229299205
13294875 104 17896056385326290824
13464514 151 18336818766872690897
13681431 1 18119249703638735862
14181834 199 17825420567044226343
14817 1 14667609076099827694
14955137 171 18115036310925964818
15163728 17 17986932120705202733
16945 1 17823114796618700290
17980427 26 18058747908469337983
1813 80 17753897421472828615
18785283 64 18202003239591319168
19765921 60 18261675865750002139
20473742 2 18339363075402460743
20645476 183 18051691045231363392
21304303 282 17033368446597522616
21524375 3 18262802847967445949
22112679 90 17462825898763532803
22907989 373 17405147322772732398
23419403 2 17769613707636246258
23493267 7 18052532176106267336
23557571 272 17560503042159060657
238 59 18260261924046063017
25 1 18188479190577168897
2748010 2 16740004373905697072
298252 57 17458620056354971486
3286 77 17985546891063060111
3759504 43 18123463882932285332
394222 165 18333733511253730346
427121 178 17632857547048985417
495365 180 18200603608998063167
5895379 119 16736351100488346473
598444 67 17613695052151939090
6442390 28 18196087742670035715
6786 2 18200311013839586646
7364860 26 18337676420180742675
7471813 234 17971485241023539509
81228 2 17038675668986760250
81539 233 18411139121449077909
84936 182 18408320012332578537

> <PUBCHEM_SHAPE_MULTIPOLES>
421.32
6.03
3.45
1.6
9.07
0.71
0.06
-4.09
-1.81
-4.28
0.48
-0.15
0.04
0.19

> <PUBCHEM_SHAPE_SELFOVERLAP>
910.753

> <PUBCHEM_SHAPE_VOLUME>
227.2

> <PUBCHEM_COORDINATE_TYPE>
2
5
10

$$$$

