17395684
  -OEChem-06241222513D

 38 41  0     0  0  0  0  0  0999 V2000
    5.0564   -1.4530   -1.5027 F   0  0  0  0  0  0  0  0  0  0  0  0
    3.9338   -2.1829    0.2034 F   0  0  0  0  0  0  0  0  0  0  0  0
    2.9118   -1.7702   -1.6711 F   0  0  0  0  0  0  0  0  0  0  0  0
   -4.9683   -1.2638    0.2014 N   0  0  0  0  0  0  0  0  0  0  0  0
   -0.5554   -0.3932    1.7469 N   0  0  0  0  0  0  0  0  0  0  0  0
    2.4996    0.4865    0.2825 N   0  0  0  0  0  0  0  0  0  0  0  0
    1.4750   -0.3129    0.6688 N   0  0  0  0  0  0  0  0  0  0  0  0
    3.7705    2.2491   -0.0355 N   0  0  0  0  0  0  0  0  0  0  0  0
    4.3925    1.1540   -0.5996 N   0  0  0  0  0  0  0  0  0  0  0  0
   -2.7650   -1.5078    0.0878 C   0  0  0  0  0  0  0  0  0  0  0  0
   -1.4117   -2.0902    0.1933 C   0  0  0  0  0  0  0  0  0  0  0  0
   -3.0953   -0.2148   -0.4057 C   0  0  0  0  0  0  0  0  0  0  0  0
   -0.7071   -1.8139    1.5330 C   0  0  0  0  0  0  0  0  0  0  0  0
   -4.4836   -0.0870   -0.3236 C   0  0  0  0  0  0  0  0  0  0  0  0
   -3.9372   -2.1285    0.4533 C   0  0  0  0  0  0  0  0  0  0  0  0
   -2.3443    0.8627   -0.9161 C   0  0  0  0  0  0  0  0  0  0  0  0
    0.5123    0.3033    1.3162 C   0  0  0  0  0  0  0  0  0  0  0  0
   -5.1610    1.0689   -0.7279 C   0  0  0  0  0  0  0  0  0  0  0  0
   -3.0082    2.0252   -1.3244 C   0  0  0  0  0  0  0  0  0  0  0  0
    2.6359    1.8384    0.4900 C   0  0  0  0  0  0  0  0  0  0  0  0
   -4.3951    2.1246   -1.2308 C   0  0  0  0  0  0  0  0  0  0  0  0
    0.5491    1.7806    1.6038 C   0  0  0  0  0  0  0  0  0  0  0  0
    1.6012    2.4924    1.1839 C   0  0  0  0  0  0  0  0  0  0  0  0
    3.6200    0.1103   -0.3999 C   0  0  0  0  0  0  0  0  0  0  0  0
    3.8742   -1.2779   -0.8271 C   0  0  0  0  0  0  0  0  0  0  0  0
   -0.7868   -1.7236   -0.6310 H   0  0  0  0  0  0  0  0  0  0  0  0
   -1.4738   -3.1778    0.0575 H   0  0  0  0  0  0  0  0  0  0  0  0
    0.2546   -2.3383    1.5735 H   0  0  0  0  0  0  0  0  0  0  0  0
   -1.3132   -2.2208    2.3515 H   0  0  0  0  0  0  0  0  0  0  0  0
   -4.1319   -3.1069    0.8704 H   0  0  0  0  0  0  0  0  0  0  0  0
   -5.9444   -1.4600    0.3754 H   0  0  0  0  0  0  0  0  0  0  0  0
   -1.3125    0.0770    2.2357 H   0  0  0  0  0  0  0  0  0  0  0  0
   -1.2643    0.8010   -1.0095 H   0  0  0  0  0  0  0  0  0  0  0  0
   -6.2406    1.1471   -0.6556 H   0  0  0  0  0  0  0  0  0  0  0  0
   -2.4341    2.8583   -1.7212 H   0  0  0  0  0  0  0  0  0  0  0  0
   -0.2752    2.2338    2.1411 H   0  0  0  0  0  0  0  0  0  0  0  0
   -4.8904    3.0366   -1.5543 H   0  0  0  0  0  0  0  0  0  0  0  0
    1.6644    3.5582    1.3703 H   0  0  0  0  0  0  0  0  0  0  0  0
  1 25  1  0  0  0  0
  2 25  1  0  0  0  0
  3 25  1  0  0  0  0
  4 14  1  0  0  0  0
  4 15  1  0  0  0  0
  4 31  1  0  0  0  0
  5 13  1  0  0  0  0
  5 17  1  0  0  0  0
  5 32  1  0  0  0  0
  6  7  1  0  0  0  0
  6 20  1  0  0  0  0
  6 24  1  0  0  0  0
  7 17  2  0  0  0  0
  8  9  1  0  0  0  0
  8 20  2  0  0  0  0
  9 24  2  0  0  0  0
 10 11  1  0  0  0  0
 10 12  1  0  0  0  0
 10 15  2  0  0  0  0
 11 13  1  0  0  0  0
 11 26  1  0  0  0  0
 11 27  1  0  0  0  0
 12 14  1  0  0  0  0
 12 16  2  0  0  0  0
 13 28  1  0  0  0  0
 13 29  1  0  0  0  0
 14 18  2  0  0  0  0
 15 30  1  0  0  0  0
 16 19  1  0  0  0  0
 16 33  1  0  0  0  0
 17 22  1  0  0  0  0
 18 21  1  0  0  0  0
 18 34  1  0  0  0  0
 19 21  2  0  0  0  0
 19 35  1  0  0  0  0
 20 23  1  0  0  0  0
 21 37  1  0  0  0  0
 22 23  2  0  0  0  0
 22 36  1  0  0  0  0
 23 38  1  0  0  0  0
 24 25  1  0  0  0  0
M  END
> <PUBCHEM_COMPOUND_CID>
17395684

> <PUBCHEM_CONFORMER_RMSD>
0.8

> <PUBCHEM_CONFORMER_DIVERSEORDER>
1
24
30
12
4
61
49
53
32
33
70
66
73
43
76
34
59
31
72
37
28
44
67
10
38
52
29
69
42
63
18
65
2
57
51
54
3
40
55
75
58
39
71
23
7
16
8
6
60
36
62
47
14
11
45
27
56
20
17
64
15
19
21
46
74
25
68
13
9
50
48
26
5
22
35
41

> <PUBCHEM_MMFF94_PARTIAL_CHARGES>
33
1 -0.34
10 -0.18
11 0.18
13 0.37
14 -0.15
15 -0.3
16 -0.15
17 0.49
18 -0.15
19 -0.15
2 -0.34
20 0.14
21 -0.15
22 -0.14
23 -0.11
24 0.01
25 1.2
3 -0.34
30 0.15
31 0.27
32 0.4
33 0.15
34 0.15
35 0.15
36 0.15
37 0.15
38 0.15
4 0.03
5 -0.82
6 0.51
7 -0.65
8 -0.34
9 -0.34

> <PUBCHEM_EFFECTIVE_ROTOR_COUNT>
5

> <PUBCHEM_PHARMACOPHORE_FEATURES>
10
1 4 cation
1 4 donor
1 5 donor
3 5 7 17 cation
3 6 8 20 cation
3 6 9 24 cation
5 4 10 12 14 15 rings
5 6 8 9 20 24 rings
6 12 14 16 18 19 21 rings
6 6 7 17 20 22 23 rings

> <PUBCHEM_HEAVY_ATOM_COUNT>
25

> <PUBCHEM_ATOM_DEF_STEREO_COUNT>
0

> <PUBCHEM_ATOM_UDEF_STEREO_COUNT>
0

> <PUBCHEM_BOND_DEF_STEREO_COUNT>
0

> <PUBCHEM_BOND_UDEF_STEREO_COUNT>
0

> <PUBCHEM_ISOTOPIC_ATOM_COUNT>
0

> <PUBCHEM_COMPONENT_COUNT>
1

> <PUBCHEM_CACTVS_TAUTO_COUNT>
2

> <PUBCHEM_CONFORMER_ID>
01096FE400000001

> <PUBCHEM_MMFF94_ENERGY>
38.6044

> <PUBCHEM_FEATURE_SELFOVERLAP>
53.451

> <PUBCHEM_SHAPE_FINGERPRINT>
10498660 4 17917447414489349277
10670039 82 17632298999067504775
10730089 88 18341324561180682021
10764073 3 17687235019987860928
11059048 146 17766295545169866981
11720765 8 18116726290578717192
12553582 1 16081082658393872032
12623949 98 17682380469961566063
12916748 109 17917428688146907251
13402501 40 18410011022360653047
13944108 23 17403750333648641221
13947920 75 16845283939531021534
14251751 93 18271815643917995005
14251757 17 18409449223447871755
14341114 328 14476956813850027429
15163728 17 16986290700987852196
15183329 4 18411136982354859019
15575132 122 16845297176593880373
17349148 13 15647047149263492511
17977149 70 18129948995512565564
1813 80 14996285807738581001
20465049 17 18340490083869814537
20626108 58 5111712609793288041
20645477 70 18041268886317838006
21033650 10 17989197175114763776
221357 26 18408608041735032417
23114952 82 18193553372367768720
23536364 44 18263356069777691716
23557571 272 17771902732052811555
23559900 14 18409735053832949192
2637199 183 18130230462162481345
3004659 81 18411698811954916190
3027735 51 17097762723799688487
3298306 158 18336831986803757351
3323516 105 18408887312987305977
3459 83 17823408486814632337
4098825 35 18272928311262817756
46194498 28 18268425724636020276
469060 322 10374436908899262787
5161694 15 18334862714116848363
5281201 14 18410572855686010501
5283173 99 18341333366254353664
6287921 2 18053665772331046189
7399639 24 17469052059502266555
9709674 26 18340486643110328459

> <PUBCHEM_SHAPE_MULTIPOLES>
462.78
11.05
2.91
1.49
0.23
0.17
-0.16
-0.06
4.77
0.02
-0.04
-0.64
0.08
2.47

> <PUBCHEM_SHAPE_SELFOVERLAP>
1027.571

> <PUBCHEM_SHAPE_VOLUME>
249

> <PUBCHEM_COORDINATE_TYPE>
2
5
10

$$$$

