10776
  -OEChem-06261204573D

 26 27  0     0  0  0  0  0  0999 V2000
    2.5418   -1.6282    0.0780 O   0  0  0  0  0  0  0  0  0  0  0  0
    3.4056    0.5365   -0.5347 O   0  0  0  0  0  0  0  0  0  0  0  0
   -4.2871   -0.2436    0.1389 N   0  0  0  0  0  0  0  0  0  0  0  0
   -1.9796    0.1577    0.9411 C   0  0  0  0  0  0  0  0  0  0  0  0
   -0.5483    0.2950    0.5420 C   0  0  0  0  0  0  0  0  0  0  0  0
   -2.8878   -0.1372   -0.2606 C   0  0  0  0  0  0  0  0  0  0  0  0
    1.5942   -0.6540    0.1506 C   0  0  0  0  0  0  0  0  0  0  0  0
    0.2784   -0.8309    0.5264 C   0  0  0  0  0  0  0  0  0  0  0  0
    2.0876    0.5821   -0.1992 C   0  0  0  0  0  0  0  0  0  0  0  0
   -0.0442    1.5580    0.1846 C   0  0  0  0  0  0  0  0  0  0  0  0
    1.2924    1.7096   -0.1923 C   0  0  0  0  0  0  0  0  0  0  0  0
    3.6867   -0.8667   -0.3574 C   0  0  0  0  0  0  0  0  0  0  0  0
   -5.1398   -0.4784   -1.0174 C   0  0  0  0  0  0  0  0  0  0  0  0
   -2.0800   -0.6391    1.6901 H   0  0  0  0  0  0  0  0  0  0  0  0
   -2.3092    1.0764    1.4446 H   0  0  0  0  0  0  0  0  0  0  0  0
   -2.5666   -1.0735   -0.7344 H   0  0  0  0  0  0  0  0  0  0  0  0
   -2.7716    0.6610   -1.0053 H   0  0  0  0  0  0  0  0  0  0  0  0
   -0.0952   -1.8125    0.7976 H   0  0  0  0  0  0  0  0  0  0  0  0
   -0.6921    2.4312    0.1963 H   0  0  0  0  0  0  0  0  0  0  0  0
    1.6850    2.6815   -0.4688 H   0  0  0  0  0  0  0  0  0  0  0  0
    4.0393   -1.2772   -1.3106 H   0  0  0  0  0  0  0  0  0  0  0  0
    4.4833   -0.9737    0.3879 H   0  0  0  0  0  0  0  0  0  0  0  0
   -4.5763    0.6174    0.6023 H   0  0  0  0  0  0  0  0  0  0  0  0
   -4.8752   -1.4129   -1.5227 H   0  0  0  0  0  0  0  0  0  0  0  0
   -5.0814    0.3465   -1.7352 H   0  0  0  0  0  0  0  0  0  0  0  0
   -6.1806   -0.5656   -0.6905 H   0  0  0  0  0  0  0  0  0  0  0  0
  1  7  1  0  0  0  0
  1 12  1  0  0  0  0
  2  9  1  0  0  0  0
  2 12  1  0  0  0  0
  3  6  1  0  0  0  0
  3 13  1  0  0  0  0
  3 23  1  0  0  0  0
  4  5  1  0  0  0  0
  4  6  1  0  0  0  0
  4 14  1  0  0  0  0
  4 15  1  0  0  0  0
  5  8  2  0  0  0  0
  5 10  1  0  0  0  0
  6 16  1  0  0  0  0
  6 17  1  0  0  0  0
  7  8  1  0  0  0  0
  7  9  2  0  0  0  0
  8 18  1  0  0  0  0
  9 11  1  0  0  0  0
 10 11  2  0  0  0  0
 10 19  1  0  0  0  0
 11 20  1  0  0  0  0
 12 21  1  0  0  0  0
 12 22  1  0  0  0  0
 13 24  1  0  0  0  0
 13 25  1  0  0  0  0
 13 26  1  0  0  0  0
M  END
> <PUBCHEM_COMPOUND_CID>
10776

> <PUBCHEM_CONFORMER_RMSD>
0.6

> <PUBCHEM_CONFORMER_DIVERSEORDER>
1
9
4
2
10
7
3
8
5
6

> <PUBCHEM_MMFF94_PARTIAL_CHARGES>
17
1 -0.36
10 -0.15
11 -0.15
12 0.56
13 0.27
18 0.15
19 0.15
2 -0.36
20 0.15
23 0.36
3 -0.9
4 0.14
5 -0.14
6 0.27
7 0.08
8 -0.15
9 0.08

> <PUBCHEM_EFFECTIVE_ROTOR_COUNT>
3.6

> <PUBCHEM_PHARMACOPHORE_FEATURES>
6
1 1 acceptor
1 2 acceptor
1 3 cation
1 3 donor
5 1 2 7 9 12 rings
6 5 7 8 9 10 11 rings

> <PUBCHEM_HEAVY_ATOM_COUNT>
13

> <PUBCHEM_ATOM_DEF_STEREO_COUNT>
0

> <PUBCHEM_ATOM_UDEF_STEREO_COUNT>
0

> <PUBCHEM_BOND_DEF_STEREO_COUNT>
0

> <PUBCHEM_BOND_UDEF_STEREO_COUNT>
0

> <PUBCHEM_ISOTOPIC_ATOM_COUNT>
0

> <PUBCHEM_COMPONENT_COUNT>
1

> <PUBCHEM_CACTVS_TAUTO_COUNT>
1

> <PUBCHEM_CONFORMER_ID>
00002A1800000001

> <PUBCHEM_MMFF94_ENERGY>
24.1227

> <PUBCHEM_FEATURE_SELFOVERLAP>
30.601

> <PUBCHEM_SHAPE_FINGERPRINT>
10498660 4 16055776381127694333
11401426 45 18341334418230885560
11471102 20 18342175548689038308
11806522 49 18333452027686993921
12251169 10 7204769298310099257
13571099 22 18341889684218717440
13581323 91 16226046703964423373
13690532 89 18335420187897569335
13705890 14 18411138013373811387
14251717 144 18411136930810087071
14576447 43 18261679190265880871
14911166 2 18272082790709758750
14993402 34 18334007289670112902
15477762 27 18408885131038502455
15757776 16 18411420634964534138
16945 1 18270100371519282792
18186145 218 17847064381002717305
18915474 69 17968948478999514951
200 152 18334575767262131913
20201158 50 18273208707617161674
20233049 118 14405193858620700391
20645477 70 18412261744417537247
21119208 17 18408888425816443287
21256008 61 18334296452717411033
21501925 9 18411423942458403138
21637258 2 16515962679097574342
221490 88 18124871266432303019
23402539 116 18334859471348000660
23402655 69 18342179981643940165
2748010 2 17908683056869591568
3060560 45 18343025479788661271
4047638 21 13973963207588956926
4072396 5 18129959913856898000

> <PUBCHEM_SHAPE_MULTIPOLES>
250.81
7.82
1.42
0.84
9
0.3
-0.01
-2.46
2.66
-1.03
0.03
0.45
-0.02
-0.29

> <PUBCHEM_SHAPE_SELFOVERLAP>
528.488

> <PUBCHEM_SHAPE_VOLUME>
142.5

> <PUBCHEM_COORDINATE_TYPE>
2
5
10

$$$$

