17396353
  -OEChem-06241222562D

 47 49  0     1  0  0  0  0  0999 V2000
    7.1962    0.0773    0.0000 O   0  0  0  0  0  0  0  0  0  0  0  0
   13.3244   -1.4468    0.0000 O   0  0  0  0  0  0  0  0  0  0  0  0
    8.0622    1.5773    0.0000 O   0  0  0  0  0  0  0  0  0  0  0  0
    5.4641   -0.9227    0.0000 O   0  0  0  0  0  0  0  0  0  0  0  0
    2.8660    1.5773    0.0000 O   0  0  0  0  0  0  0  0  0  0  0  0
   11.5542   -1.4574    0.0000 N   0  0  0  0  0  0  0  0  0  0  0  0
    4.5981    0.5773    0.0000 N   0  0  0  0  0  0  0  0  0  0  0  0
   11.5542    0.6120    0.0000 C   0  0  0  0  0  0  0  0  0  0  0  0
   10.6603    0.0773    0.0000 C   0  0  0  0  0  0  0  0  0  0  0  0
   12.4603    0.0981    0.0000 C   0  0  0  0  0  0  0  0  0  0  0  0
   10.6603   -0.9227    0.0000 C   0  0  0  0  0  0  0  0  0  0  0  0
    9.7942    0.5773    0.0000 C   0  0  0  0  0  0  0  0  0  0  0  0
   12.4603   -0.9435    0.0000 C   0  0  0  0  0  0  0  0  0  0  0  0
    8.9282    0.0773    0.0000 C   0  0  0  0  0  0  0  0  0  0  0  0
    9.7942   -1.4227    0.0000 C   0  0  0  0  0  0  0  0  0  0  0  0
    8.9282   -0.9227    0.0000 C   0  0  0  0  0  0  0  0  0  0  0  0
    8.0622    0.5773    0.0000 C   0  0  0  0  0  0  0  0  0  0  0  0
    6.3301    0.5773    0.0000 C   0  0  3  0  0  0  0  0  0  0  0  0
    5.4641    0.0773    0.0000 C   0  0  0  0  0  0  0  0  0  0  0  0
    6.3301    1.5773    0.0000 C   0  0  0  0  0  0  0  0  0  0  0  0
    3.7320    0.0773    0.0000 C   0  0  0  0  0  0  0  0  0  0  0  0
    2.8660    0.5773    0.0000 C   0  0  0  0  0  0  0  0  0  0  0  0
    3.7320   -0.9227    0.0000 C   0  0  0  0  0  0  0  0  0  0  0  0
    2.0000    0.0773    0.0000 C   0  0  0  0  0  0  0  0  0  0  0  0
    2.8660   -1.4227    0.0000 C   0  0  0  0  0  0  0  0  0  0  0  0
    2.0000   -0.9227    0.0000 C   0  0  0  0  0  0  0  0  0  0  0  0
    2.0000    2.0773    0.0000 C   0  0  0  0  0  0  0  0  0  0  0  0
   11.9478    1.0910    0.0000 H   0  0  0  0  0  0  0  0  0  0  0  0
   11.1496    1.0818    0.0000 H   0  0  0  0  0  0  0  0  0  0  0  0
   13.0711   -0.0080    0.0000 H   0  0  0  0  0  0  0  0  0  0  0  0
   12.6693    0.6818    0.0000 H   0  0  0  0  0  0  0  0  0  0  0  0
    9.7942    1.1973    0.0000 H   0  0  0  0  0  0  0  0  0  0  0  0
   11.5470   -2.0773    0.0000 H   0  0  0  0  0  0  0  0  0  0  0  0
    9.7942   -2.0427    0.0000 H   0  0  0  0  0  0  0  0  0  0  0  0
    8.3913   -1.2327    0.0000 H   0  0  0  0  0  0  0  0  0  0  0  0
    6.8671    0.8873    0.0000 H   0  0  0  0  0  0  0  0  0  0  0  0
    6.9501    1.5773    0.0000 H   0  0  0  0  0  0  0  0  0  0  0  0
    6.3301    2.1973    0.0000 H   0  0  0  0  0  0  0  0  0  0  0  0
    5.7101    1.5773    0.0000 H   0  0  0  0  0  0  0  0  0  0  0  0
    4.5981    1.1973    0.0000 H   0  0  0  0  0  0  0  0  0  0  0  0
    4.2690   -1.2327    0.0000 H   0  0  0  0  0  0  0  0  0  0  0  0
    1.4631    0.3873    0.0000 H   0  0  0  0  0  0  0  0  0  0  0  0
    2.8660   -2.0427    0.0000 H   0  0  0  0  0  0  0  0  0  0  0  0
    1.4631   -1.2327    0.0000 H   0  0  0  0  0  0  0  0  0  0  0  0
    2.3100    2.6143    0.0000 H   0  0  0  0  0  0  0  0  0  0  0  0
    1.4631    2.3873    0.0000 H   0  0  0  0  0  0  0  0  0  0  0  0
    1.6900    1.5404    0.0000 H   0  0  0  0  0  0  0  0  0  0  0  0
  1 17  1  0  0  0  0
  1 18  1  0  0  0  0
  2 13  2  0  0  0  0
  3 17  2  0  0  0  0
  4 19  2  0  0  0  0
  5 22  1  0  0  0  0
  5 27  1  0  0  0  0
  6 11  1  0  0  0  0
  6 13  1  0  0  0  0
  6 33  1  0  0  0  0
  7 19  1  0  0  0  0
  7 21  1  0  0  0  0
  7 40  1  0  0  0  0
  8  9  1  0  0  0  0
  8 10  1  0  0  0  0
  8 28  1  0  0  0  0
  8 29  1  0  0  0  0
  9 11  2  0  0  0  0
  9 12  1  0  0  0  0
 10 13  1  0  0  0  0
 10 30  1  0  0  0  0
 10 31  1  0  0  0  0
 11 15  1  0  0  0  0
 12 14  2  0  0  0  0
 12 32  1  0  0  0  0
 14 16  1  0  0  0  0
 14 17  1  0  0  0  0
 15 16  2  0  0  0  0
 15 34  1  0  0  0  0
 16 35  1  0  0  0  0
 18 19  1  0  0  0  0
 18 20  1  0  0  0  0
 18 36  1  0  0  0  0
 20 37  1  0  0  0  0
 20 38  1  0  0  0  0
 20 39  1  0  0  0  0
 21 22  1  0  0  0  0
 21 23  2  0  0  0  0
 22 24  2  0  0  0  0
 23 25  1  0  0  0  0
 23 41  1  0  0  0  0
 24 26  1  0  0  0  0
 24 42  1  0  0  0  0
 25 26  2  0  0  0  0
 25 43  1  0  0  0  0
 26 44  1  0  0  0  0
 27 45  1  0  0  0  0
 27 46  1  0  0  0  0
 27 47  1  0  0  0  0
M  END
> <PUBCHEM_COMPOUND_CID>
17396353

> <PUBCHEM_COMPOUND_CANONICALIZED>
1

> <PUBCHEM_CACTVS_COMPLEXITY>
567

> <PUBCHEM_CACTVS_HBOND_ACCEPTOR>
5

> <PUBCHEM_CACTVS_HBOND_DONOR>
2

> <PUBCHEM_CACTVS_ROTATABLE_BOND>
6

> <PUBCHEM_CACTVS_SUBSKEYS>
AAADceB7OAAAAAAAAAAAAAAAAAAAAAAAAAA8YIAAAAAAAACxQAAAHgAQAAAADByhmAIyzoLABACIAiXSWAKCCAAlIgAIiAFHbMgOJjLEtZ+HMShk1BHY6YeY2eOeCAACAAACEAAQAAQAAAQgAAAAAAAAAA==

> <PUBCHEM_IUPAC_OPENEYE_NAME>
[2-(2-methoxyanilino)-1-methyl-2-oxo-ethyl] 2-oxo-3,4-dihydro-1H-quinoline-6-carboxylate

> <PUBCHEM_IUPAC_CAS_NAME>
2-oxo-3,4-dihydro-1H-quinoline-6-carboxylic acid [1-(2-methoxyanilino)-1-oxopropan-2-yl] ester

> <PUBCHEM_IUPAC_NAME>
[1-(2-methoxyanilino)-1-oxopropan-2-yl] 2-oxo-3,4-dihydro-1H-quinoline-6-carboxylate

> <PUBCHEM_IUPAC_SYSTEMATIC_NAME>
[1-[(2-methoxyphenyl)amino]-1-oxidanylidene-propan-2-yl] 2-oxidanylidene-3,4-dihydro-1H-quinoline-6-carboxylate

> <PUBCHEM_IUPAC_TRADITIONAL_NAME>
2-keto-3,4-dihydro-1H-quinoline-6-carboxylic acid [2-keto-1-methyl-2-(o-anisidino)ethyl] ester

> <PUBCHEM_IUPAC_INCHI>
InChI=1S/C20H20N2O5/c1-12(19(24)22-16-5-3-4-6-17(16)26-2)27-20(25)14-7-9-15-13(11-14)8-10-18(23)21-15/h3-7,9,11-12H,8,10H2,1-2H3,(H,21,23)(H,22,24)

> <PUBCHEM_IUPAC_INCHIKEY>
ZATKHTDIWXHFHB-UHFFFAOYSA-N

> <PUBCHEM_XLOGP3_AA>
2.2

> <PUBCHEM_EXACT_MASS>
368.137222

> <PUBCHEM_MOLECULAR_FORMULA>
C20H20N2O5

> <PUBCHEM_MOLECULAR_WEIGHT>
368.3832

> <PUBCHEM_OPENEYE_CAN_SMILES>
CC(C(=O)NC1=CC=CC=C1OC)OC(=O)C2=CC3=C(C=C2)NC(=O)CC3

> <PUBCHEM_OPENEYE_ISO_SMILES>
CC(C(=O)NC1=CC=CC=C1OC)OC(=O)C2=CC3=C(C=C2)NC(=O)CC3

> <PUBCHEM_CACTVS_TPSA>
93.7

> <PUBCHEM_MONOISOTOPIC_WEIGHT>
368.137222

> <PUBCHEM_TOTAL_CHARGE>
0

> <PUBCHEM_HEAVY_ATOM_COUNT>
27

> <PUBCHEM_ATOM_DEF_STEREO_COUNT>
0

> <PUBCHEM_ATOM_UDEF_STEREO_COUNT>
1

> <PUBCHEM_BOND_DEF_STEREO_COUNT>
0

> <PUBCHEM_BOND_UDEF_STEREO_COUNT>
0

> <PUBCHEM_ISOTOPIC_ATOM_COUNT>
0

> <PUBCHEM_COMPONENT_COUNT>
1

> <PUBCHEM_CACTVS_TAUTO_COUNT>
21

> <PUBCHEM_COORDINATE_TYPE>
1
5
255

> <PUBCHEM_BONDANNOTATIONS>
11  15  8
12  14  8
14  16  8
15  16  8
18  20  3
21  22  8
21  23  8
22  24  8
23  25  8
24  26  8
25  26  8
9  11  8
9  12  8

$$$$

