51090997
  -OEChem-06241223013D

 35 36  0     0  0  0  0  0  0999 V2000
    5.6656    0.9538    1.5053 Br  0  0  0  0  0  0  0  0  0  0  0  0
   -2.6362   -0.9342    1.6385 O   0  0  0  0  0  0  0  0  0  0  0  0
    2.0322   -0.6154    0.3839 N   0  0  0  0  0  0  0  0  0  0  0  0
    0.7585   -0.7619   -1.4485 N   0  0  0  0  0  0  0  0  0  0  0  0
   -2.2673   -1.0526   -0.6406 N   0  0  0  0  0  0  0  0  0  0  0  0
    0.1399   -1.3798   -0.3915 C   0  0  0  0  0  0  0  0  0  0  0  0
   -1.2034   -2.0270   -0.5666 C   0  0  0  0  0  0  0  0  0  0  0  0
    1.8967   -0.3066   -0.9658 C   0  0  0  0  0  0  0  0  0  0  0  0
    0.9038   -1.3039    0.7493 C   0  0  0  0  0  0  0  0  0  0  0  0
    3.1378   -0.2572    1.1511 C   0  0  0  0  0  0  0  0  0  0  0  0
    2.9625    0.4175   -1.5734 C   0  0  0  0  0  0  0  0  0  0  0  0
   -3.9917    0.4231    0.2107 C   0  0  0  0  0  0  0  0  0  0  0  0
   -2.9066   -0.5793    0.4927 C   0  0  0  0  0  0  0  0  0  0  0  0
    4.1425    0.4265    0.5741 C   0  0  0  0  0  0  0  0  0  0  0  0
    4.0367    0.7693   -0.8404 C   0  0  0  0  0  0  0  0  0  0  0  0
   -3.6066    1.7132    0.1816 C   0  0  0  0  0  0  0  0  0  0  0  0
   -2.2167    2.2425    0.4005 C   0  0  0  0  0  0  0  0  0  0  0  0
   -5.4034   -0.0565    0.0453 C   0  0  0  0  0  0  0  0  0  0  0  0
   -1.4443    2.3286   -0.9063 C   0  0  0  0  0  0  0  0  0  0  0  0
   -1.4019   -2.7230    0.2560 H   0  0  0  0  0  0  0  0  0  0  0  0
   -1.2167   -2.5968   -1.5017 H   0  0  0  0  0  0  0  0  0  0  0  0
    0.7488   -1.6662    1.7566 H   0  0  0  0  0  0  0  0  0  0  0  0
   -2.5450   -0.7105   -1.5562 H   0  0  0  0  0  0  0  0  0  0  0  0
    3.1351   -0.5520    2.1942 H   0  0  0  0  0  0  0  0  0  0  0  0
    2.8966    0.6789   -2.6237 H   0  0  0  0  0  0  0  0  0  0  0  0
    4.8469    1.3212   -1.3068 H   0  0  0  0  0  0  0  0  0  0  0  0
   -4.3647    2.4694   -0.0150 H   0  0  0  0  0  0  0  0  0  0  0  0
   -2.2893    3.2397    0.8505 H   0  0  0  0  0  0  0  0  0  0  0  0
   -1.6606    1.6301    1.1185 H   0  0  0  0  0  0  0  0  0  0  0  0
   -5.4794   -0.7124   -0.8276 H   0  0  0  0  0  0  0  0  0  0  0  0
   -6.1016    0.7750   -0.0940 H   0  0  0  0  0  0  0  0  0  0  0  0
   -5.7190   -0.6181    0.9303 H   0  0  0  0  0  0  0  0  0  0  0  0
   -1.3335    1.3564   -1.3911 H   0  0  0  0  0  0  0  0  0  0  0  0
   -1.9440    3.0006   -1.6127 H   0  0  0  0  0  0  0  0  0  0  0  0
   -0.4405    2.7253   -0.7220 H   0  0  0  0  0  0  0  0  0  0  0  0
  1 14  1  0  0  0  0
  2 13  2  0  0  0  0
  3  8  1  0  0  0  0
  3  9  1  0  0  0  0
  3 10  1  0  0  0  0
  4  6  1  0  0  0  0
  4  8  2  0  0  0  0
  5  7  1  0  0  0  0
  5 13  1  0  0  0  0
  5 23  1  0  0  0  0
  6  7  1  0  0  0  0
  6  9  2  0  0  0  0
  7 20  1  0  0  0  0
  7 21  1  0  0  0  0
  8 11  1  0  0  0  0
  9 22  1  0  0  0  0
 10 14  2  0  0  0  0
 10 24  1  0  0  0  0
 11 15  2  0  0  0  0
 11 25  1  0  0  0  0
 12 13  1  0  0  0  0
 12 16  2  0  0  0  0
 12 18  1  0  0  0  0
 14 15  1  0  0  0  0
 15 26  1  0  0  0  0
 16 17  1  0  0  0  0
 16 27  1  0  0  0  0
 17 19  1  0  0  0  0
 17 28  1  0  0  0  0
 17 29  1  0  0  0  0
 18 30  1  0  0  0  0
 18 31  1  0  0  0  0
 18 32  1  0  0  0  0
 19 33  1  0  0  0  0
 19 34  1  0  0  0  0
 19 35  1  0  0  0  0
M  END
> <PUBCHEM_COMPOUND_CID>
51090997

> <PUBCHEM_CONFORMER_RMSD>
0.8

> <PUBCHEM_CONFORMER_DIVERSEORDER>
1
13
33
18
5
43
47
30
34
14
50
29
28
42
22
54
8
21
44
20
41
56
10
45
15
17
37
19
39
25
23
2
32
9
46
52
35
3
36
7
40
53
12
6
38
11
51
26
49
31
24
55
48
27
4
16

> <PUBCHEM_MMFF94_PARTIAL_CHARGES>
24
1 -0.11
10 -0.18
11 -0.11
12 -0.12
13 0.62
14 0.11
15 -0.15
16 -0.29
17 0.14
18 0.14
2 -0.57
22 0.15
23 0.37
24 0.15
25 0.15
26 0.15
27 0.15
3 0.33
4 -0.57
5 -0.73
6 0.05
7 0.48
8 0.14
9 -0.3

> <PUBCHEM_EFFECTIVE_ROTOR_COUNT>
5

> <PUBCHEM_PHARMACOPHORE_FEATURES>
8
1 1 hydrophobe
1 18 hydrophobe
1 19 hydrophobe
1 2 acceptor
1 5 donor
3 3 4 8 cation
5 3 4 6 8 9 rings
6 3 8 10 11 14 15 rings

> <PUBCHEM_HEAVY_ATOM_COUNT>
19

> <PUBCHEM_ATOM_DEF_STEREO_COUNT>
0

> <PUBCHEM_ATOM_UDEF_STEREO_COUNT>
0

> <PUBCHEM_BOND_DEF_STEREO_COUNT>
1

> <PUBCHEM_BOND_UDEF_STEREO_COUNT>
0

> <PUBCHEM_ISOTOPIC_ATOM_COUNT>
0

> <PUBCHEM_COMPONENT_COUNT>
1

> <PUBCHEM_CACTVS_TAUTO_COUNT>
2

> <PUBCHEM_CONFORMER_ID>
030B963500000001

> <PUBCHEM_MMFF94_ENERGY>
28.5235

> <PUBCHEM_FEATURE_SELFOVERLAP>
40.71

> <PUBCHEM_SHAPE_FINGERPRINT>
10498660 4 18261671596974840761
10646746 165 18335699464309745988
10670039 82 18269538576838471596
11132069 177 18261387828068564012
11471102 22 15123506991206440870
11552529 35 17130415788462302170
12596602 18 17417532411006455296
12670546 56 18338248119462730322
12788726 201 17554313731903071298
13402501 40 18113345193048753544
14341114 328 17917980677322729057
15209294 21 18342466932698522458
15527383 91 15985107409829684198
18186145 218 17313371340758567222
19862831 5 6411290230539398924
20645477 56 17822291236803495206
20645477 70 15719658923474981758
20715895 44 17342671281751804381
20739085 24 16845570912192387086
231179 274 17967533471774382106
23227448 37 18042129756203090109
23402539 116 18336554815521031039
23402655 69 14129047132438330178
23557571 272 17677335987336619719
23559900 14 18197486540087265183
26918003 58 16773799186202244225
2838139 119 17458923560836602760
351380 180 18411702084155551953
3524813 1 18187090546093603009
4028521 119 17603864520287498395
5104073 3 18267016335934681435
53917941 68 13985245228552469244
7064713 232 18339919436723601885
9981440 41 18271242815735303659

> <PUBCHEM_SHAPE_MULTIPOLES>
376.14
10.74
2.03
1.42
2.79
0.64
-0.04
4.04
3.42
-1.57
-0.18
1.27
0.03
0.38

> <PUBCHEM_SHAPE_SELFOVERLAP>
772.944

> <PUBCHEM_SHAPE_VOLUME>
221.6

> <PUBCHEM_COORDINATE_TYPE>
2
5
10

$$$$

