7414
  -OEChem-06261202043D

 15 15  0     0  0  0  0  0  0999 V2000
    2.7025   -1.2130    0.4632 S   0  0  0  0  0  0  0  0  0  0  0  0
    2.3067    1.2025   -0.4141 O   0  0  0  0  0  0  0  0  0  0  0  0
    0.2697    0.0692   -0.0274 C   0  0  0  0  0  0  0  0  0  0  0  0
   -0.5025    1.2053    0.2146 C   0  0  0  0  0  0  0  0  0  0  0  0
   -0.3492   -1.1625   -0.2406 C   0  0  0  0  0  0  0  0  0  0  0  0
   -1.8938    1.1097    0.2433 C   0  0  0  0  0  0  0  0  0  0  0  0
   -1.7405   -1.2581   -0.2119 C   0  0  0  0  0  0  0  0  0  0  0  0
   -2.5129   -0.1220    0.0300 C   0  0  0  0  0  0  0  0  0  0  0  0
    1.7201    0.1689   -0.0570 C   0  0  0  0  0  0  0  0  0  0  0  0
   -0.0374    2.1725    0.3865 H   0  0  0  0  0  0  0  0  0  0  0  0
    0.2124   -2.0664   -0.4567 H   0  0  0  0  0  0  0  0  0  0  0  0
   -2.4954    1.9940    0.4322 H   0  0  0  0  0  0  0  0  0  0  0  0
   -2.2233   -2.2157   -0.3835 H   0  0  0  0  0  0  0  0  0  0  0  0
   -3.5963   -0.1962    0.0511 H   0  0  0  0  0  0  0  0  0  0  0  0
    3.8978   -0.6371    0.2693 H   0  0  0  0  0  0  0  0  0  0  0  0
  1  9  1  0  0  0  0
  1 15  1  0  0  0  0
  2  9  2  0  0  0  0
  3  4  2  0  0  0  0
  3  5  1  0  0  0  0
  3  9  1  0  0  0  0
  4  6  1  0  0  0  0
  4 10  1  0  0  0  0
  5  7  2  0  0  0  0
  5 11  1  0  0  0  0
  6  8  2  0  0  0  0
  6 12  1  0  0  0  0
  7  8  1  0  0  0  0
  7 13  1  0  0  0  0
  8 14  1  0  0  0  0
M  END
> <PUBCHEM_COMPOUND_CID>
7414

> <PUBCHEM_CONFORMER_RMSD>
0.4

> <PUBCHEM_CONFORMER_DIVERSEORDER>
1
2
3

> <PUBCHEM_MMFF94_PARTIAL_CHARGES>
15
1 -0.32
10 0.15
11 0.15
12 0.15
13 0.15
14 0.15
15 0.18
2 -0.57
3 0.09
4 -0.15
5 -0.15
6 -0.15
7 -0.15
8 -0.15
9 0.62

> <PUBCHEM_EFFECTIVE_ROTOR_COUNT>
1

> <PUBCHEM_PHARMACOPHORE_FEATURES>
2
3 1 2 9 anion
6 3 4 5 6 7 8 rings

> <PUBCHEM_HEAVY_ATOM_COUNT>
9

> <PUBCHEM_ATOM_DEF_STEREO_COUNT>
0

> <PUBCHEM_ATOM_UDEF_STEREO_COUNT>
0

> <PUBCHEM_BOND_DEF_STEREO_COUNT>
0

> <PUBCHEM_BOND_UDEF_STEREO_COUNT>
0

> <PUBCHEM_ISOTOPIC_ATOM_COUNT>
0

> <PUBCHEM_COMPONENT_COUNT>
1

> <PUBCHEM_CACTVS_TAUTO_COUNT>
2

> <PUBCHEM_CONFORMER_ID>
00001CF600000001

> <PUBCHEM_MMFF94_ENERGY>
24.7866

> <PUBCHEM_FEATURE_SELFOVERLAP>
10.148

> <PUBCHEM_SHAPE_FINGERPRINT>
12897270 3 18338231540477322780
14325111 11 18410574006668654545
16945 1 18265610064425231711
18185500 45 18267305335150774942
20645464 45 17095815360105609682
21040471 1 18262234542305909377
23552423 10 18343301440169548094
29004967 10 16200153174912527188
369184 2 18410577279491587515
5084963 1 18336831995155476896

> <PUBCHEM_SHAPE_MULTIPOLES>
183.2
3.86
1.55
0.68
1.32
0.03
-0.03
0.42
-0.28
0.02
0.03
0.09
0.02
-0.4

> <PUBCHEM_SHAPE_SELFOVERLAP>
370.711

> <PUBCHEM_SHAPE_VOLUME>
108.1

> <PUBCHEM_COORDINATE_TYPE>
2
5
10

$$$$

