3551
  -OEChem-06251223302D

142148  0     1  0  0  0  0  0999 V2000
    8.8198    0.7918    0.0000 O   0  0  0  0  0  0  0  0  0  0  0  0
    7.7320    0.8488    0.0000 O   0  0  0  0  0  0  0  0  0  0  0  0
   11.3587    1.2918    0.0000 O   0  0  0  0  0  0  0  0  0  0  0  0
   11.0497   -1.2773    0.0000 O   0  0  0  0  0  0  0  0  0  0  0  0
   14.0698    1.2616    0.0000 O   0  0  0  0  0  0  0  0  0  0  0  0
    6.2320   -1.7492    0.0000 O   0  0  0  0  0  0  0  0  0  0  0  0
    4.7320    2.5809    0.0000 O   0  0  0  0  0  0  0  0  0  0  0  0
   16.1576    1.2046    0.0000 O   0  0  0  0  0  0  0  0  0  0  0  0
   12.6969   -1.8125    0.0000 O   0  0  0  0  0  0  0  0  0  0  0  0
    3.2320   -0.0172    0.0000 O   0  0  0  0  0  0  0  0  0  0  0  0
    3.7320    3.5809    0.0000 O   0  0  0  0  0  0  0  0  0  0  0  0
   18.0236    0.7046    0.0000 O   0  0  0  0  0  0  0  0  0  0  0  0
   13.7262   -4.2498    0.0000 O   0  0  0  0  0  0  0  0  0  0  0  0
    2.0000    4.5809    0.0000 O   0  0  0  0  0  0  0  0  0  0  0  0
    3.7320    4.5809    0.0000 O   0  0  0  0  0  0  0  0  0  0  0  0
    8.2320   -0.0172    0.0000 C   0  0  3  0  0  0  0  0  0  0  0  0
    9.7709    0.4828    0.0000 C   0  0  3  0  0  0  0  0  0  0  0  0
    8.8198   -0.8262    0.0000 C   0  0  3  0  0  0  0  0  0  0  0  0
    9.7709   -0.5172    0.0000 C   0  0  0  0  0  0  0  0  0  0  0  0
   10.7709    0.4828    0.0000 C   0  0  3  0  0  0  0  0  0  0  0  0
    7.7320   -0.8832    0.0000 C   0  0  3  0  0  0  0  0  0  0  0  0
   11.3587   -0.3262    0.0000 C   0  0  3  0  0  0  0  0  0  0  0  0
    6.7320   -0.8832    0.0000 C   0  0  3  0  0  0  0  0  0  0  0  0
   12.3097    0.9828    0.0000 C   0  0  3  0  0  0  0  0  0  0  0  0
    6.7320    0.8488    0.0000 C   0  0  3  0  0  0  0  0  0  0  0  0
   12.3097   -0.0172    0.0000 C   0  0  0  0  0  0  0  0  0  0  0  0
    6.2320   -0.0172    0.0000 C   0  0  0  0  0  0  0  0  0  0  0  0
   10.0799    1.4339    0.0000 C   0  0  0  0  0  0  0  0  0  0  0  0
    9.1945   -1.7534    0.0000 C   0  0  0  0  0  0  0  0  0  0  0  0
   13.1188    1.5706    0.0000 C   0  0  3  0  0  0  0  0  0  0  0  0
    6.2320    1.7149    0.0000 C   0  0  0  0  0  0  0  0  0  0  0  0
    7.5584   -1.8680    0.0000 C   0  0  0  0  0  0  0  0  0  0  0  0
    5.2320    1.7149    0.0000 C   0  0  3  0  0  0  0  0  0  0  0  0
   13.1188    2.5706    0.0000 C   0  0  0  0  0  0  0  0  0  0  0  0
   14.6576    2.0706    0.0000 C   0  0  3  0  0  0  0  0  0  0  0  0
   14.0698    2.8796    0.0000 C   0  0  0  0  0  0  0  0  0  0  0  0
    4.7320    0.8488    0.0000 C   0  0  3  0  0  0  0  0  0  0  0  0
   15.6576    2.0706    0.0000 C   0  0  3  0  0  0  0  0  0  0  0  0
    3.7320    0.8488    0.0000 C   0  0  3  0  0  0  0  0  0  0  0  0
    3.2320    1.7149    0.0000 C   0  0  3  0  0  0  0  0  0  0  0  0
    3.7320    2.5809    0.0000 C   0  0  3  0  0  0  0  0  0  0  0  0
   16.1576    2.9366    0.0000 C   0  0  3  0  0  0  0  0  0  0  0  0
   11.7188   -2.0204    0.0000 C   0  0  3  0  0  0  0  0  0  0  0  0
   17.1576    2.9366    0.0000 C   0  0  0  0  0  0  0  0  0  0  0  0
    5.2320   -0.0172    0.0000 C   0  0  0  0  0  0  0  0  0  0  0  0
   17.6576    2.0706    0.0000 C   0  0  3  0  0  0  0  0  0  0  0  0
   17.1576    1.2046    0.0000 C   0  0  3  0  0  0  0  0  0  0  0  0
    2.8660    3.0809    0.0000 C   0  0  3  0  0  0  0  0  0  0  0  0
   11.4098   -2.9715    0.0000 C   0  0  0  0  0  0  0  0  0  0  0  0
    5.2320   -1.7492    0.0000 C   0  0  0  0  0  0  0  0  0  0  0  0
    2.2320    1.7149    0.0000 C   0  0  0  0  0  0  0  0  0  0  0  0
   15.6576    3.8026    0.0000 C   0  0  0  0  0  0  0  0  0  0  0  0
   12.0789   -3.7146    0.0000 C   0  0  0  0  0  0  0  0  0  0  0  0
   13.3661   -2.5556    0.0000 C   0  0  3  0  0  0  0  0  0  0  0  0
   13.0571   -3.5067    0.0000 C   0  0  3  0  0  0  0  0  0  0  0  0
   18.6576    2.0706    0.0000 C   0  0  0  0  0  0  0  0  0  0  0  0
   17.1576    0.2046    0.0000 C   0  0  0  0  0  0  0  0  0  0  0  0
    2.0000    2.5809    0.0000 C   0  0  0  0  0  0  0  0  0  0  0  0
    2.8660    4.0809    0.0000 C   0  0  0  0  0  0  0  0  0  0  0  0
    2.2320   -0.0172    0.0000 C   0  0  0  0  0  0  0  0  0  0  0  0
   14.3442   -2.3477    0.0000 C   0  0  0  0  0  0  0  0  0  0  0  0
   13.4172   -5.2009    0.0000 C   0  0  0  0  0  0  0  0  0  0  0  0
    8.2776   -1.1268    0.0000 H   0  0  0  0  0  0  0  0  0  0  0  0
    9.8998   -1.1236    0.0000 H   0  0  0  0  0  0  0  0  0  0  0  0
   10.3875   -0.4524    0.0000 H   0  0  0  0  0  0  0  0  0  0  0  0
   10.4894    1.0352    0.0000 H   0  0  0  0  0  0  0  0  0  0  0  0
    8.3147   -1.0953    0.0000 H   0  0  0  0  0  0  0  0  0  0  0  0
   11.7971   -0.7646    0.0000 H   0  0  0  0  0  0  0  0  0  0  0  0
    7.0420   -1.4201    0.0000 H   0  0  0  0  0  0  0  0  0  0  0  0
   12.2127    1.5952    0.0000 H   0  0  0  0  0  0  0  0  0  0  0  0
    7.0420    1.3858    0.0000 H   0  0  0  0  0  0  0  0  0  0  0  0
   12.4386   -0.6236    0.0000 H   0  0  0  0  0  0  0  0  0  0  0  0
   12.9263    0.0476    0.0000 H   0  0  0  0  0  0  0  0  0  0  0  0
    5.7571    0.3813    0.0000 H   0  0  0  0  0  0  0  0  0  0  0  0
    5.7571   -0.4157    0.0000 H   0  0  0  0  0  0  0  0  0  0  0  0
   10.6696    1.2423    0.0000 H   0  0  0  0  0  0  0  0  0  0  0  0
   10.2715    2.0235    0.0000 H   0  0  0  0  0  0  0  0  0  0  0  0
    9.4902    1.6255    0.0000 H   0  0  0  0  0  0  0  0  0  0  0  0
    8.6197   -1.9856    0.0000 H   0  0  0  0  0  0  0  0  0  0  0  0
    9.4268   -2.3282    0.0000 H   0  0  0  0  0  0  0  0  0  0  0  0
    9.7693   -1.5211    0.0000 H   0  0  0  0  0  0  0  0  0  0  0  0
   13.2157    0.9582    0.0000 H   0  0  0  0  0  0  0  0  0  0  0  0
    6.8147    1.9269    0.0000 H   0  0  0  0  0  0  0  0  0  0  0  0
    6.1244    2.3254    0.0000 H   0  0  0  0  0  0  0  0  0  0  0  0
    6.9478   -1.7604    0.0000 H   0  0  0  0  0  0  0  0  0  0  0  0
    7.4507   -2.4786    0.0000 H   0  0  0  0  0  0  0  0  0  0  0  0
    8.1690   -1.9757    0.0000 H   0  0  0  0  0  0  0  0  0  0  0  0
    5.5420    2.2518    0.0000 H   0  0  0  0  0  0  0  0  0  0  0  0
   12.9898    3.1770    0.0000 H   0  0  0  0  0  0  0  0  0  0  0  0
   12.5021    2.5058    0.0000 H   0  0  0  0  0  0  0  0  0  0  0  0
   14.9391    1.5182    0.0000 H   0  0  0  0  0  0  0  0  0  0  0  0
   14.6067    3.1896    0.0000 H   0  0  0  0  0  0  0  0  0  0  0  0
   13.8176    3.4460    0.0000 H   0  0  0  0  0  0  0  0  0  0  0  0
    4.4220    0.3119    0.0000 H   0  0  0  0  0  0  0  0  0  0  0  0
   15.3476    1.5337    0.0000 H   0  0  0  0  0  0  0  0  0  0  0  0
    4.0420    0.3119    0.0000 H   0  0  0  0  0  0  0  0  0  0  0  0
    2.9220    1.1779    0.0000 H   0  0  0  0  0  0  0  0  0  0  0  0
   15.5376    2.9366    0.0000 H   0  0  0  0  0  0  0  0  0  0  0  0
   11.1123   -2.1493    0.0000 H   0  0  0  0  0  0  0  0  0  0  0  0
   17.7402    3.1487    0.0000 H   0  0  0  0  0  0  0  0  0  0  0  0
   17.0499    3.5472    0.0000 H   0  0  0  0  0  0  0  0  0  0  0  0
    4.6951   -0.3272    0.0000 H   0  0  0  0  0  0  0  0  0  0  0  0
    5.5420   -0.5541    0.0000 H   0  0  0  0  0  0  0  0  0  0  0  0
    5.7690    0.2928    0.0000 H   0  0  0  0  0  0  0  0  0  0  0  0
   17.9676    1.5337    0.0000 H   0  0  0  0  0  0  0  0  0  0  0  0
    2.8660    2.4609    0.0000 H   0  0  0  0  0  0  0  0  0  0  0  0
   10.8623   -2.6804    0.0000 H   0  0  0  0  0  0  0  0  0  0  0  0
   11.0281   -3.4600    0.0000 H   0  0  0  0  0  0  0  0  0  0  0  0
    5.2320   -1.1292    0.0000 H   0  0  0  0  0  0  0  0  0  0  0  0
    4.6120   -1.7492    0.0000 H   0  0  0  0  0  0  0  0  0  0  0  0
    5.2320   -2.3692    0.0000 H   0  0  0  0  0  0  0  0  0  0  0  0
    2.2320    2.3349    0.0000 H   0  0  0  0  0  0  0  0  0  0  0  0
    1.6120    1.7149    0.0000 H   0  0  0  0  0  0  0  0  0  0  0  0
    2.2320    1.0949    0.0000 H   0  0  0  0  0  0  0  0  0  0  0  0
   16.1945    4.1126    0.0000 H   0  0  0  0  0  0  0  0  0  0  0  0
   15.3476    4.3396    0.0000 H   0  0  0  0  0  0  0  0  0  0  0  0
   15.1207    3.4926    0.0000 H   0  0  0  0  0  0  0  0  0  0  0  0
   11.5531   -4.0432    0.0000 H   0  0  0  0  0  0  0  0  0  0  0  0
   12.3112   -4.2895    0.0000 H   0  0  0  0  0  0  0  0  0  0  0  0
   13.5577   -1.9660    0.0000 H   0  0  0  0  0  0  0  0  0  0  0  0
   13.6635   -3.3778    0.0000 H   0  0  0  0  0  0  0  0  0  0  0  0
    4.2690    3.8909    0.0000 H   0  0  0  0  0  0  0  0  0  0  0  0
   18.6576    1.4506    0.0000 H   0  0  0  0  0  0  0  0  0  0  0  0
   19.2776    2.0706    0.0000 H   0  0  0  0  0  0  0  0  0  0  0  0
   18.6576    2.6906    0.0000 H   0  0  0  0  0  0  0  0  0  0  0  0
   16.5376    0.2046    0.0000 H   0  0  0  0  0  0  0  0  0  0  0  0
   17.1576   -0.4154    0.0000 H   0  0  0  0  0  0  0  0  0  0  0  0
   17.7776    0.2046    0.0000 H   0  0  0  0  0  0  0  0  0  0  0  0
    1.6900    3.1178    0.0000 H   0  0  0  0  0  0  0  0  0  0  0  0
    1.4631    2.2709    0.0000 H   0  0  0  0  0  0  0  0  0  0  0  0
    2.3100    2.0440    0.0000 H   0  0  0  0  0  0  0  0  0  0  0  0
   18.0236    0.0846    0.0000 H   0  0  0  0  0  0  0  0  0  0  0  0
    2.2320    0.6028    0.0000 H   0  0  0  0  0  0  0  0  0  0  0  0
    1.6120   -0.0172    0.0000 H   0  0  0  0  0  0  0  0  0  0  0  0
    2.2320   -0.6372    0.0000 H   0  0  0  0  0  0  0  0  0  0  0  0
   14.4731   -2.9542    0.0000 H   0  0  0  0  0  0  0  0  0  0  0  0
   14.9507   -2.2188    0.0000 H   0  0  0  0  0  0  0  0  0  0  0  0
   14.2153   -1.7413    0.0000 H   0  0  0  0  0  0  0  0  0  0  0  0
    2.0000    5.2009    0.0000 H   0  0  0  0  0  0  0  0  0  0  0  0
   12.8275   -5.0093    0.0000 H   0  0  0  0  0  0  0  0  0  0  0  0
   13.2256   -5.7906    0.0000 H   0  0  0  0  0  0  0  0  0  0  0  0
   14.0068   -5.3925    0.0000 H   0  0  0  0  0  0  0  0  0  0  0  0
  1 16  1  0  0  0  0
  1 17  1  0  0  0  0
  2 16  1  0  0  0  0
  2 25  1  0  0  0  0
  3 20  1  0  0  0  0
  3 24  1  0  0  0  0
  4 22  1  0  0  0  0
  4 43  1  0  0  0  0
  5 30  1  0  0  0  0
  5 35  1  0  0  0  0
  6 23  1  0  0  0  0
  6 50  1  0  0  0  0
  7 33  1  0  0  0  0
  7 41  1  0  0  0  0
  8 38  1  0  0  0  0
  8 47  1  0  0  0  0
  9 43  1  0  0  0  0
  9 54  1  0  0  0  0
 10 39  1  0  0  0  0
 10 60  1  0  0  0  0
 11 41  1  0  0  0  0
 11122  1  0  0  0  0
 12 47  1  0  0  0  0
 12132  1  0  0  0  0
 13 55  1  0  0  0  0
 13 62  1  0  0  0  0
 14 59  1  0  0  0  0
 14139  1  0  0  0  0
 15 59  2  0  0  0  0
 16 18  1  0  0  0  0
 16 21  1  0  0  0  0
 17 19  1  0  0  0  0
 17 20  1  0  0  0  0
 17 28  1  0  0  0  0
 18 19  1  0  0  0  0
 18 29  1  0  0  0  0
 18 63  1  0  0  0  0
 19 64  1  0  0  0  0
 19 65  1  0  0  0  0
 20 22  1  0  0  0  0
 20 66  1  0  0  0  0
 21 23  1  0  0  0  0
 21 32  1  0  0  0  0
 21 67  1  0  0  0  0
 22 26  1  0  0  0  0
 22 68  1  0  0  0  0
 23 27  1  0  0  0  0
 23 69  1  0  0  0  0
 24 26  1  0  0  0  0
 24 30  1  0  0  0  0
 24 70  1  0  0  0  0
 25 27  1  0  0  0  0
 25 31  1  0  0  0  0
 25 71  1  0  0  0  0
 26 72  1  0  0  0  0
 26 73  1  0  0  0  0
 27 74  1  0  0  0  0
 27 75  1  0  0  0  0
 28 76  1  0  0  0  0
 28 77  1  0  0  0  0
 28 78  1  0  0  0  0
 29 79  1  0  0  0  0
 29 80  1  0  0  0  0
 29 81  1  0  0  0  0
 30 34  1  0  0  0  0
 30 82  1  0  0  0  0
 31 33  1  0  0  0  0
 31 83  1  0  0  0  0
 31 84  1  0  0  0  0
 32 85  1  0  0  0  0
 32 86  1  0  0  0  0
 32 87  1  0  0  0  0
 33 37  1  0  0  0  0
 33 88  1  0  0  0  0
 34 36  1  0  0  0  0
 34 89  1  0  0  0  0
 34 90  1  0  0  0  0
 35 36  1  0  0  0  0
 35 38  1  0  0  0  0
 35 91  1  0  0  0  0
 36 92  1  0  0  0  0
 36 93  1  0  0  0  0
 37 39  1  0  0  0  0
 37 45  1  0  0  0  0
 37 94  1  0  0  0  0
 38 42  1  0  0  0  0
 38 95  1  0  0  0  0
 39 40  1  0  0  0  0
 39 96  1  0  0  0  0
 40 41  1  0  0  0  0
 40 51  1  0  0  0  0
 40 97  1  0  0  0  0
 41 48  1  0  0  0  0
 42 44  1  0  0  0  0
 42 52  1  0  0  0  0
 42 98  1  0  0  0  0
 43 49  1  0  0  0  0
 43 99  1  0  0  0  0
 44 46  1  0  0  0  0
 44100  1  0  0  0  0
 44101  1  0  0  0  0
 45102  1  0  0  0  0
 45103  1  0  0  0  0
 45104  1  0  0  0  0
 46 47  1  0  0  0  0
 46 56  1  0  0  0  0
 46105  1  0  0  0  0
 47 57  1  0  0  0  0
 48 58  1  0  0  0  0
 48 59  1  0  0  0  0
 48106  1  0  0  0  0
 49 53  1  0  0  0  0
 49107  1  0  0  0  0
 49108  1  0  0  0  0
 50109  1  0  0  0  0
 50110  1  0  0  0  0
 50111  1  0  0  0  0
 51112  1  0  0  0  0
 51113  1  0  0  0  0
 51114  1  0  0  0  0
 52115  1  0  0  0  0
 52116  1  0  0  0  0
 52117  1  0  0  0  0
 53 55  1  0  0  0  0
 53118  1  0  0  0  0
 53119  1  0  0  0  0
 54 55  1  0  0  0  0
 54 61  1  0  0  0  0
 54120  1  0  0  0  0
 55121  1  0  0  0  0
 56123  1  0  0  0  0
 56124  1  0  0  0  0
 56125  1  0  0  0  0
 57126  1  0  0  0  0
 57127  1  0  0  0  0
 57128  1  0  0  0  0
 58129  1  0  0  0  0
 58130  1  0  0  0  0
 58131  1  0  0  0  0
 60133  1  0  0  0  0
 60134  1  0  0  0  0
 60135  1  0  0  0  0
 61136  1  0  0  0  0
 61137  1  0  0  0  0
 61138  1  0  0  0  0
 62140  1  0  0  0  0
 62141  1  0  0  0  0
 62142  1  0  0  0  0
M  END
> <PUBCHEM_COMPOUND_CID>
3551

> <PUBCHEM_COMPOUND_CANONICALIZED>
1

> <PUBCHEM_CACTVS_COMPLEXITY>
1540

> <PUBCHEM_CACTVS_HBOND_ACCEPTOR>
15

> <PUBCHEM_CACTVS_HBOND_DONOR>
3

> <PUBCHEM_CACTVS_ROTATABLE_BOND>
12

> <PUBCHEM_CACTVS_SUBSKEYS>
AAADcfB8PAAAAAAAAAAAAAAAAAAAASJEgAAkSJEgAAAAAAAAAAAAGgAACAAADVSwgAMCCAAABgAIAACQCAAAAAAAAAAAAAEAAAARABYAAAAiQAAFIAAGAAHI7PzOAAAAAAAAAAAAAAAAAAAAAAAAAAAAAA==

> <PUBCHEM_IUPAC_OPENEYE_NAME>
2-[2-hydroxy-6-[[2-[5-[5-(6-hydroxy-3,5,6-trimethyl-tetrahydropyran-2-yl)tetrahydrofuran-2-yl]-3-(5-methoxy-6-methyl-tetrahydropyran-2-yl)oxy-tetrahydrofuran-2-yl]-9-methoxy-2,4,10-trimethyl-1,6-dioxaspiro[4.5]decan-7-yl]methyl]-4-methoxy-3,5-dimethyl-tetrahydropyran-2-yl]propanoic acid

> <PUBCHEM_IUPAC_CAS_NAME>
2-[2-hydroxy-6-[[2-[5-[5-(6-hydroxy-3,5,6-trimethyl-2-oxanyl)-2-oxolanyl]-3-[(5-methoxy-6-methyl-2-oxanyl)oxy]-2-oxolanyl]-9-methoxy-2,4,10-trimethyl-1,6-dioxaspiro[4.5]decan-7-yl]methyl]-4-methoxy-3,5-dimethyl-2-oxanyl]propanoic acid

> <PUBCHEM_IUPAC_NAME>
2-[2-hydroxy-6-[[2-[5-[5-(6-hydroxy-3,5,6-trimethyloxan-2-yl)oxolan-2-yl]-3-(5-methoxy-6-methyloxan-2-yl)oxyoxolan-2-yl]-9-methoxy-2,4,10-trimethyl-1,6-dioxaspiro[4.5]decan-7-yl]methyl]-4-methoxy-3,5-dimethyloxan-2-yl]propanoic acid

> <PUBCHEM_IUPAC_SYSTEMATIC_NAME>
2-[4-methoxy-6-[[9-methoxy-2-[3-(5-methoxy-6-methyl-oxan-2-yl)oxy-5-[5-(3,5,6-trimethyl-6-oxidanyl-oxan-2-yl)oxolan-2-yl]oxolan-2-yl]-2,4,10-trimethyl-1,6-dioxaspiro[4.5]decan-7-yl]methyl]-3,5-dimethyl-2-oxidanyl-oxan-2-yl]propanoic acid

> <PUBCHEM_IUPAC_TRADITIONAL_NAME>
2-[2-hydroxy-6-[[2-[5-[5-(6-hydroxy-3,5,6-trimethyl-tetrahydropyran-2-yl)tetrahydrofuran-2-yl]-3-(5-methoxy-6-methyl-tetrahydropyran-2-yl)oxy-tetrahydrofuran-2-yl]-9-methoxy-2,4,10-trimethyl-1,6-dioxaspiro[4.5]decan-7-yl]methyl]-4-methoxy-3,5-dimethyl-tetrahydropyran-2-yl]propionic acid

> <PUBCHEM_IUPAC_INCHI>
InChI=1S/C47H80O15/c1-23-18-24(2)45(10,50)61-40(23)34-15-14-33(56-34)37-21-38(57-39-17-16-32(52-11)30(8)55-39)42(58-37)44(9)22-25(3)47(62-44)27(5)36(53-12)20-31(59-47)19-35-26(4)41(54-13)28(6)46(51,60-35)29(7)43(48)49/h23-42,50-51H,14-22H2,1-13H3,(H,48,49)

> <PUBCHEM_IUPAC_INCHIKEY>
VJFWGQVEKGVLMD-UHFFFAOYSA-N

> <PUBCHEM_XLOGP3_AA>
6.1

> <PUBCHEM_EXACT_MASS>
884.549722

> <PUBCHEM_MOLECULAR_FORMULA>
C47H80O15

> <PUBCHEM_MOLECULAR_WEIGHT>
885.1291

> <PUBCHEM_OPENEYE_CAN_SMILES>
CC1CC(C(OC1C2CCC(O2)C3CC(C(O3)C4(CC(C5(O4)C(C(CC(O5)CC6C(C(C(C(O6)(C(C)C(=O)O)O)C)OC)C)OC)C)C)C)OC7CCC(C(O7)C)OC)(C)O)C

> <PUBCHEM_OPENEYE_ISO_SMILES>
CC1CC(C(OC1C2CCC(O2)C3CC(C(O3)C4(CC(C5(O4)C(C(CC(O5)CC6C(C(C(C(O6)(C(C)C(=O)O)O)C)OC)C)OC)C)C)C)OC7CCC(C(O7)C)OC)(C)O)C

> <PUBCHEM_CACTVS_TPSA>
179

> <PUBCHEM_MONOISOTOPIC_WEIGHT>
884.549722

> <PUBCHEM_TOTAL_CHARGE>
0

> <PUBCHEM_HEAVY_ATOM_COUNT>
62

> <PUBCHEM_ATOM_DEF_STEREO_COUNT>
0

> <PUBCHEM_ATOM_UDEF_STEREO_COUNT>
24

> <PUBCHEM_BOND_DEF_STEREO_COUNT>
0

> <PUBCHEM_BOND_UDEF_STEREO_COUNT>
0

> <PUBCHEM_ISOTOPIC_ATOM_COUNT>
0

> <PUBCHEM_COMPONENT_COUNT>
1

> <PUBCHEM_CACTVS_TAUTO_COUNT>
1

> <PUBCHEM_COORDINATE_TYPE>
1
5
255

> <PUBCHEM_BONDANNOTATIONS>
16  1  3
39  10  3
41  11  3
47  12  3
55  13  3
17  28  3
18  29  3
21  32  3
24  26  3
25  31  3
20  3  3
30  34  3
33  31  3
35  36  3
37  45  3
22  4  3
43  4  3
40  51  3
42  52  3
46  56  3
48  58  3
54  61  3
23  6  3
38  8  3

$$$$

