12626
  -OEChem-06261207103D

 15 14  0     0  0  0  0  0  0999 V2000
   -1.1593   -1.7628    0.1481 F   0  0  0  0  0  0  0  0  0  0  0  0
   -0.4734   -0.7185   -1.6313 F   0  0  0  0  0  0  0  0  0  0  0  0
    0.7541   -0.6565    1.6698 F   0  0  0  0  0  0  0  0  0  0  0  0
    1.4942   -1.7393   -0.0623 F   0  0  0  0  0  0  0  0  0  0  0  0
   -0.8701    1.7046   -0.3345 F   0  0  0  0  0  0  0  0  0  0  0  0
   -2.6429    0.4439   -0.4882 F   0  0  0  0  0  0  0  0  0  0  0  0
   -1.6037    0.6431    1.4202 F   0  0  0  0  0  0  0  0  0  0  0  0
    2.0972    1.4258    0.7164 O   0  0  0  0  0  0  0  0  0  0  0  0
    1.8543    0.7171   -1.4581 N   0  0  0  0  0  0  0  0  0  0  0  0
   -0.5458   -0.6243   -0.2793 C   0  0  0  0  0  0  0  0  0  0  0  0
    0.8551   -0.5943    0.3126 C   0  0  0  0  0  0  0  0  0  0  0  0
   -1.4257    0.5464    0.0864 C   0  0  0  0  0  0  0  0  0  0  0  0
    1.6660    0.6149   -0.0996 C   0  0  0  0  0  0  0  0  0  0  0  0
    1.4908    0.0292   -2.1099 H   0  0  0  0  0  0  0  0  0  0  0  0
    2.3781    1.4896   -1.8559 H   0  0  0  0  0  0  0  0  0  0  0  0
  1 10  1  0  0  0  0
  2 10  1  0  0  0  0
  3 11  1  0  0  0  0
  4 11  1  0  0  0  0
  5 12  1  0  0  0  0
  6 12  1  0  0  0  0
  7 12  1  0  0  0  0
  8 13  2  0  0  0  0
  9 13  1  0  0  0  0
  9 14  1  0  0  0  0
  9 15  1  0  0  0  0
 10 11  1  0  0  0  0
 10 12  1  0  0  0  0
 11 13  1  0  0  0  0
M  END
> <PUBCHEM_COMPOUND_CID>
12626

> <PUBCHEM_CONFORMER_RMSD>
0.6

> <PUBCHEM_CONFORMER_DIVERSEORDER>
1
5
9
3
4
7
10
8
2
6

> <PUBCHEM_MMFF94_PARTIAL_CHARGES>
15
1 -0.34
10 0.68
11 0.74
12 1.02
13 0.57
14 0.37
15 0.37
2 -0.34
3 -0.34
4 -0.34
5 -0.34
6 -0.34
7 -0.34
8 -0.57
9 -0.8

> <PUBCHEM_EFFECTIVE_ROTOR_COUNT>
3

> <PUBCHEM_PHARMACOPHORE_FEATURES>
2
1 8 acceptor
1 9 donor

> <PUBCHEM_HEAVY_ATOM_COUNT>
13

> <PUBCHEM_ATOM_DEF_STEREO_COUNT>
0

> <PUBCHEM_ATOM_UDEF_STEREO_COUNT>
0

> <PUBCHEM_BOND_DEF_STEREO_COUNT>
0

> <PUBCHEM_BOND_UDEF_STEREO_COUNT>
0

> <PUBCHEM_ISOTOPIC_ATOM_COUNT>
0

> <PUBCHEM_COMPONENT_COUNT>
1

> <PUBCHEM_CACTVS_TAUTO_COUNT>
2

> <PUBCHEM_CONFORMER_ID>
0000315200000001

> <PUBCHEM_MMFF94_ENERGY>
8.3034

> <PUBCHEM_FEATURE_SELFOVERLAP>
10.148

> <PUBCHEM_SHAPE_FINGERPRINT>
12423570 1 5902169020655620646
13024252 1 17343215225862334804
137420 1 4814569441809884191
15557651 10 17976780372847996544
15775835 57 18408321107359432116
16945 1 18410844482334359912
19837323 101 17386546003933975257
20653085 51 17824799210184189000
21040471 1 18413107259952500580
21922407 69 17560521698753111120
369184 2 18056494862808889336
5084963 1 18043541718259239699

> <PUBCHEM_SHAPE_MULTIPOLES>
205.77
2.64
1.54
1.25
0.22
0.22
0.01
-0.8
-0.09
-0.13
0.04
-0.15
0
-0.11

> <PUBCHEM_SHAPE_SELFOVERLAP>
426.774

> <PUBCHEM_SHAPE_VOLUME>
116.8

> <PUBCHEM_COORDINATE_TYPE>
2
5
10

$$$$

