4964
  -OEChem-06261200262D

 18 18  0     0  0  0  0  0  0999 V2000
    3.7320    2.9050    0.0000 Br  0  0  0  0  0  0  0  0  0  0  0  0
    2.8660   -2.5950    0.0000 O   0  0  0  0  0  0  0  0  0  0  0  0
    2.0000    1.9050    0.0000 O   0  0  0  0  0  0  0  0  0  0  0  0
    2.8660    0.4050    0.0000 C   0  0  0  0  0  0  0  0  0  0  0  0
    2.0000   -0.0950    0.0000 C   0  0  0  0  0  0  0  0  0  0  0  0
    3.7320   -0.0950    0.0000 C   0  0  0  0  0  0  0  0  0  0  0  0
    2.8660    1.4050    0.0000 C   0  0  0  0  0  0  0  0  0  0  0  0
    2.0000   -1.0950    0.0000 C   0  0  0  0  0  0  0  0  0  0  0  0
    3.7320   -1.0950    0.0000 C   0  0  0  0  0  0  0  0  0  0  0  0
    2.8660   -1.5950    0.0000 C   0  0  0  0  0  0  0  0  0  0  0  0
    3.7320    1.9050    0.0000 C   0  0  0  0  0  0  0  0  0  0  0  0
    1.4631    0.2150    0.0000 H   0  0  0  0  0  0  0  0  0  0  0  0
    4.2690    0.2150    0.0000 H   0  0  0  0  0  0  0  0  0  0  0  0
    1.4631   -1.4050    0.0000 H   0  0  0  0  0  0  0  0  0  0  0  0
    4.2690   -1.4050    0.0000 H   0  0  0  0  0  0  0  0  0  0  0  0
    3.9441    1.3224    0.0000 H   0  0  0  0  0  0  0  0  0  0  0  0
    4.3426    2.0127    0.0000 H   0  0  0  0  0  0  0  0  0  0  0  0
    2.3291   -2.9050    0.0000 H   0  0  0  0  0  0  0  0  0  0  0  0
  1 11  1  0  0  0  0
  2 10  1  0  0  0  0
  2 18  1  0  0  0  0
  3  7  2  0  0  0  0
  4  5  2  0  0  0  0
  4  6  1  0  0  0  0
  4  7  1  0  0  0  0
  5  8  1  0  0  0  0
  5 12  1  0  0  0  0
  6  9  2  0  0  0  0
  6 13  1  0  0  0  0
  7 11  1  0  0  0  0
  8 10  2  0  0  0  0
  8 14  1  0  0  0  0
  9 10  1  0  0  0  0
  9 15  1  0  0  0  0
 11 16  1  0  0  0  0
 11 17  1  0  0  0  0
M  END
> <PUBCHEM_COMPOUND_CID>
4964

> <PUBCHEM_COMPOUND_CANONICALIZED>
1

> <PUBCHEM_CACTVS_COMPLEXITY>
139

> <PUBCHEM_CACTVS_HBOND_ACCEPTOR>
2

> <PUBCHEM_CACTVS_HBOND_DONOR>
1

> <PUBCHEM_CACTVS_ROTATABLE_BOND>
2

> <PUBCHEM_CACTVS_SUBSKEYS>
AAADcYBwMAAAEAAAAAAAAAAAAAAAAAAAAAAwAAAAAAAAAAABAAAAGgBACAABTASAmAAwBoAAAgCIAqBSAAACAAAkIAAIiAEGCOgoJjKCFRKAcQAkwBEImZeIzIDOIAAAAAAAAABAAAAAAAAAAAAAAAAAAA==

> <PUBCHEM_IUPAC_OPENEYE_NAME>
2-bromo-1-(4-hydroxyphenyl)ethanone

> <PUBCHEM_IUPAC_CAS_NAME>
2-bromo-1-(4-hydroxyphenyl)ethanone

> <PUBCHEM_IUPAC_NAME>
2-bromo-1-(4-hydroxyphenyl)ethanone

> <PUBCHEM_IUPAC_SYSTEMATIC_NAME>
2-bromanyl-1-(4-hydroxyphenyl)ethanone

> <PUBCHEM_IUPAC_TRADITIONAL_NAME>
2-bromo-1-(4-hydroxyphenyl)ethanone

> <PUBCHEM_IUPAC_INCHI>
InChI=1S/C8H7BrO2/c9-5-8(11)6-1-3-7(10)4-2-6/h1-4,10H,5H2

> <PUBCHEM_IUPAC_INCHIKEY>
LJYOFQHKEWTQRH-UHFFFAOYSA-N

> <PUBCHEM_XLOGP3>
2.4

> <PUBCHEM_EXACT_MASS>
213.962942

> <PUBCHEM_MOLECULAR_FORMULA>
C8H7BrO2

> <PUBCHEM_MOLECULAR_WEIGHT>
215.04398

> <PUBCHEM_OPENEYE_CAN_SMILES>
C1=CC(=CC=C1C(=O)CBr)O

> <PUBCHEM_OPENEYE_ISO_SMILES>
C1=CC(=CC=C1C(=O)CBr)O

> <PUBCHEM_CACTVS_TPSA>
37.3

> <PUBCHEM_MONOISOTOPIC_WEIGHT>
213.962942

> <PUBCHEM_TOTAL_CHARGE>
0

> <PUBCHEM_HEAVY_ATOM_COUNT>
11

> <PUBCHEM_ATOM_DEF_STEREO_COUNT>
0

> <PUBCHEM_ATOM_UDEF_STEREO_COUNT>
0

> <PUBCHEM_BOND_DEF_STEREO_COUNT>
0

> <PUBCHEM_BOND_UDEF_STEREO_COUNT>
0

> <PUBCHEM_ISOTOPIC_ATOM_COUNT>
0

> <PUBCHEM_COMPONENT_COUNT>
1

> <PUBCHEM_CACTVS_TAUTO_COUNT>
7

> <PUBCHEM_COORDINATE_TYPE>
1
5
255

> <PUBCHEM_BONDANNOTATIONS>
4  5  8
4  6  8
5  8  8
6  9  8
8  10  8
9  10  8

$$$$

