47205514
  -OEChem-06241222593D

 38 40  0     1  0  0  0  0  0999 V2000
   -3.5633   -1.4912    0.2355 O   0  0  0  0  0  0  0  0  0  0  0  0
   -0.4585    1.3654   -2.3429 O   0  0  0  0  0  0  0  0  0  0  0  0
   -1.8052    0.5340   -0.6238 N   0  0  0  0  0  0  0  0  0  0  0  0
    1.3393    3.1429    1.1523 N   0  0  0  0  0  0  0  0  0  0  0  0
   -2.1186    0.3784    0.8026 C   0  0  0  0  0  0  0  0  0  0  0  0
   -2.5012   -1.0734    1.1036 C   0  0  1  0  0  0  0  0  0  0  0  0
   -2.8190   -0.0085   -1.5258 C   0  0  0  0  0  0  0  0  0  0  0  0
   -3.1626   -1.4380   -1.1361 C   0  0  0  0  0  0  0  0  0  0  0  0
   -0.6894    1.1887   -1.1477 C   0  0  0  0  0  0  0  0  0  0  0  0
   -2.9836   -1.2272    2.5386 C   0  0  0  0  0  0  0  0  0  0  0  0
    0.3027    1.7252   -0.2069 C   0  0  0  0  0  0  0  0  0  0  0  0
    1.4483    1.0844    0.3263 C   0  0  0  0  0  0  0  0  0  0  0  0
    0.2599    2.9969    0.3207 C   0  0  0  0  0  0  0  0  0  0  0  0
    1.9547   -0.2396    0.1053 C   0  0  0  0  0  0  0  0  0  0  0  0
    2.0706    1.9839    1.1636 C   0  0  0  0  0  0  0  0  0  0  0  0
    2.0892   -1.1229    1.1764 C   0  0  0  0  0  0  0  0  0  0  0  0
    2.3123   -0.6435   -1.1810 C   0  0  0  0  0  0  0  0  0  0  0  0
    2.5814   -2.4102    0.9610 C   0  0  0  0  0  0  0  0  0  0  0  0
    2.8042   -1.9309   -1.3963 C   0  0  0  0  0  0  0  0  0  0  0  0
    2.9388   -2.8143   -0.3253 C   0  0  0  0  0  0  0  0  0  0  0  0
   -1.2887    0.6914    1.4395 H   0  0  0  0  0  0  0  0  0  0  0  0
   -2.9648    1.0477    1.0007 H   0  0  0  0  0  0  0  0  0  0  0  0
   -1.6393   -1.7345    0.9450 H   0  0  0  0  0  0  0  0  0  0  0  0
   -3.7015    0.6340   -1.4241 H   0  0  0  0  0  0  0  0  0  0  0  0
   -2.4849    0.0349   -2.5668 H   0  0  0  0  0  0  0  0  0  0  0  0
   -3.9955   -1.8042   -1.7442 H   0  0  0  0  0  0  0  0  0  0  0  0
   -2.3114   -2.1117   -1.2912 H   0  0  0  0  0  0  0  0  0  0  0  0
   -3.2650   -2.2671    2.7366 H   0  0  0  0  0  0  0  0  0  0  0  0
   -2.2079   -0.9336    3.2524 H   0  0  0  0  0  0  0  0  0  0  0  0
   -3.8773   -0.6201    2.7202 H   0  0  0  0  0  0  0  0  0  0  0  0
   -0.4389    3.8101    0.1813 H   0  0  0  0  0  0  0  0  0  0  0  0
    2.9659    1.9120    1.7665 H   0  0  0  0  0  0  0  0  0  0  0  0
    1.5621    3.9776    1.6769 H   0  0  0  0  0  0  0  0  0  0  0  0
    1.8104   -0.8301    2.1861 H   0  0  0  0  0  0  0  0  0  0  0  0
    2.2200    0.0317   -2.0283 H   0  0  0  0  0  0  0  0  0  0  0  0
    2.6847   -3.0987    1.7946 H   0  0  0  0  0  0  0  0  0  0  0  0
    3.0835   -2.2452   -2.3977 H   0  0  0  0  0  0  0  0  0  0  0  0
    3.3216   -3.8167   -0.4929 H   0  0  0  0  0  0  0  0  0  0  0  0
  1  6  1  0  0  0  0
  1  8  1  0  0  0  0
  2  9  2  0  0  0  0
  3  5  1  0  0  0  0
  3  7  1  0  0  0  0
  3  9  1  0  0  0  0
  4 13  1  0  0  0  0
  4 15  1  0  0  0  0
  4 33  1  0  0  0  0
  5  6  1  0  0  0  0
  5 21  1  0  0  0  0
  5 22  1  0  0  0  0
  6 10  1  0  0  0  0
  6 23  1  0  0  0  0
  7  8  1  0  0  0  0
  7 24  1  0  0  0  0
  7 25  1  0  0  0  0
  8 26  1  0  0  0  0
  8 27  1  0  0  0  0
  9 11  1  0  0  0  0
 10 28  1  0  0  0  0
 10 29  1  0  0  0  0
 10 30  1  0  0  0  0
 11 12  1  0  0  0  0
 11 13  2  0  0  0  0
 12 14  1  0  0  0  0
 12 15  2  0  0  0  0
 13 31  1  0  0  0  0
 14 16  2  0  0  0  0
 14 17  1  0  0  0  0
 15 32  1  0  0  0  0
 16 18  1  0  0  0  0
 16 34  1  0  0  0  0
 17 19  2  0  0  0  0
 17 35  1  0  0  0  0
 18 20  2  0  0  0  0
 18 36  1  0  0  0  0
 19 20  1  0  0  0  0
 19 37  1  0  0  0  0
 20 38  1  0  0  0  0
M  END
> <PUBCHEM_COMPOUND_CID>
47205514

> <PUBCHEM_CONFORMER_RMSD>
0.6

> <PUBCHEM_CONFORMER_DIVERSEORDER>
1
53
67
44
59
64
63
38
14
6
11
40
56
41
45
26
62
72
5
69
15
28
35
42
68
7
39
70
10
49
8
32
33
60
18
57
25
51
19
65
20
34
23
37
31
43
36
71
55
4
27
17
48
54
12
50
3
58
47
9
2
22
66
46
24
61
30
21
29
13
16
52

> <PUBCHEM_MMFF94_PARTIAL_CHARGES>
27
1 -0.56
11 -0.09
12 -0.05
13 -0.3
14 0.05
15 -0.3
16 -0.15
17 -0.15
18 -0.15
19 -0.15
2 -0.57
20 -0.15
3 -0.66
31 0.15
32 0.15
33 0.27
34 0.15
35 0.15
36 0.15
37 0.15
38 0.15
4 0.03
5 0.3
6 0.28
7 0.3
8 0.28
9 0.72

> <PUBCHEM_EFFECTIVE_ROTOR_COUNT>
4.2

> <PUBCHEM_PHARMACOPHORE_FEATURES>
7
1 1 acceptor
1 2 acceptor
1 4 cation
1 4 donor
5 4 11 12 13 15 rings
6 1 3 5 6 7 8 rings
6 14 16 17 18 19 20 rings

> <PUBCHEM_HEAVY_ATOM_COUNT>
20

> <PUBCHEM_ATOM_DEF_STEREO_COUNT>
0

> <PUBCHEM_ATOM_UDEF_STEREO_COUNT>
1

> <PUBCHEM_BOND_DEF_STEREO_COUNT>
0

> <PUBCHEM_BOND_UDEF_STEREO_COUNT>
0

> <PUBCHEM_ISOTOPIC_ATOM_COUNT>
0

> <PUBCHEM_COMPONENT_COUNT>
1

> <PUBCHEM_CACTVS_TAUTO_COUNT>
3

> <PUBCHEM_CONFORMER_ID>
02D04C8A00000001

> <PUBCHEM_MMFF94_ENERGY>
47.5508

> <PUBCHEM_FEATURE_SELFOVERLAP>
35.52

> <PUBCHEM_SHAPE_FINGERPRINT>
10064457 181 17545011837334014433
107951 10 16462457397815523630
11578080 2 18201161047955407564
11582403 64 15606334368291709173
12156800 1 15172672946190484331
12202030 40 18202008736949134517
12363563 72 18264784318297723462
12506688 2 18413386566165970490
12553582 1 18262231252334898862
12596599 1 17821727264511045479
12714826 92 18057033825259049895
12788726 201 17831859427617210632
13032168 30 16743691001685407271
13583140 156 17973417951122460155
13965767 371 16807539891155912425
14115302 16 17840027678009323996
14787075 74 18341898481229936346
14817 1 16411867415890566332
14844126 61 17687202184614969122
14863182 85 17693084176622775695
15635459 17 18271251504127101651
16752209 62 17621608636394708413
16945 1 18264770947964161128
17492 54 15836723766969518494
20600515 1 16700646439897360277
20645476 183 17185861239489379732
20645477 70 18191607280031216375
20832881 197 18124612026733223389
21731516 1 18335416932428312630
23419403 2 15112338212131260154
23728640 28 17183069583313199770
3797600 57 16664591117223315567
576247 118 18189600808596562254
7097593 13 18041265600488508905
81228 2 17467086562525511088

> <PUBCHEM_SHAPE_MULTIPOLES>
389.89
5.58
3.4
1.96
2.09
1.49
-0.06
-4.98
-0.25
-2.12
-0.75
1.07
-0.32
1.07

> <PUBCHEM_SHAPE_SELFOVERLAP>
840.774

> <PUBCHEM_SHAPE_VOLUME>
214.9

> <PUBCHEM_COORDINATE_TYPE>
2
5
10

$$$$

