11032
  -OEChem-06261205152D

 44 44  0     0  0  0  0  0  0999 V2000
    3.7320    0.5600    0.0000 S   0  0  0  0  0  0  0  0  0  0  0  0
    4.7320    0.5600    0.0000 O   0  0  0  0  0  0  0  0  0  0  0  0
    2.7320    0.5600    0.0000 O   0  0  0  0  0  0  0  0  0  0  0  0
    2.8660   -3.9400    0.0000 O   0  0  0  0  0  0  0  0  0  0  0  0
    4.5981   -3.9400    0.0000 O   0  0  0  0  0  0  0  0  0  0  0  0
    3.7320    1.5600    0.0000 N   0  0  0  0  0  0  0  0  0  0  0  0
    4.5981    2.0600    0.0000 C   0  0  0  0  0  0  0  0  0  0  0  0
    2.8660    2.0600    0.0000 C   0  0  0  0  0  0  0  0  0  0  0  0
    4.5981    3.0600    0.0000 C   0  0  0  0  0  0  0  0  0  0  0  0
    2.8660    3.0600    0.0000 C   0  0  0  0  0  0  0  0  0  0  0  0
    5.4641    3.5600    0.0000 C   0  0  0  0  0  0  0  0  0  0  0  0
    2.0000    3.5600    0.0000 C   0  0  0  0  0  0  0  0  0  0  0  0
    3.7320   -0.4400    0.0000 C   0  0  0  0  0  0  0  0  0  0  0  0
    2.0000    4.5600    0.0000 C   0  0  0  0  0  0  0  0  0  0  0  0
    5.4641    4.5600    0.0000 C   0  0  0  0  0  0  0  0  0  0  0  0
    2.8660   -0.9400    0.0000 C   0  0  0  0  0  0  0  0  0  0  0  0
    4.5981   -0.9400    0.0000 C   0  0  0  0  0  0  0  0  0  0  0  0
    2.8660   -1.9400    0.0000 C   0  0  0  0  0  0  0  0  0  0  0  0
    4.5981   -1.9400    0.0000 C   0  0  0  0  0  0  0  0  0  0  0  0
    3.7320   -2.4400    0.0000 C   0  0  0  0  0  0  0  0  0  0  0  0
    3.7320   -3.4400    0.0000 C   0  0  0  0  0  0  0  0  0  0  0  0
    2.2554    2.1677    0.0000 H   0  0  0  0  0  0  0  0  0  0  0  0
    2.6540    1.4774    0.0000 H   0  0  0  0  0  0  0  0  0  0  0  0
    4.8101    1.4774    0.0000 H   0  0  0  0  0  0  0  0  0  0  0  0
    5.2087    2.1677    0.0000 H   0  0  0  0  0  0  0  0  0  0  0  0
    3.4766    2.9523    0.0000 H   0  0  0  0  0  0  0  0  0  0  0  0
    3.0781    3.6426    0.0000 H   0  0  0  0  0  0  0  0  0  0  0  0
    4.3860    3.6426    0.0000 H   0  0  0  0  0  0  0  0  0  0  0  0
    3.9875    2.9523    0.0000 H   0  0  0  0  0  0  0  0  0  0  0  0
    5.6762    2.9774    0.0000 H   0  0  0  0  0  0  0  0  0  0  0  0
    6.0747    3.6677    0.0000 H   0  0  0  0  0  0  0  0  0  0  0  0
    1.3894    3.6677    0.0000 H   0  0  0  0  0  0  0  0  0  0  0  0
    1.7880    2.9774    0.0000 H   0  0  0  0  0  0  0  0  0  0  0  0
    6.0841    4.5600    0.0000 H   0  0  0  0  0  0  0  0  0  0  0  0
    2.6200    4.5600    0.0000 H   0  0  0  0  0  0  0  0  0  0  0  0
    2.0000    5.1800    0.0000 H   0  0  0  0  0  0  0  0  0  0  0  0
    1.3800    4.5600    0.0000 H   0  0  0  0  0  0  0  0  0  0  0  0
    5.4641    5.1800    0.0000 H   0  0  0  0  0  0  0  0  0  0  0  0
    4.8441    4.5600    0.0000 H   0  0  0  0  0  0  0  0  0  0  0  0
    2.3291   -0.6300    0.0000 H   0  0  0  0  0  0  0  0  0  0  0  0
    5.1350   -0.6300    0.0000 H   0  0  0  0  0  0  0  0  0  0  0  0
    2.3291   -2.2500    0.0000 H   0  0  0  0  0  0  0  0  0  0  0  0
    5.1350   -2.2500    0.0000 H   0  0  0  0  0  0  0  0  0  0  0  0
    2.8660   -4.5600    0.0000 H   0  0  0  0  0  0  0  0  0  0  0  0
  1  2  2  0  0  0  0
  1  3  2  0  0  0  0
  1  6  1  0  0  0  0
  1 13  1  0  0  0  0
  4 21  1  0  0  0  0
  4 44  1  0  0  0  0
  5 21  2  0  0  0  0
  6  7  1  0  0  0  0
  6  8  1  0  0  0  0
  7  9  1  0  0  0  0
  7 24  1  0  0  0  0
  7 25  1  0  0  0  0
  8 10  1  0  0  0  0
  8 22  1  0  0  0  0
  8 23  1  0  0  0  0
  9 11  1  0  0  0  0
  9 28  1  0  0  0  0
  9 29  1  0  0  0  0
 10 12  1  0  0  0  0
 10 26  1  0  0  0  0
 10 27  1  0  0  0  0
 11 15  1  0  0  0  0
 11 30  1  0  0  0  0
 11 31  1  0  0  0  0
 12 14  1  0  0  0  0
 12 32  1  0  0  0  0
 12 33  1  0  0  0  0
 13 16  2  0  0  0  0
 13 17  1  0  0  0  0
 14 35  1  0  0  0  0
 14 36  1  0  0  0  0
 14 37  1  0  0  0  0
 15 34  1  0  0  0  0
 15 38  1  0  0  0  0
 15 39  1  0  0  0  0
 16 18  1  0  0  0  0
 16 40  1  0  0  0  0
 17 19  2  0  0  0  0
 17 41  1  0  0  0  0
 18 20  2  0  0  0  0
 18 42  1  0  0  0  0
 19 20  1  0  0  0  0
 19 43  1  0  0  0  0
 20 21  1  0  0  0  0
M  END
> <PUBCHEM_COMPOUND_CID>
11032

> <PUBCHEM_COMPOUND_CANONICALIZED>
1

> <PUBCHEM_CACTVS_COMPLEXITY>
400

> <PUBCHEM_CACTVS_HBOND_ACCEPTOR>
5

> <PUBCHEM_CACTVS_HBOND_DONOR>
1

> <PUBCHEM_CACTVS_ROTATABLE_BOND>
9

> <PUBCHEM_CACTVS_SUBSKEYS>
AAADceByOABAAAAAAAAAAAAAAAAAAAAAAAAwAAAAAAAAAAABAAAAHgQASAAADADB2AQyCYIAAgKIAiDSCHBCABAkAAAIiBkICMgIJjKAlRCEcQAkwAGImYeIyCCOEAAAAAAAAAAgAAAAAAAAAAAAAAAAAA==

> <PUBCHEM_IUPAC_OPENEYE_NAME>
4-(dibutylsulfamoyl)benzoic acid

> <PUBCHEM_IUPAC_CAS_NAME>
4-(dibutylsulfamoyl)benzoic acid

> <PUBCHEM_IUPAC_NAME>
4-(dibutylsulfamoyl)benzoic acid

> <PUBCHEM_IUPAC_SYSTEMATIC_NAME>
4-(dibutylsulfamoyl)benzoic acid

> <PUBCHEM_IUPAC_TRADITIONAL_NAME>
4-(dibutylsulfamoyl)benzoic acid

> <PUBCHEM_IUPAC_INCHI>
InChI=1S/C15H23NO4S/c1-3-5-11-16(12-6-4-2)21(19,20)14-9-7-13(8-10-14)15(17)18/h7-10H,3-6,11-12H2,1-2H3,(H,17,18)

> <PUBCHEM_IUPAC_INCHIKEY>
HLLSOEKIMZEGFV-UHFFFAOYSA-N

> <PUBCHEM_XLOGP3>
3.9

> <PUBCHEM_EXACT_MASS>
313.134779

> <PUBCHEM_MOLECULAR_FORMULA>
C15H23NO4S

> <PUBCHEM_MOLECULAR_WEIGHT>
313.41242

> <PUBCHEM_OPENEYE_CAN_SMILES>
CCCCN(CCCC)S(=O)(=O)C1=CC=C(C=C1)C(=O)O

> <PUBCHEM_OPENEYE_ISO_SMILES>
CCCCN(CCCC)S(=O)(=O)C1=CC=C(C=C1)C(=O)O

> <PUBCHEM_CACTVS_TPSA>
83.1

> <PUBCHEM_MONOISOTOPIC_WEIGHT>
313.134779

> <PUBCHEM_TOTAL_CHARGE>
0

> <PUBCHEM_HEAVY_ATOM_COUNT>
21

> <PUBCHEM_ATOM_DEF_STEREO_COUNT>
0

> <PUBCHEM_ATOM_UDEF_STEREO_COUNT>
0

> <PUBCHEM_BOND_DEF_STEREO_COUNT>
0

> <PUBCHEM_BOND_UDEF_STEREO_COUNT>
0

> <PUBCHEM_ISOTOPIC_ATOM_COUNT>
0

> <PUBCHEM_COMPONENT_COUNT>
1

> <PUBCHEM_CACTVS_TAUTO_COUNT>
1

> <PUBCHEM_COORDINATE_TYPE>
1
5
255

> <PUBCHEM_BONDANNOTATIONS>
13  16  8
13  17  8
16  18  8
17  19  8
18  20  8
19  20  8

$$$$

