47205681
  -OEChem-06241222592D

 40 41  0     0  0  0  0  0  0999 V2000
    2.0570   -4.0684    0.0000 S   0  0  0  0  0  0  0  0  0  0  0  0
    2.0000    1.0194    0.0000 O   0  0  0  0  0  0  0  0  0  0  0  0
    5.4641    2.0194    0.0000 O   0  0  0  0  0  0  0  0  0  0  0  0
    2.8660   -0.4806    0.0000 N   0  0  0  0  0  0  0  0  0  0  0  0
    2.8660   -2.4806    0.0000 N   0  0  0  0  0  0  0  0  0  0  0  0
    3.7320    2.0194    0.0000 N   0  0  0  0  0  0  0  0  0  0  0  0
    3.6750   -4.0684    0.0000 N   0  0  0  0  0  0  0  0  0  0  0  0
    3.7320   -0.9806    0.0000 C   0  0  0  0  0  0  0  0  0  0  0  0
    2.0000   -0.9806    0.0000 C   0  0  0  0  0  0  0  0  0  0  0  0
    3.7320   -1.9806    0.0000 C   0  0  0  0  0  0  0  0  0  0  0  0
    2.0000   -1.9806    0.0000 C   0  0  0  0  0  0  0  0  0  0  0  0
    2.8660    0.5194    0.0000 C   0  0  0  0  0  0  0  0  0  0  0  0
    2.8660   -3.4806    0.0000 C   0  0  0  0  0  0  0  0  0  0  0  0
    3.7320    1.0194    0.0000 C   0  0  0  0  0  0  0  0  0  0  0  0
    4.5981    2.5194    0.0000 C   0  0  0  0  0  0  0  0  0  0  0  0
    4.5981    3.5194    0.0000 C   0  0  0  0  0  0  0  0  0  0  0  0
    5.4641    4.0194    0.0000 C   0  0  0  0  0  0  0  0  0  0  0  0
    2.3660   -5.0194    0.0000 C   0  0  0  0  0  0  0  0  0  0  0  0
    3.3660   -5.0194    0.0000 C   0  0  0  0  0  0  0  0  0  0  0  0
    5.4641    5.0194    0.0000 C   0  0  0  0  0  0  0  0  0  0  0  0
    1.7880   -0.3980    0.0000 H   0  0  0  0  0  0  0  0  0  0  0  0
    1.3894   -1.0882    0.0000 H   0  0  0  0  0  0  0  0  0  0  0  0
    4.3426   -1.0882    0.0000 H   0  0  0  0  0  0  0  0  0  0  0  0
    3.9441   -0.3980    0.0000 H   0  0  0  0  0  0  0  0  0  0  0  0
    3.9441   -2.5632    0.0000 H   0  0  0  0  0  0  0  0  0  0  0  0
    4.3426   -1.8729    0.0000 H   0  0  0  0  0  0  0  0  0  0  0  0
    1.3894   -1.8729    0.0000 H   0  0  0  0  0  0  0  0  0  0  0  0
    1.7880   -2.5632    0.0000 H   0  0  0  0  0  0  0  0  0  0  0  0
    3.9441    0.4368    0.0000 H   0  0  0  0  0  0  0  0  0  0  0  0
    4.3426    1.1271    0.0000 H   0  0  0  0  0  0  0  0  0  0  0  0
    3.1951    2.3294    0.0000 H   0  0  0  0  0  0  0  0  0  0  0  0
    4.3860    4.1020    0.0000 H   0  0  0  0  0  0  0  0  0  0  0  0
    3.9875    3.4118    0.0000 H   0  0  0  0  0  0  0  0  0  0  0  0
    5.6762    3.4368    0.0000 H   0  0  0  0  0  0  0  0  0  0  0  0
    6.0747    4.1271    0.0000 H   0  0  0  0  0  0  0  0  0  0  0  0
    2.0016   -5.5210    0.0000 H   0  0  0  0  0  0  0  0  0  0  0  0
    3.7304   -5.5210    0.0000 H   0  0  0  0  0  0  0  0  0  0  0  0
    6.0841    5.0194    0.0000 H   0  0  0  0  0  0  0  0  0  0  0  0
    5.4641    5.6394    0.0000 H   0  0  0  0  0  0  0  0  0  0  0  0
    4.8441    5.0194    0.0000 H   0  0  0  0  0  0  0  0  0  0  0  0
  1 13  1  0  0  0  0
  1 18  1  0  0  0  0
  2 12  2  0  0  0  0
  3 15  2  0  0  0  0
  4  8  1  0  0  0  0
  4  9  1  0  0  0  0
  4 12  1  0  0  0  0
  5 10  1  0  0  0  0
  5 11  1  0  0  0  0
  5 13  1  0  0  0  0
  6 14  1  0  0  0  0
  6 15  1  0  0  0  0
  6 31  1  0  0  0  0
  7 13  2  0  0  0  0
  7 19  1  0  0  0  0
  8 10  1  0  0  0  0
  8 23  1  0  0  0  0
  8 24  1  0  0  0  0
  9 11  1  0  0  0  0
  9 21  1  0  0  0  0
  9 22  1  0  0  0  0
 10 25  1  0  0  0  0
 10 26  1  0  0  0  0
 11 27  1  0  0  0  0
 11 28  1  0  0  0  0
 12 14  1  0  0  0  0
 14 29  1  0  0  0  0
 14 30  1  0  0  0  0
 15 16  1  0  0  0  0
 16 17  1  0  0  0  0
 16 32  1  0  0  0  0
 16 33  1  0  0  0  0
 17 20  1  0  0  0  0
 17 34  1  0  0  0  0
 17 35  1  0  0  0  0
 18 19  2  0  0  0  0
 18 36  1  0  0  0  0
 19 37  1  0  0  0  0
 20 38  1  0  0  0  0
 20 39  1  0  0  0  0
 20 40  1  0  0  0  0
M  END
> <PUBCHEM_COMPOUND_CID>
47205681

> <PUBCHEM_COMPOUND_CANONICALIZED>
1

> <PUBCHEM_CACTVS_COMPLEXITY>
345

> <PUBCHEM_CACTVS_HBOND_ACCEPTOR>
5

> <PUBCHEM_CACTVS_HBOND_DONOR>
1

> <PUBCHEM_CACTVS_ROTATABLE_BOND>
5

> <PUBCHEM_CACTVS_SUBSKEYS>
AAADceBzsABAAAAAAAAAAAAAAAAAAWAAAAAsAAAAAAAAAAABgAAAHgQQAAAACADFwgSvkRPIEAisABE3dAAA8KlRCjhJQI2YIACAQBAAiCAUAAAIFgKAACAAAAAAAAAAAAAAAAAAAAAAAAAAAAAAAAAAAA==

> <PUBCHEM_IUPAC_OPENEYE_NAME>
N-[2-oxo-2-(4-thiazol-2-ylpiperazin-1-yl)ethyl]butanamide

> <PUBCHEM_IUPAC_CAS_NAME>
N-[2-oxo-2-[4-(2-thiazolyl)-1-piperazinyl]ethyl]butanamide

> <PUBCHEM_IUPAC_NAME>
N-[2-oxo-2-[4-(1,3-thiazol-2-yl)piperazin-1-yl]ethyl]butanamide

> <PUBCHEM_IUPAC_SYSTEMATIC_NAME>
N-[2-oxidanylidene-2-[4-(1,3-thiazol-2-yl)piperazin-1-yl]ethyl]butanamide

> <PUBCHEM_IUPAC_TRADITIONAL_NAME>
N-[2-keto-2-(4-thiazol-2-ylpiperazino)ethyl]butyramide

> <PUBCHEM_IUPAC_INCHI>
InChI=1S/C13H20N4O2S/c1-2-3-11(18)15-10-12(19)16-5-7-17(8-6-16)13-14-4-9-20-13/h4,9H,2-3,5-8,10H2,1H3,(H,15,18)

> <PUBCHEM_IUPAC_INCHIKEY>
UXFCTVIPLTUJJE-UHFFFAOYSA-N

> <PUBCHEM_XLOGP3_AA>
0.9

> <PUBCHEM_EXACT_MASS>
296.130697

> <PUBCHEM_MOLECULAR_FORMULA>
C13H20N4O2S

> <PUBCHEM_MOLECULAR_WEIGHT>
296.3885

> <PUBCHEM_OPENEYE_CAN_SMILES>
CCCC(=O)NCC(=O)N1CCN(CC1)C2=NC=CS2

> <PUBCHEM_OPENEYE_ISO_SMILES>
CCCC(=O)NCC(=O)N1CCN(CC1)C2=NC=CS2

> <PUBCHEM_CACTVS_TPSA>
93.8

> <PUBCHEM_MONOISOTOPIC_WEIGHT>
296.130697

> <PUBCHEM_TOTAL_CHARGE>
0

> <PUBCHEM_HEAVY_ATOM_COUNT>
20

> <PUBCHEM_ATOM_DEF_STEREO_COUNT>
0

> <PUBCHEM_ATOM_UDEF_STEREO_COUNT>
0

> <PUBCHEM_BOND_DEF_STEREO_COUNT>
0

> <PUBCHEM_BOND_UDEF_STEREO_COUNT>
0

> <PUBCHEM_ISOTOPIC_ATOM_COUNT>
0

> <PUBCHEM_COMPONENT_COUNT>
1

> <PUBCHEM_CACTVS_TAUTO_COUNT>
2

> <PUBCHEM_COORDINATE_TYPE>
1
5
255

> <PUBCHEM_BONDANNOTATIONS>
1  13  8
1  18  8
18  19  8
7  13  8
7  19  8

$$$$

