13208
  -OEChem-06261207533D

 18 18  0     0  0  0  0  0  0999 V2000
    0.4782   -1.3003    0.0001 N   0  0  0  0  0  0  0  0  0  0  0  0
    0.8869    1.0643    0.0001 N   0  0  0  0  0  0  0  0  0  0  0  0
   -1.3651    0.2359    0.0002 N   0  0  0  0  0  0  0  0  0  0  0  0
    1.2768   -0.2206    0.0001 C   0  0  0  0  0  0  0  0  0  0  0  0
   -0.8295   -0.9954    0.0001 C   0  0  0  0  0  0  0  0  0  0  0  0
   -0.4473    1.2160    0.0001 C   0  0  0  0  0  0  0  0  0  0  0  0
    2.7459   -0.4745   -0.0002 C   0  0  0  0  0  0  0  0  0  0  0  0
   -1.7839   -2.1406   -0.0003 C   0  0  0  0  0  0  0  0  0  0  0  0
   -0.9620    2.6152   -0.0002 C   0  0  0  0  0  0  0  0  0  0  0  0
    3.2833    0.3454    0.4865 H   0  0  0  0  0  0  0  0  0  0  0  0
    2.9799   -1.3990    0.5369 H   0  0  0  0  0  0  0  0  0  0  0  0
    3.1046   -0.5663   -1.0296 H   0  0  0  0  0  0  0  0  0  0  0  0
   -2.7074   -1.8769    0.5248 H   0  0  0  0  0  0  0  0  0  0  0  0
   -2.0318   -2.4144   -1.0300 H   0  0  0  0  0  0  0  0  0  0  0  0
   -1.3473   -3.0115    0.4988 H   0  0  0  0  0  0  0  0  0  0  0  0
   -0.2596    3.2883   -0.5018 H   0  0  0  0  0  0  0  0  0  0  0  0
   -1.9216    2.6760   -0.5230 H   0  0  0  0  0  0  0  0  0  0  0  0
   -1.1011    2.9577    1.0294 H   0  0  0  0  0  0  0  0  0  0  0  0
  1  4  2  0  0  0  0
  1  5  1  0  0  0  0
  2  4  1  0  0  0  0
  2  6  2  0  0  0  0
  3  5  2  0  0  0  0
  3  6  1  0  0  0  0
  4  7  1  0  0  0  0
  5  8  1  0  0  0  0
  6  9  1  0  0  0  0
  7 10  1  0  0  0  0
  7 11  1  0  0  0  0
  7 12  1  0  0  0  0
  8 13  1  0  0  0  0
  8 14  1  0  0  0  0
  8 15  1  0  0  0  0
  9 16  1  0  0  0  0
  9 17  1  0  0  0  0
  9 18  1  0  0  0  0
M  END
> <PUBCHEM_COMPOUND_CID>
13208

> <PUBCHEM_CONFORMER_RMSD>
0.4

> <PUBCHEM_CONFORMER_DIVERSEORDER>
1

> <PUBCHEM_MMFF94_PARTIAL_CHARGES>
9
1 -0.62
2 -0.62
3 -0.62
4 0.48
5 0.48
6 0.48
7 0.14
8 0.14
9 0.14

> <PUBCHEM_EFFECTIVE_ROTOR_COUNT>
0

> <PUBCHEM_PHARMACOPHORE_FEATURES>
4
3 1 2 4 cation
3 1 3 5 cation
3 2 3 6 cation
6 1 2 3 4 5 6 rings

> <PUBCHEM_HEAVY_ATOM_COUNT>
9

> <PUBCHEM_ATOM_DEF_STEREO_COUNT>
0

> <PUBCHEM_ATOM_UDEF_STEREO_COUNT>
0

> <PUBCHEM_BOND_DEF_STEREO_COUNT>
0

> <PUBCHEM_BOND_UDEF_STEREO_COUNT>
0

> <PUBCHEM_ISOTOPIC_ATOM_COUNT>
0

> <PUBCHEM_COMPONENT_COUNT>
1

> <PUBCHEM_CACTVS_TAUTO_COUNT>
1

> <PUBCHEM_CONFORMER_ID>
0000339800000001

> <PUBCHEM_MMFF94_ENERGY>
16.9897

> <PUBCHEM_FEATURE_SELFOVERLAP>
23.07

> <PUBCHEM_SHAPE_FINGERPRINT>
16945 1 18410855507515252838
18185500 45 18122058706670930966
21040471 1 18050287269334997920
23552423 10 18273211967940548254
23552449 1 18410015416254621294
241688 4 18338797805960692131
2748010 2 18265338300242898892
29004967 10 17908424649655916555

> <PUBCHEM_SHAPE_MULTIPOLES>
170.27
2.56
2.56
0.59
1.59
1.18
0
-1.18
0
-1.59
0
0
0
0

> <PUBCHEM_SHAPE_SELFOVERLAP>
343.764

> <PUBCHEM_SHAPE_VOLUME>
97.9

> <PUBCHEM_COORDINATE_TYPE>
2
5
10

$$$$

