51090984
  -OEChem-06241223013D

 51 52  0     0  0  0  0  0  0999 V2000
    4.3390   -0.0054    1.6629 O   0  0  0  0  0  0  0  0  0  0  0  0
   -4.8434    2.3825   -0.2246 O   0  0  0  0  0  0  0  0  0  0  0  0
   -0.6924   -1.5020   -0.2093 N   0  0  0  0  0  0  0  0  0  0  0  0
    2.9183   -0.8429    0.0430 N   0  0  0  0  0  0  0  0  0  0  0  0
    2.0019   -1.4753    0.9652 C   0  0  0  0  0  0  0  0  0  0  0  0
    1.3812   -2.7326    0.3517 C   0  0  0  0  0  0  0  0  0  0  0  0
    0.9013   -0.5056    1.4020 C   0  0  0  0  0  0  0  0  0  0  0  0
    0.3492   -2.3976   -0.7298 C   0  0  0  0  0  0  0  0  0  0  0  0
   -0.1150   -0.2452    0.2856 C   0  0  0  0  0  0  0  0  0  0  0  0
   -1.6977   -1.2337   -1.2375 C   0  0  0  0  0  0  0  0  0  0  0  0
   -2.9915   -0.7449   -0.6425 C   0  0  0  0  0  0  0  0  0  0  0  0
    4.0319   -0.1474    0.4809 C   0  0  0  0  0  0  0  0  0  0  0  0
   -3.3228    0.6085   -0.7105 C   0  0  0  0  0  0  0  0  0  0  0  0
   -3.8584   -1.6449   -0.0227 C   0  0  0  0  0  0  0  0  0  0  0  0
    4.8578    0.4451   -0.6274 C   0  0  0  0  0  0  0  0  0  0  0  0
   -4.5212    1.0618   -0.1588 C   0  0  0  0  0  0  0  0  0  0  0  0
   -5.0566   -1.1916    0.5292 C   0  0  0  0  0  0  0  0  0  0  0  0
    4.5239    1.6936   -1.0059 C   0  0  0  0  0  0  0  0  0  0  0  0
   -5.3882    0.1617    0.4610 C   0  0  0  0  0  0  0  0  0  0  0  0
    5.9298   -0.3886   -1.2648 C   0  0  0  0  0  0  0  0  0  0  0  0
    3.4210    2.5418   -0.4366 C   0  0  0  0  0  0  0  0  0  0  0  0
    3.9151    3.3847    0.7281 C   0  0  0  0  0  0  0  0  0  0  0  0
   -6.0832    2.7780    0.3607 C   0  0  0  0  0  0  0  0  0  0  0  0
    2.5760   -1.7714    1.8518 H   0  0  0  0  0  0  0  0  0  0  0  0
    0.3753   -0.9299    2.2676 H   0  0  0  0  0  0  0  0  0  0  0  0
    1.3329    0.4471    1.7315 H   0  0  0  0  0  0  0  0  0  0  0  0
    2.1612   -3.3747   -0.0750 H   0  0  0  0  0  0  0  0  0  0  0  0
    0.8897   -3.3123    1.1441 H   0  0  0  0  0  0  0  0  0  0  0  0
    0.8439   -1.9572   -1.6048 H   0  0  0  0  0  0  0  0  0  0  0  0
   -0.1045   -3.3407   -1.0590 H   0  0  0  0  0  0  0  0  0  0  0  0
   -0.8922    0.4000    0.7094 H   0  0  0  0  0  0  0  0  0  0  0  0
    0.3636    0.3160   -0.5277 H   0  0  0  0  0  0  0  0  0  0  0  0
   -1.3247   -0.5349   -1.9988 H   0  0  0  0  0  0  0  0  0  0  0  0
   -1.9369   -2.1551   -1.7873 H   0  0  0  0  0  0  0  0  0  0  0  0
    2.7123   -0.8725   -0.9514 H   0  0  0  0  0  0  0  0  0  0  0  0
   -2.6521    1.3161   -1.1917 H   0  0  0  0  0  0  0  0  0  0  0  0
   -3.6114   -2.7016    0.0370 H   0  0  0  0  0  0  0  0  0  0  0  0
   -5.7308   -1.8932    1.0119 H   0  0  0  0  0  0  0  0  0  0  0  0
    5.0957    2.1550   -1.8092 H   0  0  0  0  0  0  0  0  0  0  0  0
   -6.3339    0.4456    0.9098 H   0  0  0  0  0  0  0  0  0  0  0  0
    5.5034   -1.3118   -1.6699 H   0  0  0  0  0  0  0  0  0  0  0  0
    6.4248    0.1428   -2.0839 H   0  0  0  0  0  0  0  0  0  0  0  0
    6.6910   -0.6534   -0.5242 H   0  0  0  0  0  0  0  0  0  0  0  0
    2.5640    1.9392   -0.1202 H   0  0  0  0  0  0  0  0  0  0  0  0
    3.0456    3.1994   -1.2297 H   0  0  0  0  0  0  0  0  0  0  0  0
    3.1065    4.0223    1.1000 H   0  0  0  0  0  0  0  0  0  0  0  0
    4.7423    4.0348    0.4232 H   0  0  0  0  0  0  0  0  0  0  0  0
    4.2605    2.7627    1.5597 H   0  0  0  0  0  0  0  0  0  0  0  0
   -6.9346    2.3126   -0.1474 H   0  0  0  0  0  0  0  0  0  0  0  0
   -6.0943    2.5964    1.4408 H   0  0  0  0  0  0  0  0  0  0  0  0
   -6.1778    3.8594    0.2174 H   0  0  0  0  0  0  0  0  0  0  0  0
  1 12  2  0  0  0  0
  2 16  1  0  0  0  0
  2 23  1  0  0  0  0
  3  8  1  0  0  0  0
  3  9  1  0  0  0  0
  3 10  1  0  0  0  0
  4  5  1  0  0  0  0
  4 12  1  0  0  0  0
  4 35  1  0  0  0  0
  5  6  1  0  0  0  0
  5  7  1  0  0  0  0
  5 24  1  0  0  0  0
  6  8  1  0  0  0  0
  6 27  1  0  0  0  0
  6 28  1  0  0  0  0
  7  9  1  0  0  0  0
  7 25  1  0  0  0  0
  7 26  1  0  0  0  0
  8 29  1  0  0  0  0
  8 30  1  0  0  0  0
  9 31  1  0  0  0  0
  9 32  1  0  0  0  0
 10 11  1  0  0  0  0
 10 33  1  0  0  0  0
 10 34  1  0  0  0  0
 11 13  2  0  0  0  0
 11 14  1  0  0  0  0
 12 15  1  0  0  0  0
 13 16  1  0  0  0  0
 13 36  1  0  0  0  0
 14 17  2  0  0  0  0
 14 37  1  0  0  0  0
 15 18  2  0  0  0  0
 15 20  1  0  0  0  0
 16 19  2  0  0  0  0
 17 19  1  0  0  0  0
 17 38  1  0  0  0  0
 18 21  1  0  0  0  0
 18 39  1  0  0  0  0
 19 40  1  0  0  0  0
 20 41  1  0  0  0  0
 20 42  1  0  0  0  0
 20 43  1  0  0  0  0
 21 22  1  0  0  0  0
 21 44  1  0  0  0  0
 21 45  1  0  0  0  0
 22 46  1  0  0  0  0
 22 47  1  0  0  0  0
 22 48  1  0  0  0  0
 23 49  1  0  0  0  0
 23 50  1  0  0  0  0
 23 51  1  0  0  0  0
M  END
> <PUBCHEM_COMPOUND_CID>
51090984

> <PUBCHEM_CONFORMER_RMSD>
1

> <PUBCHEM_CONFORMER_DIVERSEORDER>
1
58
147
103
60
155
50
135
163
158
75
127
130
136
90
45
55
54
91
35
137
110
120
133
77
101
56
150
46
167
157
111
99
164
172
105
113
124
3
29
126
8
68
102
148
107
94
168
63
84
146
81
106
152
129
131
65
138
69
95
5
97
73
86
149
32
78
104
166
28
171
108
10
109
160
154
82
34
88
19
53
151
162
6
93
4
140
142
64
21
48
92
26
67
159
122
143
40
76
42
89
121
71
41
72
156
39
70
123
43
57
9
80
47
132
116
22
100
61
145
141
37
115
79
87
16
74
31
30
38
139
85
23
83
66
96
14
49
27
144
18
169
2
128
33
125
117
161
51
36
119
20
114
44
118
153
11
62
112
25
59
52
170
13
134
17
15
98
12
173
7
24
165

> <PUBCHEM_MMFF94_PARTIAL_CHARGES>
26
1 -0.57
10 0.41
11 -0.14
12 0.62
13 -0.15
14 -0.15
15 -0.12
16 0.08
17 -0.15
18 -0.29
19 -0.15
2 -0.36
20 0.14
21 0.14
23 0.28
3 -0.81
35 0.37
36 0.15
37 0.15
38 0.15
39 0.15
4 -0.73
40 0.15
5 0.3
8 0.27
9 0.27

> <PUBCHEM_EFFECTIVE_ROTOR_COUNT>
8.2

> <PUBCHEM_PHARMACOPHORE_FEATURES>
8
1 1 acceptor
1 2 acceptor
1 20 hydrophobe
1 22 hydrophobe
1 3 cation
1 4 donor
6 11 13 14 16 17 19 rings
6 3 5 6 7 8 9 rings

> <PUBCHEM_HEAVY_ATOM_COUNT>
23

> <PUBCHEM_ATOM_DEF_STEREO_COUNT>
0

> <PUBCHEM_ATOM_UDEF_STEREO_COUNT>
0

> <PUBCHEM_BOND_DEF_STEREO_COUNT>
1

> <PUBCHEM_BOND_UDEF_STEREO_COUNT>
0

> <PUBCHEM_ISOTOPIC_ATOM_COUNT>
0

> <PUBCHEM_COMPONENT_COUNT>
1

> <PUBCHEM_CACTVS_TAUTO_COUNT>
2

> <PUBCHEM_CONFORMER_ID>
030B962800000001

> <PUBCHEM_MMFF94_ENERGY>
50.2026

> <PUBCHEM_FEATURE_SELFOVERLAP>
40.594

> <PUBCHEM_SHAPE_FINGERPRINT>
10670039 82 18335699485642495644
11720765 8 17749663095874589396
11796584 16 6988326014697490151
12390115 104 18261947540276085531
12403259 118 18339656580587809851
12422481 6 17703796954635561637
12925494 130 18411703210255394881
14251751 18 9079110047113247453
14251764 75 18057033615333874932
14341114 328 17847063293890883091
14429114 114 18265336105668650321
14528608 73 18412265003970362071
14790565 3 18410009897216488121
14848178 5 9439412319253916752
14849402 71 17917715657020129728
15142526 21 18130508539545819539
15183329 4 15502372348276299583
1601671 61 18410015463457044128
16760501 71 18340762728599720249
17349148 13 11743842490628535995
17844677 252 18410005507659652379
17959699 21 18337389344825134416
18222031 100 10231761123647741242
18335252 114 18337678623673013364
19752476 56 18264493884778888552
20567600 70 9727339225938305628
20567600 9 18335136544146945032
21728266 224 9655575210559086847
23559900 14 18193835079631760343
23572383 38 9655308024485383161
245318 6 17415264049429923884
2637199 183 18413389813456807730
508180 173 18336252480342149888
5104073 3 18060424611839868251
54446538 1 18411421678599207247
633830 44 18336554815594734718
76465 3 8862935078924770695
960060 61 5328464834529712922

> <PUBCHEM_SHAPE_MULTIPOLES>
451.63
15.01
3.27
1.18
5.23
2.02
-0.11
9.43
0.87
0
-0.17
-1.04
-0.12
-0.29

> <PUBCHEM_SHAPE_SELFOVERLAP>
921.055

> <PUBCHEM_SHAPE_VOLUME>
261.8

> <PUBCHEM_COORDINATE_TYPE>
2
5
10

$$$$

