17395552
  -OEChem-06241222512D

 31 31  0     1  0  0  0  0  0999 V2000
    5.5202   -0.5088    0.0000 S   0  0  0  0  0  0  0  0  0  0  0  0
    4.2601    0.7512    0.0000 S   0  0  0  0  0  0  0  0  0  0  0  0
    7.4223   -1.1269    0.0000 O   0  0  0  0  0  0  0  0  0  0  0  0
    7.9575    0.5204    0.0000 N   0  0  0  0  0  0  0  0  0  0  0  0
    3.7601   -0.7876    0.0000 N   0  0  0  0  0  0  0  0  0  0  0  0
    8.9086    0.2114    0.0000 C   0  0  3  0  0  0  0  0  0  0  0  0
    9.6517    0.8805    0.0000 C   0  0  0  0  0  0  0  0  0  0  0  0
    9.1165   -0.7668    0.0000 C   0  0  0  0  0  0  0  0  0  0  0  0
   10.6028    0.5715    0.0000 C   0  0  0  0  0  0  0  0  0  0  0  0
    7.2144   -0.1487    0.0000 C   0  0  0  0  0  0  0  0  0  0  0  0
    6.2633    0.1603    0.0000 C   0  0  0  0  0  0  0  0  0  0  0  0
    4.5691   -0.1998    0.0000 C   0  0  0  0  0  0  0  0  0  0  0  0
    2.9511   -0.1998    0.0000 C   0  0  0  0  0  0  0  0  0  0  0  0
    3.2601    0.7512    0.0000 C   0  0  0  0  0  0  0  0  0  0  0  0
    2.0000   -0.5088    0.0000 C   0  0  0  0  0  0  0  0  0  0  0  0
    8.4478   -0.2035    0.0000 H   0  0  0  0  0  0  0  0  0  0  0  0
    9.9428    1.4280    0.0000 H   0  0  0  0  0  0  0  0  0  0  0  0
    9.1631    1.2622    0.0000 H   0  0  0  0  0  0  0  0  0  0  0  0
    8.5100   -0.8957    0.0000 H   0  0  0  0  0  0  0  0  0  0  0  0
    9.2454   -1.3732    0.0000 H   0  0  0  0  0  0  0  0  0  0  0  0
    9.7229   -0.6378    0.0000 H   0  0  0  0  0  0  0  0  0  0  0  0
    7.8286    1.1269    0.0000 H   0  0  0  0  0  0  0  0  0  0  0  0
   10.4112   -0.0181    0.0000 H   0  0  0  0  0  0  0  0  0  0  0  0
   11.1924    0.3799    0.0000 H   0  0  0  0  0  0  0  0  0  0  0  0
   10.7943    1.1612    0.0000 H   0  0  0  0  0  0  0  0  0  0  0  0
    6.5544    0.7077    0.0000 H   0  0  0  0  0  0  0  0  0  0  0  0
    5.7747    0.5420    0.0000 H   0  0  0  0  0  0  0  0  0  0  0  0
    2.8956    1.2528    0.0000 H   0  0  0  0  0  0  0  0  0  0  0  0
    1.8084    0.0808    0.0000 H   0  0  0  0  0  0  0  0  0  0  0  0
    1.4103   -0.7004    0.0000 H   0  0  0  0  0  0  0  0  0  0  0  0
    2.1916   -1.0985    0.0000 H   0  0  0  0  0  0  0  0  0  0  0  0
  1 11  1  0  0  0  0
  1 12  1  0  0  0  0
  2 12  1  0  0  0  0
  2 14  1  0  0  0  0
  3 10  2  0  0  0  0
  4  6  1  0  0  0  0
  4 10  1  0  0  0  0
  4 22  1  0  0  0  0
  5 12  2  0  0  0  0
  5 13  1  0  0  0  0
  6  7  1  0  0  0  0
  6  8  1  0  0  0  0
  6 16  1  0  0  0  0
  7  9  1  0  0  0  0
  7 17  1  0  0  0  0
  7 18  1  0  0  0  0
  8 19  1  0  0  0  0
  8 20  1  0  0  0  0
  8 21  1  0  0  0  0
  9 23  1  0  0  0  0
  9 24  1  0  0  0  0
  9 25  1  0  0  0  0
 10 11  1  0  0  0  0
 11 26  1  0  0  0  0
 11 27  1  0  0  0  0
 13 14  2  0  0  0  0
 13 15  1  0  0  0  0
 14 28  1  0  0  0  0
 15 29  1  0  0  0  0
 15 30  1  0  0  0  0
 15 31  1  0  0  0  0
M  END
> <PUBCHEM_COMPOUND_CID>
17395552

> <PUBCHEM_COMPOUND_CANONICALIZED>
1

> <PUBCHEM_CACTVS_COMPLEXITY>
214

> <PUBCHEM_CACTVS_HBOND_ACCEPTOR>
4

> <PUBCHEM_CACTVS_HBOND_DONOR>
1

> <PUBCHEM_CACTVS_ROTATABLE_BOND>
5

> <PUBCHEM_CACTVS_SUBSKEYS>
AAADceBzIABgAAAAAAAAAAAAAAAAAWAAAAAAAAAAAAAAAAABgAAAHgQQAAAACCjF1gSigRLIEAisAQVyVAAA8aBBCjgAAJQYIAAAAAAgAQAEAAAAFgCAAAAAAAAAAAAAAAAAAAAAAAAAAAAAAAAAAAAAAA==

> <PUBCHEM_IUPAC_OPENEYE_NAME>
2-(4-methylthiazol-2-yl)sulfanyl-N-sec-butyl-acetamide

> <PUBCHEM_IUPAC_CAS_NAME>
N-butan-2-yl-2-[(4-methyl-2-thiazolyl)thio]acetamide

> <PUBCHEM_IUPAC_NAME>
N-butan-2-yl-2-[(4-methyl-1,3-thiazol-2-yl)sulfanyl]acetamide

> <PUBCHEM_IUPAC_SYSTEMATIC_NAME>
N-butan-2-yl-2-[(4-methyl-1,3-thiazol-2-yl)sulfanyl]ethanamide

> <PUBCHEM_IUPAC_TRADITIONAL_NAME>
2-[(4-methylthiazol-2-yl)thio]-N-sec-butyl-acetamide

> <PUBCHEM_IUPAC_INCHI>
InChI=1S/C10H16N2OS2/c1-4-7(2)11-9(13)6-15-10-12-8(3)5-14-10/h5,7H,4,6H2,1-3H3,(H,11,13)

> <PUBCHEM_IUPAC_INCHIKEY>
QTFWYBUEESSNIS-UHFFFAOYSA-N

> <PUBCHEM_XLOGP3_AA>
2.9

> <PUBCHEM_EXACT_MASS>
244.070405

> <PUBCHEM_MOLECULAR_FORMULA>
C10H16N2OS2

> <PUBCHEM_MOLECULAR_WEIGHT>
244.37684

> <PUBCHEM_OPENEYE_CAN_SMILES>
CCC(C)NC(=O)CSC1=NC(=CS1)C

> <PUBCHEM_OPENEYE_ISO_SMILES>
CCC(C)NC(=O)CSC1=NC(=CS1)C

> <PUBCHEM_CACTVS_TPSA>
95.5

> <PUBCHEM_MONOISOTOPIC_WEIGHT>
244.070405

> <PUBCHEM_TOTAL_CHARGE>
0

> <PUBCHEM_HEAVY_ATOM_COUNT>
15

> <PUBCHEM_ATOM_DEF_STEREO_COUNT>
0

> <PUBCHEM_ATOM_UDEF_STEREO_COUNT>
1

> <PUBCHEM_BOND_DEF_STEREO_COUNT>
0

> <PUBCHEM_BOND_UDEF_STEREO_COUNT>
0

> <PUBCHEM_ISOTOPIC_ATOM_COUNT>
0

> <PUBCHEM_COMPONENT_COUNT>
1

> <PUBCHEM_CACTVS_TAUTO_COUNT>
2

> <PUBCHEM_COORDINATE_TYPE>
1
5
255

> <PUBCHEM_BONDANNOTATIONS>
13  14  8
2  12  8
2  14  8
5  12  8
5  13  8
6  8  3

$$$$

