51090926
  -OEChem-06241223003D

 43 44  0     1  0  0  0  0  0999 V2000
   -5.8346   -2.2941   -0.7767 F   0  0  0  0  0  0  0  0  0  0  0  0
   -4.6918   -2.0121    1.0579 F   0  0  0  0  0  0  0  0  0  0  0  0
   -5.9625   -0.4027    0.2995 F   0  0  0  0  0  0  0  0  0  0  0  0
    1.8874    1.9681    1.3916 O   0  0  0  0  0  0  0  0  0  0  0  0
   -3.1832    0.0886   -0.1174 N   0  0  1  0  0  0  0  0  0  0  0  0
    0.9458    1.3807   -0.6459 N   0  0  0  0  0  0  0  0  0  0  0  0
   -1.3682    1.5014    0.1155 C   0  0  1  0  0  0  0  0  0  0  0  0
   -2.6296    2.3584    0.2458 C   0  0  0  0  0  0  0  0  0  0  0  0
   -1.8369    0.2754   -0.6597 C   0  0  0  0  0  0  0  0  0  0  0  0
   -3.7849    1.4238   -0.1075 C   0  0  0  0  0  0  0  0  0  0  0  0
   -0.2103    2.2243   -0.5521 C   0  0  0  0  0  0  0  0  0  0  0  0
   -3.9653   -0.8692   -0.8845 C   0  0  0  0  0  0  0  0  0  0  0  0
   -5.1210   -1.3943   -0.0632 C   0  0  0  0  0  0  0  0  0  0  0  0
    1.9171    1.3194    0.3490 C   0  0  0  0  0  0  0  0  0  0  0  0
    3.0672    0.4159    0.0889 C   0  0  0  0  0  0  0  0  0  0  0  0
    3.3530   -0.6517    0.9402 C   0  0  0  0  0  0  0  0  0  0  0  0
    3.8681    0.6503   -1.0289 C   0  0  0  0  0  0  0  0  0  0  0  0
    4.4398   -1.4845    0.6736 C   0  0  0  0  0  0  0  0  0  0  0  0
    5.2409   -1.2499   -0.4440 C   0  0  0  0  0  0  0  0  0  0  0  0
    4.9551   -0.1824   -1.2952 C   0  0  0  0  0  0  0  0  0  0  0  0
    2.5108   -0.9260    2.1432 C   0  0  0  0  0  0  0  0  0  0  0  0
    6.4032   -2.1393   -0.7299 C   0  0  0  0  0  0  0  0  0  0  0  0
   -1.0627    1.1832    1.1232 H   0  0  0  0  0  0  0  0  0  0  0  0
   -2.7234    2.7360    1.2703 H   0  0  0  0  0  0  0  0  0  0  0  0
   -2.6176    3.2212   -0.4296 H   0  0  0  0  0  0  0  0  0  0  0  0
   -1.1984   -0.5930   -0.4665 H   0  0  0  0  0  0  0  0  0  0  0  0
   -1.8588    0.4684   -1.7403 H   0  0  0  0  0  0  0  0  0  0  0  0
   -4.1854    1.7050   -1.0897 H   0  0  0  0  0  0  0  0  0  0  0  0
   -4.5885    1.5088    0.6302 H   0  0  0  0  0  0  0  0  0  0  0  0
    0.0466    3.1275    0.0126 H   0  0  0  0  0  0  0  0  0  0  0  0
   -0.4720    2.5312   -1.5708 H   0  0  0  0  0  0  0  0  0  0  0  0
   -3.3394   -1.7333   -1.1413 H   0  0  0  0  0  0  0  0  0  0  0  0
   -4.3223   -0.4503   -1.8330 H   0  0  0  0  0  0  0  0  0  0  0  0
    1.0481    0.8026   -1.4752 H   0  0  0  0  0  0  0  0  0  0  0  0
    3.6613    1.4811   -1.6988 H   0  0  0  0  0  0  0  0  0  0  0  0
    4.6685   -2.3161    1.3361 H   0  0  0  0  0  0  0  0  0  0  0  0
    5.5733    0.0127   -2.1675 H   0  0  0  0  0  0  0  0  0  0  0  0
    2.7412   -1.9026    2.5832 H   0  0  0  0  0  0  0  0  0  0  0  0
    1.4474   -0.9422    1.8817 H   0  0  0  0  0  0  0  0  0  0  0  0
    2.6852   -0.1670    2.9124 H   0  0  0  0  0  0  0  0  0  0  0  0
    7.2948   -1.7698   -0.2137 H   0  0  0  0  0  0  0  0  0  0  0  0
    6.2052   -3.1648   -0.4000 H   0  0  0  0  0  0  0  0  0  0  0  0
    6.6136   -2.1839   -1.8040 H   0  0  0  0  0  0  0  0  0  0  0  0
  1 13  1  0  0  0  0
  2 13  1  0  0  0  0
  3 13  1  0  0  0  0
  4 14  2  0  0  0  0
  5  9  1  0  0  0  0
  5 10  1  0  0  0  0
  5 12  1  0  0  0  0
  6 11  1  0  0  0  0
  6 14  1  0  0  0  0
  6 34  1  0  0  0  0
  7  8  1  0  0  0  0
  7  9  1  0  0  0  0
  7 11  1  0  0  0  0
  7 23  1  0  0  0  0
  8 10  1  0  0  0  0
  8 24  1  0  0  0  0
  8 25  1  0  0  0  0
  9 26  1  0  0  0  0
  9 27  1  0  0  0  0
 10 28  1  0  0  0  0
 10 29  1  0  0  0  0
 11 30  1  0  0  0  0
 11 31  1  0  0  0  0
 12 13  1  0  0  0  0
 12 32  1  0  0  0  0
 12 33  1  0  0  0  0
 14 15  1  0  0  0  0
 15 16  2  0  0  0  0
 15 17  1  0  0  0  0
 16 18  1  0  0  0  0
 16 21  1  0  0  0  0
 17 20  2  0  0  0  0
 17 35  1  0  0  0  0
 18 19  2  0  0  0  0
 18 36  1  0  0  0  0
 19 20  1  0  0  0  0
 19 22  1  0  0  0  0
 20 37  1  0  0  0  0
 21 38  1  0  0  0  0
 21 39  1  0  0  0  0
 21 40  1  0  0  0  0
 22 41  1  0  0  0  0
 22 42  1  0  0  0  0
 22 43  1  0  0  0  0
M  END
> <PUBCHEM_COMPOUND_CID>
51090926

> <PUBCHEM_CONFORMER_RMSD>
0.8

> <PUBCHEM_CONFORMER_DIVERSEORDER>
1
28
177
155
135
73
181
81
119
157
126
208
199
82
163
141
127
209
44
195
24
207
191
60
132
97
71
26
153
210
217
194
54
34
125
35
21
164
212
223
219
187
77
214
144
139
192
68
143
31
36
165
104
108
129
55
111
92
7
140
220
10
180
176
134
83
190
159
150
229
136
154
9
149
168
95
167
138
29
128
106
170
205
50
146
72
37
76
102
166
188
16
193
64
79
58
230
137
215
32
130
123
27
110
13
178
133
45
151
186
121
179
222
116
40
41
17
66
231
5
202
160
175
115
174
105
142
22
213
75
161
112
18
109
211
12
39
189
203
61
57
224
87
93
20
120
152
182
148
185
200
30
59
131
25
69
196
62
171
23
8
227
156
96
107
198
14
47
122
11
63
6
158
99
94
67
173
85
162
74
228
184
33
49
201
172
48
65
84
221
124
204
114
206
43
70
145
89
113
88
53
90
19
100
183
169
80
101
91
118
56
226
86
197
225
78
42
98
216
4
38
218
103
15
52
51
3
2
46
147
117

> <PUBCHEM_MMFF94_PARTIAL_CHARGES>
24
1 -0.34
10 0.27
11 0.3
12 0.27
13 1.02
14 0.54
15 0.09
16 -0.14
17 -0.15
18 -0.15
19 -0.14
2 -0.34
20 -0.15
21 0.14
22 0.14
3 -0.34
34 0.37
35 0.15
36 0.15
37 0.15
4 -0.57
5 -0.81
6 -0.73
9 0.27

> <PUBCHEM_EFFECTIVE_ROTOR_COUNT>
7

> <PUBCHEM_PHARMACOPHORE_FEATURES>
5
1 4 acceptor
1 5 cation
1 6 donor
5 5 7 8 9 10 rings
6 15 16 17 18 19 20 rings

> <PUBCHEM_HEAVY_ATOM_COUNT>
22

> <PUBCHEM_ATOM_DEF_STEREO_COUNT>
0

> <PUBCHEM_ATOM_UDEF_STEREO_COUNT>
1

> <PUBCHEM_BOND_DEF_STEREO_COUNT>
0

> <PUBCHEM_BOND_UDEF_STEREO_COUNT>
0

> <PUBCHEM_ISOTOPIC_ATOM_COUNT>
0

> <PUBCHEM_COMPONENT_COUNT>
1

> <PUBCHEM_CACTVS_TAUTO_COUNT>
5

> <PUBCHEM_CONFORMER_ID>
030B95EE00000001

> <PUBCHEM_MMFF94_ENERGY>
48.7427

> <PUBCHEM_FEATURE_SELFOVERLAP>
25.371

> <PUBCHEM_SHAPE_FINGERPRINT>
10498660 4 11599720709782915348
10928967 22 18339655485276710307
11069576 57 16557362620367392810
11545043 162 17821733878791797144
11796584 16 18193556890320270708
12592606 108 18410854331760207367
12596602 18 17749389256352640914
12633257 1 16009034951370750693
12760667 363 18408887330794961631
13103583 49 17895741985267588577
13167823 11 18412826893119751773
13533116 47 18338234843412973693
13955234 65 18044657486397104768
14123256 34 18335413595571260670
1420 369 18410297978069028453
14216079 64 18335138670815321807
14251740 57 18263370187625623483
14251751 18 18113902662623482234
14251764 30 18260828237143785862
14420673 8 18189047766942912359
14576447 43 18059856212258600386
14931854 50 17775007903055542795
14950920 106 16009037146436928123
15188451 53 16515981267895379639
15238133 3 7420933297717163306
15537594 2 18058444472860255737
17134984 74 17060060285579101651
17810953 82 8286214862987940770
193927 3 18412262809574305281
20028762 73 17968382247333033471
20281475 54 18271249425368237528
20403669 9 18335135388737471743
20621476 21 18114455755996445694
21054139 6 18060137682956512554
21774942 28 13326312393571717814
22393880 68 18130795606759989740
22950370 63 18411414042374546068
23016692 55 18412542119655377317
23522609 53 18047999018029402945
23559900 14 18337961099657204457
270888 7 9727633899407753462
2748736 6 9295018929431257655
2767999 5 9007060149583159623
2838139 119 10879992432596820438
2871803 45 17917994971031853808
3004659 81 18059858376373575956
312423 11 18409441466827333521
312425 83 15050629264441733035
316301 35 18335144159245254170
34797466 226 13398622883699570035
351380 3 18411420596483927951
44062 13 18339366361363912477
465052 167 18260825982116839014
5104073 3 17894912944715314080
543368 44 11095887069109157703
559249 180 18410574037498446757
636775 8 17896870149593238302
7970288 3 18336830805703523255
8863177 126 18260268525416097710
960060 61 17060627702034415293

> <PUBCHEM_SHAPE_MULTIPOLES>
415.1
15.25
2.55
1.28
4.31
0.03
-0.42
-12.28
2.86
1.9
-0.08
-1.2
-0.23
-0.14

> <PUBCHEM_SHAPE_SELFOVERLAP>
866

> <PUBCHEM_SHAPE_VOLUME>
239.5

> <PUBCHEM_COORDINATE_TYPE>
2
5
10

$$$$

