13850
  -OEChem-06241222403D

 47 46  0     0  0  0  0  0  0999 V2000
    8.0690   -2.2369   -0.3253 O   0  0  0  0  0  0  0  0  0  0  0  0
    2.5007    0.6255    0.3724 C   0  0  0  0  0  0  0  0  0  0  0  0
    1.7830    1.8981   -0.0910 C   0  0  0  0  0  0  0  0  0  0  0  0
    3.9521    0.5399   -0.1063 C   0  0  0  0  0  0  0  0  0  0  0  0
    0.3004    1.9986    0.2841 C   0  0  0  0  0  0  0  0  0  0  0  0
    4.6497   -0.7600    0.3077 C   0  0  0  0  0  0  0  0  0  0  0  0
   -0.3778    3.2612   -0.2577 C   0  0  0  0  0  0  0  0  0  0  0  0
    6.0762   -0.8808   -0.2386 C   0  0  0  0  0  0  0  0  0  0  0  0
   -1.8620    3.3586    0.1119 C   0  0  0  0  0  0  0  0  0  0  0  0
    6.7574   -2.1671    0.2150 C   0  0  0  0  0  0  0  0  0  0  0  0
   -2.6911    2.2509   -0.4740 C   0  0  0  0  0  0  0  0  0  0  0  0
   -3.3738    1.3643    0.2659 C   0  0  0  0  0  0  0  0  0  0  0  0
   -4.1645    0.2994   -0.3080 C   0  0  0  0  0  0  0  0  0  0  0  0
   -5.6693   -1.7000   -0.1531 C   0  0  0  0  0  0  0  0  0  0  0  0
   -5.1284   -3.0673    0.2661 C   0  0  0  0  0  0  0  0  0  0  0  0
   -4.8473   -0.5873    0.4315 C   0  0  0  0  0  0  0  0  0  0  0  0
   -5.9742   -4.1971   -0.3006 C   0  0  0  0  0  0  0  0  0  0  0  0
    2.4740    0.5757    1.4676 H   0  0  0  0  0  0  0  0  0  0  0  0
    1.9491   -0.2473    0.0021 H   0  0  0  0  0  0  0  0  0  0  0  0
    2.3111    2.7691    0.3168 H   0  0  0  0  0  0  0  0  0  0  0  0
    1.8693    1.9679   -1.1830 H   0  0  0  0  0  0  0  0  0  0  0  0
    4.5153    1.3947    0.2875 H   0  0  0  0  0  0  0  0  0  0  0  0
    3.9735    0.6232   -1.2000 H   0  0  0  0  0  0  0  0  0  0  0  0
   -0.2106    1.1076   -0.0992 H   0  0  0  0  0  0  0  0  0  0  0  0
    0.2050    1.9740    1.3765 H   0  0  0  0  0  0  0  0  0  0  0  0
    4.0589   -1.6145   -0.0448 H   0  0  0  0  0  0  0  0  0  0  0  0
    4.6732   -0.8201    1.4028 H   0  0  0  0  0  0  0  0  0  0  0  0
    0.1399    4.1441    0.1367 H   0  0  0  0  0  0  0  0  0  0  0  0
   -0.2690    3.2937   -1.3492 H   0  0  0  0  0  0  0  0  0  0  0  0
    6.6765   -0.0207    0.0831 H   0  0  0  0  0  0  0  0  0  0  0  0
    6.0608   -0.8417   -1.3349 H   0  0  0  0  0  0  0  0  0  0  0  0
   -2.2562    4.3120   -0.2601 H   0  0  0  0  0  0  0  0  0  0  0  0
   -1.9616    3.3857    1.2040 H   0  0  0  0  0  0  0  0  0  0  0  0
    6.1994   -3.0496   -0.1141 H   0  0  0  0  0  0  0  0  0  0  0  0
    6.8384   -2.1999    1.3059 H   0  0  0  0  0  0  0  0  0  0  0  0
   -2.7229    2.1920   -1.5598 H   0  0  0  0  0  0  0  0  0  0  0  0
   -3.3386    1.4314    1.3503 H   0  0  0  0  0  0  0  0  0  0  0  0
    7.9880   -2.2238   -1.2943 H   0  0  0  0  0  0  0  0  0  0  0  0
   -5.6942   -1.6330   -1.2477 H   0  0  0  0  0  0  0  0  0  0  0  0
   -6.7030   -1.5862    0.1952 H   0  0  0  0  0  0  0  0  0  0  0  0
   -4.1915    0.2265   -1.3923 H   0  0  0  0  0  0  0  0  0  0  0  0
   -4.0944   -3.1844   -0.0806 H   0  0  0  0  0  0  0  0  0  0  0  0
   -5.1118   -3.1475    1.3599 H   0  0  0  0  0  0  0  0  0  0  0  0
   -4.8274   -0.5179    1.5170 H   0  0  0  0  0  0  0  0  0  0  0  0
   -5.9837   -4.1692   -1.3949 H   0  0  0  0  0  0  0  0  0  0  0  0
   -7.0075   -4.1295    0.0544 H   0  0  0  0  0  0  0  0  0  0  0  0
   -5.5707   -5.1656    0.0109 H   0  0  0  0  0  0  0  0  0  0  0  0
  1 10  1  0  0  0  0
  1 38  1  0  0  0  0
  2  3  1  0  0  0  0
  2  4  1  0  0  0  0
  2 18  1  0  0  0  0
  2 19  1  0  0  0  0
  3  5  1  0  0  0  0
  3 20  1  0  0  0  0
  3 21  1  0  0  0  0
  4  6  1  0  0  0  0
  4 22  1  0  0  0  0
  4 23  1  0  0  0  0
  5  7  1  0  0  0  0
  5 24  1  0  0  0  0
  5 25  1  0  0  0  0
  6  8  1  0  0  0  0
  6 26  1  0  0  0  0
  6 27  1  0  0  0  0
  7  9  1  0  0  0  0
  7 28  1  0  0  0  0
  7 29  1  0  0  0  0
  8 10  1  0  0  0  0
  8 30  1  0  0  0  0
  8 31  1  0  0  0  0
  9 11  1  0  0  0  0
  9 32  1  0  0  0  0
  9 33  1  0  0  0  0
 10 34  1  0  0  0  0
 10 35  1  0  0  0  0
 11 12  2  0  0  0  0
 11 36  1  0  0  0  0
 12 13  1  0  0  0  0
 12 37  1  0  0  0  0
 13 16  2  0  0  0  0
 13 41  1  0  0  0  0
 14 15  1  0  0  0  0
 14 16  1  0  0  0  0
 14 39  1  0  0  0  0
 14 40  1  0  0  0  0
 15 17  1  0  0  0  0
 15 42  1  0  0  0  0
 15 43  1  0  0  0  0
 16 44  1  0  0  0  0
 17 45  1  0  0  0  0
 17 46  1  0  0  0  0
 17 47  1  0  0  0  0
M  END
> <PUBCHEM_COMPOUND_CID>
13850

> <PUBCHEM_CONFORMER_RMSD>
1

> <PUBCHEM_CONFORMER_DIVERSEORDER>
2
69
25
292
265
63
314
274
317
309
129
252
9
215
152
174
62
10
273
144
57
29
49
321
268
159
157
20
4
197
7
235
43
154
169
120
119
168
71
311
188
1
8
166
269
18
261
263
276
243
34
194
233
53
238
113
3
299
210
75
182
50
19
212
37
27
138
22
126
278
165
205
73
81
191
285
277
96
105
6
177
223
109
296
143
147
78
93
38
316
112
94
47
133
221
52
234
227
95
208
161
11
97
130
218
214
108
31
300
256
70
40
82
72
64
232
65
220
264
260
107
140
183
44
124
302
186
121
30
77
61
173
60
46
171
240
318
88
320
5
131
136
250
193
16
228
184
17
304
162
137
167
280
67
28
259
33
36
275
202
103
315
262
211
222
150
201
185
74
207
253
66
189
92
122
54
206
286
295
99
213
32
255
266
203
45
289
290
135
230
12
110
271
141
55
163
51
79
308
127
180
125
242
56
151
155
142
305
128
294
146
68
39
204
209
101
58
196
149
117
24
231
175
134
83
293
291
195
48
287
297
156
148
84
239
160
98
80
23
281
158
90
153
312
226
176
219
85
139
164
217
106
42
114
307
76
288
249
283
237
145
14
13
118
102
246
322
192
41
306
91
115
111
104
200
116
247
254
100
298
310
251
132
89
181
187
258
303
199
87
179
59
245
123
198
35
15
248
284
319
170
244
21
224
279
267
229
26
190
270
172
313
282
86
257
301
241
272
216
225
236
323
178

> <PUBCHEM_MMFF94_PARTIAL_CHARGES>
13
1 -0.68
10 0.28
11 -0.29
12 -0.15
13 -0.15
14 0.14
16 -0.29
36 0.15
37 0.15
38 0.4
41 0.15
44 0.15
9 0.14

> <PUBCHEM_EFFECTIVE_ROTOR_COUNT>
12

> <PUBCHEM_PHARMACOPHORE_FEATURES>
3
1 1 acceptor
1 1 donor
1 17 hydrophobe

> <PUBCHEM_HEAVY_ATOM_COUNT>
17

> <PUBCHEM_ATOM_DEF_STEREO_COUNT>
0

> <PUBCHEM_ATOM_UDEF_STEREO_COUNT>
0

> <PUBCHEM_BOND_DEF_STEREO_COUNT>
0

> <PUBCHEM_BOND_UDEF_STEREO_COUNT>
2

> <PUBCHEM_ISOTOPIC_ATOM_COUNT>
0

> <PUBCHEM_COMPONENT_COUNT>
1

> <PUBCHEM_CACTVS_TAUTO_COUNT>
1

> <PUBCHEM_CONFORMER_ID>
0000361A00000002

> <PUBCHEM_MMFF94_ENERGY>
0.9092

> <PUBCHEM_FEATURE_SELFOVERLAP>
15.223

> <PUBCHEM_SHAPE_FINGERPRINT>
11197282 1 18409728456578845655
11273773 46 18412551986319330815
11463208 1 17971180676900077318
11761917 116 18337946797626989094
12174731 88 18188776029274909695
12645989 146 18337388215144104535
1361 4 18339361998136374218
13911852 28 18265617568487322557
14251740 57 18265057925094658793
14251764 30 18410857637692574134
14420673 8 18411417294381934555
14429380 30 18340484478473483939
14866123 147 18409162226304164537
14931854 50 17775013379560565707
15352361 1 18339643331067388609
17492 89 18338518534624723829
17780758 139 17822572819228527721
20281389 69 8646475333093003244
20621476 21 18334855047916814098
20621476 30 18412543219109158098
20843269 155 18342186574097044890
21054139 6 18059572559818003442
21095086 4 18058157337903327819
21307412 95 18341345435576491413
23424782 7 18335422383833788952
270888 7 9151185246396233825
316301 35 18336549300508599345
5718773 13 18409451353894432647
7062679 13 18411983520778302145
7970288 3 18411140195359953771
8863177 126 18335423456868705352
88748 71 18196370313343181717

> <PUBCHEM_SHAPE_MULTIPOLES>
343.98
20.53
5.22
0.69
24.87
1.57
-0.01
30.39
0.9
-6.56
0.35
-0.09
-0.01
0.02

> <PUBCHEM_SHAPE_SELFOVERLAP>
625.873

> <PUBCHEM_SHAPE_VOLUME>
219

> <PUBCHEM_COORDINATE_TYPE>
2
5
10

$$$$

