14330
  -OEChem-06241222433D

 21 22  0     0  0  0  0  0  0999 V2000
   -4.7160   -0.7453   -0.0008 O   0  0  0  0  0  0  0  0  0  0  0  0
   -0.5877   -0.6182    0.0005 N   0  0  0  0  0  0  0  0  0  0  0  0
   -3.3252   -0.8798   -0.0001 N   0  0  0  0  0  0  0  0  0  0  0  0
    1.3788    0.7746   -0.0002 C   0  0  0  0  0  0  0  0  0  0  0  0
    0.7526   -0.4893    0.0001 C   0  0  0  0  0  0  0  0  0  0  0  0
    0.5639    1.9146   -0.0002 C   0  0  0  0  0  0  0  0  0  0  0  0
    2.7807    0.8720   -0.0003 C   0  0  0  0  0  0  0  0  0  0  0  0
    1.5627   -1.6216    0.0001 C   0  0  0  0  0  0  0  0  0  0  0  0
   -1.3384    0.5071    0.0004 C   0  0  0  0  0  0  0  0  0  0  0  0
   -0.8174    1.7851    0.0001 C   0  0  0  0  0  0  0  0  0  0  0  0
    3.5665   -0.2769   -0.0001 C   0  0  0  0  0  0  0  0  0  0  0  0
    2.9564   -1.5250    0.0000 C   0  0  0  0  0  0  0  0  0  0  0  0
   -2.7767    0.3025    0.0006 C   0  0  0  0  0  0  0  0  0  0  0  0
    1.0017    2.9103   -0.0004 H   0  0  0  0  0  0  0  0  0  0  0  0
    3.2684    1.8443   -0.0005 H   0  0  0  0  0  0  0  0  0  0  0  0
    1.1091   -2.6111    0.0003 H   0  0  0  0  0  0  0  0  0  0  0  0
   -1.4502    2.6659    0.0000 H   0  0  0  0  0  0  0  0  0  0  0  0
    4.6493   -0.1977   -0.0002 H   0  0  0  0  0  0  0  0  0  0  0  0
    3.5618   -2.4267    0.0000 H   0  0  0  0  0  0  0  0  0  0  0  0
   -3.4130    1.2066    0.0006 H   0  0  0  0  0  0  0  0  0  0  0  0
   -5.0020   -1.6744   -0.0012 H   0  0  0  0  0  0  0  0  0  0  0  0
  1  3  1  0  0  0  0
  1 21  1  0  0  0  0
  2  5  1  0  0  0  0
  2  9  2  0  0  0  0
  3 13  2  0  0  0  0
  4  5  1  0  0  0  0
  4  6  1  0  0  0  0
  4  7  2  0  0  0  0
  5  8  2  0  0  0  0
  6 10  2  0  0  0  0
  6 14  1  0  0  0  0
  7 11  1  0  0  0  0
  7 15  1  0  0  0  0
  8 12  1  0  0  0  0
  8 16  1  0  0  0  0
  9 10  1  0  0  0  0
  9 13  1  0  0  0  0
 10 17  1  0  0  0  0
 11 12  2  0  0  0  0
 11 18  1  0  0  0  0
 12 19  1  0  0  0  0
 13 20  1  0  0  0  0
M  END
> <PUBCHEM_COMPOUND_CID>
14330

> <PUBCHEM_CONFORMER_RMSD>
0.4

> <PUBCHEM_CONFORMER_DIVERSEORDER>
1

> <PUBCHEM_MMFF94_PARTIAL_CHARGES>
20
1 -0.34
10 -0.15
11 -0.15
12 -0.15
13 0.3
14 0.15
15 0.15
16 0.15
17 0.15
18 0.15
19 0.15
2 -0.62
20 0.06
21 0.4
3 -0.51
5 0.31
6 -0.15
7 -0.15
8 -0.15
9 0.4

> <PUBCHEM_EFFECTIVE_ROTOR_COUNT>
1

> <PUBCHEM_PHARMACOPHORE_FEATURES>
5
1 1 anion
1 2 acceptor
1 3 acceptor
6 2 4 5 6 9 10 rings
6 4 5 7 8 11 12 rings

> <PUBCHEM_HEAVY_ATOM_COUNT>
13

> <PUBCHEM_ATOM_DEF_STEREO_COUNT>
0

> <PUBCHEM_ATOM_UDEF_STEREO_COUNT>
0

> <PUBCHEM_BOND_DEF_STEREO_COUNT>
0

> <PUBCHEM_BOND_UDEF_STEREO_COUNT>
1

> <PUBCHEM_ISOTOPIC_ATOM_COUNT>
0

> <PUBCHEM_COMPONENT_COUNT>
1

> <PUBCHEM_CACTVS_TAUTO_COUNT>
2

> <PUBCHEM_CONFORMER_ID>
000037FA00000001

> <PUBCHEM_MMFF94_ENERGY>
33.7011

> <PUBCHEM_FEATURE_SELFOVERLAP>
25.408

> <PUBCHEM_SHAPE_FINGERPRINT>
10219947 1 18335699429464691447
10967382 1 18338797810503591846
11471102 20 18411422782627367909
11543360 7 15697704935473420591
11769659 78 18341615983312245074
11806522 49 18410576141552217815
12032990 46 18409726296183467246
14251717 144 18410576154300067103
14252887 29 18113326518451484390
14325111 11 18410855490314473032
14576447 43 18117289060027519799
15477762 27 18411419475449841367
15501101 241 18412262817842772300
15757776 16 18342744021991605250
16945 1 18410855473466880736
200 152 18187654608828181749
20201158 50 18343581837009279819
20645477 70 18410015438104348751
20871998 184 18042128828410825420
20871998 22 18189045550644874574
21267235 1 18410002247705907502
21501502 16 18267579294246168328
21501925 9 18410581694675769920
221490 88 18125998261587513035
23402539 116 18338527416479415910
23402655 69 18410579496021864109
23463225 33 18410854390866005940
23552423 10 18127967705913532540
25610 137 18411135844246716708
2748010 2 18265902539019091300
2871803 45 18343305898287644063
581208 293 18410015399132832888
7364860 26 18263645069753928496
8809292 202 18129938984128180947

> <PUBCHEM_SHAPE_MULTIPOLES>
251.7
6.22
1.82
0.6
4.96
0.34
0
-2.63
0
-0.41
0
-0.06
0.02
0

> <PUBCHEM_SHAPE_SELFOVERLAP>
548.583

> <PUBCHEM_SHAPE_VOLUME>
136.9

> <PUBCHEM_COORDINATE_TYPE>
2
5
10

$$$$

