7847013
  -OEChem-06241222482D

 40 42  0     0  0  0  0  0  0999 V2000
    4.6783    3.3358    0.0000 S   0  0  0  0  0  0  0  0  0  0  0  0
   12.7619   -3.5311    0.0000 F   0  0  0  0  0  0  0  0  0  0  0  0
    8.2619    0.7990    0.0000 O   0  0  0  0  0  0  0  0  0  0  0  0
    8.2619    2.5311    0.0000 O   0  0  0  0  0  0  0  0  0  0  0  0
    9.2619   -0.9330    0.0000 O   0  0  0  0  0  0  0  0  0  0  0  0
    4.6783    1.7264    0.0000 N   0  0  0  0  0  0  0  0  0  0  0  0
   10.7619   -0.0670    0.0000 N   0  0  0  0  0  0  0  0  0  0  0  0
    6.2619    2.5311    0.0000 C   0  0  0  0  0  0  0  0  0  0  0  0
    6.7619    1.6651    0.0000 C   0  0  0  0  0  0  0  0  0  0  0  0
    5.2619    2.5311    0.0000 C   0  0  0  0  0  0  0  0  0  0  0  0
    3.7320    3.0311    0.0000 C   0  0  0  0  0  0  0  0  0  0  0  0
    3.7320    2.0311    0.0000 C   0  0  0  0  0  0  0  0  0  0  0  0
    7.7619    1.6651    0.0000 C   0  0  0  0  0  0  0  0  0  0  0  0
    2.8660    3.5311    0.0000 C   0  0  0  0  0  0  0  0  0  0  0  0
    2.8660    1.5311    0.0000 C   0  0  0  0  0  0  0  0  0  0  0  0
    2.0000    3.0311    0.0000 C   0  0  0  0  0  0  0  0  0  0  0  0
    2.0000    2.0311    0.0000 C   0  0  0  0  0  0  0  0  0  0  0  0
    9.2619    0.7990    0.0000 C   0  0  0  0  0  0  0  0  0  0  0  0
   11.2619   -0.9330    0.0000 C   0  0  0  0  0  0  0  0  0  0  0  0
    9.7619   -0.0670    0.0000 C   0  0  0  0  0  0  0  0  0  0  0  0
   10.7619   -1.7990    0.0000 C   0  0  0  0  0  0  0  0  0  0  0  0
   12.2619   -0.9330    0.0000 C   0  0  0  0  0  0  0  0  0  0  0  0
   11.2619   -2.6651    0.0000 C   0  0  0  0  0  0  0  0  0  0  0  0
   12.7619   -1.7990    0.0000 C   0  0  0  0  0  0  0  0  0  0  0  0
   12.2619   -2.6651    0.0000 C   0  0  0  0  0  0  0  0  0  0  0  0
    6.8445    2.7431    0.0000 H   0  0  0  0  0  0  0  0  0  0  0  0
    6.1542    3.1417    0.0000 H   0  0  0  0  0  0  0  0  0  0  0  0
    6.1793    1.4530    0.0000 H   0  0  0  0  0  0  0  0  0  0  0  0
    6.8695    1.0545    0.0000 H   0  0  0  0  0  0  0  0  0  0  0  0
    2.8660    4.1511    0.0000 H   0  0  0  0  0  0  0  0  0  0  0  0
    2.8660    0.9111    0.0000 H   0  0  0  0  0  0  0  0  0  0  0  0
    1.4631    3.3411    0.0000 H   0  0  0  0  0  0  0  0  0  0  0  0
    1.4631    1.7211    0.0000 H   0  0  0  0  0  0  0  0  0  0  0  0
    9.8445    1.0111    0.0000 H   0  0  0  0  0  0  0  0  0  0  0  0
    9.1542    1.4096    0.0000 H   0  0  0  0  0  0  0  0  0  0  0  0
   11.0719    0.4699    0.0000 H   0  0  0  0  0  0  0  0  0  0  0  0
   10.1419   -1.7990    0.0000 H   0  0  0  0  0  0  0  0  0  0  0  0
   12.5719   -0.3961    0.0000 H   0  0  0  0  0  0  0  0  0  0  0  0
   10.9519   -3.2020    0.0000 H   0  0  0  0  0  0  0  0  0  0  0  0
   13.3819   -1.7990    0.0000 H   0  0  0  0  0  0  0  0  0  0  0  0
  1 10  1  0  0  0  0
  1 11  1  0  0  0  0
  2 25  1  0  0  0  0
  3 13  1  0  0  0  0
  3 18  1  0  0  0  0
  4 13  2  0  0  0  0
  5 20  2  0  0  0  0
  6 10  2  0  0  0  0
  6 12  1  0  0  0  0
  7 19  1  0  0  0  0
  7 20  1  0  0  0  0
  7 36  1  0  0  0  0
  8  9  1  0  0  0  0
  8 10  1  0  0  0  0
  8 26  1  0  0  0  0
  8 27  1  0  0  0  0
  9 13  1  0  0  0  0
  9 28  1  0  0  0  0
  9 29  1  0  0  0  0
 11 12  1  0  0  0  0
 11 14  2  0  0  0  0
 12 15  2  0  0  0  0
 14 16  1  0  0  0  0
 14 30  1  0  0  0  0
 15 17  1  0  0  0  0
 15 31  1  0  0  0  0
 16 17  2  0  0  0  0
 16 32  1  0  0  0  0
 17 33  1  0  0  0  0
 18 20  1  0  0  0  0
 18 34  1  0  0  0  0
 18 35  1  0  0  0  0
 19 21  2  0  0  0  0
 19 22  1  0  0  0  0
 21 23  1  0  0  0  0
 21 37  1  0  0  0  0
 22 24  2  0  0  0  0
 22 38  1  0  0  0  0
 23 25  2  0  0  0  0
 23 39  1  0  0  0  0
 24 25  1  0  0  0  0
 24 40  1  0  0  0  0
M  END
> <PUBCHEM_COMPOUND_CID>
7847013

> <PUBCHEM_COMPOUND_CANONICALIZED>
1

> <PUBCHEM_CACTVS_COMPLEXITY>
471

> <PUBCHEM_CACTVS_HBOND_ACCEPTOR>
6

> <PUBCHEM_CACTVS_HBOND_DONOR>
1

> <PUBCHEM_CACTVS_ROTATABLE_BOND>
7

> <PUBCHEM_CACTVS_SUBSKEYS>
AAADccB7MQBAAAAAAAAAAAAAAAAAAWAAAAAwYAAAAAAAAFgB9AAAHwQQAAAACAih1gowybLIFAisASXyXAKD8KBhCjhImD1wZJgKILLgkZWHIAhklAD4yAc0AAAAAAAAAAAAAQAAAAAAAAACAAAAAAAAAA==

> <PUBCHEM_IUPAC_OPENEYE_NAME>
[2-(4-fluoroanilino)-2-oxo-ethyl] 3-(1,3-benzothiazol-2-yl)propanoate

> <PUBCHEM_IUPAC_CAS_NAME>
3-(1,3-benzothiazol-2-yl)propanoic acid [2-(4-fluoroanilino)-2-oxoethyl] ester

> <PUBCHEM_IUPAC_NAME>
[2-(4-fluoroanilino)-2-oxoethyl] 3-(1,3-benzothiazol-2-yl)propanoate

> <PUBCHEM_IUPAC_SYSTEMATIC_NAME>
[2-[(4-fluorophenyl)amino]-2-oxidanylidene-ethyl] 3-(1,3-benzothiazol-2-yl)propanoate

> <PUBCHEM_IUPAC_TRADITIONAL_NAME>
3-(1,3-benzothiazol-2-yl)propionic acid [2-(4-fluoroanilino)-2-keto-ethyl] ester

> <PUBCHEM_IUPAC_INCHI>
InChI=1S/C18H15FN2O3S/c19-12-5-7-13(8-6-12)20-16(22)11-24-18(23)10-9-17-21-14-3-1-2-4-15(14)25-17/h1-8H,9-11H2,(H,20,22)

> <PUBCHEM_IUPAC_INCHIKEY>
VMXWANXCXXRNBO-UHFFFAOYSA-N

> <PUBCHEM_XLOGP3_AA>
3.5

> <PUBCHEM_EXACT_MASS>
358.078742

> <PUBCHEM_MOLECULAR_FORMULA>
C18H15FN2O3S

> <PUBCHEM_MOLECULAR_WEIGHT>
358.386703

> <PUBCHEM_OPENEYE_CAN_SMILES>
C1=CC=C2C(=C1)N=C(S2)CCC(=O)OCC(=O)NC3=CC=C(C=C3)F

> <PUBCHEM_OPENEYE_ISO_SMILES>
C1=CC=C2C(=C1)N=C(S2)CCC(=O)OCC(=O)NC3=CC=C(C=C3)F

> <PUBCHEM_CACTVS_TPSA>
96.5

> <PUBCHEM_MONOISOTOPIC_WEIGHT>
358.078742

> <PUBCHEM_TOTAL_CHARGE>
0

> <PUBCHEM_HEAVY_ATOM_COUNT>
25

> <PUBCHEM_ATOM_DEF_STEREO_COUNT>
0

> <PUBCHEM_ATOM_UDEF_STEREO_COUNT>
0

> <PUBCHEM_BOND_DEF_STEREO_COUNT>
0

> <PUBCHEM_BOND_UDEF_STEREO_COUNT>
0

> <PUBCHEM_ISOTOPIC_ATOM_COUNT>
0

> <PUBCHEM_COMPONENT_COUNT>
1

> <PUBCHEM_CACTVS_TAUTO_COUNT>
6

> <PUBCHEM_COORDINATE_TYPE>
1
5
255

> <PUBCHEM_BONDANNOTATIONS>
1  10  8
1  11  8
11  12  8
11  14  8
12  15  8
14  16  8
15  17  8
16  17  8
19  21  8
19  22  8
21  23  8
22  24  8
23  25  8
24  25  8
6  10  8
6  12  8

$$$$

