8605
  -OEChem-06261202572D

 42 43  0     1  0  0  0  0  0999 V2000
    8.2294    0.0000    0.0000 K   0  3  0  0  0  0  0  0  0  0  0  0
    8.2805    4.2633    0.0000 S   0  0  0  0  0  0  0  0  0  0  0  0
    5.6155    2.2416    0.0000 O   0  0  0  0  0  0  0  0  0  0  0  0
    7.9204    0.9511    0.0000 O   0  5  0  0  0  0  0  0  0  0  0  0
    9.5677    1.4863    0.0000 O   0  0  0  0  0  0  0  0  0  0  0  0
    4.3883    3.4448    0.0000 O   0  0  0  0  0  0  0  0  0  0  0  0
    2.9770    4.8619    0.0000 O   0  0  0  0  0  0  0  0  0  0  0  0
    7.3295    2.9543    0.0000 N   0  0  0  0  0  0  0  0  0  0  0  0
    5.6155    4.6670    0.0000 N   0  0  0  0  0  0  0  0  0  0  0  0
    7.3295    3.9543    0.0000 C   0  0  1  0  0  0  0  0  0  0  0  0
    8.8683    3.4543    0.0000 C   0  0  0  0  0  0  0  0  0  0  0  0
    8.2805    2.6453    0.0000 C   0  0  2  0  0  0  0  0  0  0  0  0
    6.3212    3.9584    0.0000 C   0  0  1  0  0  0  0  0  0  0  0  0
    6.3212    2.9501    0.0000 C   0  0  0  0  0  0  0  0  0  0  0  0
    9.6773    4.0421    0.0000 C   0  0  0  0  0  0  0  0  0  0  0  0
    9.6773    2.8665    0.0000 C   0  0  0  0  0  0  0  0  0  0  0  0
    8.5895    1.6942    0.0000 C   0  0  0  0  0  0  0  0  0  0  0  0
    4.6491    4.4101    0.0000 C   0  0  0  0  0  0  0  0  0  0  0  0
    3.9434    5.1187    0.0000 C   0  0  0  0  0  0  0  0  0  0  0  0
    2.2713    5.5704    0.0000 C   0  0  0  0  0  0  0  0  0  0  0  0
    1.3049    5.3136    0.0000 C   0  0  0  0  0  0  0  0  0  0  0  0
    2.5321    6.5358    0.0000 C   0  0  0  0  0  0  0  0  0  0  0  0
    0.5992    6.0222    0.0000 C   0  0  0  0  0  0  0  0  0  0  0  0
    1.8265    7.2444    0.0000 C   0  0  0  0  0  0  0  0  0  0  0  0
    0.8600    6.9875    0.0000 C   0  0  0  0  0  0  0  0  0  0  0  0
    7.2059    4.7447    0.0000 H   0  0  0  0  0  0  0  0  0  0  0  0
    7.8421    2.2069    0.0000 H   0  0  0  0  0  0  0  0  0  0  0  0
    5.7481    3.7217    0.0000 H   0  0  0  0  0  0  0  0  0  0  0  0
   10.0417    3.5405    0.0000 H   0  0  0  0  0  0  0  0  0  0  0  0
   10.1789    4.4065    0.0000 H   0  0  0  0  0  0  0  0  0  0  0  0
    9.3129    4.5437    0.0000 H   0  0  0  0  0  0  0  0  0  0  0  0
    9.3129    2.3649    0.0000 H   0  0  0  0  0  0  0  0  0  0  0  0
   10.1789    2.5021    0.0000 H   0  0  0  0  0  0  0  0  0  0  0  0
   10.0417    3.3681    0.0000 H   0  0  0  0  0  0  0  0  0  0  0  0
    5.7772    5.2655    0.0000 H   0  0  0  0  0  0  0  0  0  0  0  0
    4.4520    5.4733    0.0000 H   0  0  0  0  0  0  0  0  0  0  0  0
    3.6825    5.6812    0.0000 H   0  0  0  0  0  0  0  0  0  0  0  0
    1.1432    4.7151    0.0000 H   0  0  0  0  0  0  0  0  0  0  0  0
    3.1313    6.6951    0.0000 H   0  0  0  0  0  0  0  0  0  0  0  0
    0.0000    5.8629    0.0000 H   0  0  0  0  0  0  0  0  0  0  0  0
    1.9882    7.8429    0.0000 H   0  0  0  0  0  0  0  0  0  0  0  0
    0.4225    7.4269    0.0000 H   0  0  0  0  0  0  0  0  0  0  0  0
  2 10  1  0  0  0  0
  2 11  1  0  0  0  0
  3 14  2  0  0  0  0
  4 17  1  0  0  0  0
  5 17  2  0  0  0  0
  6 18  2  0  0  0  0
  7 19  1  0  0  0  0
  7 20  1  0  0  0  0
  8 10  1  0  0  0  0
  8 12  1  0  0  0  0
  8 14  1  0  0  0  0
 13  9  1  1  0  0  0
  9 18  1  0  0  0  0
  9 35  1  0  0  0  0
 10 13  1  0  0  0  0
 10 26  1  6  0  0  0
 11 12  1  0  0  0  0
 11 15  1  0  0  0  0
 11 16  1  0  0  0  0
 12 17  1  6  0  0  0
 12 27  1  0  0  0  0
 13 14  1  0  0  0  0
 13 28  1  0  0  0  0
 15 29  1  0  0  0  0
 15 30  1  0  0  0  0
 15 31  1  0  0  0  0
 16 32  1  0  0  0  0
 16 33  1  0  0  0  0
 16 34  1  0  0  0  0
 18 19  1  0  0  0  0
 19 36  1  0  0  0  0
 19 37  1  0  0  0  0
 20 21  2  0  0  0  0
 20 22  1  0  0  0  0
 21 23  1  0  0  0  0
 21 38  1  0  0  0  0
 22 24  2  0  0  0  0
 22 39  1  0  0  0  0
 23 25  2  0  0  0  0
 23 40  1  0  0  0  0
 24 25  1  0  0  0  0
 24 41  1  0  0  0  0
 25 42  1  0  0  0  0
M  CHG  2   1   1   4  -1
M  END
> <PUBCHEM_COMPOUND_CID>
8605

> <PUBCHEM_COMPOUND_CANONICALIZED>
1

> <PUBCHEM_CACTVS_COMPLEXITY>
541

> <PUBCHEM_CACTVS_HBOND_ACCEPTOR>
6

> <PUBCHEM_CACTVS_HBOND_DONOR>
1

> <PUBCHEM_CACTVS_ROTATABLE_BOND>
4

> <PUBCHEM_CACTVS_SUBSKEYS>
AAADceB7OABAQAAAAAAAAAAAAABYAWAAAAAwAAAABYAAAAABAAAAHgQQAAAADCzl0AayDoPABAiIACHSGAICCABgIBAIiIHOCIgOZjqkMT6XOCCk1hG4qAeAQAAIAAAAAAAAAAAAAAAAAAAAAAAAAAAAAA==

> <PUBCHEM_IUPAC_OPENEYE_NAME>
potassium (2S,5R,6R)-3,3-dimethyl-7-oxo-6-[(2-phenoxyacetyl)amino]-4-thia-1-azabicyclo[3.2.0]heptane-2-carboxylate

> <PUBCHEM_IUPAC_CAS_NAME>
potassium (2S,5R,6R)-3,3-dimethyl-7-oxo-6-[(1-oxo-2-phenoxyethyl)amino]-4-thia-1-azabicyclo[3.2.0]heptane-2-carboxylate

> <PUBCHEM_IUPAC_NAME>
potassium (2S,5R,6R)-3,3-dimethyl-7-oxo-6-[(2-phenoxyacetyl)amino]-4-thia-1-azabicyclo[3.2.0]heptane-2-carboxylate

> <PUBCHEM_IUPAC_SYSTEMATIC_NAME>
potassium (2S,5R,6R)-3,3-dimethyl-7-oxidanylidene-6-(2-phenoxyethanoylamino)-4-thia-1-azabicyclo[3.2.0]heptane-2-carboxylate

> <PUBCHEM_IUPAC_TRADITIONAL_NAME>
potassium (2S,5R,6R)-7-keto-3,3-dimethyl-6-[(2-phenoxyacetyl)amino]-4-thia-1-azabicyclo[3.2.0]heptane-2-carboxylate

> <PUBCHEM_IUPAC_INCHI>
InChI=1S/C16H18N2O5S.K/c1-16(2)12(15(21)22)18-13(20)11(14(18)24-16)17-10(19)8-23-9-6-4-3-5-7-9;/h3-7,11-12,14H,8H2,1-2H3,(H,17,19)(H,21,22);/q;+1/p-1/t11-,12+,14-;/m1./s1

> <PUBCHEM_IUPAC_INCHIKEY>
HCTVWSOKIJULET-LQDWTQKMSA-M

> <PUBCHEM_EXACT_MASS>
388.049524

> <PUBCHEM_MOLECULAR_FORMULA>
C16H17KN2O5S

> <PUBCHEM_MOLECULAR_WEIGHT>
388.47988

> <PUBCHEM_OPENEYE_CAN_SMILES>
CC1(C(N2C(S1)C(C2=O)NC(=O)COC3=CC=CC=C3)C(=O)[O-])C.[K+]

> <PUBCHEM_OPENEYE_ISO_SMILES>
CC1([C@@H](N2[C@H](S1)[C@@H](C2=O)NC(=O)COC3=CC=CC=C3)C(=O)[O-])C.[K+]

> <PUBCHEM_CACTVS_TPSA>
124

> <PUBCHEM_MONOISOTOPIC_WEIGHT>
388.049524

> <PUBCHEM_TOTAL_CHARGE>
0

> <PUBCHEM_HEAVY_ATOM_COUNT>
25

> <PUBCHEM_ATOM_DEF_STEREO_COUNT>
3

> <PUBCHEM_ATOM_UDEF_STEREO_COUNT>
0

> <PUBCHEM_BOND_DEF_STEREO_COUNT>
0

> <PUBCHEM_BOND_UDEF_STEREO_COUNT>
0

> <PUBCHEM_ISOTOPIC_ATOM_COUNT>
0

> <PUBCHEM_COMPONENT_COUNT>
2

> <PUBCHEM_CACTVS_TAUTO_COUNT>
2

> <PUBCHEM_COORDINATE_TYPE>
1
5
255

> <PUBCHEM_BONDANNOTATIONS>
10  26  6
12  17  6
20  21  8
20  22  8
21  23  8
22  24  8
23  25  8
24  25  8
13  9  5

$$$$

