586252
  -OEChem-06241222462D

 27 28  0     0  0  0  0  0  0999 V2000
    2.5369   -2.5950    0.0000 O   0  0  0  0  0  0  0  0  0  0  0  0
    4.2690   -3.5950    0.0000 O   0  0  0  0  0  0  0  0  0  0  0  0
    3.4030    0.9050    0.0000 O   0  0  0  0  0  0  0  0  0  0  0  0
    5.1350    0.9050    0.0000 N   0  0  0  0  0  0  0  0  0  0  0  0
    4.2690    2.4050    0.0000 N   0  0  0  0  0  0  0  0  0  0  0  0
    4.2690   -0.5950    0.0000 C   0  0  0  0  0  0  0  0  0  0  0  0
    3.4030   -1.0950    0.0000 C   0  0  0  0  0  0  0  0  0  0  0  0
    5.1350   -1.0950    0.0000 C   0  0  0  0  0  0  0  0  0  0  0  0
    4.2690    0.4050    0.0000 C   0  0  0  0  0  0  0  0  0  0  0  0
    3.4030   -2.0950    0.0000 C   0  0  0  0  0  0  0  0  0  0  0  0
    4.2690   -2.5950    0.0000 C   0  0  0  0  0  0  0  0  0  0  0  0
    5.1350   -2.0950    0.0000 C   0  0  0  0  0  0  0  0  0  0  0  0
    5.1350    1.9050    0.0000 C   0  0  0  0  0  0  0  0  0  0  0  0
    6.0010    2.4050    0.0000 C   0  0  0  0  0  0  0  0  0  0  0  0
    6.0010    3.4050    0.0000 C   0  0  0  0  0  0  0  0  0  0  0  0
    5.1350    3.9050    0.0000 C   0  0  0  0  0  0  0  0  0  0  0  0
    4.2690    3.4050    0.0000 C   0  0  0  0  0  0  0  0  0  0  0  0
    2.8660   -0.7850    0.0000 H   0  0  0  0  0  0  0  0  0  0  0  0
    5.6720   -0.7850    0.0000 H   0  0  0  0  0  0  0  0  0  0  0  0
    5.6720   -2.4050    0.0000 H   0  0  0  0  0  0  0  0  0  0  0  0
    5.6720    0.5950    0.0000 H   0  0  0  0  0  0  0  0  0  0  0  0
    6.5380    2.0950    0.0000 H   0  0  0  0  0  0  0  0  0  0  0  0
    6.5380    3.7150    0.0000 H   0  0  0  0  0  0  0  0  0  0  0  0
    5.1350    4.5250    0.0000 H   0  0  0  0  0  0  0  0  0  0  0  0
    3.7320    3.7150    0.0000 H   0  0  0  0  0  0  0  0  0  0  0  0
    2.0000   -2.2850    0.0000 H   0  0  0  0  0  0  0  0  0  0  0  0
    4.8059   -3.9050    0.0000 H   0  0  0  0  0  0  0  0  0  0  0  0
  1 10  1  0  0  0  0
  1 26  1  0  0  0  0
  2 11  1  0  0  0  0
  2 27  1  0  0  0  0
  3  9  2  0  0  0  0
  4  9  1  0  0  0  0
  4 13  1  0  0  0  0
  4 21  1  0  0  0  0
  5 13  1  0  0  0  0
  5 17  2  0  0  0  0
  6  7  2  0  0  0  0
  6  8  1  0  0  0  0
  6  9  1  0  0  0  0
  7 10  1  0  0  0  0
  7 18  1  0  0  0  0
  8 12  2  0  0  0  0
  8 19  1  0  0  0  0
 10 11  2  0  0  0  0
 11 12  1  0  0  0  0
 12 20  1  0  0  0  0
 13 14  2  0  0  0  0
 14 15  1  0  0  0  0
 14 22  1  0  0  0  0
 15 16  2  0  0  0  0
 15 23  1  0  0  0  0
 16 17  1  0  0  0  0
 16 24  1  0  0  0  0
 17 25  1  0  0  0  0
M  END
> <PUBCHEM_COMPOUND_CID>
586252

> <PUBCHEM_COMPOUND_CANONICALIZED>
1

> <PUBCHEM_CACTVS_COMPLEXITY>
273

> <PUBCHEM_CACTVS_HBOND_ACCEPTOR>
4

> <PUBCHEM_CACTVS_HBOND_DONOR>
3

> <PUBCHEM_CACTVS_ROTATABLE_BOND>
2

> <PUBCHEM_CACTVS_SUBSKEYS>
AAADccBzMAAAAAAAAAAAAAAAAAAAAAAAAAA8QAAAAAAAAAABwAAAHgAQCAAADATBmgQ9tpLIEgCoAjN3dACCgCk1IiAJ2CE+7NiJJvLCnZOEcQls1RPJ2ae63BLOIAABAAAAQABAAAIAAACAAAAAAAAAAA==

> <PUBCHEM_IUPAC_OPENEYE_NAME>
3,4-dihydroxy-N-(2-pyridyl)benzamide

> <PUBCHEM_IUPAC_CAS_NAME>
3,4-dihydroxy-N-(2-pyridinyl)benzamide

> <PUBCHEM_IUPAC_NAME>
3,4-dihydroxy-N-pyridin-2-ylbenzamide

> <PUBCHEM_IUPAC_SYSTEMATIC_NAME>
3,4-bis(oxidanyl)-N-pyridin-2-yl-benzamide

> <PUBCHEM_IUPAC_TRADITIONAL_NAME>
3,4-dihydroxy-N-(2-pyridyl)benzamide

> <PUBCHEM_IUPAC_INCHI>
InChI=1S/C12H10N2O3/c15-9-5-4-8(7-10(9)16)12(17)14-11-3-1-2-6-13-11/h1-7,15-16H,(H,13,14,17)

> <PUBCHEM_IUPAC_INCHIKEY>
ZJDKNRRVXPOOCG-UHFFFAOYSA-N

> <PUBCHEM_XLOGP3_AA>
1.3

> <PUBCHEM_EXACT_MASS>
230.069142

> <PUBCHEM_MOLECULAR_FORMULA>
C12H10N2O3

> <PUBCHEM_MOLECULAR_WEIGHT>
230.2194

> <PUBCHEM_OPENEYE_CAN_SMILES>
C1=CC=NC(=C1)NC(=O)C2=CC(=C(C=C2)O)O

> <PUBCHEM_OPENEYE_ISO_SMILES>
C1=CC=NC(=C1)NC(=O)C2=CC(=C(C=C2)O)O

> <PUBCHEM_CACTVS_TPSA>
82.4

> <PUBCHEM_MONOISOTOPIC_WEIGHT>
230.069142

> <PUBCHEM_TOTAL_CHARGE>
0

> <PUBCHEM_HEAVY_ATOM_COUNT>
17

> <PUBCHEM_ATOM_DEF_STEREO_COUNT>
0

> <PUBCHEM_ATOM_UDEF_STEREO_COUNT>
0

> <PUBCHEM_BOND_DEF_STEREO_COUNT>
0

> <PUBCHEM_BOND_UDEF_STEREO_COUNT>
0

> <PUBCHEM_ISOTOPIC_ATOM_COUNT>
0

> <PUBCHEM_COMPONENT_COUNT>
1

> <PUBCHEM_CACTVS_TAUTO_COUNT>
34

> <PUBCHEM_COORDINATE_TYPE>
1
5
255

> <PUBCHEM_BONDANNOTATIONS>
10  11  8
11  12  8
13  14  8
14  15  8
15  16  8
16  17  8
5  13  8
5  17  8
6  7  8
6  8  8
7  10  8
8  12  8

$$$$

