9333
  -OEChem-06261203372D

 21 20  0     1  0  0  0  0  0999 V2000
    5.1350    0.2890    0.0000 O   0  0  0  0  0  0  0  0  0  0  0  0
    6.0010   -1.2110    0.0000 O   0  0  0  0  0  0  0  0  0  0  0  0
    6.8671    0.2890    0.0000 N   0  0  0  0  0  0  0  0  0  0  0  0
    4.2690   -0.2110    0.0000 C   0  0  3  0  0  0  0  0  0  0  0  0
    3.7690    0.6550    0.0000 C   0  0  0  0  0  0  0  0  0  0  0  0
    4.7690   -1.0770    0.0000 C   0  0  0  0  0  0  0  0  0  0  0  0
    4.2690    1.5210    0.0000 C   0  0  0  0  0  0  0  0  0  0  0  0
    3.4030   -0.7110    0.0000 C   0  0  0  0  0  0  0  0  0  0  0  0
    6.0010   -0.2110    0.0000 C   0  0  0  0  0  0  0  0  0  0  0  0
    2.5369   -1.2110    0.0000 C   0  0  0  0  0  0  0  0  0  0  0  0
    3.2940    1.0535    0.0000 H   0  0  0  0  0  0  0  0  0  0  0  0
    3.2940    0.2565    0.0000 H   0  0  0  0  0  0  0  0  0  0  0  0
    4.2320   -1.3870    0.0000 H   0  0  0  0  0  0  0  0  0  0  0  0
    5.0790   -1.6140    0.0000 H   0  0  0  0  0  0  0  0  0  0  0  0
    5.3059   -0.7671    0.0000 H   0  0  0  0  0  0  0  0  0  0  0  0
    4.8059    1.2110    0.0000 H   0  0  0  0  0  0  0  0  0  0  0  0
    4.5790    2.0580    0.0000 H   0  0  0  0  0  0  0  0  0  0  0  0
    3.7320    1.8310    0.0000 H   0  0  0  0  0  0  0  0  0  0  0  0
    2.0000   -1.5210    0.0000 H   0  0  0  0  0  0  0  0  0  0  0  0
    7.4040   -0.0210    0.0000 H   0  0  0  0  0  0  0  0  0  0  0  0
    6.8671    0.9090    0.0000 H   0  0  0  0  0  0  0  0  0  0  0  0
  1  4  1  0  0  0  0
  1  9  1  0  0  0  0
  2  9  2  0  0  0  0
  3  9  1  0  0  0  0
  3 20  1  0  0  0  0
  3 21  1  0  0  0  0
  4  5  1  0  0  0  0
  4  6  1  0  0  0  0
  4  8  1  0  0  0  0
  5  7  1  0  0  0  0
  5 11  1  0  0  0  0
  5 12  1  0  0  0  0
  6 13  1  0  0  0  0
  6 14  1  0  0  0  0
  6 15  1  0  0  0  0
  7 16  1  0  0  0  0
  7 17  1  0  0  0  0
  7 18  1  0  0  0  0
  8 10  3  0  0  0  0
 10 19  1  0  0  0  0
M  END
> <PUBCHEM_COMPOUND_CID>
9333

> <PUBCHEM_COMPOUND_CANONICALIZED>
1

> <PUBCHEM_CACTVS_COMPLEXITY>
179

> <PUBCHEM_CACTVS_HBOND_ACCEPTOR>
2

> <PUBCHEM_CACTVS_HBOND_DONOR>
1

> <PUBCHEM_CACTVS_ROTATABLE_BOND>
4

> <PUBCHEM_CACTVS_SUBSKEYS>
AAADccBiMAAAAAAAAAAAAAAAAAAAAAAAAAAAAAAAAAAAAAAAAAAAHgAQAAAADESAgAACCABABABIGAAAGAgAAAAAAAAAAAAAAAEAAAAAAAAIAAAAAAAAAAAAAAAIAAAAAAAAAAAAAAAAAAAAAAAAAAAAAA==

> <PUBCHEM_IUPAC_OPENEYE_NAME>
(1-ethyl-1-methyl-prop-2-ynyl) carbamate

> <PUBCHEM_IUPAC_CAS_NAME>
carbamic acid 3-methylpent-1-yn-3-yl ester

> <PUBCHEM_IUPAC_NAME>
3-methylpent-1-yn-3-yl carbamate

> <PUBCHEM_IUPAC_SYSTEMATIC_NAME>
3-methylpent-1-yn-3-yl carbamate

> <PUBCHEM_IUPAC_TRADITIONAL_NAME>
carbamic acid (1-ethyl-1-methyl-prop-2-ynyl) ester

> <PUBCHEM_IUPAC_INCHI>
InChI=1S/C7H11NO2/c1-4-7(3,5-2)10-6(8)9/h1H,5H2,2-3H3,(H2,8,9)

> <PUBCHEM_IUPAC_INCHIKEY>
GXCDLJXPZVCHBX-UHFFFAOYSA-N

> <PUBCHEM_XLOGP3>
0.6

> <PUBCHEM_EXACT_MASS>
141.078979

> <PUBCHEM_MOLECULAR_FORMULA>
C7H11NO2

> <PUBCHEM_MOLECULAR_WEIGHT>
141.16774

> <PUBCHEM_OPENEYE_CAN_SMILES>
CCC(C)(C#C)OC(=O)N

> <PUBCHEM_OPENEYE_ISO_SMILES>
CCC(C)(C#C)OC(=O)N

> <PUBCHEM_CACTVS_TPSA>
52.3

> <PUBCHEM_MONOISOTOPIC_WEIGHT>
141.078979

> <PUBCHEM_TOTAL_CHARGE>
0

> <PUBCHEM_HEAVY_ATOM_COUNT>
10

> <PUBCHEM_ATOM_DEF_STEREO_COUNT>
0

> <PUBCHEM_ATOM_UDEF_STEREO_COUNT>
1

> <PUBCHEM_BOND_DEF_STEREO_COUNT>
0

> <PUBCHEM_BOND_UDEF_STEREO_COUNT>
0

> <PUBCHEM_ISOTOPIC_ATOM_COUNT>
0

> <PUBCHEM_COMPONENT_COUNT>
1

> <PUBCHEM_CACTVS_TAUTO_COUNT>
2

> <PUBCHEM_COORDINATE_TYPE>
1
5
255

> <PUBCHEM_BONDANNOTATIONS>
4  1  3

$$$$

