13530
  -OEChem-06241222393D

 10  9  0     0  0  0  0  0  0999 V2000
   -1.6838   -1.5487   -0.5856 Cl  0  0  0  0  0  0  0  0  0  0  0  0
   -2.2108    1.1507    0.4043 Cl  0  0  0  0  0  0  0  0  0  0  0  0
    2.9531    0.0027   -0.0308 Cl  0  0  0  0  0  0  0  0  0  0  0  0
    0.4030    1.0387   -0.8686 O   0  0  0  0  0  0  0  0  0  0  0  0
    0.2514    0.1733   -0.0059 C   0  0  0  0  0  0  0  0  0  0  0  0
   -1.1240   -0.2439    0.4667 C   0  0  0  0  0  0  0  0  0  0  0  0
    1.4110   -0.5728    0.6199 C   0  0  0  0  0  0  0  0  0  0  0  0
   -1.0844   -0.5979    1.5002 H   0  0  0  0  0  0  0  0  0  0  0  0
    1.3259   -1.6401    0.4025 H   0  0  0  0  0  0  0  0  0  0  0  0
    1.4126   -0.4054    1.6998 H   0  0  0  0  0  0  0  0  0  0  0  0
  1  6  1  0  0  0  0
  2  6  1  0  0  0  0
  3  7  1  0  0  0  0
  4  5  2  0  0  0  0
  5  6  1  0  0  0  0
  5  7  1  0  0  0  0
  6  8  1  0  0  0  0
  7  9  1  0  0  0  0
  7 10  1  0  0  0  0
M  END
> <PUBCHEM_COMPOUND_CID>
13530

> <PUBCHEM_CONFORMER_RMSD>
0.4

> <PUBCHEM_CONFORMER_DIVERSEORDER>
1
22
17
3
19
8
21
20
16
5
2
18
10
9
13
4
25
23
11
12
24
6
7
14
15

> <PUBCHEM_MMFF94_PARTIAL_CHARGES>
7
1 -0.29
2 -0.29
3 -0.29
4 -0.57
5 0.45
6 0.64
7 0.35

> <PUBCHEM_EFFECTIVE_ROTOR_COUNT>
2

> <PUBCHEM_PHARMACOPHORE_FEATURES>
1
1 4 acceptor

> <PUBCHEM_HEAVY_ATOM_COUNT>
7

> <PUBCHEM_ATOM_DEF_STEREO_COUNT>
0

> <PUBCHEM_ATOM_UDEF_STEREO_COUNT>
0

> <PUBCHEM_BOND_DEF_STEREO_COUNT>
0

> <PUBCHEM_BOND_UDEF_STEREO_COUNT>
0

> <PUBCHEM_ISOTOPIC_ATOM_COUNT>
0

> <PUBCHEM_COMPONENT_COUNT>
1

> <PUBCHEM_CACTVS_TAUTO_COUNT>
3

> <PUBCHEM_CONFORMER_ID>
000034DA00000001

> <PUBCHEM_MMFF94_ENERGY>
6.9149

> <PUBCHEM_FEATURE_SELFOVERLAP>
5.074

> <PUBCHEM_SHAPE_FINGERPRINT>
12932741 1 17167869646950005042
15310529 11 12823292399268768610
16714656 1 18341611580844107588
21040471 1 18189330337304873993
24536 1 17702664324424833537
29004967 10 16415190213202190600

> <PUBCHEM_SHAPE_MULTIPOLES>
143.8
3.68
1.38
0.86
2.03
0.28
0.03
-0.18
-0.14
-1.07
0.18
0.02
-0.02
-0.38

> <PUBCHEM_SHAPE_SELFOVERLAP>
239.796

> <PUBCHEM_SHAPE_VOLUME>
99.7

> <PUBCHEM_COORDINATE_TYPE>
2
5
10

$$$$

