17395318
  -OEChem-06241222493D

 47 49  0     0  0  0  0  0  0999 V2000
    4.2194    0.4805   -1.8955 S   0  0  0  0  0  0  0  0  0  0  0  0
    1.8449    2.0017    1.9162 O   0  0  0  0  0  0  0  0  0  0  0  0
    4.2667   -2.1449    0.7751 O   0  0  0  0  0  0  0  0  0  0  0  0
   -2.6217    0.4975    0.1285 N   0  0  0  0  0  0  0  0  0  0  0  0
    0.0227    1.5978    0.5345 N   0  0  0  0  0  0  0  0  0  0  0  0
    2.1060    2.2507   -0.3562 N   0  0  0  0  0  0  0  0  0  0  0  0
   -2.1133    1.5407   -0.7647 C   0  0  0  0  0  0  0  0  0  0  0  0
   -1.8172    0.1365    1.2994 C   0  0  0  0  0  0  0  0  0  0  0  0
   -0.5844    1.5316   -0.7986 C   0  0  0  0  0  0  0  0  0  0  0  0
   -0.8483    1.2609    1.6579 C   0  0  0  0  0  0  0  0  0  0  0  0
   -3.8657   -0.0921   -0.0836 C   0  0  0  0  0  0  0  0  0  0  0  0
    1.3603    1.9561    0.7815 C   0  0  0  0  0  0  0  0  0  0  0  0
   -4.1095   -1.3889    0.3691 C   0  0  0  0  0  0  0  0  0  0  0  0
   -4.8677    0.6141   -0.7493 C   0  0  0  0  0  0  0  0  0  0  0  0
    3.4989    2.6301   -0.2894 C   0  0  0  0  0  0  0  0  0  0  0  0
   -5.3551   -1.9794    0.1559 C   0  0  0  0  0  0  0  0  0  0  0  0
   -6.1133    0.0235   -0.9622 C   0  0  0  0  0  0  0  0  0  0  0  0
    4.4448    1.4395   -0.3668 C   0  0  0  0  0  0  0  0  0  0  0  0
   -6.3570   -1.2732   -0.5096 C   0  0  0  0  0  0  0  0  0  0  0  0
    4.9041   -1.0896   -1.3200 C   0  0  0  0  0  0  0  0  0  0  0  0
    3.9027   -1.8519   -0.5008 C   0  0  0  0  0  0  0  0  0  0  0  0
    2.6450   -2.3400   -0.7686 C   0  0  0  0  0  0  0  0  0  0  0  0
    2.2080   -2.9737    0.4192 C   0  0  0  0  0  0  0  0  0  0  0  0
    3.2299   -2.8274    1.3281 C   0  0  0  0  0  0  0  0  0  0  0  0
   -2.4672    1.3926   -1.7923 H   0  0  0  0  0  0  0  0  0  0  0  0
   -2.4738    2.5177   -0.4198 H   0  0  0  0  0  0  0  0  0  0  0  0
   -1.2550   -0.7807    1.0843 H   0  0  0  0  0  0  0  0  0  0  0  0
   -2.4572   -0.0485    2.1708 H   0  0  0  0  0  0  0  0  0  0  0  0
   -0.2169    0.6115   -1.2687 H   0  0  0  0  0  0  0  0  0  0  0  0
   -0.2452    2.3796   -1.4018 H   0  0  0  0  0  0  0  0  0  0  0  0
   -1.3966    2.1734    1.9222 H   0  0  0  0  0  0  0  0  0  0  0  0
   -0.2516    0.9742    2.5301 H   0  0  0  0  0  0  0  0  0  0  0  0
    1.7120    2.1252   -1.2803 H   0  0  0  0  0  0  0  0  0  0  0  0
   -3.3472   -1.9724    0.8777 H   0  0  0  0  0  0  0  0  0  0  0  0
   -4.7190    1.6316   -1.0997 H   0  0  0  0  0  0  0  0  0  0  0  0
    3.6774    3.1788    0.6421 H   0  0  0  0  0  0  0  0  0  0  0  0
    3.6840    3.3244   -1.1170 H   0  0  0  0  0  0  0  0  0  0  0  0
   -5.5443   -2.9903    0.5053 H   0  0  0  0  0  0  0  0  0  0  0  0
   -6.8951    0.5743   -1.4770 H   0  0  0  0  0  0  0  0  0  0  0  0
    4.2689    0.7939    0.4998 H   0  0  0  0  0  0  0  0  0  0  0  0
    5.4823    1.7859   -0.3236 H   0  0  0  0  0  0  0  0  0  0  0  0
   -7.3269   -1.7330   -0.6753 H   0  0  0  0  0  0  0  0  0  0  0  0
    5.1633   -1.6897   -2.1988 H   0  0  0  0  0  0  0  0  0  0  0  0
    5.8303   -0.9175   -0.7619 H   0  0  0  0  0  0  0  0  0  0  0  0
    2.1067   -2.2532   -1.7016 H   0  0  0  0  0  0  0  0  0  0  0  0
    1.2657   -3.4734    0.5914 H   0  0  0  0  0  0  0  0  0  0  0  0
    3.3672   -3.1347    2.3545 H   0  0  0  0  0  0  0  0  0  0  0  0
  1 18  1  0  0  0  0
  1 20  1  0  0  0  0
  2 12  2  0  0  0  0
  3 21  1  0  0  0  0
  3 24  1  0  0  0  0
  4  7  1  0  0  0  0
  4  8  1  0  0  0  0
  4 11  1  0  0  0  0
  5  9  1  0  0  0  0
  5 10  1  0  0  0  0
  5 12  1  0  0  0  0
  6 12  1  0  0  0  0
  6 15  1  0  0  0  0
  6 33  1  0  0  0  0
  7  9  1  0  0  0  0
  7 25  1  0  0  0  0
  7 26  1  0  0  0  0
  8 10  1  0  0  0  0
  8 27  1  0  0  0  0
  8 28  1  0  0  0  0
  9 29  1  0  0  0  0
  9 30  1  0  0  0  0
 10 31  1  0  0  0  0
 10 32  1  0  0  0  0
 11 13  2  0  0  0  0
 11 14  1  0  0  0  0
 13 16  1  0  0  0  0
 13 34  1  0  0  0  0
 14 17  2  0  0  0  0
 14 35  1  0  0  0  0
 15 18  1  0  0  0  0
 15 36  1  0  0  0  0
 15 37  1  0  0  0  0
 16 19  2  0  0  0  0
 16 38  1  0  0  0  0
 17 19  1  0  0  0  0
 17 39  1  0  0  0  0
 18 40  1  0  0  0  0
 18 41  1  0  0  0  0
 19 42  1  0  0  0  0
 20 21  1  0  0  0  0
 20 43  1  0  0  0  0
 20 44  1  0  0  0  0
 21 22  2  0  0  0  0
 22 23  1  0  0  0  0
 22 45  1  0  0  0  0
 23 24  2  0  0  0  0
 23 46  1  0  0  0  0
 24 47  1  0  0  0  0
M  END
> <PUBCHEM_COMPOUND_CID>
17395318

> <PUBCHEM_CONFORMER_RMSD>
1

> <PUBCHEM_CONFORMER_DIVERSEORDER>
1
21
70
68
45
14
69
100
34
103
67
38
74
92
11
94
87
83
32
97
75
65
33
36
72
53
3
57
23
101
62
77
84
22
42
90
20
40
18
44
43
54
89
99
4
96
60
91
82
7
5
28
88
31
27
78
19
41
63
26
6
35
95
79
50
71
30
76
2
93
25
56
59
55
66
13
49
48
98
15
46
29
85
37
64
86
9
73
16
52
47
81
8
39
80
58
24
10
104
102
61
51
12
17

> <PUBCHEM_MMFF94_PARTIAL_CHARGES>
33
1 -0.46
10 0.3
11 0.1
12 0.69
13 -0.15
14 -0.15
15 0.3
16 -0.15
17 -0.15
18 0.23
19 -0.15
2 -0.57
20 0.41
21 -0.04
22 -0.15
23 -0.15
24 -0.01
3 -0.28
33 0.37
34 0.15
35 0.15
38 0.15
39 0.15
4 -0.84
42 0.15
45 0.15
46 0.15
47 0.15
5 -0.66
6 -0.73
7 0.37
8 0.37
9 0.3

> <PUBCHEM_EFFECTIVE_ROTOR_COUNT>
9.2

> <PUBCHEM_PHARMACOPHORE_FEATURES>
7
1 2 acceptor
1 3 acceptor
1 4 cation
1 6 donor
5 3 21 22 23 24 rings
6 11 13 14 16 17 19 rings
6 4 5 7 8 9 10 rings

> <PUBCHEM_HEAVY_ATOM_COUNT>
24

> <PUBCHEM_ATOM_DEF_STEREO_COUNT>
0

> <PUBCHEM_ATOM_UDEF_STEREO_COUNT>
0

> <PUBCHEM_BOND_DEF_STEREO_COUNT>
0

> <PUBCHEM_BOND_UDEF_STEREO_COUNT>
0

> <PUBCHEM_ISOTOPIC_ATOM_COUNT>
0

> <PUBCHEM_COMPONENT_COUNT>
1

> <PUBCHEM_CACTVS_TAUTO_COUNT>
2

> <PUBCHEM_CONFORMER_ID>
01096E7600000001

> <PUBCHEM_MMFF94_ENERGY>
53.607

> <PUBCHEM_FEATURE_SELFOVERLAP>
35.52

> <PUBCHEM_SHAPE_FINGERPRINT>
11069576 57 18200024196398826990
11796584 16 18040990727003152261
12166972 35 17916306215988548218
13533116 47 18187649068404895937
1361 2 18057878040058174908
14251740 57 17895190047815951422
14251751 18 18270409393920383682
14347332 77 18411985801706974069
14910302 57 18202012031669209261
14931854 50 18339060650192348878
15003188 105 18341610456217343166
15110567 62 18412259532324757018
15183329 4 18336263535555924637
15664445 248 17703227313118065140
17134984 74 18340769234694458455
17492 54 18271789221696070846
19026451 147 18340491170544260314
20567600 247 18335987476210954567
20645477 70 18341899562675452232
21033650 10 16773521083149979381
21703447 108 18113624460528585064
23559900 14 18341334405525695509
23596394 208 18343586247877363436
239999 70 18187919552607912204
3004659 81 18342739645530778390
33382 64 18336540530522848041
397830 11 7781508270485377061
444735 86 18046920277079495359
4573279 79 15264286394727893130
46194498 28 17845653642595886613
463206 1 18336547097090194930
484989 97 18269821052664296530
6433294 58 18411980264966686702
960060 61 18130783464655082004

> <PUBCHEM_SHAPE_MULTIPOLES>
471.08
14.21
3.5
1.5
15.12
1.23
0.21
6.34
-5.19
-4.39
0.74
-1.03
-0.24
-0.22

> <PUBCHEM_SHAPE_SELFOVERLAP>
969.702

> <PUBCHEM_SHAPE_VOLUME>
271.9

> <PUBCHEM_COORDINATE_TYPE>
2
5
10

$$$$

