47205802
  -OEChem-06241223003D

 33 34  0     0  0  0  0  0  0999 V2000
   -5.9553   -0.3848    0.3186 F   0  0  0  0  0  0  0  0  0  0  0  0
   -5.0260    1.3991    1.1441 F   0  0  0  0  0  0  0  0  0  0  0  0
   -5.2400    1.1862   -1.0036 F   0  0  0  0  0  0  0  0  0  0  0  0
    4.1211    1.0314    1.5219 O   0  0  0  0  0  0  0  0  0  0  0  0
    1.6691   -0.9428   -0.3885 O   0  0  0  0  0  0  0  0  0  0  0  0
    3.5967    0.8995   -0.7446 N   0  0  0  0  0  0  0  0  0  0  0  0
   -0.0386    0.6772   -0.3771 N   0  0  0  0  0  0  0  0  0  0  0  0
    5.7879    0.2487    0.0579 C   0  0  0  0  0  0  0  0  0  0  0  0
    6.2818   -0.9722    0.7769 C   0  0  0  0  0  0  0  0  0  0  0  0
    5.9293   -1.0505   -0.6797 C   0  0  0  0  0  0  0  0  0  0  0  0
    4.4218    0.7669    0.3638 C   0  0  0  0  0  0  0  0  0  0  0  0
    2.2468    1.3771   -0.6743 C   0  0  0  0  0  0  0  0  0  0  0  0
    1.2868    0.2203   -0.4639 C   0  0  0  0  0  0  0  0  0  0  0  0
   -1.1993   -0.0734   -0.1869 C   0  0  0  0  0  0  0  0  0  0  0  0
   -2.4396    0.5622   -0.1262 C   0  0  0  0  0  0  0  0  0  0  0  0
   -3.5996   -0.1888    0.0641 C   0  0  0  0  0  0  0  0  0  0  0  0
   -1.1191   -1.4600   -0.0574 C   0  0  0  0  0  0  0  0  0  0  0  0
   -3.5193   -1.5755    0.1935 C   0  0  0  0  0  0  0  0  0  0  0  0
   -2.2792   -2.2111    0.1325 C   0  0  0  0  0  0  0  0  0  0  0  0
   -4.9254    0.4905    0.1291 C   0  0  0  0  0  0  0  0  0  0  0  0
    6.5256    1.0184   -0.1456 H   0  0  0  0  0  0  0  0  0  0  0  0
    5.6229   -1.4673    1.4796 H   0  0  0  0  0  0  0  0  0  0  0  0
    7.3308   -1.0107    1.0443 H   0  0  0  0  0  0  0  0  0  0  0  0
    6.7412   -1.1398   -1.3912 H   0  0  0  0  0  0  0  0  0  0  0  0
    5.0397   -1.6079   -0.9466 H   0  0  0  0  0  0  0  0  0  0  0  0
    3.9579    0.6415   -1.6584 H   0  0  0  0  0  0  0  0  0  0  0  0
    2.1463    2.0882    0.1519 H   0  0  0  0  0  0  0  0  0  0  0  0
    2.0135    1.8765   -1.6195 H   0  0  0  0  0  0  0  0  0  0  0  0
   -0.1812    1.6815   -0.4626 H   0  0  0  0  0  0  0  0  0  0  0  0
   -2.5070    1.6432   -0.2266 H   0  0  0  0  0  0  0  0  0  0  0  0
   -0.1976   -2.0237   -0.0932 H   0  0  0  0  0  0  0  0  0  0  0  0
   -4.4106   -2.1787    0.3422 H   0  0  0  0  0  0  0  0  0  0  0  0
   -2.2179   -3.2909    0.2333 H   0  0  0  0  0  0  0  0  0  0  0  0
  1 20  1  0  0  0  0
  2 20  1  0  0  0  0
  3 20  1  0  0  0  0
  4 11  2  0  0  0  0
  5 13  2  0  0  0  0
  6 11  1  0  0  0  0
  6 12  1  0  0  0  0
  6 26  1  0  0  0  0
  7 13  1  0  0  0  0
  7 14  1  0  0  0  0
  7 29  1  0  0  0  0
  8  9  1  0  0  0  0
  8 10  1  0  0  0  0
  8 11  1  0  0  0  0
  8 21  1  0  0  0  0
  9 10  1  0  0  0  0
  9 22  1  0  0  0  0
  9 23  1  0  0  0  0
 10 24  1  0  0  0  0
 10 25  1  0  0  0  0
 12 13  1  0  0  0  0
 12 27  1  0  0  0  0
 12 28  1  0  0  0  0
 14 15  1  0  0  0  0
 14 17  2  0  0  0  0
 15 16  2  0  0  0  0
 15 30  1  0  0  0  0
 16 18  1  0  0  0  0
 16 20  1  0  0  0  0
 17 19  1  0  0  0  0
 17 31  1  0  0  0  0
 18 19  2  0  0  0  0
 18 32  1  0  0  0  0
 19 33  1  0  0  0  0
M  END
> <PUBCHEM_COMPOUND_CID>
47205802

> <PUBCHEM_CONFORMER_RMSD>
0.8

> <PUBCHEM_CONFORMER_DIVERSEORDER>
1
6
7
59
13
28
37
50
43
39
41
22
17
36
9
18
24
51
32
48
11
19
33
56
31
25
44
52
5
60
40
54
23
4
16
57
42
14
29
55
10
35
26
53
8
47
30
34
45
2
46
49
3
21
20
38
27
58
12
15

> <PUBCHEM_MMFF94_PARTIAL_CHARGES>
31
1 -0.34
10 -0.2
11 0.63
12 0.36
13 0.57
14 0.12
15 -0.15
16 -0.14
17 -0.15
18 -0.15
19 -0.15
2 -0.34
20 1.16
21 0.1
22 0.1
23 0.1
24 0.1
25 0.1
26 0.37
29 0.37
3 -0.34
30 0.15
31 0.15
32 0.15
33 0.15
4 -0.57
5 -0.57
6 -0.73
7 -0.55
8 -0.1
9 -0.2

> <PUBCHEM_EFFECTIVE_ROTOR_COUNT>
7.6

> <PUBCHEM_PHARMACOPHORE_FEATURES>
5
1 4 acceptor
1 5 acceptor
1 6 donor
1 7 donor
6 14 15 16 17 18 19 rings

> <PUBCHEM_HEAVY_ATOM_COUNT>
20

> <PUBCHEM_ATOM_DEF_STEREO_COUNT>
0

> <PUBCHEM_ATOM_UDEF_STEREO_COUNT>
0

> <PUBCHEM_BOND_DEF_STEREO_COUNT>
0

> <PUBCHEM_BOND_UDEF_STEREO_COUNT>
0

> <PUBCHEM_ISOTOPIC_ATOM_COUNT>
0

> <PUBCHEM_COMPONENT_COUNT>
1

> <PUBCHEM_CACTVS_TAUTO_COUNT>
4

> <PUBCHEM_CONFORMER_ID>
02D04DAA00000001

> <PUBCHEM_MMFF94_ENERGY>
42.8907

> <PUBCHEM_FEATURE_SELFOVERLAP>
25.371

> <PUBCHEM_SHAPE_FINGERPRINT>
11089746 13 17603591828524234640
11287383 113 10879990259791534284
11405975 8 18337107861226840704
11796584 16 18335417951011126254
12236239 1 17775565325538521676
13167823 11 18130789997690781090
13533116 47 17604146030209867254
14251718 22 9295289443455561426
14251758 9 18411698794505898310
14251764 18 18341891853293337550
14341114 176 18411417298239318256
14420673 8 18343300405441600274
14528608 73 8430317939962682722
15042514 8 18199463269427528467
15183329 4 18413387652977234798
15348495 7 18115312168179885074
15375358 24 17822003194763383791
15531645 54 18409448098598982918
15537594 2 17131840858800771746
15788980 27 18201717327881730214
17834072 33 10087640390673692682
1813 80 16845573128232131110
19141452 34 18412263909154797334
19489759 90 17894630357478820489
20281389 69 18343582932226193589
21065198 57 18263083206558679672
21267235 1 18201149988355908659
2215653 11 18260546745187491078
23016692 55 18341885308728568926
23035841 295 17988926686922683842
23218964 4 18272371983763766980
23402539 116 18333736801467684981
23559900 14 18333731291335860712
23622692 88 18060702784060691319
26918003 58 18187082845496341410
3004659 81 18272928320211253732
335352 9 18413670205610929125
351380 180 17385444310911140776
351380 3 17275108323358675992
3545911 37 18410008840654539855
4073 2 17916300542536541490
4214541 1 18412825763521981031
4340502 62 15357694184783070468
465052 167 17632856434889650546
5104073 3 18269269075950838248
5207 217 7204485633068827356
5385378 56 18264761228864802571
559249 180 18342179955278413927
573450 72 18270967834163405978
5924683 9 17896325705387785503
633830 44 17703512074060598518
7226269 152 18333448763834089833
9965369 4 18410575119080911258

> <PUBCHEM_SHAPE_MULTIPOLES>
368.07
16.14
1.66
0.91
7.86
0.55
-0.15
-0.22
-2.22
-0.7
-0.02
0.48
-0.19
0.1

> <PUBCHEM_SHAPE_SELFOVERLAP>
770.71

> <PUBCHEM_SHAPE_VOLUME>
208.9

> <PUBCHEM_COORDINATE_TYPE>
2
5
10

$$$$

