7847032
  -OEChem-06241222483D

 47 49  0     1  0  0  0  0  0999 V2000
   -3.9221    0.5890    1.0049 S   0  0  0  0  0  0  0  0  0  0  0  0
    4.8522    0.4034   -0.3476 O   0  0  0  0  0  0  0  0  0  0  0  0
   -0.9358   -1.9486    0.6161 O   0  0  0  0  0  0  0  0  0  0  0  0
    0.3851   -0.0826    1.6992 O   0  0  0  0  0  0  0  0  0  0  0  0
   -1.3526   -3.7474   -0.7672 O   0  0  0  0  0  0  0  0  0  0  0  0
    2.4136   -0.5626    0.6766 N   0  0  0  0  0  0  0  0  0  0  0  0
   -2.6229   -0.0753   -1.1219 N   0  0  0  0  0  0  0  0  0  0  0  0
    4.1174   -0.5762   -1.0935 C   0  0  2  0  0  0  0  0  0  0  0  0
    3.9754    1.3023    0.3449 C   0  0  1  0  0  0  0  0  0  0  0  0
    3.2701   -1.4258   -0.1439 C   0  0  0  0  0  0  0  0  0  0  0  0
    3.1265    0.5233    1.3495 C   0  0  0  0  0  0  0  0  0  0  0  0
    5.1209   -1.4340   -1.8503 C   0  0  0  0  0  0  0  0  0  0  0  0
    4.8349    2.3453    1.0438 C   0  0  0  0  0  0  0  0  0  0  0  0
    1.0586   -0.7687    0.9263 C   0  0  0  0  0  0  0  0  0  0  0  0
    0.4033   -1.9073    0.1865 C   0  0  0  0  0  0  0  0  0  0  0  0
   -3.1269   -2.8371    0.6253 C   0  0  0  0  0  0  0  0  0  0  0  0
   -4.0124   -1.8908   -0.1868 C   0  0  0  0  0  0  0  0  0  0  0  0
   -1.7279   -2.9275    0.0594 C   0  0  0  0  0  0  0  0  0  0  0  0
   -3.4498   -0.4928   -0.2141 C   0  0  0  0  0  0  0  0  0  0  0  0
   -2.9223    1.7907    0.2772 C   0  0  0  0  0  0  0  0  0  0  0  0
   -2.3051    1.2481   -0.8539 C   0  0  0  0  0  0  0  0  0  0  0  0
   -2.7003    3.1178    0.6784 C   0  0  0  0  0  0  0  0  0  0  0  0
   -1.4352    2.0650   -1.6084 C   0  0  0  0  0  0  0  0  0  0  0  0
   -1.8350    3.9047   -0.0858 C   0  0  0  0  0  0  0  0  0  0  0  0
   -1.2096    3.3871   -1.2147 C   0  0  0  0  0  0  0  0  0  0  0  0
    3.4758   -0.0569   -1.8170 H   0  0  0  0  0  0  0  0  0  0  0  0
    3.3343    1.8038   -0.3914 H   0  0  0  0  0  0  0  0  0  0  0  0
    3.9100   -1.9745    0.5581 H   0  0  0  0  0  0  0  0  0  0  0  0
    2.6914   -2.1582   -0.7100 H   0  0  0  0  0  0  0  0  0  0  0  0
    2.4273    1.1907    1.8634 H   0  0  0  0  0  0  0  0  0  0  0  0
    3.7612    0.0501    2.1088 H   0  0  0  0  0  0  0  0  0  0  0  0
    5.7295   -0.8113   -2.5150 H   0  0  0  0  0  0  0  0  0  0  0  0
    5.8145   -1.9280   -1.1610 H   0  0  0  0  0  0  0  0  0  0  0  0
    4.6183   -2.1979   -2.4511 H   0  0  0  0  0  0  0  0  0  0  0  0
    4.2194    3.0698    1.5855 H   0  0  0  0  0  0  0  0  0  0  0  0
    5.5284    1.8748    1.7496 H   0  0  0  0  0  0  0  0  0  0  0  0
    5.4483    2.8845    0.3139 H   0  0  0  0  0  0  0  0  0  0  0  0
    0.4475   -1.7125   -0.8901 H   0  0  0  0  0  0  0  0  0  0  0  0
    0.9028   -2.8466    0.4447 H   0  0  0  0  0  0  0  0  0  0  0  0
   -3.0673   -2.5324    1.6772 H   0  0  0  0  0  0  0  0  0  0  0  0
   -3.5538   -3.8466    0.6229 H   0  0  0  0  0  0  0  0  0  0  0  0
   -4.0839   -2.2533   -1.2202 H   0  0  0  0  0  0  0  0  0  0  0  0
   -5.0309   -1.8965    0.2192 H   0  0  0  0  0  0  0  0  0  0  0  0
   -3.1850    3.5285    1.5588 H   0  0  0  0  0  0  0  0  0  0  0  0
   -0.9404    1.6704   -2.4913 H   0  0  0  0  0  0  0  0  0  0  0  0
   -1.6491    4.9346    0.2076 H   0  0  0  0  0  0  0  0  0  0  0  0
   -0.5392    4.0137   -1.7964 H   0  0  0  0  0  0  0  0  0  0  0  0
  1 19  1  0  0  0  0
  1 20  1  0  0  0  0
  2  8  1  0  0  0  0
  2  9  1  0  0  0  0
  3 15  1  0  0  0  0
  3 18  1  0  0  0  0
  4 14  2  0  0  0  0
  5 18  2  0  0  0  0
  6 10  1  0  0  0  0
  6 11  1  0  0  0  0
  6 14  1  0  0  0  0
  7 19  2  0  0  0  0
  7 21  1  0  0  0  0
  8 10  1  0  0  0  0
  8 12  1  0  0  0  0
  8 26  1  0  0  0  0
  9 11  1  0  0  0  0
  9 13  1  0  0  0  0
  9 27  1  0  0  0  0
 10 28  1  0  0  0  0
 10 29  1  0  0  0  0
 11 30  1  0  0  0  0
 11 31  1  0  0  0  0
 12 32  1  0  0  0  0
 12 33  1  0  0  0  0
 12 34  1  0  0  0  0
 13 35  1  0  0  0  0
 13 36  1  0  0  0  0
 13 37  1  0  0  0  0
 14 15  1  0  0  0  0
 15 38  1  0  0  0  0
 15 39  1  0  0  0  0
 16 17  1  0  0  0  0
 16 18  1  0  0  0  0
 16 40  1  0  0  0  0
 16 41  1  0  0  0  0
 17 19  1  0  0  0  0
 17 42  1  0  0  0  0
 17 43  1  0  0  0  0
 20 21  1  0  0  0  0
 20 22  2  0  0  0  0
 21 23  2  0  0  0  0
 22 24  1  0  0  0  0
 22 44  1  0  0  0  0
 23 25  1  0  0  0  0
 23 45  1  0  0  0  0
 24 25  2  0  0  0  0
 24 46  1  0  0  0  0
 25 47  1  0  0  0  0
M  END
> <PUBCHEM_COMPOUND_CID>
7847032

> <PUBCHEM_CONFORMER_RMSD>
1

> <PUBCHEM_CONFORMER_DIVERSEORDER>
1
191
329
308
68
322
7
21
60
179
189
71
232
139
131
96
49
171
217
214
87
319
261
271
163
151
8
35
239
283
348
74
63
219
194
342
355
187
349
299
238
39
17
86
56
90
26
180
316
192
33
211
168
290
6
144
237
12
117
280
210
110
324
183
3
353
281
161
225
136
81
112
295
327
193
188
331
325
159
234
356
147
254
94
284
176
108
277
345
165
204
201
338
19
118
37
268
65
145
304
244
99
54
91
196
343
255
140
313
350
141
46
149
107
5
175
105
44
14
100
32
66
227
160
341
174
130
182
106
129
84
61
116
138
235
157
89
104
266
213
292
218
257
230
83
164
184
133
247
23
135
120
340
351
41
76
199
231
248
75
173
126
215
78
42
101
82
122
315
153
236
134
258
273
34
47
260
178
48
36
11
336
190
321
64
294
312
132
279
251
152
233
229
167
314
70
333
150
330
335
95
88
275
226
69
154
111
148
317
249
2
156
288
301
291
318
252
80
307
79
224
212
114
208
264
72
58
200
256
300
172
128
207
102
309
297
169
93
306
347
293
40
298
31
326
186
13
121
310
45
28
4
15
269
53
77
223
282
323
142
52
205
302
27
113
197
305
240
242
262
344
67
158
92
243
109
143
289
337
29
334
185
123
328
228
203
267
253
162
177
43
146
124
320
286
137
155
51
303
285
115
170
222
221
59
206
50
10
73
85
265
9
57
245
346
103
296
195
263
127
20
270
38
16
246
209
272
259
276
220
216
25
332
119
198
352
250
18
166
274
202
98
311
287
24
339
181
278
241
55
125
30
22
354
97
62

> <PUBCHEM_MMFF94_PARTIAL_CHARGES>
27
1 -0.08
10 0.3
11 0.3
14 0.57
15 0.34
16 0.06
17 0.18
18 0.66
19 0.2
2 -0.56
20 0.04
21 0.23
22 -0.15
23 -0.15
24 -0.15
25 -0.15
3 -0.43
4 -0.57
44 0.15
45 0.15
46 0.15
47 0.15
5 -0.57
6 -0.66
7 -0.57
8 0.28
9 0.28

> <PUBCHEM_EFFECTIVE_ROTOR_COUNT>
8.2

> <PUBCHEM_PHARMACOPHORE_FEATURES>
7
1 2 acceptor
1 4 acceptor
1 5 acceptor
1 7 acceptor
5 1 7 19 20 21 rings
6 2 6 8 9 10 11 rings
6 20 21 22 23 24 25 rings

> <PUBCHEM_HEAVY_ATOM_COUNT>
25

> <PUBCHEM_ATOM_DEF_STEREO_COUNT>
2

> <PUBCHEM_ATOM_UDEF_STEREO_COUNT>
0

> <PUBCHEM_BOND_DEF_STEREO_COUNT>
0

> <PUBCHEM_BOND_UDEF_STEREO_COUNT>
0

> <PUBCHEM_ISOTOPIC_ATOM_COUNT>
0

> <PUBCHEM_COMPONENT_COUNT>
1

> <PUBCHEM_CACTVS_TAUTO_COUNT>
2

> <PUBCHEM_CONFORMER_ID>
0077BC7800000001

> <PUBCHEM_MMFF94_ENERGY>
42.7867

> <PUBCHEM_FEATURE_SELFOVERLAP>
35.594

> <PUBCHEM_SHAPE_FINGERPRINT>
10006869 2 18270408316828273547
10165383 225 18046611576446941905
10498660 4 18271257078973130613
10670039 82 18272363213725502414
1100329 8 18053383189737939787
11595378 159 17988658362850789416
12173636 292 18266467679400643229
13224815 77 17560799999960454228
14081887 123 18341061730683617228
14251751 93 18264209282284732004
14251757 17 18259981600447778514
14279260 333 17171225524506561870
14713325 29 18269820042914374427
14840074 17 18059281163198268269
14910302 57 18259987059082264074
14955137 171 18196916796329213331
15021287 119 16987715878605915698
151778 21 17618221049796706353
15575132 122 18059007410488288685
15961568 22 18053386505315750116
18785283 64 16970262428336619545
21623110 236 18198059166829058745
23536364 44 17754154690731089038
23557571 272 18268149760466113274
23559900 14 18113333133672044938
238 59 16975368513048991381
445580 44 17131572564825738092
469060 322 17060340695477340093
5252454 2 18055348304093762524
5281201 14 18186795873156794158
5283173 99 18335700568506692442
6287921 2 18340195384266917084
7399639 24 17971481698081663426

> <PUBCHEM_SHAPE_MULTIPOLES>
484.9
9.92
4.65
1.43
12.01
1
-0.2
0.52
-0.69
-4.18
-0.52
0.82
0.3
1.49

> <PUBCHEM_SHAPE_SELFOVERLAP>
1007.17

> <PUBCHEM_SHAPE_VOLUME>
277.3

> <PUBCHEM_COORDINATE_TYPE>
2
5
10

$$$$

