8149
  -OEChem-06261202383D

 18 17  0     0  0  0  0  0  0999 V2000
    0.0010   -0.6582    0.0056 N   0  0  0  0  0  0  0  0  0  0  0  0
   -4.6322    0.7578   -0.0087 N   0  0  0  0  0  0  0  0  0  0  0  0
    4.6318    0.7582    0.0040 N   0  0  0  0  0  0  0  0  0  0  0  0
   -1.2002    0.1687    0.0116 C   0  0  0  0  0  0  0  0  0  0  0  0
    1.1999    0.1679    0.0017 C   0  0  0  0  0  0  0  0  0  0  0  0
   -2.4493   -0.7089    0.0049 C   0  0  0  0  0  0  0  0  0  0  0  0
    2.4493   -0.7091   -0.0129 C   0  0  0  0  0  0  0  0  0  0  0  0
   -3.6684    0.1116   -0.0026 C   0  0  0  0  0  0  0  0  0  0  0  0
    3.6682    0.1118   -0.0036 C   0  0  0  0  0  0  0  0  0  0  0  0
   -1.2116    0.8164    0.8978 H   0  0  0  0  0  0  0  0  0  0  0  0
   -1.2111    0.8206   -0.8715 H   0  0  0  0  0  0  0  0  0  0  0  0
    1.2055    0.8196   -0.8815 H   0  0  0  0  0  0  0  0  0  0  0  0
    1.2174    0.8164    0.8873 H   0  0  0  0  0  0  0  0  0  0  0  0
    0.0038   -1.2686    0.8222 H   0  0  0  0  0  0  0  0  0  0  0  0
   -2.4459   -1.3610   -0.8769 H   0  0  0  0  0  0  0  0  0  0  0  0
   -2.4571   -1.3608    0.8868 H   0  0  0  0  0  0  0  0  0  0  0  0
    2.4550   -1.3725    0.8605 H   0  0  0  0  0  0  0  0  0  0  0  0
    2.4489   -1.3496   -0.9031 H   0  0  0  0  0  0  0  0  0  0  0  0
  1  4  1  0  0  0  0
  1  5  1  0  0  0  0
  1 14  1  0  0  0  0
  2  8  3  0  0  0  0
  3  9  3  0  0  0  0
  4  6  1  0  0  0  0
  4 10  1  0  0  0  0
  4 11  1  0  0  0  0
  5  7  1  0  0  0  0
  5 12  1  0  0  0  0
  5 13  1  0  0  0  0
  6  8  1  0  0  0  0
  6 15  1  0  0  0  0
  6 16  1  0  0  0  0
  7  9  1  0  0  0  0
  7 17  1  0  0  0  0
  7 18  1  0  0  0  0
M  END
> <PUBCHEM_COMPOUND_CID>
8149

> <PUBCHEM_CONFORMER_RMSD>
0.6

> <PUBCHEM_CONFORMER_DIVERSEORDER>
1
14
11
9
17
3
16
13
18
5
8
10
4
7
6
12
15
2

> <PUBCHEM_MMFF94_PARTIAL_CHARGES>
10
1 -0.9
14 0.36
2 -0.56
3 -0.56
4 0.27
5 0.27
6 0.2
7 0.2
8 0.36
9 0.36

> <PUBCHEM_EFFECTIVE_ROTOR_COUNT>
4

> <PUBCHEM_PHARMACOPHORE_FEATURES>
4
1 1 cation
1 1 donor
1 2 acceptor
1 3 acceptor

> <PUBCHEM_HEAVY_ATOM_COUNT>
9

> <PUBCHEM_ATOM_DEF_STEREO_COUNT>
0

> <PUBCHEM_ATOM_UDEF_STEREO_COUNT>
0

> <PUBCHEM_BOND_DEF_STEREO_COUNT>
0

> <PUBCHEM_BOND_UDEF_STEREO_COUNT>
0

> <PUBCHEM_ISOTOPIC_ATOM_COUNT>
0

> <PUBCHEM_COMPONENT_COUNT>
1

> <PUBCHEM_CACTVS_TAUTO_COUNT>
1

> <PUBCHEM_CONFORMER_ID>
00001FD500000001

> <PUBCHEM_MMFF94_ENERGY>
-2.3607

> <PUBCHEM_FEATURE_SELFOVERLAP>
20.297

> <PUBCHEM_SHAPE_FINGERPRINT>
11062470 55 18410855460128213762
11987891 38 9223234056783319548
13690532 89 8574714598166439444
14123238 8 17846779594168351887
17834076 25 18407477760455145684
18342897 14 18342738515811915668
20211469 26 7925912582220354879
20645477 70 17895753018859464318
20719005 15 18411136930915504139
20828058 44 15626218005297650201
21119208 17 15864070966114357508
22485316 2 18410577283686659270
42788 4 18410573989446444421

> <PUBCHEM_SHAPE_MULTIPOLES>
170.27
9.57
0.86
0.59
0
0.04
0
-2.59
-0.02
0
0
0
0.01
0.01

> <PUBCHEM_SHAPE_SELFOVERLAP>
308.87

> <PUBCHEM_SHAPE_VOLUME>
104.8

> <PUBCHEM_COORDINATE_TYPE>
2
5
10

$$$$

