3570
  -OEChem-06251223312D

 42 47  0     0  0  0  0  0  0999 V2000
    7.3723   -1.7552    0.0000 O   0  0  0  0  0  0  0  0  0  0  0  0
    7.3723    1.7552    0.0000 O   0  0  0  0  0  0  0  0  0  0  0  0
    3.6464   -1.1671    0.0000 N   0  0  0  0  0  0  0  0  0  0  0  0
    3.6464    1.1671    0.0000 N   0  0  0  0  0  0  0  0  0  0  0  0
    7.6452    0.0000    0.0000 N   0  0  0  0  0  0  0  0  0  0  0  0
    4.3834   -0.5000    0.0000 C   0  0  0  0  0  0  0  0  0  0  0  0
    5.2494   -1.0000    0.0000 C   0  0  0  0  0  0  0  0  0  0  0  0
    4.3834    0.5000    0.0000 C   0  0  0  0  0  0  0  0  0  0  0  0
    5.2494    1.0000    0.0000 C   0  0  0  0  0  0  0  0  0  0  0  0
    6.1154   -0.5000    0.0000 C   0  0  0  0  0  0  0  0  0  0  0  0
    6.1154    0.5000    0.0000 C   0  0  0  0  0  0  0  0  0  0  0  0
    5.0402   -1.9718    0.0000 C   0  0  0  0  0  0  0  0  0  0  0  0
    4.0515   -2.0749    0.0000 C   0  0  0  0  0  0  0  0  0  0  0  0
    5.0402    1.9718    0.0000 C   0  0  0  0  0  0  0  0  0  0  0  0
    4.0515    2.0749    0.0000 C   0  0  0  0  0  0  0  0  0  0  0  0
    2.6678   -0.9609    0.0000 C   0  0  0  0  0  0  0  0  0  0  0  0
    7.0616   -0.8047    0.0000 C   0  0  0  0  0  0  0  0  0  0  0  0
    7.0616    0.8047    0.0000 C   0  0  0  0  0  0  0  0  0  0  0  0
    5.6609   -2.8006    0.0000 C   0  0  0  0  0  0  0  0  0  0  0  0
    3.6150   -3.0138    0.0000 C   0  0  0  0  0  0  0  0  0  0  0  0
    5.6609    2.8006    0.0000 C   0  0  0  0  0  0  0  0  0  0  0  0
    3.6150    3.0138    0.0000 C   0  0  0  0  0  0  0  0  0  0  0  0
    2.0000   -1.7052    0.0000 C   0  0  0  0  0  0  0  0  0  0  0  0
    5.2463   -3.7494    0.0000 C   0  0  0  0  0  0  0  0  0  0  0  0
    4.2164   -3.8567    0.0000 C   0  0  0  0  0  0  0  0  0  0  0  0
    5.2463    3.7494    0.0000 C   0  0  0  0  0  0  0  0  0  0  0  0
    4.2164    3.8567    0.0000 C   0  0  0  0  0  0  0  0  0  0  0  0
    3.0397    1.0392    0.0000 H   0  0  0  0  0  0  0  0  0  0  0  0
    2.8991   -0.3856    0.0000 H   0  0  0  0  0  0  0  0  0  0  0  0
    2.1415   -0.6332    0.0000 H   0  0  0  0  0  0  0  0  0  0  0  0
    6.2768   -2.7292    0.0000 H   0  0  0  0  0  0  0  0  0  0  0  0
    2.9976   -3.0710    0.0000 H   0  0  0  0  0  0  0  0  0  0  0  0
    8.2652    0.0000    0.0000 H   0  0  0  0  0  0  0  0  0  0  0  0
    6.2768    2.7292    0.0000 H   0  0  0  0  0  0  0  0  0  0  0  0
    2.9976    3.0710    0.0000 H   0  0  0  0  0  0  0  0  0  0  0  0
    1.5385   -1.2911    0.0000 H   0  0  0  0  0  0  0  0  0  0  0  0
    1.5859   -2.1666    0.0000 H   0  0  0  0  0  0  0  0  0  0  0  0
    2.4615   -2.1192    0.0000 H   0  0  0  0  0  0  0  0  0  0  0  0
    5.6122   -4.2499    0.0000 H   0  0  0  0  0  0  0  0  0  0  0  0
    3.9615   -4.4219    0.0000 H   0  0  0  0  0  0  0  0  0  0  0  0
    5.6122    4.2499    0.0000 H   0  0  0  0  0  0  0  0  0  0  0  0
    3.9615    4.4219    0.0000 H   0  0  0  0  0  0  0  0  0  0  0  0
  1 17  2  0  0  0  0
  2 18  2  0  0  0  0
  3  6  1  0  0  0  0
  3 13  1  0  0  0  0
  3 16  1  0  0  0  0
  4  8  1  0  0  0  0
  4 15  1  0  0  0  0
  4 28  1  0  0  0  0
  5 17  1  0  0  0  0
  5 18  1  0  0  0  0
  5 33  1  0  0  0  0
  6  7  1  0  0  0  0
  6  8  2  0  0  0  0
  7 10  2  0  0  0  0
  7 12  1  0  0  0  0
  8  9  1  0  0  0  0
  9 11  2  0  0  0  0
  9 14  1  0  0  0  0
 10 11  1  0  0  0  0
 10 17  1  0  0  0  0
 11 18  1  0  0  0  0
 12 13  1  0  0  0  0
 12 19  2  0  0  0  0
 13 20  2  0  0  0  0
 14 15  1  0  0  0  0
 14 21  2  0  0  0  0
 15 22  2  0  0  0  0
 16 23  1  0  0  0  0
 16 29  1  0  0  0  0
 16 30  1  0  0  0  0
 19 24  1  0  0  0  0
 19 31  1  0  0  0  0
 20 25  1  0  0  0  0
 20 32  1  0  0  0  0
 21 26  1  0  0  0  0
 21 34  1  0  0  0  0
 22 27  1  0  0  0  0
 22 35  1  0  0  0  0
 23 36  1  0  0  0  0
 23 37  1  0  0  0  0
 23 38  1  0  0  0  0
 24 25  2  0  0  0  0
 24 39  1  0  0  0  0
 25 40  1  0  0  0  0
 26 27  2  0  0  0  0
 26 41  1  0  0  0  0
 27 42  1  0  0  0  0
M  END
> <PUBCHEM_COMPOUND_CID>
3570

> <PUBCHEM_COMPOUND_CANONICALIZED>
1

> <PUBCHEM_CACTVS_COMPLEXITY>
666

> <PUBCHEM_CACTVS_HBOND_ACCEPTOR>
2

> <PUBCHEM_CACTVS_HBOND_DONOR>
2

> <PUBCHEM_CACTVS_ROTATABLE_BOND>
1

> <PUBCHEM_CACTVS_SUBSKEYS>
AAADccB7MAAAAAAAAAAAAAAAAAAAAWLFgAAwYMAAAAAAAFgB/gAAHgAQAAAADAjBngQywPPNkACoAyVyVACCgCQlEiAI2SE4dNgIYPLAlZGUIQhglCDIyQcdicCeyAACQAASACCQAASAACQAQAAAAAAAAA==

> <PUBCHEM_IUPAC_INCHI>
InChI=1S/C22H15N3O2/c1-2-25-14-10-6-4-8-12(14)16-18-17(21(26)24-22(18)27)15-11-7-3-5-9-13(11)23-19(15)20(16)25/h3-10,23H,2H2,1H3,(H,24,26,27)

> <PUBCHEM_IUPAC_INCHIKEY>
GRLDAHPZRAVINS-UHFFFAOYSA-N

> <PUBCHEM_XLOGP3_AA>
3.9

> <PUBCHEM_EXACT_MASS>
353.116427

> <PUBCHEM_MOLECULAR_FORMULA>
C22H15N3O2

> <PUBCHEM_MOLECULAR_WEIGHT>
353.3734

> <PUBCHEM_OPENEYE_CAN_SMILES>
CCN1C2=CC=CC=C2C3=C4C(=C5C6=CC=CC=C6NC5=C31)C(=O)NC4=O

> <PUBCHEM_OPENEYE_ISO_SMILES>
CCN1C2=CC=CC=C2C3=C4C(=C5C6=CC=CC=C6NC5=C31)C(=O)NC4=O

> <PUBCHEM_CACTVS_TPSA>
66.9

> <PUBCHEM_MONOISOTOPIC_WEIGHT>
353.116427

> <PUBCHEM_TOTAL_CHARGE>
0

> <PUBCHEM_HEAVY_ATOM_COUNT>
27

> <PUBCHEM_ATOM_DEF_STEREO_COUNT>
0

> <PUBCHEM_ATOM_UDEF_STEREO_COUNT>
0

> <PUBCHEM_BOND_DEF_STEREO_COUNT>
0

> <PUBCHEM_BOND_UDEF_STEREO_COUNT>
0

> <PUBCHEM_ISOTOPIC_ATOM_COUNT>
0

> <PUBCHEM_COMPONENT_COUNT>
1

> <PUBCHEM_CACTVS_TAUTO_COUNT>
18

> <PUBCHEM_COORDINATE_TYPE>
1
5
255

> <PUBCHEM_BONDANNOTATIONS>
10  11  8
12  13  8
12  19  8
13  20  8
14  15  8
14  21  8
15  22  8
19  24  8
20  25  8
21  26  8
22  27  8
24  25  8
26  27  8
3  13  8
3  6  8
4  15  8
4  8  8
6  7  8
6  8  8
7  10  8
7  12  8
8  9  8
9  11  8
9  14  8

$$$$

