9048
  -OEChem-06261203212D

 33 33  0     0  0  0  0  0  0999 V2000
    5.4860    0.0000    0.0000 Cl  0  0  0  0  0  0  0  0  0  0  0  0
    0.0000    3.4050    0.0000 Cl  0  0  0  0  0  0  0  0  0  0  0  0
    5.4860    4.0000    0.0000 N   0  0  0  0  0  0  0  0  0  0  0  0
    4.6200    5.5000    0.0000 N   0  0  0  0  0  0  0  0  0  0  0  0
    6.3520    5.5000    0.0000 N   0  0  0  0  0  0  0  0  0  0  0  0
    7.2181    4.0000    0.0000 N   0  0  0  0  0  0  0  0  0  0  0  0
    5.4860    7.0000    0.0000 N   0  0  0  0  0  0  0  0  0  0  0  0
    4.6200    4.5000    0.0000 C   0  0  0  0  0  0  0  0  0  0  0  0
    3.6200    4.5000    0.0000 C   0  0  0  0  0  0  0  0  0  0  0  0
    4.1200    3.6340    0.0000 C   0  0  0  0  0  0  0  0  0  0  0  0
    5.4860    3.0000    0.0000 C   0  0  0  0  0  0  0  0  0  0  0  0
    6.3520    4.5000    0.0000 C   0  0  0  0  0  0  0  0  0  0  0  0
    5.4860    6.0000    0.0000 C   0  0  0  0  0  0  0  0  0  0  0  0
    4.6200    2.5000    0.0000 C   0  0  0  0  0  0  0  0  0  0  0  0
    6.3520    2.5000    0.0000 C   0  0  0  0  0  0  0  0  0  0  0  0
    4.6200    1.5000    0.0000 C   0  0  0  0  0  0  0  0  0  0  0  0
    6.3520    1.5000    0.0000 C   0  0  0  0  0  0  0  0  0  0  0  0
    5.4860    1.0000    0.0000 C   0  0  0  0  0  0  0  0  0  0  0  0
    3.5831    3.9440    0.0000 H   0  0  0  0  0  0  0  0  0  0  0  0
    3.8100    3.0970    0.0000 H   0  0  0  0  0  0  0  0  0  0  0  0
    3.6200    5.1200    0.0000 H   0  0  0  0  0  0  0  0  0  0  0  0
    3.0000    4.5000    0.0000 H   0  0  0  0  0  0  0  0  0  0  0  0
    3.6200    3.8800    0.0000 H   0  0  0  0  0  0  0  0  0  0  0  0
    4.6569    3.3240    0.0000 H   0  0  0  0  0  0  0  0  0  0  0  0
    4.0831    2.8100    0.0000 H   0  0  0  0  0  0  0  0  0  0  0  0
    6.8890    2.8100    0.0000 H   0  0  0  0  0  0  0  0  0  0  0  0
    7.7550    4.3100    0.0000 H   0  0  0  0  0  0  0  0  0  0  0  0
    7.2181    3.3800    0.0000 H   0  0  0  0  0  0  0  0  0  0  0  0
    4.0831    1.1900    0.0000 H   0  0  0  0  0  0  0  0  0  0  0  0
    6.8890    1.1900    0.0000 H   0  0  0  0  0  0  0  0  0  0  0  0
    4.9491    7.3100    0.0000 H   0  0  0  0  0  0  0  0  0  0  0  0
    6.0230    7.3100    0.0000 H   0  0  0  0  0  0  0  0  0  0  0  0
    1.0000    3.4050    0.0000 H   0  0  0  0  0  0  0  0  0  0  0  0
  1 18  1  0  0  0  0
  2 33  1  0  0  0  0
  3  8  1  0  0  0  0
  3 11  1  0  0  0  0
  3 12  1  0  0  0  0
  4  8  1  0  0  0  0
  4 13  2  0  0  0  0
  5 12  2  0  0  0  0
  5 13  1  0  0  0  0
  6 12  1  0  0  0  0
  6 27  1  0  0  0  0
  6 28  1  0  0  0  0
  7 13  1  0  0  0  0
  7 31  1  0  0  0  0
  7 32  1  0  0  0  0
  8  9  1  0  0  0  0
  8 10  1  0  0  0  0
  9 21  1  0  0  0  0
  9 22  1  0  0  0  0
  9 23  1  0  0  0  0
 10 19  1  0  0  0  0
 10 20  1  0  0  0  0
 10 24  1  0  0  0  0
 11 14  2  0  0  0  0
 11 15  1  0  0  0  0
 14 16  1  0  0  0  0
 14 25  1  0  0  0  0
 15 17  2  0  0  0  0
 15 26  1  0  0  0  0
 16 18  2  0  0  0  0
 16 29  1  0  0  0  0
 17 18  1  0  0  0  0
 17 30  1  0  0  0  0
M  END
> <PUBCHEM_COMPOUND_CID>
9048

> <PUBCHEM_COMPOUND_CANONICALIZED>
1

> <PUBCHEM_CACTVS_COMPLEXITY>
355

> <PUBCHEM_CACTVS_HBOND_ACCEPTOR>
1

> <PUBCHEM_CACTVS_HBOND_DONOR>
3

> <PUBCHEM_CACTVS_ROTATABLE_BOND>
1

> <PUBCHEM_CACTVS_SUBSKEYS>
AAADccBzgAAGAAAAAAAAAAAAAAAAAAAAAAAwQAAAAAAAAAABAAAAHAIQAAAACAqBECAzwINAAACgACRCZACCAAEhBwAJiAAAZoiIICLBm5GEIAhggALIyCcQAAAAAABAAAAAAAAAAIAAAAAAAAAAAAAAAA==

> <PUBCHEM_IUPAC_OPENEYE_NAME>
1-(4-chlorophenyl)-6,6-dimethyl-1,3,5-triazine-2,4-diamine hydrochloride

> <PUBCHEM_IUPAC_CAS_NAME>
1-(4-chlorophenyl)-6,6-dimethyl-1,3,5-triazine-2,4-diamine hydrochloride

> <PUBCHEM_IUPAC_NAME>
1-(4-chlorophenyl)-6,6-dimethyl-1,3,5-triazine-2,4-diamine hydrochloride

> <PUBCHEM_IUPAC_SYSTEMATIC_NAME>
1-(4-chlorophenyl)-6,6-dimethyl-1,3,5-triazine-2,4-diamine hydrochloride

> <PUBCHEM_IUPAC_TRADITIONAL_NAME>
[4-amino-1-(4-chlorophenyl)-6,6-dimethyl-s-triazin-2-yl]amine hydrochloride

> <PUBCHEM_IUPAC_INCHI>
InChI=1S/C11H14ClN5.ClH/c1-11(2)16-9(13)15-10(14)17(11)8-5-3-7(12)4-6-8;/h3-6H,1-2H3,(H4,13,14,15,16);1H

> <PUBCHEM_IUPAC_INCHIKEY>
MOUAPRKJJUXEIE-UHFFFAOYSA-N

> <PUBCHEM_EXACT_MASS>
287.070451

> <PUBCHEM_MOLECULAR_FORMULA>
C11H15Cl2N5

> <PUBCHEM_MOLECULAR_WEIGHT>
288.1763

> <PUBCHEM_OPENEYE_CAN_SMILES>
CC1(N=C(N=C(N1C2=CC=C(C=C2)Cl)N)N)C.Cl

> <PUBCHEM_OPENEYE_ISO_SMILES>
CC1(N=C(N=C(N1C2=CC=C(C=C2)Cl)N)N)C.Cl

> <PUBCHEM_CACTVS_TPSA>
80

> <PUBCHEM_MONOISOTOPIC_WEIGHT>
287.070451

> <PUBCHEM_TOTAL_CHARGE>
0

> <PUBCHEM_HEAVY_ATOM_COUNT>
18

> <PUBCHEM_ATOM_DEF_STEREO_COUNT>
0

> <PUBCHEM_ATOM_UDEF_STEREO_COUNT>
0

> <PUBCHEM_BOND_DEF_STEREO_COUNT>
0

> <PUBCHEM_BOND_UDEF_STEREO_COUNT>
0

> <PUBCHEM_ISOTOPIC_ATOM_COUNT>
0

> <PUBCHEM_COMPONENT_COUNT>
2

> <PUBCHEM_CACTVS_TAUTO_COUNT>
5

> <PUBCHEM_COORDINATE_TYPE>
1
5
255

> <PUBCHEM_BONDANNOTATIONS>
11  14  8
11  15  8
14  16  8
15  17  8
16  18  8
17  18  8

$$$$

