11790
  -OEChem-06261206072D

 33 36  0     0  0  0  0  0  0999 V2000
    5.5022    0.7673    0.0000 O   0  0  0  0  0  0  0  0  0  0  0  0
    5.5138   -2.3019    0.0000 O   0  0  0  0  0  0  0  0  0  0  0  0
    6.3961    0.2327    0.0000 C   0  0  0  0  0  0  0  0  0  0  0  0
    7.2622    0.7327    0.0000 C   0  0  0  0  0  0  0  0  0  0  0  0
    6.3961   -0.7673    0.0000 C   0  0  0  0  0  0  0  0  0  0  0  0
    8.1282    0.2327    0.0000 C   0  0  0  0  0  0  0  0  0  0  0  0
    4.5961    0.2535    0.0000 C   0  0  0  0  0  0  0  0  0  0  0  0
    7.2622   -1.2673    0.0000 C   0  0  0  0  0  0  0  0  0  0  0  0
    8.1282   -0.7673    0.0000 C   0  0  0  0  0  0  0  0  0  0  0  0
    5.5022   -1.3020    0.0000 C   0  0  0  0  0  0  0  0  0  0  0  0
    7.2461    1.7742    0.0000 C   0  0  0  0  0  0  0  0  0  0  0  0
    4.5961   -0.7881    0.0000 C   0  0  0  0  0  0  0  0  0  0  0  0
    9.0382    0.7395    0.0000 C   0  0  0  0  0  0  0  0  0  0  0  0
    3.7320    0.7568    0.0000 C   0  0  0  0  0  0  0  0  0  0  0  0
    8.1441    2.3019    0.0000 C   0  0  0  0  0  0  0  0  0  0  0  0
    9.0462    1.7811    0.0000 C   0  0  0  0  0  0  0  0  0  0  0  0
    3.7359    1.7568    0.0000 C   0  0  0  0  0  0  0  0  0  0  0  0
    2.8641    0.2602    0.0000 C   0  0  0  0  0  0  0  0  0  0  0  0
    2.8718    2.2601    0.0000 C   0  0  0  0  0  0  0  0  0  0  0  0
    2.0000    0.7635    0.0000 C   0  0  0  0  0  0  0  0  0  0  0  0
    2.0038    1.7635    0.0000 C   0  0  0  0  0  0  0  0  0  0  0  0
    7.2622   -1.8873    0.0000 H   0  0  0  0  0  0  0  0  0  0  0  0
    8.6651   -1.0773    0.0000 H   0  0  0  0  0  0  0  0  0  0  0  0
    6.7056    2.0779    0.0000 H   0  0  0  0  0  0  0  0  0  0  0  0
    4.0604   -1.1002    0.0000 H   0  0  0  0  0  0  0  0  0  0  0  0
    9.5715    0.4233    0.0000 H   0  0  0  0  0  0  0  0  0  0  0  0
    8.1418    2.9219    0.0000 H   0  0  0  0  0  0  0  0  0  0  0  0
    9.5844    2.0890    0.0000 H   0  0  0  0  0  0  0  0  0  0  0  0
    4.2740    2.0647    0.0000 H   0  0  0  0  0  0  0  0  0  0  0  0
    2.8617   -0.3598    0.0000 H   0  0  0  0  0  0  0  0  0  0  0  0
    2.8742    2.8801    0.0000 H   0  0  0  0  0  0  0  0  0  0  0  0
    1.4619    0.4556    0.0000 H   0  0  0  0  0  0  0  0  0  0  0  0
    1.4681    2.0755    0.0000 H   0  0  0  0  0  0  0  0  0  0  0  0
  1  3  1  0  0  0  0
  1  7  1  0  0  0  0
  2 10  2  0  0  0  0
  3  4  1  0  0  0  0
  3  5  2  0  0  0  0
  4  6  1  0  0  0  0
  4 11  2  0  0  0  0
  5  8  1  0  0  0  0
  5 10  1  0  0  0  0
  6  9  1  0  0  0  0
  6 13  2  0  0  0  0
  7 12  2  0  0  0  0
  7 14  1  0  0  0  0
  8  9  2  0  0  0  0
  8 22  1  0  0  0  0
  9 23  1  0  0  0  0
 10 12  1  0  0  0  0
 11 15  1  0  0  0  0
 11 24  1  0  0  0  0
 12 25  1  0  0  0  0
 13 16  1  0  0  0  0
 13 26  1  0  0  0  0
 14 17  2  0  0  0  0
 14 18  1  0  0  0  0
 15 16  2  0  0  0  0
 15 27  1  0  0  0  0
 16 28  1  0  0  0  0
 17 19  1  0  0  0  0
 17 29  1  0  0  0  0
 18 20  2  0  0  0  0
 18 30  1  0  0  0  0
 19 21  2  0  0  0  0
 19 31  1  0  0  0  0
 20 21  1  0  0  0  0
 20 32  1  0  0  0  0
 21 33  1  0  0  0  0
M  END
> <PUBCHEM_COMPOUND_CID>
11790

> <PUBCHEM_COMPOUND_CANONICALIZED>
1

> <PUBCHEM_CACTVS_COMPLEXITY>
433

> <PUBCHEM_CACTVS_HBOND_ACCEPTOR>
2

> <PUBCHEM_CACTVS_HBOND_DONOR>
0

> <PUBCHEM_CACTVS_ROTATABLE_BOND>
1

> <PUBCHEM_CACTVS_SUBSKEYS>
AAADccB4MAAAAAAAAAAAAAAAAAAAAAAAAAAwYMEAAAAAAADBVAAAGgAAAAAADASAmAAwBsAABACIAqBSAAACCAAkIAAIiAEECMgMJjaENRqCOWCk4BEIqYeIyPCOwAADAAAYAACAAAYAADAAAAAAAAAAAA==

> <PUBCHEM_IUPAC_OPENEYE_NAME>
2-phenylbenzo[h]chromen-4-one

> <PUBCHEM_IUPAC_CAS_NAME>
2-phenyl-4-benzo[h][1]benzopyranone

> <PUBCHEM_IUPAC_NAME>
2-phenylbenzo[h]chromen-4-one

> <PUBCHEM_IUPAC_SYSTEMATIC_NAME>
2-phenylbenzo[h]chromen-4-one

> <PUBCHEM_IUPAC_TRADITIONAL_NAME>
2-phenylbenzo[h]chromen-4-one

> <PUBCHEM_IUPAC_INCHI>
InChI=1S/C19H12O2/c20-17-12-18(14-7-2-1-3-8-14)21-19-15-9-5-4-6-13(15)10-11-16(17)19/h1-12H

> <PUBCHEM_IUPAC_INCHIKEY>
VFMMPHCGEFXGIP-UHFFFAOYSA-N

> <PUBCHEM_XLOGP3>
4.8

> <PUBCHEM_EXACT_MASS>
272.08373

> <PUBCHEM_MOLECULAR_FORMULA>
C19H12O2

> <PUBCHEM_MOLECULAR_WEIGHT>
272.29738

> <PUBCHEM_OPENEYE_CAN_SMILES>
C1=CC=C(C=C1)C2=CC(=O)C3=C(O2)C4=CC=CC=C4C=C3

> <PUBCHEM_OPENEYE_ISO_SMILES>
C1=CC=C(C=C1)C2=CC(=O)C3=C(O2)C4=CC=CC=C4C=C3

> <PUBCHEM_CACTVS_TPSA>
26.3

> <PUBCHEM_MONOISOTOPIC_WEIGHT>
272.08373

> <PUBCHEM_TOTAL_CHARGE>
0

> <PUBCHEM_HEAVY_ATOM_COUNT>
21

> <PUBCHEM_ATOM_DEF_STEREO_COUNT>
0

> <PUBCHEM_ATOM_UDEF_STEREO_COUNT>
0

> <PUBCHEM_BOND_DEF_STEREO_COUNT>
0

> <PUBCHEM_BOND_UDEF_STEREO_COUNT>
0

> <PUBCHEM_ISOTOPIC_ATOM_COUNT>
0

> <PUBCHEM_COMPONENT_COUNT>
1

> <PUBCHEM_CACTVS_TAUTO_COUNT>
1

> <PUBCHEM_COORDINATE_TYPE>
1
5
255

> <PUBCHEM_BONDANNOTATIONS>
1  3  8
1  7  8
10  12  8
11  15  8
13  16  8
14  17  8
14  18  8
15  16  8
17  19  8
18  20  8
19  21  8
20  21  8
3  4  8
3  5  8
4  11  8
4  6  8
5  10  8
5  8  8
6  13  8
6  9  8
7  12  8
8  9  8

$$$$

