8348
  -OEChem-06261202453D

 25 26  0     0  0  0  0  0  0999 V2000
    1.3137   -0.8569   -2.0611 O   0  0  0  0  0  0  0  0  0  0  0  0
   -0.1291   -2.2084    0.6678 O   0  0  0  0  0  0  0  0  0  0  0  0
    1.1992   -0.3238    0.2743 C   0  0  0  0  0  0  0  0  0  0  0  0
   -1.3828   -0.2961    0.1752 C   0  0  0  0  0  0  0  0  0  0  0  0
   -0.1282   -1.0009    0.3851 C   0  0  0  0  0  0  0  0  0  0  0  0
    1.8439   -0.2901   -0.9407 C   0  0  0  0  0  0  0  0  0  0  0  0
    1.7260    0.2439    1.4127 C   0  0  0  0  0  0  0  0  0  0  0  0
   -1.3749    1.0620   -0.1430 C   0  0  0  0  0  0  0  0  0  0  0  0
   -2.5940   -0.9782    0.2918 C   0  0  0  0  0  0  0  0  0  0  0  0
    3.0828    0.3459   -1.0228 C   0  0  0  0  0  0  0  0  0  0  0  0
    2.9649    0.8797    1.3304 C   0  0  0  0  0  0  0  0  0  0  0  0
    3.6432    0.9306    0.1128 C   0  0  0  0  0  0  0  0  0  0  0  0
   -2.5783    1.7381   -0.3446 C   0  0  0  0  0  0  0  0  0  0  0  0
   -3.7973   -0.3019    0.0902 C   0  0  0  0  0  0  0  0  0  0  0  0
   -3.7893    1.0562   -0.2281 C   0  0  0  0  0  0  0  0  0  0  0  0
    1.2024    0.2066    2.3631 H   0  0  0  0  0  0  0  0  0  0  0  0
   -0.4560    1.6313   -0.2441 H   0  0  0  0  0  0  0  0  0  0  0  0
   -2.6278   -2.0360    0.5385 H   0  0  0  0  0  0  0  0  0  0  0  0
    3.6227    0.3931   -1.9648 H   0  0  0  0  0  0  0  0  0  0  0  0
    3.4013    1.3351    2.2146 H   0  0  0  0  0  0  0  0  0  0  0  0
    4.6079    1.4256    0.0491 H   0  0  0  0  0  0  0  0  0  0  0  0
   -2.5727    2.7955   -0.5926 H   0  0  0  0  0  0  0  0  0  0  0  0
   -4.7406   -0.8325    0.1808 H   0  0  0  0  0  0  0  0  0  0  0  0
   -4.7262    1.5826   -0.3851 H   0  0  0  0  0  0  0  0  0  0  0  0
    1.9243   -0.7203   -2.8056 H   0  0  0  0  0  0  0  0  0  0  0  0
  1  6  1  0  0  0  0
  1 25  1  0  0  0  0
  2  5  2  0  0  0  0
  3  5  1  0  0  0  0
  3  6  1  0  0  0  0
  3  7  2  0  0  0  0
  4  5  1  0  0  0  0
  4  8  2  0  0  0  0
  4  9  1  0  0  0  0
  6 10  2  0  0  0  0
  7 11  1  0  0  0  0
  7 16  1  0  0  0  0
  8 13  1  0  0  0  0
  8 17  1  0  0  0  0
  9 14  2  0  0  0  0
  9 18  1  0  0  0  0
 10 12  1  0  0  0  0
 10 19  1  0  0  0  0
 11 12  2  0  0  0  0
 11 20  1  0  0  0  0
 12 21  1  0  0  0  0
 13 15  2  0  0  0  0
 13 22  1  0  0  0  0
 14 15  1  0  0  0  0
 14 23  1  0  0  0  0
 15 24  1  0  0  0  0
M  END
> <PUBCHEM_COMPOUND_CID>
8348

> <PUBCHEM_CONFORMER_RMSD>
0.6

> <PUBCHEM_CONFORMER_DIVERSEORDER>
1
2

> <PUBCHEM_MMFF94_PARTIAL_CHARGES>
25
1 -0.53
10 -0.15
11 -0.15
12 -0.15
13 -0.15
14 -0.15
15 -0.15
16 0.15
17 0.15
18 0.15
19 0.15
2 -0.57
20 0.15
21 0.15
22 0.15
23 0.15
24 0.15
25 0.45
3 0.09
4 0.09
5 0.4
6 0.08
7 -0.15
8 -0.15
9 -0.15

> <PUBCHEM_EFFECTIVE_ROTOR_COUNT>
2

> <PUBCHEM_PHARMACOPHORE_FEATURES>
4
1 1 donor
1 2 acceptor
6 3 6 7 10 11 12 rings
6 4 8 9 13 14 15 rings

> <PUBCHEM_HEAVY_ATOM_COUNT>
15

> <PUBCHEM_ATOM_DEF_STEREO_COUNT>
0

> <PUBCHEM_ATOM_UDEF_STEREO_COUNT>
0

> <PUBCHEM_BOND_DEF_STEREO_COUNT>
0

> <PUBCHEM_BOND_UDEF_STEREO_COUNT>
0

> <PUBCHEM_ISOTOPIC_ATOM_COUNT>
0

> <PUBCHEM_COMPONENT_COUNT>
1

> <PUBCHEM_CACTVS_TAUTO_COUNT>
5

> <PUBCHEM_CONFORMER_ID>
0000209C00000001

> <PUBCHEM_MMFF94_ENERGY>
50.0692

> <PUBCHEM_FEATURE_SELFOVERLAP>
20.297

> <PUBCHEM_SHAPE_FINGERPRINT>
10219947 1 14979962462644975112
10498660 4 18341334482819490525
107287 299 17676205770976666261
11031198 65 17458061551787809076
11132069 177 18202284714737042717
11543360 7 16515980193905829901
11640471 11 17059478643859033468
12119455 92 17676498224438431136
12236239 1 17131836438978548392
12251169 10 14979953661966880849
13538477 17 17489023730374707466
13764800 53 18272359893626098769
14614273 12 18059865012377720757
15219456 202 18040151820631046692
15375462 478 16343710949274232285
15775835 57 17704069594685000708
16945 1 18339931389590550218
17357779 13 16229738714077258471
17357990 137 17346021342687056958
17846911 113 18342462530093475337
18186145 218 18113890580806378906
19786989 88 17313109639531426567
200 152 15647047179417856202
20645477 70 16950556722585801351
21639500 275 16515690996445870640
21947302 44 18040433313098849882
22802520 49 17823687753840808752
23048698 100 16415482635939749352
23402539 116 18410020905291371636
23402655 69 16370719348598855393
23557571 272 18262228924752508359
23559900 14 18409162221639555102
25 1 17313098648884195818
276578 36 18131070458770399674
305870 269 18130513036271232570
3060560 45 16805328790362457636
474 4 16342002162682540324
7364860 26 18194407929030903723
77492 1 17131836425972346714
81228 2 17832143827308992067

> <PUBCHEM_SHAPE_MULTIPOLES>
296.95
6.61
1.53
1.27
1.7
0.18
-0.26
-2.36
-0.03
0.75
0.09
-1.2
0.1
0.55

> <PUBCHEM_SHAPE_SELFOVERLAP>
648.992

> <PUBCHEM_SHAPE_VOLUME>
160.9

> <PUBCHEM_COORDINATE_TYPE>
2
5
10

$$$$

