5989
  -OEChem-06261201022D

 18 18  0     0  0  0  0  0  0999 V2000
    4.5981    1.4330    0.0000 Cl  0  0  0  0  0  0  0  0  0  0  0  0
    2.8660   -0.5670    0.0000 N   0  3  0  0  0  0  0  0  0  0  0  0
    2.3660   -1.4330    0.0000 C   0  0  0  0  0  0  0  0  0  0  0  0
    3.3660   -1.4330    0.0000 C   0  0  0  0  0  0  0  0  0  0  0  0
    3.7320   -0.0670    0.0000 C   0  0  0  0  0  0  0  0  0  0  0  0
    2.0000   -0.0670    0.0000 C   0  0  0  0  0  0  0  0  0  0  0  0
    3.7320    0.9330    0.0000 C   0  0  0  0  0  0  0  0  0  0  0  0
    3.4737   -2.0436    0.0000 H   0  0  0  0  0  0  0  0  0  0  0  0
    3.9486   -1.2210    0.0000 H   0  0  0  0  0  0  0  0  0  0  0  0
    1.7834   -1.2210    0.0000 H   0  0  0  0  0  0  0  0  0  0  0  0
    2.2584   -2.0436    0.0000 H   0  0  0  0  0  0  0  0  0  0  0  0
    3.9441   -0.6496    0.0000 H   0  0  0  0  0  0  0  0  0  0  0  0
    4.3426    0.0407    0.0000 H   0  0  0  0  0  0  0  0  0  0  0  0
    2.3100    0.4699    0.0000 H   0  0  0  0  0  0  0  0  0  0  0  0
    1.4631    0.2430    0.0000 H   0  0  0  0  0  0  0  0  0  0  0  0
    1.6900   -0.6039    0.0000 H   0  0  0  0  0  0  0  0  0  0  0  0
    3.5200    1.5156    0.0000 H   0  0  0  0  0  0  0  0  0  0  0  0
    3.1215    0.8254    0.0000 H   0  0  0  0  0  0  0  0  0  0  0  0
  1  7  1  0  0  0  0
  2  3  1  0  0  0  0
  2  4  1  0  0  0  0
  2  5  1  0  0  0  0
  2  6  1  0  0  0  0
  3  4  1  0  0  0  0
  3 10  1  0  0  0  0
  3 11  1  0  0  0  0
  4  8  1  0  0  0  0
  4  9  1  0  0  0  0
  5  7  1  0  0  0  0
  5 12  1  0  0  0  0
  5 13  1  0  0  0  0
  6 14  1  0  0  0  0
  6 15  1  0  0  0  0
  6 16  1  0  0  0  0
  7 17  1  0  0  0  0
  7 18  1  0  0  0  0
M  CHG  1   2   1
M  END
> <PUBCHEM_COMPOUND_CID>
5989

> <PUBCHEM_COMPOUND_CANONICALIZED>
1

> <PUBCHEM_CACTVS_COMPLEXITY>
68.5

> <PUBCHEM_CACTVS_HBOND_ACCEPTOR>
0

> <PUBCHEM_CACTVS_HBOND_DONOR>
0

> <PUBCHEM_CACTVS_ROTATABLE_BOND>
2

> <PUBCHEM_CACTVS_SUBSKEYS>
AAADccBiAAAEAAAAAAAAAAAAFgAAAAAAAAAAAAAAAAAAAAAAAAAAHAIAAAAAAAPBAEQCAAMAAAAAAAAAAAAAAAAAAAAAAAAIAAAAAAAAAABAAAAAAACAAAAAAAAAAAAAAAAAAAAAAAAAAAAAAAAAAAAAAA==

> <PUBCHEM_IUPAC_OPENEYE_NAME>
1-(2-chloroethyl)-1-methyl-aziridin-1-ium

> <PUBCHEM_IUPAC_CAS_NAME>
1-(2-chloroethyl)-1-methylaziridin-1-ium

> <PUBCHEM_IUPAC_NAME>
1-(2-chloroethyl)-1-methylaziridin-1-ium

> <PUBCHEM_IUPAC_SYSTEMATIC_NAME>
1-(2-chloroethyl)-1-methyl-aziridin-1-ium

> <PUBCHEM_IUPAC_TRADITIONAL_NAME>
1-(2-chloroethyl)-1-methyl-ethylenimin-1-ium

> <PUBCHEM_IUPAC_INCHI>
InChI=1S/C5H11ClN/c1-7(3-2-6)4-5-7/h2-5H2,1H3/q+1

> <PUBCHEM_IUPAC_INCHIKEY>
LWMDBBLXXQCZLB-UHFFFAOYSA-N

> <PUBCHEM_XLOGP3_AA>
0.6

> <PUBCHEM_EXACT_MASS>
120.058002

> <PUBCHEM_MOLECULAR_FORMULA>
C5H11ClN+

> <PUBCHEM_MOLECULAR_WEIGHT>
120.60054

> <PUBCHEM_OPENEYE_CAN_SMILES>
C[N+]1(CC1)CCCl

> <PUBCHEM_OPENEYE_ISO_SMILES>
C[N+]1(CC1)CCCl

> <PUBCHEM_CACTVS_TPSA>
0

> <PUBCHEM_MONOISOTOPIC_WEIGHT>
120.058002

> <PUBCHEM_TOTAL_CHARGE>
1

> <PUBCHEM_HEAVY_ATOM_COUNT>
7

> <PUBCHEM_ATOM_DEF_STEREO_COUNT>
0

> <PUBCHEM_ATOM_UDEF_STEREO_COUNT>
0

> <PUBCHEM_BOND_DEF_STEREO_COUNT>
0

> <PUBCHEM_BOND_UDEF_STEREO_COUNT>
0

> <PUBCHEM_ISOTOPIC_ATOM_COUNT>
0

> <PUBCHEM_COMPONENT_COUNT>
1

> <PUBCHEM_CACTVS_TAUTO_COUNT>
1

> <PUBCHEM_COORDINATE_TYPE>
1
5
255

$$$$

