17395354
  -OEChem-06241222492D

 44 45  0     0  0  0  0  0  0999 V2000
    8.0413    0.9050    0.0000 S   0  0  0  0  0  0  0  0  0  0  0  0
    9.0413    0.9050    0.0000 O   0  0  0  0  0  0  0  0  0  0  0  0
    7.0413    0.9050    0.0000 O   0  0  0  0  0  0  0  0  0  0  0  0
    8.0413   -3.0950    0.0000 O   0  0  0  0  0  0  0  0  0  0  0  0
    3.6636   -1.6883    0.0000 O   0  0  0  0  0  0  0  0  0  0  0  0
    5.4432   -0.5950    0.0000 O   0  0  0  0  0  0  0  0  0  0  0  0
    8.0413    1.9050    0.0000 N   0  0  0  0  0  0  0  0  0  0  0  0
    6.3092   -2.0950    0.0000 N   0  0  0  0  0  0  0  0  0  0  0  0
    8.9073    2.4050    0.0000 C   0  0  0  0  0  0  0  0  0  0  0  0
    7.1753    2.4050    0.0000 C   0  0  0  0  0  0  0  0  0  0  0  0
    8.0413   -0.0950    0.0000 C   0  0  0  0  0  0  0  0  0  0  0  0
    7.1753   -0.5950    0.0000 C   0  0  0  0  0  0  0  0  0  0  0  0
    8.9073   -0.5950    0.0000 C   0  0  0  0  0  0  0  0  0  0  0  0
    7.1753   -1.5950    0.0000 C   0  0  0  0  0  0  0  0  0  0  0  0
    7.1753    3.4050    0.0000 C   0  0  0  0  0  0  0  0  0  0  0  0
    8.9073    3.4050    0.0000 C   0  0  0  0  0  0  0  0  0  0  0  0
    8.0413   -2.0950    0.0000 C   0  0  0  0  0  0  0  0  0  0  0  0
    8.9073   -1.5950    0.0000 C   0  0  0  0  0  0  0  0  0  0  0  0
    5.4432   -1.5950    0.0000 C   0  0  0  0  0  0  0  0  0  0  0  0
    4.5772   -2.0950    0.0000 C   0  0  0  0  0  0  0  0  0  0  0  0
    4.4727   -3.0895    0.0000 C   0  0  0  0  0  0  0  0  0  0  0  0
    2.9945   -2.4314    0.0000 C   0  0  0  0  0  0  0  0  0  0  0  0
    3.4945   -3.2974    0.0000 C   0  0  0  0  0  0  0  0  0  0  0  0
    2.0000   -2.3269    0.0000 C   0  0  0  0  0  0  0  0  0  0  0  0
    6.5647    2.5127    0.0000 H   0  0  0  0  0  0  0  0  0  0  0  0
    6.9632    1.8224    0.0000 H   0  0  0  0  0  0  0  0  0  0  0  0
    9.1194    1.8224    0.0000 H   0  0  0  0  0  0  0  0  0  0  0  0
    9.5179    2.5127    0.0000 H   0  0  0  0  0  0  0  0  0  0  0  0
    6.6383   -0.2850    0.0000 H   0  0  0  0  0  0  0  0  0  0  0  0
    9.4443   -0.2850    0.0000 H   0  0  0  0  0  0  0  0  0  0  0  0
    9.5273    3.4050    0.0000 H   0  0  0  0  0  0  0  0  0  0  0  0
    7.7953    3.4050    0.0000 H   0  0  0  0  0  0  0  0  0  0  0  0
    7.1753    4.0250    0.0000 H   0  0  0  0  0  0  0  0  0  0  0  0
    6.5553    3.4050    0.0000 H   0  0  0  0  0  0  0  0  0  0  0  0
    8.9073    4.0250    0.0000 H   0  0  0  0  0  0  0  0  0  0  0  0
    8.2873    3.4050    0.0000 H   0  0  0  0  0  0  0  0  0  0  0  0
    9.4443   -1.9050    0.0000 H   0  0  0  0  0  0  0  0  0  0  0  0
    6.3092   -2.7150    0.0000 H   0  0  0  0  0  0  0  0  0  0  0  0
    8.5782   -3.4050    0.0000 H   0  0  0  0  0  0  0  0  0  0  0  0
    4.9334   -3.5044    0.0000 H   0  0  0  0  0  0  0  0  0  0  0  0
    3.2424   -3.8638    0.0000 H   0  0  0  0  0  0  0  0  0  0  0  0
    2.0648   -1.7103    0.0000 H   0  0  0  0  0  0  0  0  0  0  0  0
    1.3834   -2.2621    0.0000 H   0  0  0  0  0  0  0  0  0  0  0  0
    1.9352   -2.9435    0.0000 H   0  0  0  0  0  0  0  0  0  0  0  0
  1  2  2  0  0  0  0
  1  3  2  0  0  0  0
  1  7  1  0  0  0  0
  1 11  1  0  0  0  0
  4 17  1  0  0  0  0
  4 39  1  0  0  0  0
  5 20  1  0  0  0  0
  5 22  1  0  0  0  0
  6 19  2  0  0  0  0
  7  9  1  0  0  0  0
  7 10  1  0  0  0  0
  8 14  1  0  0  0  0
  8 19  1  0  0  0  0
  8 38  1  0  0  0  0
  9 16  1  0  0  0  0
  9 27  1  0  0  0  0
  9 28  1  0  0  0  0
 10 15  1  0  0  0  0
 10 25  1  0  0  0  0
 10 26  1  0  0  0  0
 11 12  2  0  0  0  0
 11 13  1  0  0  0  0
 12 14  1  0  0  0  0
 12 29  1  0  0  0  0
 13 18  2  0  0  0  0
 13 30  1  0  0  0  0
 14 17  2  0  0  0  0
 15 32  1  0  0  0  0
 15 33  1  0  0  0  0
 15 34  1  0  0  0  0
 16 31  1  0  0  0  0
 16 35  1  0  0  0  0
 16 36  1  0  0  0  0
 17 18  1  0  0  0  0
 18 37  1  0  0  0  0
 19 20  1  0  0  0  0
 20 21  2  0  0  0  0
 21 23  1  0  0  0  0
 21 40  1  0  0  0  0
 22 23  2  0  0  0  0
 22 24  1  0  0  0  0
 23 41  1  0  0  0  0
 24 42  1  0  0  0  0
 24 43  1  0  0  0  0
 24 44  1  0  0  0  0
M  END
> <PUBCHEM_COMPOUND_CID>
17395354

> <PUBCHEM_COMPOUND_CANONICALIZED>
1

> <PUBCHEM_CACTVS_COMPLEXITY>
529

> <PUBCHEM_CACTVS_HBOND_ACCEPTOR>
6

> <PUBCHEM_CACTVS_HBOND_DONOR>
2

> <PUBCHEM_CACTVS_ROTATABLE_BOND>
6

> <PUBCHEM_CACTVS_SUBSKEYS>
AAADceB7OABAAAAAAAAAAAAAAAAAASAAAAAwAAAAAAAAAAABwAAAHgQQSAAACAzB0AQyx4LABkKIAKVSUHLCCBAlIgAIiBnPbMgOJjLWtb+HeSzk1BHY+YeYXwJgAIAAACAAEAABAAAAQAAgAAAAAAAAAA==

> <PUBCHEM_IUPAC_OPENEYE_NAME>
N-[5-(diethylsulfamoyl)-2-hydroxy-phenyl]-5-methyl-furan-2-carboxamide

> <PUBCHEM_IUPAC_CAS_NAME>
N-[5-(diethylsulfamoyl)-2-hydroxyphenyl]-5-methyl-2-furancarboxamide

> <PUBCHEM_IUPAC_NAME>
N-[5-(diethylsulfamoyl)-2-hydroxyphenyl]-5-methylfuran-2-carboxamide

> <PUBCHEM_IUPAC_SYSTEMATIC_NAME>
N-[5-(diethylsulfamoyl)-2-oxidanyl-phenyl]-5-methyl-furan-2-carboxamide

> <PUBCHEM_IUPAC_TRADITIONAL_NAME>
N-[5-(diethylsulfamoyl)-2-hydroxy-phenyl]-5-methyl-2-furamide

> <PUBCHEM_IUPAC_INCHI>
InChI=1S/C16H20N2O5S/c1-4-18(5-2)24(21,22)12-7-8-14(19)13(10-12)17-16(20)15-9-6-11(3)23-15/h6-10,19H,4-5H2,1-3H3,(H,17,20)

> <PUBCHEM_IUPAC_INCHIKEY>
SHDHUOFOOVTIRG-UHFFFAOYSA-N

> <PUBCHEM_XLOGP3_AA>
2.1

> <PUBCHEM_EXACT_MASS>
352.109293

> <PUBCHEM_MOLECULAR_FORMULA>
C16H20N2O5S

> <PUBCHEM_MOLECULAR_WEIGHT>
352.4054

> <PUBCHEM_OPENEYE_CAN_SMILES>
CCN(CC)S(=O)(=O)C1=CC(=C(C=C1)O)NC(=O)C2=CC=C(O2)C

> <PUBCHEM_OPENEYE_ISO_SMILES>
CCN(CC)S(=O)(=O)C1=CC(=C(C=C1)O)NC(=O)C2=CC=C(O2)C

> <PUBCHEM_CACTVS_TPSA>
108

> <PUBCHEM_MONOISOTOPIC_WEIGHT>
352.109293

> <PUBCHEM_TOTAL_CHARGE>
0

> <PUBCHEM_HEAVY_ATOM_COUNT>
24

> <PUBCHEM_ATOM_DEF_STEREO_COUNT>
0

> <PUBCHEM_ATOM_UDEF_STEREO_COUNT>
0

> <PUBCHEM_BOND_DEF_STEREO_COUNT>
0

> <PUBCHEM_BOND_UDEF_STEREO_COUNT>
0

> <PUBCHEM_ISOTOPIC_ATOM_COUNT>
0

> <PUBCHEM_COMPONENT_COUNT>
1

> <PUBCHEM_CACTVS_TAUTO_COUNT>
21

> <PUBCHEM_COORDINATE_TYPE>
1
5
255

> <PUBCHEM_BONDANNOTATIONS>
11  12  8
11  13  8
12  14  8
13  18  8
14  17  8
17  18  8
20  21  8
21  23  8
22  23  8
5  20  8
5  22  8

$$$$

