4577
  -OEChem-06261200133D

 33 33  0     1  0  0  0  0  0999 V2000
   -2.7900   -1.3240    0.0301 P   0  0  2  0  0  0  0  0  0  0  0  0
   -4.6172    0.9581   -0.2980 P   0  0  0  0  0  0  0  0  0  0  0  0
   -1.4590   -0.4052   -0.0200 O   0  0  0  0  0  0  0  0  0  0  0  0
   -3.9687   -0.3082    0.4688 O   0  0  0  0  0  0  0  0  0  0  0  0
   -2.5919   -2.2502    1.3417 O   0  0  0  0  0  0  0  0  0  0  0  0
   -3.0742   -2.0884   -1.2304 O   0  0  0  0  0  0  0  0  0  0  0  0
   -5.3522    0.2870   -1.5714 O   0  0  0  0  0  0  0  0  0  0  0  0
   -5.8431    1.3821    0.6662 O   0  0  0  0  0  0  0  0  0  0  0  0
    4.2525   -2.5016   -0.3926 O   0  5  0  0  0  0  0  0  0  0  0  0
    2.1619   -2.1018    0.1446 O   0  0  0  0  0  0  0  0  0  0  0  0
   -3.6486    2.0569   -0.6220 O   0  0  0  0  0  0  0  0  0  0  0  0
    1.2720    0.1981    0.4745 N   0  0  0  0  0  0  0  0  0  0  0  0
    3.3208   -1.7076   -0.1236 N   0  3  0  0  0  0  0  0  0  0  0  0
    0.1914    1.1218    0.7857 C   0  0  0  0  0  0  0  0  0  0  0  0
   -1.0860    0.3639    1.1104 C   0  0  0  0  0  0  0  0  0  0  0  0
    2.5556    0.6064    0.1768 C   0  0  0  0  0  0  0  0  0  0  0  0
    3.5885   -0.3098   -0.1224 C   0  0  0  0  0  0  0  0  0  0  0  0
    2.8760    1.9810    0.1634 C   0  0  0  0  0  0  0  0  0  0  0  0
    4.8787    0.1288   -0.4206 C   0  0  0  0  0  0  0  0  0  0  0  0
    4.1663    2.4195   -0.1346 C   0  0  0  0  0  0  0  0  0  0  0  0
    5.1675    1.4934   -0.4265 C   0  0  0  0  0  0  0  0  0  0  0  0
    0.4557    1.7431    1.6488 H   0  0  0  0  0  0  0  0  0  0  0  0
    0.0075    1.7693   -0.0801 H   0  0  0  0  0  0  0  0  0  0  0  0
   -0.9278   -0.3039    1.9636 H   0  0  0  0  0  0  0  0  0  0  0  0
   -1.8857    1.0673    1.3590 H   0  0  0  0  0  0  0  0  0  0  0  0
    1.0448   -0.7868    0.4614 H   0  0  0  0  0  0  0  0  0  0  0  0
    2.1325    2.7429    0.3819 H   0  0  0  0  0  0  0  0  0  0  0  0
    5.6867   -0.5600   -0.6534 H   0  0  0  0  0  0  0  0  0  0  0  0
    4.3918    3.4819   -0.1400 H   0  0  0  0  0  0  0  0  0  0  0  0
    6.1719    1.8354   -0.6586 H   0  0  0  0  0  0  0  0  0  0  0  0
   -2.0163   -3.0420    1.2803 H   0  0  0  0  0  0  0  0  0  0  0  0
   -5.7612    0.8704   -2.2456 H   0  0  0  0  0  0  0  0  0  0  0  0
   -6.3518    2.1946    0.4582 H   0  0  0  0  0  0  0  0  0  0  0  0
  1  3  1  0  0  0  0
  1  4  1  0  0  0  0
  1  5  1  0  0  0  0
  1  6  2  0  0  0  0
  2  4  1  0  0  0  0
  2  7  1  0  0  0  0
  2  8  1  0  0  0  0
  2 11  2  0  0  0  0
  3 15  1  0  0  0  0
  5 31  1  0  0  0  0
  7 32  1  0  0  0  0
  8 33  1  0  0  0  0
  9 13  1  0  0  0  0
 10 13  2  0  0  0  0
 12 14  1  0  0  0  0
 12 16  1  0  0  0  0
 12 26  1  0  0  0  0
 13 17  1  0  0  0  0
 14 15  1  0  0  0  0
 14 22  1  0  0  0  0
 14 23  1  0  0  0  0
 15 24  1  0  0  0  0
 15 25  1  0  0  0  0
 16 17  1  0  0  0  0
 16 18  2  0  0  0  0
 17 19  2  0  0  0  0
 18 20  1  0  0  0  0
 18 27  1  0  0  0  0
 19 21  1  0  0  0  0
 19 28  1  0  0  0  0
 20 21  2  0  0  0  0
 20 29  1  0  0  0  0
 21 30  1  0  0  0  0
M  CHG  2   9  -1  13   1
M  END
> <PUBCHEM_COMPOUND_CID>
4577

> <PUBCHEM_CONFORMER_RMSD>
0.8

> <PUBCHEM_CONFORMER_DIVERSEORDER>
1
74
22
29
78
10
30
67
84
80
57
52
38
46
63
14
33
9
94
47
81
79
90
50
5
41
62
77
17
53
3
39
35
64
7
91
32
61
20
75
51
44
27
8
93
69
15
37
76
11
68
71
2
28
40
21
83
23
89
85
16
24
12
59
66
4
86
34
88
26
42
19
36
55
45
87
25
6
18
48
58
31
72
43
73
49
92
60
13
65
70
82
54
56

> <PUBCHEM_MMFF94_PARTIAL_CHARGES>
29
1 1.51
10 -0.52
11 -0.7
12 -0.87
13 0.91
14 0.37
15 0.28
16 0.1
17 0.13
18 -0.15
19 -0.15
2 1.51
20 -0.15
21 -0.15
26 0.4
27 0.15
28 0.15
29 0.15
3 -0.55
30 0.15
31 0.5
32 0.5
33 0.5
4 -0.54
5 -0.77
6 -0.7
7 -0.77
8 -0.77
9 -0.52

> <PUBCHEM_EFFECTIVE_ROTOR_COUNT>
8

> <PUBCHEM_PHARMACOPHORE_FEATURES>
12
1 10 acceptor
1 11 acceptor
1 12 cation
1 12 donor
1 5 acceptor
1 6 acceptor
1 7 acceptor
1 8 acceptor
1 9 acceptor
1 9 anion
4 2 7 8 11 anion
6 16 17 18 19 20 21 rings

> <PUBCHEM_HEAVY_ATOM_COUNT>
21

> <PUBCHEM_ATOM_DEF_STEREO_COUNT>
0

> <PUBCHEM_ATOM_UDEF_STEREO_COUNT>
0

> <PUBCHEM_BOND_DEF_STEREO_COUNT>
0

> <PUBCHEM_BOND_UDEF_STEREO_COUNT>
0

> <PUBCHEM_ISOTOPIC_ATOM_COUNT>
0

> <PUBCHEM_COMPONENT_COUNT>
1

> <PUBCHEM_CACTVS_TAUTO_COUNT>
1

> <PUBCHEM_CONFORMER_ID>
000011E100000001

> <PUBCHEM_MMFF94_ENERGY>
6.7202

> <PUBCHEM_FEATURE_SELFOVERLAP>
61.021

> <PUBCHEM_SHAPE_FINGERPRINT>
11405975 8 18343868818191937018
11595378 159 16486986123325443749
12788726 201 17313657274001178089
14573314 32 18342739615465974973
14848160 23 6483348920316635901
15183329 4 18409169926357476125
15196674 1 18409445869179153586
16752209 62 16733258036264854680
17349148 13 16153707613638413733
17959699 21 18343019999426131224
18186145 218 17561370564663648450
20645477 56 18131351895408973833
20645477 70 18186795890078252670
21709351 56 18339360752146991596
221490 88 18411408502293982738
22289505 5 18412828001770148220
22393880 68 18188487974180570870
23402539 116 17988929920843328856
23402655 69 18408602539697381384
23557571 272 17631727154184104651
23559900 14 18409730643128370416
2871803 45 18335414665234193448
29717793 49 17603576452979405452
300161 21 18411986832050348920
3004659 81 18410011078770435394
3545911 37 18413103948559452888
4214541 1 18410572864455364689
4921388 177 17417807280175843163
5104073 3 18342739593848629954
5283173 99 18341334478186939009
543358 83 18409164445973678466
633830 44 18060704965719448322
8272917 22 18408599284275656046
960060 61 18113903753603126332
9709674 26 18412821361349658578

> <PUBCHEM_SHAPE_MULTIPOLES>
377.08
13.43
2.64
0.99
6.3
0.84
-0.05
-3.74
-2.99
-1.14
-0.12
1.06
0.1
0.24

> <PUBCHEM_SHAPE_SELFOVERLAP>
740.016

> <PUBCHEM_SHAPE_VOLUME>
226.1

> <PUBCHEM_COORDINATE_TYPE>
2
5
10

$$$$

