3546
  -OEChem-06251223292D

 35 36  0     0  0  0  0  0  0999 V2000
    5.1350    1.0427    0.0000 S   0  0  0  0  0  0  0  0  0  0  0  0
    4.1350    1.0427    0.0000 O   0  0  0  0  0  0  0  0  0  0  0  0
    6.1350    1.0427    0.0000 O   0  0  0  0  0  0  0  0  0  0  0  0
    5.1350    0.0427    0.0000 N   0  0  0  0  0  0  0  0  0  0  0  0
    7.8010    3.5635    0.0000 N   0  0  0  0  0  0  0  0  0  0  0  0
    3.4030   -1.9573    0.0000 N   0  0  0  0  0  0  0  0  0  0  0  0
    2.5369   -3.4573    0.0000 N   0  0  0  0  0  0  0  0  0  0  0  0
    4.2690   -3.4573    0.0000 N   0  0  0  0  0  0  0  0  0  0  0  0
    5.1350    2.0427    0.0000 C   0  0  0  0  0  0  0  0  0  0  0  0
    6.0010    2.5427    0.0000 C   0  0  0  0  0  0  0  0  0  0  0  0
    6.0010    3.5427    0.0000 C   0  0  0  0  0  0  0  0  0  0  0  0
    4.2690   -0.4573    0.0000 C   0  0  0  0  0  0  0  0  0  0  0  0
    4.2690    2.5427    0.0000 C   0  0  0  0  0  0  0  0  0  0  0  0
    5.1350    4.0427    0.0000 C   0  0  0  0  0  0  0  0  0  0  0  0
    6.8950    2.0080    0.0000 C   0  0  0  0  0  0  0  0  0  0  0  0
    4.2690    3.5427    0.0000 C   0  0  0  0  0  0  0  0  0  0  0  0
    4.2690   -1.4573    0.0000 C   0  0  0  0  0  0  0  0  0  0  0  0
    6.8950    4.0773    0.0000 C   0  0  0  0  0  0  0  0  0  0  0  0
    7.8010    2.5218    0.0000 C   0  0  0  0  0  0  0  0  0  0  0  0
    3.4030   -2.9573    0.0000 C   0  0  0  0  0  0  0  0  0  0  0  0
    5.6720   -0.2673    0.0000 H   0  0  0  0  0  0  0  0  0  0  0  0
    4.0569    0.1253    0.0000 H   0  0  0  0  0  0  0  0  0  0  0  0
    3.6584   -0.5650    0.0000 H   0  0  0  0  0  0  0  0  0  0  0  0
    3.7320    2.2327    0.0000 H   0  0  0  0  0  0  0  0  0  0  0  0
    5.1350    4.6627    0.0000 H   0  0  0  0  0  0  0  0  0  0  0  0
    6.8878    1.3880    0.0000 H   0  0  0  0  0  0  0  0  0  0  0  0
    4.4810   -2.0399    0.0000 H   0  0  0  0  0  0  0  0  0  0  0  0
    4.8796   -1.3497    0.0000 H   0  0  0  0  0  0  0  0  0  0  0  0
    3.7320    3.8527    0.0000 H   0  0  0  0  0  0  0  0  0  0  0  0
    6.8878    4.6973    0.0000 H   0  0  0  0  0  0  0  0  0  0  0  0
    8.3368    2.2098    0.0000 H   0  0  0  0  0  0  0  0  0  0  0  0
    2.5369   -4.0773    0.0000 H   0  0  0  0  0  0  0  0  0  0  0  0
    2.0000   -3.1473    0.0000 H   0  0  0  0  0  0  0  0  0  0  0  0
    4.2690   -4.0773    0.0000 H   0  0  0  0  0  0  0  0  0  0  0  0
    4.8059   -3.1473    0.0000 H   0  0  0  0  0  0  0  0  0  0  0  0
  1  2  2  0  0  0  0
  1  3  2  0  0  0  0
  1  4  1  0  0  0  0
  1  9  1  0  0  0  0
  4 12  1  0  0  0  0
  4 21  1  0  0  0  0
  5 18  2  0  0  0  0
  5 19  1  0  0  0  0
  6 17  1  0  0  0  0
  6 20  2  0  0  0  0
  7 20  1  0  0  0  0
  7 32  1  0  0  0  0
  7 33  1  0  0  0  0
  8 20  1  0  0  0  0
  8 34  1  0  0  0  0
  8 35  1  0  0  0  0
  9 10  1  0  0  0  0
  9 13  2  0  0  0  0
 10 11  2  0  0  0  0
 10 15  1  0  0  0  0
 11 14  1  0  0  0  0
 11 18  1  0  0  0  0
 12 17  1  0  0  0  0
 12 22  1  0  0  0  0
 12 23  1  0  0  0  0
 13 16  1  0  0  0  0
 13 24  1  0  0  0  0
 14 16  2  0  0  0  0
 14 25  1  0  0  0  0
 15 19  2  0  0  0  0
 15 26  1  0  0  0  0
 16 29  1  0  0  0  0
 17 27  1  0  0  0  0
 17 28  1  0  0  0  0
 18 30  1  0  0  0  0
 19 31  1  0  0  0  0
M  END
> <PUBCHEM_COMPOUND_CID>
3546

> <PUBCHEM_COMPOUND_CANONICALIZED>
1

> <PUBCHEM_CACTVS_COMPLEXITY>
441

> <PUBCHEM_CACTVS_HBOND_ACCEPTOR>
5

> <PUBCHEM_CACTVS_HBOND_DONOR>
3

> <PUBCHEM_CACTVS_ROTATABLE_BOND>
5

> <PUBCHEM_CACTVS_SUBSKEYS>
AAADccBzsABAAAAAAAAAAAAAAAAAAAAAAAA8QAAAAAAAAACx8AAAHAQQQAAADADBWgQ9gdJIEAKgAjBnZHDCgDExAiAI2Lg4ZJgIYOLAkZGEIAhgkADIyAcQgIAOgAAAgAAUAAAAAAEAACgAAAAAAAAAAA==

> <PUBCHEM_IUPAC_OPENEYE_NAME>
2-[2-(5-isoquinolylsulfonylamino)ethyl]guanidine

> <PUBCHEM_IUPAC_CAS_NAME>
2-[2-(5-isoquinolinylsulfonylamino)ethyl]guanidine

> <PUBCHEM_IUPAC_NAME>
2-[2-(isoquinolin-5-ylsulfonylamino)ethyl]guanidine

> <PUBCHEM_IUPAC_SYSTEMATIC_NAME>
2-[2-(isoquinolin-5-ylsulfonylamino)ethyl]guanidine

> <PUBCHEM_IUPAC_TRADITIONAL_NAME>
2-[2-(5-isoquinolylsulfonylamino)ethyl]guanidine

> <PUBCHEM_IUPAC_INCHI>
InChI=1S/C12H15N5O2S/c13-12(14)16-6-7-17-20(18,19)11-3-1-2-9-8-15-5-4-10(9)11/h1-5,8,17H,6-7H2,(H4,13,14,16)

> <PUBCHEM_IUPAC_INCHIKEY>
MZNDNBFMSVMUCX-UHFFFAOYSA-N

> <PUBCHEM_XLOGP3_AA>
-0.5

> <PUBCHEM_EXACT_MASS>
293.094646

> <PUBCHEM_MOLECULAR_FORMULA>
C12H15N5O2S

> <PUBCHEM_MOLECULAR_WEIGHT>
293.3448

> <PUBCHEM_OPENEYE_CAN_SMILES>
C1=CC2=C(C=CN=C2)C(=C1)S(=O)(=O)NCCN=C(N)N

> <PUBCHEM_OPENEYE_ISO_SMILES>
C1=CC2=C(C=CN=C2)C(=C1)S(=O)(=O)NCCN=C(N)N

> <PUBCHEM_CACTVS_TPSA>
132

> <PUBCHEM_MONOISOTOPIC_WEIGHT>
293.094646

> <PUBCHEM_TOTAL_CHARGE>
0

> <PUBCHEM_HEAVY_ATOM_COUNT>
20

> <PUBCHEM_ATOM_DEF_STEREO_COUNT>
0

> <PUBCHEM_ATOM_UDEF_STEREO_COUNT>
0

> <PUBCHEM_BOND_DEF_STEREO_COUNT>
0

> <PUBCHEM_BOND_UDEF_STEREO_COUNT>
0

> <PUBCHEM_ISOTOPIC_ATOM_COUNT>
0

> <PUBCHEM_COMPONENT_COUNT>
1

> <PUBCHEM_CACTVS_TAUTO_COUNT>
2

> <PUBCHEM_COORDINATE_TYPE>
1
5
255

> <PUBCHEM_BONDANNOTATIONS>
10  11  8
10  15  8
11  14  8
11  18  8
13  16  8
14  16  8
15  19  8
5  18  8
5  19  8
9  10  8
9  13  8

$$$$

