17395894
  -OEChem-06241222532D

 39 42  0     0  0  0  0  0  0999 V2000
    4.6783    0.2856    0.0000 S   0  0  0  0  0  0  0  0  0  0  0  0
    7.8551    2.0039    0.0000 S   0  0  0  0  0  0  0  0  0  0  0  0
    2.8660    3.0904    0.0000 F   0  0  0  0  0  0  0  0  0  0  0  0
    7.7564   -1.6122    0.0000 O   0  0  0  0  0  0  0  0  0  0  0  0
    6.7619    1.9564    0.0000 O   0  0  0  0  0  0  0  0  0  0  0  0
    6.7619    0.2244    0.0000 N   0  0  0  0  0  0  0  0  0  0  0  0
    7.7619    0.2244    0.0000 C   0  0  0  0  0  0  0  0  0  0  0  0
    6.2619   -0.6417    0.0000 C   0  0  0  0  0  0  0  0  0  0  0  0
    6.2619    1.0904    0.0000 C   0  0  0  0  0  0  0  0  0  0  0  0
    5.2619    1.0904    0.0000 C   0  0  0  0  0  0  0  0  0  0  0  0
    8.2619    1.0904    0.0000 C   0  0  0  0  0  0  0  0  0  0  0  0
    3.7320    1.5904    0.0000 C   0  0  0  0  0  0  0  0  0  0  0  0
    6.7619   -1.5077    0.0000 C   0  0  0  0  0  0  0  0  0  0  0  0
    4.6783    1.8951    0.0000 C   0  0  0  0  0  0  0  0  0  0  0  0
    3.7320    0.5904    0.0000 C   0  0  0  0  0  0  0  0  0  0  0  0
    2.8660    2.0904    0.0000 C   0  0  0  0  0  0  0  0  0  0  0  0
    9.2564    1.1949    0.0000 C   0  0  0  0  0  0  0  0  0  0  0  0
    6.3551   -2.4212    0.0000 C   0  0  0  0  0  0  0  0  0  0  0  0
    2.8660    0.0904    0.0000 C   0  0  0  0  0  0  0  0  0  0  0  0
    2.0000    1.5904    0.0000 C   0  0  0  0  0  0  0  0  0  0  0  0
    2.0000    0.5904    0.0000 C   0  0  0  0  0  0  0  0  0  0  0  0
    9.4643    2.1730    0.0000 C   0  0  0  0  0  0  0  0  0  0  0  0
    7.0983   -3.0904    0.0000 C   0  0  0  0  0  0  0  0  0  0  0  0
    8.5983    2.6730    0.0000 C   0  0  0  0  0  0  0  0  0  0  0  0
    7.9643   -2.5904    0.0000 C   0  0  0  0  0  0  0  0  0  0  0  0
    7.6542   -0.3862    0.0000 H   0  0  0  0  0  0  0  0  0  0  0  0
    8.3445    0.0123    0.0000 H   0  0  0  0  0  0  0  0  0  0  0  0
    5.7869   -0.2431    0.0000 H   0  0  0  0  0  0  0  0  0  0  0  0
    5.7869   -1.0402    0.0000 H   0  0  0  0  0  0  0  0  0  0  0  0
    4.8709    2.4844    0.0000 H   0  0  0  0  0  0  0  0  0  0  0  0
    9.6713    0.7342    0.0000 H   0  0  0  0  0  0  0  0  0  0  0  0
    5.7487   -2.5502    0.0000 H   0  0  0  0  0  0  0  0  0  0  0  0
    2.8660   -0.5296    0.0000 H   0  0  0  0  0  0  0  0  0  0  0  0
    1.4631    1.9004    0.0000 H   0  0  0  0  0  0  0  0  0  0  0  0
    1.4631    0.2804    0.0000 H   0  0  0  0  0  0  0  0  0  0  0  0
   10.0307    2.4252    0.0000 H   0  0  0  0  0  0  0  0  0  0  0  0
    7.0335   -3.7070    0.0000 H   0  0  0  0  0  0  0  0  0  0  0  0
    8.5335    3.2897    0.0000 H   0  0  0  0  0  0  0  0  0  0  0  0
    8.5307   -2.8426    0.0000 H   0  0  0  0  0  0  0  0  0  0  0  0
  1 10  1  0  0  0  0
  1 15  1  0  0  0  0
  2 11  1  0  0  0  0
  2 24  1  0  0  0  0
  3 16  1  0  0  0  0
  4 13  1  0  0  0  0
  4 25  1  0  0  0  0
  5  9  2  0  0  0  0
  6  7  1  0  0  0  0
  6  8  1  0  0  0  0
  6  9  1  0  0  0  0
  7 11  1  0  0  0  0
  7 26  1  0  0  0  0
  7 27  1  0  0  0  0
  8 13  1  0  0  0  0
  8 28  1  0  0  0  0
  8 29  1  0  0  0  0
  9 10  1  0  0  0  0
 10 14  2  0  0  0  0
 11 17  2  0  0  0  0
 12 14  1  0  0  0  0
 12 15  1  0  0  0  0
 12 16  2  0  0  0  0
 13 18  2  0  0  0  0
 14 30  1  0  0  0  0
 15 19  2  0  0  0  0
 16 20  1  0  0  0  0
 17 22  1  0  0  0  0
 17 31  1  0  0  0  0
 18 23  1  0  0  0  0
 18 32  1  0  0  0  0
 19 21  1  0  0  0  0
 19 33  1  0  0  0  0
 20 21  2  0  0  0  0
 20 34  1  0  0  0  0
 21 35  1  0  0  0  0
 22 24  2  0  0  0  0
 22 36  1  0  0  0  0
 23 25  2  0  0  0  0
 23 37  1  0  0  0  0
 24 38  1  0  0  0  0
 25 39  1  0  0  0  0
M  END
> <PUBCHEM_COMPOUND_CID>
17395894

> <PUBCHEM_COMPOUND_CANONICALIZED>
1

> <PUBCHEM_CACTVS_COMPLEXITY>
480

> <PUBCHEM_CACTVS_HBOND_ACCEPTOR>
5

> <PUBCHEM_CACTVS_HBOND_DONOR>
0

> <PUBCHEM_CACTVS_ROTATABLE_BOND>
5

> <PUBCHEM_CACTVS_SUBSKEYS>
AAADccB6MQBgAAAAAAAAAAAAAAAAASJEgAAwAAAAAAAAAEgB/gAAHwQAAAAADATl2A6wBcMABEiMAqlSkACDCIAkKBBIiBmODMgOJjKktTuHOSjkxhG4qYeYmYKOAAAAAAAEAAAAAAAAAAgAAAAAAAAAAA==

> <PUBCHEM_IUPAC_OPENEYE_NAME>
4-fluoro-N-(2-furylmethyl)-N-(2-thienylmethyl)benzothiophene-2-carboxamide

> <PUBCHEM_IUPAC_CAS_NAME>
4-fluoro-N-(2-furanylmethyl)-N-(thiophen-2-ylmethyl)-1-benzothiophene-2-carboxamide

> <PUBCHEM_IUPAC_NAME>
4-fluoro-N-(furan-2-ylmethyl)-N-(thiophen-2-ylmethyl)-1-benzothiophene-2-carboxamide

> <PUBCHEM_IUPAC_SYSTEMATIC_NAME>
4-fluoranyl-N-(furan-2-ylmethyl)-N-(thiophen-2-ylmethyl)-1-benzothiophene-2-carboxamide

> <PUBCHEM_IUPAC_TRADITIONAL_NAME>
4-fluoro-N-(2-furfuryl)-N-(2-thenyl)benzothiophene-2-carboxamide

> <PUBCHEM_IUPAC_INCHI>
InChI=1S/C19H14FNO2S2/c20-16-6-1-7-17-15(16)10-18(25-17)19(22)21(11-13-4-2-8-23-13)12-14-5-3-9-24-14/h1-10H,11-12H2

> <PUBCHEM_IUPAC_INCHIKEY>
KITAYIGRIIVNKS-UHFFFAOYSA-N

> <PUBCHEM_XLOGP3_AA>
4.6

> <PUBCHEM_EXACT_MASS>
371.044999

> <PUBCHEM_MOLECULAR_FORMULA>
C19H14FNO2S2

> <PUBCHEM_MOLECULAR_WEIGHT>
371.448363

> <PUBCHEM_OPENEYE_CAN_SMILES>
C1=CC(=C2C=C(SC2=C1)C(=O)N(CC3=CC=CO3)CC4=CC=CS4)F

> <PUBCHEM_OPENEYE_ISO_SMILES>
C1=CC(=C2C=C(SC2=C1)C(=O)N(CC3=CC=CO3)CC4=CC=CS4)F

> <PUBCHEM_CACTVS_TPSA>
89.9

> <PUBCHEM_MONOISOTOPIC_WEIGHT>
371.044999

> <PUBCHEM_TOTAL_CHARGE>
0

> <PUBCHEM_HEAVY_ATOM_COUNT>
25

> <PUBCHEM_ATOM_DEF_STEREO_COUNT>
0

> <PUBCHEM_ATOM_UDEF_STEREO_COUNT>
0

> <PUBCHEM_BOND_DEF_STEREO_COUNT>
0

> <PUBCHEM_BOND_UDEF_STEREO_COUNT>
0

> <PUBCHEM_ISOTOPIC_ATOM_COUNT>
0

> <PUBCHEM_COMPONENT_COUNT>
1

> <PUBCHEM_CACTVS_TAUTO_COUNT>
1

> <PUBCHEM_COORDINATE_TYPE>
1
5
255

> <PUBCHEM_BONDANNOTATIONS>
1  10  8
1  15  8
10  14  8
11  17  8
12  14  8
12  15  8
12  16  8
13  18  8
15  19  8
16  20  8
17  22  8
18  23  8
19  21  8
2  11  8
2  24  8
20  21  8
22  24  8
23  25  8
4  13  8
4  25  8

$$$$

