17395883
  -OEChem-06241222532D

 53 55  0     0  0  0  0  0  0999 V2000
    4.2788    1.5167    0.0000 O   0  0  0  0  0  0  0  0  0  0  0  0
    6.3479   -1.3312    0.0000 O   0  0  0  0  0  0  0  0  0  0  0  0
    7.3659   -0.5569    0.0000 O   0  0  0  0  0  0  0  0  0  0  0  0
    4.5878   -1.0524    0.0000 N   0  0  0  0  0  0  0  0  0  0  0  0
    5.5388    0.2566    0.0000 N   0  0  0  0  0  0  0  0  0  0  0  0
    8.0704    1.0254    0.0000 N   0  0  0  0  0  0  0  0  0  0  0  0
    4.0000   -0.2434    0.0000 C   0  0  0  0  0  0  0  0  0  0  0  0
    3.5000   -1.1094    0.0000 C   0  0  0  0  0  0  0  0  0  0  0  0
    3.5000    0.6226    0.0000 C   0  0  0  0  0  0  0  0  0  0  0  0
    2.5000   -1.1094    0.0000 C   0  0  0  0  0  0  0  0  0  0  0  0
    2.5000    0.6226    0.0000 C   0  0  0  0  0  0  0  0  0  0  0  0
    2.0000   -0.2434    0.0000 C   0  0  0  0  0  0  0  0  0  0  0  0
    4.5878    0.5656    0.0000 C   0  0  0  0  0  0  0  0  0  0  0  0
    5.5388   -0.7434    0.0000 C   0  0  0  0  0  0  0  0  0  0  0  0
    8.9840    0.6187    0.0000 C   0  0  0  0  0  0  0  0  0  0  0  0
    8.9578   -0.3809    0.0000 C   0  0  0  0  0  0  0  0  0  0  0  0
    9.7093    1.3071    0.0000 C   0  0  0  0  0  0  0  0  0  0  0  0
    6.3479    0.8444    0.0000 C   0  0  0  0  0  0  0  0  0  0  0  0
   10.7090    1.2809    0.0000 C   0  0  0  0  0  0  0  0  0  0  0  0
    9.6461   -1.1063    0.0000 C   0  0  0  0  0  0  0  0  0  0  0  0
   10.6458   -1.1325    0.0000 C   0  0  0  0  0  0  0  0  0  0  0  0
   11.3974    0.5555    0.0000 C   0  0  0  0  0  0  0  0  0  0  0  0
   11.3712   -0.4441    0.0000 C   0  0  0  0  0  0  0  0  0  0  0  0
    7.2614    0.4377    0.0000 C   0  0  0  0  0  0  0  0  0  0  0  0
    3.3923   -1.7200    0.0000 H   0  0  0  0  0  0  0  0  0  0  0  0
    4.0826   -1.3215    0.0000 H   0  0  0  0  0  0  0  0  0  0  0  0
    4.0826    0.8347    0.0000 H   0  0  0  0  0  0  0  0  0  0  0  0
    3.3923    1.2332    0.0000 H   0  0  0  0  0  0  0  0  0  0  0  0
    1.9174   -1.3215    0.0000 H   0  0  0  0  0  0  0  0  0  0  0  0
    2.6077   -1.7200    0.0000 H   0  0  0  0  0  0  0  0  0  0  0  0
    2.6077    1.2332    0.0000 H   0  0  0  0  0  0  0  0  0  0  0  0
    1.9174    0.8347    0.0000 H   0  0  0  0  0  0  0  0  0  0  0  0
    1.5250    0.1551    0.0000 H   0  0  0  0  0  0  0  0  0  0  0  0
    1.5250   -0.6419    0.0000 H   0  0  0  0  0  0  0  0  0  0  0  0
    4.3962   -1.6420    0.0000 H   0  0  0  0  0  0  0  0  0  0  0  0
    8.8790    1.2298    0.0000 H   0  0  0  0  0  0  0  0  0  0  0  0
    9.8854    1.9015    0.0000 H   0  0  0  0  0  0  0  0  0  0  0  0
    9.1807    1.6310    0.0000 H   0  0  0  0  0  0  0  0  0  0  0  0
    8.3633   -0.2049    0.0000 H   0  0  0  0  0  0  0  0  0  0  0  0
    8.6338   -0.9096    0.0000 H   0  0  0  0  0  0  0  0  0  0  0  0
    6.6946    1.3584    0.0000 H   0  0  0  0  0  0  0  0  0  0  0  0
    5.9019    1.2751    0.0000 H   0  0  0  0  0  0  0  0  0  0  0  0
    9.1013   -1.4022    0.0000 H   0  0  0  0  0  0  0  0  0  0  0  0
    9.7909   -1.7092    0.0000 H   0  0  0  0  0  0  0  0  0  0  0  0
   11.2539    1.5767    0.0000 H   0  0  0  0  0  0  0  0  0  0  0  0
   10.5643    1.8838    0.0000 H   0  0  0  0  0  0  0  0  0  0  0  0
   10.4697   -1.7270    0.0000 H   0  0  0  0  0  0  0  0  0  0  0  0
   11.1744   -1.4564    0.0000 H   0  0  0  0  0  0  0  0  0  0  0  0
   11.9918    0.3794    0.0000 H   0  0  0  0  0  0  0  0  0  0  0  0
   11.7213    1.0842    0.0000 H   0  0  0  0  0  0  0  0  0  0  0  0
   11.6670   -0.9890    0.0000 H   0  0  0  0  0  0  0  0  0  0  0  0
   11.9740   -0.2994    0.0000 H   0  0  0  0  0  0  0  0  0  0  0  0
    8.0056    1.6420    0.0000 H   0  0  0  0  0  0  0  0  0  0  0  0
  1 13  2  0  0  0  0
  2 14  2  0  0  0  0
  3 24  2  0  0  0  0
  4  7  1  0  0  0  0
  4 14  1  0  0  0  0
  4 35  1  0  0  0  0
  5 13  1  0  0  0  0
  5 14  1  0  0  0  0
  5 18  1  0  0  0  0
  6 15  1  0  0  0  0
  6 24  1  0  0  0  0
  6 53  1  0  0  0  0
  7  8  1  0  0  0  0
  7  9  1  0  0  0  0
  7 13  1  0  0  0  0
  8 10  1  0  0  0  0
  8 25  1  0  0  0  0
  8 26  1  0  0  0  0
  9 11  1  0  0  0  0
  9 27  1  0  0  0  0
  9 28  1  0  0  0  0
 10 12  1  0  0  0  0
 10 29  1  0  0  0  0
 10 30  1  0  0  0  0
 11 12  1  0  0  0  0
 11 31  1  0  0  0  0
 11 32  1  0  0  0  0
 12 33  1  0  0  0  0
 12 34  1  0  0  0  0
 15 16  1  0  0  0  0
 15 17  1  0  0  0  0
 15 36  1  0  0  0  0
 16 20  1  0  0  0  0
 16 39  1  0  0  0  0
 16 40  1  0  0  0  0
 17 19  1  0  0  0  0
 17 37  1  0  0  0  0
 17 38  1  0  0  0  0
 18 24  1  0  0  0  0
 18 41  1  0  0  0  0
 18 42  1  0  0  0  0
 19 22  1  0  0  0  0
 19 45  1  0  0  0  0
 19 46  1  0  0  0  0
 20 21  1  0  0  0  0
 20 43  1  0  0  0  0
 20 44  1  0  0  0  0
 21 23  1  0  0  0  0
 21 47  1  0  0  0  0
 21 48  1  0  0  0  0
 22 23  1  0  0  0  0
 22 49  1  0  0  0  0
 22 50  1  0  0  0  0
 23 51  1  0  0  0  0
 23 52  1  0  0  0  0
M  END
> <PUBCHEM_COMPOUND_CID>
17395883

> <PUBCHEM_COMPOUND_CANONICALIZED>
1

> <PUBCHEM_CACTVS_COMPLEXITY>
492

> <PUBCHEM_CACTVS_HBOND_ACCEPTOR>
3

> <PUBCHEM_CACTVS_HBOND_DONOR>
2

> <PUBCHEM_CACTVS_ROTATABLE_BOND>
3

> <PUBCHEM_CACTVS_SUBSKEYS>
AAADceB7MAAAAAAAAAAAAAAAAAAAAWAAAAAwAAAAAAAYAAAAAAAAHgAQAAAADKjBgAQBAAPAAAAIAAEQEAAAAAAAAAAAAIGIAACAQBIAgCAUAAAIFyKAAAEYiICOAAAAAAAAAAAAAAAAAAAAAAAAAAAAAA==

> <PUBCHEM_IUPAC_OPENEYE_NAME>
N-cyclooctyl-2-(2,4-dioxo-1,3-diazaspiro[4.5]decan-3-yl)acetamide

> <PUBCHEM_IUPAC_CAS_NAME>
N-cyclooctyl-2-(2,4-dioxo-1,3-diazaspiro[4.5]decan-3-yl)acetamide

> <PUBCHEM_IUPAC_NAME>
N-cyclooctyl-2-(2,4-dioxo-1,3-diazaspiro[4.5]decan-3-yl)acetamide

> <PUBCHEM_IUPAC_SYSTEMATIC_NAME>
2-[2,4-bis(oxidanylidene)-1,3-diazaspiro[4.5]decan-3-yl]-N-cyclooctyl-ethanamide

> <PUBCHEM_IUPAC_TRADITIONAL_NAME>
N-cyclooctyl-2-(2,4-diketo-1,3-diazaspiro[4.5]decan-3-yl)acetamide

> <PUBCHEM_IUPAC_INCHI>
InChI=1S/C18H29N3O3/c22-15(19-14-9-5-2-1-3-6-10-14)13-21-16(23)18(20-17(21)24)11-7-4-8-12-18/h14H,1-13H2,(H,19,22)(H,20,24)

> <PUBCHEM_IUPAC_INCHIKEY>
NZTSXTCTVXKIBA-UHFFFAOYSA-N

> <PUBCHEM_XLOGP3_AA>
3

> <PUBCHEM_EXACT_MASS>
335.220892

> <PUBCHEM_MOLECULAR_FORMULA>
C18H29N3O3

> <PUBCHEM_MOLECULAR_WEIGHT>
335.44116

> <PUBCHEM_OPENEYE_CAN_SMILES>
C1CCCC(CCC1)NC(=O)CN2C(=O)C3(CCCCC3)NC2=O

> <PUBCHEM_OPENEYE_ISO_SMILES>
C1CCCC(CCC1)NC(=O)CN2C(=O)C3(CCCCC3)NC2=O

> <PUBCHEM_CACTVS_TPSA>
78.5

> <PUBCHEM_MONOISOTOPIC_WEIGHT>
335.220892

> <PUBCHEM_TOTAL_CHARGE>
0

> <PUBCHEM_HEAVY_ATOM_COUNT>
24

> <PUBCHEM_ATOM_DEF_STEREO_COUNT>
0

> <PUBCHEM_ATOM_UDEF_STEREO_COUNT>
0

> <PUBCHEM_BOND_DEF_STEREO_COUNT>
0

> <PUBCHEM_BOND_UDEF_STEREO_COUNT>
0

> <PUBCHEM_ISOTOPIC_ATOM_COUNT>
0

> <PUBCHEM_COMPONENT_COUNT>
1

> <PUBCHEM_CACTVS_TAUTO_COUNT>
4

> <PUBCHEM_COORDINATE_TYPE>
1
5
255

$$$$

