11505
  -OEChem-06261205453D

 19 19  0     0  0  0  0  0  0999 V2000
    3.1122   -0.0001   -0.8058 O   0  0  0  0  0  0  0  0  0  0  0  0
    0.9947    0.0003    0.2770 C   0  0  0  0  0  0  0  0  0  0  0  0
   -1.7727   -0.0001   -0.0753 C   0  0  0  0  0  0  0  0  0  0  0  0
    0.3025    1.2081    0.1888 C   0  0  0  0  0  0  0  0  0  0  0  0
    0.3030   -1.2079    0.1890 C   0  0  0  0  0  0  0  0  0  0  0  0
   -1.0812    1.2080    0.0127 C   0  0  0  0  0  0  0  0  0  0  0  0
   -1.0807   -1.2081    0.0128 C   0  0  0  0  0  0  0  0  0  0  0  0
    2.4742    0.0001    0.4654 C   0  0  0  0  0  0  0  0  0  0  0  0
   -3.2519   -0.0002   -0.2646 C   0  0  0  0  0  0  0  0  0  0  0  0
    0.8306    2.1558    0.2537 H   0  0  0  0  0  0  0  0  0  0  0  0
    0.8313   -2.1556    0.2540 H   0  0  0  0  0  0  0  0  0  0  0  0
   -1.6089    2.1555   -0.0569 H   0  0  0  0  0  0  0  0  0  0  0  0
   -1.6082   -2.1558   -0.0568 H   0  0  0  0  0  0  0  0  0  0  0  0
    2.8071    0.8803    1.0261 H   0  0  0  0  0  0  0  0  0  0  0  0
    2.8065   -0.8825    1.0221 H   0  0  0  0  0  0  0  0  0  0  0  0
   -3.7096   -0.8815    0.1978 H   0  0  0  0  0  0  0  0  0  0  0  0
   -3.7100    0.8793    0.2006 H   0  0  0  0  0  0  0  0  0  0  0  0
   -3.4941    0.0015   -1.3319 H   0  0  0  0  0  0  0  0  0  0  0  0
    2.7136    0.7024   -1.3473 H   0  0  0  0  0  0  0  0  0  0  0  0
  1  8  1  0  0  0  0
  1 19  1  0  0  0  0
  2  4  2  0  0  0  0
  2  5  1  0  0  0  0
  2  8  1  0  0  0  0
  3  6  2  0  0  0  0
  3  7  1  0  0  0  0
  3  9  1  0  0  0  0
  4  6  1  0  0  0  0
  4 10  1  0  0  0  0
  5  7  2  0  0  0  0
  5 11  1  0  0  0  0
  6 12  1  0  0  0  0
  7 13  1  0  0  0  0
  8 14  1  0  0  0  0
  8 15  1  0  0  0  0
  9 16  1  0  0  0  0
  9 17  1  0  0  0  0
  9 18  1  0  0  0  0
M  END
> <PUBCHEM_COMPOUND_CID>
11505

> <PUBCHEM_CONFORMER_RMSD>
0.4

> <PUBCHEM_CONFORMER_DIVERSEORDER>
1
2

> <PUBCHEM_MMFF94_PARTIAL_CHARGES>
14
1 -0.68
10 0.15
11 0.15
12 0.15
13 0.15
19 0.4
2 -0.14
3 -0.14
4 -0.15
5 -0.15
6 -0.15
7 -0.15
8 0.42
9 0.14

> <PUBCHEM_EFFECTIVE_ROTOR_COUNT>
1

> <PUBCHEM_PHARMACOPHORE_FEATURES>
3
1 1 acceptor
1 1 donor
6 2 3 4 5 6 7 rings

> <PUBCHEM_HEAVY_ATOM_COUNT>
9

> <PUBCHEM_ATOM_DEF_STEREO_COUNT>
0

> <PUBCHEM_ATOM_UDEF_STEREO_COUNT>
0

> <PUBCHEM_BOND_DEF_STEREO_COUNT>
0

> <PUBCHEM_BOND_UDEF_STEREO_COUNT>
0

> <PUBCHEM_ISOTOPIC_ATOM_COUNT>
0

> <PUBCHEM_COMPONENT_COUNT>
1

> <PUBCHEM_CACTVS_TAUTO_COUNT>
1

> <PUBCHEM_CONFORMER_ID>
00002CF100000001

> <PUBCHEM_MMFF94_ENERGY>
21.3426

> <PUBCHEM_FEATURE_SELFOVERLAP>
15.223

> <PUBCHEM_SHAPE_FINGERPRINT>
12032990 46 18409162182494550627
12897270 3 18410857676378798356
14325111 11 18411421734407479705
15310529 11 16702031888893069969
16714656 1 18410575088973870482
16945 1 18410862065956655227
193761 8 17617381022907212905
20645464 45 17968676933770615984
21040471 1 18339088197294783778
21293036 1 18412826863044171381
23235685 24 18412268345676321417
23402655 69 18121522373716988341
23552423 10 18056482746690115060
2748010 2 18122915217881536081
29004967 10 18343864433193799521
369184 2 18409175410877440130
5084963 1 18187085057003734769

> <PUBCHEM_SHAPE_MULTIPOLES>
179.35
4.07
1.28
0.71
0.36
0
-0.03
0
-0.69
-0.22
0.06
0.22
0
0

> <PUBCHEM_SHAPE_SELFOVERLAP>
366.593

> <PUBCHEM_SHAPE_VOLUME>
104.8

> <PUBCHEM_COORDINATE_TYPE>
2
5
10

$$$$

