17396088
  -OEChem-06241222543D

 37 38  0     1  0  0  0  0  0999 V2000
   -3.1149    1.9312    1.6667 F   0  0  0  0  0  0  0  0  0  0  0  0
   -6.7932    0.2561   -0.7917 F   0  0  0  0  0  0  0  0  0  0  0  0
   -0.6391   -1.7892   -0.7234 O   0  0  0  0  0  0  0  0  0  0  0  0
    1.8655   -1.5320    0.2051 N   0  0  0  0  0  0  0  0  0  0  0  0
   -1.4201    0.0182    0.5553 N   0  0  0  0  0  0  0  0  0  0  0  0
    3.1828   -1.2779    0.8181 C   0  0  2  0  0  0  0  0  0  0  0  0
    3.8949   -0.1349    0.1770 C   0  0  0  0  0  0  0  0  0  0  0  0
    3.9972   -2.5834    0.7724 C   0  0  0  0  0  0  0  0  0  0  0  0
    0.8860   -0.5899    0.7108 C   0  0  0  0  0  0  0  0  0  0  0  0
    4.7345    0.6790    0.9376 C   0  0  0  0  0  0  0  0  0  0  0  0
    3.7209    0.1206   -1.1832 C   0  0  0  0  0  0  0  0  0  0  0  0
   -0.4655   -0.8788    0.0805 C   0  0  0  0  0  0  0  0  0  0  0  0
    5.4000    1.7483    0.3380 C   0  0  0  0  0  0  0  0  0  0  0  0
    4.3866    1.1898   -1.7828 C   0  0  0  0  0  0  0  0  0  0  0  0
   -2.7920    0.0808    0.2129 C   0  0  0  0  0  0  0  0  0  0  0  0
    5.2261    2.0036   -1.0221 C   0  0  0  0  0  0  0  0  0  0  0  0
   -3.6134    1.0507    0.7873 C   0  0  0  0  0  0  0  0  0  0  0  0
   -3.3222   -0.8301   -0.7008 C   0  0  0  0  0  0  0  0  0  0  0  0
   -4.9651    1.1099    0.4480 C   0  0  0  0  0  0  0  0  0  0  0  0
   -4.6739   -0.7710   -1.0400 C   0  0  0  0  0  0  0  0  0  0  0  0
   -5.4952    0.1991   -0.4656 C   0  0  0  0  0  0  0  0  0  0  0  0
    3.0345   -1.0566    1.8847 H   0  0  0  0  0  0  0  0  0  0  0  0
    1.5601   -2.4768    0.4401 H   0  0  0  0  0  0  0  0  0  0  0  0
    4.1746   -2.9101   -0.2590 H   0  0  0  0  0  0  0  0  0  0  0  0
    3.4808   -3.3915    1.3026 H   0  0  0  0  0  0  0  0  0  0  0  0
    4.9756   -2.4473    1.2472 H   0  0  0  0  0  0  0  0  0  0  0  0
    1.1546    0.4439    0.4644 H   0  0  0  0  0  0  0  0  0  0  0  0
    0.7759   -0.6788    1.7985 H   0  0  0  0  0  0  0  0  0  0  0  0
    4.8806    0.4903    1.9978 H   0  0  0  0  0  0  0  0  0  0  0  0
    3.0887   -0.5040   -1.8082 H   0  0  0  0  0  0  0  0  0  0  0  0
    6.0542    2.3816    0.9301 H   0  0  0  0  0  0  0  0  0  0  0  0
    4.2547    1.3864   -2.8428 H   0  0  0  0  0  0  0  0  0  0  0  0
   -1.1149    0.7191    1.2276 H   0  0  0  0  0  0  0  0  0  0  0  0
    5.7452    2.8354   -1.4892 H   0  0  0  0  0  0  0  0  0  0  0  0
   -2.7523   -1.6084   -1.1880 H   0  0  0  0  0  0  0  0  0  0  0  0
   -5.6046    1.8650    0.8951 H   0  0  0  0  0  0  0  0  0  0  0  0
   -5.0885   -1.4794   -1.7515 H   0  0  0  0  0  0  0  0  0  0  0  0
  1 17  1  0  0  0  0
  2 21  1  0  0  0  0
  3 12  2  0  0  0  0
  4  6  1  0  0  0  0
  4  9  1  0  0  0  0
  4 23  1  0  0  0  0
  5 12  1  0  0  0  0
  5 15  1  0  0  0  0
  5 33  1  0  0  0  0
  6  7  1  0  0  0  0
  6  8  1  0  0  0  0
  6 22  1  0  0  0  0
  7 10  2  0  0  0  0
  7 11  1  0  0  0  0
  8 24  1  0  0  0  0
  8 25  1  0  0  0  0
  8 26  1  0  0  0  0
  9 12  1  0  0  0  0
  9 27  1  0  0  0  0
  9 28  1  0  0  0  0
 10 13  1  0  0  0  0
 10 29  1  0  0  0  0
 11 14  2  0  0  0  0
 11 30  1  0  0  0  0
 13 16  2  0  0  0  0
 13 31  1  0  0  0  0
 14 16  1  0  0  0  0
 14 32  1  0  0  0  0
 15 17  2  0  0  0  0
 15 18  1  0  0  0  0
 16 34  1  0  0  0  0
 17 19  1  0  0  0  0
 18 20  2  0  0  0  0
 18 35  1  0  0  0  0
 19 21  2  0  0  0  0
 19 36  1  0  0  0  0
 20 21  1  0  0  0  0
 20 37  1  0  0  0  0
M  END
> <PUBCHEM_COMPOUND_CID>
17396088

> <PUBCHEM_CONFORMER_RMSD>
0.8

> <PUBCHEM_CONFORMER_DIVERSEORDER>
1
107
24
95
21
44
51
143
36
110
138
134
92
59
73
81
105
54
144
11
18
100
152
52
56
4
3
12
145
84
136
49
124
28
80
129
146
47
62
48
5
123
93
34
20
112
97
39
139
2
29
117
151
55
125
69
15
149
150
101
111
90
106
32
75
33
109
16
120
40
108
41
77
71
26
126
53
116
13
83
23
27
61
153
127
113
14
128
119
35
98
42
46
57
38
88
74
133
87
131
68
19
43
65
130
6
70
155
89
85
142
64
25
37
72
99
45
7
76
135
114
94
78
132
66
103
104
58
63
96
121
141
91
86
122
17
82
8
67
79
9
140
137
30
147
10
148
50
22
154
31
118
115
60
102

> <PUBCHEM_MMFF94_PARTIAL_CHARGES>
30
1 -0.19
10 -0.15
11 -0.15
12 0.57
13 -0.15
14 -0.15
15 0.12
16 -0.15
17 0.19
18 -0.15
19 -0.15
2 -0.19
20 -0.15
21 0.19
23 0.36
29 0.15
3 -0.57
30 0.15
31 0.15
32 0.15
33 0.37
34 0.15
35 0.15
36 0.15
37 0.15
4 -0.9
5 -0.55
6 0.41
7 -0.14
9 0.33

> <PUBCHEM_EFFECTIVE_ROTOR_COUNT>
6

> <PUBCHEM_PHARMACOPHORE_FEATURES>
6
1 3 acceptor
1 4 cation
1 4 donor
1 5 donor
6 15 17 18 19 20 21 rings
6 7 10 11 13 14 16 rings

> <PUBCHEM_HEAVY_ATOM_COUNT>
21

> <PUBCHEM_ATOM_DEF_STEREO_COUNT>
0

> <PUBCHEM_ATOM_UDEF_STEREO_COUNT>
1

> <PUBCHEM_BOND_DEF_STEREO_COUNT>
0

> <PUBCHEM_BOND_UDEF_STEREO_COUNT>
0

> <PUBCHEM_ISOTOPIC_ATOM_COUNT>
0

> <PUBCHEM_COMPONENT_COUNT>
1

> <PUBCHEM_CACTVS_TAUTO_COUNT>
2

> <PUBCHEM_CONFORMER_ID>
0109717800000001

> <PUBCHEM_MMFF94_ENERGY>
50.5416

> <PUBCHEM_FEATURE_SELFOVERLAP>
30.446

> <PUBCHEM_SHAPE_FINGERPRINT>
10498660 4 17822285795317094008
10554248 39 18044669817727343935
10595046 47 18408045112924359147
10670039 82 18260818341650087484
10906281 52 18113889508093306899
10912923 1 18334015029475591083
11089746 13 18334855009610274496
11128504 68 18113898260260697132
12236239 1 18410578414001387031
125118 31 17917151706149528917
12523318 42 15769197346565382977
12596602 18 18202566176992577179
12616971 3 18338234985020118827
12916748 109 18040713666867634795
13533116 47 15554180275293679512
13631057 29 18057606452513131627
13955234 65 17631741594102129042
14251764 75 17129000687323194524
14461889 52 17703785865035122331
14528608 73 18334013873981513132
14739800 52 18115322098497805600
14774955 27 18130504150426729380
15183329 4 17676477368061352732
15342168 16 17917143906298657782
15348495 7 14692565481684083420
15575132 122 18335983160011954437
17844677 252 17987801950434942279
20157964 124 18131635598993702203
20369508 70 6555413098776513118
20554085 129 14476696200020116373
20567600 234 17060331886436119159
21033648 29 16559036016660726103
21315763 76 18201443536649485404
2215653 11 14273737352310649269
2297311 6 16515682235129318041
2303208 19 14273740638161025863
23081809 10 18260271880260348635
235170 7 16370997525320406724
23559900 14 16298674875638264656
270888 7 17986104116279107644
2767999 5 18272090474337978516
300161 21 18342463629399394119
3004659 81 18188209909535117138
3472631 163 18263641775962223804
34797466 226 16588026775241448649
474 4 18131631162835661658
5104073 3 17989485225317166259
5219985 9 17983014742314478746
543368 44 18409729522046960301
5924683 9 14764053503398252425
633830 44 18341045332356420211
7970288 3 8141824754778823780
90127 26 17488742410100948813

> <PUBCHEM_SHAPE_MULTIPOLES>
401.79
16.1
2.06
1.3
9.05
0.45
-0.12
-6.68
-2.16
-2.91
0.2
-0.28
-0.39
-1.96

> <PUBCHEM_SHAPE_SELFOVERLAP>
849.254

> <PUBCHEM_SHAPE_VOLUME>
225

> <PUBCHEM_COORDINATE_TYPE>
2
5
10

$$$$

