13857
  -OEChem-06241222402D

 15 15  0     0  0  0  0  0  0999 V2000
    2.8660   -2.0000    0.0000 O   0  5  0  0  0  0  0  0  0  0  0  0
    2.8660   -1.0000    0.0000 N   0  3  0  0  0  0  0  0  0  0  0  0
    2.8660    1.0000    0.0000 C   0  0  0  0  0  0  0  0  0  0  0  0
    2.0000    0.5000    0.0000 C   0  0  0  0  0  0  0  0  0  0  0  0
    3.7320    0.5000    0.0000 C   0  0  0  0  0  0  0  0  0  0  0  0
    2.8660    2.0000    0.0000 C   0  0  0  0  0  0  0  0  0  0  0  0
    2.0000   -0.5000    0.0000 C   0  0  0  0  0  0  0  0  0  0  0  0
    3.7320   -0.5000    0.0000 C   0  0  0  0  0  0  0  0  0  0  0  0
    1.4631    0.8100    0.0000 H   0  0  0  0  0  0  0  0  0  0  0  0
    4.2690    0.8100    0.0000 H   0  0  0  0  0  0  0  0  0  0  0  0
    3.4860    2.0000    0.0000 H   0  0  0  0  0  0  0  0  0  0  0  0
    2.8660    2.6200    0.0000 H   0  0  0  0  0  0  0  0  0  0  0  0
    2.2460    2.0000    0.0000 H   0  0  0  0  0  0  0  0  0  0  0  0
    1.4631   -0.8100    0.0000 H   0  0  0  0  0  0  0  0  0  0  0  0
    4.2690   -0.8100    0.0000 H   0  0  0  0  0  0  0  0  0  0  0  0
  1  2  1  0  0  0  0
  2  7  2  0  0  0  0
  2  8  1  0  0  0  0
  3  4  2  0  0  0  0
  3  5  1  0  0  0  0
  3  6  1  0  0  0  0
  4  7  1  0  0  0  0
  4  9  1  0  0  0  0
  5  8  2  0  0  0  0
  5 10  1  0  0  0  0
  6 11  1  0  0  0  0
  6 12  1  0  0  0  0
  6 13  1  0  0  0  0
  7 14  1  0  0  0  0
  8 15  1  0  0  0  0
M  CHG  2   1  -1   2   1
M  END
> <PUBCHEM_COMPOUND_CID>
13857

> <PUBCHEM_COMPOUND_CANONICALIZED>
1

> <PUBCHEM_CACTVS_COMPLEXITY>
66.9

> <PUBCHEM_CACTVS_HBOND_ACCEPTOR>
1

> <PUBCHEM_CACTVS_HBOND_DONOR>
0

> <PUBCHEM_CACTVS_ROTATABLE_BOND>
0

> <PUBCHEM_CACTVS_SUBSKEYS>
AAADcYBiIAAAAAAAAAAAAAAAAAAAAAAAAAAsAAAAAAAAAAABgAAAHAAEAAAADADBGgQ+gJIYEACgAjBnRACCgCAxAiAo2CA4ZJoIIGLAkZGEIAhggADIyAYQAAAKAAAAAAAAAAAAAAAAAAAAAAAAAAAAAA==

> <PUBCHEM_IUPAC_OPENEYE_NAME>
4-methyl-1-oxido-pyridin-1-ium

> <PUBCHEM_IUPAC_CAS_NAME>
4-methyl-1-oxidopyridin-1-ium

> <PUBCHEM_IUPAC_NAME>
4-methyl-1-oxidopyridin-1-ium

> <PUBCHEM_IUPAC_SYSTEMATIC_NAME>
4-methyl-1-oxidanidyl-pyridin-1-ium

> <PUBCHEM_IUPAC_TRADITIONAL_NAME>
4-methyl-1-oxido-pyridin-1-ium

> <PUBCHEM_IUPAC_INCHI>
InChI=1S/C6H7NO/c1-6-2-4-7(8)5-3-6/h2-5H,1H3

> <PUBCHEM_IUPAC_INCHIKEY>
IWYYIZOHWPCALJ-UHFFFAOYSA-N

> <PUBCHEM_XLOGP3_AA>
0.2

> <PUBCHEM_EXACT_MASS>
109.052764

> <PUBCHEM_MOLECULAR_FORMULA>
C6H7NO

> <PUBCHEM_MOLECULAR_WEIGHT>
109.12588

> <PUBCHEM_OPENEYE_CAN_SMILES>
CC1=CC=[N+](C=C1)[O-]

> <PUBCHEM_OPENEYE_ISO_SMILES>
CC1=CC=[N+](C=C1)[O-]

> <PUBCHEM_CACTVS_TPSA>
25.5

> <PUBCHEM_MONOISOTOPIC_WEIGHT>
109.052764

> <PUBCHEM_TOTAL_CHARGE>
0

> <PUBCHEM_HEAVY_ATOM_COUNT>
8

> <PUBCHEM_ATOM_DEF_STEREO_COUNT>
0

> <PUBCHEM_ATOM_UDEF_STEREO_COUNT>
0

> <PUBCHEM_BOND_DEF_STEREO_COUNT>
0

> <PUBCHEM_BOND_UDEF_STEREO_COUNT>
0

> <PUBCHEM_ISOTOPIC_ATOM_COUNT>
0

> <PUBCHEM_COMPONENT_COUNT>
1

> <PUBCHEM_CACTVS_TAUTO_COUNT>
1

> <PUBCHEM_COORDINATE_TYPE>
1
5
255

> <PUBCHEM_BONDANNOTATIONS>
2  7  8
2  8  8
3  4  8
3  5  8
4  7  8
5  8  8

$$$$

