17395595
  -OEChem-06241222513D

 54 57  0     0  0  0  0  0  0999 V2000
    4.2757    2.7519    0.5594 S   0  0  0  0  0  0  0  0  0  0  0  0
    1.2174   -2.6610   -1.1081 S   0  0  0  0  0  0  0  0  0  0  0  0
    1.3595    2.6239    1.6498 O   0  0  0  0  0  0  0  0  0  0  0  0
   -5.1517   -0.0301   -0.2352 N   0  0  0  0  0  0  0  0  0  0  0  0
    0.7891    2.2583   -0.6045 N   0  0  0  0  0  0  0  0  0  0  0  0
    4.0377   -0.0011    0.5120 N   0  0  0  0  0  0  0  0  0  0  0  0
    3.8982   -0.4621   -1.6224 N   0  0  0  0  0  0  0  0  0  0  0  0
    4.0222    0.9056   -1.4794 N   0  0  0  0  0  0  0  0  0  0  0  0
   -6.3585   -0.7634   -0.6166 C   0  0  0  0  0  0  0  0  0  0  0  0
   -5.4262    0.4807    1.1074 C   0  0  0  0  0  0  0  0  0  0  0  0
   -7.4779    0.1456   -0.1310 C   0  0  0  0  0  0  0  0  0  0  0  0
   -6.8643    0.9657    0.9996 C   0  0  0  0  0  0  0  0  0  0  0  0
   -3.9585   -0.8622   -0.2800 C   0  0  0  0  0  0  0  0  0  0  0  0
   -2.7022   -0.0371   -0.3666 C   0  0  0  0  0  0  0  0  0  0  0  0
   -2.1846    0.3181   -1.6122 C   0  0  0  0  0  0  0  0  0  0  0  0
   -2.0559    0.3729    0.7997 C   0  0  0  0  0  0  0  0  0  0  0  0
   -1.0210    1.0832   -1.6918 C   0  0  0  0  0  0  0  0  0  0  0  0
   -0.8924    1.1378    0.7203 C   0  0  0  0  0  0  0  0  0  0  0  0
   -0.3750    1.4931   -0.5254 C   0  0  0  0  0  0  0  0  0  0  0  0
    3.9098   -0.9876   -0.4183 C   0  0  0  0  0  0  0  0  0  0  0  0
    3.8046   -2.4164   -0.0721 C   0  0  0  0  0  0  0  0  0  0  0  0
    1.5704    2.7582    0.4472 C   0  0  0  0  0  0  0  0  0  0  0  0
    4.1042    1.1620   -0.1934 C   0  0  0  0  0  0  0  0  0  0  0  0
    2.7659    3.5491   -0.0392 C   0  0  0  0  0  0  0  0  0  0  0  0
    2.3708   -2.8914    0.1363 C   0  0  0  0  0  0  0  0  0  0  0  0
    4.0902   -0.1775    1.9448 C   0  0  0  0  0  0  0  0  0  0  0  0
    1.8258   -3.5143    1.2376 C   0  0  0  0  0  0  0  0  0  0  0  0
    0.4430   -3.8065    1.0570 C   0  0  0  0  0  0  0  0  0  0  0  0
   -0.0161   -3.3957   -0.1750 C   0  0  0  0  0  0  0  0  0  0  0  0
   -6.4202   -1.7334   -0.1065 H   0  0  0  0  0  0  0  0  0  0  0  0
   -6.4169   -0.9317   -1.6965 H   0  0  0  0  0  0  0  0  0  0  0  0
   -4.7617    1.3016    1.3931 H   0  0  0  0  0  0  0  0  0  0  0  0
   -5.3607   -0.3068    1.8692 H   0  0  0  0  0  0  0  0  0  0  0  0
   -8.3436   -0.4311    0.2101 H   0  0  0  0  0  0  0  0  0  0  0  0
   -7.8136    0.8133   -0.9333 H   0  0  0  0  0  0  0  0  0  0  0  0
   -6.8982    2.0315    0.7446 H   0  0  0  0  0  0  0  0  0  0  0  0
   -7.4064    0.8282    1.9406 H   0  0  0  0  0  0  0  0  0  0  0  0
   -3.9875   -1.5037   -1.1723 H   0  0  0  0  0  0  0  0  0  0  0  0
   -3.9025   -1.5602    0.5666 H   0  0  0  0  0  0  0  0  0  0  0  0
   -2.6789    0.0066   -2.5286 H   0  0  0  0  0  0  0  0  0  0  0  0
   -2.4455    0.0974    1.7762 H   0  0  0  0  0  0  0  0  0  0  0  0
   -0.6287    1.3523   -2.6692 H   0  0  0  0  0  0  0  0  0  0  0  0
   -0.4482    1.4132    1.6664 H   0  0  0  0  0  0  0  0  0  0  0  0
    1.0997    2.4683   -1.5504 H   0  0  0  0  0  0  0  0  0  0  0  0
    4.4021   -2.6547    0.8162 H   0  0  0  0  0  0  0  0  0  0  0  0
    4.2417   -3.0129   -0.8842 H   0  0  0  0  0  0  0  0  0  0  0  0
    2.6993    4.5618    0.3701 H   0  0  0  0  0  0  0  0  0  0  0  0
    2.7958    3.6294   -1.1296 H   0  0  0  0  0  0  0  0  0  0  0  0
    3.4458   -1.0084    2.2385 H   0  0  0  0  0  0  0  0  0  0  0  0
    3.7297    0.7203    2.4505 H   0  0  0  0  0  0  0  0  0  0  0  0
    5.1269   -0.3806    2.2241 H   0  0  0  0  0  0  0  0  0  0  0  0
    2.3882   -3.7502    2.1320 H   0  0  0  0  0  0  0  0  0  0  0  0
   -0.1836   -4.2921    1.7937 H   0  0  0  0  0  0  0  0  0  0  0  0
   -1.0174   -3.4898   -0.5711 H   0  0  0  0  0  0  0  0  0  0  0  0
  1 23  1  0  0  0  0
  1 24  1  0  0  0  0
  2 25  1  0  0  0  0
  2 29  1  0  0  0  0
  3 22  2  0  0  0  0
  4  9  1  0  0  0  0
  4 10  1  0  0  0  0
  4 13  1  0  0  0  0
  5 19  1  0  0  0  0
  5 22  1  0  0  0  0
  5 44  1  0  0  0  0
  6 20  1  0  0  0  0
  6 23  1  0  0  0  0
  6 26  1  0  0  0  0
  7  8  1  0  0  0  0
  7 20  2  0  0  0  0
  8 23  2  0  0  0  0
  9 11  1  0  0  0  0
  9 30  1  0  0  0  0
  9 31  1  0  0  0  0
 10 12  1  0  0  0  0
 10 32  1  0  0  0  0
 10 33  1  0  0  0  0
 11 12  1  0  0  0  0
 11 34  1  0  0  0  0
 11 35  1  0  0  0  0
 12 36  1  0  0  0  0
 12 37  1  0  0  0  0
 13 14  1  0  0  0  0
 13 38  1  0  0  0  0
 13 39  1  0  0  0  0
 14 15  2  0  0  0  0
 14 16  1  0  0  0  0
 15 17  1  0  0  0  0
 15 40  1  0  0  0  0
 16 18  2  0  0  0  0
 16 41  1  0  0  0  0
 17 19  2  0  0  0  0
 17 42  1  0  0  0  0
 18 19  1  0  0  0  0
 18 43  1  0  0  0  0
 20 21  1  0  0  0  0
 21 25  1  0  0  0  0
 21 45  1  0  0  0  0
 21 46  1  0  0  0  0
 22 24  1  0  0  0  0
 24 47  1  0  0  0  0
 24 48  1  0  0  0  0
 25 27  2  0  0  0  0
 26 49  1  0  0  0  0
 26 50  1  0  0  0  0
 26 51  1  0  0  0  0
 27 28  1  0  0  0  0
 27 52  1  0  0  0  0
 28 29  2  0  0  0  0
 28 53  1  0  0  0  0
 29 54  1  0  0  0  0
M  END
> <PUBCHEM_COMPOUND_CID>
17395595

> <PUBCHEM_CONFORMER_RMSD>
1.2

> <PUBCHEM_CONFORMER_DIVERSEORDER>
1
154
109
117
59
48
5
43
99
19
124
134
129
67
88
131
128
103
145
140
92
116
13
123
57
101
86
142
135
20
51
79
76
139
54
110
126
55
4
62
97
72
151
45
84
3
85
115
102
29
89
2
46
81
52
10
119
148
113
111
28
146
156
105
96
104
133
98
73
74
149
37
40
49
75
34
42
132
60
90
152
7
8
91
35
58
94
11
144
33
61
107
17
150
122
26
78
83
80
143
6
141
127
64
125
39
22
12
82
136
87
153
121
56
138
32
24
30
16
27
118
147
108
63
53
18
114
137
25
41
23
71
69
77
130
93
112
14
155
31
68
100
15
70
38
120
66
106
47
9
36
44
50
21
95
65

> <PUBCHEM_MMFF94_PARTIAL_CHARGES>
35
1 -0.29
10 0.27
13 0.41
14 -0.14
15 -0.15
16 -0.15
17 -0.15
18 -0.15
19 0.12
2 -0.08
20 0.01
21 0.36
22 0.57
23 0.24
24 0.29
25 -0.14
26 0.26
27 -0.15
28 -0.15
29 -0.11
3 -0.57
4 -0.81
40 0.15
41 0.15
42 0.15
43 0.15
44 0.37
5 -0.55
52 0.15
53 0.15
54 0.15
6 0.05
7 -0.34
8 -0.34
9 0.27

> <PUBCHEM_EFFECTIVE_ROTOR_COUNT>
10

> <PUBCHEM_PHARMACOPHORE_FEATURES>
9
1 3 acceptor
1 4 cation
1 5 donor
3 6 7 20 cation
3 6 8 23 cation
5 2 25 27 28 29 rings
5 4 9 10 11 12 rings
5 6 7 8 20 23 rings
6 14 15 16 17 18 19 rings

> <PUBCHEM_HEAVY_ATOM_COUNT>
29

> <PUBCHEM_ATOM_DEF_STEREO_COUNT>
0

> <PUBCHEM_ATOM_UDEF_STEREO_COUNT>
0

> <PUBCHEM_BOND_DEF_STEREO_COUNT>
0

> <PUBCHEM_BOND_UDEF_STEREO_COUNT>
0

> <PUBCHEM_ISOTOPIC_ATOM_COUNT>
0

> <PUBCHEM_COMPONENT_COUNT>
1

> <PUBCHEM_CACTVS_TAUTO_COUNT>
2

> <PUBCHEM_CONFORMER_ID>
01096F8B00000001

> <PUBCHEM_MMFF94_ENERGY>
53.8803

> <PUBCHEM_FEATURE_SELFOVERLAP>
48.171

> <PUBCHEM_SHAPE_FINGERPRINT>
10316853 100 18270960146583896699
10675989 125 18336546027765073720
10816530 23 17834959667834255393
10864689 126 18339635732817081287
11014199 57 17474389553032885770
11135609 187 18339078194506433649
12128747 34 18341050817757741893
12539745 222 4894179633666546412
12596602 18 17676206871074032091
12717326 120 16055169288038748107
13122387 1 18410295783604614206
13150687 139 17915716749418186788
13533116 47 18334573538459435633
1361 2 18412825759285146625
14114211 68 18057862758791343590
146900 427 18410009957546717767
14725015 67 18200322146679648474
14784336 7 17968947366866703377
14840074 17 18410008862667752415
15110567 62 18341612637395772758
15183329 4 18334573534644613577
15328829 1 17604166856679878949
15664445 248 18044363053762362607
15927050 60 18119248359377483846
15968369 153 17321279904580537823
16067690 210 16081635734634784171
16120349 18 18411140273539517461
17492 54 18271507737939378678
19930381 70 18340209695124028514
20511986 3 17821738212936246021
21197605 99 18193835934166851567
345986 75 17968380168299284417
3680242 22 18341337759562909570
394071 54 18261382404210814243
4073 2 18267582404171489513
437795 51 18342161255718658507
463206 1 18411140212302608719
5309563 4 18267305528709191778
552612 73 18129387167305238077
653340 110 17399524420593310496

> <PUBCHEM_SHAPE_MULTIPOLES>
573.73
13.91
4.53
1.49
27.95
2.27
-0.02
-2.91
1.45
-6.29
1.02
-0.52
-0.02
-0.27

> <PUBCHEM_SHAPE_SELFOVERLAP>
1194.392

> <PUBCHEM_SHAPE_VOLUME>
328.6

> <PUBCHEM_COORDINATE_TYPE>
2
5
10

$$$$

