7846988
  -OEChem-06241222483D

 43 45  0     1  0  0  0  0  0999 V2000
    5.1232    1.7417    0.1144 Cl  0  0  0  0  0  0  0  0  0  0  0  0
   -0.5341   -3.1302   -1.3341 S   0  0  0  0  0  0  0  0  0  0  0  0
   -3.3784    0.7881   -0.6822 O   0  0  0  0  0  0  0  0  0  0  0  0
   -3.0410   -0.1497    1.3983 O   0  0  0  0  0  0  0  0  0  0  0  0
   -1.5100    2.3004    1.6364 O   0  0  0  0  0  0  0  0  0  0  0  0
   -0.6879   -2.0388    0.9977 N   0  0  0  0  0  0  0  0  0  0  0  0
   -0.7428    1.9140   -0.5486 N   0  0  0  0  0  0  0  0  0  0  0  0
   -2.8672   -2.7479    0.0762 C   0  0  0  0  0  0  0  0  0  0  0  0
   -3.6115   -1.5370   -0.5163 C   0  0  0  0  0  0  0  0  0  0  0  0
   -1.3976   -2.5841    0.0377 C   0  0  0  0  0  0  0  0  0  0  0  0
   -3.1144    2.0867   -0.1417 C   0  0  1  0  0  0  0  0  0  0  0  0
    0.9367   -2.6008   -0.6065 C   0  0  0  0  0  0  0  0  0  0  0  0
    0.6531   -2.0411    0.6430 C   0  0  0  0  0  0  0  0  0  0  0  0
   -3.3064   -0.2455    0.2081 C   0  0  0  0  0  0  0  0  0  0  0  0
   -1.7027    2.1106    0.4389 C   0  0  0  0  0  0  0  0  0  0  0  0
   -3.2900    3.1314   -1.2339 C   0  0  0  0  0  0  0  0  0  0  0  0
    2.2471   -2.6754   -1.1054 C   0  0  0  0  0  0  0  0  0  0  0  0
    1.7208   -1.5391    1.4184 C   0  0  0  0  0  0  0  0  0  0  0  0
    0.6630    1.8732   -0.3898 C   0  0  0  0  0  0  0  0  0  0  0  0
    3.2852   -2.1714   -0.3181 C   0  0  0  0  0  0  0  0  0  0  0  0
    3.0277   -1.6101    0.9278 C   0  0  0  0  0  0  0  0  0  0  0  0
    1.4645    1.6732   -1.5012 C   0  0  0  0  0  0  0  0  0  0  0  0
    1.2068    2.0338    0.8738 C   0  0  0  0  0  0  0  0  0  0  0  0
    2.8500    1.6323   -1.3447 C   0  0  0  0  0  0  0  0  0  0  0  0
    2.5922    1.9931    1.0304 C   0  0  0  0  0  0  0  0  0  0  0  0
    3.4139    1.7925   -0.0789 C   0  0  0  0  0  0  0  0  0  0  0  0
   -3.1782   -3.6549   -0.4564 H   0  0  0  0  0  0  0  0  0  0  0  0
   -3.1787   -2.8861    1.1195 H   0  0  0  0  0  0  0  0  0  0  0  0
   -4.6931   -1.7023   -0.4650 H   0  0  0  0  0  0  0  0  0  0  0  0
   -3.3345   -1.4279   -1.5720 H   0  0  0  0  0  0  0  0  0  0  0  0
   -3.8307    2.2939    0.6634 H   0  0  0  0  0  0  0  0  0  0  0  0
   -2.7453    2.8740   -2.1482 H   0  0  0  0  0  0  0  0  0  0  0  0
   -2.9635    4.1206   -0.8981 H   0  0  0  0  0  0  0  0  0  0  0  0
   -4.3457    3.1938   -1.5207 H   0  0  0  0  0  0  0  0  0  0  0  0
    2.4555   -3.1114   -2.0776 H   0  0  0  0  0  0  0  0  0  0  0  0
    1.5309   -1.0994    2.3934 H   0  0  0  0  0  0  0  0  0  0  0  0
   -1.0673    1.7531   -1.4988 H   0  0  0  0  0  0  0  0  0  0  0  0
    4.3069   -2.2182   -0.6858 H   0  0  0  0  0  0  0  0  0  0  0  0
    3.8481   -1.2256    1.5276 H   0  0  0  0  0  0  0  0  0  0  0  0
    1.0353    1.5458   -2.4910 H   0  0  0  0  0  0  0  0  0  0  0  0
    0.6398    2.1880    1.7796 H   0  0  0  0  0  0  0  0  0  0  0  0
    3.4778    1.4735   -2.2176 H   0  0  0  0  0  0  0  0  0  0  0  0
    3.0189    2.1169    2.0227 H   0  0  0  0  0  0  0  0  0  0  0  0
  1 26  1  0  0  0  0
  2 10  1  0  0  0  0
  2 12  1  0  0  0  0
  3 11  1  0  0  0  0
  3 14  1  0  0  0  0
  4 14  2  0  0  0  0
  5 15  2  0  0  0  0
  6 10  2  0  0  0  0
  6 13  1  0  0  0  0
  7 15  1  0  0  0  0
  7 19  1  0  0  0  0
  7 37  1  0  0  0  0
  8  9  1  0  0  0  0
  8 10  1  0  0  0  0
  8 27  1  0  0  0  0
  8 28  1  0  0  0  0
  9 14  1  0  0  0  0
  9 29  1  0  0  0  0
  9 30  1  0  0  0  0
 11 15  1  0  0  0  0
 11 16  1  0  0  0  0
 11 31  1  0  0  0  0
 12 13  1  0  0  0  0
 12 17  2  0  0  0  0
 13 18  2  0  0  0  0
 16 32  1  0  0  0  0
 16 33  1  0  0  0  0
 16 34  1  0  0  0  0
 17 20  1  0  0  0  0
 17 35  1  0  0  0  0
 18 21  1  0  0  0  0
 18 36  1  0  0  0  0
 19 22  2  0  0  0  0
 19 23  1  0  0  0  0
 20 21  2  0  0  0  0
 20 38  1  0  0  0  0
 21 39  1  0  0  0  0
 22 24  1  0  0  0  0
 22 40  1  0  0  0  0
 23 25  2  0  0  0  0
 23 41  1  0  0  0  0
 24 26  2  0  0  0  0
 24 42  1  0  0  0  0
 25 26  1  0  0  0  0
 25 43  1  0  0  0  0
M  END
> <PUBCHEM_COMPOUND_CID>
7846988

> <PUBCHEM_CONFORMER_RMSD>
1

> <PUBCHEM_CONFORMER_DIVERSEORDER>
1
80
211
139
296
45
329
269
96
4
253
260
319
333
42
7
309
293
125
53
179
88
331
149
122
148
58
21
12
295
243
119
195
230
114
130
140
85
236
184
210
326
52
133
289
303
274
29
165
146
263
318
278
299
338
99
57
136
55
255
19
71
336
142
68
251
262
285
33
249
86
316
65
203
108
305
245
155
317
287
237
145
238
116
257
294
138
157
197
17
286
306
39
131
112
225
339
290
308
97
69
164
107
325
153
240
137
226
324
20
267
25
173
73
229
234
169
78
109
217
10
279
266
64
335
91
115
8
63
223
196
111
337
188
72
44
214
120
156
117
11
15
186
36
313
199
60
221
101
320
282
102
89
323
183
126
220
118
264
121
38
47
216
50
9
2
37
284
302
151
105
280
288
79
81
123
222
90
175
92
95
202
258
158
144
178
233
315
147
272
106
192
261
301
281
49
187
328
40
93
215
181
3
160
162
124
104
18
62
6
304
242
246
204
113
172
201
327
150
74
275
182
76
77
345
135
268
314
208
110
307
127
343
31
344
174
100
209
143
54
271
5
61
24
207
161
248
59
193
167
27
84
250
334
213
70
87
14
35
198
103
94
300
265
34
273
180
22
83
247
152
228
200
231
168
141
159
332
340
218
312
185
276
191
56
259
67
292
163
41
241
28
43
82
341
129
244
224
75
23
132
277
252
26
311
32
51
170
298
66
206
48
194
177
189
154
227
46
254
128
166
321
235
212
270
310
16
13
322
239
283
256
342
219
176
134
171
30
330
297
291
98
205
232
190

> <PUBCHEM_MMFF94_PARTIAL_CHARGES>
34
1 -0.18
10 0.2
11 0.34
12 0.04
13 0.23
14 0.66
15 0.57
17 -0.15
18 -0.15
19 0.12
2 -0.08
20 -0.15
21 -0.15
22 -0.15
23 -0.15
24 -0.15
25 -0.15
26 0.18
3 -0.43
35 0.15
36 0.15
37 0.37
38 0.15
39 0.15
4 -0.57
40 0.15
41 0.15
42 0.15
43 0.15
5 -0.57
6 -0.57
7 -0.55
8 0.18
9 0.06

> <PUBCHEM_EFFECTIVE_ROTOR_COUNT>
8

> <PUBCHEM_PHARMACOPHORE_FEATURES>
7
1 4 acceptor
1 5 acceptor
1 6 acceptor
1 7 donor
5 2 6 10 12 13 rings
6 12 13 17 18 20 21 rings
6 19 22 23 24 25 26 rings

> <PUBCHEM_HEAVY_ATOM_COUNT>
26

> <PUBCHEM_ATOM_DEF_STEREO_COUNT>
1

> <PUBCHEM_ATOM_UDEF_STEREO_COUNT>
0

> <PUBCHEM_BOND_DEF_STEREO_COUNT>
0

> <PUBCHEM_BOND_UDEF_STEREO_COUNT>
0

> <PUBCHEM_ISOTOPIC_ATOM_COUNT>
0

> <PUBCHEM_COMPONENT_COUNT>
1

> <PUBCHEM_CACTVS_TAUTO_COUNT>
4

> <PUBCHEM_CONFORMER_ID>
0077BC4C00000001

> <PUBCHEM_MMFF94_ENERGY>
53.4581

> <PUBCHEM_FEATURE_SELFOVERLAP>
35.595

> <PUBCHEM_SHAPE_FINGERPRINT>
104564 63 18196378026698211568
10616163 171 18340487755343327812
1100329 8 18193838373353899330
11370993 70 18412270548868483052
11513181 2 18186524314869843462
11578080 2 17130453317580592319
12156800 1 16525035659570318743
12422481 6 18269298858029171640
12553582 1 16609691264618672700
12788726 201 17908408170468106988
13122387 1 18122060076791924199
13140716 1 18268423719102544929
13642711 20 16589168025920499138
14117953 113 17331977516682986094
14251751 93 18340489954667283404
14251757 17 17969756675864362998
14251757 5 17620737398574520348
14955137 171 17036664091411186857
15210252 30 17262145342833142244
17492 54 17984119729375781846
19930381 70 15888563317926543398
20691752 17 17346880082590192275
20905425 154 18337948987395385575
23566358 2 18408882949274211654
27425 322 16988560225556937877
338550 245 18272647939496830668
35225 105 18116730529204925772
463206 1 18266460914953557691
469060 322 17838599073197366051
5265222 85 18050836733904143268
6287921 2 18115581698420327178
6443956 14 17617382126640676060
9862522 239 18339656529153573744

> <PUBCHEM_SHAPE_MULTIPOLES>
513.22
7.15
4.94
1.4
1.49
0.95
0
-2.69
0.23
-0.86
0.86
0.18
-0.12
0.18

> <PUBCHEM_SHAPE_SELFOVERLAP>
1081.485

> <PUBCHEM_SHAPE_VOLUME>
289.8

> <PUBCHEM_COORDINATE_TYPE>
2
5
10

$$$$

