47205802
  -OEChem-06241223002D

 33 34  0     0  0  0  0  0  0999 V2000
    6.3301    4.4330    0.0000 F   0  0  0  0  0  0  0  0  0  0  0  0
    7.3301    3.4330    0.0000 F   0  0  0  0  0  0  0  0  0  0  0  0
    5.3301    3.4330    0.0000 F   0  0  0  0  0  0  0  0  0  0  0  0
    2.0000   -2.0670    0.0000 O   0  0  0  0  0  0  0  0  0  0  0  0
    5.4641   -1.0670    0.0000 O   0  0  0  0  0  0  0  0  0  0  0  0
    3.7320   -2.0670    0.0000 N   0  0  0  0  0  0  0  0  0  0  0  0
    4.5981    0.4330    0.0000 N   0  0  0  0  0  0  0  0  0  0  0  0
    2.8660   -3.5670    0.0000 C   0  0  0  0  0  0  0  0  0  0  0  0
    2.3660   -4.4330    0.0000 C   0  0  0  0  0  0  0  0  0  0  0  0
    3.3660   -4.4330    0.0000 C   0  0  0  0  0  0  0  0  0  0  0  0
    2.8660   -2.5670    0.0000 C   0  0  0  0  0  0  0  0  0  0  0  0
    3.7320   -1.0670    0.0000 C   0  0  0  0  0  0  0  0  0  0  0  0
    4.5981   -0.5670    0.0000 C   0  0  0  0  0  0  0  0  0  0  0  0
    5.4641    0.9330    0.0000 C   0  0  0  0  0  0  0  0  0  0  0  0
    5.4641    1.9330    0.0000 C   0  0  0  0  0  0  0  0  0  0  0  0
    6.3301    2.4330    0.0000 C   0  0  0  0  0  0  0  0  0  0  0  0
    6.3301    0.4330    0.0000 C   0  0  0  0  0  0  0  0  0  0  0  0
    7.1962    1.9330    0.0000 C   0  0  0  0  0  0  0  0  0  0  0  0
    7.1962    0.9330    0.0000 C   0  0  0  0  0  0  0  0  0  0  0  0
    6.3301    3.4330    0.0000 C   0  0  0  0  0  0  0  0  0  0  0  0
    3.4649   -3.4065    0.0000 H   0  0  0  0  0  0  0  0  0  0  0  0
    1.7834   -4.2210    0.0000 H   0  0  0  0  0  0  0  0  0  0  0  0
    2.2584   -5.0436    0.0000 H   0  0  0  0  0  0  0  0  0  0  0  0
    3.4737   -5.0436    0.0000 H   0  0  0  0  0  0  0  0  0  0  0  0
    3.9486   -4.2210    0.0000 H   0  0  0  0  0  0  0  0  0  0  0  0
    4.2690   -2.3770    0.0000 H   0  0  0  0  0  0  0  0  0  0  0  0
    3.5200   -0.4844    0.0000 H   0  0  0  0  0  0  0  0  0  0  0  0
    3.1215   -1.1746    0.0000 H   0  0  0  0  0  0  0  0  0  0  0  0
    4.0611    0.7430    0.0000 H   0  0  0  0  0  0  0  0  0  0  0  0
    4.9272    2.2430    0.0000 H   0  0  0  0  0  0  0  0  0  0  0  0
    6.3301   -0.1870    0.0000 H   0  0  0  0  0  0  0  0  0  0  0  0
    7.7331    2.2430    0.0000 H   0  0  0  0  0  0  0  0  0  0  0  0
    7.7331    0.6230    0.0000 H   0  0  0  0  0  0  0  0  0  0  0  0
  1 20  1  0  0  0  0
  2 20  1  0  0  0  0
  3 20  1  0  0  0  0
  4 11  2  0  0  0  0
  5 13  2  0  0  0  0
  6 11  1  0  0  0  0
  6 12  1  0  0  0  0
  6 26  1  0  0  0  0
  7 13  1  0  0  0  0
  7 14  1  0  0  0  0
  7 29  1  0  0  0  0
  8  9  1  0  0  0  0
  8 10  1  0  0  0  0
  8 11  1  0  0  0  0
  8 21  1  0  0  0  0
  9 10  1  0  0  0  0
  9 22  1  0  0  0  0
  9 23  1  0  0  0  0
 10 24  1  0  0  0  0
 10 25  1  0  0  0  0
 12 13  1  0  0  0  0
 12 27  1  0  0  0  0
 12 28  1  0  0  0  0
 14 15  1  0  0  0  0
 14 17  2  0  0  0  0
 15 16  2  0  0  0  0
 15 30  1  0  0  0  0
 16 18  1  0  0  0  0
 16 20  1  0  0  0  0
 17 19  1  0  0  0  0
 17 31  1  0  0  0  0
 18 19  2  0  0  0  0
 18 32  1  0  0  0  0
 19 33  1  0  0  0  0
M  END
> <PUBCHEM_COMPOUND_CID>
47205802

> <PUBCHEM_COMPOUND_CANONICALIZED>
1

> <PUBCHEM_CACTVS_COMPLEXITY>
380

> <PUBCHEM_CACTVS_HBOND_ACCEPTOR>
5

> <PUBCHEM_CACTVS_HBOND_DONOR>
2

> <PUBCHEM_CACTVS_ROTATABLE_BOND>
4

> <PUBCHEM_CACTVS_SUBSKEYS>
AAADccBzMYAAAAAAAAAAAAAAGAAAAAAAAAAwAAAAAAAAAAABAAAAHwAQAAAADQjBmBQwwILAAACIAiVSUACCAAAhAgAIiIGIZIgIYDLAkbGUIAhglgDIyAcQgAAOAAAAQAAAAAAAAACAAAAAAAAAAAAAAA==

> <PUBCHEM_IUPAC_OPENEYE_NAME>
N-[2-oxo-2-[3-(trifluoromethyl)anilino]ethyl]cyclopropanecarboxamide

> <PUBCHEM_IUPAC_CAS_NAME>
N-[2-oxo-2-[3-(trifluoromethyl)anilino]ethyl]cyclopropanecarboxamide

> <PUBCHEM_IUPAC_NAME>
N-[2-oxo-2-[3-(trifluoromethyl)anilino]ethyl]cyclopropanecarboxamide

> <PUBCHEM_IUPAC_SYSTEMATIC_NAME>
N-[2-oxidanylidene-2-[[3-(trifluoromethyl)phenyl]amino]ethyl]cyclopropanecarboxamide

> <PUBCHEM_IUPAC_TRADITIONAL_NAME>
N-[2-keto-2-[3-(trifluoromethyl)anilino]ethyl]cyclopropanecarboxamide

> <PUBCHEM_IUPAC_INCHI>
InChI=1S/C13H13F3N2O2/c14-13(15,16)9-2-1-3-10(6-9)18-11(19)7-17-12(20)8-4-5-8/h1-3,6,8H,4-5,7H2,(H,17,20)(H,18,19)

> <PUBCHEM_IUPAC_INCHIKEY>
SBFHISJPZUGAMW-UHFFFAOYSA-N

> <PUBCHEM_XLOGP3>
2.4

> <PUBCHEM_EXACT_MASS>
286.092912

> <PUBCHEM_MOLECULAR_FORMULA>
C13H13F3N2O2

> <PUBCHEM_MOLECULAR_WEIGHT>
286.24973

> <PUBCHEM_OPENEYE_CAN_SMILES>
C1CC1C(=O)NCC(=O)NC2=CC=CC(=C2)C(F)(F)F

> <PUBCHEM_OPENEYE_ISO_SMILES>
C1CC1C(=O)NCC(=O)NC2=CC=CC(=C2)C(F)(F)F

> <PUBCHEM_CACTVS_TPSA>
58.2

> <PUBCHEM_MONOISOTOPIC_WEIGHT>
286.092912

> <PUBCHEM_TOTAL_CHARGE>
0

> <PUBCHEM_HEAVY_ATOM_COUNT>
20

> <PUBCHEM_ATOM_DEF_STEREO_COUNT>
0

> <PUBCHEM_ATOM_UDEF_STEREO_COUNT>
0

> <PUBCHEM_BOND_DEF_STEREO_COUNT>
0

> <PUBCHEM_BOND_UDEF_STEREO_COUNT>
0

> <PUBCHEM_ISOTOPIC_ATOM_COUNT>
0

> <PUBCHEM_COMPONENT_COUNT>
1

> <PUBCHEM_CACTVS_TAUTO_COUNT>
6

> <PUBCHEM_COORDINATE_TYPE>
1
5
255

> <PUBCHEM_BONDANNOTATIONS>
14  15  8
14  17  8
15  16  8
16  18  8
17  19  8
18  19  8

$$$$

