51090968
  -OEChem-06241223012D

 44 45  0     1  0  0  0  0  0999 V2000
    6.0010    4.4827    0.0000 O   0  0  0  0  0  0  0  0  0  0  0  0
    4.2690    2.4827    0.0000 O   0  0  0  0  0  0  0  0  0  0  0  0
    6.0010   -0.5173    0.0000 O   0  0  0  0  0  0  0  0  0  0  0  0
    4.2690   -3.5173    0.0000 O   0  0  0  0  0  0  0  0  0  0  0  0
    6.0010    2.4827    0.0000 N   0  0  0  0  0  0  0  0  0  0  0  0
    4.2690   -0.5173    0.0000 N   0  0  0  0  0  0  0  0  0  0  0  0
    2.5369   -3.5173    0.0000 N   0  0  0  0  0  0  0  0  0  0  0  0
    6.0010    1.4827    0.0000 C   0  0  0  0  0  0  0  0  0  0  0  0
    5.1350    3.9827    0.0000 C   0  0  3  0  0  0  0  0  0  0  0  0
    6.8671    2.9827    0.0000 C   0  0  0  0  0  0  0  0  0  0  0  0
    5.1350    2.9827    0.0000 C   0  0  0  0  0  0  0  0  0  0  0  0
    5.1350    0.9827    0.0000 C   0  0  0  0  0  0  0  0  0  0  0  0
    6.8671    3.9827    0.0000 C   0  0  0  0  0  0  0  0  0  0  0  0
    4.2690    4.4827    0.0000 C   0  0  0  0  0  0  0  0  0  0  0  0
    7.7610    2.4480    0.0000 C   0  0  0  0  0  0  0  0  0  0  0  0
    5.1350   -0.0173    0.0000 C   0  0  0  0  0  0  0  0  0  0  0  0
    7.7610    4.5173    0.0000 C   0  0  0  0  0  0  0  0  0  0  0  0
    8.6671    2.9618    0.0000 C   0  0  0  0  0  0  0  0  0  0  0  0
    4.2690   -1.5173    0.0000 C   0  0  0  0  0  0  0  0  0  0  0  0
    8.6671    4.0035    0.0000 C   0  0  0  0  0  0  0  0  0  0  0  0
    3.4030   -2.0173    0.0000 C   0  0  0  0  0  0  0  0  0  0  0  0
    3.4030   -3.0173    0.0000 C   0  0  0  0  0  0  0  0  0  0  0  0
    2.5369   -4.5173    0.0000 C   0  0  0  0  0  0  0  0  0  0  0  0
    6.2131    0.9001    0.0000 H   0  0  0  0  0  0  0  0  0  0  0  0
    6.6116    1.5903    0.0000 H   0  0  0  0  0  0  0  0  0  0  0  0
    5.1350    4.6027    0.0000 H   0  0  0  0  0  0  0  0  0  0  0  0
    4.9230    1.5653    0.0000 H   0  0  0  0  0  0  0  0  0  0  0  0
    4.5244    0.8750    0.0000 H   0  0  0  0  0  0  0  0  0  0  0  0
    4.5790    5.0196    0.0000 H   0  0  0  0  0  0  0  0  0  0  0  0
    3.7320    4.7927    0.0000 H   0  0  0  0  0  0  0  0  0  0  0  0
    3.9590    3.9457    0.0000 H   0  0  0  0  0  0  0  0  0  0  0  0
    7.7538    1.8280    0.0000 H   0  0  0  0  0  0  0  0  0  0  0  0
    7.7538    5.1373    0.0000 H   0  0  0  0  0  0  0  0  0  0  0  0
    9.2028    2.6498    0.0000 H   0  0  0  0  0  0  0  0  0  0  0  0
    4.4810   -2.0999    0.0000 H   0  0  0  0  0  0  0  0  0  0  0  0
    4.8796   -1.4097    0.0000 H   0  0  0  0  0  0  0  0  0  0  0  0
    3.7320   -0.2073    0.0000 H   0  0  0  0  0  0  0  0  0  0  0  0
    9.2028    4.3156    0.0000 H   0  0  0  0  0  0  0  0  0  0  0  0
    3.1909   -1.4347    0.0000 H   0  0  0  0  0  0  0  0  0  0  0  0
    2.7924   -2.1250    0.0000 H   0  0  0  0  0  0  0  0  0  0  0  0
    2.0000   -3.2073    0.0000 H   0  0  0  0  0  0  0  0  0  0  0  0
    1.9169   -4.5173    0.0000 H   0  0  0  0  0  0  0  0  0  0  0  0
    2.5369   -5.1373    0.0000 H   0  0  0  0  0  0  0  0  0  0  0  0
    3.1569   -4.5173    0.0000 H   0  0  0  0  0  0  0  0  0  0  0  0
  1  9  1  0  0  0  0
  1 13  1  0  0  0  0
  2 11  2  0  0  0  0
  3 16  2  0  0  0  0
  4 22  2  0  0  0  0
  5  8  1  0  0  0  0
  5 10  1  0  0  0  0
  5 11  1  0  0  0  0
  6 16  1  0  0  0  0
  6 19  1  0  0  0  0
  6 37  1  0  0  0  0
  7 22  1  0  0  0  0
  7 23  1  0  0  0  0
  7 41  1  0  0  0  0
  8 12  1  0  0  0  0
  8 24  1  0  0  0  0
  8 25  1  0  0  0  0
  9 11  1  0  0  0  0
  9 14  1  0  0  0  0
  9 26  1  0  0  0  0
 10 13  1  0  0  0  0
 10 15  2  0  0  0  0
 12 16  1  0  0  0  0
 12 27  1  0  0  0  0
 12 28  1  0  0  0  0
 13 17  2  0  0  0  0
 14 29  1  0  0  0  0
 14 30  1  0  0  0  0
 14 31  1  0  0  0  0
 15 18  1  0  0  0  0
 15 32  1  0  0  0  0
 17 20  1  0  0  0  0
 17 33  1  0  0  0  0
 18 20  2  0  0  0  0
 18 34  1  0  0  0  0
 19 21  1  0  0  0  0
 19 35  1  0  0  0  0
 19 36  1  0  0  0  0
 20 38  1  0  0  0  0
 21 22  1  0  0  0  0
 21 39  1  0  0  0  0
 21 40  1  0  0  0  0
 23 42  1  0  0  0  0
 23 43  1  0  0  0  0
 23 44  1  0  0  0  0
M  END
> <PUBCHEM_COMPOUND_CID>
51090968

> <PUBCHEM_COMPOUND_CANONICALIZED>
1

> <PUBCHEM_CACTVS_COMPLEXITY>
455

> <PUBCHEM_CACTVS_HBOND_ACCEPTOR>
4

> <PUBCHEM_CACTVS_HBOND_DONOR>
2

> <PUBCHEM_CACTVS_ROTATABLE_BOND>
6

> <PUBCHEM_CACTVS_SUBSKEYS>
AAADceB7OAAAAAAAAAAAAAAAAAAAAAAAAAA8QAAAAAAAAACxAAAAHgAQAAAACBzhkAYyxoPABACIACVSUAKCCAAhIgAIiIFPbIgOJirE8Z+HOCjk1hHY6AeQQAAAAAAAAAAAEAAAAAAAAAAgAAAAAAAAAA==

> <PUBCHEM_IUPAC_OPENEYE_NAME>
N-methyl-3-[3-(2-methyl-3-oxo-1,4-benzoxazin-4-yl)propanoylamino]propanamide

> <PUBCHEM_IUPAC_CAS_NAME>
N-methyl-3-[[3-(2-methyl-3-oxo-1,4-benzoxazin-4-yl)-1-oxopropyl]amino]propanamide

> <PUBCHEM_IUPAC_NAME>
N-methyl-3-[3-(2-methyl-3-oxo-1,4-benzoxazin-4-yl)propanoylamino]propanamide

> <PUBCHEM_IUPAC_SYSTEMATIC_NAME>
N-methyl-3-[3-(2-methyl-3-oxidanylidene-1,4-benzoxazin-4-yl)propanoylamino]propanamide

> <PUBCHEM_IUPAC_TRADITIONAL_NAME>
3-[3-(3-keto-2-methyl-1,4-benzoxazin-4-yl)propanoylamino]-N-methyl-propionamide

> <PUBCHEM_IUPAC_INCHI>
InChI=1S/C16H21N3O4/c1-11-16(22)19(12-5-3-4-6-13(12)23-11)10-8-15(21)18-9-7-14(20)17-2/h3-6,11H,7-10H2,1-2H3,(H,17,20)(H,18,21)

> <PUBCHEM_IUPAC_INCHIKEY>
MRPKFASOQXLOKS-UHFFFAOYSA-N

> <PUBCHEM_XLOGP3_AA>
0

> <PUBCHEM_EXACT_MASS>
319.153206

> <PUBCHEM_MOLECULAR_FORMULA>
C16H21N3O4

> <PUBCHEM_MOLECULAR_WEIGHT>
319.35564

> <PUBCHEM_OPENEYE_CAN_SMILES>
CC1C(=O)N(C2=CC=CC=C2O1)CCC(=O)NCCC(=O)NC

> <PUBCHEM_OPENEYE_ISO_SMILES>
CC1C(=O)N(C2=CC=CC=C2O1)CCC(=O)NCCC(=O)NC

> <PUBCHEM_CACTVS_TPSA>
87.7

> <PUBCHEM_MONOISOTOPIC_WEIGHT>
319.153206

> <PUBCHEM_TOTAL_CHARGE>
0

> <PUBCHEM_HEAVY_ATOM_COUNT>
23

> <PUBCHEM_ATOM_DEF_STEREO_COUNT>
0

> <PUBCHEM_ATOM_UDEF_STEREO_COUNT>
1

> <PUBCHEM_BOND_DEF_STEREO_COUNT>
0

> <PUBCHEM_BOND_UDEF_STEREO_COUNT>
0

> <PUBCHEM_ISOTOPIC_ATOM_COUNT>
0

> <PUBCHEM_COMPONENT_COUNT>
1

> <PUBCHEM_CACTVS_TAUTO_COUNT>
8

> <PUBCHEM_COORDINATE_TYPE>
1
5
255

> <PUBCHEM_BONDANNOTATIONS>
10  13  8
10  15  8
13  17  8
15  18  8
17  20  8
18  20  8
9  14  3

$$$$

