12735
  -OEChem-06261207183D

 28 27  0     1  0  0  0  0  0999 V2000
    2.9426    1.3932   -0.3229 N   0  0  0  0  0  0  0  0  0  0  0  0
    0.2796    0.2134    0.2855 C   0  0  0  0  0  0  0  0  0  0  0  0
    1.5240   -0.6147   -0.0596 C   0  0  0  0  0  0  0  0  0  0  0  0
   -1.0008   -0.5123   -0.1371 C   0  0  0  0  0  0  0  0  0  0  0  0
    2.8387    0.0850    0.3242 C   0  0  1  0  0  0  0  0  0  0  0  0
   -2.2764    0.2811    0.1604 C   0  0  0  0  0  0  0  0  0  0  0  0
   -3.5539   -0.4322   -0.2837 C   0  0  0  0  0  0  0  0  0  0  0  0
    4.0397   -0.7762   -0.0657 C   0  0  0  0  0  0  0  0  0  0  0  0
   -4.7934    0.3625    0.0990 C   0  0  0  0  0  0  0  0  0  0  0  0
    0.2544    0.4115    1.3636 H   0  0  0  0  0  0  0  0  0  0  0  0
    0.3046    1.1820   -0.2253 H   0  0  0  0  0  0  0  0  0  0  0  0
    1.4672   -1.5813    0.4569 H   0  0  0  0  0  0  0  0  0  0  0  0
    1.5230   -0.8327   -1.1359 H   0  0  0  0  0  0  0  0  0  0  0  0
   -1.0535   -1.4810    0.3752 H   0  0  0  0  0  0  0  0  0  0  0  0
   -0.9574   -0.7249   -1.2126 H   0  0  0  0  0  0  0  0  0  0  0  0
    2.8597    0.2345    1.4105 H   0  0  0  0  0  0  0  0  0  0  0  0
   -2.2177    1.2574   -0.3368 H   0  0  0  0  0  0  0  0  0  0  0  0
   -2.3269    0.4784    1.2385 H   0  0  0  0  0  0  0  0  0  0  0  0
   -3.6057   -1.4239    0.1803 H   0  0  0  0  0  0  0  0  0  0  0  0
   -3.5374   -0.5814   -1.3693 H   0  0  0  0  0  0  0  0  0  0  0  0
    4.9793   -0.3009    0.2370 H   0  0  0  0  0  0  0  0  0  0  0  0
    4.0789   -0.9450   -1.1477 H   0  0  0  0  0  0  0  0  0  0  0  0
    3.9898   -1.7536    0.4261 H   0  0  0  0  0  0  0  0  0  0  0  0
    3.8518    1.8058   -0.1169 H   0  0  0  0  0  0  0  0  0  0  0  0
    2.2536    2.0320    0.0709 H   0  0  0  0  0  0  0  0  0  0  0  0
   -5.6959   -0.1627   -0.2292 H   0  0  0  0  0  0  0  0  0  0  0  0
   -4.7857    1.3512   -0.3707 H   0  0  0  0  0  0  0  0  0  0  0  0
   -4.8543    0.4971    1.1836 H   0  0  0  0  0  0  0  0  0  0  0  0
  1  5  1  0  0  0  0
  1 24  1  0  0  0  0
  1 25  1  0  0  0  0
  2  3  1  0  0  0  0
  2  4  1  0  0  0  0
  2 10  1  0  0  0  0
  2 11  1  0  0  0  0
  3  5  1  0  0  0  0
  3 12  1  0  0  0  0
  3 13  1  0  0  0  0
  4  6  1  0  0  0  0
  4 14  1  0  0  0  0
  4 15  1  0  0  0  0
  5  8  1  0  0  0  0
  5 16  1  0  0  0  0
  6  7  1  0  0  0  0
  6 17  1  0  0  0  0
  6 18  1  0  0  0  0
  7  9  1  0  0  0  0
  7 19  1  0  0  0  0
  7 20  1  0  0  0  0
  8 21  1  0  0  0  0
  8 22  1  0  0  0  0
  8 23  1  0  0  0  0
  9 26  1  0  0  0  0
  9 27  1  0  0  0  0
  9 28  1  0  0  0  0
M  END
> <PUBCHEM_COMPOUND_CID>
12735

> <PUBCHEM_CONFORMER_RMSD>
0.6

> <PUBCHEM_CONFORMER_DIVERSEORDER>
1
108
23
3
112
61
113
101
68
52
75
64
4
110
12
91
111
15
80
104
86
106
95
77
81
53
90
26
32
8
84
13
69
43
19
21
67
40
48
105
49
17
20
27
107
6
58
73
114
96
55
44
88
18
42
2
97
39
103
78
79
87
5
47
109
63
76
46
102
28
54
74
36
41
92
29
83
65
66
30
14
71
7
31
98
45
16
35
100
72
38
57
24
99
60
62
82
59
37
56
11
33
89
51
93
34
85
50
9
94
10
25
70
22

> <PUBCHEM_MMFF94_PARTIAL_CHARGES>
4
1 -0.99
24 0.36
25 0.36
5 0.27

> <PUBCHEM_EFFECTIVE_ROTOR_COUNT>
5

> <PUBCHEM_PHARMACOPHORE_FEATURES>
4
1 1 cation
1 1 donor
1 9 hydrophobe
5 2 3 4 6 7 hydrophobe

> <PUBCHEM_HEAVY_ATOM_COUNT>
9

> <PUBCHEM_ATOM_DEF_STEREO_COUNT>
0

> <PUBCHEM_ATOM_UDEF_STEREO_COUNT>
1

> <PUBCHEM_BOND_DEF_STEREO_COUNT>
0

> <PUBCHEM_BOND_UDEF_STEREO_COUNT>
0

> <PUBCHEM_ISOTOPIC_ATOM_COUNT>
0

> <PUBCHEM_COMPONENT_COUNT>
1

> <PUBCHEM_CACTVS_TAUTO_COUNT>
1

> <PUBCHEM_CONFORMER_ID>
000031BF00000001

> <PUBCHEM_MMFF94_ENERGY>
-5.6198

> <PUBCHEM_FEATURE_SELFOVERLAP>
20.297

> <PUBCHEM_SHAPE_FINGERPRINT>
11062470 55 18412263939203412539
12932764 1 16988296304000256802
14325111 11 18410856538349718835
17834076 25 15985103028852161903
18186145 218 17917718984664579759
190213 19 17967251996491586259
20645477 70 18335983159415861982
20719005 15 18409449189468051931
20828058 21 13901908925050065347
21119208 17 18334576853852031927
22485316 2 8502653697241102905
23402539 116 17386014995963512037
23402655 69 18335422374041126477
42788 4 18334858324565378331

> <PUBCHEM_SHAPE_MULTIPOLES>
180.23
9.18
0.97
0.65
4.41
0.16
-0.01
0.16
0.21
-0.63
0.08
-0.01
0.01
-0.19

> <PUBCHEM_SHAPE_SELFOVERLAP>
314.515

> <PUBCHEM_SHAPE_VOLUME>
119

> <PUBCHEM_COORDINATE_TYPE>
2
5
10

$$$$

