7847029
  -OEChem-06241222483D

 50 52  0     1  0  0  0  0  0999 V2000
    3.7323    1.9010    1.0852 S   0  0  0  0  0  0  0  0  0  0  0  0
   -0.0969    1.3382    0.3608 O   0  0  0  0  0  0  0  0  0  0  0  0
   -1.0527    2.7867   -1.1592 O   0  0  0  0  0  0  0  0  0  0  0  0
   -2.3182    0.6085    1.8165 O   0  0  0  0  0  0  0  0  0  0  0  0
   -5.0205   -0.0442    1.4054 O   0  0  0  0  0  0  0  0  0  0  0  0
    2.5781    1.3012   -1.1420 N   0  0  0  0  0  0  0  0  0  0  0  0
   -3.2924   -0.1691   -0.1554 N   0  0  0  0  0  0  0  0  0  0  0  0
   -5.4320   -0.7712   -0.7614 N   0  0  0  0  0  0  0  0  0  0  0  0
   -0.9115    0.2802   -0.1220 C   0  0  1  0  0  0  0  0  0  0  0  0
    2.0290    3.5900   -0.3132 C   0  0  0  0  0  0  0  0  0  0  0  0
    0.6647    3.5642    0.3776 C   0  0  0  0  0  0  0  0  0  0  0  0
   -0.1672   -1.0238    0.0446 C   0  0  0  0  0  0  0  0  0  0  0  0
    2.7109    2.2477   -0.2423 C   0  0  0  0  0  0  0  0  0  0  0  0
   -0.2680    2.5535   -0.2503 C   0  0  0  0  0  0  0  0  0  0  0  0
    4.0449    0.3395    0.4242 C   0  0  0  0  0  0  0  0  0  0  0  0
    3.3374    0.2002   -0.7736 C   0  0  0  0  0  0  0  0  0  0  0  0
   -2.2320    0.2746    0.6369 C   0  0  0  0  0  0  0  0  0  0  0  0
   -0.3820   -2.0694   -0.8534 C   0  0  0  0  0  0  0  0  0  0  0  0
    0.7347   -1.1825    1.0969 C   0  0  0  0  0  0  0  0  0  0  0  0
    4.8575   -0.6882    0.9294 C   0  0  0  0  0  0  0  0  0  0  0  0
    3.4491   -1.0117   -1.4893 C   0  0  0  0  0  0  0  0  0  0  0  0
    0.3051   -3.2734   -0.6991 C   0  0  0  0  0  0  0  0  0  0  0  0
    1.4219   -2.3865    1.2511 C   0  0  0  0  0  0  0  0  0  0  0  0
    1.2071   -3.4320    0.3532 C   0  0  0  0  0  0  0  0  0  0  0  0
    4.9505   -1.8771    0.2016 C   0  0  0  0  0  0  0  0  0  0  0  0
    4.2562   -2.0390   -0.9923 C   0  0  0  0  0  0  0  0  0  0  0  0
   -4.6216   -0.3031    0.2711 C   0  0  0  0  0  0  0  0  0  0  0  0
   -6.8486   -1.0025   -0.6025 C   0  0  0  0  0  0  0  0  0  0  0  0
   -7.6357    0.2881   -0.6988 C   0  0  0  0  0  0  0  0  0  0  0  0
   -1.0947    0.4206   -1.1956 H   0  0  0  0  0  0  0  0  0  0  0  0
    2.6563    4.3700    0.1337 H   0  0  0  0  0  0  0  0  0  0  0  0
    1.9002    3.8542   -1.3704 H   0  0  0  0  0  0  0  0  0  0  0  0
    0.1876    4.5485    0.3049 H   0  0  0  0  0  0  0  0  0  0  0  0
    0.7580    3.3479    1.4488 H   0  0  0  0  0  0  0  0  0  0  0  0
   -1.0813   -1.9596   -1.6778 H   0  0  0  0  0  0  0  0  0  0  0  0
    0.9098   -0.3900    1.8193 H   0  0  0  0  0  0  0  0  0  0  0  0
    5.4015   -0.5694    1.8613 H   0  0  0  0  0  0  0  0  0  0  0  0
    2.9096   -1.1493   -2.4221 H   0  0  0  0  0  0  0  0  0  0  0  0
   -3.0966   -0.4242   -1.1195 H   0  0  0  0  0  0  0  0  0  0  0  0
    0.1386   -4.0874   -1.3985 H   0  0  0  0  0  0  0  0  0  0  0  0
    2.1204   -2.5118    2.0731 H   0  0  0  0  0  0  0  0  0  0  0  0
    1.7422   -4.3694    0.4733 H   0  0  0  0  0  0  0  0  0  0  0  0
    5.5728   -2.6858    0.5757 H   0  0  0  0  0  0  0  0  0  0  0  0
    4.3392   -2.9714   -1.5438 H   0  0  0  0  0  0  0  0  0  0  0  0
   -5.0139   -0.9484   -1.6695 H   0  0  0  0  0  0  0  0  0  0  0  0
   -7.0226   -1.4779    0.3686 H   0  0  0  0  0  0  0  0  0  0  0  0
   -7.1586   -1.6977   -1.3887 H   0  0  0  0  0  0  0  0  0  0  0  0
   -8.7074    0.0895   -0.6012 H   0  0  0  0  0  0  0  0  0  0  0  0
   -7.4647    0.7797   -1.6624 H   0  0  0  0  0  0  0  0  0  0  0  0
   -7.3465    0.9917    0.0887 H   0  0  0  0  0  0  0  0  0  0  0  0
  1 13  1  0  0  0  0
  1 15  1  0  0  0  0
  2  9  1  0  0  0  0
  2 14  1  0  0  0  0
  3 14  2  0  0  0  0
  4 17  2  0  0  0  0
  5 27  2  0  0  0  0
  6 13  2  0  0  0  0
  6 16  1  0  0  0  0
  7 17  1  0  0  0  0
  7 27  1  0  0  0  0
  7 39  1  0  0  0  0
  8 27  1  0  0  0  0
  8 28  1  0  0  0  0
  8 45  1  0  0  0  0
  9 12  1  0  0  0  0
  9 17  1  0  0  0  0
  9 30  1  0  0  0  0
 10 11  1  0  0  0  0
 10 13  1  0  0  0  0
 10 31  1  0  0  0  0
 10 32  1  0  0  0  0
 11 14  1  0  0  0  0
 11 33  1  0  0  0  0
 11 34  1  0  0  0  0
 12 18  2  0  0  0  0
 12 19  1  0  0  0  0
 15 16  1  0  0  0  0
 15 20  2  0  0  0  0
 16 21  2  0  0  0  0
 18 22  1  0  0  0  0
 18 35  1  0  0  0  0
 19 23  2  0  0  0  0
 19 36  1  0  0  0  0
 20 25  1  0  0  0  0
 20 37  1  0  0  0  0
 21 26  1  0  0  0  0
 21 38  1  0  0  0  0
 22 24  2  0  0  0  0
 22 40  1  0  0  0  0
 23 24  1  0  0  0  0
 23 41  1  0  0  0  0
 24 42  1  0  0  0  0
 25 26  2  0  0  0  0
 25 43  1  0  0  0  0
 26 44  1  0  0  0  0
 28 29  1  0  0  0  0
 28 46  1  0  0  0  0
 28 47  1  0  0  0  0
 29 48  1  0  0  0  0
 29 49  1  0  0  0  0
 29 50  1  0  0  0  0
M  END
> <PUBCHEM_COMPOUND_CID>
7847029

> <PUBCHEM_CONFORMER_RMSD>
1.2

> <PUBCHEM_CONFORMER_DIVERSEORDER>
1
156
6
130
167
15
70
109
55
7
123
162
43
118
171
85
23
147
26
97
19
82
30
37
176
117
153
120
145
121
63
24
48
87
66
166
98
8
110
137
73
17
99
154
41
164
45
12
113
72
65
133
39
57
89
29
138
157
44
168
96
59
61
81
60
54
80
119
126
115
5
50
129
71
49
143
93
146
91
79
10
56
131
76
68
90
46
9
165
106
136
172
3
132
160
28
149
4
22
159
35
84
105
170
101
112
155
161
103
62
27
31
114
152
122
134
83
47
25
102
64
58
16
53
108
38
77
88
158
14
135
100
141
104
95
69
163
51
75
21
151
128
150
36
127
52
139
116
169
92
142
33
94
74
34
20
124
86
175
11
78
2
173
111
148
140
32
13
144
107
67
42
18
125
40
174

> <PUBCHEM_MMFF94_PARTIAL_CHARGES>
39
1 -0.08
10 0.18
11 0.06
12 -0.14
13 0.2
14 0.66
15 0.04
16 0.23
17 0.57
18 -0.15
19 -0.15
2 -0.43
20 -0.15
21 -0.15
22 -0.15
23 -0.15
24 -0.15
25 -0.15
26 -0.15
27 0.69
28 0.3
3 -0.57
35 0.15
36 0.15
37 0.15
38 0.15
39 0.37
4 -0.57
40 0.15
41 0.15
42 0.15
43 0.15
44 0.15
45 0.37
5 -0.57
6 -0.57
7 -0.49
8 -0.73
9 0.48

> <PUBCHEM_EFFECTIVE_ROTOR_COUNT>
11

> <PUBCHEM_PHARMACOPHORE_FEATURES>
9
1 3 acceptor
1 4 acceptor
1 5 acceptor
1 6 acceptor
1 7 donor
1 8 donor
5 1 6 13 15 16 rings
6 12 18 19 22 23 24 rings
6 15 16 20 21 25 26 rings

> <PUBCHEM_HEAVY_ATOM_COUNT>
29

> <PUBCHEM_ATOM_DEF_STEREO_COUNT>
1

> <PUBCHEM_ATOM_UDEF_STEREO_COUNT>
0

> <PUBCHEM_BOND_DEF_STEREO_COUNT>
0

> <PUBCHEM_BOND_UDEF_STEREO_COUNT>
0

> <PUBCHEM_ISOTOPIC_ATOM_COUNT>
0

> <PUBCHEM_COMPONENT_COUNT>
1

> <PUBCHEM_CACTVS_TAUTO_COUNT>
10

> <PUBCHEM_CONFORMER_ID>
0077BC7500000001

> <PUBCHEM_MMFF94_ENERGY>
48.0829

> <PUBCHEM_FEATURE_SELFOVERLAP>
45.794

> <PUBCHEM_SHAPE_FINGERPRINT>
10366900 7 17988065803340458514
10675989 125 18338233739675515577
10693767 8 18333735736390298391
10838868 158 16908894848747951635
1100329 8 18338237059347112043
11135609 187 18264772052066447665
12236239 1 17967533463585114099
12633257 1 18196951989333259360
12838862 33 18338811000860529888
13140716 1 18339918221706338410
13533116 47 18040434365081351856
1361 2 18410013217126182779
14725015 67 18271537489082860344
15420108 30 17610040627657024937
16728300 4 17556612003594780578
17492 54 18270100349996830812
19591789 44 18410293622587120392
20028762 73 18186518821374549863
20905425 154 17762611090468242038
23558518 356 17549548405304649127
3178227 256 18341886364488618499
460360 51 18055345843130379387
484985 159 14646347807369444758
513532 50 17822280246409557204

> <PUBCHEM_SHAPE_MULTIPOLES>
562.24
12.62
4.11
1.27
26.48
1.37
-0.13
-2.88
1.36
-3.7
0.36
-0.23
-0.15
0.04

> <PUBCHEM_SHAPE_SELFOVERLAP>
1185.32

> <PUBCHEM_SHAPE_VOLUME>
315.8

> <PUBCHEM_COORDINATE_TYPE>
2
5
10

$$$$

