17395258
  -OEChem-06241222482D

 56 59  0     1  0  0  0  0  0999 V2000
    4.5981   -0.7673    0.0000 S   0  0  0  0  0  0  0  0  0  0  0  0
    4.0981    0.0987    0.0000 O   0  0  0  0  0  0  0  0  0  0  0  0
    5.0981   -1.6334    0.0000 O   0  0  0  0  0  0  0  0  0  0  0  0
   12.3923    0.7327    0.0000 O   0  0  0  0  0  0  0  0  0  0  0  0
   12.3923    2.7327    0.0000 O   0  0  0  0  0  0  0  0  0  0  0  0
    8.9282   -0.2673    0.0000 O   0  0  0  0  0  0  0  0  0  0  0  0
    3.7320   -1.2673    0.0000 N   0  0  0  0  0  0  0  0  0  0  0  0
    9.7942    1.2327    0.0000 N   0  0  0  0  0  0  0  0  0  0  0  0
    2.8660   -0.7673    0.0000 C   0  0  0  0  0  0  0  0  0  0  0  0
    3.7320   -2.2673    0.0000 C   0  0  0  0  0  0  0  0  0  0  0  0
    2.0000   -1.2673    0.0000 C   0  0  0  0  0  0  0  0  0  0  0  0
    2.8660   -2.7673    0.0000 C   0  0  0  0  0  0  0  0  0  0  0  0
    2.0000   -2.2673    0.0000 C   0  0  0  0  0  0  0  0  0  0  0  0
    5.4641   -0.2673    0.0000 C   0  0  0  0  0  0  0  0  0  0  0  0
    5.4641    0.7327    0.0000 C   0  0  0  0  0  0  0  0  0  0  0  0
    6.3301   -0.7673    0.0000 C   0  0  0  0  0  0  0  0  0  0  0  0
   11.5263    1.2327    0.0000 C   0  0  3  0  0  0  0  0  0  0  0  0
    7.1962    0.7327    0.0000 C   0  0  0  0  0  0  0  0  0  0  0  0
    6.3301    1.2327    0.0000 C   0  0  0  0  0  0  0  0  0  0  0  0
    7.1962   -0.2673    0.0000 C   0  0  0  0  0  0  0  0  0  0  0  0
   10.6603    0.7327    0.0000 C   0  0  0  0  0  0  0  0  0  0  0  0
    8.0622    1.2327    0.0000 C   0  0  0  0  0  0  0  0  0  0  0  0
   11.5263    2.2327    0.0000 C   0  0  0  0  0  0  0  0  0  0  0  0
    8.9282    0.7327    0.0000 C   0  0  0  0  0  0  0  0  0  0  0  0
   13.2583    1.2327    0.0000 C   0  0  0  0  0  0  0  0  0  0  0  0
   13.2583    2.2327    0.0000 C   0  0  0  0  0  0  0  0  0  0  0  0
   14.1523    0.6980    0.0000 C   0  0  0  0  0  0  0  0  0  0  0  0
   14.1523    2.7673    0.0000 C   0  0  0  0  0  0  0  0  0  0  0  0
   15.0583    1.2119    0.0000 C   0  0  0  0  0  0  0  0  0  0  0  0
   15.0583    2.2535    0.0000 C   0  0  0  0  0  0  0  0  0  0  0  0
    3.9441   -2.8499    0.0000 H   0  0  0  0  0  0  0  0  0  0  0  0
    4.3426   -2.1597    0.0000 H   0  0  0  0  0  0  0  0  0  0  0  0
    3.2646   -0.2924    0.0000 H   0  0  0  0  0  0  0  0  0  0  0  0
    2.4675   -0.2924    0.0000 H   0  0  0  0  0  0  0  0  0  0  0  0
    2.4675   -3.2423    0.0000 H   0  0  0  0  0  0  0  0  0  0  0  0
    3.2646   -3.2423    0.0000 H   0  0  0  0  0  0  0  0  0  0  0  0
    1.7880   -0.6847    0.0000 H   0  0  0  0  0  0  0  0  0  0  0  0
    1.3894   -1.3750    0.0000 H   0  0  0  0  0  0  0  0  0  0  0  0
    1.3894   -2.1597    0.0000 H   0  0  0  0  0  0  0  0  0  0  0  0
    1.7880   -2.8499    0.0000 H   0  0  0  0  0  0  0  0  0  0  0  0
    4.9272    1.0427    0.0000 H   0  0  0  0  0  0  0  0  0  0  0  0
    6.3301   -1.3873    0.0000 H   0  0  0  0  0  0  0  0  0  0  0  0
   11.5263    0.6127    0.0000 H   0  0  0  0  0  0  0  0  0  0  0  0
   10.2617    0.2577    0.0000 H   0  0  0  0  0  0  0  0  0  0  0  0
   11.0588    0.2577    0.0000 H   0  0  0  0  0  0  0  0  0  0  0  0
    6.3301    1.8527    0.0000 H   0  0  0  0  0  0  0  0  0  0  0  0
    7.7331   -0.5773    0.0000 H   0  0  0  0  0  0  0  0  0  0  0  0
    8.4607    1.7076    0.0000 H   0  0  0  0  0  0  0  0  0  0  0  0
    7.6636    1.7076    0.0000 H   0  0  0  0  0  0  0  0  0  0  0  0
   11.3142    2.8153    0.0000 H   0  0  0  0  0  0  0  0  0  0  0  0
   10.9157    2.1250    0.0000 H   0  0  0  0  0  0  0  0  0  0  0  0
    9.7942    1.8527    0.0000 H   0  0  0  0  0  0  0  0  0  0  0  0
   14.1451    0.0780    0.0000 H   0  0  0  0  0  0  0  0  0  0  0  0
   14.1451    3.3873    0.0000 H   0  0  0  0  0  0  0  0  0  0  0  0
   15.5941    0.8998    0.0000 H   0  0  0  0  0  0  0  0  0  0  0  0
   15.5941    2.5656    0.0000 H   0  0  0  0  0  0  0  0  0  0  0  0
  1  2  2  0  0  0  0
  1  3  2  0  0  0  0
  1  7  1  0  0  0  0
  1 14  1  0  0  0  0
  4 17  1  0  0  0  0
  4 25  1  0  0  0  0
  5 23  1  0  0  0  0
  5 26  1  0  0  0  0
  6 24  2  0  0  0  0
  7  9  1  0  0  0  0
  7 10  1  0  0  0  0
  8 21  1  0  0  0  0
  8 24  1  0  0  0  0
  8 52  1  0  0  0  0
  9 11  1  0  0  0  0
  9 33  1  0  0  0  0
  9 34  1  0  0  0  0
 10 12  1  0  0  0  0
 10 31  1  0  0  0  0
 10 32  1  0  0  0  0
 11 13  1  0  0  0  0
 11 37  1  0  0  0  0
 11 38  1  0  0  0  0
 12 13  1  0  0  0  0
 12 35  1  0  0  0  0
 12 36  1  0  0  0  0
 13 39  1  0  0  0  0
 13 40  1  0  0  0  0
 14 15  2  0  0  0  0
 14 16  1  0  0  0  0
 15 19  1  0  0  0  0
 15 41  1  0  0  0  0
 16 20  2  0  0  0  0
 16 42  1  0  0  0  0
 17 21  1  0  0  0  0
 17 23  1  0  0  0  0
 17 43  1  0  0  0  0
 18 19  2  0  0  0  0
 18 20  1  0  0  0  0
 18 22  1  0  0  0  0
 19 46  1  0  0  0  0
 20 47  1  0  0  0  0
 21 44  1  0  0  0  0
 21 45  1  0  0  0  0
 22 24  1  0  0  0  0
 22 48  1  0  0  0  0
 22 49  1  0  0  0  0
 23 50  1  0  0  0  0
 23 51  1  0  0  0  0
 25 26  1  0  0  0  0
 25 27  2  0  0  0  0
 26 28  2  0  0  0  0
 27 29  1  0  0  0  0
 27 53  1  0  0  0  0
 28 30  1  0  0  0  0
 28 54  1  0  0  0  0
 29 30  2  0  0  0  0
 29 55  1  0  0  0  0
 30 56  1  0  0  0  0
M  END
> <PUBCHEM_COMPOUND_CID>
17395258

> <PUBCHEM_COMPOUND_CANONICALIZED>
1

> <PUBCHEM_CACTVS_COMPLEXITY>
666

> <PUBCHEM_CACTVS_HBOND_ACCEPTOR>
6

> <PUBCHEM_CACTVS_HBOND_DONOR>
1

> <PUBCHEM_CACTVS_ROTATABLE_BOND>
6

> <PUBCHEM_CACTVS_SUBSKEYS>
AAADceB7OABAAAAAAAAAAAAAAAAAAAAAAAA8aIEAAAAAAACRQAAAHgQQQAAADBTh2AYwB4LABAKIAiFSEHBCCBAgIAAIiJkOiIgPJjKEtRuHOCKm1hGaqAeYyICOEAAAAAAAQAAgAAAAAACAAAAAAAAAAA==

> <PUBCHEM_IUPAC_OPENEYE_NAME>
N-(2,3-dihydro-1,4-benzodioxin-3-ylmethyl)-2-[4-(1-piperidylsulfonyl)phenyl]acetamide

> <PUBCHEM_IUPAC_CAS_NAME>
N-(2,3-dihydro-1,4-benzodioxin-3-ylmethyl)-2-[4-(1-piperidinylsulfonyl)phenyl]acetamide

> <PUBCHEM_IUPAC_NAME>
N-(2,3-dihydro-1,4-benzodioxin-3-ylmethyl)-2-(4-piperidin-1-ylsulfonylphenyl)acetamide

> <PUBCHEM_IUPAC_SYSTEMATIC_NAME>
N-(2,3-dihydro-1,4-benzodioxin-3-ylmethyl)-2-(4-piperidin-1-ylsulfonylphenyl)ethanamide

> <PUBCHEM_IUPAC_TRADITIONAL_NAME>
N-(2,3-dihydro-1,4-benzodioxin-3-ylmethyl)-2-(4-piperidinosulfonylphenyl)acetamide

> <PUBCHEM_IUPAC_INCHI>
InChI=1S/C22H26N2O5S/c25-22(23-15-18-16-28-20-6-2-3-7-21(20)29-18)14-17-8-10-19(11-9-17)30(26,27)24-12-4-1-5-13-24/h2-3,6-11,18H,1,4-5,12-16H2,(H,23,25)

> <PUBCHEM_IUPAC_INCHIKEY>
FEMBKLFYKPROSZ-UHFFFAOYSA-N

> <PUBCHEM_XLOGP3_AA>
2.6

> <PUBCHEM_EXACT_MASS>
430.156243

> <PUBCHEM_MOLECULAR_FORMULA>
C22H26N2O5S

> <PUBCHEM_MOLECULAR_WEIGHT>
430.51724

> <PUBCHEM_OPENEYE_CAN_SMILES>
C1CCN(CC1)S(=O)(=O)C2=CC=C(C=C2)CC(=O)NCC3COC4=CC=CC=C4O3

> <PUBCHEM_OPENEYE_ISO_SMILES>
C1CCN(CC1)S(=O)(=O)C2=CC=C(C=C2)CC(=O)NCC3COC4=CC=CC=C4O3

> <PUBCHEM_CACTVS_TPSA>
93.3

> <PUBCHEM_MONOISOTOPIC_WEIGHT>
430.156243

> <PUBCHEM_TOTAL_CHARGE>
0

> <PUBCHEM_HEAVY_ATOM_COUNT>
30

> <PUBCHEM_ATOM_DEF_STEREO_COUNT>
0

> <PUBCHEM_ATOM_UDEF_STEREO_COUNT>
1

> <PUBCHEM_BOND_DEF_STEREO_COUNT>
0

> <PUBCHEM_BOND_UDEF_STEREO_COUNT>
0

> <PUBCHEM_ISOTOPIC_ATOM_COUNT>
0

> <PUBCHEM_COMPONENT_COUNT>
1

> <PUBCHEM_CACTVS_TAUTO_COUNT>
2

> <PUBCHEM_COORDINATE_TYPE>
1
5
255

> <PUBCHEM_BONDANNOTATIONS>
14  15  8
14  16  8
15  19  8
16  20  8
17  21  3
18  19  8
18  20  8
25  26  8
25  27  8
26  28  8
27  29  8
28  30  8
29  30  8

$$$$

