8852
  -OEChem-06261203102D

 47 46  0     0  0  0  0  0  0999 V2000
    4.5981    0.0000    0.0000 Si  0  0  0  0  0  0  0  0  0  0  0  0
    6.3301    0.0000    0.0000 Si  0  0  0  0  0  0  0  0  0  0  0  0
    2.8660    0.0000    0.0000 Si  0  0  0  0  0  0  0  0  0  0  0  0
    8.0622    0.0000    0.0000 Si  0  0  0  0  0  0  0  0  0  0  0  0
    5.4641    0.5000    0.0000 O   0  0  0  0  0  0  0  0  0  0  0  0
    3.7320   -0.5000    0.0000 O   0  0  0  0  0  0  0  0  0  0  0  0
    7.1962   -0.5000    0.0000 O   0  0  0  0  0  0  0  0  0  0  0  0
    6.8301    0.8660    0.0000 C   0  0  0  0  0  0  0  0  0  0  0  0
    5.8301   -0.8660    0.0000 C   0  0  0  0  0  0  0  0  0  0  0  0
    4.0981    0.8660    0.0000 C   0  0  0  0  0  0  0  0  0  0  0  0
    5.0981   -0.8660    0.0000 C   0  0  0  0  0  0  0  0  0  0  0  0
    8.9282    0.5000    0.0000 C   0  0  0  0  0  0  0  0  0  0  0  0
    8.5622   -0.8660    0.0000 C   0  0  0  0  0  0  0  0  0  0  0  0
    7.5622    0.8660    0.0000 C   0  0  0  0  0  0  0  0  0  0  0  0
    2.0000    0.5000    0.0000 C   0  0  0  0  0  0  0  0  0  0  0  0
    2.3660   -0.8660    0.0000 C   0  0  0  0  0  0  0  0  0  0  0  0
    3.3660    0.8660    0.0000 C   0  0  0  0  0  0  0  0  0  0  0  0
    4.5611   -1.1760    0.0000 H   0  0  0  0  0  0  0  0  0  0  0  0
    5.4081   -1.4030    0.0000 H   0  0  0  0  0  0  0  0  0  0  0  0
    5.6350   -0.5560    0.0000 H   0  0  0  0  0  0  0  0  0  0  0  0
    4.6350    1.1760    0.0000 H   0  0  0  0  0  0  0  0  0  0  0  0
    3.7881    1.4030    0.0000 H   0  0  0  0  0  0  0  0  0  0  0  0
    3.5611    0.5560    0.0000 H   0  0  0  0  0  0  0  0  0  0  0  0
    5.2932   -0.5560    0.0000 H   0  0  0  0  0  0  0  0  0  0  0  0
    5.5201   -1.4030    0.0000 H   0  0  0  0  0  0  0  0  0  0  0  0
    6.3671   -1.1760    0.0000 H   0  0  0  0  0  0  0  0  0  0  0  0
    7.3671    0.5560    0.0000 H   0  0  0  0  0  0  0  0  0  0  0  0
    7.1401    1.4030    0.0000 H   0  0  0  0  0  0  0  0  0  0  0  0
    6.2932    1.1760    0.0000 H   0  0  0  0  0  0  0  0  0  0  0  0
    9.2382   -0.0369    0.0000 H   0  0  0  0  0  0  0  0  0  0  0  0
    9.4651    0.8100    0.0000 H   0  0  0  0  0  0  0  0  0  0  0  0
    8.6182    1.0369    0.0000 H   0  0  0  0  0  0  0  0  0  0  0  0
    8.0252   -1.1760    0.0000 H   0  0  0  0  0  0  0  0  0  0  0  0
    8.8722   -1.4030    0.0000 H   0  0  0  0  0  0  0  0  0  0  0  0
    9.0991   -0.5560    0.0000 H   0  0  0  0  0  0  0  0  0  0  0  0
    8.0991    1.1760    0.0000 H   0  0  0  0  0  0  0  0  0  0  0  0
    7.2522    1.4030    0.0000 H   0  0  0  0  0  0  0  0  0  0  0  0
    7.0252    0.5560    0.0000 H   0  0  0  0  0  0  0  0  0  0  0  0
    2.3100    1.0369    0.0000 H   0  0  0  0  0  0  0  0  0  0  0  0
    1.4631    0.8100    0.0000 H   0  0  0  0  0  0  0  0  0  0  0  0
    1.6900   -0.0369    0.0000 H   0  0  0  0  0  0  0  0  0  0  0  0
    1.8291   -0.5560    0.0000 H   0  0  0  0  0  0  0  0  0  0  0  0
    2.0560   -1.4030    0.0000 H   0  0  0  0  0  0  0  0  0  0  0  0
    2.9030   -1.1760    0.0000 H   0  0  0  0  0  0  0  0  0  0  0  0
    3.9030    0.5560    0.0000 H   0  0  0  0  0  0  0  0  0  0  0  0
    3.6760    1.4030    0.0000 H   0  0  0  0  0  0  0  0  0  0  0  0
    2.8291    1.1760    0.0000 H   0  0  0  0  0  0  0  0  0  0  0  0
  1  5  1  0  0  0  0
  1  6  1  0  0  0  0
  1 10  1  0  0  0  0
  1 11  1  0  0  0  0
  2  5  1  0  0  0  0
  2  7  1  0  0  0  0
  2  8  1  0  0  0  0
  2  9  1  0  0  0  0
  3  6  1  0  0  0  0
  3 15  1  0  0  0  0
  3 16  1  0  0  0  0
  3 17  1  0  0  0  0
  4  7  1  0  0  0  0
  4 12  1  0  0  0  0
  4 13  1  0  0  0  0
  4 14  1  0  0  0  0
  8 27  1  0  0  0  0
  8 28  1  0  0  0  0
  8 29  1  0  0  0  0
  9 24  1  0  0  0  0
  9 25  1  0  0  0  0
  9 26  1  0  0  0  0
 10 21  1  0  0  0  0
 10 22  1  0  0  0  0
 10 23  1  0  0  0  0
 11 18  1  0  0  0  0
 11 19  1  0  0  0  0
 11 20  1  0  0  0  0
 12 30  1  0  0  0  0
 12 31  1  0  0  0  0
 12 32  1  0  0  0  0
 13 33  1  0  0  0  0
 13 34  1  0  0  0  0
 13 35  1  0  0  0  0
 14 36  1  0  0  0  0
 14 37  1  0  0  0  0
 14 38  1  0  0  0  0
 15 39  1  0  0  0  0
 15 40  1  0  0  0  0
 15 41  1  0  0  0  0
 16 42  1  0  0  0  0
 16 43  1  0  0  0  0
 16 44  1  0  0  0  0
 17 45  1  0  0  0  0
 17 46  1  0  0  0  0
 17 47  1  0  0  0  0
M  END
> <PUBCHEM_COMPOUND_CID>
8852

> <PUBCHEM_COMPOUND_CANONICALIZED>
1

> <PUBCHEM_CACTVS_COMPLEXITY>
227

> <PUBCHEM_CACTVS_HBOND_ACCEPTOR>
3

> <PUBCHEM_CACTVS_HBOND_DONOR>
0

> <PUBCHEM_CACTVS_ROTATABLE_BOND>
6

> <PUBCHEM_CACTVS_SUBSKEYS>
AAADceBwMAwAAAAAAAAAAAAAAAAAAAAAAAAAAAAAAAAAAAAAAAAAEBAAAEAAAAAAAABCAAAAAAEAAAAAAAAAAAAAAAAAAAAAAAAAAAAAAAAAAAAAAAAAAAAAAAAAAAAAAAAAAAAAAAAAAAAAAAAAAAAAAA==

> <PUBCHEM_IUPAC_OPENEYE_NAME>
[dimethyl(trimethylsilyloxy)silyl]oxy-dimethyl-trimethylsilyloxy-silane

> <PUBCHEM_IUPAC_CAS_NAME>
[dimethyl(trimethylsilyloxy)silyl]oxy-dimethyl-trimethylsilyloxysilane

> <PUBCHEM_IUPAC_NAME>
[dimethyl(trimethylsilyloxy)silyl]oxy-dimethyl-trimethylsilyloxysilane

> <PUBCHEM_IUPAC_SYSTEMATIC_NAME>
[dimethyl(trimethylsilyloxy)silyl]oxy-dimethyl-trimethylsilyloxy-silane

> <PUBCHEM_IUPAC_TRADITIONAL_NAME>
[dimethyl(trimethylsilyloxy)silyl]oxy-dimethyl-trimethylsilyloxy-silane

> <PUBCHEM_IUPAC_INCHI>
InChI=1S/C10H30O3Si4/c1-14(2,3)11-16(7,8)13-17(9,10)12-15(4,5)6/h1-10H3

> <PUBCHEM_IUPAC_INCHIKEY>
YFCGDEUVHLPRCZ-UHFFFAOYSA-N

> <PUBCHEM_EXACT_MASS>
310.127201

> <PUBCHEM_MOLECULAR_FORMULA>
C10H30O3Si4

> <PUBCHEM_MOLECULAR_WEIGHT>
310.6854

> <PUBCHEM_OPENEYE_CAN_SMILES>
C[Si](C)(C)O[Si](C)(C)O[Si](C)(C)O[Si](C)(C)C

> <PUBCHEM_OPENEYE_ISO_SMILES>
C[Si](C)(C)O[Si](C)(C)O[Si](C)(C)O[Si](C)(C)C

> <PUBCHEM_CACTVS_TPSA>
27.7

> <PUBCHEM_MONOISOTOPIC_WEIGHT>
310.127201

> <PUBCHEM_TOTAL_CHARGE>
0

> <PUBCHEM_HEAVY_ATOM_COUNT>
17

> <PUBCHEM_ATOM_DEF_STEREO_COUNT>
0

> <PUBCHEM_ATOM_UDEF_STEREO_COUNT>
0

> <PUBCHEM_BOND_DEF_STEREO_COUNT>
0

> <PUBCHEM_BOND_UDEF_STEREO_COUNT>
0

> <PUBCHEM_ISOTOPIC_ATOM_COUNT>
0

> <PUBCHEM_COMPONENT_COUNT>
1

> <PUBCHEM_CACTVS_TAUTO_COUNT>
1

> <PUBCHEM_COORDINATE_TYPE>
1
5
255

$$$$

