7846978
  -OEChem-06241222483D

 33 34  0     1  0  0  0  0  0999 V2000
   -1.8805    1.8752   -1.0995 S   0  0  0  0  0  0  0  0  0  0  0  0
    2.8176    0.6050   -0.6732 O   0  0  0  0  0  0  0  0  0  0  0  0
    1.9575    0.7215    1.4642 O   0  0  0  0  0  0  0  0  0  0  0  0
    1.2505   -1.6471   -0.4116 O   0  0  0  0  0  0  0  0  0  0  0  0
   -1.0596    0.7285    1.0600 N   0  0  0  0  0  0  0  0  0  0  0  0
    2.8405   -2.5757    0.9631 N   0  0  0  0  0  0  0  0  0  0  0  0
    0.1529    2.8075    0.5048 C   0  0  0  0  0  0  0  0  0  0  0  0
    1.5012    2.4735   -0.1599 C   0  0  0  0  0  0  0  0  0  0  0  0
   -0.8673    1.7619    0.2738 C   0  0  0  0  0  0  0  0  0  0  0  0
   -2.6662    0.4145   -0.6279 C   0  0  0  0  0  0  0  0  0  0  0  0
   -2.0885   -0.0537    0.5559 C   0  0  0  0  0  0  0  0  0  0  0  0
    3.4507   -0.6380   -0.3526 C   0  0  2  0  0  0  0  0  0  0  0  0
    2.0983    1.1768    0.3377 C   0  0  0  0  0  0  0  0  0  0  0  0
   -3.7181   -0.2677   -1.2602 C   0  0  0  0  0  0  0  0  0  0  0  0
   -2.5829   -1.2473    1.1252 C   0  0  0  0  0  0  0  0  0  0  0  0
    4.2233   -1.1082   -1.5745 C   0  0  0  0  0  0  0  0  0  0  0  0
   -4.1887   -1.4464   -0.6760 C   0  0  0  0  0  0  0  0  0  0  0  0
   -3.6298   -1.9317    0.5011 C   0  0  0  0  0  0  0  0  0  0  0  0
    2.3891   -1.6486    0.0495 C   0  0  0  0  0  0  0  0  0  0  0  0
   -0.1923    3.7838    0.1432 H   0  0  0  0  0  0  0  0  0  0  0  0
    0.3033    2.9198    1.5862 H   0  0  0  0  0  0  0  0  0  0  0  0
    2.2233    3.2728    0.0390 H   0  0  0  0  0  0  0  0  0  0  0  0
    1.3587    2.4074   -1.2456 H   0  0  0  0  0  0  0  0  0  0  0  0
    4.1532   -0.4699    0.4733 H   0  0  0  0  0  0  0  0  0  0  0  0
   -4.1592    0.1052   -2.1795 H   0  0  0  0  0  0  0  0  0  0  0  0
   -2.1532   -1.6356    2.0443 H   0  0  0  0  0  0  0  0  0  0  0  0
    4.7388   -2.0540   -1.3807 H   0  0  0  0  0  0  0  0  0  0  0  0
    3.5523   -1.2546   -2.4285 H   0  0  0  0  0  0  0  0  0  0  0  0
    4.9619   -0.3576   -1.8751 H   0  0  0  0  0  0  0  0  0  0  0  0
   -5.0022   -1.9899   -1.1494 H   0  0  0  0  0  0  0  0  0  0  0  0
   -4.0087   -2.8503    0.9408 H   0  0  0  0  0  0  0  0  0  0  0  0
    3.7894   -2.5683    1.3230 H   0  0  0  0  0  0  0  0  0  0  0  0
    2.2287   -3.3081    1.3076 H   0  0  0  0  0  0  0  0  0  0  0  0
  1  9  1  0  0  0  0
  1 10  1  0  0  0  0
  2 12  1  0  0  0  0
  2 13  1  0  0  0  0
  3 13  2  0  0  0  0
  4 19  2  0  0  0  0
  5  9  2  0  0  0  0
  5 11  1  0  0  0  0
  6 19  1  0  0  0  0
  6 32  1  0  0  0  0
  6 33  1  0  0  0  0
  7  8  1  0  0  0  0
  7  9  1  0  0  0  0
  7 20  1  0  0  0  0
  7 21  1  0  0  0  0
  8 13  1  0  0  0  0
  8 22  1  0  0  0  0
  8 23  1  0  0  0  0
 10 11  1  0  0  0  0
 10 14  2  0  0  0  0
 11 15  2  0  0  0  0
 12 16  1  0  0  0  0
 12 19  1  0  0  0  0
 12 24  1  0  0  0  0
 14 17  1  0  0  0  0
 14 25  1  0  0  0  0
 15 18  1  0  0  0  0
 15 26  1  0  0  0  0
 16 27  1  0  0  0  0
 16 28  1  0  0  0  0
 16 29  1  0  0  0  0
 17 18  2  0  0  0  0
 17 30  1  0  0  0  0
 18 31  1  0  0  0  0
M  END
> <PUBCHEM_COMPOUND_CID>
7846978

> <PUBCHEM_CONFORMER_RMSD>
0.8

> <PUBCHEM_CONFORMER_DIVERSEORDER>
1
72
151
250
268
306
84
270
7
32
94
40
283
112
68
158
299
52
328
207
89
259
100
148
249
59
267
209
96
296
210
121
131
79
93
183
287
206
62
238
154
69
5
198
320
272
258
118
136
239
294
63
237
21
41
282
125
57
279
276
56
26
160
25
286
254
266
180
214
75
204
137
44
122
269
181
225
115
200
120
58
38
117
104
92
203
147
14
167
133
113
46
324
140
244
257
20
126
45
33
197
190
152
261
3
195
236
35
74
245
240
106
61
119
226
242
9
309
108
24
77
134
73
64
110
247
129
170
216
138
260
274
305
164
178
101
230
271
82
51
302
127
50
43
241
292
36
15
331
171
48
284
290
199
155
109
202
19
71
166
205
188
186
27
175
313
187
4
145
22
99
255
39
176
12
103
49
95
124
252
150
194
217
293
323
253
321
70
304
329
8
208
66
275
248
86
105
223
273
235
232
13
211
88
221
219
31
300
139
318
168
192
222
80
215
234
308
83
114
60
161
196
278
231
177
325
143
201
322
2
47
312
146
34
174
185
263
144
149
29
172
229
163
37
98
142
310
265
87
156
295
297
107
159
326
128
10
184
81
228
165
97
135
301
227
233
220
65
314
193
76
28
11
90
6
332
251
262
330
91
132
102
307
281
191
316
162
23
298
78
291
141
17
116
179
30
317
264
218
213
85
189
130
288
18
173
280
212
55
315
182
16
327
319
54
246
277
42
224
311
67
153
256
111
243
169
157
123
303
53
289
285

> <PUBCHEM_MMFF94_PARTIAL_CHARGES>
24
1 -0.08
10 0.04
11 0.23
12 0.34
13 0.66
14 -0.15
15 -0.15
17 -0.15
18 -0.15
19 0.57
2 -0.43
25 0.15
26 0.15
3 -0.57
30 0.15
31 0.15
32 0.37
33 0.37
4 -0.57
5 -0.57
6 -0.8
7 0.18
8 0.06
9 0.2

> <PUBCHEM_EFFECTIVE_ROTOR_COUNT>
6

> <PUBCHEM_PHARMACOPHORE_FEATURES>
6
1 3 acceptor
1 4 acceptor
1 5 acceptor
1 6 donor
5 1 5 9 10 11 rings
6 10 11 14 15 17 18 rings

> <PUBCHEM_HEAVY_ATOM_COUNT>
19

> <PUBCHEM_ATOM_DEF_STEREO_COUNT>
1

> <PUBCHEM_ATOM_UDEF_STEREO_COUNT>
0

> <PUBCHEM_BOND_DEF_STEREO_COUNT>
0

> <PUBCHEM_BOND_UDEF_STEREO_COUNT>
0

> <PUBCHEM_ISOTOPIC_ATOM_COUNT>
0

> <PUBCHEM_COMPONENT_COUNT>
1

> <PUBCHEM_CACTVS_TAUTO_COUNT>
4

> <PUBCHEM_CONFORMER_ID>
0077BC4200000001

> <PUBCHEM_MMFF94_ENERGY>
30.9369

> <PUBCHEM_FEATURE_SELFOVERLAP>
30.519

> <PUBCHEM_SHAPE_FINGERPRINT>
11640471 11 13038916481967283713
12363563 72 18335415781371640254
12506688 2 18336828597984266121
12553582 1 18338790221117149042
12596599 1 17604133831991134927
12788726 201 17973722768455802313
13533116 47 18044089048165886843
14251705 54 18410576162736812971
15635459 17 18199191689669904299
17357779 13 18410858750131146197
19766037 51 18339913857607784061
20291156 8 18333165080948263484
20645477 70 18124605189013263261
21731228 192 8718823180472188156
21731516 1 18186793695049472148
23557571 272 18191605222615274568
23559900 14 18342749515275784916
2871803 45 18412823573305002862
312425 83 16773517801504652814
3323516 105 18270685260207875971
5262128 65 18342451534692549240
9709674 26 18341621360843538197

> <PUBCHEM_SHAPE_MULTIPOLES>
367.29
7.65
2.98
1.29
0.12
0.7
-0.11
-5.23
-2.31
0.78
0.35
0.04
-0.13
0.62

> <PUBCHEM_SHAPE_SELFOVERLAP>
763.71

> <PUBCHEM_SHAPE_VOLUME>
209.4

> <PUBCHEM_COORDINATE_TYPE>
2
5
10

$$$$

