14154
  -OEChem-06241222423D

 37 39  0     0  0  0  0  0  0999 V2000
    6.2653   -0.9989   -0.0228 O   0  0  0  0  0  0  0  0  0  0  0  0
   -0.4695    1.8779    0.0601 O   0  0  0  0  0  0  0  0  0  0  0  0
    3.7196    0.2588    0.1749 N   0  0  0  0  0  0  0  0  0  0  0  0
   -1.8319    1.7240    0.2854 N   0  0  0  0  0  0  0  0  0  0  0  0
    4.0331   -0.6739   -0.9166 C   0  0  0  0  0  0  0  0  0  0  0  0
    4.5027   -0.0834    1.3703 C   0  0  0  0  0  0  0  0  0  0  0  0
    2.2886    0.2483    0.4715 C   0  0  0  0  0  0  0  0  0  0  0  0
    5.5325   -0.6550   -1.1995 C   0  0  0  0  0  0  0  0  0  0  0  0
    5.9910   -0.0773    1.0331 C   0  0  0  0  0  0  0  0  0  0  0  0
    1.4732    0.7081   -0.7387 C   0  0  0  0  0  0  0  0  0  0  0  0
   -0.0043    0.7220   -0.4332 C   0  0  0  0  0  0  0  0  0  0  0  0
   -0.9655   -0.2066   -0.5567 C   0  0  0  0  0  0  0  0  0  0  0  0
   -2.1052    0.4713   -0.0904 C   0  0  0  0  0  0  0  0  0  0  0  0
   -3.4431   -0.0489    0.0033 C   0  0  0  0  0  0  0  0  0  0  0  0
   -3.6454   -1.4096    0.2261 C   0  0  0  0  0  0  0  0  0  0  0  0
   -4.5330    0.8094   -0.1291 C   0  0  0  0  0  0  0  0  0  0  0  0
   -4.9427   -1.9141    0.3165 C   0  0  0  0  0  0  0  0  0  0  0  0
   -5.8303    0.3047   -0.0385 C   0  0  0  0  0  0  0  0  0  0  0  0
   -6.0350   -1.0570    0.1843 C   0  0  0  0  0  0  0  0  0  0  0  0
    3.5453   -0.3947   -1.8539 H   0  0  0  0  0  0  0  0  0  0  0  0
    3.7220   -1.6930   -0.6526 H   0  0  0  0  0  0  0  0  0  0  0  0
    4.2169   -1.0765    1.7409 H   0  0  0  0  0  0  0  0  0  0  0  0
    4.3169    0.6440    2.1687 H   0  0  0  0  0  0  0  0  0  0  0  0
    1.9577   -0.7488    0.7930 H   0  0  0  0  0  0  0  0  0  0  0  0
    2.0846    0.9314    1.3068 H   0  0  0  0  0  0  0  0  0  0  0  0
    5.7764   -1.3938   -1.9698 H   0  0  0  0  0  0  0  0  0  0  0  0
    5.8642    0.3251   -1.5635 H   0  0  0  0  0  0  0  0  0  0  0  0
    6.3368    0.9230    0.7453 H   0  0  0  0  0  0  0  0  0  0  0  0
    6.5722   -0.3899    1.9066 H   0  0  0  0  0  0  0  0  0  0  0  0
    1.5956    0.0420   -1.5987 H   0  0  0  0  0  0  0  0  0  0  0  0
    1.7879    1.7104   -1.0554 H   0  0  0  0  0  0  0  0  0  0  0  0
   -0.8685   -1.2159   -0.9291 H   0  0  0  0  0  0  0  0  0  0  0  0
   -2.8147   -2.1008    0.3433 H   0  0  0  0  0  0  0  0  0  0  0  0
   -4.4055    1.8736   -0.3118 H   0  0  0  0  0  0  0  0  0  0  0  0
   -5.1026   -2.9739    0.4922 H   0  0  0  0  0  0  0  0  0  0  0  0
   -6.6813    0.9714   -0.1433 H   0  0  0  0  0  0  0  0  0  0  0  0
   -7.0451   -1.4498    0.2549 H   0  0  0  0  0  0  0  0  0  0  0  0
  1  8  1  0  0  0  0
  1  9  1  0  0  0  0
  2  4  1  0  0  0  0
  2 11  1  0  0  0  0
  3  5  1  0  0  0  0
  3  6  1  0  0  0  0
  3  7  1  0  0  0  0
  4 13  2  0  0  0  0
  5  8  1  0  0  0  0
  5 20  1  0  0  0  0
  5 21  1  0  0  0  0
  6  9  1  0  0  0  0
  6 22  1  0  0  0  0
  6 23  1  0  0  0  0
  7 10  1  0  0  0  0
  7 24  1  0  0  0  0
  7 25  1  0  0  0  0
  8 26  1  0  0  0  0
  8 27  1  0  0  0  0
  9 28  1  0  0  0  0
  9 29  1  0  0  0  0
 10 11  1  0  0  0  0
 10 30  1  0  0  0  0
 10 31  1  0  0  0  0
 11 12  2  0  0  0  0
 12 13  1  0  0  0  0
 12 32  1  0  0  0  0
 13 14  1  0  0  0  0
 14 15  2  0  0  0  0
 14 16  1  0  0  0  0
 15 17  1  0  0  0  0
 15 33  1  0  0  0  0
 16 18  2  0  0  0  0
 16 34  1  0  0  0  0
 17 19  2  0  0  0  0
 17 35  1  0  0  0  0
 18 19  1  0  0  0  0
 18 36  1  0  0  0  0
 19 37  1  0  0  0  0
M  END
> <PUBCHEM_COMPOUND_CID>
14154

> <PUBCHEM_CONFORMER_RMSD>
0.8

> <PUBCHEM_CONFORMER_DIVERSEORDER>
1
3
17
11
13
4
16
22
10
8
2
5
9
7
21
6
18
19
14
20
12
15

> <PUBCHEM_MMFF94_PARTIAL_CHARGES>
25
1 -0.56
10 0.18
11 -0.04
12 -0.15
13 0.23
14 0.05
15 -0.15
16 -0.15
17 -0.15
18 -0.15
19 -0.15
2 -0.02
3 -0.81
32 0.15
33 0.15
34 0.15
35 0.15
36 0.15
37 0.15
4 -0.41
5 0.27
6 0.27
7 0.27
8 0.28
9 0.28

> <PUBCHEM_EFFECTIVE_ROTOR_COUNT>
5.2

> <PUBCHEM_PHARMACOPHORE_FEATURES>
6
1 1 acceptor
1 3 cation
1 4 acceptor
5 2 4 11 12 13 rings
6 1 3 5 6 8 9 rings
6 14 15 16 17 18 19 rings

> <PUBCHEM_HEAVY_ATOM_COUNT>
19

> <PUBCHEM_ATOM_DEF_STEREO_COUNT>
0

> <PUBCHEM_ATOM_UDEF_STEREO_COUNT>
0

> <PUBCHEM_BOND_DEF_STEREO_COUNT>
0

> <PUBCHEM_BOND_UDEF_STEREO_COUNT>
0

> <PUBCHEM_ISOTOPIC_ATOM_COUNT>
0

> <PUBCHEM_COMPONENT_COUNT>
1

> <PUBCHEM_CACTVS_TAUTO_COUNT>
1

> <PUBCHEM_CONFORMER_ID>
0000374A00000001

> <PUBCHEM_MMFF94_ENERGY>
34.3571

> <PUBCHEM_FEATURE_SELFOVERLAP>
30.446

> <PUBCHEM_SHAPE_FINGERPRINT>
10 15 18040727944188090714
10354089 29 14851606575072917554
106641 1 16443351923363221695
10688039 33 16877659084922415632
10803635 8 17632587050056110535
11045977 3 18113623352273112563
11128504 68 16128655232456563790
11315181 36 18409726253666480017
11524674 6 17530685403094394391
12236239 1 17846777416614723260
12516196 113 18260830388473904297
12596602 18 15936408918580469663
12670543 26 12823305610298040004
13167372 99 5184075812102919594
13288520 33 18342738507923302317
13533116 47 15357971300837532302
13668630 136 16989124262105124954
13685833 64 18341609283469290043
13862211 1 18411139104580666039
14123256 34 18340477898404063091
1420 363 18259983777626776326
14251731 8 18201722855852864893
14251752 14 16988572328863708431
14341114 176 17385442116230266816
14848160 23 18260267442952424839
15048467 5 7493292136096831147
15183329 4 12247689291905138316
15348495 7 17676775257886454979
17834072 33 17775283859230847500
17844677 252 18410569587205822992
17857418 61 17988927772974338274
18006028 8 18334016086259182525
18222031 100 18060135445014768284
19141452 34 17531251621179862823
19489759 90 18335139808807328337
200 152 16415481575320308116
20281389 69 7420949755372523286
20374829 77 18343865506909301421
21033648 29 17096103483370071641
21150785 3 16773790368687256534
21267235 1 18271800191163864099
21623969 137 17458060478246556094
21637258 2 18059866038310447247
220451 1 17847060008034952538
22061861 79 14117803535164643594
22224240 67 16732990812053111118
2297311 6 18334006220524137924
23035841 295 18272932730356858411
23081809 10 16917350359225803148
23198884 109 15051734196792457613
23402539 116 18342179964305704973
23522609 53 17559086947907101028
23536379 177 15913331311995305677
23559900 14 18270121197784416265
239999 70 18334292063999377862
26918003 58 18333732412095471633
2767999 5 7060379210457051619
2916195 48 10015578385261376798
29717793 49 16630526267542269158
300161 21 10664100039265693960
3004659 81 18131347492935438556
314173 85 18334572451642682233
335352 9 18413671310572883149
351380 3 18060423507970157506
465052 167 18408599254184602302
5104073 3 18264478495910775289
559249 180 18272936025229802971
5718773 13 18191308166220829135
7062679 6 7493009574018822971
960060 61 16271923805511845174

> <PUBCHEM_SHAPE_MULTIPOLES>
369.31
17.17
1.45
0.98
7.51
0.02
-0.03
6.62
-1.58
-1.6
-0.05
1.49
0.09
0.52

> <PUBCHEM_SHAPE_SELFOVERLAP>
785.574

> <PUBCHEM_SHAPE_VOLUME>
206.8

> <PUBCHEM_COORDINATE_TYPE>
2
5
10

$$$$

