11315
  -OEChem-06261205313D

 35 37  0     0  0  0  0  0  0999 V2000
    5.6603    0.3422   -0.2358 S   0  0  0  0  0  0  0  0  0  0  0  0
   -1.7710   -3.0719   -0.2644 O   0  0  0  0  0  0  0  0  0  0  0  0
    6.3102    0.4340    1.2617 O   0  0  0  0  0  0  0  0  0  0  0  0
    6.1872   -0.8658   -0.8538 O   0  0  0  0  0  0  0  0  0  0  0  0
    5.8239    1.6365   -0.8791 O   0  0  0  0  0  0  0  0  0  0  0  0
   -0.7437   -0.5142   -0.4696 N   0  0  0  0  0  0  0  0  0  0  0  0
   -0.1583   -0.4340    0.6334 N   0  0  0  0  0  0  0  0  0  0  0  0
   -2.9891    0.4015   -0.1577 C   0  0  0  0  0  0  0  0  0  0  0  0
   -4.3705    0.1754    0.0507 C   0  0  0  0  0  0  0  0  0  0  0  0
   -2.1213   -0.6979   -0.2622 C   0  0  0  0  0  0  0  0  0  0  0  0
   -4.8436   -1.1434    0.1484 C   0  0  0  0  0  0  0  0  0  0  0  0
   -2.5161    1.7201   -0.2557 C   0  0  0  0  0  0  0  0  0  0  0  0
   -2.6087   -2.0013   -0.1626 C   0  0  0  0  0  0  0  0  0  0  0  0
   -5.2383    1.2746    0.1550 C   0  0  0  0  0  0  0  0  0  0  0  0
   -3.9671   -2.2237    0.0423 C   0  0  0  0  0  0  0  0  0  0  0  0
    3.9483    0.1141    0.0207 C   0  0  0  0  0  0  0  0  0  0  0  0
   -3.3925    2.8005   -0.1496 C   0  0  0  0  0  0  0  0  0  0  0  0
   -4.7510    2.5781    0.0554 C   0  0  0  0  0  0  0  0  0  0  0  0
    1.2196   -0.2504    0.4265 C   0  0  0  0  0  0  0  0  0  0  0  0
    3.1039    1.2200    0.1192 C   0  0  0  0  0  0  0  0  0  0  0  0
    3.4248   -1.1744    0.1256 C   0  0  0  0  0  0  0  0  0  0  0  0
    1.7360    1.0373    0.3227 C   0  0  0  0  0  0  0  0  0  0  0  0
    2.0570   -1.3572    0.3289 C   0  0  0  0  0  0  0  0  0  0  0  0
   -5.9016   -1.3405    0.3084 H   0  0  0  0  0  0  0  0  0  0  0  0
   -1.4642    1.9387   -0.4217 H   0  0  0  0  0  0  0  0  0  0  0  0
   -6.3040    1.1245    0.3151 H   0  0  0  0  0  0  0  0  0  0  0  0
   -4.3604   -3.2338    0.1216 H   0  0  0  0  0  0  0  0  0  0  0  0
   -3.0142    3.8156   -0.2286 H   0  0  0  0  0  0  0  0  0  0  0  0
   -5.4328    3.4196    0.1376 H   0  0  0  0  0  0  0  0  0  0  0  0
    3.4896    2.2331    0.0487 H   0  0  0  0  0  0  0  0  0  0  0  0
    4.0642   -2.0501    0.0590 H   0  0  0  0  0  0  0  0  0  0  0  0
    1.0864    1.9046    0.4022 H   0  0  0  0  0  0  0  0  0  0  0  0
    1.6575   -2.3645    0.4119 H   0  0  0  0  0  0  0  0  0  0  0  0
   -2.2877   -3.8905   -0.1704 H   0  0  0  0  0  0  0  0  0  0  0  0
    6.2006   -0.3714    1.8202 H   0  0  0  0  0  0  0  0  0  0  0  0
  1  3  1  0  0  0  0
  1  4  2  0  0  0  0
  1  5  2  0  0  0  0
  1 16  1  0  0  0  0
  2 13  1  0  0  0  0
  2 34  1  0  0  0  0
  3 35  1  0  0  0  0
  6  7  2  0  0  0  0
  6 10  1  0  0  0  0
  7 19  1  0  0  0  0
  8  9  1  0  0  0  0
  8 10  1  0  0  0  0
  8 12  2  0  0  0  0
  9 11  1  0  0  0  0
  9 14  2  0  0  0  0
 10 13  2  0  0  0  0
 11 15  2  0  0  0  0
 11 24  1  0  0  0  0
 12 17  1  0  0  0  0
 12 25  1  0  0  0  0
 13 15  1  0  0  0  0
 14 18  1  0  0  0  0
 14 26  1  0  0  0  0
 15 27  1  0  0  0  0
 16 20  2  0  0  0  0
 16 21  1  0  0  0  0
 17 18  2  0  0  0  0
 17 28  1  0  0  0  0
 18 29  1  0  0  0  0
 19 22  2  0  0  0  0
 19 23  1  0  0  0  0
 20 22  1  0  0  0  0
 20 30  1  0  0  0  0
 21 23  2  0  0  0  0
 21 31  1  0  0  0  0
 22 32  1  0  0  0  0
 23 33  1  0  0  0  0
M  END
> <PUBCHEM_COMPOUND_CID>
11315

> <PUBCHEM_CONFORMER_RMSD>
0.6

> <PUBCHEM_CONFORMER_DIVERSEORDER>
1
2
4
3

> <PUBCHEM_MMFF94_PARTIAL_CHARGES>
33
1 1.49
10 0.18
11 -0.15
12 -0.15
13 0.08
14 -0.15
15 -0.15
16 -0.01
17 -0.15
18 -0.15
19 0.18
2 -0.53
20 -0.15
21 -0.15
22 -0.15
23 -0.15
24 0.15
25 0.15
26 0.15
27 0.15
28 0.15
29 0.15
3 -0.68
30 0.15
31 0.15
32 0.15
33 0.15
34 0.45
35 0.5
4 -0.65
5 -0.65
6 -0.18
7 -0.18

> <PUBCHEM_EFFECTIVE_ROTOR_COUNT>
3

> <PUBCHEM_PHARMACOPHORE_FEATURES>
8
1 2 donor
1 3 acceptor
1 4 acceptor
1 5 acceptor
4 1 3 4 5 anion
6 16 19 20 21 22 23 rings
6 8 9 10 11 13 15 rings
6 8 9 12 14 17 18 rings

> <PUBCHEM_HEAVY_ATOM_COUNT>
23

> <PUBCHEM_ATOM_DEF_STEREO_COUNT>
0

> <PUBCHEM_ATOM_UDEF_STEREO_COUNT>
0

> <PUBCHEM_BOND_DEF_STEREO_COUNT>
0

> <PUBCHEM_BOND_UDEF_STEREO_COUNT>
0

> <PUBCHEM_ISOTOPIC_ATOM_COUNT>
0

> <PUBCHEM_COMPONENT_COUNT>
1

> <PUBCHEM_CACTVS_TAUTO_COUNT>
3

> <PUBCHEM_CONFORMER_ID>
00002C3300000001

> <PUBCHEM_MMFF94_ENERGY>
58.8875

> <PUBCHEM_FEATURE_SELFOVERLAP>
40.678

> <PUBCHEM_SHAPE_FINGERPRINT>
10411042 1 17978229358251140847
10595046 47 18342739577133028950
10730089 173 18411134753356808412
11315181 36 18059576853888435375
12107183 9 17838062859183149634
12173636 292 18410019840529976327
12236239 1 17917712396306047516
12390115 104 18261662783833617049
12403259 415 18040721325079316432
13073987 5 18342179981385698338
14251757 5 18407758135957197665
14341114 176 18411975888278421837
15042514 8 18267019445887421307
15183329 4 18411135866201451702
15196674 1 18411138069007887152
15250474 111 18342190959217203010
16079462 125 17604161358858086488
17844677 252 18410568449471668360
19377110 9 17846508036418795458
20645477 56 18409730681629893601
21033648 29 17604447235822782824
21033650 10 18198034037402275268
21065198 48 18272657873856367563
21236236 1 18408604760538215399
21267235 1 18340762642547231147
21279426 13 18261950864480650046
21421861 104 17773046465175511938
22061861 79 17167855388064835980
221357 26 18334579001351426249
2297311 6 18337103484744797831
23081809 10 17847062173505539058
23402539 116 18412549790387827110
23402655 69 18412263947761685674
23557571 272 18333724702302160364
23559900 14 18261401017829026569
3004659 81 18411415155546594198
34797466 226 17822561708638457300
350125 39 18410291402643052841
3545911 37 18408885156950847961
4073 2 18130500856487877250
4214541 1 18410012143426329177
445580 37 18411407411261454996
5104073 3 18341617052632593042
5283173 99 18408601491852026840
542803 24 17846779602921771314
559249 180 18409732897854487594
6327066 14 18127136488493899565
77779 3 18411419514009685907
7808743 9 18411984701926106577
9995097 60 18259704506216123838

> <PUBCHEM_SHAPE_MULTIPOLES>
443.74
15.08
2.71
0.76
17.29
0.05
-0.03
-4.15
0.49
-3.92
0.2
0.61
-0.04
-0.1

> <PUBCHEM_SHAPE_SELFOVERLAP>
968.052

> <PUBCHEM_SHAPE_VOLUME>
241.1

> <PUBCHEM_COORDINATE_TYPE>
2
5
10

$$$$

