6250
  -OEChem-06261201122D

 41 42  0     1  0  0  0  0  0999 V2000
    7.8357    4.2633    0.0000 S   0  0  0  0  0  0  0  0  0  0  0  0
    7.7846    0.0000    0.0000 Na  0  3  0  0  0  0  0  0  0  0  0  0
    5.1707    2.2416    0.0000 O   0  0  0  0  0  0  0  0  0  0  0  0
    7.4756    0.9511    0.0000 O   0  5  0  0  0  0  0  0  0  0  0  0
    9.1228    1.4863    0.0000 O   0  0  0  0  0  0  0  0  0  0  0  0
    3.9434    3.4448    0.0000 O   0  0  0  0  0  0  0  0  0  0  0  0
    6.8846    2.9543    0.0000 N   0  0  0  0  0  0  0  0  0  0  0  0
    5.1707    4.6670    0.0000 N   0  0  0  0  0  0  0  0  0  0  0  0
    6.8846    3.9543    0.0000 C   0  0  1  0  0  0  0  0  0  0  0  0
    8.4235    3.4543    0.0000 C   0  0  0  0  0  0  0  0  0  0  0  0
    7.8357    2.6453    0.0000 C   0  0  2  0  0  0  0  0  0  0  0  0
    5.8763    3.9584    0.0000 C   0  0  1  0  0  0  0  0  0  0  0  0
    5.8763    2.9501    0.0000 C   0  0  0  0  0  0  0  0  0  0  0  0
    9.2325    2.8665    0.0000 C   0  0  0  0  0  0  0  0  0  0  0  0
    9.2325    4.0421    0.0000 C   0  0  0  0  0  0  0  0  0  0  0  0
    8.1447    1.6942    0.0000 C   0  0  0  0  0  0  0  0  0  0  0  0
    4.2042    4.4101    0.0000 C   0  0  0  0  0  0  0  0  0  0  0  0
    3.4986    5.1187    0.0000 C   0  0  0  0  0  0  0  0  0  0  0  0
    2.5321    4.8619    0.0000 C   0  0  0  0  0  0  0  0  0  0  0  0
    2.2713    3.8965    0.0000 C   0  0  0  0  0  0  0  0  0  0  0  0
    1.8265    5.5704    0.0000 C   0  0  0  0  0  0  0  0  0  0  0  0
    1.3049    3.6396    0.0000 C   0  0  0  0  0  0  0  0  0  0  0  0
    0.8600    5.3136    0.0000 C   0  0  0  0  0  0  0  0  0  0  0  0
    0.5992    4.3482    0.0000 C   0  0  0  0  0  0  0  0  0  0  0  0
    6.7611    4.7447    0.0000 H   0  0  0  0  0  0  0  0  0  0  0  0
    7.3973    2.2069    0.0000 H   0  0  0  0  0  0  0  0  0  0  0  0
    5.3033    3.7217    0.0000 H   0  0  0  0  0  0  0  0  0  0  0  0
    8.8680    2.3649    0.0000 H   0  0  0  0  0  0  0  0  0  0  0  0
    9.7341    2.5021    0.0000 H   0  0  0  0  0  0  0  0  0  0  0  0
    9.5969    3.3681    0.0000 H   0  0  0  0  0  0  0  0  0  0  0  0
    9.5969    3.5405    0.0000 H   0  0  0  0  0  0  0  0  0  0  0  0
    9.7341    4.4065    0.0000 H   0  0  0  0  0  0  0  0  0  0  0  0
    8.8680    4.5437    0.0000 H   0  0  0  0  0  0  0  0  0  0  0  0
    5.3324    5.2655    0.0000 H   0  0  0  0  0  0  0  0  0  0  0  0
    4.0072    5.4733    0.0000 H   0  0  0  0  0  0  0  0  0  0  0  0
    3.2377    5.6812    0.0000 H   0  0  0  0  0  0  0  0  0  0  0  0
    2.7088    3.4572    0.0000 H   0  0  0  0  0  0  0  0  0  0  0  0
    1.9882    6.1690    0.0000 H   0  0  0  0  0  0  0  0  0  0  0  0
    1.1432    3.0411    0.0000 H   0  0  0  0  0  0  0  0  0  0  0  0
    0.4225    5.7529    0.0000 H   0  0  0  0  0  0  0  0  0  0  0  0
    0.0000    4.1890    0.0000 H   0  0  0  0  0  0  0  0  0  0  0  0
  1  9  1  0  0  0  0
  1 10  1  0  0  0  0
  3 13  2  0  0  0  0
  4 16  1  0  0  0  0
  5 16  2  0  0  0  0
  6 17  2  0  0  0  0
  7  9  1  0  0  0  0
  7 11  1  0  0  0  0
  7 13  1  0  0  0  0
 12  8  1  1  0  0  0
  8 17  1  0  0  0  0
  8 34  1  0  0  0  0
  9 12  1  0  0  0  0
  9 25  1  6  0  0  0
 10 11  1  0  0  0  0
 10 14  1  0  0  0  0
 10 15  1  0  0  0  0
 11 16  1  6  0  0  0
 11 26  1  0  0  0  0
 12 13  1  0  0  0  0
 12 27  1  0  0  0  0
 14 28  1  0  0  0  0
 14 29  1  0  0  0  0
 14 30  1  0  0  0  0
 15 31  1  0  0  0  0
 15 32  1  0  0  0  0
 15 33  1  0  0  0  0
 17 18  1  0  0  0  0
 18 19  1  0  0  0  0
 18 35  1  0  0  0  0
 18 36  1  0  0  0  0
 19 20  2  0  0  0  0
 19 21  1  0  0  0  0
 20 22  1  0  0  0  0
 20 37  1  0  0  0  0
 21 23  2  0  0  0  0
 21 38  1  0  0  0  0
 22 24  2  0  0  0  0
 22 39  1  0  0  0  0
 23 24  1  0  0  0  0
 23 40  1  0  0  0  0
 24 41  1  0  0  0  0
M  CHG  2   2   1   4  -1
M  END
> <PUBCHEM_COMPOUND_CID>
6250

> <PUBCHEM_COMPOUND_CANONICALIZED>
1

> <PUBCHEM_CACTVS_COMPLEXITY>
525

> <PUBCHEM_CACTVS_HBOND_ACCEPTOR>
5

> <PUBCHEM_CACTVS_HBOND_DONOR>
1

> <PUBCHEM_CACTVS_ROTATABLE_BOND>
3

> <PUBCHEM_CACTVS_SUBSKEYS>
AAADceB7OCBAAAAAAAAAAAAAAABYAWAAAAAwAAAABYAAAAABAAAAHgQQAAAADCjF2ASyCIPAAAiIAiHSGAACAABgABAIiIGIAIgKYDqglTGUIAAklgC4iAcYiICOAAAAAAAAAAAAAAAAAAAAAAAAAAAAAA==

> <PUBCHEM_IUPAC_OPENEYE_NAME>
sodium (2S,5R,6R)-3,3-dimethyl-7-oxo-6-[(2-phenylacetyl)amino]-4-thia-1-azabicyclo[3.2.0]heptane-2-carboxylate

> <PUBCHEM_IUPAC_CAS_NAME>
sodium (2S,5R,6R)-3,3-dimethyl-7-oxo-6-[(1-oxo-2-phenylethyl)amino]-4-thia-1-azabicyclo[3.2.0]heptane-2-carboxylate

> <PUBCHEM_IUPAC_NAME>
sodium (2S,5R,6R)-3,3-dimethyl-7-oxo-6-[(2-phenylacetyl)amino]-4-thia-1-azabicyclo[3.2.0]heptane-2-carboxylate

> <PUBCHEM_IUPAC_SYSTEMATIC_NAME>
sodium (2S,5R,6R)-3,3-dimethyl-7-oxidanylidene-6-(2-phenylethanoylamino)-4-thia-1-azabicyclo[3.2.0]heptane-2-carboxylate

> <PUBCHEM_IUPAC_TRADITIONAL_NAME>
sodium (2S,5R,6R)-7-keto-3,3-dimethyl-6-[(2-phenylacetyl)amino]-4-thia-1-azabicyclo[3.2.0]heptane-2-carboxylate

> <PUBCHEM_IUPAC_INCHI>
InChI=1S/C16H18N2O4S.Na/c1-16(2)12(15(21)22)18-13(20)11(14(18)23-16)17-10(19)8-9-6-4-3-5-7-9;/h3-7,11-12,14H,8H2,1-2H3,(H,17,19)(H,21,22);/q;+1/p-1/t11-,12+,14-;/m1./s1

> <PUBCHEM_IUPAC_INCHIKEY>
FCPVYOBCFFNJFS-LQDWTQKMSA-M

> <PUBCHEM_EXACT_MASS>
356.080672

> <PUBCHEM_MOLECULAR_FORMULA>
C16H17N2NaO4S

> <PUBCHEM_MOLECULAR_WEIGHT>
356.371949

> <PUBCHEM_OPENEYE_CAN_SMILES>
CC1(C(N2C(S1)C(C2=O)NC(=O)CC3=CC=CC=C3)C(=O)[O-])C.[Na+]

> <PUBCHEM_OPENEYE_ISO_SMILES>
CC1([C@@H](N2[C@H](S1)[C@@H](C2=O)NC(=O)CC3=CC=CC=C3)C(=O)[O-])C.[Na+]

> <PUBCHEM_CACTVS_TPSA>
115

> <PUBCHEM_MONOISOTOPIC_WEIGHT>
356.080672

> <PUBCHEM_TOTAL_CHARGE>
0

> <PUBCHEM_HEAVY_ATOM_COUNT>
24

> <PUBCHEM_ATOM_DEF_STEREO_COUNT>
3

> <PUBCHEM_ATOM_UDEF_STEREO_COUNT>
0

> <PUBCHEM_BOND_DEF_STEREO_COUNT>
0

> <PUBCHEM_BOND_UDEF_STEREO_COUNT>
0

> <PUBCHEM_ISOTOPIC_ATOM_COUNT>
0

> <PUBCHEM_COMPONENT_COUNT>
2

> <PUBCHEM_CACTVS_TAUTO_COUNT>
2

> <PUBCHEM_COORDINATE_TYPE>
1
5
255

> <PUBCHEM_BONDANNOTATIONS>
11  16  6
19  20  8
19  21  8
20  22  8
21  23  8
22  24  8
23  24  8
12  8  5
9  25  6

$$$$

