10294
  -OEChem-06261204262D

 36 36  0     1  0  0  0  0  0999 V2000
   10.3312    1.7500    0.0000 Hg  0  0  0  0  0  0  0  0  0  0  0  0
    8.5991    2.7500    0.0000 O   0  0  0  0  0  0  0  0  0  0  0  0
    5.1350   -1.2500    0.0000 O   0  0  0  0  0  0  0  0  0  0  0  0
    6.0010    0.2500    0.0000 O   0  0  0  0  0  0  0  0  0  0  0  0
    2.5369   -1.7500    0.0000 O   0  0  0  0  0  0  0  0  0  0  0  0
    3.4030   -0.2500    0.0000 O   0  0  0  0  0  0  0  0  0  0  0  0
    7.7331    0.2500    0.0000 N   0  0  0  0  0  0  0  0  0  0  0  0
    8.5991    1.7500    0.0000 C   0  0  3  0  0  0  0  0  0  0  0  0
    7.7331    1.2500    0.0000 C   0  0  0  0  0  0  0  0  0  0  0  0
    9.4651    1.2500    0.0000 C   0  0  0  0  0  0  0  0  0  0  0  0
    6.8671   -1.2500    0.0000 C   0  0  0  0  0  0  0  0  0  0  0  0
    6.8671   -0.2500    0.0000 C   0  0  0  0  0  0  0  0  0  0  0  0
    6.0010   -1.7500    0.0000 C   0  0  0  0  0  0  0  0  0  0  0  0
    7.7331   -1.7500    0.0000 C   0  0  0  0  0  0  0  0  0  0  0  0
    6.0010   -2.7500    0.0000 C   0  0  0  0  0  0  0  0  0  0  0  0
    7.7331   -2.7500    0.0000 C   0  0  0  0  0  0  0  0  0  0  0  0
    9.4651    3.2500    0.0000 C   0  0  0  0  0  0  0  0  0  0  0  0
    6.8671   -3.2500    0.0000 C   0  0  0  0  0  0  0  0  0  0  0  0
    4.2690   -1.7500    0.0000 C   0  0  0  0  0  0  0  0  0  0  0  0
    3.4030   -1.2500    0.0000 C   0  0  0  0  0  0  0  0  0  0  0  0
    8.0622    2.0600    0.0000 H   0  0  0  0  0  0  0  0  0  0  0  0
    7.5210    1.8326    0.0000 H   0  0  0  0  0  0  0  0  0  0  0  0
    7.1225    1.1423    0.0000 H   0  0  0  0  0  0  0  0  0  0  0  0
    8.2700   -0.0600    0.0000 H   0  0  0  0  0  0  0  0  0  0  0  0
    9.0666    0.7751    0.0000 H   0  0  0  0  0  0  0  0  0  0  0  0
    9.8637    0.7751    0.0000 H   0  0  0  0  0  0  0  0  0  0  0  0
    8.2700   -1.4400    0.0000 H   0  0  0  0  0  0  0  0  0  0  0  0
    5.4641   -3.0600    0.0000 H   0  0  0  0  0  0  0  0  0  0  0  0
    8.2700   -3.0600    0.0000 H   0  0  0  0  0  0  0  0  0  0  0  0
    9.7751    2.7131    0.0000 H   0  0  0  0  0  0  0  0  0  0  0  0
   10.0021    3.5600    0.0000 H   0  0  0  0  0  0  0  0  0  0  0  0
    9.1551    3.7869    0.0000 H   0  0  0  0  0  0  0  0  0  0  0  0
    6.8671   -3.8700    0.0000 H   0  0  0  0  0  0  0  0  0  0  0  0
    3.8705   -2.2250    0.0000 H   0  0  0  0  0  0  0  0  0  0  0  0
    4.6675   -2.2250    0.0000 H   0  0  0  0  0  0  0  0  0  0  0  0
    2.0000   -1.4400    0.0000 H   0  0  0  0  0  0  0  0  0  0  0  0
  1 10  1  0  0  0  0
  2  8  1  0  0  0  0
  2 17  1  0  0  0  0
  3 13  1  0  0  0  0
  3 19  1  0  0  0  0
  4 12  2  0  0  0  0
  5 20  1  0  0  0  0
  5 36  1  0  0  0  0
  6 20  2  0  0  0  0
  7  9  1  0  0  0  0
  7 12  1  0  0  0  0
  7 24  1  0  0  0  0
  8  9  1  0  0  0  0
  8 10  1  0  0  0  0
  8 21  1  0  0  0  0
  9 22  1  0  0  0  0
  9 23  1  0  0  0  0
 10 25  1  0  0  0  0
 10 26  1  0  0  0  0
 11 12  1  0  0  0  0
 11 13  1  0  0  0  0
 11 14  2  0  0  0  0
 13 15  2  0  0  0  0
 14 16  1  0  0  0  0
 14 27  1  0  0  0  0
 15 18  1  0  0  0  0
 15 28  1  0  0  0  0
 16 18  2  0  0  0  0
 16 29  1  0  0  0  0
 17 30  1  0  0  0  0
 17 31  1  0  0  0  0
 17 32  1  0  0  0  0
 18 33  1  0  0  0  0
 19 20  1  0  0  0  0
 19 34  1  0  0  0  0
 19 35  1  0  0  0  0
M  END
> <PUBCHEM_COMPOUND_CID>
10294

> <PUBCHEM_COMPOUND_CANONICALIZED>
1

> <PUBCHEM_CACTVS_COMPLEXITY>
326

> <PUBCHEM_CACTVS_HBOND_ACCEPTOR>
5

> <PUBCHEM_CACTVS_HBOND_DONOR>
2

> <PUBCHEM_CACTVS_ROTATABLE_BOND>
8

> <PUBCHEM_CACTVS_SUBSKEYS>
AAADceByOAAAAAAAAAAAAQAAAAAAAAAAAAAwAAAAAAAAAAABAAAAHgAQCAAADBThmAYyDoLABgCIAiHSGAKCCAAkIAAIiIFODMgPJjaEtR+HOWjm9hGbqYeYyCCOAAAAAAAIAAAAAAAAABAAAAAAAAAAAA==

> <PUBCHEM_IUPAC_OPENEYE_NAME>
[3-[[2-(carboxymethoxy)benzoyl]amino]-2-methoxy-propyl]mercury

> <PUBCHEM_IUPAC_CAS_NAME>
[3-[[[2-(carboxymethoxy)phenyl]-oxomethyl]amino]-2-methoxypropyl]mercury

> <PUBCHEM_IUPAC_NAME>
[3-[[2-(carboxymethoxy)benzoyl]amino]-2-methoxypropyl]mercury

> <PUBCHEM_IUPAC_SYSTEMATIC_NAME>
[3-[[2-(2-hydroxy-2-oxoethyloxy)phenyl]carbonylamino]-2-methoxy-propyl]mercury

> <PUBCHEM_IUPAC_TRADITIONAL_NAME>
[3-[[2-(carboxymethoxy)benzoyl]amino]-2-methoxy-propyl]mercury

> <PUBCHEM_IUPAC_INCHI>
InChI=1S/C13H16NO5.Hg/c1-9(18-2)7-14-13(17)10-5-3-4-6-11(10)19-8-12(15)16;/h3-6,9H,1,7-8H2,2H3,(H,14,17)(H,15,16);

> <PUBCHEM_IUPAC_INCHIKEY>
JSYUKXVWRPINHC-UHFFFAOYSA-N

> <PUBCHEM_EXACT_MASS>
468.073491

> <PUBCHEM_MOLECULAR_FORMULA>
C13H16HgNO5

> <PUBCHEM_MOLECULAR_WEIGHT>
466.85984

> <PUBCHEM_OPENEYE_CAN_SMILES>
COC(CNC(=O)C1=CC=CC=C1OCC(=O)O)C[Hg]

> <PUBCHEM_OPENEYE_ISO_SMILES>
COC(CNC(=O)C1=CC=CC=C1OCC(=O)O)C[Hg]

> <PUBCHEM_CACTVS_TPSA>
84.9

> <PUBCHEM_MONOISOTOPIC_WEIGHT>
468.073491

> <PUBCHEM_TOTAL_CHARGE>
0

> <PUBCHEM_HEAVY_ATOM_COUNT>
20

> <PUBCHEM_ATOM_DEF_STEREO_COUNT>
0

> <PUBCHEM_ATOM_UDEF_STEREO_COUNT>
1

> <PUBCHEM_BOND_DEF_STEREO_COUNT>
0

> <PUBCHEM_BOND_UDEF_STEREO_COUNT>
0

> <PUBCHEM_ISOTOPIC_ATOM_COUNT>
0

> <PUBCHEM_COMPONENT_COUNT>
1

> <PUBCHEM_CACTVS_TAUTO_COUNT>
2

> <PUBCHEM_COORDINATE_TYPE>
1
5
255

> <PUBCHEM_BONDANNOTATIONS>
11  13  8
11  14  8
13  15  8
14  16  8
15  18  8
16  18  8
8  9  3

$$$$

