17395642
  -OEChem-06241222513D

 58 61  0     1  0  0  0  0  0999 V2000
   -6.2805    0.6790   -3.1432 Cl  0  0  0  0  0  0  0  0  0  0  0  0
   -2.1084    2.2808   -1.1721 O   0  0  0  0  0  0  0  0  0  0  0  0
   -4.5579   -0.4653    2.3543 O   0  0  0  0  0  0  0  0  0  0  0  0
    0.3656    1.6918    0.1877 N   0  0  0  0  0  0  0  0  0  0  0  0
    4.6690    0.0787    1.8730 N   0  0  0  0  0  0  0  0  0  0  0  0
   -2.9137    1.1131    0.6981 N   0  0  0  0  0  0  0  0  0  0  0  0
    1.7214   -0.3485   -0.2390 C   0  0  2  0  0  0  0  0  0  0  0  0
    3.0206   -0.0378    0.3912 C   0  0  0  0  0  0  0  0  0  0  0  0
    0.4803    0.2636    0.4789 C   0  0  0  0  0  0  0  0  0  0  0  0
    1.6598   -1.8741   -0.3969 C   0  0  0  0  0  0  0  0  0  0  0  0
    4.1004    0.6759   -0.1999 C   0  0  0  0  0  0  0  0  0  0  0  0
    5.1218    0.7348    0.7506 C   0  0  0  0  0  0  0  0  0  0  0  0
    3.4003   -0.3918    1.6653 C   0  0  0  0  0  0  0  0  0  0  0  0
   -0.7981    2.2608    0.8494 C   0  0  1  0  0  0  0  0  0  0  0  0
    4.3075    1.2792   -1.4563 C   0  0  0  0  0  0  0  0  0  0  0  0
    2.2864   -2.4888   -1.4811 C   0  0  0  0  0  0  0  0  0  0  0  0
    0.9779   -2.6459    0.5439 C   0  0  0  0  0  0  0  0  0  0  0  0
    6.3449    1.3696    0.5065 C   0  0  0  0  0  0  0  0  0  0  0  0
   -0.6274    3.7694    0.9833 C   0  0  0  0  0  0  0  0  0  0  0  0
   -2.0092    1.9021   -0.0084 C   0  0  0  0  0  0  0  0  0  0  0  0
    5.5260    1.9178   -1.7145 C   0  0  0  0  0  0  0  0  0  0  0  0
    6.5276    1.9610   -0.7468 C   0  0  0  0  0  0  0  0  0  0  0  0
    2.2309   -3.8752   -1.6245 C   0  0  0  0  0  0  0  0  0  0  0  0
    0.9224   -4.0323    0.4004 C   0  0  0  0  0  0  0  0  0  0  0  0
    1.5490   -4.6469   -0.6839 C   0  0  0  0  0  0  0  0  0  0  0  0
   -4.1451    0.5888    0.2384 C   0  0  0  0  0  0  0  0  0  0  0  0
   -4.9431   -0.1905    1.0760 C   0  0  0  0  0  0  0  0  0  0  0  0
   -4.5584    0.8578   -1.0664 C   0  0  0  0  0  0  0  0  0  0  0  0
   -6.1544   -0.7008    0.6088 C   0  0  0  0  0  0  0  0  0  0  0  0
   -5.7697    0.3475   -1.5335 C   0  0  0  0  0  0  0  0  0  0  0  0
   -6.5677   -0.4318   -0.6958 C   0  0  0  0  0  0  0  0  0  0  0  0
   -3.7782   -1.6418    2.5567 C   0  0  0  0  0  0  0  0  0  0  0  0
    1.7004    0.0492   -1.2644 H   0  0  0  0  0  0  0  0  0  0  0  0
    0.5434    0.1019    1.5623 H   0  0  0  0  0  0  0  0  0  0  0  0
   -0.4180   -0.2487    0.1133 H   0  0  0  0  0  0  0  0  0  0  0  0
    1.2124    2.1593    0.5114 H   0  0  0  0  0  0  0  0  0  0  0  0
    2.8859   -0.9326    2.4478 H   0  0  0  0  0  0  0  0  0  0  0  0
   -0.8991    1.8652    1.8676 H   0  0  0  0  0  0  0  0  0  0  0  0
    5.1974   -0.0377    2.7266 H   0  0  0  0  0  0  0  0  0  0  0  0
    3.5395    1.2566   -2.2241 H   0  0  0  0  0  0  0  0  0  0  0  0
    2.8210   -1.8999   -2.2216 H   0  0  0  0  0  0  0  0  0  0  0  0
    0.4910   -2.2021    1.4067 H   0  0  0  0  0  0  0  0  0  0  0  0
    7.1253    1.4038    1.2593 H   0  0  0  0  0  0  0  0  0  0  0  0
    0.2353    4.0182    1.6107 H   0  0  0  0  0  0  0  0  0  0  0  0
   -1.5179    4.2150    1.4403 H   0  0  0  0  0  0  0  0  0  0  0  0
   -0.4900    4.2500    0.0077 H   0  0  0  0  0  0  0  0  0  0  0  0
    5.6913    2.3850   -2.6818 H   0  0  0  0  0  0  0  0  0  0  0  0
    7.4664    2.4623   -0.9687 H   0  0  0  0  0  0  0  0  0  0  0  0
    2.7189   -4.3537   -2.4686 H   0  0  0  0  0  0  0  0  0  0  0  0
    0.3942   -4.6339    1.1343 H   0  0  0  0  0  0  0  0  0  0  0  0
    1.5065   -5.7264   -0.7951 H   0  0  0  0  0  0  0  0  0  0  0  0
   -2.6876    0.8758    1.6611 H   0  0  0  0  0  0  0  0  0  0  0  0
   -3.9903    1.4538   -1.7660 H   0  0  0  0  0  0  0  0  0  0  0  0
   -6.7816   -1.3081    1.2559 H   0  0  0  0  0  0  0  0  0  0  0  0
   -7.5140   -0.8359   -1.0462 H   0  0  0  0  0  0  0  0  0  0  0  0
   -4.3545   -2.5325    2.2871 H   0  0  0  0  0  0  0  0  0  0  0  0
   -2.8535   -1.6030    1.9720 H   0  0  0  0  0  0  0  0  0  0  0  0
   -3.5178   -1.7019    3.6170 H   0  0  0  0  0  0  0  0  0  0  0  0
  1 30  1  0  0  0  0
  2 20  2  0  0  0  0
  3 27  1  0  0  0  0
  3 32  1  0  0  0  0
  4  9  1  0  0  0  0
  4 14  1  0  0  0  0
  4 36  1  0  0  0  0
  5 12  1  0  0  0  0
  5 13  1  0  0  0  0
  5 39  1  0  0  0  0
  6 20  1  0  0  0  0
  6 26  1  0  0  0  0
  6 52  1  0  0  0  0
  7  8  1  0  0  0  0
  7  9  1  0  0  0  0
  7 10  1  0  0  0  0
  7 33  1  0  0  0  0
  8 11  1  0  0  0  0
  8 13  2  0  0  0  0
  9 34  1  0  0  0  0
  9 35  1  0  0  0  0
 10 16  2  0  0  0  0
 10 17  1  0  0  0  0
 11 12  1  0  0  0  0
 11 15  2  0  0  0  0
 12 18  2  0  0  0  0
 13 37  1  0  0  0  0
 14 19  1  0  0  0  0
 14 20  1  0  0  0  0
 14 38  1  0  0  0  0
 15 21  1  0  0  0  0
 15 40  1  0  0  0  0
 16 23  1  0  0  0  0
 16 41  1  0  0  0  0
 17 24  2  0  0  0  0
 17 42  1  0  0  0  0
 18 22  1  0  0  0  0
 18 43  1  0  0  0  0
 19 44  1  0  0  0  0
 19 45  1  0  0  0  0
 19 46  1  0  0  0  0
 21 22  2  0  0  0  0
 21 47  1  0  0  0  0
 22 48  1  0  0  0  0
 23 25  2  0  0  0  0
 23 49  1  0  0  0  0
 24 25  1  0  0  0  0
 24 50  1  0  0  0  0
 25 51  1  0  0  0  0
 26 27  2  0  0  0  0
 26 28  1  0  0  0  0
 27 29  1  0  0  0  0
 28 30  2  0  0  0  0
 28 53  1  0  0  0  0
 29 31  2  0  0  0  0
 29 54  1  0  0  0  0
 30 31  1  0  0  0  0
 31 55  1  0  0  0  0
 32 56  1  0  0  0  0
 32 57  1  0  0  0  0
 32 58  1  0  0  0  0
M  END
> <PUBCHEM_COMPOUND_CID>
17395642

> <PUBCHEM_CONFORMER_RMSD>
1.4

> <PUBCHEM_CONFORMER_DIVERSEORDER>
1
28
52
142
88
107
125
4
113
116
98
14
33
135
34
115
3
54
143
15
131
55
59
41
68
87
5
75
43
102
38
122
79
138
32
48
81
65
123
29
72
51
30
134
136
73
42
25
77
95
127
109
97
66
16
121
67
126
85
130
96
24
19
60
71
6
44
18
56
117
112
76
100
47
40
9
132
57
63
69
78
80
129
114
140
124
13
22
83
27
74
82
110
23
101
12
7
133
62
106
108
90
46
11
91
64
120
141
8
58
45
104
39
103
49
128
94
53
89
35
36
86
37
119
70
105
2
26
50
93
111
61
118
92
139
31
99
137
17
84
10
20
21

> <PUBCHEM_MMFF94_PARTIAL_CHARGES>
46
1 -0.18
10 -0.14
12 -0.15
13 -0.3
14 0.33
15 -0.15
16 -0.15
17 -0.15
18 -0.15
2 -0.57
20 0.57
21 -0.15
22 -0.15
23 -0.15
24 -0.15
25 -0.15
26 0.12
27 0.08
28 -0.15
29 -0.15
3 -0.36
30 0.18
31 -0.15
32 0.28
36 0.36
37 0.15
39 0.27
4 -0.9
40 0.15
41 0.15
42 0.15
43 0.15
47 0.15
48 0.15
49 0.15
5 0.03
50 0.15
51 0.15
52 0.37
53 0.15
54 0.15
55 0.15
6 -0.55
7 0.32
8 -0.18
9 0.27

> <PUBCHEM_EFFECTIVE_ROTOR_COUNT>
9

> <PUBCHEM_PHARMACOPHORE_FEATURES>
11
1 2 acceptor
1 3 acceptor
1 4 cation
1 4 donor
1 5 cation
1 5 donor
1 6 donor
5 5 8 11 12 13 rings
6 10 16 17 23 24 25 rings
6 11 12 15 18 21 22 rings
6 26 27 28 29 30 31 rings

> <PUBCHEM_HEAVY_ATOM_COUNT>
32

> <PUBCHEM_ATOM_DEF_STEREO_COUNT>
0

> <PUBCHEM_ATOM_UDEF_STEREO_COUNT>
2

> <PUBCHEM_BOND_DEF_STEREO_COUNT>
0

> <PUBCHEM_BOND_UDEF_STEREO_COUNT>
0

> <PUBCHEM_ISOTOPIC_ATOM_COUNT>
0

> <PUBCHEM_COMPONENT_COUNT>
1

> <PUBCHEM_CACTVS_TAUTO_COUNT>
2

> <PUBCHEM_CONFORMER_ID>
01096FBA00000001

> <PUBCHEM_MMFF94_ENERGY>
88.7419

> <PUBCHEM_FEATURE_SELFOVERLAP>
55.909

> <PUBCHEM_SHAPE_FINGERPRINT>
102385 1 17903069276810570136
10462674 369 16269075980323029427
10906281 52 18270950315313773801
11135926 11 18410289220625573567
11136131 41 18341338876661251018
11421498 54 17895190051831370184
11488393 25 17823962636554904174
11719270 70 18411989069728322970
11991303 11 18270955727379060414
12166972 35 11095874943999463901
12522641 126 18339358678163597702
13150687 139 18339910547301290372
13257819 37 18338500968766938350
13911987 19 18411694353151479453
14068700 686 18341333387233656212
14840074 17 18040718065341524509
15183329 4 9871753502588806608
15537594 2 17967257494534912005
19319366 153 18335711545863398486
20028762 73 18114744832706223230
20511986 3 16486988275251518409
20775438 99 17551829187463210268
22149856 69 18261664961387259369
22956985 138 18052544567266855618
23559900 14 17905891727263621024
23572383 38 18131354150393508687
3737641 26 18114736161346470553
5912855 24 17970619908309409297
77296 10 16702305663114985536
86090 222 17968392146978650656

> <PUBCHEM_SHAPE_MULTIPOLES>
633.73
16.72
4.4
2.17
9.51
4.96
-0.35
-7.31
-4.27
-3.92
-0.8
2.48
0.15
1.09

> <PUBCHEM_SHAPE_SELFOVERLAP>
1364.707

> <PUBCHEM_SHAPE_VOLUME>
349.4

> <PUBCHEM_COORDINATE_TYPE>
2
5
10

$$$$

