17395900
  -OEChem-06241222533D

 46 47  0     0  0  0  0  0  0999 V2000
    3.8246    1.4797    0.4983 S   0  0  0  0  0  0  0  0  0  0  0  0
   -0.6888   -2.5897   -1.0420 O   0  0  0  0  0  0  0  0  0  0  0  0
    2.7965    2.4956    0.6849 O   0  0  0  0  0  0  0  0  0  0  0  0
    4.9142    1.3832    1.4608 O   0  0  0  0  0  0  0  0  0  0  0  0
   -1.0867   -0.4358   -0.2828 N   0  0  0  0  0  0  0  0  0  0  0  0
    4.4921    1.6591   -1.0648 N   0  0  0  0  0  0  0  0  0  0  0  0
   -2.4953   -0.3966   -0.6298 C   0  0  0  0  0  0  0  0  0  0  0  0
   -2.8765    1.0252   -1.0654 C   0  0  0  0  0  0  0  0  0  0  0  0
   -3.3027   -1.0029    0.5214 C   0  0  0  0  0  0  0  0  0  0  0  0
   -3.1110    2.0213    0.0746 C   0  0  0  0  0  0  0  0  0  0  0  0
   -4.7901   -1.2237    0.2589 C   0  0  0  0  0  0  0  0  0  0  0  0
   -4.5836    2.3167    0.3680 C   0  0  0  0  0  0  0  0  0  0  0  0
   -5.6694    0.0072    0.0387 C   0  0  0  0  0  0  0  0  0  0  0  0
   -5.4039    1.1801    0.9822 C   0  0  0  0  0  0  0  0  0  0  0  0
   -0.2991   -1.5464   -0.5242 C   0  0  0  0  0  0  0  0  0  0  0  0
    1.1164   -1.4379   -0.0864 C   0  0  0  0  0  0  0  0  0  0  0  0
    1.7294   -0.1873   -0.0108 C   0  0  0  0  0  0  0  0  0  0  0  0
    1.8315   -2.5867    0.2516 C   0  0  0  0  0  0  0  0  0  0  0  0
    3.0575   -0.0855    0.4029 C   0  0  0  0  0  0  0  0  0  0  0  0
    3.1597   -2.4851    0.6654 C   0  0  0  0  0  0  0  0  0  0  0  0
    3.7727   -1.2344    0.7410 C   0  0  0  0  0  0  0  0  0  0  0  0
    3.6127    1.6439   -2.2426 C   0  0  0  0  0  0  0  0  0  0  0  0
   -2.6223   -1.0445   -1.5071 H   0  0  0  0  0  0  0  0  0  0  0  0
   -3.7433    0.9958   -1.7329 H   0  0  0  0  0  0  0  0  0  0  0  0
   -2.0607    1.4162   -1.6901 H   0  0  0  0  0  0  0  0  0  0  0  0
   -3.1581   -0.4273    1.4424 H   0  0  0  0  0  0  0  0  0  0  0  0
   -2.8787   -1.9907    0.7528 H   0  0  0  0  0  0  0  0  0  0  0  0
   -2.6561    2.9746   -0.2268 H   0  0  0  0  0  0  0  0  0  0  0  0
   -2.5889    1.7253    0.9907 H   0  0  0  0  0  0  0  0  0  0  0  0
   -5.1928   -1.7672    1.1244 H   0  0  0  0  0  0  0  0  0  0  0  0
   -4.9122   -1.8990   -0.5972 H   0  0  0  0  0  0  0  0  0  0  0  0
   -4.6159    3.1613    1.0688 H   0  0  0  0  0  0  0  0  0  0  0  0
   -5.0752    2.6693   -0.5475 H   0  0  0  0  0  0  0  0  0  0  0  0
   -6.7075   -0.3196    0.1897 H   0  0  0  0  0  0  0  0  0  0  0  0
   -5.6308    0.3259   -1.0075 H   0  0  0  0  0  0  0  0  0  0  0  0
   -6.3785    1.6104    1.2500 H   0  0  0  0  0  0  0  0  0  0  0  0
   -4.9610    0.8476    1.9273 H   0  0  0  0  0  0  0  0  0  0  0  0
   -0.7242    0.3446    0.2546 H   0  0  0  0  0  0  0  0  0  0  0  0
    1.2006    0.7144   -0.3049 H   0  0  0  0  0  0  0  0  0  0  0  0
    1.3704   -3.5697    0.2037 H   0  0  0  0  0  0  0  0  0  0  0  0
    4.8100   -1.1800    1.0590 H   0  0  0  0  0  0  0  0  0  0  0  0
    3.7168   -3.3797    0.9280 H   0  0  0  0  0  0  0  0  0  0  0  0
    5.4577    1.3452   -1.2225 H   0  0  0  0  0  0  0  0  0  0  0  0
    4.0962    2.2021   -3.0494 H   0  0  0  0  0  0  0  0  0  0  0  0
    3.4556    0.6166   -2.5806 H   0  0  0  0  0  0  0  0  0  0  0  0
    2.6523    2.1205   -2.0322 H   0  0  0  0  0  0  0  0  0  0  0  0
  1  3  2  0  0  0  0
  1  4  2  0  0  0  0
  1  6  1  0  0  0  0
  1 19  1  0  0  0  0
  2 15  2  0  0  0  0
  5  7  1  0  0  0  0
  5 15  1  0  0  0  0
  5 38  1  0  0  0  0
  6 22  1  0  0  0  0
  6 43  1  0  0  0  0
  7  8  1  0  0  0  0
  7  9  1  0  0  0  0
  7 23  1  0  0  0  0
  8 10  1  0  0  0  0
  8 24  1  0  0  0  0
  8 25  1  0  0  0  0
  9 11  1  0  0  0  0
  9 26  1  0  0  0  0
  9 27  1  0  0  0  0
 10 12  1  0  0  0  0
 10 28  1  0  0  0  0
 10 29  1  0  0  0  0
 11 13  1  0  0  0  0
 11 30  1  0  0  0  0
 11 31  1  0  0  0  0
 12 14  1  0  0  0  0
 12 32  1  0  0  0  0
 12 33  1  0  0  0  0
 13 14  1  0  0  0  0
 13 34  1  0  0  0  0
 13 35  1  0  0  0  0
 14 36  1  0  0  0  0
 14 37  1  0  0  0  0
 15 16  1  0  0  0  0
 16 17  2  0  0  0  0
 16 18  1  0  0  0  0
 17 19  1  0  0  0  0
 17 39  1  0  0  0  0
 18 20  2  0  0  0  0
 18 40  1  0  0  0  0
 19 21  2  0  0  0  0
 20 21  1  0  0  0  0
 20 42  1  0  0  0  0
 21 41  1  0  0  0  0
 22 44  1  0  0  0  0
 22 45  1  0  0  0  0
 22 46  1  0  0  0  0
M  END
> <PUBCHEM_COMPOUND_CID>
17395900

> <PUBCHEM_CONFORMER_RMSD>
0.8

> <PUBCHEM_CONFORMER_DIVERSEORDER>
1
89
83
54
37
23
72
5
35
75
82
46
25
12
18
57
52
90
8
69
81
53
29
73
58
60
24
13
26
22
32
63
9
28
65
48
14
16
40
62
86
71
15
59
51
41
39
56
7
70
77
31
17
36
19
66
61
91
34
80
3
6
88
47
27
49
11
30
84
42
2
68
74
43
87
4
64
50
78
20
10
76
85
33
67
45
38
55
79
21
44

> <PUBCHEM_MMFF94_PARTIAL_CHARGES>
21
1 1.45
15 0.54
16 0.09
17 -0.15
18 -0.15
19 -0.01
2 -0.57
20 -0.15
21 -0.15
22 0.36
3 -0.65
38 0.37
39 0.15
4 -0.65
40 0.15
41 0.15
42 0.15
43 0.42
5 -0.73
6 -0.91
7 0.3

> <PUBCHEM_EFFECTIVE_ROTOR_COUNT>
6.6

> <PUBCHEM_PHARMACOPHORE_FEATURES>
6
1 2 acceptor
1 3 acceptor
1 4 acceptor
1 5 donor
1 6 donor
6 16 17 18 19 20 21 rings

> <PUBCHEM_HEAVY_ATOM_COUNT>
22

> <PUBCHEM_ATOM_DEF_STEREO_COUNT>
0

> <PUBCHEM_ATOM_UDEF_STEREO_COUNT>
0

> <PUBCHEM_BOND_DEF_STEREO_COUNT>
0

> <PUBCHEM_BOND_UDEF_STEREO_COUNT>
0

> <PUBCHEM_ISOTOPIC_ATOM_COUNT>
0

> <PUBCHEM_COMPONENT_COUNT>
1

> <PUBCHEM_CACTVS_TAUTO_COUNT>
2

> <PUBCHEM_CONFORMER_ID>
010970BC00000001

> <PUBCHEM_MMFF94_ENERGY>
39.7492

> <PUBCHEM_FEATURE_SELFOVERLAP>
30.464

> <PUBCHEM_SHAPE_FINGERPRINT>
10670039 82 18341320146281960636
11405975 8 18269839864319983219
12107183 9 17763185039584924171
12403259 118 18263095455895208723
12633257 1 18127982007880380475
12925494 130 18191873538288022201
13583140 156 17558853881474913303
14251764 38 18338231691070327137
14341114 176 18342172310573886563
14341114 328 17703789180580919529
14849402 71 18343584041129206536
15196674 1 18408888468576296633
17810953 82 18335702809694072568
17844677 252 18263077868004131491
17868525 174 17911247431175254162
19377110 9 18272075064607042315
20567600 9 18341315760988157532
21065198 57 18267868465989149611
21756936 100 18114753620494134342
21864079 5 18187090554577645941
23559900 14 17972597959829355255
245318 6 17199932376552774524
350125 39 18340485659831843166
38570 142 17630866245908190484
474 4 17988641870060366678
5104073 3 18341047514848173075
633830 44 18041564744887101807
7808743 9 18191591856756352144
960060 61 6555408743072909946

> <PUBCHEM_SHAPE_MULTIPOLES>
429.03
12.66
3.07
1.24
8.63
0.15
-0.41
-5.77
2.54
-1.82
-0.01
-1.12
-0.56
-0.94

> <PUBCHEM_SHAPE_SELFOVERLAP>
862.836

> <PUBCHEM_SHAPE_VOLUME>
250.6

> <PUBCHEM_COORDINATE_TYPE>
2
5
10

$$$$

