13315
  -OEChem-06261208532D

 46 47  0     1  0  0  0  0  0999 V2000
    1.6423    0.0000    0.0000 Br  0  0  0  0  0  0  0  0  0  0  0  0
    4.0802    8.5696    0.0000 Cl  0  5  0  0  0  0  0  0  0  0  0  0
    1.2025    4.0365    0.0000 S   0  0  0  0  0  0  0  0  0  0  0  0
    6.6524    2.5453    0.0000 N   0  3  0  0  0  0  0  0  0  0  0  0
    3.2270    3.0616    0.0000 C   0  0  3  0  0  0  0  0  0  0  0  0
    4.0088    2.4381    0.0000 C   0  0  0  0  0  0  0  0  0  0  0  0
    4.9397    2.8034    0.0000 C   0  0  0  0  0  0  0  0  0  0  0  0
    5.7215    2.1799    0.0000 C   0  0  0  0  0  0  0  0  0  0  0  0
    3.4495    4.0365    0.0000 C   0  0  0  0  0  0  0  0  0  0  0  0
    2.3260    2.6277    0.0000 C   0  0  0  0  0  0  0  0  0  0  0  0
    2.8260    4.8183    0.0000 C   0  0  0  0  0  0  0  0  0  0  0  0
    1.4250    3.0616    0.0000 C   0  0  0  0  0  0  0  0  0  0  0  0
    1.8260    4.8183    0.0000 C   0  0  0  0  0  0  0  0  0  0  0  0
    4.4818    4.1759    0.0000 C   0  0  0  0  0  0  0  0  0  0  0  0
    2.4198    1.5903    0.0000 C   0  0  0  0  0  0  0  0  0  0  0  0
    7.5833    2.9106    0.0000 C   0  0  0  0  0  0  0  0  0  0  0  0
    7.0177    1.6144    0.0000 C   0  0  0  0  0  0  0  0  0  0  0  0
    3.1916    5.7937    0.0000 C   0  0  0  0  0  0  0  0  0  0  0  0
    0.5555    2.4881    0.0000 C   0  0  0  0  0  0  0  0  0  0  0  0
    4.8698    5.1425    0.0000 C   0  0  0  0  0  0  0  0  0  0  0  0
    1.5638    0.9969    0.0000 C   0  0  0  0  0  0  0  0  0  0  0  0
    4.2203    5.9569    0.0000 C   0  0  0  0  0  0  0  0  0  0  0  0
    0.6253    1.4489    0.0000 C   0  0  0  0  0  0  0  0  0  0  0  0
    3.8122    3.2663    0.0000 H   0  0  0  0  0  0  0  0  0  0  0  0
    3.5439    2.0278    0.0000 H   0  0  0  0  0  0  0  0  0  0  0  0
    4.3321    1.9090    0.0000 H   0  0  0  0  0  0  0  0  0  0  0  0
    5.4045    3.2137    0.0000 H   0  0  0  0  0  0  0  0  0  0  0  0
    4.6164    3.3325    0.0000 H   0  0  0  0  0  0  0  0  0  0  0  0
    5.2566    1.7697    0.0000 H   0  0  0  0  0  0  0  0  0  0  0  0
    6.0448    1.6509    0.0000 H   0  0  0  0  0  0  0  0  0  0  0  0
    6.4259    3.1224    0.0000 H   0  0  0  0  0  0  0  0  0  0  0  0
    1.9640    5.4228    0.0000 H   0  0  0  0  0  0  0  0  0  0  0  0
    1.2674    5.0873    0.0000 H   0  0  0  0  0  0  0  0  0  0  0  0
    4.8627    3.6867    0.0000 H   0  0  0  0  0  0  0  0  0  0  0  0
    2.9815    1.3278    0.0000 H   0  0  0  0  0  0  0  0  0  0  0  0
    7.8098    2.3335    0.0000 H   0  0  0  0  0  0  0  0  0  0  0  0
    8.1604    3.1371    0.0000 H   0  0  0  0  0  0  0  0  0  0  0  0
    7.3567    3.4878    0.0000 H   0  0  0  0  0  0  0  0  0  0  0  0
    6.4406    1.3879    0.0000 H   0  0  0  0  0  0  0  0  0  0  0  0
    7.2442    1.0373    0.0000 H   0  0  0  0  0  0  0  0  0  0  0  0
    7.5949    1.8409    0.0000 H   0  0  0  0  0  0  0  0  0  0  0  0
    2.7994    6.2739    0.0000 H   0  0  0  0  0  0  0  0  0  0  0  0
    0.0000    2.7636    0.0000 H   0  0  0  0  0  0  0  0  0  0  0  0
    5.4832    5.2326    0.0000 H   0  0  0  0  0  0  0  0  0  0  0  0
    4.4446    6.5349    0.0000 H   0  0  0  0  0  0  0  0  0  0  0  0
    0.1117    1.1016    0.0000 H   0  0  0  0  0  0  0  0  0  0  0  0
  1 21  1  0  0  0  0
  3 12  1  0  0  0  0
  3 13  1  0  0  0  0
  4  8  1  0  0  0  0
  4 16  1  0  0  0  0
  4 17  1  0  0  0  0
  4 31  1  0  0  0  0
  5  6  1  0  0  0  0
  5  9  1  0  0  0  0
  5 10  1  0  0  0  0
  5 24  1  0  0  0  0
  6  7  1  0  0  0  0
  6 25  1  0  0  0  0
  6 26  1  0  0  0  0
  7  8  1  0  0  0  0
  7 27  1  0  0  0  0
  7 28  1  0  0  0  0
  8 29  1  0  0  0  0
  8 30  1  0  0  0  0
  9 11  1  0  0  0  0
  9 14  2  0  0  0  0
 10 12  2  0  0  0  0
 10 15  1  0  0  0  0
 11 13  1  0  0  0  0
 11 18  2  0  0  0  0
 12 19  1  0  0  0  0
 13 32  1  0  0  0  0
 13 33  1  0  0  0  0
 14 20  1  0  0  0  0
 14 34  1  0  0  0  0
 15 21  2  0  0  0  0
 15 35  1  0  0  0  0
 16 36  1  0  0  0  0
 16 37  1  0  0  0  0
 16 38  1  0  0  0  0
 17 39  1  0  0  0  0
 17 40  1  0  0  0  0
 17 41  1  0  0  0  0
 18 22  1  0  0  0  0
 18 42  1  0  0  0  0
 19 23  2  0  0  0  0
 19 43  1  0  0  0  0
 20 22  2  0  0  0  0
 20 44  1  0  0  0  0
 21 23  1  0  0  0  0
 22 45  1  0  0  0  0
 23 46  1  0  0  0  0
M  CHG  2   2  -1   4   1
M  END
> <PUBCHEM_COMPOUND_CID>
13315

> <PUBCHEM_COMPOUND_CANONICALIZED>
1

> <PUBCHEM_CACTVS_COMPLEXITY>
348

> <PUBCHEM_CACTVS_HBOND_ACCEPTOR>
2

> <PUBCHEM_CACTVS_HBOND_DONOR>
1

> <PUBCHEM_CACTVS_ROTATABLE_BOND>
4

> <PUBCHEM_CACTVS_SUBSKEYS>
AAADceB6AABEEAAAAAAAAAAAAAAAAAAAAAAwYAAABIAAAAABQAAAHARQAAABrQDFWASyAYPAAAiAAiBCAAACAAAgCBQIiJgIAKgIICKgkRCEIAAgkAAoihcQgMAOgAEAEAAUAAAAAgAgACgAAAAAAAAAAA==

> <PUBCHEM_IUPAC_OPENEYE_NAME>
3-(2-bromo-6,11-dihydrobenzo[c][1]benzothiepin-11-yl)propyl-dimethyl-ammonium chloride

> <PUBCHEM_IUPAC_CAS_NAME>
3-(2-bromo-6,11-dihydrobenzo[c][1]benzothiepin-11-yl)propyl-dimethylammonium chloride

> <PUBCHEM_IUPAC_NAME>
3-(2-bromo-6,11-dihydrobenzo[c][1]benzothiepin-11-yl)propyl-dimethylazanium chloride

> <PUBCHEM_IUPAC_SYSTEMATIC_NAME>
3-(2-bromanyl-6,11-dihydrobenzo[c][1]benzothiepin-11-yl)propyl-dimethyl-azanium chloride

> <PUBCHEM_IUPAC_TRADITIONAL_NAME>
3-(2-bromo-6,11-dihydrobenzo[c][1]benzothiepin-11-yl)propyl-dimethyl-ammonium chloride

> <PUBCHEM_IUPAC_INCHI>
InChI=1S/C19H22BrNS.ClH/c1-21(2)11-5-8-17-16-7-4-3-6-14(16)13-22-19-10-9-15(20)12-18(17)19;/h3-4,6-7,9-10,12,17H,5,8,11,13H2,1-2H3;1H

> <PUBCHEM_IUPAC_INCHIKEY>
HXJZMRGWCVKNIL-UHFFFAOYSA-N

> <PUBCHEM_EXACT_MASS>
411.042311

> <PUBCHEM_MOLECULAR_FORMULA>
C19H23BrClNS

> <PUBCHEM_MOLECULAR_WEIGHT>
412.81462

> <PUBCHEM_OPENEYE_CAN_SMILES>
C[NH+](C)CCCC1C2=CC=CC=C2CSC3=C1C=C(C=C3)Br.[Cl-]

> <PUBCHEM_OPENEYE_ISO_SMILES>
C[NH+](C)CCCC1C2=CC=CC=C2CSC3=C1C=C(C=C3)Br.[Cl-]

> <PUBCHEM_CACTVS_TPSA>
29.7

> <PUBCHEM_MONOISOTOPIC_WEIGHT>
411.042311

> <PUBCHEM_TOTAL_CHARGE>
0

> <PUBCHEM_HEAVY_ATOM_COUNT>
23

> <PUBCHEM_ATOM_DEF_STEREO_COUNT>
0

> <PUBCHEM_ATOM_UDEF_STEREO_COUNT>
1

> <PUBCHEM_BOND_DEF_STEREO_COUNT>
0

> <PUBCHEM_BOND_UDEF_STEREO_COUNT>
0

> <PUBCHEM_ISOTOPIC_ATOM_COUNT>
0

> <PUBCHEM_COMPONENT_COUNT>
2

> <PUBCHEM_CACTVS_TAUTO_COUNT>
1

> <PUBCHEM_COORDINATE_TYPE>
1
5
255

> <PUBCHEM_BONDANNOTATIONS>
10  12  8
10  15  8
11  18  8
12  19  8
14  20  8
15  21  8
18  22  8
19  23  8
20  22  8
21  23  8
5  6  3
9  11  8
9  14  8

$$$$

