9348
  -OEChem-06261203383D

 26 27  0     0  0  0  0  0  0999 V2000
    0.5017    1.6681    0.0753 O   0  0  0  0  0  0  0  0  0  0  0  0
    4.3291    0.3828    0.5962 O   0  0  0  0  0  0  0  0  0  0  0  0
    3.1622    2.0362   -0.4387 O   0  0  0  0  0  0  0  0  0  0  0  0
   -0.2375   -0.6073   -0.0377 C   0  0  0  0  0  0  0  0  0  0  0  0
   -1.6252   -0.1990   -0.0011 C   0  0  0  0  0  0  0  0  0  0  0  0
    0.7915    0.3355    0.0012 C   0  0  0  0  0  0  0  0  0  0  0  0
    2.1225   -0.0805   -0.0353 C   0  0  0  0  0  0  0  0  0  0  0  0
    0.0689   -1.9672   -0.1128 C   0  0  0  0  0  0  0  0  0  0  0  0
   -2.2808   -0.0660    1.2230 C   0  0  0  0  0  0  0  0  0  0  0  0
   -2.3072    0.0621   -1.1895 C   0  0  0  0  0  0  0  0  0  0  0  0
    2.4265   -1.4398   -0.1105 C   0  0  0  0  0  0  0  0  0  0  0  0
    1.3997   -2.3831   -0.1492 C   0  0  0  0  0  0  0  0  0  0  0  0
   -3.6185    0.3279    1.2586 C   0  0  0  0  0  0  0  0  0  0  0  0
   -3.6448    0.4561   -1.1538 C   0  0  0  0  0  0  0  0  0  0  0  0
   -4.3004    0.5889    0.0703 C   0  0  0  0  0  0  0  0  0  0  0  0
    3.2122    0.8854    0.0040 C   0  0  0  0  0  0  0  0  0  0  0  0
   -0.7182   -2.7172   -0.1447 H   0  0  0  0  0  0  0  0  0  0  0  0
   -1.7637   -0.2649    2.1588 H   0  0  0  0  0  0  0  0  0  0  0  0
   -1.8109   -0.0360   -2.1522 H   0  0  0  0  0  0  0  0  0  0  0  0
    3.4527   -1.7952   -0.1536 H   0  0  0  0  0  0  0  0  0  0  0  0
    1.6361   -3.4414   -0.2108 H   0  0  0  0  0  0  0  0  0  0  0  0
   -4.1290    0.4316    2.2116 H   0  0  0  0  0  0  0  0  0  0  0  0
   -4.1760    0.6597   -2.0790 H   0  0  0  0  0  0  0  0  0  0  0  0
   -5.3418    0.8958    0.0979 H   0  0  0  0  0  0  0  0  0  0  0  0
   -0.4555    1.8226    0.0937 H   0  0  0  0  0  0  0  0  0  0  0  0
    5.0576    1.0395    0.6185 H   0  0  0  0  0  0  0  0  0  0  0  0
  1  6  1  0  0  0  0
  1 25  1  0  0  0  0
  2 16  1  0  0  0  0
  2 26  1  0  0  0  0
  3 16  2  0  0  0  0
  4  5  1  0  0  0  0
  4  6  2  0  0  0  0
  4  8  1  0  0  0  0
  5  9  2  0  0  0  0
  5 10  1  0  0  0  0
  6  7  1  0  0  0  0
  7 11  2  0  0  0  0
  7 16  1  0  0  0  0
  8 12  2  0  0  0  0
  8 17  1  0  0  0  0
  9 13  1  0  0  0  0
  9 18  1  0  0  0  0
 10 14  2  0  0  0  0
 10 19  1  0  0  0  0
 11 12  1  0  0  0  0
 11 20  1  0  0  0  0
 12 21  1  0  0  0  0
 13 15  2  0  0  0  0
 13 22  1  0  0  0  0
 14 15  1  0  0  0  0
 14 23  1  0  0  0  0
 15 24  1  0  0  0  0
M  END
> <PUBCHEM_COMPOUND_CID>
9348

> <PUBCHEM_CONFORMER_RMSD>
0.6

> <PUBCHEM_CONFORMER_DIVERSEORDER>
1
2

> <PUBCHEM_MMFF94_PARTIAL_CHARGES>
24
1 -0.53
10 -0.15
11 -0.15
12 -0.15
13 -0.15
14 -0.15
15 -0.15
16 0.63
17 0.15
18 0.15
19 0.15
2 -0.65
20 0.15
21 0.15
22 0.15
23 0.15
24 0.15
25 0.45
26 0.5
3 -0.57
6 0.08
7 0.09
8 -0.15
9 -0.15

> <PUBCHEM_EFFECTIVE_ROTOR_COUNT>
2

> <PUBCHEM_PHARMACOPHORE_FEATURES>
6
1 1 donor
1 2 acceptor
1 3 acceptor
3 2 3 16 anion
6 4 6 7 8 11 12 rings
6 5 9 10 13 14 15 rings

> <PUBCHEM_HEAVY_ATOM_COUNT>
16

> <PUBCHEM_ATOM_DEF_STEREO_COUNT>
0

> <PUBCHEM_ATOM_UDEF_STEREO_COUNT>
0

> <PUBCHEM_BOND_DEF_STEREO_COUNT>
0

> <PUBCHEM_BOND_UDEF_STEREO_COUNT>
0

> <PUBCHEM_ISOTOPIC_ATOM_COUNT>
0

> <PUBCHEM_COMPONENT_COUNT>
1

> <PUBCHEM_CACTVS_TAUTO_COUNT>
4

> <PUBCHEM_CONFORMER_ID>
0000248400000001

> <PUBCHEM_MMFF94_ENERGY>
55.0043

> <PUBCHEM_FEATURE_SELFOVERLAP>
30.503

> <PUBCHEM_SHAPE_FINGERPRINT>
10608611 8 18129665321775823549
10980938 120 18335983146424958087
11031198 65 18411979169823281807
11471102 20 18410857697969763878
11543360 7 15285640941462655584
12119455 92 18272095988949106522
12236239 1 17675927629379886887
12346645 6 18335419105829522462
13140716 1 18267306439585052826
13296909 8 14404917881365821143
13380535 76 18410576162858600002
13581323 91 15051731997473880835
13583140 156 16773535281942029032
14251717 144 18335707164732570087
14289901 80 16271921584591922224
14897335 6 18334580126675406598
15219456 202 18131068272816603455
15309172 13 18411979139700559651
15342168 16 18340195298404487805
15375358 24 18060705017696749677
15653759 3 17060618906125976825
15775835 57 18113618988818480557
16945 1 18339077198115991470
1813 80 17464239901035637118
18175812 5 17775566429107655527
18186145 218 18334850632426748414
18219364 16 18341609287468754249
19049666 15 17630049497245951703
19422 9 17676488393042292335
200 152 18260555502852582607
20279233 1 17846777434005660323
204376 136 18339359665330049458
20645464 45 17561082514640503785
20645477 70 18337679740443917295
20715346 28 17917986204956220791
21499 59 18335985289597847143
21524375 3 18337114462491542654
21639500 275 18336274482794273493
2255824 54 18262514930640732718
22854114 111 18410572920036634471
22854114 59 18342172272003394947
231179 274 18202288013155686686
23402539 116 17822296773322074004
23402655 69 18260837046274534965
23557571 272 16917066711195795975
23559900 14 16773512303915013962
25 1 18410011026634475542
2748010 2 18337939096418323934
350125 39 17906728103219396425
474 4 18408040697518481448
633830 44 18114729482456326876
7364860 26 18115586084104240974
77492 1 17603871151975596023
81539 233 18272650151673909198
8272917 22 18262794202667835991
9981440 41 16305457608641875352

> <PUBCHEM_SHAPE_MULTIPOLES>
311.66
7.33
1.82
1.01
1.54
0.54
0.03
-2.69
0.41
-1.89
-0.16
1.02
-0.07
0.01

> <PUBCHEM_SHAPE_SELFOVERLAP>
684.216

> <PUBCHEM_SHAPE_VOLUME>
168.1

> <PUBCHEM_COORDINATE_TYPE>
2
5
10

$$$$

