854023
  -OEChem-06241222463D

 27 29  0     1  0  0  0  0  0999 V2000
   -4.8837   -0.5192    0.1452 Cl  0  0  0  0  0  0  0  0  0  0  0  0
    2.1693   -1.2869    0.3755 N   0  0  0  0  0  0  0  0  0  0  0  0
   -2.3804   -1.1849    0.0531 N   0  0  0  0  0  0  0  0  0  0  0  0
    1.8137   -0.5433   -0.8500 C   0  0  1  0  0  0  0  0  0  0  0  0
    2.7781   -0.1549    1.0934 C   0  0  2  0  0  0  0  0  0  0  0  0
    0.9467    0.5998   -0.2734 C   0  0  2  0  0  0  0  0  0  0  0  0
    1.5921    0.8142    1.1149 C   0  0  0  0  0  0  0  0  0  0  0  0
    3.1878    0.0066   -1.2571 C   0  0  0  0  0  0  0  0  0  0  0  0
    3.8411    0.3109    0.0950 C   0  0  0  0  0  0  0  0  0  0  0  0
   -0.5475    0.3683   -0.1700 C   0  0  0  0  0  0  0  0  0  0  0  0
   -1.4360    1.4336   -0.2002 C   0  0  0  0  0  0  0  0  0  0  0  0
   -1.0605   -0.9095   -0.0433 C   0  0  0  0  0  0  0  0  0  0  0  0
   -2.8016    1.1903   -0.1035 C   0  0  0  0  0  0  0  0  0  0  0  0
   -3.2190   -0.1250    0.0203 C   0  0  0  0  0  0  0  0  0  0  0  0
    1.3374   -1.1400   -1.6320 H   0  0  0  0  0  0  0  0  0  0  0  0
    3.1700   -0.3928    2.0848 H   0  0  0  0  0  0  0  0  0  0  0  0
    1.0950    1.4971   -0.8901 H   0  0  0  0  0  0  0  0  0  0  0  0
    1.9118    1.8531    1.2516 H   0  0  0  0  0  0  0  0  0  0  0  0
    0.9051    0.5601    1.9320 H   0  0  0  0  0  0  0  0  0  0  0  0
    3.1189    0.8976   -1.8891 H   0  0  0  0  0  0  0  0  0  0  0  0
    3.7716   -0.7505   -1.7940 H   0  0  0  0  0  0  0  0  0  0  0  0
    4.7667   -0.2664    0.2015 H   0  0  0  0  0  0  0  0  0  0  0  0
    4.0809    1.3734    0.2030 H   0  0  0  0  0  0  0  0  0  0  0  0
    2.8743   -1.9941    0.1670 H   0  0  0  0  0  0  0  0  0  0  0  0
   -1.0794    2.4552   -0.2962 H   0  0  0  0  0  0  0  0  0  0  0  0
   -0.4350   -1.7936   -0.0086 H   0  0  0  0  0  0  0  0  0  0  0  0
   -3.5069    2.0144   -0.1254 H   0  0  0  0  0  0  0  0  0  0  0  0
  1 14  1  0  0  0  0
  2  4  1  0  0  0  0
  2  5  1  0  0  0  0
  2 24  1  0  0  0  0
  3 12  1  0  0  0  0
  3 14  2  0  0  0  0
  4  6  1  0  0  0  0
  4  8  1  0  0  0  0
  4 15  1  0  0  0  0
  5  7  1  0  0  0  0
  5  9  1  0  0  0  0
  5 16  1  0  0  0  0
  6  7  1  0  0  0  0
  6 10  1  0  0  0  0
  6 17  1  0  0  0  0
  7 18  1  0  0  0  0
  7 19  1  0  0  0  0
  8  9  1  0  0  0  0
  8 20  1  0  0  0  0
  8 21  1  0  0  0  0
  9 22  1  0  0  0  0
  9 23  1  0  0  0  0
 10 11  1  0  0  0  0
 10 12  2  0  0  0  0
 11 13  2  0  0  0  0
 11 25  1  0  0  0  0
 12 26  1  0  0  0  0
 13 14  1  0  0  0  0
 13 27  1  0  0  0  0
M  END
> <PUBCHEM_COMPOUND_CID>
854023

> <PUBCHEM_CONFORMER_RMSD>
0.6

> <PUBCHEM_CONFORMER_DIVERSEORDER>
1
3
2
4

> <PUBCHEM_MMFF94_PARTIAL_CHARGES>
15
1 -0.18
10 -0.14
11 -0.15
12 0.16
13 -0.15
14 0.49
2 -0.9
24 0.36
25 0.15
26 0.15
27 0.15
3 -0.62
4 0.27
5 0.27
6 0.14

> <PUBCHEM_EFFECTIVE_ROTOR_COUNT>
2

> <PUBCHEM_PHARMACOPHORE_FEATURES>
5
1 2 cation
1 2 donor
1 3 acceptor
6 3 10 11 12 13 14 rings
7 2 4 5 6 7 8 9 rings

> <PUBCHEM_HEAVY_ATOM_COUNT>
14

> <PUBCHEM_ATOM_DEF_STEREO_COUNT>
3

> <PUBCHEM_ATOM_UDEF_STEREO_COUNT>
0

> <PUBCHEM_BOND_DEF_STEREO_COUNT>
0

> <PUBCHEM_BOND_UDEF_STEREO_COUNT>
0

> <PUBCHEM_ISOTOPIC_ATOM_COUNT>
0

> <PUBCHEM_COMPONENT_COUNT>
1

> <PUBCHEM_CACTVS_TAUTO_COUNT>
1

> <PUBCHEM_CONFORMER_ID>
000D080700000001

> <PUBCHEM_MMFF94_ENERGY>
38.1068

> <PUBCHEM_FEATURE_SELFOVERLAP>
25.371

> <PUBCHEM_SHAPE_FINGERPRINT>
10219947 1 16081087086832318804
10608611 8 18259992582120283936
11543360 7 15482387548269128571
12032990 46 18410007720153242295
12236239 1 17489870435984980476
12251169 10 18186523172481706145
12932764 1 17895204315148428911
13296908 3 17894348912329439036
13538477 17 17774719762241726075
13581323 91 18341899601382632377
14115302 16 17560795498597143338
14144814 61 18342739641188162881
14252887 29 17967243195961243382
14993402 34 17632290172867487231
15219456 202 17894350011761971516
15309172 13 16732985335964397525
15775835 57 18412825815029992122
16945 1 18409454682330238469
17844478 74 18040151833569053497
18186145 218 17385445448919101529
190213 19 17203608194289669873
19049666 15 17751637886412025552
19422 9 17775285009981317993
200 152 15195289715969329769
20201158 50 18040716978171414310
20279233 1 18113901567332812926
20281407 28 18410008823627547603
20510252 161 18261109720721006849
20559304 39 18202002140069265292
20645477 70 16733261369170045740
23048698 100 16845853494479420821
23402539 116 18334867108527769079
23402655 69 12463302392614922627
23557571 272 18411416245761457852
23559900 14 18263082266187591350
3248919 1 17132108065410685024
474 4 16772374129260620060
69090 78 17749115469852920247
7364860 26 18191865626214165108
77492 1 17418092135017196748

> <PUBCHEM_SHAPE_MULTIPOLES>
280.02
7.58
1.23
0.98
4.43
0.08
-0.01
-0.9
-0.14
0.48
-0.03
-0.85
0.03
0.21

> <PUBCHEM_SHAPE_SELFOVERLAP>
601.091

> <PUBCHEM_SHAPE_VOLUME>
158.8

> <PUBCHEM_COORDINATE_TYPE>
2
5
10

$$$$

