4976
  -OEChem-06261200273D

 41 43  0     0  0  0  0  0  0999 V2000
    4.6930   -1.5511    0.0999 N   0  0  0  0  0  0  0  0  0  0  0  0
   -0.1033   -0.3919    0.7081 C   0  0  0  0  0  0  0  0  0  0  0  0
    0.9083   -1.2778   -0.0324 C   0  0  0  0  0  0  0  0  0  0  0  0
    0.1512    1.0911    0.4848 C   0  0  0  0  0  0  0  0  0  0  0  0
   -1.5424   -0.8081    0.4439 C   0  0  0  0  0  0  0  0  0  0  0  0
    2.3332   -0.9641    0.4070 C   0  0  0  0  0  0  0  0  0  0  0  0
   -0.1203    1.7450   -0.7330 C   0  0  0  0  0  0  0  0  0  0  0  0
   -2.1969   -0.5834   -0.7831 C   0  0  0  0  0  0  0  0  0  0  0  0
    3.3310   -1.8715   -0.3106 C   0  0  0  0  0  0  0  0  0  0  0  0
    0.7070    1.8360    1.5446 C   0  0  0  0  0  0  0  0  0  0  0  0
   -2.2415   -1.4700    1.4733 C   0  0  0  0  0  0  0  0  0  0  0  0
   -0.6748    1.0724   -1.9160 C   0  0  0  0  0  0  0  0  0  0  0  0
   -1.5668    0.0720   -1.9377 C   0  0  0  0  0  0  0  0  0  0  0  0
    0.1907    3.1108   -0.8644 C   0  0  0  0  0  0  0  0  0  0  0  0
   -3.5155   -1.0438   -0.9538 C   0  0  0  0  0  0  0  0  0  0  0  0
    0.9950    3.1927    1.4032 C   0  0  0  0  0  0  0  0  0  0  0  0
   -3.5534   -1.9064    1.2934 C   0  0  0  0  0  0  0  0  0  0  0  0
    0.7386    3.8302    0.1967 C   0  0  0  0  0  0  0  0  0  0  0  0
   -4.1900   -1.6953    0.0779 C   0  0  0  0  0  0  0  0  0  0  0  0
    5.6570   -2.3869   -0.6018 C   0  0  0  0  0  0  0  0  0  0  0  0
    0.0700   -0.5765    1.7789 H   0  0  0  0  0  0  0  0  0  0  0  0
    0.6892   -2.3330    0.1793 H   0  0  0  0  0  0  0  0  0  0  0  0
    0.8327   -1.1650   -1.1194 H   0  0  0  0  0  0  0  0  0  0  0  0
    2.5907    0.0764    0.1786 H   0  0  0  0  0  0  0  0  0  0  0  0
    2.4269   -1.0955    1.4925 H   0  0  0  0  0  0  0  0  0  0  0  0
    3.1035   -2.9197   -0.0812 H   0  0  0  0  0  0  0  0  0  0  0  0
    3.2264   -1.7340   -1.3939 H   0  0  0  0  0  0  0  0  0  0  0  0
    0.9282    1.3576    2.4963 H   0  0  0  0  0  0  0  0  0  0  0  0
   -1.7617   -1.6586    2.4313 H   0  0  0  0  0  0  0  0  0  0  0  0
   -0.3355    1.4615   -2.8746 H   0  0  0  0  0  0  0  0  0  0  0  0
   -1.8940   -0.2862   -2.9123 H   0  0  0  0  0  0  0  0  0  0  0  0
    0.0011    3.6338   -1.8002 H   0  0  0  0  0  0  0  0  0  0  0  0
   -4.0366   -0.8923   -1.8975 H   0  0  0  0  0  0  0  0  0  0  0  0
    1.4239    3.7468    2.2327 H   0  0  0  0  0  0  0  0  0  0  0  0
   -4.0726   -2.4152    2.1000 H   0  0  0  0  0  0  0  0  0  0  0  0
    4.7899   -1.6919    1.1050 H   0  0  0  0  0  0  0  0  0  0  0  0
    0.9659    4.8854    0.0782 H   0  0  0  0  0  0  0  0  0  0  0  0
   -5.2097   -2.0379   -0.0705 H   0  0  0  0  0  0  0  0  0  0  0  0
    5.6043   -2.2308   -1.6842 H   0  0  0  0  0  0  0  0  0  0  0  0
    5.5018   -3.4488   -0.3847 H   0  0  0  0  0  0  0  0  0  0  0  0
    6.6695   -2.1227   -0.2810 H   0  0  0  0  0  0  0  0  0  0  0  0
  1  9  1  0  0  0  0
  1 20  1  0  0  0  0
  1 36  1  0  0  0  0
  2  3  1  0  0  0  0
  2  4  1  0  0  0  0
  2  5  1  0  0  0  0
  2 21  1  0  0  0  0
  3  6  1  0  0  0  0
  3 22  1  0  0  0  0
  3 23  1  0  0  0  0
  4  7  1  0  0  0  0
  4 10  2  0  0  0  0
  5  8  1  0  0  0  0
  5 11  2  0  0  0  0
  6  9  1  0  0  0  0
  6 24  1  0  0  0  0
  6 25  1  0  0  0  0
  7 12  1  0  0  0  0
  7 14  2  0  0  0  0
  8 13  1  0  0  0  0
  8 15  2  0  0  0  0
  9 26  1  0  0  0  0
  9 27  1  0  0  0  0
 10 16  1  0  0  0  0
 10 28  1  0  0  0  0
 11 17  1  0  0  0  0
 11 29  1  0  0  0  0
 12 13  2  0  0  0  0
 12 30  1  0  0  0  0
 13 31  1  0  0  0  0
 14 18  1  0  0  0  0
 14 32  1  0  0  0  0
 15 19  1  0  0  0  0
 15 33  1  0  0  0  0
 16 18  2  0  0  0  0
 16 34  1  0  0  0  0
 17 19  2  0  0  0  0
 17 35  1  0  0  0  0
 18 37  1  0  0  0  0
 19 38  1  0  0  0  0
 20 39  1  0  0  0  0
 20 40  1  0  0  0  0
 20 41  1  0  0  0  0
M  END
> <PUBCHEM_COMPOUND_CID>
4976

> <PUBCHEM_CONFORMER_RMSD>
0.6

> <PUBCHEM_CONFORMER_DIVERSEORDER>
1
5
9
11
4
12
3
2
15
10
17
8
6
7
13
16
14

> <PUBCHEM_MMFF94_PARTIAL_CHARGES>
29
1 -0.9
10 -0.15
11 -0.15
12 -0.18
13 -0.18
14 -0.15
15 -0.15
16 -0.15
17 -0.15
18 -0.15
19 -0.15
2 0.29
20 0.27
28 0.15
29 0.15
30 0.15
31 0.15
32 0.15
33 0.15
34 0.15
35 0.15
36 0.36
37 0.15
38 0.15
4 -0.14
5 -0.14
7 0.03
8 0.03
9 0.27

> <PUBCHEM_EFFECTIVE_ROTOR_COUNT>
4.2

> <PUBCHEM_PHARMACOPHORE_FEATURES>
5
1 1 cation
1 1 donor
6 4 7 10 14 16 18 rings
6 5 8 11 15 17 19 rings
7 2 4 5 7 8 12 13 rings

> <PUBCHEM_HEAVY_ATOM_COUNT>
20

> <PUBCHEM_ATOM_DEF_STEREO_COUNT>
0

> <PUBCHEM_ATOM_UDEF_STEREO_COUNT>
0

> <PUBCHEM_BOND_DEF_STEREO_COUNT>
0

> <PUBCHEM_BOND_UDEF_STEREO_COUNT>
0

> <PUBCHEM_ISOTOPIC_ATOM_COUNT>
0

> <PUBCHEM_COMPONENT_COUNT>
1

> <PUBCHEM_CACTVS_TAUTO_COUNT>
1

> <PUBCHEM_CONFORMER_ID>
0000137000000001

> <PUBCHEM_MMFF94_ENERGY>
57.1711

> <PUBCHEM_FEATURE_SELFOVERLAP>
25.388

> <PUBCHEM_SHAPE_FINGERPRINT>
10764073 3 14277353791972503382
11045515 52 18412544331816761662
11101153 10 18339629111031727372
12788726 201 17979366570109135530
13134695 92 18335980865976646069
15309172 13 17476369301069818641
16945 1 16050153186299872901
17093844 174 10447056431775735150
17980427 23 17385994114069902841
17980427 26 17682399148204318709
1813 80 18041264522330508806
20600515 1 18127947836947058662
21041028 32 18335692845617586537
21061003 4 18410012134915834227
21304303 282 17262755525000794852
21339142 36 18339366369647651422
23175994 123 18411698790058287875
23419403 2 18269570376380490468
23557571 272 18265892647936411558
23558518 356 17185609446646867387
23559900 14 17774161168081696127
23566358 27 18048601417457411159
2748010 2 17558851506805969495
283562 15 18269269235297599354
3729539 64 17982428431669684756
458136 41 17762891074616514841
4663303 62 18197503917883296255
576247 118 18411991272819582233
7364860 26 18194964033022148337
81228 2 18121488326492516690
84936 31 18046634408018054023
9981440 41 17176615386076997222

> <PUBCHEM_SHAPE_MULTIPOLES>
406.61
6.98
4.04
1.63
6.17
4.12
-0.23
-10.32
-0.48
3.22
0.59
-0.84
0.48
1.4

> <PUBCHEM_SHAPE_SELFOVERLAP>
871.026

> <PUBCHEM_SHAPE_VOLUME>
221.8

> <PUBCHEM_COORDINATE_TYPE>
2
5
10

$$$$

