17395482
  -OEChem-06241222503D

 34 37  0     0  0  0  0  0  0999 V2000
   -0.8739   -0.8842    0.5492 S   0  0  0  0  0  0  0  0  0  0  0  0
    6.2539    0.2229    0.9295 S   0  0  0  0  0  0  0  0  0  0  0  0
   -2.1871    3.6095   -0.1014 F   0  0  0  0  0  0  0  0  0  0  0  0
    3.6545   -1.3311    1.1749 O   0  0  0  0  0  0  0  0  0  0  0  0
   -3.4968   -0.9792   -0.2124 N   0  0  0  0  0  0  0  0  0  0  0  0
    2.4146   -1.9579    1.1485 N   0  0  0  0  0  0  0  0  0  0  0  0
   -4.4215   -1.8388   -0.6623 N   0  0  0  0  0  0  0  0  0  0  0  0
   -2.4817   -2.8908   -0.3452 N   0  0  0  0  0  0  0  0  0  0  0  0
   -3.7948   -3.0063   -0.7418 N   0  0  0  0  0  0  0  0  0  0  0  0
    1.7900   -1.4439    0.0852 C   0  0  0  0  0  0  0  0  0  0  0  0
    0.3986   -1.8985   -0.2593 C   0  0  0  0  0  0  0  0  0  0  0  0
    3.7404   -0.4636    0.1342 C   0  0  0  0  0  0  0  0  0  0  0  0
   -3.8060    0.3529   -0.0071 C   0  0  0  0  0  0  0  0  0  0  0  0
    2.5788   -0.4972   -0.5911 C   0  0  0  0  0  0  0  0  0  0  0  0
   -2.3188   -1.6284   -0.0223 C   0  0  0  0  0  0  0  0  0  0  0  0
    4.8927    0.3277   -0.1041 C   0  0  0  0  0  0  0  0  0  0  0  0
   -2.8208    1.3284   -0.1590 C   0  0  0  0  0  0  0  0  0  0  0  0
   -5.1034    0.7213    0.3487 C   0  0  0  0  0  0  0  0  0  0  0  0
    5.0858    1.2346   -1.1229 C   0  0  0  0  0  0  0  0  0  0  0  0
   -3.1330    2.6726    0.0448 C   0  0  0  0  0  0  0  0  0  0  0  0
   -5.4158    2.0653    0.5527 C   0  0  0  0  0  0  0  0  0  0  0  0
   -4.4305    3.0409    0.4007 C   0  0  0  0  0  0  0  0  0  0  0  0
    6.3684    1.8512   -1.0541 C   0  0  0  0  0  0  0  0  0  0  0  0
    7.1066    1.3925    0.0146 C   0  0  0  0  0  0  0  0  0  0  0  0
    0.2584   -1.8464   -1.3450 H   0  0  0  0  0  0  0  0  0  0  0  0
    0.2716   -2.9453    0.0396 H   0  0  0  0  0  0  0  0  0  0  0  0
    2.3255    0.0699   -1.4754 H   0  0  0  0  0  0  0  0  0  0  0  0
   -1.8341    1.1426   -0.5617 H   0  0  0  0  0  0  0  0  0  0  0  0
   -5.8907   -0.0162    0.4842 H   0  0  0  0  0  0  0  0  0  0  0  0
    4.3553    1.4594   -1.8902 H   0  0  0  0  0  0  0  0  0  0  0  0
   -6.4253    2.3525    0.8320 H   0  0  0  0  0  0  0  0  0  0  0  0
   -4.6731    4.0874    0.5598 H   0  0  0  0  0  0  0  0  0  0  0  0
    6.7312    2.5937   -1.7529 H   0  0  0  0  0  0  0  0  0  0  0  0
    8.1057    1.6883    0.3019 H   0  0  0  0  0  0  0  0  0  0  0  0
  1 11  1  0  0  0  0
  1 15  1  0  0  0  0
  2 16  1  0  0  0  0
  2 24  1  0  0  0  0
  3 20  1  0  0  0  0
  4  6  1  0  0  0  0
  4 12  1  0  0  0  0
  5  7  1  0  0  0  0
  5 13  1  0  0  0  0
  5 15  1  0  0  0  0
  6 10  2  0  0  0  0
  7  9  2  0  0  0  0
  8  9  1  0  0  0  0
  8 15  2  0  0  0  0
 10 11  1  0  0  0  0
 10 14  1  0  0  0  0
 11 25  1  0  0  0  0
 11 26  1  0  0  0  0
 12 14  2  0  0  0  0
 12 16  1  0  0  0  0
 13 17  2  0  0  0  0
 13 18  1  0  0  0  0
 14 27  1  0  0  0  0
 16 19  2  0  0  0  0
 17 20  1  0  0  0  0
 17 28  1  0  0  0  0
 18 21  2  0  0  0  0
 18 29  1  0  0  0  0
 19 23  1  0  0  0  0
 19 30  1  0  0  0  0
 20 22  2  0  0  0  0
 21 22  1  0  0  0  0
 21 31  1  0  0  0  0
 22 32  1  0  0  0  0
 23 24  2  0  0  0  0
 23 33  1  0  0  0  0
 24 34  1  0  0  0  0
M  END
> <PUBCHEM_COMPOUND_CID>
17395482

> <PUBCHEM_CONFORMER_RMSD>
1

> <PUBCHEM_CONFORMER_DIVERSEORDER>
5
199
77
202
53
113
161
21
17
180
168
9
122
69
74
79
82
66
18
186
121
137
182
68
56
204
125
36
71
162
19
139
184
2
147
11
167
160
148
58
200
15
50
63
117
28
44
37
172
94
130
8
165
105
16
59
20
98
89
87
128
51
175
48
197
7
193
152
157
43
136
95
34
198
187
3
73
13
45
118
91
23
1
131
64
145
92
196
96
6
188
108
124
183
67
203
49
4
81
38
141
88
75
176
84
42
116
201
33
83
151
14
163
109
112
24
55
166
185
72
26
170
142
173
25
101
110
194
144
85
61
52
126
78
86
57
104
190
29
111
30
158
143
100
119
80
127
97
120
146
99
39
123
114
134
178
206
90
129
169
10
191
102
47
153
138
22
46
164
107
76
12
31
159
65
41
171
192
133
103
179
150
40
135
27
70
32
155
189
149
154
174
140
35
205
115
62
181
132
60
54
93
195
177
156
106

> <PUBCHEM_MMFF94_PARTIAL_CHARGES>
31
1 -0.29
10 0.11
11 0.41
12 0.14
13 -0.02
14 -0.15
15 0.24
16 0.04
17 -0.15
18 -0.15
19 -0.15
2 -0.08
20 0.19
21 -0.15
22 -0.15
23 -0.15
24 -0.11
27 0.15
28 0.15
29 0.15
3 -0.19
30 0.15
31 0.15
32 0.15
33 0.15
34 0.15
4 -0.02
5 0.59
6 -0.41
7 -0.42
8 -0.34

> <PUBCHEM_EFFECTIVE_ROTOR_COUNT>
5

> <PUBCHEM_PHARMACOPHORE_FEATURES>
6
1 6 acceptor
3 5 8 15 cation
5 2 16 19 23 24 rings
5 4 6 10 12 14 rings
5 5 7 8 9 15 rings
6 13 17 18 20 21 22 rings

> <PUBCHEM_HEAVY_ATOM_COUNT>
24

> <PUBCHEM_ATOM_DEF_STEREO_COUNT>
0

> <PUBCHEM_ATOM_UDEF_STEREO_COUNT>
0

> <PUBCHEM_BOND_DEF_STEREO_COUNT>
0

> <PUBCHEM_BOND_UDEF_STEREO_COUNT>
0

> <PUBCHEM_ISOTOPIC_ATOM_COUNT>
0

> <PUBCHEM_COMPONENT_COUNT>
1

> <PUBCHEM_CACTVS_TAUTO_COUNT>
1

> <PUBCHEM_CONFORMER_ID>
01096F1A00000005

> <PUBCHEM_MMFF94_ENERGY>
48.0297

> <PUBCHEM_FEATURE_SELFOVERLAP>
30.446

> <PUBCHEM_SHAPE_FINGERPRINT>
10087517 78 18411984637163870052
10411042 1 17904765475756055559
10595046 47 18412830157675068570
10670039 82 18410015403744324364
11101153 10 18194403281839112893
12107183 9 18053111906460368018
12596602 18 17418374696673329553
12895837 130 18340760472982156633
13167372 99 18413672405583574610
14251764 75 17974278030855808809
14289585 56 14201390625364171168
14341114 328 18343585148792847436
14598715 104 17750250127672963648
14739800 52 18338813234295615992
14765038 42 18042106812994613609
15289351 153 18195815069089584592
15348495 7 11527951123757690054
155225 5 18335699507028317560
15604295 49 18117281347200621256
15778101 99 18408318895546018830
15876981 60 18267303140929006711
16126227 98 18260822744260578769
17980427 23 18202279173970716902
19377110 9 18131636672846303026
19427546 20 18410578345445798263
20101258 96 18122057603608764915
20511986 3 18059583519651733749
21302155 148 18410852200253713644
245318 6 17344325784505134988
24771293 8 18187074080380863033
2838139 119 18337391544301986096
397830 11 11527661922477517022
441001 317 18410856538418440010
44249763 50 17604446093656841490
445580 204 18412823561005741272
4487111 67 18266460004258013048
5104073 3 17917992793504943794
6299153 45 18270403918765587634
6327066 14 18339083821509560605
636775 72 18193558853743525184
6700243 42 17539088837115765814
7062679 6 18411979157138800788
7808743 9 18409450310106369763
9981440 41 18343295972523752347

> <PUBCHEM_SHAPE_MULTIPOLES>
463.56
17.51
3.65
0.94
19.4
0.82
0.04
10.6
-0.14
-5.31
-0.28
0.9
-0.07
-2.15

> <PUBCHEM_SHAPE_SELFOVERLAP>
994.251

> <PUBCHEM_SHAPE_VOLUME>
259.2

> <PUBCHEM_COORDINATE_TYPE>
2
5
10

$$$$

