6220
  -OEChem-06261201112D

 66 70  0     1  0  0  0  0  0999 V2000
   10.4276    2.5489    0.0000 O   0  0  0  0  0  0  0  0  0  0  0  0
    4.4455   -2.5030    0.0000 O   0  0  0  0  0  0  0  0  0  0  0  0
    9.8385    0.5493    0.0000 C   0  0  3  0  0  0  0  0  0  0  0  0
    9.8385   -0.4507    0.0000 C   0  0  3  0  0  0  0  0  0  0  0  0
    8.9725   -0.9507    0.0000 C   0  0  3  0  0  0  0  0  0  0  0  0
    8.1065   -0.4507    0.0000 C   0  0  3  0  0  0  0  0  0  0  0  0
   10.7848    0.8540    0.0000 C   0  0  3  0  0  0  0  0  0  0  0  0
    8.9725    1.0493    0.0000 C   0  0  0  0  0  0  0  0  0  0  0  0
    7.1965   -0.9575    0.0000 C   0  0  3  0  0  0  0  0  0  0  0  0
    8.1065    0.5493    0.0000 C   0  0  0  0  0  0  0  0  0  0  0  0
   10.7848   -0.7554    0.0000 C   0  0  0  0  0  0  0  0  0  0  0  0
   11.3684    0.0493    0.0000 C   0  0  0  0  0  0  0  0  0  0  0  0
    8.9886   -1.9922    0.0000 C   0  0  0  0  0  0  0  0  0  0  0  0
    9.8385    1.5493    0.0000 C   0  0  0  0  0  0  0  0  0  0  0  0
    7.1885   -1.9991    0.0000 C   0  0  0  0  0  0  0  0  0  0  0  0
    6.2697   -0.3935    0.0000 C   0  0  0  0  0  0  0  0  0  0  0  0
    8.0905   -2.5200    0.0000 C   0  0  0  0  0  0  0  0  0  0  0  0
    7.2042    0.0424    0.0000 C   0  0  0  0  0  0  0  0  0  0  0  0
   11.0954    1.8046    0.0000 C   0  0  0  0  0  0  0  0  0  0  0  0
    5.3218   -0.9214    0.0000 C   0  0  0  0  0  0  0  0  0  0  0  0
    6.2530   -2.5489    0.0000 C   0  0  0  0  0  0  0  0  0  0  0  0
    5.3134   -2.0064    0.0000 C   0  0  0  0  0  0  0  0  0  0  0  0
   12.0739    2.0108    0.0000 C   0  0  0  0  0  0  0  0  0  0  0  0
    3.5814   -1.9997    0.0000 C   0  0  0  0  0  0  0  0  0  0  0  0
    3.4807   -1.0048    0.0000 C   0  0  0  0  0  0  0  0  0  0  0  0
    2.6663   -2.4029    0.0000 C   0  0  0  0  0  0  0  0  0  0  0  0
    2.5033   -0.7931    0.0000 C   0  0  0  0  0  0  0  0  0  0  0  0
    2.0000   -1.6572    0.0000 C   0  0  0  0  0  0  0  0  0  0  0  0
    9.9042   -1.0672    0.0000 H   0  0  0  0  0  0  0  0  0  0  0  0
    9.5118   -1.2565    0.0000 H   0  0  0  0  0  0  0  0  0  0  0  0
    8.6434   -0.1407    0.0000 H   0  0  0  0  0  0  0  0  0  0  0  0
   10.3473    1.2934    0.0000 H   0  0  0  0  0  0  0  0  0  0  0  0
    9.3710    1.5243    0.0000 H   0  0  0  0  0  0  0  0  0  0  0  0
    8.5740    1.5243    0.0000 H   0  0  0  0  0  0  0  0  0  0  0  0
    7.8944    1.1319    0.0000 H   0  0  0  0  0  0  0  0  0  0  0  0
    7.4959    0.4416    0.0000 H   0  0  0  0  0  0  0  0  0  0  0  0
   10.5337   -1.3223    0.0000 H   0  0  0  0  0  0  0  0  0  0  0  0
   11.3221   -1.0647    0.0000 H   0  0  0  0  0  0  0  0  0  0  0  0
   11.8292   -0.3654    0.0000 H   0  0  0  0  0  0  0  0  0  0  0  0
   11.8292    0.4640    0.0000 H   0  0  0  0  0  0  0  0  0  0  0  0
    9.2066   -2.5726    0.0000 H   0  0  0  0  0  0  0  0  0  0  0  0
    9.5977   -1.8767    0.0000 H   0  0  0  0  0  0  0  0  0  0  0  0
   10.4585    1.5493    0.0000 H   0  0  0  0  0  0  0  0  0  0  0  0
    9.8385    2.1693    0.0000 H   0  0  0  0  0  0  0  0  0  0  0  0
    9.2185    1.5493    0.0000 H   0  0  0  0  0  0  0  0  0  0  0  0
    6.6779    0.0732    0.0000 H   0  0  0  0  0  0  0  0  0  0  0  0
    5.8797    0.0886    0.0000 H   0  0  0  0  0  0  0  0  0  0  0  0
    8.0929   -3.1399    0.0000 H   0  0  0  0  0  0  0  0  0  0  0  0
    7.8242    0.0377    0.0000 H   0  0  0  0  0  0  0  0  0  0  0  0
    7.2090    0.6624    0.0000 H   0  0  0  0  0  0  0  0  0  0  0  0
    6.5842    0.0472    0.0000 H   0  0  0  0  0  0  0  0  0  0  0  0
    5.1172   -0.3361    0.0000 H   0  0  0  0  0  0  0  0  0  0  0  0
    4.7101   -1.0228    0.0000 H   0  0  0  0  0  0  0  0  0  0  0  0
    6.2554   -3.1689    0.0000 H   0  0  0  0  0  0  0  0  0  0  0  0
   12.2018    1.4041    0.0000 H   0  0  0  0  0  0  0  0  0  0  0  0
   12.6806    2.1386    0.0000 H   0  0  0  0  0  0  0  0  0  0  0  0
   11.9461    2.6174    0.0000 H   0  0  0  0  0  0  0  0  0  0  0  0
    4.1026   -1.6640    0.0000 H   0  0  0  0  0  0  0  0  0  0  0  0
    4.1007   -1.0072    0.0000 H   0  0  0  0  0  0  0  0  0  0  0  0
    3.5479   -0.3884    0.0000 H   0  0  0  0  0  0  0  0  0  0  0  0
    2.1633   -2.7654    0.0000 H   0  0  0  0  0  0  0  0  0  0  0  0
    2.9742   -2.9410    0.0000 H   0  0  0  0  0  0  0  0  0  0  0  0
    1.4998   -1.2908    0.0000 H   0  0  0  0  0  0  0  0  0  0  0  0
    1.5834   -2.1163    0.0000 H   0  0  0  0  0  0  0  0  0  0  0  0
    2.6972   -0.2042    0.0000 H   0  0  0  0  0  0  0  0  0  0  0  0
    1.9379   -0.5387    0.0000 H   0  0  0  0  0  0  0  0  0  0  0  0
  1 19  2  0  0  0  0
  2 22  1  0  0  0  0
  2 24  1  0  0  0  0
  3  4  1  0  0  0  0
  3  7  1  0  0  0  0
  3  8  1  0  0  0  0
  3 14  1  0  0  0  0
  4  5  1  0  0  0  0
  4 11  1  0  0  0  0
  4 29  1  0  0  0  0
  5  6  1  0  0  0  0
  5 13  1  0  0  0  0
  5 30  1  0  0  0  0
  6  9  1  0  0  0  0
  6 10  1  0  0  0  0
  6 31  1  0  0  0  0
  7 12  1  0  0  0  0
  7 19  1  0  0  0  0
  7 32  1  0  0  0  0
  8 10  1  0  0  0  0
  8 33  1  0  0  0  0
  8 34  1  0  0  0  0
  9 15  1  0  0  0  0
  9 16  1  0  0  0  0
  9 18  1  0  0  0  0
 10 35  1  0  0  0  0
 10 36  1  0  0  0  0
 11 12  1  0  0  0  0
 11 37  1  0  0  0  0
 11 38  1  0  0  0  0
 12 39  1  0  0  0  0
 12 40  1  0  0  0  0
 13 17  1  0  0  0  0
 13 41  1  0  0  0  0
 13 42  1  0  0  0  0
 14 43  1  0  0  0  0
 14 44  1  0  0  0  0
 14 45  1  0  0  0  0
 15 17  2  0  0  0  0
 15 21  1  0  0  0  0
 16 20  1  0  0  0  0
 16 46  1  0  0  0  0
 16 47  1  0  0  0  0
 17 48  1  0  0  0  0
 18 49  1  0  0  0  0
 18 50  1  0  0  0  0
 18 51  1  0  0  0  0
 19 23  1  0  0  0  0
 20 22  1  0  0  0  0
 20 52  1  0  0  0  0
 20 53  1  0  0  0  0
 21 22  2  0  0  0  0
 21 54  1  0  0  0  0
 23 55  1  0  0  0  0
 23 56  1  0  0  0  0
 23 57  1  0  0  0  0
 24 25  1  0  0  0  0
 24 26  1  0  0  0  0
 24 58  1  0  0  0  0
 25 27  1  0  0  0  0
 25 59  1  0  0  0  0
 25 60  1  0  0  0  0
 26 28  1  0  0  0  0
 26 61  1  0  0  0  0
 26 62  1  0  0  0  0
 27 28  1  0  0  0  0
 27 65  1  0  0  0  0
 27 66  1  0  0  0  0
 28 63  1  0  0  0  0
 28 64  1  0  0  0  0
M  END
> <PUBCHEM_COMPOUND_CID>
6220

> <PUBCHEM_COMPOUND_CANONICALIZED>
1

> <PUBCHEM_CACTVS_COMPLEXITY>
712

> <PUBCHEM_CACTVS_HBOND_ACCEPTOR>
2

> <PUBCHEM_CACTVS_HBOND_DONOR>
0

> <PUBCHEM_CACTVS_ROTATABLE_BOND>
3

> <PUBCHEM_CACTVS_SUBSKEYS>
AAADcfB4MAAAAAAAAAAAAAAAAAAAAYMAAAAwQIAAAAAAAGCAAAAAGgAAAAAADxSggAICAAAABACIAqBSAAAACAAgIAAACAEAAAgIABIAAQACAAAEgAAIgAOIyPCPgAAAAAAAAACAAAQAACAAAQAACAAAAA==

> <PUBCHEM_IUPAC_OPENEYE_NAME>
1-[3-(cyclopentoxy)-10,13-dimethyl-2,7,8,9,11,12,14,15,16,17-decahydro-1H-cyclopenta[a]phenanthren-17-yl]ethanone

> <PUBCHEM_IUPAC_CAS_NAME>
1-(3-cyclopentyloxy-10,13-dimethyl-2,7,8,9,11,12,14,15,16,17-decahydro-1H-cyclopenta[a]phenanthren-17-yl)ethanone

> <PUBCHEM_IUPAC_NAME>
1-(3-cyclopentyloxy-10,13-dimethyl-2,7,8,9,11,12,14,15,16,17-decahydro-1H-cyclopenta[a]phenanthren-17-yl)ethanone

> <PUBCHEM_IUPAC_SYSTEMATIC_NAME>
1-(3-cyclopentyloxy-10,13-dimethyl-2,7,8,9,11,12,14,15,16,17-decahydro-1H-cyclopenta[a]phenanthren-17-yl)ethanone

> <PUBCHEM_IUPAC_TRADITIONAL_NAME>
1-[3-(cyclopentoxy)-10,13-dimethyl-2,7,8,9,11,12,14,15,16,17-decahydro-1H-cyclopenta[a]phenanthren-17-yl]ethanone

> <PUBCHEM_IUPAC_INCHI>
InChI=1S/C26H38O2/c1-17(27)22-10-11-23-21-9-8-18-16-20(28-19-6-4-5-7-19)12-14-25(18,2)24(21)13-15-26(22,23)3/h8,16,19,21-24H,4-7,9-15H2,1-3H3

> <PUBCHEM_IUPAC_INCHIKEY>
XAVRSHOUEXATJE-UHFFFAOYSA-N

> <PUBCHEM_XLOGP3>
6.2

> <PUBCHEM_EXACT_MASS>
382.28718

> <PUBCHEM_MOLECULAR_FORMULA>
C26H38O2

> <PUBCHEM_MOLECULAR_WEIGHT>
382.57872

> <PUBCHEM_OPENEYE_CAN_SMILES>
CC(=O)C1CCC2C1(CCC3C2CC=C4C3(CCC(=C4)OC5CCCC5)C)C

> <PUBCHEM_OPENEYE_ISO_SMILES>
CC(=O)C1CCC2C1(CCC3C2CC=C4C3(CCC(=C4)OC5CCCC5)C)C

> <PUBCHEM_CACTVS_TPSA>
26.3

> <PUBCHEM_MONOISOTOPIC_WEIGHT>
382.28718

> <PUBCHEM_TOTAL_CHARGE>
0

> <PUBCHEM_HEAVY_ATOM_COUNT>
28

> <PUBCHEM_ATOM_DEF_STEREO_COUNT>
0

> <PUBCHEM_ATOM_UDEF_STEREO_COUNT>
6

> <PUBCHEM_BOND_DEF_STEREO_COUNT>
0

> <PUBCHEM_BOND_UDEF_STEREO_COUNT>
0

> <PUBCHEM_ISOTOPIC_ATOM_COUNT>
0

> <PUBCHEM_COMPONENT_COUNT>
1

> <PUBCHEM_CACTVS_TAUTO_COUNT>
3

> <PUBCHEM_COORDINATE_TYPE>
1
5
255

> <PUBCHEM_BONDANNOTATIONS>
3  14  3
4  11  3
5  13  3
6  10  3
7  19  3
9  18  3

$$$$

