3797
  -OEChem-06251223413D

 50 52  0     1  0  0  0  0  0999 V2000
   -0.3576   -1.1431   -1.2269 O   0  0  0  0  0  0  0  0  0  0  0  0
    2.7739    1.3390    0.1337 N   0  0  1  0  0  0  0  0  0  0  0  0
    2.3993    2.7172   -0.1871 C   0  0  0  0  0  0  0  0  0  0  0  0
    1.7941    0.4022   -0.4045 C   0  0  0  0  0  0  0  0  0  0  0  0
    4.1098    1.0418   -0.3858 C   0  0  0  0  0  0  0  0  0  0  0  0
    0.3872    0.7296    0.0959 C   0  0  0  0  0  0  0  0  0  0  0  0
    2.3921    2.9253   -1.6989 C   0  0  0  0  0  0  0  0  0  0  0  0
    3.3684    3.6784    0.4938 C   0  0  0  0  0  0  0  0  0  0  0  0
    4.5578   -0.3482   -0.0194 C   0  0  0  0  0  0  0  0  0  0  0  0
   -0.6939   -0.2154   -0.4625 C   0  0  0  0  0  0  0  0  0  0  0  0
   -2.0880   -0.0203   -0.0980 C   0  0  0  0  0  0  0  0  0  0  0  0
    5.2522   -0.5525    1.1648 C   0  0  0  0  0  0  0  0  0  0  0  0
    4.2704   -1.4055   -0.8712 C   0  0  0  0  0  0  0  0  0  0  0  0
   -3.0674   -0.8763   -0.6025 C   0  0  0  0  0  0  0  0  0  0  0  0
   -4.4180   -0.7013   -0.2596 C   0  0  0  0  0  0  0  0  0  0  0  0
   -2.4445    1.0199    0.7551 C   0  0  0  0  0  0  0  0  0  0  0  0
   -4.7804    0.3565    0.6079 C   0  0  0  0  0  0  0  0  0  0  0  0
   -3.7815    1.2083    1.1067 C   0  0  0  0  0  0  0  0  0  0  0  0
    5.6677   -1.8403    1.5040 C   0  0  0  0  0  0  0  0  0  0  0  0
    4.6857   -2.6932   -0.5320 C   0  0  0  0  0  0  0  0  0  0  0  0
    5.3843   -2.9105    0.6556 C   0  0  0  0  0  0  0  0  0  0  0  0
   -5.4167   -1.5535   -0.7582 C   0  0  0  0  0  0  0  0  0  0  0  0
   -6.1311    0.5313    0.9507 C   0  0  0  0  0  0  0  0  0  0  0  0
   -6.7538   -1.3650   -0.4072 C   0  0  0  0  0  0  0  0  0  0  0  0
   -7.1102   -0.3245    0.4456 C   0  0  0  0  0  0  0  0  0  0  0  0
    1.4282    2.9855    0.2362 H   0  0  0  0  0  0  0  0  0  0  0  0
    1.9886   -0.6057   -0.0214 H   0  0  0  0  0  0  0  0  0  0  0  0
    1.8103    0.3236   -1.4978 H   0  0  0  0  0  0  0  0  0  0  0  0
    4.8699    1.7224    0.0127 H   0  0  0  0  0  0  0  0  0  0  0  0
    4.1792    1.1189   -1.4774 H   0  0  0  0  0  0  0  0  0  0  0  0
    0.3625    0.6842    1.1907 H   0  0  0  0  0  0  0  0  0  0  0  0
    0.0653    1.7149   -0.2515 H   0  0  0  0  0  0  0  0  0  0  0  0
    2.0379    3.9442   -1.9051 H   0  0  0  0  0  0  0  0  0  0  0  0
    3.3805    2.8691   -2.1642 H   0  0  0  0  0  0  0  0  0  0  0  0
    1.7042    2.2691   -2.2377 H   0  0  0  0  0  0  0  0  0  0  0  0
    3.5209    3.4201    1.5480 H   0  0  0  0  0  0  0  0  0  0  0  0
    2.9541    4.6939    0.4721 H   0  0  0  0  0  0  0  0  0  0  0  0
    4.3436    3.7398    0.0001 H   0  0  0  0  0  0  0  0  0  0  0  0
    5.4761    0.2731    1.8344 H   0  0  0  0  0  0  0  0  0  0  0  0
    3.7402   -1.2518   -1.8067 H   0  0  0  0  0  0  0  0  0  0  0  0
   -2.7919   -1.6912   -1.2698 H   0  0  0  0  0  0  0  0  0  0  0  0
   -1.7187    1.7096    1.1740 H   0  0  0  0  0  0  0  0  0  0  0  0
   -4.0378    2.0276    1.7752 H   0  0  0  0  0  0  0  0  0  0  0  0
    6.2112   -2.0096    2.4289 H   0  0  0  0  0  0  0  0  0  0  0  0
    4.4679   -3.5261   -1.1940 H   0  0  0  0  0  0  0  0  0  0  0  0
    5.7082   -3.9131    0.9193 H   0  0  0  0  0  0  0  0  0  0  0  0
   -5.1614   -2.3735   -1.4264 H   0  0  0  0  0  0  0  0  0  0  0  0
   -6.4326    1.3378    1.6159 H   0  0  0  0  0  0  0  0  0  0  0  0
   -7.5166   -2.0311   -0.7999 H   0  0  0  0  0  0  0  0  0  0  0  0
   -8.1513   -0.1784    0.7184 H   0  0  0  0  0  0  0  0  0  0  0  0
  1 10  2  0  0  0  0
  2  3  1  0  0  0  0
  2  4  1  0  0  0  0
  2  5  1  0  0  0  0
  3  7  1  0  0  0  0
  3  8  1  0  0  0  0
  3 26  1  0  0  0  0
  4  6  1  0  0  0  0
  4 27  1  0  0  0  0
  4 28  1  0  0  0  0
  5  9  1  0  0  0  0
  5 29  1  0  0  0  0
  5 30  1  0  0  0  0
  6 10  1  0  0  0  0
  6 31  1  0  0  0  0
  6 32  1  0  0  0  0
  7 33  1  0  0  0  0
  7 34  1  0  0  0  0
  7 35  1  0  0  0  0
  8 36  1  0  0  0  0
  8 37  1  0  0  0  0
  8 38  1  0  0  0  0
  9 12  2  0  0  0  0
  9 13  1  0  0  0  0
 10 11  1  0  0  0  0
 11 14  2  0  0  0  0
 11 16  1  0  0  0  0
 12 19  1  0  0  0  0
 12 39  1  0  0  0  0
 13 20  2  0  0  0  0
 13 40  1  0  0  0  0
 14 15  1  0  0  0  0
 14 41  1  0  0  0  0
 15 17  1  0  0  0  0
 15 22  2  0  0  0  0
 16 18  2  0  0  0  0
 16 42  1  0  0  0  0
 17 18  1  0  0  0  0
 17 23  2  0  0  0  0
 18 43  1  0  0  0  0
 19 21  2  0  0  0  0
 19 44  1  0  0  0  0
 20 21  1  0  0  0  0
 20 45  1  0  0  0  0
 21 46  1  0  0  0  0
 22 24  1  0  0  0  0
 22 47  1  0  0  0  0
 23 25  1  0  0  0  0
 23 48  1  0  0  0  0
 24 25  2  0  0  0  0
 24 49  1  0  0  0  0
 25 50  1  0  0  0  0
M  END
> <PUBCHEM_COMPOUND_CID>
3797

> <PUBCHEM_CONFORMER_RMSD>
0.8

> <PUBCHEM_CONFORMER_DIVERSEORDER>
1
205
130
18
26
124
189
219
36
29
51
233
72
138
215
53
225
180
55
173
49
56
210
184
214
204
2
54
40
143
5
3
125
239
238
50
202
126
95
86
240
131
80
61
151
142
147
232
167
179
41
120
181
30
146
57
227
9
216
132
105
235
28
171
208
231
82
141
222
195
107
13
206
236
21
122
193
229
11
108
110
47
7
140
234
144
175
185
8
22
6
203
156
4
161
24
90
201
178
154
213
77
73
62
129
68
16
152
212
168
127
237
197
87
226
64
177
123
218
128
63
38
88
230
188
113
32
187
150
224
20
223
92
60
67
69
44
106
191
116
65
23
94
135
46
19
59
207
58
170
172
217
14
104
182
211
145
119
96
153
109
139
34
158
121
97
101
98
10
149
27
81
35
31
115
186
137
162
12
136
99
84
78
15
33
25
39
241
17
117
75
192
74
209
183
52
48
169
45
111
220
103
155
85
157
166
164
83
70
43
221
176
100
134
112
198
76
159
165
71
37
114
199
200
163
194
42
228
89
118
174
79
91
66
190
133
196
148
160
102
93

> <PUBCHEM_MMFF94_PARTIAL_CHARGES>
33
1 -0.57
10 0.42
11 0.09
12 -0.15
13 -0.15
14 -0.15
16 -0.15
18 -0.15
19 -0.15
2 -0.81
20 -0.15
21 -0.15
22 -0.15
23 -0.15
24 -0.15
25 -0.15
3 0.27
39 0.15
4 0.27
40 0.15
41 0.15
42 0.15
43 0.15
44 0.15
45 0.15
46 0.15
47 0.15
48 0.15
49 0.15
5 0.41
50 0.15
6 0.06
9 -0.14

> <PUBCHEM_EFFECTIVE_ROTOR_COUNT>
7

> <PUBCHEM_PHARMACOPHORE_FEATURES>
6
1 1 acceptor
1 2 cation
3 3 7 8 hydrophobe
6 11 14 15 16 17 18 rings
6 15 17 22 23 24 25 rings
6 9 12 13 19 20 21 rings

> <PUBCHEM_HEAVY_ATOM_COUNT>
25

> <PUBCHEM_ATOM_DEF_STEREO_COUNT>
0

> <PUBCHEM_ATOM_UDEF_STEREO_COUNT>
0

> <PUBCHEM_BOND_DEF_STEREO_COUNT>
0

> <PUBCHEM_BOND_UDEF_STEREO_COUNT>
0

> <PUBCHEM_ISOTOPIC_ATOM_COUNT>
0

> <PUBCHEM_COMPONENT_COUNT>
1

> <PUBCHEM_CACTVS_TAUTO_COUNT>
2

> <PUBCHEM_CONFORMER_ID>
00000ED500000001

> <PUBCHEM_MMFF94_ENERGY>
77.3179

> <PUBCHEM_FEATURE_SELFOVERLAP>
30.472

> <PUBCHEM_SHAPE_FINGERPRINT>
10 15 16588032298511369114
10595046 47 18189050911328633553
11719270 70 17749388191723471567
11756154 67 17899403470969131654
12107183 9 18119238704364940057
12166972 35 18333729130487607672
12236239 1 18408884019296107009
12616971 3 18187366506764374013
13533116 47 18412544284297918728
1361 2 18411699919830502634
13673619 4 17775288304696052926
13782708 43 17917710197694573755
13785724 45 18044364157611006334
13911852 28 18198346350070402954
13914758 101 18271811267905586965
14211702 104 18341888533753902379
14251764 18 18407760326728141374
14347332 77 18411419544359559917
14739800 52 17604718733675712024
15183329 4 18334852818765503543
15250474 111 18042416732980621471
15419008 42 17753611553277006381
1577012 14 18333444327438691337
16992610 120 18192149293275642656
17844677 252 18202566185397882325
17857418 61 18408604764269076507
1813 80 18272930570489475100
1979834 28 17458624557987587334
20028762 73 18333732441907879942
21344244 78 18186529808544348072
21365058 113 16988553632876402844
21792934 111 18113337536160885617
22061861 79 17203609302323043771
22149856 69 16515945010061664495
2303208 19 17060333003438891523
23081809 10 18113897110011282573
23522609 53 18124562453535702861
23559900 14 16415186841869173677
249057 25 18114455713379056177
3004659 81 18114453492274250436
345986 75 18268158737280000520
34797466 226 15697990804264719311
3680242 22 18187072945660489393
397830 11 5689301487076390015
4073 2 18126843798560376642
5104073 3 18188199915182519745
8509985 295 17821728334279246272

> <PUBCHEM_SHAPE_MULTIPOLES>
503.64
18.53
3.21
1.19
16.83
1.67
-0.01
-10.12
-3.75
-6.57
0.25
-0.57
0.06
-1.94

> <PUBCHEM_SHAPE_SELFOVERLAP>
1080.897

> <PUBCHEM_SHAPE_VOLUME>
279.9

> <PUBCHEM_COORDINATE_TYPE>
2
5
10

$$$$

