13484
  -OEChem-06261214422D

 55 55  0     1  0  0  0  0  0999 V2000
    8.4871    5.8700    0.0000 Cl  0  5  0  0  0  0  0  0  0  0  0  0
    2.4860    8.1200    0.0000 S   0  0  0  0  0  0  0  0  0  0  0  0
    3.3520    3.6200    0.0000 S   0  0  0  0  0  0  0  0  0  0  0  0
    1.6200   10.6200    0.0000 N   0  3  0  0  0  0  0  0  0  0  0  0
    1.6200    9.6200    0.0000 C   0  0  0  0  0  0  0  0  0  0  0  0
    3.3520    7.6200    0.0000 C   0  0  3  0  0  0  0  0  0  0  0  0
    2.4860    9.1200    0.0000 C   0  0  0  0  0  0  0  0  0  0  0  0
    3.3520    6.6200    0.0000 C   0  0  0  0  0  0  0  0  0  0  0  0
    1.6200   11.6200    0.0000 C   0  0  0  0  0  0  0  0  0  0  0  0
    0.6200   10.6200    0.0000 C   0  0  0  0  0  0  0  0  0  0  0  0
    4.2181    8.1200    0.0000 C   0  0  0  0  0  0  0  0  0  0  0  0
    2.4860    6.1200    0.0000 C   0  0  0  0  0  0  0  0  0  0  0  0
    4.2181    6.1200    0.0000 C   0  0  0  0  0  0  0  0  0  0  0  0
    5.0841    7.6200    0.0000 C   0  0  0  0  0  0  0  0  0  0  0  0
    4.2181    9.1200    0.0000 C   0  0  0  0  0  0  0  0  0  0  0  0
    3.3520    4.6200    0.0000 C   0  0  0  0  0  0  0  0  0  0  0  0
    2.4860    5.1200    0.0000 C   0  0  0  0  0  0  0  0  0  0  0  0
    4.2181    5.1200    0.0000 C   0  0  0  0  0  0  0  0  0  0  0  0
    2.4860    2.1200    0.0000 C   0  0  0  0  0  0  0  0  0  0  0  0
    2.4860    3.1200    0.0000 C   0  0  0  0  0  0  0  0  0  0  0  0
    1.6200    1.6200    0.0000 C   0  0  0  0  0  0  0  0  0  0  0  0
    5.9501    8.1200    0.0000 C   0  0  0  0  0  0  0  0  0  0  0  0
    5.0841    9.6200    0.0000 C   0  0  0  0  0  0  0  0  0  0  0  0
    5.9501    9.1200    0.0000 C   0  0  0  0  0  0  0  0  0  0  0  0
    1.6200    0.6200    0.0000 C   0  0  0  0  0  0  0  0  0  0  0  0
    2.2400   10.6200    0.0000 H   0  0  0  0  0  0  0  0  0  0  0  0
    1.0094    9.7277    0.0000 H   0  0  0  0  0  0  0  0  0  0  0  0
    1.4080    9.0374    0.0000 H   0  0  0  0  0  0  0  0  0  0  0  0
    3.3520    8.4700    0.0000 H   0  0  0  0  0  0  0  0  0  0  0  0
    3.0966    9.0123    0.0000 H   0  0  0  0  0  0  0  0  0  0  0  0
    2.6981    9.7026    0.0000 H   0  0  0  0  0  0  0  0  0  0  0  0
    0.6200   11.2400    0.0000 H   0  0  0  0  0  0  0  0  0  0  0  0
    0.0000   10.6200    0.0000 H   0  0  0  0  0  0  0  0  0  0  0  0
    0.6200   10.0000    0.0000 H   0  0  0  0  0  0  0  0  0  0  0  0
    2.2400   11.6200    0.0000 H   0  0  0  0  0  0  0  0  0  0  0  0
    1.6200   12.2400    0.0000 H   0  0  0  0  0  0  0  0  0  0  0  0
    1.0000   11.6200    0.0000 H   0  0  0  0  0  0  0  0  0  0  0  0
    1.9491    6.4300    0.0000 H   0  0  0  0  0  0  0  0  0  0  0  0
    4.7550    6.4300    0.0000 H   0  0  0  0  0  0  0  0  0  0  0  0
    5.0841    7.0000    0.0000 H   0  0  0  0  0  0  0  0  0  0  0  0
    3.6811    9.4300    0.0000 H   0  0  0  0  0  0  0  0  0  0  0  0
    1.9491    4.8100    0.0000 H   0  0  0  0  0  0  0  0  0  0  0  0
    4.7550    4.8100    0.0000 H   0  0  0  0  0  0  0  0  0  0  0  0
    2.6981    1.5374    0.0000 H   0  0  0  0  0  0  0  0  0  0  0  0
    3.0966    2.2277    0.0000 H   0  0  0  0  0  0  0  0  0  0  0  0
    2.2740    3.7026    0.0000 H   0  0  0  0  0  0  0  0  0  0  0  0
    1.8754    3.0123    0.0000 H   0  0  0  0  0  0  0  0  0  0  0  0
    1.4080    2.2026    0.0000 H   0  0  0  0  0  0  0  0  0  0  0  0
    1.0094    1.5123    0.0000 H   0  0  0  0  0  0  0  0  0  0  0  0
    6.4871    7.8100    0.0000 H   0  0  0  0  0  0  0  0  0  0  0  0
    5.0841   10.2400    0.0000 H   0  0  0  0  0  0  0  0  0  0  0  0
    6.4871    9.4300    0.0000 H   0  0  0  0  0  0  0  0  0  0  0  0
    1.0000    0.6200    0.0000 H   0  0  0  0  0  0  0  0  0  0  0  0
    1.6200    0.0000    0.0000 H   0  0  0  0  0  0  0  0  0  0  0  0
    2.2400    0.6200    0.0000 H   0  0  0  0  0  0  0  0  0  0  0  0
  2  6  1  0  0  0  0
  2  7  1  0  0  0  0
  3 16  1  0  0  0  0
  3 20  1  0  0  0  0
  4  5  1  0  0  0  0
  4  9  1  0  0  0  0
  4 10  1  0  0  0  0
  4 26  1  0  0  0  0
  5  7  1  0  0  0  0
  5 27  1  0  0  0  0
  5 28  1  0  0  0  0
  6  8  1  0  0  0  0
  6 11  1  0  0  0  0
  6 29  1  0  0  0  0
  7 30  1  0  0  0  0
  7 31  1  0  0  0  0
  8 12  2  0  0  0  0
  8 13  1  0  0  0  0
  9 35  1  0  0  0  0
  9 36  1  0  0  0  0
  9 37  1  0  0  0  0
 10 32  1  0  0  0  0
 10 33  1  0  0  0  0
 10 34  1  0  0  0  0
 11 14  2  0  0  0  0
 11 15  1  0  0  0  0
 12 17  1  0  0  0  0
 12 38  1  0  0  0  0
 13 18  2  0  0  0  0
 13 39  1  0  0  0  0
 14 22  1  0  0  0  0
 14 40  1  0  0  0  0
 15 23  2  0  0  0  0
 15 41  1  0  0  0  0
 16 17  2  0  0  0  0
 16 18  1  0  0  0  0
 17 42  1  0  0  0  0
 18 43  1  0  0  0  0
 19 20  1  0  0  0  0
 19 21  1  0  0  0  0
 19 44  1  0  0  0  0
 19 45  1  0  0  0  0
 20 46  1  0  0  0  0
 20 47  1  0  0  0  0
 21 25  1  0  0  0  0
 21 48  1  0  0  0  0
 21 49  1  0  0  0  0
 22 24  2  0  0  0  0
 22 50  1  0  0  0  0
 23 24  1  0  0  0  0
 23 51  1  0  0  0  0
 24 52  1  0  0  0  0
 25 53  1  0  0  0  0
 25 54  1  0  0  0  0
 25 55  1  0  0  0  0
M  CHG  2   1  -1   4   1
M  END
> <PUBCHEM_COMPOUND_CID>
13484

> <PUBCHEM_COMPOUND_CANONICALIZED>
1

> <PUBCHEM_CACTVS_COMPLEXITY>
307

> <PUBCHEM_CACTVS_HBOND_ACCEPTOR>
3

> <PUBCHEM_CACTVS_HBOND_DONOR>
1

> <PUBCHEM_CACTVS_ROTATABLE_BOND>
10

> <PUBCHEM_CACTVS_SUBSKEYS>
AAADceB6AABkAAAAAAAAAAAAAAAAAAAAAAAwYAAAAAAAAAABQAAAHAQQAAAADADFWASyAYPAAAiAAiBCAAACAAAgCBAIiJgIAIgIICKgERCAIAAgkAAoiAcAgMAOEAAAAAAAAAAgAAAAAAAAAAAAAAAAAA==

> <PUBCHEM_IUPAC_OPENEYE_NAME>
2-[(4-butylsulfanylphenyl)-phenyl-methyl]sulfanylethyl-dimethyl-ammonium chloride

> <PUBCHEM_IUPAC_CAS_NAME>
2-[[[4-(butylthio)phenyl]-phenylmethyl]thio]ethyl-dimethylammonium chloride

> <PUBCHEM_IUPAC_NAME>
2-[(4-butylsulfanylphenyl)-phenylmethyl]sulfanylethyl-dimethylazanium chloride

> <PUBCHEM_IUPAC_SYSTEMATIC_NAME>
2-[(4-butylsulfanylphenyl)-phenyl-methyl]sulfanylethyl-dimethyl-azanium chloride

> <PUBCHEM_IUPAC_TRADITIONAL_NAME>
2-[[[4-(butylthio)phenyl]-phenyl-methyl]thio]ethyl-dimethyl-ammonium chloride

> <PUBCHEM_IUPAC_INCHI>
InChI=1S/C21H29NS2.ClH/c1-4-5-16-23-20-13-11-19(12-14-20)21(24-17-15-22(2)3)18-9-7-6-8-10-18;/h6-14,21H,4-5,15-17H2,1-3H3;1H

> <PUBCHEM_IUPAC_INCHIKEY>
IQCZDPRPOLRNQX-UHFFFAOYSA-N

> <PUBCHEM_EXACT_MASS>
395.15082

> <PUBCHEM_MOLECULAR_FORMULA>
C21H30ClNS2

> <PUBCHEM_MOLECULAR_WEIGHT>
396.0526

> <PUBCHEM_OPENEYE_CAN_SMILES>
CCCCSC1=CC=C(C=C1)C(C2=CC=CC=C2)SCC[NH+](C)C.[Cl-]

> <PUBCHEM_OPENEYE_ISO_SMILES>
CCCCSC1=CC=C(C=C1)C(C2=CC=CC=C2)SCC[NH+](C)C.[Cl-]

> <PUBCHEM_CACTVS_TPSA>
55

> <PUBCHEM_MONOISOTOPIC_WEIGHT>
395.15082

> <PUBCHEM_TOTAL_CHARGE>
0

> <PUBCHEM_HEAVY_ATOM_COUNT>
25

> <PUBCHEM_ATOM_DEF_STEREO_COUNT>
0

> <PUBCHEM_ATOM_UDEF_STEREO_COUNT>
1

> <PUBCHEM_BOND_DEF_STEREO_COUNT>
0

> <PUBCHEM_BOND_UDEF_STEREO_COUNT>
0

> <PUBCHEM_ISOTOPIC_ATOM_COUNT>
0

> <PUBCHEM_COMPONENT_COUNT>
2

> <PUBCHEM_CACTVS_TAUTO_COUNT>
1

> <PUBCHEM_COORDINATE_TYPE>
1
5
255

> <PUBCHEM_BONDANNOTATIONS>
11  14  8
11  15  8
12  17  8
13  18  8
14  22  8
15  23  8
16  17  8
16  18  8
22  24  8
23  24  8
6  29  3
8  12  8
8  13  8

$$$$

