7174
  -OEChem-06261201513D

 26 26  0     0  0  0  0  0  0999 V2000
    1.7056   -0.1695   -0.0028 O   0  0  0  0  0  0  0  0  0  0  0  0
    1.1110    2.0446    0.0004 O   0  0  0  0  0  0  0  0  0  0  0  0
   -4.5770   -0.9244    0.0022 N   0  0  0  0  0  0  0  0  0  0  0  0
    3.9428   -1.0456   -0.0053 C   0  0  0  0  0  0  0  0  0  0  0  0
    3.0862    0.2112   -0.0031 C   0  0  0  0  0  0  0  0  0  0  0  0
   -0.5898    0.3967   -0.0011 C   0  0  0  0  0  0  0  0  0  0  0  0
    5.4252   -0.7188    0.0095 C   0  0  0  0  0  0  0  0  0  0  0  0
    0.7906    0.8543   -0.0010 C   0  0  0  0  0  0  0  0  0  0  0  0
   -1.6320    1.3240    0.0004 C   0  0  0  0  0  0  0  0  0  0  0  0
   -0.8721   -0.9694   -0.0016 C   0  0  0  0  0  0  0  0  0  0  0  0
   -3.2382   -0.4806    0.0011 C   0  0  0  0  0  0  0  0  0  0  0  0
   -2.9560    0.8854    0.0017 C   0  0  0  0  0  0  0  0  0  0  0  0
   -2.1962   -1.4079   -0.0006 C   0  0  0  0  0  0  0  0  0  0  0  0
    3.6894   -1.6647    0.8637 H   0  0  0  0  0  0  0  0  0  0  0  0
    3.7032   -1.6522   -0.8869 H   0  0  0  0  0  0  0  0  0  0  0  0
    3.2948    0.8086    0.8921 H   0  0  0  0  0  0  0  0  0  0  0  0
    3.2947    0.8118   -0.8961 H   0  0  0  0  0  0  0  0  0  0  0  0
    5.6919   -0.1462    0.9036 H   0  0  0  0  0  0  0  0  0  0  0  0
    6.0168   -1.6396    0.0071 H   0  0  0  0  0  0  0  0  0  0  0  0
    5.7064   -0.1322   -0.8710 H   0  0  0  0  0  0  0  0  0  0  0  0
   -1.4352    2.3930    0.0010 H   0  0  0  0  0  0  0  0  0  0  0  0
   -0.0898   -1.7232   -0.0026 H   0  0  0  0  0  0  0  0  0  0  0  0
   -3.7593    1.6178    0.0030 H   0  0  0  0  0  0  0  0  0  0  0  0
   -2.4036   -2.4751   -0.0011 H   0  0  0  0  0  0  0  0  0  0  0  0
   -4.7820   -1.9147    0.0011 H   0  0  0  0  0  0  0  0  0  0  0  0
   -5.3329   -0.2526    0.0028 H   0  0  0  0  0  0  0  0  0  0  0  0
  1  5  1  0  0  0  0
  1  8  1  0  0  0  0
  2  8  2  0  0  0  0
  3 11  1  0  0  0  0
  3 25  1  0  0  0  0
  3 26  1  0  0  0  0
  4  5  1  0  0  0  0
  4  7  1  0  0  0  0
  4 14  1  0  0  0  0
  4 15  1  0  0  0  0
  5 16  1  0  0  0  0
  5 17  1  0  0  0  0
  6  8  1  0  0  0  0
  6  9  2  0  0  0  0
  6 10  1  0  0  0  0
  7 18  1  0  0  0  0
  7 19  1  0  0  0  0
  7 20  1  0  0  0  0
  9 12  1  0  0  0  0
  9 21  1  0  0  0  0
 10 13  2  0  0  0  0
 10 22  1  0  0  0  0
 11 12  2  0  0  0  0
 11 13  1  0  0  0  0
 12 23  1  0  0  0  0
 13 24  1  0  0  0  0
M  END
> <PUBCHEM_COMPOUND_CID>
7174

> <PUBCHEM_CONFORMER_RMSD>
0.6

> <PUBCHEM_CONFORMER_DIVERSEORDER>
1
20
24
22
21
23
12
15
9
10
17
16
19
4
14
13
3
7
2
6
11
18
8
5

> <PUBCHEM_MMFF94_PARTIAL_CHARGES>
17
1 -0.43
10 -0.15
11 0.1
12 -0.15
13 -0.15
2 -0.57
21 0.15
22 0.15
23 0.15
24 0.15
25 0.4
26 0.4
3 -0.9
5 0.28
6 0.09
8 0.63
9 -0.15

> <PUBCHEM_EFFECTIVE_ROTOR_COUNT>
4

> <PUBCHEM_PHARMACOPHORE_FEATURES>
5
1 2 acceptor
1 3 cation
1 3 donor
1 7 hydrophobe
6 6 9 10 11 12 13 rings

> <PUBCHEM_HEAVY_ATOM_COUNT>
13

> <PUBCHEM_ATOM_DEF_STEREO_COUNT>
0

> <PUBCHEM_ATOM_UDEF_STEREO_COUNT>
0

> <PUBCHEM_BOND_DEF_STEREO_COUNT>
0

> <PUBCHEM_BOND_UDEF_STEREO_COUNT>
0

> <PUBCHEM_ISOTOPIC_ATOM_COUNT>
0

> <PUBCHEM_COMPONENT_COUNT>
1

> <PUBCHEM_CACTVS_TAUTO_COUNT>
2

> <PUBCHEM_CONFORMER_ID>
00001C0600000001

> <PUBCHEM_MMFF94_ENERGY>
37.8836

> <PUBCHEM_FEATURE_SELFOVERLAP>
25.371

> <PUBCHEM_SHAPE_FINGERPRINT>
10465860 250 18259707826257654800
10968037 39 18413105052961789734
12032990 46 18410854356337423496
124424 183 18412546513480748007
13288520 33 18410009948613612519
13690532 89 18411419505493513367
14115302 16 17774994653107490006
14252887 29 17894623786543023382
15536298 74 18335703793642321568
17804303 29 18407758140183703272
17834072 33 18411979127343139732
18186145 218 16272206367052172924
200 152 17894640248972983141
20871999 31 18131356344615284716
21267235 1 18411129238782317666
22485316 2 18412547643500316898
2297311 6 18187634847947442548
23402539 116 18040723571642507189
23403322 49 18410574032781531614
23463225 33 18411981399064444942
23559900 14 18335709325686877432
42 15 18408321085889545618
5104073 3 18408602539338731664
559249 180 18128825320757185770
7364860 26 18263926523398292440
76465 3 17968949569784129559
8809292 202 18272084946662379595

> <PUBCHEM_SHAPE_MULTIPOLES>
250.81
8.95
1.57
0.6
8.39
0.35
0
-3.67
0.02
-0.4
0
0.01
-0.01
0

> <PUBCHEM_SHAPE_SELFOVERLAP>
511.495

> <PUBCHEM_SHAPE_VOLUME>
146.2

> <PUBCHEM_COORDINATE_TYPE>
2
5
10

$$$$

