9218
  -OEChem-06261203312D

 19 21  0     1  0  0  0  0  0999 V2000
    3.3938   -1.9718    0.0000 O   0  0  0  0  0  0  0  0  0  0  0  0
    2.0000   -1.1671    0.0000 O   0  0  0  0  0  0  0  0  0  0  0  0
    3.8122    1.9718    0.0000 N   0  0  0  0  0  0  0  0  0  0  0  0
    3.6030   -1.0000    0.0000 C   0  0  3  0  0  0  0  0  0  0  0  0
    2.7370   -0.5000    0.0000 C   0  0  0  0  0  0  0  0  0  0  0  0
    4.4691   -0.5000    0.0000 C   0  0  0  0  0  0  0  0  0  0  0  0
    4.4691    0.5000    0.0000 C   0  0  0  0  0  0  0  0  0  0  0  0
    3.6030    1.0000    0.0000 C   0  0  0  0  0  0  0  0  0  0  0  0
    2.7370    0.5000    0.0000 C   0  0  0  0  0  0  0  0  0  0  0  0
    2.4051   -2.0749    0.0000 C   0  0  0  0  0  0  0  0  0  0  0  0
    5.2061    1.1671    0.0000 C   0  0  0  0  0  0  0  0  0  0  0  0
    4.8010    2.0749    0.0000 C   0  0  0  0  0  0  0  0  0  0  0  0
    4.2901   -1.5005    0.0000 H   0  0  0  0  0  0  0  0  0  0  0  0
    5.0060   -0.8100    0.0000 H   0  0  0  0  0  0  0  0  0  0  0  0
    2.2001    0.8100    0.0000 H   0  0  0  0  0  0  0  0  0  0  0  0
    1.8155   -2.2666    0.0000 H   0  0  0  0  0  0  0  0  0  0  0  0
    2.5338   -2.6814    0.0000 H   0  0  0  0  0  0  0  0  0  0  0  0
    5.8128    1.0392    0.0000 H   0  0  0  0  0  0  0  0  0  0  0  0
    5.1110    2.6118    0.0000 H   0  0  0  0  0  0  0  0  0  0  0  0
  1  4  1  0  0  0  0
  1 10  1  0  0  0  0
  2  5  1  0  0  0  0
  2 10  1  0  0  0  0
  3  8  2  0  0  0  0
  3 12  1  0  0  0  0
  4  5  1  0  0  0  0
  4  6  1  0  0  0  0
  4 13  1  0  0  0  0
  5  9  2  0  0  0  0
  6  7  2  0  0  0  0
  6 14  1  0  0  0  0
  7  8  1  0  0  0  0
  7 11  1  0  0  0  0
  8  9  1  0  0  0  0
  9 15  1  0  0  0  0
 10 16  1  0  0  0  0
 10 17  1  0  0  0  0
 11 12  2  0  0  0  0
 11 18  1  0  0  0  0
 12 19  1  0  0  0  0
M  END
> <PUBCHEM_COMPOUND_CID>
9218

> <PUBCHEM_COMPOUND_CANONICALIZED>
1

> <PUBCHEM_CACTVS_COMPLEXITY>
350

> <PUBCHEM_CACTVS_HBOND_ACCEPTOR>
3

> <PUBCHEM_CACTVS_HBOND_DONOR>
0

> <PUBCHEM_CACTVS_ROTATABLE_BOND>
0

> <PUBCHEM_CACTVS_SUBSKEYS>
AAADcYByMAAAAAAAAAAAAAAAAAAAASIAAAAgAAAAAAAAAEAAAAAAHgAAAAAADBzhgAcACAIABACgAyBmRAAACAAgIgAICAAwABgZBAAAIQAgEAAAwAAOoAIAAAAAAAAAAAAAAAAAAAAAAAAAAAAAAAAAAA==

> <PUBCHEM_IUPAC_OPENEYE_NAME>
8aH-[1,3]dioxolo[4,5-f]indole

> <PUBCHEM_IUPAC_CAS_NAME>
8aH-[1,3]dioxolo[4,5-f]indole

> <PUBCHEM_IUPAC_NAME>
8aH-[1,3]dioxolo[4,5-f]indole

> <PUBCHEM_IUPAC_SYSTEMATIC_NAME>
8aH-[1,3]dioxolo[4,5-f]indole

> <PUBCHEM_IUPAC_TRADITIONAL_NAME>
8aH-[1,3]dioxol[4,5-f]indole

> <PUBCHEM_IUPAC_INCHI>
InChI=1S/C9H7NO2/c1-2-10-7-4-9-8(3-6(1)7)11-5-12-9/h1-4,8H,5H2

> <PUBCHEM_IUPAC_INCHIKEY>
BGUGGEACYAZDOQ-UHFFFAOYSA-N

> <PUBCHEM_XLOGP3_AA>
0.3

> <PUBCHEM_EXACT_MASS>
161.047678

> <PUBCHEM_MOLECULAR_FORMULA>
C9H7NO2

> <PUBCHEM_MOLECULAR_WEIGHT>
161.15738

> <PUBCHEM_OPENEYE_CAN_SMILES>
C1OC2C=C3C=CN=C3C=C2O1

> <PUBCHEM_OPENEYE_ISO_SMILES>
C1OC2C=C3C=CN=C3C=C2O1

> <PUBCHEM_CACTVS_TPSA>
30.8

> <PUBCHEM_MONOISOTOPIC_WEIGHT>
161.047678

> <PUBCHEM_TOTAL_CHARGE>
0

> <PUBCHEM_HEAVY_ATOM_COUNT>
12

> <PUBCHEM_ATOM_DEF_STEREO_COUNT>
0

> <PUBCHEM_ATOM_UDEF_STEREO_COUNT>
1

> <PUBCHEM_BOND_DEF_STEREO_COUNT>
0

> <PUBCHEM_BOND_UDEF_STEREO_COUNT>
0

> <PUBCHEM_ISOTOPIC_ATOM_COUNT>
0

> <PUBCHEM_COMPONENT_COUNT>
1

> <PUBCHEM_CACTVS_TAUTO_COUNT>
1

> <PUBCHEM_COORDINATE_TYPE>
1
5
255

> <PUBCHEM_BONDANNOTATIONS>
4  13  3

$$$$

