13101
  -OEChem-06261207453D

 44 45  0     1  0  0  0  0  0999 V2000
   -2.9464   -0.7584   -0.1140 N   0  0  0  0  0  0  0  0  0  0  0  0
    2.6248   -1.1743    0.3999 N   0  0  0  0  0  0  0  0  0  0  0  0
   -5.0669    0.3930   -0.6980 C   0  0  0  0  0  0  0  0  0  0  0  0
   -3.5949    0.1358   -1.0722 C   0  0  2  0  0  0  0  0  0  0  0  0
   -5.3084    1.0964    0.6539 C   0  0  0  0  0  0  0  0  0  0  0  0
   -3.5375   -0.4980   -2.4654 C   0  0  0  0  0  0  0  0  0  0  0  0
   -4.5645    2.4350    0.6778 C   0  0  0  0  0  0  0  0  0  0  0  0
   -4.8701    0.2423    1.8439 C   0  0  0  0  0  0  0  0  0  0  0  0
   -1.5804   -0.8617    0.0106 C   0  0  0  0  0  0  0  0  0  0  0  0
   -0.9952   -1.7378    0.9516 C   0  0  0  0  0  0  0  0  0  0  0  0
   -0.7113   -0.0946   -0.7968 C   0  0  0  0  0  0  0  0  0  0  0  0
    1.2243   -1.0720    0.2686 C   0  0  0  0  0  0  0  0  0  0  0  0
    0.3899   -1.8415    1.0790 C   0  0  0  0  0  0  0  0  0  0  0  0
    0.6738   -0.1985   -0.6693 C   0  0  0  0  0  0  0  0  0  0  0  0
    3.6720   -0.2554    0.1930 C   0  0  0  0  0  0  0  0  0  0  0  0
    4.9295   -0.7072   -0.2110 C   0  0  0  0  0  0  0  0  0  0  0  0
    3.4546    1.1090    0.3919 C   0  0  0  0  0  0  0  0  0  0  0  0
    5.9668    0.2028   -0.4152 C   0  0  0  0  0  0  0  0  0  0  0  0
    4.4919    2.0190    0.1875 C   0  0  0  0  0  0  0  0  0  0  0  0
    5.7479    1.5658   -0.2160 C   0  0  0  0  0  0  0  0  0  0  0  0
   -5.6141   -0.5596   -0.6927 H   0  0  0  0  0  0  0  0  0  0  0  0
   -5.5287    1.0035   -1.4858 H   0  0  0  0  0  0  0  0  0  0  0  0
   -3.0909    1.1068   -1.1098 H   0  0  0  0  0  0  0  0  0  0  0  0
   -6.3851    1.2876    0.7423 H   0  0  0  0  0  0  0  0  0  0  0  0
   -3.5130   -1.4657    0.3408 H   0  0  0  0  0  0  0  0  0  0  0  0
   -2.5149   -0.6835   -2.8053 H   0  0  0  0  0  0  0  0  0  0  0  0
   -4.0604   -1.4615   -2.4797 H   0  0  0  0  0  0  0  0  0  0  0  0
   -4.0146    0.1534   -3.2057 H   0  0  0  0  0  0  0  0  0  0  0  0
   -4.8066    3.0365   -0.2047 H   0  0  0  0  0  0  0  0  0  0  0  0
   -4.8612    3.0121    1.5609 H   0  0  0  0  0  0  0  0  0  0  0  0
   -3.4780    2.3106    0.7262 H   0  0  0  0  0  0  0  0  0  0  0  0
   -5.2265   -0.7884    1.7509 H   0  0  0  0  0  0  0  0  0  0  0  0
   -3.7880    0.2418    1.9982 H   0  0  0  0  0  0  0  0  0  0  0  0
   -5.3059    0.6509    2.7635 H   0  0  0  0  0  0  0  0  0  0  0  0
   -1.6304   -2.3450    1.5934 H   0  0  0  0  0  0  0  0  0  0  0  0
   -1.0766    0.6057   -1.5415 H   0  0  0  0  0  0  0  0  0  0  0  0
    0.8072   -2.5244    1.8147 H   0  0  0  0  0  0  0  0  0  0  0  0
    1.3000    0.3979   -1.3272 H   0  0  0  0  0  0  0  0  0  0  0  0
    2.9398   -2.0919    0.7025 H   0  0  0  0  0  0  0  0  0  0  0  0
    5.1125   -1.7668   -0.3704 H   0  0  0  0  0  0  0  0  0  0  0  0
    2.4936    1.4887    0.7279 H   0  0  0  0  0  0  0  0  0  0  0  0
    6.9448   -0.1499   -0.7294 H   0  0  0  0  0  0  0  0  0  0  0  0
    4.3234    3.0799    0.3476 H   0  0  0  0  0  0  0  0  0  0  0  0
    6.5558    2.2742   -0.3739 H   0  0  0  0  0  0  0  0  0  0  0  0
  1  4  1  0  0  0  0
  1  9  1  0  0  0  0
  1 25  1  0  0  0  0
  2 12  1  0  0  0  0
  2 15  1  0  0  0  0
  2 39  1  0  0  0  0
  3  4  1  0  0  0  0
  3  5  1  0  0  0  0
  3 21  1  0  0  0  0
  3 22  1  0  0  0  0
  4  6  1  0  0  0  0
  4 23  1  0  0  0  0
  5  7  1  0  0  0  0
  5  8  1  0  0  0  0
  5 24  1  0  0  0  0
  6 26  1  0  0  0  0
  6 27  1  0  0  0  0
  6 28  1  0  0  0  0
  7 29  1  0  0  0  0
  7 30  1  0  0  0  0
  7 31  1  0  0  0  0
  8 32  1  0  0  0  0
  8 33  1  0  0  0  0
  8 34  1  0  0  0  0
  9 10  2  0  0  0  0
  9 11  1  0  0  0  0
 10 13  1  0  0  0  0
 10 35  1  0  0  0  0
 11 14  2  0  0  0  0
 11 36  1  0  0  0  0
 12 13  2  0  0  0  0
 12 14  1  0  0  0  0
 13 37  1  0  0  0  0
 14 38  1  0  0  0  0
 15 16  2  0  0  0  0
 15 17  1  0  0  0  0
 16 18  1  0  0  0  0
 16 40  1  0  0  0  0
 17 19  2  0  0  0  0
 17 41  1  0  0  0  0
 18 20  2  0  0  0  0
 18 42  1  0  0  0  0
 19 20  1  0  0  0  0
 19 43  1  0  0  0  0
 20 44  1  0  0  0  0
M  END
> <PUBCHEM_COMPOUND_CID>
13101

> <PUBCHEM_CONFORMER_RMSD>
0.8

> <PUBCHEM_CONFORMER_DIVERSEORDER>
1
8
7
15
19
4
13
16
18
3
6
17
12
14
10
9
2
5
11

> <PUBCHEM_MMFF94_PARTIAL_CHARGES>
26
1 -0.87
10 -0.15
11 -0.15
12 0.1
13 -0.15
14 -0.15
15 0.1
16 -0.15
17 -0.15
18 -0.15
19 -0.15
2 -0.6
20 -0.15
25 0.4
35 0.15
36 0.15
37 0.15
38 0.15
39 0.4
4 0.37
40 0.15
41 0.15
42 0.15
43 0.15
44 0.15
9 0.1

> <PUBCHEM_EFFECTIVE_ROTOR_COUNT>
6

> <PUBCHEM_PHARMACOPHORE_FEATURES>
7
1 1 cation
1 1 donor
1 2 cation
1 2 donor
3 5 7 8 hydrophobe
6 15 16 17 18 19 20 rings
6 9 10 11 12 13 14 rings

> <PUBCHEM_HEAVY_ATOM_COUNT>
20

> <PUBCHEM_ATOM_DEF_STEREO_COUNT>
0

> <PUBCHEM_ATOM_UDEF_STEREO_COUNT>
1

> <PUBCHEM_BOND_DEF_STEREO_COUNT>
0

> <PUBCHEM_BOND_UDEF_STEREO_COUNT>
0

> <PUBCHEM_ISOTOPIC_ATOM_COUNT>
0

> <PUBCHEM_COMPONENT_COUNT>
1

> <PUBCHEM_CACTVS_TAUTO_COUNT>
1

> <PUBCHEM_CONFORMER_ID>
0000332D00000001

> <PUBCHEM_MMFF94_ENERGY>
75.9991

> <PUBCHEM_FEATURE_SELFOVERLAP>
35.52

> <PUBCHEM_SHAPE_FINGERPRINT>
10 15 16558748992596720836
10447042 23 5978109029539142004
10803635 8 15936412238631764447
11089746 13 18260272923868777736
11796584 16 15574715794368872726
12236239 1 18113901567353879471
12390115 104 18272642420448024410
12403259 415 17632582698816435438
12596602 18 13470690351988715668
12670543 26 14201390616468105275
12730499 353 18273209816283609786
12839892 36 13686300188243598513
12892183 10 15195017084003344578
12969540 114 18129964307134045606
13167372 99 18334575784959271232
13544653 18 8646773321686087030
13668630 136 7853568015932823421
13673619 4 15648190560517360247
13675066 3 16773802523276158731
13690498 29 16009891419927095669
13955234 65 18059302084000025850
14211702 104 10591750022052974809
14251752 14 16660361510976684614
14848178 5 10015578398331122249
15081414 286 18059855086798081212
15183329 4 16732979842764678560
15188451 53 12751231485527212473
17857418 61 10519984859304973585
17870717 6 14490473076088463693
17959699 21 18333450954003354744
18222031 100 7565340916709127214
18785283 64 16772937100303658708
193927 3 6266623152314880398
20621476 91 16056587734756951057
20645477 56 17846502521380528670
21033648 29 17703244956569202476
21315764 119 16515673477295518844
21637258 2 11167941320881495569
22061861 79 5761650386548475617
22224240 67 17775281673704391291
22393880 68 5761357865564687141
23198884 109 17894915118174019455
23402539 116 17967817141136385662
23402655 69 18334017164401306558
23536379 177 17603587434799103830
23559900 14 18272655632764387330
2838139 119 18333734606871557608
2916195 48 18343582940963346945
29717793 49 17240193340715005556
3009799 131 5473138509676623339
312425 54 12463304634229337140
314194 84 8286195084985218110
4259306 186 6771870679406758192
474 4 18413672391770517617
5104073 3 17988649549878754098
542803 24 18259987075950637174
543368 44 18260554385712848577
633830 44 18408890650156224870
7495541 125 13830121780860495334
8272917 22 18187924023706115238

> <PUBCHEM_SHAPE_MULTIPOLES>
401.63
14.97
1.93
1.42
5.68
0.66
-0.42
8.28
-0.03
0.18
0.61
-2.39
-0.23
-0.79

> <PUBCHEM_SHAPE_SELFOVERLAP>
830.535

> <PUBCHEM_SHAPE_VOLUME>
229

> <PUBCHEM_COORDINATE_TYPE>
2
5
10

$$$$

