51090930
  -OEChem-06241223003D

 45 46  0     1  0  0  0  0  0999 V2000
   -6.5046    2.4302   -0.0938 F   0  0  0  0  0  0  0  0  0  0  0  0
   -5.3278    1.6181   -1.7390 F   0  0  0  0  0  0  0  0  0  0  0  0
   -6.6393    0.3092   -0.5787 F   0  0  0  0  0  0  0  0  0  0  0  0
    1.1938   -2.3459   -0.7416 O   0  0  0  0  0  0  0  0  0  0  0  0
    5.9142   -0.4801   -0.8104 O   0  0  0  0  0  0  0  0  0  0  0  0
    5.5996    2.1156    0.1339 O   0  0  0  0  0  0  0  0  0  0  0  0
   -3.8775   -0.0648    0.0316 N   0  0  1  0  0  0  0  0  0  0  0  0
    0.2185   -1.1846    1.0143 N   0  0  0  0  0  0  0  0  0  0  0  0
   -2.0803   -1.5004    0.2632 C   0  0  1  0  0  0  0  0  0  0  0  0
   -3.3522   -2.3471    0.3554 C   0  0  0  0  0  0  0  0  0  0  0  0
   -2.5462   -0.0982    0.6380 C   0  0  0  0  0  0  0  0  0  0  0  0
   -4.4997   -1.3400    0.3939 C   0  0  0  0  0  0  0  0  0  0  0  0
   -0.9485   -2.0089    1.1401 C   0  0  0  0  0  0  0  0  0  0  0  0
   -4.6606    1.0812    0.4686 C   0  0  0  0  0  0  0  0  0  0  0  0
   -5.7902    1.3558   -0.4980 C   0  0  0  0  0  0  0  0  0  0  0  0
    1.2115   -1.4231    0.0687 C   0  0  0  0  0  0  0  0  0  0  0  0
    2.3699   -0.4931    0.0844 C   0  0  0  0  0  0  0  0  0  0  0  0
    3.6153   -0.9224   -0.3742 C   0  0  0  0  0  0  0  0  0  0  0  0
    2.2122    0.8092    0.5583 C   0  0  0  0  0  0  0  0  0  0  0  0
    4.7031   -0.0493   -0.3592 C   0  0  0  0  0  0  0  0  0  0  0  0
    3.3000    1.6823    0.5736 C   0  0  0  0  0  0  0  0  0  0  0  0
    4.5454    1.2531    0.1148 C   0  0  0  0  0  0  0  0  0  0  0  0
    5.9901   -1.8255   -1.2779 C   0  0  0  0  0  0  0  0  0  0  0  0
    5.3534    3.4286    0.6340 C   0  0  0  0  0  0  0  0  0  0  0  0
   -1.7488   -1.4910   -0.7855 H   0  0  0  0  0  0  0  0  0  0  0  0
   -3.4301   -3.0047   -0.5178 H   0  0  0  0  0  0  0  0  0  0  0  0
   -3.3680   -2.9770    1.2518 H   0  0  0  0  0  0  0  0  0  0  0  0
   -1.8901    0.6713    0.2177 H   0  0  0  0  0  0  0  0  0  0  0  0
   -2.5940    0.0305    1.7273 H   0  0  0  0  0  0  0  0  0  0  0  0
   -4.9254   -1.3207    1.4052 H   0  0  0  0  0  0  0  0  0  0  0  0
   -5.2887   -1.6282   -0.3072 H   0  0  0  0  0  0  0  0  0  0  0  0
   -0.6937   -3.0393    0.8679 H   0  0  0  0  0  0  0  0  0  0  0  0
   -1.2371   -2.0059    2.1971 H   0  0  0  0  0  0  0  0  0  0  0  0
   -4.0268    1.9771    0.4796 H   0  0  0  0  0  0  0  0  0  0  0  0
   -5.0442    0.9586    1.4887 H   0  0  0  0  0  0  0  0  0  0  0  0
    0.3222   -0.4377    1.6925 H   0  0  0  0  0  0  0  0  0  0  0  0
    3.6865   -1.9459   -0.7260 H   0  0  0  0  0  0  0  0  0  0  0  0
    1.2530    1.1921    0.8941 H   0  0  0  0  0  0  0  0  0  0  0  0
    3.1024    2.6806    0.9486 H   0  0  0  0  0  0  0  0  0  0  0  0
    5.7848   -2.5439   -0.4769 H   0  0  0  0  0  0  0  0  0  0  0  0
    5.3553   -1.9848   -2.1562 H   0  0  0  0  0  0  0  0  0  0  0  0
    7.0231   -1.9964   -1.5989 H   0  0  0  0  0  0  0  0  0  0  0  0
    6.2995    3.9771    0.5783 H   0  0  0  0  0  0  0  0  0  0  0  0
    5.0585    3.4103    1.6887 H   0  0  0  0  0  0  0  0  0  0  0  0
    4.6351    3.9702    0.0091 H   0  0  0  0  0  0  0  0  0  0  0  0
  1 15  1  0  0  0  0
  2 15  1  0  0  0  0
  3 15  1  0  0  0  0
  4 16  2  0  0  0  0
  5 20  1  0  0  0  0
  5 23  1  0  0  0  0
  6 22  1  0  0  0  0
  6 24  1  0  0  0  0
  7 11  1  0  0  0  0
  7 12  1  0  0  0  0
  7 14  1  0  0  0  0
  8 13  1  0  0  0  0
  8 16  1  0  0  0  0
  8 36  1  0  0  0  0
  9 10  1  0  0  0  0
  9 11  1  0  0  0  0
  9 13  1  0  0  0  0
  9 25  1  0  0  0  0
 10 12  1  0  0  0  0
 10 26  1  0  0  0  0
 10 27  1  0  0  0  0
 11 28  1  0  0  0  0
 11 29  1  0  0  0  0
 12 30  1  0  0  0  0
 12 31  1  0  0  0  0
 13 32  1  0  0  0  0
 13 33  1  0  0  0  0
 14 15  1  0  0  0  0
 14 34  1  0  0  0  0
 14 35  1  0  0  0  0
 16 17  1  0  0  0  0
 17 18  2  0  0  0  0
 17 19  1  0  0  0  0
 18 20  1  0  0  0  0
 18 37  1  0  0  0  0
 19 21  2  0  0  0  0
 19 38  1  0  0  0  0
 20 22  2  0  0  0  0
 21 22  1  0  0  0  0
 21 39  1  0  0  0  0
 23 40  1  0  0  0  0
 23 41  1  0  0  0  0
 23 42  1  0  0  0  0
 24 43  1  0  0  0  0
 24 44  1  0  0  0  0
 24 45  1  0  0  0  0
M  END
> <PUBCHEM_COMPOUND_CID>
51090930

> <PUBCHEM_CONFORMER_RMSD>
1

> <PUBCHEM_CONFORMER_DIVERSEORDER>
2
21
100
124
19
23
162
72
95
54
49
74
45
111
53
153
94
127
142
129
85
77
147
97
107
151
98
38
113
157
130
60
161
42
33
58
109
87
143
47
63
69
15
78
55
84
89
103
65
152
123
119
61
134
118
9
126
40
92
30
150
71
86
133
35
41
138
114
22
121
31
125
159
137
56
27
67
160
29
73
10
25
139
12
141
104
6
140
68
48
28
83
80
116
81
11
110
163
5
16
96
131
46
102
37
136
76
146
26
64
128
51
90
57
132
158
14
149
24
155
145
112
34
79
4
91
7
66
39
88
156
32
115
135
106
59
105
93
8
120
18
43
99
50
3
52
122
1
148
36
144
17
44
154
20
101
75
117
70
82
108
62
13

> <PUBCHEM_MMFF94_PARTIAL_CHARGES>
26
1 -0.34
11 0.27
12 0.27
13 0.3
14 0.27
15 1.02
16 0.54
17 0.09
18 -0.15
19 -0.15
2 -0.34
20 0.08
21 -0.15
22 0.08
23 0.28
24 0.28
3 -0.34
36 0.37
37 0.15
38 0.15
39 0.15
4 -0.57
5 -0.36
6 -0.36
7 -0.81
8 -0.73

> <PUBCHEM_EFFECTIVE_ROTOR_COUNT>
9

> <PUBCHEM_PHARMACOPHORE_FEATURES>
7
1 4 acceptor
1 5 acceptor
1 6 acceptor
1 7 cation
1 8 donor
5 7 9 10 11 12 rings
6 17 18 19 20 21 22 rings

> <PUBCHEM_HEAVY_ATOM_COUNT>
24

> <PUBCHEM_ATOM_DEF_STEREO_COUNT>
0

> <PUBCHEM_ATOM_UDEF_STEREO_COUNT>
1

> <PUBCHEM_BOND_DEF_STEREO_COUNT>
0

> <PUBCHEM_BOND_UDEF_STEREO_COUNT>
0

> <PUBCHEM_ISOTOPIC_ATOM_COUNT>
0

> <PUBCHEM_COMPONENT_COUNT>
1

> <PUBCHEM_CACTVS_TAUTO_COUNT>
2

> <PUBCHEM_CONFORMER_ID>
030B95F200000002

> <PUBCHEM_MMFF94_ENERGY>
70.9941

> <PUBCHEM_FEATURE_SELFOVERLAP>
35.524

> <PUBCHEM_SHAPE_MULTIPOLES>
444.52
17.96
3.06
1.01
8.54
1.27
0.16
10.4
4.85
-1.39
-0.12
0.19
-0.06
2.8

> <PUBCHEM_SHAPE_SELFOVERLAP>
926.443

> <PUBCHEM_SHAPE_VOLUME>
256.6

> <PUBCHEM_COORDINATE_TYPE>
2
5
10

$$$$

