17395792
  -OEChem-06241222522D

 43 44  0     0  0  0  0  0  0999 V2000
    6.2619   -0.9908    0.0000 O   0  0  0  0  0  0  0  0  0  0  0  0
    6.6353    0.2264    0.0000 O   0  0  0  0  0  0  0  0  0  0  0  0
    7.9244    1.3831    0.0000 O   0  0  0  0  0  0  0  0  0  0  0  0
    4.6783   -1.7955    0.0000 N   0  0  0  0  0  0  0  0  0  0  0  0
    4.6783   -0.1861    0.0000 N   0  0  0  0  0  0  0  0  0  0  0  0
    6.2781    1.9212    0.0000 N   0  0  0  0  0  0  0  0  0  0  0  0
    7.5673    3.0779    0.0000 N   0  0  0  0  0  0  0  0  0  0  0  0
    3.7320   -1.4908    0.0000 C   0  0  0  0  0  0  0  0  0  0  0  0
    3.7320   -0.4908    0.0000 C   0  0  0  0  0  0  0  0  0  0  0  0
    4.9889   -2.7461    0.0000 C   0  0  0  0  0  0  0  0  0  0  0  0
    5.2619   -0.9908    0.0000 C   0  0  0  0  0  0  0  0  0  0  0  0
    4.9889    0.7644    0.0000 C   0  0  0  0  0  0  0  0  0  0  0  0
    4.3211   -3.4904    0.0000 C   0  0  0  0  0  0  0  0  0  0  0  0
    2.8660   -1.9908    0.0000 C   0  0  0  0  0  0  0  0  0  0  0  0
    2.8660    0.0092    0.0000 C   0  0  0  0  0  0  0  0  0  0  0  0
    2.0000   -1.4908    0.0000 C   0  0  0  0  0  0  0  0  0  0  0  0
    2.0000   -0.4908    0.0000 C   0  0  0  0  0  0  0  0  0  0  0  0
    4.6318   -4.4409    0.0000 C   0  0  0  0  0  0  0  0  0  0  0  0
    5.9674    0.9707    0.0000 C   0  0  0  0  0  0  0  0  0  0  0  0
    7.2566    2.1274    0.0000 C   0  0  0  0  0  0  0  0  0  0  0  0
    8.5458    3.2841    0.0000 C   0  0  0  0  0  0  0  0  0  0  0  0
    8.8564    4.2347    0.0000 C   0  0  0  0  0  0  0  0  0  0  0  0
    9.8349    4.4409    0.0000 C   0  0  0  0  0  0  0  0  0  0  0  0
    5.3715   -3.2340    0.0000 H   0  0  0  0  0  0  0  0  0  0  0  0
    5.5359   -2.4540    0.0000 H   0  0  0  0  0  0  0  0  0  0  0  0
    4.9684    1.3841    0.0000 H   0  0  0  0  0  0  0  0  0  0  0  0
    4.3751    0.8518    0.0000 H   0  0  0  0  0  0  0  0  0  0  0  0
    3.9385   -3.0025    0.0000 H   0  0  0  0  0  0  0  0  0  0  0  0
    3.7742   -3.7824    0.0000 H   0  0  0  0  0  0  0  0  0  0  0  0
    2.8660   -2.6108    0.0000 H   0  0  0  0  0  0  0  0  0  0  0  0
    2.8660    0.6292    0.0000 H   0  0  0  0  0  0  0  0  0  0  0  0
    1.4631   -1.8008    0.0000 H   0  0  0  0  0  0  0  0  0  0  0  0
    1.4631   -0.1808    0.0000 H   0  0  0  0  0  0  0  0  0  0  0  0
    4.0424   -4.6335    0.0000 H   0  0  0  0  0  0  0  0  0  0  0  0
    4.8244   -5.0302    0.0000 H   0  0  0  0  0  0  0  0  0  0  0  0
    5.2211   -4.2483    0.0000 H   0  0  0  0  0  0  0  0  0  0  0  0
    5.8640    2.3826    0.0000 H   0  0  0  0  0  0  0  0  0  0  0  0
    7.1532    3.5394    0.0000 H   0  0  0  0  0  0  0  0  0  0  0  0
    8.5663    2.6645    0.0000 H   0  0  0  0  0  0  0  0  0  0  0  0
    9.1596    3.1968    0.0000 H   0  0  0  0  0  0  0  0  0  0  0  0
    8.4424    4.6961    0.0000 H   0  0  0  0  0  0  0  0  0  0  0  0
   10.2490    3.9794    0.0000 H   0  0  0  0  0  0  0  0  0  0  0  0
   10.0276    5.0302    0.0000 H   0  0  0  0  0  0  0  0  0  0  0  0
  1 11  2  0  0  0  0
  2 19  2  0  0  0  0
  3 20  2  0  0  0  0
  4  8  1  0  0  0  0
  4 10  1  0  0  0  0
  4 11  1  0  0  0  0
  5  9  1  0  0  0  0
  5 11  1  0  0  0  0
  5 12  1  0  0  0  0
  6 19  1  0  0  0  0
  6 20  1  0  0  0  0
  6 37  1  0  0  0  0
  7 20  1  0  0  0  0
  7 21  1  0  0  0  0
  7 38  1  0  0  0  0
  8  9  1  0  0  0  0
  8 14  2  0  0  0  0
  9 15  2  0  0  0  0
 10 13  1  0  0  0  0
 10 24  1  0  0  0  0
 10 25  1  0  0  0  0
 12 19  1  0  0  0  0
 12 26  1  0  0  0  0
 12 27  1  0  0  0  0
 13 18  1  0  0  0  0
 13 28  1  0  0  0  0
 13 29  1  0  0  0  0
 14 16  1  0  0  0  0
 14 30  1  0  0  0  0
 15 17  1  0  0  0  0
 15 31  1  0  0  0  0
 16 17  2  0  0  0  0
 16 32  1  0  0  0  0
 17 33  1  0  0  0  0
 18 34  1  0  0  0  0
 18 35  1  0  0  0  0
 18 36  1  0  0  0  0
 21 22  1  0  0  0  0
 21 39  1  0  0  0  0
 21 40  1  0  0  0  0
 22 23  2  0  0  0  0
 22 41  1  0  0  0  0
 23 42  1  0  0  0  0
 23 43  1  0  0  0  0
M  END
> <PUBCHEM_COMPOUND_CID>
17395792

> <PUBCHEM_COMPOUND_CANONICALIZED>
1

> <PUBCHEM_CACTVS_COMPLEXITY>
480

> <PUBCHEM_CACTVS_HBOND_ACCEPTOR>
3

> <PUBCHEM_CACTVS_HBOND_DONOR>
2

> <PUBCHEM_CACTVS_ROTATABLE_BOND>
6

> <PUBCHEM_CACTVS_SUBSKEYS>
AAADceB7sAAAAAAAAAAAAAAAAAAAAWAAAAAwAAAAAAAAAFgBAAAAHgAQAAAACAjBkAQzwIPAAACIACVSUACCAAAhAgAIiICIdIiIYCLAkbGUIAholyLIyCcQAAAAAAAAAAAAACAAAAAAAAAAQAAAAAAAAA==

> <PUBCHEM_IUPAC_OPENEYE_NAME>
N-(allylcarbamoyl)-2-(2-oxo-3-propyl-benzimidazol-1-yl)acetamide

> <PUBCHEM_IUPAC_CAS_NAME>
N-[oxo-(prop-2-enylamino)methyl]-2-(2-oxo-3-propyl-1-benzimidazolyl)acetamide

> <PUBCHEM_IUPAC_NAME>
2-(2-oxo-3-propylbenzimidazol-1-yl)-N-(prop-2-enylcarbamoyl)acetamide

> <PUBCHEM_IUPAC_SYSTEMATIC_NAME>
2-(2-oxidanylidene-3-propyl-benzimidazol-1-yl)-N-(prop-2-enylcarbamoyl)ethanamide

> <PUBCHEM_IUPAC_TRADITIONAL_NAME>
N-(allylcarbamoyl)-2-(2-keto-3-propyl-benzimidazol-1-yl)acetamide

> <PUBCHEM_IUPAC_INCHI>
InChI=1S/C16H20N4O3/c1-3-9-17-15(22)18-14(21)11-20-13-8-6-5-7-12(13)19(10-4-2)16(20)23/h3,5-8H,1,4,9-11H2,2H3,(H2,17,18,21,22)

> <PUBCHEM_IUPAC_INCHIKEY>
DCWPZKBEVYOCDT-UHFFFAOYSA-N

> <PUBCHEM_XLOGP3_AA>
2

> <PUBCHEM_EXACT_MASS>
316.153541

> <PUBCHEM_MOLECULAR_FORMULA>
C16H20N4O3

> <PUBCHEM_MOLECULAR_WEIGHT>
316.355

> <PUBCHEM_OPENEYE_CAN_SMILES>
CCCN1C2=CC=CC=C2N(C1=O)CC(=O)NC(=O)NCC=C

> <PUBCHEM_OPENEYE_ISO_SMILES>
CCCN1C2=CC=CC=C2N(C1=O)CC(=O)NC(=O)NCC=C

> <PUBCHEM_CACTVS_TPSA>
81.8

> <PUBCHEM_MONOISOTOPIC_WEIGHT>
316.153541

> <PUBCHEM_TOTAL_CHARGE>
0

> <PUBCHEM_HEAVY_ATOM_COUNT>
23

> <PUBCHEM_ATOM_DEF_STEREO_COUNT>
0

> <PUBCHEM_ATOM_UDEF_STEREO_COUNT>
0

> <PUBCHEM_BOND_DEF_STEREO_COUNT>
0

> <PUBCHEM_BOND_UDEF_STEREO_COUNT>
0

> <PUBCHEM_ISOTOPIC_ATOM_COUNT>
0

> <PUBCHEM_COMPONENT_COUNT>
1

> <PUBCHEM_CACTVS_TAUTO_COUNT>
5

> <PUBCHEM_COORDINATE_TYPE>
1
5
255

> <PUBCHEM_BONDANNOTATIONS>
14  16  8
15  17  8
16  17  8
4  11  8
4  8  8
5  11  8
5  9  8
8  14  8
8  9  8
9  15  8

$$$$

