8926
  -OEChem-06261203152D

 52 51  0     0  0  0  0  0  0999 V2000
    2.5369    0.0600    0.0000 N   0  0  0  0  0  0  0  0  0  0  0  0
    9.4651    0.0600    0.0000 C   0  0  0  0  0  0  0  0  0  0  0  0
   10.3312    0.5600    0.0000 C   0  0  0  0  0  0  0  0  0  0  0  0
    8.5991    0.5600    0.0000 C   0  0  0  0  0  0  0  0  0  0  0  0
   11.1972    0.0600    0.0000 C   0  0  0  0  0  0  0  0  0  0  0  0
    7.7331    0.0600    0.0000 C   0  0  0  0  0  0  0  0  0  0  0  0
   12.0632    0.5600    0.0000 C   0  0  0  0  0  0  0  0  0  0  0  0
    6.8671    0.5600    0.0000 C   0  0  0  0  0  0  0  0  0  0  0  0
   12.9292    0.0600    0.0000 C   0  0  0  0  0  0  0  0  0  0  0  0
    6.0010    0.0600    0.0000 C   0  0  0  0  0  0  0  0  0  0  0  0
   13.7953    0.5600    0.0000 C   0  0  0  0  0  0  0  0  0  0  0  0
    5.1350    0.5600    0.0000 C   0  0  0  0  0  0  0  0  0  0  0  0
   14.6613    0.0600    0.0000 C   0  0  0  0  0  0  0  0  0  0  0  0
    4.2690    0.0600    0.0000 C   0  0  0  0  0  0  0  0  0  0  0  0
   15.5273    0.5600    0.0000 C   0  0  0  0  0  0  0  0  0  0  0  0
    3.4030    0.5600    0.0000 C   0  0  0  0  0  0  0  0  0  0  0  0
   16.3933    0.0600    0.0000 C   0  0  0  0  0  0  0  0  0  0  0  0
    9.0666   -0.4149    0.0000 H   0  0  0  0  0  0  0  0  0  0  0  0
    9.8637   -0.4149    0.0000 H   0  0  0  0  0  0  0  0  0  0  0  0
   10.7297    1.0350    0.0000 H   0  0  0  0  0  0  0  0  0  0  0  0
    9.9326    1.0350    0.0000 H   0  0  0  0  0  0  0  0  0  0  0  0
    8.9976    1.0350    0.0000 H   0  0  0  0  0  0  0  0  0  0  0  0
    8.2006    1.0350    0.0000 H   0  0  0  0  0  0  0  0  0  0  0  0
   10.7987   -0.4149    0.0000 H   0  0  0  0  0  0  0  0  0  0  0  0
   11.5957   -0.4149    0.0000 H   0  0  0  0  0  0  0  0  0  0  0  0
    7.3346   -0.4149    0.0000 H   0  0  0  0  0  0  0  0  0  0  0  0
    8.1316   -0.4149    0.0000 H   0  0  0  0  0  0  0  0  0  0  0  0
   12.4617    1.0350    0.0000 H   0  0  0  0  0  0  0  0  0  0  0  0
   11.6647    1.0350    0.0000 H   0  0  0  0  0  0  0  0  0  0  0  0
    7.2656    1.0350    0.0000 H   0  0  0  0  0  0  0  0  0  0  0  0
    6.4685    1.0350    0.0000 H   0  0  0  0  0  0  0  0  0  0  0  0
   12.5307   -0.4149    0.0000 H   0  0  0  0  0  0  0  0  0  0  0  0
   13.3278   -0.4149    0.0000 H   0  0  0  0  0  0  0  0  0  0  0  0
    5.6025   -0.4149    0.0000 H   0  0  0  0  0  0  0  0  0  0  0  0
    6.3996   -0.4149    0.0000 H   0  0  0  0  0  0  0  0  0  0  0  0
   14.1938    1.0350    0.0000 H   0  0  0  0  0  0  0  0  0  0  0  0
   13.3967    1.0350    0.0000 H   0  0  0  0  0  0  0  0  0  0  0  0
    5.5335    1.0350    0.0000 H   0  0  0  0  0  0  0  0  0  0  0  0
    4.7365    1.0350    0.0000 H   0  0  0  0  0  0  0  0  0  0  0  0
   14.2628   -0.4149    0.0000 H   0  0  0  0  0  0  0  0  0  0  0  0
   15.0598   -0.4149    0.0000 H   0  0  0  0  0  0  0  0  0  0  0  0
    3.8705   -0.4149    0.0000 H   0  0  0  0  0  0  0  0  0  0  0  0
    4.6675   -0.4149    0.0000 H   0  0  0  0  0  0  0  0  0  0  0  0
   15.9258    1.0350    0.0000 H   0  0  0  0  0  0  0  0  0  0  0  0
   15.1288    1.0350    0.0000 H   0  0  0  0  0  0  0  0  0  0  0  0
    3.8015    1.0350    0.0000 H   0  0  0  0  0  0  0  0  0  0  0  0
    3.0044    1.0350    0.0000 H   0  0  0  0  0  0  0  0  0  0  0  0
   16.0833   -0.4769    0.0000 H   0  0  0  0  0  0  0  0  0  0  0  0
   16.9303   -0.2500    0.0000 H   0  0  0  0  0  0  0  0  0  0  0  0
   16.7033    0.5969    0.0000 H   0  0  0  0  0  0  0  0  0  0  0  0
    2.0000    0.3700    0.0000 H   0  0  0  0  0  0  0  0  0  0  0  0
    2.5369   -0.5600    0.0000 H   0  0  0  0  0  0  0  0  0  0  0  0
  1 16  1  0  0  0  0
  1 51  1  0  0  0  0
  1 52  1  0  0  0  0
  2  3  1  0  0  0  0
  2  4  1  0  0  0  0
  2 18  1  0  0  0  0
  2 19  1  0  0  0  0
  3  5  1  0  0  0  0
  3 20  1  0  0  0  0
  3 21  1  0  0  0  0
  4  6  1  0  0  0  0
  4 22  1  0  0  0  0
  4 23  1  0  0  0  0
  5  7  1  0  0  0  0
  5 24  1  0  0  0  0
  5 25  1  0  0  0  0
  6  8  1  0  0  0  0
  6 26  1  0  0  0  0
  6 27  1  0  0  0  0
  7  9  1  0  0  0  0
  7 28  1  0  0  0  0
  7 29  1  0  0  0  0
  8 10  1  0  0  0  0
  8 30  1  0  0  0  0
  8 31  1  0  0  0  0
  9 11  1  0  0  0  0
  9 32  1  0  0  0  0
  9 33  1  0  0  0  0
 10 12  1  0  0  0  0
 10 34  1  0  0  0  0
 10 35  1  0  0  0  0
 11 13  1  0  0  0  0
 11 36  1  0  0  0  0
 11 37  1  0  0  0  0
 12 14  1  0  0  0  0
 12 38  1  0  0  0  0
 12 39  1  0  0  0  0
 13 15  1  0  0  0  0
 13 40  1  0  0  0  0
 13 41  1  0  0  0  0
 14 16  1  0  0  0  0
 14 42  1  0  0  0  0
 14 43  1  0  0  0  0
 15 17  1  0  0  0  0
 15 44  1  0  0  0  0
 15 45  1  0  0  0  0
 16 46  1  0  0  0  0
 16 47  1  0  0  0  0
 17 48  1  0  0  0  0
 17 49  1  0  0  0  0
 17 50  1  0  0  0  0
M  END
> <PUBCHEM_COMPOUND_CID>
8926

> <PUBCHEM_COMPOUND_CANONICALIZED>
1

> <PUBCHEM_CACTVS_COMPLEXITY>
123

> <PUBCHEM_CACTVS_HBOND_ACCEPTOR>
1

> <PUBCHEM_CACTVS_HBOND_DONOR>
1

> <PUBCHEM_CACTVS_ROTATABLE_BOND>
14

> <PUBCHEM_CACTVS_SUBSKEYS>
AAADcfB6AAAAAAAAAAAAAAAAAAAAAAAAAAAAAAAAAAAAAAAAAAAAHAAQAAAACADBAAQCAABAAAAAAAAAAAAAAAAAAAAAAIAAAAAAAAIAgAAAAAAAEAAAAAEQgIAAAAAAAAAAAAAAAAAAAAAAAAAAAAAAAA==

> <PUBCHEM_IUPAC_OPENEYE_NAME>
hexadecan-1-amine

> <PUBCHEM_IUPAC_CAS_NAME>
1-hexadecanamine

> <PUBCHEM_IUPAC_NAME>
hexadecan-1-amine

> <PUBCHEM_IUPAC_SYSTEMATIC_NAME>
hexadecan-1-amine

> <PUBCHEM_IUPAC_TRADITIONAL_NAME>
cetylamine

> <PUBCHEM_IUPAC_INCHI>
InChI=1S/C16H35N/c1-2-3-4-5-6-7-8-9-10-11-12-13-14-15-16-17/h2-17H2,1H3

> <PUBCHEM_IUPAC_INCHIKEY>
FJLUATLTXUNBOT-UHFFFAOYSA-N

> <PUBCHEM_XLOGP3>
7.4

> <PUBCHEM_EXACT_MASS>
241.27695

> <PUBCHEM_MOLECULAR_FORMULA>
C16H35N

> <PUBCHEM_MOLECULAR_WEIGHT>
241.4558

> <PUBCHEM_OPENEYE_CAN_SMILES>
CCCCCCCCCCCCCCCCN

> <PUBCHEM_OPENEYE_ISO_SMILES>
CCCCCCCCCCCCCCCCN

> <PUBCHEM_CACTVS_TPSA>
26

> <PUBCHEM_MONOISOTOPIC_WEIGHT>
241.27695

> <PUBCHEM_TOTAL_CHARGE>
0

> <PUBCHEM_HEAVY_ATOM_COUNT>
17

> <PUBCHEM_ATOM_DEF_STEREO_COUNT>
0

> <PUBCHEM_ATOM_UDEF_STEREO_COUNT>
0

> <PUBCHEM_BOND_DEF_STEREO_COUNT>
0

> <PUBCHEM_BOND_UDEF_STEREO_COUNT>
0

> <PUBCHEM_ISOTOPIC_ATOM_COUNT>
0

> <PUBCHEM_COMPONENT_COUNT>
1

> <PUBCHEM_CACTVS_TAUTO_COUNT>
1

> <PUBCHEM_COORDINATE_TYPE>
1
5
255

$$$$

