3935
  -OEChem-06251223462D

 57 56  0     1  0  0  0  0  0999 V2000
   15.5273    1.2500    0.0000 O   0  0  0  0  0  0  0  0  0  0  0  0
   14.6613   -1.2500    0.0000 O   0  0  0  0  0  0  0  0  0  0  0  0
    6.8671    1.2500    0.0000 O   0  0  0  0  0  0  0  0  0  0  0  0
    2.5369   -0.2500    0.0000 O   0  0  0  0  0  0  0  0  0  0  0  0
    3.4030    1.2500    0.0000 O   0  0  0  0  0  0  0  0  0  0  0  0
   16.3933   -0.2500    0.0000 C   0  0  0  0  0  0  0  0  0  0  0  0
   17.2594    0.2500    0.0000 C   0  0  0  0  0  0  0  0  0  0  0  0
   15.5273    0.2500    0.0000 C   0  0  3  0  0  0  0  0  0  0  0  0
   18.1254   -0.2500    0.0000 C   0  0  0  0  0  0  0  0  0  0  0  0
   14.6613   -0.2500    0.0000 C   0  0  3  0  0  0  0  0  0  0  0  0
   18.9914    0.2500    0.0000 C   0  0  0  0  0  0  0  0  0  0  0  0
   13.7953    0.2500    0.0000 C   0  0  0  0  0  0  0  0  0  0  0  0
   19.8574   -0.2500    0.0000 C   0  0  0  0  0  0  0  0  0  0  0  0
    6.0010   -0.2500    0.0000 C   0  0  0  0  0  0  0  0  0  0  0  0
    5.1350    0.2500    0.0000 C   0  0  0  0  0  0  0  0  0  0  0  0
    6.8671    0.2500    0.0000 C   0  0  3  0  0  0  0  0  0  0  0  0
    4.2690   -0.2500    0.0000 C   0  0  0  0  0  0  0  0  0  0  0  0
   12.9292   -0.2500    0.0000 C   0  0  0  0  0  0  0  0  0  0  0  0
    7.7331   -0.2500    0.0000 C   0  0  0  0  0  0  0  0  0  0  0  0
   12.0632    0.2500    0.0000 C   0  0  0  0  0  0  0  0  0  0  0  0
    3.4030    0.2500    0.0000 C   0  0  0  0  0  0  0  0  0  0  0  0
    8.5991    0.2500    0.0000 C   0  0  0  0  0  0  0  0  0  0  0  0
   11.1972   -0.2500    0.0000 C   0  0  0  0  0  0  0  0  0  0  0  0
    9.4651   -0.2500    0.0000 C   0  0  0  0  0  0  0  0  0  0  0  0
   10.3312    0.2500    0.0000 C   0  0  0  0  0  0  0  0  0  0  0  0
   15.9948   -0.7249    0.0000 H   0  0  0  0  0  0  0  0  0  0  0  0
   16.7919   -0.7249    0.0000 H   0  0  0  0  0  0  0  0  0  0  0  0
   17.6579    0.7249    0.0000 H   0  0  0  0  0  0  0  0  0  0  0  0
   16.8608    0.7249    0.0000 H   0  0  0  0  0  0  0  0  0  0  0  0
   16.2634    0.6750    0.0000 H   0  0  0  0  0  0  0  0  0  0  0  0
   17.7269   -0.7249    0.0000 H   0  0  0  0  0  0  0  0  0  0  0  0
   18.5239   -0.7249    0.0000 H   0  0  0  0  0  0  0  0  0  0  0  0
   13.9252   -0.6750    0.0000 H   0  0  0  0  0  0  0  0  0  0  0  0
   19.3899    0.7249    0.0000 H   0  0  0  0  0  0  0  0  0  0  0  0
   18.5929    0.7249    0.0000 H   0  0  0  0  0  0  0  0  0  0  0  0
   13.7953    0.8700    0.0000 H   0  0  0  0  0  0  0  0  0  0  0  0
   19.5474   -0.7869    0.0000 H   0  0  0  0  0  0  0  0  0  0  0  0
   20.3944   -0.5600    0.0000 H   0  0  0  0  0  0  0  0  0  0  0  0
   20.1674    0.2869    0.0000 H   0  0  0  0  0  0  0  0  0  0  0  0
   16.0643    1.5600    0.0000 H   0  0  0  0  0  0  0  0  0  0  0  0
    5.6025   -0.7249    0.0000 H   0  0  0  0  0  0  0  0  0  0  0  0
    6.3996   -0.7249    0.0000 H   0  0  0  0  0  0  0  0  0  0  0  0
    5.5335    0.7249    0.0000 H   0  0  0  0  0  0  0  0  0  0  0  0
    4.7365    0.7249    0.0000 H   0  0  0  0  0  0  0  0  0  0  0  0
    6.1309    0.6750    0.0000 H   0  0  0  0  0  0  0  0  0  0  0  0
   14.1244   -1.5600    0.0000 H   0  0  0  0  0  0  0  0  0  0  0  0
    3.8705   -0.7249    0.0000 H   0  0  0  0  0  0  0  0  0  0  0  0
    4.6675   -0.7249    0.0000 H   0  0  0  0  0  0  0  0  0  0  0  0
   12.9292   -0.8700    0.0000 H   0  0  0  0  0  0  0  0  0  0  0  0
    7.7331   -0.8700    0.0000 H   0  0  0  0  0  0  0  0  0  0  0  0
   12.0632    0.8700    0.0000 H   0  0  0  0  0  0  0  0  0  0  0  0
    6.3301    1.5600    0.0000 H   0  0  0  0  0  0  0  0  0  0  0  0
    8.5991    0.8700    0.0000 H   0  0  0  0  0  0  0  0  0  0  0  0
   11.1972   -0.8700    0.0000 H   0  0  0  0  0  0  0  0  0  0  0  0
    9.4651   -0.8700    0.0000 H   0  0  0  0  0  0  0  0  0  0  0  0
   10.3312    0.8700    0.0000 H   0  0  0  0  0  0  0  0  0  0  0  0
    2.0000    0.0600    0.0000 H   0  0  0  0  0  0  0  0  0  0  0  0
  1  8  1  0  0  0  0
  1 40  1  0  0  0  0
  2 10  1  0  0  0  0
  2 46  1  0  0  0  0
  3 16  1  0  0  0  0
  3 52  1  0  0  0  0
  4 21  1  0  0  0  0
  4 57  1  0  0  0  0
  5 21  2  0  0  0  0
  6  7  1  0  0  0  0
  6  8  1  0  0  0  0
  6 26  1  0  0  0  0
  6 27  1  0  0  0  0
  7  9  1  0  0  0  0
  7 28  1  0  0  0  0
  7 29  1  0  0  0  0
  8 10  1  0  0  0  0
  8 30  1  0  0  0  0
  9 11  1  0  0  0  0
  9 31  1  0  0  0  0
  9 32  1  0  0  0  0
 10 12  1  0  0  0  0
 10 33  1  0  0  0  0
 11 13  1  0  0  0  0
 11 34  1  0  0  0  0
 11 35  1  0  0  0  0
 12 18  2  3  0  0  0
 12 36  1  0  0  0  0
 13 37  1  0  0  0  0
 13 38  1  0  0  0  0
 13 39  1  0  0  0  0
 14 15  1  0  0  0  0
 14 16  1  0  0  0  0
 14 41  1  0  0  0  0
 14 42  1  0  0  0  0
 15 17  1  0  0  0  0
 15 43  1  0  0  0  0
 15 44  1  0  0  0  0
 16 19  1  0  0  0  0
 16 45  1  0  0  0  0
 17 21  1  0  0  0  0
 17 47  1  0  0  0  0
 17 48  1  0  0  0  0
 18 20  1  0  0  0  0
 18 49  1  0  0  0  0
 19 22  2  3  0  0  0
 19 50  1  0  0  0  0
 20 23  2  3  0  0  0
 20 51  1  0  0  0  0
 22 24  1  0  0  0  0
 22 53  1  0  0  0  0
 23 25  1  0  0  0  0
 23 54  1  0  0  0  0
 24 25  2  3  0  0  0
 24 55  1  0  0  0  0
 25 56  1  0  0  0  0
M  END
> <PUBCHEM_COMPOUND_CID>
3935

> <PUBCHEM_COMPOUND_CANONICALIZED>
1

> <PUBCHEM_CACTVS_COMPLEXITY>
451

> <PUBCHEM_CACTVS_HBOND_ACCEPTOR>
5

> <PUBCHEM_CACTVS_HBOND_DONOR>
4

> <PUBCHEM_CACTVS_ROTATABLE_BOND>
14

> <PUBCHEM_CACTVS_SUBSKEYS>
AAADcfB4OAAAAAAAAAAAAAAAAAAAAAAAAAAAAAAAAAAAAAAAAAAAGgAACAAACBSggAICCAAAAgCIACDSCAAAAAAgAAAICAEAAAgJFBIAAQAAUAAEwAAJkAOI7KRAAAAAAAAAAAAAAAAAAAAAAAAAAAAAAA==

> <PUBCHEM_IUPAC_OPENEYE_NAME>
5,14,15-trihydroxyicosa-6,8,10,12-tetraenoic acid

> <PUBCHEM_IUPAC_CAS_NAME>
5,14,15-trihydroxyeicosa-6,8,10,12-tetraenoic acid

> <PUBCHEM_IUPAC_NAME>
5,14,15-trihydroxyicosa-6,8,10,12-tetraenoic acid

> <PUBCHEM_IUPAC_SYSTEMATIC_NAME>
5,14,15-tris(oxidanyl)icosa-6,8,10,12-tetraenoic acid

> <PUBCHEM_IUPAC_TRADITIONAL_NAME>
5,14,15-trihydroxyeicosa-6,8,10,12-tetraenoic acid

> <PUBCHEM_IUPAC_INCHI>
InChI=1S/C20H32O5/c1-2-3-8-14-18(22)19(23)15-10-7-5-4-6-9-12-17(21)13-11-16-20(24)25/h4-7,9-10,12,15,17-19,21-23H,2-3,8,11,13-14,16H2,1H3,(H,24,25)

> <PUBCHEM_IUPAC_INCHIKEY>
UXVRTOKOJOMENI-UHFFFAOYSA-N

> <PUBCHEM_XLOGP3_AA>
3.1

> <PUBCHEM_EXACT_MASS>
352.224974

> <PUBCHEM_MOLECULAR_FORMULA>
C20H32O5

> <PUBCHEM_MOLECULAR_WEIGHT>
352.46508

> <PUBCHEM_OPENEYE_CAN_SMILES>
CCCCCC(C(C=CC=CC=CC=CC(CCCC(=O)O)O)O)O

> <PUBCHEM_OPENEYE_ISO_SMILES>
CCCCCC(C(C=CC=CC=CC=CC(CCCC(=O)O)O)O)O

> <PUBCHEM_CACTVS_TPSA>
98

> <PUBCHEM_MONOISOTOPIC_WEIGHT>
352.224974

> <PUBCHEM_TOTAL_CHARGE>
0

> <PUBCHEM_HEAVY_ATOM_COUNT>
25

> <PUBCHEM_ATOM_DEF_STEREO_COUNT>
0

> <PUBCHEM_ATOM_UDEF_STEREO_COUNT>
3

> <PUBCHEM_BOND_DEF_STEREO_COUNT>
0

> <PUBCHEM_BOND_UDEF_STEREO_COUNT>
4

> <PUBCHEM_ISOTOPIC_ATOM_COUNT>
0

> <PUBCHEM_COMPONENT_COUNT>
1

> <PUBCHEM_CACTVS_TAUTO_COUNT>
1

> <PUBCHEM_COORDINATE_TYPE>
1
5
255

> <PUBCHEM_BONDANNOTATIONS>
10  33  3
12  18  1
16  45  3
19  22  1
20  23  1
24  25  1
8  30  3

$$$$

