586127
  -OEChem-06241222452D

 54 56  0     1  0  0  0  0  0999 V2000
    4.3211    1.0821    0.0000 S   0  0  0  0  0  0  0  0  0  0  0  0
    6.3758    1.4569    0.0000 O   0  0  0  0  0  0  0  0  0  0  0  0
    6.6032   -1.1207    0.0000 O   0  0  0  0  0  0  0  0  0  0  0  0
    8.4892   -0.0362    0.0000 O   0  0  0  0  0  0  0  0  0  0  0  0
    8.3254   -1.3048    0.0000 O   0  0  0  0  0  0  0  0  0  0  0  0
    9.1964    1.5449    0.0000 O   0  0  0  0  0  0  0  0  0  0  0  0
    4.6783   -0.6127    0.0000 N   0  0  0  0  0  0  0  0  0  0  0  0
    4.6783   -2.2222    0.0000 N   0  0  0  0  0  0  0  0  0  0  0  0
    2.8660   -0.4174    0.0000 N   0  0  0  0  0  0  0  0  0  0  0  0
    2.0000   -1.9174    0.0000 N   0  0  0  0  0  0  0  0  0  0  0  0
    2.8660   -3.4174    0.0000 N   0  0  0  0  0  0  0  0  0  0  0  0
    5.9674    0.5440    0.0000 C   0  0  3  0  0  0  0  0  0  0  0  0
    6.7094   -0.1264    0.0000 C   0  0  3  0  0  0  0  0  0  0  0  0
    7.5763    0.3721    0.0000 C   0  0  3  0  0  0  0  0  0  0  0  0
    4.9889    0.3378    0.0000 C   0  0  3  0  0  0  0  0  0  0  0  0
    7.3701    1.3506    0.0000 C   0  0  0  0  0  0  0  0  0  0  0  0
    4.6318    2.0326    0.0000 C   0  0  0  0  0  0  0  0  0  0  0  0
    3.7320   -0.9174    0.0000 C   0  0  0  0  0  0  0  0  0  0  0  0
    3.9639    2.7769    0.0000 C   0  0  0  0  0  0  0  0  0  0  0  0
    5.2619   -1.4175    0.0000 C   0  0  0  0  0  0  0  0  0  0  0  0
    3.7320   -1.9174    0.0000 C   0  0  0  0  0  0  0  0  0  0  0  0
    7.4112   -1.7099    0.0000 C   0  0  0  0  0  0  0  0  0  0  0  0
    9.2992    0.5502    0.0000 C   0  0  0  0  0  0  0  0  0  0  0  0
    4.2746    3.7274    0.0000 C   0  0  0  0  0  0  0  0  0  0  0  0
    2.9854    2.5707    0.0000 C   0  0  0  0  0  0  0  0  0  0  0  0
    2.8660   -2.4174    0.0000 C   0  0  0  0  0  0  0  0  0  0  0  0
    7.3049   -2.7043    0.0000 C   0  0  0  0  0  0  0  0  0  0  0  0
   10.2120    0.1419    0.0000 C   0  0  0  0  0  0  0  0  0  0  0  0
    2.0000   -0.9174    0.0000 C   0  0  0  0  0  0  0  0  0  0  0  0
    5.5781    1.0265    0.0000 H   0  0  0  0  0  0  0  0  0  0  0  0
    6.1302   -0.3476    0.0000 H   0  0  0  0  0  0  0  0  0  0  0  0
    8.0588    0.7615    0.0000 H   0  0  0  0  0  0  0  0  0  0  0  0
    5.1815    0.9271    0.0000 H   0  0  0  0  0  0  0  0  0  0  0  0
    7.9868    1.4144    0.0000 H   0  0  0  0  0  0  0  0  0  0  0  0
    7.3712    1.9706    0.0000 H   0  0  0  0  0  0  0  0  0  0  0  0
    5.1787    1.7406    0.0000 H   0  0  0  0  0  0  0  0  0  0  0  0
    5.0143    2.5205    0.0000 H   0  0  0  0  0  0  0  0  0  0  0  0
    3.5498    3.2384    0.0000 H   0  0  0  0  0  0  0  0  0  0  0  0
    5.8819   -1.4175    0.0000 H   0  0  0  0  0  0  0  0  0  0  0  0
    4.8639    3.5348    0.0000 H   0  0  0  0  0  0  0  0  0  0  0  0
    4.4672    4.3168    0.0000 H   0  0  0  0  0  0  0  0  0  0  0  0
    3.6852    3.9201    0.0000 H   0  0  0  0  0  0  0  0  0  0  0  0
    2.8575    3.1774    0.0000 H   0  0  0  0  0  0  0  0  0  0  0  0
    2.3787    2.4428    0.0000 H   0  0  0  0  0  0  0  0  0  0  0  0
    3.1133    1.9640    0.0000 H   0  0  0  0  0  0  0  0  0  0  0  0
    6.6884   -2.6384    0.0000 H   0  0  0  0  0  0  0  0  0  0  0  0
    7.2390   -3.3208    0.0000 H   0  0  0  0  0  0  0  0  0  0  0  0
    7.9214   -2.7701    0.0000 H   0  0  0  0  0  0  0  0  0  0  0  0
    9.9589   -0.4241    0.0000 H   0  0  0  0  0  0  0  0  0  0  0  0
   10.7780   -0.1113    0.0000 H   0  0  0  0  0  0  0  0  0  0  0  0
   10.4652    0.7078    0.0000 H   0  0  0  0  0  0  0  0  0  0  0  0
    1.4631   -0.6074    0.0000 H   0  0  0  0  0  0  0  0  0  0  0  0
    2.3291   -3.7274    0.0000 H   0  0  0  0  0  0  0  0  0  0  0  0
    3.4030   -3.7274    0.0000 H   0  0  0  0  0  0  0  0  0  0  0  0
  1 15  1  0  0  0  0
  1 17  1  0  0  0  0
  2 12  1  0  0  0  0
  2 16  1  0  0  0  0
  3 13  1  0  0  0  0
  3 22  1  0  0  0  0
  4 14  1  0  0  0  0
  4 23  1  0  0  0  0
  5 22  2  0  0  0  0
  6 23  2  0  0  0  0
  7 15  1  0  0  0  0
  7 18  1  0  0  0  0
  7 20  1  0  0  0  0
  8 20  2  0  0  0  0
  8 21  1  0  0  0  0
  9 18  2  0  0  0  0
  9 29  1  0  0  0  0
 10 26  1  0  0  0  0
 10 29  2  0  0  0  0
 11 26  1  0  0  0  0
 11 53  1  0  0  0  0
 11 54  1  0  0  0  0
 12 13  1  0  0  0  0
 12 15  1  0  0  0  0
 12 30  1  0  0  0  0
 13 14  1  0  0  0  0
 13 31  1  0  0  0  0
 14 16  1  0  0  0  0
 14 32  1  0  0  0  0
 15 33  1  0  0  0  0
 16 34  1  0  0  0  0
 16 35  1  0  0  0  0
 17 19  1  0  0  0  0
 17 36  1  0  0  0  0
 17 37  1  0  0  0  0
 18 21  1  0  0  0  0
 19 24  1  0  0  0  0
 19 25  1  0  0  0  0
 19 38  1  0  0  0  0
 20 39  1  0  0  0  0
 21 26  2  0  0  0  0
 22 27  1  0  0  0  0
 23 28  1  0  0  0  0
 24 40  1  0  0  0  0
 24 41  1  0  0  0  0
 24 42  1  0  0  0  0
 25 43  1  0  0  0  0
 25 44  1  0  0  0  0
 25 45  1  0  0  0  0
 27 46  1  0  0  0  0
 27 47  1  0  0  0  0
 27 48  1  0  0  0  0
 28 49  1  0  0  0  0
 28 50  1  0  0  0  0
 28 51  1  0  0  0  0
 29 52  1  0  0  0  0
M  END
> <PUBCHEM_COMPOUND_CID>
586127

> <PUBCHEM_COMPOUND_CANONICALIZED>
1

> <PUBCHEM_CACTVS_COMPLEXITY>
597

> <PUBCHEM_CACTVS_HBOND_ACCEPTOR>
10

> <PUBCHEM_CACTVS_HBOND_DONOR>
1

> <PUBCHEM_CACTVS_ROTATABLE_BOND>
9

> <PUBCHEM_CACTVS_SUBSKEYS>
AAADceB7uABAAAAAAAAAAAAAAAAAAWJAAAAsAAAAAAAAAFgB+AAAHgQQAAAADRzl1waH+L9MFAioAQbxbACAgC1RELABUCAoVBCDSAJgyEAXBAgPAALyACCwEAIAAAAAAAAAAAAAAAAAAAAAAAAAAAAAAA==

> <PUBCHEM_IUPAC_OPENEYE_NAME>
[4-acetoxy-5-[(6-aminopurin-9-yl)-isobutylsulfanyl-methyl]tetrahydrofuran-3-yl] acetate

> <PUBCHEM_IUPAC_CAS_NAME>
acetic acid [4-acetyloxy-5-[(6-aminopurin-9-yl)-(2-methylpropylthio)methyl]-3-oxolanyl] ester

> <PUBCHEM_IUPAC_NAME>
[4-acetyloxy-5-[(6-aminopurin-9-yl)-(2-methylpropylsulfanyl)methyl]oxolan-3-yl] acetate

> <PUBCHEM_IUPAC_SYSTEMATIC_NAME>
[4-acetyloxy-5-[(6-aminopurin-9-yl)-(2-methylpropylsulfanyl)methyl]oxolan-3-yl] ethanoate

> <PUBCHEM_IUPAC_TRADITIONAL_NAME>
acetic acid [4-acetoxy-5-[adenin-9-yl-(isobutylthio)methyl]tetrahydrofuran-3-yl] ester

> <PUBCHEM_IUPAC_INCHI>
InChI=1S/C18H25N5O5S/c1-9(2)6-29-18(23-8-22-13-16(19)20-7-21-17(13)23)15-14(28-11(4)25)12(5-26-15)27-10(3)24/h7-9,12,14-15,18H,5-6H2,1-4H3,(H2,19,20,21)

> <PUBCHEM_IUPAC_INCHIKEY>
KTRXBYPMZJFBGJ-UHFFFAOYSA-N

> <PUBCHEM_XLOGP3_AA>
1.4

> <PUBCHEM_EXACT_MASS>
423.15764

> <PUBCHEM_MOLECULAR_FORMULA>
C18H25N5O5S

> <PUBCHEM_MOLECULAR_WEIGHT>
423.4866

> <PUBCHEM_OPENEYE_CAN_SMILES>
CC(C)CSC(C1C(C(CO1)OC(=O)C)OC(=O)C)N2C=NC3=C2N=CN=C3N

> <PUBCHEM_OPENEYE_ISO_SMILES>
CC(C)CSC(C1C(C(CO1)OC(=O)C)OC(=O)C)N2C=NC3=C2N=CN=C3N

> <PUBCHEM_CACTVS_TPSA>
157

> <PUBCHEM_MONOISOTOPIC_WEIGHT>
423.15764

> <PUBCHEM_TOTAL_CHARGE>
0

> <PUBCHEM_HEAVY_ATOM_COUNT>
29

> <PUBCHEM_ATOM_DEF_STEREO_COUNT>
0

> <PUBCHEM_ATOM_UDEF_STEREO_COUNT>
4

> <PUBCHEM_BOND_DEF_STEREO_COUNT>
0

> <PUBCHEM_BOND_UDEF_STEREO_COUNT>
0

> <PUBCHEM_ISOTOPIC_ATOM_COUNT>
0

> <PUBCHEM_COMPONENT_COUNT>
1

> <PUBCHEM_CACTVS_TAUTO_COUNT>
3

> <PUBCHEM_COORDINATE_TYPE>
1
5
255

> <PUBCHEM_BONDANNOTATIONS>
15  1  3
10  26  8
10  29  8
18  21  8
12  2  3
21  26  8
13  3  3
14  4  3
7  18  8
7  20  8
8  20  8
8  21  8
9  18  8
9  29  8

$$$$

