17395781
  -OEChem-06241222523D

 35 37  0     1  0  0  0  0  0999 V2000
    2.9886    2.6581    0.7140 S   0  0  0  0  0  0  0  0  0  0  0  0
   -3.2985    0.4912    1.2473 O   0  0  0  0  0  0  0  0  0  0  0  0
   -1.0183    0.8288   -0.2254 N   0  0  1  0  0  0  0  0  0  0  0  0
   -4.5923    0.7725   -0.6301 N   0  0  0  0  0  0  0  0  0  0  0  0
    0.1935    0.1602   -0.7780 C   0  0  1  0  0  0  0  0  0  0  0  0
   -0.9376    2.3017   -0.2892 C   0  0  0  0  0  0  0  0  0  0  0  0
    1.4677    0.8468   -0.3219 C   0  0  0  0  0  0  0  0  0  0  0  0
    0.1951    2.8288    0.6065 C   0  0  0  0  0  0  0  0  0  0  0  0
    1.4462    2.0770    0.3068 C   0  0  0  0  0  0  0  0  0  0  0  0
    0.3205   -1.2798   -0.3036 C   0  0  0  0  0  0  0  0  0  0  0  0
   -2.2294    0.3696   -0.9141 C   0  0  0  0  0  0  0  0  0  0  0  0
    2.8210    0.4171   -0.5286 C   0  0  0  0  0  0  0  0  0  0  0  0
    3.7408    1.2974    0.0003 C   0  0  0  0  0  0  0  0  0  0  0  0
    0.9419   -2.2292   -1.1149 C   0  0  0  0  0  0  0  0  0  0  0  0
   -0.1840   -1.6507    0.9429 C   0  0  0  0  0  0  0  0  0  0  0  0
   -3.4007    0.5510    0.0239 C   0  0  0  0  0  0  0  0  0  0  0  0
    1.0586   -3.5494   -0.6800 C   0  0  0  0  0  0  0  0  0  0  0  0
   -0.0673   -2.9709    1.3778 C   0  0  0  0  0  0  0  0  0  0  0  0
    0.5541   -3.9202    0.5663 C   0  0  0  0  0  0  0  0  0  0  0  0
    0.1623    0.1988   -1.8762 H   0  0  0  0  0  0  0  0  0  0  0  0
   -1.8710    2.7628    0.0559 H   0  0  0  0  0  0  0  0  0  0  0  0
   -0.7800    2.6306   -1.3258 H   0  0  0  0  0  0  0  0  0  0  0  0
   -0.0684    2.6886    1.6621 H   0  0  0  0  0  0  0  0  0  0  0  0
    0.3263    3.9027    0.4323 H   0  0  0  0  0  0  0  0  0  0  0  0
   -2.3867    0.8941   -1.8641 H   0  0  0  0  0  0  0  0  0  0  0  0
   -2.1976   -0.7039   -1.1368 H   0  0  0  0  0  0  0  0  0  0  0  0
    3.1215   -0.4891   -1.0369 H   0  0  0  0  0  0  0  0  0  0  0  0
    4.8180    1.2089   -0.0075 H   0  0  0  0  0  0  0  0  0  0  0  0
    1.3318   -1.9573   -2.0923 H   0  0  0  0  0  0  0  0  0  0  0  0
   -0.6557   -0.9333    1.6083 H   0  0  0  0  0  0  0  0  0  0  0  0
    1.5409   -4.2889   -1.3125 H   0  0  0  0  0  0  0  0  0  0  0  0
   -0.4560   -3.2592    2.3502 H   0  0  0  0  0  0  0  0  0  0  0  0
    0.6456   -4.9479    0.9052 H   0  0  0  0  0  0  0  0  0  0  0  0
   -4.6600    0.8083   -1.6422 H   0  0  0  0  0  0  0  0  0  0  0  0
   -5.4542    0.9060   -0.1117 H   0  0  0  0  0  0  0  0  0  0  0  0
  1  9  1  0  0  0  0
  1 13  1  0  0  0  0
  2 16  2  0  0  0  0
  3  5  1  0  0  0  0
  3  6  1  0  0  0  0
  3 11  1  0  0  0  0
  4 16  1  0  0  0  0
  4 34  1  0  0  0  0
  4 35  1  0  0  0  0
  5  7  1  0  0  0  0
  5 10  1  0  0  0  0
  5 20  1  0  0  0  0
  6  8  1  0  0  0  0
  6 21  1  0  0  0  0
  6 22  1  0  0  0  0
  7  9  2  0  0  0  0
  7 12  1  0  0  0  0
  8  9  1  0  0  0  0
  8 23  1  0  0  0  0
  8 24  1  0  0  0  0
 10 14  2  0  0  0  0
 10 15  1  0  0  0  0
 11 16  1  0  0  0  0
 11 25  1  0  0  0  0
 11 26  1  0  0  0  0
 12 13  2  0  0  0  0
 12 27  1  0  0  0  0
 13 28  1  0  0  0  0
 14 17  1  0  0  0  0
 14 29  1  0  0  0  0
 15 18  2  0  0  0  0
 15 30  1  0  0  0  0
 17 19  2  0  0  0  0
 17 31  1  0  0  0  0
 18 19  1  0  0  0  0
 18 32  1  0  0  0  0
 19 33  1  0  0  0  0
M  END
> <PUBCHEM_COMPOUND_CID>
17395781

> <PUBCHEM_CONFORMER_RMSD>
0.6

> <PUBCHEM_CONFORMER_DIVERSEORDER>
1
50
6
24
12
37
39
29
40
30
47
8
44
49
42
33
41
5
36
20
34
38
35
31
32
22
9
10
26
48
27
15
43
14
25
45
13
18
51
21
28
17
46
7
23
4
11
2
3
16
19

> <PUBCHEM_MMFF94_PARTIAL_CHARGES>
28
1 -0.08
10 -0.14
11 0.33
12 -0.15
13 -0.11
14 -0.15
15 -0.15
16 0.57
17 -0.15
18 -0.15
19 -0.15
2 -0.57
27 0.15
28 0.15
29 0.15
3 -0.81
30 0.15
31 0.15
32 0.15
33 0.15
34 0.37
35 0.37
4 -0.8
5 0.59
6 0.27
7 -0.18
8 0.18
9 -0.14

> <PUBCHEM_EFFECTIVE_ROTOR_COUNT>
3.8

> <PUBCHEM_PHARMACOPHORE_FEATURES>
6
1 2 acceptor
1 3 cation
1 4 donor
5 1 7 9 12 13 rings
6 10 14 15 17 18 19 rings
6 3 5 6 7 8 9 rings

> <PUBCHEM_HEAVY_ATOM_COUNT>
19

> <PUBCHEM_ATOM_DEF_STEREO_COUNT>
0

> <PUBCHEM_ATOM_UDEF_STEREO_COUNT>
1

> <PUBCHEM_BOND_DEF_STEREO_COUNT>
0

> <PUBCHEM_BOND_UDEF_STEREO_COUNT>
0

> <PUBCHEM_ISOTOPIC_ATOM_COUNT>
0

> <PUBCHEM_COMPONENT_COUNT>
1

> <PUBCHEM_CACTVS_TAUTO_COUNT>
2

> <PUBCHEM_CONFORMER_ID>
0109704500000001

> <PUBCHEM_MMFF94_ENERGY>
47.5476

> <PUBCHEM_FEATURE_SELFOVERLAP>
30.503

> <PUBCHEM_SHAPE_FINGERPRINT>
104564 63 17186712823739759820
1100329 8 18340216270883054186
12553582 1 17113535372913889631
12716301 132 17981862191259013478
12788726 201 17544777637242055274
13004483 165 17183915666311814930
13083527 12 18053126156844870291
13140716 1 18410578366155483650
14178342 30 18267847450988236809
14787075 74 18053647351369352982
15309172 13 18410573938007511953
16945 1 18261678176526888108
19591789 44 18410576145673215806
20028762 73 17972031436531988679
20645477 70 18266749159220558013
20905425 154 17902794394587072772
21041028 32 17832134296628024425
21421861 104 18124592252371632953
21452121 199 17905904917002802427
21524375 3 18337397045337369519
21731228 192 18338515214424405081
23184049 29 17690281937968444551
2334 1 18193557774597970542
23419403 2 17553716945938218842
23558518 356 17833003645364378981
2748010 2 18120634869504656582
298252 57 17095805412639664140
3084891 72 18408606937786350400
33824 294 18411701006651354663
3383291 50 18338800134899577194
43471831 8 18338801238009099180
589210 1 17833829747842959956
6138700 20 18265332988270804222
6992083 37 16822752458922744410
7364860 26 18265618873477086927
7471813 234 17904785605923977807
81228 2 17550120164077505166
81539 233 18342744039292605685

> <PUBCHEM_SHAPE_MULTIPOLES>
379.03
5.08
4.67
1.11
2.6
3.23
-0.14
-3.68
-0.58
-3.84
-0.27
-0.35
0.36
0.86

> <PUBCHEM_SHAPE_SELFOVERLAP>
806.078

> <PUBCHEM_SHAPE_VOLUME>
212.5

> <PUBCHEM_COORDINATE_TYPE>
2
5
10

$$$$

