854043
  -OEChem-06241222473D

 19 20  0     0  0  0  0  0  0999 V2000
   -3.7352    2.0357    0.1830 Br  0  0  0  0  0  0  0  0  0  0  0  0
    2.1258   -0.5544    0.4815 O   0  0  0  0  0  0  0  0  0  0  0  0
    0.4131   -2.3423   -0.1980 O   0  0  0  0  0  0  0  0  0  0  0  0
    3.4263   -0.0718    0.3997 N   0  0  0  0  0  0  0  0  0  0  0  0
   -0.1136   -0.0022   -0.0389 C   0  0  0  0  0  0  0  0  0  0  0  0
    1.2848    0.3606   -0.0537 C   0  0  0  0  0  0  0  0  0  0  0  0
   -0.5063   -1.3388   -0.1103 C   0  0  0  0  0  0  0  0  0  0  0  0
   -1.0759    1.0037    0.0494 C   0  0  0  0  0  0  0  0  0  0  0  0
   -1.8613   -1.6694   -0.0935 C   0  0  0  0  0  0  0  0  0  0  0  0
   -2.4309    0.6731    0.0660 C   0  0  0  0  0  0  0  0  0  0  0  0
   -2.8236   -0.6634   -0.0055 C   0  0  0  0  0  0  0  0  0  0  0  0
    1.9817    1.4455   -0.4936 C   0  0  0  0  0  0  0  0  0  0  0  0
    3.3150    1.1238   -0.1862 C   0  0  0  0  0  0  0  0  0  0  0  0
   -0.7789    2.0488    0.1104 H   0  0  0  0  0  0  0  0  0  0  0  0
   -2.1742   -2.7085   -0.1491 H   0  0  0  0  0  0  0  0  0  0  0  0
    1.6004    2.3378   -0.9676 H   0  0  0  0  0  0  0  0  0  0  0  0
   -3.8752   -0.9380    0.0060 H   0  0  0  0  0  0  0  0  0  0  0  0
    4.2081    1.7050   -0.3630 H   0  0  0  0  0  0  0  0  0  0  0  0
    1.2960   -1.9874   -0.3860 H   0  0  0  0  0  0  0  0  0  0  0  0
  1 10  1  0  0  0  0
  2  4  1  0  0  0  0
  2  6  1  0  0  0  0
  3  7  1  0  0  0  0
  3 19  1  0  0  0  0
  4 13  2  0  0  0  0
  5  6  1  0  0  0  0
  5  7  2  0  0  0  0
  5  8  1  0  0  0  0
  6 12  2  0  0  0  0
  7  9  1  0  0  0  0
  8 10  2  0  0  0  0
  8 14  1  0  0  0  0
  9 11  2  0  0  0  0
  9 15  1  0  0  0  0
 10 11  1  0  0  0  0
 11 17  1  0  0  0  0
 12 13  1  0  0  0  0
 12 16  1  0  0  0  0
 13 18  1  0  0  0  0
M  END
> <PUBCHEM_COMPOUND_CID>
854043

> <PUBCHEM_CONFORMER_RMSD>
0.4

> <PUBCHEM_CONFORMER_DIVERSEORDER>
2
5
4
1
3
6

> <PUBCHEM_MMFF94_PARTIAL_CHARGES>
19
1 -0.11
10 0.11
11 -0.15
12 -0.15
13 0.14
14 0.15
15 0.15
16 0.15
17 0.15
18 0.15
19 0.45
2 -0.02
3 -0.53
4 -0.41
5 0.05
6 0.09
7 0.08
8 -0.15
9 -0.15

> <PUBCHEM_EFFECTIVE_ROTOR_COUNT>
1

> <PUBCHEM_PHARMACOPHORE_FEATURES>
5
1 1 hydrophobe
1 3 donor
1 4 acceptor
5 2 4 6 12 13 rings
6 5 7 8 9 10 11 rings

> <PUBCHEM_HEAVY_ATOM_COUNT>
13

> <PUBCHEM_ATOM_DEF_STEREO_COUNT>
0

> <PUBCHEM_ATOM_UDEF_STEREO_COUNT>
0

> <PUBCHEM_BOND_DEF_STEREO_COUNT>
0

> <PUBCHEM_BOND_UDEF_STEREO_COUNT>
0

> <PUBCHEM_ISOTOPIC_ATOM_COUNT>
0

> <PUBCHEM_COMPONENT_COUNT>
1

> <PUBCHEM_CACTVS_TAUTO_COUNT>
4

> <PUBCHEM_CONFORMER_ID>
000D081B00000002

> <PUBCHEM_MMFF94_ENERGY>
26.616

> <PUBCHEM_FEATURE_SELFOVERLAP>
25.371

> <PUBCHEM_SHAPE_FINGERPRINT>
10465860 228 18119520196648003161
10608611 8 18262802860989959064
10967382 1 18266458891723436661
11680986 33 18193548089747904915
12251169 10 18272651272475718233
12491281 212 18342731888645684121
12932764 1 17604150307379706094
13380535 21 18336816606767729035
13380535 76 18338800117191232135
14144814 61 18341333301523616248
14325111 11 18411136922262376468
14897335 6 18336550529312123589
15442244 35 18340772623787125680
15669948 3 18191870020213005366
15775835 57 18342734122055201048
16945 1 18193839236637096558
18186145 218 18040707065487381904
193761 8 17545601617980106580
19422 9 18059574650844551658
20510252 161 18188766141790026545
20711983 171 18410008823358704284
20871998 184 18044368323286093591
21501502 16 18338523040161046115
21524375 3 18410295856497738933
23402539 116 18187656794560678493
23463225 33 18342461469215428154
23559900 14 18113617894351088216
2748010 2 18265882726524832943
305870 269 18341049721902284155
3071541 12 17975688708336317551
528886 8 18410299124588049705
7364860 26 18045217399623466031

> <PUBCHEM_SHAPE_MULTIPOLES>
256.76
5.82
2.15
0.66
0.53
0.49
0.01
-3.2
-0.39
-1.07
0.13
0.03
-0.06
-0.32

> <PUBCHEM_SHAPE_SELFOVERLAP>
545.648

> <PUBCHEM_SHAPE_VOLUME>
147.8

> <PUBCHEM_COORDINATE_TYPE>
2
5
10

$$$$

