47205656
  -OEChem-06241222592D

 33 34  0     0  0  0  0  0  0999 V2000
    2.8660   -4.3512    0.0000 Cl  0  0  0  0  0  0  0  0  0  0  0  0
    5.5686    4.1433    0.0000 S   0  0  0  0  0  0  0  0  0  0  0  0
    2.8660    1.6488    0.0000 O   0  0  0  0  0  0  0  0  0  0  0  0
    4.5981   -0.3512    0.0000 O   0  0  0  0  0  0  0  0  0  0  0  0
    4.5981    1.6488    0.0000 N   0  0  0  0  0  0  0  0  0  0  0  0
    2.8660   -0.3512    0.0000 N   0  0  0  0  0  0  0  0  0  0  0  0
    5.4641    3.1488    0.0000 C   0  0  0  0  0  0  0  0  0  0  0  0
    4.5981    2.6488    0.0000 C   0  0  0  0  0  0  0  0  0  0  0  0
    6.3776    2.7420    0.0000 C   0  0  0  0  0  0  0  0  0  0  0  0
    7.0468    3.4852    0.0000 C   0  0  0  0  0  0  0  0  0  0  0  0
    6.5856    1.7639    0.0000 C   0  0  0  0  0  0  0  0  0  0  0  0
    6.5468    4.3512    0.0000 C   0  0  0  0  0  0  0  0  0  0  0  0
    3.7320    1.1488    0.0000 C   0  0  0  0  0  0  0  0  0  0  0  0
    2.8660   -1.3512    0.0000 C   0  0  0  0  0  0  0  0  0  0  0  0
    3.7320    0.1488    0.0000 C   0  0  0  0  0  0  0  0  0  0  0  0
    2.0000   -1.8512    0.0000 C   0  0  0  0  0  0  0  0  0  0  0  0
    3.7320   -1.8512    0.0000 C   0  0  0  0  0  0  0  0  0  0  0  0
    2.0000   -2.8512    0.0000 C   0  0  0  0  0  0  0  0  0  0  0  0
    3.7320   -2.8512    0.0000 C   0  0  0  0  0  0  0  0  0  0  0  0
    2.8660   -3.3512    0.0000 C   0  0  0  0  0  0  0  0  0  0  0  0
    4.3860    3.2314    0.0000 H   0  0  0  0  0  0  0  0  0  0  0  0
    3.9875    2.5411    0.0000 H   0  0  0  0  0  0  0  0  0  0  0  0
    7.6634    3.4204    0.0000 H   0  0  0  0  0  0  0  0  0  0  0  0
    5.1350    1.3388    0.0000 H   0  0  0  0  0  0  0  0  0  0  0  0
    5.9791    1.6350    0.0000 H   0  0  0  0  0  0  0  0  0  0  0  0
    6.7145    1.1574    0.0000 H   0  0  0  0  0  0  0  0  0  0  0  0
    7.1920    1.8928    0.0000 H   0  0  0  0  0  0  0  0  0  0  0  0
    6.7990    4.9176    0.0000 H   0  0  0  0  0  0  0  0  0  0  0  0
    2.3291   -0.0412    0.0000 H   0  0  0  0  0  0  0  0  0  0  0  0
    1.4631   -1.5412    0.0000 H   0  0  0  0  0  0  0  0  0  0  0  0
    4.2690   -1.5412    0.0000 H   0  0  0  0  0  0  0  0  0  0  0  0
    1.4631   -3.1612    0.0000 H   0  0  0  0  0  0  0  0  0  0  0  0
    4.2690   -3.1612    0.0000 H   0  0  0  0  0  0  0  0  0  0  0  0
  1 20  1  0  0  0  0
  2  7  1  0  0  0  0
  2 12  1  0  0  0  0
  3 13  2  0  0  0  0
  4 15  2  0  0  0  0
  5  8  1  0  0  0  0
  5 13  1  0  0  0  0
  5 24  1  0  0  0  0
  6 14  1  0  0  0  0
  6 15  1  0  0  0  0
  6 29  1  0  0  0  0
  7  8  1  0  0  0  0
  7  9  2  0  0  0  0
  8 21  1  0  0  0  0
  8 22  1  0  0  0  0
  9 10  1  0  0  0  0
  9 11  1  0  0  0  0
 10 12  2  0  0  0  0
 10 23  1  0  0  0  0
 11 25  1  0  0  0  0
 11 26  1  0  0  0  0
 11 27  1  0  0  0  0
 12 28  1  0  0  0  0
 13 15  1  0  0  0  0
 14 16  2  0  0  0  0
 14 17  1  0  0  0  0
 16 18  1  0  0  0  0
 16 30  1  0  0  0  0
 17 19  2  0  0  0  0
 17 31  1  0  0  0  0
 18 20  2  0  0  0  0
 18 32  1  0  0  0  0
 19 20  1  0  0  0  0
 19 33  1  0  0  0  0
M  END
> <PUBCHEM_COMPOUND_CID>
47205656

> <PUBCHEM_COMPOUND_CANONICALIZED>
1

> <PUBCHEM_CACTVS_COMPLEXITY>
359

> <PUBCHEM_CACTVS_HBOND_ACCEPTOR>
3

> <PUBCHEM_CACTVS_HBOND_DONOR>
2

> <PUBCHEM_CACTVS_ROTATABLE_BOND>
3

> <PUBCHEM_CACTVS_SUBSKEYS>
AAADccBzMABEAAAAAAAAAAAAAAAAASAAAAAwAAAAAAAAAAABwAAAHgYQAAAADArF2CSywYLAAAiMAiVSUACDAIAhDxBIiJiIZogIYCLhk7GUIAhglgDoyAcQAAAKAABAAAAAAAAAAIAAAAAAAAAAAAAAAA==

> <PUBCHEM_IUPAC_OPENEYE_NAME>
N'-(4-chlorophenyl)-N-[(3-methyl-2-thienyl)methyl]oxamide

> <PUBCHEM_IUPAC_CAS_NAME>
N'-(4-chlorophenyl)-N-[(3-methyl-2-thiophenyl)methyl]oxamide

> <PUBCHEM_IUPAC_NAME>
N'-(4-chlorophenyl)-N-[(3-methylthiophen-2-yl)methyl]oxamide

> <PUBCHEM_IUPAC_SYSTEMATIC_NAME>
N'-(4-chlorophenyl)-N-[(3-methylthiophen-2-yl)methyl]ethanediamide

> <PUBCHEM_IUPAC_TRADITIONAL_NAME>
N'-(4-chlorophenyl)-N-[(3-methyl-2-thienyl)methyl]oxamide

> <PUBCHEM_IUPAC_INCHI>
InChI=1S/C14H13ClN2O2S/c1-9-6-7-20-12(9)8-16-13(18)14(19)17-11-4-2-10(15)3-5-11/h2-7H,8H2,1H3,(H,16,18)(H,17,19)

> <PUBCHEM_IUPAC_INCHIKEY>
BMTRFJRXWAHBGK-UHFFFAOYSA-N

> <PUBCHEM_XLOGP3_AA>
3

> <PUBCHEM_EXACT_MASS>
308.038626

> <PUBCHEM_MOLECULAR_FORMULA>
C14H13ClN2O2S

> <PUBCHEM_MOLECULAR_WEIGHT>
308.78322

> <PUBCHEM_OPENEYE_CAN_SMILES>
CC1=C(SC=C1)CNC(=O)C(=O)NC2=CC=C(C=C2)Cl

> <PUBCHEM_OPENEYE_ISO_SMILES>
CC1=C(SC=C1)CNC(=O)C(=O)NC2=CC=C(C=C2)Cl

> <PUBCHEM_CACTVS_TPSA>
86.4

> <PUBCHEM_MONOISOTOPIC_WEIGHT>
308.038626

> <PUBCHEM_TOTAL_CHARGE>
0

> <PUBCHEM_HEAVY_ATOM_COUNT>
20

> <PUBCHEM_ATOM_DEF_STEREO_COUNT>
0

> <PUBCHEM_ATOM_UDEF_STEREO_COUNT>
0

> <PUBCHEM_BOND_DEF_STEREO_COUNT>
0

> <PUBCHEM_BOND_UDEF_STEREO_COUNT>
0

> <PUBCHEM_ISOTOPIC_ATOM_COUNT>
0

> <PUBCHEM_COMPONENT_COUNT>
1

> <PUBCHEM_CACTVS_TAUTO_COUNT>
4

> <PUBCHEM_COORDINATE_TYPE>
1
5
255

> <PUBCHEM_BONDANNOTATIONS>
10  12  8
14  16  8
14  17  8
16  18  8
17  19  8
18  20  8
19  20  8
2  12  8
2  7  8
7  9  8
9  10  8

$$$$

