6316
  -OEChem-06261201142D

 34 33  0     1  0  0  0  0  0999 V2000
    6.5380    3.8100    0.0000 Cl  0  0  0  0  0  0  0  0  0  0  0  0
    0.5369    5.0000    0.0000 O   0  0  0  0  0  0  0  0  0  0  0  0
    0.5369    0.0000    0.0000 O   0  5  0  0  0  0  0  0  0  0  0  0
    2.2690    0.0000    0.0000 O   0  0  0  0  0  0  0  0  0  0  0  0
    2.2690    6.0000    0.0000 N   0  0  0  0  0  0  0  0  0  0  0  0
    1.4030    0.5000    0.0000 N   0  3  0  0  0  0  0  0  0  0  0  0
    1.4030    4.5000    0.0000 C   0  0  3  0  0  0  0  0  0  0  0  0
    2.2690    5.0000    0.0000 C   0  0  0  0  0  0  0  0  0  0  0  0
    3.1350    6.5000    0.0000 C   0  0  0  0  0  0  0  0  0  0  0  0
    1.4030    3.5000    0.0000 C   0  0  0  0  0  0  0  0  0  0  0  0
    3.1350    7.5000    0.0000 C   0  0  0  0  0  0  0  0  0  0  0  0
    4.0010    6.0000    0.0000 C   0  0  0  0  0  0  0  0  0  0  0  0
    0.5369    3.0000    0.0000 C   0  0  0  0  0  0  0  0  0  0  0  0
    2.2690    3.0000    0.0000 C   0  0  0  0  0  0  0  0  0  0  0  0
    0.5369    2.0000    0.0000 C   0  0  0  0  0  0  0  0  0  0  0  0
    2.2690    2.0000    0.0000 C   0  0  0  0  0  0  0  0  0  0  0  0
    1.4030    1.5000    0.0000 C   0  0  0  0  0  0  0  0  0  0  0  0
    1.4030    5.1200    0.0000 H   0  0  0  0  0  0  0  0  0  0  0  0
    2.4810    4.4174    0.0000 H   0  0  0  0  0  0  0  0  0  0  0  0
    2.8796    5.1077    0.0000 H   0  0  0  0  0  0  0  0  0  0  0  0
    3.1350    5.8800    0.0000 H   0  0  0  0  0  0  0  0  0  0  0  0
    1.7320    6.3100    0.0000 H   0  0  0  0  0  0  0  0  0  0  0  0
    3.6910    5.4631    0.0000 H   0  0  0  0  0  0  0  0  0  0  0  0
    4.5380    5.6900    0.0000 H   0  0  0  0  0  0  0  0  0  0  0  0
    3.7550    7.5000    0.0000 H   0  0  0  0  0  0  0  0  0  0  0  0
    3.1350    8.1200    0.0000 H   0  0  0  0  0  0  0  0  0  0  0  0
    2.5150    7.5000    0.0000 H   0  0  0  0  0  0  0  0  0  0  0  0
    4.3110    6.5369    0.0000 H   0  0  0  0  0  0  0  0  0  0  0  0
    0.0000    3.3100    0.0000 H   0  0  0  0  0  0  0  0  0  0  0  0
    2.8059    3.3100    0.0000 H   0  0  0  0  0  0  0  0  0  0  0  0
    0.5369    5.6200    0.0000 H   0  0  0  0  0  0  0  0  0  0  0  0
    0.0000    1.6900    0.0000 H   0  0  0  0  0  0  0  0  0  0  0  0
    2.8059    1.6900    0.0000 H   0  0  0  0  0  0  0  0  0  0  0  0
    7.5380    3.8100    0.0000 H   0  0  0  0  0  0  0  0  0  0  0  0
  1 34  1  0  0  0  0
  2  7  1  0  0  0  0
  2 31  1  0  0  0  0
  3  6  1  0  0  0  0
  4  6  2  0  0  0  0
  5  8  1  0  0  0  0
  5  9  1  0  0  0  0
  5 22  1  0  0  0  0
  6 17  1  0  0  0  0
  7  8  1  0  0  0  0
  7 10  1  0  0  0  0
  7 18  1  0  0  0  0
  8 19  1  0  0  0  0
  8 20  1  0  0  0  0
  9 11  1  0  0  0  0
  9 12  1  0  0  0  0
  9 21  1  0  0  0  0
 10 13  2  0  0  0  0
 10 14  1  0  0  0  0
 11 25  1  0  0  0  0
 11 26  1  0  0  0  0
 11 27  1  0  0  0  0
 12 23  1  0  0  0  0
 12 24  1  0  0  0  0
 12 28  1  0  0  0  0
 13 15  1  0  0  0  0
 13 29  1  0  0  0  0
 14 16  2  0  0  0  0
 14 30  1  0  0  0  0
 15 17  2  0  0  0  0
 15 32  1  0  0  0  0
 16 17  1  0  0  0  0
 16 33  1  0  0  0  0
M  CHG  2   3  -1   6   1
M  END
> <PUBCHEM_COMPOUND_CID>
6316

> <PUBCHEM_COMPOUND_CANONICALIZED>
1

> <PUBCHEM_CACTVS_COMPLEXITY>
220

> <PUBCHEM_CACTVS_HBOND_ACCEPTOR>
4

> <PUBCHEM_CACTVS_HBOND_DONOR>
3

> <PUBCHEM_CACTVS_ROTATABLE_BOND>
4

> <PUBCHEM_CACTVS_SUBSKEYS>
AAADceBzMAAEAAAAAAAAAAAAAAAAAAAAAAAwAAAAAAAAAAABAAAAHgAUCAAADDzhmAYywILQQgCBAiRCQwCCAAAgAgAoiIAIbIoKNiKAkZGEcABk0AGY2AeQ0KEOCAAAAAAAAAAQAAAAAAAAAAAAAAAAAA==

> <PUBCHEM_IUPAC_OPENEYE_NAME>
2-(isopropylamino)-1-(4-nitrophenyl)ethanol hydrochloride

> <PUBCHEM_IUPAC_CAS_NAME>
1-(4-nitrophenyl)-2-(propan-2-ylamino)ethanol hydrochloride

> <PUBCHEM_IUPAC_NAME>
1-(4-nitrophenyl)-2-(propan-2-ylamino)ethanol hydrochloride

> <PUBCHEM_IUPAC_SYSTEMATIC_NAME>
1-(4-nitrophenyl)-2-(propan-2-ylamino)ethanol hydrochloride

> <PUBCHEM_IUPAC_TRADITIONAL_NAME>
2-(isopropylamino)-1-(4-nitrophenyl)ethanol hydrochloride

> <PUBCHEM_IUPAC_INCHI>
InChI=1S/C11H16N2O3.ClH/c1-8(2)12-7-11(14)9-3-5-10(6-4-9)13(15)16;/h3-6,8,11-12,14H,7H2,1-2H3;1H

> <PUBCHEM_IUPAC_INCHIKEY>
STGOXRVTUNXXLQ-UHFFFAOYSA-N

> <PUBCHEM_EXACT_MASS>
260.09277

> <PUBCHEM_MOLECULAR_FORMULA>
C11H17ClN2O3

> <PUBCHEM_MOLECULAR_WEIGHT>
260.71728

> <PUBCHEM_OPENEYE_CAN_SMILES>
CC(C)NCC(C1=CC=C(C=C1)[N+](=O)[O-])O.Cl

> <PUBCHEM_OPENEYE_ISO_SMILES>
CC(C)NCC(C1=CC=C(C=C1)[N+](=O)[O-])O.Cl

> <PUBCHEM_CACTVS_TPSA>
78.1

> <PUBCHEM_MONOISOTOPIC_WEIGHT>
260.09277

> <PUBCHEM_TOTAL_CHARGE>
0

> <PUBCHEM_HEAVY_ATOM_COUNT>
17

> <PUBCHEM_ATOM_DEF_STEREO_COUNT>
0

> <PUBCHEM_ATOM_UDEF_STEREO_COUNT>
1

> <PUBCHEM_BOND_DEF_STEREO_COUNT>
0

> <PUBCHEM_BOND_UDEF_STEREO_COUNT>
0

> <PUBCHEM_ISOTOPIC_ATOM_COUNT>
0

> <PUBCHEM_COMPONENT_COUNT>
2

> <PUBCHEM_CACTVS_TAUTO_COUNT>
1

> <PUBCHEM_COORDINATE_TYPE>
1
5
255

> <PUBCHEM_BONDANNOTATIONS>
10  13  8
10  14  8
13  15  8
14  16  8
15  17  8
16  17  8
7  2  3

$$$$

