17396538
  -OEChem-06241222572D

 37 38  0     0  0  0  0  0  0999 V2000
    6.5468    2.7252    0.0000 S   0  0  0  0  0  0  0  0  0  0  0  0
    4.5981    0.0228    0.0000 O   0  0  0  0  0  0  0  0  0  0  0  0
    2.8660    0.0228    0.0000 O   0  0  0  0  0  0  0  0  0  0  0  0
    8.2224    3.4772    0.0000 O   0  0  0  0  0  0  0  0  0  0  0  0
    6.3776    1.1160    0.0000 N   0  0  0  0  0  0  0  0  0  0  0  0
    8.0413    1.7547    0.0000 N   0  0  0  0  0  0  0  0  0  0  0  0
    3.7320   -1.4772    0.0000 C   0  0  0  0  0  0  0  0  0  0  0  0
    2.8660   -1.9772    0.0000 C   0  0  0  0  0  0  0  0  0  0  0  0
    4.5981   -2.9772    0.0000 C   0  0  0  0  0  0  0  0  0  0  0  0
    4.5981   -1.9772    0.0000 C   0  0  0  0  0  0  0  0  0  0  0  0
    2.8660   -2.9772    0.0000 C   0  0  0  0  0  0  0  0  0  0  0  0
    3.7320   -3.4772    0.0000 C   0  0  0  0  0  0  0  0  0  0  0  0
    3.7320   -0.4772    0.0000 C   0  0  0  0  0  0  0  0  0  0  0  0
    4.5981    1.0228    0.0000 C   0  0  0  0  0  0  0  0  0  0  0  0
    2.0000   -1.4772    0.0000 C   0  0  0  0  0  0  0  0  0  0  0  0
    5.4641    1.5228    0.0000 C   0  0  0  0  0  0  0  0  0  0  0  0
    5.4641   -3.4772    0.0000 C   0  0  0  0  0  0  0  0  0  0  0  0
    5.5686    2.5173    0.0000 C   0  0  0  0  0  0  0  0  0  0  0  0
    7.0468    1.8592    0.0000 C   0  0  0  0  0  0  0  0  0  0  0  0
    8.6291    2.5637    0.0000 C   0  0  0  0  0  0  0  0  0  0  0  0
    9.6236    2.4592    0.0000 C   0  0  0  0  0  0  0  0  0  0  0  0
    5.1350   -1.6672    0.0000 H   0  0  0  0  0  0  0  0  0  0  0  0
    2.3291   -3.2872    0.0000 H   0  0  0  0  0  0  0  0  0  0  0  0
    3.7320   -4.0972    0.0000 H   0  0  0  0  0  0  0  0  0  0  0  0
    4.3860    1.6054    0.0000 H   0  0  0  0  0  0  0  0  0  0  0  0
    3.9875    0.9151    0.0000 H   0  0  0  0  0  0  0  0  0  0  0  0
    2.3100   -0.9403    0.0000 H   0  0  0  0  0  0  0  0  0  0  0  0
    1.4631   -1.1672    0.0000 H   0  0  0  0  0  0  0  0  0  0  0  0
    1.6900   -2.0142    0.0000 H   0  0  0  0  0  0  0  0  0  0  0  0
    5.1541   -4.0142    0.0000 H   0  0  0  0  0  0  0  0  0  0  0  0
    6.0010   -3.7872    0.0000 H   0  0  0  0  0  0  0  0  0  0  0  0
    5.7741   -2.9403    0.0000 H   0  0  0  0  0  0  0  0  0  0  0  0
    5.1079    2.9322    0.0000 H   0  0  0  0  0  0  0  0  0  0  0  0
    8.2935    1.1883    0.0000 H   0  0  0  0  0  0  0  0  0  0  0  0
    9.5588    1.8425    0.0000 H   0  0  0  0  0  0  0  0  0  0  0  0
   10.2402    2.3943    0.0000 H   0  0  0  0  0  0  0  0  0  0  0  0
    9.6884    3.0758    0.0000 H   0  0  0  0  0  0  0  0  0  0  0  0
  1 18  1  0  0  0  0
  1 19  1  0  0  0  0
  2 13  1  0  0  0  0
  2 14  1  0  0  0  0
  3 13  2  0  0  0  0
  4 20  2  0  0  0  0
  5 16  1  0  0  0  0
  5 19  2  0  0  0  0
  6 19  1  0  0  0  0
  6 20  1  0  0  0  0
  6 34  1  0  0  0  0
  7  8  2  0  0  0  0
  7 10  1  0  0  0  0
  7 13  1  0  0  0  0
  8 11  1  0  0  0  0
  8 15  1  0  0  0  0
  9 10  2  0  0  0  0
  9 12  1  0  0  0  0
  9 17  1  0  0  0  0
 10 22  1  0  0  0  0
 11 12  2  0  0  0  0
 11 23  1  0  0  0  0
 12 24  1  0  0  0  0
 14 16  1  0  0  0  0
 14 25  1  0  0  0  0
 14 26  1  0  0  0  0
 15 27  1  0  0  0  0
 15 28  1  0  0  0  0
 15 29  1  0  0  0  0
 16 18  2  0  0  0  0
 17 30  1  0  0  0  0
 17 31  1  0  0  0  0
 17 32  1  0  0  0  0
 18 33  1  0  0  0  0
 20 21  1  0  0  0  0
 21 35  1  0  0  0  0
 21 36  1  0  0  0  0
 21 37  1  0  0  0  0
M  END
> <PUBCHEM_COMPOUND_CID>
17396538

> <PUBCHEM_COMPOUND_CANONICALIZED>
1

> <PUBCHEM_CACTVS_COMPLEXITY>
391

> <PUBCHEM_CACTVS_HBOND_ACCEPTOR>
5

> <PUBCHEM_CACTVS_HBOND_DONOR>
1

> <PUBCHEM_CACTVS_ROTATABLE_BOND>
5

> <PUBCHEM_CACTVS_SUBSKEYS>
AAADceBzMABAAAAAAAAAAAAAAAAAAWAAAAAwAAAAAAAAAAABwAAAHgQQAAAADAil3gKzmZLIFAisAyXyfAQC8KllCjkJiBUQKMiKJjKgPRiDMQAs0QMYqaeIyOCOwAACAAAQAACAAAQAACAAAAAAAAAAAA==

> <PUBCHEM_IUPAC_OPENEYE_NAME>
(2-acetamidothiazol-4-yl)methyl 2,5-dimethylbenzoate

> <PUBCHEM_IUPAC_CAS_NAME>
2,5-dimethylbenzoic acid (2-acetamido-4-thiazolyl)methyl ester

> <PUBCHEM_IUPAC_NAME>
(2-acetamido-1,3-thiazol-4-yl)methyl 2,5-dimethylbenzoate

> <PUBCHEM_IUPAC_SYSTEMATIC_NAME>
(2-acetamido-1,3-thiazol-4-yl)methyl 2,5-dimethylbenzoate

> <PUBCHEM_IUPAC_TRADITIONAL_NAME>
2,5-dimethylbenzoic acid (2-acetamidothiazol-4-yl)methyl ester

> <PUBCHEM_IUPAC_INCHI>
InChI=1S/C15H16N2O3S/c1-9-4-5-10(2)13(6-9)14(19)20-7-12-8-21-15(17-12)16-11(3)18/h4-6,8H,7H2,1-3H3,(H,16,17,18)

> <PUBCHEM_IUPAC_INCHIKEY>
PVVHQULBMUARKC-UHFFFAOYSA-N

> <PUBCHEM_XLOGP3_AA>
2.6

> <PUBCHEM_EXACT_MASS>
304.088163

> <PUBCHEM_MOLECULAR_FORMULA>
C15H16N2O3S

> <PUBCHEM_MOLECULAR_WEIGHT>
304.36414

> <PUBCHEM_OPENEYE_CAN_SMILES>
CC1=CC(=C(C=C1)C)C(=O)OCC2=CSC(=N2)NC(=O)C

> <PUBCHEM_OPENEYE_ISO_SMILES>
CC1=CC(=C(C=C1)C)C(=O)OCC2=CSC(=N2)NC(=O)C

> <PUBCHEM_CACTVS_TPSA>
96.5

> <PUBCHEM_MONOISOTOPIC_WEIGHT>
304.088163

> <PUBCHEM_TOTAL_CHARGE>
0

> <PUBCHEM_HEAVY_ATOM_COUNT>
21

> <PUBCHEM_ATOM_DEF_STEREO_COUNT>
0

> <PUBCHEM_ATOM_UDEF_STEREO_COUNT>
0

> <PUBCHEM_BOND_DEF_STEREO_COUNT>
0

> <PUBCHEM_BOND_UDEF_STEREO_COUNT>
0

> <PUBCHEM_ISOTOPIC_ATOM_COUNT>
0

> <PUBCHEM_COMPONENT_COUNT>
1

> <PUBCHEM_CACTVS_TAUTO_COUNT>
5

> <PUBCHEM_COORDINATE_TYPE>
1
5
255

> <PUBCHEM_BONDANNOTATIONS>
1  18  8
1  19  8
11  12  8
16  18  8
5  16  8
5  19  8
7  10  8
7  8  8
8  11  8
9  10  8
9  12  8

$$$$

