5083
  -OEChem-06261200303D

 56 60  0     0  0  0  0  0  0999 V2000
   -4.8571   -0.2902   -0.0807 S   0  0  0  0  0  0  0  0  0  0  0  0
    2.9310   -2.3246    2.5882 O   0  0  0  0  0  0  0  0  0  0  0  0
    3.1644    2.2447    2.4406 O   0  0  0  0  0  0  0  0  0  0  0  0
   -0.9860   -2.8349    0.2326 N   0  0  0  0  0  0  0  0  0  0  0  0
   -0.6813    2.9813    0.0030 N   0  0  0  0  0  0  0  0  0  0  0  0
    3.3452   -0.0468    2.7728 N   0  0  0  0  0  0  0  0  0  0  0  0
   -5.6301    2.1402    0.5866 N   0  0  0  0  0  0  0  0  0  0  0  0
   -3.7746    1.2876    1.7736 N   0  0  0  0  0  0  0  0  0  0  0  0
    0.7894   -1.5704    0.6677 C   0  0  0  0  0  0  0  0  0  0  0  0
    1.6728   -0.6813    1.3561 C   0  0  0  0  0  0  0  0  0  0  0  0
    0.9695   -2.1715   -0.6117 C   0  0  0  0  0  0  0  0  0  0  0  0
   -0.1573   -2.9584   -0.8596 C   0  0  0  0  0  0  0  0  0  0  0  0
    1.7338    0.6626    1.3213 C   0  0  0  0  0  0  0  0  0  0  0  0
   -0.4237   -1.9992    1.1600 C   0  0  0  0  0  0  0  0  0  0  0  0
    0.9560    1.5897    0.5597 C   0  0  0  0  0  0  0  0  0  0  0  0
   -2.2688   -3.4850    0.3930 C   0  0  0  0  0  0  0  0  0  0  0  0
    1.2297    2.1016   -0.7396 C   0  0  0  0  0  0  0  0  0  0  0  0
    0.1872    2.9720   -1.0650 C   0  0  0  0  0  0  0  0  0  0  0  0
   -3.4170   -2.6360   -0.1545 C   0  0  0  0  0  0  0  0  0  0  0  0
    2.7143   -1.1595    2.3009 C   0  0  0  0  0  0  0  0  0  0  0  0
   -0.2252    2.1489    0.9898 C   0  0  0  0  0  0  0  0  0  0  0  0
    2.8215    1.0922    2.2369 C   0  0  0  0  0  0  0  0  0  0  0  0
    1.9878   -2.1195   -1.5842 C   0  0  0  0  0  0  0  0  0  0  0  0
   -0.3173   -3.6990   -2.0362 C   0  0  0  0  0  0  0  0  0  0  0  0
    2.2673    1.9072   -1.6729 C   0  0  0  0  0  0  0  0  0  0  0  0
    1.8415   -2.8552   -2.7658 C   0  0  0  0  0  0  0  0  0  0  0  0
    0.7059   -3.6321   -2.9864 C   0  0  0  0  0  0  0  0  0  0  0  0
   -3.4982   -1.2994    0.5762 C   0  0  0  0  0  0  0  0  0  0  0  0
    0.1304    3.6607   -2.2820 C   0  0  0  0  0  0  0  0  0  0  0  0
   -1.9021    3.7534    0.0878 C   0  0  0  0  0  0  0  0  0  0  0  0
    2.2237    2.5894   -2.8943 C   0  0  0  0  0  0  0  0  0  0  0  0
    1.1707    3.4522   -3.1920 C   0  0  0  0  0  0  0  0  0  0  0  0
   -4.7035    1.1790    0.8782 C   0  0  0  0  0  0  0  0  0  0  0  0
   -0.9255   -1.7825    2.0946 H   0  0  0  0  0  0  0  0  0  0  0  0
   -2.4104   -3.6848    1.4621 H   0  0  0  0  0  0  0  0  0  0  0  0
   -2.2329   -4.4574   -0.1088 H   0  0  0  0  0  0  0  0  0  0  0  0
   -4.3534   -3.1935   -0.0311 H   0  0  0  0  0  0  0  0  0  0  0  0
   -3.2723   -2.4715   -1.2298 H   0  0  0  0  0  0  0  0  0  0  0  0
   -0.7759    2.0232    1.9132 H   0  0  0  0  0  0  0  0  0  0  0  0
    2.8800   -1.5200   -1.4278 H   0  0  0  0  0  0  0  0  0  0  0  0
   -1.1986   -4.3037   -2.2201 H   0  0  0  0  0  0  0  0  0  0  0  0
    4.1083   -0.0642    3.4397 H   0  0  0  0  0  0  0  0  0  0  0  0
    3.0960    1.2391   -1.4563 H   0  0  0  0  0  0  0  0  0  0  0  0
    2.6237   -2.8187   -3.5195 H   0  0  0  0  0  0  0  0  0  0  0  0
    0.6125   -4.1946   -3.9119 H   0  0  0  0  0  0  0  0  0  0  0  0
   -3.6505   -1.4598    1.6486 H   0  0  0  0  0  0  0  0  0  0  0  0
   -2.5872   -0.7155    0.4271 H   0  0  0  0  0  0  0  0  0  0  0  0
   -0.6870    4.3327   -2.5212 H   0  0  0  0  0  0  0  0  0  0  0  0
   -2.6368    3.3052   -0.5856 H   0  0  0  0  0  0  0  0  0  0  0  0
   -2.2720    3.7411    1.1157 H   0  0  0  0  0  0  0  0  0  0  0  0
   -1.6869    4.7844   -0.2045 H   0  0  0  0  0  0  0  0  0  0  0  0
    3.0213    2.4432   -3.6180 H   0  0  0  0  0  0  0  0  0  0  0  0
    1.1567    3.9715   -4.1469 H   0  0  0  0  0  0  0  0  0  0  0  0
   -5.6399    3.0299    1.0731 H   0  0  0  0  0  0  0  0  0  0  0  0
   -6.3342    1.9926   -0.1282 H   0  0  0  0  0  0  0  0  0  0  0  0
   -3.8525    2.2071    2.2215 H   0  0  0  0  0  0  0  0  0  0  0  0
  1 28  1  0  0  0  0
  1 33  1  0  0  0  0
  2 20  2  0  0  0  0
  3 22  2  0  0  0  0
  4 12  1  0  0  0  0
  4 14  1  0  0  0  0
  4 16  1  0  0  0  0
  5 18  1  0  0  0  0
  5 21  1  0  0  0  0
  5 30  1  0  0  0  0
  6 20  1  0  0  0  0
  6 22  1  0  0  0  0
  6 42  1  0  0  0  0
  7 33  1  0  0  0  0
  7 54  1  0  0  0  0
  7 55  1  0  0  0  0
  8 33  2  0  0  0  0
  8 56  1  0  0  0  0
  9 10  1  0  0  0  0
  9 11  1  0  0  0  0
  9 14  2  0  0  0  0
 10 13  2  0  0  0  0
 10 20  1  0  0  0  0
 11 12  1  0  0  0  0
 11 23  2  0  0  0  0
 12 24  2  0  0  0  0
 13 15  1  0  0  0  0
 13 22  1  0  0  0  0
 14 34  1  0  0  0  0
 15 17  1  0  0  0  0
 15 21  2  0  0  0  0
 16 19  1  0  0  0  0
 16 35  1  0  0  0  0
 16 36  1  0  0  0  0
 17 18  1  0  0  0  0
 17 25  2  0  0  0  0
 18 29  2  0  0  0  0
 19 28  1  0  0  0  0
 19 37  1  0  0  0  0
 19 38  1  0  0  0  0
 21 39  1  0  0  0  0
 23 26  1  0  0  0  0
 23 40  1  0  0  0  0
 24 27  1  0  0  0  0
 24 41  1  0  0  0  0
 25 31  1  0  0  0  0
 25 43  1  0  0  0  0
 26 27  2  0  0  0  0
 26 44  1  0  0  0  0
 27 45  1  0  0  0  0
 28 46  1  0  0  0  0
 28 47  1  0  0  0  0
 29 32  1  0  0  0  0
 29 48  1  0  0  0  0
 30 49  1  0  0  0  0
 30 50  1  0  0  0  0
 30 51  1  0  0  0  0
 31 32  2  0  0  0  0
 31 52  1  0  0  0  0
 32 53  1  0  0  0  0
M  END
> <PUBCHEM_COMPOUND_CID>
5083

> <PUBCHEM_CONFORMER_RMSD>
1

> <PUBCHEM_CONFORMER_DIVERSEORDER>
6
84
108
76
115
104
113
9
65
46
55
114
21
3
57
90
78
77
11
96
73
94
87
39
85
112
59
13
100
23
66
80
56
44
95
31
41
29
5
105
38
97
109
86
19
99
1
22
83
67
110
64
53
60
50
88
4
82
70
68
37
36
102
45
2
34
98
40
81
12
71
107
20
43
54
33
24
47
14
72
15
92
48
93
35
7
26
49
69
75
111
27
8
32
89
91
74
28
101
103
42
58
63
30
18
106
62
17
61
79
51
52
10
25
16

> <PUBCHEM_MMFF94_PARTIAL_CHARGES>
44
1 -0.37
10 0.06
12 -0.15
13 0.06
14 -0.3
15 -0.05
16 0.26
18 -0.15
2 -0.57
20 0.62
21 -0.3
22 0.62
23 -0.15
24 -0.15
25 -0.15
26 -0.15
27 -0.15
28 0.23
29 -0.15
3 -0.57
30 0.26
31 -0.15
32 -0.15
33 0.64
34 0.15
39 0.15
4 0.05
40 0.15
41 0.15
42 0.37
43 0.15
44 0.15
45 0.15
48 0.15
5 0.05
52 0.15
53 0.15
54 0.4
55 0.4
56 0.4
6 -0.49
7 -0.85
8 -0.85
9 -0.05

> <PUBCHEM_EFFECTIVE_ROTOR_COUNT>
7.2

> <PUBCHEM_PHARMACOPHORE_FEATURES>
13
1 2 acceptor
1 3 acceptor
1 4 cation
1 5 cation
1 6 donor
1 7 donor
1 8 donor
3 7 8 33 cation
5 4 9 11 12 14 rings
5 5 15 17 18 21 rings
5 6 10 13 20 22 rings
6 11 12 23 24 26 27 rings
6 17 18 25 29 31 32 rings

> <PUBCHEM_HEAVY_ATOM_COUNT>
33

> <PUBCHEM_ATOM_DEF_STEREO_COUNT>
0

> <PUBCHEM_ATOM_UDEF_STEREO_COUNT>
0

> <PUBCHEM_BOND_DEF_STEREO_COUNT>
0

> <PUBCHEM_BOND_UDEF_STEREO_COUNT>
0

> <PUBCHEM_ISOTOPIC_ATOM_COUNT>
0

> <PUBCHEM_COMPONENT_COUNT>
1

> <PUBCHEM_CACTVS_TAUTO_COUNT>
3

> <PUBCHEM_CONFORMER_ID>
000013DB00000006

> <PUBCHEM_MMFF94_ENERGY>
65.9338

> <PUBCHEM_FEATURE_SELFOVERLAP>
66.188

> <PUBCHEM_SHAPE_FINGERPRINT>
10764073 3 18118139171557772034
11513181 2 17822864078003341598
11578080 2 16017985904050957384
11763715 3 16964941324323223050
12156800 1 18340485681654917654
12160290 23 17547349653106557194
12422481 6 18263664993943457810
13642711 20 17199059484578643776
14279260 333 17049905016393007116
15210252 30 17910647059504150847
15276724 80 18270696363189109506
15297060 5 18042380496557426321
17492 54 17696991012003035606
17921350 177 17917720097541327013
20739085 24 17628103125637026336
20764821 26 18338502089647959495
21987440 362 18335134276267712484
238918 7 18044960083985527659
46939830 39 17202786889163283572
474144 1 17985831432725528377
513202 73 17556325056534264410
5252454 2 15472281687600109052

> <PUBCHEM_SHAPE_MULTIPOLES>
646.33
6.58
6.27
3.4
5.96
2.45
0.73
4.54
-0.69
3.28
2.2
-4.01
-1.98
-3.8

> <PUBCHEM_SHAPE_SELFOVERLAP>
1426.581

> <PUBCHEM_SHAPE_VOLUME>
354.5

> <PUBCHEM_COORDINATE_TYPE>
2
5
10

$$$$

