17395800
  -OEChem-06241222523D

 45 47  0     1  0  0  0  0  0999 V2000
   -0.9417    2.0117   -0.7834 Cl  0  0  0  0  0  0  0  0  0  0  0  0
   -2.2718   -3.1453   -0.1857 O   0  0  0  0  0  0  0  0  0  0  0  0
    4.4085    0.5512   -1.9536 O   0  0  0  0  0  0  0  0  0  0  0  0
    0.7882   -2.9243    0.6391 N   0  0  1  0  0  0  0  0  0  0  0  0
    1.9204   -0.4743    1.0175 N   0  0  0  0  0  0  0  0  0  0  0  0
    3.3426   -1.1091   -0.7870 N   0  0  0  0  0  0  0  0  0  0  0  0
   -1.3989   -0.9882   -0.4972 N   0  0  0  0  0  0  0  0  0  0  0  0
    2.2193   -2.8421    0.4475 C   0  0  0  0  0  0  0  0  0  0  0  0
    2.5275   -1.3882    0.1886 C   0  0  0  0  0  0  0  0  0  0  0  0
    0.0796   -2.8603   -0.6452 C   0  0  0  0  0  0  0  0  0  0  0  0
    2.1719    0.8860    0.8283 C   0  0  0  0  0  0  0  0  0  0  0  0
    3.0370    1.2770   -0.2028 C   0  0  0  0  0  0  0  0  0  0  0  0
    0.4211   -4.1557    1.3493 C   0  0  0  0  0  0  0  0  0  0  0  0
   -1.3422   -2.3780   -0.4143 C   0  0  0  0  0  0  0  0  0  0  0  0
    3.6497    0.2147   -1.0497 C   0  0  0  0  0  0  0  0  0  0  0  0
    1.5840    1.8629    1.6362 C   0  0  0  0  0  0  0  0  0  0  0  0
    3.3148    2.6282   -0.4260 C   0  0  0  0  0  0  0  0  0  0  0  0
   -2.5357   -0.1597   -0.3424 C   0  0  0  0  0  0  0  0  0  0  0  0
    1.8596    3.2133    1.4154 C   0  0  0  0  0  0  0  0  0  0  0  0
    2.7227    3.5944    0.3874 C   0  0  0  0  0  0  0  0  0  0  0  0
   -2.4455    1.2279   -0.4524 C   0  0  0  0  0  0  0  0  0  0  0  0
   -3.7664   -0.7596   -0.0742 C   0  0  0  0  0  0  0  0  0  0  0  0
   -4.8163    1.4159   -0.0269 C   0  0  0  0  0  0  0  0  0  0  0  0
   -3.5857    2.0157   -0.2948 C   0  0  0  0  0  0  0  0  0  0  0  0
   -4.9068    0.0282    0.0837 C   0  0  0  0  0  0  0  0  0  0  0  0
   -6.0357    2.2576    0.1426 C   0  0  0  0  0  0  0  0  0  0  0  0
    2.7651   -3.1108    1.3608 H   0  0  0  0  0  0  0  0  0  0  0  0
    2.5847   -3.4813   -0.3647 H   0  0  0  0  0  0  0  0  0  0  0  0
    0.5621   -2.1732   -1.3522 H   0  0  0  0  0  0  0  0  0  0  0  0
    0.0484   -3.8327   -1.1534 H   0  0  0  0  0  0  0  0  0  0  0  0
    1.2933   -0.7559    1.7616 H   0  0  0  0  0  0  0  0  0  0  0  0
   -0.6522   -4.1939    1.5599 H   0  0  0  0  0  0  0  0  0  0  0  0
    0.9215   -4.1943    2.3237 H   0  0  0  0  0  0  0  0  0  0  0  0
    0.7000   -5.0549    0.7878 H   0  0  0  0  0  0  0  0  0  0  0  0
    0.9085    1.5809    2.4398 H   0  0  0  0  0  0  0  0  0  0  0  0
   -0.5329   -0.4863   -0.6813 H   0  0  0  0  0  0  0  0  0  0  0  0
    3.9830    2.9455   -1.2212 H   0  0  0  0  0  0  0  0  0  0  0  0
    1.3999    3.9697    2.0451 H   0  0  0  0  0  0  0  0  0  0  0  0
    2.9331    4.6468    0.2196 H   0  0  0  0  0  0  0  0  0  0  0  0
   -3.9290   -1.8219    0.0278 H   0  0  0  0  0  0  0  0  0  0  0  0
   -3.5195    3.0983   -0.3780 H   0  0  0  0  0  0  0  0  0  0  0  0
   -5.8602   -0.4494    0.2944 H   0  0  0  0  0  0  0  0  0  0  0  0
   -6.1364    2.5667    1.1877 H   0  0  0  0  0  0  0  0  0  0  0  0
   -5.9867    3.1533   -0.4860 H   0  0  0  0  0  0  0  0  0  0  0  0
   -6.9387    1.7109   -0.1494 H   0  0  0  0  0  0  0  0  0  0  0  0
  1 21  1  0  0  0  0
  2 14  2  0  0  0  0
  3 15  2  0  0  0  0
  4  8  1  0  0  0  0
  4 10  1  0  0  0  0
  4 13  1  0  0  0  0
  5  9  1  0  0  0  0
  5 11  1  0  0  0  0
  5 31  1  0  0  0  0
  6  9  2  0  0  0  0
  6 15  1  0  0  0  0
  7 14  1  0  0  0  0
  7 18  1  0  0  0  0
  7 36  1  0  0  0  0
  8  9  1  0  0  0  0
  8 27  1  0  0  0  0
  8 28  1  0  0  0  0
 10 14  1  0  0  0  0
 10 29  1  0  0  0  0
 10 30  1  0  0  0  0
 11 12  1  0  0  0  0
 11 16  2  0  0  0  0
 12 15  1  0  0  0  0
 12 17  2  0  0  0  0
 13 32  1  0  0  0  0
 13 33  1  0  0  0  0
 13 34  1  0  0  0  0
 16 19  1  0  0  0  0
 16 35  1  0  0  0  0
 17 20  1  0  0  0  0
 17 37  1  0  0  0  0
 18 21  2  0  0  0  0
 18 22  1  0  0  0  0
 19 20  2  0  0  0  0
 19 38  1  0  0  0  0
 20 39  1  0  0  0  0
 21 24  1  0  0  0  0
 22 25  2  0  0  0  0
 22 40  1  0  0  0  0
 23 24  2  0  0  0  0
 23 25  1  0  0  0  0
 23 26  1  0  0  0  0
 24 41  1  0  0  0  0
 25 42  1  0  0  0  0
 26 43  1  0  0  0  0
 26 44  1  0  0  0  0
 26 45  1  0  0  0  0
M  END
> <PUBCHEM_COMPOUND_CID>
17395800

> <PUBCHEM_CONFORMER_RMSD>
1

> <PUBCHEM_CONFORMER_DIVERSEORDER>
1
82
6
157
106
10
52
51
123
56
11
164
4
64
88
154
89
168
129
142
50
69
152
169
78
57
112
153
165
29
68
46
147
134
79
127
48
42
114
39
86
137
131
156
101
91
119
53
36
30
110
92
94
141
43
125
104
103
113
58
19
61
40
150
138
160
24
22
60
7
2
34
70
59
159
95
38
25
66
85
111
116
135
115
93
71
62
124
45
136
158
146
155
96
54
15
23
16
65
84
102
32
149
27
72
77
31
97
12
33
81
139
83
163
148
105
108
75
128
109
171
49
76
74
9
28
47
143
140
80
8
18
20
117
130
44
90
14
167
41
145
37
121
118
144
67
17
26
63
3
5
126
162
87
98
161
120
166
151
133
107
73
122
132
99
55
172
35
21
100
13
170

> <PUBCHEM_MMFF94_PARTIAL_CHARGES>
35
1 -0.18
10 0.33
11 0.1
12 0.09
13 0.27
14 0.57
15 0.69
16 -0.15
17 -0.15
18 0.12
19 -0.15
2 -0.57
20 -0.15
21 0.18
22 -0.15
23 -0.14
24 -0.15
25 -0.15
26 0.14
3 -0.57
31 0.4
35 0.15
36 0.37
37 0.15
38 0.15
39 0.15
4 -0.81
40 0.15
41 0.15
42 0.15
5 -0.55
6 -0.66
7 -0.55
8 0.33
9 0.44

> <PUBCHEM_EFFECTIVE_ROTOR_COUNT>
6

> <PUBCHEM_PHARMACOPHORE_FEATURES>
9
1 2 acceptor
1 3 acceptor
1 4 cation
1 5 donor
1 6 donor
1 7 donor
6 11 12 16 17 19 20 rings
6 18 21 22 23 24 25 rings
6 5 6 9 11 12 15 rings

> <PUBCHEM_HEAVY_ATOM_COUNT>
26

> <PUBCHEM_ATOM_DEF_STEREO_COUNT>
0

> <PUBCHEM_ATOM_UDEF_STEREO_COUNT>
0

> <PUBCHEM_BOND_DEF_STEREO_COUNT>
0

> <PUBCHEM_BOND_UDEF_STEREO_COUNT>
0

> <PUBCHEM_ISOTOPIC_ATOM_COUNT>
0

> <PUBCHEM_COMPONENT_COUNT>
1

> <PUBCHEM_CACTVS_TAUTO_COUNT>
6

> <PUBCHEM_CONFORMER_ID>
0109705800000001

> <PUBCHEM_MMFF94_ENERGY>
82.9105

> <PUBCHEM_FEATURE_SELFOVERLAP>
45.729

> <PUBCHEM_SHAPE_FINGERPRINT>
10006869 2 18124609578323225483
10165383 225 18272360997285065972
10498660 4 18197226840689625663
1100329 8 18410579517449597946
11014199 57 17112690947868213199
11211813 163 17910941458581794476
12633257 1 18338533966341511080
12788726 201 17458899448415754849
12925494 130 18048884297548271865
13140716 1 18339935830697608139
1361 2 18341616963187508033
13617811 41 18054513500713034029
138480 1 18122631818501195970
13878862 14 17983036702117643125
13944108 23 18121211245495054133
13965767 371 18059031509291069980
14114211 68 18056167358673098670
14178342 30 18050303469788504505
14931854 50 18335410318368782996
14955137 171 18198354046710132074
151778 21 18411138065050880801
15238133 3 18411140272827432330
15322687 12 18409729581833611185
16992727 255 18269818888375001724
17921350 177 18040147401421092278
19930381 70 18410863195907996753
20465049 17 18336815481027413782
21344244 78 17693678308102512027
21859007 373 17179683655280313096
21860390 5 17970635305560995639
21864079 5 18337117760957646287
23536364 44 18046592726262475214
23558518 356 18122634850790305078
23559900 14 18259703384887560933
238 59 18410567409630426546
2637199 183 18410848871806845278
3298306 158 18337677511561482389
5048184 11 18409733919977387881
5252454 2 18343304760068297263
5312544 6 18337966631706249135
5776283 40 18267568136375282220
633830 44 18260555506778551485
7808743 9 18054787274275624252

> <PUBCHEM_SHAPE_MULTIPOLES>
505.27
9.55
5.09
1.21
11.33
2.57
0.08
-6.5
-1.55
-2.17
1.5
-1.23
-0.18
0.08

> <PUBCHEM_SHAPE_SELFOVERLAP>
1078.389

> <PUBCHEM_SHAPE_VOLUME>
281.5

> <PUBCHEM_COORDINATE_TYPE>
2
5
10

$$$$

