4301
  -OEChem-06261200023D

 32 33  0     0  0  0  0  0  0999 V2000
    2.3398   -1.8729   -0.7076 O   0  0  0  0  0  0  0  0  0  0  0  0
    1.1369    1.9238   -0.4024 O   0  0  0  0  0  0  0  0  0  0  0  0
    0.5039   -0.2721    0.0904 N   0  0  0  0  0  0  0  0  0  0  0  0
   -5.7911    1.2070   -0.2282 N   0  0  0  0  0  0  0  0  0  0  0  0
   -5.8433   -1.0721    0.2852 N   0  0  0  0  0  0  0  0  0  0  0  0
   -0.8891   -0.2019    0.0783 C   0  0  0  0  0  0  0  0  0  0  0  0
    2.8438    0.3671   -0.0145 C   0  0  0  0  0  0  0  0  0  0  0  0
   -3.6752   -0.0622    0.0517 C   0  0  0  0  0  0  0  0  0  0  0  0
   -1.5241    1.0104   -0.1913 C   0  0  0  0  0  0  0  0  0  0  0  0
   -1.6472   -1.3444    0.3346 C   0  0  0  0  0  0  0  0  0  0  0  0
    1.4304    0.7604   -0.1430 C   0  0  0  0  0  0  0  0  0  0  0  0
   -2.9172    1.0803   -0.2045 C   0  0  0  0  0  0  0  0  0  0  0  0
   -3.0403   -1.2745    0.3213 C   0  0  0  0  0  0  0  0  0  0  0  0
    3.2376   -0.9308   -0.3022 C   0  0  0  0  0  0  0  0  0  0  0  0
    3.7620    1.3210    0.3989 C   0  0  0  0  0  0  0  0  0  0  0  0
    4.5809   -1.2836   -0.1735 C   0  0  0  0  0  0  0  0  0  0  0  0
    5.1052    0.9680    0.5276 C   0  0  0  0  0  0  0  0  0  0  0  0
    5.5147   -0.3342    0.2413 C   0  0  0  0  0  0  0  0  0  0  0  0
   -5.1277    0.0106    0.0378 C   0  0  0  0  0  0  0  0  0  0  0  0
    0.8710   -1.1900    0.3284 H   0  0  0  0  0  0  0  0  0  0  0  0
   -1.0120    1.9387   -0.3993 H   0  0  0  0  0  0  0  0  0  0  0  0
   -1.1655   -2.2959    0.5456 H   0  0  0  0  0  0  0  0  0  0  0  0
   -3.3608    2.0463   -0.4193 H   0  0  0  0  0  0  0  0  0  0  0  0
   -3.6004   -2.1831    0.5248 H   0  0  0  0  0  0  0  0  0  0  0  0
    3.4616    2.3388    0.6317 H   0  0  0  0  0  0  0  0  0  0  0  0
    4.9141   -2.2945   -0.3928 H   0  0  0  0  0  0  0  0  0  0  0  0
    5.8324    1.7068    0.8520 H   0  0  0  0  0  0  0  0  0  0  0  0
    6.5606   -0.6090    0.3420 H   0  0  0  0  0  0  0  0  0  0  0  0
    2.8064   -2.7131   -0.8568 H   0  0  0  0  0  0  0  0  0  0  0  0
   -6.8055    1.2381   -0.2317 H   0  0  0  0  0  0  0  0  0  0  0  0
   -5.3213    2.0814   -0.4269 H   0  0  0  0  0  0  0  0  0  0  0  0
   -6.8366   -0.8208    0.2317 H   0  0  0  0  0  0  0  0  0  0  0  0
  1 14  1  0  0  0  0
  1 29  1  0  0  0  0
  2 11  2  0  0  0  0
  3  6  1  0  0  0  0
  3 11  1  0  0  0  0
  3 20  1  0  0  0  0
  4 19  1  0  0  0  0
  4 30  1  0  0  0  0
  4 31  1  0  0  0  0
  5 19  2  0  0  0  0
  5 32  1  0  0  0  0
  6  9  2  0  0  0  0
  6 10  1  0  0  0  0
  7 11  1  0  0  0  0
  7 14  1  0  0  0  0
  7 15  2  0  0  0  0
  8 12  2  0  0  0  0
  8 13  1  0  0  0  0
  8 19  1  0  0  0  0
  9 12  1  0  0  0  0
  9 21  1  0  0  0  0
 10 13  2  0  0  0  0
 10 22  1  0  0  0  0
 12 23  1  0  0  0  0
 13 24  1  0  0  0  0
 14 16  2  0  0  0  0
 15 17  1  0  0  0  0
 15 25  1  0  0  0  0
 16 18  1  0  0  0  0
 16 26  1  0  0  0  0
 17 18  2  0  0  0  0
 17 27  1  0  0  0  0
 18 28  1  0  0  0  0
M  END
> <PUBCHEM_COMPOUND_CID>
4301

> <PUBCHEM_CONFORMER_RMSD>
0.6

> <PUBCHEM_CONFORMER_DIVERSEORDER>
3
6
1
5
2
4

> <PUBCHEM_MMFF94_PARTIAL_CHARGES>
32
1 -0.53
10 -0.15
11 0.54
12 -0.15
13 -0.15
14 0.08
15 -0.15
16 -0.15
17 -0.15
18 -0.15
19 0.41
2 -0.57
20 0.37
21 0.15
22 0.15
23 0.15
24 0.15
25 0.15
26 0.15
27 0.15
28 0.15
29 0.45
3 -0.55
30 0.4
31 0.4
32 0.4
4 -0.85
5 -0.85
6 0.12
7 0.09
8 0.09
9 -0.15

> <PUBCHEM_EFFECTIVE_ROTOR_COUNT>
4

> <PUBCHEM_PHARMACOPHORE_FEATURES>
8
1 1 donor
1 2 acceptor
1 3 donor
1 4 donor
1 5 donor
3 4 5 19 cation
6 6 8 9 10 12 13 rings
6 7 14 15 16 17 18 rings

> <PUBCHEM_HEAVY_ATOM_COUNT>
19

> <PUBCHEM_ATOM_DEF_STEREO_COUNT>
0

> <PUBCHEM_ATOM_UDEF_STEREO_COUNT>
0

> <PUBCHEM_BOND_DEF_STEREO_COUNT>
0

> <PUBCHEM_BOND_UDEF_STEREO_COUNT>
0

> <PUBCHEM_ISOTOPIC_ATOM_COUNT>
0

> <PUBCHEM_COMPONENT_COUNT>
1

> <PUBCHEM_CACTVS_TAUTO_COUNT>
15

> <PUBCHEM_CONFORMER_ID>
000010CD00000003

> <PUBCHEM_MMFF94_ENERGY>
67.0721

> <PUBCHEM_FEATURE_SELFOVERLAP>
40.652

> <PUBCHEM_SHAPE_FINGERPRINT>
10 15 18339370661053327120
10366900 7 6699810894845884471
11287383 113 18410573972345735659
12107183 9 17467340553573543306
12236239 1 16877943845095224679
12516196 113 18113338600447630856
13533116 47 13912592905739531492
14341114 176 18409725153838256528
14386348 63 18412823590411064374
15042514 8 18198900315289994251
15196674 1 18411136930815186407
15375358 24 18410854352348664682
17834072 33 18114184111809179759
1813 80 17131832079697604340
18522853 276 18409448089571484248
19141452 34 18410012104945898391
19489759 90 17132117948773926805
200 152 17967534571169750835
20279233 1 18411130333940806474
20645477 56 18341897381137910341
20645477 70 18187643648056247062
21267235 1 18410566301803300118
21279426 13 18197219363483684445
22224240 67 17968106296400994330
23402539 116 18335426759772363581
23536379 177 18260266365274251963
23557571 272 17917995022487169828
23559900 14 18408889503421016848
239999 70 18333726936534629854
26918003 58 18335139786804867362
2871803 45 18341611555638910194
300161 21 17749115473614909894
3004659 81 18202281416460472844
33824 294 18409167736267254382
34934 24 18410016520061515182
351380 180 18410293605544381779
3545911 37 18409166602005049872
4073 2 18130784504359350138
4214541 1 18410855481766820929
42788 4 18410293605655177601
5104073 3 18410009965798679307
5374978 207 18335143089977674424
542803 24 15502373422107514985
69090 78 18408042901074288935
9709674 26 18341325583298924658
9971528 1 18343582932468734884

> <PUBCHEM_SHAPE_MULTIPOLES>
364.33
13.69
1.66
0.68
5.04
0.05
0.01
0.32
1.02
-0.39
-0.11
-0.16
0.02
0.73

> <PUBCHEM_SHAPE_SELFOVERLAP>
789.728

> <PUBCHEM_SHAPE_VOLUME>
197.3

> <PUBCHEM_COORDINATE_TYPE>
2
5
10

$$$$

