12518
  -OEChem-06261207023D

 22 22  0     1  0  0  0  0  0999 V2000
   -1.5134   -0.8409    0.7255 S   0  0  0  0  0  0  0  0  0  0  0  0
    1.5131   -0.8423    0.7247 S   0  0  0  0  0  0  0  0  0  0  0  0
    0.0005    1.3592    0.0598 N   0  0  0  0  0  0  0  0  0  0  0  0
   -1.2220    0.6430   -0.3011 C   0  0  2  0  0  0  0  0  0  0  0  0
    1.2225    0.6423   -0.3014 C   0  0  1  0  0  0  0  0  0  0  0  0
   -0.0007   -1.7897    0.3577 C   0  0  0  0  0  0  0  0  0  0  0  0
   -2.4058    1.5903   -0.1027 C   0  0  0  0  0  0  0  0  0  0  0  0
    2.4070    1.5886   -0.1023 C   0  0  0  0  0  0  0  0  0  0  0  0
   -0.0012   -2.3505   -1.0603 C   0  0  0  0  0  0  0  0  0  0  0  0
   -1.2069    0.3548   -1.3581 H   0  0  0  0  0  0  0  0  0  0  0  0
    1.2073    0.3546   -1.3584 H   0  0  0  0  0  0  0  0  0  0  0  0
   -0.0009   -2.6385    1.0494 H   0  0  0  0  0  0  0  0  0  0  0  0
    0.0008    2.2690   -0.4024 H   0  0  0  0  0  0  0  0  0  0  0  0
   -2.3006    2.4805   -0.7343 H   0  0  0  0  0  0  0  0  0  0  0  0
   -3.3504    1.1108   -0.3848 H   0  0  0  0  0  0  0  0  0  0  0  0
   -2.4925    1.9322    0.9358 H   0  0  0  0  0  0  0  0  0  0  0  0
    2.3025    2.4792   -0.7335 H   0  0  0  0  0  0  0  0  0  0  0  0
    2.4939    1.9299    0.9364 H   0  0  0  0  0  0  0  0  0  0  0  0
    3.3513    1.1086   -0.3846 H   0  0  0  0  0  0  0  0  0  0  0  0
   -0.8816   -2.9822   -1.2265 H   0  0  0  0  0  0  0  0  0  0  0  0
   -0.0008   -1.5757   -1.8326 H   0  0  0  0  0  0  0  0  0  0  0  0
    0.8784   -2.9832   -1.2266 H   0  0  0  0  0  0  0  0  0  0  0  0
  1  4  1  0  0  0  0
  1  6  1  0  0  0  0
  2  5  1  0  0  0  0
  2  6  1  0  0  0  0
  3  4  1  0  0  0  0
  3  5  1  0  0  0  0
  3 13  1  0  0  0  0
  4  7  1  0  0  0  0
  4 10  1  0  0  0  0
  5  8  1  0  0  0  0
  5 11  1  0  0  0  0
  6  9  1  0  0  0  0
  6 12  1  0  0  0  0
  7 14  1  0  0  0  0
  7 15  1  0  0  0  0
  7 16  1  0  0  0  0
  8 17  1  0  0  0  0
  8 18  1  0  0  0  0
  8 19  1  0  0  0  0
  9 20  1  0  0  0  0
  9 21  1  0  0  0  0
  9 22  1  0  0  0  0
M  END
> <PUBCHEM_COMPOUND_CID>
12518

> <PUBCHEM_CONFORMER_RMSD>
0.4

> <PUBCHEM_CONFORMER_DIVERSEORDER>
1
5
7
8
6
9
3
2
4

> <PUBCHEM_MMFF94_PARTIAL_CHARGES>
7
1 -0.46
13 0.36
2 -0.46
3 -0.9
4 0.5
5 0.5
6 0.46

> <PUBCHEM_EFFECTIVE_ROTOR_COUNT>
1.2

> <PUBCHEM_PHARMACOPHORE_FEATURES>
3
1 3 cation
1 3 donor
6 1 2 3 4 5 6 rings

> <PUBCHEM_HEAVY_ATOM_COUNT>
9

> <PUBCHEM_ATOM_DEF_STEREO_COUNT>
0

> <PUBCHEM_ATOM_UDEF_STEREO_COUNT>
2

> <PUBCHEM_BOND_DEF_STEREO_COUNT>
0

> <PUBCHEM_BOND_UDEF_STEREO_COUNT>
0

> <PUBCHEM_ISOTOPIC_ATOM_COUNT>
0

> <PUBCHEM_COMPONENT_COUNT>
1

> <PUBCHEM_CACTVS_TAUTO_COUNT>
1

> <PUBCHEM_CONFORMER_ID>
000030E600000001

> <PUBCHEM_MMFF94_ENERGY>
7.4813

> <PUBCHEM_FEATURE_SELFOVERLAP>
15.223

> <PUBCHEM_SHAPE_FINGERPRINT>
100427 49 17328860409913676789
12423570 1 9259391299062706386
16945 1 18057029212416642691
18185500 45 17402047795019923658
20511035 2 18343303690690057402
20711978 78 16815771083997906686
20871998 184 18048583824964826734
21040471 1 18412265004149827016
23235685 24 18195816390567062888
241688 4 16896800765832639227
2748010 2 18412539911978974372
5084963 1 18186801378666882571
54338 74 17258512041139973514
66348 1 18413670205610954544

> <PUBCHEM_SHAPE_MULTIPOLES>
187.93
2.82
2.56
0.92
0
0.71
0.04
-1.85
-0.18
0
0.5
0
0.43
0

> <PUBCHEM_SHAPE_SELFOVERLAP>
328.426

> <PUBCHEM_SHAPE_VOLUME>
122.9

> <PUBCHEM_COORDINATE_TYPE>
2
5
10

$$$$

