11931
  -OEChem-06261206183D

 28 29  0     0  0  0  0  0  0999 V2000
   -0.7225   -0.3440   -0.0377 C   0  0  0  0  0  0  0  0  0  0  0  0
    0.7225   -0.3440    0.0378 C   0  0  0  0  0  0  0  0  0  0  0  0
   -1.4356    0.8224    0.2393 C   0  0  0  0  0  0  0  0  0  0  0  0
    1.4356    0.8224   -0.2393 C   0  0  0  0  0  0  0  0  0  0  0  0
   -2.8287    0.8217    0.1676 C   0  0  0  0  0  0  0  0  0  0  0  0
    2.8287    0.8216   -0.1677 C   0  0  0  0  0  0  0  0  0  0  0  0
   -1.4024   -1.5110   -0.3864 C   0  0  0  0  0  0  0  0  0  0  0  0
    1.4024   -1.5110    0.3865 C   0  0  0  0  0  0  0  0  0  0  0  0
   -3.5085   -0.3455   -0.1811 C   0  0  0  0  0  0  0  0  0  0  0  0
    3.5085   -0.3455    0.1811 C   0  0  0  0  0  0  0  0  0  0  0  0
   -2.7953   -1.5118   -0.4581 C   0  0  0  0  0  0  0  0  0  0  0  0
    2.7952   -1.5118    0.4580 C   0  0  0  0  0  0  0  0  0  0  0  0
   -3.5922    2.0682    0.4641 C   0  0  0  0  0  0  0  0  0  0  0  0
    3.5922    2.0681   -0.4641 C   0  0  0  0  0  0  0  0  0  0  0  0
   -0.9406    1.7403    0.5467 H   0  0  0  0  0  0  0  0  0  0  0  0
    0.9406    1.7403   -0.5466 H   0  0  0  0  0  0  0  0  0  0  0  0
   -0.8889   -2.4343   -0.6404 H   0  0  0  0  0  0  0  0  0  0  0  0
    0.8888   -2.4342    0.6404 H   0  0  0  0  0  0  0  0  0  0  0  0
   -4.5935   -0.3599   -0.2402 H   0  0  0  0  0  0  0  0  0  0  0  0
    4.5935   -0.3599    0.2402 H   0  0  0  0  0  0  0  0  0  0  0  0
   -3.3249   -2.4184   -0.7360 H   0  0  0  0  0  0  0  0  0  0  0  0
    3.3247   -2.4185    0.7359 H   0  0  0  0  0  0  0  0  0  0  0  0
   -3.0640    2.9495    0.0845 H   0  0  0  0  0  0  0  0  0  0  0  0
   -4.5784    2.0560   -0.0124 H   0  0  0  0  0  0  0  0  0  0  0  0
   -3.7298    2.1764    1.5445 H   0  0  0  0  0  0  0  0  0  0  0  0
    4.5787    2.0554    0.0115 H   0  0  0  0  0  0  0  0  0  0  0  0
    3.7289    2.1770   -1.5445 H   0  0  0  0  0  0  0  0  0  0  0  0
    3.0645    2.9494   -0.0836 H   0  0  0  0  0  0  0  0  0  0  0  0
  1  2  1  0  0  0  0
  1  3  1  0  0  0  0
  1  7  2  0  0  0  0
  2  4  1  0  0  0  0
  2  8  2  0  0  0  0
  3  5  2  0  0  0  0
  3 15  1  0  0  0  0
  4  6  2  0  0  0  0
  4 16  1  0  0  0  0
  5  9  1  0  0  0  0
  5 13  1  0  0  0  0
  6 10  1  0  0  0  0
  6 14  1  0  0  0  0
  7 11  1  0  0  0  0
  7 17  1  0  0  0  0
  8 12  1  0  0  0  0
  8 18  1  0  0  0  0
  9 11  2  0  0  0  0
  9 19  1  0  0  0  0
 10 12  2  0  0  0  0
 10 20  1  0  0  0  0
 11 21  1  0  0  0  0
 12 22  1  0  0  0  0
 13 23  1  0  0  0  0
 13 24  1  0  0  0  0
 13 25  1  0  0  0  0
 14 26  1  0  0  0  0
 14 27  1  0  0  0  0
 14 28  1  0  0  0  0
M  END
> <PUBCHEM_COMPOUND_CID>
11931

> <PUBCHEM_CONFORMER_RMSD>
0.4

> <PUBCHEM_CONFORMER_DIVERSEORDER>
1
4
3
2

> <PUBCHEM_MMFF94_PARTIAL_CHARGES>
20
10 -0.15
11 -0.15
12 -0.15
13 0.14
14 0.14
15 0.15
16 0.15
17 0.15
18 0.15
19 0.15
20 0.15
21 0.15
22 0.15
3 -0.15
4 -0.15
5 -0.14
6 -0.14
7 -0.15
8 -0.15
9 -0.15

> <PUBCHEM_EFFECTIVE_ROTOR_COUNT>
1

> <PUBCHEM_PHARMACOPHORE_FEATURES>
2
6 1 3 5 7 9 11 rings
6 2 4 6 8 10 12 rings

> <PUBCHEM_HEAVY_ATOM_COUNT>
14

> <PUBCHEM_ATOM_DEF_STEREO_COUNT>
0

> <PUBCHEM_ATOM_UDEF_STEREO_COUNT>
0

> <PUBCHEM_BOND_DEF_STEREO_COUNT>
0

> <PUBCHEM_BOND_UDEF_STEREO_COUNT>
0

> <PUBCHEM_ISOTOPIC_ATOM_COUNT>
0

> <PUBCHEM_COMPONENT_COUNT>
1

> <PUBCHEM_CACTVS_TAUTO_COUNT>
1

> <PUBCHEM_CONFORMER_ID>
00002E9B00000001

> <PUBCHEM_MMFF94_ENERGY>
45.2708

> <PUBCHEM_FEATURE_SELFOVERLAP>
10.149

> <PUBCHEM_SHAPE_FINGERPRINT>
10465860 228 18341327868564151016
10608611 8 18410577287981600576
10980938 120 18342175579075608176
12162725 195 18410577283686444899
12173636 292 18261399940155796805
12251169 10 18339644554478725875
12346645 44 18340487755664990316
12491281 212 18412538803861457979
14144814 61 18411420622047873339
14325111 11 18410856555344835269
14415576 193 18410571782234129158
14897335 6 18410578383203256508
15442244 35 18267025136053742266
15536298 74 18408323276855545070
15669948 3 18114187380432435495
15775835 57 18410849966865243552
16945 1 18196942286105189062
1741750 31 18186798127809058857
17834072 32 18193555790840804293
18186145 218 18272372000890966574
19050596 39 18412265034077201370
19422 9 18410857663446663975
200 152 18336279959220629975
201361 129 18341893004560792170
20279233 1 15698007314071603451
20510252 161 18186796968283725675
20645477 70 18412833498795589191
21267235 1 18410848867353843142
21501502 16 18410578383203379919
2255824 54 18202283624042430370
22854114 111 18343863316507687456
23402539 116 18187377540841299551
23402655 69 18410857680763637972
23463225 33 18411140276737342694
23559900 14 17968942015184536270
25610 137 18268989774364767771
3312278 4 18268148652296225851
474 4 17917426459043322652
4990 188 18187350022885756764
5104073 3 18412263938839416624
603831 33 18190755145239512799
7364860 26 18335701672012860334
74978 22 18409729594644543030
7832392 63 18410292544751029532
84936 182 18335703772246866520
9709674 26 18409444786752696374
9939556 21 18409732884547287178
9981440 41 17836934399977328888

> <PUBCHEM_SHAPE_MULTIPOLES>
288.11
7.13
2.11
0.72
0
0.42
0
2.25
0
0
0
0
-0.01
-1.01

> <PUBCHEM_SHAPE_SELFOVERLAP>
621.959

> <PUBCHEM_SHAPE_VOLUME>
150.8

> <PUBCHEM_COORDINATE_TYPE>
2
5
10

$$$$

