3588
  -OEChem-06251223312D

 68 70  0     0  0  0  0  0  0999 V2000
    6.1340   -1.5000    0.0000 O   0  0  0  0  0  0  0  0  0  0  0  0
    7.8660    1.5000    0.0000 O   0  0  0  0  0  0  0  0  0  0  0  0
    5.5000    0.8660    0.0000 O   0  0  0  0  0  0  0  0  0  0  0  0
    4.4019   -1.5000    0.0000 O   0  0  0  0  0  0  0  0  0  0  0  0
    9.5981    1.5000    0.0000 O   0  0  0  0  0  0  0  0  0  0  0  0
    5.5000    2.5981    0.0000 O   0  0  0  0  0  0  0  0  0  0  0  0
    6.1340   -4.5000    0.0000 N   0  0  0  0  0  0  0  0  0  0  0  0
    7.8660    4.5000    0.0000 N   0  0  0  0  0  0  0  0  0  0  0  0
    2.5000    0.8660    0.0000 N   0  0  0  0  0  0  0  0  0  0  0  0
    7.0000    0.0000    0.0000 C   0  0  0  0  0  0  0  0  0  0  0  0
    7.5000   -0.8660    0.0000 C   0  0  0  0  0  0  0  0  0  0  0  0
    8.5000   -0.8660    0.0000 C   0  0  0  0  0  0  0  0  0  0  0  0
    6.1340   -0.5000    0.0000 C   0  0  0  0  0  0  0  0  0  0  0  0
    7.8660    0.5000    0.0000 C   0  0  0  0  0  0  0  0  0  0  0  0
    6.5000    0.8660    0.0000 C   0  0  0  0  0  0  0  0  0  0  0  0
    9.0000   -1.7320    0.0000 C   0  0  0  0  0  0  0  0  0  0  0  0
   10.0000   -1.7320    0.0000 C   0  0  0  0  0  0  0  0  0  0  0  0
   10.5000   -2.5981    0.0000 C   0  0  0  0  0  0  0  0  0  0  0  0
   11.5000   -2.5981    0.0000 C   0  0  0  0  0  0  0  0  0  0  0  0
    5.0000    1.7320    0.0000 C   0  0  0  0  0  0  0  0  0  0  0  0
    8.7320    2.0000    0.0000 C   0  0  0  0  0  0  0  0  0  0  0  0
    5.2680   -2.0000    0.0000 C   0  0  0  0  0  0  0  0  0  0  0  0
    4.0000    1.7320    0.0000 C   0  0  0  0  0  0  0  0  0  0  0  0
    8.7320    3.0000    0.0000 C   0  0  0  0  0  0  0  0  0  0  0  0
    5.2680   -3.0000    0.0000 C   0  0  0  0  0  0  0  0  0  0  0  0
    3.5000    2.5981    0.0000 C   0  0  0  0  0  0  0  0  0  0  0  0
    9.5981    3.5000    0.0000 C   0  0  0  0  0  0  0  0  0  0  0  0
    4.4019   -3.5000    0.0000 C   0  0  0  0  0  0  0  0  0  0  0  0
    6.1340   -3.5000    0.0000 C   0  0  0  0  0  0  0  0  0  0  0  0
    7.8660    3.5000    0.0000 C   0  0  0  0  0  0  0  0  0  0  0  0
    3.5000    0.8660    0.0000 C   0  0  0  0  0  0  0  0  0  0  0  0
    4.4019   -4.5000    0.0000 C   0  0  0  0  0  0  0  0  0  0  0  0
    9.5981    4.5000    0.0000 C   0  0  0  0  0  0  0  0  0  0  0  0
    2.5000    2.5981    0.0000 C   0  0  0  0  0  0  0  0  0  0  0  0
    5.2680   -5.0000    0.0000 C   0  0  0  0  0  0  0  0  0  0  0  0
    8.7320    5.0000    0.0000 C   0  0  0  0  0  0  0  0  0  0  0  0
    2.0000    1.7320    0.0000 C   0  0  0  0  0  0  0  0  0  0  0  0
    6.9174   -1.0781    0.0000 H   0  0  0  0  0  0  0  0  0  0  0  0
    7.6077   -1.4766    0.0000 H   0  0  0  0  0  0  0  0  0  0  0  0
    9.0826   -0.6540    0.0000 H   0  0  0  0  0  0  0  0  0  0  0  0
    8.3923   -0.2554    0.0000 H   0  0  0  0  0  0  0  0  0  0  0  0
    5.9219    0.0826    0.0000 H   0  0  0  0  0  0  0  0  0  0  0  0
    5.5234   -0.6077    0.0000 H   0  0  0  0  0  0  0  0  0  0  0  0
    8.0781   -0.0826    0.0000 H   0  0  0  0  0  0  0  0  0  0  0  0
    8.4766    0.6077    0.0000 H   0  0  0  0  0  0  0  0  0  0  0  0
    7.0826    1.0781    0.0000 H   0  0  0  0  0  0  0  0  0  0  0  0
    6.3923    1.4766    0.0000 H   0  0  0  0  0  0  0  0  0  0  0  0
    8.4174   -1.9441    0.0000 H   0  0  0  0  0  0  0  0  0  0  0  0
    9.1077   -2.3426    0.0000 H   0  0  0  0  0  0  0  0  0  0  0  0
   10.5826   -1.5200    0.0000 H   0  0  0  0  0  0  0  0  0  0  0  0
    9.8923   -1.1215    0.0000 H   0  0  0  0  0  0  0  0  0  0  0  0
    9.9174   -2.8101    0.0000 H   0  0  0  0  0  0  0  0  0  0  0  0
   10.6077   -3.2087    0.0000 H   0  0  0  0  0  0  0  0  0  0  0  0
   11.5000   -3.2181    0.0000 H   0  0  0  0  0  0  0  0  0  0  0  0
   12.1200   -2.5981    0.0000 H   0  0  0  0  0  0  0  0  0  0  0  0
   11.5000   -1.9781    0.0000 H   0  0  0  0  0  0  0  0  0  0  0  0
    3.8650   -3.1900    0.0000 H   0  0  0  0  0  0  0  0  0  0  0  0
   10.1350    3.1900    0.0000 H   0  0  0  0  0  0  0  0  0  0  0  0
    3.8100    3.1350    0.0000 H   0  0  0  0  0  0  0  0  0  0  0  0
    6.6709   -3.1900    0.0000 H   0  0  0  0  0  0  0  0  0  0  0  0
    7.3291    3.1900    0.0000 H   0  0  0  0  0  0  0  0  0  0  0  0
    3.8100    0.3291    0.0000 H   0  0  0  0  0  0  0  0  0  0  0  0
    3.8650   -4.8100    0.0000 H   0  0  0  0  0  0  0  0  0  0  0  0
   10.1350    4.8100    0.0000 H   0  0  0  0  0  0  0  0  0  0  0  0
    2.1900    3.1350    0.0000 H   0  0  0  0  0  0  0  0  0  0  0  0
    5.2680   -5.6200    0.0000 H   0  0  0  0  0  0  0  0  0  0  0  0
    8.7320    5.6200    0.0000 H   0  0  0  0  0  0  0  0  0  0  0  0
    1.3800    1.7320    0.0000 H   0  0  0  0  0  0  0  0  0  0  0  0
  1 13  1  0  0  0  0
  1 22  1  0  0  0  0
  2 14  1  0  0  0  0
  2 21  1  0  0  0  0
  3 15  1  0  0  0  0
  3 20  1  0  0  0  0
  4 22  2  0  0  0  0
  5 21  2  0  0  0  0
  6 20  2  0  0  0  0
  7 29  1  0  0  0  0
  7 35  2  0  0  0  0
  8 30  1  0  0  0  0
  8 36  2  0  0  0  0
  9 31  1  0  0  0  0
  9 37  2  0  0  0  0
 10 11  1  0  0  0  0
 10 13  1  0  0  0  0
 10 14  1  0  0  0  0
 10 15  1  0  0  0  0
 11 12  1  0  0  0  0
 11 38  1  0  0  0  0
 11 39  1  0  0  0  0
 12 16  1  0  0  0  0
 12 40  1  0  0  0  0
 12 41  1  0  0  0  0
 13 42  1  0  0  0  0
 13 43  1  0  0  0  0
 14 44  1  0  0  0  0
 14 45  1  0  0  0  0
 15 46  1  0  0  0  0
 15 47  1  0  0  0  0
 16 17  1  0  0  0  0
 16 48  1  0  0  0  0
 16 49  1  0  0  0  0
 17 18  1  0  0  0  0
 17 50  1  0  0  0  0
 17 51  1  0  0  0  0
 18 19  1  0  0  0  0
 18 52  1  0  0  0  0
 18 53  1  0  0  0  0
 19 54  1  0  0  0  0
 19 55  1  0  0  0  0
 19 56  1  0  0  0  0
 20 23  1  0  0  0  0
 21 24  1  0  0  0  0
 22 25  1  0  0  0  0
 23 26  1  0  0  0  0
 23 31  2  0  0  0  0
 24 27  1  0  0  0  0
 24 30  2  0  0  0  0
 25 28  1  0  0  0  0
 25 29  2  0  0  0  0
 26 34  2  0  0  0  0
 26 59  1  0  0  0  0
 27 33  2  0  0  0  0
 27 58  1  0  0  0  0
 28 32  2  0  0  0  0
 28 57  1  0  0  0  0
 29 60  1  0  0  0  0
 30 61  1  0  0  0  0
 31 62  1  0  0  0  0
 32 35  1  0  0  0  0
 32 63  1  0  0  0  0
 33 36  1  0  0  0  0
 33 64  1  0  0  0  0
 34 37  1  0  0  0  0
 34 65  1  0  0  0  0
 35 66  1  0  0  0  0
 36 67  1  0  0  0  0
 37 68  1  0  0  0  0
M  END
> <PUBCHEM_COMPOUND_CID>
3588

> <PUBCHEM_COMPOUND_CANONICALIZED>
1

> <PUBCHEM_CACTVS_COMPLEXITY>
634

> <PUBCHEM_CACTVS_HBOND_ACCEPTOR>
9

> <PUBCHEM_CACTVS_HBOND_DONOR>
0

> <PUBCHEM_CACTVS_ROTATABLE_BOND>
17

> <PUBCHEM_CACTVS_SUBSKEYS>
AAADceB7OAAAAAAAAAAAAAAAAAAAAAAAAAAsWLAAAAAAAAAB+AAAHgAAAAAADgDhmgY+iJIIFACoAjD3TACCgCA1AiAI2CE4bNgIJvrAtZmGMYhnwAHI6ceY0eINAAAAAAAAAAAAAAAAAAAAAAAAAAAAAA==

> <PUBCHEM_IUPAC_OPENEYE_NAME>
2,2-bis(pyridine-3-carbonyloxymethyl)octyl pyridine-3-carboxylate

> <PUBCHEM_IUPAC_CAS_NAME>
3-pyridinecarboxylic acid 2,2-bis[[oxo(3-pyridinyl)methoxy]methyl]octyl ester

> <PUBCHEM_IUPAC_NAME>
2,2-bis(pyridine-3-carbonyloxymethyl)octyl pyridine-3-carboxylate

> <PUBCHEM_IUPAC_SYSTEMATIC_NAME>
2,2-bis(pyridin-3-ylcarbonyloxymethyl)octyl pyridine-3-carboxylate

> <PUBCHEM_IUPAC_TRADITIONAL_NAME>
nicotinic acid 2,2-bis(nicotinoyloxymethyl)octyl ester

> <PUBCHEM_IUPAC_INCHI>
InChI=1S/C28H31N3O6/c1-2-3-4-5-12-28(19-35-25(32)22-9-6-13-29-16-22,20-36-26(33)23-10-7-14-30-17-23)21-37-27(34)24-11-8-15-31-18-24/h6-11,13-18H,2-5,12,19-21H2,1H3

> <PUBCHEM_IUPAC_INCHIKEY>
GUIBJJJLGSYNKE-UHFFFAOYSA-N

> <PUBCHEM_XLOGP3_AA>
4.8

> <PUBCHEM_EXACT_MASS>
505.221286

> <PUBCHEM_MOLECULAR_FORMULA>
C28H31N3O6

> <PUBCHEM_MOLECULAR_WEIGHT>
505.56224

> <PUBCHEM_OPENEYE_CAN_SMILES>
CCCCCCC(COC(=O)C1=CN=CC=C1)(COC(=O)C2=CN=CC=C2)COC(=O)C3=CN=CC=C3

> <PUBCHEM_OPENEYE_ISO_SMILES>
CCCCCCC(COC(=O)C1=CN=CC=C1)(COC(=O)C2=CN=CC=C2)COC(=O)C3=CN=CC=C3

> <PUBCHEM_CACTVS_TPSA>
118

> <PUBCHEM_MONOISOTOPIC_WEIGHT>
505.221286

> <PUBCHEM_TOTAL_CHARGE>
0

> <PUBCHEM_HEAVY_ATOM_COUNT>
37

> <PUBCHEM_ATOM_DEF_STEREO_COUNT>
0

> <PUBCHEM_ATOM_UDEF_STEREO_COUNT>
0

> <PUBCHEM_BOND_DEF_STEREO_COUNT>
0

> <PUBCHEM_BOND_UDEF_STEREO_COUNT>
0

> <PUBCHEM_ISOTOPIC_ATOM_COUNT>
0

> <PUBCHEM_COMPONENT_COUNT>
1

> <PUBCHEM_CACTVS_TAUTO_COUNT>
1

> <PUBCHEM_COORDINATE_TYPE>
1
5
255

> <PUBCHEM_BONDANNOTATIONS>
23  26  8
23  31  8
24  27  8
24  30  8
25  28  8
25  29  8
26  34  8
27  33  8
28  32  8
32  35  8
33  36  8
34  37  8
7  29  8
7  35  8
8  30  8
8  36  8
9  31  8
9  37  8

$$$$

