10829
  -OEChem-06261205013D

 40 41  0     0  0  0  0  0  0999 V2000
    0.1184   -0.0327    0.6176 O   0  0  0  0  0  0  0  0  0  0  0  0
    6.3652   -0.1989    0.4322 O   0  0  0  0  0  0  0  0  0  0  0  0
    2.3724    2.2744   -0.3620 O   0  0  0  0  0  0  0  0  0  0  0  0
   -3.8935    2.4673    0.0291 O   0  0  0  0  0  0  0  0  0  0  0  0
    0.3715   -0.1028   -1.6982 O   0  0  0  0  0  0  0  0  0  0  0  0
   -6.1124    0.1709    1.1003 O   0  0  0  0  0  0  0  0  0  0  0  0
   -6.0268    0.1001   -1.1700 O   0  0  0  0  0  0  0  0  0  0  0  0
    2.3082   -0.1241   -0.3072 C   0  0  0  0  0  0  0  0  0  0  0  0
    2.9410   -1.3435   -0.1587 C   0  0  0  0  0  0  0  0  0  0  0  0
   -3.3417   -1.1538    0.2228 C   0  0  0  0  0  0  0  0  0  0  0  0
   -1.2317    0.0011    0.4476 C   0  0  0  0  0  0  0  0  0  0  0  0
   -3.9985    0.0704    0.0985 C   0  0  0  0  0  0  0  0  0  0  0  0
    2.9958    1.0713   -0.2150 C   0  0  0  0  0  0  0  0  0  0  0  0
   -1.9584   -1.1885    0.3973 C   0  0  0  0  0  0  0  0  0  0  0  0
    4.3129   -1.3689    0.0915 C   0  0  0  0  0  0  0  0  0  0  0  0
    5.0264   -0.1742    0.1884 C   0  0  0  0  0  0  0  0  0  0  0  0
   -3.2719    1.2602    0.1490 C   0  0  0  0  0  0  0  0  0  0  0  0
    0.8473   -0.0901   -0.5728 C   0  0  0  0  0  0  0  0  0  0  0  0
   -1.8884    1.2255    0.3234 C   0  0  0  0  0  0  0  0  0  0  0  0
    4.3679    1.0459    0.0352 C   0  0  0  0  0  0  0  0  0  0  0  0
    2.2029   -2.6387   -0.2576 C   0  0  0  0  0  0  0  0  0  0  0  0
   -4.0938   -2.4437    0.1725 C   0  0  0  0  0  0  0  0  0  0  0  0
   -5.4456    0.1136   -0.0831 C   0  0  0  0  0  0  0  0  0  0  0  0
    7.0327    1.0591    0.5190 C   0  0  0  0  0  0  0  0  0  0  0  0
   -1.4363   -2.1372    0.4957 H   0  0  0  0  0  0  0  0  0  0  0  0
    4.8368   -2.3139    0.2128 H   0  0  0  0  0  0  0  0  0  0  0  0
   -1.3217    2.1525    0.3628 H   0  0  0  0  0  0  0  0  0  0  0  0
    4.8673    2.0071    0.0994 H   0  0  0  0  0  0  0  0  0  0  0  0
    1.4421   -2.7069    0.5268 H   0  0  0  0  0  0  0  0  0  0  0  0
    1.7230   -2.7339   -1.2372 H   0  0  0  0  0  0  0  0  0  0  0  0
    2.8707   -3.4990   -0.1394 H   0  0  0  0  0  0  0  0  0  0  0  0
   -4.8151   -2.4999    0.9943 H   0  0  0  0  0  0  0  0  0  0  0  0
   -4.6220   -2.5437   -0.7815 H   0  0  0  0  0  0  0  0  0  0  0  0
   -3.4272   -3.3082    0.2652 H   0  0  0  0  0  0  0  0  0  0  0  0
    1.4239    2.1490   -0.5256 H   0  0  0  0  0  0  0  0  0  0  0  0
   -4.8501    2.3496   -0.0859 H   0  0  0  0  0  0  0  0  0  0  0  0
    8.0893    0.8510    0.7168 H   0  0  0  0  0  0  0  0  0  0  0  0
    6.6617    1.6546    1.3602 H   0  0  0  0  0  0  0  0  0  0  0  0
    6.9869    1.6054   -0.4292 H   0  0  0  0  0  0  0  0  0  0  0  0
   -7.0844    0.1987    0.9708 H   0  0  0  0  0  0  0  0  0  0  0  0
  1 11  1  0  0  0  0
  1 18  1  0  0  0  0
  2 16  1  0  0  0  0
  2 24  1  0  0  0  0
  3 13  1  0  0  0  0
  3 35  1  0  0  0  0
  4 17  1  0  0  0  0
  4 36  1  0  0  0  0
  5 18  2  0  0  0  0
  6 23  1  0  0  0  0
  6 40  1  0  0  0  0
  7 23  2  0  0  0  0
  8  9  1  0  0  0  0
  8 13  2  0  0  0  0
  8 18  1  0  0  0  0
  9 15  2  0  0  0  0
  9 21  1  0  0  0  0
 10 12  1  0  0  0  0
 10 14  2  0  0  0  0
 10 22  1  0  0  0  0
 11 14  1  0  0  0  0
 11 19  2  0  0  0  0
 12 17  2  0  0  0  0
 12 23  1  0  0  0  0
 13 20  1  0  0  0  0
 14 25  1  0  0  0  0
 15 16  1  0  0  0  0
 15 26  1  0  0  0  0
 16 20  2  0  0  0  0
 17 19  1  0  0  0  0
 19 27  1  0  0  0  0
 20 28  1  0  0  0  0
 21 29  1  0  0  0  0
 21 30  1  0  0  0  0
 21 31  1  0  0  0  0
 22 32  1  0  0  0  0
 22 33  1  0  0  0  0
 22 34  1  0  0  0  0
 24 37  1  0  0  0  0
 24 38  1  0  0  0  0
 24 39  1  0  0  0  0
M  END
> <PUBCHEM_COMPOUND_CID>
10829

> <PUBCHEM_CONFORMER_RMSD>
0.8

> <PUBCHEM_CONFORMER_DIVERSEORDER>
1
69
63
86
55
59
61
81
50
44
33
39
64
82
53
66
32
35
84
37
83
52
72
21
25
19
87
60
17
2
68
24
29
77
58
11
74
73
36
18
14
76
12
57
78
40
20
28
45
47
13
67
31
70
41
46
80
16
75
6
8
62
5
42
15
30
27
88
38
7
51
56
4
10
54
71
3
48
9
65
49
43
22
85
79
34
23
26

> <PUBCHEM_MMFF94_PARTIAL_CHARGES>
31
1 -0.23
10 -0.14
11 0.08
12 0.09
13 0.08
14 -0.15
15 -0.15
16 0.08
17 0.08
18 0.63
19 -0.15
2 -0.36
20 -0.15
21 0.14
22 0.14
23 0.63
24 0.28
25 0.15
26 0.15
27 0.15
28 0.15
3 -0.53
35 0.45
36 0.45
4 -0.53
40 0.5
5 -0.57
6 -0.65
7 -0.57
8 0.09
9 -0.14

> <PUBCHEM_EFFECTIVE_ROTOR_COUNT>
5

> <PUBCHEM_PHARMACOPHORE_FEATURES>
9
1 2 acceptor
1 3 donor
1 4 donor
1 5 acceptor
1 6 acceptor
1 7 acceptor
3 6 7 23 anion
6 10 11 12 14 17 19 rings
6 8 9 13 15 16 20 rings

> <PUBCHEM_HEAVY_ATOM_COUNT>
24

> <PUBCHEM_ATOM_DEF_STEREO_COUNT>
0

> <PUBCHEM_ATOM_UDEF_STEREO_COUNT>
0

> <PUBCHEM_BOND_DEF_STEREO_COUNT>
0

> <PUBCHEM_BOND_UDEF_STEREO_COUNT>
0

> <PUBCHEM_ISOTOPIC_ATOM_COUNT>
0

> <PUBCHEM_COMPONENT_COUNT>
1

> <PUBCHEM_CACTVS_TAUTO_COUNT>
69

> <PUBCHEM_CONFORMER_ID>
00002A4D00000001

> <PUBCHEM_MMFF94_ENERGY>
95.3377

> <PUBCHEM_FEATURE_SELFOVERLAP>
45.727

> <PUBCHEM_SHAPE_FINGERPRINT>
10 15 18261967254545220376
11315181 36 18272367555452258512
11370993 70 18411699893701606074
12107183 9 17625269980113371832
12166972 35 18259984873055102976
12236239 1 17748828523077136294
12507557 5 18407757027977311768
12516196 113 18186522102755372200
13073987 5 18270116941244427235
13167823 11 18412262835054315914
13533116 47 18041279971613020570
13583140 156 18041003920636166019
14251764 18 18201720648319010224
14341114 176 18409161138738129562
15788980 27 18060416902468516787
17492 89 18410568487815852271
17857418 61 18412267233079507147
1813 80 16773507867361081630
18681886 176 18335705988639265162
19489759 90 18411702084276838737
200 152 18113620101199133945
20511986 3 18200610158100957819
21033648 29 17458642132903728144
21267235 1 18411971477336439867
21709351 56 18412548678355236174
22224240 67 18409455761295574706
23402539 116 18341054030023442607
23557571 272 18114176475478984633
23559900 14 18410297969215544953
26918003 58 18412544292829831067
300161 21 18341617018288846923
34797466 226 17894623756330305908
350125 39 18337953390227487132
351380 180 18410855456017953765
3545911 37 18409728469421042824
4073 2 18130782331285311410
4214541 1 18411980286578218457
4325135 7 18186524306701420541
4340502 62 18409165511247276810
5104073 3 18268705176656456059
542803 24 17240481429176441347
7495541 125 17749675095179641225
9709674 26 18337381734043346359

> <PUBCHEM_SHAPE_MULTIPOLES>
452.82
15.61
2.13
0.85
3.6
0.44
0.15
-2.14
-1.88
-0.26
0.02
-0.33
0
0.2

> <PUBCHEM_SHAPE_SELFOVERLAP>
980.987

> <PUBCHEM_SHAPE_VOLUME>
247.7

> <PUBCHEM_COORDINATE_TYPE>
2
5
10

$$$$

