14027
  -OEChem-06241222413D

 56 55  0     0  0  0  0  0  0999 V2000
   -3.1107   -0.0001    0.0009 N   0  3  0  0  0  0  0  0  0  0  0  0
    3.1106    0.0005   -0.0008 N   0  3  0  0  0  0  0  0  0  0  0  0
   -1.8023   -0.0088    0.6985 C   0  0  0  0  0  0  0  0  0  0  0  0
    1.8018    0.0103   -0.6976 C   0  0  0  0  0  0  0  0  0  0  0  0
   -0.6863   -0.0359   -0.3353 C   0  0  0  0  0  0  0  0  0  0  0  0
    0.6864    0.0010    0.3372 C   0  0  0  0  0  0  0  0  0  0  0  0
   -4.2679    0.0272    1.0096 C   0  0  0  0  0  0  0  0  0  0  0  0
   -3.2714   -1.2513   -0.8743 C   0  0  0  0  0  0  0  0  0  0  0  0
   -3.2392    1.2335   -0.9042 C   0  0  0  0  0  0  0  0  0  0  0  0
    3.2581    1.2331    0.9027 C   0  0  0  0  0  0  0  0  0  0  0  0
    3.2534   -1.2521    0.8758 C   0  0  0  0  0  0  0  0  0  0  0  0
    4.2674    0.0093   -1.0105 C   0  0  0  0  0  0  0  0  0  0  0  0
   -4.1814    1.2936    1.8330 C   0  0  0  0  0  0  0  0  0  0  0  0
   -3.1490   -2.4851   -0.0069 C   0  0  0  0  0  0  0  0  0  0  0  0
   -4.6002    1.2268   -1.5653 C   0  0  0  0  0  0  0  0  0  0  0  0
    4.6194    1.2070    1.5627 C   0  0  0  0  0  0  0  0  0  0  0  0
    3.1121   -2.4849    0.0100 C   0  0  0  0  0  0  0  0  0  0  0  0
    4.1990    1.2758   -1.8354 C   0  0  0  0  0  0  0  0  0  0  0  0
   -1.6967    0.9233    1.2619 H   0  0  0  0  0  0  0  0  0  0  0  0
   -1.7484   -0.8317    1.4172 H   0  0  0  0  0  0  0  0  0  0  0  0
    1.7372   -0.8142   -1.4135 H   0  0  0  0  0  0  0  0  0  0  0  0
    1.7073    0.9418   -1.2639 H   0  0  0  0  0  0  0  0  0  0  0  0
   -0.7113   -0.9425   -0.9463 H   0  0  0  0  0  0  0  0  0  0  0  0
   -0.7165    0.8254   -1.0068 H   0  0  0  0  0  0  0  0  0  0  0  0
    0.7288   -0.8697    0.9958 H   0  0  0  0  0  0  0  0  0  0  0  0
    0.7009    0.8989    0.9614 H   0  0  0  0  0  0  0  0  0  0  0  0
   -5.2291   -0.1117    0.5090 H   0  0  0  0  0  0  0  0  0  0  0  0
   -4.1318   -0.8083    1.7028 H   0  0  0  0  0  0  0  0  0  0  0  0
   -4.2822   -1.2662   -1.2898 H   0  0  0  0  0  0  0  0  0  0  0  0
   -2.5636   -1.2302   -1.7066 H   0  0  0  0  0  0  0  0  0  0  0  0
   -3.0291    2.1437   -0.3365 H   0  0  0  0  0  0  0  0  0  0  0  0
   -2.5041    1.1564   -1.7097 H   0  0  0  0  0  0  0  0  0  0  0  0
    3.0622    2.1453    0.3331 H   0  0  0  0  0  0  0  0  0  0  0  0
    2.5180    1.1677    1.7052 H   0  0  0  0  0  0  0  0  0  0  0  0
    4.2659   -1.2815    1.2868 H   0  0  0  0  0  0  0  0  0  0  0  0
    2.5530   -1.2200    1.7137 H   0  0  0  0  0  0  0  0  0  0  0  0
    5.2269   -0.1431   -0.5106 H   0  0  0  0  0  0  0  0  0  0  0  0
    4.1185   -0.8247   -1.7027 H   0  0  0  0  0  0  0  0  0  0  0  0
   -3.2705    1.3802    2.4291 H   0  0  0  0  0  0  0  0  0  0  0  0
   -4.3311    2.2110    1.2600 H   0  0  0  0  0  0  0  0  0  0  0  0
   -4.9999    1.2757    2.5640 H   0  0  0  0  0  0  0  0  0  0  0  0
   -2.1641   -2.6087    0.4492 H   0  0  0  0  0  0  0  0  0  0  0  0
   -3.9206   -2.5765    0.7601 H   0  0  0  0  0  0  0  0  0  0  0  0
   -3.2801   -3.3643   -0.6508 H   0  0  0  0  0  0  0  0  0  0  0  0
   -4.7781    0.3887   -2.2416 H   0  0  0  0  0  0  0  0  0  0  0  0
   -5.4419    1.3367   -0.8790 H   0  0  0  0  0  0  0  0  0  0  0  0
   -4.6540    2.1142   -2.2103 H   0  0  0  0  0  0  0  0  0  0  0  0
    4.6866    2.0940    2.2070 H   0  0  0  0  0  0  0  0  0  0  0  0
    5.4621    1.3039    0.8756 H   0  0  0  0  0  0  0  0  0  0  0  0
    4.7853    0.3668    2.2393 H   0  0  0  0  0  0  0  0  0  0  0  0
    3.2345   -3.3651    0.6543 H   0  0  0  0  0  0  0  0  0  0  0  0
    3.8791   -2.5874   -0.7602 H   0  0  0  0  0  0  0  0  0  0  0  0
    2.1235   -2.5958   -0.4413 H   0  0  0  0  0  0  0  0  0  0  0  0
    5.0159    1.2442   -2.5679 H   0  0  0  0  0  0  0  0  0  0  0  0
    4.3641    2.1915   -1.2637 H   0  0  0  0  0  0  0  0  0  0  0  0
    3.2886    1.3760   -2.4300 H   0  0  0  0  0  0  0  0  0  0  0  0
  1  3  1  0  0  0  0
  1  7  1  0  0  0  0
  1  8  1  0  0  0  0
  1  9  1  0  0  0  0
  2  4  1  0  0  0  0
  2 10  1  0  0  0  0
  2 11  1  0  0  0  0
  2 12  1  0  0  0  0
  3  5  1  0  0  0  0
  3 19  1  0  0  0  0
  3 20  1  0  0  0  0
  4  6  1  0  0  0  0
  4 21  1  0  0  0  0
  4 22  1  0  0  0  0
  5  6  1  0  0  0  0
  5 23  1  0  0  0  0
  5 24  1  0  0  0  0
  6 25  1  0  0  0  0
  6 26  1  0  0  0  0
  7 13  1  0  0  0  0
  7 27  1  0  0  0  0
  7 28  1  0  0  0  0
  8 14  1  0  0  0  0
  8 29  1  0  0  0  0
  8 30  1  0  0  0  0
  9 15  1  0  0  0  0
  9 31  1  0  0  0  0
  9 32  1  0  0  0  0
 10 16  1  0  0  0  0
 10 33  1  0  0  0  0
 10 34  1  0  0  0  0
 11 17  1  0  0  0  0
 11 35  1  0  0  0  0
 11 36  1  0  0  0  0
 12 18  1  0  0  0  0
 12 37  1  0  0  0  0
 12 38  1  0  0  0  0
 13 39  1  0  0  0  0
 13 40  1  0  0  0  0
 13 41  1  0  0  0  0
 14 42  1  0  0  0  0
 14 43  1  0  0  0  0
 14 44  1  0  0  0  0
 15 45  1  0  0  0  0
 15 46  1  0  0  0  0
 15 47  1  0  0  0  0
 16 48  1  0  0  0  0
 16 49  1  0  0  0  0
 16 50  1  0  0  0  0
 17 51  1  0  0  0  0
 17 52  1  0  0  0  0
 17 53  1  0  0  0  0
 18 54  1  0  0  0  0
 18 55  1  0  0  0  0
 18 56  1  0  0  0  0
M  CHG  2   1   1   2   1
M  END
> <PUBCHEM_COMPOUND_CID>
14027

> <PUBCHEM_CONFORMER_RMSD>
1

> <PUBCHEM_CONFORMER_DIVERSEORDER>
1
3
9
2
6
8
5
4
7

> <PUBCHEM_MMFF94_PARTIAL_CHARGES>
10
1 -1.01
10 0.5
11 0.5
12 0.5
2 -1.01
3 0.5
4 0.5
7 0.5
8 0.5
9 0.5

> <PUBCHEM_EFFECTIVE_ROTOR_COUNT>
11

> <PUBCHEM_PHARMACOPHORE_FEATURES>
2
1 1 cation
1 2 cation

> <PUBCHEM_HEAVY_ATOM_COUNT>
18

> <PUBCHEM_ATOM_DEF_STEREO_COUNT>
0

> <PUBCHEM_ATOM_UDEF_STEREO_COUNT>
0

> <PUBCHEM_BOND_DEF_STEREO_COUNT>
0

> <PUBCHEM_BOND_UDEF_STEREO_COUNT>
0

> <PUBCHEM_ISOTOPIC_ATOM_COUNT>
0

> <PUBCHEM_COMPONENT_COUNT>
1

> <PUBCHEM_CACTVS_TAUTO_COUNT>
1

> <PUBCHEM_CONFORMER_ID>
000036CB00000001

> <PUBCHEM_MMFF94_ENERGY>
79.0779

> <PUBCHEM_FEATURE_SELFOVERLAP>
10.149

> <PUBCHEM_SHAPE_FINGERPRINT>
10014705 185 18341341032781338189
10680689 15 18272930510001041581
11089746 13 17749114404663996888
11405975 8 18186237346603177410
11552529 35 18114465539895093983
12616971 3 17847063272447474304
13224815 77 18408888421036172730
13533116 47 18262519311828867935
13583140 156 18262252035591570703
13631057 29 18120374250568089815
13675066 3 17989204875880011361
13955234 65 18060411427092011986
14289901 80 18131070428605200126
15239154 128 18410855464423479884
15788980 27 17989212555075808314
18186145 218 18259983768989342984
19050596 39 18334859432904577586
19433438 15 17704080585474429005
200 152 8141801634757982633
20281475 54 18410854364922219718
20645477 56 18343588456044408925
20645477 70 18270967967408015310
20681651 13 18334861614932788379
22646028 1 12319733665743539841
23402539 116 17560810922193728108
23402655 69 18201999958278561780
23557571 272 18337660954214422413
23559900 14 18409737287426803410
268830 7 17967534609661218993
2838139 119 17754460372376199065
300161 21 18410300211056402959
5104073 3 18407761438771718234
5281201 14 17846491582298980766
633830 44 17240479221368111380
90127 26 17167855353135372072

> <PUBCHEM_SHAPE_MULTIPOLES>
360.47
11.92
2.02
1.64
0.06
1.31
0
-2.75
0
-0.03
0
0.01
-0.84
-0.14

> <PUBCHEM_SHAPE_SELFOVERLAP>
666.349

> <PUBCHEM_SHAPE_VOLUME>
227.7

> <PUBCHEM_COORDINATE_TYPE>
2
5
10

$$$$

