17396308
  -OEChem-06241222552D

 42 44  0     0  0  0  0  0  0999 V2000
    8.5458    0.7364    0.0000 S   0  0  0  0  0  0  0  0  0  0  0  0
    4.6783   -4.3432    0.0000 O   0  0  0  0  0  0  0  0  0  0  0  0
    6.2619   -3.5385    0.0000 O   0  0  0  0  0  0  0  0  0  0  0  0
    6.6353   -2.3213    0.0000 O   0  0  0  0  0  0  0  0  0  0  0  0
    4.6783   -2.7338    0.0000 N   0  0  0  0  0  0  0  0  0  0  0  0
    6.2781   -0.6265    0.0000 N   0  0  0  0  0  0  0  0  0  0  0  0
    3.7320   -3.0385    0.0000 C   0  0  0  0  0  0  0  0  0  0  0  0
    4.9889   -1.7833    0.0000 C   0  0  0  0  0  0  0  0  0  0  0  0
    3.7320   -4.0385    0.0000 C   0  0  0  0  0  0  0  0  0  0  0  0
    5.2619   -3.5385    0.0000 C   0  0  0  0  0  0  0  0  0  0  0  0
    5.9674   -1.5770    0.0000 C   0  0  0  0  0  0  0  0  0  0  0  0
    7.2566   -0.4203    0.0000 C   0  0  0  0  0  0  0  0  0  0  0  0
    2.8660   -2.5385    0.0000 C   0  0  0  0  0  0  0  0  0  0  0  0
    2.8660   -4.5385    0.0000 C   0  0  0  0  0  0  0  0  0  0  0  0
    7.5673    0.5302    0.0000 C   0  0  0  0  0  0  0  0  0  0  0  0
    2.0000   -3.0385    0.0000 C   0  0  0  0  0  0  0  0  0  0  0  0
    2.0000   -4.0385    0.0000 C   0  0  0  0  0  0  0  0  0  0  0  0
    8.8564    1.6870    0.0000 C   0  0  0  0  0  0  0  0  0  0  0  0
    9.4778    3.5880    0.0000 C   0  0  0  0  0  0  0  0  0  0  0  0
    8.1886    2.4313    0.0000 C   0  0  0  0  0  0  0  0  0  0  0  0
    9.8349    1.8932    0.0000 C   0  0  0  0  0  0  0  0  0  0  0  0
    8.4993    3.3818    0.0000 C   0  0  0  0  0  0  0  0  0  0  0  0
   10.1456    2.8437    0.0000 C   0  0  0  0  0  0  0  0  0  0  0  0
    9.7884    4.5385    0.0000 C   0  0  0  0  0  0  0  0  0  0  0  0
    4.9684   -1.1636    0.0000 H   0  0  0  0  0  0  0  0  0  0  0  0
    4.3751   -1.6959    0.0000 H   0  0  0  0  0  0  0  0  0  0  0  0
    7.2772   -1.0400    0.0000 H   0  0  0  0  0  0  0  0  0  0  0  0
    7.8704   -0.5077    0.0000 H   0  0  0  0  0  0  0  0  0  0  0  0
    2.8660   -1.9185    0.0000 H   0  0  0  0  0  0  0  0  0  0  0  0
    5.8640   -0.1651    0.0000 H   0  0  0  0  0  0  0  0  0  0  0  0
    7.5467    1.1499    0.0000 H   0  0  0  0  0  0  0  0  0  0  0  0
    6.9534    0.6176    0.0000 H   0  0  0  0  0  0  0  0  0  0  0  0
    2.8660   -5.1585    0.0000 H   0  0  0  0  0  0  0  0  0  0  0  0
    1.4631   -2.7285    0.0000 H   0  0  0  0  0  0  0  0  0  0  0  0
    1.4631   -4.3485    0.0000 H   0  0  0  0  0  0  0  0  0  0  0  0
    7.5819    2.3034    0.0000 H   0  0  0  0  0  0  0  0  0  0  0  0
   10.2490    1.4317    0.0000 H   0  0  0  0  0  0  0  0  0  0  0  0
    8.0852    3.8432    0.0000 H   0  0  0  0  0  0  0  0  0  0  0  0
   10.7523    2.9716    0.0000 H   0  0  0  0  0  0  0  0  0  0  0  0
   10.3777    4.3459    0.0000 H   0  0  0  0  0  0  0  0  0  0  0  0
    9.9810    5.1278    0.0000 H   0  0  0  0  0  0  0  0  0  0  0  0
    9.1991    4.7311    0.0000 H   0  0  0  0  0  0  0  0  0  0  0  0
  1 15  1  0  0  0  0
  1 18  1  0  0  0  0
  2  9  1  0  0  0  0
  2 10  1  0  0  0  0
  3 10  2  0  0  0  0
  4 11  2  0  0  0  0
  5  7  1  0  0  0  0
  5  8  1  0  0  0  0
  5 10  1  0  0  0  0
  6 11  1  0  0  0  0
  6 12  1  0  0  0  0
  6 30  1  0  0  0  0
  7  9  1  0  0  0  0
  7 13  2  0  0  0  0
  8 11  1  0  0  0  0
  8 25  1  0  0  0  0
  8 26  1  0  0  0  0
  9 14  2  0  0  0  0
 12 15  1  0  0  0  0
 12 27  1  0  0  0  0
 12 28  1  0  0  0  0
 13 16  1  0  0  0  0
 13 29  1  0  0  0  0
 14 17  1  0  0  0  0
 14 33  1  0  0  0  0
 15 31  1  0  0  0  0
 15 32  1  0  0  0  0
 16 17  2  0  0  0  0
 16 34  1  0  0  0  0
 17 35  1  0  0  0  0
 18 20  2  0  0  0  0
 18 21  1  0  0  0  0
 19 22  2  0  0  0  0
 19 23  1  0  0  0  0
 19 24  1  0  0  0  0
 20 22  1  0  0  0  0
 20 36  1  0  0  0  0
 21 23  2  0  0  0  0
 21 37  1  0  0  0  0
 22 38  1  0  0  0  0
 23 39  1  0  0  0  0
 24 40  1  0  0  0  0
 24 41  1  0  0  0  0
 24 42  1  0  0  0  0
M  END
> <PUBCHEM_COMPOUND_CID>
17396308

> <PUBCHEM_COMPOUND_CANONICALIZED>
1

> <PUBCHEM_CACTVS_COMPLEXITY>
452

> <PUBCHEM_CACTVS_HBOND_ACCEPTOR>
4

> <PUBCHEM_CACTVS_HBOND_DONOR>
1

> <PUBCHEM_CACTVS_ROTATABLE_BOND>
6

> <PUBCHEM_CACTVS_SUBSKEYS>
AAADceB7MABAAAAAAAAAAAAAAAAAAWAAAAAwYAAAAAAAAFgBQAAAHgQQAAAADAzF2ASyz4PABAiIAiVSWACCCAAhKhAIiJiPbIgOZiLksbudMihk1hH46AeQwAAOEAAAAAAAEAAgAAAAAAAgAAAAAAAAAA==

> <PUBCHEM_IUPAC_OPENEYE_NAME>
2-(2-oxo-1,3-benzoxazol-3-yl)-N-[2-(p-tolylsulfanyl)ethyl]acetamide

> <PUBCHEM_IUPAC_CAS_NAME>
N-[2-[(4-methylphenyl)thio]ethyl]-2-(2-oxo-1,3-benzoxazol-3-yl)acetamide

> <PUBCHEM_IUPAC_NAME>
N-[2-(4-methylphenyl)sulfanylethyl]-2-(2-oxo-1,3-benzoxazol-3-yl)acetamide

> <PUBCHEM_IUPAC_SYSTEMATIC_NAME>
N-[2-(4-methylphenyl)sulfanylethyl]-2-(2-oxidanylidene-1,3-benzoxazol-3-yl)ethanamide

> <PUBCHEM_IUPAC_TRADITIONAL_NAME>
2-(2-keto-1,3-benzoxazol-3-yl)-N-[2-(p-tolylthio)ethyl]acetamide

> <PUBCHEM_IUPAC_INCHI>
InChI=1S/C18H18N2O3S/c1-13-6-8-14(9-7-13)24-11-10-19-17(21)12-20-15-4-2-3-5-16(15)23-18(20)22/h2-9H,10-12H2,1H3,(H,19,21)

> <PUBCHEM_IUPAC_INCHIKEY>
XKHLWMVBSCOHEQ-UHFFFAOYSA-N

> <PUBCHEM_XLOGP3_AA>
3.2

> <PUBCHEM_EXACT_MASS>
342.103813

> <PUBCHEM_MOLECULAR_FORMULA>
C18H18N2O3S

> <PUBCHEM_MOLECULAR_WEIGHT>
342.41212

> <PUBCHEM_OPENEYE_CAN_SMILES>
CC1=CC=C(C=C1)SCCNC(=O)CN2C3=CC=CC=C3OC2=O

> <PUBCHEM_OPENEYE_ISO_SMILES>
CC1=CC=C(C=C1)SCCNC(=O)CN2C3=CC=CC=C3OC2=O

> <PUBCHEM_CACTVS_TPSA>
83.9

> <PUBCHEM_MONOISOTOPIC_WEIGHT>
342.103813

> <PUBCHEM_TOTAL_CHARGE>
0

> <PUBCHEM_HEAVY_ATOM_COUNT>
24

> <PUBCHEM_ATOM_DEF_STEREO_COUNT>
0

> <PUBCHEM_ATOM_UDEF_STEREO_COUNT>
0

> <PUBCHEM_BOND_DEF_STEREO_COUNT>
0

> <PUBCHEM_BOND_UDEF_STEREO_COUNT>
0

> <PUBCHEM_ISOTOPIC_ATOM_COUNT>
0

> <PUBCHEM_COMPONENT_COUNT>
1

> <PUBCHEM_CACTVS_TAUTO_COUNT>
2

> <PUBCHEM_COORDINATE_TYPE>
1
5
255

> <PUBCHEM_BONDANNOTATIONS>
13  16  8
14  17  8
16  17  8
18  20  8
18  21  8
19  22  8
19  23  8
2  10  8
2  9  8
20  22  8
21  23  8
5  10  8
5  7  8
7  13  8
7  9  8
9  14  8

$$$$

