9372
  -OEChem-06261203392D

 30 31  0     0  0  0  0  0  0999 V2000
    2.3397   -0.7002    0.0000 Cl  0  0  0  0  0  0  0  0  0  0  0  0
    2.8090    1.0284    0.0000 O   0  0  0  0  0  0  0  0  0  0  0  0
    6.8495   -1.3648    0.0000 O   0  0  0  0  0  0  0  0  0  0  0  0
    4.7770    0.3291    0.0000 N   0  0  0  0  0  0  0  0  0  0  0  0
    4.5691    1.3072    0.0000 C   0  0  0  0  0  0  0  0  0  0  0  0
    5.7281    0.0200    0.0000 C   0  0  0  0  0  0  0  0  0  0  0  0
    4.0339   -0.3401    0.0000 C   0  0  0  0  0  0  0  0  0  0  0  0
    3.6180    1.6162    0.0000 C   0  0  0  0  0  0  0  0  0  0  0  0
    5.9360   -0.9581    0.0000 C   0  0  0  0  0  0  0  0  0  0  0  0
    3.0828   -0.0311    0.0000 C   0  0  0  0  0  0  0  0  0  0  0  0
    3.3090    2.5673    0.0000 C   0  0  0  0  0  0  0  0  0  0  0  0
    5.2668   -1.7012    0.0000 C   0  0  0  0  0  0  0  0  0  0  0  0
    2.3090    2.5673    0.0000 C   0  0  0  0  0  0  0  0  0  0  0  0
    5.7668   -2.5673    0.0000 C   0  0  0  0  0  0  0  0  0  0  0  0
    2.0000    1.6162    0.0000 C   0  0  0  0  0  0  0  0  0  0  0  0
    6.7450   -2.3594    0.0000 C   0  0  0  0  0  0  0  0  0  0  0  0
    5.1887    1.3288    0.0000 H   0  0  0  0  0  0  0  0  0  0  0  0
    4.6554    1.9212    0.0000 H   0  0  0  0  0  0  0  0  0  0  0  0
    6.3477    0.0417    0.0000 H   0  0  0  0  0  0  0  0  0  0  0  0
    5.8144    0.6340    0.0000 H   0  0  0  0  0  0  0  0  0  0  0  0
    3.7428   -0.8875    0.0000 H   0  0  0  0  0  0  0  0  0  0  0  0
    4.5224   -0.7218    0.0000 H   0  0  0  0  0  0  0  0  0  0  0  0
    3.3739    0.5164    0.0000 H   0  0  0  0  0  0  0  0  0  0  0  0
    2.5942    0.3507    0.0000 H   0  0  0  0  0  0  0  0  0  0  0  0
    3.6734    3.0689    0.0000 H   0  0  0  0  0  0  0  0  0  0  0  0
    4.6502   -1.6364    0.0000 H   0  0  0  0  0  0  0  0  0  0  0  0
    1.9446    3.0689    0.0000 H   0  0  0  0  0  0  0  0  0  0  0  0
    5.5147   -3.1337    0.0000 H   0  0  0  0  0  0  0  0  0  0  0  0
    1.4103    1.4246    0.0000 H   0  0  0  0  0  0  0  0  0  0  0  0
    7.2057   -2.7742    0.0000 H   0  0  0  0  0  0  0  0  0  0  0  0
  1 10  1  0  0  0  0
  2  8  1  0  0  0  0
  2 15  1  0  0  0  0
  3  9  1  0  0  0  0
  3 16  1  0  0  0  0
  4  5  1  0  0  0  0
  4  6  1  0  0  0  0
  4  7  1  0  0  0  0
  5  8  1  0  0  0  0
  5 17  1  0  0  0  0
  5 18  1  0  0  0  0
  6  9  1  0  0  0  0
  6 19  1  0  0  0  0
  6 20  1  0  0  0  0
  7 10  1  0  0  0  0
  7 21  1  0  0  0  0
  7 22  1  0  0  0  0
  8 11  2  0  0  0  0
  9 12  2  0  0  0  0
 10 23  1  0  0  0  0
 10 24  1  0  0  0  0
 11 13  1  0  0  0  0
 11 25  1  0  0  0  0
 12 14  1  0  0  0  0
 12 26  1  0  0  0  0
 13 15  2  0  0  0  0
 13 27  1  0  0  0  0
 14 16  2  0  0  0  0
 14 28  1  0  0  0  0
 15 29  1  0  0  0  0
 16 30  1  0  0  0  0
M  END
> <PUBCHEM_COMPOUND_CID>
9372

> <PUBCHEM_COMPOUND_CANONICALIZED>
1

> <PUBCHEM_CACTVS_COMPLEXITY>
186

> <PUBCHEM_CACTVS_HBOND_ACCEPTOR>
3

> <PUBCHEM_CACTVS_HBOND_DONOR>
0

> <PUBCHEM_CACTVS_ROTATABLE_BOND>
6

> <PUBCHEM_CACTVS_SUBSKEYS>
AAADccByMAAEAAAAAAAAAAAAAAAAASJAAAAAAAAAAAAAAAAB4AAAHgIAAAAACAfhkEYwBIMABECIAKhSgACCCAAkIAAIiAGODMgOJjKEtTvHGSjkwBGYqYaYEQIAAAAAAAAAAAAAAAAAAAAAAAAAAAAAAA==

> <PUBCHEM_IUPAC_OPENEYE_NAME>
2-chloro-N,N-bis(2-furylmethyl)ethanamine

> <PUBCHEM_IUPAC_CAS_NAME>
2-chloro-N,N-bis(2-furanylmethyl)ethanamine

> <PUBCHEM_IUPAC_NAME>
2-chloro-N,N-bis(furan-2-ylmethyl)ethanamine

> <PUBCHEM_IUPAC_SYSTEMATIC_NAME>
2-chloranyl-N,N-bis(furan-2-ylmethyl)ethanamine

> <PUBCHEM_IUPAC_TRADITIONAL_NAME>
2-chloroethyl-bis(2-furfuryl)amine

> <PUBCHEM_IUPAC_INCHI>
InChI=1S/C12H14ClNO2/c13-5-6-14(9-11-3-1-7-15-11)10-12-4-2-8-16-12/h1-4,7-8H,5-6,9-10H2

> <PUBCHEM_IUPAC_INCHIKEY>
RCBYQFCNGPNHTE-UHFFFAOYSA-N

> <PUBCHEM_XLOGP3_AA>
2

> <PUBCHEM_EXACT_MASS>
239.071306

> <PUBCHEM_MOLECULAR_FORMULA>
C12H14ClNO2

> <PUBCHEM_MOLECULAR_WEIGHT>
239.69806

> <PUBCHEM_OPENEYE_CAN_SMILES>
C1=COC(=C1)CN(CCCl)CC2=CC=CO2

> <PUBCHEM_OPENEYE_ISO_SMILES>
C1=COC(=C1)CN(CCCl)CC2=CC=CO2

> <PUBCHEM_CACTVS_TPSA>
29.5

> <PUBCHEM_MONOISOTOPIC_WEIGHT>
239.071306

> <PUBCHEM_TOTAL_CHARGE>
0

> <PUBCHEM_HEAVY_ATOM_COUNT>
16

> <PUBCHEM_ATOM_DEF_STEREO_COUNT>
0

> <PUBCHEM_ATOM_UDEF_STEREO_COUNT>
0

> <PUBCHEM_BOND_DEF_STEREO_COUNT>
0

> <PUBCHEM_BOND_UDEF_STEREO_COUNT>
0

> <PUBCHEM_ISOTOPIC_ATOM_COUNT>
0

> <PUBCHEM_COMPONENT_COUNT>
1

> <PUBCHEM_CACTVS_TAUTO_COUNT>
1

> <PUBCHEM_COORDINATE_TYPE>
1
5
255

> <PUBCHEM_BONDANNOTATIONS>
11  13  8
12  14  8
13  15  8
14  16  8
2  15  8
2  8  8
3  16  8
3  9  8
8  11  8
9  12  8

$$$$

