583018
  -OEChem-06241222443D

 33 34  0     0  0  0  0  0  0999 V2000
    0.4049    1.8583   -0.1693 O   0  0  0  0  0  0  0  0  0  0  0  0
    1.3047   -0.3018    0.0216 N   0  0  0  0  0  0  0  0  0  0  0  0
    2.7015   -0.0662    0.0098 C   0  0  0  0  0  0  0  0  0  0  0  0
    4.9454   -0.9065    0.0950 C   0  0  0  0  0  0  0  0  0  0  0  0
    3.5702   -1.1398    0.1067 C   0  0  0  0  0  0  0  0  0  0  0  0
    3.1662    1.2335   -0.0981 C   0  0  0  0  0  0  0  0  0  0  0  0
    5.4309    0.3967   -0.0133 C   0  0  0  0  0  0  0  0  0  0  0  0
    4.5414    1.4666   -0.1099 C   0  0  0  0  0  0  0  0  0  0  0  0
    5.8970   -2.0506    0.1978 C   0  0  0  0  0  0  0  0  0  0  0  0
   -3.5376    0.1999   -0.0262 C   0  0  0  0  0  0  0  0  0  0  0  0
    0.2903    0.6428   -0.0650 C   0  0  0  0  0  0  0  0  0  0  0  0
   -2.1841    0.7301   -0.0739 C   0  0  0  0  0  0  0  0  0  0  0  0
   -1.0539   -0.0100   -0.0175 C   0  0  0  0  0  0  0  0  0  0  0  0
   -3.7725   -1.1410   -0.3308 C   0  0  0  0  0  0  0  0  0  0  0  0
   -4.6010    1.0320    0.3242 C   0  0  0  0  0  0  0  0  0  0  0  0
   -5.0705   -1.6496   -0.2855 C   0  0  0  0  0  0  0  0  0  0  0  0
   -5.8991    0.5232    0.3697 C   0  0  0  0  0  0  0  0  0  0  0  0
   -6.1337   -0.8176    0.0649 C   0  0  0  0  0  0  0  0  0  0  0  0
    3.1903   -2.1550    0.1890 H   0  0  0  0  0  0  0  0  0  0  0  0
    2.5449    2.1130   -0.1769 H   0  0  0  0  0  0  0  0  0  0  0  0
    6.5000    0.5913   -0.0254 H   0  0  0  0  0  0  0  0  0  0  0  0
    1.0414   -1.2817    0.1036 H   0  0  0  0  0  0  0  0  0  0  0  0
    4.9208    2.4809   -0.1946 H   0  0  0  0  0  0  0  0  0  0  0  0
    6.8368   -1.7432    0.6689 H   0  0  0  0  0  0  0  0  0  0  0  0
    5.4797   -2.8562    0.8116 H   0  0  0  0  0  0  0  0  0  0  0  0
    6.1178   -2.4460   -0.7986 H   0  0  0  0  0  0  0  0  0  0  0  0
   -2.1105    1.8128   -0.1507 H   0  0  0  0  0  0  0  0  0  0  0  0
   -1.0755   -1.0890    0.0865 H   0  0  0  0  0  0  0  0  0  0  0  0
   -2.9802   -1.8214   -0.6289 H   0  0  0  0  0  0  0  0  0  0  0  0
   -4.4377    2.0794    0.5663 H   0  0  0  0  0  0  0  0  0  0  0  0
   -5.2548   -2.6923   -0.5274 H   0  0  0  0  0  0  0  0  0  0  0  0
   -6.7272    1.1708    0.6424 H   0  0  0  0  0  0  0  0  0  0  0  0
   -7.1445   -1.2134    0.0991 H   0  0  0  0  0  0  0  0  0  0  0  0
  1 11  2  0  0  0  0
  2  3  1  0  0  0  0
  2 11  1  0  0  0  0
  2 22  1  0  0  0  0
  3  5  1  0  0  0  0
  3  6  2  0  0  0  0
  4  5  2  0  0  0  0
  4  7  1  0  0  0  0
  4  9  1  0  0  0  0
  5 19  1  0  0  0  0
  6  8  1  0  0  0  0
  6 20  1  0  0  0  0
  7  8  2  0  0  0  0
  7 21  1  0  0  0  0
  8 23  1  0  0  0  0
  9 24  1  0  0  0  0
  9 25  1  0  0  0  0
  9 26  1  0  0  0  0
 10 12  1  0  0  0  0
 10 14  2  0  0  0  0
 10 15  1  0  0  0  0
 11 13  1  0  0  0  0
 12 13  2  0  0  0  0
 12 27  1  0  0  0  0
 13 28  1  0  0  0  0
 14 16  1  0  0  0  0
 14 29  1  0  0  0  0
 15 17  2  0  0  0  0
 15 30  1  0  0  0  0
 16 18  2  0  0  0  0
 16 31  1  0  0  0  0
 17 18  1  0  0  0  0
 17 32  1  0  0  0  0
 18 33  1  0  0  0  0
M  END
> <PUBCHEM_COMPOUND_CID>
583018

> <PUBCHEM_CONFORMER_RMSD>
0.6

> <PUBCHEM_CONFORMER_DIVERSEORDER>
1
10
6
7
15
13
4
3
9
8
2
5
12
14
11

> <PUBCHEM_MMFF94_PARTIAL_CHARGES>
30
1 -0.57
10 0.03
11 0.62
12 -0.18
13 -0.14
14 -0.15
15 -0.15
16 -0.15
17 -0.15
18 -0.15
19 0.15
2 -0.55
20 0.15
21 0.15
22 0.37
23 0.15
27 0.15
28 0.15
29 0.15
3 0.12
30 0.15
31 0.15
32 0.15
33 0.15
4 -0.14
5 -0.15
6 -0.15
7 -0.15
8 -0.15
9 0.14

> <PUBCHEM_EFFECTIVE_ROTOR_COUNT>
4

> <PUBCHEM_PHARMACOPHORE_FEATURES>
4
1 1 acceptor
1 2 donor
6 10 14 15 16 17 18 rings
6 3 4 5 6 7 8 rings

> <PUBCHEM_HEAVY_ATOM_COUNT>
18

> <PUBCHEM_ATOM_DEF_STEREO_COUNT>
0

> <PUBCHEM_ATOM_UDEF_STEREO_COUNT>
0

> <PUBCHEM_BOND_DEF_STEREO_COUNT>
0

> <PUBCHEM_BOND_UDEF_STEREO_COUNT>
1

> <PUBCHEM_ISOTOPIC_ATOM_COUNT>
0

> <PUBCHEM_COMPONENT_COUNT>
1

> <PUBCHEM_CACTVS_TAUTO_COUNT>
2

> <PUBCHEM_CONFORMER_ID>
0008E56A00000001

> <PUBCHEM_MMFF94_ENERGY>
54.3137

> <PUBCHEM_FEATURE_SELFOVERLAP>
20.297

> <PUBCHEM_SHAPE_FINGERPRINT>
10595046 47 18409728422171355085
11287383 113 18410855443006386432
11315181 36 18259702286003070113
11524674 6 16732702744729129495
12107183 9 17688023532553106913
12166972 35 18272646848870848372
12236239 1 18335137592161078921
12516196 113 18260831483727553152
12596602 18 17821449045066323810
12616971 3 17821738221209435996
13073987 5 18335701624293512097
13167823 11 18410014329522595255
13288520 33 18411136940169960133
13533116 47 18410856581847998794
13668630 136 17346596357689299147
13685833 64 18272646827801654571
13862211 1 18411702092735105747
1420 363 17561079207183376593
14341114 176 18410289207566728281
14461889 52 18268153046379670626
15196674 1 18410575071899639271
15348495 7 16805897198987385443
15716309 27 18407759231780610187
15788980 27 18201998832944460365
17834072 33 18408885113874515921
17844677 252 18411412934088542709
17857418 61 18409168809449603855
18222031 100 16774078475256872804
200 152 18334295357738069073
20028762 73 18336269028714257094
20645477 70 18412544340755135126
21150785 3 16630517437094920070
21267235 1 18337105761557506142
220451 1 18409160000355427439
22950370 63 18410573976677840493
23035841 295 18411136956817326307
23081809 10 18186802457077979861
23402539 116 18410577292782859829
23522609 53 18195496325209951789
23536379 177 18409166619116386521
23559900 14 18336836273792554705
239999 70 18333726936429186830
26918003 58 17894631465701526691
3004659 81 18343864433447149786
34797466 226 17023174981876575268
351380 3 18413393145966398587
4073 2 18058726897388878610
4214541 1 18409729586577023193
42788 4 18410011035403862097
4325135 7 18271805696874055548
4463277 17 18411418410377300549
465052 167 18333729131025456862
5104073 3 18261390027281594361
542803 24 17603863403780695625
559249 180 18409732889702097567
7495541 125 17894353246009554240
9971528 1 17988642969524957316
999808 66 17917136218724280635

> <PUBCHEM_SHAPE_MULTIPOLES>
359.58
17.37
1.73
0.64
4.2
0.27
0
5.16
0.92
-1.13
-0.03
0.1
0.01
-0.61

> <PUBCHEM_SHAPE_SELFOVERLAP>
765.409

> <PUBCHEM_SHAPE_VOLUME>
199.8

> <PUBCHEM_COORDINATE_TYPE>
2
5
10

$$$$

