10827
  -OEChem-06261205002D

 56 57  0     0  0  0  0  0  0999 V2000
    4.8416    0.0000    0.0000 Cl  0  0  0  0  0  0  0  0  0  0  0  0
    8.4142    9.5369    0.0000 O   0  0  0  0  0  0  0  0  0  0  0  0
    3.2181    3.5369    0.0000 O   0  0  0  0  0  0  0  0  0  0  0  0
    0.6200   11.0369    0.0000 O   0  0  0  0  0  0  0  0  0  0  0  0
    3.2181    7.5369    0.0000 N   0  0  0  0  0  0  0  0  0  0  0  0
    4.0841    9.0369    0.0000 N   0  0  0  0  0  0  0  0  0  0  0  0
    4.9501    7.5369    0.0000 N   0  0  0  0  0  0  0  0  0  0  0  0
    4.0841    8.0369    0.0000 C   0  0  0  0  0  0  0  0  0  0  0  0
    3.2181    6.5369    0.0000 C   0  0  0  0  0  0  0  0  0  0  0  0
    3.2181    9.5369    0.0000 C   0  0  0  0  0  0  0  0  0  0  0  0
    5.8162    8.0369    0.0000 C   0  0  0  0  0  0  0  0  0  0  0  0
    2.3521    6.0369    0.0000 C   0  0  0  0  0  0  0  0  0  0  0  0
    2.3521    9.0369    0.0000 C   0  0  0  0  0  0  0  0  0  0  0  0
    4.0841    6.0369    0.0000 C   0  0  0  0  0  0  0  0  0  0  0  0
    3.2181   10.5369    0.0000 C   0  0  0  0  0  0  0  0  0  0  0  0
    7.5482    9.0369    0.0000 C   0  0  0  0  0  0  0  0  0  0  0  0
    5.8162    9.0369    0.0000 C   0  0  0  0  0  0  0  0  0  0  0  0
    6.6822    7.5369    0.0000 C   0  0  0  0  0  0  0  0  0  0  0  0
    1.4860   10.5369    0.0000 C   0  0  0  0  0  0  0  0  0  0  0  0
    3.2181    4.5369    0.0000 C   0  0  0  0  0  0  0  0  0  0  0  0
    2.3521    5.0369    0.0000 C   0  0  0  0  0  0  0  0  0  0  0  0
    1.4860    9.5369    0.0000 C   0  0  0  0  0  0  0  0  0  0  0  0
    4.0841    5.0369    0.0000 C   0  0  0  0  0  0  0  0  0  0  0  0
    2.3521   11.0369    0.0000 C   0  0  0  0  0  0  0  0  0  0  0  0
    6.6822    9.5369    0.0000 C   0  0  0  0  0  0  0  0  0  0  0  0
    7.5482    8.0369    0.0000 C   0  0  0  0  0  0  0  0  0  0  0  0
    9.2802    9.0369    0.0000 C   0  0  0  0  0  0  0  0  0  0  0  0
   10.1463    9.5369    0.0000 C   0  0  0  0  0  0  0  0  0  0  0  0
    2.3521    3.0369    0.0000 C   0  0  0  0  0  0  0  0  0  0  0  0
    0.6200   12.0369    0.0000 C   0  0  0  0  0  0  0  0  0  0  0  0
    2.6811    7.8469    0.0000 H   0  0  0  0  0  0  0  0  0  0  0  0
    4.6210    9.3469    0.0000 H   0  0  0  0  0  0  0  0  0  0  0  0
    1.8151    6.3469    0.0000 H   0  0  0  0  0  0  0  0  0  0  0  0
    2.3521    8.4169    0.0000 H   0  0  0  0  0  0  0  0  0  0  0  0
    4.6210    6.3469    0.0000 H   0  0  0  0  0  0  0  0  0  0  0  0
    3.7550   10.8469    0.0000 H   0  0  0  0  0  0  0  0  0  0  0  0
    5.2792    9.3469    0.0000 H   0  0  0  0  0  0  0  0  0  0  0  0
    6.6822    6.9169    0.0000 H   0  0  0  0  0  0  0  0  0  0  0  0
    1.8151    4.7269    0.0000 H   0  0  0  0  0  0  0  0  0  0  0  0
    0.9491    9.2269    0.0000 H   0  0  0  0  0  0  0  0  0  0  0  0
    4.6210    4.7269    0.0000 H   0  0  0  0  0  0  0  0  0  0  0  0
    2.3521   11.6569    0.0000 H   0  0  0  0  0  0  0  0  0  0  0  0
    6.6822   10.1569    0.0000 H   0  0  0  0  0  0  0  0  0  0  0  0
    8.0851    7.7269    0.0000 H   0  0  0  0  0  0  0  0  0  0  0  0
    8.8817    8.5620    0.0000 H   0  0  0  0  0  0  0  0  0  0  0  0
    9.6788    8.5620    0.0000 H   0  0  0  0  0  0  0  0  0  0  0  0
   10.4563    9.0000    0.0000 H   0  0  0  0  0  0  0  0  0  0  0  0
   10.6832    9.8469    0.0000 H   0  0  0  0  0  0  0  0  0  0  0  0
    9.8363   10.0739    0.0000 H   0  0  0  0  0  0  0  0  0  0  0  0
    2.0420    3.5739    0.0000 H   0  0  0  0  0  0  0  0  0  0  0  0
    1.8151    2.7269    0.0000 H   0  0  0  0  0  0  0  0  0  0  0  0
    2.6620    2.5000    0.0000 H   0  0  0  0  0  0  0  0  0  0  0  0
    1.2400   12.0369    0.0000 H   0  0  0  0  0  0  0  0  0  0  0  0
    0.6200   12.6569    0.0000 H   0  0  0  0  0  0  0  0  0  0  0  0
    0.0000   12.0369    0.0000 H   0  0  0  0  0  0  0  0  0  0  0  0
    5.8416    0.0000    0.0000 H   0  0  0  0  0  0  0  0  0  0  0  0
  1 56  1  0  0  0  0
  2 16  1  0  0  0  0
  2 27  1  0  0  0  0
  3 20  1  0  0  0  0
  3 29  1  0  0  0  0
  4 19  1  0  0  0  0
  4 30  1  0  0  0  0
  5  8  1  0  0  0  0
  5  9  1  0  0  0  0
  5 31  1  0  0  0  0
  6  8  1  0  0  0  0
  6 10  1  0  0  0  0
  6 32  1  0  0  0  0
  7  8  2  0  0  0  0
  7 11  1  0  0  0  0
  9 12  2  0  0  0  0
  9 14  1  0  0  0  0
 10 13  2  0  0  0  0
 10 15  1  0  0  0  0
 11 17  2  0  0  0  0
 11 18  1  0  0  0  0
 12 21  1  0  0  0  0
 12 33  1  0  0  0  0
 13 22  1  0  0  0  0
 13 34  1  0  0  0  0
 14 23  2  0  0  0  0
 14 35  1  0  0  0  0
 15 24  2  0  0  0  0
 15 36  1  0  0  0  0
 16 25  2  0  0  0  0
 16 26  1  0  0  0  0
 17 25  1  0  0  0  0
 17 37  1  0  0  0  0
 18 26  2  0  0  0  0
 18 38  1  0  0  0  0
 19 22  2  0  0  0  0
 19 24  1  0  0  0  0
 20 21  2  0  0  0  0
 20 23  1  0  0  0  0
 21 39  1  0  0  0  0
 22 40  1  0  0  0  0
 23 41  1  0  0  0  0
 24 42  1  0  0  0  0
 25 43  1  0  0  0  0
 26 44  1  0  0  0  0
 27 28  1  0  0  0  0
 27 45  1  0  0  0  0
 27 46  1  0  0  0  0
 28 47  1  0  0  0  0
 28 48  1  0  0  0  0
 28 49  1  0  0  0  0
 29 50  1  0  0  0  0
 29 51  1  0  0  0  0
 29 52  1  0  0  0  0
 30 53  1  0  0  0  0
 30 54  1  0  0  0  0
 30 55  1  0  0  0  0
M  END
> <PUBCHEM_COMPOUND_CID>
10827

> <PUBCHEM_COMPOUND_CANONICALIZED>
1

> <PUBCHEM_CACTVS_COMPLEXITY>
450

> <PUBCHEM_CACTVS_HBOND_ACCEPTOR>
4

> <PUBCHEM_CACTVS_HBOND_DONOR>
3

> <PUBCHEM_CACTVS_ROTATABLE_BOND>
9

> <PUBCHEM_CACTVS_SUBSKEYS>
AAADceB7MAAEAAAAAAAAAAAAAAAAAAAAAAAwYMAAAAAAAAABUAAAHgAQAAAACAyhkAIzxoLABACgACRCZACCCAEhIgAJiAAGbIiMJiLEuZuGOCjs0BNI6CewQAAAAEAAAAAAAAAAgAAAAAAAAAAAAAAAAA==

> <PUBCHEM_IUPAC_OPENEYE_NAME>
2-(4-ethoxyphenyl)-1,3-bis(4-methoxyphenyl)guanidine hydrochloride

> <PUBCHEM_IUPAC_CAS_NAME>
2-(4-ethoxyphenyl)-1,3-bis(4-methoxyphenyl)guanidine hydrochloride

> <PUBCHEM_IUPAC_NAME>
2-(4-ethoxyphenyl)-1,3-bis(4-methoxyphenyl)guanidine hydrochloride

> <PUBCHEM_IUPAC_SYSTEMATIC_NAME>
2-(4-ethoxyphenyl)-1,3-bis(4-methoxyphenyl)guanidine hydrochloride

> <PUBCHEM_IUPAC_TRADITIONAL_NAME>
1,3-bis(4-methoxyphenyl)-2-p-phenetyl-guanidine hydrochloride

> <PUBCHEM_IUPAC_INCHI>
InChI=1S/C23H25N3O3.ClH/c1-4-29-22-15-9-19(10-16-22)26-23(24-17-5-11-20(27-2)12-6-17)25-18-7-13-21(28-3)14-8-18;/h5-16H,4H2,1-3H3,(H2,24,25,26);1H

> <PUBCHEM_IUPAC_INCHIKEY>
ZQWBGSZBBGYKNV-UHFFFAOYSA-N

> <PUBCHEM_EXACT_MASS>
427.166269

> <PUBCHEM_MOLECULAR_FORMULA>
C23H26ClN3O3

> <PUBCHEM_MOLECULAR_WEIGHT>
427.92384

> <PUBCHEM_OPENEYE_CAN_SMILES>
CCOC1=CC=C(C=C1)N=C(NC2=CC=C(C=C2)OC)NC3=CC=C(C=C3)OC.Cl

> <PUBCHEM_OPENEYE_ISO_SMILES>
CCOC1=CC=C(C=C1)N=C(NC2=CC=C(C=C2)OC)NC3=CC=C(C=C3)OC.Cl

> <PUBCHEM_CACTVS_TPSA>
64.1

> <PUBCHEM_MONOISOTOPIC_WEIGHT>
427.166269

> <PUBCHEM_TOTAL_CHARGE>
0

> <PUBCHEM_HEAVY_ATOM_COUNT>
30

> <PUBCHEM_ATOM_DEF_STEREO_COUNT>
0

> <PUBCHEM_ATOM_UDEF_STEREO_COUNT>
0

> <PUBCHEM_BOND_DEF_STEREO_COUNT>
0

> <PUBCHEM_BOND_UDEF_STEREO_COUNT>
0

> <PUBCHEM_ISOTOPIC_ATOM_COUNT>
0

> <PUBCHEM_COMPONENT_COUNT>
2

> <PUBCHEM_CACTVS_TAUTO_COUNT>
2

> <PUBCHEM_COORDINATE_TYPE>
1
5
255

> <PUBCHEM_BONDANNOTATIONS>
10  13  8
10  15  8
11  17  8
11  18  8
12  21  8
13  22  8
14  23  8
15  24  8
16  25  8
16  26  8
17  25  8
18  26  8
19  22  8
19  24  8
20  21  8
20  23  8
9  12  8
9  14  8

$$$$

