11314
  -OEChem-06261205313D

 70 75  0     0  0  0  0  0  0999 V2000
   -9.5449    2.6445   -0.6709 S   0  0  0  0  0  0  0  0  0  0  0  0
    9.5455    2.6445    0.6710 S   0  0  0  0  0  0  0  0  0  0  0  0
  -10.3630    3.1696    0.6400 O   0  0  0  0  0  0  0  0  0  0  0  0
   10.3636    3.1695   -0.6400 O   0  0  0  0  0  0  0  0  0  0  0  0
   -8.4521    3.5734   -0.8980 O   0  0  0  0  0  0  0  0  0  0  0  0
  -10.5030    2.3424   -1.7183 O   0  0  0  0  0  0  0  0  0  0  0  0
    8.4527    3.5733    0.8980 O   0  0  0  0  0  0  0  0  0  0  0  0
   10.5035    2.3424    1.7183 O   0  0  0  0  0  0  0  0  0  0  0  0
   -6.8985   -2.4316    0.9960 N   0  0  0  0  0  0  0  0  0  0  0  0
    6.8991   -2.4316   -0.9959 N   0  0  0  0  0  0  0  0  0  0  0  0
   -5.4326   -0.0951    0.5315 N   0  0  0  0  0  0  0  0  0  0  0  0
    5.4331   -0.0950   -0.5315 N   0  0  0  0  0  0  0  0  0  0  0  0
   -4.8820   -0.3996   -0.5513 N   0  0  0  0  0  0  0  0  0  0  0  0
    4.8793   -0.3996    0.5510 N   0  0  0  0  0  0  0  0  0  0  0  0
   -9.6142   -0.0418    0.0458 C   0  0  0  0  0  0  0  0  0  0  0  0
    9.6147   -0.0419   -0.0457 C   0  0  0  0  0  0  0  0  0  0  0  0
   -8.9712   -1.2390    0.4411 C   0  0  0  0  0  0  0  0  0  0  0  0
    8.9718   -1.2391   -0.4411 C   0  0  0  0  0  0  0  0  0  0  0  0
   -8.8429    1.1103   -0.1784 C   0  0  0  0  0  0  0  0  0  0  0  0
    8.8435    1.1102    0.1784 C   0  0  0  0  0  0  0  0  0  0  0  0
   -7.5760   -1.2489    0.6006 C   0  0  0  0  0  0  0  0  0  0  0  0
    7.5765   -1.2489   -0.6005 C   0  0  0  0  0  0  0  0  0  0  0  0
   -6.8254   -0.0950    0.3737 C   0  0  0  0  0  0  0  0  0  0  0  0
    6.8296   -0.0950   -0.3732 C   0  0  0  0  0  0  0  0  0  0  0  0
   -7.4576    1.0823   -0.0151 C   0  0  0  0  0  0  0  0  0  0  0  0
    7.4582    1.0823    0.0152 C   0  0  0  0  0  0  0  0  0  0  0  0
  -11.0095   -0.0320   -0.1138 C   0  0  0  0  0  0  0  0  0  0  0  0
   11.0100   -0.0321    0.1139 C   0  0  0  0  0  0  0  0  0  0  0  0
   -9.7425   -2.3910    0.6652 C   0  0  0  0  0  0  0  0  0  0  0  0
    9.7430   -2.3911   -0.6651 C   0  0  0  0  0  0  0  0  0  0  0  0
  -11.7600   -1.1859    0.1131 C   0  0  0  0  0  0  0  0  0  0  0  0
   11.7606   -1.1860   -0.1131 C   0  0  0  0  0  0  0  0  0  0  0  0
  -11.1278   -2.3632    0.5019 C   0  0  0  0  0  0  0  0  0  0  0  0
   11.1283   -2.3633   -0.5018 C   0  0  0  0  0  0  0  0  0  0  0  0
   -0.7202   -0.4001   -0.0814 C   0  0  0  0  0  0  0  0  0  0  0  0
    0.7174   -0.4001    0.0810 C   0  0  0  0  0  0  0  0  0  0  0  0
   -3.4855   -0.3996   -0.3935 C   0  0  0  0  0  0  0  0  0  0  0  0
    3.4896   -0.3997    0.3940 C   0  0  0  0  0  0  0  0  0  0  0  0
   -1.4484   -1.5668    0.1510 C   0  0  0  0  0  0  0  0  0  0  0  0
    1.4455   -1.5667   -0.1513 C   0  0  0  0  0  0  0  0  0  0  0  0
   -1.3780    0.7670   -0.4702 C   0  0  0  0  0  0  0  0  0  0  0  0
    1.3752    0.7670    0.4699 C   0  0  0  0  0  0  0  0  0  0  0  0
   -2.8344   -1.5666   -0.0056 C   0  0  0  0  0  0  0  0  0  0  0  0
    2.8316   -1.5667    0.0053 C   0  0  0  0  0  0  0  0  0  0  0  0
   -2.7641    0.7672   -0.6267 C   0  0  0  0  0  0  0  0  0  0  0  0
    2.7613    0.7672    0.6263 C   0  0  0  0  0  0  0  0  0  0  0  0
   -6.8445    1.9642   -0.1792 H   0  0  0  0  0  0  0  0  0  0  0  0
    6.8447    1.9637    0.1793 H   0  0  0  0  0  0  0  0  0  0  0  0
  -11.5822    0.8520   -0.3645 H   0  0  0  0  0  0  0  0  0  0  0  0
   11.5827    0.8519    0.3646 H   0  0  0  0  0  0  0  0  0  0  0  0
   -9.3109   -3.3390    0.9703 H   0  0  0  0  0  0  0  0  0  0  0  0
    9.3114   -3.3390   -0.9703 H   0  0  0  0  0  0  0  0  0  0  0  0
  -12.8399   -1.1631   -0.0026 H   0  0  0  0  0  0  0  0  0  0  0  0
   12.8404   -1.1632    0.0026 H   0  0  0  0  0  0  0  0  0  0  0  0
  -11.7138   -3.2602    0.6808 H   0  0  0  0  0  0  0  0  0  0  0  0
   11.7143   -3.2601   -0.6808 H   0  0  0  0  0  0  0  0  0  0  0  0
   -5.8921   -2.4020    1.1011 H   0  0  0  0  0  0  0  0  0  0  0  0
   -7.3778   -3.3001    1.1744 H   0  0  0  0  0  0  0  0  0  0  0  0
    5.8926   -2.4020   -1.1006 H   0  0  0  0  0  0  0  0  0  0  0  0
    7.3782   -3.3003   -1.1735 H   0  0  0  0  0  0  0  0  0  0  0  0
   -0.9836   -2.4905    0.4846 H   0  0  0  0  0  0  0  0  0  0  0  0
    0.9808   -2.4904   -0.4849 H   0  0  0  0  0  0  0  0  0  0  0  0
   -0.8503    1.6905   -0.6921 H   0  0  0  0  0  0  0  0  0  0  0  0
    0.8475    1.6904    0.6917 H   0  0  0  0  0  0  0  0  0  0  0  0
   -3.3951   -2.4783    0.1828 H   0  0  0  0  0  0  0  0  0  0  0  0
    3.3913   -2.4792   -0.1835 H   0  0  0  0  0  0  0  0  0  0  0  0
   -3.2686    1.6783   -0.9370 H   0  0  0  0  0  0  0  0  0  0  0  0
    3.2648    1.6793    0.9367 H   0  0  0  0  0  0  0  0  0  0  0  0
   -9.8153    3.3342    1.4432 H   0  0  0  0  0  0  0  0  0  0  0  0
    9.8159    3.3342   -1.4432 H   0  0  0  0  0  0  0  0  0  0  0  0
  1  3  1  0  0  0  0
  1  5  2  0  0  0  0
  1  6  2  0  0  0  0
  1 19  1  0  0  0  0
  2  4  1  0  0  0  0
  2  7  2  0  0  0  0
  2  8  2  0  0  0  0
  2 20  1  0  0  0  0
  3 69  1  0  0  0  0
  4 70  1  0  0  0  0
  9 21  1  0  0  0  0
  9 57  1  0  0  0  0
  9 58  1  0  0  0  0
 10 22  1  0  0  0  0
 10 59  1  0  0  0  0
 10 60  1  0  0  0  0
 11 13  2  0  0  0  0
 11 23  1  0  0  0  0
 12 14  2  0  0  0  0
 12 24  1  0  0  0  0
 13 37  1  0  0  0  0
 14 38  1  0  0  0  0
 15 17  1  0  0  0  0
 15 19  1  0  0  0  0
 15 27  2  0  0  0  0
 16 18  1  0  0  0  0
 16 20  1  0  0  0  0
 16 28  2  0  0  0  0
 17 21  1  0  0  0  0
 17 29  2  0  0  0  0
 18 22  1  0  0  0  0
 18 30  2  0  0  0  0
 19 25  2  0  0  0  0
 20 26  2  0  0  0  0
 21 23  2  0  0  0  0
 22 24  2  0  0  0  0
 23 25  1  0  0  0  0
 24 26  1  0  0  0  0
 25 47  1  0  0  0  0
 26 48  1  0  0  0  0
 27 31  1  0  0  0  0
 27 49  1  0  0  0  0
 28 32  1  0  0  0  0
 28 50  1  0  0  0  0
 29 33  1  0  0  0  0
 29 51  1  0  0  0  0
 30 34  1  0  0  0  0
 30 52  1  0  0  0  0
 31 33  2  0  0  0  0
 31 53  1  0  0  0  0
 32 34  2  0  0  0  0
 32 54  1  0  0  0  0
 33 55  1  0  0  0  0
 34 56  1  0  0  0  0
 35 36  1  0  0  0  0
 35 39  2  0  0  0  0
 35 41  1  0  0  0  0
 36 40  2  0  0  0  0
 36 42  1  0  0  0  0
 37 43  2  0  0  0  0
 37 45  1  0  0  0  0
 38 44  2  0  0  0  0
 38 46  1  0  0  0  0
 39 43  1  0  0  0  0
 39 61  1  0  0  0  0
 40 44  1  0  0  0  0
 40 62  1  0  0  0  0
 41 45  2  0  0  0  0
 41 63  1  0  0  0  0
 42 46  2  0  0  0  0
 42 64  1  0  0  0  0
 43 65  1  0  0  0  0
 44 66  1  0  0  0  0
 45 67  1  0  0  0  0
 46 68  1  0  0  0  0
M  END
> <PUBCHEM_COMPOUND_CID>
11314

> <PUBCHEM_CONFORMER_RMSD>
1

> <PUBCHEM_CONFORMER_DIVERSEORDER>
1
8
9
3
6
4
7
10
5
2

> <PUBCHEM_MMFF94_PARTIAL_CHARGES>
64
1 1.49
10 -0.9
11 -0.18
12 -0.18
13 -0.18
14 -0.18
19 -0.01
2 1.49
20 -0.01
21 0.1
22 0.1
23 0.18
24 0.18
25 -0.15
26 -0.15
27 -0.15
28 -0.15
29 -0.15
3 -0.68
30 -0.15
31 -0.15
32 -0.15
33 -0.15
34 -0.15
37 0.18
38 0.18
39 -0.15
4 -0.68
40 -0.15
41 -0.15
42 -0.15
43 -0.15
44 -0.15
45 -0.15
46 -0.15
47 0.15
48 0.15
49 0.15
5 -0.65
50 0.15
51 0.15
52 0.15
53 0.15
54 0.15
55 0.15
56 0.15
57 0.4
58 0.4
59 0.4
6 -0.65
60 0.4
61 0.15
62 0.15
63 0.15
64 0.15
65 0.15
66 0.15
67 0.15
68 0.15
69 0.5
7 -0.65
70 0.5
8 -0.65
9 -0.9

> <PUBCHEM_EFFECTIVE_ROTOR_COUNT>
7

> <PUBCHEM_PHARMACOPHORE_FEATURES>
18
1 10 cation
1 10 donor
1 3 acceptor
1 4 acceptor
1 5 acceptor
1 6 acceptor
1 7 acceptor
1 8 acceptor
1 9 cation
1 9 donor
4 1 3 5 6 anion
4 2 4 7 8 anion
6 15 17 19 21 23 25 rings
6 15 17 27 29 31 33 rings
6 16 18 20 22 24 26 rings
6 16 18 28 30 32 34 rings
6 35 37 39 41 43 45 rings
6 36 38 40 42 44 46 rings

> <PUBCHEM_HEAVY_ATOM_COUNT>
46

> <PUBCHEM_ATOM_DEF_STEREO_COUNT>
0

> <PUBCHEM_ATOM_UDEF_STEREO_COUNT>
0

> <PUBCHEM_BOND_DEF_STEREO_COUNT>
0

> <PUBCHEM_BOND_UDEF_STEREO_COUNT>
0

> <PUBCHEM_ISOTOPIC_ATOM_COUNT>
0

> <PUBCHEM_COMPONENT_COUNT>
1

> <PUBCHEM_CACTVS_TAUTO_COUNT>
1

> <PUBCHEM_CONFORMER_ID>
00002C3200000001

> <PUBCHEM_MMFF94_ENERGY>
168.0781

> <PUBCHEM_FEATURE_SELFOVERLAP>
91.506

> <PUBCHEM_SHAPE_FINGERPRINT>
10580692 12 18410854361592837451
11061554 47 18059861661987128165
11966995 178 18273216414059940066
12013929 2 18412825802256126403
12013929 94 18341048541862912139
12559415 86 18260539056811071428
12559415 90 18407761451598402280
12728209 37 18412262839770958944
131240 100 18410012121920058945
13740195 50 18411698768767873075
13947934 56 18408884053128578056
13947947 74 18060699506858440730
14251764 46 18411417310570429542
14344974 52 18408323259137885123
15061470 23 18412826898111038260
15065858 18 18410577283686366950
15289351 153 18040437719682847633
15347591 1 17842566411413099751
15510794 2 18410570686617119979
15530121 191 18335147483830484673
15840311 113 18272366439720909836
15890870 6 18334857220928328823
16728433 110 18409167693032303068
20105231 36 18410854360617196611
21362267 2 18115040627690481432
21362267 313 18129105683453151898
21792934 111 18113905962471675512
21792961 116 18040716983663646755
232437 2 18410572885640369026
3092352 35 17989205940768838947
54131252 152 17749114396670603815
67123 10 18410854356633153907

> <PUBCHEM_SHAPE_MULTIPOLES>
889.26
61.36
3.27
0.92
0.06
2.26
0
6.91
0
0
0
0
0.28
5.16

> <PUBCHEM_SHAPE_SELFOVERLAP>
1974.02

> <PUBCHEM_SHAPE_VOLUME>
474.4

> <PUBCHEM_COORDINATE_TYPE>
2
5
10

$$$$

