47205506
  -OEChem-06241222593D

 43 43  0     1  0  0  0  0  0999 V2000
   -0.0604   -3.0201   -1.4929 O   0  0  0  0  0  0  0  0  0  0  0  0
   -2.4241   -2.4021   -0.0535 O   0  0  0  0  0  0  0  0  0  0  0  0
   -3.6627    2.4696    0.0681 O   0  0  0  0  0  0  0  0  0  0  0  0
    0.7972   -1.8262    0.3376 N   0  0  0  0  0  0  0  0  0  0  0  0
   -1.4580   -0.2588   -0.3452 N   0  0  0  0  0  0  0  0  0  0  0  0
   -2.3967    1.9657   -0.2044 N   0  0  0  0  0  0  0  0  0  0  0  0
    3.0285    0.1362    0.0341 C   0  0  0  0  0  0  0  0  0  0  0  0
    4.0207    1.1702    0.5774 C   0  0  0  0  0  0  0  0  0  0  0  0
    3.1350   -1.1882    0.8019 C   0  0  0  0  0  0  0  0  0  0  0  0
    3.9108    2.5454   -0.1073 C   0  0  0  0  0  0  0  0  0  0  0  0
    2.1729   -2.2648    0.2756 C   0  0  1  0  0  0  0  0  0  0  0  0
    4.8928    3.5261    0.5385 C   0  0  0  0  0  0  0  0  0  0  0  0
    4.1710    2.4721   -1.6127 C   0  0  0  0  0  0  0  0  0  0  0  0
    2.3376   -3.5594    1.0685 C   0  0  0  0  0  0  0  0  0  0  0  0
   -0.1634   -2.2511   -0.5506 C   0  0  0  0  0  0  0  0  0  0  0  0
   -1.5051   -1.6355   -0.2888 C   0  0  0  0  0  0  0  0  0  0  0  0
   -2.5296    0.6383   -0.1300 C   0  0  0  0  0  0  0  0  0  0  0  0
   -3.8439    0.2503    0.1831 C   0  0  0  0  0  0  0  0  0  0  0  0
   -4.5157    1.4386    0.2972 C   0  0  0  0  0  0  0  0  0  0  0  0
   -5.9069    1.7938    0.6033 C   0  0  0  0  0  0  0  0  0  0  0  0
    2.0126    0.5399    0.1115 H   0  0  0  0  0  0  0  0  0  0  0  0
    3.2250   -0.0589   -1.0256 H   0  0  0  0  0  0  0  0  0  0  0  0
    5.0419    0.7838    0.4650 H   0  0  0  0  0  0  0  0  0  0  0  0
    3.8490    1.2956    1.6542 H   0  0  0  0  0  0  0  0  0  0  0  0
    2.9293   -0.9995    1.8637 H   0  0  0  0  0  0  0  0  0  0  0  0
    4.1650   -1.5610    0.7377 H   0  0  0  0  0  0  0  0  0  0  0  0
    2.8959    2.9336    0.0463 H   0  0  0  0  0  0  0  0  0  0  0  0
    2.4146   -2.4740   -0.7741 H   0  0  0  0  0  0  0  0  0  0  0  0
    5.1384    2.0053   -1.8264 H   0  0  0  0  0  0  0  0  0  0  0  0
    3.3926    1.8991   -2.1255 H   0  0  0  0  0  0  0  0  0  0  0  0
    4.1750    3.4743   -2.0550 H   0  0  0  0  0  0  0  0  0  0  0  0
    5.9289    3.1952    0.4086 H   0  0  0  0  0  0  0  0  0  0  0  0
    4.7969    4.5226    0.0944 H   0  0  0  0  0  0  0  0  0  0  0  0
    4.6987    3.6207    1.6122 H   0  0  0  0  0  0  0  0  0  0  0  0
    2.0809   -3.4139    2.1239 H   0  0  0  0  0  0  0  0  0  0  0  0
    1.6826   -4.3452    0.6764 H   0  0  0  0  0  0  0  0  0  0  0  0
    3.3688   -3.9233    1.0142 H   0  0  0  0  0  0  0  0  0  0  0  0
    0.5249   -1.2121    1.1002 H   0  0  0  0  0  0  0  0  0  0  0  0
   -0.5738    0.1956   -0.5594 H   0  0  0  0  0  0  0  0  0  0  0  0
   -4.2667   -0.7344    0.3123 H   0  0  0  0  0  0  0  0  0  0  0  0
   -5.9568    2.4123    1.5048 H   0  0  0  0  0  0  0  0  0  0  0  0
   -6.3518    2.3549   -0.2241 H   0  0  0  0  0  0  0  0  0  0  0  0
   -6.5151    0.8996    0.7720 H   0  0  0  0  0  0  0  0  0  0  0  0
  1 15  2  0  0  0  0
  2 16  2  0  0  0  0
  3  6  1  0  0  0  0
  3 19  1  0  0  0  0
  4 11  1  0  0  0  0
  4 15  1  0  0  0  0
  4 38  1  0  0  0  0
  5 16  1  0  0  0  0
  5 17  1  0  0  0  0
  5 39  1  0  0  0  0
  6 17  2  0  0  0  0
  7  8  1  0  0  0  0
  7  9  1  0  0  0  0
  7 21  1  0  0  0  0
  7 22  1  0  0  0  0
  8 10  1  0  0  0  0
  8 23  1  0  0  0  0
  8 24  1  0  0  0  0
  9 11  1  0  0  0  0
  9 25  1  0  0  0  0
  9 26  1  0  0  0  0
 10 12  1  0  0  0  0
 10 13  1  0  0  0  0
 10 27  1  0  0  0  0
 11 14  1  0  0  0  0
 11 28  1  0  0  0  0
 12 32  1  0  0  0  0
 12 33  1  0  0  0  0
 12 34  1  0  0  0  0
 13 29  1  0  0  0  0
 13 30  1  0  0  0  0
 13 31  1  0  0  0  0
 14 35  1  0  0  0  0
 14 36  1  0  0  0  0
 14 37  1  0  0  0  0
 15 16  1  0  0  0  0
 17 18  1  0  0  0  0
 18 19  2  0  0  0  0
 18 40  1  0  0  0  0
 19 20  1  0  0  0  0
 20 41  1  0  0  0  0
 20 42  1  0  0  0  0
 20 43  1  0  0  0  0
M  END
> <PUBCHEM_COMPOUND_CID>
47205506

> <PUBCHEM_CONFORMER_RMSD>
0.8

> <PUBCHEM_CONFORMER_DIVERSEORDER>
1
190
191
32
222
239
159
140
142
198
183
165
237
38
208
53
211
51
218
229
72
204
87
240
221
170
75
175
205
197
111
157
238
73
235
152
195
56
180
186
96
103
172
236
217
46
202
108
131
224
105
163
40
209
206
151
169
177
232
18
134
99
132
178
196
193
135
199
225
77
143
4
149
214
192
150
182
228
203
114
43
95
19
233
80
210
119
215
23
115
227
155
50
189
86
97
101
231
78
84
194
122
216
139
116
173
219
58
166
153
124
185
226
67
136
200
52
63
39
93
76
181
137
25
125
207
187
106
160
9
71
234
91
117
161
3
48
29
220
104
68
184
89
60
110
212
49
83
179
79
107
5
85
223
109
127
113
88
59
57
162
62
27
6
16
130
121
174
188
36
213
128
158
12
156
230
126
2
201
66
35
118
100
13
65
41
146
120
21
148
92
82
74
154
168
42
34
14
102
54
31
26
123
8
98
144
17
7
64
15
55
167
90
61
145
28
138
147
11
112
171
20
33
47
22
45
70
30
44
24
94
129
141
37
176
164
69
10
133
81

> <PUBCHEM_MMFF94_PARTIAL_CHARGES>
16
1 -0.57
11 0.3
15 0.63
16 0.63
17 0.35
18 -0.15
19 -0.04
2 -0.57
20 0.18
3 -0.02
38 0.37
39 0.37
4 -0.73
40 0.15
5 -0.49
6 -0.41

> <PUBCHEM_EFFECTIVE_ROTOR_COUNT>
9

> <PUBCHEM_PHARMACOPHORE_FEATURES>
7
1 1 acceptor
1 2 acceptor
1 4 donor
1 5 donor
3 10 12 13 hydrophobe
4 7 8 9 10 hydrophobe
5 3 6 17 18 19 rings

> <PUBCHEM_HEAVY_ATOM_COUNT>
20

> <PUBCHEM_ATOM_DEF_STEREO_COUNT>
0

> <PUBCHEM_ATOM_UDEF_STEREO_COUNT>
1

> <PUBCHEM_BOND_DEF_STEREO_COUNT>
0

> <PUBCHEM_BOND_UDEF_STEREO_COUNT>
0

> <PUBCHEM_ISOTOPIC_ATOM_COUNT>
0

> <PUBCHEM_COMPONENT_COUNT>
1

> <PUBCHEM_CACTVS_TAUTO_COUNT>
16

> <PUBCHEM_CONFORMER_ID>
02D04C8200000001

> <PUBCHEM_MMFF94_ENERGY>
17.1392

> <PUBCHEM_FEATURE_SELFOVERLAP>
35.554

> <PUBCHEM_SHAPE_FINGERPRINT>
10670039 82 18198056972654503060
10871710 139 18122064199902467287
10937287 8 18339362946869666960
12173636 292 18123473770232025910
12788726 201 17476904775911427356
13583140 156 17487070109061439003
14123255 52 18410293575706619968
14251764 38 18267016353035903177
14251764 75 18335973186391271441
14257110 125 18411699842372748268
14774955 27 18410860979620294133
15142526 21 18273216374186740898
151778 21 18409731789504901592
15342168 16 18409731781099336525
17810953 82 18410854407988391960
17834072 32 18409446951647880288
18785283 64 18266740366626554170
21365058 113 17755844669730071014
21864079 5 18339365163099353882
23559900 14 18043242642428000975
245318 6 18272356560315310988
38570 142 16771531865395500244
44154327 71 18409167748492467976
474 4 18272937115592301066
5048184 11 18339078186101076192
7064713 232 18270124483566403172
7288768 16 17917151568356653834
7808743 9 18264211305568029200
8199 26 18338520733779088170
9981440 41 18198911310031466346

> <PUBCHEM_SHAPE_MULTIPOLES>
379.04
11.48
4.91
1.01
5.52
1.12
-0.25
-13.91
1.81
-4.23
0.09
-0.78
0.13
-1.5

> <PUBCHEM_SHAPE_SELFOVERLAP>
750.123

> <PUBCHEM_SHAPE_VOLUME>
225.2

> <PUBCHEM_COORDINATE_TYPE>
2
5
10

$$$$

