14417
  -OEChem-06241222432D

 57 57  0     0  0  0  0  0  0999 V2000
    2.5000    5.9156    0.0000 Cl  0  5  0  0  0  0  0  0  0  0  0  0
    0.0000    5.9156    0.0000 Cl  0  5  0  0  0  0  0  0  0  0  0  0
    8.4766   12.3312    0.0000 F   0  0  0  0  0  0  0  0  0  0  0  0
    5.4766    8.8671    0.0000 O   0  0  0  0  0  0  0  0  0  0  0  0
    6.4766    5.4030    0.0000 N   0  3  0  0  0  0  0  0  0  0  0  0
    6.4766    1.4030    0.0000 N   0  3  0  0  0  0  0  0  0  0  0  0
    6.4766    3.4030    0.0000 C   0  0  0  0  0  0  0  0  0  0  0  0
    5.6106    3.9030    0.0000 C   0  0  0  0  0  0  0  0  0  0  0  0
    7.3426    3.9030    0.0000 C   0  0  0  0  0  0  0  0  0  0  0  0
    7.3426    2.9030    0.0000 C   0  0  0  0  0  0  0  0  0  0  0  0
    5.6106    2.9030    0.0000 C   0  0  0  0  0  0  0  0  0  0  0  0
    7.3426    4.9030    0.0000 C   0  0  0  0  0  0  0  0  0  0  0  0
    5.6106    4.9030    0.0000 C   0  0  0  0  0  0  0  0  0  0  0  0
    5.6106    1.9030    0.0000 C   0  0  0  0  0  0  0  0  0  0  0  0
    7.3426    1.9030    0.0000 C   0  0  0  0  0  0  0  0  0  0  0  0
    6.9766    6.2690    0.0000 C   0  0  0  0  0  0  0  0  0  0  0  0
    5.9766    0.5369    0.0000 C   0  0  0  0  0  0  0  0  0  0  0  0
    6.4766    7.1350    0.0000 C   0  0  0  0  0  0  0  0  0  0  0  0
    6.9766    8.0010    0.0000 C   0  0  0  0  0  0  0  0  0  0  0  0
    6.4766    8.8671    0.0000 C   0  0  0  0  0  0  0  0  0  0  0  0
    6.9766    9.7331    0.0000 C   0  0  0  0  0  0  0  0  0  0  0  0
    7.9766    9.7331    0.0000 C   0  0  0  0  0  0  0  0  0  0  0  0
    6.4766   10.5991    0.0000 C   0  0  0  0  0  0  0  0  0  0  0  0
    8.4766   10.5991    0.0000 C   0  0  0  0  0  0  0  0  0  0  0  0
    6.9766   11.4651    0.0000 C   0  0  0  0  0  0  0  0  0  0  0  0
    7.9766   11.4651    0.0000 C   0  0  0  0  0  0  0  0  0  0  0  0
    5.0000    4.0106    0.0000 H   0  0  0  0  0  0  0  0  0  0  0  0
    5.3985    3.3204    0.0000 H   0  0  0  0  0  0  0  0  0  0  0  0
    7.5547    3.3204    0.0000 H   0  0  0  0  0  0  0  0  0  0  0  0
    7.9532    4.0106    0.0000 H   0  0  0  0  0  0  0  0  0  0  0  0
    5.3985    3.4856    0.0000 H   0  0  0  0  0  0  0  0  0  0  0  0
    5.0000    2.7953    0.0000 H   0  0  0  0  0  0  0  0  0  0  0  0
    7.9532    2.7953    0.0000 H   0  0  0  0  0  0  0  0  0  0  0  0
    7.5547    3.4856    0.0000 H   0  0  0  0  0  0  0  0  0  0  0  0
    6.1666    5.9399    0.0000 H   0  0  0  0  0  0  0  0  0  0  0  0
    5.3985    5.4856    0.0000 H   0  0  0  0  0  0  0  0  0  0  0  0
    5.0000    4.7953    0.0000 H   0  0  0  0  0  0  0  0  0  0  0  0
    7.9532    4.7953    0.0000 H   0  0  0  0  0  0  0  0  0  0  0  0
    7.5547    5.4856    0.0000 H   0  0  0  0  0  0  0  0  0  0  0  0
    5.0000    2.0106    0.0000 H   0  0  0  0  0  0  0  0  0  0  0  0
    5.3985    1.3204    0.0000 H   0  0  0  0  0  0  0  0  0  0  0  0
    7.5547    1.3204    0.0000 H   0  0  0  0  0  0  0  0  0  0  0  0
    7.9532    2.0106    0.0000 H   0  0  0  0  0  0  0  0  0  0  0  0
    6.7866    0.8660    0.0000 H   0  0  0  0  0  0  0  0  0  0  0  0
    7.4516    5.8705    0.0000 H   0  0  0  0  0  0  0  0  0  0  0  0
    7.4516    6.6675    0.0000 H   0  0  0  0  0  0  0  0  0  0  0  0
    5.4397    0.8469    0.0000 H   0  0  0  0  0  0  0  0  0  0  0  0
    5.6666    0.0000    0.0000 H   0  0  0  0  0  0  0  0  0  0  0  0
    6.5135    0.2269    0.0000 H   0  0  0  0  0  0  0  0  0  0  0  0
    6.0017    7.5335    0.0000 H   0  0  0  0  0  0  0  0  0  0  0  0
    6.0017    6.7365    0.0000 H   0  0  0  0  0  0  0  0  0  0  0  0
    7.4516    7.6025    0.0000 H   0  0  0  0  0  0  0  0  0  0  0  0
    7.4516    8.3996    0.0000 H   0  0  0  0  0  0  0  0  0  0  0  0
    8.2866    9.1962    0.0000 H   0  0  0  0  0  0  0  0  0  0  0  0
    5.8566   10.5991    0.0000 H   0  0  0  0  0  0  0  0  0  0  0  0
    9.0966   10.5991    0.0000 H   0  0  0  0  0  0  0  0  0  0  0  0
    6.6666   12.0021    0.0000 H   0  0  0  0  0  0  0  0  0  0  0  0
  3 26  1  0  0  0  0
  4 20  2  0  0  0  0
  5 12  1  0  0  0  0
  5 13  1  0  0  0  0
  5 16  1  0  0  0  0
  5 35  1  0  0  0  0
  6 14  1  0  0  0  0
  6 15  1  0  0  0  0
  6 17  1  0  0  0  0
  6 44  1  0  0  0  0
  7  8  1  0  0  0  0
  7  9  1  0  0  0  0
  7 10  1  0  0  0  0
  7 11  1  0  0  0  0
  8 13  1  0  0  0  0
  8 27  1  0  0  0  0
  8 28  1  0  0  0  0
  9 12  1  0  0  0  0
  9 29  1  0  0  0  0
  9 30  1  0  0  0  0
 10 15  1  0  0  0  0
 10 33  1  0  0  0  0
 10 34  1  0  0  0  0
 11 14  1  0  0  0  0
 11 31  1  0  0  0  0
 11 32  1  0  0  0  0
 12 38  1  0  0  0  0
 12 39  1  0  0  0  0
 13 36  1  0  0  0  0
 13 37  1  0  0  0  0
 14 40  1  0  0  0  0
 14 41  1  0  0  0  0
 15 42  1  0  0  0  0
 15 43  1  0  0  0  0
 16 18  1  0  0  0  0
 16 45  1  0  0  0  0
 16 46  1  0  0  0  0
 17 47  1  0  0  0  0
 17 48  1  0  0  0  0
 17 49  1  0  0  0  0
 18 19  1  0  0  0  0
 18 50  1  0  0  0  0
 18 51  1  0  0  0  0
 19 20  1  0  0  0  0
 19 52  1  0  0  0  0
 19 53  1  0  0  0  0
 20 21  1  0  0  0  0
 21 22  2  0  0  0  0
 21 23  1  0  0  0  0
 22 24  1  0  0  0  0
 22 54  1  0  0  0  0
 23 25  2  0  0  0  0
 23 55  1  0  0  0  0
 24 26  2  0  0  0  0
 24 56  1  0  0  0  0
 25 26  1  0  0  0  0
 25 57  1  0  0  0  0
M  CHG  4   1  -1   2  -1   5   1   6   1
M  END
> <PUBCHEM_COMPOUND_CID>
14417

> <PUBCHEM_COMPOUND_CANONICALIZED>
1

> <PUBCHEM_CACTVS_COMPLEXITY>
402

> <PUBCHEM_CACTVS_HBOND_ACCEPTOR>
4

> <PUBCHEM_CACTVS_HBOND_DONOR>
2

> <PUBCHEM_CACTVS_ROTATABLE_BOND>
5

> <PUBCHEM_CACTVS_SUBSKEYS>
AAADceB7IQAGAAAAAAAAAAAAAAAAAAAAAAA8WIAAAAAAAAABAAAAHwAQAAAADgTBmAwyAIPAAACIAqBSAAACAAAkAAAIiIEIAMgIIDKAlRCEIQAgkACIiYcciICPAAAAAAAAAAAAAAAAAAAAAAAAAAAAAA==

> <PUBCHEM_IUPAC_OPENEYE_NAME>
1-(4-fluorophenyl)-4-(9-methyl-3,9-diazoniaspiro[5.5]undecan-3-yl)butan-1-one dichloride

> <PUBCHEM_IUPAC_CAS_NAME>
1-(4-fluorophenyl)-4-(9-methyl-3,9-diazoniaspiro[5.5]undecan-3-yl)-1-butanone dichloride

> <PUBCHEM_IUPAC_NAME>
1-(4-fluorophenyl)-4-(9-methyl-3,9-diazoniaspiro[5.5]undecan-3-yl)butan-1-one dichloride

> <PUBCHEM_IUPAC_SYSTEMATIC_NAME>
1-(4-fluorophenyl)-4-(9-methyl-3,9-diazoniaspiro[5.5]undecan-3-yl)butan-1-one dichloride

> <PUBCHEM_IUPAC_TRADITIONAL_NAME>
1-(4-fluorophenyl)-4-(9-methyl-3,9-diazoniaspiro[5.5]undecan-3-yl)butan-1-one dichloride

> <PUBCHEM_IUPAC_INCHI>
InChI=1S/C20H29FN2O.2ClH/c1-22-13-8-20(9-14-22)10-15-23(16-11-20)12-2-3-19(24)17-4-6-18(21)7-5-17;;/h4-7H,2-3,8-16H2,1H3;2*1H

> <PUBCHEM_IUPAC_INCHIKEY>
MHPSVUBTALLMNU-UHFFFAOYSA-N

> <PUBCHEM_EXACT_MASS>
404.179747

> <PUBCHEM_MOLECULAR_FORMULA>
C20H31Cl2FN2O

> <PUBCHEM_MOLECULAR_WEIGHT>
405.377343

> <PUBCHEM_OPENEYE_CAN_SMILES>
C[NH+]1CCC2(CC1)CC[NH+](CC2)CCCC(=O)C3=CC=C(C=C3)F.[Cl-].[Cl-]

> <PUBCHEM_OPENEYE_ISO_SMILES>
C[NH+]1CCC2(CC1)CC[NH+](CC2)CCCC(=O)C3=CC=C(C=C3)F.[Cl-].[Cl-]

> <PUBCHEM_CACTVS_TPSA>
26

> <PUBCHEM_MONOISOTOPIC_WEIGHT>
404.179747

> <PUBCHEM_TOTAL_CHARGE>
0

> <PUBCHEM_HEAVY_ATOM_COUNT>
26

> <PUBCHEM_ATOM_DEF_STEREO_COUNT>
0

> <PUBCHEM_ATOM_UDEF_STEREO_COUNT>
0

> <PUBCHEM_BOND_DEF_STEREO_COUNT>
0

> <PUBCHEM_BOND_UDEF_STEREO_COUNT>
0

> <PUBCHEM_ISOTOPIC_ATOM_COUNT>
0

> <PUBCHEM_COMPONENT_COUNT>
3

> <PUBCHEM_CACTVS_TAUTO_COUNT>
2

> <PUBCHEM_COORDINATE_TYPE>
1
5
255

> <PUBCHEM_BONDANNOTATIONS>
21  22  8
21  23  8
22  24  8
23  25  8
24  26  8
25  26  8

$$$$

