17396333
  -OEChem-06241222562D

 34 36  0     1  0  0  0  0  0999 V2000
   10.5911   -1.4060    0.0000 S   0  0  0  0  0  0  0  0  0  0  0  0
    2.6691   -0.0080    0.0000 O   0  0  0  0  0  0  0  0  0  0  0  0
    6.1808   -1.1012    0.0000 O   0  0  0  0  0  0  0  0  0  0  0  0
    8.7788    1.3988    0.0000 O   0  0  0  0  0  0  0  0  0  0  0  0
    5.3147    0.3988    0.0000 N   0  0  0  0  0  0  0  0  0  0  0  0
    7.9128   -0.1012    0.0000 N   0  0  0  0  0  0  0  0  0  0  0  0
    8.7788   -1.6012    0.0000 N   0  0  0  0  0  0  0  0  0  0  0  0
    4.4487   -0.1012    0.0000 C   0  0  3  0  0  0  0  0  0  0  0  0
    7.0468    0.3988    0.0000 C   0  0  0  0  0  0  0  0  0  0  0  0
    3.5827    0.3988    0.0000 C   0  0  0  0  0  0  0  0  0  0  0  0
    6.1808   -0.1012    0.0000 C   0  0  0  0  0  0  0  0  0  0  0  0
    4.4487   -1.1012    0.0000 C   0  0  0  0  0  0  0  0  0  0  0  0
    8.7788    0.3988    0.0000 C   0  0  0  0  0  0  0  0  0  0  0  0
    9.6448   -0.1012    0.0000 C   0  0  0  0  0  0  0  0  0  0  0  0
    9.6448   -1.1012    0.0000 C   0  0  0  0  0  0  0  0  0  0  0  0
    7.9128   -1.1012    0.0000 C   0  0  0  0  0  0  0  0  0  0  0  0
    3.4782    1.3933    0.0000 C   0  0  0  0  0  0  0  0  0  0  0  0
   10.5911    0.2035    0.0000 C   0  0  0  0  0  0  0  0  0  0  0  0
    2.5000    1.6012    0.0000 C   0  0  0  0  0  0  0  0  0  0  0  0
    2.0000    0.7352    0.0000 C   0  0  0  0  0  0  0  0  0  0  0  0
   11.1747   -0.6012    0.0000 C   0  0  0  0  0  0  0  0  0  0  0  0
    4.9856   -0.4112    0.0000 H   0  0  0  0  0  0  0  0  0  0  0  0
    7.4453    0.8737    0.0000 H   0  0  0  0  0  0  0  0  0  0  0  0
    6.6482    0.8737    0.0000 H   0  0  0  0  0  0  0  0  0  0  0  0
    5.3147    1.0188    0.0000 H   0  0  0  0  0  0  0  0  0  0  0  0
    3.8287   -1.1012    0.0000 H   0  0  0  0  0  0  0  0  0  0  0  0
    4.4487   -1.7212    0.0000 H   0  0  0  0  0  0  0  0  0  0  0  0
    5.0687   -1.1012    0.0000 H   0  0  0  0  0  0  0  0  0  0  0  0
    7.3759   -1.4112    0.0000 H   0  0  0  0  0  0  0  0  0  0  0  0
    3.9389    1.8082    0.0000 H   0  0  0  0  0  0  0  0  0  0  0  0
   10.7837    0.7928    0.0000 H   0  0  0  0  0  0  0  0  0  0  0  0
    2.2478    2.1676    0.0000 H   0  0  0  0  0  0  0  0  0  0  0  0
    1.3834    0.6704    0.0000 H   0  0  0  0  0  0  0  0  0  0  0  0
   11.7947   -0.6012    0.0000 H   0  0  0  0  0  0  0  0  0  0  0  0
  1 15  1  0  0  0  0
  1 21  1  0  0  0  0
  2 10  1  0  0  0  0
  2 20  1  0  0  0  0
  3 11  2  0  0  0  0
  4 13  2  0  0  0  0
  5  8  1  0  0  0  0
  5 11  1  0  0  0  0
  5 25  1  0  0  0  0
  6  9  1  0  0  0  0
  6 13  1  0  0  0  0
  6 16  1  0  0  0  0
  7 15  1  0  0  0  0
  7 16  2  0  0  0  0
  8 10  1  0  0  0  0
  8 12  1  0  0  0  0
  8 22  1  0  0  0  0
  9 11  1  0  0  0  0
  9 23  1  0  0  0  0
  9 24  1  0  0  0  0
 10 17  2  0  0  0  0
 12 26  1  0  0  0  0
 12 27  1  0  0  0  0
 12 28  1  0  0  0  0
 13 14  1  0  0  0  0
 14 15  2  0  0  0  0
 14 18  1  0  0  0  0
 16 29  1  0  0  0  0
 17 19  1  0  0  0  0
 17 30  1  0  0  0  0
 18 21  2  0  0  0  0
 18 31  1  0  0  0  0
 19 20  2  0  0  0  0
 19 32  1  0  0  0  0
 20 33  1  0  0  0  0
 21 34  1  0  0  0  0
M  END
> <PUBCHEM_COMPOUND_CID>
17396333

> <PUBCHEM_COMPOUND_CANONICALIZED>
1

> <PUBCHEM_CACTVS_COMPLEXITY>
457

> <PUBCHEM_CACTVS_HBOND_ACCEPTOR>
5

> <PUBCHEM_CACTVS_HBOND_DONOR>
1

> <PUBCHEM_CACTVS_ROTATABLE_BOND>
4

> <PUBCHEM_CACTVS_SUBSKEYS>
AAADccBzMABAAAAAAAAAAAAAAAAAASJAAAAgAAAAAAAAAEAB4AAAHgQQAAAADCzl2AazhYPABEisAqlT9ACDCIFkKBBJiJmOTMgOZjqk/buXGajk1hG46ceYWQMYAAAAAAAAAAAAAAAAAAAAAAAAAAAAAA==

> <PUBCHEM_IUPAC_OPENEYE_NAME>
N-[1-(2-furyl)ethyl]-2-(4-oxothieno[2,3-d]pyrimidin-3-yl)acetamide

> <PUBCHEM_IUPAC_CAS_NAME>
N-[1-(2-furanyl)ethyl]-2-(4-oxo-3-thieno[2,3-d]pyrimidinyl)acetamide

> <PUBCHEM_IUPAC_NAME>
N-[1-(furan-2-yl)ethyl]-2-(4-oxothieno[2,3-d]pyrimidin-3-yl)acetamide

> <PUBCHEM_IUPAC_SYSTEMATIC_NAME>
N-[1-(furan-2-yl)ethyl]-2-(4-oxidanylidenethieno[2,3-d]pyrimidin-3-yl)ethanamide

> <PUBCHEM_IUPAC_TRADITIONAL_NAME>
N-[1-(2-furyl)ethyl]-2-(4-ketothieno[2,3-d]pyrimidin-3-yl)acetamide

> <PUBCHEM_IUPAC_INCHI>
InChI=1S/C14H13N3O3S/c1-9(11-3-2-5-20-11)16-12(18)7-17-8-15-13-10(14(17)19)4-6-21-13/h2-6,8-9H,7H2,1H3,(H,16,18)

> <PUBCHEM_IUPAC_INCHIKEY>
QPBWCKNNGZZSEF-UHFFFAOYSA-N

> <PUBCHEM_XLOGP3_AA>
1.2

> <PUBCHEM_EXACT_MASS>
303.067762

> <PUBCHEM_MOLECULAR_FORMULA>
C14H13N3O3S

> <PUBCHEM_MOLECULAR_WEIGHT>
303.33632

> <PUBCHEM_OPENEYE_CAN_SMILES>
CC(C1=CC=CO1)NC(=O)CN2C=NC3=C(C2=O)C=CS3

> <PUBCHEM_OPENEYE_ISO_SMILES>
CC(C1=CC=CO1)NC(=O)CN2C=NC3=C(C2=O)C=CS3

> <PUBCHEM_CACTVS_TPSA>
103

> <PUBCHEM_MONOISOTOPIC_WEIGHT>
303.067762

> <PUBCHEM_TOTAL_CHARGE>
0

> <PUBCHEM_HEAVY_ATOM_COUNT>
21

> <PUBCHEM_ATOM_DEF_STEREO_COUNT>
0

> <PUBCHEM_ATOM_UDEF_STEREO_COUNT>
1

> <PUBCHEM_BOND_DEF_STEREO_COUNT>
0

> <PUBCHEM_BOND_UDEF_STEREO_COUNT>
0

> <PUBCHEM_ISOTOPIC_ATOM_COUNT>
0

> <PUBCHEM_COMPONENT_COUNT>
1

> <PUBCHEM_CACTVS_TAUTO_COUNT>
2

> <PUBCHEM_COORDINATE_TYPE>
1
5
255

> <PUBCHEM_BONDANNOTATIONS>
1  15  8
1  21  8
10  17  8
13  14  8
14  15  8
14  18  8
17  19  8
18  21  8
19  20  8
2  10  8
2  20  8
6  13  8
6  16  8
7  15  8
7  16  8
8  12  3

$$$$

