7847000
  -OEChem-06241222483D

 42 44  0     1  0  0  0  0  0999 V2000
    4.9680   -1.9812    0.0446 Cl  0  0  0  0  0  0  0  0  0  0  0  0
   -0.3479    3.1592   -1.3459 S   0  0  0  0  0  0  0  0  0  0  0  0
   -3.4080   -0.6551   -0.6681 O   0  0  0  0  0  0  0  0  0  0  0  0
   -2.9784    0.3024    1.3864 O   0  0  0  0  0  0  0  0  0  0  0  0
   -1.5982   -2.2337    1.6535 O   0  0  0  0  0  0  0  0  0  0  0  0
   -0.5630    2.0852    0.9892 N   0  0  0  0  0  0  0  0  0  0  0  0
   -0.8447   -1.9050   -0.5457 N   0  0  0  0  0  0  0  0  0  0  0  0
    1.3084   -1.7553   -1.5126 N   0  0  0  0  0  0  0  0  0  0  0  0
   -2.7062    2.8689    0.0441 C   0  0  0  0  0  0  0  0  0  0  0  0
   -3.4890    1.6831   -0.5498 C   0  0  0  0  0  0  0  0  0  0  0  0
   -1.2434    2.6514    0.0200 C   0  0  0  0  0  0  0  0  0  0  0  0
   -3.2158   -1.9563   -0.1037 C   0  0  1  0  0  0  0  0  0  0  0  0
    1.0960    2.5808   -0.6019 C   0  0  0  0  0  0  0  0  0  0  0  0
    0.7806    2.0374    0.6472 C   0  0  0  0  0  0  0  0  0  0  0  0
   -3.2572    0.3902    0.1985 C   0  0  0  0  0  0  0  0  0  0  0  0
   -3.4739   -3.0093   -1.1713 C   0  0  0  0  0  0  0  0  0  0  0  0
   -1.7988   -2.0564    0.4553 C   0  0  0  0  0  0  0  0  0  0  0  0
    2.4129    2.6060   -1.0884 C   0  0  0  0  0  0  0  0  0  0  0  0
    1.8220    1.5010    1.4351 C   0  0  0  0  0  0  0  0  0  0  0  0
    3.4247    2.0687   -0.2888 C   0  0  0  0  0  0  0  0  0  0  0  0
    3.1353    1.5228    0.9569 C   0  0  0  0  0  0  0  0  0  0  0  0
    0.5636   -1.9218   -0.4054 C   0  0  0  0  0  0  0  0  0  0  0  0
    1.0617   -2.1106    0.8661 C   0  0  0  0  0  0  0  0  0  0  0  0
    2.4441   -2.1300    1.0141 C   0  0  0  0  0  0  0  0  0  0  0  0
    3.2594   -1.9624   -0.0998 C   0  0  0  0  0  0  0  0  0  0  0  0
    2.6477   -1.7801   -1.3296 C   0  0  0  0  0  0  0  0  0  0  0  0
   -3.0226    3.0255    1.0833 H   0  0  0  0  0  0  0  0  0  0  0  0
   -2.9781    3.7834   -0.4972 H   0  0  0  0  0  0  0  0  0  0  0  0
   -4.5630    1.8966   -0.5232 H   0  0  0  0  0  0  0  0  0  0  0  0
   -3.1939    1.5460   -1.5973 H   0  0  0  0  0  0  0  0  0  0  0  0
   -3.9304   -2.1025    0.7160 H   0  0  0  0  0  0  0  0  0  0  0  0
   -3.2162   -4.0115   -0.8147 H   0  0  0  0  0  0  0  0  0  0  0  0
   -2.9162   -2.8119   -2.0926 H   0  0  0  0  0  0  0  0  0  0  0  0
   -4.5331   -3.0022   -1.4519 H   0  0  0  0  0  0  0  0  0  0  0  0
    2.6462    3.0297   -2.0604 H   0  0  0  0  0  0  0  0  0  0  0  0
    1.6071    1.0718    2.4096 H   0  0  0  0  0  0  0  0  0  0  0  0
   -1.1604   -1.7368   -1.4970 H   0  0  0  0  0  0  0  0  0  0  0  0
    4.4507    2.0767   -0.6471 H   0  0  0  0  0  0  0  0  0  0  0  0
    3.9352    1.1098    1.5652 H   0  0  0  0  0  0  0  0  0  0  0  0
    0.4991   -2.2451    1.7740 H   0  0  0  0  0  0  0  0  0  0  0  0
    2.8743   -2.2749    2.0016 H   0  0  0  0  0  0  0  0  0  0  0  0
    3.2287   -1.6421   -2.2366 H   0  0  0  0  0  0  0  0  0  0  0  0
  1 25  1  0  0  0  0
  2 11  1  0  0  0  0
  2 13  1  0  0  0  0
  3 12  1  0  0  0  0
  3 15  1  0  0  0  0
  4 15  2  0  0  0  0
  5 17  2  0  0  0  0
  6 11  2  0  0  0  0
  6 14  1  0  0  0  0
  7 17  1  0  0  0  0
  7 22  1  0  0  0  0
  7 37  1  0  0  0  0
  8 22  2  0  0  0  0
  8 26  1  0  0  0  0
  9 10  1  0  0  0  0
  9 11  1  0  0  0  0
  9 27  1  0  0  0  0
  9 28  1  0  0  0  0
 10 15  1  0  0  0  0
 10 29  1  0  0  0  0
 10 30  1  0  0  0  0
 12 16  1  0  0  0  0
 12 17  1  0  0  0  0
 12 31  1  0  0  0  0
 13 14  1  0  0  0  0
 13 18  2  0  0  0  0
 14 19  2  0  0  0  0
 16 32  1  0  0  0  0
 16 33  1  0  0  0  0
 16 34  1  0  0  0  0
 18 20  1  0  0  0  0
 18 35  1  0  0  0  0
 19 21  1  0  0  0  0
 19 36  1  0  0  0  0
 20 21  2  0  0  0  0
 20 38  1  0  0  0  0
 21 39  1  0  0  0  0
 22 23  1  0  0  0  0
 23 24  2  0  0  0  0
 23 40  1  0  0  0  0
 24 25  1  0  0  0  0
 24 41  1  0  0  0  0
 25 26  2  0  0  0  0
 26 42  1  0  0  0  0
M  END
> <PUBCHEM_COMPOUND_CID>
7847000

> <PUBCHEM_CONFORMER_RMSD>
1

> <PUBCHEM_CONFORMER_DIVERSEORDER>
1
305
189
34
263
245
11
192
187
268
77
255
25
259
254
18
252
284
21
137
42
70
188
87
265
80
247
359
258
205
167
98
114
336
91
273
244
122
360
253
71
291
41
128
58
172
279
281
271
158
15
347
171
272
113
186
175
183
99
321
93
333
156
55
277
290
275
36
52
209
280
78
3
214
35
96
351
150
308
60
323
111
317
30
287
22
7
160
219
319
193
180
225
303
240
104
94
179
266
216
256
293
23
304
297
285
248
56
348
101
208
102
29
138
147
144
218
4
166
61
332
288
161
136
74
233
286
282
238
274
9
73
119
38
276
325
108
306
155
49
154
260
318
356
331
86
2
206
204
97
307
278
236
296
298
346
100
152
127
222
48
176
223
146
117
28
24
132
228
340
174
19
191
270
343
103
220
207
169
302
211
76
335
33
353
20
313
112
314
125
300
46
149
170
357
289
5
142
82
40
337
43
14
68
90
69
234
224
190
345
341
115
235
159
328
31
6
334
118
53
47
178
310
301
202
342
197
173
135
200
83
243
162
26
39
316
64
251
92
134
182
227
59
12
185
140
267
212
81
294
249
231
257
10
145
232
198
50
106
329
72
27
85
239
311
130
105
67
54
65
109
129
95
215
62
349
13
88
358
184
126
157
292
168
262
63
196
246
283
8
107
120
121
133
79
177
229
199
84
330
75
230
352
217
110
164
354
261
44
16
213
45
315
241
355
269
203
123
338
299
32
116
124
326
350
141
165
89
221
339
201
264
148
57
242
210
312
51
195
327
237
37
66
295
151
194
344
322
131
181
139
309
324
163
250
17
320
226
153
143

> <PUBCHEM_MMFF94_PARTIAL_CHARGES>
33
1 -0.18
10 0.06
11 0.2
12 0.34
13 0.04
14 0.23
15 0.66
17 0.57
18 -0.15
19 -0.15
2 -0.08
20 -0.15
21 -0.15
22 0.43
23 -0.15
24 -0.15
25 0.18
26 0.16
3 -0.43
35 0.15
36 0.15
37 0.37
38 0.15
39 0.15
4 -0.57
40 0.15
41 0.15
42 0.15
5 -0.57
6 -0.57
7 -0.55
8 -0.62
9 0.18

> <PUBCHEM_EFFECTIVE_ROTOR_COUNT>
8

> <PUBCHEM_PHARMACOPHORE_FEATURES>
7
1 4 acceptor
1 5 acceptor
1 6 acceptor
1 7 donor
5 2 6 11 13 14 rings
6 13 14 18 19 20 21 rings
6 8 22 23 24 25 26 rings

> <PUBCHEM_HEAVY_ATOM_COUNT>
26

> <PUBCHEM_ATOM_DEF_STEREO_COUNT>
1

> <PUBCHEM_ATOM_UDEF_STEREO_COUNT>
0

> <PUBCHEM_BOND_DEF_STEREO_COUNT>
0

> <PUBCHEM_BOND_UDEF_STEREO_COUNT>
0

> <PUBCHEM_ISOTOPIC_ATOM_COUNT>
0

> <PUBCHEM_COMPONENT_COUNT>
1

> <PUBCHEM_CACTVS_TAUTO_COUNT>
6

> <PUBCHEM_CONFORMER_ID>
0077BC5800000001

> <PUBCHEM_MMFF94_ENERGY>
54.4922

> <PUBCHEM_FEATURE_SELFOVERLAP>
35.595

> <PUBCHEM_SHAPE_FINGERPRINT>
104564 63 18265897964710232776
10616163 171 18338798901267471225
1100329 8 18266176308507909697
11513181 2 18260263028106275934
11578080 2 17702968992325358663
12156800 1 16477747034543697373
12553582 1 17618778497680782384
13122387 1 17690842684487793269
13140716 1 18409158922561632243
13402501 40 18193278722019965220
14117953 113 17043177632421514732
17093844 170 18411705344215506324
17357779 13 18189347925175034166
17492 54 17983289627618360188
18336668 15 18201431536942967924
19930381 70 17546170697179036903
20691752 17 17988927794702375657
20764821 26 18341619243108039981
20905425 154 18334572399955037588
21141583 151 17613997816917513294
238 59 17762063138002749535
3052486 1 18200319947814524938
338550 245 18342734139288058293
35225 105 14109436204142763838
463206 1 18408325492758431233
484985 159 15828401855500828195
539174 4 17899662744873922739

> <PUBCHEM_SHAPE_MULTIPOLES>
508.24
7.09
5.05
1.38
1.07
0.93
0.03
-2.81
-0.37
-0.41
-0.85
0.16
-0.08
-0.15

> <PUBCHEM_SHAPE_SELFOVERLAP>
1070.555

> <PUBCHEM_SHAPE_VOLUME>
287.4

> <PUBCHEM_COORDINATE_TYPE>
2
5
10

$$$$

