583019
  -OEChem-06241222443D

 31 32  0     1  0  0  0  0  0999 V2000
   -0.7610    0.9013    1.1146 F   0  0  0  0  0  0  0  0  0  0  0  0
   -0.9760   -1.7307    0.7184 F   0  0  0  0  0  0  0  0  0  0  0  0
   -2.1702   -1.4506   -1.0836 F   0  0  0  0  0  0  0  0  0  0  0  0
   -3.9269   -1.7514    0.9511 F   0  0  0  0  0  0  0  0  0  0  0  0
   -2.7851   -0.3752    2.1978 F   0  0  0  0  0  0  0  0  0  0  0  0
   -4.3243    0.1423   -0.9096 F   0  0  0  0  0  0  0  0  0  0  0  0
   -4.5211    1.2061    0.9898 F   0  0  0  0  0  0  0  0  0  0  0  0
   -1.0586    0.4449   -2.3538 F   0  0  0  0  0  0  0  0  0  0  0  0
   -0.1090    2.0613   -1.2531 F   0  0  0  0  0  0  0  0  0  0  0  0
   -2.5525    1.3147   -0.1719 O   0  0  0  0  0  0  0  0  0  0  0  0
    0.8882   -1.2408   -1.5240 O   0  0  0  0  0  0  0  0  0  0  0  0
    3.6446    2.1471    1.0975 O   0  0  0  0  0  0  0  0  0  0  0  0
    1.8373    0.5619   -0.3524 N   0  0  0  0  0  0  0  0  0  0  0  0
   -1.3643    0.5050   -0.0396 C   0  0  2  0  0  0  0  0  0  0  0  0
   -1.8584   -0.9190    0.1211 C   0  0  0  0  0  0  0  0  0  0  0  0
   -3.1033   -0.6980    0.9227 C   0  0  0  0  0  0  0  0  0  0  0  0
   -3.6709    0.5026    0.2192 C   0  0  0  0  0  0  0  0  0  0  0  0
   -0.4111    0.7342   -1.1895 C   0  0  0  0  0  0  0  0  0  0  0  0
    0.8451   -0.1064   -1.0574 C   0  0  0  0  0  0  0  0  0  0  0  0
    3.1344    0.0948   -0.0354 C   0  0  0  0  0  0  0  0  0  0  0  0
    4.0049    0.8995    0.6826 C   0  0  0  0  0  0  0  0  0  0  0  0
    3.5066   -1.1727   -0.4554 C   0  0  0  0  0  0  0  0  0  0  0  0
    5.2803    0.4248    0.9883 C   0  0  0  0  0  0  0  0  0  0  0  0
    4.7822   -1.6472   -0.1496 C   0  0  0  0  0  0  0  0  0  0  0  0
    5.6691   -0.8486    0.5722 C   0  0  0  0  0  0  0  0  0  0  0  0
    1.6233    1.5003   -0.0209 H   0  0  0  0  0  0  0  0  0  0  0  0
    2.8837   -1.8518   -1.0179 H   0  0  0  0  0  0  0  0  0  0  0  0
    5.9818    1.0361    1.5498 H   0  0  0  0  0  0  0  0  0  0  0  0
    5.0865   -2.6384   -0.4734 H   0  0  0  0  0  0  0  0  0  0  0  0
    6.6622   -1.2182    0.8101 H   0  0  0  0  0  0  0  0  0  0  0  0
    4.3872    2.5479    1.5812 H   0  0  0  0  0  0  0  0  0  0  0  0
  1 14  1  0  0  0  0
  2 15  1  0  0  0  0
  3 15  1  0  0  0  0
  4 16  1  0  0  0  0
  5 16  1  0  0  0  0
  6 17  1  0  0  0  0
  7 17  1  0  0  0  0
  8 18  1  0  0  0  0
  9 18  1  0  0  0  0
 10 14  1  0  0  0  0
 10 17  1  0  0  0  0
 11 19  2  0  0  0  0
 12 21  1  0  0  0  0
 12 31  1  0  0  0  0
 13 19  1  0  0  0  0
 13 20  1  0  0  0  0
 13 26  1  0  0  0  0
 14 15  1  0  0  0  0
 14 18  1  0  0  0  0
 15 16  1  0  0  0  0
 16 17  1  0  0  0  0
 18 19  1  0  0  0  0
 20 21  1  0  0  0  0
 20 22  2  0  0  0  0
 21 23  2  0  0  0  0
 22 24  1  0  0  0  0
 22 27  1  0  0  0  0
 23 25  1  0  0  0  0
 23 28  1  0  0  0  0
 24 25  2  0  0  0  0
 24 29  1  0  0  0  0
 25 30  1  0  0  0  0
M  END
> <PUBCHEM_COMPOUND_CID>
583019

> <PUBCHEM_CONFORMER_RMSD>
0.8

> <PUBCHEM_CONFORMER_DIVERSEORDER>
1
39
55
74
16
87
9
34
88
89
82
60
52
81
32
78
67
5
20
79
47
62
80
75
43
45
83
72
36
51
86
58
84
26
53
28
57
85
50
56
29
7
37
30
68
63
21
66
65
6
48
35
71
44
4
18
70
40
73
15
76
61
31
77
33
10
69
41
38
46
11
42
13
12
49
14
54
22
23
8
3
59
64
2
27
19
25
24
17

> <PUBCHEM_MMFF94_PARTIAL_CHARGES>
31
1 -0.34
10 -0.56
11 -0.57
12 -0.53
13 -0.55
14 0.62
15 0.68
16 0.68
17 0.96
18 0.74
19 0.57
2 -0.34
20 0.12
21 0.08
22 -0.15
23 -0.15
24 -0.15
25 -0.15
26 0.37
27 0.15
28 0.15
29 0.15
3 -0.34
30 0.15
31 0.45
4 -0.34
5 -0.34
6 -0.34
7 -0.34
8 -0.34
9 -0.34

> <PUBCHEM_EFFECTIVE_ROTOR_COUNT>
5

> <PUBCHEM_PHARMACOPHORE_FEATURES>
6
1 10 acceptor
1 11 acceptor
1 12 donor
1 13 donor
5 10 14 15 16 17 rings
6 20 21 22 23 24 25 rings

> <PUBCHEM_HEAVY_ATOM_COUNT>
25

> <PUBCHEM_ATOM_DEF_STEREO_COUNT>
0

> <PUBCHEM_ATOM_UDEF_STEREO_COUNT>
1

> <PUBCHEM_BOND_DEF_STEREO_COUNT>
0

> <PUBCHEM_BOND_UDEF_STEREO_COUNT>
0

> <PUBCHEM_ISOTOPIC_ATOM_COUNT>
0

> <PUBCHEM_COMPONENT_COUNT>
1

> <PUBCHEM_CACTVS_TAUTO_COUNT>
6

> <PUBCHEM_CONFORMER_ID>
0008E56B00000001

> <PUBCHEM_MMFF94_ENERGY>
51.625

> <PUBCHEM_FEATURE_SELFOVERLAP>
30.449

> <PUBCHEM_SHAPE_FINGERPRINT>
10366900 7 18343301492183902834
10670039 82 14634856558029038584
11045977 3 18409729564906715722
11046707 91 16988842774206166482
11370993 144 18335980969198182072
11370993 70 18334013899962859242
11552529 35 17824268103166143470
12236239 1 16370732543207523116
12251169 10 18333732420811903004
12403814 3 17022908972865789265
12553582 1 15985104102493817696
12633257 1 18260823817622256642
12714826 92 16773805817705778060
12788726 201 15267069210737945852
128620 24 12751235913696360678
12892183 10 18334852784157767514
13583140 156 17894635807576008794
13675066 3 18341609304537905450
14341114 176 18260263054144558600
14386348 63 18202003248497868714
16752209 62 15913342298685237416
16945 1 18058713815366621237
17980427 23 17894907434710291493
1813 80 16774074077284312318
19141452 34 18341894082334131567
19862831 5 13039188108984670828
200 152 17967824850560477590
204376 136 16732983128425125454
20775530 9 14402903451256568193
21033648 29 18338534017897384672
21065199 12 18409168805539570264
22646028 28 17060618897889567674
22854114 59 17894910732980690078
23402539 116 18412552032767113125
235170 7 8646496197843232576
23559900 14 18060414716757424780
26918003 58 18410014351340063496
2838139 119 17823705355292696833
296302 2 17530960298191048101
314173 85 17775847925870530060
351380 180 18113621209374601472
351380 3 15410890769200747880
38570 142 17606671424052228072
474 4 16877662370704044182
5104073 3 18408882923604713146
5924683 9 18187933815788522759
602551 16 17489588961636128106

> <PUBCHEM_SHAPE_MULTIPOLES>
426.44
10.73
1.7
1.49
7.77
0.08
-0.2
-0.91
3.95
0.47
0.09
-0.87
0.06
0.79

> <PUBCHEM_SHAPE_SELFOVERLAP>
945.82

> <PUBCHEM_SHAPE_VOLUME>
227.3

> <PUBCHEM_COORDINATE_TYPE>
2
5
10

$$$$

