17396132
  -OEChem-06241222542D

 54 56  0     1  0  0  0  0  0999 V2000
    3.7320    1.2306    0.0000 O   0  0  0  0  0  0  0  0  0  0  0  0
    7.2242    2.5094    0.0000 O   0  0  0  0  0  0  0  0  0  0  0  0
    5.4641   -3.7694    0.0000 O   0  0  0  0  0  0  0  0  0  0  0  0
    3.7040    2.5094    0.0000 O   0  0  0  0  0  0  0  0  0  0  0  0
    4.5981   -2.2694    0.0000 N   0  0  0  0  0  0  0  0  0  0  0  0
    5.4641    2.2306    0.0000 N   0  0  0  0  0  0  0  0  0  0  0  0
    4.9641    3.7694    0.0000 N   0  0  0  0  0  0  0  0  0  0  0  0
    5.4641    1.2306    0.0000 N   0  0  0  0  0  0  0  0  0  0  0  0
    4.5981   -0.2694    0.0000 C   0  0  0  0  0  0  0  0  0  0  0  0
    5.4641   -0.7694    0.0000 C   0  0  0  0  0  0  0  0  0  0  0  0
    3.7320   -0.7694    0.0000 C   0  0  0  0  0  0  0  0  0  0  0  0
    3.7320   -1.7694    0.0000 C   0  0  0  0  0  0  0  0  0  0  0  0
    5.4641   -1.7694    0.0000 C   0  0  0  0  0  0  0  0  0  0  0  0
    5.9641    3.7694    0.0000 C   0  0  3  0  0  0  0  0  0  0  0  0
    4.5981    0.7306    0.0000 C   0  0  0  0  0  0  0  0  0  0  0  0
    6.2731    2.8184    0.0000 C   0  0  0  0  0  0  0  0  0  0  0  0
    5.9641    4.7694    0.0000 C   0  0  0  0  0  0  0  0  0  0  0  0
    6.9152    4.0784    0.0000 C   0  0  0  0  0  0  0  0  0  0  0  0
    4.5981   -3.2694    0.0000 C   0  0  0  0  0  0  0  0  0  0  0  0
    4.6551    2.8184    0.0000 C   0  0  0  0  0  0  0  0  0  0  0  0
    6.8301    5.2694    0.0000 C   0  0  0  0  0  0  0  0  0  0  0  0
    3.7320   -3.7694    0.0000 C   0  0  0  0  0  0  0  0  0  0  0  0
    2.8660   -3.2694    0.0000 C   0  0  0  0  0  0  0  0  0  0  0  0
    3.7320   -4.7694    0.0000 C   0  0  0  0  0  0  0  0  0  0  0  0
    2.0000   -3.7694    0.0000 C   0  0  0  0  0  0  0  0  0  0  0  0
    2.8660   -2.2694    0.0000 C   0  0  0  0  0  0  0  0  0  0  0  0
    2.8660   -5.2694    0.0000 C   0  0  0  0  0  0  0  0  0  0  0  0
    2.0000   -4.7694    0.0000 C   0  0  0  0  0  0  0  0  0  0  0  0
    5.1350    0.0406    0.0000 H   0  0  0  0  0  0  0  0  0  0  0  0
    6.0747   -0.8771    0.0000 H   0  0  0  0  0  0  0  0  0  0  0  0
    5.6762   -0.1868    0.0000 H   0  0  0  0  0  0  0  0  0  0  0  0
    3.5200   -0.1868    0.0000 H   0  0  0  0  0  0  0  0  0  0  0  0
    3.1215   -0.8771    0.0000 H   0  0  0  0  0  0  0  0  0  0  0  0
    5.6762   -2.3520    0.0000 H   0  0  0  0  0  0  0  0  0  0  0  0
    6.0747   -1.6618    0.0000 H   0  0  0  0  0  0  0  0  0  0  0  0
    3.1215   -1.6618    0.0000 H   0  0  0  0  0  0  0  0  0  0  0  0
    3.5200   -2.3520    0.0000 H   0  0  0  0  0  0  0  0  0  0  0  0
    5.7520    5.3520    0.0000 H   0  0  0  0  0  0  0  0  0  0  0  0
    5.3535    4.6618    0.0000 H   0  0  0  0  0  0  0  0  0  0  0  0
    4.5997    4.2710    0.0000 H   0  0  0  0  0  0  0  0  0  0  0  0
    6.0010    0.9206    0.0000 H   0  0  0  0  0  0  0  0  0  0  0  0
    7.1068    3.4888    0.0000 H   0  0  0  0  0  0  0  0  0  0  0  0
    7.5048    4.2700    0.0000 H   0  0  0  0  0  0  0  0  0  0  0  0
    6.7236    4.6681    0.0000 H   0  0  0  0  0  0  0  0  0  0  0  0
    7.1401    4.7325    0.0000 H   0  0  0  0  0  0  0  0  0  0  0  0
    7.3671    5.5794    0.0000 H   0  0  0  0  0  0  0  0  0  0  0  0
    6.5201    5.8064    0.0000 H   0  0  0  0  0  0  0  0  0  0  0  0
    4.2690   -5.0794    0.0000 H   0  0  0  0  0  0  0  0  0  0  0  0
    1.4631   -3.4594    0.0000 H   0  0  0  0  0  0  0  0  0  0  0  0
    3.4860   -2.2694    0.0000 H   0  0  0  0  0  0  0  0  0  0  0  0
    2.8660   -1.6494    0.0000 H   0  0  0  0  0  0  0  0  0  0  0  0
    2.2460   -2.2694    0.0000 H   0  0  0  0  0  0  0  0  0  0  0  0
    2.8660   -5.8894    0.0000 H   0  0  0  0  0  0  0  0  0  0  0  0
    1.4631   -5.0794    0.0000 H   0  0  0  0  0  0  0  0  0  0  0  0
  1 15  2  0  0  0  0
  2 16  2  0  0  0  0
  3 19  2  0  0  0  0
  4 20  2  0  0  0  0
  5 12  1  0  0  0  0
  5 13  1  0  0  0  0
  5 19  1  0  0  0  0
  6  8  1  0  0  0  0
  6 16  1  0  0  0  0
  6 20  1  0  0  0  0
  7 14  1  0  0  0  0
  7 20  1  0  0  0  0
  7 40  1  0  0  0  0
  8 15  1  0  0  0  0
  8 41  1  0  0  0  0
  9 10  1  0  0  0  0
  9 11  1  0  0  0  0
  9 15  1  0  0  0  0
  9 29  1  0  0  0  0
 10 13  1  0  0  0  0
 10 30  1  0  0  0  0
 10 31  1  0  0  0  0
 11 12  1  0  0  0  0
 11 32  1  0  0  0  0
 11 33  1  0  0  0  0
 12 36  1  0  0  0  0
 12 37  1  0  0  0  0
 13 34  1  0  0  0  0
 13 35  1  0  0  0  0
 14 16  1  0  0  0  0
 14 17  1  0  0  0  0
 14 18  1  0  0  0  0
 17 21  1  0  0  0  0
 17 38  1  0  0  0  0
 17 39  1  0  0  0  0
 18 42  1  0  0  0  0
 18 43  1  0  0  0  0
 18 44  1  0  0  0  0
 19 22  1  0  0  0  0
 21 45  1  0  0  0  0
 21 46  1  0  0  0  0
 21 47  1  0  0  0  0
 22 23  1  0  0  0  0
 22 24  2  0  0  0  0
 23 25  2  0  0  0  0
 23 26  1  0  0  0  0
 24 27  1  0  0  0  0
 24 48  1  0  0  0  0
 25 28  1  0  0  0  0
 25 49  1  0  0  0  0
 26 50  1  0  0  0  0
 26 51  1  0  0  0  0
 26 52  1  0  0  0  0
 27 28  2  0  0  0  0
 27 53  1  0  0  0  0
 28 54  1  0  0  0  0
M  END
> <PUBCHEM_COMPOUND_CID>
17396132

> <PUBCHEM_COMPOUND_CANONICALIZED>
1

> <PUBCHEM_CACTVS_COMPLEXITY>
659

> <PUBCHEM_CACTVS_HBOND_ACCEPTOR>
4

> <PUBCHEM_CACTVS_HBOND_DONOR>
2

> <PUBCHEM_CACTVS_ROTATABLE_BOND>
3

> <PUBCHEM_CACTVS_SUBSKEYS>
AAADceB7uAAAAAAAAAAAAAAAAAAAAWAAAAA8QAAAAAAAAAABAAAAHgAYAAAADYjBmAQzAIPiAACIAiFSEACCAAAkAAAeqAGIBMiIYDKAlTGUIQh4lyKIiYcciICOgAAAAAAQAAAAAAAAACAAAAAAAAAAAA==

> <PUBCHEM_IUPAC_OPENEYE_NAME>
N-(4-ethyl-4-methyl-2,5-dioxo-imidazolidin-1-yl)-1-(2-methylbenzoyl)piperidine-4-carboxamide

> <PUBCHEM_IUPAC_CAS_NAME>
N-(4-ethyl-4-methyl-2,5-dioxo-1-imidazolidinyl)-1-[(2-methylphenyl)-oxomethyl]-4-piperidinecarboxamide

> <PUBCHEM_IUPAC_NAME>
N-(4-ethyl-4-methyl-2,5-dioxoimidazolidin-1-yl)-1-(2-methylbenzoyl)piperidine-4-carboxamide

> <PUBCHEM_IUPAC_SYSTEMATIC_NAME>
N-[4-ethyl-4-methyl-2,5-bis(oxidanylidene)imidazolidin-1-yl]-1-(2-methylphenyl)carbonyl-piperidine-4-carboxamide

> <PUBCHEM_IUPAC_TRADITIONAL_NAME>
N-(4-ethyl-2,5-diketo-4-methyl-imidazolidin-1-yl)-1-o-toluoyl-isonipecotamide

> <PUBCHEM_IUPAC_INCHI>
InChI=1S/C20H26N4O4/c1-4-20(3)18(27)24(19(28)21-20)22-16(25)14-9-11-23(12-10-14)17(26)15-8-6-5-7-13(15)2/h5-8,14H,4,9-12H2,1-3H3,(H,21,28)(H,22,25)

> <PUBCHEM_IUPAC_INCHIKEY>
VBCXQRPNRWBVDX-UHFFFAOYSA-N

> <PUBCHEM_XLOGP3_AA>
1.7

> <PUBCHEM_EXACT_MASS>
386.195405

> <PUBCHEM_MOLECULAR_FORMULA>
C20H26N4O4

> <PUBCHEM_MOLECULAR_WEIGHT>
386.44484

> <PUBCHEM_OPENEYE_CAN_SMILES>
CCC1(C(=O)N(C(=O)N1)NC(=O)C2CCN(CC2)C(=O)C3=CC=CC=C3C)C

> <PUBCHEM_OPENEYE_ISO_SMILES>
CCC1(C(=O)N(C(=O)N1)NC(=O)C2CCN(CC2)C(=O)C3=CC=CC=C3C)C

> <PUBCHEM_CACTVS_TPSA>
98.8

> <PUBCHEM_MONOISOTOPIC_WEIGHT>
386.195405

> <PUBCHEM_TOTAL_CHARGE>
0

> <PUBCHEM_HEAVY_ATOM_COUNT>
28

> <PUBCHEM_ATOM_DEF_STEREO_COUNT>
0

> <PUBCHEM_ATOM_UDEF_STEREO_COUNT>
1

> <PUBCHEM_BOND_DEF_STEREO_COUNT>
0

> <PUBCHEM_BOND_UDEF_STEREO_COUNT>
0

> <PUBCHEM_ISOTOPIC_ATOM_COUNT>
0

> <PUBCHEM_COMPONENT_COUNT>
1

> <PUBCHEM_CACTVS_TAUTO_COUNT>
4

> <PUBCHEM_COORDINATE_TYPE>
1
5
255

> <PUBCHEM_BONDANNOTATIONS>
14  18  3
22  23  8
22  24  8
23  25  8
24  27  8
25  28  8
27  28  8

$$$$

