3421
  -OEChem-06251223242D

 13 13  0     1  0  0  0  0  0999 V2000
    2.8660   -0.2500    0.0000 P   0  0  0  0  0  0  0  0  0  0  0  0
    4.2320    1.1160    0.0000 O   0  0  0  0  0  0  0  0  0  0  0  0
    2.0000   -0.7500    0.0000 O   0  5  0  0  0  0  0  0  0  0  0  0
    2.3660    0.6160    0.0000 O   0  5  0  0  0  0  0  0  0  0  0  0
    3.3660   -1.1160    0.0000 O   0  0  0  0  0  0  0  0  0  0  0  0
    3.7320    0.2500    0.0000 C   0  0  3  0  0  0  0  0  0  0  0  0
    4.7320    0.2500    0.0000 C   0  0  3  0  0  0  0  0  0  0  0  0
    5.5981   -0.2500    0.0000 C   0  0  0  0  0  0  0  0  0  0  0  0
    3.1310    0.8510    0.0000 H   0  0  0  0  0  0  0  0  0  0  0  0
    5.3331    0.8510    0.0000 H   0  0  0  0  0  0  0  0  0  0  0  0
    5.2881   -0.7869    0.0000 H   0  0  0  0  0  0  0  0  0  0  0  0
    6.1350   -0.5600    0.0000 H   0  0  0  0  0  0  0  0  0  0  0  0
    5.9081    0.2869    0.0000 H   0  0  0  0  0  0  0  0  0  0  0  0
  1  3  1  0  0  0  0
  1  4  1  0  0  0  0
  1  5  2  0  0  0  0
  1  6  1  0  0  0  0
  2  6  1  0  0  0  0
  2  7  1  0  0  0  0
  6  7  1  0  0  0  0
  6  9  1  0  0  0  0
  7  8  1  0  0  0  0
  7 10  1  0  0  0  0
  8 11  1  0  0  0  0
  8 12  1  0  0  0  0
  8 13  1  0  0  0  0
M  CHG  2   3  -1   4  -1
M  END
> <PUBCHEM_COMPOUND_CID>
3421

> <PUBCHEM_COMPOUND_CANONICALIZED>
1

> <PUBCHEM_CACTVS_COMPLEXITY>
127

> <PUBCHEM_CACTVS_HBOND_ACCEPTOR>
4

> <PUBCHEM_CACTVS_HBOND_DONOR>
0

> <PUBCHEM_CACTVS_ROTATABLE_BOND>
0

> <PUBCHEM_CACTVS_SUBSKEYS>
AAADcYBAOAIAAAAAAAAAAAAAEgAAAAAAAAAAAAAAAAAAAAAAAAAAGggAACAACBSogAICAAAABBAAQAAAAIAAAAAAAAAAAAAAAAAAAAAAAAAAAAAAAAAAAAAAAAAAAAAAAAAAAAAAAAAAAAAAAAAAAAAAAA==

> <PUBCHEM_IUPAC_OPENEYE_NAME>
(3-methyloxiran-2-yl)-dioxido-oxo-$l^{5}-phosphane

> <PUBCHEM_IUPAC_CAS_NAME>
(3-methyl-2-oxiranyl)-dioxido-oxophosphorane

> <PUBCHEM_IUPAC_NAME>
(3-methyloxiran-2-yl)-dioxido-oxo-$l^{5}-phosphane

> <PUBCHEM_IUPAC_SYSTEMATIC_NAME>
(3-methyloxiran-2-yl)-bis(oxidanidyl)-oxidanylidene-$l^{5}-phosphane

> <PUBCHEM_IUPAC_TRADITIONAL_NAME>
keto-(3-methyloxiran-2-yl)-dioxido-phosphorane

> <PUBCHEM_IUPAC_INCHI>
InChI=1S/C3H7O4P/c1-2-3(7-2)8(4,5)6/h2-3H,1H3,(H2,4,5,6)/p-2

> <PUBCHEM_IUPAC_INCHIKEY>
YMDXZJFXQJVXBF-UHFFFAOYSA-L

> <PUBCHEM_XLOGP3_AA>
-1.5

> <PUBCHEM_EXACT_MASS>
135.992545

> <PUBCHEM_MOLECULAR_FORMULA>
C3H5O4P-2

> <PUBCHEM_MOLECULAR_WEIGHT>
136.043162

> <PUBCHEM_OPENEYE_CAN_SMILES>
CC1C(O1)P(=O)([O-])[O-]

> <PUBCHEM_OPENEYE_ISO_SMILES>
CC1C(O1)P(=O)([O-])[O-]

> <PUBCHEM_CACTVS_TPSA>
75.7

> <PUBCHEM_MONOISOTOPIC_WEIGHT>
135.992545

> <PUBCHEM_TOTAL_CHARGE>
-2

> <PUBCHEM_HEAVY_ATOM_COUNT>
8

> <PUBCHEM_ATOM_DEF_STEREO_COUNT>
0

> <PUBCHEM_ATOM_UDEF_STEREO_COUNT>
2

> <PUBCHEM_BOND_DEF_STEREO_COUNT>
0

> <PUBCHEM_BOND_UDEF_STEREO_COUNT>
0

> <PUBCHEM_ISOTOPIC_ATOM_COUNT>
0

> <PUBCHEM_COMPONENT_COUNT>
1

> <PUBCHEM_CACTVS_TAUTO_COUNT>
1

> <PUBCHEM_COORDINATE_TYPE>
1
5
255

> <PUBCHEM_BONDANNOTATIONS>
6  9  3
7  10  3

$$$$

