6951
  -OEChem-06261201372D

 17 17  0     0  0  0  0  0  0999 V2000
    2.8660    0.4400    0.0000 Cl  0  0  0  0  0  0  0  0  0  0  0  0
    6.3301   -1.5600    0.0000 Cl  0  0  0  0  0  0  0  0  0  0  0  0
    5.4641    1.9400    0.0000 O   0  0  0  0  0  0  0  0  0  0  0  0
    3.7320    1.9400    0.0000 O   0  0  0  0  0  0  0  0  0  0  0  0
    2.8660   -2.5600    0.0000 O   0  5  0  0  0  0  0  0  0  0  0  0
    2.0000   -1.0600    0.0000 O   0  0  0  0  0  0  0  0  0  0  0  0
    2.8660   -1.5600    0.0000 N   0  3  0  0  0  0  0  0  0  0  0  0
    4.5981    0.4400    0.0000 C   0  0  0  0  0  0  0  0  0  0  0  0
    3.7320   -1.0600    0.0000 C   0  0  0  0  0  0  0  0  0  0  0  0
    3.7320   -0.0600    0.0000 C   0  0  0  0  0  0  0  0  0  0  0  0
    5.4641   -0.0600    0.0000 C   0  0  0  0  0  0  0  0  0  0  0  0
    4.5981   -1.5600    0.0000 C   0  0  0  0  0  0  0  0  0  0  0  0
    5.4641   -1.0600    0.0000 C   0  0  0  0  0  0  0  0  0  0  0  0
    4.5981    1.4400    0.0000 C   0  0  0  0  0  0  0  0  0  0  0  0
    6.0010    0.2500    0.0000 H   0  0  0  0  0  0  0  0  0  0  0  0
    4.5981   -2.1800    0.0000 H   0  0  0  0  0  0  0  0  0  0  0  0
    5.4641    2.5600    0.0000 H   0  0  0  0  0  0  0  0  0  0  0  0
  1 10  1  0  0  0  0
  2 13  1  0  0  0  0
  3 14  1  0  0  0  0
  3 17  1  0  0  0  0
  4 14  2  0  0  0  0
  5  7  1  0  0  0  0
  6  7  2  0  0  0  0
  7  9  1  0  0  0  0
  8 10  2  0  0  0  0
  8 11  1  0  0  0  0
  8 14  1  0  0  0  0
  9 10  1  0  0  0  0
  9 12  2  0  0  0  0
 11 13  2  0  0  0  0
 11 15  1  0  0  0  0
 12 13  1  0  0  0  0
 12 16  1  0  0  0  0
M  CHG  2   5  -1   7   1
M  END
> <PUBCHEM_COMPOUND_CID>
6951

> <PUBCHEM_COMPOUND_CANONICALIZED>
1

> <PUBCHEM_CACTVS_COMPLEXITY>
255

> <PUBCHEM_CACTVS_HBOND_ACCEPTOR>
4

> <PUBCHEM_CACTVS_HBOND_DONOR>
1

> <PUBCHEM_CACTVS_ROTATABLE_BOND>
1

> <PUBCHEM_CACTVS_SUBSKEYS>
AAADcQBiOAAGAAAAAAAAAAAAAAAAAAAAAAAwAAAAAAAAAAABAAAAHgIECAAADAqBmCAwyIAQQgCJAiTSSwCCAAAkBwAgiAEAbsoIJjKBl5GAcQBkwAEI3Ye8yCCOAAAQYAIBABAAACDABAIAIAAAAAAAAA==

> <PUBCHEM_IUPAC_OPENEYE_NAME>
2,5-dichloro-3-nitro-benzoic acid

> <PUBCHEM_IUPAC_CAS_NAME>
2,5-dichloro-3-nitrobenzoic acid

> <PUBCHEM_IUPAC_NAME>
2,5-dichloro-3-nitrobenzoic acid

> <PUBCHEM_IUPAC_SYSTEMATIC_NAME>
2,5-bis(chloranyl)-3-nitro-benzoic acid

> <PUBCHEM_IUPAC_TRADITIONAL_NAME>
2,5-dichloro-3-nitro-benzoic acid

> <PUBCHEM_IUPAC_INCHI>
InChI=1S/C7H3Cl2NO4/c8-3-1-4(7(11)12)6(9)5(2-3)10(13)14/h1-2H,(H,11,12)

> <PUBCHEM_IUPAC_INCHIKEY>
AUAXYMOBWXOEQD-UHFFFAOYSA-N

> <PUBCHEM_XLOGP3>
3.3

> <PUBCHEM_EXACT_MASS>
234.943913

> <PUBCHEM_MOLECULAR_FORMULA>
C7H3Cl2NO4

> <PUBCHEM_MOLECULAR_WEIGHT>
236.00902

> <PUBCHEM_OPENEYE_CAN_SMILES>
C1=C(C=C(C(=C1[N+](=O)[O-])Cl)C(=O)O)Cl

> <PUBCHEM_OPENEYE_ISO_SMILES>
C1=C(C=C(C(=C1[N+](=O)[O-])Cl)C(=O)O)Cl

> <PUBCHEM_CACTVS_TPSA>
83.1

> <PUBCHEM_MONOISOTOPIC_WEIGHT>
234.943913

> <PUBCHEM_TOTAL_CHARGE>
0

> <PUBCHEM_HEAVY_ATOM_COUNT>
14

> <PUBCHEM_ATOM_DEF_STEREO_COUNT>
0

> <PUBCHEM_ATOM_UDEF_STEREO_COUNT>
0

> <PUBCHEM_BOND_DEF_STEREO_COUNT>
0

> <PUBCHEM_BOND_UDEF_STEREO_COUNT>
0

> <PUBCHEM_ISOTOPIC_ATOM_COUNT>
0

> <PUBCHEM_COMPONENT_COUNT>
1

> <PUBCHEM_CACTVS_TAUTO_COUNT>
1

> <PUBCHEM_COORDINATE_TYPE>
1
5
255

> <PUBCHEM_BONDANNOTATIONS>
11  13  8
12  13  8
8  10  8
8  11  8
9  10  8
9  12  8

$$$$

