582783
  -OEChem-06241222442D

 13 12  0     1  0  0  0  0  0999 V2000
    5.4641    0.8170    0.0000 Cl  0  0  0  0  0  0  0  0  0  0  0  0
    5.0981   -0.5490    0.0000 Cl  0  0  0  0  0  0  0  0  0  0  0  0
    4.0981    1.1830    0.0000 S   0  0  0  0  0  0  0  0  0  0  0  0
    3.3660    1.1830    0.0000 S   0  0  0  0  0  0  0  0  0  0  0  0
    4.5981    0.3170    0.0000 P   0  0  0  0  0  0  0  0  0  0  0  0
    2.8660    0.3170    0.0000 P   0  0  0  0  0  0  0  0  0  0  0  0
    2.0000    0.8170    0.0000 F   0  0  0  0  0  0  0  0  0  0  0  0
    2.3660   -0.5490    0.0000 F   0  0  0  0  0  0  0  0  0  0  0  0
    3.7320   -0.1830    0.0000 N   0  0  3  0  0  0  0  0  0  0  0  0
    3.7320   -1.1830    0.0000 C   0  0  0  0  0  0  0  0  0  0  0  0
    3.1120   -1.1830    0.0000 H   0  0  0  0  0  0  0  0  0  0  0  0
    3.7320   -1.8030    0.0000 H   0  0  0  0  0  0  0  0  0  0  0  0
    4.3520   -1.1830    0.0000 H   0  0  0  0  0  0  0  0  0  0  0  0
  1  5  1  0  0  0  0
  2  5  1  0  0  0  0
  3  5  2  0  0  0  0
  4  6  2  0  0  0  0
  5  9  1  0  0  0  0
  6  7  1  0  0  0  0
  6  8  1  0  0  0  0
  6  9  1  0  0  0  0
  9 10  1  0  0  0  0
 10 11  1  0  0  0  0
 10 12  1  0  0  0  0
 10 13  1  0  0  0  0
M  END
> <PUBCHEM_COMPOUND_CID>
582783

> <PUBCHEM_COMPOUND_CANONICALIZED>
1

> <PUBCHEM_CACTVS_COMPLEXITY>
209

> <PUBCHEM_CACTVS_HBOND_ACCEPTOR>
5

> <PUBCHEM_CACTVS_HBOND_DONOR>
0

> <PUBCHEM_CACTVS_ROTATABLE_BOND>
2

> <PUBCHEM_CACTVS_SUBSKEYS>
AAADcQACAYNmAAAAAAAAAAAAAAAAAAAAAAAAAAAAAAAAAAAAAAAAFAAAgAgAAAAAAAQCAAAAAAAAAAAAAAAAAAAAAAAAAAAAAAAAAAAAAAAAAAAAAAAAAAAAAAAAAAAAAAAAAAAAAAAAAAAAAAAAAAAAAA==

> <PUBCHEM_IUPAC_OPENEYE_NAME>
N-dichlorophosphinothioyl-N-difluorophosphinothioyl-methanamine

> <PUBCHEM_IUPAC_CAS_NAME>
N-dichlorophosphinothioyl-N-difluorophosphinothioylmethanamine

> <PUBCHEM_IUPAC_NAME>
N-dichlorophosphinothioyl-N-difluorophosphinothioylmethanamine

> <PUBCHEM_IUPAC_SYSTEMATIC_NAME>
N-bis(chloranyl)phosphinothioyl-N-bis(fluoranyl)phosphinothioyl-methanamine

> <PUBCHEM_IUPAC_TRADITIONAL_NAME>
dichlorothiophosphoryl-difluorothiophosphoryl-methyl-amine

> <PUBCHEM_IUPAC_INCHI>
InChI=1S/CH3Cl2F2NP2S2/c1-6(7(2,3)9)8(4,5)10/h1H3

> <PUBCHEM_IUPAC_INCHIKEY>
GAZUXINUTIFRNW-UHFFFAOYSA-N

> <PUBCHEM_XLOGP3_AA>
5.1

> <PUBCHEM_EXACT_MASS>
262.852726

> <PUBCHEM_MOLECULAR_FORMULA>
CH3Cl2F2NP2S2

> <PUBCHEM_MOLECULAR_WEIGHT>
264.02155

> <PUBCHEM_OPENEYE_CAN_SMILES>
CN(P(=S)(F)F)P(=S)(Cl)Cl

> <PUBCHEM_OPENEYE_ISO_SMILES>
CN(P(=S)(F)F)P(=S)(Cl)Cl

> <PUBCHEM_CACTVS_TPSA>
67.4

> <PUBCHEM_MONOISOTOPIC_WEIGHT>
262.852726

> <PUBCHEM_TOTAL_CHARGE>
0

> <PUBCHEM_HEAVY_ATOM_COUNT>
10

> <PUBCHEM_ATOM_DEF_STEREO_COUNT>
0

> <PUBCHEM_ATOM_UDEF_STEREO_COUNT>
0

> <PUBCHEM_BOND_DEF_STEREO_COUNT>
0

> <PUBCHEM_BOND_UDEF_STEREO_COUNT>
0

> <PUBCHEM_ISOTOPIC_ATOM_COUNT>
0

> <PUBCHEM_COMPONENT_COUNT>
1

> <PUBCHEM_CACTVS_TAUTO_COUNT>
1

> <PUBCHEM_COORDINATE_TYPE>
1
5
255

$$$$

