3393
  -OEChem-06251223232D

 50 52  0     0  0  0  0  0  0999 V2000
    7.0444    1.7043    0.0000 Cl  0  0  0  0  0  0  0  0  0  0  0  0
    5.5096    2.3932    0.0000 F   0  0  0  0  0  0  0  0  0  0  0  0
    2.0000   -1.0026    0.0000 O   0  0  0  0  0  0  0  0  0  0  0  0
    3.5984   -0.4433    0.0000 N   0  0  0  0  0  0  0  0  0  0  0  0
    3.3104   -3.0734    0.0000 N   0  0  0  0  0  0  0  0  0  0  0  0
    2.6235    1.5811    0.0000 N   0  0  0  0  0  0  0  0  0  0  0  0
    3.8209   -1.4182    0.0000 C   0  0  0  0  0  0  0  0  0  0  0  0
    3.0879   -2.0984    0.0000 C   0  0  0  0  0  0  0  0  0  0  0  0
    4.3802    0.1802    0.0000 C   0  0  0  0  0  0  0  0  0  0  0  0
    2.5774   -3.7535    0.0000 C   0  0  0  0  0  0  0  0  0  0  0  0
    4.2660   -3.3681    0.0000 C   0  0  0  0  0  0  0  0  0  0  0  0
    4.3802    1.1802    0.0000 C   0  0  0  0  0  0  0  0  0  0  0  0
    2.6235   -0.2208    0.0000 C   0  0  0  0  0  0  0  0  0  0  0  0
    3.5984    1.8037    0.0000 C   0  0  0  0  0  0  0  0  0  0  0  0
    2.1896    0.6802    0.0000 C   0  0  0  0  0  0  0  0  0  0  0  0
    5.2742   -0.3545    0.0000 C   0  0  0  0  0  0  0  0  0  0  0  0
    5.2742    1.7148    0.0000 C   0  0  0  0  0  0  0  0  0  0  0  0
    4.4885   -4.3430    0.0000 C   0  0  0  0  0  0  0  0  0  0  0  0
    2.7999   -4.7284    0.0000 C   0  0  0  0  0  0  0  0  0  0  0  0
    3.8209    2.7786    0.0000 C   0  0  0  0  0  0  0  0  0  0  0  0
    6.1803    0.1594    0.0000 C   0  0  0  0  0  0  0  0  0  0  0  0
    6.1803    1.2010    0.0000 C   0  0  0  0  0  0  0  0  0  0  0  0
    4.7765    3.0734    0.0000 C   0  0  0  0  0  0  0  0  0  0  0  0
    3.0879    3.4588    0.0000 C   0  0  0  0  0  0  0  0  0  0  0  0
    4.9990    4.0483    0.0000 C   0  0  0  0  0  0  0  0  0  0  0  0
    3.3104    4.4337    0.0000 C   0  0  0  0  0  0  0  0  0  0  0  0
    4.2660    4.7284    0.0000 C   0  0  0  0  0  0  0  0  0  0  0  0
    4.1573   -1.9391    0.0000 H   0  0  0  0  0  0  0  0  0  0  0  0
    4.3922   -1.1774    0.0000 H   0  0  0  0  0  0  0  0  0  0  0  0
    2.7515   -1.5776    0.0000 H   0  0  0  0  0  0  0  0  0  0  0  0
    2.5166   -2.3392    0.0000 H   0  0  0  0  0  0  0  0  0  0  0  0
    2.2410   -3.2327    0.0000 H   0  0  0  0  0  0  0  0  0  0  0  0
    2.0060   -3.9944    0.0000 H   0  0  0  0  0  0  0  0  0  0  0  0
    4.8852   -3.3372    0.0000 H   0  0  0  0  0  0  0  0  0  0  0  0
    4.3431   -2.7529    0.0000 H   0  0  0  0  0  0  0  0  0  0  0  0
    1.7049    1.0667    0.0000 H   0  0  0  0  0  0  0  0  0  0  0  0
    1.7049    0.2936    0.0000 H   0  0  0  0  0  0  0  0  0  0  0  0
    5.2670   -0.9744    0.0000 H   0  0  0  0  0  0  0  0  0  0  0  0
    5.2670    2.3348    0.0000 H   0  0  0  0  0  0  0  0  0  0  0  0
    3.8840   -4.4810    0.0000 H   0  0  0  0  0  0  0  0  0  0  0  0
    4.6265   -4.9475    0.0000 H   0  0  0  0  0  0  0  0  0  0  0  0
    2.1954   -4.8664    0.0000 H   0  0  0  0  0  0  0  0  0  0  0  0
    2.9378   -5.3329    0.0000 H   0  0  0  0  0  0  0  0  0  0  0  0
    3.4043   -4.5905    0.0000 H   0  0  0  0  0  0  0  0  0  0  0  0
    5.0930   -4.2051    0.0000 H   0  0  0  0  0  0  0  0  0  0  0  0
    6.7160   -0.1527    0.0000 H   0  0  0  0  0  0  0  0  0  0  0  0
    2.4954    3.2760    0.0000 H   0  0  0  0  0  0  0  0  0  0  0  0
    5.5915    4.2310    0.0000 H   0  0  0  0  0  0  0  0  0  0  0  0
    2.8559    4.8554    0.0000 H   0  0  0  0  0  0  0  0  0  0  0  0
    4.4039    5.3329    0.0000 H   0  0  0  0  0  0  0  0  0  0  0  0
  1 22  1  0  0  0  0
  2 23  1  0  0  0  0
  3 13  2  0  0  0  0
  4  7  1  0  0  0  0
  4  9  1  0  0  0  0
  4 13  1  0  0  0  0
  5  8  1  0  0  0  0
  5 10  1  0  0  0  0
  5 11  1  0  0  0  0
  6 14  2  0  0  0  0
  6 15  1  0  0  0  0
  7  8  1  0  0  0  0
  7 28  1  0  0  0  0
  7 29  1  0  0  0  0
  8 30  1  0  0  0  0
  8 31  1  0  0  0  0
  9 12  2  0  0  0  0
  9 16  1  0  0  0  0
 10 19  1  0  0  0  0
 10 32  1  0  0  0  0
 10 33  1  0  0  0  0
 11 18  1  0  0  0  0
 11 34  1  0  0  0  0
 11 35  1  0  0  0  0
 12 14  1  0  0  0  0
 12 17  1  0  0  0  0
 13 15  1  0  0  0  0
 14 20  1  0  0  0  0
 15 36  1  0  0  0  0
 15 37  1  0  0  0  0
 16 21  2  0  0  0  0
 16 38  1  0  0  0  0
 17 22  2  0  0  0  0
 17 39  1  0  0  0  0
 18 40  1  0  0  0  0
 18 41  1  0  0  0  0
 18 45  1  0  0  0  0
 19 42  1  0  0  0  0
 19 43  1  0  0  0  0
 19 44  1  0  0  0  0
 20 23  1  0  0  0  0
 20 24  2  0  0  0  0
 21 22  1  0  0  0  0
 21 46  1  0  0  0  0
 23 25  2  0  0  0  0
 24 26  1  0  0  0  0
 24 47  1  0  0  0  0
 25 27  1  0  0  0  0
 25 48  1  0  0  0  0
 26 27  2  0  0  0  0
 26 49  1  0  0  0  0
 27 50  1  0  0  0  0
M  END
> <PUBCHEM_COMPOUND_CID>
3393

> <PUBCHEM_COMPOUND_CANONICALIZED>
1

> <PUBCHEM_CACTVS_COMPLEXITY>
540

> <PUBCHEM_CACTVS_HBOND_ACCEPTOR>
4

> <PUBCHEM_CACTVS_HBOND_DONOR>
0

> <PUBCHEM_CACTVS_ROTATABLE_BOND>
6

> <PUBCHEM_CACTVS_SUBSKEYS>
AAADceB7IQAEAAAAAAAAAAAAAAAAAAAAAAAwYAAABAAAAAABQAAAHwIAAAAADArBmCwywIMAAACoAyVyVACCAAAhBwAIiACoZpgIYKLBk5GUIAhghgDIyAcQgMAOAABAIAACAAAAAIBAAAQAAAAAAAAAAA==

> <PUBCHEM_IUPAC_OPENEYE_NAME>
7-chloro-1-[2-(diethylamino)ethyl]-5-(2-fluorophenyl)-3H-1,4-benzodiazepin-2-one

> <PUBCHEM_IUPAC_CAS_NAME>
7-chloro-1-[2-(diethylamino)ethyl]-5-(2-fluorophenyl)-3H-1,4-benzodiazepin-2-one

> <PUBCHEM_IUPAC_NAME>
7-chloro-1-[2-(diethylamino)ethyl]-5-(2-fluorophenyl)-3H-1,4-benzodiazepin-2-one

> <PUBCHEM_IUPAC_SYSTEMATIC_NAME>
7-chloranyl-1-[2-(diethylamino)ethyl]-5-(2-fluorophenyl)-3H-1,4-benzodiazepin-2-one

> <PUBCHEM_IUPAC_TRADITIONAL_NAME>
7-chloro-1-[2-(diethylamino)ethyl]-5-(2-fluorophenyl)-3H-1,4-benzodiazepin-2-one

> <PUBCHEM_IUPAC_INCHI>
InChI=1S/C21H23ClFN3O/c1-3-25(4-2)11-12-26-19-10-9-15(22)13-17(19)21(24-14-20(26)27)16-7-5-6-8-18(16)23/h5-10,13H,3-4,11-12,14H2,1-2H3

> <PUBCHEM_IUPAC_INCHIKEY>
SAADBVWGJQAEFS-UHFFFAOYSA-N

> <PUBCHEM_XLOGP3>
3

> <PUBCHEM_EXACT_MASS>
387.151368

> <PUBCHEM_MOLECULAR_FORMULA>
C21H23ClFN3O

> <PUBCHEM_MOLECULAR_WEIGHT>
387.878223

> <PUBCHEM_OPENEYE_CAN_SMILES>
CCN(CC)CCN1C(=O)CN=C(C2=C1C=CC(=C2)Cl)C3=CC=CC=C3F

> <PUBCHEM_OPENEYE_ISO_SMILES>
CCN(CC)CCN1C(=O)CN=C(C2=C1C=CC(=C2)Cl)C3=CC=CC=C3F

> <PUBCHEM_CACTVS_TPSA>
35.9

> <PUBCHEM_MONOISOTOPIC_WEIGHT>
387.151368

> <PUBCHEM_TOTAL_CHARGE>
0

> <PUBCHEM_HEAVY_ATOM_COUNT>
27

> <PUBCHEM_ATOM_DEF_STEREO_COUNT>
0

> <PUBCHEM_ATOM_UDEF_STEREO_COUNT>
0

> <PUBCHEM_BOND_DEF_STEREO_COUNT>
0

> <PUBCHEM_BOND_UDEF_STEREO_COUNT>
0

> <PUBCHEM_ISOTOPIC_ATOM_COUNT>
0

> <PUBCHEM_COMPONENT_COUNT>
1

> <PUBCHEM_CACTVS_TAUTO_COUNT>
2

> <PUBCHEM_COORDINATE_TYPE>
1
5
255

> <PUBCHEM_BONDANNOTATIONS>
12  17  8
16  21  8
17  22  8
20  23  8
20  24  8
21  22  8
23  25  8
24  26  8
25  27  8
26  27  8
9  12  8
9  16  8

$$$$

