12579
  -OEChem-06261207062D

 26 27  0     0  0  0  0  0  0999 V2000
    2.0000    0.8100    0.0000 Cl  0  0  0  0  0  0  0  0  0  0  0  0
    5.4641   -1.1900    0.0000 N   0  0  0  0  0  0  0  0  0  0  0  0
    6.3301    0.3100    0.0000 N   0  0  0  0  0  0  0  0  0  0  0  0
    7.1962   -1.1900    0.0000 N   0  0  0  0  0  0  0  0  0  0  0  0
    8.0622    0.3100    0.0000 N   0  0  0  0  0  0  0  0  0  0  0  0
    8.9282   -1.1900    0.0000 N   0  0  0  0  0  0  0  0  0  0  0  0
    4.5981   -0.6900    0.0000 C   0  0  0  0  0  0  0  0  0  0  0  0
    6.3301   -0.6900    0.0000 C   0  0  0  0  0  0  0  0  0  0  0  0
    4.5981    0.3100    0.0000 C   0  0  0  0  0  0  0  0  0  0  0  0
    3.7320   -1.1900    0.0000 C   0  0  0  0  0  0  0  0  0  0  0  0
    7.1962    0.8100    0.0000 C   0  0  0  0  0  0  0  0  0  0  0  0
    3.7320    0.8100    0.0000 C   0  0  0  0  0  0  0  0  0  0  0  0
    2.8660   -0.6900    0.0000 C   0  0  0  0  0  0  0  0  0  0  0  0
    2.8660    0.3100    0.0000 C   0  0  0  0  0  0  0  0  0  0  0  0
    8.0622   -0.6900    0.0000 C   0  0  0  0  0  0  0  0  0  0  0  0
    7.1962    1.8100    0.0000 C   0  0  0  0  0  0  0  0  0  0  0  0
    5.4641   -1.8100    0.0000 H   0  0  0  0  0  0  0  0  0  0  0  0
    5.1350    0.6200    0.0000 H   0  0  0  0  0  0  0  0  0  0  0  0
    3.7320   -1.8100    0.0000 H   0  0  0  0  0  0  0  0  0  0  0  0
    3.7320    1.4300    0.0000 H   0  0  0  0  0  0  0  0  0  0  0  0
    2.3291   -1.0000    0.0000 H   0  0  0  0  0  0  0  0  0  0  0  0
    7.8162    1.8100    0.0000 H   0  0  0  0  0  0  0  0  0  0  0  0
    7.1962    2.4300    0.0000 H   0  0  0  0  0  0  0  0  0  0  0  0
    6.5762    1.8100    0.0000 H   0  0  0  0  0  0  0  0  0  0  0  0
    9.4651   -0.8800    0.0000 H   0  0  0  0  0  0  0  0  0  0  0  0
    8.9282   -1.8100    0.0000 H   0  0  0  0  0  0  0  0  0  0  0  0
  1 14  1  0  0  0  0
  2  7  1  0  0  0  0
  2  8  1  0  0  0  0
  2 17  1  0  0  0  0
  3  8  2  0  0  0  0
  3 11  1  0  0  0  0
  4  8  1  0  0  0  0
  4 15  2  0  0  0  0
  5 11  2  0  0  0  0
  5 15  1  0  0  0  0
  6 15  1  0  0  0  0
  6 25  1  0  0  0  0
  6 26  1  0  0  0  0
  7  9  2  0  0  0  0
  7 10  1  0  0  0  0
  9 12  1  0  0  0  0
  9 18  1  0  0  0  0
 10 13  2  0  0  0  0
 10 19  1  0  0  0  0
 11 16  1  0  0  0  0
 12 14  2  0  0  0  0
 12 20  1  0  0  0  0
 13 14  1  0  0  0  0
 13 21  1  0  0  0  0
 16 22  1  0  0  0  0
 16 23  1  0  0  0  0
 16 24  1  0  0  0  0
M  END
> <PUBCHEM_COMPOUND_CID>
12579

> <PUBCHEM_COMPOUND_CANONICALIZED>
1

> <PUBCHEM_CACTVS_COMPLEXITY>
219

> <PUBCHEM_CACTVS_HBOND_ACCEPTOR>
5

> <PUBCHEM_CACTVS_HBOND_DONOR>
2

> <PUBCHEM_CACTVS_ROTATABLE_BOND>
2

> <PUBCHEM_CACTVS_SUBSKEYS>
AAADccBzgAAEAAAAAAAAAAAAAAAAAAAAAAA8QAAAAAAAAAABwAAAHAIQAAAACAqBEyAz0IbIEACgACZiZACCgAkhB6AJiAAQZoiIKCLBm5GEIAhokAJIyCcQAAAAAABAAAAAAAAAAIAAAAAAAAAAAAAAAA==

> <PUBCHEM_IUPAC_OPENEYE_NAME>
N2-(4-chlorophenyl)-6-methyl-1,3,5-triazine-2,4-diamine

> <PUBCHEM_IUPAC_CAS_NAME>
N2-(4-chlorophenyl)-6-methyl-1,3,5-triazine-2,4-diamine

> <PUBCHEM_IUPAC_NAME>
2-N-(4-chlorophenyl)-6-methyl-1,3,5-triazine-2,4-diamine

> <PUBCHEM_IUPAC_SYSTEMATIC_NAME>
N2-(4-chlorophenyl)-6-methyl-1,3,5-triazine-2,4-diamine

> <PUBCHEM_IUPAC_TRADITIONAL_NAME>
(4-amino-6-methyl-s-triazin-2-yl)-(4-chlorophenyl)amine

> <PUBCHEM_IUPAC_INCHI>
InChI=1S/C10H10ClN5/c1-6-13-9(12)16-10(14-6)15-8-4-2-7(11)3-5-8/h2-5H,1H3,(H3,12,13,14,15,16)

> <PUBCHEM_IUPAC_INCHIKEY>
PLRXFKRJYXVJHZ-UHFFFAOYSA-N

> <PUBCHEM_XLOGP3_AA>
2.5

> <PUBCHEM_EXACT_MASS>
235.062473

> <PUBCHEM_MOLECULAR_FORMULA>
C10H10ClN5

> <PUBCHEM_MOLECULAR_WEIGHT>
235.6729

> <PUBCHEM_OPENEYE_CAN_SMILES>
CC1=NC(=NC(=N1)NC2=CC=C(C=C2)Cl)N

> <PUBCHEM_OPENEYE_ISO_SMILES>
CC1=NC(=NC(=N1)NC2=CC=C(C=C2)Cl)N

> <PUBCHEM_CACTVS_TPSA>
76.7

> <PUBCHEM_MONOISOTOPIC_WEIGHT>
235.062473

> <PUBCHEM_TOTAL_CHARGE>
0

> <PUBCHEM_HEAVY_ATOM_COUNT>
16

> <PUBCHEM_ATOM_DEF_STEREO_COUNT>
0

> <PUBCHEM_ATOM_UDEF_STEREO_COUNT>
0

> <PUBCHEM_BOND_DEF_STEREO_COUNT>
0

> <PUBCHEM_BOND_UDEF_STEREO_COUNT>
0

> <PUBCHEM_ISOTOPIC_ATOM_COUNT>
0

> <PUBCHEM_COMPONENT_COUNT>
1

> <PUBCHEM_CACTVS_TAUTO_COUNT>
9

> <PUBCHEM_COORDINATE_TYPE>
1
5
255

> <PUBCHEM_BONDANNOTATIONS>
10  13  8
12  14  8
13  14  8
3  11  8
3  8  8
4  15  8
4  8  8
5  11  8
5  15  8
7  10  8
7  9  8
9  12  8

$$$$

