11482
  -OEChem-06261205433D

 36 37  0     0  0  0  0  0  0999 V2000
   -2.6419    0.5414    0.4641 O   0  0  0  0  0  0  0  0  0  0  0  0
   -2.0979   -1.0302   -1.1462 O   0  0  0  0  0  0  0  0  0  0  0  0
    0.8431    1.4497    0.5715 N   0  3  0  0  0  0  0  0  0  0  0  0
   -4.0948   -1.2212    0.0310 N   0  0  0  0  0  0  0  0  0  0  0  0
    2.0478    1.0768    1.3075 C   0  0  0  0  0  0  0  0  0  0  0  0
    2.7838   -0.0390    0.6178 C   0  0  0  0  0  0  0  0  0  0  0  0
   -0.3086    0.8286    0.8602 C   0  0  0  0  0  0  0  0  0  0  0  0
    0.9288    2.4017   -0.3676 C   0  0  0  0  0  0  0  0  0  0  0  0
   -1.4342    1.1827    0.1697 C   0  0  0  0  0  0  0  0  0  0  0  0
    3.7552    0.2630   -0.3275 C   0  0  0  0  0  0  0  0  0  0  0  0
    2.4826   -1.3569    0.9347 C   0  0  0  0  0  0  0  0  0  0  0  0
   -0.2001    2.7776   -1.0817 C   0  0  0  0  0  0  0  0  0  0  0  0
   -1.4100    2.1494   -0.8025 C   0  0  0  0  0  0  0  0  0  0  0  0
    4.4378   -0.7716   -0.9672 C   0  0  0  0  0  0  0  0  0  0  0  0
    3.1652   -2.3915    0.2950 C   0  0  0  0  0  0  0  0  0  0  0  0
    4.1428   -2.0990   -0.6560 C   0  0  0  0  0  0  0  0  0  0  0  0
   -2.8784   -0.6098   -0.2928 C   0  0  0  0  0  0  0  0  0  0  0  0
   -4.5095   -2.4353   -0.6574 C   0  0  0  0  0  0  0  0  0  0  0  0
   -5.0119   -0.7165    1.0476 C   0  0  0  0  0  0  0  0  0  0  0  0
    1.7623    0.7925    2.3284 H   0  0  0  0  0  0  0  0  0  0  0  0
    2.6834    1.9651    1.4147 H   0  0  0  0  0  0  0  0  0  0  0  0
   -0.2957    0.0721    1.6344 H   0  0  0  0  0  0  0  0  0  0  0  0
    1.8967    2.8570   -0.5393 H   0  0  0  0  0  0  0  0  0  0  0  0
    3.9956    1.2925   -0.5767 H   0  0  0  0  0  0  0  0  0  0  0  0
    1.7249   -1.5975    1.6749 H   0  0  0  0  0  0  0  0  0  0  0  0
   -0.1406    3.5477   -1.8433 H   0  0  0  0  0  0  0  0  0  0  0  0
   -2.3064    2.4272   -1.3472 H   0  0  0  0  0  0  0  0  0  0  0  0
    5.1993   -0.5439   -1.7073 H   0  0  0  0  0  0  0  0  0  0  0  0
    2.9358   -3.4250    0.5376 H   0  0  0  0  0  0  0  0  0  0  0  0
    4.6744   -2.9046   -1.1540 H   0  0  0  0  0  0  0  0  0  0  0  0
   -4.6321   -3.2338    0.0801 H   0  0  0  0  0  0  0  0  0  0  0  0
   -3.7738   -2.7491   -1.4021 H   0  0  0  0  0  0  0  0  0  0  0  0
   -5.4642   -2.2480   -1.1574 H   0  0  0  0  0  0  0  0  0  0  0  0
   -5.1441   -1.4881    1.8117 H   0  0  0  0  0  0  0  0  0  0  0  0
   -5.9749   -0.5046    0.5740 H   0  0  0  0  0  0  0  0  0  0  0  0
   -4.6476    0.1940    1.5268 H   0  0  0  0  0  0  0  0  0  0  0  0
  1  9  1  0  0  0  0
  1 17  1  0  0  0  0
  2 17  2  0  0  0  0
  3  5  1  0  0  0  0
  3  7  1  0  0  0  0
  3  8  2  0  0  0  0
  4 17  1  0  0  0  0
  4 18  1  0  0  0  0
  4 19  1  0  0  0  0
  5  6  1  0  0  0  0
  5 20  1  0  0  0  0
  5 21  1  0  0  0  0
  6 10  2  0  0  0  0
  6 11  1  0  0  0  0
  7  9  2  0  0  0  0
  7 22  1  0  0  0  0
  8 12  1  0  0  0  0
  8 23  1  0  0  0  0
  9 13  1  0  0  0  0
 10 14  1  0  0  0  0
 10 24  1  0  0  0  0
 11 15  2  0  0  0  0
 11 25  1  0  0  0  0
 12 13  2  0  0  0  0
 12 26  1  0  0  0  0
 13 27  1  0  0  0  0
 14 16  2  0  0  0  0
 14 28  1  0  0  0  0
 15 16  1  0  0  0  0
 15 29  1  0  0  0  0
 16 30  1  0  0  0  0
 18 31  1  0  0  0  0
 18 32  1  0  0  0  0
 18 33  1  0  0  0  0
 19 34  1  0  0  0  0
 19 35  1  0  0  0  0
 19 36  1  0  0  0  0
M  CHG  1   3   1
M  END
> <PUBCHEM_COMPOUND_CID>
11482

> <PUBCHEM_CONFORMER_RMSD>
0.8

> <PUBCHEM_CONFORMER_DIVERSEORDER>
1
46
73
7
32
72
66
65
30
58
25
22
31
36
62
51
23
28
70
24
3
9
53
37
27
60
43
34
19
17
6
10
49
13
47
59
52
20
2
21
29
26
48
14
8
55
5
15
67
16
54
11
38
42
39
33
18
4
63
71
61
12
44
69
35
41
50
45
57
68
64
40
56

> <PUBCHEM_MMFF94_PARTIAL_CHARGES>
28
1 -0.23
10 -0.15
11 -0.15
12 -0.15
13 -0.15
14 -0.15
15 -0.15
16 -0.15
17 0.78
18 0.3
19 0.3
2 -0.57
22 0.15
23 0.15
24 0.15
25 0.15
26 0.15
27 0.15
28 0.15
29 0.15
3 -0.21
30 0.15
4 -0.66
5 0.63
6 -0.14
7 0.21
8 0.21
9 0.08

> <PUBCHEM_EFFECTIVE_ROTOR_COUNT>
5

> <PUBCHEM_PHARMACOPHORE_FEATURES>
3
1 2 acceptor
6 3 7 8 9 12 13 rings
6 6 10 11 14 15 16 rings

> <PUBCHEM_HEAVY_ATOM_COUNT>
19

> <PUBCHEM_ATOM_DEF_STEREO_COUNT>
0

> <PUBCHEM_ATOM_UDEF_STEREO_COUNT>
0

> <PUBCHEM_BOND_DEF_STEREO_COUNT>
0

> <PUBCHEM_BOND_UDEF_STEREO_COUNT>
0

> <PUBCHEM_ISOTOPIC_ATOM_COUNT>
0

> <PUBCHEM_COMPONENT_COUNT>
1

> <PUBCHEM_CACTVS_TAUTO_COUNT>
1

> <PUBCHEM_CONFORMER_ID>
00002CDA00000001

> <PUBCHEM_MMFF94_ENERGY>
56.9569

> <PUBCHEM_FEATURE_SELFOVERLAP>
15.223

> <PUBCHEM_SHAPE_FINGERPRINT>
10042902 136 18114739330805949935
12403259 327 16153991240372958995
12553582 1 18341338828972608851
12633257 1 16443067187952439159
12769317 202 9510917915800998939
12824470 246 18261107517144015912
12892183 10 17604998005444170217
13103583 49 17313651716255234083
13464513 79 18335420123947677174
13533116 47 18044658586557130451
13583140 156 17023765402630726553
14251731 5 18336264643198414566
14251740 57 18042967567089750119
14251764 30 18131338705527926971
14252887 29 18338524036245293208
14863182 85 17981046314882007076
15239191 94 18261395571989544170
15342816 4 18343868822755968346
15537594 2 18409439284878237823
17492 54 17916006972784427260
17818456 19 18114169861867581297
1813 80 18272933795635530173
19141452 34 18336262465771470865
20281475 54 18410009970151986448
20291156 8 18408605863669778590
20388580 30 18341328894734332845
20645477 70 17913220771543273021
20871999 31 18130789013726688477
21475661 188 9079125461482204730
21713013 43 18267300014250654988
22950370 63 18412535522759826739
23379529 103 18044366360961189446
235170 7 16343988017746930887
23557571 272 18196956537302972008
26353 1 17561368369972661061
2838139 119 12031788028907610198
2871803 45 18343023306724905522
314173 41 18272367516897734251
4463277 69 18261684683586788957
46194498 28 17488468460270925511
5207 123 18410303493123522119
94968 8 18410575076542759874

> <PUBCHEM_SHAPE_MULTIPOLES>
369.31
9.46
3.08
1.17
4.28
0.46
-0.05
-8.68
0.61
0.22
0.85
-0.09
0.08
0.11

> <PUBCHEM_SHAPE_SELFOVERLAP>
780.302

> <PUBCHEM_SHAPE_VOLUME>
207.7

> <PUBCHEM_COORDINATE_TYPE>
2
5
10

$$$$

