583335
  -OEChem-06241222452D

 20 20  0     1  0  0  0  0  0999 V2000
    3.7320    2.4400    0.0000 O   0  0  0  0  0  0  0  0  0  0  0  0
    2.8660   -3.0600    0.0000 N   0  0  0  0  0  0  0  0  0  0  0  0
    2.8660    1.9400    0.0000 C   0  0  3  0  0  0  0  0  0  0  0  0
    2.8660    0.9400    0.0000 C   0  0  0  0  0  0  0  0  0  0  0  0
    2.0000    0.4400    0.0000 C   0  0  0  0  0  0  0  0  0  0  0  0
    3.7320    0.4400    0.0000 C   0  0  0  0  0  0  0  0  0  0  0  0
    2.0000    2.4400    0.0000 C   0  0  0  0  0  0  0  0  0  0  0  0
    2.0000   -0.5600    0.0000 C   0  0  0  0  0  0  0  0  0  0  0  0
    3.7320   -0.5600    0.0000 C   0  0  0  0  0  0  0  0  0  0  0  0
    2.8660   -1.0600    0.0000 C   0  0  0  0  0  0  0  0  0  0  0  0
    2.8660   -2.0600    0.0000 C   0  0  0  0  0  0  0  0  0  0  0  0
    2.8660    2.7900    0.0000 H   0  0  0  0  0  0  0  0  0  0  0  0
    1.4631    0.7500    0.0000 H   0  0  0  0  0  0  0  0  0  0  0  0
    4.2690    0.7500    0.0000 H   0  0  0  0  0  0  0  0  0  0  0  0
    2.3100    2.9769    0.0000 H   0  0  0  0  0  0  0  0  0  0  0  0
    1.4631    2.7500    0.0000 H   0  0  0  0  0  0  0  0  0  0  0  0
    1.6900    1.9031    0.0000 H   0  0  0  0  0  0  0  0  0  0  0  0
    1.4631   -0.8700    0.0000 H   0  0  0  0  0  0  0  0  0  0  0  0
    4.2690   -0.8700    0.0000 H   0  0  0  0  0  0  0  0  0  0  0  0
    3.7320    3.0600    0.0000 H   0  0  0  0  0  0  0  0  0  0  0  0
  1  3  1  0  0  0  0
  1 20  1  0  0  0  0
  2 11  3  0  0  0  0
  3  4  1  0  0  0  0
  3  7  1  0  0  0  0
  3 12  1  0  0  0  0
  4  5  2  0  0  0  0
  4  6  1  0  0  0  0
  5  8  1  0  0  0  0
  5 13  1  0  0  0  0
  6  9  2  0  0  0  0
  6 14  1  0  0  0  0
  7 15  1  0  0  0  0
  7 16  1  0  0  0  0
  7 17  1  0  0  0  0
  8 10  2  0  0  0  0
  8 18  1  0  0  0  0
  9 10  1  0  0  0  0
  9 19  1  0  0  0  0
 10 11  1  0  0  0  0
M  END
> <PUBCHEM_COMPOUND_CID>
583335

> <PUBCHEM_COMPOUND_CANONICALIZED>
1

> <PUBCHEM_CACTVS_COMPLEXITY>
162

> <PUBCHEM_CACTVS_HBOND_ACCEPTOR>
2

> <PUBCHEM_CACTVS_HBOND_DONOR>
1

> <PUBCHEM_CACTVS_ROTATABLE_BOND>
1

> <PUBCHEM_CACTVS_SUBSKEYS>
AAADccByIAAAAAAAAAAAAAAAAAAAAAAAAAAwAAAAAAAAAAABAAAAHgAACAAADBShmAIyAIAAAgCQBiBCAAAiAAAgAAAIiAAACIgItiKAERCAcAAkwAEImA+AwPAOQAAAAAAAAACAAAAAAAAAAAAAAAAAAA==

> <PUBCHEM_IUPAC_OPENEYE_NAME>
4-(1-hydroxyethyl)benzonitrile

> <PUBCHEM_IUPAC_CAS_NAME>
4-(1-hydroxyethyl)benzonitrile

> <PUBCHEM_IUPAC_NAME>
4-(1-hydroxyethyl)benzonitrile

> <PUBCHEM_IUPAC_SYSTEMATIC_NAME>
4-(1-hydroxyethyl)benzenecarbonitrile

> <PUBCHEM_IUPAC_TRADITIONAL_NAME>
4-(1-hydroxyethyl)benzonitrile

> <PUBCHEM_IUPAC_INCHI>
InChI=1S/C9H9NO/c1-7(11)9-4-2-8(6-10)3-5-9/h2-5,7,11H,1H3

> <PUBCHEM_IUPAC_INCHIKEY>
XGAVOODMMBMCKV-UHFFFAOYSA-N

> <PUBCHEM_XLOGP3_AA>
1.2

> <PUBCHEM_EXACT_MASS>
147.068414

> <PUBCHEM_MOLECULAR_FORMULA>
C9H9NO

> <PUBCHEM_MOLECULAR_WEIGHT>
147.17386

> <PUBCHEM_OPENEYE_CAN_SMILES>
CC(C1=CC=C(C=C1)C#N)O

> <PUBCHEM_OPENEYE_ISO_SMILES>
CC(C1=CC=C(C=C1)C#N)O

> <PUBCHEM_CACTVS_TPSA>
44

> <PUBCHEM_MONOISOTOPIC_WEIGHT>
147.068414

> <PUBCHEM_TOTAL_CHARGE>
0

> <PUBCHEM_HEAVY_ATOM_COUNT>
11

> <PUBCHEM_ATOM_DEF_STEREO_COUNT>
0

> <PUBCHEM_ATOM_UDEF_STEREO_COUNT>
1

> <PUBCHEM_BOND_DEF_STEREO_COUNT>
0

> <PUBCHEM_BOND_UDEF_STEREO_COUNT>
0

> <PUBCHEM_ISOTOPIC_ATOM_COUNT>
0

> <PUBCHEM_COMPONENT_COUNT>
1

> <PUBCHEM_CACTVS_TAUTO_COUNT>
1

> <PUBCHEM_COORDINATE_TYPE>
1
5
255

> <PUBCHEM_BONDANNOTATIONS>
3  12  3
4  5  8
4  6  8
5  8  8
6  9  8
8  10  8
9  10  8

$$$$

