4430
  -OEChem-06261200073D

 57 64  0     1  0  0  0  0  0999 V2000
   -0.8962   -1.9691   -1.5608 O   0  0  0  0  0  0  0  0  0  0  0  0
    0.5055    2.3081   -0.7287 O   0  0  0  0  0  0  0  0  0  0  0  0
   -0.9860   -4.5974   -0.3196 O   0  0  0  0  0  0  0  0  0  0  0  0
    2.9769    1.2193   -0.0189 N   0  0  2  0  0  0  0  0  0  0  0  0
   -3.2320   -0.0316   -1.4357 N   0  0  0  0  0  0  0  0  0  0  0  0
    0.5412   -0.1392   -0.8272 C   0  0  1  0  0  0  0  0  0  0  0  0
    0.5156    1.1196    0.0803 C   0  0  1  0  0  0  0  0  0  0  0  0
    1.8372    1.0756    0.9233 C   0  0  1  0  0  0  0  0  0  0  0  0
   -0.7503   -0.5111   -1.6021 C   0  0  2  0  0  0  0  0  0  0  0  0
    1.7743   -0.1096   -1.7589 C   0  0  0  0  0  0  0  0  0  0  0  0
    0.6094   -1.3431    0.0487 C   0  0  0  0  0  0  0  0  0  0  0  0
   -0.7633    1.2281    0.9604 C   0  0  0  0  0  0  0  0  0  0  0  0
    1.9185   -0.1998    1.8367 C   0  0  0  0  0  0  0  0  0  0  0  0
    3.0877    0.1334   -0.9971 C   0  0  0  0  0  0  0  0  0  0  0  0
    1.2825   -1.4370    1.2540 C   0  0  0  0  0  0  0  0  0  0  0  0
   -1.9569    0.0946   -0.9613 C   0  0  0  0  0  0  0  0  0  0  0  0
   -1.9892    0.8794    0.1741 C   0  0  0  0  0  0  0  0  0  0  0  0
    4.2515    1.4743    0.6439 C   0  0  0  0  0  0  0  0  0  0  0  0
   -0.1758   -2.3580   -0.4576 C   0  0  0  0  0  0  0  0  0  0  0  0
    5.3342    1.8303   -0.3537 C   0  0  0  0  0  0  0  0  0  0  0  0
    6.6957    2.1236    0.1631 C   0  0  0  0  0  0  0  0  0  0  0  0
    6.4265    0.8501   -0.5837 C   0  0  0  0  0  0  0  0  0  0  0  0
   -3.3497    1.2314    0.4077 C   0  0  0  0  0  0  0  0  0  0  0  0
    1.2326   -2.6682    1.9089 C   0  0  0  0  0  0  0  0  0  0  0  0
   -0.2318   -3.5827    0.1691 C   0  0  0  0  0  0  0  0  0  0  0  0
   -4.1049    0.6488   -0.6154 C   0  0  0  0  0  0  0  0  0  0  0  0
    0.4950   -3.7373    1.3580 C   0  0  0  0  0  0  0  0  0  0  0  0
   -4.0163    1.9899    1.3916 C   0  0  0  0  0  0  0  0  0  0  0  0
   -5.4946    0.7907   -0.7014 C   0  0  0  0  0  0  0  0  0  0  0  0
   -5.4057    2.1390    1.3170 C   0  0  0  0  0  0  0  0  0  0  0  0
   -6.1317    1.5478    0.2855 C   0  0  0  0  0  0  0  0  0  0  0  0
    1.8506    1.9637    1.5696 H   0  0  0  0  0  0  0  0  0  0  0  0
   -0.6985   -0.2010   -2.6526 H   0  0  0  0  0  0  0  0  0  0  0  0
    1.6430    0.6913   -2.4988 H   0  0  0  0  0  0  0  0  0  0  0  0
    1.8653   -1.0435   -2.3291 H   0  0  0  0  0  0  0  0  0  0  0  0
   -0.8603    2.2511    1.3454 H   0  0  0  0  0  0  0  0  0  0  0  0
   -0.7221    0.5591    1.8262 H   0  0  0  0  0  0  0  0  0  0  0  0
    1.3837    0.0306    2.7679 H   0  0  0  0  0  0  0  0  0  0  0  0
    2.9480   -0.4262    2.1289 H   0  0  0  0  0  0  0  0  0  0  0  0
    3.4157   -0.7959   -0.5151 H   0  0  0  0  0  0  0  0  0  0  0  0
    3.8396    0.3633   -1.7603 H   0  0  0  0  0  0  0  0  0  0  0  0
    4.1393    2.3351    1.3148 H   0  0  0  0  0  0  0  0  0  0  0  0
    4.5715    0.6272    1.2608 H   0  0  0  0  0  0  0  0  0  0  0  0
    4.9913    2.4552   -1.1695 H   0  0  0  0  0  0  0  0  0  0  0  0
   -0.2249    2.2406   -1.3660 H   0  0  0  0  0  0  0  0  0  0  0  0
    6.8776    2.0532    1.2285 H   0  0  0  0  0  0  0  0  0  0  0  0
    7.2764    2.8876   -0.3393 H   0  0  0  0  0  0  0  0  0  0  0  0
    6.8209    0.7616   -1.5887 H   0  0  0  0  0  0  0  0  0  0  0  0
    6.4373   -0.0750   -0.0209 H   0  0  0  0  0  0  0  0  0  0  0  0
   -3.4991   -0.5507   -2.2609 H   0  0  0  0  0  0  0  0  0  0  0  0
    1.7406   -2.8057    2.8596 H   0  0  0  0  0  0  0  0  0  0  0  0
    0.4706   -4.6837    1.8939 H   0  0  0  0  0  0  0  0  0  0  0  0
   -3.4643    2.4570    2.2022 H   0  0  0  0  0  0  0  0  0  0  0  0
   -6.0615    0.3303   -1.5038 H   0  0  0  0  0  0  0  0  0  0  0  0
   -0.8968   -5.3667    0.2688 H   0  0  0  0  0  0  0  0  0  0  0  0
   -5.9230    2.7232    2.0735 H   0  0  0  0  0  0  0  0  0  0  0  0
   -7.2103    1.6764    0.2465 H   0  0  0  0  0  0  0  0  0  0  0  0
  1  9  1  0  0  0  0
  1 19  1  0  0  0  0
  2  7  1  0  0  0  0
  2 45  1  0  0  0  0
  3 25  1  0  0  0  0
  3 55  1  0  0  0  0
  4  8  1  0  0  0  0
  4 14  1  0  0  0  0
  4 18  1  0  0  0  0
  5 16  1  0  0  0  0
  5 26  1  0  0  0  0
  5 50  1  0  0  0  0
  6  7  1  0  0  0  0
  6  9  1  0  0  0  0
  6 10  1  0  0  0  0
  6 11  1  0  0  0  0
  7  8  1  0  0  0  0
  7 12  1  0  0  0  0
  8 13  1  0  0  0  0
  8 32  1  0  0  0  0
  9 16  1  0  0  0  0
  9 33  1  0  0  0  0
 10 14  1  0  0  0  0
 10 34  1  0  0  0  0
 10 35  1  0  0  0  0
 11 15  2  0  0  0  0
 11 19  1  0  0  0  0
 12 17  1  0  0  0  0
 12 36  1  0  0  0  0
 12 37  1  0  0  0  0
 13 15  1  0  0  0  0
 13 38  1  0  0  0  0
 13 39  1  0  0  0  0
 14 40  1  0  0  0  0
 14 41  1  0  0  0  0
 15 24  1  0  0  0  0
 16 17  2  0  0  0  0
 17 23  1  0  0  0  0
 18 20  1  0  0  0  0
 18 42  1  0  0  0  0
 18 43  1  0  0  0  0
 19 25  2  0  0  0  0
 20 21  1  0  0  0  0
 20 22  1  0  0  0  0
 20 44  1  0  0  0  0
 21 22  1  0  0  0  0
 21 46  1  0  0  0  0
 21 47  1  0  0  0  0
 22 48  1  0  0  0  0
 22 49  1  0  0  0  0
 23 26  1  0  0  0  0
 23 28  2  0  0  0  0
 24 27  2  0  0  0  0
 24 51  1  0  0  0  0
 25 27  1  0  0  0  0
 26 29  2  0  0  0  0
 27 52  1  0  0  0  0
 28 30  1  0  0  0  0
 28 53  1  0  0  0  0
 29 31  1  0  0  0  0
 29 54  1  0  0  0  0
 30 31  2  0  0  0  0
 30 56  1  0  0  0  0
 31 57  1  0  0  0  0
M  END
> <PUBCHEM_COMPOUND_CID>
4430

> <PUBCHEM_CONFORMER_RMSD>
0.8

> <PUBCHEM_CONFORMER_DIVERSEORDER>
1
3
7
8
6
12
14
2
9
10
5
4
13
11

> <PUBCHEM_MMFF94_PARTIAL_CHARGES>
43
1 -0.36
11 -0.14
12 0.18
13 0.14
14 0.27
15 -0.14
16 -0.33
17 -0.18
18 0.37
19 0.08
2 -0.68
20 -0.19
21 -0.2
22 -0.2
24 -0.15
25 0.08
26 -0.15
27 -0.15
28 -0.15
29 -0.15
3 -0.53
30 -0.15
31 -0.15
4 -0.81
44 0.1
45 0.4
46 0.1
47 0.1
48 0.1
49 0.1
5 0.03
50 0.27
51 0.15
52 0.15
53 0.15
54 0.15
55 0.45
56 0.15
57 0.15
6 0.14
7 0.28
8 0.27
9 0.46

> <PUBCHEM_EFFECTIVE_ROTOR_COUNT>
3.8

> <PUBCHEM_PHARMACOPHORE_FEATURES>
14
1 1 acceptor
1 2 acceptor
1 2 donor
1 3 donor
1 4 cation
1 5 cation
1 5 donor
5 1 6 9 11 19 rings
5 5 16 17 23 26 rings
6 11 15 19 24 25 27 rings
6 23 26 28 29 30 31 rings
6 4 6 7 8 10 14 rings
6 6 7 8 11 13 15 rings
6 6 7 9 12 16 17 rings

> <PUBCHEM_HEAVY_ATOM_COUNT>
31

> <PUBCHEM_ATOM_DEF_STEREO_COUNT>
0

> <PUBCHEM_ATOM_UDEF_STEREO_COUNT>
4

> <PUBCHEM_BOND_DEF_STEREO_COUNT>
0

> <PUBCHEM_BOND_UDEF_STEREO_COUNT>
0

> <PUBCHEM_ISOTOPIC_ATOM_COUNT>
0

> <PUBCHEM_COMPONENT_COUNT>
1

> <PUBCHEM_CACTVS_TAUTO_COUNT>
3

> <PUBCHEM_CONFORMER_ID>
0000114E00000001

> <PUBCHEM_MMFF94_ENERGY>
104.725

> <PUBCHEM_FEATURE_SELFOVERLAP>
73.331

> <PUBCHEM_SHAPE_FINGERPRINT>
10165383 225 18341896285636640820
10382601 240 18266170811224109873
10674148 151 18113336432306888736
107951 10 18410009901886307550
10906281 52 18188755177203217692
1100329 8 18268431235374843196
11007060 377 18190461567092603776
11445158 3 17985003732504133294
11823591 26 18341059557472350600
1200032 147 17169807085660589249
12047536 79 17758083246326156049
12156800 1 17057204862445652714
12236239 1 18334579057212862053
12597179 24 18335132077834781110
12788726 201 17693927506199188175
12954195 1 18192436272854339702
12977781 61 17751613538860123990
13140716 1 18341612667645556627
13224815 77 17024044829398334909
13631057 29 18266463114546785247
13782708 43 11023291839824473632
14713325 29 18191020093635826734
14790565 3 18410858797740244256
14840074 17 18059860562528286676
14955137 171 17905609157292452194
15131766 46 15336839632566399228
15849732 13 17632573834578994988
15927050 60 18409167697264902582
16114785 44 17771051701810761650
16992610 120 18270664400079630500
16992727 255 5977293170146775155
17980427 23 16916775228871445239
18608769 82 17895192139723240471
20505436 4 18040435529840006341
20587220 17 11377157596750894991
20739085 24 18270118057888788989
21421861 104 17975407229349632633
21424621 283 18334855017873694392
21756936 100 18335987471641654520
21796203 349 17474357637336644963
22149856 69 16154276152668873369
23419403 2 17758628495716879882
23558518 356 17837491851765838908
23559900 14 16081378448834716833
3009799 131 5256402795322167096
3178227 256 18342164553826540329
3380486 145 16965202995205549982
3411729 13 18337105795284248233
3759504 43 18342738468741095378
38570 142 18334571360683734484
394222 165 18189332536433865243
404807 14 15581424112636808798
404807 78 17986670365020814675
4058900 60 18340768255726621761
4073 2 18264491681845703112
4258327 124 17843672271567380244
4340502 62 18059568109408932377
563151 40 18272930484300511594
6669772 16 18409162242956636358
6823239 73 15575012696947095105

> <PUBCHEM_SHAPE_MULTIPOLES>
610.4
11.5
3.82
1.62
2.28
5.43
-0.12
-13.7
-0.29
0.42
-1.08
-0.18
0.44
-1.34

> <PUBCHEM_SHAPE_SELFOVERLAP>
1410.17

> <PUBCHEM_SHAPE_VOLUME>
310.3

> <PUBCHEM_COORDINATE_TYPE>
2
5
10

$$$$

