17396429
  -OEChem-06241222563D

 33 34  0     1  0  0  0  0  0999 V2000
   -0.1029   -1.8092    0.8793 S   0  0  0  0  0  0  0  0  0  0  0  0
    4.0397    2.3254   -0.5090 S   0  0  0  0  0  0  0  0  0  0  0  0
   -2.9530   -2.0798   -0.9103 O   0  0  0  0  0  0  0  0  0  0  0  0
   -0.8357    1.4653    0.3821 O   0  0  0  0  0  0  0  0  0  0  0  0
    2.0169   -0.4831   -0.2715 O   0  0  0  0  0  0  0  0  0  0  0  0
   -2.7368    0.0771   -0.0637 N   0  0  0  0  0  0  0  0  0  0  0  0
   -3.0236    2.1848    0.7671 N   0  0  0  0  0  0  0  0  0  0  0  0
    2.4446   -1.3699    1.7372 N   0  0  0  0  0  0  0  0  0  0  0  0
    3.5944   -0.7442    1.2929 N   0  0  0  0  0  0  0  0  0  0  0  0
   -4.1600    0.2356    0.1940 C   0  0  0  0  0  0  0  0  0  0  0  0
   -4.3522    1.7013    0.5210 C   0  0  0  0  0  0  0  0  0  0  0  0
   -2.2424   -1.1289   -0.5807 C   0  0  0  0  0  0  0  0  0  0  0  0
   -0.7443   -1.2126   -0.7059 C   0  0  2  0  0  0  0  0  0  0  0  0
   -2.0427    1.2631    0.3610 C   0  0  0  0  0  0  0  0  0  0  0  0
   -0.3668   -2.1526   -1.8322 C   0  0  0  0  0  0  0  0  0  0  0  0
    1.5506   -1.1919    0.7928 C   0  0  0  0  0  0  0  0  0  0  0  0
    3.2986   -0.2411    0.1172 C   0  0  0  0  0  0  0  0  0  0  0  0
    4.1383    0.5247   -0.8119 C   0  0  0  0  0  0  0  0  0  0  0  0
    2.4775    2.6361   -1.3593 C   0  0  0  0  0  0  0  0  0  0  0  0
   -4.4171   -0.4038    1.0463 H   0  0  0  0  0  0  0  0  0  0  0  0
   -4.7517   -0.0911   -0.6671 H   0  0  0  0  0  0  0  0  0  0  0  0
   -4.7598    2.2565   -0.3294 H   0  0  0  0  0  0  0  0  0  0  0  0
   -4.9825    1.8655    1.3985 H   0  0  0  0  0  0  0  0  0  0  0  0
   -0.3415   -0.2367   -0.9776 H   0  0  0  0  0  0  0  0  0  0  0  0
   -2.8095    3.1184    1.1031 H   0  0  0  0  0  0  0  0  0  0  0  0
   -0.7112   -3.1786   -1.6555 H   0  0  0  0  0  0  0  0  0  0  0  0
    0.7169   -2.1859   -1.9880 H   0  0  0  0  0  0  0  0  0  0  0  0
   -0.8183   -1.8231   -2.7756 H   0  0  0  0  0  0  0  0  0  0  0  0
    5.1844    0.2322   -0.6727 H   0  0  0  0  0  0  0  0  0  0  0  0
    3.8872    0.3084   -1.8553 H   0  0  0  0  0  0  0  0  0  0  0  0
    2.5294    2.3024   -2.3990 H   0  0  0  0  0  0  0  0  0  0  0  0
    1.6503    2.1364   -0.8509 H   0  0  0  0  0  0  0  0  0  0  0  0
    2.2782    3.7113   -1.3547 H   0  0  0  0  0  0  0  0  0  0  0  0
  1 13  1  0  0  0  0
  1 16  1  0  0  0  0
  2 18  1  0  0  0  0
  2 19  1  0  0  0  0
  3 12  2  0  0  0  0
  4 14  2  0  0  0  0
  5 16  1  0  0  0  0
  5 17  1  0  0  0  0
  6 10  1  0  0  0  0
  6 12  1  0  0  0  0
  6 14  1  0  0  0  0
  7 11  1  0  0  0  0
  7 14  1  0  0  0  0
  7 25  1  0  0  0  0
  8  9  1  0  0  0  0
  8 16  2  0  0  0  0
  9 17  2  0  0  0  0
 10 11  1  0  0  0  0
 10 20  1  0  0  0  0
 10 21  1  0  0  0  0
 11 22  1  0  0  0  0
 11 23  1  0  0  0  0
 12 13  1  0  0  0  0
 13 15  1  0  0  0  0
 13 24  1  0  0  0  0
 15 26  1  0  0  0  0
 15 27  1  0  0  0  0
 15 28  1  0  0  0  0
 17 18  1  0  0  0  0
 18 29  1  0  0  0  0
 18 30  1  0  0  0  0
 19 31  1  0  0  0  0
 19 32  1  0  0  0  0
 19 33  1  0  0  0  0
M  END
> <PUBCHEM_COMPOUND_CID>
17396429

> <PUBCHEM_CONFORMER_RMSD>
1.2

> <PUBCHEM_CONFORMER_DIVERSEORDER>
1
71
9
88
72
82
3
79
63
80
69
28
53
66
48
12
74
49
21
31
35
76
29
50
39
16
75
34
84
42
19
62
90
77
85
6
46
58
36
30
68
94
87
22
38
86
73
25
60
17
83
92
70
47
20
52
81
93
44
89
11
54
61
5
45
51
43
41
23
7
27
37
26
91
40
64
14
67
8
33
13
57
24
78
15
10
59
2
32
65
18
55
4
56

> <PUBCHEM_MMFF94_PARTIAL_CHARGES>
19
1 -0.29
10 0.3
11 0.3
12 0.57
13 0.29
14 0.69
16 0.53
17 0.3
18 0.41
19 0.23
2 -0.46
25 0.37
3 -0.57
4 -0.57
5 -0.28
6 -0.42
7 -0.73
8 -0.34
9 -0.34

> <PUBCHEM_EFFECTIVE_ROTOR_COUNT>
6.8

> <PUBCHEM_PHARMACOPHORE_FEATURES>
7
1 15 hydrophobe
1 19 hydrophobe
1 3 acceptor
1 4 acceptor
1 7 donor
5 5 8 9 16 17 rings
5 6 7 10 11 14 rings

> <PUBCHEM_HEAVY_ATOM_COUNT>
19

> <PUBCHEM_ATOM_DEF_STEREO_COUNT>
0

> <PUBCHEM_ATOM_UDEF_STEREO_COUNT>
1

> <PUBCHEM_BOND_DEF_STEREO_COUNT>
0

> <PUBCHEM_BOND_UDEF_STEREO_COUNT>
0

> <PUBCHEM_ISOTOPIC_ATOM_COUNT>
0

> <PUBCHEM_COMPONENT_COUNT>
1

> <PUBCHEM_CACTVS_TAUTO_COUNT>
2

> <PUBCHEM_CONFORMER_ID>
010972CD00000001

> <PUBCHEM_MMFF94_ENERGY>
30.6397

> <PUBCHEM_FEATURE_SELFOVERLAP>
35.52

> <PUBCHEM_SHAPE_FINGERPRINT>
10498660 4 18186804685886412025
10906281 52 18261666044267617479
11640471 11 18342170034193701508
12173636 292 18114472192498306983
12403259 118 18269845370684230569
12788726 201 18121227476050014495
13583140 156 17631734992942537737
14123250 116 18268424625303655964
14251764 38 17830460479908710280
14341114 328 18343295990146089875
14787075 74 17553199900563861451
14957384 54 18056489580051908357
15342168 16 17560508526236075204
16752209 62 18040726822495036879
17834072 32 18336822078334862373
18186145 218 18202287983249346734
20715895 44 17764596812753280709
21503847 285 18342452660548565044
21864079 5 18340763763127175752
22182937 141 17914887652382178002
22620623 9 16950575324564056999
23227448 37 18343016662383975493
23557571 272 17605002416375745546
23559900 14 17968931036588751910
23598291 2 18413114969819710590
2637199 183 18339347643885438630
38570 142 17986929922483501740
4409770 3 15528825876497049639
44154327 71 18263923405140889033
474 4 17988359248512387660
6034566 193 16554506917965929476
633830 44 18341330071492380206
7064713 232 18189339124571215184
7097593 13 17983871243468462963
7832392 63 18410852132214530716
9981440 41 17765154973986433392

> <PUBCHEM_SHAPE_MULTIPOLES>
361.18
8.5
2.93
1.37
0.54
1.02
-0.13
4.92
0.3
0.14
-0.43
0.55
-0.63
-2.27

> <PUBCHEM_SHAPE_SELFOVERLAP>
715.902

> <PUBCHEM_SHAPE_VOLUME>
218.6

> <PUBCHEM_COORDINATE_TYPE>
2
5
10

$$$$

