12171
  -OEChem-06261206373D

 18 18  0     0  0  0  0  0  0999 V2000
   -3.5152    0.0003   -1.3302 Cl  0  0  0  0  0  0  0  0  0  0  0  0
    3.5147    0.0001   -1.3306 Cl  0  0  0  0  0  0  0  0  0  0  0  0
   -1.3948   -0.0001    0.3323 C   0  0  0  0  0  0  0  0  0  0  0  0
    1.3949    0.0000    0.3328 C   0  0  0  0  0  0  0  0  0  0  0  0
   -0.6975    1.2079    0.3327 C   0  0  0  0  0  0  0  0  0  0  0  0
    0.6974    1.2079    0.3328 C   0  0  0  0  0  0  0  0  0  0  0  0
   -0.6973   -1.2081    0.3323 C   0  0  0  0  0  0  0  0  0  0  0  0
    0.6976   -1.2080    0.3325 C   0  0  0  0  0  0  0  0  0  0  0  0
   -2.8859   -0.0002    0.3328 C   0  0  0  0  0  0  0  0  0  0  0  0
    2.8861    0.0001    0.3327 C   0  0  0  0  0  0  0  0  0  0  0  0
   -1.2292    2.1558    0.3312 H   0  0  0  0  0  0  0  0  0  0  0  0
    1.2291    2.1558    0.3313 H   0  0  0  0  0  0  0  0  0  0  0  0
   -1.2289   -2.1560    0.3305 H   0  0  0  0  0  0  0  0  0  0  0  0
    1.2293   -2.1559    0.3309 H   0  0  0  0  0  0  0  0  0  0  0  0
   -3.2838    0.8810    0.8471 H   0  0  0  0  0  0  0  0  0  0  0  0
   -3.2837   -0.8818    0.8464 H   0  0  0  0  0  0  0  0  0  0  0  0
    3.2842   -0.8812    0.8466 H   0  0  0  0  0  0  0  0  0  0  0  0
    3.2841    0.8816    0.8464 H   0  0  0  0  0  0  0  0  0  0  0  0
  1  9  1  0  0  0  0
  2 10  1  0  0  0  0
  3  5  2  0  0  0  0
  3  7  1  0  0  0  0
  3  9  1  0  0  0  0
  4  6  2  0  0  0  0
  4  8  1  0  0  0  0
  4 10  1  0  0  0  0
  5  6  1  0  0  0  0
  5 11  1  0  0  0  0
  6 12  1  0  0  0  0
  7  8  2  0  0  0  0
  7 13  1  0  0  0  0
  8 14  1  0  0  0  0
  9 15  1  0  0  0  0
  9 16  1  0  0  0  0
 10 17  1  0  0  0  0
 10 18  1  0  0  0  0
M  END
> <PUBCHEM_COMPOUND_CID>
12171

> <PUBCHEM_CONFORMER_RMSD>
0.4

> <PUBCHEM_CONFORMER_DIVERSEORDER>
1
7
2
8
4
3
5
6

> <PUBCHEM_MMFF94_PARTIAL_CHARGES>
14
1 -0.29
10 0.43
11 0.15
12 0.15
13 0.15
14 0.15
2 -0.29
3 -0.14
4 -0.14
5 -0.15
6 -0.15
7 -0.15
8 -0.15
9 0.43

> <PUBCHEM_EFFECTIVE_ROTOR_COUNT>
2

> <PUBCHEM_PHARMACOPHORE_FEATURES>
1
6 3 4 5 6 7 8 rings

> <PUBCHEM_HEAVY_ATOM_COUNT>
10

> <PUBCHEM_ATOM_DEF_STEREO_COUNT>
0

> <PUBCHEM_ATOM_UDEF_STEREO_COUNT>
0

> <PUBCHEM_BOND_DEF_STEREO_COUNT>
0

> <PUBCHEM_BOND_UDEF_STEREO_COUNT>
0

> <PUBCHEM_ISOTOPIC_ATOM_COUNT>
0

> <PUBCHEM_COMPONENT_COUNT>
1

> <PUBCHEM_CACTVS_TAUTO_COUNT>
1

> <PUBCHEM_CONFORMER_ID>
00002F8B00000001

> <PUBCHEM_MMFF94_ENERGY>
19.7122

> <PUBCHEM_FEATURE_SELFOVERLAP>
5.074

> <PUBCHEM_SHAPE_FINGERPRINT>
11206711 2 18339081591767419117
11769659 78 15647055975226022717
12032990 46 18334848390401215179
12138202 97 17775566420871512755
12897270 3 18411138047522533689
12932764 1 17917434181288623091
13380536 243 18202568358281724582
14350558 41 15647050434765800621
14911166 2 18410856551049855156
14993402 34 18410575076073144511
15310529 11 16702304541975299816
16945 1 18410856559639789858
18186145 218 18411981338586827565
20645476 183 17632005356702099906
20653085 51 16486678196003242484
21040471 1 18412547591359355434
21293036 1 18412824668278927324
23235685 24 18342175570111010425
23402539 116 18187930620611890124
23402655 69 18267886037180282517
23552423 10 18055912096060746760
23559900 14 18337663136917586540
2748010 2 18122343467265818899
449060 23 17603584144727541565

> <PUBCHEM_SHAPE_MULTIPOLES>
209.53
5.48
1.2
1.09
0
0
-0.47
0
-2.68
0
0.19
0
0
0

> <PUBCHEM_SHAPE_SELFOVERLAP>
408.643

> <PUBCHEM_SHAPE_VOLUME>
124.1

> <PUBCHEM_COORDINATE_TYPE>
2
5
10

$$$$

