11378
  -OEChem-06261205363D

 18 19  0     0  0  0  0  0  0999 V2000
   -3.3320    0.7694    0.0005 O   0  0  0  0  0  0  0  0  0  0  0  0
    1.3952    1.4574   -0.0005 N   0  0  0  0  0  0  0  0  0  0  0  0
    0.2423    0.6891   -0.0003 C   0  0  0  0  0  0  0  0  0  0  0  0
    0.4239   -0.7817   -0.0001 C   0  0  0  0  0  0  0  0  0  0  0  0
   -1.0038    1.1926    0.0000 C   0  0  0  0  0  0  0  0  0  0  0  0
   -0.7307   -1.6614   -0.0005 C   0  0  0  0  0  0  0  0  0  0  0  0
    1.6788   -1.2886    0.0003 C   0  0  0  0  0  0  0  0  0  0  0  0
   -2.1974    0.3034    0.0003 C   0  0  0  0  0  0  0  0  0  0  0  0
   -1.9738   -1.1658   -0.0002 C   0  0  0  0  0  0  0  0  0  0  0  0
    2.6522    0.9065    0.0001 C   0  0  0  0  0  0  0  0  0  0  0  0
    2.8454   -0.4208    0.0005 C   0  0  0  0  0  0  0  0  0  0  0  0
   -1.1852    2.2623    0.0000 H   0  0  0  0  0  0  0  0  0  0  0  0
   -0.5779   -2.7362   -0.0008 H   0  0  0  0  0  0  0  0  0  0  0  0
    1.3096    2.4665   -0.0004 H   0  0  0  0  0  0  0  0  0  0  0  0
    1.8669   -2.3581    0.0005 H   0  0  0  0  0  0  0  0  0  0  0  0
   -2.8426   -1.8137   -0.0004 H   0  0  0  0  0  0  0  0  0  0  0  0
    3.4615    1.6251    0.0002 H   0  0  0  0  0  0  0  0  0  0  0  0
    3.8348   -0.8604    0.0010 H   0  0  0  0  0  0  0  0  0  0  0  0
  1  8  2  0  0  0  0
  2  3  1  0  0  0  0
  2 10  1  0  0  0  0
  2 14  1  0  0  0  0
  3  4  1  0  0  0  0
  3  5  2  0  0  0  0
  4  6  1  0  0  0  0
  4  7  2  0  0  0  0
  5  8  1  0  0  0  0
  5 12  1  0  0  0  0
  6  9  2  0  0  0  0
  6 13  1  0  0  0  0
  7 11  1  0  0  0  0
  7 15  1  0  0  0  0
  8  9  1  0  0  0  0
  9 16  1  0  0  0  0
 10 11  2  0  0  0  0
 10 17  1  0  0  0  0
 11 18  1  0  0  0  0
M  END
> <PUBCHEM_COMPOUND_CID>
11378

> <PUBCHEM_CONFORMER_RMSD>
0.4

> <PUBCHEM_CONFORMER_DIVERSEORDER>
1

> <PUBCHEM_MMFF94_PARTIAL_CHARGES>
17
1 -0.57
10 -0.05
11 -0.15
12 0.15
13 0.15
14 0.4
15 0.15
16 0.15
17 0.15
18 0.15
2 -0.6
3 0.1
5 -0.14
6 -0.15
7 -0.15
8 0.54
9 -0.14

> <PUBCHEM_EFFECTIVE_ROTOR_COUNT>
0

> <PUBCHEM_PHARMACOPHORE_FEATURES>
5
1 1 acceptor
1 2 cation
1 2 donor
6 2 3 4 7 10 11 rings
6 3 4 5 6 8 9 rings

> <PUBCHEM_HEAVY_ATOM_COUNT>
11

> <PUBCHEM_ATOM_DEF_STEREO_COUNT>
0

> <PUBCHEM_ATOM_UDEF_STEREO_COUNT>
0

> <PUBCHEM_BOND_DEF_STEREO_COUNT>
0

> <PUBCHEM_BOND_UDEF_STEREO_COUNT>
0

> <PUBCHEM_ISOTOPIC_ATOM_COUNT>
0

> <PUBCHEM_COMPONENT_COUNT>
1

> <PUBCHEM_CACTVS_TAUTO_COUNT>
3

> <PUBCHEM_CONFORMER_ID>
00002C7200000001

> <PUBCHEM_MMFF94_ENERGY>
31.0725

> <PUBCHEM_FEATURE_SELFOVERLAP>
25.398

> <PUBCHEM_SHAPE_FINGERPRINT>
12524768 44 18337104665449471086
12897270 3 18410012130462182660
13380535 76 18410015437550447535
14325111 11 18410855443022334017
15775835 57 18341607114125703060
16945 1 18410855490250994118
17844478 74 18060409223272765313
193761 8 17762338020193786341
19973954 147 18339358548358977638
20201158 50 18336265725292757334
20871998 184 18115864097052513583
21040471 1 18410575046071676774
21501502 16 18339082583841248998
23235685 24 18409173228870666185
23402655 69 18335433412856293701
23463225 33 18342180011566318746
23552423 10 18200030634052954806
23559900 14 18334568041808138684
241688 4 17183054185797291362
2748010 2 18338516309519746174
369184 2 18411983546205117067
5084963 1 18114747143324632352
528886 8 18410016537067005906
53812653 166 18334582317367034792

> <PUBCHEM_SHAPE_MULTIPOLES>
215.52
4.21
1.69
0.6
0.33
0.2
0
-0.63
0
0.02
0
-0.02
0.02
0

> <PUBCHEM_SHAPE_SELFOVERLAP>
469.045

> <PUBCHEM_SHAPE_VOLUME>
116

> <PUBCHEM_COORDINATE_TYPE>
2
5
10

$$$$

