9464
  -OEChem-06261203433D

 25 26  0     0  0  0  0  0  0999 V2000
   -5.5396   -0.1706    0.0065 F   0  0  0  0  0  0  0  0  0  0  0  0
   -3.3059    1.2348   -0.0024 O   0  0  0  0  0  0  0  0  0  0  0  0
   -1.9831   -0.7162   -0.0010 N   0  0  0  0  0  0  0  0  0  0  0  0
    1.7218   -0.6452   -0.0001 C   0  0  0  0  0  0  0  0  0  0  0  0
    1.9567    0.7503    0.0004 C   0  0  0  0  0  0  0  0  0  0  0  0
   -0.6755   -0.2295   -0.0006 C   0  0  0  0  0  0  0  0  0  0  0  0
    0.3996   -1.1189   -0.0007 C   0  0  0  0  0  0  0  0  0  0  0  0
    0.8628    1.6311    0.0000 C   0  0  0  0  0  0  0  0  0  0  0  0
   -0.4443    1.1430   -0.0005 C   0  0  0  0  0  0  0  0  0  0  0  0
    2.8158   -1.5258   -0.0001 C   0  0  0  0  0  0  0  0  0  0  0  0
    3.2787    1.2242    0.0008 C   0  0  0  0  0  0  0  0  0  0  0  0
    4.1227   -1.0375    0.0006 C   0  0  0  0  0  0  0  0  0  0  0  0
    4.3538    0.3350    0.0011 C   0  0  0  0  0  0  0  0  0  0  0  0
   -3.1784    0.0149   -0.0019 C   0  0  0  0  0  0  0  0  0  0  0  0
   -4.3850   -0.8896   -0.0021 C   0  0  0  0  0  0  0  0  0  0  0  0
    0.2103   -2.1914   -0.0011 H   0  0  0  0  0  0  0  0  0  0  0  0
    1.0214    2.7077    0.0002 H   0  0  0  0  0  0  0  0  0  0  0  0
   -1.2237    1.8921   -0.0004 H   0  0  0  0  0  0  0  0  0  0  0  0
    2.6591   -2.6025   -0.0005 H   0  0  0  0  0  0  0  0  0  0  0  0
    3.4829    2.2929    0.0011 H   0  0  0  0  0  0  0  0  0  0  0  0
   -2.0690   -1.7305   -0.0010 H   0  0  0  0  0  0  0  0  0  0  0  0
    4.9600   -1.7293    0.0007 H   0  0  0  0  0  0  0  0  0  0  0  0
    5.3715    0.7145    0.0017 H   0  0  0  0  0  0  0  0  0  0  0  0
   -4.3747   -1.5244    0.8884 H   0  0  0  0  0  0  0  0  0  0  0  0
   -4.3815   -1.5142   -0.8997 H   0  0  0  0  0  0  0  0  0  0  0  0
  1 15  1  0  0  0  0
  2 14  2  0  0  0  0
  3  6  1  0  0  0  0
  3 14  1  0  0  0  0
  3 21  1  0  0  0  0
  4  5  1  0  0  0  0
  4  7  1  0  0  0  0
  4 10  2  0  0  0  0
  5  8  1  0  0  0  0
  5 11  2  0  0  0  0
  6  7  2  0  0  0  0
  6  9  1  0  0  0  0
  7 16  1  0  0  0  0
  8  9  2  0  0  0  0
  8 17  1  0  0  0  0
  9 18  1  0  0  0  0
 10 12  1  0  0  0  0
 10 19  1  0  0  0  0
 11 13  1  0  0  0  0
 11 20  1  0  0  0  0
 12 13  2  0  0  0  0
 12 22  1  0  0  0  0
 13 23  1  0  0  0  0
 14 15  1  0  0  0  0
 15 24  1  0  0  0  0
 15 25  1  0  0  0  0
M  END
> <PUBCHEM_COMPOUND_CID>
9464

> <PUBCHEM_CONFORMER_RMSD>
0.6

> <PUBCHEM_CONFORMER_DIVERSEORDER>
1
4
5
6
2
3

> <PUBCHEM_MMFF94_PARTIAL_CHARGES>
21
1 -0.34
10 -0.15
11 -0.15
12 -0.15
13 -0.15
14 0.57
15 0.4
16 0.15
17 0.15
18 0.15
19 0.15
2 -0.57
20 0.15
21 0.37
22 0.15
23 0.15
3 -0.55
6 0.12
7 -0.15
8 -0.15
9 -0.15

> <PUBCHEM_EFFECTIVE_ROTOR_COUNT>
3

> <PUBCHEM_PHARMACOPHORE_FEATURES>
4
1 2 acceptor
1 3 donor
6 4 5 10 11 12 13 rings
6 4 5 6 7 8 9 rings

> <PUBCHEM_HEAVY_ATOM_COUNT>
15

> <PUBCHEM_ATOM_DEF_STEREO_COUNT>
0

> <PUBCHEM_ATOM_UDEF_STEREO_COUNT>
0

> <PUBCHEM_BOND_DEF_STEREO_COUNT>
0

> <PUBCHEM_BOND_UDEF_STEREO_COUNT>
0

> <PUBCHEM_ISOTOPIC_ATOM_COUNT>
0

> <PUBCHEM_COMPONENT_COUNT>
1

> <PUBCHEM_CACTVS_TAUTO_COUNT>
2

> <PUBCHEM_CONFORMER_ID>
000024F800000001

> <PUBCHEM_MMFF94_ENERGY>
41.9959

> <PUBCHEM_FEATURE_SELFOVERLAP>
20.324

> <PUBCHEM_SHAPE_FINGERPRINT>
11471102 20 18411702071586992148
11806522 49 18411138021747422605
12032990 46 18410571820741154598
12236239 1 17821445751274598643
13690532 89 18410293622576551419
13862211 1 18411142454491827874
14115302 16 17774993566507079414
14251717 144 18410293605544622142
14252887 29 18040708191053546110
15196674 1 18410856598294729093
15536298 74 18334295366412347552
16945 1 18410576172070526572
17834072 33 18334860480918574911
18186145 218 17917997199745340502
18522853 276 18334575741861749233
200 152 18187086169363243633
20279233 1 17988917864400500939
20645477 70 18410012173612835486
21267235 1 18409721880973119046
21501925 9 18410015446409030810
221490 88 18197773298179652819
23402539 116 18041003938570377037
23402655 69 18408891754490054789
23463225 33 18411136961323114668
23557571 272 17346604105403879205
2748010 2 18266465493641902884
2871803 45 18272937145409145683
33824 294 18412827997427643202
42 15 18411417310875929943
4214541 1 18410856603085646497
4990 188 18113609101919764590
5104073 3 18410012169127542641
522135 26 18412262835338866670
537710 114 18409725145401387172
69090 78 18408606933364840991
7364860 26 18264208024202809640
77779 3 18410854365259654447
8809292 202 18201715111763430579

> <PUBCHEM_SHAPE_MULTIPOLES>
290.57
9.25
1.56
0.6
8.5
0.16
0
-1.38
-0.01
-0.74
0
-0.08
0
0

> <PUBCHEM_SHAPE_SELFOVERLAP>
628.742

> <PUBCHEM_SHAPE_VOLUME>
159

> <PUBCHEM_COORDINATE_TYPE>
2
5
10

$$$$

