583440
  -OEChem-06241222453D

 28 29  0     0  0  0  0  0  0999 V2000
   -2.6951    2.2924   -0.5639 O   0  0  0  0  0  0  0  0  0  0  0  0
    3.5154    1.2514   -0.0698 O   0  0  0  0  0  0  0  0  0  0  0  0
   -0.8283    1.0941   -0.0276 N   0  0  0  0  0  0  0  0  0  0  0  0
    2.2436   -0.7383   -0.0129 N   0  0  0  0  0  0  0  0  0  0  0  0
   -1.3296   -0.2136    0.0076 C   0  0  0  0  0  0  0  0  0  0  0  0
   -0.2361   -1.0908    0.0186 C   0  0  0  0  0  0  0  0  0  0  0  0
    0.9372   -0.3029   -0.0114 C   0  0  0  0  0  0  0  0  0  0  0  0
    0.5528    1.0140   -0.0397 C   0  0  0  0  0  0  0  0  0  0  0  0
   -0.4606   -2.4832    0.0542 C   0  0  0  0  0  0  0  0  0  0  0  0
   -2.6472   -0.7113    0.0309 C   0  0  0  0  0  0  0  0  0  0  0  0
   -1.5871    2.2813   -0.0471 C   0  0  0  0  0  0  0  0  0  0  0  0
   -1.7679   -2.9719    0.0775 C   0  0  0  0  0  0  0  0  0  0  0  0
   -2.8453   -2.0955    0.0657 C   0  0  0  0  0  0  0  0  0  0  0  0
   -0.9505    3.4791    0.5936 C   0  0  0  0  0  0  0  0  0  0  0  0
    3.4300    0.0279   -0.0426 C   0  0  0  0  0  0  0  0  0  0  0  0
    4.6685   -0.8326   -0.0332 C   0  0  0  0  0  0  0  0  0  0  0  0
    1.1379    1.9220   -0.0773 H   0  0  0  0  0  0  0  0  0  0  0  0
    0.3732   -3.1800    0.0635 H   0  0  0  0  0  0  0  0  0  0  0  0
   -3.5042   -0.0457    0.0297 H   0  0  0  0  0  0  0  0  0  0  0  0
    2.3522   -1.7496    0.0107 H   0  0  0  0  0  0  0  0  0  0  0  0
   -1.9417   -4.0439    0.1052 H   0  0  0  0  0  0  0  0  0  0  0  0
   -3.8584   -2.4888    0.0856 H   0  0  0  0  0  0  0  0  0  0  0  0
   -1.7189    4.2375    0.7725 H   0  0  0  0  0  0  0  0  0  0  0  0
   -0.1922    3.9030   -0.0696 H   0  0  0  0  0  0  0  0  0  0  0  0
   -0.5102    3.2145    1.5589 H   0  0  0  0  0  0  0  0  0  0  0  0
    4.7187   -1.3931    0.9044 H   0  0  0  0  0  0  0  0  0  0  0  0
    5.5585   -0.2036   -0.1219 H   0  0  0  0  0  0  0  0  0  0  0  0
    4.6422   -1.5303   -0.8749 H   0  0  0  0  0  0  0  0  0  0  0  0
  1 11  2  0  0  0  0
  2 15  2  0  0  0  0
  3  5  1  0  0  0  0
  3  8  1  0  0  0  0
  3 11  1  0  0  0  0
  4  7  1  0  0  0  0
  4 15  1  0  0  0  0
  4 20  1  0  0  0  0
  5  6  1  0  0  0  0
  5 10  2  0  0  0  0
  6  7  1  0  0  0  0
  6  9  2  0  0  0  0
  7  8  2  0  0  0  0
  8 17  1  0  0  0  0
  9 12  1  0  0  0  0
  9 18  1  0  0  0  0
 10 13  1  0  0  0  0
 10 19  1  0  0  0  0
 11 14  1  0  0  0  0
 12 13  2  0  0  0  0
 12 21  1  0  0  0  0
 13 22  1  0  0  0  0
 14 23  1  0  0  0  0
 14 24  1  0  0  0  0
 14 25  1  0  0  0  0
 15 16  1  0  0  0  0
 16 26  1  0  0  0  0
 16 27  1  0  0  0  0
 16 28  1  0  0  0  0
M  END
> <PUBCHEM_COMPOUND_CID>
583440

> <PUBCHEM_CONFORMER_RMSD>
0.6

> <PUBCHEM_CONFORMER_DIVERSEORDER>
1
3
5
2
4

> <PUBCHEM_MMFF94_PARTIAL_CHARGES>
21
1 -0.57
10 -0.15
11 0.52
12 -0.15
13 -0.15
14 0.06
15 0.57
16 0.06
17 0.15
18 0.15
19 0.15
2 -0.57
20 0.37
21 0.15
22 0.15
3 0.29
4 -0.49
5 -0.15
7 0.06
8 -0.3
9 -0.15

> <PUBCHEM_EFFECTIVE_ROTOR_COUNT>
3

> <PUBCHEM_PHARMACOPHORE_FEATURES>
5
1 1 acceptor
1 2 acceptor
1 4 donor
5 3 5 6 7 8 rings
6 5 6 9 10 12 13 rings

> <PUBCHEM_HEAVY_ATOM_COUNT>
16

> <PUBCHEM_ATOM_DEF_STEREO_COUNT>
0

> <PUBCHEM_ATOM_UDEF_STEREO_COUNT>
0

> <PUBCHEM_BOND_DEF_STEREO_COUNT>
0

> <PUBCHEM_BOND_UDEF_STEREO_COUNT>
0

> <PUBCHEM_ISOTOPIC_ATOM_COUNT>
0

> <PUBCHEM_COMPONENT_COUNT>
1

> <PUBCHEM_CACTVS_TAUTO_COUNT>
2

> <PUBCHEM_CONFORMER_ID>
0008E71000000001

> <PUBCHEM_MMFF94_ENERGY>
41.0416

> <PUBCHEM_FEATURE_SELFOVERLAP>
25.46

> <PUBCHEM_SHAPE_FINGERPRINT>
10319926 262 18191612872896404738
10608611 8 18335424565081017816
10967382 1 18339080526599237509
12173636 292 18338520871060241148
13027679 85 18267586797680362231
13140716 1 18266731394571456147
13380535 76 18192999446013613366
14178342 30 18269292286724297498
14790565 3 18337944692977352209
15042514 8 18412257341975832299
15490181 8 17833841838465684771
16752209 62 18340782506095735426
16945 1 18411420596241315123
193761 8 18050567640653235323
19591789 44 17546157971153749270
20510252 161 18335420175170780432
20711985 365 18411981347477163230
20871998 184 18260544489744286470
21029758 11 18264777549824624423
21029758 27 18125710193788406715
21296965 67 18194965145334554723
21524375 3 17984699188798496584
2297311 6 18264473023990480006
2306618 200 18187639228196997306
2334 1 17834673799179262063
23402539 116 18261116236334191831
23419403 2 17387432163456883801
23557571 272 18334566915973124436
23558518 356 18270673289981378986
23559900 14 18408609132931077672
23598294 1 18341339967107073410
2748010 2 18051397763273459615
3071541 12 17473258778305675689
3091708 16 9347768033668819401
352729 6 18338236097258100212
54173680 148 18411136913640591986
559249 180 18198627829774857458
68521 5 18411697647449040919
7364860 26 17400358945328243955
81228 2 18340189830683935258
84936 182 17324656955560388296
9709674 26 18334292106743680070

> <PUBCHEM_SHAPE_MULTIPOLES>
307.57
5.73
3.69
0.63
8.04
1.84
0.01
-1.54
-0.23
-3.38
0.33
-0.08
0.09
0.15

> <PUBCHEM_SHAPE_SELFOVERLAP>
660.288

> <PUBCHEM_SHAPE_VOLUME>
171.6

> <PUBCHEM_COORDINATE_TYPE>
2
5
10

$$$$

