12126
  -OEChem-06261206343D

 22 22  0     0  0  0  0  0  0999 V2000
    2.2201    0.6068   -0.4440 O   0  0  0  0  0  0  0  0  0  0  0  0
   -3.6859   -0.0760    0.2460 O   0  0  0  0  0  0  0  0  0  0  0  0
   -2.7146    1.9592   -0.0386 O   0  0  0  0  0  0  0  0  0  0  0  0
    1.0433   -0.0514   -0.2594 C   0  0  0  0  0  0  0  0  0  0  0  0
   -1.3590   -0.0119   -0.0063 C   0  0  0  0  0  0  0  0  0  0  0  0
   -0.1530    0.6629   -0.1957 C   0  0  0  0  0  0  0  0  0  0  0  0
    1.0337   -1.4405   -0.1337 C   0  0  0  0  0  0  0  0  0  0  0  0
    3.3891    0.0193    0.1255 C   0  0  0  0  0  0  0  0  0  0  0  0
   -1.3686   -1.4011    0.1194 C   0  0  0  0  0  0  0  0  0  0  0  0
   -0.1723   -2.1155    0.0556 C   0  0  0  0  0  0  0  0  0  0  0  0
    4.3737    1.1159    0.4714 C   0  0  0  0  0  0  0  0  0  0  0  0
   -2.6066    0.7325    0.0599 C   0  0  0  0  0  0  0  0  0  0  0  0
   -0.1302    1.7455   -0.2951 H   0  0  0  0  0  0  0  0  0  0  0  0
    3.1633   -0.5238    1.0518 H   0  0  0  0  0  0  0  0  0  0  0  0
    3.8382   -0.6661   -0.6018 H   0  0  0  0  0  0  0  0  0  0  0  0
    1.9386   -2.0366   -0.2052 H   0  0  0  0  0  0  0  0  0  0  0  0
   -2.2844   -1.9666    0.2665 H   0  0  0  0  0  0  0  0  0  0  0  0
   -0.1803   -3.1978    0.1470 H   0  0  0  0  0  0  0  0  0  0  0  0
    5.2887    0.6994    0.9018 H   0  0  0  0  0  0  0  0  0  0  0  0
    4.6351    1.6947   -0.4206 H   0  0  0  0  0  0  0  0  0  0  0  0
    3.9337    1.8177    1.1878 H   0  0  0  0  0  0  0  0  0  0  0  0
   -4.5219    0.4354    0.2886 H   0  0  0  0  0  0  0  0  0  0  0  0
  1  4  1  0  0  0  0
  1  8  1  0  0  0  0
  2 12  1  0  0  0  0
  2 22  1  0  0  0  0
  3 12  2  0  0  0  0
  4  6  1  0  0  0  0
  4  7  2  0  0  0  0
  5  6  2  0  0  0  0
  5  9  1  0  0  0  0
  5 12  1  0  0  0  0
  6 13  1  0  0  0  0
  7 10  1  0  0  0  0
  7 16  1  0  0  0  0
  8 11  1  0  0  0  0
  8 14  1  0  0  0  0
  8 15  1  0  0  0  0
  9 10  2  0  0  0  0
  9 17  1  0  0  0  0
 10 18  1  0  0  0  0
 11 19  1  0  0  0  0
 11 20  1  0  0  0  0
 11 21  1  0  0  0  0
M  END
> <PUBCHEM_COMPOUND_CID>
12126

> <PUBCHEM_CONFORMER_RMSD>
0.6

> <PUBCHEM_CONFORMER_DIVERSEORDER>
1
4
7
5
3
2
9
8
6

> <PUBCHEM_MMFF94_PARTIAL_CHARGES>
16
1 -0.36
10 -0.15
12 0.63
13 0.15
16 0.15
17 0.15
18 0.15
2 -0.65
22 0.5
3 -0.57
4 0.08
5 0.09
6 -0.15
7 -0.15
8 0.28
9 -0.15

> <PUBCHEM_EFFECTIVE_ROTOR_COUNT>
3

> <PUBCHEM_PHARMACOPHORE_FEATURES>
5
1 1 acceptor
1 2 acceptor
1 3 acceptor
3 2 3 12 anion
6 4 5 6 7 9 10 rings

> <PUBCHEM_HEAVY_ATOM_COUNT>
12

> <PUBCHEM_ATOM_DEF_STEREO_COUNT>
0

> <PUBCHEM_ATOM_UDEF_STEREO_COUNT>
0

> <PUBCHEM_BOND_DEF_STEREO_COUNT>
0

> <PUBCHEM_BOND_UDEF_STEREO_COUNT>
0

> <PUBCHEM_ISOTOPIC_ATOM_COUNT>
0

> <PUBCHEM_COMPONENT_COUNT>
1

> <PUBCHEM_CACTVS_TAUTO_COUNT>
1

> <PUBCHEM_CONFORMER_ID>
00002F5E00000001

> <PUBCHEM_MMFF94_ENERGY>
36.7974

> <PUBCHEM_FEATURE_SELFOVERLAP>
25.429

> <PUBCHEM_SHAPE_FINGERPRINT>
10608611 8 18408885165619923276
11543360 7 15719686380673598092
12251169 10 18201721717502005892
12346645 44 18410012164821973008
13380535 76 18411699885074592279
14325111 11 18410854399329300996
14897335 6 18410016545767950582
15775835 57 18407759244000666042
16945 1 18341036433268208647
17846911 113 18408326575005527544
18186145 218 18041830822421555132
193761 8 17690557485980054861
20281407 28 10015864288634141148
20510252 161 18334289825551082280
20645464 45 18260543399028009534
20645477 56 18335981965847086856
20871998 184 18190172386828551759
21028194 46 18408599279553355654
21040471 1 18412255151415715799
21524375 3 18410294713545892798
23235685 24 18410579491304805878
23402539 116 18337401443779591143
23402655 69 18264221382088988997
23500284 214 18261106357555625920
23559900 14 18259980462872119764
2748010 2 18269261542715311743
305870 269 18271528718221811690
3071541 12 17975972382125508038
366044 4 18410857646319542363
53812653 166 18334014973503645176
6333449 129 18335143037931716366
69090 78 18187086126424419174
7364860 26 18118683468130583902

> <PUBCHEM_SHAPE_MULTIPOLES>
229.35
6.13
1.82
0.64
3.95
0.47
0
-3.25
-0.93
-0.62
-0.04
0.12
0
0.18

> <PUBCHEM_SHAPE_SELFOVERLAP>
473.8

> <PUBCHEM_SHAPE_VOLUME>
132.1

> <PUBCHEM_COORDINATE_TYPE>
2
5
10

$$$$

