47205098
  -OEChem-06241222583D

 35 37  0     0  0  0  0  0  0999 V2000
    3.6750    1.4338    0.1782 O   0  0  0  0  0  0  0  0  0  0  0  0
    4.0401   -1.5368    0.1806 O   0  0  0  0  0  0  0  0  0  0  0  0
   -1.2940    1.9280   -0.0990 O   0  0  0  0  0  0  0  0  0  0  0  0
   -1.9727   -0.0125   -1.1718 N   0  0  0  0  0  0  0  0  0  0  0  0
   -4.7263   -1.1516   -0.1042 N   0  0  0  0  0  0  0  0  0  0  0  0
   -5.5631   -1.2366    0.9440 N   0  0  0  0  0  0  0  0  0  0  0  0
    5.7454    0.1807    0.4209 C   0  0  0  0  0  0  0  0  0  0  0  0
    4.6920    1.0420    1.1003 C   0  0  0  0  0  0  0  0  0  0  0  0
    5.1296   -0.8852   -0.4723 C   0  0  0  0  0  0  0  0  0  0  0  0
    2.6729    0.5089    0.0270 C   0  0  0  0  0  0  0  0  0  0  0  0
    2.8409   -0.8825    0.0526 C   0  0  0  0  0  0  0  0  0  0  0  0
    0.2889    0.2100   -0.3017 C   0  0  0  0  0  0  0  0  0  0  0  0
    1.3975    1.0472   -0.1792 C   0  0  0  0  0  0  0  0  0  0  0  0
    1.7204   -1.7155   -0.0447 C   0  0  0  0  0  0  0  0  0  0  0  0
    0.4490   -1.1709   -0.2237 C   0  0  0  0  0  0  0  0  0  0  0  0
   -3.3202    0.4205   -1.4649 C   0  0  0  0  0  0  0  0  0  0  0  0
   -1.0344    0.7792   -0.4992 C   0  0  0  0  0  0  0  0  0  0  0  0
   -4.2668    0.1106   -0.3416 C   0  0  0  0  0  0  0  0  0  0  0  0
   -4.8435    0.9067    0.6177 C   0  0  0  0  0  0  0  0  0  0  0  0
   -5.6308    0.0238    1.3810 C   0  0  0  0  0  0  0  0  0  0  0  0
    6.4084    0.8042   -0.1900 H   0  0  0  0  0  0  0  0  0  0  0  0
    6.3645   -0.2856    1.1960 H   0  0  0  0  0  0  0  0  0  0  0  0
    5.1636    1.9567    1.4769 H   0  0  0  0  0  0  0  0  0  0  0  0
    4.2592    0.5408    1.9768 H   0  0  0  0  0  0  0  0  0  0  0  0
    4.8204   -0.4745   -1.4431 H   0  0  0  0  0  0  0  0  0  0  0  0
    5.8839   -1.6488   -0.6932 H   0  0  0  0  0  0  0  0  0  0  0  0
    1.2796    2.1280   -0.2260 H   0  0  0  0  0  0  0  0  0  0  0  0
    1.8343   -2.7958    0.0039 H   0  0  0  0  0  0  0  0  0  0  0  0
   -0.3899   -1.8587   -0.2738 H   0  0  0  0  0  0  0  0  0  0  0  0
   -3.3151    1.4978   -1.6642 H   0  0  0  0  0  0  0  0  0  0  0  0
   -3.6397   -0.0901   -2.3798 H   0  0  0  0  0  0  0  0  0  0  0  0
   -1.7080   -0.9249   -1.5271 H   0  0  0  0  0  0  0  0  0  0  0  0
   -4.7127    1.9710    0.7476 H   0  0  0  0  0  0  0  0  0  0  0  0
   -4.5104   -1.9991   -0.6144 H   0  0  0  0  0  0  0  0  0  0  0  0
   -6.2508    0.2465    2.2374 H   0  0  0  0  0  0  0  0  0  0  0  0
  1  8  1  0  0  0  0
  1 10  1  0  0  0  0
  2  9  1  0  0  0  0
  2 11  1  0  0  0  0
  3 17  2  0  0  0  0
  4 16  1  0  0  0  0
  4 17  1  0  0  0  0
  4 32  1  0  0  0  0
  5  6  1  0  0  0  0
  5 18  1  0  0  0  0
  5 34  1  0  0  0  0
  6 20  2  0  0  0  0
  7  8  1  0  0  0  0
  7  9  1  0  0  0  0
  7 21  1  0  0  0  0
  7 22  1  0  0  0  0
  8 23  1  0  0  0  0
  8 24  1  0  0  0  0
  9 25  1  0  0  0  0
  9 26  1  0  0  0  0
 10 11  2  0  0  0  0
 10 13  1  0  0  0  0
 11 14  1  0  0  0  0
 12 13  2  0  0  0  0
 12 15  1  0  0  0  0
 12 17  1  0  0  0  0
 13 27  1  0  0  0  0
 14 15  2  0  0  0  0
 14 28  1  0  0  0  0
 15 29  1  0  0  0  0
 16 18  1  0  0  0  0
 16 30  1  0  0  0  0
 16 31  1  0  0  0  0
 18 19  2  0  0  0  0
 19 20  1  0  0  0  0
 19 33  1  0  0  0  0
 20 35  1  0  0  0  0
M  END
> <PUBCHEM_COMPOUND_CID>
47205098

> <PUBCHEM_CONFORMER_RMSD>
0.8

> <PUBCHEM_CONFORMER_DIVERSEORDER>
1
9
12
22
17
23
27
15
25
21
26
6
32
11
10
33
20
16
8
4
24
31
5
19
14
28
30
3
7
13
18
29
2

> <PUBCHEM_MMFF94_PARTIAL_CHARGES>
26
1 -0.36
10 0.08
11 0.08
12 0.09
13 -0.15
14 -0.15
15 -0.15
16 0.48
17 0.54
18 -0.33
19 -0.15
2 -0.36
20 0.14
27 0.15
28 0.15
29 0.15
3 -0.57
32 0.37
33 0.15
34 0.27
35 0.15
4 -0.73
5 0.3
6 -0.71
8 0.28
9 0.28

> <PUBCHEM_EFFECTIVE_ROTOR_COUNT>
5

> <PUBCHEM_PHARMACOPHORE_FEATURES>
9
1 1 acceptor
1 2 acceptor
1 3 acceptor
1 4 donor
1 5 donor
1 6 acceptor
5 5 6 18 19 20 rings
6 10 11 12 13 14 15 rings
7 1 2 7 8 9 10 11 rings

> <PUBCHEM_HEAVY_ATOM_COUNT>
20

> <PUBCHEM_ATOM_DEF_STEREO_COUNT>
0

> <PUBCHEM_ATOM_UDEF_STEREO_COUNT>
0

> <PUBCHEM_BOND_DEF_STEREO_COUNT>
0

> <PUBCHEM_BOND_UDEF_STEREO_COUNT>
0

> <PUBCHEM_ISOTOPIC_ATOM_COUNT>
0

> <PUBCHEM_COMPONENT_COUNT>
1

> <PUBCHEM_CACTVS_TAUTO_COUNT>
4

> <PUBCHEM_CONFORMER_ID>
02D04AEA00000001

> <PUBCHEM_MMFF94_ENERGY>
54.1647

> <PUBCHEM_FEATURE_SELFOVERLAP>
45.683

> <PUBCHEM_SHAPE_FINGERPRINT>
10912923 1 17168156615036893621
11089746 13 7853570188890330390
11287383 113 17846780702354453364
12236239 1 17458063767769212330
12403259 415 18411149043240750420
12596602 18 17748824095055798155
12616971 3 17822017505673665220
12730499 353 18409445895713789854
13668630 136 13326855547477182481
13955234 65 18186809114842252330
1420 363 18202280307662630186
14251718 22 16415757531311269406
14251752 14 4967621559576183552
14251764 18 17967530165124135833
14341114 176 18335416889336130361
146900 427 18333455343771083354
14849402 71 18115871789603165952
15048467 5 15430035448204184800
15183329 4 9223238433623597337
1601671 61 15357696392153569456
17349148 13 14261348093801143493
17844677 252 18272086106403971293
18222031 100 16558750104782156710
18785283 64 17987233322551275332
19489759 90 15841556288309088805
20281389 69 15647054880426165083
21054139 6 14117515419894381913
21150785 3 15841541982179337734
21267235 1 18337106861158882686
21623969 137 18411697681808980642
23402539 116 13901912236744164063
23536379 177 16008749104565543644
23557571 272 17059785532431587029
26918003 58 18272090517746372845
4340502 62 17131837573435581418
465052 167 17775570849383214762
474229 33 18343866610431371723
5104073 3 18266186208824259072
5283156 175 13901908921435456609
542803 24 16950285104564211758
602551 16 16917063335182884563
633830 44 4967309306636866148
7495541 125 16773795879198960252

> <PUBCHEM_SHAPE_MULTIPOLES>
379.04
14.33
1.57
1.04
5.96
0.1
0.01
1.14
4.46
-0.63
0.1
1.04
-0.08
0.64

> <PUBCHEM_SHAPE_SELFOVERLAP>
818.82

> <PUBCHEM_SHAPE_VOLUME>
206.1

> <PUBCHEM_COORDINATE_TYPE>
2
5
10

$$$$

