11823
  -OEChem-06261206093D

 22 23  0     0  0  0  0  0  0999 V2000
   -1.1142   -2.4458    0.0001 O   0  5  0  0  0  0  0  0  0  0  0  0
   -2.9421   -1.2302    0.0003 O   0  0  0  0  0  0  0  0  0  0  0  0
   -1.6969   -1.3400    0.0000 N   0  3  0  0  0  0  0  0  0  0  0  0
   -2.9715    1.1654   -0.0003 N   0  0  0  0  0  0  0  0  0  0  0  0
    0.4979   -0.2153    0.0000 C   0  0  0  0  0  0  0  0  0  0  0  0
    1.2471    0.9854    0.0001 C   0  0  0  0  0  0  0  0  0  0  0  0
   -0.9050   -0.1494   -0.0001 C   0  0  0  0  0  0  0  0  0  0  0  0
   -1.5597    1.0826   -0.0001 C   0  0  0  0  0  0  0  0  0  0  0  0
    0.5714    2.2166    0.0001 C   0  0  0  0  0  0  0  0  0  0  0  0
    1.1735   -1.4464   -0.0002 C   0  0  0  0  0  0  0  0  0  0  0  0
   -0.8230    2.2634    0.0001 C   0  0  0  0  0  0  0  0  0  0  0  0
    2.6499    0.9195    0.0001 C   0  0  0  0  0  0  0  0  0  0  0  0
    2.5678   -1.4932   -0.0001 C   0  0  0  0  0  0  0  0  0  0  0  0
    3.3047   -0.3125    0.0001 C   0  0  0  0  0  0  0  0  0  0  0  0
    1.1271    3.1520    0.0001 H   0  0  0  0  0  0  0  0  0  0  0  0
    0.8003   -2.4543   -0.0006 H   0  0  0  0  0  0  0  0  0  0  0  0
   -1.3198    3.2304    0.0000 H   0  0  0  0  0  0  0  0  0  0  0  0
    3.2461    1.8297    0.0001 H   0  0  0  0  0  0  0  0  0  0  0  0
    3.0835   -2.4498   -0.0003 H   0  0  0  0  0  0  0  0  0  0  0  0
    4.3902   -0.3495    0.0001 H   0  0  0  0  0  0  0  0  0  0  0  0
   -3.4057    2.0799    0.0002 H   0  0  0  0  0  0  0  0  0  0  0  0
   -3.5695    0.3548    0.0006 H   0  0  0  0  0  0  0  0  0  0  0  0
  1  3  1  0  0  0  0
  2  3  2  0  0  0  0
  3  7  1  0  0  0  0
  4  8  1  0  0  0  0
  4 21  1  0  0  0  0
  4 22  1  0  0  0  0
  5  6  1  0  0  0  0
  5  7  1  0  0  0  0
  5 10  2  0  0  0  0
  6  9  1  0  0  0  0
  6 12  2  0  0  0  0
  7  8  2  0  0  0  0
  8 11  1  0  0  0  0
  9 11  2  0  0  0  0
  9 15  1  0  0  0  0
 10 13  1  0  0  0  0
 10 16  1  0  0  0  0
 11 17  1  0  0  0  0
 12 14  1  0  0  0  0
 12 18  1  0  0  0  0
 13 14  2  0  0  0  0
 13 19  1  0  0  0  0
 14 20  1  0  0  0  0
M  CHG  2   1  -1   3   1
M  END
> <PUBCHEM_COMPOUND_CID>
11823

> <PUBCHEM_CONFORMER_RMSD>
0.4

> <PUBCHEM_CONFORMER_DIVERSEORDER>
1

> <PUBCHEM_MMFF94_PARTIAL_CHARGES>
20
1 -0.52
10 -0.15
11 -0.15
12 -0.15
13 -0.15
14 -0.15
15 0.15
16 0.15
17 0.15
18 0.15
19 0.15
2 -0.52
20 0.15
21 0.4
22 0.4
3 0.91
4 -0.9
7 0.13
8 0.1
9 -0.15

> <PUBCHEM_EFFECTIVE_ROTOR_COUNT>
1

> <PUBCHEM_PHARMACOPHORE_FEATURES>
7
1 1 acceptor
1 1 anion
1 2 acceptor
1 4 cation
1 4 donor
6 5 6 10 12 13 14 rings
6 5 6 7 8 9 11 rings

> <PUBCHEM_HEAVY_ATOM_COUNT>
14

> <PUBCHEM_ATOM_DEF_STEREO_COUNT>
0

> <PUBCHEM_ATOM_UDEF_STEREO_COUNT>
0

> <PUBCHEM_BOND_DEF_STEREO_COUNT>
0

> <PUBCHEM_BOND_UDEF_STEREO_COUNT>
0

> <PUBCHEM_ISOTOPIC_ATOM_COUNT>
0

> <PUBCHEM_COMPONENT_COUNT>
1

> <PUBCHEM_CACTVS_TAUTO_COUNT>
1

> <PUBCHEM_CONFORMER_ID>
00002E2F00000001

> <PUBCHEM_MMFF94_ENERGY>
79.2762

> <PUBCHEM_FEATURE_SELFOVERLAP>
35.628

> <PUBCHEM_SHAPE_FINGERPRINT>
10967382 1 18266741474680091558
11132069 177 18409735083950325104
12382932 28 18408889555086932640
12423570 1 5976736902929772448
12524768 44 18263921205943378270
13140716 1 18338797921956477176
13380535 76 18336550533111348718
14790565 3 15965379620459933449
16945 1 18194682566376896292
193761 8 18266459793534732485
20510252 161 17972321977931128784
20588541 1 18335700610702147092
20871998 184 18187646937483919295
21501502 16 18411135822861434036
22802520 49 17970614414940307254
2334 1 18410575071794020770
23388829 49 18048046172569277932
23402539 116 18191040077601313789
23463225 33 18412825806730136196
23552423 10 18271803493307931908
23559900 14 18334573573694386700
241688 4 18411982446783316304
2748010 2 18410293622592375782
2897 32 17979635967796071716
528886 8 18337960089948915280
53812653 166 18334300863844165520
54173680 148 18411416258561872482
7364860 26 18118965780588909520
8809292 202 18341045319745500114

> <PUBCHEM_SHAPE_MULTIPOLES>
266.41
4.27
2.52
0.59
0.54
0.05
0
0.67
0
-0.73
0
0.06
-0.03
0

> <PUBCHEM_SHAPE_SELFOVERLAP>
591.067

> <PUBCHEM_SHAPE_VOLUME>
142.8

> <PUBCHEM_COORDINATE_TYPE>
2
5
10

$$$$

