9671
  -OEChem-06261203563D

 41 41  0     1  0  0  0  0  0999 V2000
   -3.5211    3.1176   -0.1631 F   0  0  0  0  0  0  0  0  0  0  0  0
    0.1732   -1.6199    1.6442 O   0  0  0  0  0  0  0  0  0  0  0  0
    3.4957    0.6050   -0.0948 N   0  3  0  0  0  0  0  0  0  0  0  0
    2.1856    0.2996    0.5212 C   0  0  0  0  0  0  0  0  0  0  0  0
    1.4654   -0.8201   -0.2345 C   0  0  0  0  0  0  0  0  0  0  0  0
    0.0454   -1.2037    0.2777 C   0  0  1  0  0  0  0  0  0  0  0  0
    4.4075   -0.6319   -0.0888 C   0  0  0  0  0  0  0  0  0  0  0  0
    3.3247    1.0601   -1.5524 C   0  0  0  0  0  0  0  0  0  0  0  0
    4.2149    1.7268    0.6703 C   0  0  0  0  0  0  0  0  0  0  0  0
   -0.4577   -2.4396   -0.5240 C   0  0  0  0  0  0  0  0  0  0  0  0
   -0.9258   -0.0270    0.1575 C   0  0  0  0  0  0  0  0  0  0  0  0
   -1.1886    0.4848   -1.0919 C   0  0  0  0  0  0  0  0  0  0  0  0
   -1.4987    0.4731    1.3040 C   0  0  0  0  0  0  0  0  0  0  0  0
   -1.7480   -3.0198   -0.0063 C   0  0  0  0  0  0  0  0  0  0  0  0
   -2.0738    1.5571   -1.2012 C   0  0  0  0  0  0  0  0  0  0  0  0
   -2.3841    1.5454    1.1948 C   0  0  0  0  0  0  0  0  0  0  0  0
   -2.6717    2.0875   -0.0579 C   0  0  0  0  0  0  0  0  0  0  0  0
   -2.8430   -3.1948   -0.7547 C   0  0  0  0  0  0  0  0  0  0  0  0
    1.5934    1.2217    0.5175 H   0  0  0  0  0  0  0  0  0  0  0  0
    2.3705    0.0179    1.5638 H   0  0  0  0  0  0  0  0  0  0  0  0
    1.3873   -0.5935   -1.3012 H   0  0  0  0  0  0  0  0  0  0  0  0
    2.0693   -1.7316   -0.1492 H   0  0  0  0  0  0  0  0  0  0  0  0
    4.0339   -1.3711   -0.8014 H   0  0  0  0  0  0  0  0  0  0  0  0
    5.4093   -0.3166   -0.3976 H   0  0  0  0  0  0  0  0  0  0  0  0
    4.4349   -1.0350    0.9276 H   0  0  0  0  0  0  0  0  0  0  0  0
    2.5567    1.8382   -1.5836 H   0  0  0  0  0  0  0  0  0  0  0  0
    4.2829    1.4625   -1.8968 H   0  0  0  0  0  0  0  0  0  0  0  0
    3.0573    0.2079   -2.1812 H   0  0  0  0  0  0  0  0  0  0  0  0
    5.1776    1.9216    0.1887 H   0  0  0  0  0  0  0  0  0  0  0  0
    3.5816    2.6182    0.6392 H   0  0  0  0  0  0  0  0  0  0  0  0
    4.3617    1.3939    1.7019 H   0  0  0  0  0  0  0  0  0  0  0  0
   -0.5374   -2.2117   -1.5938 H   0  0  0  0  0  0  0  0  0  0  0  0
    0.2878   -3.2421   -0.4355 H   0  0  0  0  0  0  0  0  0  0  0  0
    0.6029   -0.9147    2.1549 H   0  0  0  0  0  0  0  0  0  0  0  0
   -0.7339    0.0881   -1.9934 H   0  0  0  0  0  0  0  0  0  0  0  0
   -1.3091    0.0780    2.2955 H   0  0  0  0  0  0  0  0  0  0  0  0
   -1.7774   -3.3384    1.0324 H   0  0  0  0  0  0  0  0  0  0  0  0
   -2.2977    1.9797   -2.1763 H   0  0  0  0  0  0  0  0  0  0  0  0
   -2.8510    1.9580    2.0843 H   0  0  0  0  0  0  0  0  0  0  0  0
   -3.7382   -3.6306   -0.3251 H   0  0  0  0  0  0  0  0  0  0  0  0
   -2.8673   -2.9072   -1.7999 H   0  0  0  0  0  0  0  0  0  0  0  0
  1 17  1  0  0  0  0
  2  6  1  0  0  0  0
  2 34  1  0  0  0  0
  3  4  1  0  0  0  0
  3  7  1  0  0  0  0
  3  8  1  0  0  0  0
  3  9  1  0  0  0  0
  4  5  1  0  0  0  0
  4 19  1  0  0  0  0
  4 20  1  0  0  0  0
  5  6  1  0  0  0  0
  5 21  1  0  0  0  0
  5 22  1  0  0  0  0
  6 10  1  0  0  0  0
  6 11  1  0  0  0  0
  7 23  1  0  0  0  0
  7 24  1  0  0  0  0
  7 25  1  0  0  0  0
  8 26  1  0  0  0  0
  8 27  1  0  0  0  0
  8 28  1  0  0  0  0
  9 29  1  0  0  0  0
  9 30  1  0  0  0  0
  9 31  1  0  0  0  0
 10 14  1  0  0  0  0
 10 32  1  0  0  0  0
 10 33  1  0  0  0  0
 11 12  2  0  0  0  0
 11 13  1  0  0  0  0
 12 15  1  0  0  0  0
 12 35  1  0  0  0  0
 13 16  2  0  0  0  0
 13 36  1  0  0  0  0
 14 18  2  0  0  0  0
 14 37  1  0  0  0  0
 15 17  2  0  0  0  0
 15 38  1  0  0  0  0
 16 17  1  0  0  0  0
 16 39  1  0  0  0  0
 18 40  1  0  0  0  0
 18 41  1  0  0  0  0
M  CHG  1   3   1
M  END
> <PUBCHEM_COMPOUND_CID>
9671

> <PUBCHEM_CONFORMER_RMSD>
0.8

> <PUBCHEM_CONFORMER_DIVERSEORDER>
1
29
27
33
31
9
19
2
32
13
20
11
25
12
17
7
34
8
16
21
6
30
28
5
35
23
22
15
24
14
3
26
10
18
4

> <PUBCHEM_MMFF94_PARTIAL_CHARGES>
25
1 -0.19
10 0.14
11 -0.14
12 -0.15
13 -0.15
14 -0.29
15 -0.15
16 -0.15
17 0.19
18 -0.3
2 -0.68
3 -1.01
34 0.4
35 0.15
36 0.15
37 0.15
38 0.15
39 0.15
4 0.5
40 0.15
41 0.15
6 0.42
7 0.5
8 0.5
9 0.5

> <PUBCHEM_EFFECTIVE_ROTOR_COUNT>
6

> <PUBCHEM_PHARMACOPHORE_FEATURES>
5
1 18 hydrophobe
1 2 acceptor
1 2 donor
1 3 cation
6 11 12 13 15 16 17 rings

> <PUBCHEM_HEAVY_ATOM_COUNT>
18

> <PUBCHEM_ATOM_DEF_STEREO_COUNT>
0

> <PUBCHEM_ATOM_UDEF_STEREO_COUNT>
1

> <PUBCHEM_BOND_DEF_STEREO_COUNT>
0

> <PUBCHEM_BOND_UDEF_STEREO_COUNT>
0

> <PUBCHEM_ISOTOPIC_ATOM_COUNT>
0

> <PUBCHEM_COMPONENT_COUNT>
1

> <PUBCHEM_CACTVS_TAUTO_COUNT>
1

> <PUBCHEM_CONFORMER_ID>
000025C700000001

> <PUBCHEM_MMFF94_ENERGY>
59.4573

> <PUBCHEM_FEATURE_SELFOVERLAP>
25.371

> <PUBCHEM_SHAPE_FINGERPRINT>
10670039 82 17837479758130496572
11578080 2 6256574779704588131
11725454 13 16556242261041896461
11833330 49 18195818357820255505
12173636 292 18408888438163366109
12788726 201 18197789799349221186
14142880 1 18272941492005921669
16945 1 18337391530826441899
17134986 127 18194683893548151670
17357779 13 17898867737906336247
1741750 31 18335425685771992168
1813 80 17757535370668602015
18186145 218 18115017615080719592
192875 21 17628932135987262292
19765921 60 17970641894135681633
19786989 88 17909558590316472173
20510252 161 18263930925639219370
20600515 1 17686042912495549935
20645476 183 18115601489887772061
21041028 32 17837198291479365451
21069387 34 16951123027631510214
21285901 2 17823406111624625191
21330990 113 17896580822403290691
21524375 3 18271239546700422032
22112679 90 17762305078011053375
22182937 141 18333448720741946512
2255824 54 17541665358327048055
22620623 9 17968653818225376879
22907989 373 18262790749055279068
23402539 116 18120381955934506894
23419403 2 17317057840163999401
23557571 272 18116989984517201988
23558518 356 18272089375048182626
283562 15 18268719302946946906
3060560 45 17833553779214679319
312423 11 17988077782478857394
350125 39 18410004455598893346
3729539 64 17543881947846588350
474 4 18120937471199084625
621550 34 17535469219530850666
68521 5 18265054622280710023
7164475 11 18339082566999250014
7364860 26 17690560114468339519
74978 22 18407760339908383984
7615 1 17773880805516930220
81228 2 18126845997620581386

> <PUBCHEM_SHAPE_MULTIPOLES>
352.31
6.77
3.51
1.29
8.34
1.01
-0.02
-2.51
0.59
-4.74
0.36
-0.05
-0.25
-0.28

> <PUBCHEM_SHAPE_SELFOVERLAP>
707.848

> <PUBCHEM_SHAPE_VOLUME>
210.9

> <PUBCHEM_COORDINATE_TYPE>
2
5
10

$$$$

