13324
  -OEChem-06261208573D

 49 52  0     1  0  0  0  0  0999 V2000
   -3.9088   -1.0712    0.7534 O   0  0  0  0  0  0  0  0  0  0  0  0
    5.9801    1.3019    0.9108 O   0  0  0  0  0  0  0  0  0  0  0  0
   -2.0178   -0.5405   -0.7235 C   0  0  1  0  0  0  0  0  0  0  0  0
   -1.0545   -1.2360    0.2840 C   0  0  1  0  0  0  0  0  0  0  0  0
   -3.1174    0.0079    0.2365 C   0  0  2  0  0  0  0  0  0  0  0  0
    0.3675   -1.4287   -0.2864 C   0  0  1  0  0  0  0  0  0  0  0  0
   -1.1201   -0.3779    1.5693 C   0  0  0  0  0  0  0  0  0  0  0  0
   -2.3121    0.5695    1.4114 C   0  0  0  0  0  0  0  0  0  0  0  0
   -1.2921    0.5521   -1.4922 C   0  0  0  0  0  0  0  0  0  0  0  0
    0.9765   -0.1154   -0.7768 C   0  0  0  0  0  0  0  0  0  0  0  0
   -2.5649   -1.5461   -1.7506 C   0  0  0  0  0  0  0  0  0  0  0  0
    1.2691   -2.1834    0.7050 C   0  0  0  0  0  0  0  0  0  0  0  0
   -4.0789    1.0443   -0.3410 C   0  0  0  0  0  0  0  0  0  0  0  0
    0.0368    0.7386   -1.4922 C   0  0  0  0  0  0  0  0  0  0  0  0
    2.2837    0.1904   -0.5862 C   0  0  0  0  0  0  0  0  0  0  0  0
    2.7109   -2.1768    0.2143 C   0  0  0  0  0  0  0  0  0  0  0  0
    3.1943   -0.7553    0.0765 C   0  0  0  0  0  0  0  0  0  0  0  0
    2.9540    1.4716   -1.0419 C   0  0  0  0  0  0  0  0  0  0  0  0
   -5.0595    1.5074    0.6907 C   0  0  0  0  0  0  0  0  0  0  0  0
    4.3998   -0.4037    0.5533 C   0  0  0  0  0  0  0  0  0  0  0  0
    3.8806    2.0459    0.0226 C   0  0  0  0  0  0  0  0  0  0  0  0
    4.8594    1.0047    0.5036 C   0  0  0  0  0  0  0  0  0  0  0  0
   -6.3864    1.4008    0.5594 C   0  0  0  0  0  0  0  0  0  0  0  0
   -1.4549   -2.2295    0.5345 H   0  0  0  0  0  0  0  0  0  0  0  0
    0.2800   -2.0727   -1.1749 H   0  0  0  0  0  0  0  0  0  0  0  0
   -0.2080    0.1992    1.7543 H   0  0  0  0  0  0  0  0  0  0  0  0
   -1.2648   -1.0311    2.4381 H   0  0  0  0  0  0  0  0  0  0  0  0
   -2.8726    0.6148    2.3515 H   0  0  0  0  0  0  0  0  0  0  0  0
   -1.9396    1.5777    1.1918 H   0  0  0  0  0  0  0  0  0  0  0  0
   -1.8934    1.2209   -2.1035 H   0  0  0  0  0  0  0  0  0  0  0  0
   -1.7709   -1.9358   -2.3979 H   0  0  0  0  0  0  0  0  0  0  0  0
   -3.0361   -2.4071   -1.2642 H   0  0  0  0  0  0  0  0  0  0  0  0
   -3.3165   -1.0816   -2.3990 H   0  0  0  0  0  0  0  0  0  0  0  0
    0.9186   -3.2174    0.8088 H   0  0  0  0  0  0  0  0  0  0  0  0
    1.2249   -1.7339    1.7049 H   0  0  0  0  0  0  0  0  0  0  0  0
   -4.6142    0.6136   -1.1961 H   0  0  0  0  0  0  0  0  0  0  0  0
   -3.5427    1.9270   -0.7061 H   0  0  0  0  0  0  0  0  0  0  0  0
    0.4224    1.5639   -2.0810 H   0  0  0  0  0  0  0  0  0  0  0  0
    2.7823   -2.6835   -0.7565 H   0  0  0  0  0  0  0  0  0  0  0  0
    3.3315   -2.7449    0.9177 H   0  0  0  0  0  0  0  0  0  0  0  0
   -4.3808   -0.7705    1.5475 H   0  0  0  0  0  0  0  0  0  0  0  0
    3.5323    1.2524   -1.9495 H   0  0  0  0  0  0  0  0  0  0  0  0
    2.2370    2.2537   -1.3055 H   0  0  0  0  0  0  0  0  0  0  0  0
   -4.6753    2.0022    1.5787 H   0  0  0  0  0  0  0  0  0  0  0  0
    5.0631   -1.1212    1.0244 H   0  0  0  0  0  0  0  0  0  0  0  0
    3.3129    2.4093    0.8868 H   0  0  0  0  0  0  0  0  0  0  0  0
    4.4424    2.8854   -0.4011 H   0  0  0  0  0  0  0  0  0  0  0  0
   -7.0467    1.7771    1.3331 H   0  0  0  0  0  0  0  0  0  0  0  0
   -6.8359    0.9391   -0.3127 H   0  0  0  0  0  0  0  0  0  0  0  0
  1  5  1  0  0  0  0
  1 41  1  0  0  0  0
  2 22  2  0  0  0  0
  3  4  1  0  0  0  0
  3  5  1  0  0  0  0
  3  9  1  0  0  0  0
  3 11  1  0  0  0  0
  4  6  1  0  0  0  0
  4  7  1  0  0  0  0
  4 24  1  0  0  0  0
  5  8  1  0  0  0  0
  5 13  1  0  0  0  0
  6 10  1  0  0  0  0
  6 12  1  0  0  0  0
  6 25  1  0  0  0  0
  7  8  1  0  0  0  0
  7 26  1  0  0  0  0
  7 27  1  0  0  0  0
  8 28  1  0  0  0  0
  8 29  1  0  0  0  0
  9 14  2  0  0  0  0
  9 30  1  0  0  0  0
 10 14  1  0  0  0  0
 10 15  2  0  0  0  0
 11 31  1  0  0  0  0
 11 32  1  0  0  0  0
 11 33  1  0  0  0  0
 12 16  1  0  0  0  0
 12 34  1  0  0  0  0
 12 35  1  0  0  0  0
 13 19  1  0  0  0  0
 13 36  1  0  0  0  0
 13 37  1  0  0  0  0
 14 38  1  0  0  0  0
 15 17  1  0  0  0  0
 15 18  1  0  0  0  0
 16 17  1  0  0  0  0
 16 39  1  0  0  0  0
 16 40  1  0  0  0  0
 17 20  2  0  0  0  0
 18 21  1  0  0  0  0
 18 42  1  0  0  0  0
 18 43  1  0  0  0  0
 19 23  2  0  0  0  0
 19 44  1  0  0  0  0
 20 22  1  0  0  0  0
 20 45  1  0  0  0  0
 21 22  1  0  0  0  0
 21 46  1  0  0  0  0
 21 47  1  0  0  0  0
 23 48  1  0  0  0  0
 23 49  1  0  0  0  0
M  END
> <PUBCHEM_COMPOUND_CID>
13324

> <PUBCHEM_CONFORMER_RMSD>
0.6

> <PUBCHEM_CONFORMER_DIVERSEORDER>
1
54
59
63
4
29
10
41
42
44
45
40
34
2
27
70
53
38
61
21
73
22
62
55
5
14
37
49
20
48
16
18
74
8
6
11
13
47
17
72
9
66
43
26
46
25
3
35
69
12
36
58
7
24
60
50
23
19
75
33
32
31
57
28
51
67
52
15
64
71
65
39
30
68
56

> <PUBCHEM_MMFF94_PARTIAL_CHARGES>
25
1 -0.68
10 -0.14
13 0.14
14 -0.15
15 -0.14
16 0.14
17 -0.14
18 0.14
19 -0.29
2 -0.57
20 -0.14
21 0.06
22 0.49
23 -0.3
3 0.14
30 0.15
38 0.15
41 0.4
44 0.15
45 0.15
48 0.15
49 0.15
5 0.28
6 0.14
9 -0.29

> <PUBCHEM_EFFECTIVE_ROTOR_COUNT>
3.4

> <PUBCHEM_PHARMACOPHORE_FEATURES>
8
1 1 acceptor
1 1 donor
1 2 acceptor
1 23 hydrophobe
5 3 4 5 7 8 rings
6 15 17 18 20 21 22 rings
6 3 4 6 9 10 14 rings
6 6 10 12 15 16 17 rings

> <PUBCHEM_HEAVY_ATOM_COUNT>
23

> <PUBCHEM_ATOM_DEF_STEREO_COUNT>
0

> <PUBCHEM_ATOM_UDEF_STEREO_COUNT>
4

> <PUBCHEM_BOND_DEF_STEREO_COUNT>
0

> <PUBCHEM_BOND_UDEF_STEREO_COUNT>
0

> <PUBCHEM_ISOTOPIC_ATOM_COUNT>
0

> <PUBCHEM_COMPONENT_COUNT>
1

> <PUBCHEM_CACTVS_TAUTO_COUNT>
5

> <PUBCHEM_CONFORMER_ID>
0000340C00000001

> <PUBCHEM_MMFF94_ENERGY>
59.9089

> <PUBCHEM_FEATURE_SELFOVERLAP>
40.881

> <PUBCHEM_SHAPE_FINGERPRINT>
10498660 4 16153428328899832168
10693767 8 8502377689457963444
11089746 13 18040442087501193116
11370993 70 18341891879042289458
11640471 11 18187355545459370418
11961588 58 16660370281073250929
12236239 1 18113904870215573551
12633257 1 16630519605356968208
12670546 177 6194842574882593376
12788726 201 16805880814135272033
12892183 10 18271796982538385817
12969540 114 15213308568581846637
13140716 1 17774154579316520652
13224815 77 17632576011837036262
13533116 47 18268987764156575635
13583140 156 18335135359052275067
13675066 3 17704064136282487157
14178342 30 17987790809195259603
14739800 52 17749685059741177816
15163728 17 16879052243633133945
15183329 4 8430322303865629611
15209294 21 18408604742867891788
15238133 3 18412256217079736972
15342168 16 18341888567680259964
15840311 113 18265888246001328997
16945 1 17988929985146623190
1813 80 15195272149722135167
18222031 100 9295290525808555724
193927 3 11311775119869788048
20157964 124 18337953501938594493
20511986 3 18261127282588864353
20715895 44 17974004256823946937
20739085 24 17775276145622981036
20871999 31 5617261424387939044
21033648 29 18337400331731435744
21452121 103 18201721811838253705
21637258 2 12103560853781542153
22182313 1 17345202283781346287
22854114 59 18342459223147855934
23184049 59 18130788941086634926
23227448 37 17968378948844939853
23557571 272 16515968043021330582
23559900 14 16878500258172134934
2838139 119 17894635872164724273
296302 2 18113899390285391293
3472631 163 17894349964528231429
34934 24 18113621187614999677
4340502 62 18271796948252559371
465052 167 12319437910412332177
474 4 18411136914041512272
5104073 3 18272927250305727955
633830 44 18409727327418698038
7970288 3 9943539500550175688
8272917 22 18336825394155032126

> <PUBCHEM_SHAPE_MULTIPOLES>
461.59
11.38
2.06
1.4
2.61
0.32
-0.22
-6.95
3.64
-0.98
0.08
0.61
0.01
-0.59

> <PUBCHEM_SHAPE_SELFOVERLAP>
1001.394

> <PUBCHEM_SHAPE_VOLUME>
250.6

> <PUBCHEM_COORDINATE_TYPE>
2
5
10

$$$$

