13067
  -OEChem-06261207433D

 28 29  0     0  0  0  0  0  0999 V2000
    3.3154   -0.1262   -0.3837 O   0  0  0  0  0  0  0  0  0  0  0  0
    1.7748    0.0831    1.3196 O   0  0  0  0  0  0  0  0  0  0  0  0
   -1.9828    1.9664    0.2167 N   0  0  0  0  0  0  0  0  0  0  0  0
   -0.2386    0.8036   -0.5128 C   0  0  0  0  0  0  0  0  0  0  0  0
   -1.3192   -0.0986   -0.3050 C   0  0  0  0  0  0  0  0  0  0  0  0
   -2.4013    0.6564    0.1527 C   0  0  0  0  0  0  0  0  0  0  0  0
    1.1147    0.4595   -0.9944 C   0  0  0  0  0  0  0  0  0  0  0  0
   -0.6774    2.0653   -0.1835 C   0  0  0  0  0  0  0  0  0  0  0  0
   -1.4811   -1.4895   -0.4626 C   0  0  0  0  0  0  0  0  0  0  0  0
   -3.6421    0.0879    0.4618 C   0  0  0  0  0  0  0  0  0  0  0  0
    2.0751    0.1232    0.1343 C   0  0  0  0  0  0  0  0  0  0  0  0
   -2.7167   -2.0719   -0.1574 C   0  0  0  0  0  0  0  0  0  0  0  0
   -3.7791   -1.2935    0.2976 C   0  0  0  0  0  0  0  0  0  0  0  0
    4.3267   -0.4604    0.5723 C   0  0  0  0  0  0  0  0  0  0  0  0
    5.6315   -0.7054   -0.1554 C   0  0  0  0  0  0  0  0  0  0  0  0
    1.0706   -0.4014   -1.6711 H   0  0  0  0  0  0  0  0  0  0  0  0
    1.5341    1.3057   -1.5521 H   0  0  0  0  0  0  0  0  0  0  0  0
   -0.1794    3.0249   -0.1968 H   0  0  0  0  0  0  0  0  0  0  0  0
   -2.5571    2.7423    0.5162 H   0  0  0  0  0  0  0  0  0  0  0  0
   -0.6631   -2.1114   -0.8148 H   0  0  0  0  0  0  0  0  0  0  0  0
   -4.4697    0.6930    0.8161 H   0  0  0  0  0  0  0  0  0  0  0  0
   -2.8473   -3.1442   -0.2768 H   0  0  0  0  0  0  0  0  0  0  0  0
   -4.7300   -1.7667    0.5289 H   0  0  0  0  0  0  0  0  0  0  0  0
    4.4475    0.3670    1.2803 H   0  0  0  0  0  0  0  0  0  0  0  0
    4.0307   -1.3645    1.1160 H   0  0  0  0  0  0  0  0  0  0  0  0
    6.4285   -0.9640    0.5471 H   0  0  0  0  0  0  0  0  0  0  0  0
    5.5214   -1.5186   -0.8805 H   0  0  0  0  0  0  0  0  0  0  0  0
    5.9314    0.1844   -0.7188 H   0  0  0  0  0  0  0  0  0  0  0  0
  1 11  1  0  0  0  0
  1 14  1  0  0  0  0
  2 11  2  0  0  0  0
  3  6  1  0  0  0  0
  3  8  1  0  0  0  0
  3 19  1  0  0  0  0
  4  5  1  0  0  0  0
  4  7  1  0  0  0  0
  4  8  2  0  0  0  0
  5  6  1  0  0  0  0
  5  9  2  0  0  0  0
  6 10  2  0  0  0  0
  7 11  1  0  0  0  0
  7 16  1  0  0  0  0
  7 17  1  0  0  0  0
  8 18  1  0  0  0  0
  9 12  1  0  0  0  0
  9 20  1  0  0  0  0
 10 13  1  0  0  0  0
 10 21  1  0  0  0  0
 12 13  2  0  0  0  0
 12 22  1  0  0  0  0
 13 23  1  0  0  0  0
 14 15  1  0  0  0  0
 14 24  1  0  0  0  0
 14 25  1  0  0  0  0
 15 26  1  0  0  0  0
 15 27  1  0  0  0  0
 15 28  1  0  0  0  0
M  END
> <PUBCHEM_COMPOUND_CID>
13067

> <PUBCHEM_CONFORMER_RMSD>
0.6

> <PUBCHEM_CONFORMER_DIVERSEORDER>
1
47
35
52
25
2
11
54
19
8
41
22
40
58
6
24
36
53
13
20
18
9
51
12
56
16
14
34
7
38
42
43
27
21
39
45
55
49
37
33
30
17
57
50
59
3
10
23
5
26
46
15
44
28
4
31
48
32
29

> <PUBCHEM_MMFF94_PARTIAL_CHARGES>
19
1 -0.43
10 -0.15
11 0.66
12 -0.15
13 -0.15
14 0.28
18 0.15
19 0.27
2 -0.57
20 0.15
21 0.15
22 0.15
23 0.15
3 0.03
4 -0.18
6 -0.15
7 0.24
8 -0.3
9 -0.15

> <PUBCHEM_EFFECTIVE_ROTOR_COUNT>
4

> <PUBCHEM_PHARMACOPHORE_FEATURES>
5
1 2 acceptor
1 3 cation
1 3 donor
5 3 4 5 6 8 rings
6 5 6 9 10 12 13 rings

> <PUBCHEM_HEAVY_ATOM_COUNT>
15

> <PUBCHEM_ATOM_DEF_STEREO_COUNT>
0

> <PUBCHEM_ATOM_UDEF_STEREO_COUNT>
0

> <PUBCHEM_BOND_DEF_STEREO_COUNT>
0

> <PUBCHEM_BOND_UDEF_STEREO_COUNT>
0

> <PUBCHEM_ISOTOPIC_ATOM_COUNT>
0

> <PUBCHEM_COMPONENT_COUNT>
1

> <PUBCHEM_CACTVS_TAUTO_COUNT>
1

> <PUBCHEM_CONFORMER_ID>
0000330B00000001

> <PUBCHEM_MMFF94_ENERGY>
19.0649

> <PUBCHEM_FEATURE_SELFOVERLAP>
25.463

> <PUBCHEM_SHAPE_FINGERPRINT>
10616163 171 18411418423389179734
11046707 91 18343304764474118210
11128504 68 17561070407523608526
11578080 2 17773337684710883052
12119455 92 16732985344823396317
12236239 1 17846493742656896540
12251169 10 18187082840858599660
12633257 1 17168134594734753611
13167823 11 18271528706218001378
13288520 33 18411980278225615294
15375462 189 18131634465100958051
15653759 3 18040439888720154016
16945 1 18335689530287812805
17804303 29 18333729100337978848
17834072 33 18272927203398606380
17834074 16 18334573594494431678
1813 80 17560509699084264438
18186145 218 13182741416042363605
19049666 15 17460864340002268820
19422 9 18272645740810873252
200 152 16343985818828566268
20871998 184 18260830410133104095
21267235 1 18341886364562847771
21650355 55 18408323280834352065
2297311 6 18261098695755891492
232386 152 18340482262264649503
23402539 116 18187653509385216973
23559900 14 18409455756531401176
2838139 119 14491028428160375897
43471831 8 18270682085768641147
465052 167 18056180394648213851
7364860 26 18047468920354174997

> <PUBCHEM_SHAPE_MULTIPOLES>
291.97
8.64
1.83
0.86
12.18
0.19
0.04
-3.87
1.15
-1.77
-0.1
0.24
0.01
-0.18

> <PUBCHEM_SHAPE_SELFOVERLAP>
622.298

> <PUBCHEM_SHAPE_VOLUME>
163.9

> <PUBCHEM_COORDINATE_TYPE>
2
5
10

$$$$

