47205651
  -OEChem-06241222592D

 37 39  0     0  0  0  0  0  0999 V2000
    2.8660    1.6366    0.0000 S   0  0  0  0  0  0  0  0  0  0  0  0
    7.4538   -1.0185    0.0000 S   0  0  0  0  0  0  0  0  0  0  0  0
    2.0000    2.1366    0.0000 O   0  0  0  0  0  0  0  0  0  0  0  0
    2.8660    2.6366    0.0000 O   0  0  0  0  0  0  0  0  0  0  0  0
    5.8660   -0.0955    0.0000 O   0  0  0  0  0  0  0  0  0  0  0  0
    3.8660   -0.0955    0.0000 N   0  0  0  0  0  0  0  0  0  0  0  0
    5.8660   -1.8275    0.0000 N   0  0  0  0  0  0  0  0  0  0  0  0
    7.4538   -2.6366    0.0000 N   0  0  0  0  0  0  0  0  0  0  0  0
    2.8660   -0.0955    0.0000 C   0  0  0  0  0  0  0  0  0  0  0  0
    4.3660    0.7705    0.0000 C   0  0  0  0  0  0  0  0  0  0  0  0
    2.3660    0.7705    0.0000 C   0  0  0  0  0  0  0  0  0  0  0  0
    3.8660    1.6366    0.0000 C   0  0  0  0  0  0  0  0  0  0  0  0
    4.3660   -0.9615    0.0000 C   0  0  0  0  0  0  0  0  0  0  0  0
    9.9347   -1.8275    0.0000 C   0  0  0  0  0  0  0  0  0  0  0  0
    9.3511   -1.0228    0.0000 C   0  0  0  0  0  0  0  0  0  0  0  0
    9.3511   -2.6323    0.0000 C   0  0  0  0  0  0  0  0  0  0  0  0
    8.4049   -1.3275    0.0000 C   0  0  0  0  0  0  0  0  0  0  0  0
    8.4049   -2.3275    0.0000 C   0  0  0  0  0  0  0  0  0  0  0  0
    5.3660   -0.9615    0.0000 C   0  0  0  0  0  0  0  0  0  0  0  0
    6.8660   -1.8275    0.0000 C   0  0  0  0  0  0  0  0  0  0  0  0
    2.2834   -0.3075    0.0000 H   0  0  0  0  0  0  0  0  0  0  0  0
    2.9737   -0.7061    0.0000 H   0  0  0  0  0  0  0  0  0  0  0  0
    4.8410    0.3720    0.0000 H   0  0  0  0  0  0  0  0  0  0  0  0
    4.8410    1.1691    0.0000 H   0  0  0  0  0  0  0  0  0  0  0  0
    1.8911    1.1691    0.0000 H   0  0  0  0  0  0  0  0  0  0  0  0
    1.8911    0.3720    0.0000 H   0  0  0  0  0  0  0  0  0  0  0  0
    4.4486    1.8486    0.0000 H   0  0  0  0  0  0  0  0  0  0  0  0
    3.7584    2.2471    0.0000 H   0  0  0  0  0  0  0  0  0  0  0  0
    3.7834   -1.1736    0.0000 H   0  0  0  0  0  0  0  0  0  0  0  0
    4.4737   -1.5721    0.0000 H   0  0  0  0  0  0  0  0  0  0  0  0
   10.3956   -2.2423    0.0000 H   0  0  0  0  0  0  0  0  0  0  0  0
   10.3956   -1.4128    0.0000 H   0  0  0  0  0  0  0  0  0  0  0  0
    9.8885   -0.7136    0.0000 H   0  0  0  0  0  0  0  0  0  0  0  0
    9.1000   -0.4559    0.0000 H   0  0  0  0  0  0  0  0  0  0  0  0
    9.1000   -3.1992    0.0000 H   0  0  0  0  0  0  0  0  0  0  0  0
    9.8885   -2.9415    0.0000 H   0  0  0  0  0  0  0  0  0  0  0  0
    5.5560   -2.3645    0.0000 H   0  0  0  0  0  0  0  0  0  0  0  0
  1  3  2  0  0  0  0
  1  4  2  0  0  0  0
  1 11  1  0  0  0  0
  1 12  1  0  0  0  0
  2 17  1  0  0  0  0
  2 20  1  0  0  0  0
  5 19  2  0  0  0  0
  6  9  1  0  0  0  0
  6 10  1  0  0  0  0
  6 13  1  0  0  0  0
  7 19  1  0  0  0  0
  7 20  1  0  0  0  0
  7 37  1  0  0  0  0
  8 18  1  0  0  0  0
  8 20  2  0  0  0  0
  9 11  1  0  0  0  0
  9 21  1  0  0  0  0
  9 22  1  0  0  0  0
 10 12  1  0  0  0  0
 10 23  1  0  0  0  0
 10 24  1  0  0  0  0
 11 25  1  0  0  0  0
 11 26  1  0  0  0  0
 12 27  1  0  0  0  0
 12 28  1  0  0  0  0
 13 19  1  0  0  0  0
 13 29  1  0  0  0  0
 13 30  1  0  0  0  0
 14 15  1  0  0  0  0
 14 16  1  0  0  0  0
 14 31  1  0  0  0  0
 14 32  1  0  0  0  0
 15 17  1  0  0  0  0
 15 33  1  0  0  0  0
 15 34  1  0  0  0  0
 16 18  1  0  0  0  0
 16 35  1  0  0  0  0
 16 36  1  0  0  0  0
 17 18  2  0  0  0  0
M  END
> <PUBCHEM_COMPOUND_CID>
47205651

> <PUBCHEM_COMPOUND_CANONICALIZED>
1

> <PUBCHEM_CACTVS_COMPLEXITY>
463

> <PUBCHEM_CACTVS_HBOND_ACCEPTOR>
6

> <PUBCHEM_CACTVS_HBOND_DONOR>
1

> <PUBCHEM_CACTVS_ROTATABLE_BOND>
3

> <PUBCHEM_CACTVS_SUBSKEYS>
AAADceBzMABgAAAAAAAAAAAAAAAAAeIAAAAsAAAAAAAWAAABgAAAHgQQAAAACAjF1gSBkRPIEAqsAQVwdHBA8KlhCDkBGBS4QAiAYAJgmCCUAAAokQLoSCIQAAAAAAAAAAAAAAAAAAAAAAAAAAAAAACAAA==

> <PUBCHEM_IUPAC_OPENEYE_NAME>
N-(5,6-dihydro-4H-cyclopenta[d]thiazol-2-yl)-2-(1,1-dioxo-1,4-thiazinan-4-yl)acetamide

> <PUBCHEM_IUPAC_CAS_NAME>
N-(5,6-dihydro-4H-cyclopenta[d]thiazol-2-yl)-2-(1,1-dioxo-1,4-thiazinan-4-yl)acetamide

> <PUBCHEM_IUPAC_NAME>
N-(5,6-dihydro-4H-cyclopenta[d][1,3]thiazol-2-yl)-2-(1,1-dioxo-1,4-thiazinan-4-yl)acetamide

> <PUBCHEM_IUPAC_SYSTEMATIC_NAME>
2-[1,1-bis(oxidanylidene)-1,4-thiazinan-4-yl]-N-(5,6-dihydro-4H-cyclopenta[d][1,3]thiazol-2-yl)ethanamide

> <PUBCHEM_IUPAC_TRADITIONAL_NAME>
N-(5,6-dihydro-4H-cyclopenta[d]thiazol-2-yl)-2-(1,1-diketo-1,4-thiazinan-4-yl)acetamide

> <PUBCHEM_IUPAC_INCHI>
InChI=1S/C12H17N3O3S2/c16-11(8-15-4-6-20(17,18)7-5-15)14-12-13-9-2-1-3-10(9)19-12/h1-8H2,(H,13,14,16)

> <PUBCHEM_IUPAC_INCHIKEY>
ZGASEFXBHSOVAW-UHFFFAOYSA-N

> <PUBCHEM_XLOGP3_AA>
0.4

> <PUBCHEM_EXACT_MASS>
315.071133

> <PUBCHEM_MOLECULAR_FORMULA>
C12H17N3O3S2

> <PUBCHEM_MOLECULAR_WEIGHT>
315.41168

> <PUBCHEM_OPENEYE_CAN_SMILES>
C1CC2=C(C1)SC(=N2)NC(=O)CN3CCS(=O)(=O)CC3

> <PUBCHEM_OPENEYE_ISO_SMILES>
C1CC2=C(C1)SC(=N2)NC(=O)CN3CCS(=O)(=O)CC3

> <PUBCHEM_CACTVS_TPSA>
116

> <PUBCHEM_MONOISOTOPIC_WEIGHT>
315.071133

> <PUBCHEM_TOTAL_CHARGE>
0

> <PUBCHEM_HEAVY_ATOM_COUNT>
20

> <PUBCHEM_ATOM_DEF_STEREO_COUNT>
0

> <PUBCHEM_ATOM_UDEF_STEREO_COUNT>
0

> <PUBCHEM_BOND_DEF_STEREO_COUNT>
0

> <PUBCHEM_BOND_UDEF_STEREO_COUNT>
0

> <PUBCHEM_ISOTOPIC_ATOM_COUNT>
0

> <PUBCHEM_COMPONENT_COUNT>
1

> <PUBCHEM_CACTVS_TAUTO_COUNT>
5

> <PUBCHEM_COORDINATE_TYPE>
1
5
255

> <PUBCHEM_BONDANNOTATIONS>
17  18  8
2  17  8
2  20  8
8  18  8
8  20  8

$$$$

