9439
  -OEChem-06261203422D

 35 36  0     1  0  0  0  0  0999 V2000
    2.8660   -3.0173    0.0000 F   0  0  0  0  0  0  0  0  0  0  0  0
    3.7320   -0.5173    0.0000 N   0  0  3  0  0  0  0  0  0  0  0  0
    4.5981   -0.0173    0.0000 C   0  0  0  0  0  0  0  0  0  0  0  0
    4.5981    0.9827    0.0000 C   0  0  0  0  0  0  0  0  0  0  0  0
    3.7320   -1.5173    0.0000 C   0  0  0  0  0  0  0  0  0  0  0  0
    2.8660   -0.0173    0.0000 C   0  0  0  0  0  0  0  0  0  0  0  0
    5.4641    1.4827    0.0000 C   0  0  0  0  0  0  0  0  0  0  0  0
    5.4641    2.4827    0.0000 C   0  0  0  0  0  0  0  0  0  0  0  0
    3.7320    1.4827    0.0000 C   0  0  0  0  0  0  0  0  0  0  0  0
    2.8660   -2.0173    0.0000 C   0  0  0  0  0  0  0  0  0  0  0  0
    2.0000   -0.5173    0.0000 C   0  0  0  0  0  0  0  0  0  0  0  0
    6.3580    0.9480    0.0000 C   0  0  0  0  0  0  0  0  0  0  0  0
    4.5981    2.9827    0.0000 C   0  0  0  0  0  0  0  0  0  0  0  0
    3.7320    2.4827    0.0000 C   0  0  0  0  0  0  0  0  0  0  0  0
    6.3580    3.0173    0.0000 C   0  0  0  0  0  0  0  0  0  0  0  0
    7.2641    1.4619    0.0000 C   0  0  0  0  0  0  0  0  0  0  0  0
    7.2641    2.5035    0.0000 C   0  0  0  0  0  0  0  0  0  0  0  0
    4.8101   -0.5999    0.0000 H   0  0  0  0  0  0  0  0  0  0  0  0
    5.2087    0.0903    0.0000 H   0  0  0  0  0  0  0  0  0  0  0  0
    3.9441   -2.0999    0.0000 H   0  0  0  0  0  0  0  0  0  0  0  0
    4.3426   -1.4097    0.0000 H   0  0  0  0  0  0  0  0  0  0  0  0
    3.2646    0.4576    0.0000 H   0  0  0  0  0  0  0  0  0  0  0  0
    2.4675    0.4576    0.0000 H   0  0  0  0  0  0  0  0  0  0  0  0
    3.1951    1.1727    0.0000 H   0  0  0  0  0  0  0  0  0  0  0  0
    2.6540   -1.4347    0.0000 H   0  0  0  0  0  0  0  0  0  0  0  0
    2.2554   -2.1250    0.0000 H   0  0  0  0  0  0  0  0  0  0  0  0
    1.6900    0.0196    0.0000 H   0  0  0  0  0  0  0  0  0  0  0  0
    1.4631   -0.8273    0.0000 H   0  0  0  0  0  0  0  0  0  0  0  0
    2.3100   -1.0543    0.0000 H   0  0  0  0  0  0  0  0  0  0  0  0
    6.3509    0.3280    0.0000 H   0  0  0  0  0  0  0  0  0  0  0  0
    4.5981    3.6027    0.0000 H   0  0  0  0  0  0  0  0  0  0  0  0
    3.1951    2.7927    0.0000 H   0  0  0  0  0  0  0  0  0  0  0  0
    6.3509    3.6373    0.0000 H   0  0  0  0  0  0  0  0  0  0  0  0
    7.7998    1.1498    0.0000 H   0  0  0  0  0  0  0  0  0  0  0  0
    7.7998    2.8156    0.0000 H   0  0  0  0  0  0  0  0  0  0  0  0
  1 10  1  0  0  0  0
  2  3  1  0  0  0  0
  2  5  1  0  0  0  0
  2  6  1  0  0  0  0
  3  4  1  0  0  0  0
  3 18  1  0  0  0  0
  3 19  1  0  0  0  0
  4  7  1  0  0  0  0
  4  9  2  0  0  0  0
  5 10  1  0  0  0  0
  5 20  1  0  0  0  0
  5 21  1  0  0  0  0
  6 11  1  0  0  0  0
  6 22  1  0  0  0  0
  6 23  1  0  0  0  0
  7  8  1  0  0  0  0
  7 12  2  0  0  0  0
  8 13  1  0  0  0  0
  8 15  2  0  0  0  0
  9 14  1  0  0  0  0
  9 24  1  0  0  0  0
 10 25  1  0  0  0  0
 10 26  1  0  0  0  0
 11 27  1  0  0  0  0
 11 28  1  0  0  0  0
 11 29  1  0  0  0  0
 12 16  1  0  0  0  0
 12 30  1  0  0  0  0
 13 14  2  0  0  0  0
 13 31  1  0  0  0  0
 14 32  1  0  0  0  0
 15 17  1  0  0  0  0
 15 33  1  0  0  0  0
 16 17  2  0  0  0  0
 16 34  1  0  0  0  0
 17 35  1  0  0  0  0
M  END
> <PUBCHEM_COMPOUND_CID>
9439

> <PUBCHEM_COMPOUND_CANONICALIZED>
1

> <PUBCHEM_CACTVS_COMPLEXITY>
219

> <PUBCHEM_CACTVS_HBOND_ACCEPTOR>
2

> <PUBCHEM_CACTVS_HBOND_DONOR>
0

> <PUBCHEM_CACTVS_ROTATABLE_BOND>
5

> <PUBCHEM_CACTVS_SUBSKEYS>
AAADceByAQAAAAAAAAAAAAAAAAAAAAAAAAAwYAAAAAAAAADBUAAAHQAAAAAADADBGAQyAMMAAACAAiBCAACCAAAgAAAIiAAIBIgIICKAkRGEIAhggACIiAcQgMAOgAACAAAQAAAAAAQAACAAAAAAAAAAAA==

> <PUBCHEM_IUPAC_OPENEYE_NAME>
N-ethyl-2-fluoro-N-(1-naphthylmethyl)ethanamine

> <PUBCHEM_IUPAC_CAS_NAME>
N-ethyl-2-fluoro-N-(1-naphthalenylmethyl)ethanamine

> <PUBCHEM_IUPAC_NAME>
N-ethyl-2-fluoro-N-(naphthalen-1-ylmethyl)ethanamine

> <PUBCHEM_IUPAC_SYSTEMATIC_NAME>
N-ethyl-2-fluoranyl-N-(naphthalen-1-ylmethyl)ethanamine

> <PUBCHEM_IUPAC_TRADITIONAL_NAME>
ethyl-(2-fluoroethyl)-(1-naphthylmethyl)amine

> <PUBCHEM_IUPAC_INCHI>
InChI=1S/C15H18FN/c1-2-17(11-10-16)12-14-8-5-7-13-6-3-4-9-15(13)14/h3-9H,2,10-12H2,1H3

> <PUBCHEM_IUPAC_INCHIKEY>
HQCRDFMPWUOYCI-UHFFFAOYSA-N

> <PUBCHEM_XLOGP3>
3.8

> <PUBCHEM_EXACT_MASS>
231.142328

> <PUBCHEM_MOLECULAR_FORMULA>
C15H18FN

> <PUBCHEM_MOLECULAR_WEIGHT>
231.308523

> <PUBCHEM_OPENEYE_CAN_SMILES>
CCN(CCF)CC1=CC=CC2=CC=CC=C21

> <PUBCHEM_OPENEYE_ISO_SMILES>
CCN(CCF)CC1=CC=CC2=CC=CC=C21

> <PUBCHEM_CACTVS_TPSA>
3.2

> <PUBCHEM_MONOISOTOPIC_WEIGHT>
231.142328

> <PUBCHEM_TOTAL_CHARGE>
0

> <PUBCHEM_HEAVY_ATOM_COUNT>
17

> <PUBCHEM_ATOM_DEF_STEREO_COUNT>
0

> <PUBCHEM_ATOM_UDEF_STEREO_COUNT>
0

> <PUBCHEM_BOND_DEF_STEREO_COUNT>
0

> <PUBCHEM_BOND_UDEF_STEREO_COUNT>
0

> <PUBCHEM_ISOTOPIC_ATOM_COUNT>
0

> <PUBCHEM_COMPONENT_COUNT>
1

> <PUBCHEM_CACTVS_TAUTO_COUNT>
1

> <PUBCHEM_COORDINATE_TYPE>
1
5
255

> <PUBCHEM_BONDANNOTATIONS>
12  16  8
13  14  8
15  17  8
16  17  8
4  7  8
4  9  8
7  12  8
7  8  8
8  13  8
8  15  8
9  14  8

$$$$

