10490
  -OEChem-06261204362D

 67 71  0     1  0  0  0  0  0999 V2000
    8.2709   -2.4440    0.0000 O   0  0  0  0  0  0  0  0  0  0  0  0
    7.7056   -2.7704    0.0000 O   0  0  0  0  0  0  0  0  0  0  0  0
    4.4323   -0.5045    0.0000 O   0  0  0  0  0  0  0  0  0  0  0  0
    2.5357   -3.5566    0.0000 O   0  0  0  0  0  0  0  0  0  0  0  0
    8.8285    2.4458    0.0000 O   0  0  0  0  0  0  0  0  0  0  0  0
    5.3099    0.9887    0.0000 O   0  0  0  0  0  0  0  0  0  0  0  0
   10.1177    3.6025    0.0000 O   0  0  0  0  0  0  0  0  0  0  0  0
    7.9288   -1.5043    0.0000 C   0  0  2  0  0  0  0  0  0  0  0  0
    7.9288   -0.5043    0.0000 C   0  0  1  0  0  0  0  0  0  0  0  0
    7.0628   -2.0043    0.0000 C   0  0  1  0  0  0  0  0  0  0  0  0
    6.1968   -1.5043    0.0000 C   0  0  3  0  0  0  0  0  0  0  0  0
    5.2868   -2.0112    0.0000 C   0  0  2  0  0  0  0  0  0  0  0  0
    8.8750   -0.1996    0.0000 C   0  0  2  0  0  0  0  0  0  0  0  0
    7.0628   -0.0043    0.0000 C   0  0  0  0  0  0  0  0  0  0  0  0
    6.1968   -0.5043    0.0000 C   0  0  0  0  0  0  0  0  0  0  0  0
    8.8750   -1.8090    0.0000 C   0  0  0  0  0  0  0  0  0  0  0  0
    7.0789   -3.0458    0.0000 C   0  0  0  0  0  0  0  0  0  0  0  0
    9.4586   -1.0043    0.0000 C   0  0  0  0  0  0  0  0  0  0  0  0
    5.2787   -3.0528    0.0000 C   0  0  0  0  0  0  0  0  0  0  0  0
    7.9288    0.4957    0.0000 C   0  0  0  0  0  0  0  0  0  0  0  0
    6.1808   -3.5736    0.0000 C   0  0  0  0  0  0  0  0  0  0  0  0
    4.3599   -1.4471    0.0000 C   0  0  0  0  0  0  0  0  0  0  0  0
    5.2945   -1.0112    0.0000 C   0  0  0  0  0  0  0  0  0  0  0  0
    9.1857    0.7509    0.0000 C   0  0  0  0  0  0  0  0  0  0  0  0
    3.4120   -1.9750    0.0000 C   0  0  0  0  0  0  0  0  0  0  0  0
    4.3433   -3.6025    0.0000 C   0  0  0  0  0  0  0  0  0  0  0  0
    3.4037   -3.0600    0.0000 C   0  0  1  0  0  0  0  0  0  0  0  0
   10.1642    0.9572    0.0000 C   0  0  0  0  0  0  0  0  0  0  0  0
    8.5179    1.4952    0.0000 C   0  0  0  0  0  0  0  0  0  0  0  0
   10.4749    1.9077    0.0000 C   0  0  0  0  0  0  0  0  0  0  0  0
    4.4400    0.4954    0.0000 C   0  0  0  0  0  0  0  0  0  0  0  0
    9.8070    2.6520    0.0000 C   0  0  0  0  0  0  0  0  0  0  0  0
    3.5779    1.0021    0.0000 C   0  0  0  0  0  0  0  0  0  0  0  0
    6.9329   -1.0793    0.0000 H   0  0  0  0  0  0  0  0  0  0  0  0
    9.4875   -0.1034    0.0000 H   0  0  0  0  0  0  0  0  0  0  0  0
    7.4613    0.4706    0.0000 H   0  0  0  0  0  0  0  0  0  0  0  0
    6.6643    0.4706    0.0000 H   0  0  0  0  0  0  0  0  0  0  0  0
    5.9847    0.0783    0.0000 H   0  0  0  0  0  0  0  0  0  0  0  0
    5.5862   -0.6120    0.0000 H   0  0  0  0  0  0  0  0  0  0  0  0
    8.6240   -2.3760    0.0000 H   0  0  0  0  0  0  0  0  0  0  0  0
    9.4124   -2.1183    0.0000 H   0  0  0  0  0  0  0  0  0  0  0  0
    7.2969   -3.6262    0.0000 H   0  0  0  0  0  0  0  0  0  0  0  0
    7.6880   -2.9303    0.0000 H   0  0  0  0  0  0  0  0  0  0  0  0
    9.9195   -1.4190    0.0000 H   0  0  0  0  0  0  0  0  0  0  0  0
    9.9195   -0.5896    0.0000 H   0  0  0  0  0  0  0  0  0  0  0  0
    8.5488    0.4957    0.0000 H   0  0  0  0  0  0  0  0  0  0  0  0
    7.9288    1.1157    0.0000 H   0  0  0  0  0  0  0  0  0  0  0  0
    7.3088    0.4957    0.0000 H   0  0  0  0  0  0  0  0  0  0  0  0
    5.7835   -4.0496    0.0000 H   0  0  0  0  0  0  0  0  0  0  0  0
    6.5818   -4.0465    0.0000 H   0  0  0  0  0  0  0  0  0  0  0  0
    4.7681   -0.9804    0.0000 H   0  0  0  0  0  0  0  0  0  0  0  0
    3.9700   -0.9650    0.0000 H   0  0  0  0  0  0  0  0  0  0  0  0
    5.9042   -1.1236    0.0000 H   0  0  0  0  0  0  0  0  0  0  0  0
    5.5110   -0.4302    0.0000 H   0  0  0  0  0  0  0  0  0  0  0  0
    8.8814   -2.5517    0.0000 H   0  0  0  0  0  0  0  0  0  0  0  0
    7.8133   -3.3809    0.0000 H   0  0  0  0  0  0  0  0  0  0  0  0
    3.2075   -1.3898    0.0000 H   0  0  0  0  0  0  0  0  0  0  0  0
    2.8004   -2.0764    0.0000 H   0  0  0  0  0  0  0  0  0  0  0  0
    4.3457   -4.2225    0.0000 H   0  0  0  0  0  0  0  0  0  0  0  0
    3.4025   -3.6800    0.0000 H   0  0  0  0  0  0  0  0  0  0  0  0
   10.5783    0.4957    0.0000 H   0  0  0  0  0  0  0  0  0  0  0  0
    7.9112    1.3674    0.0000 H   0  0  0  0  0  0  0  0  0  0  0  0
    2.0000   -3.2446    0.0000 H   0  0  0  0  0  0  0  0  0  0  0  0
   11.0815    2.0355    0.0000 H   0  0  0  0  0  0  0  0  0  0  0  0
    3.8920    1.5366    0.0000 H   0  0  0  0  0  0  0  0  0  0  0  0
    3.0434    1.3162    0.0000 H   0  0  0  0  0  0  0  0  0  0  0  0
    3.2638    0.4676    0.0000 H   0  0  0  0  0  0  0  0  0  0  0  0
  8  1  1  1  0  0  0
  1 55  1  0  0  0  0
 10  2  1  6  0  0  0
  2 56  1  0  0  0  0
  3 23  1  0  0  0  0
  3 31  1  0  0  0  0
 27  4  1  1  0  0  0
  4 63  1  0  0  0  0
  5 29  1  0  0  0  0
  5 32  1  0  0  0  0
  6 31  2  0  0  0  0
  7 32  2  0  0  0  0
  8  9  1  0  0  0  0
  8 10  1  0  0  0  0
  8 16  1  0  0  0  0
  9 13  1  0  0  0  0
  9 14  1  0  0  0  0
  9 20  1  1  0  0  0
 10 11  1  0  0  0  0
 10 17  1  0  0  0  0
 11 12  1  0  0  0  0
 11 15  1  0  0  0  0
 11 34  1  0  0  0  0
 12 19  1  0  0  0  0
 12 22  1  0  0  0  0
 12 23  1  1  0  0  0
 13 18  1  0  0  0  0
 13 24  1  1  0  0  0
 13 35  1  0  0  0  0
 14 15  1  0  0  0  0
 14 36  1  0  0  0  0
 14 37  1  0  0  0  0
 15 38  1  0  0  0  0
 15 39  1  0  0  0  0
 16 18  1  0  0  0  0
 16 40  1  0  0  0  0
 16 41  1  0  0  0  0
 17 21  1  0  0  0  0
 17 42  1  0  0  0  0
 17 43  1  0  0  0  0
 18 44  1  0  0  0  0
 18 45  1  0  0  0  0
 19 21  1  0  0  0  0
 19 26  2  0  0  0  0
 20 46  1  0  0  0  0
 20 47  1  0  0  0  0
 20 48  1  0  0  0  0
 21 49  1  0  0  0  0
 21 50  1  0  0  0  0
 22 25  1  0  0  0  0
 22 51  1  0  0  0  0
 22 52  1  0  0  0  0
 23 53  1  0  0  0  0
 23 54  1  0  0  0  0
 24 28  1  0  0  0  0
 24 29  2  0  0  0  0
 25 27  1  0  0  0  0
 25 57  1  0  0  0  0
 25 58  1  0  0  0  0
 26 27  1  0  0  0  0
 26 59  1  0  0  0  0
 27 60  1  0  0  0  0
 28 30  2  0  0  0  0
 28 61  1  0  0  0  0
 29 62  1  0  0  0  0
 30 32  1  0  0  0  0
 30 64  1  0  0  0  0
 31 33  1  0  0  0  0
 33 65  1  0  0  0  0
 33 66  1  0  0  0  0
 33 67  1  0  0  0  0
M  END
> <PUBCHEM_COMPOUND_CID>
10490

> <PUBCHEM_COMPOUND_CANONICALIZED>
1

> <PUBCHEM_CACTVS_COMPLEXITY>
966

> <PUBCHEM_CACTVS_HBOND_ACCEPTOR>
7

> <PUBCHEM_CACTVS_HBOND_DONOR>
3

> <PUBCHEM_CACTVS_ROTATABLE_BOND>
4

> <PUBCHEM_CACTVS_SUBSKEYS>
AAADcfB4OAAAAAAAAAAAAAAAAAAAAYAAAAAwYIEAAAAAAGDAAAAAGgAACAAAD1SggAICCAAABgCIAiDSCAAACAAgIAAICAAAAEgJFAIAIQACUAAEwAAJsYPA4PwPgAAAAAAAAACAAAYAADCAAYAADAAAAA==

> <PUBCHEM_IUPAC_OPENEYE_NAME>
[(3S,8R,10S,13R,14R,17R)-3,8,14-trihydroxy-13-methyl-17-(6-oxopyran-3-yl)-2,3,6,7,9,11,12,15,16,17-decahydro-1H-cyclopenta[a]phenanthren-10-yl]methyl acetate

> <PUBCHEM_IUPAC_CAS_NAME>
acetic acid [(3S,8R,10S,13R,14R,17R)-3,8,14-trihydroxy-13-methyl-17-(6-oxo-3-pyranyl)-2,3,6,7,9,11,12,15,16,17-decahydro-1H-cyclopenta[a]phenanthren-10-yl]methyl ester

> <PUBCHEM_IUPAC_NAME>
[(3S,8R,10S,13R,14R,17R)-3,8,14-trihydroxy-13-methyl-17-(6-oxopyran-3-yl)-2,3,6,7,9,11,12,15,16,17-decahydro-1H-cyclopenta[a]phenanthren-10-yl]methyl acetate

> <PUBCHEM_IUPAC_SYSTEMATIC_NAME>
[(3S,8R,10S,13R,14R,17R)-13-methyl-3,8,14-tris(oxidanyl)-17-(6-oxidanylidenepyran-3-yl)-2,3,6,7,9,11,12,15,16,17-decahydro-1H-cyclopenta[a]phenanthren-10-yl]methyl ethanoate

> <PUBCHEM_IUPAC_TRADITIONAL_NAME>
acetic acid [(3S,8R,10S,13R,14R,17R)-3,8,14-trihydroxy-17-(6-ketopyran-3-yl)-13-methyl-2,3,6,7,9,11,12,15,16,17-decahydro-1H-cyclopenta[a]phenanthren-10-yl]methyl ester

> <PUBCHEM_IUPAC_INCHI>
InChI=1S/C26H34O7/c1-16(27)33-15-24-10-6-19(28)13-18(24)5-11-25(30)21(24)8-9-23(2)20(7-12-26(23,25)31)17-3-4-22(29)32-14-17/h3-4,13-14,19-21,28,30-31H,5-12,15H2,1-2H3/t19-,20+,21?,23+,24+,25+,26+/m0/s1

> <PUBCHEM_IUPAC_INCHIKEY>
ZSCAAWSQUYAPTC-IIFHNGFLSA-N

> <PUBCHEM_XLOGP3_AA>
1.1

> <PUBCHEM_EXACT_MASS>
458.230453

> <PUBCHEM_MOLECULAR_FORMULA>
C26H34O7

> <PUBCHEM_MOLECULAR_WEIGHT>
458.54396

> <PUBCHEM_OPENEYE_CAN_SMILES>
CC(=O)OCC12CCC(C=C1CCC3(C2CCC4(C3(CCC4C5=COC(=O)C=C5)O)C)O)O

> <PUBCHEM_OPENEYE_ISO_SMILES>
CC(=O)OC[C@]12CC[C@@H](C=C1CC[C@]3(C2CC[C@]4([C@@]3(CC[C@@H]4C5=COC(=O)C=C5)O)C)O)O

> <PUBCHEM_CACTVS_TPSA>
113

> <PUBCHEM_MONOISOTOPIC_WEIGHT>
458.230453

> <PUBCHEM_TOTAL_CHARGE>
0

> <PUBCHEM_HEAVY_ATOM_COUNT>
33

> <PUBCHEM_ATOM_DEF_STEREO_COUNT>
6

> <PUBCHEM_ATOM_UDEF_STEREO_COUNT>
1

> <PUBCHEM_BOND_DEF_STEREO_COUNT>
0

> <PUBCHEM_BOND_UDEF_STEREO_COUNT>
0

> <PUBCHEM_ISOTOPIC_ATOM_COUNT>
0

> <PUBCHEM_COMPONENT_COUNT>
1

> <PUBCHEM_CACTVS_TAUTO_COUNT>
1

> <PUBCHEM_COORDINATE_TYPE>
1
5
255

> <PUBCHEM_BONDANNOTATIONS>
8  1  5
11  34  3
12  23  5
13  24  5
10  2  6
24  28  8
24  29  8
28  30  8
30  32  8
27  4  5
5  29  8
5  32  8
9  20  5

$$$$

