9650
  -OEChem-06261203543D

 35 36  0     0  0  0  0  0  0999 V2000
    0.2932   -1.6478   -0.9742 O   0  0  0  0  0  0  0  0  0  0  0  0
    3.5761    1.4024   -0.2734 O   0  0  0  0  0  0  0  0  0  0  0  0
   -0.7254    2.6253    0.6459 O   0  0  0  0  0  0  0  0  0  0  0  0
   -0.3675    0.3902   -0.0192 N   0  0  0  0  0  0  0  0  0  0  0  0
    1.3826    1.9896    0.0746 N   0  0  0  0  0  0  0  0  0  0  0  0
    1.9763   -0.3633    0.1760 C   0  0  0  0  0  0  0  0  0  0  0  0
    2.9717   -1.3168   -0.5050 C   0  0  0  0  0  0  0  0  0  0  0  0
    1.9947   -0.6285    1.6919 C   0  0  0  0  0  0  0  0  0  0  0  0
    0.5599   -0.6279   -0.3353 C   0  0  0  0  0  0  0  0  0  0  0  0
    2.4114    1.0716   -0.0603 C   0  0  0  0  0  0  0  0  0  0  0  0
    3.0547   -1.0442   -1.9907 C   0  0  0  0  0  0  0  0  0  0  0  0
    1.6012   -2.0567    1.9968 C   0  0  0  0  0  0  0  0  0  0  0  0
    0.0216    1.7262    0.2508 C   0  0  0  0  0  0  0  0  0  0  0  0
   -1.7764    0.0615   -0.0670 C   0  0  0  0  0  0  0  0  0  0  0  0
   -2.1879   -1.2367    0.2084 C   0  0  0  0  0  0  0  0  0  0  0  0
   -2.7010    1.0477   -0.3880 C   0  0  0  0  0  0  0  0  0  0  0  0
   -3.5456   -1.5535    0.1620 C   0  0  0  0  0  0  0  0  0  0  0  0
   -4.0586    0.7308   -0.4342 C   0  0  0  0  0  0  0  0  0  0  0  0
   -4.4809   -0.5699   -0.1591 C   0  0  0  0  0  0  0  0  0  0  0  0
    2.6791   -2.3662   -0.3906 H   0  0  0  0  0  0  0  0  0  0  0  0
    3.9731   -1.2169   -0.0676 H   0  0  0  0  0  0  0  0  0  0  0  0
    1.3067    0.0445    2.2186 H   0  0  0  0  0  0  0  0  0  0  0  0
    2.9907   -0.4267    2.1064 H   0  0  0  0  0  0  0  0  0  0  0  0
    2.0936   -1.1160   -2.5053 H   0  0  0  0  0  0  0  0  0  0  0  0
    3.4861   -0.0674   -2.2242 H   0  0  0  0  0  0  0  0  0  0  0  0
    3.7139   -1.7874   -2.4546 H   0  0  0  0  0  0  0  0  0  0  0  0
    0.6290   -2.3399    1.5883 H   0  0  0  0  0  0  0  0  0  0  0  0
    2.3507   -2.7805    1.6657 H   0  0  0  0  0  0  0  0  0  0  0  0
    1.5267   -2.1787    3.0840 H   0  0  0  0  0  0  0  0  0  0  0  0
    1.6549    2.9686    0.0887 H   0  0  0  0  0  0  0  0  0  0  0  0
   -1.5054   -2.0224    0.5138 H   0  0  0  0  0  0  0  0  0  0  0  0
   -2.4290    2.0534   -0.6869 H   0  0  0  0  0  0  0  0  0  0  0  0
   -3.8761   -2.5634    0.3869 H   0  0  0  0  0  0  0  0  0  0  0  0
   -4.7862    1.4919   -0.7010 H   0  0  0  0  0  0  0  0  0  0  0  0
   -5.5379   -0.8169   -0.1964 H   0  0  0  0  0  0  0  0  0  0  0  0
  1  9  2  0  0  0  0
  2 10  2  0  0  0  0
  3 13  2  0  0  0  0
  4  9  1  0  0  0  0
  4 13  1  0  0  0  0
  4 14  1  0  0  0  0
  5 10  1  0  0  0  0
  5 13  1  0  0  0  0
  5 30  1  0  0  0  0
  6  7  1  0  0  0  0
  6  8  1  0  0  0  0
  6  9  1  0  0  0  0
  6 10  1  0  0  0  0
  7 11  1  0  0  0  0
  7 20  1  0  0  0  0
  7 21  1  0  0  0  0
  8 12  1  0  0  0  0
  8 22  1  0  0  0  0
  8 23  1  0  0  0  0
 11 24  1  0  0  0  0
 11 25  1  0  0  0  0
 11 26  1  0  0  0  0
 12 27  1  0  0  0  0
 12 28  1  0  0  0  0
 12 29  1  0  0  0  0
 14 15  2  0  0  0  0
 14 16  1  0  0  0  0
 15 17  1  0  0  0  0
 15 31  1  0  0  0  0
 16 18  2  0  0  0  0
 16 32  1  0  0  0  0
 17 19  2  0  0  0  0
 17 33  1  0  0  0  0
 18 19  1  0  0  0  0
 18 34  1  0  0  0  0
 19 35  1  0  0  0  0
M  END
> <PUBCHEM_COMPOUND_CID>
9650

> <PUBCHEM_CONFORMER_RMSD>
0.6

> <PUBCHEM_CONFORMER_DIVERSEORDER>
1
12
3
6
8
10
9
7
5
11
2
4

> <PUBCHEM_MMFF94_PARTIAL_CHARGES>
21
1 -0.57
10 0.57
13 0.69
14 0.12
15 -0.15
16 -0.15
17 -0.15
18 -0.15
19 -0.15
2 -0.57
3 -0.57
30 0.37
31 0.15
32 0.15
33 0.15
34 0.15
35 0.15
4 -0.24
5 -0.49
6 0.12
9 0.57

> <PUBCHEM_EFFECTIVE_ROTOR_COUNT>
3.6

> <PUBCHEM_PHARMACOPHORE_FEATURES>
8
1 1 acceptor
1 11 hydrophobe
1 12 hydrophobe
1 2 acceptor
1 3 acceptor
1 5 donor
6 14 15 16 17 18 19 rings
6 4 5 6 9 10 13 rings

> <PUBCHEM_HEAVY_ATOM_COUNT>
19

> <PUBCHEM_ATOM_DEF_STEREO_COUNT>
0

> <PUBCHEM_ATOM_UDEF_STEREO_COUNT>
0

> <PUBCHEM_BOND_DEF_STEREO_COUNT>
0

> <PUBCHEM_BOND_UDEF_STEREO_COUNT>
0

> <PUBCHEM_ISOTOPIC_ATOM_COUNT>
0

> <PUBCHEM_COMPONENT_COUNT>
1

> <PUBCHEM_CACTVS_TAUTO_COUNT>
3

> <PUBCHEM_CONFORMER_ID>
000025B200000001

> <PUBCHEM_MMFF94_ENERGY>
70.5444

> <PUBCHEM_FEATURE_SELFOVERLAP>
40.594

> <PUBCHEM_SHAPE_FINGERPRINT>
10967382 1 18335701585717641709
10980938 120 18336831874949250377
11543360 7 16200141085054407647
11578080 2 17416148250368474028
11680611 10 18125163989722393392
116883 192 18115863177818586397
12553582 1 18339079410287561849
12932764 1 17917432064012157807
13140716 1 18336550503257483545
13296908 3 18408603664941928719
14252887 29 18260261915197548811
14787075 74 18054503604169230752
15196674 1 18408885135787143957
15375462 189 18202281446272127723
15536298 74 18333730204134154428
16752209 62 18195533825022268705
16945 1 18194118740255473392
1813 80 4967338950949477574
18186145 218 18201441402213808197
19862831 5 18130497625975962710
20559304 39 18200324336785908610
20645477 70 18409173173558311599
21267235 1 18409720764239352671
21452121 103 18186812361378228696
21501502 16 18342466932688037761
2255824 54 17989205910740269876
2334 1 18336830788507049917
23402539 116 18337680724318066174
23419403 2 5217801604871645098
23559900 14 18263648540002912926
2748010 2 18335141972890603381
34934 24 18335709282098705924
5104073 3 18410292506539157081
5262128 65 18261656151982014932
7364860 26 18115871806371019168
81228 2 18045218499356750505
8809292 202 18412820313614794091
9709674 26 18339077065241115151

> <PUBCHEM_SHAPE_MULTIPOLES>
363.44
6.83
2.25
1.31
5.28
0.64
-0.09
-1.04
1.4
-0.42
-0.53
-1.4
-0.73
0.01

> <PUBCHEM_SHAPE_SELFOVERLAP>
777.408

> <PUBCHEM_SHAPE_VOLUME>
199.1

> <PUBCHEM_COORDINATE_TYPE>
2
5
10

$$$$

