17395991
  -OEChem-06241222533D

 42 43  0     1  0  0  0  0  0999 V2000
   -5.1928   -2.4308    0.2689 F   0  0  0  0  0  0  0  0  0  0  0  0
   -8.1463    1.0632   -0.9350 F   0  0  0  0  0  0  0  0  0  0  0  0
    0.5223    0.0289    0.6259 O   0  0  0  0  0  0  0  0  0  0  0  0
   -1.7436    1.2776    0.0703 O   0  0  0  0  0  0  0  0  0  0  0  0
    1.7916   -1.7744   -0.0347 O   0  0  0  0  0  0  0  0  0  0  0  0
    6.1442   -1.9197   -0.8764 O   0  0  0  0  0  0  0  0  0  0  0  0
   -3.0198   -0.6851    0.2484 N   0  0  0  0  0  0  0  0  0  0  0  0
    6.4493    0.3673   -0.3916 N   0  0  0  0  0  0  0  0  0  0  0  0
   -0.6433   -0.7795    0.6532 C   0  0  2  0  0  0  0  0  0  0  0  0
   -1.8542    0.0735    0.2830 C   0  0  0  0  0  0  0  0  0  0  0  0
    2.8191    0.3546    0.2758 C   0  0  0  0  0  0  0  0  0  0  0  0
   -0.7933   -1.3975    2.0353 C   0  0  0  0  0  0  0  0  0  0  0  0
   -4.3293   -0.2418   -0.0544 C   0  0  0  0  0  0  0  0  0  0  0  0
    5.1695    0.8072   -0.0515 C   0  0  0  0  0  0  0  0  0  0  0  0
    4.0983   -0.0859   -0.0639 C   0  0  0  0  0  0  0  0  0  0  0  0
    1.6783   -0.5956    0.2636 C   0  0  0  0  0  0  0  0  0  0  0  0
    2.6114    1.6882    0.6279 C   0  0  0  0  0  0  0  0  0  0  0  0
    4.9617    2.1408    0.3006 C   0  0  0  0  0  0  0  0  0  0  0  0
    3.6827    2.5814    0.6403 C   0  0  0  0  0  0  0  0  0  0  0  0
   -5.3956   -1.1409   -0.0347 C   0  0  0  0  0  0  0  0  0  0  0  0
   -4.5524    1.0979   -0.3720 C   0  0  0  0  0  0  0  0  0  0  0  0
   -6.6850   -0.7002   -0.3326 C   0  0  0  0  0  0  0  0  0  0  0  0
   -5.8418    1.5386   -0.6700 C   0  0  0  0  0  0  0  0  0  0  0  0
   -6.9081    0.6395   -0.6504 C   0  0  0  0  0  0  0  0  0  0  0  0
    6.8492   -0.9215   -0.7687 C   0  0  0  0  0  0  0  0  0  0  0  0
    8.3281   -0.9860   -1.0574 C   0  0  0  0  0  0  0  0  0  0  0  0
   -0.5833   -1.5726   -0.1042 H   0  0  0  0  0  0  0  0  0  0  0  0
   -1.6355   -2.0926    2.0955 H   0  0  0  0  0  0  0  0  0  0  0  0
    0.1140   -1.9407    2.3204 H   0  0  0  0  0  0  0  0  0  0  0  0
   -0.9447   -0.6184    2.7913 H   0  0  0  0  0  0  0  0  0  0  0  0
   -2.9456   -1.6813    0.4406 H   0  0  0  0  0  0  0  0  0  0  0  0
    4.2038   -1.1284   -0.3282 H   0  0  0  0  0  0  0  0  0  0  0  0
    1.6327    2.0738    0.8991 H   0  0  0  0  0  0  0  0  0  0  0  0
    5.7874    2.8478    0.3145 H   0  0  0  0  0  0  0  0  0  0  0  0
    3.5214    3.6199    0.9144 H   0  0  0  0  0  0  0  0  0  0  0  0
   -3.7805    1.8533   -0.4107 H   0  0  0  0  0  0  0  0  0  0  0  0
    7.1762    1.0791   -0.3582 H   0  0  0  0  0  0  0  0  0  0  0  0
   -7.5152   -1.3999   -0.3171 H   0  0  0  0  0  0  0  0  0  0  0  0
   -6.0173    2.5814   -0.9178 H   0  0  0  0  0  0  0  0  0  0  0  0
    8.6099   -2.0088   -1.3221 H   0  0  0  0  0  0  0  0  0  0  0  0
    8.5706   -0.3227   -1.8923 H   0  0  0  0  0  0  0  0  0  0  0  0
    8.8928   -0.6809   -0.1719 H   0  0  0  0  0  0  0  0  0  0  0  0
  1 20  1  0  0  0  0
  2 24  1  0  0  0  0
  3  9  1  0  0  0  0
  3 16  1  0  0  0  0
  4 10  2  0  0  0  0
  5 16  2  0  0  0  0
  6 25  2  0  0  0  0
  7 10  1  0  0  0  0
  7 13  1  0  0  0  0
  7 31  1  0  0  0  0
  8 14  1  0  0  0  0
  8 25  1  0  0  0  0
  8 37  1  0  0  0  0
  9 10  1  0  0  0  0
  9 12  1  0  0  0  0
  9 27  1  0  0  0  0
 11 15  2  0  0  0  0
 11 16  1  0  0  0  0
 11 17  1  0  0  0  0
 12 28  1  0  0  0  0
 12 29  1  0  0  0  0
 12 30  1  0  0  0  0
 13 20  2  0  0  0  0
 13 21  1  0  0  0  0
 14 15  1  0  0  0  0
 14 18  2  0  0  0  0
 15 32  1  0  0  0  0
 17 19  2  0  0  0  0
 17 33  1  0  0  0  0
 18 19  1  0  0  0  0
 18 34  1  0  0  0  0
 19 35  1  0  0  0  0
 20 22  1  0  0  0  0
 21 23  2  0  0  0  0
 21 36  1  0  0  0  0
 22 24  2  0  0  0  0
 22 38  1  0  0  0  0
 23 24  1  0  0  0  0
 23 39  1  0  0  0  0
 25 26  1  0  0  0  0
 26 40  1  0  0  0  0
 26 41  1  0  0  0  0
 26 42  1  0  0  0  0
M  END
> <PUBCHEM_COMPOUND_CID>
17395991

> <PUBCHEM_CONFORMER_RMSD>
1.4

> <PUBCHEM_CONFORMER_DIVERSEORDER>
2
33
56
36
54
3
15
55
28
14
9
12
13
17
50
53
25
26
38
24
31
20
44
58
37
51
27
34
10
7
19
57
21
49
48
42
52
32
35
46
8
45
47
6
39
43
29
22
40
23
4
11
30
1
41
5
16
18

> <PUBCHEM_MMFF94_PARTIAL_CHARGES>
34
1 -0.19
10 0.57
11 0.09
13 0.12
14 0.12
15 -0.15
16 0.63
17 -0.15
18 -0.15
19 -0.15
2 -0.19
20 0.19
21 -0.15
22 -0.15
23 -0.15
24 0.19
25 0.57
26 0.06
3 -0.43
31 0.37
32 0.15
33 0.15
34 0.15
35 0.15
36 0.15
37 0.37
38 0.15
39 0.15
4 -0.57
5 -0.57
6 -0.57
7 -0.55
8 -0.55
9 0.34

> <PUBCHEM_EFFECTIVE_ROTOR_COUNT>
8

> <PUBCHEM_PHARMACOPHORE_FEATURES>
7
1 4 acceptor
1 5 acceptor
1 6 acceptor
1 7 donor
1 8 donor
6 11 14 15 17 18 19 rings
6 13 20 21 22 23 24 rings

> <PUBCHEM_HEAVY_ATOM_COUNT>
26

> <PUBCHEM_ATOM_DEF_STEREO_COUNT>
0

> <PUBCHEM_ATOM_UDEF_STEREO_COUNT>
1

> <PUBCHEM_BOND_DEF_STEREO_COUNT>
0

> <PUBCHEM_BOND_UDEF_STEREO_COUNT>
0

> <PUBCHEM_ISOTOPIC_ATOM_COUNT>
0

> <PUBCHEM_COMPONENT_COUNT>
1

> <PUBCHEM_CACTVS_TAUTO_COUNT>
4

> <PUBCHEM_CONFORMER_ID>
0109711700000002

> <PUBCHEM_MMFF94_ENERGY>
70.8205

> <PUBCHEM_FEATURE_SELFOVERLAP>
35.52

> <PUBCHEM_SHAPE_FINGERPRINT>
10 15 14117516554451348185
10029044 110 16056300719937145708
10066227 49 18113896117600252174
106641 1 9799683801079957525
10670039 82 17704074035760540524
10763959 59 18272367542926351692
11719270 70 18040437715678446126
12166972 35 18341890758140669036
13533116 47 17417543504843463314
13668630 136 17603859032031645854
14170010 4 18113902654919582800
14251757 52 16415472732483806180
14933364 13 18412545397100656197
15183329 4 18410291441007445992
15461852 350 14620795969179314563
15475509 35 5255863992308361788
1813 80 4678821670428531825
18335252 114 18261401047972983709
190975 80 8214138543298686804
21267235 1 18335414660248084409
21315759 40 16370727019763607645
21344244 246 17750226066950173478
220451 1 16558758896923090099
221357 26 18408604777660621000
22224240 67 9799684884034422548
23559900 14 18410859832415535952
249057 3 18113901550675332918
29717793 49 17748823021166189692
3004659 81 18412265034589105728
335352 9 18408318896489978908
34797466 226 18114178614936862765
3545911 37 18342178869236873721
3663271 9 11023836088830047581
4073 2 18059855013314327139
4325135 7 18201721760646767093
5283156 175 17240198850219036275
54076057 255 16128646437118247652

> <PUBCHEM_SHAPE_MULTIPOLES>
487.08
23.63
2.13
1.01
3
0.4
-0.26
-1.16
10.18
-1.2
-0.2
-0.2
-0.23
2.21

> <PUBCHEM_SHAPE_SELFOVERLAP>
1035.645

> <PUBCHEM_SHAPE_VOLUME>
270.6

> <PUBCHEM_COORDINATE_TYPE>
2
5
10

$$$$

