10942
  -OEChem-06261205092D

 23 22  0     0  0  0  0  0  0999 V2000
    1.8360    0.8660    0.0000 S   0  0  0  0  0  0  0  0  0  0  0  0
    2.7020    1.3660    0.0000 O   0  0  0  0  0  0  0  0  0  0  0  0
    0.9699    0.3660    0.0000 O   0  0  0  0  0  0  0  0  0  0  0  0
    1.3360    1.7320    0.0000 O   0  0  0  0  0  0  0  0  0  0  0  0
    2.3360    0.0000    0.0000 O   0  0  0  0  0  0  0  0  0  0  0  0
    2.2690    7.3520    0.0000 N   0  0  0  0  0  0  0  0  0  0  0  0
    0.5369    4.3520    0.0000 N   0  0  0  0  0  0  0  0  0  0  0  0
    2.2690    6.3520    0.0000 C   0  0  0  0  0  0  0  0  0  0  0  0
    1.4030    4.8520    0.0000 C   0  0  0  0  0  0  0  0  0  0  0  0
    1.4030    5.8520    0.0000 C   0  0  0  0  0  0  0  0  0  0  0  0
    3.1350    5.8520    0.0000 C   0  0  0  0  0  0  0  0  0  0  0  0
    2.2690    4.3520    0.0000 C   0  0  0  0  0  0  0  0  0  0  0  0
    3.1350    4.8520    0.0000 C   0  0  0  0  0  0  0  0  0  0  0  0
    0.8660    6.1620    0.0000 H   0  0  0  0  0  0  0  0  0  0  0  0
    3.6720    6.1620    0.0000 H   0  0  0  0  0  0  0  0  0  0  0  0
    2.2690    3.7320    0.0000 H   0  0  0  0  0  0  0  0  0  0  0  0
    3.6720    4.5420    0.0000 H   0  0  0  0  0  0  0  0  0  0  0  0
    2.8059    7.6620    0.0000 H   0  0  0  0  0  0  0  0  0  0  0  0
    1.7320    7.6620    0.0000 H   0  0  0  0  0  0  0  0  0  0  0  0
    0.5369    3.7320    0.0000 H   0  0  0  0  0  0  0  0  0  0  0  0
    0.0000    4.6620    0.0000 H   0  0  0  0  0  0  0  0  0  0  0  0
    3.2389    1.0560    0.0000 H   0  0  0  0  0  0  0  0  0  0  0  0
    0.4330    0.6760    0.0000 H   0  0  0  0  0  0  0  0  0  0  0  0
  1  2  1  0  0  0  0
  1  3  1  0  0  0  0
  1  4  2  0  0  0  0
  1  5  2  0  0  0  0
  2 22  1  0  0  0  0
  3 23  1  0  0  0  0
  6  8  1  0  0  0  0
  6 18  1  0  0  0  0
  6 19  1  0  0  0  0
  7  9  1  0  0  0  0
  7 20  1  0  0  0  0
  7 21  1  0  0  0  0
  8 10  2  0  0  0  0
  8 11  1  0  0  0  0
  9 10  1  0  0  0  0
  9 12  2  0  0  0  0
 10 14  1  0  0  0  0
 11 13  2  0  0  0  0
 11 15  1  0  0  0  0
 12 13  1  0  0  0  0
 12 16  1  0  0  0  0
 13 17  1  0  0  0  0
M  END
> <PUBCHEM_COMPOUND_CID>
10942

> <PUBCHEM_COMPOUND_CANONICALIZED>
1

> <PUBCHEM_CACTVS_COMPLEXITY>
146

> <PUBCHEM_CACTVS_HBOND_ACCEPTOR>
6

> <PUBCHEM_CACTVS_HBOND_DONOR>
4

> <PUBCHEM_CACTVS_ROTATABLE_BOND>
0

> <PUBCHEM_CACTVS_SUBSKEYS>
AAADccBjOABAAAAAAAAAAAAAAAAAAAAAAAAwAAAAAAAAAAABAAAAHAAQCAAACAiBEAAwwIBAAICAACRCQDCCAAAgAgAIiAAAZIgIICKA0dGAIABgkAAIyAcQAAAAAAAAAAQAAAAAAAAACAAAAAAAAAAAAA==

> <PUBCHEM_IUPAC_OPENEYE_NAME>
benzene-1,3-diamine; sulfuric acid

> <PUBCHEM_IUPAC_CAS_NAME>
benzene-1,3-diamine; sulfuric acid

> <PUBCHEM_IUPAC_NAME>
benzene-1,3-diamine; sulfuric acid

> <PUBCHEM_IUPAC_SYSTEMATIC_NAME>
benzene-1,3-diamine; sulfuric acid

> <PUBCHEM_IUPAC_TRADITIONAL_NAME>
m-phenylenediamine; sulfuric acid

> <PUBCHEM_IUPAC_INCHI>
InChI=1S/C6H8N2.H2O4S/c7-5-2-1-3-6(8)4-5;1-5(2,3)4/h1-4H,7-8H2;(H2,1,2,3,4)

> <PUBCHEM_IUPAC_INCHIKEY>
LDXYDHGRKFMULJ-UHFFFAOYSA-N

> <PUBCHEM_EXACT_MASS>
206.036128

> <PUBCHEM_MOLECULAR_FORMULA>
C6H10N2O4S

> <PUBCHEM_MOLECULAR_WEIGHT>
206.2196

> <PUBCHEM_OPENEYE_CAN_SMILES>
C1=CC(=CC(=C1)N)N.OS(=O)(=O)O

> <PUBCHEM_OPENEYE_ISO_SMILES>
C1=CC(=CC(=C1)N)N.OS(=O)(=O)O

> <PUBCHEM_CACTVS_TPSA>
135

> <PUBCHEM_MONOISOTOPIC_WEIGHT>
206.036128

> <PUBCHEM_TOTAL_CHARGE>
0

> <PUBCHEM_HEAVY_ATOM_COUNT>
13

> <PUBCHEM_ATOM_DEF_STEREO_COUNT>
0

> <PUBCHEM_ATOM_UDEF_STEREO_COUNT>
0

> <PUBCHEM_BOND_DEF_STEREO_COUNT>
0

> <PUBCHEM_BOND_UDEF_STEREO_COUNT>
0

> <PUBCHEM_ISOTOPIC_ATOM_COUNT>
0

> <PUBCHEM_COMPONENT_COUNT>
2

> <PUBCHEM_CACTVS_TAUTO_COUNT>
1

> <PUBCHEM_COORDINATE_TYPE>
1
5
255

> <PUBCHEM_BONDANNOTATIONS>
11  13  8
12  13  8
8  10  8
8  11  8
9  10  8
9  12  8

$$$$

