854099
  -OEChem-06241222473D

 36 38  0     1  0  0  0  0  0999 V2000
    0.4505   -0.8128    1.8787 O   0  0  0  0  0  0  0  0  0  0  0  0
    2.3908    0.9159   -0.2759 N   0  0  0  0  0  0  0  0  0  0  0  0
    1.0737   -1.1956   -0.4435 C   0  0  0  0  0  0  0  0  0  0  0  0
    0.4017   -0.1951    0.5808 C   0  0  2  0  0  0  0  0  0  0  0  0
    2.5340   -1.4962    0.0128 C   0  0  0  0  0  0  0  0  0  0  0  0
    1.1881   -0.5200   -1.8371 C   0  0  0  0  0  0  0  0  0  0  0  0
    3.3346   -0.1771    0.0620 C   0  0  0  0  0  0  0  0  0  0  0  0
    1.9728    0.8001   -1.6937 C   0  0  0  0  0  0  0  0  0  0  0  0
    1.3274    1.0326    0.6375 C   0  0  0  0  0  0  0  0  0  0  0  0
   -1.0592    0.0693    0.2031 C   0  0  0  0  0  0  0  0  0  0  0  0
    1.2015    2.0332    1.5234 C   0  0  0  0  0  0  0  0  0  0  0  0
   -1.9798   -0.9753    0.1245 C   0  0  0  0  0  0  0  0  0  0  0  0
   -1.4626    1.3774   -0.0628 C   0  0  0  0  0  0  0  0  0  0  0  0
   -3.3054   -0.7111   -0.2204 C   0  0  0  0  0  0  0  0  0  0  0  0
   -1.5705   -2.3838    0.4051 C   0  0  0  0  0  0  0  0  0  0  0  0
   -2.7881    1.6413   -0.4078 C   0  0  0  0  0  0  0  0  0  0  0  0
   -3.7094    0.5972   -0.4866 C   0  0  0  0  0  0  0  0  0  0  0  0
    0.5880   -2.1611   -0.5451 H   0  0  0  0  0  0  0  0  0  0  0  0
    3.0163   -2.1922   -0.6845 H   0  0  0  0  0  0  0  0  0  0  0  0
    2.5467   -1.9838    0.9942 H   0  0  0  0  0  0  0  0  0  0  0  0
    0.2011   -0.3295   -2.2725 H   0  0  0  0  0  0  0  0  0  0  0  0
    1.7102   -1.1833   -2.5377 H   0  0  0  0  0  0  0  0  0  0  0  0
    3.7613   -0.0199    1.0599 H   0  0  0  0  0  0  0  0  0  0  0  0
    4.1703   -0.1986   -0.6470 H   0  0  0  0  0  0  0  0  0  0  0  0
    2.8457    0.8117   -2.3566 H   0  0  0  0  0  0  0  0  0  0  0  0
    1.3453    1.6550   -1.9733 H   0  0  0  0  0  0  0  0  0  0  0  0
   -0.2937   -0.4822    2.4102 H   0  0  0  0  0  0  0  0  0  0  0  0
    1.9138    2.8515    1.5435 H   0  0  0  0  0  0  0  0  0  0  0  0
    0.3958    2.0516    2.2492 H   0  0  0  0  0  0  0  0  0  0  0  0
   -0.7931    2.2282   -0.0562 H   0  0  0  0  0  0  0  0  0  0  0  0
   -4.0337   -1.5149   -0.2888 H   0  0  0  0  0  0  0  0  0  0  0  0
   -1.3229   -2.9020   -0.5267 H   0  0  0  0  0  0  0  0  0  0  0  0
   -0.7870   -2.5284    1.1456 H   0  0  0  0  0  0  0  0  0  0  0  0
   -2.4291   -2.9236    0.8276 H   0  0  0  0  0  0  0  0  0  0  0  0
   -3.1019    2.6585   -0.6238 H   0  0  0  0  0  0  0  0  0  0  0  0
   -4.7408    0.8025   -0.7578 H   0  0  0  0  0  0  0  0  0  0  0  0
  1  4  1  0  0  0  0
  1 27  1  0  0  0  0
  2  7  1  0  0  0  0
  2  8  1  0  0  0  0
  2  9  1  0  0  0  0
  3  4  1  0  0  0  0
  3  5  1  0  0  0  0
  3  6  1  0  0  0  0
  3 18  1  0  0  0  0
  4  9  1  0  0  0  0
  4 10  1  0  0  0  0
  5  7  1  0  0  0  0
  5 19  1  0  0  0  0
  5 20  1  0  0  0  0
  6  8  1  0  0  0  0
  6 21  1  0  0  0  0
  6 22  1  0  0  0  0
  7 23  1  0  0  0  0
  7 24  1  0  0  0  0
  8 25  1  0  0  0  0
  8 26  1  0  0  0  0
  9 11  2  0  0  0  0
 10 12  1  0  0  0  0
 10 13  2  0  0  0  0
 11 28  1  0  0  0  0
 11 29  1  0  0  0  0
 12 14  2  0  0  0  0
 12 15  1  0  0  0  0
 13 16  1  0  0  0  0
 13 30  1  0  0  0  0
 14 17  1  0  0  0  0
 14 31  1  0  0  0  0
 15 32  1  0  0  0  0
 15 33  1  0  0  0  0
 15 34  1  0  0  0  0
 16 17  2  0  0  0  0
 16 35  1  0  0  0  0
 17 36  1  0  0  0  0
M  END
> <PUBCHEM_COMPOUND_CID>
854099

> <PUBCHEM_CONFORMER_RMSD>
0.6

> <PUBCHEM_CONFORMER_DIVERSEORDER>
1

> <PUBCHEM_MMFF94_PARTIAL_CHARGES>
21
1 -0.68
10 -0.14
11 -0.3
12 -0.14
13 -0.15
14 -0.15
15 0.14
16 -0.15
17 -0.15
2 -0.84
27 0.4
28 0.15
29 0.15
30 0.15
31 0.15
35 0.15
36 0.15
4 0.56
7 0.37
8 0.37
9 -0.04

> <PUBCHEM_EFFECTIVE_ROTOR_COUNT>
2

> <PUBCHEM_PHARMACOPHORE_FEATURES>
5
1 1 acceptor
1 1 donor
1 2 cation
6 10 12 13 14 16 17 rings
8 2 3 4 5 6 7 8 9 rings

> <PUBCHEM_HEAVY_ATOM_COUNT>
17

> <PUBCHEM_ATOM_DEF_STEREO_COUNT>
1

> <PUBCHEM_ATOM_UDEF_STEREO_COUNT>
0

> <PUBCHEM_BOND_DEF_STEREO_COUNT>
0

> <PUBCHEM_BOND_UDEF_STEREO_COUNT>
0

> <PUBCHEM_ISOTOPIC_ATOM_COUNT>
0

> <PUBCHEM_COMPONENT_COUNT>
1

> <PUBCHEM_CACTVS_TAUTO_COUNT>
1

> <PUBCHEM_CONFORMER_ID>
000D085300000001

> <PUBCHEM_MMFF94_ENERGY>
86.9575

> <PUBCHEM_FEATURE_SELFOVERLAP>
25.371

> <PUBCHEM_SHAPE_FINGERPRINT>
104564 63 14763244408584111094
10608611 8 18336553737331167753
10863032 1 18343018857259924316
11640471 11 16773231773783135925
12326174 3 17022903441190316588
12491281 212 17703493420679937724
12654903 92 17917423284735047308
13134695 92 17969519245508584352
13299463 15 18187916257734720009
13538477 17 17775010046623550851
13581323 91 18413390938537603895
14115302 16 18342450460966166479
14817 1 12226797879234406618
15219456 202 18260836942720501257
15775835 57 18130224968804415933
16945 1 18341316860309562500
1813 80 16269699626801938626
18186145 218 18267296711183518389
19786989 88 17313946282012661481
20201158 50 18040715887429062839
20233049 118 18339651160154446328
20361792 2 14851605500856411417
20645476 183 17561089120384977867
21501502 16 18409166601862586119
21947302 44 18186809053847183145
22344851 262 17561074830696195334
22802520 49 18335979775192148523
23402539 116 18337122240677062693
23419403 2 16026140917569505036
23557571 272 18265042536094870551
23559900 14 18335985355029873186
25 1 18263644137956463133
2748010 2 17903075534376934003
296302 2 18260551125737407016
474 4 16342562947734866276
5845 1 9837821654869651322
74978 22 16415186854384693210
77492 1 17203614761342099213
81228 2 18055636119001202635
9981440 41 17054410853413248084

> <PUBCHEM_SHAPE_MULTIPOLES>
339
5.09
2.01
1.38
2.28
0.11
-0.14
-0.21
-0.95
0.34
0.45
-0.75
-0.16
0.46

> <PUBCHEM_SHAPE_SELFOVERLAP>
736.346

> <PUBCHEM_SHAPE_VOLUME>
183.2

> <PUBCHEM_COORDINATE_TYPE>
2
5
10

$$$$

