6953
  -OEChem-06261201373D

 18 18  0     0  0  0  0  0  0999 V2000
    2.9566    0.0011    0.0002 Cl  0  0  0  0  0  0  0  0  0  0  0  0
    0.5073    3.5141   -0.0002 O   0  5  0  0  0  0  0  0  0  0  0  0
    0.5098   -3.5138    0.0001 O   0  5  0  0  0  0  0  0  0  0  0  0
    2.4439    2.4804    0.0002 O   0  0  0  0  0  0  0  0  0  0  0  0
    2.4457   -2.4788   -0.0003 O   0  0  0  0  0  0  0  0  0  0  0  0
   -3.5996    1.0965    0.0001 O   0  5  0  0  0  0  0  0  0  0  0  0
   -3.5988   -1.0988   -0.0003 O   0  0  0  0  0  0  0  0  0  0  0  0
    1.1912    2.4645   -0.0002 N   0  3  0  0  0  0  0  0  0  0  0  0
    1.1931   -2.4638    0.0001 N   0  3  0  0  0  0  0  0  0  0  0  0
   -2.9913   -0.0009    0.0001 N   0  3  0  0  0  0  0  0  0  0  0  0
    0.5206    1.2081    0.0000 C   0  0  0  0  0  0  0  0  0  0  0  0
    0.5216   -1.2079    0.0001 C   0  0  0  0  0  0  0  0  0  0  0  0
   -1.5712   -0.0005    0.0001 C   0  0  0  0  0  0  0  0  0  0  0  0
    1.2186    0.0004    0.0000 C   0  0  0  0  0  0  0  0  0  0  0  0
   -0.8742    1.2077    0.0001 C   0  0  0  0  0  0  0  0  0  0  0  0
   -0.8734   -1.2083    0.0001 C   0  0  0  0  0  0  0  0  0  0  0  0
   -1.4252    2.1453    0.0001 H   0  0  0  0  0  0  0  0  0  0  0  0
   -1.4237   -2.1462    0.0001 H   0  0  0  0  0  0  0  0  0  0  0  0
  1 14  1  0  0  0  0
  2  8  1  0  0  0  0
  3  9  1  0  0  0  0
  4  8  2  0  0  0  0
  5  9  2  0  0  0  0
  6 10  1  0  0  0  0
  7 10  2  0  0  0  0
  8 11  1  0  0  0  0
  9 12  1  0  0  0  0
 10 13  1  0  0  0  0
 11 14  2  0  0  0  0
 11 15  1  0  0  0  0
 12 14  1  0  0  0  0
 12 16  2  0  0  0  0
 13 15  2  0  0  0  0
 13 16  1  0  0  0  0
 15 17  1  0  0  0  0
 16 18  1  0  0  0  0
M  CHG  6   2  -1   3  -1   6  -1   8   1   9   1  10   1
M  END
> <PUBCHEM_COMPOUND_CID>
6953

> <PUBCHEM_CONFORMER_RMSD>
0.6

> <PUBCHEM_CONFORMER_DIVERSEORDER>
1

> <PUBCHEM_MMFF94_PARTIAL_CHARGES>
18
1 -0.18
10 0.91
11 0.13
12 0.13
13 0.13
14 0.18
15 -0.15
16 -0.15
17 0.15
18 0.15
2 -0.52
3 -0.52
4 -0.52
5 -0.52
6 -0.52
7 -0.52
8 0.91
9 0.91

> <PUBCHEM_EFFECTIVE_ROTOR_COUNT>
3

> <PUBCHEM_PHARMACOPHORE_FEATURES>
10
1 2 acceptor
1 2 anion
1 3 acceptor
1 3 anion
1 4 acceptor
1 5 acceptor
1 6 acceptor
1 6 anion
1 7 acceptor
6 11 12 13 14 15 16 rings

> <PUBCHEM_HEAVY_ATOM_COUNT>
16

> <PUBCHEM_ATOM_DEF_STEREO_COUNT>
0

> <PUBCHEM_ATOM_UDEF_STEREO_COUNT>
0

> <PUBCHEM_BOND_DEF_STEREO_COUNT>
0

> <PUBCHEM_BOND_UDEF_STEREO_COUNT>
0

> <PUBCHEM_ISOTOPIC_ATOM_COUNT>
0

> <PUBCHEM_COMPONENT_COUNT>
1

> <PUBCHEM_CACTVS_TAUTO_COUNT>
1

> <PUBCHEM_CONFORMER_ID>
00001B2900000001

> <PUBCHEM_MMFF94_ENERGY>
71.9472

> <PUBCHEM_FEATURE_SELFOVERLAP>
50.989

> <PUBCHEM_SHAPE_FINGERPRINT>
1 1 18339080371991023029
10967382 1 18338516331015642566
11471102 20 18339366365589762223
12553582 1 18050283975190527643
13140716 1 18266459802113780225
13380535 76 17975978665683572748
13380536 305 18338229345690947180
14251717 144 18410299077454231231
14648413 74 18413387640213561433
14790565 3 18339065035001380420
15442244 35 18120089739603038121
15490181 7 17907849618096518058
15490181 8 18048889489324078910
16945 1 18410856564114098437
17990270 104 18412266159691176115
19591789 44 18267578009966557262
20510252 161 16750146191318070296
20645476 183 17770768023352596188
20645477 70 18342186527411631807
20711985 365 17619630623571042055
20871998 184 17395867921259751303
21501502 16 17762613293491000634
21524375 3 17984428442549877537
2334 1 17978509728402163873
23419403 2 17557179325539506742
23526114 1 18410856572572183871
23552423 10 18408604747437074663
23557571 272 17395012501741433926
241688 4 17906451378476346554
2748010 2 18339644425745719244
3071541 12 18410007745353632685
352729 6 17762338011551026293
54173680 148 17114099422094264427
7364860 26 18410012139273637253
81228 2 17546728613140156489

> <PUBCHEM_SHAPE_MULTIPOLES>
280.98
4.36
3.73
0.56
3.38
0
0
0
0
-2.35
0
-0.02
0
0

> <PUBCHEM_SHAPE_SELFOVERLAP>
594.001

> <PUBCHEM_SHAPE_VOLUME>
159.4

> <PUBCHEM_COORDINATE_TYPE>
2
5
10

$$$$

