12528
  -OEChem-06261207033D

 21 20  0     0  0  0  0  0  0999 V2000
   -1.3612    0.7255   -0.0142 S   0  0  0  0  0  0  0  0  0  0  0  0
    1.4100    0.3688   -0.0506 C   0  0  0  0  0  0  0  0  0  0  0  0
    2.6349   -0.5490   -0.0139 C   0  0  0  0  0  0  0  0  0  0  0  0
    0.0789   -0.3823   -0.0258 C   0  0  0  0  0  0  0  0  0  0  0  0
    3.9250    0.2536    0.0619 C   0  0  0  0  0  0  0  0  0  0  0  0
   -2.6583   -0.5326    0.0141 C   0  0  0  0  0  0  0  0  0  0  0  0
   -4.0294    0.1159    0.0285 C   0  0  0  0  0  0  0  0  0  0  0  0
    1.4617    0.9938   -0.9515 H   0  0  0  0  0  0  0  0  0  0  0  0
    1.4546    1.0483    0.8106 H   0  0  0  0  0  0  0  0  0  0  0  0
    2.5746   -1.2136    0.8557 H   0  0  0  0  0  0  0  0  0  0  0  0
    2.6496   -1.1829   -0.9078 H   0  0  0  0  0  0  0  0  0  0  0  0
    0.0125   -1.0325   -0.9047 H   0  0  0  0  0  0  0  0  0  0  0  0
    0.0346   -1.0143    0.8675 H   0  0  0  0  0  0  0  0  0  0  0  0
    4.7884   -0.4188    0.0831 H   0  0  0  0  0  0  0  0  0  0  0  0
    3.9522    0.8695    0.9665 H   0  0  0  0  0  0  0  0  0  0  0  0
    4.0285    0.9123   -0.8063 H   0  0  0  0  0  0  0  0  0  0  0  0
   -2.5641   -1.1703   -0.8705 H   0  0  0  0  0  0  0  0  0  0  0  0
   -2.5390   -1.1564    0.9056 H   0  0  0  0  0  0  0  0  0  0  0  0
   -4.1683    0.7442    0.9149 H   0  0  0  0  0  0  0  0  0  0  0  0
   -4.1935    0.7303   -0.8634 H   0  0  0  0  0  0  0  0  0  0  0  0
   -4.8064   -0.6557    0.0455 H   0  0  0  0  0  0  0  0  0  0  0  0
  1  4  1  0  0  0  0
  1  6  1  0  0  0  0
  2  3  1  0  0  0  0
  2  4  1  0  0  0  0
  2  8  1  0  0  0  0
  2  9  1  0  0  0  0
  3  5  1  0  0  0  0
  3 10  1  0  0  0  0
  3 11  1  0  0  0  0
  4 12  1  0  0  0  0
  4 13  1  0  0  0  0
  5 14  1  0  0  0  0
  5 15  1  0  0  0  0
  5 16  1  0  0  0  0
  6  7  1  0  0  0  0
  6 17  1  0  0  0  0
  6 18  1  0  0  0  0
  7 19  1  0  0  0  0
  7 20  1  0  0  0  0
  7 21  1  0  0  0  0
M  END
> <PUBCHEM_COMPOUND_CID>
12528

> <PUBCHEM_CONFORMER_RMSD>
0.6

> <PUBCHEM_CONFORMER_DIVERSEORDER>
2
34
20
31
29
33
4
15
28
10
7
1
22
17
25
13
9
32
21
19
16
27
5
23
30
14
6
24
3
11
26
8
12
18

> <PUBCHEM_MMFF94_PARTIAL_CHARGES>
3
1 -0.46
4 0.23
6 0.23

> <PUBCHEM_EFFECTIVE_ROTOR_COUNT>
4

> <PUBCHEM_PHARMACOPHORE_FEATURES>
3
1 5 hydrophobe
1 7 hydrophobe
5 1 2 3 4 6 hydrophobe

> <PUBCHEM_HEAVY_ATOM_COUNT>
7

> <PUBCHEM_ATOM_DEF_STEREO_COUNT>
0

> <PUBCHEM_ATOM_UDEF_STEREO_COUNT>
0

> <PUBCHEM_BOND_DEF_STEREO_COUNT>
0

> <PUBCHEM_BOND_UDEF_STEREO_COUNT>
0

> <PUBCHEM_ISOTOPIC_ATOM_COUNT>
0

> <PUBCHEM_COMPONENT_COUNT>
1

> <PUBCHEM_CACTVS_TAUTO_COUNT>
1

> <PUBCHEM_CONFORMER_ID>
000030F000000002

> <PUBCHEM_MMFF94_ENERGY>
1.576

> <PUBCHEM_FEATURE_SELFOVERLAP>
15.223

> <PUBCHEM_SHAPE_FINGERPRINT>
11062470 55 17775284967200384933
12932764 1 15430330177703028884
14325111 11 18410292544692753902
18342897 14 17821727238666895041
20719005 15 18410573977131274219
21293036 1 13830129485926224757
5460574 1 9295287244411193878

> <PUBCHEM_SHAPE_MULTIPOLES>
147.91
7.56
0.85
0.63
0.1
0.03
0
-0.05
-0.18
0.07
0
0.01
0.01
0.01

> <PUBCHEM_SHAPE_SELFOVERLAP>
239.142

> <PUBCHEM_SHAPE_VOLUME>
103.3

> <PUBCHEM_COORDINATE_TYPE>
2
5
10

$$$$

