13127
  -OEChem-06261207472D

 23 20  0     0  0  0  0  0  0999 V2000
    2.8660    0.0000    0.0000 As  0  0  0  0  0  0  0  0  0  0  0  0
    6.3301    0.0000    0.0000 As  0  0  0  0  0  0  0  0  0  0  0  0
    4.5981    0.0000    0.0000 Mg  0  2  0  0  0  0  0  0  0  0  0  0
    3.7320    0.5000    0.0000 O   0  5  0  0  0  0  0  0  0  0  0  0
    5.4641    0.5000    0.0000 O   0  5  0  0  0  0  0  0  0  0  0  0
    3.3660   -0.8660    0.0000 O   0  0  0  0  0  0  0  0  0  0  0  0
    5.8301   -0.8660    0.0000 O   0  0  0  0  0  0  0  0  0  0  0  0
    2.0000   -0.5000    0.0000 C   0  0  0  0  0  0  0  0  0  0  0  0
    2.3660    0.8660    0.0000 C   0  0  0  0  0  0  0  0  0  0  0  0
    7.1962   -0.5000    0.0000 C   0  0  0  0  0  0  0  0  0  0  0  0
    6.8301    0.8660    0.0000 C   0  0  0  0  0  0  0  0  0  0  0  0
    1.6900    0.0369    0.0000 H   0  0  0  0  0  0  0  0  0  0  0  0
    1.4631   -0.8100    0.0000 H   0  0  0  0  0  0  0  0  0  0  0  0
    2.3100   -1.0369    0.0000 H   0  0  0  0  0  0  0  0  0  0  0  0
    2.9030    1.1760    0.0000 H   0  0  0  0  0  0  0  0  0  0  0  0
    2.0560    1.4030    0.0000 H   0  0  0  0  0  0  0  0  0  0  0  0
    1.8291    0.5560    0.0000 H   0  0  0  0  0  0  0  0  0  0  0  0
    6.8862   -1.0369    0.0000 H   0  0  0  0  0  0  0  0  0  0  0  0
    7.7331   -0.8100    0.0000 H   0  0  0  0  0  0  0  0  0  0  0  0
    7.5062    0.0369    0.0000 H   0  0  0  0  0  0  0  0  0  0  0  0
    7.3671    0.5560    0.0000 H   0  0  0  0  0  0  0  0  0  0  0  0
    7.1401    1.4030    0.0000 H   0  0  0  0  0  0  0  0  0  0  0  0
    6.2932    1.1760    0.0000 H   0  0  0  0  0  0  0  0  0  0  0  0
  1  4  1  0  0  0  0
  1  6  2  0  0  0  0
  1  8  1  0  0  0  0
  1  9  1  0  0  0  0
  2  5  1  0  0  0  0
  2  7  2  0  0  0  0
  2 10  1  0  0  0  0
  2 11  1  0  0  0  0
  8 12  1  0  0  0  0
  8 13  1  0  0  0  0
  8 14  1  0  0  0  0
  9 15  1  0  0  0  0
  9 16  1  0  0  0  0
  9 17  1  0  0  0  0
 10 18  1  0  0  0  0
 10 19  1  0  0  0  0
 10 20  1  0  0  0  0
 11 21  1  0  0  0  0
 11 22  1  0  0  0  0
 11 23  1  0  0  0  0
M  CHG  3   3   2   4  -1   5  -1
M  END
> <PUBCHEM_COMPOUND_CID>
13127

> <PUBCHEM_COMPOUND_CANONICALIZED>
1

> <PUBCHEM_CACTVS_COMPLEXITY>
53.8

> <PUBCHEM_CACTVS_HBOND_ACCEPTOR>
4

> <PUBCHEM_CACTVS_HBOND_DONOR>
0

> <PUBCHEM_CACTVS_ROTATABLE_BOND>
0

> <PUBCHEM_CACTVS_SUBSKEYS>
AAADccBgOAAAACAAQAAAAAAAAAAAAAAAAAAAAAAAAAAAAAAAAAAAEAEAAAAAAAAAAAACAAAAAAAAAAAAAAAAAAAAAAAAAAAAAAAAAAAAAAAAAAAAAAAAAAAAAAAAAAAAAAAAAAAAAAAAAAAAAAAAAAAAAA==

> <PUBCHEM_IUPAC_OPENEYE_NAME>
magnesium dimethylarsinate

> <PUBCHEM_IUPAC_CAS_NAME>
magnesium dimethylarsinate

> <PUBCHEM_IUPAC_NAME>
magnesium dimethylarsinate

> <PUBCHEM_IUPAC_SYSTEMATIC_NAME>
magnesium dimethylarsinate

> <PUBCHEM_IUPAC_TRADITIONAL_NAME>
magnesium dicacodylate

> <PUBCHEM_IUPAC_INCHI>
InChI=1S/2C2H7AsO2.Mg/c2*1-3(2,4)5;/h2*1-2H3,(H,4,5);/q;;+2/p-2

> <PUBCHEM_IUPAC_INCHIKEY>
NLWASAXIPBSNOJ-UHFFFAOYSA-L

> <PUBCHEM_EXACT_MASS>
297.901794

> <PUBCHEM_MOLECULAR_FORMULA>
C4H12As2MgO4

> <PUBCHEM_MOLECULAR_WEIGHT>
298.28388

> <PUBCHEM_OPENEYE_CAN_SMILES>
C[As](=O)(C)[O-].C[As](=O)(C)[O-].[Mg+2]

> <PUBCHEM_OPENEYE_ISO_SMILES>
C[As](=O)(C)[O-].C[As](=O)(C)[O-].[Mg+2]

> <PUBCHEM_CACTVS_TPSA>
80.3

> <PUBCHEM_MONOISOTOPIC_WEIGHT>
297.901794

> <PUBCHEM_TOTAL_CHARGE>
0

> <PUBCHEM_HEAVY_ATOM_COUNT>
11

> <PUBCHEM_ATOM_DEF_STEREO_COUNT>
0

> <PUBCHEM_ATOM_UDEF_STEREO_COUNT>
0

> <PUBCHEM_BOND_DEF_STEREO_COUNT>
0

> <PUBCHEM_BOND_UDEF_STEREO_COUNT>
0

> <PUBCHEM_ISOTOPIC_ATOM_COUNT>
0

> <PUBCHEM_COMPONENT_COUNT>
3

> <PUBCHEM_CACTVS_TAUTO_COUNT>
1

> <PUBCHEM_COORDINATE_TYPE>
1
5
255

$$$$

