8585
  -OEChem-06261202562D

 42 42  0     1  0  0  0  0  0999 V2000
    3.0332    0.0000    0.0000 Cl  0  0  0  0  0  0  0  0  0  0  0  0
    4.8101    3.9526    0.0000 S   0  0  0  0  0  0  0  0  0  0  0  0
    4.9716    7.0350    0.0000 S   0  0  0  0  0  0  0  0  0  0  0  0
    2.2690    7.5404    0.0000 N   0  0  0  0  0  0  0  0  0  0  0  0
    3.1350    7.0404    0.0000 C   0  0  3  0  0  0  0  0  0  0  0  0
    2.2690    8.5404    0.0000 C   0  0  0  0  0  0  0  0  0  0  0  0
    1.4030    7.0404    0.0000 C   0  0  0  0  0  0  0  0  0  0  0  0
    3.1350    6.0404    0.0000 C   0  0  0  0  0  0  0  0  0  0  0  0
    4.0010    7.5404    0.0000 C   0  0  0  0  0  0  0  0  0  0  0  0
    4.0010    5.5404    0.0000 C   0  0  0  0  0  0  0  0  0  0  0  0
    1.4030    9.0404    0.0000 C   0  0  0  0  0  0  0  0  0  0  0  0
    0.5369    7.5404    0.0000 C   0  0  0  0  0  0  0  0  0  0  0  0
    4.0010    4.5404    0.0000 C   0  0  0  0  0  0  0  0  0  0  0  0
    4.8671    6.0404    0.0000 C   0  0  0  0  0  0  0  0  0  0  0  0
    3.1920    3.9526    0.0000 C   0  0  0  0  0  0  0  0  0  0  0  0
    5.7806    5.6337    0.0000 C   0  0  0  0  0  0  0  0  0  0  0  0
    3.5010    3.0016    0.0000 C   0  0  0  0  0  0  0  0  0  0  0  0
    6.4497    6.3768    0.0000 C   0  0  0  0  0  0  0  0  0  0  0  0
    4.5010    3.0016    0.0000 C   0  0  0  0  0  0  0  0  0  0  0  0
    5.9497    7.2429    0.0000 C   0  0  0  0  0  0  0  0  0  0  0  0
    3.1350    7.8904    0.0000 H   0  0  0  0  0  0  0  0  0  0  0  0
    2.8796    8.4328    0.0000 H   0  0  0  0  0  0  0  0  0  0  0  0
    2.4810    9.1230    0.0000 H   0  0  0  0  0  0  0  0  0  0  0  0
    1.0044    6.5655    0.0000 H   0  0  0  0  0  0  0  0  0  0  0  0
    1.8015    6.5655    0.0000 H   0  0  0  0  0  0  0  0  0  0  0  0
    2.5981    5.7304    0.0000 H   0  0  0  0  0  0  0  0  0  0  0  0
    4.3110    7.0035    0.0000 H   0  0  0  0  0  0  0  0  0  0  0  0
    4.5380    7.8504    0.0000 H   0  0  0  0  0  0  0  0  0  0  0  0
    3.6910    8.0774    0.0000 H   0  0  0  0  0  0  0  0  0  0  0  0
    0.8469    8.0774    0.0000 H   0  0  0  0  0  0  0  0  0  0  0  0
    0.0000    7.8504    0.0000 H   0  0  0  0  0  0  0  0  0  0  0  0
    0.2269    7.0035    0.0000 H   0  0  0  0  0  0  0  0  0  0  0  0
    1.7130    9.5774    0.0000 H   0  0  0  0  0  0  0  0  0  0  0  0
    0.8660    9.3504    0.0000 H   0  0  0  0  0  0  0  0  0  0  0  0
    1.0930    8.5035    0.0000 H   0  0  0  0  0  0  0  0  0  0  0  0
    2.6024    4.1442    0.0000 H   0  0  0  0  0  0  0  0  0  0  0  0
    5.9095    5.0272    0.0000 H   0  0  0  0  0  0  0  0  0  0  0  0
    3.1366    2.5000    0.0000 H   0  0  0  0  0  0  0  0  0  0  0  0
    7.0663    6.3120    0.0000 H   0  0  0  0  0  0  0  0  0  0  0  0
    4.8655    2.5000    0.0000 H   0  0  0  0  0  0  0  0  0  0  0  0
    6.2019    7.8093    0.0000 H   0  0  0  0  0  0  0  0  0  0  0  0
    4.0332    0.0000    0.0000 H   0  0  0  0  0  0  0  0  0  0  0  0
  1 42  1  0  0  0  0
  2 13  1  0  0  0  0
  2 19  1  0  0  0  0
  3 14  1  0  0  0  0
  3 20  1  0  0  0  0
  4  5  1  0  0  0  0
  4  6  1  0  0  0  0
  4  7  1  0  0  0  0
  5  8  1  0  0  0  0
  5  9  1  0  0  0  0
  5 21  1  0  0  0  0
  6 11  1  0  0  0  0
  6 22  1  0  0  0  0
  6 23  1  0  0  0  0
  7 12  1  0  0  0  0
  7 24  1  0  0  0  0
  7 25  1  0  0  0  0
  8 10  2  0  0  0  0
  8 26  1  0  0  0  0
  9 27  1  0  0  0  0
  9 28  1  0  0  0  0
  9 29  1  0  0  0  0
 10 13  1  0  0  0  0
 10 14  1  0  0  0  0
 11 33  1  0  0  0  0
 11 34  1  0  0  0  0
 11 35  1  0  0  0  0
 12 30  1  0  0  0  0
 12 31  1  0  0  0  0
 12 32  1  0  0  0  0
 13 15  2  0  0  0  0
 14 16  2  0  0  0  0
 15 17  1  0  0  0  0
 15 36  1  0  0  0  0
 16 18  1  0  0  0  0
 16 37  1  0  0  0  0
 17 19  2  0  0  0  0
 17 38  1  0  0  0  0
 18 20  2  0  0  0  0
 18 39  1  0  0  0  0
 19 40  1  0  0  0  0
 20 41  1  0  0  0  0
M  END
> <PUBCHEM_COMPOUND_CID>
8585

> <PUBCHEM_COMPOUND_CANONICALIZED>
1

> <PUBCHEM_CACTVS_COMPLEXITY>
281

> <PUBCHEM_CACTVS_HBOND_ACCEPTOR>
3

> <PUBCHEM_CACTVS_HBOND_DONOR>
1

> <PUBCHEM_CACTVS_ROTATABLE_BOND>
6

> <PUBCHEM_CACTVS_SUBSKEYS>
AAADceB6AABkAAAAAAAAAAAAAAAAASJAAAAAAAAAAAAAAAAB4AAAHAQAAAAADCjFUASyAYMAAAiEAiBCAACDAIAgCBBIiBgIAIgIICKgERCAIAAggACoiAcAgIAAAAAAAAAAAAAAAAAAAAAAAAAAAAAAAA==

> <PUBCHEM_IUPAC_OPENEYE_NAME>
N,N-diethyl-4,4-bis(2-thienyl)but-3-en-2-amine hydrochloride

> <PUBCHEM_IUPAC_CAS_NAME>
N,N-diethyl-4,4-dithiophen-2-yl-3-buten-2-amine hydrochloride

> <PUBCHEM_IUPAC_NAME>
N,N-diethyl-4,4-dithiophen-2-ylbut-3-en-2-amine hydrochloride

> <PUBCHEM_IUPAC_SYSTEMATIC_NAME>
N,N-diethyl-4,4-dithiophen-2-yl-but-3-en-2-amine hydrochloride

> <PUBCHEM_IUPAC_TRADITIONAL_NAME>
diethyl-[1-methyl-3,3-bis(2-thienyl)allyl]amine hydrochloride

> <PUBCHEM_IUPAC_INCHI>
InChI=1S/C16H21NS2.ClH/c1-4-17(5-2)13(3)12-14(15-8-6-10-18-15)16-9-7-11-19-16;/h6-13H,4-5H2,1-3H3;1H

> <PUBCHEM_IUPAC_INCHIKEY>
AOBYZQVXPIBGCZ-UHFFFAOYSA-N

> <PUBCHEM_EXACT_MASS>
327.088219

> <PUBCHEM_MOLECULAR_FORMULA>
C16H22ClNS2

> <PUBCHEM_MOLECULAR_WEIGHT>
327.93558

> <PUBCHEM_OPENEYE_CAN_SMILES>
CCN(CC)C(C)C=C(C1=CC=CS1)C2=CC=CS2.Cl

> <PUBCHEM_OPENEYE_ISO_SMILES>
CCN(CC)C(C)C=C(C1=CC=CS1)C2=CC=CS2.Cl

> <PUBCHEM_CACTVS_TPSA>
59.7

> <PUBCHEM_MONOISOTOPIC_WEIGHT>
327.088219

> <PUBCHEM_TOTAL_CHARGE>
0

> <PUBCHEM_HEAVY_ATOM_COUNT>
20

> <PUBCHEM_ATOM_DEF_STEREO_COUNT>
0

> <PUBCHEM_ATOM_UDEF_STEREO_COUNT>
1

> <PUBCHEM_BOND_DEF_STEREO_COUNT>
0

> <PUBCHEM_BOND_UDEF_STEREO_COUNT>
0

> <PUBCHEM_ISOTOPIC_ATOM_COUNT>
0

> <PUBCHEM_COMPONENT_COUNT>
2

> <PUBCHEM_CACTVS_TAUTO_COUNT>
1

> <PUBCHEM_COORDINATE_TYPE>
1
5
255

> <PUBCHEM_BONDANNOTATIONS>
13  15  8
14  16  8
15  17  8
16  18  8
17  19  8
18  20  8
2  13  8
2  19  8
3  14  8
3  20  8
5  21  3

$$$$

