9698
  -OEChem-06261203572D

 84 85  0     1  0  0  0  0  0999 V2000
    6.0290   -2.7851    0.0000 O   0  0  0  0  0  0  0  0  0  0  0  0
    2.5369   -0.7504    0.0000 O   0  0  0  0  0  0  0  0  0  0  0  0
    6.9350   -2.2712    0.0000 C   0  0  3  0  0  0  0  0  0  0  0  0
    7.9350   -2.2751    0.0000 C   0  0  0  0  0  0  0  0  0  0  0  0
    6.9350   -1.2296    0.0000 C   0  0  0  0  0  0  0  0  0  0  0  0
    8.4384   -1.4110    0.0000 C   0  0  0  0  0  0  0  0  0  0  0  0
   10.9417   -0.5546    0.0000 C   0  0  3  0  0  0  0  0  0  0  0  0
    6.0290   -0.7158    0.0000 C   0  0  0  0  0  0  0  0  0  0  0  0
    9.4383   -1.4149    0.0000 C   0  0  0  0  0  0  0  0  0  0  0  0
    9.9417   -0.5508    0.0000 C   0  0  0  0  0  0  0  0  0  0  0  0
   11.4450    0.3095    0.0000 C   0  0  0  0  0  0  0  0  0  0  0  0
    7.4317   -3.1392    0.0000 C   0  0  0  0  0  0  0  0  0  0  0  0
    5.1350   -1.2504    0.0000 C   0  0  0  0  0  0  0  0  0  0  0  0
    5.1350   -2.2504    0.0000 C   0  0  0  0  0  0  0  0  0  0  0  0
   12.4450    0.3056    0.0000 C   0  0  0  0  0  0  0  0  0  0  0  0
   13.9483    1.1659    0.0000 C   0  0  3  0  0  0  0  0  0  0  0  0
   12.9483    1.1697    0.0000 C   0  0  0  0  0  0  0  0  0  0  0  0
   14.4517    2.0300    0.0000 C   0  0  0  0  0  0  0  0  0  0  0  0
    4.2690   -0.7504    0.0000 C   0  0  0  0  0  0  0  0  0  0  0  0
   11.4383   -1.4226    0.0000 C   0  0  0  0  0  0  0  0  0  0  0  0
    4.2690   -2.7504    0.0000 C   0  0  0  0  0  0  0  0  0  0  0  0
   15.4516    2.0261    0.0000 C   0  0  0  0  0  0  0  0  0  0  0  0
    3.4030   -2.2504    0.0000 C   0  0  0  0  0  0  0  0  0  0  0  0
   14.4450    0.2979    0.0000 C   0  0  0  0  0  0  0  0  0  0  0  0
    3.4030   -1.2504    0.0000 C   0  0  0  0  0  0  0  0  0  0  0  0
   15.9550    2.8902    0.0000 C   0  0  0  0  0  0  0  0  0  0  0  0
   16.9550    2.8863    0.0000 C   0  0  0  0  0  0  0  0  0  0  0  0
    4.2690    0.2496    0.0000 C   0  0  0  0  0  0  0  0  0  0  0  0
    4.2690   -3.7504    0.0000 C   0  0  0  0  0  0  0  0  0  0  0  0
    2.5369   -2.7504    0.0000 C   0  0  0  0  0  0  0  0  0  0  0  0
   17.4583    3.7504    0.0000 C   0  0  0  0  0  0  0  0  0  0  0  0
   17.4516    2.0184    0.0000 C   0  0  0  0  0  0  0  0  0  0  0  0
    7.8250   -2.8852    0.0000 H   0  0  0  0  0  0  0  0  0  0  0  0
    8.5168   -2.4894    0.0000 H   0  0  0  0  0  0  0  0  0  0  0  0
    7.5459   -1.3357    0.0000 H   0  0  0  0  0  0  0  0  0  0  0  0
    7.1441   -0.6459    0.0000 H   0  0  0  0  0  0  0  0  0  0  0  0
    8.5484   -0.8008    0.0000 H   0  0  0  0  0  0  0  0  0  0  0  0
    7.8566   -1.1967    0.0000 H   0  0  0  0  0  0  0  0  0  0  0  0
   11.7917   -0.5579    0.0000 H   0  0  0  0  0  0  0  0  0  0  0  0
    6.4226   -0.2367    0.0000 H   0  0  0  0  0  0  0  0  0  0  0  0
    5.6244   -0.2460    0.0000 H   0  0  0  0  0  0  0  0  0  0  0  0
    9.3283   -2.0250    0.0000 H   0  0  0  0  0  0  0  0  0  0  0  0
   10.0201   -1.6292    0.0000 H   0  0  0  0  0  0  0  0  0  0  0  0
   10.0517    0.0594    0.0000 H   0  0  0  0  0  0  0  0  0  0  0  0
    9.3599   -0.3365    0.0000 H   0  0  0  0  0  0  0  0  0  0  0  0
   11.5550    0.9196    0.0000 H   0  0  0  0  0  0  0  0  0  0  0  0
   10.8632    0.5238    0.0000 H   0  0  0  0  0  0  0  0  0  0  0  0
    6.8936   -3.4471    0.0000 H   0  0  0  0  0  0  0  0  0  0  0  0
    7.7396   -3.6773    0.0000 H   0  0  0  0  0  0  0  0  0  0  0  0
    7.9698   -2.8313    0.0000 H   0  0  0  0  0  0  0  0  0  0  0  0
   12.3350   -0.3045    0.0000 H   0  0  0  0  0  0  0  0  0  0  0  0
   13.0268    0.0913    0.0000 H   0  0  0  0  0  0  0  0  0  0  0  0
   13.5205    0.4314    0.0000 H   0  0  0  0  0  0  0  0  0  0  0  0
   13.0583    1.7799    0.0000 H   0  0  0  0  0  0  0  0  0  0  0  0
   12.3665    1.3840    0.0000 H   0  0  0  0  0  0  0  0  0  0  0  0
   14.5617    2.6401    0.0000 H   0  0  0  0  0  0  0  0  0  0  0  0
   13.8699    2.2442    0.0000 H   0  0  0  0  0  0  0  0  0  0  0  0
   10.9002   -1.7305    0.0000 H   0  0  0  0  0  0  0  0  0  0  0  0
   11.7463   -1.9607    0.0000 H   0  0  0  0  0  0  0  0  0  0  0  0
   11.9765   -1.1146    0.0000 H   0  0  0  0  0  0  0  0  0  0  0  0
   15.3416    1.4159    0.0000 H   0  0  0  0  0  0  0  0  0  0  0  0
   16.0334    1.8118    0.0000 H   0  0  0  0  0  0  0  0  0  0  0  0
   13.9069   -0.0100    0.0000 H   0  0  0  0  0  0  0  0  0  0  0  0
   14.7529   -0.2402    0.0000 H   0  0  0  0  0  0  0  0  0  0  0  0
   14.9831    0.6058    0.0000 H   0  0  0  0  0  0  0  0  0  0  0  0
   16.0650    3.5004    0.0000 H   0  0  0  0  0  0  0  0  0  0  0  0
   15.3732    3.1045    0.0000 H   0  0  0  0  0  0  0  0  0  0  0  0
   16.6429    2.3506    0.0000 H   0  0  0  0  0  0  0  0  0  0  0  0
    4.8890    0.2496    0.0000 H   0  0  0  0  0  0  0  0  0  0  0  0
    4.2690    0.8696    0.0000 H   0  0  0  0  0  0  0  0  0  0  0  0
    3.6490    0.2496    0.0000 H   0  0  0  0  0  0  0  0  0  0  0  0
    3.6490   -3.7504    0.0000 H   0  0  0  0  0  0  0  0  0  0  0  0
    4.2690   -4.3704    0.0000 H   0  0  0  0  0  0  0  0  0  0  0  0
    4.8890   -3.7504    0.0000 H   0  0  0  0  0  0  0  0  0  0  0  0
    2.2269   -2.2135    0.0000 H   0  0  0  0  0  0  0  0  0  0  0  0
    2.0000   -3.0604    0.0000 H   0  0  0  0  0  0  0  0  0  0  0  0
    2.8469   -3.2874    0.0000 H   0  0  0  0  0  0  0  0  0  0  0  0
   16.9135    1.7105    0.0000 H   0  0  0  0  0  0  0  0  0  0  0  0
   17.7596    1.4803    0.0000 H   0  0  0  0  0  0  0  0  0  0  0  0
   17.9898    2.3263    0.0000 H   0  0  0  0  0  0  0  0  0  0  0  0
   17.9940    3.4384    0.0000 H   0  0  0  0  0  0  0  0  0  0  0  0
   17.7704    4.2862    0.0000 H   0  0  0  0  0  0  0  0  0  0  0  0
   16.9226    4.0625    0.0000 H   0  0  0  0  0  0  0  0  0  0  0  0
    2.0000   -1.0604    0.0000 H   0  0  0  0  0  0  0  0  0  0  0  0
  1  3  1  0  0  0  0
  1 14  1  0  0  0  0
  2 25  1  0  0  0  0
  2 84  1  0  0  0  0
  3  4  1  0  0  0  0
  3  5  1  0  0  0  0
  3 12  1  0  0  0  0
  4  6  1  0  0  0  0
  4 33  1  0  0  0  0
  4 34  1  0  0  0  0
  5  8  1  0  0  0  0
  5 35  1  0  0  0  0
  5 36  1  0  0  0  0
  6  9  1  0  0  0  0
  6 37  1  0  0  0  0
  6 38  1  0  0  0  0
  7 10  1  0  0  0  0
  7 11  1  0  0  0  0
  7 20  1  0  0  0  0
  7 39  1  0  0  0  0
  8 13  1  0  0  0  0
  8 40  1  0  0  0  0
  8 41  1  0  0  0  0
  9 10  1  0  0  0  0
  9 42  1  0  0  0  0
  9 43  1  0  0  0  0
 10 44  1  0  0  0  0
 10 45  1  0  0  0  0
 11 15  1  0  0  0  0
 11 46  1  0  0  0  0
 11 47  1  0  0  0  0
 12 48  1  0  0  0  0
 12 49  1  0  0  0  0
 12 50  1  0  0  0  0
 13 14  1  0  0  0  0
 13 19  2  0  0  0  0
 14 21  2  0  0  0  0
 15 17  1  0  0  0  0
 15 51  1  0  0  0  0
 15 52  1  0  0  0  0
 16 17  1  0  0  0  0
 16 18  1  0  0  0  0
 16 24  1  0  0  0  0
 16 53  1  0  0  0  0
 17 54  1  0  0  0  0
 17 55  1  0  0  0  0
 18 22  1  0  0  0  0
 18 56  1  0  0  0  0
 18 57  1  0  0  0  0
 19 25  1  0  0  0  0
 19 28  1  0  0  0  0
 20 58  1  0  0  0  0
 20 59  1  0  0  0  0
 20 60  1  0  0  0  0
 21 23  1  0  0  0  0
 21 29  1  0  0  0  0
 22 26  1  0  0  0  0
 22 61  1  0  0  0  0
 22 62  1  0  0  0  0
 23 25  2  0  0  0  0
 23 30  1  0  0  0  0
 24 63  1  0  0  0  0
 24 64  1  0  0  0  0
 24 65  1  0  0  0  0
 26 27  1  0  0  0  0
 26 66  1  0  0  0  0
 26 67  1  0  0  0  0
 27 31  1  0  0  0  0
 27 32  1  0  0  0  0
 27 68  1  0  0  0  0
 28 69  1  0  0  0  0
 28 70  1  0  0  0  0
 28 71  1  0  0  0  0
 29 72  1  0  0  0  0
 29 73  1  0  0  0  0
 29 74  1  0  0  0  0
 30 75  1  0  0  0  0
 30 76  1  0  0  0  0
 30 77  1  0  0  0  0
 31 81  1  0  0  0  0
 31 82  1  0  0  0  0
 31 83  1  0  0  0  0
 32 78  1  0  0  0  0
 32 79  1  0  0  0  0
 32 80  1  0  0  0  0
M  END
> <PUBCHEM_COMPOUND_CID>
9698

> <PUBCHEM_COMPOUND_CANONICALIZED>
1

> <PUBCHEM_CACTVS_COMPLEXITY>
517

> <PUBCHEM_CACTVS_HBOND_ACCEPTOR>
2

> <PUBCHEM_CACTVS_HBOND_DONOR>
1

> <PUBCHEM_CACTVS_ROTATABLE_BOND>
13

> <PUBCHEM_CACTVS_SUBSKEYS>
AAADcfB4MAAAAAAAAAAAAAAAAAAAAAAAAAA0QAAAAAAAAACRAAAAGgAACAAADUSAmAACBoAABgCAAgBAAAACCAAgIAAAiAAECIgMJiKGMBqCeCCkwBEIuAfAwPAOwQADAAAYAACCAAYAADAAAAAAAAAAAA==

> <PUBCHEM_IUPAC_OPENEYE_NAME>
2,5,7,8-tetramethyl-2-(5,9,13-trimethyltetradecyl)chroman-6-ol

> <PUBCHEM_IUPAC_CAS_NAME>
2,5,7,8-tetramethyl-2-(5,9,13-trimethyltetradecyl)-3,4-dihydro-2H-1-benzopyran-6-ol

> <PUBCHEM_IUPAC_NAME>
2,5,7,8-tetramethyl-2-(5,9,13-trimethyltetradecyl)-3,4-dihydrochromen-6-ol

> <PUBCHEM_IUPAC_SYSTEMATIC_NAME>
2,5,7,8-tetramethyl-2-(5,9,13-trimethyltetradecyl)-3,4-dihydrochromen-6-ol

> <PUBCHEM_IUPAC_TRADITIONAL_NAME>
2,5,7,8-tetramethyl-2-(5,9,13-trimethyltetradecyl)chroman-6-ol

> <PUBCHEM_IUPAC_INCHI>
InChI=1S/C30H52O2/c1-21(2)13-11-15-23(4)17-12-16-22(3)14-9-10-19-30(8)20-18-27-26(7)28(31)24(5)25(6)29(27)32-30/h21-23,31H,9-20H2,1-8H3

> <PUBCHEM_IUPAC_INCHIKEY>
MGVUEHOYGMMEJV-UHFFFAOYSA-N

> <PUBCHEM_XLOGP3_AA>
11.2

> <PUBCHEM_EXACT_MASS>
444.396731

> <PUBCHEM_MOLECULAR_FORMULA>
C30H52O2

> <PUBCHEM_MOLECULAR_WEIGHT>
444.73268

> <PUBCHEM_OPENEYE_CAN_SMILES>
CC1=C(C(=C2CCC(OC2=C1C)(C)CCCCC(C)CCCC(C)CCCC(C)C)C)O

> <PUBCHEM_OPENEYE_ISO_SMILES>
CC1=C(C(=C2CCC(OC2=C1C)(C)CCCCC(C)CCCC(C)CCCC(C)C)C)O

> <PUBCHEM_CACTVS_TPSA>
29.5

> <PUBCHEM_MONOISOTOPIC_WEIGHT>
444.396731

> <PUBCHEM_TOTAL_CHARGE>
0

> <PUBCHEM_HEAVY_ATOM_COUNT>
32

> <PUBCHEM_ATOM_DEF_STEREO_COUNT>
0

> <PUBCHEM_ATOM_UDEF_STEREO_COUNT>
3

> <PUBCHEM_BOND_DEF_STEREO_COUNT>
0

> <PUBCHEM_BOND_UDEF_STEREO_COUNT>
0

> <PUBCHEM_ISOTOPIC_ATOM_COUNT>
0

> <PUBCHEM_COMPONENT_COUNT>
1

> <PUBCHEM_CACTVS_TAUTO_COUNT>
9

> <PUBCHEM_COORDINATE_TYPE>
1
5
255

> <PUBCHEM_BONDANNOTATIONS>
13  14  8
13  19  8
14  21  8
16  53  3
19  25  8
21  23  8
23  25  8
3  12  3
7  39  3

$$$$

