583248
  -OEChem-06241222452D

 83 89  0     1  0  0  0  0  0999 V2000
    4.3177    1.1031    0.0000 O   0  0  0  0  0  0  0  0  0  0  0  0
    5.7899    1.7928    0.0000 O   0  0  0  0  0  0  0  0  0  0  0  0
    6.4870    0.3620    0.0000 O   0  0  0  0  0  0  0  0  0  0  0  0
    4.5402    2.0780    0.0000 O   0  0  0  0  0  0  0  0  0  0  0  0
    7.4004   -1.1447    0.0000 O   0  0  0  0  0  0  0  0  0  0  0  0
   11.7841   -3.5496    0.0000 O   0  0  0  0  0  0  0  0  0  0  0  0
   12.6172   -2.0310    0.0000 N   0  0  0  0  0  0  0  0  0  0  0  0
   14.3270   -0.9934    0.0000 N   0  0  0  0  0  0  0  0  0  0  0  0
    4.6664    0.3840    0.0000 C   0  0  3  0  0  0  0  0  0  0  0  0
    3.7655    0.8179    0.0000 C   0  0  3  0  0  0  0  0  0  0  0  0
    4.7603   -0.6534    0.0000 C   0  0  3  0  0  0  0  0  0  0  0  0
    2.8959    0.2444    0.0000 C   0  0  3  0  0  0  0  0  0  0  0  0
    5.5674    0.8179    0.0000 C   0  0  3  0  0  0  0  0  0  0  0  0
    3.9042   -1.2468    0.0000 C   0  0  0  0  0  0  0  0  0  0  0  0
    5.6389   -1.1840    0.0000 C   0  0  3  0  0  0  0  0  0  0  0  0
    3.5430    1.7928    0.0000 C   0  0  0  0  0  0  0  0  0  0  0  0
    2.9657   -0.7949    0.0000 C   0  0  0  0  0  0  0  0  0  0  0  0
    5.1664    2.5746    0.0000 C   0  0  3  0  0  0  0  0  0  0  0  0
    4.1664    2.5746    0.0000 C   0  0  0  0  0  0  0  0  0  0  0  0
    6.5237   -0.6638    0.0000 C   0  0  3  0  0  0  0  0  0  0  0  0
    2.0000    0.6887    0.0000 C   0  0  0  0  0  0  0  0  0  0  0  0
    5.6330   -2.1840    0.0000 C   0  0  0  0  0  0  0  0  0  0  0  0
    5.3890    3.5496    0.0000 C   0  0  0  0  0  0  0  0  0  0  0  0
    8.2553   -0.6259    0.0000 C   0  0  0  0  0  0  0  0  0  0  0  0
    9.1321   -1.1069    0.0000 C   0  0  0  0  0  0  0  0  0  0  0  0
    9.1539   -2.1067    0.0000 C   0  0  0  0  0  0  0  0  0  0  0  0
    9.9870   -0.5881    0.0000 C   0  0  0  0  0  0  0  0  0  0  0  0
   10.0306   -2.5876    0.0000 C   0  0  0  0  0  0  0  0  0  0  0  0
   10.8637   -1.0691    0.0000 C   0  0  0  0  0  0  0  0  0  0  0  0
   10.8855   -2.0688    0.0000 C   0  0  0  0  0  0  0  0  0  0  0  0
   11.7623   -2.5498    0.0000 C   0  0  0  0  0  0  0  0  0  0  0  0
   13.4939   -2.5120    0.0000 C   0  0  0  0  0  0  0  0  0  0  0  0
   12.5953   -1.0312    0.0000 C   0  0  0  0  0  0  0  0  0  0  0  0
   14.3488   -1.9932    0.0000 C   0  0  0  0  0  0  0  0  0  0  0  0
   13.4502   -0.5124    0.0000 C   0  0  0  0  0  0  0  0  0  0  0  0
   15.1819   -0.4746    0.0000 C   0  0  0  0  0  0  0  0  0  0  0  0
   16.0586   -0.9556    0.0000 C   0  0  0  0  0  0  0  0  0  0  0  0
   15.1600    0.5251    0.0000 C   0  0  0  0  0  0  0  0  0  0  0  0
   16.9135   -0.4368    0.0000 C   0  0  0  0  0  0  0  0  0  0  0  0
   16.0149    1.0439    0.0000 C   0  0  0  0  0  0  0  0  0  0  0  0
   16.8917    0.5630    0.0000 C   0  0  0  0  0  0  0  0  0  0  0  0
    4.2502    1.2044    0.0000 H   0  0  0  0  0  0  0  0  0  0  0  0
    4.7798   -1.2731    0.0000 H   0  0  0  0  0  0  0  0  0  0  0  0
    2.3803   -0.0999    0.0000 H   0  0  0  0  0  0  0  0  0  0  0  0
    6.1275    1.0837    0.0000 H   0  0  0  0  0  0  0  0  0  0  0  0
    3.5436   -1.7511    0.0000 H   0  0  0  0  0  0  0  0  0  0  0  0
    4.3394   -1.6884    0.0000 H   0  0  0  0  0  0  0  0  0  0  0  0
    6.1762   -1.4935    0.0000 H   0  0  0  0  0  0  0  0  0  0  0  0
    3.1564    2.2775    0.0000 H   0  0  0  0  0  0  0  0  0  0  0  0
    2.9844    1.5238    0.0000 H   0  0  0  0  0  0  0  0  0  0  0  0
    2.3491   -0.7300    0.0000 H   0  0  0  0  0  0  0  0  0  0  0  0
    2.7963   -1.3913    0.0000 H   0  0  0  0  0  0  0  0  0  0  0  0
    4.3044    3.1791    0.0000 H   0  0  0  0  0  0  0  0  0  0  0  0
    3.6078    2.8436    0.0000 H   0  0  0  0  0  0  0  0  0  0  0  0
    6.5329   -1.2837    0.0000 H   0  0  0  0  0  0  0  0  0  0  0  0
    2.2755    1.2442    0.0000 H   0  0  0  0  0  0  0  0  0  0  0  0
    1.4446    0.9642    0.0000 H   0  0  0  0  0  0  0  0  0  0  0  0
    1.7246    0.1333    0.0000 H   0  0  0  0  0  0  0  0  0  0  0  0
    5.0130   -2.1804    0.0000 H   0  0  0  0  0  0  0  0  0  0  0  0
    5.6294   -2.8040    0.0000 H   0  0  0  0  0  0  0  0  0  0  0  0
    6.2530   -2.1877    0.0000 H   0  0  0  0  0  0  0  0  0  0  0  0
    5.9934    3.4116    0.0000 H   0  0  0  0  0  0  0  0  0  0  0  0
    5.5269    4.1540    0.0000 H   0  0  0  0  0  0  0  0  0  0  0  0
    4.7845    3.6875    0.0000 H   0  0  0  0  0  0  0  0  0  0  0  0
    8.6434   -0.1424    0.0000 H   0  0  0  0  0  0  0  0  0  0  0  0
    7.8465   -0.1598    0.0000 H   0  0  0  0  0  0  0  0  0  0  0  0
    8.6239   -2.4283    0.0000 H   0  0  0  0  0  0  0  0  0  0  0  0
    9.9734    0.0318    0.0000 H   0  0  0  0  0  0  0  0  0  0  0  0
   10.0442   -3.2075    0.0000 H   0  0  0  0  0  0  0  0  0  0  0  0
   11.3937   -0.7474    0.0000 H   0  0  0  0  0  0  0  0  0  0  0  0
   13.1059   -2.9955    0.0000 H   0  0  0  0  0  0  0  0  0  0  0  0
   13.9027   -2.9781    0.0000 H   0  0  0  0  0  0  0  0  0  0  0  0
   12.3706   -0.4534    0.0000 H   0  0  0  0  0  0  0  0  0  0  0  0
   11.9872   -1.1522    0.0000 H   0  0  0  0  0  0  0  0  0  0  0  0
   13.8383   -0.0289    0.0000 H   0  0  0  0  0  0  0  0  0  0  0  0
   13.0414   -0.0463    0.0000 H   0  0  0  0  0  0  0  0  0  0  0  0
   14.5735   -2.5710    0.0000 H   0  0  0  0  0  0  0  0  0  0  0  0
   14.9569   -1.8722    0.0000 H   0  0  0  0  0  0  0  0  0  0  0  0
   16.0721   -1.5754    0.0000 H   0  0  0  0  0  0  0  0  0  0  0  0
   14.6165    0.8233    0.0000 H   0  0  0  0  0  0  0  0  0  0  0  0
   17.4571   -0.7350    0.0000 H   0  0  0  0  0  0  0  0  0  0  0  0
   16.0014    1.6638    0.0000 H   0  0  0  0  0  0  0  0  0  0  0  0
   17.4217    0.8846    0.0000 H   0  0  0  0  0  0  0  0  0  0  0  0
  1  4  1  0  0  0  0
  1  9  1  0  0  0  0
  2 13  1  0  0  0  0
  2 18  1  0  0  0  0
  3 13  1  0  0  0  0
  3 20  1  0  0  0  0
  4 18  1  0  0  0  0
  5 20  1  0  0  0  0
  5 24  1  0  0  0  0
  6 31  2  0  0  0  0
  7 31  1  0  0  0  0
  7 32  1  0  0  0  0
  7 33  1  0  0  0  0
  8 34  1  0  0  0  0
  8 35  1  0  0  0  0
  8 36  1  0  0  0  0
  9 10  1  0  0  0  0
  9 11  1  0  0  0  0
  9 13  1  0  0  0  0
 10 12  1  0  0  0  0
 10 16  1  0  0  0  0
 10 42  1  0  0  0  0
 11 14  1  0  0  0  0
 11 15  1  0  0  0  0
 11 43  1  0  0  0  0
 12 17  1  0  0  0  0
 12 21  1  0  0  0  0
 12 44  1  0  0  0  0
 13 45  1  0  0  0  0
 14 17  1  0  0  0  0
 14 46  1  0  0  0  0
 14 47  1  0  0  0  0
 15 20  1  0  0  0  0
 15 22  1  0  0  0  0
 15 48  1  0  0  0  0
 16 19  1  0  0  0  0
 16 49  1  0  0  0  0
 16 50  1  0  0  0  0
 17 51  1  0  0  0  0
 17 52  1  0  0  0  0
 18 19  1  0  0  0  0
 18 23  1  0  0  0  0
 19 53  1  0  0  0  0
 19 54  1  0  0  0  0
 20 55  1  0  0  0  0
 21 56  1  0  0  0  0
 21 57  1  0  0  0  0
 21 58  1  0  0  0  0
 22 59  1  0  0  0  0
 22 60  1  0  0  0  0
 22 61  1  0  0  0  0
 23 62  1  0  0  0  0
 23 63  1  0  0  0  0
 23 64  1  0  0  0  0
 24 25  1  0  0  0  0
 24 65  1  0  0  0  0
 24 66  1  0  0  0  0
 25 26  2  0  0  0  0
 25 27  1  0  0  0  0
 26 28  1  0  0  0  0
 26 67  1  0  0  0  0
 27 29  2  0  0  0  0
 27 68  1  0  0  0  0
 28 30  2  0  0  0  0
 28 69  1  0  0  0  0
 29 30  1  0  0  0  0
 29 70  1  0  0  0  0
 30 31  1  0  0  0  0
 32 34  1  0  0  0  0
 32 71  1  0  0  0  0
 32 72  1  0  0  0  0
 33 35  1  0  0  0  0
 33 73  1  0  0  0  0
 33 74  1  0  0  0  0
 34 77  1  0  0  0  0
 34 78  1  0  0  0  0
 35 75  1  0  0  0  0
 35 76  1  0  0  0  0
 36 37  2  0  0  0  0
 36 38  1  0  0  0  0
 37 39  1  0  0  0  0
 37 79  1  0  0  0  0
 38 40  2  0  0  0  0
 38 80  1  0  0  0  0
 39 41  2  0  0  0  0
 39 81  1  0  0  0  0
 40 41  1  0  0  0  0
 40 82  1  0  0  0  0
 41 83  1  0  0  0  0
M  END
> <PUBCHEM_COMPOUND_CID>
583248

> <PUBCHEM_COMPOUND_CANONICALIZED>
1

> <PUBCHEM_CACTVS_COMPLEXITY>
929

> <PUBCHEM_CACTVS_HBOND_ACCEPTOR>
7

> <PUBCHEM_CACTVS_HBOND_DONOR>
0

> <PUBCHEM_CACTVS_ROTATABLE_BOND>
5

> <PUBCHEM_CACTVS_SUBSKEYS>
AAADcfB/OAAAAAAAAAAAAAAAAAAAAAAAAAA8aNECBIkAAACRQAAAHgAABAAADUzxmAcyyIMABACIAiVSUACCAAAlAgAIiAEIbMgZZjLAtZm2MQhkxgHO6YfY6PyOwAAAAAAAAACAAAYAADAAAAAAAAAAAA==

> <PUBCHEM_IUPAC_INCHI>
InChI=1S/C33H42N2O6/c1-22-9-14-28-23(2)30(38-31-33(28)27(22)15-16-32(3,39-31)40-41-33)37-21-24-10-12-25(13-11-24)29(36)35-19-17-34(18-20-35)26-7-5-4-6-8-26/h4-8,10-13,22-23,27-28,30-31H,9,14-21H2,1-3H3

> <PUBCHEM_IUPAC_INCHIKEY>
GLJMQXZJFIXPQO-UHFFFAOYSA-N

> <PUBCHEM_XLOGP3_AA>
5.6

> <PUBCHEM_EXACT_MASS>
562.304287

> <PUBCHEM_MOLECULAR_FORMULA>
C33H42N2O6

> <PUBCHEM_MOLECULAR_WEIGHT>
562.69638

> <PUBCHEM_OPENEYE_CAN_SMILES>
CC1CCC2C(C(OC3C24C1CCC(O3)(OO4)C)OCC5=CC=C(C=C5)C(=O)N6CCN(CC6)C7=CC=CC=C7)C

> <PUBCHEM_OPENEYE_ISO_SMILES>
CC1CCC2C(C(OC3C24C1CCC(O3)(OO4)C)OCC5=CC=C(C=C5)C(=O)N6CCN(CC6)C7=CC=CC=C7)C

> <PUBCHEM_CACTVS_TPSA>
69.7

> <PUBCHEM_MONOISOTOPIC_WEIGHT>
562.304287

> <PUBCHEM_TOTAL_CHARGE>
0

> <PUBCHEM_HEAVY_ATOM_COUNT>
41

> <PUBCHEM_ATOM_DEF_STEREO_COUNT>
0

> <PUBCHEM_ATOM_UDEF_STEREO_COUNT>
8

> <PUBCHEM_BOND_DEF_STEREO_COUNT>
0

> <PUBCHEM_BOND_UDEF_STEREO_COUNT>
0

> <PUBCHEM_ISOTOPIC_ATOM_COUNT>
0

> <PUBCHEM_COMPONENT_COUNT>
1

> <PUBCHEM_CACTVS_TAUTO_COUNT>
1

> <PUBCHEM_COORDINATE_TYPE>
1
5
255

> <PUBCHEM_BONDANNOTATIONS>
9  1  3
10  16  3
11  14  3
12  21  3
15  22  3
18  23  3
13  2  3
25  26  8
25  27  8
26  28  8
27  29  8
28  30  8
29  30  8
36  37  8
36  38  8
37  39  8
38  40  8
39  41  8
40  41  8
20  5  3

$$$$

