7847031
  -OEChem-06241222483D

 42 44  0     0  0  0  0  0  0999 V2000
    3.5165   -2.2447    0.6104 S   0  0  0  0  0  0  0  0  0  0  0  0
   -2.6501    3.4008   -1.5009 F   0  0  0  0  0  0  0  0  0  0  0  0
    2.6218    1.5992    1.0294 O   0  0  0  0  0  0  0  0  0  0  0  0
    3.8766    3.0496   -0.2527 O   0  0  0  0  0  0  0  0  0  0  0  0
    0.2087    0.5433    1.5633 O   0  0  0  0  0  0  0  0  0  0  0  0
   -5.2688   -1.7965    0.7870 O   0  5  0  0  0  0  0  0  0  0  0  0
   -3.2804   -1.9345    1.7069 O   0  0  0  0  0  0  0  0  0  0  0  0
    2.6874   -0.6021   -1.1970 N   0  0  0  0  0  0  0  0  0  0  0  0
   -0.7890    2.1089    0.1192 N   0  0  0  0  0  0  0  0  0  0  0  0
   -4.1133   -1.3454    0.9762 N   0  3  0  0  0  0  0  0  0  0  0  0
    4.9459   -0.0913   -0.3371 C   0  0  0  0  0  0  0  0  0  0  0  0
    4.8741    1.0457    0.6991 C   0  0  0  0  0  0  0  0  0  0  0  0
    3.6952   -0.8781   -0.4026 C   0  0  0  0  0  0  0  0  0  0  0  0
    1.9483   -2.5183   -0.0521 C   0  0  0  0  0  0  0  0  0  0  0  0
    1.6776   -1.5342   -1.0075 C   0  0  0  0  0  0  0  0  0  0  0  0
    3.7633    2.0316    0.4160 C   0  0  0  0  0  0  0  0  0  0  0  0
    1.0242   -3.5310    0.2518 C   0  0  0  0  0  0  0  0  0  0  0  0
    0.4373   -1.5670   -1.6813 C   0  0  0  0  0  0  0  0  0  0  0  0
   -2.0870    1.5821   -0.0815 C   0  0  0  0  0  0  0  0  0  0  0  0
    1.4734    2.4351    0.8543 C   0  0  0  0  0  0  0  0  0  0  0  0
   -0.1955   -3.5405   -0.4293 C   0  0  0  0  0  0  0  0  0  0  0  0
   -0.4872   -2.5723   -1.3837 C   0  0  0  0  0  0  0  0  0  0  0  0
    0.2306    1.5726    0.8952 C   0  0  0  0  0  0  0  0  0  0  0  0
   -2.4572    0.3895    0.5397 C   0  0  0  0  0  0  0  0  0  0  0  0
   -2.9960    2.2542   -0.8986 C   0  0  0  0  0  0  0  0  0  0  0  0
   -3.7363   -0.1313    0.3437 C   0  0  0  0  0  0  0  0  0  0  0  0
   -4.2752    1.7337   -1.0945 C   0  0  0  0  0  0  0  0  0  0  0  0
   -4.6452    0.5409   -0.4734 C   0  0  0  0  0  0  0  0  0  0  0  0
    5.8074   -0.7310   -0.1109 H   0  0  0  0  0  0  0  0  0  0  0  0
    5.1371    0.3434   -1.3266 H   0  0  0  0  0  0  0  0  0  0  0  0
    5.8184    1.6029    0.7033 H   0  0  0  0  0  0  0  0  0  0  0  0
    4.7511    0.6503    1.7149 H   0  0  0  0  0  0  0  0  0  0  0  0
    1.2449   -4.2898    0.9963 H   0  0  0  0  0  0  0  0  0  0  0  0
    0.1978   -0.8138   -2.4265 H   0  0  0  0  0  0  0  0  0  0  0  0
    1.4256    3.1479    1.6838 H   0  0  0  0  0  0  0  0  0  0  0  0
    1.5152    2.9795   -0.0954 H   0  0  0  0  0  0  0  0  0  0  0  0
   -0.9258   -4.3145   -0.2080 H   0  0  0  0  0  0  0  0  0  0  0  0
   -1.4424   -2.5938   -1.9012 H   0  0  0  0  0  0  0  0  0  0  0  0
   -0.6061    2.9841   -0.3667 H   0  0  0  0  0  0  0  0  0  0  0  0
   -1.7808   -0.1601    1.1772 H   0  0  0  0  0  0  0  0  0  0  0  0
   -4.9823    2.2575   -1.7310 H   0  0  0  0  0  0  0  0  0  0  0  0
   -5.6500    0.1651   -0.6490 H   0  0  0  0  0  0  0  0  0  0  0  0
  1 13  1  0  0  0  0
  1 14  1  0  0  0  0
  2 25  1  0  0  0  0
  3 16  1  0  0  0  0
  3 20  1  0  0  0  0
  4 16  2  0  0  0  0
  5 23  2  0  0  0  0
  6 10  1  0  0  0  0
  7 10  2  0  0  0  0
  8 13  2  0  0  0  0
  8 15  1  0  0  0  0
  9 19  1  0  0  0  0
  9 23  1  0  0  0  0
  9 39  1  0  0  0  0
 10 26  1  0  0  0  0
 11 12  1  0  0  0  0
 11 13  1  0  0  0  0
 11 29  1  0  0  0  0
 11 30  1  0  0  0  0
 12 16  1  0  0  0  0
 12 31  1  0  0  0  0
 12 32  1  0  0  0  0
 14 15  1  0  0  0  0
 14 17  2  0  0  0  0
 15 18  2  0  0  0  0
 17 21  1  0  0  0  0
 17 33  1  0  0  0  0
 18 22  1  0  0  0  0
 18 34  1  0  0  0  0
 19 24  1  0  0  0  0
 19 25  2  0  0  0  0
 20 23  1  0  0  0  0
 20 35  1  0  0  0  0
 20 36  1  0  0  0  0
 21 22  2  0  0  0  0
 21 37  1  0  0  0  0
 22 38  1  0  0  0  0
 24 26  2  0  0  0  0
 24 40  1  0  0  0  0
 25 27  1  0  0  0  0
 26 28  1  0  0  0  0
 27 28  2  0  0  0  0
 27 41  1  0  0  0  0
 28 42  1  0  0  0  0
M  CHG  2   6  -1  10   1
M  END
> <PUBCHEM_COMPOUND_CID>
7847031

> <PUBCHEM_CONFORMER_RMSD>
1.2

> <PUBCHEM_CONFORMER_DIVERSEORDER>
1
18
146
58
84
159
219
116
23
209
8
217
95
207
37
175
71
96
92
172
113
188
46
155
197
145
53
3
190
72
29
114
57
174
73
205
63
66
108
26
111
151
201
54
11
168
5
193
186
4
38
35
33
149
87
65
200
176
121
154
144
125
202
112
25
196
60
100
135
61
94
24
173
187
78
106
81
119
17
70
150
62
189
82
30
48
83
156
80
79
163
182
166
120
181
132
124
147
129
170
75
101
12
140
104
109
22
10
178
122
59
169
210
49
34
50
2
203
19
52
162
215
13
130
185
126
67
98
74
20
21
93
117
56
179
131
212
142
76
64
85
55
195
88
9
136
40
161
110
153
102
16
89
31
107
28
68
194
164
199
183
91
45
32
158
14
138
177
157
213
123
127
211
171
36
90
39
160
15
134
216
44
165
69
43
105
206
208
7
103
139
184
99
128
214
152
77
191
6
143
51
148
47
198
115
180
27
97
118
167
192
204
133
137
42
141
41
86
218

> <PUBCHEM_MMFF94_PARTIAL_CHARGES>
36
1 -0.08
10 0.91
11 0.18
12 0.06
13 0.2
14 0.04
15 0.23
16 0.66
17 -0.15
18 -0.15
19 0.12
2 -0.19
20 0.34
21 -0.15
22 -0.15
23 0.57
24 -0.15
25 0.19
26 0.13
27 -0.15
28 -0.15
3 -0.43
33 0.15
34 0.15
37 0.15
38 0.15
39 0.37
4 -0.57
40 0.15
41 0.15
42 0.15
5 -0.57
6 -0.52
7 -0.52
8 -0.57
9 -0.55

> <PUBCHEM_EFFECTIVE_ROTOR_COUNT>
9

> <PUBCHEM_PHARMACOPHORE_FEATURES>
10
1 4 acceptor
1 5 acceptor
1 6 acceptor
1 6 anion
1 7 acceptor
1 8 acceptor
1 9 donor
5 1 8 13 14 15 rings
6 14 15 17 18 21 22 rings
6 19 24 25 26 27 28 rings

> <PUBCHEM_HEAVY_ATOM_COUNT>
28

> <PUBCHEM_ATOM_DEF_STEREO_COUNT>
0

> <PUBCHEM_ATOM_UDEF_STEREO_COUNT>
0

> <PUBCHEM_BOND_DEF_STEREO_COUNT>
0

> <PUBCHEM_BOND_UDEF_STEREO_COUNT>
0

> <PUBCHEM_ISOTOPIC_ATOM_COUNT>
0

> <PUBCHEM_COMPONENT_COUNT>
1

> <PUBCHEM_CACTVS_TAUTO_COUNT>
4

> <PUBCHEM_CONFORMER_ID>
0077BC7700000001

> <PUBCHEM_MMFF94_ENERGY>
61.0493

> <PUBCHEM_FEATURE_SELFOVERLAP>
50.897

> <PUBCHEM_SHAPE_FINGERPRINT>
10675989 125 16539055991929850565
1100329 8 18334583421753638018
11370993 70 18341334491023738206
11828532 37 16482451506404806827
12553582 1 17685483647665688504
13402501 40 18410289190613595723
13583140 156 18341896354340280278
19591789 44 18335703797567698866
20715895 44 17335066040946509269
20764821 26 18409172108200661107
21585482 310 17484791629528701123
22393880 68 18265610077542164766
23227448 37 18261674753564820030
23559900 14 18268716193416413464
3298306 158 18408893935753276648
338550 245 18339644421878325180
392239 28 18335695040055984211
463206 1 18115038419601718725
56638632 33 17269772582065392602
9709674 26 17977381960607021663

> <PUBCHEM_SHAPE_MULTIPOLES>
528.51
9.97
4.48
1.36
3.14
0.98
-0.08
-2.57
0.57
-1.05
-0.29
0.61
0.18
1.94

> <PUBCHEM_SHAPE_SELFOVERLAP>
1127.659

> <PUBCHEM_SHAPE_VOLUME>
295.8

> <PUBCHEM_COORDINATE_TYPE>
2
5
10

$$$$

