10363
  -OEChem-06261204302D

 27 27  0     1  0  0  0  0  0999 V2000
    2.0000   -1.2500    0.0000 O   0  0  0  0  0  0  0  0  0  0  0  0
    3.7320   -1.2500    0.0000 C   0  0  3  0  0  0  0  0  0  0  0  0
    4.5981   -0.7500    0.0000 C   0  0  0  0  0  0  0  0  0  0  0  0
    4.5981    0.2500    0.0000 C   0  0  0  0  0  0  0  0  0  0  0  0
    3.7320    0.7500    0.0000 C   0  0  0  0  0  0  0  0  0  0  0  0
    3.7320    1.7500    0.0000 C   0  0  0  0  0  0  0  0  0  0  0  0
    2.8660   -0.7500    0.0000 C   0  0  0  0  0  0  0  0  0  0  0  0
    2.8660    0.2500    0.0000 C   0  0  0  0  0  0  0  0  0  0  0  0
    3.7320   -2.2500    0.0000 C   0  0  0  0  0  0  0  0  0  0  0  0
    4.5981    2.2500    0.0000 C   0  0  0  0  0  0  0  0  0  0  0  0
    2.8660    2.2500    0.0000 C   0  0  0  0  0  0  0  0  0  0  0  0
    4.4682   -1.6750    0.0000 H   0  0  0  0  0  0  0  0  0  0  0  0
    4.8101   -1.3326    0.0000 H   0  0  0  0  0  0  0  0  0  0  0  0
    5.2087   -0.6423    0.0000 H   0  0  0  0  0  0  0  0  0  0  0  0
    5.2087    0.1423    0.0000 H   0  0  0  0  0  0  0  0  0  0  0  0
    4.8101    0.8326    0.0000 H   0  0  0  0  0  0  0  0  0  0  0  0
    3.7320    2.3700    0.0000 H   0  0  0  0  0  0  0  0  0  0  0  0
    2.3291    0.5600    0.0000 H   0  0  0  0  0  0  0  0  0  0  0  0
    3.1120   -2.2500    0.0000 H   0  0  0  0  0  0  0  0  0  0  0  0
    3.7320   -2.8700    0.0000 H   0  0  0  0  0  0  0  0  0  0  0  0
    4.3520   -2.2500    0.0000 H   0  0  0  0  0  0  0  0  0  0  0  0
    4.9081    1.7131    0.0000 H   0  0  0  0  0  0  0  0  0  0  0  0
    5.1350    2.5600    0.0000 H   0  0  0  0  0  0  0  0  0  0  0  0
    4.2881    2.7869    0.0000 H   0  0  0  0  0  0  0  0  0  0  0  0
    3.1760    2.7869    0.0000 H   0  0  0  0  0  0  0  0  0  0  0  0
    2.3291    2.5600    0.0000 H   0  0  0  0  0  0  0  0  0  0  0  0
    2.5560    1.7131    0.0000 H   0  0  0  0  0  0  0  0  0  0  0  0
  1  7  2  0  0  0  0
  2  3  1  0  0  0  0
  2  7  1  0  0  0  0
  2  9  1  0  0  0  0
  2 12  1  0  0  0  0
  3  4  1  0  0  0  0
  3 13  1  0  0  0  0
  3 14  1  0  0  0  0
  4  5  1  0  0  0  0
  4 15  1  0  0  0  0
  4 16  1  0  0  0  0
  5  6  1  0  0  0  0
  5  8  2  0  0  0  0
  6 10  1  0  0  0  0
  6 11  1  0  0  0  0
  6 17  1  0  0  0  0
  7  8  1  0  0  0  0
  8 18  1  0  0  0  0
  9 19  1  0  0  0  0
  9 20  1  0  0  0  0
  9 21  1  0  0  0  0
 10 22  1  0  0  0  0
 10 23  1  0  0  0  0
 10 24  1  0  0  0  0
 11 25  1  0  0  0  0
 11 26  1  0  0  0  0
 11 27  1  0  0  0  0
M  END
> <PUBCHEM_COMPOUND_CID>
10363

> <PUBCHEM_COMPOUND_CANONICALIZED>
1

> <PUBCHEM_CACTVS_COMPLEXITY>
189

> <PUBCHEM_CACTVS_HBOND_ACCEPTOR>
1

> <PUBCHEM_CACTVS_HBOND_DONOR>
0

> <PUBCHEM_CACTVS_ROTATABLE_BOND>
1

> <PUBCHEM_CACTVS_SUBSKEYS>
AAADceBwIAAAAAAAAAAAAAAAAAAAAAAAAAAgAAAAAAAAAAAAAAAAGgAAAAAADQSAgAACAAAAAACIAqBSAAAAAAAgAAAACAEAAEgAABIAAQAAAAAAgAAIAQMIiMCOAAAAAAAAAAAAAAAAAAAAAAAAAAAAAA==

> <PUBCHEM_IUPAC_OPENEYE_NAME>
3-isopropyl-6-methyl-cyclohex-2-en-1-one

> <PUBCHEM_IUPAC_CAS_NAME>
6-methyl-3-propan-2-yl-1-cyclohex-2-enone

> <PUBCHEM_IUPAC_NAME>
6-methyl-3-propan-2-ylcyclohex-2-en-1-one

> <PUBCHEM_IUPAC_SYSTEMATIC_NAME>
6-methyl-3-propan-2-yl-cyclohex-2-en-1-one

> <PUBCHEM_IUPAC_TRADITIONAL_NAME>
3-isopropyl-6-methyl-cyclohex-2-en-1-one

> <PUBCHEM_IUPAC_INCHI>
InChI=1S/C10H16O/c1-7(2)9-5-4-8(3)10(11)6-9/h6-8H,4-5H2,1-3H3

> <PUBCHEM_IUPAC_INCHIKEY>
RLYSXAZAJUMULG-UHFFFAOYSA-N

> <PUBCHEM_XLOGP3_AA>
2.1

> <PUBCHEM_EXACT_MASS>
152.120115

> <PUBCHEM_MOLECULAR_FORMULA>
C10H16O

> <PUBCHEM_MOLECULAR_WEIGHT>
152.23344

> <PUBCHEM_OPENEYE_CAN_SMILES>
CC1CCC(=CC1=O)C(C)C

> <PUBCHEM_OPENEYE_ISO_SMILES>
CC1CCC(=CC1=O)C(C)C

> <PUBCHEM_CACTVS_TPSA>
17.1

> <PUBCHEM_MONOISOTOPIC_WEIGHT>
152.120115

> <PUBCHEM_TOTAL_CHARGE>
0

> <PUBCHEM_HEAVY_ATOM_COUNT>
11

> <PUBCHEM_ATOM_DEF_STEREO_COUNT>
0

> <PUBCHEM_ATOM_UDEF_STEREO_COUNT>
1

> <PUBCHEM_BOND_DEF_STEREO_COUNT>
0

> <PUBCHEM_BOND_UDEF_STEREO_COUNT>
0

> <PUBCHEM_ISOTOPIC_ATOM_COUNT>
0

> <PUBCHEM_COMPONENT_COUNT>
1

> <PUBCHEM_CACTVS_TAUTO_COUNT>
8

> <PUBCHEM_COORDINATE_TYPE>
1
5
255

> <PUBCHEM_BONDANNOTATIONS>
2  12  3

$$$$

