3941
  -OEChem-06251223472D

 42 45  0     0  0  0  0  0  0999 V2000
    4.4909    1.9201    0.0000 N   0  0  0  0  0  0  0  0  0  0  0  0
    4.2320    0.9542    0.0000 C   0  0  0  0  0  0  0  0  0  0  0  0
    3.2543    2.7687    0.0000 C   0  0  0  0  0  0  0  0  0  0  0  0
    2.5000   -0.0458    0.0000 C   0  0  0  0  0  0  0  0  0  0  0  0
    6.0640    0.1954    0.0000 C   0  0  0  0  0  0  0  0  0  0  0  0
    4.1203    3.2687    0.0000 C   0  0  0  0  0  0  0  0  0  0  0  0
    2.0000    0.8202    0.0000 C   0  0  0  0  0  0  0  0  0  0  0  0
    6.3228    1.1613    0.0000 C   0  0  0  0  0  0  0  0  0  0  0  0
    6.5640   -0.6707    0.0000 C   0  0  0  0  0  0  0  0  0  0  0  0
    7.5640   -0.6707    0.0000 C   0  0  0  0  0  0  0  0  0  0  0  0
    6.0640   -1.5367    0.0000 C   0  0  0  0  0  0  0  0  0  0  0  0
    5.0640   -1.5367    0.0000 C   0  0  0  0  0  0  0  0  0  0  0  0
    8.0640   -1.5367    0.0000 C   0  0  0  0  0  0  0  0  0  0  0  0
    6.5640   -2.4027    0.0000 C   0  0  0  0  0  0  0  0  0  0  0  0
    8.0640    0.1954    0.0000 C   0  0  0  0  0  0  0  0  0  0  0  0
    4.5640   -2.4027    0.0000 C   0  0  0  0  0  0  0  0  0  0  0  0
    9.0640   -1.5367    0.0000 C   0  0  0  0  0  0  0  0  0  0  0  0
    6.0640   -3.2687    0.0000 C   0  0  0  0  0  0  0  0  0  0  0  0
    9.0640    0.1954    0.0000 C   0  0  0  0  0  0  0  0  0  0  0  0
    5.0640   -3.2687    0.0000 C   0  0  0  0  0  0  0  0  0  0  0  0
    9.5640   -0.6707    0.0000 C   0  0  0  0  0  0  0  0  0  0  0  0
    4.2726    0.3355    0.0000 H   0  0  0  0  0  0  0  0  0  0  0  0
    2.9495    3.3087    0.0000 H   0  0  0  0  0  0  0  0  0  0  0  0
    2.7114    2.4693    0.0000 H   0  0  0  0  0  0  0  0  0  0  0  0
    1.9631   -0.3558    0.0000 H   0  0  0  0  0  0  0  0  0  0  0  0
    2.8100   -0.5828    0.0000 H   0  0  0  0  0  0  0  0  0  0  0  0
    4.7020    3.4833    0.0000 H   0  0  0  0  0  0  0  0  0  0  0  0
    3.8571    3.8301    0.0000 H   0  0  0  0  0  0  0  0  0  0  0  0
    1.7294    1.3780    0.0000 H   0  0  0  0  0  0  0  0  0  0  0  0
    1.4523    0.5297    0.0000 H   0  0  0  0  0  0  0  0  0  0  0  0
    6.9141    0.9748    0.0000 H   0  0  0  0  0  0  0  0  0  0  0  0
    6.5349    1.7439    0.0000 H   0  0  0  0  0  0  0  0  0  0  0  0
    4.7540   -0.9998    0.0000 H   0  0  0  0  0  0  0  0  0  0  0  0
    7.7540   -2.0736    0.0000 H   0  0  0  0  0  0  0  0  0  0  0  0
    7.1840   -2.4027    0.0000 H   0  0  0  0  0  0  0  0  0  0  0  0
    7.7540    0.7323    0.0000 H   0  0  0  0  0  0  0  0  0  0  0  0
    3.9440   -2.4027    0.0000 H   0  0  0  0  0  0  0  0  0  0  0  0
    9.3740   -2.0736    0.0000 H   0  0  0  0  0  0  0  0  0  0  0  0
    6.3740   -3.8057    0.0000 H   0  0  0  0  0  0  0  0  0  0  0  0
    9.3740    0.7323    0.0000 H   0  0  0  0  0  0  0  0  0  0  0  0
   10.1840   -0.6707    0.0000 H   0  0  0  0  0  0  0  0  0  0  0  0
    4.7540   -3.8057    0.0000 H   0  0  0  0  0  0  0  0  0  0  0  0
  1  6  1  0  0  0  0
  1  7  1  0  0  0  0
  1  8  1  0  0  0  0
  2  3  1  0  0  0  0
  2  4  1  0  0  0  0
  2  5  1  0  0  0  0
  2 22  1  0  0  0  0
  3  6  1  0  0  0  0
  3 23  1  0  0  0  0
  3 24  1  0  0  0  0
  4  7  1  0  0  0  0
  4 25  1  0  0  0  0
  4 26  1  0  0  0  0
  5  8  1  0  0  0  0
  5  9  2  0  0  0  0
  6 27  1  0  0  0  0
  6 28  1  0  0  0  0
  7 29  1  0  0  0  0
  7 30  1  0  0  0  0
  8 31  1  0  0  0  0
  8 32  1  0  0  0  0
  9 10  1  0  0  0  0
  9 11  1  0  0  0  0
 10 13  2  0  0  0  0
 10 15  1  0  0  0  0
 11 12  2  0  0  0  0
 11 14  1  0  0  0  0
 12 16  1  0  0  0  0
 12 33  1  0  0  0  0
 13 17  1  0  0  0  0
 13 34  1  0  0  0  0
 14 18  2  0  0  0  0
 14 35  1  0  0  0  0
 15 19  2  0  0  0  0
 15 36  1  0  0  0  0
 16 20  2  0  0  0  0
 16 37  1  0  0  0  0
 17 21  2  0  0  0  0
 17 38  1  0  0  0  0
 18 20  1  0  0  0  0
 18 39  1  0  0  0  0
 19 21  1  0  0  0  0
 19 40  1  0  0  0  0
 20 42  1  0  0  0  0
 21 41  1  0  0  0  0
M  END
> <PUBCHEM_COMPOUND_CID>
3941

> <PUBCHEM_COMPOUND_CANONICALIZED>
1

> <PUBCHEM_CACTVS_COMPLEXITY>
357

> <PUBCHEM_CACTVS_HBOND_ACCEPTOR>
1

> <PUBCHEM_CACTVS_HBOND_DONOR>
0

> <PUBCHEM_CACTVS_ROTATABLE_BOND>
2

> <PUBCHEM_CACTVS_SUBSKEYS>
AAADceB6AAAAAAAAAAAAAAAAAAAAAAAAAAA8eLECAAAAAAABQAAAHAAAAAAADQDBGAQwAIMAAACAAiBCAACCAAAgAAAIiAAIAIgIICKAkRCEIAAggACIiAcQgMAOAAAAAAAAAAAAAAAAAAAAAAAAAAAAAA==

> <PUBCHEM_IUPAC_OPENEYE_NAME>
3-benzhydrylidenequinuclidine

> <PUBCHEM_IUPAC_CAS_NAME>
3-(diphenylmethylene)-1-azabicyclo[2.2.2]octane

> <PUBCHEM_IUPAC_NAME>
3-benzhydrylidene-1-azabicyclo[2.2.2]octane

> <PUBCHEM_IUPAC_SYSTEMATIC_NAME>
3-(diphenylmethylidene)-1-azabicyclo[2.2.2]octane

> <PUBCHEM_IUPAC_TRADITIONAL_NAME>
3-benzhydrylidenequinuclidine

> <PUBCHEM_IUPAC_INCHI>
InChI=1S/C20H21N/c1-3-7-17(8-4-1)20(18-9-5-2-6-10-18)19-15-21-13-11-16(19)12-14-21/h1-10,16H,11-15H2

> <PUBCHEM_IUPAC_INCHIKEY>
HDKROIJMOQEIJT-UHFFFAOYSA-N

> <PUBCHEM_XLOGP3_AA>
4.2

> <PUBCHEM_EXACT_MASS>
275.1674

> <PUBCHEM_MOLECULAR_FORMULA>
C20H21N

> <PUBCHEM_MOLECULAR_WEIGHT>
275.38744

> <PUBCHEM_OPENEYE_CAN_SMILES>
C1CN2CCC1C(=C(C3=CC=CC=C3)C4=CC=CC=C4)C2

> <PUBCHEM_OPENEYE_ISO_SMILES>
C1CN2CCC1C(=C(C3=CC=CC=C3)C4=CC=CC=C4)C2

> <PUBCHEM_CACTVS_TPSA>
3.2

> <PUBCHEM_MONOISOTOPIC_WEIGHT>
275.1674

> <PUBCHEM_TOTAL_CHARGE>
0

> <PUBCHEM_HEAVY_ATOM_COUNT>
21

> <PUBCHEM_ATOM_DEF_STEREO_COUNT>
0

> <PUBCHEM_ATOM_UDEF_STEREO_COUNT>
0

> <PUBCHEM_BOND_DEF_STEREO_COUNT>
0

> <PUBCHEM_BOND_UDEF_STEREO_COUNT>
0

> <PUBCHEM_ISOTOPIC_ATOM_COUNT>
0

> <PUBCHEM_COMPONENT_COUNT>
1

> <PUBCHEM_CACTVS_TAUTO_COUNT>
1

> <PUBCHEM_COORDINATE_TYPE>
1
5
255

> <PUBCHEM_BONDANNOTATIONS>
10  13  8
10  15  8
11  12  8
11  14  8
12  16  8
13  17  8
14  18  8
15  19  8
16  20  8
17  21  8
18  20  8
19  21  8

$$$$

