12806
  -OEChem-06261207232D

 16 16  0     0  0  0  0  0  0999 V2000
    2.0000   -1.7220    0.0000 F   0  0  0  0  0  0  0  0  0  0  0  0
    2.3660   -0.3560    0.0000 F   0  0  0  0  0  0  0  0  0  0  0  0
    3.3660   -2.0880    0.0000 F   0  0  0  0  0  0  0  0  0  0  0  0
    4.5981   -1.2220    0.0000 N   0  0  0  0  0  0  0  0  0  0  0  0
    3.7320    0.2780    0.0000 N   0  0  0  0  0  0  0  0  0  0  0  0
    5.4641    0.2780    0.0000 N   0  0  0  0  0  0  0  0  0  0  0  0
    6.3301   -1.2220    0.0000 N   0  0  0  0  0  0  0  0  0  0  0  0
    4.5981    1.7780    0.0000 N   0  0  0  0  0  0  0  0  0  0  0  0
    3.7320   -0.7220    0.0000 C   0  0  0  0  0  0  0  0  0  0  0  0
    2.8660   -1.2220    0.0000 C   0  0  0  0  0  0  0  0  0  0  0  0
    5.4641   -0.7220    0.0000 C   0  0  0  0  0  0  0  0  0  0  0  0
    4.5981    0.7780    0.0000 C   0  0  0  0  0  0  0  0  0  0  0  0
    6.8671   -0.9120    0.0000 H   0  0  0  0  0  0  0  0  0  0  0  0
    6.3301   -1.8420    0.0000 H   0  0  0  0  0  0  0  0  0  0  0  0
    5.1350    2.0880    0.0000 H   0  0  0  0  0  0  0  0  0  0  0  0
    4.0611    2.0880    0.0000 H   0  0  0  0  0  0  0  0  0  0  0  0
  1 10  1  0  0  0  0
  2 10  1  0  0  0  0
  3 10  1  0  0  0  0
  4  9  2  0  0  0  0
  4 11  1  0  0  0  0
  5  9  1  0  0  0  0
  5 12  2  0  0  0  0
  6 11  2  0  0  0  0
  6 12  1  0  0  0  0
  7 11  1  0  0  0  0
  7 13  1  0  0  0  0
  7 14  1  0  0  0  0
  8 12  1  0  0  0  0
  8 15  1  0  0  0  0
  8 16  1  0  0  0  0
  9 10  1  0  0  0  0
M  END
> <PUBCHEM_COMPOUND_CID>
12806

> <PUBCHEM_COMPOUND_CANONICALIZED>
1

> <PUBCHEM_CACTVS_COMPLEXITY>
149

> <PUBCHEM_CACTVS_HBOND_ACCEPTOR>
8

> <PUBCHEM_CACTVS_HBOND_DONOR>
2

> <PUBCHEM_CACTVS_ROTATABLE_BOND>
0

> <PUBCHEM_CACTVS_SUBSKEYS>
AAADcYBjgYAAAAAAAAAAAAAAAAAAAAAAAAAsAAAAAAAAAAABgAAADQAQAAAAAAABAxABEAZIEAAgAAIgJAAAgAkAAKABAAAAAACACAAACAAAAAAIAAIAAAAAAAAAAAAAAAAAAAAAAAAAAAAAAAAAAAAAAA==

> <PUBCHEM_IUPAC_OPENEYE_NAME>
6-(trifluoromethyl)-1,3,5-triazine-2,4-diamine

> <PUBCHEM_IUPAC_CAS_NAME>
6-(trifluoromethyl)-1,3,5-triazine-2,4-diamine

> <PUBCHEM_IUPAC_NAME>
6-(trifluoromethyl)-1,3,5-triazine-2,4-diamine

> <PUBCHEM_IUPAC_SYSTEMATIC_NAME>
6-(trifluoromethyl)-1,3,5-triazine-2,4-diamine

> <PUBCHEM_IUPAC_TRADITIONAL_NAME>
[4-amino-6-(trifluoromethyl)-s-triazin-2-yl]amine

> <PUBCHEM_IUPAC_INCHI>
InChI=1S/C4H4F3N5/c5-4(6,7)1-10-2(8)12-3(9)11-1/h(H4,8,9,10,11,12)

> <PUBCHEM_IUPAC_INCHIKEY>
AQTPBZVFBFDGDY-UHFFFAOYSA-N

> <PUBCHEM_XLOGP3_AA>
0.2

> <PUBCHEM_EXACT_MASS>
179.04188

> <PUBCHEM_MOLECULAR_FORMULA>
C4H4F3N5

> <PUBCHEM_MOLECULAR_WEIGHT>
179.10327

> <PUBCHEM_OPENEYE_CAN_SMILES>
C1(=NC(=NC(=N1)N)N)C(F)(F)F

> <PUBCHEM_OPENEYE_ISO_SMILES>
C1(=NC(=NC(=N1)N)N)C(F)(F)F

> <PUBCHEM_CACTVS_TPSA>
90.7

> <PUBCHEM_MONOISOTOPIC_WEIGHT>
179.04188

> <PUBCHEM_TOTAL_CHARGE>
0

> <PUBCHEM_HEAVY_ATOM_COUNT>
12

> <PUBCHEM_ATOM_DEF_STEREO_COUNT>
0

> <PUBCHEM_ATOM_UDEF_STEREO_COUNT>
0

> <PUBCHEM_BOND_DEF_STEREO_COUNT>
0

> <PUBCHEM_BOND_UDEF_STEREO_COUNT>
0

> <PUBCHEM_ISOTOPIC_ATOM_COUNT>
0

> <PUBCHEM_COMPONENT_COUNT>
1

> <PUBCHEM_CACTVS_TAUTO_COUNT>
5

> <PUBCHEM_COORDINATE_TYPE>
1
5
255

> <PUBCHEM_BONDANNOTATIONS>
4  11  8
4  9  8
5  12  8
5  9  8
6  11  8
6  12  8

$$$$

