8835
  -OEChem-06261203093D

 42 41  0     1  0  0  0  0  0999 V2000
   -0.6332   -1.9001   -0.2666 O   0  0  0  0  0  0  0  0  0  0  0  0
   -1.7167   -1.0423    1.5809 O   0  0  0  0  0  0  0  0  0  0  0  0
    2.1771   -1.0299   -0.5716 C   0  0  2  0  0  0  0  0  0  0  0  0
    3.2831    0.0259   -0.3394 C   0  0  0  0  0  0  0  0  0  0  0  0
    1.4860   -1.4285    0.7458 C   0  0  0  0  0  0  0  0  0  0  0  0
    2.8441    1.2965    0.4030 C   0  0  0  0  0  0  0  0  0  0  0  0
    2.7941   -2.2474   -1.2717 C   0  0  0  0  0  0  0  0  0  0  0  0
    0.3721   -2.4557    0.5724 C   0  0  0  0  0  0  0  0  0  0  0  0
    1.8025    2.0780   -0.3481 C   0  0  0  0  0  0  0  0  0  0  0  0
    0.5923    2.4850    0.0797 C   0  0  0  0  0  0  0  0  0  0  0  0
   -1.6300   -1.2108    0.3724 C   0  0  0  0  0  0  0  0  0  0  0  0
   -2.6105   -0.6898   -0.6534 C   0  0  0  0  0  0  0  0  0  0  0  0
   -3.7659    0.0695   -0.0057 C   0  0  0  0  0  0  0  0  0  0  0  0
    0.1357    2.1666    1.4793 C   0  0  0  0  0  0  0  0  0  0  0  0
   -0.4033    3.2669   -0.7290 C   0  0  0  0  0  0  0  0  0  0  0  0
   -4.7275    0.6162   -1.0481 C   0  0  0  0  0  0  0  0  0  0  0  0
    1.4310   -0.5983   -1.2503 H   0  0  0  0  0  0  0  0  0  0  0  0
    4.1016   -0.4318    0.2321 H   0  0  0  0  0  0  0  0  0  0  0  0
    3.7124    0.3108   -1.3094 H   0  0  0  0  0  0  0  0  0  0  0  0
    1.0521   -0.5435    1.2168 H   0  0  0  0  0  0  0  0  0  0  0  0
    2.2310   -1.8306    1.4433 H   0  0  0  0  0  0  0  0  0  0  0  0
    3.7246    1.9463    0.4947 H   0  0  0  0  0  0  0  0  0  0  0  0
    2.5741    1.0440    1.4279 H   0  0  0  0  0  0  0  0  0  0  0  0
    3.3715   -1.9381   -2.1499 H   0  0  0  0  0  0  0  0  0  0  0  0
    2.0247   -2.9387   -1.6277 H   0  0  0  0  0  0  0  0  0  0  0  0
    3.4665   -2.7938   -0.6018 H   0  0  0  0  0  0  0  0  0  0  0  0
    0.7342   -3.3770    0.1077 H   0  0  0  0  0  0  0  0  0  0  0  0
   -0.0343   -2.7499    1.5476 H   0  0  0  0  0  0  0  0  0  0  0  0
    2.0859    2.3484   -1.3648 H   0  0  0  0  0  0  0  0  0  0  0  0
   -3.0003   -1.5428   -1.2199 H   0  0  0  0  0  0  0  0  0  0  0  0
   -2.0666   -0.0260   -1.3350 H   0  0  0  0  0  0  0  0  0  0  0  0
   -3.3772    0.8996    0.5965 H   0  0  0  0  0  0  0  0  0  0  0  0
   -4.3097   -0.5913    0.6800 H   0  0  0  0  0  0  0  0  0  0  0  0
   -0.7306    1.4997    1.4426 H   0  0  0  0  0  0  0  0  0  0  0  0
    0.8766    1.7121    2.1348 H   0  0  0  0  0  0  0  0  0  0  0  0
   -0.1799    3.0912    1.9770 H   0  0  0  0  0  0  0  0  0  0  0  0
   -0.0325    3.4651   -1.7399 H   0  0  0  0  0  0  0  0  0  0  0  0
   -0.6114    4.2305   -0.2534 H   0  0  0  0  0  0  0  0  0  0  0  0
   -1.3416    2.7103   -0.8203 H   0  0  0  0  0  0  0  0  0  0  0  0
   -5.1595   -0.1927   -1.6459 H   0  0  0  0  0  0  0  0  0  0  0  0
   -4.2188    1.3105   -1.7246 H   0  0  0  0  0  0  0  0  0  0  0  0
   -5.5471    1.1548   -0.5622 H   0  0  0  0  0  0  0  0  0  0  0  0
  1  8  1  0  0  0  0
  1 11  1  0  0  0  0
  2 11  2  0  0  0  0
  3  4  1  0  0  0  0
  3  5  1  0  0  0  0
  3  7  1  0  0  0  0
  3 17  1  0  0  0  0
  4  6  1  0  0  0  0
  4 18  1  0  0  0  0
  4 19  1  0  0  0  0
  5  8  1  0  0  0  0
  5 20  1  0  0  0  0
  5 21  1  0  0  0  0
  6  9  1  0  0  0  0
  6 22  1  0  0  0  0
  6 23  1  0  0  0  0
  7 24  1  0  0  0  0
  7 25  1  0  0  0  0
  7 26  1  0  0  0  0
  8 27  1  0  0  0  0
  8 28  1  0  0  0  0
  9 10  2  0  0  0  0
  9 29  1  0  0  0  0
 10 14  1  0  0  0  0
 10 15  1  0  0  0  0
 11 12  1  0  0  0  0
 12 13  1  0  0  0  0
 12 30  1  0  0  0  0
 12 31  1  0  0  0  0
 13 16  1  0  0  0  0
 13 32  1  0  0  0  0
 13 33  1  0  0  0  0
 14 34  1  0  0  0  0
 14 35  1  0  0  0  0
 14 36  1  0  0  0  0
 15 37  1  0  0  0  0
 15 38  1  0  0  0  0
 15 39  1  0  0  0  0
 16 40  1  0  0  0  0
 16 41  1  0  0  0  0
 16 42  1  0  0  0  0
M  END
> <PUBCHEM_COMPOUND_CID>
8835

> <PUBCHEM_CONFORMER_RMSD>
1

> <PUBCHEM_CONFORMER_DIVERSEORDER>
2
134
180
39
16
91
164
158
170
95
102
87
28
168
103
25
125
182
127
118
92
20
100
51
17
173
110
181
99
77
145
58
50
151
54
41
6
1
171
191
140
166
120
114
98
153
8
189
78
44
74
45
80
84
161
105
56
40
130
36
192
108
187
3
155
33
82
53
14
148
154
62
172
27
149
176
89
190
184
160
13
69
72
81
174
107
163
117
104
121
177
15
73
122
4
68
34
65
9
90
165
185
75
136
96
12
26
147
142
7
79
21
64
135
76
119
19
169
111
11
61
37
70
144
126
29
138
175
112
60
49
106
42
162
5
124
94
157
97
57
52
47
132
18
93
22
55
128
35
156
71
141
43
32
179
178
48
88
167
59
113
116
38
150
183
123
186
46
115
159
24
101
31
10
66
23
86
146
139
137
83
133
109
30
131
129
67
85
188
152
143
63

> <PUBCHEM_MMFF94_PARTIAL_CHARGES>
11
1 -0.43
10 -0.28
11 0.66
12 0.06
14 0.14
15 0.14
2 -0.57
29 0.15
6 0.14
8 0.28
9 -0.29

> <PUBCHEM_EFFECTIVE_ROTOR_COUNT>
9

> <PUBCHEM_PHARMACOPHORE_FEATURES>
5
1 16 hydrophobe
1 2 acceptor
1 7 hydrophobe
3 10 14 15 hydrophobe
5 3 4 5 6 9 hydrophobe

> <PUBCHEM_HEAVY_ATOM_COUNT>
16

> <PUBCHEM_ATOM_DEF_STEREO_COUNT>
0

> <PUBCHEM_ATOM_UDEF_STEREO_COUNT>
1

> <PUBCHEM_BOND_DEF_STEREO_COUNT>
0

> <PUBCHEM_BOND_UDEF_STEREO_COUNT>
0

> <PUBCHEM_ISOTOPIC_ATOM_COUNT>
0

> <PUBCHEM_COMPONENT_COUNT>
1

> <PUBCHEM_CACTVS_TAUTO_COUNT>
1

> <PUBCHEM_CONFORMER_ID>
0000228300000002

> <PUBCHEM_MMFF94_ENERGY>
13.1356

> <PUBCHEM_FEATURE_SELFOVERLAP>
25.376

> <PUBCHEM_SHAPE_FINGERPRINT>
104564 63 18194394730574881748
116883 192 18264205975376458252
12654215 9 18410856517070048168
14251745 187 18410864239200064289
14251757 17 18198074762097884645
15210252 30 17917424367088541908
17093844 170 18341346551282135173
17357779 13 18263356039955539996
18219364 16 18270670979272773147
20233049 118 18131072649177210206
20606313 2 18409733954041662263
20621476 13 18339085882492768101
23402539 116 18334586741415841358
238 59 17760101622206658631
3014063 31 18267873972126745325
3060560 45 18188217588620190295
3524813 1 18130516300620113413
5939293 188 18339089176763968776
7832392 63 18335988562405332759
81228 2 18193826270505285738

> <PUBCHEM_SHAPE_MULTIPOLES>
317.53
6.17
3.67
1.22
6.23
1.84
-0.2
-0.68
2.2
-1.51
0.12
0.13
-0.05
0.79

> <PUBCHEM_SHAPE_SELFOVERLAP>
591.553

> <PUBCHEM_SHAPE_VOLUME>
199.2

> <PUBCHEM_COORDINATE_TYPE>
2
5
10

$$$$

