4024
  -OEChem-06251223492D

 61 63  0     1  0  0  0  0  0999 V2000
    4.4487   -0.6535    0.0000 N   0  0  0  0  0  0  0  0  0  0  0  0
    5.4196    0.5858    0.0000 N   0  0  0  0  0  0  0  0  0  0  0  0
    3.4782   -2.1480    0.0000 C   0  0  3  0  0  0  0  0  0  0  0  0
    3.5827   -1.1535    0.0000 C   0  0  3  0  0  0  0  0  0  0  0  0
    2.5000   -2.3559    0.0000 C   0  0  0  0  0  0  0  0  0  0  0  0
    2.6691   -0.7467    0.0000 C   0  0  0  0  0  0  0  0  0  0  0  0
    2.0000   -1.4899    0.0000 C   0  0  0  0  0  0  0  0  0  0  0  0
    4.2213   -2.8171    0.0000 C   0  0  0  0  0  0  0  0  0  0  0  0
    4.4487    0.3465    0.0000 C   0  0  0  0  0  0  0  0  0  0  0  0
    3.4778    0.5858    0.0000 C   0  0  0  0  0  0  0  0  0  0  0  0
    4.0134   -3.7953    0.0000 C   0  0  0  0  0  0  0  0  0  0  0  0
    5.1724   -2.5081    0.0000 C   0  0  0  0  0  0  0  0  0  0  0  0
    2.7292    1.2490    0.0000 C   0  0  0  0  0  0  0  0  0  0  0  0
    2.3746    2.1840    0.0000 C   0  0  0  0  0  0  0  0  0  0  0  0
    2.4952    3.1767    0.0000 C   0  0  0  0  0  0  0  0  0  0  0  0
    3.0632    3.9997    0.0000 C   0  0  0  0  0  0  0  0  0  0  0  0
    3.9487    4.4644    0.0000 C   0  0  0  0  0  0  0  0  0  0  0  0
    4.9487    4.4644    0.0000 C   0  0  0  0  0  0  0  0  0  0  0  0
    6.1682    1.2490    0.0000 C   0  0  0  0  0  0  0  0  0  0  0  0
    5.8342    3.9997    0.0000 C   0  0  0  0  0  0  0  0  0  0  0  0
    6.5228    2.1840    0.0000 C   0  0  0  0  0  0  0  0  0  0  0  0
    6.4022    3.1767    0.0000 C   0  0  0  0  0  0  0  0  0  0  0  0
    4.7565   -4.4644    0.0000 C   0  0  0  0  0  0  0  0  0  0  0  0
    5.9155   -3.1772    0.0000 C   0  0  0  0  0  0  0  0  0  0  0  0
    5.7076   -4.1554    0.0000 C   0  0  0  0  0  0  0  0  0  0  0  0
    3.3177   -2.7469    0.0000 H   0  0  0  0  0  0  0  0  0  0  0  0
    4.1026   -1.4912    0.0000 H   0  0  0  0  0  0  0  0  0  0  0  0
    1.9336   -2.6081    0.0000 H   0  0  0  0  0  0  0  0  0  0  0  0
    2.6916   -2.9456    0.0000 H   0  0  0  0  0  0  0  0  0  0  0  0
    2.9791   -0.2098    0.0000 H   0  0  0  0  0  0  0  0  0  0  0  0
    2.1675   -0.3823    0.0000 H   0  0  0  0  0  0  0  0  0  0  0  0
    1.5851   -1.0291    0.0000 H   0  0  0  0  0  0  0  0  0  0  0  0
    1.4984   -1.8543    0.0000 H   0  0  0  0  0  0  0  0  0  0  0  0
    4.9856   -0.9635    0.0000 H   0  0  0  0  0  0  0  0  0  0  0  0
    2.9288    0.2977    0.0000 H   0  0  0  0  0  0  0  0  0  0  0  0
    3.7659    1.1348    0.0000 H   0  0  0  0  0  0  0  0  0  0  0  0
    3.4237   -3.9869    0.0000 H   0  0  0  0  0  0  0  0  0  0  0  0
    5.3012   -1.9016    0.0000 H   0  0  0  0  0  0  0  0  0  0  0  0
    2.1092    1.2490    0.0000 H   0  0  0  0  0  0  0  0  0  0  0  0
    3.2395    1.6012    0.0000 H   0  0  0  0  0  0  0  0  0  0  0  0
    1.8257    2.4721    0.0000 H   0  0  0  0  0  0  0  0  0  0  0  0
    2.9901    2.2587    0.0000 H   0  0  0  0  0  0  0  0  0  0  0  0
    2.1430    3.6869    0.0000 H   0  0  0  0  0  0  0  0  0  0  0  0
    3.0749    2.9568    0.0000 H   0  0  0  0  0  0  0  0  0  0  0  0
    2.9885    4.6152    0.0000 H   0  0  0  0  0  0  0  0  0  0  0  0
    3.4744    3.5356    0.0000 H   0  0  0  0  0  0  0  0  0  0  0  0
    4.1686    5.0441    0.0000 H   0  0  0  0  0  0  0  0  0  0  0  0
    4.0971    3.8624    0.0000 H   0  0  0  0  0  0  0  0  0  0  0  0
    5.4128    4.8755    0.0000 H   0  0  0  0  0  0  0  0  0  0  0  0
    4.8003    3.8624    0.0000 H   0  0  0  0  0  0  0  0  0  0  0  0
    6.3880    0.6693    0.0000 H   0  0  0  0  0  0  0  0  0  0  0  0
    5.6579    1.6012    0.0000 H   0  0  0  0  0  0  0  0  0  0  0  0
    6.4361    4.1480    0.0000 H   0  0  0  0  0  0  0  0  0  0  0  0
    5.4230    3.5356    0.0000 H   0  0  0  0  0  0  0  0  0  0  0  0
    7.0042    3.0283    0.0000 H   0  0  0  0  0  0  0  0  0  0  0  0
    5.8225    2.9568    0.0000 H   0  0  0  0  0  0  0  0  0  0  0  0
    6.9868    1.7728    0.0000 H   0  0  0  0  0  0  0  0  0  0  0  0
    5.9073    2.2587    0.0000 H   0  0  0  0  0  0  0  0  0  0  0  0
    4.6276   -5.0708    0.0000 H   0  0  0  0  0  0  0  0  0  0  0  0
    6.5052   -2.9856    0.0000 H   0  0  0  0  0  0  0  0  0  0  0  0
    6.1683   -4.5702    0.0000 H   0  0  0  0  0  0  0  0  0  0  0  0
  1  4  1  0  0  0  0
  1  9  1  0  0  0  0
  1 34  1  0  0  0  0
  2  9  2  0  0  0  0
  2 19  1  0  0  0  0
  3  4  1  0  0  0  0
  3  5  1  0  0  0  0
  3  8  1  0  0  0  0
  3 26  1  0  0  0  0
  4  6  1  0  0  0  0
  4 27  1  0  0  0  0
  5  7  1  0  0  0  0
  5 28  1  0  0  0  0
  5 29  1  0  0  0  0
  6  7  1  0  0  0  0
  6 30  1  0  0  0  0
  6 31  1  0  0  0  0
  7 32  1  0  0  0  0
  7 33  1  0  0  0  0
  8 11  2  0  0  0  0
  8 12  1  0  0  0  0
  9 10  1  0  0  0  0
 10 13  1  0  0  0  0
 10 35  1  0  0  0  0
 10 36  1  0  0  0  0
 11 23  1  0  0  0  0
 11 37  1  0  0  0  0
 12 24  2  0  0  0  0
 12 38  1  0  0  0  0
 13 14  1  0  0  0  0
 13 39  1  0  0  0  0
 13 40  1  0  0  0  0
 14 15  1  0  0  0  0
 14 41  1  0  0  0  0
 14 42  1  0  0  0  0
 15 16  1  0  0  0  0
 15 43  1  0  0  0  0
 15 44  1  0  0  0  0
 16 17  1  0  0  0  0
 16 45  1  0  0  0  0
 16 46  1  0  0  0  0
 17 18  1  0  0  0  0
 17 47  1  0  0  0  0
 17 48  1  0  0  0  0
 18 20  1  0  0  0  0
 18 49  1  0  0  0  0
 18 50  1  0  0  0  0
 19 21  1  0  0  0  0
 19 51  1  0  0  0  0
 19 52  1  0  0  0  0
 20 22  1  0  0  0  0
 20 53  1  0  0  0  0
 20 54  1  0  0  0  0
 21 22  1  0  0  0  0
 21 57  1  0  0  0  0
 21 58  1  0  0  0  0
 22 55  1  0  0  0  0
 22 56  1  0  0  0  0
 23 25  2  0  0  0  0
 23 59  1  0  0  0  0
 24 25  1  0  0  0  0
 24 60  1  0  0  0  0
 25 61  1  0  0  0  0
M  END
> <PUBCHEM_COMPOUND_CID>
4024

> <PUBCHEM_COMPOUND_CANONICALIZED>
1

> <PUBCHEM_CACTVS_COMPLEXITY>
384

> <PUBCHEM_CACTVS_HBOND_ACCEPTOR>
1

> <PUBCHEM_CACTVS_HBOND_DONOR>
1

> <PUBCHEM_CACTVS_ROTATABLE_BOND>
3

> <PUBCHEM_CACTVS_SUBSKEYS>
AAADcfB7AAAAAAAAAAAAAAAAAAAAAYAAAAAwAAAAAAAAAAABAAAAHAAQAAAADSjBGAQxAILAAACgAiJiJAACAAEgAAAJiIA4AIgIICKAmRGEIAAgkACIiAcQgMAOgAAAAAAAAAAAAAAAAAAAAAAAAQAAAA==

> <PUBCHEM_IUPAC_OPENEYE_NAME>
N-(2-phenylcyclopentyl)-1-azacyclotridecen-2-amine

> <PUBCHEM_IUPAC_CAS_NAME>
N-(2-phenylcyclopentyl)-1-azacyclotridecen-2-amine

> <PUBCHEM_IUPAC_NAME>
N-(2-phenylcyclopentyl)-1-azacyclotridecen-2-amine

> <PUBCHEM_IUPAC_SYSTEMATIC_NAME>
N-(2-phenylcyclopentyl)-1-azacyclotridecen-2-amine

> <PUBCHEM_IUPAC_TRADITIONAL_NAME>
1-azacyclotridecen-2-yl-(2-phenylcyclopentyl)amine

> <PUBCHEM_IUPAC_INCHI>
InChI=1S/C23H36N2/c1-2-4-6-11-18-23(24-19-12-7-5-3-1)25-22-17-13-16-21(22)20-14-9-8-10-15-20/h8-10,14-15,21-22H,1-7,11-13,16-19H2,(H,24,25)

> <PUBCHEM_IUPAC_INCHIKEY>
RTRIXVOSRYRSBP-UHFFFAOYSA-N

> <PUBCHEM_XLOGP3_AA>
6.1

> <PUBCHEM_EXACT_MASS>
340.287849

> <PUBCHEM_MOLECULAR_FORMULA>
C23H36N2

> <PUBCHEM_MOLECULAR_WEIGHT>
340.54534

> <PUBCHEM_OPENEYE_CAN_SMILES>
C1CCCCCC(=NCCCCC1)NC2CCCC2C3=CC=CC=C3

> <PUBCHEM_OPENEYE_ISO_SMILES>
C1CCCCCC(=NCCCCC1)NC2CCCC2C3=CC=CC=C3

> <PUBCHEM_CACTVS_TPSA>
24.4

> <PUBCHEM_MONOISOTOPIC_WEIGHT>
340.287849

> <PUBCHEM_TOTAL_CHARGE>
0

> <PUBCHEM_HEAVY_ATOM_COUNT>
25

> <PUBCHEM_ATOM_DEF_STEREO_COUNT>
0

> <PUBCHEM_ATOM_UDEF_STEREO_COUNT>
2

> <PUBCHEM_BOND_DEF_STEREO_COUNT>
0

> <PUBCHEM_BOND_UDEF_STEREO_COUNT>
0

> <PUBCHEM_ISOTOPIC_ATOM_COUNT>
0

> <PUBCHEM_COMPONENT_COUNT>
1

> <PUBCHEM_CACTVS_TAUTO_COUNT>
2

> <PUBCHEM_COORDINATE_TYPE>
1
5
255

> <PUBCHEM_BONDANNOTATIONS>
4  1  3
11  23  8
12  24  8
23  25  8
24  25  8
3  8  3
8  11  8
8  12  8

$$$$

