4231
  -OEChem-06251223582D

 89 96  0     0  0  0  0  0  0999 V2000
    7.5605   -0.0421    0.0000 Mn  0  1  0  0  0  0  0  0  0  0  0  0
    3.2926    5.4501    0.0000 O   0  0  0  0  0  0  0  0  0  0  0  0
    3.1747   -5.3428    0.0000 O   0  0  0  0  0  0  0  0  0  0  0  0
    2.0678    4.2254    0.0000 O   0  0  0  0  0  0  0  0  0  0  0  0
    2.0000   -4.0699    0.0000 O   0  0  0  0  0  0  0  0  0  0  0  0
   12.9662    4.4067    0.0000 O   0  0  0  0  0  0  0  0  0  0  0  0
   11.9014   -5.4500    0.0000 O   0  0  0  0  0  0  0  0  0  0  0  0
   11.6834    5.5705    0.0000 O   0  0  0  0  0  0  0  0  0  0  0  0
   13.1267   -4.2257    0.0000 O   0  0  0  0  0  0  0  0  0  0  0  0
    6.1506   -0.0154    0.0000 N   0  0  0  0  0  0  0  0  0  0  0  0
    7.5656    1.3028    0.0000 N   0  5  0  0  0  0  0  0  0  0  0  0
    7.5978   -1.3337    0.0000 N   0  5  0  0  0  0  0  0  0  0  0  0
    9.0434   -0.0154    0.0000 N   0  0  0  0  0  0  0  0  0  0  0  0
    5.6043    0.7242    0.0000 C   0  0  0  0  0  0  0  0  0  0  0  0
    5.6043   -0.7552    0.0000 C   0  0  0  0  0  0  0  0  0  0  0  0
    6.7936    1.9136    0.0000 C   0  0  0  0  0  0  0  0  0  0  0  0
    6.8258   -1.9446    0.0000 C   0  0  0  0  0  0  0  0  0  0  0  0
    5.8622    1.6558    0.0000 C   0  0  0  0  0  0  0  0  0  0  0  0
    5.8943   -1.6545    0.0000 C   0  0  0  0  0  0  0  0  0  0  0  0
    8.3697    1.9459    0.0000 C   0  0  0  0  0  0  0  0  0  0  0  0
    8.3697   -1.9123    0.0000 C   0  0  0  0  0  0  0  0  0  0  0  0
    4.6728    0.4664    0.0000 C   0  0  0  0  0  0  0  0  0  0  0  0
    4.6728   -0.4973    0.0000 C   0  0  0  0  0  0  0  0  0  0  0  0
    7.0837    2.8451    0.0000 C   0  0  0  0  0  0  0  0  0  0  0  0
    7.1159   -2.8438    0.0000 C   0  0  0  0  0  0  0  0  0  0  0  0
    8.0475    2.8451    0.0000 C   0  0  0  0  0  0  0  0  0  0  0  0
    8.0797   -2.8438    0.0000 C   0  0  0  0  0  0  0  0  0  0  0  0
    9.3012    1.6558    0.0000 C   0  0  0  0  0  0  0  0  0  0  0  0
    9.3334   -1.6545    0.0000 C   0  0  0  0  0  0  0  0  0  0  0  0
    5.1551    2.3629    0.0000 C   0  0  0  0  0  0  0  0  0  0  0  0
    5.1594   -2.3327    0.0000 C   0  0  0  0  0  0  0  0  0  0  0  0
    9.5897    0.7564    0.0000 C   0  0  0  0  0  0  0  0  0  0  0  0
    9.6219   -0.7229    0.0000 C   0  0  0  0  0  0  0  0  0  0  0  0
    9.9731    2.3964    0.0000 C   0  0  0  0  0  0  0  0  0  0  0  0
   10.0402   -2.3619    0.0000 C   0  0  0  0  0  0  0  0  0  0  0  0
    5.4139    3.3288    0.0000 C   0  0  0  0  0  0  0  0  0  0  0  0
    4.1891    2.1041    0.0000 C   0  0  0  0  0  0  0  0  0  0  0  0
    4.2047   -2.0354    0.0000 C   0  0  0  0  0  0  0  0  0  0  0  0
    5.3793   -3.3082    0.0000 C   0  0  0  0  0  0  0  0  0  0  0  0
   10.5227    0.4985    0.0000 C   0  0  0  0  0  0  0  0  0  0  0  0
   10.5227   -0.4651    0.0000 C   0  0  0  0  0  0  0  0  0  0  0  0
    4.7068    4.0359    0.0000 C   0  0  0  0  0  0  0  0  0  0  0  0
    3.4820    2.8112    0.0000 C   0  0  0  0  0  0  0  0  0  0  0  0
    3.4698   -2.7136    0.0000 C   0  0  0  0  0  0  0  0  0  0  0  0
    4.6444   -3.9864    0.0000 C   0  0  0  0  0  0  0  0  0  0  0  0
   10.9505    2.1848    0.0000 C   0  0  0  0  0  0  0  0  0  0  0  0
    9.6677    3.3486    0.0000 C   0  0  0  0  0  0  0  0  0  0  0  0
    9.7810   -3.3277    0.0000 C   0  0  0  0  0  0  0  0  0  0  0  0
   11.0063   -2.1035    0.0000 C   0  0  0  0  0  0  0  0  0  0  0  0
    3.7409    3.7771    0.0000 C   0  0  0  0  0  0  0  0  0  0  0  0
    3.6897   -3.6891    0.0000 C   0  0  0  0  0  0  0  0  0  0  0  0
   11.6224    2.9254    0.0000 C   0  0  0  0  0  0  0  0  0  0  0  0
   10.3396    4.0892    0.0000 C   0  0  0  0  0  0  0  0  0  0  0  0
   10.4878   -4.0351    0.0000 C   0  0  0  0  0  0  0  0  0  0  0  0
   11.7131   -2.8109    0.0000 C   0  0  0  0  0  0  0  0  0  0  0  0
   11.3169    3.8777    0.0000 C   0  0  0  0  0  0  0  0  0  0  0  0
   11.4538   -3.7767    0.0000 C   0  0  0  0  0  0  0  0  0  0  0  0
    3.0338    4.4842    0.0000 C   0  0  0  0  0  0  0  0  0  0  0  0
    2.9548   -4.3673    0.0000 C   0  0  0  0  0  0  0  0  0  0  0  0
   11.9889    4.6183    0.0000 C   0  0  0  0  0  0  0  0  0  0  0  0
   12.1606   -4.4841    0.0000 C   0  0  0  0  0  0  0  0  0  0  0  0
    4.1793    0.8418    0.0000 H   0  0  0  0  0  0  0  0  0  0  0  0
    4.1793   -0.8726    0.0000 H   0  0  0  0  0  0  0  0  0  0  0  0
    6.7163    3.3445    0.0000 H   0  0  0  0  0  0  0  0  0  0  0  0
    6.7509   -3.3450    0.0000 H   0  0  0  0  0  0  0  0  0  0  0  0
    8.4043    3.3521    0.0000 H   0  0  0  0  0  0  0  0  0  0  0  0
    8.4472   -3.3432    0.0000 H   0  0  0  0  0  0  0  0  0  0  0  0
    6.0128    3.4893    0.0000 H   0  0  0  0  0  0  0  0  0  0  0  0
    4.0287    1.5052    0.0000 H   0  0  0  0  0  0  0  0  0  0  0  0
    4.0683   -1.4305    0.0000 H   0  0  0  0  0  0  0  0  0  0  0  0
    5.9713   -3.4926    0.0000 H   0  0  0  0  0  0  0  0  0  0  0  0
   11.0161    0.8740    0.0000 H   0  0  0  0  0  0  0  0  0  0  0  0
   11.0178   -0.8384    0.0000 H   0  0  0  0  0  0  0  0  0  0  0  0
    4.8673    4.6348    0.0000 H   0  0  0  0  0  0  0  0  0  0  0  0
    2.8832    2.6507    0.0000 H   0  0  0  0  0  0  0  0  0  0  0  0
    2.8778   -2.5292    0.0000 H   0  0  0  0  0  0  0  0  0  0  0  0
    4.7808   -4.5912    0.0000 H   0  0  0  0  0  0  0  0  0  0  0  0
   11.1398    1.5944    0.0000 H   0  0  0  0  0  0  0  0  0  0  0  0
    9.0617    3.4798    0.0000 H   0  0  0  0  0  0  0  0  0  0  0  0
    9.1821   -3.4880    0.0000 H   0  0  0  0  0  0  0  0  0  0  0  0
   11.1670   -1.5047    0.0000 H   0  0  0  0  0  0  0  0  0  0  0  0
   12.2283    2.7943    0.0000 H   0  0  0  0  0  0  0  0  0  0  0  0
   10.1502    4.6796    0.0000 H   0  0  0  0  0  0  0  0  0  0  0  0
   10.3271   -4.6339    0.0000 H   0  0  0  0  0  0  0  0  0  0  0  0
   12.3120   -2.6507    0.0000 H   0  0  0  0  0  0  0  0  0  0  0  0
    2.8542    5.8886    0.0000 H   0  0  0  0  0  0  0  0  0  0  0  0
    2.7190   -5.7633    0.0000 H   0  0  0  0  0  0  0  0  0  0  0  0
   13.3828    4.8659    0.0000 H   0  0  0  0  0  0  0  0  0  0  0  0
   12.3396   -5.8886    0.0000 H   0  0  0  0  0  0  0  0  0  0  0  0
  2 58  1  0  0  0  0
  2 86  1  0  0  0  0
  3 59  1  0  0  0  0
  3 87  1  0  0  0  0
  4 58  2  0  0  0  0
  5 59  2  0  0  0  0
  6 60  1  0  0  0  0
  6 88  1  0  0  0  0
  7 61  1  0  0  0  0
  7 89  1  0  0  0  0
  8 60  2  0  0  0  0
  9 61  2  0  0  0  0
 10 14  2  0  0  0  0
 10 15  1  0  0  0  0
 11 16  1  0  0  0  0
 11 20  1  0  0  0  0
 12 17  1  0  0  0  0
 12 21  1  0  0  0  0
 13 32  2  0  0  0  0
 13 33  1  0  0  0  0
 14 18  1  0  0  0  0
 14 22  1  0  0  0  0
 15 19  2  0  0  0  0
 15 23  1  0  0  0  0
 16 18  2  0  0  0  0
 16 24  1  0  0  0  0
 17 19  1  0  0  0  0
 17 25  2  0  0  0  0
 18 30  1  0  0  0  0
 19 31  1  0  0  0  0
 20 26  1  0  0  0  0
 20 28  2  0  0  0  0
 21 27  2  0  0  0  0
 21 29  1  0  0  0  0
 22 23  2  0  0  0  0
 22 62  1  0  0  0  0
 23 63  1  0  0  0  0
 24 26  2  0  0  0  0
 24 64  1  0  0  0  0
 25 27  1  0  0  0  0
 25 65  1  0  0  0  0
 26 66  1  0  0  0  0
 27 67  1  0  0  0  0
 28 32  1  0  0  0  0
 28 34  1  0  0  0  0
 29 33  2  0  0  0  0
 29 35  1  0  0  0  0
 30 36  2  0  0  0  0
 30 37  1  0  0  0  0
 31 38  2  0  0  0  0
 31 39  1  0  0  0  0
 32 40  1  0  0  0  0
 33 41  1  0  0  0  0
 34 46  2  0  0  0  0
 34 47  1  0  0  0  0
 35 48  2  0  0  0  0
 35 49  1  0  0  0  0
 36 42  1  0  0  0  0
 36 68  1  0  0  0  0
 37 43  2  0  0  0  0
 37 69  1  0  0  0  0
 38 44  1  0  0  0  0
 38 70  1  0  0  0  0
 39 45  2  0  0  0  0
 39 71  1  0  0  0  0
 40 41  2  0  0  0  0
 40 72  1  0  0  0  0
 41 73  1  0  0  0  0
 42 50  2  0  0  0  0
 42 74  1  0  0  0  0
 43 50  1  0  0  0  0
 43 75  1  0  0  0  0
 44 51  2  0  0  0  0
 44 76  1  0  0  0  0
 45 51  1  0  0  0  0
 45 77  1  0  0  0  0
 46 52  1  0  0  0  0
 46 78  1  0  0  0  0
 47 53  2  0  0  0  0
 47 79  1  0  0  0  0
 48 54  1  0  0  0  0
 48 80  1  0  0  0  0
 49 55  2  0  0  0  0
 49 81  1  0  0  0  0
 50 58  1  0  0  0  0
 51 59  1  0  0  0  0
 52 56  2  0  0  0  0
 52 82  1  0  0  0  0
 53 56  1  0  0  0  0
 53 83  1  0  0  0  0
 54 57  2  0  0  0  0
 54 84  1  0  0  0  0
 55 57  1  0  0  0  0
 55 85  1  0  0  0  0
 56 60  1  0  0  0  0
 57 61  1  0  0  0  0
M  CHG  3   1   3  11  -1  12  -1
M  END
> <PUBCHEM_COMPOUND_CID>
4231

> <PUBCHEM_COMPOUND_CANONICALIZED>
1

> <PUBCHEM_CACTVS_COMPLEXITY>
1970

> <PUBCHEM_CACTVS_HBOND_ACCEPTOR>
12

> <PUBCHEM_CACTVS_HBOND_DONOR>
4

> <PUBCHEM_CACTVS_ROTATABLE_BOND>
8

> <PUBCHEM_CACTVS_SUBSKEYS>
AAADceB/vAAAAABAAAAAAAAAAAAAAWIECAAwYMGCAAAAAECB1AAAHgAACAAADAiBngAwiJIIEgCoAyTyTACCgCAlAiAImCEwbNgIJvLAlZGEcQhkwAHI2YeYyPCOQAAAAAAAAACAAAAAAAAAAAAAAAAAAA==

> <PUBCHEM_IUPAC_OPENEYE_NAME>
manganic 4-[10,15,20-tris(4-carboxyphenyl)porphyrin-22,24-diid-5-yl]benzoic acid

> <PUBCHEM_IUPAC_CAS_NAME>
manganese(3+); 4-[10,15,20-tris(4-carboxyphenyl)-5-porphyrin-22,24-diidyl]benzoic acid

> <PUBCHEM_IUPAC_NAME>
manganese(3+); 4-[10,15,20-tris(4-carboxyphenyl)porphyrin-22,24-diid-5-yl]benzoic acid

> <PUBCHEM_IUPAC_SYSTEMATIC_NAME>
manganese(3+); 4-[10,15,20-tris(4-carboxyphenyl)porphyrin-22,24-diid-5-yl]benzoic acid

> <PUBCHEM_IUPAC_TRADITIONAL_NAME>
manganic 4-[10,15,20-tris(4-carboxyphenyl)porphine-22,24-diid-5-yl]benzoic acid

> <PUBCHEM_IUPAC_INCHI>
InChI=1S/C48H30N4O8.Mn/c53-45(54)29-9-1-25(2-10-29)41-33-17-19-35(49-33)42(26-3-11-30(12-4-26)46(55)56)37-21-23-39(51-37)44(28-7-15-32(16-8-28)48(59)60)40-24-22-38(52-40)43(36-20-18-34(41)50-36)27-5-13-31(14-6-27)47(57)58;/h1-24H,(H6,49,50,51,52,53,54,55,56,57,58,59,60);/q;+3/p-2

> <PUBCHEM_IUPAC_INCHIKEY>
OAWZTKNCHQQRKF-UHFFFAOYSA-L

> <PUBCHEM_EXACT_MASS>
843.128759

> <PUBCHEM_MOLECULAR_FORMULA>
C48H28MnN4O8+

> <PUBCHEM_MOLECULAR_WEIGHT>
843.695965

> <PUBCHEM_OPENEYE_CAN_SMILES>
C1=CC(=CC=C1C2=C3C=CC(=C(C4=NC(=C(C5=CC=C([N-]5)C(=C6C=CC2=N6)C7=CC=C(C=C7)C(=O)O)C8=CC=C(C=C8)C(=O)O)C=C4)C9=CC=C(C=C9)C(=O)O)[N-]3)C(=O)O.[Mn+3]

> <PUBCHEM_OPENEYE_ISO_SMILES>
C1=CC(=CC=C1C2=C3C=CC(=C(C4=NC(=C(C5=CC=C([N-]5)C(=C6C=CC2=N6)C7=CC=C(C=C7)C(=O)O)C8=CC=C(C=C8)C(=O)O)C=C4)C9=CC=C(C=C9)C(=O)O)[N-]3)C(=O)O.[Mn+3]

> <PUBCHEM_CACTVS_TPSA>
176

> <PUBCHEM_MONOISOTOPIC_WEIGHT>
843.128759

> <PUBCHEM_TOTAL_CHARGE>
1

> <PUBCHEM_HEAVY_ATOM_COUNT>
61

> <PUBCHEM_ATOM_DEF_STEREO_COUNT>
0

> <PUBCHEM_ATOM_UDEF_STEREO_COUNT>
0

> <PUBCHEM_BOND_DEF_STEREO_COUNT>
0

> <PUBCHEM_BOND_UDEF_STEREO_COUNT>
0

> <PUBCHEM_ISOTOPIC_ATOM_COUNT>
0

> <PUBCHEM_COMPONENT_COUNT>
2

> <PUBCHEM_CACTVS_TAUTO_COUNT>
1

> <PUBCHEM_NONSTANDARDBOND>
1  10  6
1  11  6
1  12  6

> <PUBCHEM_COORDINATE_TYPE>
1
5
255

> <PUBCHEM_BONDANNOTATIONS>
10  14  8
10  15  8
11  16  8
11  20  8
12  17  8
12  21  8
13  32  8
13  33  8
14  18  8
15  19  8
16  18  8
16  24  8
17  19  8
17  25  8
20  26  8
20  28  8
21  27  8
21  29  8
24  26  8
25  27  8
28  32  8
29  33  8
30  36  8
30  37  8
31  38  8
31  39  8
34  46  8
34  47  8
35  48  8
35  49  8
36  42  8
37  43  8
38  44  8
39  45  8
42  50  8
43  50  8
44  51  8
45  51  8
46  52  8
47  53  8
48  54  8
49  55  8
52  56  8
53  56  8
54  57  8
55  57  8

$$$$

