17395365
  -OEChem-06241222493D

 40 43  0     0  0  0  0  0  0999 V2000
    1.9922    3.2324    0.0794 S   0  0  0  0  0  0  0  0  0  0  0  0
   -2.4728    1.4694    1.7707 O   0  0  0  0  0  0  0  0  0  0  0  0
   -3.0887   -2.8412    0.0234 O   0  0  0  0  0  0  0  0  0  0  0  0
    1.7813    0.7308    1.2257 O   0  0  0  0  0  0  0  0  0  0  0  0
   -0.8826    2.0081   -0.7053 N   0  0  0  0  0  0  0  0  0  0  0  0
   -1.8308   -1.3251   -1.2147 N   0  0  0  0  0  0  0  0  0  0  0  0
   -2.7952   -0.6956    0.9159 N   0  0  0  0  0  0  0  0  0  0  0  0
   -0.5543    0.4804   -2.2954 N   0  0  0  0  0  0  0  0  0  0  0  0
    2.9400    0.7974   -0.7209 N   0  0  0  0  0  0  0  0  0  0  0  0
   -1.5330    0.8809   -0.2923 C   0  0  0  0  0  0  0  0  0  0  0  0
   -1.3161   -0.0378   -1.2827 C   0  0  0  0  0  0  0  0  0  0  0  0
   -0.7979    3.2752   -0.0193 C   0  0  0  0  0  0  0  0  0  0  0  0
   -2.2903    0.6317    0.8915 C   0  0  0  0  0  0  0  0  0  0  0  0
   -0.3089    1.7176   -1.9162 C   0  0  0  0  0  0  0  0  0  0  0  0
   -2.6050   -1.7093   -0.0914 C   0  0  0  0  0  0  0  0  0  0  0  0
    0.3936    3.3994    0.9302 C   0  0  0  0  0  0  0  0  0  0  0  0
   -1.5769   -2.2750   -2.2909 C   0  0  0  0  0  0  0  0  0  0  0  0
   -3.5887   -1.0721    2.0813 C   0  0  0  0  0  0  0  0  0  0  0  0
    2.2652    1.4678    0.1870 C   0  0  0  0  0  0  0  0  0  0  0  0
    2.1976   -0.5379    0.9403 C   0  0  0  0  0  0  0  0  0  0  0  0
    2.9060   -0.4933   -0.2514 C   0  0  0  0  0  0  0  0  0  0  0  0
    1.9714   -1.6893    1.6842 C   0  0  0  0  0  0  0  0  0  0  0  0
    3.4435   -1.6822   -0.7652 C   0  0  0  0  0  0  0  0  0  0  0  0
    2.5142   -2.8665    1.1581 C   0  0  0  0  0  0  0  0  0  0  0  0
    3.2360   -2.8657   -0.0420 C   0  0  0  0  0  0  0  0  0  0  0  0
   -0.7533    4.0579   -0.7878 H   0  0  0  0  0  0  0  0  0  0  0  0
   -1.7355    3.4422    0.5197 H   0  0  0  0  0  0  0  0  0  0  0  0
    0.2619    2.4421   -2.4810 H   0  0  0  0  0  0  0  0  0  0  0  0
    0.3737    4.3971    1.3822 H   0  0  0  0  0  0  0  0  0  0  0  0
    0.3151    2.6823    1.7532 H   0  0  0  0  0  0  0  0  0  0  0  0
   -0.4965   -2.4224   -2.3854 H   0  0  0  0  0  0  0  0  0  0  0  0
   -1.9766   -1.8686   -3.2251 H   0  0  0  0  0  0  0  0  0  0  0  0
   -2.0487   -3.2414   -2.0962 H   0  0  0  0  0  0  0  0  0  0  0  0
   -4.5790   -1.3917    1.7414 H   0  0  0  0  0  0  0  0  0  0  0  0
   -3.6999   -0.2575    2.8002 H   0  0  0  0  0  0  0  0  0  0  0  0
   -3.1051   -1.9230    2.5718 H   0  0  0  0  0  0  0  0  0  0  0  0
    1.4105   -1.6792    2.6104 H   0  0  0  0  0  0  0  0  0  0  0  0
    4.0039   -1.6931   -1.6942 H   0  0  0  0  0  0  0  0  0  0  0  0
    2.3717   -3.8027    1.6926 H   0  0  0  0  0  0  0  0  0  0  0  0
    3.6430   -3.7998   -0.4211 H   0  0  0  0  0  0  0  0  0  0  0  0
  1 16  1  0  0  0  0
  1 19  1  0  0  0  0
  2 13  2  0  0  0  0
  3 15  2  0  0  0  0
  4 19  1  0  0  0  0
  4 20  1  0  0  0  0
  5 10  1  0  0  0  0
  5 12  1  0  0  0  0
  5 14  1  0  0  0  0
  6 11  1  0  0  0  0
  6 15  1  0  0  0  0
  6 17  1  0  0  0  0
  7 13  1  0  0  0  0
  7 15  1  0  0  0  0
  7 18  1  0  0  0  0
  8 11  1  0  0  0  0
  8 14  2  0  0  0  0
  9 19  2  0  0  0  0
  9 21  1  0  0  0  0
 10 11  2  0  0  0  0
 10 13  1  0  0  0  0
 12 16  1  0  0  0  0
 12 26  1  0  0  0  0
 12 27  1  0  0  0  0
 14 28  1  0  0  0  0
 16 29  1  0  0  0  0
 16 30  1  0  0  0  0
 17 31  1  0  0  0  0
 17 32  1  0  0  0  0
 17 33  1  0  0  0  0
 18 34  1  0  0  0  0
 18 35  1  0  0  0  0
 18 36  1  0  0  0  0
 20 21  1  0  0  0  0
 20 22  2  0  0  0  0
 21 23  2  0  0  0  0
 22 24  1  0  0  0  0
 22 37  1  0  0  0  0
 23 25  1  0  0  0  0
 23 38  1  0  0  0  0
 24 25  2  0  0  0  0
 24 39  1  0  0  0  0
 25 40  1  0  0  0  0
M  END
> <PUBCHEM_COMPOUND_CID>
17395365

> <PUBCHEM_CONFORMER_RMSD>
0.8

> <PUBCHEM_CONFORMER_DIVERSEORDER>
2
41
96
32
120
70
103
101
37
55
124
79
72
5
84
7
97
34
43
88
13
95
107
59
33
44
9
65
126
112
99
91
63
105
38
110
54
86
73
52
102
89
69
29
6
12
104
82
45
20
50
87
90
30
3
17
66
49
123
94
25
39
31
8
77
19
28
98
36
1
47
92
42
106
23
74
68
21
78
115
4
108
125
48
75
11
100
127
76
111
85
117
83
93
109
80
16
62
118
113
46
114
57
128
58
10
81
129
64
35
119
53
60
26
71
27
67
121
22
18
61
40
24
122
51
14
15
116
56

> <PUBCHEM_MMFF94_PARTIAL_CHARGES>
30
1 -0.29
10 -0.24
11 0.29
12 0.26
13 0.71
14 0.04
15 0.69
16 0.23
17 0.3
18 0.3
19 0.53
2 -0.57
20 0.14
21 0.23
22 -0.15
23 -0.15
24 -0.15
25 -0.15
28 0.15
3 -0.57
37 0.15
38 0.15
39 0.15
4 -0.28
40 0.15
5 0.05
6 -0.42
7 -0.42
8 -0.57
9 -0.57

> <PUBCHEM_EFFECTIVE_ROTOR_COUNT>
4

> <PUBCHEM_PHARMACOPHORE_FEATURES>
7
1 2 acceptor
1 3 acceptor
3 5 8 14 cation
5 4 9 19 20 21 rings
5 5 8 10 11 14 rings
6 20 21 22 23 24 25 rings
6 6 7 10 11 13 15 rings

> <PUBCHEM_HEAVY_ATOM_COUNT>
25

> <PUBCHEM_ATOM_DEF_STEREO_COUNT>
0

> <PUBCHEM_ATOM_UDEF_STEREO_COUNT>
0

> <PUBCHEM_BOND_DEF_STEREO_COUNT>
0

> <PUBCHEM_BOND_UDEF_STEREO_COUNT>
0

> <PUBCHEM_ISOTOPIC_ATOM_COUNT>
0

> <PUBCHEM_COMPONENT_COUNT>
1

> <PUBCHEM_CACTVS_TAUTO_COUNT>
1

> <PUBCHEM_CONFORMER_ID>
01096EA500000002

> <PUBCHEM_MMFF94_ENERGY>
40.0217

> <PUBCHEM_FEATURE_SELFOVERLAP>
35.753

> <PUBCHEM_SHAPE_FINGERPRINT>
10064457 181 16971396535450911997
107951 10 16751547587865272710
12156800 1 16817645674150996978
12553582 1 18410295847696918266
12633257 1 17976524324193573969
128993 33 18186523215384348026
13583140 156 17978502045644616531
14251757 17 17766044658975677247
15209289 33 17902510389980736624
17138139 8 15735743321873297327
17349148 13 17603858967633197903
17492 54 15838423625099649662
21731516 1 18411423937973531432
23728640 28 17542249177136027530
238 59 17694257419801005238
2818148 4 18337378418407442278
35225 105 17697879524667056111
445580 42 17694796507306922922
6287921 2 18122892145312337082
7097593 13 18261661576578587241
90525 40 17689156038262211312

> <PUBCHEM_SHAPE_MULTIPOLES>
475.82
5.66
4.3
1.99
1.07
1.7
-0.39
-4.26
1.59
0.88
0.28
-1.16
-0.58
-0.39

> <PUBCHEM_SHAPE_SELFOVERLAP>
1033.66

> <PUBCHEM_SHAPE_VOLUME>
264.4

> <PUBCHEM_COORDINATE_TYPE>
2
5
10

$$$$

