4099
  -OEChem-06251223533D

 28 28  0     0  0  0  0  0  0999 V2000
   -0.3257    1.9784   -0.9941 O   0  0  0  0  0  0  0  0  0  0  0  0
   -1.1882   -2.4363    0.1074 O   0  0  0  0  0  0  0  0  0  0  0  0
    3.1198   -0.8949    0.2146 O   0  0  0  0  0  0  0  0  0  0  0  0
    1.4277    0.6521   -0.2283 N   0  0  0  0  0  0  0  0  0  0  0  0
    0.9531   -1.6208    0.2184 N   0  0  0  0  0  0  0  0  0  0  0  0
   -0.8994   -0.0327    0.2117 C   0  0  0  0  0  0  0  0  0  0  0  0
   -1.0377    0.3412    1.6987 C   0  0  0  0  0  0  0  0  0  0  0  0
   -2.2751    0.0809   -0.4639 C   0  0  0  0  0  0  0  0  0  0  0  0
    0.0718    0.9632   -0.4196 C   0  0  0  0  0  0  0  0  0  0  0  0
   -0.4224   -1.4744    0.1475 C   0  0  0  0  0  0  0  0  0  0  0  0
   -1.5422    1.7580    1.8552 C   0  0  0  0  0  0  0  0  0  0  0  0
   -2.2118   -0.3738   -1.9054 C   0  0  0  0  0  0  0  0  0  0  0  0
    1.9214   -0.6268    0.0943 C   0  0  0  0  0  0  0  0  0  0  0  0
    2.4086    1.6860   -0.5365 C   0  0  0  0  0  0  0  0  0  0  0  0
   -0.0744    0.2502    2.2166 H   0  0  0  0  0  0  0  0  0  0  0  0
   -1.7233   -0.3490    2.2069 H   0  0  0  0  0  0  0  0  0  0  0  0
   -2.6492    1.1103   -0.4725 H   0  0  0  0  0  0  0  0  0  0  0  0
   -3.0228   -0.5226    0.0663 H   0  0  0  0  0  0  0  0  0  0  0  0
   -0.8803    2.5075    1.4144 H   0  0  0  0  0  0  0  0  0  0  0  0
   -2.5551    1.9003    1.4708 H   0  0  0  0  0  0  0  0  0  0  0  0
   -1.5940    1.9943    2.9250 H   0  0  0  0  0  0  0  0  0  0  0  0
   -1.4814    0.1888   -2.4941 H   0  0  0  0  0  0  0  0  0  0  0  0
   -1.9839   -1.4375   -2.0115 H   0  0  0  0  0  0  0  0  0  0  0  0
   -3.1884   -0.2175   -2.3777 H   0  0  0  0  0  0  0  0  0  0  0  0
    1.2997   -2.5711    0.3175 H   0  0  0  0  0  0  0  0  0  0  0  0
    3.2801    1.5927    0.1181 H   0  0  0  0  0  0  0  0  0  0  0  0
    1.9764    2.6839   -0.4216 H   0  0  0  0  0  0  0  0  0  0  0  0
    2.7308    1.5514   -1.5738 H   0  0  0  0  0  0  0  0  0  0  0  0
  1  9  2  0  0  0  0
  2 10  2  0  0  0  0
  3 13  2  0  0  0  0
  4  9  1  0  0  0  0
  4 13  1  0  0  0  0
  4 14  1  0  0  0  0
  5 10  1  0  0  0  0
  5 13  1  0  0  0  0
  5 25  1  0  0  0  0
  6  7  1  0  0  0  0
  6  8  1  0  0  0  0
  6  9  1  0  0  0  0
  6 10  1  0  0  0  0
  7 11  1  0  0  0  0
  7 15  1  0  0  0  0
  7 16  1  0  0  0  0
  8 12  1  0  0  0  0
  8 17  1  0  0  0  0
  8 18  1  0  0  0  0
 11 19  1  0  0  0  0
 11 20  1  0  0  0  0
 11 21  1  0  0  0  0
 12 22  1  0  0  0  0
 12 23  1  0  0  0  0
 12 24  1  0  0  0  0
 14 26  1  0  0  0  0
 14 27  1  0  0  0  0
 14 28  1  0  0  0  0
M  END
> <PUBCHEM_COMPOUND_CID>
4099

> <PUBCHEM_CONFORMER_RMSD>
0.6

> <PUBCHEM_CONFORMER_DIVERSEORDER>
1
6
5
3
4
2

> <PUBCHEM_MMFF94_PARTIAL_CHARGES>
11
1 -0.57
10 0.57
13 0.69
14 0.3
2 -0.57
25 0.37
3 -0.57
4 -0.42
5 -0.49
6 0.12
9 0.57

> <PUBCHEM_EFFECTIVE_ROTOR_COUNT>
2.6

> <PUBCHEM_PHARMACOPHORE_FEATURES>
7
1 1 acceptor
1 11 hydrophobe
1 12 hydrophobe
1 2 acceptor
1 3 acceptor
1 5 donor
6 4 5 6 9 10 13 rings

> <PUBCHEM_HEAVY_ATOM_COUNT>
14

> <PUBCHEM_ATOM_DEF_STEREO_COUNT>
0

> <PUBCHEM_ATOM_UDEF_STEREO_COUNT>
0

> <PUBCHEM_BOND_DEF_STEREO_COUNT>
0

> <PUBCHEM_BOND_UDEF_STEREO_COUNT>
0

> <PUBCHEM_ISOTOPIC_ATOM_COUNT>
0

> <PUBCHEM_COMPONENT_COUNT>
1

> <PUBCHEM_CACTVS_TAUTO_COUNT>
3

> <PUBCHEM_CONFORMER_ID>
0000100300000001

> <PUBCHEM_MMFF94_ENERGY>
34.5821

> <PUBCHEM_FEATURE_SELFOVERLAP>
35.52

> <PUBCHEM_SHAPE_FINGERPRINT>
10702982 57 17606955372032542081
12423570 1 14241070432162732153
13024252 1 15267336353234520811
137420 1 5716871036351277617
14617773 55 18113335314565475672
14761567 1 18119252761560258100
14817 1 16894482553224466489
15906896 17 17822834464514695027
16945 1 18128556987889569478
23419403 2 17252631934369153875
241688 4 17691418824401903194
2748010 2 18198904712840275742
5084963 1 18262248827425112650
528886 8 18199205038475603037

> <PUBCHEM_SHAPE_MULTIPOLES>
260.54
3.29
2.14
1.49
1.87
0.16
-0.04
0.06
0.57
-0.09
-0.32
-1.07
-0.55
-0.85

> <PUBCHEM_SHAPE_SELFOVERLAP>
534.555

> <PUBCHEM_SHAPE_VOLUME>
149.3

> <PUBCHEM_COORDINATE_TYPE>
2
5
10

$$$$

