12987
  -OEChem-06261207373D

 16 15  0     0  0  0  0  0  0999 V2000
   -0.2520   -0.6777    0.5195 C   0  0  0  0  0  0  0  0  0  0  0  0
    1.0252   -0.0073    0.0728 C   0  0  0  0  0  0  0  0  0  0  0  0
    1.0269    1.4946    0.0262 C   0  0  0  0  0  0  0  0  0  0  0  0
   -1.4076   -0.3671   -0.3871 C   0  0  0  0  0  0  0  0  0  0  0  0
    2.1212   -0.7178   -0.2367 C   0  0  0  0  0  0  0  0  0  0  0  0
   -2.5136    0.2754    0.0054 C   0  0  0  0  0  0  0  0  0  0  0  0
   -0.1300   -1.7677    0.5507 H   0  0  0  0  0  0  0  0  0  0  0  0
   -0.4687   -0.3663    1.5493 H   0  0  0  0  0  0  0  0  0  0  0  0
    0.7210    1.9051    0.9941 H   0  0  0  0  0  0  0  0  0  0  0  0
    0.3400    1.8622   -0.7425 H   0  0  0  0  0  0  0  0  0  0  0  0
    2.0203    1.8960   -0.2015 H   0  0  0  0  0  0  0  0  0  0  0  0
   -1.3387   -0.6998   -1.4200 H   0  0  0  0  0  0  0  0  0  0  0  0
    2.1237   -1.8017   -0.1902 H   0  0  0  0  0  0  0  0  0  0  0  0
    3.0410   -0.2320   -0.5452 H   0  0  0  0  0  0  0  0  0  0  0  0
   -3.3177    0.4641   -0.6975 H   0  0  0  0  0  0  0  0  0  0  0  0
   -2.6361    0.6233    1.0250 H   0  0  0  0  0  0  0  0  0  0  0  0
  1  2  1  0  0  0  0
  1  4  1  0  0  0  0
  1  7  1  0  0  0  0
  1  8  1  0  0  0  0
  2  3  1  0  0  0  0
  2  5  2  0  0  0  0
  3  9  1  0  0  0  0
  3 10  1  0  0  0  0
  3 11  1  0  0  0  0
  4  6  2  0  0  0  0
  4 12  1  0  0  0  0
  5 13  1  0  0  0  0
  5 14  1  0  0  0  0
  6 15  1  0  0  0  0
  6 16  1  0  0  0  0
M  END
> <PUBCHEM_COMPOUND_CID>
12987

> <PUBCHEM_CONFORMER_RMSD>
0.4

> <PUBCHEM_CONFORMER_DIVERSEORDER>
1
8
9
7
2
4
3
5
6

> <PUBCHEM_MMFF94_PARTIAL_CHARGES>
11
1 0.28
12 0.15
13 0.15
14 0.15
15 0.15
16 0.15
2 -0.28
3 0.14
4 -0.29
5 -0.3
6 -0.3

> <PUBCHEM_EFFECTIVE_ROTOR_COUNT>
2

> <PUBCHEM_PHARMACOPHORE_FEATURES>
1
1 6 hydrophobe

> <PUBCHEM_HEAVY_ATOM_COUNT>
6

> <PUBCHEM_ATOM_DEF_STEREO_COUNT>
0

> <PUBCHEM_ATOM_UDEF_STEREO_COUNT>
0

> <PUBCHEM_BOND_DEF_STEREO_COUNT>
0

> <PUBCHEM_BOND_UDEF_STEREO_COUNT>
0

> <PUBCHEM_ISOTOPIC_ATOM_COUNT>
0

> <PUBCHEM_COMPONENT_COUNT>
1

> <PUBCHEM_CACTVS_TAUTO_COUNT>
1

> <PUBCHEM_CONFORMER_ID>
000032BB00000001

> <PUBCHEM_MMFF94_ENERGY>
3.0723

> <PUBCHEM_FEATURE_SELFOVERLAP>
5.074

> <PUBCHEM_SHAPE_FINGERPRINT>
16714656 1 18337951315156597743
20096714 4 18341054021185406081
21040471 1 18198061378573107608
24536 1 18267035959218269371
29004967 10 18408320012321905434
5460574 1 9079113362617159127

> <PUBCHEM_SHAPE_MULTIPOLES>
123.48
3.11
1.19
0.7
1.16
0.44
-0.01
-0.12
0.28
-0.48
-0.02
0.03
-0.05
0.05

> <PUBCHEM_SHAPE_SELFOVERLAP>
219.586

> <PUBCHEM_SHAPE_VOLUME>
81.4

> <PUBCHEM_COORDINATE_TYPE>
2
5
10

$$$$

