13869
  -OEChem-06241222402D

 22 23  0     0  0  0  0  0  0999 V2000
    4.4909    0.6452    0.0000 P   0  0  0  0  0  0  0  0  0  0  0  0
    4.1203    1.9938    0.0000 O   0  0  0  0  0  0  0  0  0  0  0  0
    2.0000   -0.4547    0.0000 O   0  0  0  0  0  0  0  0  0  0  0  0
    6.3228   -0.1137    0.0000 O   0  0  0  0  0  0  0  0  0  0  0  0
    4.7497    1.6111    0.0000 O   0  0  0  0  0  0  0  0  0  0  0  0
    4.2320   -0.3208    0.0000 C   0  0  0  0  0  0  0  0  0  0  0  0
    3.2543    1.4938    0.0000 C   0  0  0  0  0  0  0  0  0  0  0  0
    2.5000   -1.3208    0.0000 C   0  0  0  0  0  0  0  0  0  0  0  0
    6.0640   -1.0796    0.0000 C   0  0  0  0  0  0  0  0  0  0  0  0
    3.9732   -1.2867    0.0000 C   0  0  0  0  0  0  0  0  0  0  0  0
    4.6803   -1.9938    0.0000 C   0  0  0  0  0  0  0  0  0  0  0  0
    5.8520   -1.6622    0.0000 H   0  0  0  0  0  0  0  0  0  0  0  0
    6.6553   -1.2660    0.0000 H   0  0  0  0  0  0  0  0  0  0  0  0
    1.9631   -1.6308    0.0000 H   0  0  0  0  0  0  0  0  0  0  0  0
    2.8100   -1.8577    0.0000 H   0  0  0  0  0  0  0  0  0  0  0  0
    2.9495    2.0337    0.0000 H   0  0  0  0  0  0  0  0  0  0  0  0
    2.7114    1.1944    0.0000 H   0  0  0  0  0  0  0  0  0  0  0  0
    3.4113   -1.0247    0.0000 H   0  0  0  0  0  0  0  0  0  0  0  0
    3.6176   -1.7946    0.0000 H   0  0  0  0  0  0  0  0  0  0  0  0
    4.2419   -2.4322    0.0000 H   0  0  0  0  0  0  0  0  0  0  0  0
    5.1187   -2.4322    0.0000 H   0  0  0  0  0  0  0  0  0  0  0  0
    5.1187   -1.5554    0.0000 H   0  0  0  0  0  0  0  0  0  0  0  0
  1  2  1  0  0  0  0
  1  3  1  0  0  0  0
  1  4  1  0  0  0  0
  1  5  2  0  0  0  0
  2  7  1  0  0  0  0
  3  8  1  0  0  0  0
  4  9  1  0  0  0  0
  6  7  1  0  0  0  0
  6  8  1  0  0  0  0
  6  9  1  0  0  0  0
  6 10  1  0  0  0  0
  7 16  1  0  0  0  0
  7 17  1  0  0  0  0
  8 14  1  0  0  0  0
  8 15  1  0  0  0  0
  9 12  1  0  0  0  0
  9 13  1  0  0  0  0
 10 11  1  0  0  0  0
 10 18  1  0  0  0  0
 10 19  1  0  0  0  0
 11 20  1  0  0  0  0
 11 21  1  0  0  0  0
 11 22  1  0  0  0  0
M  END
> <PUBCHEM_COMPOUND_CID>
13869

> <PUBCHEM_COMPOUND_CANONICALIZED>
1

> <PUBCHEM_CACTVS_COMPLEXITY>
183

> <PUBCHEM_CACTVS_HBOND_ACCEPTOR>
4

> <PUBCHEM_CACTVS_HBOND_DONOR>
0

> <PUBCHEM_CACTVS_ROTATABLE_BOND>
1

> <PUBCHEM_CACTVS_SUBSKEYS>
AAADccBgOAIAAAAAAAAAAAAAAAAAAAAAAAAkSJAAAAAAAAAAAAAAGgAAACAADgCggAICAAAAARAAQAAAAIAAAAAAAAAAAAAAAAAAAAAAAAAAAAAFAAAAAAAAAAAJAAAAAAAAAAAAAAAAAAAAAAAAAAAAAA==

> <PUBCHEM_IUPAC_OPENEYE_NAME>
4-ethyl-2,6,7-trioxa-1$l^{5}-phosphabicyclo[2.2.2]octane 1-oxide

> <PUBCHEM_IUPAC_CAS_NAME>
4-ethyl-2,6,7-trioxa-1$l^{5}-phosphabicyclo[2.2.2]octane 1-oxide

> <PUBCHEM_IUPAC_NAME>
4-ethyl-2,6,7-trioxa-1$l^{5}-phosphabicyclo[2.2.2]octane 1-oxide

> <PUBCHEM_IUPAC_SYSTEMATIC_NAME>
4-ethyl-2,6,7-trioxa-1$l^{5}-phosphabicyclo[2.2.2]octane 1-oxide

> <PUBCHEM_IUPAC_TRADITIONAL_NAME>
4-ethyl-2,6,7-trioxa-1$l^{5}-phosphabicyclo[2.2.2]octane 1-oxide

> <PUBCHEM_IUPAC_INCHI>
InChI=1S/C6H11O4P/c1-2-6-3-8-11(7,9-4-6)10-5-6/h2-5H2,1H3

> <PUBCHEM_IUPAC_INCHIKEY>
BYEFHDZWRALTEN-UHFFFAOYSA-N

> <PUBCHEM_XLOGP3_AA>
0.1

> <PUBCHEM_EXACT_MASS>
178.039495

> <PUBCHEM_MOLECULAR_FORMULA>
C6H11O4P

> <PUBCHEM_MOLECULAR_WEIGHT>
178.122902

> <PUBCHEM_OPENEYE_CAN_SMILES>
CCC12COP(=O)(OC1)OC2

> <PUBCHEM_OPENEYE_ISO_SMILES>
CCC12COP(=O)(OC1)OC2

> <PUBCHEM_CACTVS_TPSA>
44.8

> <PUBCHEM_MONOISOTOPIC_WEIGHT>
178.039495

> <PUBCHEM_TOTAL_CHARGE>
0

> <PUBCHEM_HEAVY_ATOM_COUNT>
11

> <PUBCHEM_ATOM_DEF_STEREO_COUNT>
0

> <PUBCHEM_ATOM_UDEF_STEREO_COUNT>
0

> <PUBCHEM_BOND_DEF_STEREO_COUNT>
0

> <PUBCHEM_BOND_UDEF_STEREO_COUNT>
0

> <PUBCHEM_ISOTOPIC_ATOM_COUNT>
0

> <PUBCHEM_COMPONENT_COUNT>
1

> <PUBCHEM_CACTVS_TAUTO_COUNT>
1

> <PUBCHEM_COORDINATE_TYPE>
1
5
255

$$$$

