17395445
  -OEChem-06241222502D

 47 48  0     0  0  0  0  0  0999 V2000
    7.3301    1.8100    0.0000 Cl  0  0  0  0  0  0  0  0  0  0  0  0
    5.5981    4.8100    0.0000 F   0  0  0  0  0  0  0  0  0  0  0  0
    5.5981   -1.1900    0.0000 O   0  0  0  0  0  0  0  0  0  0  0  0
    5.5981    0.8100    0.0000 O   0  0  0  0  0  0  0  0  0  0  0  0
    3.8660   -4.1900    0.0000 N   0  0  0  0  0  0  0  0  0  0  0  0
    3.8660   -1.1900    0.0000 N   0  0  0  0  0  0  0  0  0  0  0  0
    3.0000   -3.6900    0.0000 C   0  0  0  0  0  0  0  0  0  0  0  0
    4.7320   -3.6900    0.0000 C   0  0  0  0  0  0  0  0  0  0  0  0
    3.8660   -2.1900    0.0000 C   0  0  0  0  0  0  0  0  0  0  0  0
    3.0000   -2.6900    0.0000 C   0  0  0  0  0  0  0  0  0  0  0  0
    4.7320   -2.6900    0.0000 C   0  0  0  0  0  0  0  0  0  0  0  0
    5.7320   -3.6900    0.0000 C   0  0  0  0  0  0  0  0  0  0  0  0
    5.2320   -4.5560    0.0000 C   0  0  0  0  0  0  0  0  0  0  0  0
    2.0000   -3.6900    0.0000 C   0  0  0  0  0  0  0  0  0  0  0  0
    2.5000   -4.5560    0.0000 C   0  0  0  0  0  0  0  0  0  0  0  0
    4.7320   -0.6900    0.0000 C   0  0  0  0  0  0  0  0  0  0  0  0
    4.7320    0.3100    0.0000 C   0  0  0  0  0  0  0  0  0  0  0  0
    5.5981    1.8100    0.0000 C   0  0  0  0  0  0  0  0  0  0  0  0
    6.4641    2.3100    0.0000 C   0  0  0  0  0  0  0  0  0  0  0  0
    4.7320    2.3100    0.0000 C   0  0  0  0  0  0  0  0  0  0  0  0
    6.4641    3.3100    0.0000 C   0  0  0  0  0  0  0  0  0  0  0  0
    4.7320    3.3100    0.0000 C   0  0  0  0  0  0  0  0  0  0  0  0
    5.5981    3.8100    0.0000 C   0  0  0  0  0  0  0  0  0  0  0  0
    4.4030   -1.8800    0.0000 H   0  0  0  0  0  0  0  0  0  0  0  0
    5.3426   -2.7977    0.0000 H   0  0  0  0  0  0  0  0  0  0  0  0
    4.9441   -2.1074    0.0000 H   0  0  0  0  0  0  0  0  0  0  0  0
    2.7880   -2.1074    0.0000 H   0  0  0  0  0  0  0  0  0  0  0  0
    2.3894   -2.7977    0.0000 H   0  0  0  0  0  0  0  0  0  0  0  0
    3.8660   -4.8100    0.0000 H   0  0  0  0  0  0  0  0  0  0  0  0
    5.7320   -4.3100    0.0000 H   0  0  0  0  0  0  0  0  0  0  0  0
    1.9631   -4.2460    0.0000 H   0  0  0  0  0  0  0  0  0  0  0  0
    2.1900   -5.0930    0.0000 H   0  0  0  0  0  0  0  0  0  0  0  0
    3.0369   -4.8660    0.0000 H   0  0  0  0  0  0  0  0  0  0  0  0
    2.0000   -3.0700    0.0000 H   0  0  0  0  0  0  0  0  0  0  0  0
    1.3800   -3.6900    0.0000 H   0  0  0  0  0  0  0  0  0  0  0  0
    2.0000   -4.3100    0.0000 H   0  0  0  0  0  0  0  0  0  0  0  0
    4.6951   -4.8660    0.0000 H   0  0  0  0  0  0  0  0  0  0  0  0
    5.5420   -5.0930    0.0000 H   0  0  0  0  0  0  0  0  0  0  0  0
    5.7690   -4.2460    0.0000 H   0  0  0  0  0  0  0  0  0  0  0  0
    6.3520   -3.6900    0.0000 H   0  0  0  0  0  0  0  0  0  0  0  0
    5.7320   -3.0700    0.0000 H   0  0  0  0  0  0  0  0  0  0  0  0
    3.3291   -0.8800    0.0000 H   0  0  0  0  0  0  0  0  0  0  0  0
    4.5200    0.8926    0.0000 H   0  0  0  0  0  0  0  0  0  0  0  0
    4.1215    0.2023    0.0000 H   0  0  0  0  0  0  0  0  0  0  0  0
    4.1951    2.0000    0.0000 H   0  0  0  0  0  0  0  0  0  0  0  0
    7.0010    3.6200    0.0000 H   0  0  0  0  0  0  0  0  0  0  0  0
    4.1951    3.6200    0.0000 H   0  0  0  0  0  0  0  0  0  0  0  0
  1 19  1  0  0  0  0
  2 23  1  0  0  0  0
  3 16  2  0  0  0  0
  4 17  1  0  0  0  0
  4 18  1  0  0  0  0
  5  7  1  0  0  0  0
  5  8  1  0  0  0  0
  5 29  1  0  0  0  0
  6  9  1  0  0  0  0
  6 16  1  0  0  0  0
  6 42  1  0  0  0  0
  7 10  1  0  0  0  0
  7 14  1  0  0  0  0
  7 15  1  0  0  0  0
  8 11  1  0  0  0  0
  8 12  1  0  0  0  0
  8 13  1  0  0  0  0
  9 10  1  0  0  0  0
  9 11  1  0  0  0  0
  9 24  1  0  0  0  0
 10 27  1  0  0  0  0
 10 28  1  0  0  0  0
 11 25  1  0  0  0  0
 11 26  1  0  0  0  0
 12 30  1  0  0  0  0
 12 40  1  0  0  0  0
 12 41  1  0  0  0  0
 13 37  1  0  0  0  0
 13 38  1  0  0  0  0
 13 39  1  0  0  0  0
 14 34  1  0  0  0  0
 14 35  1  0  0  0  0
 14 36  1  0  0  0  0
 15 31  1  0  0  0  0
 15 32  1  0  0  0  0
 15 33  1  0  0  0  0
 16 17  1  0  0  0  0
 17 43  1  0  0  0  0
 17 44  1  0  0  0  0
 18 19  2  0  0  0  0
 18 20  1  0  0  0  0
 19 21  1  0  0  0  0
 20 22  2  0  0  0  0
 20 45  1  0  0  0  0
 21 23  2  0  0  0  0
 21 46  1  0  0  0  0
 22 23  1  0  0  0  0
 22 47  1  0  0  0  0
M  END
> <PUBCHEM_COMPOUND_CID>
17395445

> <PUBCHEM_COMPOUND_CANONICALIZED>
1

> <PUBCHEM_CACTVS_COMPLEXITY>
415

> <PUBCHEM_CACTVS_HBOND_ACCEPTOR>
4

> <PUBCHEM_CACTVS_HBOND_DONOR>
2

> <PUBCHEM_CACTVS_ROTATABLE_BOND>
4

> <PUBCHEM_CACTVS_SUBSKEYS>
AAADceB7MQAEAAAAAAAAAAAAAAAAAAAAAAA8QAAAAAAAAAABAAAAHwIQAAAADK7hkC4yBoLABACIACFSEAICCAAgJUAIiIBOC4gOJiOF8x6HOCCk1hGYqAeQwEAMAAAAAAAACAAAAAAAAAAQAAAAAAAAAA==

> <PUBCHEM_IUPAC_OPENEYE_NAME>
2-(2-chloro-4-fluoro-phenoxy)-N-(2,2,6,6-tetramethyl-4-piperidyl)acetamide

> <PUBCHEM_IUPAC_CAS_NAME>
2-(2-chloro-4-fluorophenoxy)-N-(2,2,6,6-tetramethyl-4-piperidinyl)acetamide

> <PUBCHEM_IUPAC_NAME>
2-(2-chloro-4-fluorophenoxy)-N-(2,2,6,6-tetramethylpiperidin-4-yl)acetamide

> <PUBCHEM_IUPAC_SYSTEMATIC_NAME>
2-(2-chloranyl-4-fluoranyl-phenoxy)-N-(2,2,6,6-tetramethylpiperidin-4-yl)ethanamide

> <PUBCHEM_IUPAC_TRADITIONAL_NAME>
2-(2-chloro-4-fluoro-phenoxy)-N-(2,2,6,6-tetramethyl-4-piperidyl)acetamide

> <PUBCHEM_IUPAC_INCHI>
InChI=1S/C17H24ClFN2O2/c1-16(2)8-12(9-17(3,4)21-16)20-15(22)10-23-14-6-5-11(19)7-13(14)18/h5-7,12,21H,8-10H2,1-4H3,(H,20,22)

> <PUBCHEM_IUPAC_INCHIKEY>
TUHDDAQMPYKZMK-UHFFFAOYSA-N

> <PUBCHEM_XLOGP3_AA>
3.3

> <PUBCHEM_EXACT_MASS>
342.151034

> <PUBCHEM_MOLECULAR_FORMULA>
C17H24ClFN2O2

> <PUBCHEM_MOLECULAR_WEIGHT>
342.836063

> <PUBCHEM_OPENEYE_CAN_SMILES>
CC1(CC(CC(N1)(C)C)NC(=O)COC2=C(C=C(C=C2)F)Cl)C

> <PUBCHEM_OPENEYE_ISO_SMILES>
CC1(CC(CC(N1)(C)C)NC(=O)COC2=C(C=C(C=C2)F)Cl)C

> <PUBCHEM_CACTVS_TPSA>
50.4

> <PUBCHEM_MONOISOTOPIC_WEIGHT>
342.151034

> <PUBCHEM_TOTAL_CHARGE>
0

> <PUBCHEM_HEAVY_ATOM_COUNT>
23

> <PUBCHEM_ATOM_DEF_STEREO_COUNT>
0

> <PUBCHEM_ATOM_UDEF_STEREO_COUNT>
0

> <PUBCHEM_BOND_DEF_STEREO_COUNT>
0

> <PUBCHEM_BOND_UDEF_STEREO_COUNT>
0

> <PUBCHEM_ISOTOPIC_ATOM_COUNT>
0

> <PUBCHEM_COMPONENT_COUNT>
1

> <PUBCHEM_CACTVS_TAUTO_COUNT>
2

> <PUBCHEM_COORDINATE_TYPE>
1
5
255

> <PUBCHEM_BONDANNOTATIONS>
18  19  8
18  20  8
19  21  8
20  22  8
21  23  8
22  23  8

$$$$

