11312
  -OEChem-06261205313D

 17 17  0     0  0  0  0  0  0999 V2000
    0.0001   -1.8165   -0.0009 O   0  0  0  0  0  0  0  0  0  0  0  0
   -3.5137    0.2188    0.0017 O   0  5  0  0  0  0  0  0  0  0  0  0
    3.5138    0.2188    0.0018 O   0  5  0  0  0  0  0  0  0  0  0  0
   -2.4453   -1.6989   -0.0001 O   0  0  0  0  0  0  0  0  0  0  0  0
    2.4453   -1.6988    0.0003 O   0  0  0  0  0  0  0  0  0  0  0  0
   -2.4504   -0.4452    0.0005 N   0  3  0  0  0  0  0  0  0  0  0  0
    2.4504   -0.4451    0.0003 N   0  3  0  0  0  0  0  0  0  0  0  0
    0.0000   -0.4504   -0.0009 C   0  0  0  0  0  0  0  0  0  0  0  0
   -1.2079    0.2470   -0.0006 C   0  0  0  0  0  0  0  0  0  0  0  0
    1.2079    0.2471   -0.0009 C   0  0  0  0  0  0  0  0  0  0  0  0
   -1.2081    1.6419   -0.0003 C   0  0  0  0  0  0  0  0  0  0  0  0
    1.2079    1.6420   -0.0005 C   0  0  0  0  0  0  0  0  0  0  0  0
   -0.0001    2.3393   -0.0002 C   0  0  0  0  0  0  0  0  0  0  0  0
   -2.1277    2.2215    0.0000 H   0  0  0  0  0  0  0  0  0  0  0  0
    2.1275    2.2216   -0.0002 H   0  0  0  0  0  0  0  0  0  0  0  0
   -0.0001    3.4255    0.0002 H   0  0  0  0  0  0  0  0  0  0  0  0
   -0.8000   -2.1532    0.4312 H   0  0  0  0  0  0  0  0  0  0  0  0
  1  8  1  0  0  0  0
  1 17  1  0  0  0  0
  2  6  1  0  0  0  0
  3  7  1  0  0  0  0
  4  6  2  0  0  0  0
  5  7  2  0  0  0  0
  6  9  1  0  0  0  0
  7 10  1  0  0  0  0
  8  9  2  0  0  0  0
  8 10  1  0  0  0  0
  9 11  1  0  0  0  0
 10 12  2  0  0  0  0
 11 13  2  0  0  0  0
 11 14  1  0  0  0  0
 12 13  1  0  0  0  0
 12 15  1  0  0  0  0
 13 16  1  0  0  0  0
M  CHG  4   2  -1   3  -1   6   1   7   1
M  END
> <PUBCHEM_COMPOUND_CID>
11312

> <PUBCHEM_CONFORMER_RMSD>
0.6

> <PUBCHEM_CONFORMER_DIVERSEORDER>
1

> <PUBCHEM_MMFF94_PARTIAL_CHARGES>
17
1 -0.53
10 0.13
11 -0.15
12 -0.15
13 -0.15
14 0.15
15 0.15
16 0.15
17 0.45
2 -0.52
3 -0.52
4 -0.52
5 -0.52
6 0.91
7 0.91
8 0.08
9 0.13

> <PUBCHEM_EFFECTIVE_ROTOR_COUNT>
2

> <PUBCHEM_PHARMACOPHORE_FEATURES>
8
1 1 donor
1 2 acceptor
1 2 anion
1 3 acceptor
1 3 anion
1 4 acceptor
1 5 acceptor
6 8 9 10 11 12 13 rings

> <PUBCHEM_HEAVY_ATOM_COUNT>
13

> <PUBCHEM_ATOM_DEF_STEREO_COUNT>
0

> <PUBCHEM_ATOM_UDEF_STEREO_COUNT>
0

> <PUBCHEM_BOND_DEF_STEREO_COUNT>
0

> <PUBCHEM_BOND_UDEF_STEREO_COUNT>
0

> <PUBCHEM_ISOTOPIC_ATOM_COUNT>
0

> <PUBCHEM_COMPONENT_COUNT>
1

> <PUBCHEM_CACTVS_TAUTO_COUNT>
3

> <PUBCHEM_CONFORMER_ID>
00002C3000000001

> <PUBCHEM_MMFF94_ENERGY>
48.6836

> <PUBCHEM_FEATURE_SELFOVERLAP>
40.758

> <PUBCHEM_SHAPE_FINGERPRINT>
10967382 1 18410855464481177351
11206711 2 18341049713154159421
12032990 46 18410848863058667971
14128692 85 18337669724231782669
16945 1 18410855464423323973
193761 8 17618223253024712487
20201158 50 18412546500501023883
20871998 184 18187650274852817364
20871998 22 18334846238522262702
21040471 1 17834113044144188965
2334 1 17978228262057592321
23463225 33 18411980294909495292
23552423 10 18270398261496975821
23559900 14 18191592050657634230
241688 4 18411419548258869184
2748010 2 18267024942621984365
5084963 1 18259703401929643457
528886 8 18409735057948263291
7364860 26 18046626707184384096

> <PUBCHEM_SHAPE_MULTIPOLES>
228.23
4.27
2.17
0.56
0
0.39
0
-1.31
0
0
0
0
0.05
0

> <PUBCHEM_SHAPE_SELFOVERLAP>
487.801

> <PUBCHEM_SHAPE_VOLUME>
126.4

> <PUBCHEM_COORDINATE_TYPE>
2
5
10

$$$$

