7846965
  -OEChem-06241222483D

 46 48  0     1  0  0  0  0  0999 V2000
    3.5037    1.0673   -0.8199 S   0  0  0  0  0  0  0  0  0  0  0  0
    1.0381   -1.9925   -0.5464 O   0  0  0  0  0  0  0  0  0  0  0  0
   -0.6860   -0.1136   -1.5525 O   0  0  0  0  0  0  0  0  0  0  0  0
    1.5000   -3.5021    1.1359 O   0  0  0  0  0  0  0  0  0  0  0  0
   -2.2212   -0.7032    0.0853 N   0  0  0  0  0  0  0  0  0  0  0  0
    1.9739    0.3922    1.1438 N   0  0  0  0  0  0  0  0  0  0  0  0
   -3.0659    0.4582   -0.0459 C   0  0  0  0  0  0  0  0  0  0  0  0
   -3.7840    0.7815    1.2581 C   0  0  0  0  0  0  0  0  0  0  0  0
   -4.2174    0.2173   -1.0148 C   0  0  0  0  0  0  0  0  0  0  0  0
   -4.9870   -0.1576    1.2765 C   0  0  0  0  0  0  0  0  0  0  0  0
   -5.2908   -0.4856   -0.1854 C   0  0  0  0  0  0  0  0  0  0  0  0
   -1.0869   -0.8926   -0.6905 C   0  0  0  0  0  0  0  0  0  0  0  0
   -0.3530   -2.1811   -0.3474 C   0  0  1  0  0  0  0  0  0  0  0  0
   -0.8101   -3.3264   -1.2369 C   0  0  0  0  0  0  0  0  0  0  0  0
    3.3064   -2.4080   -0.0709 C   0  0  0  0  0  0  0  0  0  0  0  0
    1.8668   -2.7204    0.2694 C   0  0  0  0  0  0  0  0  0  0  0  0
    3.8365   -1.2150    0.7259 C   0  0  0  0  0  0  0  0  0  0  0  0
    3.0329    0.0315    0.4572 C   0  0  0  0  0  0  0  0  0  0  0  0
    2.1832    2.1112   -0.4467 C   0  0  0  0  0  0  0  0  0  0  0  0
    1.4753    1.5834    0.6373 C   0  0  0  0  0  0  0  0  0  0  0  0
    1.8012    3.3109   -1.0685 C   0  0  0  0  0  0  0  0  0  0  0  0
    0.3454    2.2830    1.1139 C   0  0  0  0  0  0  0  0  0  0  0  0
    0.6794    3.9834   -0.5772 C   0  0  0  0  0  0  0  0  0  0  0  0
   -0.0404    3.4780    0.4997 C   0  0  0  0  0  0  0  0  0  0  0  0
   -2.4505    1.3017   -0.3760 H   0  0  0  0  0  0  0  0  0  0  0  0
   -3.1536    0.6573    2.1444 H   0  0  0  0  0  0  0  0  0  0  0  0
   -4.1374    1.8198    1.2379 H   0  0  0  0  0  0  0  0  0  0  0  0
   -3.9329   -0.3683   -1.8948 H   0  0  0  0  0  0  0  0  0  0  0  0
   -4.6104    1.1798   -1.3654 H   0  0  0  0  0  0  0  0  0  0  0  0
   -4.7444   -1.0778    1.8205 H   0  0  0  0  0  0  0  0  0  0  0  0
   -5.8448    0.3015    1.7783 H   0  0  0  0  0  0  0  0  0  0  0  0
   -6.2933   -0.1544   -0.4755 H   0  0  0  0  0  0  0  0  0  0  0  0
   -5.2468   -1.5697   -0.3404 H   0  0  0  0  0  0  0  0  0  0  0  0
   -2.5053   -1.4331    0.7324 H   0  0  0  0  0  0  0  0  0  0  0  0
   -0.5638   -2.4195    0.7029 H   0  0  0  0  0  0  0  0  0  0  0  0
   -0.2908   -4.2559   -0.9820 H   0  0  0  0  0  0  0  0  0  0  0  0
   -1.8882   -3.4929   -1.1462 H   0  0  0  0  0  0  0  0  0  0  0  0
   -0.5877   -3.1155   -2.2892 H   0  0  0  0  0  0  0  0  0  0  0  0
    3.3908   -2.2417   -1.1516 H   0  0  0  0  0  0  0  0  0  0  0  0
    3.9024   -3.3014    0.1484 H   0  0  0  0  0  0  0  0  0  0  0  0
    3.7791   -1.4358    1.7992 H   0  0  0  0  0  0  0  0  0  0  0  0
    4.8954   -1.0540    0.4923 H   0  0  0  0  0  0  0  0  0  0  0  0
    2.3583    3.7114   -1.9099 H   0  0  0  0  0  0  0  0  0  0  0  0
   -0.2261    1.8955    1.9526 H   0  0  0  0  0  0  0  0  0  0  0  0
    0.3662    4.9133   -1.0446 H   0  0  0  0  0  0  0  0  0  0  0  0
   -0.9116    4.0135    0.8670 H   0  0  0  0  0  0  0  0  0  0  0  0
  1 18  1  0  0  0  0
  1 19  1  0  0  0  0
  2 13  1  0  0  0  0
  2 16  1  0  0  0  0
  3 12  2  0  0  0  0
  4 16  2  0  0  0  0
  5  7  1  0  0  0  0
  5 12  1  0  0  0  0
  5 34  1  0  0  0  0
  6 18  2  0  0  0  0
  6 20  1  0  0  0  0
  7  8  1  0  0  0  0
  7  9  1  0  0  0  0
  7 25  1  0  0  0  0
  8 10  1  0  0  0  0
  8 26  1  0  0  0  0
  8 27  1  0  0  0  0
  9 11  1  0  0  0  0
  9 28  1  0  0  0  0
  9 29  1  0  0  0  0
 10 11  1  0  0  0  0
 10 30  1  0  0  0  0
 10 31  1  0  0  0  0
 11 32  1  0  0  0  0
 11 33  1  0  0  0  0
 12 13  1  0  0  0  0
 13 14  1  0  0  0  0
 13 35  1  0  0  0  0
 14 36  1  0  0  0  0
 14 37  1  0  0  0  0
 14 38  1  0  0  0  0
 15 16  1  0  0  0  0
 15 17  1  0  0  0  0
 15 39  1  0  0  0  0
 15 40  1  0  0  0  0
 17 18  1  0  0  0  0
 17 41  1  0  0  0  0
 17 42  1  0  0  0  0
 19 20  1  0  0  0  0
 19 21  2  0  0  0  0
 20 22  2  0  0  0  0
 21 23  1  0  0  0  0
 21 43  1  0  0  0  0
 22 24  1  0  0  0  0
 22 44  1  0  0  0  0
 23 24  2  0  0  0  0
 23 45  1  0  0  0  0
 24 46  1  0  0  0  0
M  END
> <PUBCHEM_COMPOUND_CID>
7846965

> <PUBCHEM_CONFORMER_RMSD>
1

> <PUBCHEM_CONFORMER_DIVERSEORDER>
1
76
227
164
135
161
180
167
116
108
225
131
48
23
193
88
84
26
77
203
70
67
29
59
172
109
181
81
219
35
166
173
191
58
126
205
222
149
72
8
212
216
214
218
38
37
2
57
182
132
10
4
19
121
196
153
154
41
9
47
54
206
220
145
229
44
188
50
157
90
176
43
114
63
27
130
159
146
98
133
17
56
52
12
28
142
14
198
185
120
71
194
156
15
83
117
119
207
201
213
124
179
86
199
95
168
32
138
34
101
91
110
105
187
97
189
150
190
111
183
103
177
13
94
137
122
30
96
208
85
162
223
174
200
73
18
230
64
75
175
211
99
226
228
186
115
16
100
134
171
158
62
22
192
215
136
148
125
49
118
147
68
45
141
210
224
65
36
66
169
178
144
33
139
127
42
20
151
74
69
128
104
163
82
79
11
55
155
113
195
89
21
3
5
31
24
61
107
152
53
160
92
78
102
93
197
106
143
140
123
209
129
25
7
202
80
51
112
221
40
165
46
87
170
184
60
217
39
6
204

> <PUBCHEM_MMFF94_PARTIAL_CHARGES>
24
1 -0.08
12 0.57
13 0.34
15 0.06
16 0.66
17 0.18
18 0.2
19 0.04
2 -0.43
20 0.23
21 -0.15
22 -0.15
23 -0.15
24 -0.15
3 -0.57
34 0.37
4 -0.57
43 0.15
44 0.15
45 0.15
46 0.15
5 -0.73
6 -0.57
7 0.3

> <PUBCHEM_EFFECTIVE_ROTOR_COUNT>
9

> <PUBCHEM_PHARMACOPHORE_FEATURES>
7
1 3 acceptor
1 4 acceptor
1 5 donor
1 6 acceptor
5 1 6 18 19 20 rings
5 7 8 9 10 11 rings
6 19 20 21 22 23 24 rings

> <PUBCHEM_HEAVY_ATOM_COUNT>
24

> <PUBCHEM_ATOM_DEF_STEREO_COUNT>
1

> <PUBCHEM_ATOM_UDEF_STEREO_COUNT>
0

> <PUBCHEM_BOND_DEF_STEREO_COUNT>
0

> <PUBCHEM_BOND_UDEF_STEREO_COUNT>
0

> <PUBCHEM_ISOTOPIC_ATOM_COUNT>
0

> <PUBCHEM_COMPONENT_COUNT>
1

> <PUBCHEM_CACTVS_TAUTO_COUNT>
4

> <PUBCHEM_CONFORMER_ID>
0077BC3500000001

> <PUBCHEM_MMFF94_ENERGY>
34.3097

> <PUBCHEM_FEATURE_SELFOVERLAP>
35.591

> <PUBCHEM_SHAPE_FINGERPRINT>
104564 63 18047196533817821942
10688039 33 18200313371681563180
1100329 8 18266175029219721536
11828532 37 15502383292902528363
12422481 6 17755855668966787985
12553582 1 18410302410549332452
12633257 1 18273498970424144499
13140716 1 18193002521268271696
13583140 156 18131074853113274003
14178342 30 17901690184164776736
14790565 3 18268142051195885772
151778 21 18127121979482177293
18785283 64 18271237214749438569
20465049 17 18195224647184479484
20739085 24 18263348356222150107
20905425 154 18045780345313341236
21041028 32 18268436917684582510
22113638 7 18336554841026687670
23558518 356 17759810238608676478
3052486 1 18120916563546201324
350125 39 17979355252859910358
474 4 18409448051470556031
484985 159 14898657151200159906
5048184 11 17979633433818582501
5312544 6 18122068598587431263
7832392 63 18262806146898260454

> <PUBCHEM_SHAPE_MULTIPOLES>
470.19
8.02
4.84
1.28
10.54
0.8
0
-0.96
-1.11
-3.91
0.51
0.34
0.05
-1.17

> <PUBCHEM_SHAPE_SELFOVERLAP>
978.839

> <PUBCHEM_SHAPE_VOLUME>
268.5

> <PUBCHEM_COORDINATE_TYPE>
2
5
10

$$$$

