10952
  -OEChem-06261205092D

 18 18  0     0  0  0  0  0  0999 V2000
    2.8660    1.5000    0.0000 Cl  0  0  0  0  0  0  0  0  0  0  0  0
    2.8660    0.5000    0.0000 C   0  0  0  0  0  0  0  0  0  0  0  0
    2.0000    0.0000    0.0000 C   0  0  0  0  0  0  0  0  0  0  0  0
    3.7320    0.0000    0.0000 C   0  0  0  0  0  0  0  0  0  0  0  0
    2.0000   -1.0000    0.0000 C   0  0  0  0  0  0  0  0  0  0  0  0
    3.7320   -1.0000    0.0000 C   0  0  0  0  0  0  0  0  0  0  0  0
    2.8660   -1.5000    0.0000 C   0  0  0  0  0  0  0  0  0  0  0  0
    3.4030    0.8100    0.0000 H   0  0  0  0  0  0  0  0  0  0  0  0
    4.3426   -0.1077    0.0000 H   0  0  0  0  0  0  0  0  0  0  0  0
    3.9441    0.5826    0.0000 H   0  0  0  0  0  0  0  0  0  0  0  0
    1.7880    0.5826    0.0000 H   0  0  0  0  0  0  0  0  0  0  0  0
    1.3894   -0.1077    0.0000 H   0  0  0  0  0  0  0  0  0  0  0  0
    1.3894   -0.8923    0.0000 H   0  0  0  0  0  0  0  0  0  0  0  0
    1.7880   -1.5826    0.0000 H   0  0  0  0  0  0  0  0  0  0  0  0
    3.9441   -1.5826    0.0000 H   0  0  0  0  0  0  0  0  0  0  0  0
    4.3426   -0.8923    0.0000 H   0  0  0  0  0  0  0  0  0  0  0  0
    2.4675   -1.9750    0.0000 H   0  0  0  0  0  0  0  0  0  0  0  0
    3.2646   -1.9750    0.0000 H   0  0  0  0  0  0  0  0  0  0  0  0
  1  2  1  0  0  0  0
  2  3  1  0  0  0  0
  2  4  1  0  0  0  0
  2  8  1  0  0  0  0
  3  5  1  0  0  0  0
  3 11  1  0  0  0  0
  3 12  1  0  0  0  0
  4  6  1  0  0  0  0
  4  9  1  0  0  0  0
  4 10  1  0  0  0  0
  5  7  1  0  0  0  0
  5 13  1  0  0  0  0
  5 14  1  0  0  0  0
  6  7  1  0  0  0  0
  6 15  1  0  0  0  0
  6 16  1  0  0  0  0
  7 17  1  0  0  0  0
  7 18  1  0  0  0  0
M  END
> <PUBCHEM_COMPOUND_CID>
10952

> <PUBCHEM_COMPOUND_CANONICALIZED>
1

> <PUBCHEM_CACTVS_COMPLEXITY>
46.1

> <PUBCHEM_CACTVS_HBOND_ACCEPTOR>
0

> <PUBCHEM_CACTVS_HBOND_DONOR>
0

> <PUBCHEM_CACTVS_ROTATABLE_BOND>
0

> <PUBCHEM_CACTVS_SUBSKEYS>
AAADccBgAAAEAAAAAAAAAAAAAAAAAAAAAAAwAAAAAAAAAAAAAAAAGAIAAAAACAOAAEAAAAAAAAAAAAAAAAAAAAAAAAAAAAAAAgAAAAIBAAAAAAAAAAAAAAEAAAAAAAAAAAAAAAAAAAAAAAAAAAAAAAAAAA==

> <PUBCHEM_IUPAC_OPENEYE_NAME>
chlorocyclohexane

> <PUBCHEM_IUPAC_CAS_NAME>
chlorocyclohexane

> <PUBCHEM_IUPAC_NAME>
chlorocyclohexane

> <PUBCHEM_IUPAC_SYSTEMATIC_NAME>
chloranylcyclohexane

> <PUBCHEM_IUPAC_TRADITIONAL_NAME>
chlorocyclohexane

> <PUBCHEM_IUPAC_INCHI>
InChI=1S/C6H11Cl/c7-6-4-2-1-3-5-6/h6H,1-5H2

> <PUBCHEM_IUPAC_INCHIKEY>
UNFUYWDGSFDHCW-UHFFFAOYSA-N

> <PUBCHEM_XLOGP3>
3

> <PUBCHEM_EXACT_MASS>
118.054928

> <PUBCHEM_MOLECULAR_FORMULA>
C6H11Cl

> <PUBCHEM_MOLECULAR_WEIGHT>
118.60454

> <PUBCHEM_OPENEYE_CAN_SMILES>
C1CCC(CC1)Cl

> <PUBCHEM_OPENEYE_ISO_SMILES>
C1CCC(CC1)Cl

> <PUBCHEM_CACTVS_TPSA>
0

> <PUBCHEM_MONOISOTOPIC_WEIGHT>
118.054928

> <PUBCHEM_TOTAL_CHARGE>
0

> <PUBCHEM_HEAVY_ATOM_COUNT>
7

> <PUBCHEM_ATOM_DEF_STEREO_COUNT>
0

> <PUBCHEM_ATOM_UDEF_STEREO_COUNT>
0

> <PUBCHEM_BOND_DEF_STEREO_COUNT>
0

> <PUBCHEM_BOND_UDEF_STEREO_COUNT>
0

> <PUBCHEM_ISOTOPIC_ATOM_COUNT>
0

> <PUBCHEM_COMPONENT_COUNT>
1

> <PUBCHEM_CACTVS_TAUTO_COUNT>
1

> <PUBCHEM_COORDINATE_TYPE>
1
5
255

$$$$

