13753
  -OEChem-06241222403D

 29 30  0     0  0  0  0  0  0999 V2000
   -2.4531    2.8728   -0.2300 Br  0  0  0  0  0  0  0  0  0  0  0  0
    6.2381    0.0476    0.0213 O   0  5  0  0  0  0  0  0  0  0  0  0
    5.4458   -1.9986    0.1733 O   0  0  0  0  0  0  0  0  0  0  0  0
    0.0365    1.2582   -0.0849 N   0  0  0  0  0  0  0  0  0  0  0  0
   -1.0237    0.4335   -0.0282 N   0  0  0  0  0  0  0  0  0  0  0  0
    5.2795   -0.7591    0.0794 N   0  3  0  0  0  0  0  0  0  0  0  0
    1.3446    0.7549   -0.0437 C   0  0  0  0  0  0  0  0  0  0  0  0
    2.4377    1.6255   -0.1059 C   0  0  0  0  0  0  0  0  0  0  0  0
    1.5678   -0.6223    0.0597 C   0  0  0  0  0  0  0  0  0  0  0  0
    3.9548   -0.2495    0.0380 C   0  0  0  0  0  0  0  0  0  0  0  0
   -3.4069    0.1003   -0.0213 C   0  0  0  0  0  0  0  0  0  0  0  0
    3.7390    1.1248   -0.0653 C   0  0  0  0  0  0  0  0  0  0  0  0
    2.8691   -1.1230    0.1005 C   0  0  0  0  0  0  0  0  0  0  0  0
   -3.3507   -1.1931   -0.5408 C   0  0  0  0  0  0  0  0  0  0  0  0
   -4.5903    0.5734    0.5457 C   0  0  0  0  0  0  0  0  0  0  0  0
   -2.2315    0.9550   -0.0703 C   0  0  0  0  0  0  0  0  0  0  0  0
   -4.4780   -2.0132   -0.4937 C   0  0  0  0  0  0  0  0  0  0  0  0
   -5.7175   -0.2470    0.5929 C   0  0  0  0  0  0  0  0  0  0  0  0
   -5.6613   -1.5402    0.0733 C   0  0  0  0  0  0  0  0  0  0  0  0
    2.2838    2.6989   -0.1866 H   0  0  0  0  0  0  0  0  0  0  0  0
    0.7458   -1.3317    0.1105 H   0  0  0  0  0  0  0  0  0  0  0  0
    4.5600    1.8354   -0.1164 H   0  0  0  0  0  0  0  0  0  0  0  0
    2.9989   -2.1993    0.1812 H   0  0  0  0  0  0  0  0  0  0  0  0
   -0.0981    2.2598   -0.1594 H   0  0  0  0  0  0  0  0  0  0  0  0
   -2.4419   -1.5814   -0.9933 H   0  0  0  0  0  0  0  0  0  0  0  0
   -4.6681    1.5639    0.9832 H   0  0  0  0  0  0  0  0  0  0  0  0
   -4.4349   -3.0198   -0.8995 H   0  0  0  0  0  0  0  0  0  0  0  0
   -6.6377    0.1188    1.0393 H   0  0  0  0  0  0  0  0  0  0  0  0
   -6.5387   -2.1792    0.1111 H   0  0  0  0  0  0  0  0  0  0  0  0
  1 16  1  0  0  0  0
  2  6  1  0  0  0  0
  3  6  2  0  0  0  0
  4  5  1  0  0  0  0
  4  7  1  0  0  0  0
  4 24  1  0  0  0  0
  5 16  2  0  0  0  0
  6 10  1  0  0  0  0
  7  8  2  0  0  0  0
  7  9  1  0  0  0  0
  8 12  1  0  0  0  0
  8 20  1  0  0  0  0
  9 13  2  0  0  0  0
  9 21  1  0  0  0  0
 10 12  2  0  0  0  0
 10 13  1  0  0  0  0
 11 14  2  0  0  0  0
 11 15  1  0  0  0  0
 11 16  1  0  0  0  0
 12 22  1  0  0  0  0
 13 23  1  0  0  0  0
 14 17  1  0  0  0  0
 14 25  1  0  0  0  0
 15 18  2  0  0  0  0
 15 26  1  0  0  0  0
 17 19  2  0  0  0  0
 17 27  1  0  0  0  0
 18 19  1  0  0  0  0
 18 28  1  0  0  0  0
 19 29  1  0  0  0  0
M  CHG  2   2  -1   6   1
M  END
> <PUBCHEM_COMPOUND_CID>
13753

> <PUBCHEM_CONFORMER_RMSD>
0.6

> <PUBCHEM_CONFORMER_DIVERSEORDER>
1
4
3
2

> <PUBCHEM_MMFF94_PARTIAL_CHARGES>
29
1 -0.14
10 0.13
11 0.09
12 -0.15
13 -0.15
14 -0.15
15 -0.15
16 0.51
17 -0.15
18 -0.15
19 -0.15
2 -0.52
20 0.15
21 0.15
22 0.15
23 0.15
24 0.4
25 0.15
26 0.15
27 0.15
28 0.15
29 0.15
3 -0.52
4 -0.46
5 -0.49
6 0.91
7 0.1
8 -0.15
9 -0.15

> <PUBCHEM_EFFECTIVE_ROTOR_COUNT>
4

> <PUBCHEM_PHARMACOPHORE_FEATURES>
8
1 1 hydrophobe
1 2 acceptor
1 2 anion
1 3 acceptor
1 4 donor
1 5 acceptor
6 11 14 15 17 18 19 rings
6 7 8 9 10 12 13 rings

> <PUBCHEM_HEAVY_ATOM_COUNT>
19

> <PUBCHEM_ATOM_DEF_STEREO_COUNT>
0

> <PUBCHEM_ATOM_UDEF_STEREO_COUNT>
0

> <PUBCHEM_BOND_DEF_STEREO_COUNT>
0

> <PUBCHEM_BOND_UDEF_STEREO_COUNT>
1

> <PUBCHEM_ISOTOPIC_ATOM_COUNT>
0

> <PUBCHEM_COMPONENT_COUNT>
1

> <PUBCHEM_CACTVS_TAUTO_COUNT>
1

> <PUBCHEM_CONFORMER_ID>
000035B900000001

> <PUBCHEM_MMFF94_ENERGY>
67.1184

> <PUBCHEM_FEATURE_SELFOVERLAP>
40.675

> <PUBCHEM_SHAPE_FINGERPRINT>
10595046 47 18413668007141885844
11045515 52 18060142020678861709
11315181 36 18186799158854274601
11524674 6 16587744239597844191
12107183 9 17761490696171253825
12236239 1 18334855013182600929
12596602 18 17240765047115330627
12616971 3 15213310711622685232
12633257 1 16588307133858705421
12760667 363 18334580140245714629
12916754 54 18411136931010988865
13167823 11 18411420609120675923
13288520 33 18411136927211283149
13551218 46 18335136510009110271
13862211 1 18272655679745225322
1420 363 18060696186843147043
14341114 176 18409445899301609116
14350574 20 18202282493874823900
15196674 1 18409730625700327695
15352361 1 18411138009295102365
15880784 105 18114461163270223835
17780758 139 18040432201082193753
17834072 33 18413386523364101140
17844677 252 18410287016991385256
17857418 61 18410576188559500699
1813 80 17703790289152110797
18222031 100 17632581535096647372
19489759 90 11600005444740030215
200 152 18408041809962464473
20028762 73 18334861597589901878
20645477 56 8718826488076716149
21267235 1 18411411813038255182
21426921 1 18340488971331256349
21709351 56 17989490740018211757
22950370 63 18338231575211639829
23402539 116 18343304768990742173
23522609 53 18123718002936006716
23559900 14 18410583859709188833
26918003 58 17894911836819037713
2838139 119 9511463307706373371
2871803 45 18130795542271871307
3004659 81 18130512959309662225
350125 39 18408885131239345724
351380 3 18342459235732369923
4073 2 18129938962389327706
4214541 1 18410011070032963609
4325135 7 18342453725837676364
465052 167 18334572452159549734
5104073 3 18260266326329610921
542803 24 10735882759427628265
559249 180 18409731773068590391
7495541 125 17894634721165677936

> <PUBCHEM_SHAPE_MULTIPOLES>
370.27
15
2.3
0.68
5.9
0.81
0
-7.34
1.22
-1.26
-0.25
-0.38
-0.01
-0.42

> <PUBCHEM_SHAPE_SELFOVERLAP>
776.444

> <PUBCHEM_SHAPE_VOLUME>
213.8

> <PUBCHEM_COORDINATE_TYPE>
2
5
10

$$$$

