13478
  -OEChem-06261214373D

 36 36  0     0  0  0  0  0  0999 V2000
   -1.7093   -2.5471   -0.0002 O   0  0  0  0  0  0  0  0  0  0  0  0
   -2.9323    1.6405    0.0008 O   0  0  0  0  0  0  0  0  0  0  0  0
    3.7778    0.0031    0.0007 O   0  0  0  0  0  0  0  0  0  0  0  0
    0.4721   -3.2822   -0.0031 O   0  0  0  0  0  0  0  0  0  0  0  0
   -1.4898    3.4344    0.0013 O   0  0  0  0  0  0  0  0  0  0  0  0
    3.3233    2.2597   -0.0006 O   0  0  0  0  0  0  0  0  0  0  0  0
   -1.0317   -0.0765   -0.0021 N   0  0  0  0  0  0  0  0  0  0  0  0
    1.2994   -0.6458   -0.0029 N   0  0  0  0  0  0  0  0  0  0  0  0
    0.6268    1.6575   -0.0017 N   0  0  0  0  0  0  0  0  0  0  0  0
   -0.0092   -0.9470   -0.0028 C   0  0  0  0  0  0  0  0  0  0  0  0
   -0.6383    1.2073   -0.0017 C   0  0  0  0  0  0  0  0  0  0  0  0
    1.5419    0.6749   -0.0025 C   0  0  0  0  0  0  0  0  0  0  0  0
   -2.1754   -3.9007    0.0016 C   0  0  0  0  0  0  0  0  0  0  0  0
   -4.0539    2.5302    0.0018 C   0  0  0  0  0  0  0  0  0  0  0  0
    5.1831    0.2764    0.0035 C   0  0  0  0  0  0  0  0  0  0  0  0
   -0.3528   -2.3552   -0.0025 C   0  0  0  0  0  0  0  0  0  0  0  0
   -1.6859    2.2090    0.0006 C   0  0  0  0  0  0  0  0  0  0  0  0
    2.9329    1.0817   -0.0012 C   0  0  0  0  0  0  0  0  0  0  0  0
   -3.6892   -3.9009    0.0041 C   0  0  0  0  0  0  0  0  0  0  0  0
   -5.3298    1.7154    0.0018 C   0  0  0  0  0  0  0  0  0  0  0  0
    5.9404   -1.0344    0.0052 C   0  0  0  0  0  0  0  0  0  0  0  0
   -1.8020   -4.4124    0.8953 H   0  0  0  0  0  0  0  0  0  0  0  0
   -1.8049   -4.4137   -0.8927 H   0  0  0  0  0  0  0  0  0  0  0  0
   -4.0167    3.1627   -0.8919 H   0  0  0  0  0  0  0  0  0  0  0  0
   -4.0160    3.1617    0.8961 H   0  0  0  0  0  0  0  0  0  0  0  0
    5.4390    0.8548    0.8979 H   0  0  0  0  0  0  0  0  0  0  0  0
    5.4425    0.8546   -0.8901 H   0  0  0  0  0  0  0  0  0  0  0  0
   -4.0760   -3.3750   -0.8751 H   0  0  0  0  0  0  0  0  0  0  0  0
   -4.0731   -3.3737    0.8837 H   0  0  0  0  0  0  0  0  0  0  0  0
   -4.0803   -4.9222    0.0055 H   0  0  0  0  0  0  0  0  0  0  0  0
   -5.3708    1.0639    0.8809 H   0  0  0  0  0  0  0  0  0  0  0  0
   -5.3713    1.0647   -0.8779 H   0  0  0  0  0  0  0  0  0  0  0  0
   -6.2092    2.3655    0.0024 H   0  0  0  0  0  0  0  0  0  0  0  0
    5.6790   -1.6315   -0.8747 H   0  0  0  0  0  0  0  0  0  0  0  0
    5.6755   -1.6312    0.8842 H   0  0  0  0  0  0  0  0  0  0  0  0
    7.0203   -0.8623    0.0073 H   0  0  0  0  0  0  0  0  0  0  0  0
  1 13  1  0  0  0  0
  1 16  1  0  0  0  0
  2 14  1  0  0  0  0
  2 17  1  0  0  0  0
  3 15  1  0  0  0  0
  3 18  1  0  0  0  0
  4 16  2  0  0  0  0
  5 17  2  0  0  0  0
  6 18  2  0  0  0  0
  7 10  2  0  0  0  0
  7 11  1  0  0  0  0
  8 10  1  0  0  0  0
  8 12  2  0  0  0  0
  9 11  2  0  0  0  0
  9 12  1  0  0  0  0
 10 16  1  0  0  0  0
 11 17  1  0  0  0  0
 12 18  1  0  0  0  0
 13 19  1  0  0  0  0
 13 22  1  0  0  0  0
 13 23  1  0  0  0  0
 14 20  1  0  0  0  0
 14 24  1  0  0  0  0
 14 25  1  0  0  0  0
 15 21  1  0  0  0  0
 15 26  1  0  0  0  0
 15 27  1  0  0  0  0
 19 28  1  0  0  0  0
 19 29  1  0  0  0  0
 19 30  1  0  0  0  0
 20 31  1  0  0  0  0
 20 32  1  0  0  0  0
 20 33  1  0  0  0  0
 21 34  1  0  0  0  0
 21 35  1  0  0  0  0
 21 36  1  0  0  0  0
M  END
> <PUBCHEM_COMPOUND_CID>
13478

> <PUBCHEM_CONFORMER_RMSD>
0.8

> <PUBCHEM_CONFORMER_DIVERSEORDER>
1
11
10
8
2
5
7
9
6
4
3

> <PUBCHEM_MMFF94_PARTIAL_CHARGES>
18
1 -0.43
10 0.71
11 0.71
12 0.71
13 0.28
14 0.28
15 0.28
16 0.63
17 0.63
18 0.63
2 -0.43
3 -0.43
4 -0.57
5 -0.57
6 -0.57
7 -0.62
8 -0.62
9 -0.62

> <PUBCHEM_EFFECTIVE_ROTOR_COUNT>
9

> <PUBCHEM_PHARMACOPHORE_FEATURES>
7
1 4 acceptor
1 5 acceptor
1 6 acceptor
3 7 8 10 cation
3 7 9 11 cation
3 8 9 12 cation
6 7 8 9 10 11 12 rings

> <PUBCHEM_HEAVY_ATOM_COUNT>
21

> <PUBCHEM_ATOM_DEF_STEREO_COUNT>
0

> <PUBCHEM_ATOM_UDEF_STEREO_COUNT>
0

> <PUBCHEM_BOND_DEF_STEREO_COUNT>
0

> <PUBCHEM_BOND_UDEF_STEREO_COUNT>
0

> <PUBCHEM_ISOTOPIC_ATOM_COUNT>
0

> <PUBCHEM_COMPONENT_COUNT>
1

> <PUBCHEM_CACTVS_TAUTO_COUNT>
1

> <PUBCHEM_CONFORMER_ID>
000034A600000001

> <PUBCHEM_MMFF94_ENERGY>
37.1783

> <PUBCHEM_FEATURE_SELFOVERLAP>
38.293

> <PUBCHEM_SHAPE_FINGERPRINT>
10050765 1 18338797798368250420
10411042 1 18050567339726307011
1100329 8 18410012126178356000
12293681 25 17678153045051439126
12553582 1 17688597065691326686
12592029 89 18195808689986120128
12788726 201 17982738476303890410
13004483 165 18120662323009907106
13052359 8 18411699885327423051
13140716 1 18336550417305675784
138480 1 17041481086101006279
14178342 30 18268733670440136330
14790565 3 18050001392301989832
14866123 147 18411420613421678347
14931854 50 18193588639372813895
15042514 8 18411135809876266467
15927050 60 18337673147305608007
19427546 20 18270107995286719604
19591789 44 17978508964188388982
20645477 70 17982738777463823165
21236236 1 18335984186113076815
21307412 95 17898829487523834182
21478907 32 18266741290134154602
21524375 3 18129094687978417824
21781051 124 18056730295657026739
23402539 116 18334303092668714460
23419403 2 17169276923033480401
23558518 356 18199748042695951056
23559900 14 18409172134830580784
25147074 1 17988363651344508924
3091708 16 9272619712550669192
335352 9 18338516443491894708
352729 6 18409443691662116644
474229 33 18340204193339792865
5104073 3 18335148549350639072
532947 4 17903633326412652358
54173680 148 18338798901193208928
5486654 2 18410008879568117709
6138700 20 17977099395178129190
7164475 11 18196371416696258804
7364860 26 17834113426264292585
81228 2 18055921982933381784

> <PUBCHEM_SHAPE_MULTIPOLES>
382.01
9.74
5.1
0.58
8.21
4.56
0
-2.21
-0.02
-7.37
0
-0.01
0.01
0

> <PUBCHEM_SHAPE_SELFOVERLAP>
778.307

> <PUBCHEM_SHAPE_VOLUME>
217.3

> <PUBCHEM_COORDINATE_TYPE>
2
5
10

$$$$

