13128
  -OEChem-06261207473D

 18 17  0     0  0  0  0  0  0999 V2000
    1.4908    0.3269    0.9572 N   0  0  0  0  0  0  0  0  0  0  0  0
   -2.1048   -0.0280   -0.0832 N   0  0  0  0  0  0  0  0  0  0  0  0
    0.4112    0.0006    0.0118 C   0  0  0  0  0  0  0  0  0  0  0  0
   -0.9300    0.2955    0.7229 C   0  0  0  0  0  0  0  0  0  0  0  0
    0.5388   -1.4801   -0.3784 C   0  0  0  0  0  0  0  0  0  0  0  0
    0.5941    0.8851   -1.2303 C   0  0  0  0  0  0  0  0  0  0  0  0
   -0.9858    1.3537    1.0077 H   0  0  0  0  0  0  0  0  0  0  0  0
   -0.9939   -0.2857    1.6514 H   0  0  0  0  0  0  0  0  0  0  0  0
    0.4047   -2.1344    0.4908 H   0  0  0  0  0  0  0  0  0  0  0  0
    1.5255   -1.6941   -0.8063 H   0  0  0  0  0  0  0  0  0  0  0  0
   -0.2082   -1.7635   -1.1281 H   0  0  0  0  0  0  0  0  0  0  0  0
    0.4824    1.9479   -0.9858 H   0  0  0  0  0  0  0  0  0  0  0  0
    1.5892    0.7493   -1.6709 H   0  0  0  0  0  0  0  0  0  0  0  0
   -0.1372    0.6427   -2.0090 H   0  0  0  0  0  0  0  0  0  0  0  0
    1.3922   -0.2329    1.8035 H   0  0  0  0  0  0  0  0  0  0  0  0
    1.4148    1.3007    1.2493 H   0  0  0  0  0  0  0  0  0  0  0  0
   -2.1287    0.5643   -0.9118 H   0  0  0  0  0  0  0  0  0  0  0  0
   -2.9472    0.1941    0.4461 H   0  0  0  0  0  0  0  0  0  0  0  0
  1  3  1  0  0  0  0
  1 15  1  0  0  0  0
  1 16  1  0  0  0  0
  2  4  1  0  0  0  0
  2 17  1  0  0  0  0
  2 18  1  0  0  0  0
  3  4  1  0  0  0  0
  3  5  1  0  0  0  0
  3  6  1  0  0  0  0
  4  7  1  0  0  0  0
  4  8  1  0  0  0  0
  5  9  1  0  0  0  0
  5 10  1  0  0  0  0
  5 11  1  0  0  0  0
  6 12  1  0  0  0  0
  6 13  1  0  0  0  0
  6 14  1  0  0  0  0
M  END
> <PUBCHEM_COMPOUND_CID>
13128

> <PUBCHEM_CONFORMER_RMSD>
0.4

> <PUBCHEM_CONFORMER_DIVERSEORDER>
1
2
3

> <PUBCHEM_MMFF94_PARTIAL_CHARGES>
8
1 -0.99
15 0.36
16 0.36
17 0.36
18 0.36
2 -0.99
3 0.27
4 0.27

> <PUBCHEM_EFFECTIVE_ROTOR_COUNT>
1

> <PUBCHEM_PHARMACOPHORE_FEATURES>
5
1 1 cation
1 1 donor
1 2 cation
1 2 donor
3 3 5 6 hydrophobe

> <PUBCHEM_HEAVY_ATOM_COUNT>
6

> <PUBCHEM_ATOM_DEF_STEREO_COUNT>
0

> <PUBCHEM_ATOM_UDEF_STEREO_COUNT>
0

> <PUBCHEM_BOND_DEF_STEREO_COUNT>
0

> <PUBCHEM_BOND_UDEF_STEREO_COUNT>
0

> <PUBCHEM_ISOTOPIC_ATOM_COUNT>
0

> <PUBCHEM_COMPONENT_COUNT>
1

> <PUBCHEM_CACTVS_TAUTO_COUNT>
1

> <PUBCHEM_CONFORMER_ID>
0000334800000001

> <PUBCHEM_MMFF94_ENERGY>
-1.3199

> <PUBCHEM_FEATURE_SELFOVERLAP>
25.371

> <PUBCHEM_SHAPE_FINGERPRINT>
137420 1 8713248884205118220
139733 1 9941793424133475327
20096714 4 17344044291783830965
21040471 1 18262231114874527899
24536 1 18128796664571505777
29004967 10 17627191840444464722
5943 1 8311728300360980958

> <PUBCHEM_SHAPE_MULTIPOLES>
113.52
1.81
1.16
1.1
1.04
0.11
0.1
-0.03
0.16
-0.36
-0.44
-0.29
-0.07
-0.02

> <PUBCHEM_SHAPE_SELFOVERLAP>
198.866

> <PUBCHEM_SHAPE_VOLUME>
75.5

> <PUBCHEM_COORDINATE_TYPE>
2
5
10

$$$$

