7050
  -OEChem-06261201412D

 34 35  0     0  0  0  0  0  0999 V2000
    7.2241    0.8020    0.0000 O   0  0  0  0  0  0  0  0  0  0  0  0
    8.9942    0.7914    0.0000 O   0  0  0  0  0  0  0  0  0  0  0  0
    3.7320    0.7673    0.0000 N   0  0  0  0  0  0  0  0  0  0  0  0
    4.5981    0.2673    0.0000 C   0  0  0  0  0  0  0  0  0  0  0  0
    2.8660    0.2673    0.0000 C   0  0  0  0  0  0  0  0  0  0  0  0
    3.7320    1.7673    0.0000 C   0  0  0  0  0  0  0  0  0  0  0  0
    6.3301   -0.7327    0.0000 C   0  0  0  0  0  0  0  0  0  0  0  0
    6.3301    0.2673    0.0000 C   0  0  0  0  0  0  0  0  0  0  0  0
    5.4641    0.7673    0.0000 C   0  0  0  0  0  0  0  0  0  0  0  0
    4.5981   -0.7327    0.0000 C   0  0  0  0  0  0  0  0  0  0  0  0
    5.4641   -1.2327    0.0000 C   0  0  0  0  0  0  0  0  0  0  0  0
    7.2241   -1.2674    0.0000 C   0  0  0  0  0  0  0  0  0  0  0  0
    2.0000    0.7673    0.0000 C   0  0  0  0  0  0  0  0  0  0  0  0
    2.8660    2.2673    0.0000 C   0  0  0  0  0  0  0  0  0  0  0  0
    8.1301   -0.7535    0.0000 C   0  0  0  0  0  0  0  0  0  0  0  0
    7.2125   -2.2673    0.0000 C   0  0  0  0  0  0  0  0  0  0  0  0
    8.1301    0.2881    0.0000 C   0  0  0  0  0  0  0  0  0  0  0  0
    2.4675   -0.2076    0.0000 H   0  0  0  0  0  0  0  0  0  0  0  0
    3.2646   -0.2076    0.0000 H   0  0  0  0  0  0  0  0  0  0  0  0
    4.3426    1.6596    0.0000 H   0  0  0  0  0  0  0  0  0  0  0  0
    3.9441    2.3499    0.0000 H   0  0  0  0  0  0  0  0  0  0  0  0
    5.4641    1.3873    0.0000 H   0  0  0  0  0  0  0  0  0  0  0  0
    4.0611   -1.0427    0.0000 H   0  0  0  0  0  0  0  0  0  0  0  0
    5.4641   -1.8527    0.0000 H   0  0  0  0  0  0  0  0  0  0  0  0
    3.1760    2.8042    0.0000 H   0  0  0  0  0  0  0  0  0  0  0  0
    2.3291    2.5773    0.0000 H   0  0  0  0  0  0  0  0  0  0  0  0
    2.5560    1.7304    0.0000 H   0  0  0  0  0  0  0  0  0  0  0  0
    2.3100    1.3042    0.0000 H   0  0  0  0  0  0  0  0  0  0  0  0
    1.4631    1.0773    0.0000 H   0  0  0  0  0  0  0  0  0  0  0  0
    1.6900    0.2304    0.0000 H   0  0  0  0  0  0  0  0  0  0  0  0
    8.6659   -1.0656    0.0000 H   0  0  0  0  0  0  0  0  0  0  0  0
    6.5926   -2.2601    0.0000 H   0  0  0  0  0  0  0  0  0  0  0  0
    7.2053   -2.8873    0.0000 H   0  0  0  0  0  0  0  0  0  0  0  0
    7.8325   -2.2745    0.0000 H   0  0  0  0  0  0  0  0  0  0  0  0
  1  8  1  0  0  0  0
  1 17  1  0  0  0  0
  2 17  2  0  0  0  0
  3  4  1  0  0  0  0
  3  5  1  0  0  0  0
  3  6  1  0  0  0  0
  4  9  2  0  0  0  0
  4 10  1  0  0  0  0
  5 13  1  0  0  0  0
  5 18  1  0  0  0  0
  5 19  1  0  0  0  0
  6 14  1  0  0  0  0
  6 20  1  0  0  0  0
  6 21  1  0  0  0  0
  7  8  2  0  0  0  0
  7 11  1  0  0  0  0
  7 12  1  0  0  0  0
  8  9  1  0  0  0  0
  9 22  1  0  0  0  0
 10 11  2  0  0  0  0
 10 23  1  0  0  0  0
 11 24  1  0  0  0  0
 12 15  2  0  0  0  0
 12 16  1  0  0  0  0
 13 28  1  0  0  0  0
 13 29  1  0  0  0  0
 13 30  1  0  0  0  0
 14 25  1  0  0  0  0
 14 26  1  0  0  0  0
 14 27  1  0  0  0  0
 15 17  1  0  0  0  0
 15 31  1  0  0  0  0
 16 32  1  0  0  0  0
 16 33  1  0  0  0  0
 16 34  1  0  0  0  0
M  END
> <PUBCHEM_COMPOUND_CID>
7050

> <PUBCHEM_COMPOUND_CANONICALIZED>
1

> <PUBCHEM_CACTVS_COMPLEXITY>
320

> <PUBCHEM_CACTVS_HBOND_ACCEPTOR>
3

> <PUBCHEM_CACTVS_HBOND_DONOR>
0

> <PUBCHEM_CACTVS_ROTATABLE_BOND>
3

> <PUBCHEM_CACTVS_SUBSKEYS>
AAADceByMAAAAAAAAAAAAAAAAAAAAAAAAAAwQAAAAAAAAACBAAAAHgAAAAAADAzBmAQyzoMABACIAiTSSACCCAAhIgAIiAAObMgMJiLEsZuGOijmwBnI6QeQ0KMOCAAAAgAIAAAQAAAEABAAAAAAAAAAAA==

> <PUBCHEM_IUPAC_OPENEYE_NAME>
7-(diethylamino)-4-methyl-chromen-2-one

> <PUBCHEM_IUPAC_CAS_NAME>
7-(diethylamino)-4-methyl-1-benzopyran-2-one

> <PUBCHEM_IUPAC_NAME>
7-(diethylamino)-4-methylchromen-2-one

> <PUBCHEM_IUPAC_SYSTEMATIC_NAME>
7-(diethylamino)-4-methyl-chromen-2-one

> <PUBCHEM_IUPAC_TRADITIONAL_NAME>
7-(diethylamino)-4-methyl-coumarin

> <PUBCHEM_IUPAC_INCHI>
InChI=1S/C14H17NO2/c1-4-15(5-2)11-6-7-12-10(3)8-14(16)17-13(12)9-11/h6-9H,4-5H2,1-3H3

> <PUBCHEM_IUPAC_INCHIKEY>
AFYCEAFSNDLKSX-UHFFFAOYSA-N

> <PUBCHEM_XLOGP3>
3.1

> <PUBCHEM_EXACT_MASS>
231.125929

> <PUBCHEM_MOLECULAR_FORMULA>
C14H17NO2

> <PUBCHEM_MOLECULAR_WEIGHT>
231.29028

> <PUBCHEM_OPENEYE_CAN_SMILES>
CCN(CC)C1=CC2=C(C=C1)C(=CC(=O)O2)C

> <PUBCHEM_OPENEYE_ISO_SMILES>
CCN(CC)C1=CC2=C(C=C1)C(=CC(=O)O2)C

> <PUBCHEM_CACTVS_TPSA>
29.5

> <PUBCHEM_MONOISOTOPIC_WEIGHT>
231.125929

> <PUBCHEM_TOTAL_CHARGE>
0

> <PUBCHEM_HEAVY_ATOM_COUNT>
17

> <PUBCHEM_ATOM_DEF_STEREO_COUNT>
0

> <PUBCHEM_ATOM_UDEF_STEREO_COUNT>
0

> <PUBCHEM_BOND_DEF_STEREO_COUNT>
0

> <PUBCHEM_BOND_UDEF_STEREO_COUNT>
0

> <PUBCHEM_ISOTOPIC_ATOM_COUNT>
0

> <PUBCHEM_COMPONENT_COUNT>
1

> <PUBCHEM_CACTVS_TAUTO_COUNT>
1

> <PUBCHEM_COORDINATE_TYPE>
1
5
255

> <PUBCHEM_BONDANNOTATIONS>
1  17  8
1  8  8
10  11  8
12  15  8
15  17  8
4  10  8
4  9  8
7  11  8
7  12  8
7  8  8
8  9  8

$$$$

