17395962
  -OEChem-06241222533D

 33 35  0     0  0  0  0  0  0999 V2000
   -3.5956    0.9843    0.4981 S   0  0  0  0  0  0  0  0  0  0  0  0
   -6.2160    0.0522   -0.8301 O   0  0  0  0  0  0  0  0  0  0  0  0
    1.0376   -1.0898    0.3326 N   0  0  0  0  0  0  0  0  0  0  0  0
   -1.2220   -0.2267    0.4378 N   0  0  0  0  0  0  0  0  0  0  0  0
    0.0587    2.2474   -0.0966 N   0  0  0  0  0  0  0  0  0  0  0  0
   -1.2482    2.1771    0.0547 N   0  0  0  0  0  0  0  0  0  0  0  0
    2.2943   -0.5633    0.1139 C   0  0  0  0  0  0  0  0  0  0  0  0
    2.1449    0.8135   -0.0901 C   0  0  0  0  0  0  0  0  0  0  0  0
    0.1025   -0.0959    0.2741 C   0  0  0  0  0  0  0  0  0  0  0  0
    0.7578    1.0920    0.0133 C   0  0  0  0  0  0  0  0  0  0  0  0
    0.7489   -2.4853    0.5867 C   0  0  0  0  0  0  0  0  0  0  0  0
    3.5417   -1.1971    0.0818 C   0  0  0  0  0  0  0  0  0  0  0  0
    3.2932    1.5917   -0.3371 C   0  0  0  0  0  0  0  0  0  0  0  0
    0.4865   -3.2605   -0.6930 C   0  0  0  0  0  0  0  0  0  0  0  0
    4.6660   -0.4038   -0.1644 C   0  0  0  0  0  0  0  0  0  0  0  0
    4.5459    0.9689   -0.3713 C   0  0  0  0  0  0  0  0  0  0  0  0
   -1.8207    0.9735    0.3095 C   0  0  0  0  0  0  0  0  0  0  0  0
   -4.0371   -0.6733   -0.0935 C   0  0  0  0  0  0  0  0  0  0  0  0
   -5.5385   -0.9049   -0.0266 C   0  0  0  0  0  0  0  0  0  0  0  0
    1.5866   -2.9205    1.1410 H   0  0  0  0  0  0  0  0  0  0  0  0
   -0.1251   -2.5357    1.2459 H   0  0  0  0  0  0  0  0  0  0  0  0
    3.6485   -2.2653    0.2369 H   0  0  0  0  0  0  0  0  0  0  0  0
    3.2149    2.6628   -0.5000 H   0  0  0  0  0  0  0  0  0  0  0  0
   -0.3665   -2.8444   -1.2396 H   0  0  0  0  0  0  0  0  0  0  0  0
    0.2663   -4.3076   -0.4638 H   0  0  0  0  0  0  0  0  0  0  0  0
    1.3554   -3.2324   -1.3587 H   0  0  0  0  0  0  0  0  0  0  0  0
    5.6491   -0.8667   -0.1963 H   0  0  0  0  0  0  0  0  0  0  0  0
    5.4349    1.5644   -0.5616 H   0  0  0  0  0  0  0  0  0  0  0  0
   -3.6965   -0.7636   -1.1305 H   0  0  0  0  0  0  0  0  0  0  0  0
   -3.5321   -1.4336    0.5104 H   0  0  0  0  0  0  0  0  0  0  0  0
   -5.9082   -0.8286    1.0017 H   0  0  0  0  0  0  0  0  0  0  0  0
   -5.7787   -1.9034   -0.4061 H   0  0  0  0  0  0  0  0  0  0  0  0
   -7.1666   -0.1414   -0.7635 H   0  0  0  0  0  0  0  0  0  0  0  0
  1 17  1  0  0  0  0
  1 18  1  0  0  0  0
  2 19  1  0  0  0  0
  2 33  1  0  0  0  0
  3  7  1  0  0  0  0
  3  9  1  0  0  0  0
  3 11  1  0  0  0  0
  4  9  1  0  0  0  0
  4 17  2  0  0  0  0
  5  6  2  0  0  0  0
  5 10  1  0  0  0  0
  6 17  1  0  0  0  0
  7  8  1  0  0  0  0
  7 12  2  0  0  0  0
  8 10  1  0  0  0  0
  8 13  2  0  0  0  0
  9 10  2  0  0  0  0
 11 14  1  0  0  0  0
 11 20  1  0  0  0  0
 11 21  1  0  0  0  0
 12 15  1  0  0  0  0
 12 22  1  0  0  0  0
 13 16  1  0  0  0  0
 13 23  1  0  0  0  0
 14 24  1  0  0  0  0
 14 25  1  0  0  0  0
 14 26  1  0  0  0  0
 15 16  2  0  0  0  0
 15 27  1  0  0  0  0
 16 28  1  0  0  0  0
 18 19  1  0  0  0  0
 18 29  1  0  0  0  0
 18 30  1  0  0  0  0
 19 31  1  0  0  0  0
 19 32  1  0  0  0  0
M  END
> <PUBCHEM_COMPOUND_CID>
17395962

> <PUBCHEM_CONFORMER_RMSD>
0.6

> <PUBCHEM_CONFORMER_DIVERSEORDER>
1
34
36
29
7
24
21
27
18
32
23
6
33
19
14
31
4
20
16
15
8
22
28
26
30
2
3
25
9
10
35
13
17
5
12
11

> <PUBCHEM_MMFF94_PARTIAL_CHARGES>
22
1 -0.33
10 0.26
11 0.26
12 -0.15
13 -0.15
15 -0.15
16 -0.15
17 0.72
18 0.23
19 0.28
2 -0.68
22 0.15
23 0.15
27 0.15
28 0.15
3 0.05
33 0.4
4 -0.57
5 -0.26
6 -0.31
7 -0.15
9 0.11

> <PUBCHEM_EFFECTIVE_ROTOR_COUNT>
4

> <PUBCHEM_PHARMACOPHORE_FEATURES>
7
1 2 acceptor
1 2 donor
1 3 cation
3 4 6 17 cation
5 3 7 8 9 10 rings
6 4 5 6 9 10 17 rings
6 7 8 12 13 15 16 rings

> <PUBCHEM_HEAVY_ATOM_COUNT>
19

> <PUBCHEM_ATOM_DEF_STEREO_COUNT>
0

> <PUBCHEM_ATOM_UDEF_STEREO_COUNT>
0

> <PUBCHEM_BOND_DEF_STEREO_COUNT>
0

> <PUBCHEM_BOND_UDEF_STEREO_COUNT>
0

> <PUBCHEM_ISOTOPIC_ATOM_COUNT>
0

> <PUBCHEM_COMPONENT_COUNT>
1

> <PUBCHEM_CACTVS_TAUTO_COUNT>
1

> <PUBCHEM_CONFORMER_ID>
010970FA00000001

> <PUBCHEM_MMFF94_ENERGY>
34.8362

> <PUBCHEM_FEATURE_SELFOVERLAP>
35.744

> <PUBCHEM_SHAPE_FINGERPRINT>
10447042 23 18412835693760741071
10616163 171 18336545027432643603
10906281 52 18270661148203369697
10967382 1 18412258459078324528
11471102 20 18342457032213595953
11578080 2 16627433478192261678
11806522 49 18410854369301693545
11961588 58 17985801814963261398
12236239 1 18040432187944174809
12403260 363 18342457101534420552
12839892 36 18265911317937896130
13083527 12 17914914250951560450
13836976 161 18342454824589811223
13862211 1 18412265047110049634
14178342 30 17976832204797973480
14251717 144 18411418414550714739
14576447 43 18408891715714055559
14790565 3 18409441466953745649
15131766 46 15695446428039002924
15183329 4 18339374058725931405
15196674 1 18411698819975255553
16945 1 17979350090879004224
19591789 44 18409447011745715438
200 152 18334577945396295369
20028762 73 18260833734607531694
20645477 70 18341051912393614375
21054139 6 18334864891998096855
21267235 1 18410283718550960307
21521721 280 18261668160657905329
21524375 3 18412822499885068730
21623969 137 18270384037362143419
23402539 116 18408888446748064748
23402655 69 18412267255218994901
23559900 14 18339644421372150408
2748010 2 18340752768211371074
2871803 45 18341614840924699853
29717793 49 18113898286405183893
3060560 45 18411419488171245614
335352 9 18412259516062259836
33824 294 18412826901704411618
34934 24 18269839705790834186
4072396 5 18201734950079857154
474229 33 18410854347779410290
5104073 3 18410853304102403793
5283173 99 17916596465583360533
602551 16 15719685259882060021
69090 78 18410571769496998170
7364860 26 17976816816056862298
9709674 26 18269263733011658067

> <PUBCHEM_SHAPE_MULTIPOLES>
369.07
10.27
2.59
0.73
11.79
1.45
-0.01
-0.06
-1.82
-0.73
-0.21
0.17
0.11
-0.39

> <PUBCHEM_SHAPE_SELFOVERLAP>
785.822

> <PUBCHEM_SHAPE_VOLUME>
209.1

> <PUBCHEM_COORDINATE_TYPE>
2
5
10

$$$$

