5171
  -OEChem-06261200333D

 38 41  0     0  0  0  0  0  0999 V2000
    5.6940    0.5769   -0.5522 F   0  0  0  0  0  0  0  0  0  0  0  0
   -1.6167   -1.4709    0.5108 N   0  0  0  0  0  0  0  0  0  0  0  0
    0.2369   -2.6809    0.3315 N   0  0  0  0  0  0  0  0  0  0  0  0
   -1.1738    3.6212    0.1831 N   0  0  0  0  0  0  0  0  0  0  0  0
   -3.7484   -1.1372   -0.6260 C   0  0  0  0  0  0  0  0  0  0  0  0
   -5.2129   -0.8352   -0.6277 C   0  0  0  0  0  0  0  0  0  0  0  0
   -4.2341    0.1803   -1.1403 C   0  0  0  0  0  0  0  0  0  0  0  0
   -3.0217   -1.1791    0.6789 C   0  0  0  0  0  0  0  0  0  0  0  0
   -0.6009   -0.5748    0.3308 C   0  0  0  0  0  0  0  0  0  0  0  0
   -1.0655   -2.7220    0.5044 C   0  0  0  0  0  0  0  0  0  0  0  0
    0.5297   -1.3464    0.2235 C   0  0  0  0  0  0  0  0  0  0  0  0
   -0.7940    0.8560    0.2806 C   0  0  0  0  0  0  0  0  0  0  0  0
    1.8620   -0.8501    0.0234 C   0  0  0  0  0  0  0  0  0  0  0  0
   -1.0427    1.4815   -0.9348 C   0  0  0  0  0  0  0  0  0  0  0  0
   -0.7346    1.6078    1.4474 C   0  0  0  0  0  0  0  0  0  0  0  0
    2.6655   -0.5462    1.1223 C   0  0  0  0  0  0  0  0  0  0  0  0
    2.3530   -0.6720   -1.2699 C   0  0  0  0  0  0  0  0  0  0  0  0
   -1.2241    2.8552   -0.9297 C   0  0  0  0  0  0  0  0  0  0  0  0
   -0.9298    2.9758    1.3457 C   0  0  0  0  0  0  0  0  0  0  0  0
    3.9598   -0.0641    0.9279 C   0  0  0  0  0  0  0  0  0  0  0  0
    3.6474   -0.1899   -1.4644 C   0  0  0  0  0  0  0  0  0  0  0  0
    4.4508    0.1141   -0.3654 C   0  0  0  0  0  0  0  0  0  0  0  0
   -3.4132   -1.8838   -1.3360 H   0  0  0  0  0  0  0  0  0  0  0  0
   -5.7028   -0.6305    0.3163 H   0  0  0  0  0  0  0  0  0  0  0  0
   -5.8342   -1.3461   -1.3529 H   0  0  0  0  0  0  0  0  0  0  0  0
   -4.1944    0.3488   -2.2096 H   0  0  0  0  0  0  0  0  0  0  0  0
   -4.0911    1.0719   -0.5428 H   0  0  0  0  0  0  0  0  0  0  0  0
   -3.4406   -1.9793    1.3016 H   0  0  0  0  0  0  0  0  0  0  0  0
   -3.1244   -0.2522    1.2535 H   0  0  0  0  0  0  0  0  0  0  0  0
   -1.6556   -3.6201    0.6274 H   0  0  0  0  0  0  0  0  0  0  0  0
   -1.0954    0.9268   -1.8660 H   0  0  0  0  0  0  0  0  0  0  0  0
   -0.5432    1.1532    2.4140 H   0  0  0  0  0  0  0  0  0  0  0  0
    2.2978   -0.6793    2.1371 H   0  0  0  0  0  0  0  0  0  0  0  0
    1.7394   -0.9041   -2.1372 H   0  0  0  0  0  0  0  0  0  0  0  0
   -1.4214    3.3924   -1.8515 H   0  0  0  0  0  0  0  0  0  0  0  0
   -0.8939    3.6088    2.2263 H   0  0  0  0  0  0  0  0  0  0  0  0
    4.5857    0.1728    1.7833 H   0  0  0  0  0  0  0  0  0  0  0  0
    4.0300   -0.0509   -2.4713 H   0  0  0  0  0  0  0  0  0  0  0  0
  1 22  1  0  0  0  0
  2  8  1  0  0  0  0
  2  9  1  0  0  0  0
  2 10  1  0  0  0  0
  3 10  2  0  0  0  0
  3 11  1  0  0  0  0
  4 18  2  0  0  0  0
  4 19  1  0  0  0  0
  5  6  1  0  0  0  0
  5  7  1  0  0  0  0
  5  8  1  0  0  0  0
  5 23  1  0  0  0  0
  6  7  1  0  0  0  0
  6 24  1  0  0  0  0
  6 25  1  0  0  0  0
  7 26  1  0  0  0  0
  7 27  1  0  0  0  0
  8 28  1  0  0  0  0
  8 29  1  0  0  0  0
  9 11  2  0  0  0  0
  9 12  1  0  0  0  0
 10 30  1  0  0  0  0
 11 13  1  0  0  0  0
 12 14  2  0  0  0  0
 12 15  1  0  0  0  0
 13 16  2  0  0  0  0
 13 17  1  0  0  0  0
 14 18  1  0  0  0  0
 14 31  1  0  0  0  0
 15 19  2  0  0  0  0
 15 32  1  0  0  0  0
 16 20  1  0  0  0  0
 16 33  1  0  0  0  0
 17 21  2  0  0  0  0
 17 34  1  0  0  0  0
 18 35  1  0  0  0  0
 19 36  1  0  0  0  0
 20 22  2  0  0  0  0
 20 37  1  0  0  0  0
 21 22  1  0  0  0  0
 21 38  1  0  0  0  0
M  END
> <PUBCHEM_COMPOUND_CID>
5171

> <PUBCHEM_CONFORMER_RMSD>
0.8

> <PUBCHEM_CONFORMER_DIVERSEORDER>
1
3
5
2
4

> <PUBCHEM_MMFF94_PARTIAL_CHARGES>
36
1 -0.19
10 0.04
11 0.17
12 0.05
13 0.05
14 -0.15
15 -0.15
16 -0.15
17 -0.15
18 0.16
19 0.16
2 0.05
20 -0.15
21 -0.15
22 0.19
23 0.1
24 0.1
25 0.1
26 0.1
27 0.1
3 -0.57
30 0.15
31 0.15
32 0.15
33 0.15
34 0.15
35 0.15
36 0.15
37 0.15
38 0.15
4 -0.62
5 -0.19
6 -0.2
7 -0.2
8 0.35
9 -0.2

> <PUBCHEM_EFFECTIVE_ROTOR_COUNT>
4.6

> <PUBCHEM_PHARMACOPHORE_FEATURES>
5
1 4 acceptor
3 2 3 10 cation
5 2 3 9 10 11 rings
6 13 16 17 20 21 22 rings
6 4 12 14 15 18 19 rings

> <PUBCHEM_HEAVY_ATOM_COUNT>
22

> <PUBCHEM_ATOM_DEF_STEREO_COUNT>
0

> <PUBCHEM_ATOM_UDEF_STEREO_COUNT>
0

> <PUBCHEM_BOND_DEF_STEREO_COUNT>
0

> <PUBCHEM_BOND_UDEF_STEREO_COUNT>
0

> <PUBCHEM_ISOTOPIC_ATOM_COUNT>
0

> <PUBCHEM_COMPONENT_COUNT>
1

> <PUBCHEM_CACTVS_TAUTO_COUNT>
1

> <PUBCHEM_CONFORMER_ID>
0000143300000001

> <PUBCHEM_MMFF94_ENERGY>
56.7103

> <PUBCHEM_FEATURE_SELFOVERLAP>
25.371

> <PUBCHEM_SHAPE_FINGERPRINT>
10165383 225 17473219604062293972
10366900 7 18113330895682463930
10498660 4 18339642338333792356
11112241 14 16665438819235107280
11578080 2 16981847518137894366
11646440 116 18336537236530865075
12035758 1 18267316330778749843
12236239 1 17489873700682767666
12293681 160 18411143566988084409
12403260 363 18268436913542894842
12788726 201 18410858788738658233
12954195 1 18263633138682693198
12969540 114 18337125479035217071
13140716 1 18196358226635525570
13149001 5 18123759655908092791
13911987 19 18342172228874803119
14170010 4 18190469268817751947
14347332 77 18263080084286812942
14787075 74 18336273357486546301
14790565 3 18411409631744170657
14955137 171 18192127344873921659
15295992 7 13110951020499382999
15420108 30 16541887212975041712
15848702 151 17095239202895676923
15849732 13 17749377171332884979
1601671 61 18409171034901981275
16752209 62 18341615948894536474
16945 1 18341324552569960235
17357779 13 18187651288502139129
192875 21 18131348613958917156
20510252 161 18410008866545487674
20600515 1 18118097230695210781
20642791 239 17843666786340034172
20715895 44 17630904883075126613
21029758 11 18335421223295696761
21285901 2 18040992959953688143
21304303 64 18131344194717488653
23402539 116 18336833004768684478
23419403 2 17896906312205013385
23557571 272 18261108591080985948
23558518 356 17909551997362617411
23559900 14 18409442562787500382
266924 87 18337673143094536511
2748010 2 18121218675555887027
283562 15 18410009978820724075
3178227 256 18270668772430307587
350125 39 18051403260694669418
465052 167 6555122909110796671
469060 322 18272074033635790233
532947 4 17902236615431995000
6913067 236 17676781915481480486
7164475 11 18266182918541926910
7495541 125 17773589430751761947
81228 2 18337375128129781627

> <PUBCHEM_SHAPE_MULTIPOLES>
430.53
8.42
3.19
1.33
3.77
2.36
-0.04
-1.82
-2.91
-2.33
0.69
0.26
0.38
-0.05

> <PUBCHEM_SHAPE_SELFOVERLAP>
949.973

> <PUBCHEM_SHAPE_VOLUME>
235.2

> <PUBCHEM_COORDINATE_TYPE>
2
5
10

$$$$

