13767
  -OEChem-06241222403D

 37 40  0     1  0  0  0  0  0999 V2000
   -1.1538    2.2229   -1.6257 O   0  0  0  0  0  0  0  0  0  0  0  0
   -2.0387    1.7989    1.8801 O   0  0  0  0  0  0  0  0  0  0  0  0
   -0.9106    2.0004   -0.2385 C   0  0  2  0  0  0  0  0  0  0  0  0
    0.1319    0.9115   -0.1214 C   0  0  0  0  0  0  0  0  0  0  0  0
   -2.2197    1.6343    0.4734 C   0  0  1  0  0  0  0  0  0  0  0  0
   -0.2594   -0.4422   -0.0446 C   0  0  0  0  0  0  0  0  0  0  0  0
   -2.6636    0.2192    0.1721 C   0  0  0  0  0  0  0  0  0  0  0  0
   -1.7019   -0.7884   -0.0713 C   0  0  0  0  0  0  0  0  0  0  0  0
    1.4921    1.2652   -0.1225 C   0  0  0  0  0  0  0  0  0  0  0  0
    2.4942    0.2920   -0.0216 C   0  0  0  0  0  0  0  0  0  0  0  0
    0.7578   -1.4095    0.0679 C   0  0  0  0  0  0  0  0  0  0  0  0
    2.1231   -1.0642    0.0790 C   0  0  0  0  0  0  0  0  0  0  0  0
   -4.0355   -0.0835    0.1688 C   0  0  0  0  0  0  0  0  0  0  0  0
   -2.1744   -2.0848   -0.3478 C   0  0  0  0  0  0  0  0  0  0  0  0
    1.8747    2.7134   -0.2490 C   0  0  0  0  0  0  0  0  0  0  0  0
    3.8559    0.6380   -0.0149 C   0  0  0  0  0  0  0  0  0  0  0  0
    3.1268   -2.0418    0.1873 C   0  0  0  0  0  0  0  0  0  0  0  0
   -4.4717   -1.3771   -0.0969 C   0  0  0  0  0  0  0  0  0  0  0  0
   -3.5420   -2.3757   -0.3591 C   0  0  0  0  0  0  0  0  0  0  0  0
    4.8395   -0.3451    0.0915 C   0  0  0  0  0  0  0  0  0  0  0  0
    4.4752   -1.6838    0.1933 C   0  0  0  0  0  0  0  0  0  0  0  0
   -0.5766    2.9397    0.2129 H   0  0  0  0  0  0  0  0  0  0  0  0
   -3.0010    2.3354    0.1543 H   0  0  0  0  0  0  0  0  0  0  0  0
    0.4999   -2.4632    0.1602 H   0  0  0  0  0  0  0  0  0  0  0  0
   -4.7693    0.6924    0.3723 H   0  0  0  0  0  0  0  0  0  0  0  0
   -1.4911   -2.8995   -0.5727 H   0  0  0  0  0  0  0  0  0  0  0  0
    2.0256    3.1535    0.7417 H   0  0  0  0  0  0  0  0  0  0  0  0
    2.7781    2.8559   -0.8493 H   0  0  0  0  0  0  0  0  0  0  0  0
    1.1422    3.3129   -0.7954 H   0  0  0  0  0  0  0  0  0  0  0  0
   -1.2929    1.3654   -2.0622 H   0  0  0  0  0  0  0  0  0  0  0  0
    4.2081    1.6634   -0.0627 H   0  0  0  0  0  0  0  0  0  0  0  0
   -2.7597    1.3355    2.3391 H   0  0  0  0  0  0  0  0  0  0  0  0
    2.8655   -3.0950    0.2672 H   0  0  0  0  0  0  0  0  0  0  0  0
   -5.5333   -1.6045   -0.1025 H   0  0  0  0  0  0  0  0  0  0  0  0
   -3.8775   -3.3861   -0.5750 H   0  0  0  0  0  0  0  0  0  0  0  0
    5.8889   -0.0655    0.1020 H   0  0  0  0  0  0  0  0  0  0  0  0
    5.2398   -2.4504    0.2784 H   0  0  0  0  0  0  0  0  0  0  0  0
  1  3  1  0  0  0  0
  1 30  1  0  0  0  0
  2  5  1  0  0  0  0
  2 32  1  0  0  0  0
  3  4  1  0  0  0  0
  3  5  1  0  0  0  0
  3 22  1  0  0  0  0
  4  6  1  0  0  0  0
  4  9  2  0  0  0  0
  5  7  1  0  0  0  0
  5 23  1  0  0  0  0
  6  8  1  0  0  0  0
  6 11  2  0  0  0  0
  7  8  1  0  0  0  0
  7 13  2  0  0  0  0
  8 14  2  0  0  0  0
  9 10  1  0  0  0  0
  9 15  1  0  0  0  0
 10 12  1  0  0  0  0
 10 16  2  0  0  0  0
 11 12  1  0  0  0  0
 11 24  1  0  0  0  0
 12 17  2  0  0  0  0
 13 18  1  0  0  0  0
 13 25  1  0  0  0  0
 14 19  1  0  0  0  0
 14 26  1  0  0  0  0
 15 27  1  0  0  0  0
 15 28  1  0  0  0  0
 15 29  1  0  0  0  0
 16 20  1  0  0  0  0
 16 31  1  0  0  0  0
 17 21  1  0  0  0  0
 17 33  1  0  0  0  0
 18 19  2  0  0  0  0
 18 34  1  0  0  0  0
 19 35  1  0  0  0  0
 20 21  2  0  0  0  0
 20 36  1  0  0  0  0
 21 37  1  0  0  0  0
M  END
> <PUBCHEM_COMPOUND_CID>
13767

> <PUBCHEM_CONFORMER_RMSD>
0.6

> <PUBCHEM_CONFORMER_DIVERSEORDER>
2
1

> <PUBCHEM_MMFF94_PARTIAL_CHARGES>
28
1 -0.68
11 -0.15
13 -0.15
14 -0.15
15 0.14
16 -0.15
17 -0.15
18 -0.15
19 -0.15
2 -0.68
20 -0.15
21 -0.15
24 0.15
25 0.15
26 0.15
3 0.42
30 0.4
31 0.15
32 0.4
33 0.15
34 0.15
35 0.15
36 0.15
37 0.15
4 -0.14
5 0.42
7 -0.14
9 -0.14

> <PUBCHEM_EFFECTIVE_ROTOR_COUNT>
0.4

> <PUBCHEM_PHARMACOPHORE_FEATURES>
8
1 1 acceptor
1 1 donor
1 2 acceptor
1 2 donor
6 10 12 16 17 20 21 rings
6 3 4 5 6 7 8 rings
6 4 6 9 10 11 12 rings
6 7 8 13 14 18 19 rings

> <PUBCHEM_HEAVY_ATOM_COUNT>
21

> <PUBCHEM_ATOM_DEF_STEREO_COUNT>
0

> <PUBCHEM_ATOM_UDEF_STEREO_COUNT>
2

> <PUBCHEM_BOND_DEF_STEREO_COUNT>
0

> <PUBCHEM_BOND_UDEF_STEREO_COUNT>
0

> <PUBCHEM_ISOTOPIC_ATOM_COUNT>
0

> <PUBCHEM_COMPONENT_COUNT>
1

> <PUBCHEM_CACTVS_TAUTO_COUNT>
1

> <PUBCHEM_CONFORMER_ID>
000035C700000002

> <PUBCHEM_MMFF94_ENERGY>
76.0653

> <PUBCHEM_FEATURE_SELFOVERLAP>
40.663

> <PUBCHEM_SHAPE_FINGERPRINT>
10616163 171 18335417980332248382
10967382 1 18195246615900019678
11132069 177 18410577314036020226
11578080 2 17896343353740636345
11806522 49 18412545384036360750
12107183 9 17760082222019166114
12251169 10 18407755949771292955
12403259 226 18412834598655246460
12403814 3 18129938004759469069
12553582 1 18341341045297267194
12633257 1 17967801773975509617
13140716 1 18337384942510205379
13583140 156 15864643889277531802
138480 1 14952094674482360260
14178342 30 18335709402874657880
14223421 5 18410019818728072464
14341114 176 18335132094476488986
14787075 74 18272366460979162688
14790565 3 17689714581231988757
15042514 8 18123476244022392402
15196674 1 18410856559655633326
15375462 478 18187364303119161751
15442244 35 18409728490975039554
15536298 74 18262800653386883088
16945 1 18334844035436128757
17357779 13 18058748947544955885
17492 89 18408884014353202670
17804303 29 18333729121797004080
1813 80 17561363967614935708
19141452 34 18337952393599713709
19591789 44 18339079423125627406
200 152 18261398827859623647
20510252 161 18114179786951069427
21267235 1 18338508652047205663
21501502 16 18410848863311823628
21634736 98 18338514132208840430
221490 88 18198337355886600282
23402539 116 18334301963529944575
23463225 33 18410854326283208543
23557571 272 18187076308783210798
23559900 14 18335428928266806272
2748010 2 17547845712595868388
2871803 45 18272376377457574190
3286 77 18040719125713279776
335352 9 18410856598858965629
350125 39 18410009922986590752
394222 165 16981821074040589896
4214541 1 18336547217644515994
4409770 3 17553213498815131020
46194498 28 17269779931455835343
5104073 3 18408886247835566802
6992083 37 18265882721807963441
7364860 26 18264772069441229336
9709674 26 18410287004196212646
9981440 41 17403459572430059512

> <PUBCHEM_SHAPE_MULTIPOLES>
420.43
8.36
2.85
0.86
2.41
0.56
0.08
-4.34
0.42
-0.38
-0.24
-0.4
0.43
-0.64

> <PUBCHEM_SHAPE_SELFOVERLAP>
951.115

> <PUBCHEM_SHAPE_VOLUME>
220.3

> <PUBCHEM_COORDINATE_TYPE>
2
5
10

$$$$

