12971
  -OEChem-06261207363D

 12 11  0     1  0  0  0  0  0999 V2000
    1.2295    1.8939    0.0360 Cl  0  0  0  0  0  0  0  0  0  0  0  0
   -2.3193   -0.6151    0.0862 Cl  0  0  0  0  0  0  0  0  0  0  0  0
    0.1948    0.4526    0.3037 C   0  0  1  0  0  0  0  0  0  0  0  0
   -1.2216    0.7663   -0.1757 C   0  0  0  0  0  0  0  0  0  0  0  0
    0.8164   -0.7036   -0.4280 C   0  0  0  0  0  0  0  0  0  0  0  0
    1.3002   -1.7942    0.1779 C   0  0  0  0  0  0  0  0  0  0  0  0
    0.1897    0.2773    1.3855 H   0  0  0  0  0  0  0  0  0  0  0  0
   -1.6408    1.6184    0.3693 H   0  0  0  0  0  0  0  0  0  0  0  0
   -1.2467    0.9999   -1.2457 H   0  0  0  0  0  0  0  0  0  0  0  0
    0.8711   -0.6483   -1.5129 H   0  0  0  0  0  0  0  0  0  0  0  0
    1.7361   -2.5982   -0.4049 H   0  0  0  0  0  0  0  0  0  0  0  0
    1.2704   -1.9046    1.2561 H   0  0  0  0  0  0  0  0  0  0  0  0
  1  3  1  0  0  0  0
  2  4  1  0  0  0  0
  3  4  1  0  0  0  0
  3  5  1  0  0  0  0
  3  7  1  0  0  0  0
  4  8  1  0  0  0  0
  4  9  1  0  0  0  0
  5  6  2  0  0  0  0
  5 10  1  0  0  0  0
  6 11  1  0  0  0  0
  6 12  1  0  0  0  0
M  END
> <PUBCHEM_COMPOUND_CID>
12971

> <PUBCHEM_CONFORMER_RMSD>
0.4

> <PUBCHEM_CONFORMER_DIVERSEORDER>
1
10
8
6
9
4
7
5
3
2

> <PUBCHEM_MMFF94_PARTIAL_CHARGES>
9
1 -0.29
10 0.15
11 0.15
12 0.15
2 -0.29
3 0.43
4 0.29
5 -0.29
6 -0.3

> <PUBCHEM_EFFECTIVE_ROTOR_COUNT>
2

> <PUBCHEM_PHARMACOPHORE_FEATURES>
1
1 6 hydrophobe

> <PUBCHEM_HEAVY_ATOM_COUNT>
6

> <PUBCHEM_ATOM_DEF_STEREO_COUNT>
0

> <PUBCHEM_ATOM_UDEF_STEREO_COUNT>
1

> <PUBCHEM_BOND_DEF_STEREO_COUNT>
0

> <PUBCHEM_BOND_UDEF_STEREO_COUNT>
0

> <PUBCHEM_ISOTOPIC_ATOM_COUNT>
0

> <PUBCHEM_COMPONENT_COUNT>
1

> <PUBCHEM_CACTVS_TAUTO_COUNT>
1

> <PUBCHEM_CONFORMER_ID>
000032AB00000001

> <PUBCHEM_MMFF94_ENERGY>
3.7351

> <PUBCHEM_FEATURE_SELFOVERLAP>
5.074

> <PUBCHEM_SHAPE_FINGERPRINT>
139733 1 9582642404806656223
16714656 1 17547288904445823093
18185500 45 18052250984080407307
21040471 1 17833551189191059376
22082395 3 17691686010143615753
23552333 60 18186791462024875939
23552449 1 17761782066953034834
23552449 11 18271257078936330907
29004967 10 18337392771834503306
5943 1 15186578594390344984

> <PUBCHEM_SHAPE_MULTIPOLES>
127.22
2.48
2.05
0.69
1.73
0.31
-0.01
-0.08
0.06
-1.32
0.07
-0.02
0.02
0.04

> <PUBCHEM_SHAPE_SELFOVERLAP>
208.916

> <PUBCHEM_SHAPE_VOLUME>
88.9

> <PUBCHEM_COORDINATE_TYPE>
2
5
10

$$$$

