8997
  -OEChem-06261203183D

 15 16  0     0  0  0  0  0  0999 V2000
   -1.2933    1.5222   -0.0001 S   0  0  0  0  0  0  0  0  0  0  0  0
   -3.7653   -0.2338    0.0001 S   0  0  0  0  0  0  0  0  0  0  0  0
   -1.2185   -1.0559    0.0000 N   0  0  0  0  0  0  0  0  0  0  0  0
    0.2596    0.7728   -0.0001 C   0  0  0  0  0  0  0  0  0  0  0  0
    0.0971   -0.6159   -0.0001 C   0  0  0  0  0  0  0  0  0  0  0  0
    1.5301    1.3707    0.0000 C   0  0  0  0  0  0  0  0  0  0  0  0
    1.2485   -1.4328   -0.0001 C   0  0  0  0  0  0  0  0  0  0  0  0
    2.6531    0.5395    0.0001 C   0  0  0  0  0  0  0  0  0  0  0  0
    2.5164   -0.8443    0.0000 C   0  0  0  0  0  0  0  0  0  0  0  0
   -2.0278   -0.0225    0.0000 C   0  0  0  0  0  0  0  0  0  0  0  0
    1.6445    2.4504    0.0000 H   0  0  0  0  0  0  0  0  0  0  0  0
    1.1534   -2.5150   -0.0001 H   0  0  0  0  0  0  0  0  0  0  0  0
    3.6458    0.9820    0.0002 H   0  0  0  0  0  0  0  0  0  0  0  0
    3.4014   -1.4749    0.0001 H   0  0  0  0  0  0  0  0  0  0  0  0
   -4.1039    1.0637    0.0002 H   0  0  0  0  0  0  0  0  0  0  0  0
  1  4  1  0  0  0  0
  1 10  1  0  0  0  0
  2 10  1  0  0  0  0
  2 15  1  0  0  0  0
  3  5  1  0  0  0  0
  3 10  2  0  0  0  0
  4  5  1  0  0  0  0
  4  6  2  0  0  0  0
  5  7  2  0  0  0  0
  6  8  1  0  0  0  0
  6 11  1  0  0  0  0
  7  9  1  0  0  0  0
  7 12  1  0  0  0  0
  8  9  2  0  0  0  0
  8 13  1  0  0  0  0
  9 14  1  0  0  0  0
M  END
> <PUBCHEM_COMPOUND_CID>
8997

> <PUBCHEM_CONFORMER_RMSD>
0.4

> <PUBCHEM_CONFORMER_DIVERSEORDER>
1

> <PUBCHEM_MMFF94_PARTIAL_CHARGES>
15
1 -0.08
10 0.43
11 0.15
12 0.15
13 0.15
14 0.15
15 0.18
2 -0.24
3 -0.57
4 0.04
5 0.23
6 -0.15
7 -0.15
8 -0.15
9 -0.15

> <PUBCHEM_EFFECTIVE_ROTOR_COUNT>
0

> <PUBCHEM_PHARMACOPHORE_FEATURES>
3
1 3 acceptor
5 1 3 4 5 10 rings
6 4 5 6 7 8 9 rings

> <PUBCHEM_HEAVY_ATOM_COUNT>
10

> <PUBCHEM_ATOM_DEF_STEREO_COUNT>
0

> <PUBCHEM_ATOM_UDEF_STEREO_COUNT>
0

> <PUBCHEM_BOND_DEF_STEREO_COUNT>
0

> <PUBCHEM_BOND_UDEF_STEREO_COUNT>
0

> <PUBCHEM_ISOTOPIC_ATOM_COUNT>
0

> <PUBCHEM_COMPONENT_COUNT>
1

> <PUBCHEM_CACTVS_TAUTO_COUNT>
2

> <PUBCHEM_CONFORMER_ID>
0000232500000001

> <PUBCHEM_MMFF94_ENERGY>
15.5408

> <PUBCHEM_FEATURE_SELFOVERLAP>
15.294

> <PUBCHEM_SHAPE_FINGERPRINT>
10219947 1 18409445873721572951
11471102 20 18411142437374775165
12032990 46 18412256234042840907
12897270 3 18411699880779176861
12932764 1 17240494610404757289
14325111 11 18410575089322211973
16945 1 18410855455896517508
17844478 74 18059850675761094645
193761 8 17690280834124978019
19973954 147 18338515364632430084
20201158 50 18413389843210251603
20645477 70 18410298042821124983
20871998 22 18046060721032073390
21040471 1 18194683661994496384
21501502 16 18339640173675595281
23235685 24 18341337695053665876
23402655 69 18336274509128612541
23552423 10 18271522099829994350
2748010 2 18194123151213266796
29004967 10 18343578538453057104
5084963 1 18334295396060484832
528886 8 18337957792014791882

> <PUBCHEM_SHAPE_MULTIPOLES>
208.51
4.71
1.57
0.63
2.8
0.2
0
-0.51
0
-0.35
0
0.03
0.02
0

> <PUBCHEM_SHAPE_SELFOVERLAP>
429.935

> <PUBCHEM_SHAPE_VOLUME>
122.1

> <PUBCHEM_COORDINATE_TYPE>
2
5
10

$$$$

