14143
  -OEChem-06241222422D

 29 29  0     0  0  0  0  0  0999 V2000
    4.5032   -0.9734    0.0000 O   0  0  0  0  0  0  0  0  0  0  0  0
    8.4927    1.3127    0.0000 O   0  0  0  0  0  0  0  0  0  0  0  0
    2.0000   -0.0255    0.0000 O   0  5  0  0  0  0  0  0  0  0  0  0
    2.5352   -1.6728    0.0000 O   0  0  0  0  0  0  0  0  0  0  0  0
   10.3948    0.6947    0.0000 N   0  0  0  0  0  0  0  0  0  0  0  0
    7.9575   -0.3346    0.0000 N   0  0  0  0  0  0  0  0  0  0  0  0
    7.0064   -0.0255    0.0000 N   0  0  0  0  0  0  0  0  0  0  0  0
    2.7431   -0.6947    0.0000 N   0  3  0  0  0  0  0  0  0  0  0  0
    9.6517    0.0255    0.0000 C   0  0  0  0  0  0  0  0  0  0  0  0
   11.3459    0.3857    0.0000 C   0  0  0  0  0  0  0  0  0  0  0  0
   10.1869    1.6728    0.0000 C   0  0  0  0  0  0  0  0  0  0  0  0
    8.7006    0.3346    0.0000 C   0  0  0  0  0  0  0  0  0  0  0  0
    5.3122   -0.3857    0.0000 C   0  0  0  0  0  0  0  0  0  0  0  0
    5.0032    0.5654    0.0000 C   0  0  0  0  0  0  0  0  0  0  0  0
    3.6942   -0.3857    0.0000 C   0  0  0  0  0  0  0  0  0  0  0  0
    4.0032    0.5654    0.0000 C   0  0  0  0  0  0  0  0  0  0  0  0
    6.2633   -0.6947    0.0000 C   0  0  0  0  0  0  0  0  0  0  0  0
    9.3606   -0.5219    0.0000 H   0  0  0  0  0  0  0  0  0  0  0  0
   10.1403   -0.3562    0.0000 H   0  0  0  0  0  0  0  0  0  0  0  0
   11.1543   -0.2040    0.0000 H   0  0  0  0  0  0  0  0  0  0  0  0
   11.9356    0.1941    0.0000 H   0  0  0  0  0  0  0  0  0  0  0  0
   11.5375    0.9753    0.0000 H   0  0  0  0  0  0  0  0  0  0  0  0
   10.7934    1.8017    0.0000 H   0  0  0  0  0  0  0  0  0  0  0  0
   10.0580    2.2793    0.0000 H   0  0  0  0  0  0  0  0  0  0  0  0
    9.5805    1.5439    0.0000 H   0  0  0  0  0  0  0  0  0  0  0  0
    8.0864   -0.9410    0.0000 H   0  0  0  0  0  0  0  0  0  0  0  0
    5.3676    1.0670    0.0000 H   0  0  0  0  0  0  0  0  0  0  0  0
    3.6388    1.0670    0.0000 H   0  0  0  0  0  0  0  0  0  0  0  0
    6.3922   -1.3011    0.0000 H   0  0  0  0  0  0  0  0  0  0  0  0
  1 13  1  0  0  0  0
  1 15  1  0  0  0  0
  2 12  2  0  0  0  0
  3  8  1  0  0  0  0
  4  8  2  0  0  0  0
  5  9  1  0  0  0  0
  5 10  1  0  0  0  0
  5 11  1  0  0  0  0
  6  7  1  0  0  0  0
  6 12  1  0  0  0  0
  6 26  1  0  0  0  0
  7 17  2  3  0  0  0
  8 15  1  0  0  0  0
  9 12  1  0  0  0  0
  9 18  1  0  0  0  0
  9 19  1  0  0  0  0
 10 20  1  0  0  0  0
 10 21  1  0  0  0  0
 10 22  1  0  0  0  0
 11 23  1  0  0  0  0
 11 24  1  0  0  0  0
 11 25  1  0  0  0  0
 13 14  2  0  0  0  0
 13 17  1  0  0  0  0
 14 16  1  0  0  0  0
 14 27  1  0  0  0  0
 15 16  2  0  0  0  0
 16 28  1  0  0  0  0
 17 29  1  0  0  0  0
M  CHG  2   3  -1   8   1
M  END
> <PUBCHEM_COMPOUND_CID>
14143

> <PUBCHEM_COMPOUND_CANONICALIZED>
1

> <PUBCHEM_CACTVS_COMPLEXITY>
313

> <PUBCHEM_CACTVS_HBOND_ACCEPTOR>
6

> <PUBCHEM_CACTVS_HBOND_DONOR>
1

> <PUBCHEM_CACTVS_ROTATABLE_BOND>
4

> <PUBCHEM_CACTVS_SUBSKEYS>
AAADccBzuAAAAAAAAAAAAAAAAAAAASAAAAAAAAAAAAAAAAABgAAAHgAcAAAACATBkAQyhINyRECpALFzUwSSCAAsIgA6iAGubNoMZrKEtbuaGSDk2BEI6Ya8AAAAAAAAAAAAAAAAAAAAAAAAAAAAAAAAAA==

> <PUBCHEM_IUPAC_OPENEYE_NAME>
2-(dimethylamino)-N-[(5-nitro-2-furyl)methyleneamino]acetamide

> <PUBCHEM_IUPAC_CAS_NAME>
2-(dimethylamino)-N-[(5-nitro-2-furanyl)methylideneamino]acetamide

> <PUBCHEM_IUPAC_NAME>
2-(dimethylamino)-N-[(5-nitrofuran-2-yl)methylideneamino]acetamide

> <PUBCHEM_IUPAC_SYSTEMATIC_NAME>
2-(dimethylamino)-N-[(5-nitrofuran-2-yl)methylideneamino]ethanamide

> <PUBCHEM_IUPAC_TRADITIONAL_NAME>
2-(dimethylamino)-N-[(5-nitro-2-furyl)methyleneamino]acetamide

> <PUBCHEM_IUPAC_INCHI>
InChI=1S/C9H12N4O4/c1-12(2)6-8(14)11-10-5-7-3-4-9(17-7)13(15)16/h3-5H,6H2,1-2H3,(H,11,14)

> <PUBCHEM_IUPAC_INCHIKEY>
QDVKNTGYFXGOHV-UHFFFAOYSA-N

> <PUBCHEM_XLOGP3>
0.9

> <PUBCHEM_EXACT_MASS>
240.085855

> <PUBCHEM_MOLECULAR_FORMULA>
C9H12N4O4

> <PUBCHEM_MOLECULAR_WEIGHT>
240.21598

> <PUBCHEM_OPENEYE_CAN_SMILES>
CN(C)CC(=O)NN=CC1=CC=C(O1)[N+](=O)[O-]

> <PUBCHEM_OPENEYE_ISO_SMILES>
CN(C)CC(=O)NN=CC1=CC=C(O1)[N+](=O)[O-]

> <PUBCHEM_CACTVS_TPSA>
104

> <PUBCHEM_MONOISOTOPIC_WEIGHT>
240.085855

> <PUBCHEM_TOTAL_CHARGE>
0

> <PUBCHEM_HEAVY_ATOM_COUNT>
17

> <PUBCHEM_ATOM_DEF_STEREO_COUNT>
0

> <PUBCHEM_ATOM_UDEF_STEREO_COUNT>
0

> <PUBCHEM_BOND_DEF_STEREO_COUNT>
0

> <PUBCHEM_BOND_UDEF_STEREO_COUNT>
1

> <PUBCHEM_ISOTOPIC_ATOM_COUNT>
0

> <PUBCHEM_COMPONENT_COUNT>
1

> <PUBCHEM_CACTVS_TAUTO_COUNT>
2

> <PUBCHEM_COORDINATE_TYPE>
1
5
255

> <PUBCHEM_BONDANNOTATIONS>
1  13  8
1  15  8
13  14  8
14  16  8
15  16  8
7  17  1

$$$$

