51090950
  -OEChem-06241223012D

 50 53  0     0  0  0  0  0  0999 V2000
    7.6279   -2.9641    0.0000 O   0  0  0  0  0  0  0  0  0  0  0  0
    9.1279    1.3660    0.0000 N   0  0  0  0  0  0  0  0  0  0  0  0
    7.6279   -1.2320    0.0000 N   0  0  0  0  0  0  0  0  0  0  0  0
    5.5443   -2.9028    0.0000 N   0  0  0  0  0  0  0  0  0  0  0  0
    4.5981   -1.5981    0.0000 N   0  0  0  0  0  0  0  0  0  0  0  0
    8.6279    0.5000    0.0000 C   0  0  0  0  0  0  0  0  0  0  0  0
    9.1279   -0.3660    0.0000 C   0  0  0  0  0  0  0  0  0  0  0  0
    7.6279    0.5000    0.0000 C   0  0  0  0  0  0  0  0  0  0  0  0
   10.1279    1.3660    0.0000 C   0  0  0  0  0  0  0  0  0  0  0  0
    8.6279    2.2320    0.0000 C   0  0  0  0  0  0  0  0  0  0  0  0
    8.6279   -1.2320    0.0000 C   0  0  0  0  0  0  0  0  0  0  0  0
    7.1279   -0.3660    0.0000 C   0  0  0  0  0  0  0  0  0  0  0  0
    9.1279    3.0981    0.0000 C   0  0  0  0  0  0  0  0  0  0  0  0
   10.6279    2.2320    0.0000 C   0  0  0  0  0  0  0  0  0  0  0  0
   10.1279    3.0981    0.0000 C   0  0  0  0  0  0  0  0  0  0  0  0
    7.1279   -2.0981    0.0000 C   0  0  0  0  0  0  0  0  0  0  0  0
    6.1279   -2.0981    0.0000 C   0  0  0  0  0  0  0  0  0  0  0  0
    5.5443   -1.2933    0.0000 C   0  0  0  0  0  0  0  0  0  0  0  0
    4.5981   -2.5981    0.0000 C   0  0  0  0  0  0  0  0  0  0  0  0
    3.7320   -1.0981    0.0000 C   0  0  0  0  0  0  0  0  0  0  0  0
    3.7320   -3.0981    0.0000 C   0  0  0  0  0  0  0  0  0  0  0  0
    2.8660   -2.5981    0.0000 C   0  0  0  0  0  0  0  0  0  0  0  0
    2.8660   -1.5981    0.0000 C   0  0  0  0  0  0  0  0  0  0  0  0
    2.0000   -3.0981    0.0000 C   0  0  0  0  0  0  0  0  0  0  0  0
    9.2479    0.5000    0.0000 H   0  0  0  0  0  0  0  0  0  0  0  0
    9.6028   -0.7646    0.0000 H   0  0  0  0  0  0  0  0  0  0  0  0
    9.6028    0.0325    0.0000 H   0  0  0  0  0  0  0  0  0  0  0  0
    7.7356    1.1106    0.0000 H   0  0  0  0  0  0  0  0  0  0  0  0
    7.0453    0.7121    0.0000 H   0  0  0  0  0  0  0  0  0  0  0  0
    8.1530    2.6306    0.0000 H   0  0  0  0  0  0  0  0  0  0  0  0
    8.1530    1.8335    0.0000 H   0  0  0  0  0  0  0  0  0  0  0  0
   10.0202    0.7554    0.0000 H   0  0  0  0  0  0  0  0  0  0  0  0
   10.7105    1.1540    0.0000 H   0  0  0  0  0  0  0  0  0  0  0  0
    6.6530    0.0325    0.0000 H   0  0  0  0  0  0  0  0  0  0  0  0
    6.6530   -0.7646    0.0000 H   0  0  0  0  0  0  0  0  0  0  0  0
    8.5202   -1.8426    0.0000 H   0  0  0  0  0  0  0  0  0  0  0  0
    9.2105   -1.4441    0.0000 H   0  0  0  0  0  0  0  0  0  0  0  0
    9.2356    3.7087    0.0000 H   0  0  0  0  0  0  0  0  0  0  0  0
    8.5453    3.3101    0.0000 H   0  0  0  0  0  0  0  0  0  0  0  0
   11.1029    1.8335    0.0000 H   0  0  0  0  0  0  0  0  0  0  0  0
   11.1029    2.6306    0.0000 H   0  0  0  0  0  0  0  0  0  0  0  0
   10.7105    3.3101    0.0000 H   0  0  0  0  0  0  0  0  0  0  0  0
   10.0202    3.7087    0.0000 H   0  0  0  0  0  0  0  0  0  0  0  0
    5.7369   -0.7040    0.0000 H   0  0  0  0  0  0  0  0  0  0  0  0
    3.7320   -0.4781    0.0000 H   0  0  0  0  0  0  0  0  0  0  0  0
    3.7320   -3.7181    0.0000 H   0  0  0  0  0  0  0  0  0  0  0  0
    2.3291   -1.2881    0.0000 H   0  0  0  0  0  0  0  0  0  0  0  0
    1.6900   -2.5611    0.0000 H   0  0  0  0  0  0  0  0  0  0  0  0
    1.4631   -3.4081    0.0000 H   0  0  0  0  0  0  0  0  0  0  0  0
    2.3100   -3.6350    0.0000 H   0  0  0  0  0  0  0  0  0  0  0  0
  1 16  2  0  0  0  0
  2  6  1  0  0  0  0
  2  9  1  0  0  0  0
  2 10  1  0  0  0  0
  3 11  1  0  0  0  0
  3 12  1  0  0  0  0
  3 16  1  0  0  0  0
  4 17  1  0  0  0  0
  4 19  2  0  0  0  0
  5 18  1  0  0  0  0
  5 19  1  0  0  0  0
  5 20  1  0  0  0  0
  6  7  1  0  0  0  0
  6  8  1  0  0  0  0
  6 25  1  0  0  0  0
  7 11  1  0  0  0  0
  7 26  1  0  0  0  0
  7 27  1  0  0  0  0
  8 12  1  0  0  0  0
  8 28  1  0  0  0  0
  8 29  1  0  0  0  0
  9 14  1  0  0  0  0
  9 32  1  0  0  0  0
  9 33  1  0  0  0  0
 10 13  1  0  0  0  0
 10 30  1  0  0  0  0
 10 31  1  0  0  0  0
 11 36  1  0  0  0  0
 11 37  1  0  0  0  0
 12 34  1  0  0  0  0
 12 35  1  0  0  0  0
 13 15  1  0  0  0  0
 13 38  1  0  0  0  0
 13 39  1  0  0  0  0
 14 15  1  0  0  0  0
 14 40  1  0  0  0  0
 14 41  1  0  0  0  0
 15 42  1  0  0  0  0
 15 43  1  0  0  0  0
 16 17  1  0  0  0  0
 17 18  2  0  0  0  0
 18 44  1  0  0  0  0
 19 21  1  0  0  0  0
 20 23  2  0  0  0  0
 20 45  1  0  0  0  0
 21 22  2  0  0  0  0
 21 46  1  0  0  0  0
 22 23  1  0  0  0  0
 22 24  1  0  0  0  0
 23 47  1  0  0  0  0
 24 48  1  0  0  0  0
 24 49  1  0  0  0  0
 24 50  1  0  0  0  0
M  END
> <PUBCHEM_COMPOUND_CID>
51090950

> <PUBCHEM_COMPOUND_CANONICALIZED>
1

> <PUBCHEM_CACTVS_COMPLEXITY>
443

> <PUBCHEM_CACTVS_HBOND_ACCEPTOR>
3

> <PUBCHEM_CACTVS_HBOND_DONOR>
0

> <PUBCHEM_CACTVS_ROTATABLE_BOND>
2

> <PUBCHEM_CACTVS_SUBSKEYS>
AAADceB7oAAAAAAAAAAAAAAAAAAAAWAAAAAsWLAAAAAAAFgB4AAAHgAAAAAADCjBnwQ/sJ8MGACoAzd3dACCgC03EqAJ2CG4dNiIaGrA2bGUIIhohgLIyOYQAAAKAAAAAAAAAAAAAAAAAAAAAAAAAAAAAA==

> <PUBCHEM_IUPAC_OPENEYE_NAME>
(7-methylimidazo[1,2-a]pyridin-2-yl)-[4-(1-piperidyl)-1-piperidyl]methanone

> <PUBCHEM_IUPAC_CAS_NAME>
(7-methyl-2-imidazo[1,2-a]pyridinyl)-[4-(1-piperidinyl)-1-piperidinyl]methanone

> <PUBCHEM_IUPAC_NAME>
(7-methylimidazo[1,2-a]pyridin-2-yl)-(4-piperidin-1-ylpiperidin-1-yl)methanone

> <PUBCHEM_IUPAC_SYSTEMATIC_NAME>
(7-methylimidazo[1,2-a]pyridin-2-yl)-(4-piperidin-1-ylpiperidin-1-yl)methanone

> <PUBCHEM_IUPAC_TRADITIONAL_NAME>
(7-methylimidazo[1,2-a]pyridin-2-yl)-(4-piperidinopiperidino)methanone

> <PUBCHEM_IUPAC_INCHI>
InChI=1S/C19H26N4O/c1-15-5-10-23-14-17(20-18(23)13-15)19(24)22-11-6-16(7-12-22)21-8-3-2-4-9-21/h5,10,13-14,16H,2-4,6-9,11-12H2,1H3

> <PUBCHEM_IUPAC_INCHIKEY>
MSTVTAQVYOVPPT-UHFFFAOYSA-N

> <PUBCHEM_XLOGP3_AA>
3.4

> <PUBCHEM_EXACT_MASS>
326.210661

> <PUBCHEM_MOLECULAR_FORMULA>
C19H26N4O

> <PUBCHEM_MOLECULAR_WEIGHT>
326.43594

> <PUBCHEM_OPENEYE_CAN_SMILES>
CC1=CC2=NC(=CN2C=C1)C(=O)N3CCC(CC3)N4CCCCC4

> <PUBCHEM_OPENEYE_ISO_SMILES>
CC1=CC2=NC(=CN2C=C1)C(=O)N3CCC(CC3)N4CCCCC4

> <PUBCHEM_CACTVS_TPSA>
40.8

> <PUBCHEM_MONOISOTOPIC_WEIGHT>
326.210661

> <PUBCHEM_TOTAL_CHARGE>
0

> <PUBCHEM_HEAVY_ATOM_COUNT>
24

> <PUBCHEM_ATOM_DEF_STEREO_COUNT>
0

> <PUBCHEM_ATOM_UDEF_STEREO_COUNT>
0

> <PUBCHEM_BOND_DEF_STEREO_COUNT>
0

> <PUBCHEM_BOND_UDEF_STEREO_COUNT>
0

> <PUBCHEM_ISOTOPIC_ATOM_COUNT>
0

> <PUBCHEM_COMPONENT_COUNT>
1

> <PUBCHEM_CACTVS_TAUTO_COUNT>
1

> <PUBCHEM_COORDINATE_TYPE>
1
5
255

> <PUBCHEM_BONDANNOTATIONS>
17  18  8
19  21  8
20  23  8
21  22  8
22  23  8
4  17  8
4  19  8
5  18  8
5  19  8
5  20  8

$$$$

