13619
  -OEChem-06241222393D

 13 13  0     0  0  0  0  0  0999 V2000
   -2.8307   -0.2668   -0.0020 Cl  0  0  0  0  0  0  0  0  0  0  0  0
   -1.4033    2.6175    0.0013 Cl  0  0  0  0  0  0  0  0  0  0  0  0
    3.3957    0.2104   -0.0006 Cl  0  0  0  0  0  0  0  0  0  0  0  0
   -0.8861   -2.5052    0.0016 O   0  0  0  0  0  0  0  0  0  0  0  0
   -0.3225   -1.2637   -0.0001 C   0  0  0  0  0  0  0  0  0  0  0  0
   -1.1040   -0.1082    0.0000 C   0  0  0  0  0  0  0  0  0  0  0  0
    1.0688   -1.1649   -0.0001 C   0  0  0  0  0  0  0  0  0  0  0  0
   -0.4940    1.1463    0.0001 C   0  0  0  0  0  0  0  0  0  0  0  0
    0.8974    1.2451    0.0000 C   0  0  0  0  0  0  0  0  0  0  0  0
    1.6787    0.0895   -0.0001 C   0  0  0  0  0  0  0  0  0  0  0  0
    1.6792   -2.0651    0.0000 H   0  0  0  0  0  0  0  0  0  0  0  0
    1.3767    2.2220    0.0001 H   0  0  0  0  0  0  0  0  0  0  0  0
   -0.1829   -3.1770    0.0015 H   0  0  0  0  0  0  0  0  0  0  0  0
  1  6  1  0  0  0  0
  2  8  1  0  0  0  0
  3 10  1  0  0  0  0
  4  5  1  0  0  0  0
  4 13  1  0  0  0  0
  5  6  2  0  0  0  0
  5  7  1  0  0  0  0
  6  8  1  0  0  0  0
  7 10  2  0  0  0  0
  7 11  1  0  0  0  0
  8  9  2  0  0  0  0
  9 10  1  0  0  0  0
  9 12  1  0  0  0  0
M  END
> <PUBCHEM_COMPOUND_CID>
13619

> <PUBCHEM_CONFORMER_RMSD>
0.4

> <PUBCHEM_CONFORMER_DIVERSEORDER>
1

> <PUBCHEM_MMFF94_PARTIAL_CHARGES>
13
1 -0.18
10 0.18
11 0.15
12 0.15
13 0.45
2 -0.18
3 -0.18
4 -0.53
5 0.08
6 0.18
7 -0.15
8 0.18
9 -0.15

> <PUBCHEM_EFFECTIVE_ROTOR_COUNT>
0

> <PUBCHEM_PHARMACOPHORE_FEATURES>
2
1 4 donor
6 5 6 7 8 9 10 rings

> <PUBCHEM_HEAVY_ATOM_COUNT>
10

> <PUBCHEM_ATOM_DEF_STEREO_COUNT>
0

> <PUBCHEM_ATOM_UDEF_STEREO_COUNT>
0

> <PUBCHEM_BOND_DEF_STEREO_COUNT>
0

> <PUBCHEM_BOND_UDEF_STEREO_COUNT>
0

> <PUBCHEM_ISOTOPIC_ATOM_COUNT>
0

> <PUBCHEM_COMPONENT_COUNT>
1

> <PUBCHEM_CACTVS_TAUTO_COUNT>
3

> <PUBCHEM_CONFORMER_ID>
0000353300000001

> <PUBCHEM_MMFF94_ENERGY>
20.3421

> <PUBCHEM_FEATURE_SELFOVERLAP>
10.148

> <PUBCHEM_SHAPE_FINGERPRINT>
11206711 2 18410856598315984485
12423570 1 12606866681972419937
13380535 76 18052264186888925009
14325111 11 18338517568388444320
16945 1 18410855443148752676
18185500 45 18195526982732982890
193761 8 17906452486741562215
20588541 1 18334851693225693486
20871998 184 18188205390844159854
21040471 1 18338797952316770304
23235685 24 18409735049205360724
2334 1 17834395618542466848
23402539 116 18334870401976478782
23402655 69 18193294081741219565
23552423 10 18053379091526476654
2748010 2 18194679504154885204
5084963 1 18113899398395388504
53812653 8 18341325660739925364

> <PUBCHEM_SHAPE_MULTIPOLES>
205.54
3.67
2.4
0.62
1.75
0.14
0
0.49
0
-1.27
0
0
0.03
0

> <PUBCHEM_SHAPE_SELFOVERLAP>
403.357

> <PUBCHEM_SHAPE_VOLUME>
126.5

> <PUBCHEM_COORDINATE_TYPE>
2
5
10

$$$$

