9834
  -OEChem-06261204062D

 14 14  0     0  0  0  0  0  0999 V2000
    5.4641    2.0000    0.0000 S   0  0  0  0  0  0  0  0  0  0  0  0
    2.0000   -2.0000    0.0000 F   0  0  0  0  0  0  0  0  0  0  0  0
    3.7320    1.0000    0.0000 N   0  0  0  0  0  0  0  0  0  0  0  0
    3.7320    0.0000    0.0000 C   0  0  0  0  0  0  0  0  0  0  0  0
    2.8660   -0.5000    0.0000 C   0  0  0  0  0  0  0  0  0  0  0  0
    4.5981   -0.5000    0.0000 C   0  0  0  0  0  0  0  0  0  0  0  0
    2.8660   -1.5000    0.0000 C   0  0  0  0  0  0  0  0  0  0  0  0
    4.5981   -1.5000    0.0000 C   0  0  0  0  0  0  0  0  0  0  0  0
    3.7320   -2.0000    0.0000 C   0  0  0  0  0  0  0  0  0  0  0  0
    4.5981    1.5000    0.0000 C   0  0  0  0  0  0  0  0  0  0  0  0
    2.3291   -0.1900    0.0000 H   0  0  0  0  0  0  0  0  0  0  0  0
    5.1350   -0.1900    0.0000 H   0  0  0  0  0  0  0  0  0  0  0  0
    5.1350   -1.8100    0.0000 H   0  0  0  0  0  0  0  0  0  0  0  0
    3.7320   -2.6200    0.0000 H   0  0  0  0  0  0  0  0  0  0  0  0
  1 10  2  0  0  0  0
  2  7  1  0  0  0  0
  3  4  1  0  0  0  0
  3 10  2  0  0  0  0
  4  5  2  0  0  0  0
  4  6  1  0  0  0  0
  5  7  1  0  0  0  0
  5 11  1  0  0  0  0
  6  8  2  0  0  0  0
  6 12  1  0  0  0  0
  7  9  2  0  0  0  0
  8  9  1  0  0  0  0
  8 13  1  0  0  0  0
  9 14  1  0  0  0  0
M  END
> <PUBCHEM_COMPOUND_CID>
9834

> <PUBCHEM_COMPOUND_CANONICALIZED>
1

> <PUBCHEM_CACTVS_COMPLEXITY>
154

> <PUBCHEM_CACTVS_HBOND_ACCEPTOR>
3

> <PUBCHEM_CACTVS_HBOND_DONOR>
0

> <PUBCHEM_CACTVS_ROTATABLE_BOND>
1

> <PUBCHEM_CACTVS_SUBSKEYS>
AAADcYBiAQBAAAAAAAAAAAAAAAAAAAAAAAAwAAAAAAAAAAABAAAAHQQAAAAACAiBEAgwwIIAAACkACRCRACCAAAgAgAIiAAAZIgIICKAkZGAIABggAAIyAcQAAAAAAAAAAAAAAAAAAAAAAAAAAAAAAAAAA==

> <PUBCHEM_IUPAC_OPENEYE_NAME>
1-fluoro-3-isothiocyanato-benzene

> <PUBCHEM_IUPAC_CAS_NAME>
1-fluoro-3-isothiocyanatobenzene

> <PUBCHEM_IUPAC_NAME>
1-fluoro-3-isothiocyanatobenzene

> <PUBCHEM_IUPAC_SYSTEMATIC_NAME>
1-fluoranyl-3-isothiocyanato-benzene

> <PUBCHEM_IUPAC_TRADITIONAL_NAME>
1-fluoro-3-isothiocyanato-benzene

> <PUBCHEM_IUPAC_INCHI>
InChI=1S/C7H4FNS/c8-6-2-1-3-7(4-6)9-5-10/h1-4H

> <PUBCHEM_IUPAC_INCHIKEY>
HDBACITVPQEAGG-UHFFFAOYSA-N

> <PUBCHEM_XLOGP3>
3.5

> <PUBCHEM_EXACT_MASS>
153.004848

> <PUBCHEM_MOLECULAR_FORMULA>
C7H4FNS

> <PUBCHEM_MOLECULAR_WEIGHT>
153.176763

> <PUBCHEM_OPENEYE_CAN_SMILES>
C1=CC(=CC(=C1)F)N=C=S

> <PUBCHEM_OPENEYE_ISO_SMILES>
C1=CC(=CC(=C1)F)N=C=S

> <PUBCHEM_CACTVS_TPSA>
44.4

> <PUBCHEM_MONOISOTOPIC_WEIGHT>
153.004848

> <PUBCHEM_TOTAL_CHARGE>
0

> <PUBCHEM_HEAVY_ATOM_COUNT>
10

> <PUBCHEM_ATOM_DEF_STEREO_COUNT>
0

> <PUBCHEM_ATOM_UDEF_STEREO_COUNT>
0

> <PUBCHEM_BOND_DEF_STEREO_COUNT>
0

> <PUBCHEM_BOND_UDEF_STEREO_COUNT>
0

> <PUBCHEM_ISOTOPIC_ATOM_COUNT>
0

> <PUBCHEM_COMPONENT_COUNT>
1

> <PUBCHEM_CACTVS_TAUTO_COUNT>
1

> <PUBCHEM_COORDINATE_TYPE>
1
5
255

> <PUBCHEM_BONDANNOTATIONS>
4  5  8
4  6  8
5  7  8
6  8  8
7  9  8
8  9  8

$$$$

