582820
  -OEChem-06241222442D

 36 35  0     1  0  0  0  0  0999 V2000
    5.4641    1.0000    0.0000 O   0  0  0  0  0  0  0  0  0  0  0  0
    4.5981   -1.5000    0.0000 O   0  0  0  0  0  0  0  0  0  0  0  0
    7.1962    0.0000    0.0000 O   0  0  0  0  0  0  0  0  0  0  0  0
    2.8660   -0.5000    0.0000 O   0  0  0  0  0  0  0  0  0  0  0  0
    8.0622   -1.5000    0.0000 O   0  0  0  0  0  0  0  0  0  0  0  0
    3.7320    2.0000    0.0000 N   0  0  0  0  0  0  0  0  0  0  0  0
    5.4641    0.0000    0.0000 C   0  0  3  0  0  0  0  0  0  0  0  0
    4.5981   -0.5000    0.0000 C   0  0  3  0  0  0  0  0  0  0  0  0
    6.3301   -0.5000    0.0000 C   0  0  3  0  0  0  0  0  0  0  0  0
    3.7320    0.0000    0.0000 C   0  0  3  0  0  0  0  0  0  0  0  0
    6.3301   -1.5000    0.0000 C   0  0  0  0  0  0  0  0  0  0  0  0
    6.3301    1.5000    0.0000 C   0  0  0  0  0  0  0  0  0  0  0  0
    3.7320   -2.0000    0.0000 C   0  0  0  0  0  0  0  0  0  0  0  0
    3.7320    1.0000    0.0000 C   0  0  0  0  0  0  0  0  0  0  0  0
    8.0622   -0.5000    0.0000 C   0  0  0  0  0  0  0  0  0  0  0  0
    2.0000    0.0000    0.0000 C   0  0  0  0  0  0  0  0  0  0  0  0
    8.9282    0.0000    0.0000 C   0  0  0  0  0  0  0  0  0  0  0  0
    6.2002    0.4250    0.0000 H   0  0  0  0  0  0  0  0  0  0  0  0
    5.3342   -0.9250    0.0000 H   0  0  0  0  0  0  0  0  0  0  0  0
    7.0662   -0.9250    0.0000 H   0  0  0  0  0  0  0  0  0  0  0  0
    3.7320   -0.8500    0.0000 H   0  0  0  0  0  0  0  0  0  0  0  0
    5.7101   -1.5000    0.0000 H   0  0  0  0  0  0  0  0  0  0  0  0
    6.3301   -2.1200    0.0000 H   0  0  0  0  0  0  0  0  0  0  0  0
    6.9501   -1.5000    0.0000 H   0  0  0  0  0  0  0  0  0  0  0  0
    6.6401    0.9631    0.0000 H   0  0  0  0  0  0  0  0  0  0  0  0
    6.8671    1.8100    0.0000 H   0  0  0  0  0  0  0  0  0  0  0  0
    6.0201    2.0369    0.0000 H   0  0  0  0  0  0  0  0  0  0  0  0
    3.4220   -1.4631    0.0000 H   0  0  0  0  0  0  0  0  0  0  0  0
    3.1951   -2.3100    0.0000 H   0  0  0  0  0  0  0  0  0  0  0  0
    4.0420   -2.5369    0.0000 H   0  0  0  0  0  0  0  0  0  0  0  0
    2.3100    0.5369    0.0000 H   0  0  0  0  0  0  0  0  0  0  0  0
    1.4631    0.3100    0.0000 H   0  0  0  0  0  0  0  0  0  0  0  0
    1.6900   -0.5369    0.0000 H   0  0  0  0  0  0  0  0  0  0  0  0
    9.2382   -0.5369    0.0000 H   0  0  0  0  0  0  0  0  0  0  0  0
    9.4651    0.3100    0.0000 H   0  0  0  0  0  0  0  0  0  0  0  0
    8.6182    0.5369    0.0000 H   0  0  0  0  0  0  0  0  0  0  0  0
  1  7  1  0  0  0  0
  1 12  1  0  0  0  0
  2  8  1  0  0  0  0
  2 13  1  0  0  0  0
  3  9  1  0  0  0  0
  3 15  1  0  0  0  0
  4 10  1  0  0  0  0
  4 16  1  0  0  0  0
  5 15  2  0  0  0  0
  6 14  3  0  0  0  0
  7  8  1  0  0  0  0
  7  9  1  0  0  0  0
  7 18  1  0  0  0  0
  8 10  1  0  0  0  0
  8 19  1  0  0  0  0
  9 11  1  0  0  0  0
  9 20  1  0  0  0  0
 10 14  1  0  0  0  0
 10 21  1  0  0  0  0
 11 22  1  0  0  0  0
 11 23  1  0  0  0  0
 11 24  1  0  0  0  0
 12 25  1  0  0  0  0
 12 26  1  0  0  0  0
 12 27  1  0  0  0  0
 13 28  1  0  0  0  0
 13 29  1  0  0  0  0
 13 30  1  0  0  0  0
 15 17  1  0  0  0  0
 16 31  1  0  0  0  0
 16 32  1  0  0  0  0
 16 33  1  0  0  0  0
 17 34  1  0  0  0  0
 17 35  1  0  0  0  0
 17 36  1  0  0  0  0
M  END
> <PUBCHEM_COMPOUND_CID>
582820

> <PUBCHEM_COMPOUND_CANONICALIZED>
1

> <PUBCHEM_CACTVS_COMPLEXITY>
285

> <PUBCHEM_CACTVS_HBOND_ACCEPTOR>
6

> <PUBCHEM_CACTVS_HBOND_DONOR>
0

> <PUBCHEM_CACTVS_ROTATABLE_BOND>
8

> <PUBCHEM_CACTVS_SUBSKEYS>
AAADceByOAAAAAAAAAAAAAAAAAAAAAAAAAAAAAAAAAAAAAAAAAAAHgAAAAAACBShgAICCAAABAAYBACQCAAAAAAAAAAAAAAAAAABgAIAAAACAAAFAAACAAnAAAAAAAAAAAAAAAAAAAAAAAAAAAAAAAAAAA==

> <PUBCHEM_IUPAC_OPENEYE_NAME>
(4-cyano-2,3,4-trimethoxy-1-methyl-butyl) acetate

> <PUBCHEM_IUPAC_CAS_NAME>
acetic acid (5-cyano-3,4,5-trimethoxypentan-2-yl) ester

> <PUBCHEM_IUPAC_NAME>
(5-cyano-3,4,5-trimethoxypentan-2-yl) acetate

> <PUBCHEM_IUPAC_SYSTEMATIC_NAME>
(5-cyano-3,4,5-trimethoxy-pentan-2-yl) ethanoate

> <PUBCHEM_IUPAC_TRADITIONAL_NAME>
acetic acid (4-cyano-2,3,4-trimethoxy-1-methyl-butyl) ester

> <PUBCHEM_IUPAC_INCHI>
InChI=1S/C11H19NO5/c1-7(17-8(2)13)10(15-4)11(16-5)9(6-12)14-3/h7,9-11H,1-5H3

> <PUBCHEM_IUPAC_INCHIKEY>
YSNPHLKWHFLKJT-UHFFFAOYSA-N

> <PUBCHEM_XLOGP3_AA>
0.1

> <PUBCHEM_EXACT_MASS>
245.126323

> <PUBCHEM_MOLECULAR_FORMULA>
C11H19NO5

> <PUBCHEM_MOLECULAR_WEIGHT>
245.27226

> <PUBCHEM_OPENEYE_CAN_SMILES>
CC(C(C(C(C#N)OC)OC)OC)OC(=O)C

> <PUBCHEM_OPENEYE_ISO_SMILES>
CC(C(C(C(C#N)OC)OC)OC)OC(=O)C

> <PUBCHEM_CACTVS_TPSA>
77.8

> <PUBCHEM_MONOISOTOPIC_WEIGHT>
245.126323

> <PUBCHEM_TOTAL_CHARGE>
0

> <PUBCHEM_HEAVY_ATOM_COUNT>
17

> <PUBCHEM_ATOM_DEF_STEREO_COUNT>
0

> <PUBCHEM_ATOM_UDEF_STEREO_COUNT>
4

> <PUBCHEM_BOND_DEF_STEREO_COUNT>
0

> <PUBCHEM_BOND_UDEF_STEREO_COUNT>
0

> <PUBCHEM_ISOTOPIC_ATOM_COUNT>
0

> <PUBCHEM_COMPONENT_COUNT>
1

> <PUBCHEM_CACTVS_TAUTO_COUNT>
1

> <PUBCHEM_COORDINATE_TYPE>
1
5
255

> <PUBCHEM_BONDANNOTATIONS>
10  21  3
7  18  3
8  19  3
9  20  3

$$$$

