47205045
  -OEChem-06241222573D

 36 37  0     0  0  0  0  0  0999 V2000
    0.8233    2.3802   -0.0470 O   0  0  0  0  0  0  0  0  0  0  0  0
    3.1440   -1.3409    0.6452 O   0  0  0  0  0  0  0  0  0  0  0  0
    1.6831   -0.9973   -1.1264 N   0  0  0  0  0  0  0  0  0  0  0  0
   -1.4414   -2.2916   -0.7523 N   0  0  0  0  0  0  0  0  0  0  0  0
   -2.4177   -2.2879    0.1713 N   0  0  0  0  0  0  0  0  0  0  0  0
    3.0277    1.7393    0.6362 C   0  0  0  0  0  0  0  0  0  0  0  0
    3.1978    0.7746   -0.5330 C   0  0  0  0  0  0  0  0  0  0  0  0
    1.5725    1.8983    1.0609 C   0  0  0  0  0  0  0  0  0  0  0  0
    2.6898   -0.6285   -0.2460 C   0  0  0  0  0  0  0  0  0  0  0  0
    1.0463   -2.2932   -1.0858 C   0  0  0  0  0  0  0  0  0  0  0  0
   -0.1835   -2.2882   -0.2248 C   0  0  0  0  0  0  0  0  0  0  0  0
   -0.4977    2.0192   -0.1034 C   0  0  0  0  0  0  0  0  0  0  0  0
   -0.3485   -2.2815    1.1388 C   0  0  0  0  0  0  0  0  0  0  0  0
   -1.2092    1.7929    1.0748 C   0  0  0  0  0  0  0  0  0  0  0  0
   -1.1301    1.8760   -1.3384 C   0  0  0  0  0  0  0  0  0  0  0  0
   -1.7439   -2.2819    1.3245 C   0  0  0  0  0  0  0  0  0  0  0  0
   -2.5531    1.4233    1.0179 C   0  0  0  0  0  0  0  0  0  0  0  0
   -2.4739    1.5067   -1.3953 C   0  0  0  0  0  0  0  0  0  0  0  0
   -3.1855    1.2804   -0.2172 C   0  0  0  0  0  0  0  0  0  0  0  0
    3.6139    1.3918    1.4948 H   0  0  0  0  0  0  0  0  0  0  0  0
    3.4286    2.7150    0.3366 H   0  0  0  0  0  0  0  0  0  0  0  0
    4.2645    0.6816   -0.7714 H   0  0  0  0  0  0  0  0  0  0  0  0
    2.7240    1.1884   -1.4305 H   0  0  0  0  0  0  0  0  0  0  0  0
    1.2065    0.9298    1.4240 H   0  0  0  0  0  0  0  0  0  0  0  0
    1.5115    2.6278    1.8766 H   0  0  0  0  0  0  0  0  0  0  0  0
    1.7560   -3.0372   -0.7070 H   0  0  0  0  0  0  0  0  0  0  0  0
    0.7958   -2.5637   -2.1172 H   0  0  0  0  0  0  0  0  0  0  0  0
    1.3503   -0.3349   -1.8205 H   0  0  0  0  0  0  0  0  0  0  0  0
    0.4272   -2.2761    1.8904 H   0  0  0  0  0  0  0  0  0  0  0  0
   -1.7077   -2.2944   -1.7292 H   0  0  0  0  0  0  0  0  0  0  0  0
   -0.7630    1.9198    2.0566 H   0  0  0  0  0  0  0  0  0  0  0  0
   -0.5797    2.0486   -2.2592 H   0  0  0  0  0  0  0  0  0  0  0  0
   -2.2978   -2.2766    2.2523 H   0  0  0  0  0  0  0  0  0  0  0  0
   -3.1090    1.2516    1.9350 H   0  0  0  0  0  0  0  0  0  0  0  0
   -2.9659    1.3940   -2.3569 H   0  0  0  0  0  0  0  0  0  0  0  0
   -4.2317    0.9926   -0.2614 H   0  0  0  0  0  0  0  0  0  0  0  0
  1  8  1  0  0  0  0
  1 12  1  0  0  0  0
  2  9  2  0  0  0  0
  3  9  1  0  0  0  0
  3 10  1  0  0  0  0
  3 28  1  0  0  0  0
  4  5  1  0  0  0  0
  4 11  1  0  0  0  0
  4 30  1  0  0  0  0
  5 16  2  0  0  0  0
  6  7  1  0  0  0  0
  6  8  1  0  0  0  0
  6 20  1  0  0  0  0
  6 21  1  0  0  0  0
  7  9  1  0  0  0  0
  7 22  1  0  0  0  0
  7 23  1  0  0  0  0
  8 24  1  0  0  0  0
  8 25  1  0  0  0  0
 10 11  1  0  0  0  0
 10 26  1  0  0  0  0
 10 27  1  0  0  0  0
 11 13  2  0  0  0  0
 12 14  2  0  0  0  0
 12 15  1  0  0  0  0
 13 16  1  0  0  0  0
 13 29  1  0  0  0  0
 14 17  1  0  0  0  0
 14 31  1  0  0  0  0
 15 18  2  0  0  0  0
 15 32  1  0  0  0  0
 16 33  1  0  0  0  0
 17 19  2  0  0  0  0
 17 34  1  0  0  0  0
 18 19  1  0  0  0  0
 18 35  1  0  0  0  0
 19 36  1  0  0  0  0
M  END
> <PUBCHEM_COMPOUND_CID>
47205045

> <PUBCHEM_CONFORMER_RMSD>
1.2

> <PUBCHEM_CONFORMER_DIVERSEORDER>
1
35
22
8
29
13
39
3
45
48
15
12
40
19
2
41
38
50
23
46
17
28
52
36
10
47
25
49
37
24
30
32
18
5
51
53
20
6
4
14
31
34
21
33
27
44
9
42
7
26
43
11
16

> <PUBCHEM_MMFF94_PARTIAL_CHARGES>
27
1 -0.36
10 0.48
11 -0.33
12 0.08
13 -0.15
14 -0.15
15 -0.15
16 0.14
17 -0.15
18 -0.15
19 -0.15
2 -0.57
28 0.37
29 0.15
3 -0.73
30 0.27
31 0.15
32 0.15
33 0.15
34 0.15
35 0.15
36 0.15
4 0.3
5 -0.71
7 0.06
8 0.28
9 0.57

> <PUBCHEM_EFFECTIVE_ROTOR_COUNT>
8

> <PUBCHEM_PHARMACOPHORE_FEATURES>
7
1 1 acceptor
1 2 acceptor
1 3 donor
1 4 donor
1 5 acceptor
5 4 5 11 13 16 rings
6 12 14 15 17 18 19 rings

> <PUBCHEM_HEAVY_ATOM_COUNT>
19

> <PUBCHEM_ATOM_DEF_STEREO_COUNT>
0

> <PUBCHEM_ATOM_UDEF_STEREO_COUNT>
0

> <PUBCHEM_BOND_DEF_STEREO_COUNT>
0

> <PUBCHEM_BOND_UDEF_STEREO_COUNT>
0

> <PUBCHEM_ISOTOPIC_ATOM_COUNT>
0

> <PUBCHEM_COMPONENT_COUNT>
1

> <PUBCHEM_CACTVS_TAUTO_COUNT>
4

> <PUBCHEM_CONFORMER_ID>
02D04AB500000001

> <PUBCHEM_MMFF94_ENERGY>
32.221

> <PUBCHEM_FEATURE_SELFOVERLAP>
35.52

> <PUBCHEM_SHAPE_FINGERPRINT>
104564 63 18049991208522873060
10759866 29 18130779045787745230
12596599 1 17244422229253308837
13132413 78 15959206944142536420
13140716 1 18409450297580073170
14251745 187 18337118851815925689
14251757 17 17837248941880767471
15881359 60 17827661161324990746
17357779 13 18047759204192310911
17492 54 18342460373998644709
20905425 154 18192712232923879831
238 59 17981630443350495685
2748010 2 18335135346019725244
3524813 1 18126830823511628439
5282274 181 18121748752140614521
5283268 108 17911502213215284307
81228 2 18127134069619657497

> <PUBCHEM_SHAPE_MULTIPOLES>
364.33
4.82
3.94
1.38
1.55
1.72
0.04
-1.52
0.06
-0.8
-0.38
-0.39
0
0.86

> <PUBCHEM_SHAPE_SELFOVERLAP>
757.542

> <PUBCHEM_SHAPE_VOLUME>
207

> <PUBCHEM_COORDINATE_TYPE>
2
5
10

$$$$

