854050
  -OEChem-06241222472D

 38 39  0     0  0  0  0  0  0999 V2000
    3.7320    0.8170    0.0000 O   0  0  0  0  0  0  0  0  0  0  0  0
    2.0000    0.8170    0.0000 O   0  0  0  0  0  0  0  0  0  0  0  0
    2.8660   -2.6830    0.0000 N   0  0  0  0  0  0  0  0  0  0  0  0
    2.8660    0.3170    0.0000 C   0  0  0  0  0  0  0  0  0  0  0  0
    3.7320   -0.1830    0.0000 C   0  0  0  0  0  0  0  0  0  0  0  0
    2.0000   -0.1830    0.0000 C   0  0  0  0  0  0  0  0  0  0  0  0
    2.8660   -1.6830    0.0000 C   0  0  0  0  0  0  0  0  0  0  0  0
    3.7320   -1.1830    0.0000 C   0  0  0  0  0  0  0  0  0  0  0  0
    2.0000   -1.1830    0.0000 C   0  0  0  0  0  0  0  0  0  0  0  0
    2.8660    2.3170    0.0000 C   0  0  0  0  0  0  0  0  0  0  0  0
    3.7320    1.8170    0.0000 C   0  0  0  0  0  0  0  0  0  0  0  0
    2.0000    1.8170    0.0000 C   0  0  0  0  0  0  0  0  0  0  0  0
    3.3660    3.1830    0.0000 C   0  0  0  0  0  0  0  0  0  0  0  0
    2.3660    3.1830    0.0000 C   0  0  0  0  0  0  0  0  0  0  0  0
    2.0000   -3.1830    0.0000 C   0  0  0  0  0  0  0  0  0  0  0  0
    1.7880    0.3996    0.0000 H   0  0  0  0  0  0  0  0  0  0  0  0
    1.3894   -0.2907    0.0000 H   0  0  0  0  0  0  0  0  0  0  0  0
    4.3426   -0.2907    0.0000 H   0  0  0  0  0  0  0  0  0  0  0  0
    3.9441    0.3996    0.0000 H   0  0  0  0  0  0  0  0  0  0  0  0
    3.4030   -1.9930    0.0000 H   0  0  0  0  0  0  0  0  0  0  0  0
    3.9441   -1.7656    0.0000 H   0  0  0  0  0  0  0  0  0  0  0  0
    4.3426   -1.0754    0.0000 H   0  0  0  0  0  0  0  0  0  0  0  0
    1.3894   -1.0754    0.0000 H   0  0  0  0  0  0  0  0  0  0  0  0
    1.7880   -1.7656    0.0000 H   0  0  0  0  0  0  0  0  0  0  0  0
    4.3426    1.7093    0.0000 H   0  0  0  0  0  0  0  0  0  0  0  0
    3.9441    2.3996    0.0000 H   0  0  0  0  0  0  0  0  0  0  0  0
    1.7880    2.3996    0.0000 H   0  0  0  0  0  0  0  0  0  0  0  0
    1.3894    1.7093    0.0000 H   0  0  0  0  0  0  0  0  0  0  0  0
    3.9030    2.8730    0.0000 H   0  0  0  0  0  0  0  0  0  0  0  0
    3.6760    3.7200    0.0000 H   0  0  0  0  0  0  0  0  0  0  0  0
    2.9030    3.4930    0.0000 H   0  0  0  0  0  0  0  0  0  0  0  0
    2.0560    3.7200    0.0000 H   0  0  0  0  0  0  0  0  0  0  0  0
    1.8291    2.8730    0.0000 H   0  0  0  0  0  0  0  0  0  0  0  0
    2.8291    3.4930    0.0000 H   0  0  0  0  0  0  0  0  0  0  0  0
    3.4030   -2.9930    0.0000 H   0  0  0  0  0  0  0  0  0  0  0  0
    1.6900   -2.6461    0.0000 H   0  0  0  0  0  0  0  0  0  0  0  0
    1.4631   -3.4930    0.0000 H   0  0  0  0  0  0  0  0  0  0  0  0
    2.3100   -3.7200    0.0000 H   0  0  0  0  0  0  0  0  0  0  0  0
  1  4  1  0  0  0  0
  1 11  1  0  0  0  0
  2  4  1  0  0  0  0
  2 12  1  0  0  0  0
  3  7  1  0  0  0  0
  3 15  1  0  0  0  0
  3 35  1  0  0  0  0
  4  5  1  0  0  0  0
  4  6  1  0  0  0  0
  5  8  1  0  0  0  0
  5 18  1  0  0  0  0
  5 19  1  0  0  0  0
  6  9  1  0  0  0  0
  6 16  1  0  0  0  0
  6 17  1  0  0  0  0
  7  8  1  0  0  0  0
  7  9  1  0  0  0  0
  7 20  1  0  0  0  0
  8 21  1  0  0  0  0
  8 22  1  0  0  0  0
  9 23  1  0  0  0  0
  9 24  1  0  0  0  0
 10 11  1  0  0  0  0
 10 12  1  0  0  0  0
 10 13  1  0  0  0  0
 10 14  1  0  0  0  0
 11 25  1  0  0  0  0
 11 26  1  0  0  0  0
 12 27  1  0  0  0  0
 12 28  1  0  0  0  0
 13 29  1  0  0  0  0
 13 30  1  0  0  0  0
 13 34  1  0  0  0  0
 14 31  1  0  0  0  0
 14 32  1  0  0  0  0
 14 33  1  0  0  0  0
 15 36  1  0  0  0  0
 15 37  1  0  0  0  0
 15 38  1  0  0  0  0
M  END
> <PUBCHEM_COMPOUND_CID>
854050

> <PUBCHEM_COMPOUND_CANONICALIZED>
1

> <PUBCHEM_CACTVS_COMPLEXITY>
208

> <PUBCHEM_CACTVS_HBOND_ACCEPTOR>
3

> <PUBCHEM_CACTVS_HBOND_DONOR>
1

> <PUBCHEM_CACTVS_ROTATABLE_BOND>
1

> <PUBCHEM_CACTVS_SUBSKEYS>
AAADceByMAAAAAAAAAAAAAAAAAAAAAAAAAA0QAAAAAAAAAAAAAAAHgAQAAAADizhgAYCCALABAAAAAAAAAAAAAAAAAAAAIAIAAAQAAIAgAAmAAAFEAAEAAGwQAAAAAAAAAAAAAAAgAAAAAAAAAAAAAAAAA==

> <PUBCHEM_IUPAC_OPENEYE_NAME>
N,3,3-trimethyl-1,5-dioxaspiro[5.5]undecan-9-amine

> <PUBCHEM_IUPAC_CAS_NAME>
N,3,3-trimethyl-1,5-dioxaspiro[5.5]undecan-9-amine

> <PUBCHEM_IUPAC_NAME>
N,3,3-trimethyl-1,5-dioxaspiro[5.5]undecan-9-amine

> <PUBCHEM_IUPAC_SYSTEMATIC_NAME>
N,3,3-trimethyl-1,5-dioxaspiro[5.5]undecan-9-amine

> <PUBCHEM_IUPAC_TRADITIONAL_NAME>
(3,3-dimethyl-1,5-dioxaspiro[5.5]undecan-9-yl)-methyl-amine

> <PUBCHEM_IUPAC_INCHI>
InChI=1S/C12H23NO2/c1-11(2)8-14-12(15-9-11)6-4-10(13-3)5-7-12/h10,13H,4-9H2,1-3H3

> <PUBCHEM_IUPAC_INCHIKEY>
AGIWCGXGVSTDQF-UHFFFAOYSA-N

> <PUBCHEM_XLOGP3_AA>
1.7

> <PUBCHEM_EXACT_MASS>
213.172879

> <PUBCHEM_MOLECULAR_FORMULA>
C12H23NO2

> <PUBCHEM_MOLECULAR_WEIGHT>
213.31652

> <PUBCHEM_OPENEYE_CAN_SMILES>
CC1(COC2(CCC(CC2)NC)OC1)C

> <PUBCHEM_OPENEYE_ISO_SMILES>
CC1(COC2(CCC(CC2)NC)OC1)C

> <PUBCHEM_CACTVS_TPSA>
30.5

> <PUBCHEM_MONOISOTOPIC_WEIGHT>
213.172879

> <PUBCHEM_TOTAL_CHARGE>
0

> <PUBCHEM_HEAVY_ATOM_COUNT>
15

> <PUBCHEM_ATOM_DEF_STEREO_COUNT>
0

> <PUBCHEM_ATOM_UDEF_STEREO_COUNT>
0

> <PUBCHEM_BOND_DEF_STEREO_COUNT>
0

> <PUBCHEM_BOND_UDEF_STEREO_COUNT>
0

> <PUBCHEM_ISOTOPIC_ATOM_COUNT>
0

> <PUBCHEM_COMPONENT_COUNT>
1

> <PUBCHEM_CACTVS_TAUTO_COUNT>
1

> <PUBCHEM_COORDINATE_TYPE>
1
5
255

$$$$

