47205519
  -OEChem-06241222592D

 35 36  0     1  0  0  0  0  0999 V2000
    5.4641   -1.6144    0.0000 O   0  0  0  0  0  0  0  0  0  0  0  0
    2.0000   -2.6144    0.0000 O   0  0  0  0  0  0  0  0  0  0  0  0
    4.5981   -0.1144    0.0000 N   0  0  0  0  0  0  0  0  0  0  0  0
    3.7320   -2.6144    0.0000 N   0  0  0  0  0  0  0  0  0  0  0  0
    7.1391    3.4734    0.0000 N   0  0  0  0  0  0  0  0  0  0  0  0
    6.8301    4.4244    0.0000 N   0  0  0  0  0  0  0  0  0  0  0  0
    2.8660   -4.1144    0.0000 N   0  0  0  0  0  0  0  0  0  0  0  0
    3.7320   -1.6144    0.0000 C   0  0  3  0  0  0  0  0  0  0  0  0
    5.4641    0.3856    0.0000 C   0  0  0  0  0  0  0  0  0  0  0  0
    6.3301    1.8856    0.0000 C   0  0  0  0  0  0  0  0  0  0  0  0
    4.5981   -1.1144    0.0000 C   0  0  0  0  0  0  0  0  0  0  0  0
    5.4641    1.3856    0.0000 C   0  0  0  0  0  0  0  0  0  0  0  0
    2.8660   -1.1144    0.0000 C   0  0  0  0  0  0  0  0  0  0  0  0
    6.3301    2.8856    0.0000 C   0  0  0  0  0  0  0  0  0  0  0  0
    6.3301   -0.1144    0.0000 C   0  0  0  0  0  0  0  0  0  0  0  0
    7.1962    1.3856    0.0000 C   0  0  0  0  0  0  0  0  0  0  0  0
    7.1962    0.3856    0.0000 C   0  0  0  0  0  0  0  0  0  0  0  0
    5.5211    3.4734    0.0000 C   0  0  0  0  0  0  0  0  0  0  0  0
    2.8660   -3.1144    0.0000 C   0  0  0  0  0  0  0  0  0  0  0  0
    5.8301    4.4244    0.0000 C   0  0  0  0  0  0  0  0  0  0  0  0
    4.2690   -1.9244    0.0000 H   0  0  0  0  0  0  0  0  0  0  0  0
    4.9272    1.6956    0.0000 H   0  0  0  0  0  0  0  0  0  0  0  0
    4.0611    0.1956    0.0000 H   0  0  0  0  0  0  0  0  0  0  0  0
    3.1760   -0.5775    0.0000 H   0  0  0  0  0  0  0  0  0  0  0  0
    2.3291   -0.8044    0.0000 H   0  0  0  0  0  0  0  0  0  0  0  0
    2.5560   -1.6514    0.0000 H   0  0  0  0  0  0  0  0  0  0  0  0
    6.3301   -0.7344    0.0000 H   0  0  0  0  0  0  0  0  0  0  0  0
    4.2690   -2.9244    0.0000 H   0  0  0  0  0  0  0  0  0  0  0  0
    7.7331    1.6956    0.0000 H   0  0  0  0  0  0  0  0  0  0  0  0
    7.7331    0.0756    0.0000 H   0  0  0  0  0  0  0  0  0  0  0  0
    4.9315    3.2818    0.0000 H   0  0  0  0  0  0  0  0  0  0  0  0
    7.7288    3.2818    0.0000 H   0  0  0  0  0  0  0  0  0  0  0  0
    5.4657    4.9260    0.0000 H   0  0  0  0  0  0  0  0  0  0  0  0
    2.3291   -4.4244    0.0000 H   0  0  0  0  0  0  0  0  0  0  0  0
    3.4030   -4.4244    0.0000 H   0  0  0  0  0  0  0  0  0  0  0  0
  1 11  2  0  0  0  0
  2 19  2  0  0  0  0
  3  9  1  0  0  0  0
  3 11  1  0  0  0  0
  3 23  1  0  0  0  0
  4  8  1  0  0  0  0
  4 19  1  0  0  0  0
  4 28  1  0  0  0  0
  5  6  1  0  0  0  0
  5 14  1  0  0  0  0
  5 32  1  0  0  0  0
  6 20  2  0  0  0  0
  7 19  1  0  0  0  0
  7 34  1  0  0  0  0
  7 35  1  0  0  0  0
  8 11  1  0  0  0  0
  8 13  1  0  0  0  0
  8 21  1  0  0  0  0
  9 12  1  0  0  0  0
  9 15  2  0  0  0  0
 10 12  2  0  0  0  0
 10 14  1  0  0  0  0
 10 16  1  0  0  0  0
 12 22  1  0  0  0  0
 13 24  1  0  0  0  0
 13 25  1  0  0  0  0
 13 26  1  0  0  0  0
 14 18  2  0  0  0  0
 15 17  1  0  0  0  0
 15 27  1  0  0  0  0
 16 17  2  0  0  0  0
 16 29  1  0  0  0  0
 17 30  1  0  0  0  0
 18 20  1  0  0  0  0
 18 31  1  0  0  0  0
 20 33  1  0  0  0  0
M  END
> <PUBCHEM_COMPOUND_CID>
47205519

> <PUBCHEM_COMPOUND_CANONICALIZED>
1

> <PUBCHEM_CACTVS_COMPLEXITY>
363

> <PUBCHEM_CACTVS_HBOND_ACCEPTOR>
3

> <PUBCHEM_CACTVS_HBOND_DONOR>
4

> <PUBCHEM_CACTVS_ROTATABLE_BOND>
4

> <PUBCHEM_CACTVS_SUBSKEYS>
AAADccBzsAAAAAAAAAAAAAAAAAAAAWAAAAAwAAAAAAAAAAABwAAAHgAYAAAADCjBngQ/wJLjAACqAzV3UACSBAAhggAYuaG4ZJiIYKLA0fGUpAhgngLIyAcQgIAOAAAAQAAAAAAAAACAAAAAAAAAAAAAAA==

> <PUBCHEM_IUPAC_OPENEYE_NAME>
N-[3-(1H-pyrazol-5-yl)phenyl]-2-ureido-propanamide

> <PUBCHEM_IUPAC_CAS_NAME>
2-(carbamoylamino)-N-[3-(1H-pyrazol-5-yl)phenyl]propanamide

> <PUBCHEM_IUPAC_NAME>
2-(carbamoylamino)-N-[3-(1H-pyrazol-5-yl)phenyl]propanamide

> <PUBCHEM_IUPAC_SYSTEMATIC_NAME>
2-(aminocarbonylamino)-N-[3-(1H-pyrazol-5-yl)phenyl]propanamide

> <PUBCHEM_IUPAC_TRADITIONAL_NAME>
N-[3-(1H-pyrazol-5-yl)phenyl]-2-ureido-propionamide

> <PUBCHEM_IUPAC_INCHI>
InChI=1S/C13H15N5O2/c1-8(16-13(14)20)12(19)17-10-4-2-3-9(7-10)11-5-6-15-18-11/h2-8H,1H3,(H,15,18)(H,17,19)(H3,14,16,20)

> <PUBCHEM_IUPAC_INCHIKEY>
PGVBOMJDEXVZED-UHFFFAOYSA-N

> <PUBCHEM_XLOGP3_AA>
0.2

> <PUBCHEM_EXACT_MASS>
273.122575

> <PUBCHEM_MOLECULAR_FORMULA>
C13H15N5O2

> <PUBCHEM_MOLECULAR_WEIGHT>
273.2905

> <PUBCHEM_OPENEYE_CAN_SMILES>
CC(C(=O)NC1=CC=CC(=C1)C2=CC=NN2)NC(=O)N

> <PUBCHEM_OPENEYE_ISO_SMILES>
CC(C(=O)NC1=CC=CC(=C1)C2=CC=NN2)NC(=O)N

> <PUBCHEM_CACTVS_TPSA>
113

> <PUBCHEM_MONOISOTOPIC_WEIGHT>
273.122575

> <PUBCHEM_TOTAL_CHARGE>
0

> <PUBCHEM_HEAVY_ATOM_COUNT>
20

> <PUBCHEM_ATOM_DEF_STEREO_COUNT>
0

> <PUBCHEM_ATOM_UDEF_STEREO_COUNT>
1

> <PUBCHEM_BOND_DEF_STEREO_COUNT>
0

> <PUBCHEM_BOND_UDEF_STEREO_COUNT>
0

> <PUBCHEM_ISOTOPIC_ATOM_COUNT>
0

> <PUBCHEM_COMPONENT_COUNT>
1

> <PUBCHEM_CACTVS_TAUTO_COUNT>
18

> <PUBCHEM_COORDINATE_TYPE>
1
5
255

> <PUBCHEM_BONDANNOTATIONS>
10  12  8
10  16  8
14  18  8
15  17  8
16  17  8
18  20  8
5  14  8
5  6  8
6  20  8
8  13  3
9  12  8
9  15  8

$$$$

