11464
  -OEChem-06261205423D

 15 15  0     0  0  0  0  0  0999 V2000
    3.9347    0.0275    0.0015 Br  0  0  0  0  0  0  0  0  0  0  0  0
   -2.7360    1.1960    0.0009 O   0  0  0  0  0  0  0  0  0  0  0  0
   -2.9012   -1.0709    0.0012 O   0  0  0  0  0  0  0  0  0  0  0  0
   -0.7445   -0.0352   -0.0012 C   0  0  0  0  0  0  0  0  0  0  0  0
   -0.0309   -1.2337   -0.0009 C   0  0  0  0  0  0  0  0  0  0  0  0
   -0.0634    1.1822   -0.0008 C   0  0  0  0  0  0  0  0  0  0  0  0
    1.3638   -1.2148   -0.0003 C   0  0  0  0  0  0  0  0  0  0  0  0
    1.3314    1.2011   -0.0003 C   0  0  0  0  0  0  0  0  0  0  0  0
    2.0450    0.0025    0.0000 C   0  0  0  0  0  0  0  0  0  0  0  0
   -2.1988   -0.0547    0.0000 C   0  0  0  0  0  0  0  0  0  0  0  0
   -0.5428   -2.1925   -0.0009 H   0  0  0  0  0  0  0  0  0  0  0  0
   -0.5794    2.1382   -0.0008 H   0  0  0  0  0  0  0  0  0  0  0  0
    1.9050   -2.1575    0.0001 H   0  0  0  0  0  0  0  0  0  0  0  0
    1.8473    2.1578    0.0001 H   0  0  0  0  0  0  0  0  0  0  0  0
   -3.7167    1.1719    0.0022 H   0  0  0  0  0  0  0  0  0  0  0  0
  1  9  1  0  0  0  0
  2 10  1  0  0  0  0
  2 15  1  0  0  0  0
  3 10  2  0  0  0  0
  4  5  2  0  0  0  0
  4  6  1  0  0  0  0
  4 10  1  0  0  0  0
  5  7  1  0  0  0  0
  5 11  1  0  0  0  0
  6  8  2  0  0  0  0
  6 12  1  0  0  0  0
  7  9  2  0  0  0  0
  7 13  1  0  0  0  0
  8  9  1  0  0  0  0
  8 14  1  0  0  0  0
M  END
> <PUBCHEM_COMPOUND_CID>
11464

> <PUBCHEM_CONFORMER_RMSD>
0.4

> <PUBCHEM_CONFORMER_DIVERSEORDER>
1
2

> <PUBCHEM_MMFF94_PARTIAL_CHARGES>
15
1 -0.11
10 0.63
11 0.15
12 0.15
13 0.15
14 0.15
15 0.5
2 -0.65
3 -0.57
4 0.09
5 -0.15
6 -0.15
7 -0.15
8 -0.15
9 0.11

> <PUBCHEM_EFFECTIVE_ROTOR_COUNT>
1

> <PUBCHEM_PHARMACOPHORE_FEATURES>
5
1 1 hydrophobe
1 2 acceptor
1 3 acceptor
3 2 3 10 anion
6 4 5 6 7 8 9 rings

> <PUBCHEM_HEAVY_ATOM_COUNT>
10

> <PUBCHEM_ATOM_DEF_STEREO_COUNT>
0

> <PUBCHEM_ATOM_UDEF_STEREO_COUNT>
0

> <PUBCHEM_BOND_DEF_STEREO_COUNT>
0

> <PUBCHEM_BOND_UDEF_STEREO_COUNT>
0

> <PUBCHEM_ISOTOPIC_ATOM_COUNT>
0

> <PUBCHEM_COMPONENT_COUNT>
1

> <PUBCHEM_CACTVS_TAUTO_COUNT>
1

> <PUBCHEM_CONFORMER_ID>
00002CC800000001

> <PUBCHEM_MMFF94_ENERGY>
25.3535

> <PUBCHEM_FEATURE_SELFOVERLAP>
25.429

> <PUBCHEM_SHAPE_FINGERPRINT>
10857977 72 18410302392941994106
11062470 55 17632858642022708172
12032990 46 18409441480001911534
12932764 1 17023193724965661758
14325111 11 18410855456176170304
16945 1 18410855434463950502
193761 8 17618223253251474852
20201158 50 18412545422437936787
21040471 1 18338516322525947748
21293036 1 18411695461758911300
23235685 24 18411142441627511784
23402655 69 18192447457634838165
23463225 33 18342741857860805530
23552423 10 18271803557516130999
2748010 2 18194118744698205374
29004967 10 18412260653168361363
5084963 1 18261390001300799817
528886 8 18410299141604284633
53812653 166 18334862735750122584

> <PUBCHEM_SHAPE_MULTIPOLES>
200
5.12
1.4
0.61
1.52
0.01
0
0.01
0
-0.25
0
0.11
0
0

> <PUBCHEM_SHAPE_SELFOVERLAP>
405.251

> <PUBCHEM_SHAPE_VOLUME>
120.7

> <PUBCHEM_COORDINATE_TYPE>
2
5
10

$$$$

