12871
  -OEChem-06261207282D

 28 28  0     0  0  0  0  0  0999 V2000
    2.0000   -2.3170    0.0000 F   0  0  0  0  0  0  0  0  0  0  0  0
    2.3660   -0.9510    0.0000 F   0  0  0  0  0  0  0  0  0  0  0  0
    3.3660   -2.6830    0.0000 F   0  0  0  0  0  0  0  0  0  0  0  0
    6.3301   -1.8170    0.0000 N   0  0  0  0  0  0  0  0  0  0  0  0
    4.5981    1.1830    0.0000 N   0  0  0  0  0  0  0  0  0  0  0  0
    5.4641   -0.3170    0.0000 N   0  0  0  0  0  0  0  0  0  0  0  0
    3.7320   -0.3170    0.0000 N   0  0  0  0  0  0  0  0  0  0  0  0
    4.5981   -1.8170    0.0000 N   0  0  0  0  0  0  0  0  0  0  0  0
    7.1962   -1.3170    0.0000 C   0  0  0  0  0  0  0  0  0  0  0  0
    5.4641    1.6830    0.0000 C   0  0  0  0  0  0  0  0  0  0  0  0
    5.4641   -1.3170    0.0000 C   0  0  0  0  0  0  0  0  0  0  0  0
    4.5981    0.1830    0.0000 C   0  0  0  0  0  0  0  0  0  0  0  0
    3.7320   -1.3170    0.0000 C   0  0  0  0  0  0  0  0  0  0  0  0
    8.0622   -1.8170    0.0000 C   0  0  0  0  0  0  0  0  0  0  0  0
    5.4641    2.6830    0.0000 C   0  0  0  0  0  0  0  0  0  0  0  0
    2.8660   -1.8170    0.0000 C   0  0  0  0  0  0  0  0  0  0  0  0
    7.5947   -0.8420    0.0000 H   0  0  0  0  0  0  0  0  0  0  0  0
    6.7976   -0.8420    0.0000 H   0  0  0  0  0  0  0  0  0  0  0  0
    5.6762    1.1004    0.0000 H   0  0  0  0  0  0  0  0  0  0  0  0
    6.0747    1.7907    0.0000 H   0  0  0  0  0  0  0  0  0  0  0  0
    6.3301   -2.4370    0.0000 H   0  0  0  0  0  0  0  0  0  0  0  0
    4.0611    1.4930    0.0000 H   0  0  0  0  0  0  0  0  0  0  0  0
    7.7522   -2.3539    0.0000 H   0  0  0  0  0  0  0  0  0  0  0  0
    8.5991   -2.1270    0.0000 H   0  0  0  0  0  0  0  0  0  0  0  0
    8.3722   -1.2800    0.0000 H   0  0  0  0  0  0  0  0  0  0  0  0
    6.0841    2.6830    0.0000 H   0  0  0  0  0  0  0  0  0  0  0  0
    5.4641    3.3030    0.0000 H   0  0  0  0  0  0  0  0  0  0  0  0
    4.8441    2.6830    0.0000 H   0  0  0  0  0  0  0  0  0  0  0  0
  1 16  1  0  0  0  0
  2 16  1  0  0  0  0
  3 16  1  0  0  0  0
  4  9  1  0  0  0  0
  4 11  1  0  0  0  0
  4 21  1  0  0  0  0
  5 10  1  0  0  0  0
  5 12  1  0  0  0  0
  5 22  1  0  0  0  0
  6 11  2  0  0  0  0
  6 12  1  0  0  0  0
  7 12  2  0  0  0  0
  7 13  1  0  0  0  0
  8 11  1  0  0  0  0
  8 13  2  0  0  0  0
  9 14  1  0  0  0  0
  9 17  1  0  0  0  0
  9 18  1  0  0  0  0
 10 15  1  0  0  0  0
 10 19  1  0  0  0  0
 10 20  1  0  0  0  0
 13 16  1  0  0  0  0
 14 23  1  0  0  0  0
 14 24  1  0  0  0  0
 14 25  1  0  0  0  0
 15 26  1  0  0  0  0
 15 27  1  0  0  0  0
 15 28  1  0  0  0  0
M  END
> <PUBCHEM_COMPOUND_CID>
12871

> <PUBCHEM_COMPOUND_CANONICALIZED>
1

> <PUBCHEM_CACTVS_COMPLEXITY>
196

> <PUBCHEM_CACTVS_HBOND_ACCEPTOR>
8

> <PUBCHEM_CACTVS_HBOND_DONOR>
2

> <PUBCHEM_CACTVS_ROTATABLE_BOND>
4

> <PUBCHEM_CACTVS_SUBSKEYS>
AAADccBzgYAAAAAAAAAAAAAAAAAAAAAAAAAsAAAAAAAAAAABgAAAHQAQAAAAAADBAxQDEAbIEAAgAAIgJAAAgAkAAKABAIAIAACACAAACAAAAAAIEAIAAAAAAAAAAAAAAAAAAAAAAAAAAAAAAAAAAAAAAA==

> <PUBCHEM_IUPAC_OPENEYE_NAME>
N2,N4-diethyl-6-(trifluoromethyl)-1,3,5-triazine-2,4-diamine

> <PUBCHEM_IUPAC_CAS_NAME>
N2,N4-diethyl-6-(trifluoromethyl)-1,3,5-triazine-2,4-diamine

> <PUBCHEM_IUPAC_NAME>
2-N,4-N-diethyl-6-(trifluoromethyl)-1,3,5-triazine-2,4-diamine

> <PUBCHEM_IUPAC_SYSTEMATIC_NAME>
N2,N4-diethyl-6-(trifluoromethyl)-1,3,5-triazine-2,4-diamine

> <PUBCHEM_IUPAC_TRADITIONAL_NAME>
ethyl-[4-(ethylamino)-6-(trifluoromethyl)-s-triazin-2-yl]amine

> <PUBCHEM_IUPAC_INCHI>
InChI=1S/C8H12F3N5/c1-3-12-6-14-5(8(9,10)11)15-7(16-6)13-4-2/h3-4H2,1-2H3,(H2,12,13,14,15,16)

> <PUBCHEM_IUPAC_INCHIKEY>
VLKWQQFBFMQSNA-UHFFFAOYSA-N

> <PUBCHEM_XLOGP3_AA>
2.3

> <PUBCHEM_EXACT_MASS>
235.10448

> <PUBCHEM_MOLECULAR_FORMULA>
C8H12F3N5

> <PUBCHEM_MOLECULAR_WEIGHT>
235.20959

> <PUBCHEM_OPENEYE_CAN_SMILES>
CCNC1=NC(=NC(=N1)C(F)(F)F)NCC

> <PUBCHEM_OPENEYE_ISO_SMILES>
CCNC1=NC(=NC(=N1)C(F)(F)F)NCC

> <PUBCHEM_CACTVS_TPSA>
62.7

> <PUBCHEM_MONOISOTOPIC_WEIGHT>
235.10448

> <PUBCHEM_TOTAL_CHARGE>
0

> <PUBCHEM_HEAVY_ATOM_COUNT>
16

> <PUBCHEM_ATOM_DEF_STEREO_COUNT>
0

> <PUBCHEM_ATOM_UDEF_STEREO_COUNT>
0

> <PUBCHEM_BOND_DEF_STEREO_COUNT>
0

> <PUBCHEM_BOND_UDEF_STEREO_COUNT>
0

> <PUBCHEM_ISOTOPIC_ATOM_COUNT>
0

> <PUBCHEM_COMPONENT_COUNT>
1

> <PUBCHEM_CACTVS_TAUTO_COUNT>
5

> <PUBCHEM_COORDINATE_TYPE>
1
5
255

> <PUBCHEM_BONDANNOTATIONS>
6  11  8
6  12  8
7  12  8
7  13  8
8  11  8
8  13  8

$$$$

