11554
  -OEChem-06261205493D

 12 11  0     0  0  0  0  0  0999 V2000
    2.6254   -0.2615   -0.0024 O   0  0  0  0  0  0  0  0  0  0  0  0
   -1.1452    1.2919   -0.0011 O   0  5  0  0  0  0  0  0  0  0  0  0
   -0.9304    0.0341    0.0001 N   0  3  0  0  0  0  0  0  0  0  0  0
    0.1963   -0.5589    0.0014 N   0  0  0  0  0  0  0  0  0  0  0  0
    1.3423    0.3648    0.0026 C   0  0  0  0  0  0  0  0  0  0  0  0
   -2.0884   -0.8704   -0.0007 C   0  0  0  0  0  0  0  0  0  0  0  0
    1.3060    0.9992    0.8960 H   0  0  0  0  0  0  0  0  0  0  0  0
    1.3030    1.0060   -0.8857 H   0  0  0  0  0  0  0  0  0  0  0  0
   -2.0463   -1.4895   -0.9004 H   0  0  0  0  0  0  0  0  0  0  0  0
   -3.0079   -0.2795   -0.0008 H   0  0  0  0  0  0  0  0  0  0  0  0
   -2.0471   -1.4903    0.8986 H   0  0  0  0  0  0  0  0  0  0  0  0
    3.2893    0.4490   -0.0009 H   0  0  0  0  0  0  0  0  0  0  0  0
  1  5  1  0  0  0  0
  1 12  1  0  0  0  0
  2  3  1  0  0  0  0
  3  4  2  0  0  0  0
  3  6  1  0  0  0  0
  4  5  1  0  0  0  0
  5  7  1  0  0  0  0
  5  8  1  0  0  0  0
  6  9  1  0  0  0  0
  6 10  1  0  0  0  0
  6 11  1  0  0  0  0
M  CHG  2   2  -1   3   1
M  END
> <PUBCHEM_COMPOUND_CID>
11554

> <PUBCHEM_CONFORMER_RMSD>
0.4

> <PUBCHEM_CONFORMER_DIVERSEORDER>
1
2
3

> <PUBCHEM_MMFF94_PARTIAL_CHARGES>
7
1 -0.68
12 0.4
2 -0.63
3 0.74
4 -0.45
5 0.53
6 0.1

> <PUBCHEM_EFFECTIVE_ROTOR_COUNT>
1

> <PUBCHEM_PHARMACOPHORE_FEATURES>
3
1 1 acceptor
1 1 donor
1 2 anion

> <PUBCHEM_HEAVY_ATOM_COUNT>
6

> <PUBCHEM_ATOM_DEF_STEREO_COUNT>
0

> <PUBCHEM_ATOM_UDEF_STEREO_COUNT>
0

> <PUBCHEM_BOND_DEF_STEREO_COUNT>
0

> <PUBCHEM_BOND_UDEF_STEREO_COUNT>
1

> <PUBCHEM_ISOTOPIC_ATOM_COUNT>
0

> <PUBCHEM_COMPONENT_COUNT>
1

> <PUBCHEM_CACTVS_TAUTO_COUNT>
1

> <PUBCHEM_CONFORMER_ID>
00002D2200000001

> <PUBCHEM_MMFF94_ENERGY>
9.1757

> <PUBCHEM_FEATURE_SELFOVERLAP>
15.223

> <PUBCHEM_SHAPE_FINGERPRINT>
139733 1 9222966867062637411
16714656 1 18335700511896806831
20096714 4 18340205314130844392
21040471 1 18050287264823986657
29004967 10 18267018367100933307
5460574 1 9295294941040158502

> <PUBCHEM_SHAPE_MULTIPOLES>
101.78
3.13
1.02
0.55
1.13
0.26
0
-0.69
0
-0.42
0
-0.02
-0.01
0

> <PUBCHEM_SHAPE_SELFOVERLAP>
177.176

> <PUBCHEM_SHAPE_VOLUME>
67.5

> <PUBCHEM_COORDINATE_TYPE>
2
5
10

$$$$

