9450
  -OEChem-06261203433D

 18 19  0     0  0  0  0  0  0999 V2000
   -1.6433   -2.1870   -0.0001 F   0  0  0  0  0  0  0  0  0  0  0  0
    0.0133   -0.4726    0.0002 C   0  0  0  0  0  0  0  0  0  0  0  0
    0.3154    0.9101    0.0002 C   0  0  0  0  0  0  0  0  0  0  0  0
   -1.3301   -0.8821    0.0001 C   0  0  0  0  0  0  0  0  0  0  0  0
   -0.7349    1.8424    0.0001 C   0  0  0  0  0  0  0  0  0  0  0  0
    1.0635   -1.4050    0.0001 C   0  0  0  0  0  0  0  0  0  0  0  0
    1.6588    1.3196    0.0000 C   0  0  0  0  0  0  0  0  0  0  0  0
   -2.3609    0.0580   -0.0001 C   0  0  0  0  0  0  0  0  0  0  0  0
   -2.0638    1.4177   -0.0002 C   0  0  0  0  0  0  0  0  0  0  0  0
    2.3925   -0.9804   -0.0001 C   0  0  0  0  0  0  0  0  0  0  0  0
    2.6895    0.3793   -0.0002 C   0  0  0  0  0  0  0  0  0  0  0  0
   -0.5261    2.9102    0.0000 H   0  0  0  0  0  0  0  0  0  0  0  0
    0.8570   -2.4731    0.0001 H   0  0  0  0  0  0  0  0  0  0  0  0
    1.9144    2.3772   -0.0001 H   0  0  0  0  0  0  0  0  0  0  0  0
   -3.3955   -0.2721   -0.0003 H   0  0  0  0  0  0  0  0  0  0  0  0
   -2.8668    2.1491   -0.0003 H   0  0  0  0  0  0  0  0  0  0  0  0
    3.1954   -1.7118   -0.0002 H   0  0  0  0  0  0  0  0  0  0  0  0
    3.7243    0.7091   -0.0004 H   0  0  0  0  0  0  0  0  0  0  0  0
  1  4  1  0  0  0  0
  2  3  1  0  0  0  0
  2  4  1  0  0  0  0
  2  6  2  0  0  0  0
  3  5  1  0  0  0  0
  3  7  2  0  0  0  0
  4  8  2  0  0  0  0
  5  9  2  0  0  0  0
  5 12  1  0  0  0  0
  6 10  1  0  0  0  0
  6 13  1  0  0  0  0
  7 11  1  0  0  0  0
  7 14  1  0  0  0  0
  8  9  1  0  0  0  0
  8 15  1  0  0  0  0
  9 16  1  0  0  0  0
 10 11  2  0  0  0  0
 10 17  1  0  0  0  0
 11 18  1  0  0  0  0
M  END
> <PUBCHEM_COMPOUND_CID>
9450

> <PUBCHEM_CONFORMER_RMSD>
0.4

> <PUBCHEM_CONFORMER_DIVERSEORDER>
1

> <PUBCHEM_MMFF94_PARTIAL_CHARGES>
16
1 -0.19
10 -0.15
11 -0.15
12 0.15
13 0.15
14 0.15
15 0.15
16 0.15
17 0.15
18 0.15
4 0.19
5 -0.15
6 -0.15
7 -0.15
8 -0.15
9 -0.15

> <PUBCHEM_EFFECTIVE_ROTOR_COUNT>
0

> <PUBCHEM_PHARMACOPHORE_FEATURES>
2
6 2 3 4 5 8 9 rings
6 2 3 6 7 10 11 rings

> <PUBCHEM_HEAVY_ATOM_COUNT>
11

> <PUBCHEM_ATOM_DEF_STEREO_COUNT>
0

> <PUBCHEM_ATOM_UDEF_STEREO_COUNT>
0

> <PUBCHEM_BOND_DEF_STEREO_COUNT>
0

> <PUBCHEM_BOND_UDEF_STEREO_COUNT>
0

> <PUBCHEM_ISOTOPIC_ATOM_COUNT>
0

> <PUBCHEM_COMPONENT_COUNT>
1

> <PUBCHEM_CACTVS_TAUTO_COUNT>
1

> <PUBCHEM_CONFORMER_ID>
000024EA00000001

> <PUBCHEM_MMFF94_ENERGY>
28.6955

> <PUBCHEM_FEATURE_SELFOVERLAP>
10.175

> <PUBCHEM_SHAPE_FINGERPRINT>
12423570 1 5976662028680440267
12524768 44 18336542819286703646
12897270 3 18410293571232155252
13380535 76 18337115669160912646
16945 1 18410575110549083140
18185500 45 18338797793091659607
193761 8 15456212230301681728
19973954 147 18410853248415254652
20871998 184 18187643574677715183
21040471 1 18338797943542251872
21501502 16 18409730651185223380
2334 1 18122344575393754754
23552423 10 18272368625046574396
23559900 14 18261948678943637750
2748010 2 18194121811162345324
369184 2 18410858793038737720
5084963 1 17970354925600231353
528886 8 18410016524229544280
66348 1 18410294666295821852

> <PUBCHEM_SHAPE_MULTIPOLES>
219.1
3.51
2.01
0.61
0.64
0.28
0
-0.08
0
-0.48
0
0.01
-0.02
0

> <PUBCHEM_SHAPE_SELFOVERLAP>
484.264

> <PUBCHEM_SHAPE_VOLUME>
118.4

> <PUBCHEM_COORDINATE_TYPE>
2
5
10

$$$$

