47205786
  -OEChem-06241223003D

 39 39  0     0  0  0  0  0  0999 V2000
    3.9888   -3.5227   -0.5336 Cl  0  0  0  0  0  0  0  0  0  0  0  0
    1.4808    1.6354    0.7653 O   0  0  0  0  0  0  0  0  0  0  0  0
   -1.8167   -0.7777   -1.2947 O   0  0  0  0  0  0  0  0  0  0  0  0
   -1.4286    2.2739    1.3377 O   0  0  0  0  0  0  0  0  0  0  0  0
   -3.1770    0.6994   -0.1299 N   0  0  0  0  0  0  0  0  0  0  0  0
   -0.5528    3.0752   -0.6604 N   0  0  0  0  0  0  0  0  0  0  0  0
   -3.4290   -1.6559    0.2837 C   0  0  0  0  0  0  0  0  0  0  0  0
   -2.9257   -3.0487   -0.0842 C   0  0  0  0  0  0  0  0  0  0  0  0
    0.6319    3.6995   -0.1163 C   0  0  0  0  0  0  0  0  0  0  0  0
   -2.6486    1.9087   -0.7153 C   0  0  0  0  0  0  0  0  0  0  0  0
    1.8027    2.7345   -0.0771 C   0  0  0  0  0  0  0  0  0  0  0  0
   -2.7066   -0.5586   -0.4771 C   0  0  0  0  0  0  0  0  0  0  0  0
   -1.4891    2.4107    0.1185 C   0  0  0  0  0  0  0  0  0  0  0  0
   -3.6850   -4.1319    0.6643 C   0  0  0  0  0  0  0  0  0  0  0  0
    2.0647    0.4331    0.4620 C   0  0  0  0  0  0  0  0  0  0  0  0
    3.3194    0.4012   -0.1464 C   0  0  0  0  0  0  0  0  0  0  0  0
    1.4045   -0.7584    0.7617 C   0  0  0  0  0  0  0  0  0  0  0  0
    3.9139   -0.8221   -0.4554 C   0  0  0  0  0  0  0  0  0  0  0  0
    1.9988   -1.9819    0.4528 C   0  0  0  0  0  0  0  0  0  0  0  0
    3.2535   -2.0137   -0.1556 C   0  0  0  0  0  0  0  0  0  0  0  0
   -4.5004   -1.5746    0.0646 H   0  0  0  0  0  0  0  0  0  0  0  0
   -3.2895   -1.4788    1.3569 H   0  0  0  0  0  0  0  0  0  0  0  0
   -1.8561   -3.1313    0.1436 H   0  0  0  0  0  0  0  0  0  0  0  0
   -3.0333   -3.2130   -1.1630 H   0  0  0  0  0  0  0  0  0  0  0  0
    0.4017    4.0537    0.8945 H   0  0  0  0  0  0  0  0  0  0  0  0
    0.8681    4.5637   -0.7448 H   0  0  0  0  0  0  0  0  0  0  0  0
   -3.4391    2.6649   -0.7126 H   0  0  0  0  0  0  0  0  0  0  0  0
   -2.3412    1.7100   -1.7467 H   0  0  0  0  0  0  0  0  0  0  0  0
    2.0023    2.4115   -1.1075 H   0  0  0  0  0  0  0  0  0  0  0  0
    2.6865    3.2456    0.3209 H   0  0  0  0  0  0  0  0  0  0  0  0
   -0.6949    3.1404   -1.6640 H   0  0  0  0  0  0  0  0  0  0  0  0
   -3.9067    0.7857    0.5718 H   0  0  0  0  0  0  0  0  0  0  0  0
   -4.7531   -4.0976    0.4272 H   0  0  0  0  0  0  0  0  0  0  0  0
   -3.3069   -5.1207    0.3866 H   0  0  0  0  0  0  0  0  0  0  0  0
   -3.5689   -4.0155    1.7466 H   0  0  0  0  0  0  0  0  0  0  0  0
    3.8795    1.3043   -0.3701 H   0  0  0  0  0  0  0  0  0  0  0  0
    0.4260   -0.7391    1.2341 H   0  0  0  0  0  0  0  0  0  0  0  0
    4.8950   -0.8324   -0.9234 H   0  0  0  0  0  0  0  0  0  0  0  0
    1.4720   -2.9022    0.6917 H   0  0  0  0  0  0  0  0  0  0  0  0
  1 20  1  0  0  0  0
  2 11  1  0  0  0  0
  2 15  1  0  0  0  0
  3 12  2  0  0  0  0
  4 13  2  0  0  0  0
  5 10  1  0  0  0  0
  5 12  1  0  0  0  0
  5 32  1  0  0  0  0
  6  9  1  0  0  0  0
  6 13  1  0  0  0  0
  6 31  1  0  0  0  0
  7  8  1  0  0  0  0
  7 12  1  0  0  0  0
  7 21  1  0  0  0  0
  7 22  1  0  0  0  0
  8 14  1  0  0  0  0
  8 23  1  0  0  0  0
  8 24  1  0  0  0  0
  9 11  1  0  0  0  0
  9 25  1  0  0  0  0
  9 26  1  0  0  0  0
 10 13  1  0  0  0  0
 10 27  1  0  0  0  0
 10 28  1  0  0  0  0
 11 29  1  0  0  0  0
 11 30  1  0  0  0  0
 14 33  1  0  0  0  0
 14 34  1  0  0  0  0
 14 35  1  0  0  0  0
 15 16  2  0  0  0  0
 15 17  1  0  0  0  0
 16 18  1  0  0  0  0
 16 36  1  0  0  0  0
 17 19  2  0  0  0  0
 17 37  1  0  0  0  0
 18 20  2  0  0  0  0
 18 38  1  0  0  0  0
 19 20  1  0  0  0  0
 19 39  1  0  0  0  0
M  END
> <PUBCHEM_COMPOUND_CID>
47205786

> <PUBCHEM_CONFORMER_RMSD>
1.2

> <PUBCHEM_CONFORMER_DIVERSEORDER>
1
2
40
54
21
45
38
60
36
47
34
35
41
9
11
53
50
37
57
29
13
46
27
55
23
51
6
10
5
52
39
61
59
22
30
48
19
25
32
14
26
28
42
49
18
16
31
17
7
20
44
15
58
56
8
12
4
24
43
33
3

> <PUBCHEM_MMFF94_PARTIAL_CHARGES>
24
1 -0.18
10 0.36
11 0.28
12 0.57
13 0.57
15 0.08
16 -0.15
17 -0.15
18 -0.15
19 -0.15
2 -0.36
20 0.18
3 -0.57
31 0.37
32 0.37
36 0.15
37 0.15
38 0.15
39 0.15
4 -0.57
5 -0.73
6 -0.73
7 0.06
9 0.3

> <PUBCHEM_EFFECTIVE_ROTOR_COUNT>
10

> <PUBCHEM_PHARMACOPHORE_FEATURES>
7
1 14 hydrophobe
1 2 acceptor
1 3 acceptor
1 4 acceptor
1 5 donor
1 6 donor
6 15 16 17 18 19 20 rings

> <PUBCHEM_HEAVY_ATOM_COUNT>
20

> <PUBCHEM_ATOM_DEF_STEREO_COUNT>
0

> <PUBCHEM_ATOM_UDEF_STEREO_COUNT>
0

> <PUBCHEM_BOND_DEF_STEREO_COUNT>
0

> <PUBCHEM_BOND_UDEF_STEREO_COUNT>
0

> <PUBCHEM_ISOTOPIC_ATOM_COUNT>
0

> <PUBCHEM_COMPONENT_COUNT>
1

> <PUBCHEM_CACTVS_TAUTO_COUNT>
4

> <PUBCHEM_CONFORMER_ID>
02D04D9A00000001

> <PUBCHEM_MMFF94_ENERGY>
35.4694

> <PUBCHEM_FEATURE_SELFOVERLAP>
35.521

> <PUBCHEM_SHAPE_FINGERPRINT>
107951 10 16694680769099377457
11014199 57 18410288103617903418
12553582 1 18339370771878191089
12596599 1 17899387854166608739
12990986 174 18340493369309124370
13533116 47 17830170200549508459
1361 2 17401487040217569891
138480 1 15168266344188512661
13941206 138 17187266410596384998
14251705 54 18267588992192404987
14251740 79 17177712737230656638
14251757 5 17977086179205336446
14863182 85 17693372235562883149
14916288 52 18410576205807974223
16719943 64 17546729717121792470
17859628 97 17617095154189871825
19930381 70 17979636732459045259
20291156 8 18409730647027646509
20765182 114 18191584151965468103
20775438 99 17615458780762296863
20775530 9 18338238163385789715
21197605 99 16110354630333912915
21634736 98 18197212762319403732
221490 88 18410009927650569866
23379529 103 18190731128268073510
23466295 7 18338785831724252723
238 59 17259103629998713079
2818148 4 18266717169444365261

> <PUBCHEM_SHAPE_MULTIPOLES>
385.89
7.62
5.74
0.92
0.47
0.69
-0.02
8
0.7
-1.96
-0.13
-0.18
-0.04
0.94

> <PUBCHEM_SHAPE_SELFOVERLAP>
765

> <PUBCHEM_SHAPE_VOLUME>
228.7

> <PUBCHEM_COORDINATE_TYPE>
2
5
10

$$$$

