7098
  -OEChem-06261201453D

 33 34  0     1  0  0  0  0  0999 V2000
    0.5118   -1.1810    0.1200 N   0  0  3  0  0  0  0  0  0  0  0  0
   -0.5741   -1.0845    1.0622 C   0  0  0  0  0  0  0  0  0  0  0  0
    0.5927   -2.3642   -0.7405 C   0  0  0  0  0  0  0  0  0  0  0  0
    1.4752   -0.1671    0.0042 C   0  0  0  0  0  0  0  0  0  0  0  0
   -1.7067   -0.2665    0.5398 C   0  0  0  0  0  0  0  0  0  0  0  0
    1.4454   -3.4316   -0.0820 C   0  0  0  0  0  0  0  0  0  0  0  0
    2.2658    0.1825    1.1036 C   0  0  0  0  0  0  0  0  0  0  0  0
    1.6519    0.5016   -1.2113 C   0  0  0  0  0  0  0  0  0  0  0  0
   -1.7376    1.1091    0.7691 C   0  0  0  0  0  0  0  0  0  0  0  0
   -2.7353   -0.8771   -0.1778 C   0  0  0  0  0  0  0  0  0  0  0  0
    3.2232    1.1904    0.9885 C   0  0  0  0  0  0  0  0  0  0  0  0
    2.6094    1.5094   -1.3264 C   0  0  0  0  0  0  0  0  0  0  0  0
   -2.7969    1.8739    0.2808 C   0  0  0  0  0  0  0  0  0  0  0  0
   -3.7945   -0.1121   -0.6664 C   0  0  0  0  0  0  0  0  0  0  0  0
    3.3951    1.8538   -0.2265 C   0  0  0  0  0  0  0  0  0  0  0  0
   -3.8253    1.2634   -0.4371 C   0  0  0  0  0  0  0  0  0  0  0  0
   -0.2343   -0.6737    2.0221 H   0  0  0  0  0  0  0  0  0  0  0  0
   -0.9435   -2.0860    1.3226 H   0  0  0  0  0  0  0  0  0  0  0  0
   -0.4091   -2.7691   -0.9245 H   0  0  0  0  0  0  0  0  0  0  0  0
    1.0064   -2.1191   -1.7253 H   0  0  0  0  0  0  0  0  0  0  0  0
    2.4695   -3.0785    0.0778 H   0  0  0  0  0  0  0  0  0  0  0  0
    1.0364   -3.7223    0.8913 H   0  0  0  0  0  0  0  0  0  0  0  0
    1.4897   -4.3252   -0.7125 H   0  0  0  0  0  0  0  0  0  0  0  0
    2.1530   -0.3299    2.0557 H   0  0  0  0  0  0  0  0  0  0  0  0
    1.0410    0.2557   -2.0763 H   0  0  0  0  0  0  0  0  0  0  0  0
   -0.9437    1.5979    1.3275 H   0  0  0  0  0  0  0  0  0  0  0  0
   -2.7262   -1.9479   -0.3624 H   0  0  0  0  0  0  0  0  0  0  0  0
    3.8364    1.4573    1.8442 H   0  0  0  0  0  0  0  0  0  0  0  0
    2.7414    2.0280   -2.2714 H   0  0  0  0  0  0  0  0  0  0  0  0
   -2.8211    2.9450    0.4595 H   0  0  0  0  0  0  0  0  0  0  0  0
   -4.5956   -0.5876   -1.2248 H   0  0  0  0  0  0  0  0  0  0  0  0
    4.1404    2.6385   -0.3160 H   0  0  0  0  0  0  0  0  0  0  0  0
   -4.6500    1.8589   -0.8174 H   0  0  0  0  0  0  0  0  0  0  0  0
  1  2  1  0  0  0  0
  1  3  1  0  0  0  0
  1  4  1  0  0  0  0
  2  5  1  0  0  0  0
  2 17  1  0  0  0  0
  2 18  1  0  0  0  0
  3  6  1  0  0  0  0
  3 19  1  0  0  0  0
  3 20  1  0  0  0  0
  4  7  2  0  0  0  0
  4  8  1  0  0  0  0
  5  9  2  0  0  0  0
  5 10  1  0  0  0  0
  6 21  1  0  0  0  0
  6 22  1  0  0  0  0
  6 23  1  0  0  0  0
  7 11  1  0  0  0  0
  7 24  1  0  0  0  0
  8 12  2  0  0  0  0
  8 25  1  0  0  0  0
  9 13  1  0  0  0  0
  9 26  1  0  0  0  0
 10 14  2  0  0  0  0
 10 27  1  0  0  0  0
 11 15  2  0  0  0  0
 11 28  1  0  0  0  0
 12 15  1  0  0  0  0
 12 29  1  0  0  0  0
 13 16  2  0  0  0  0
 13 30  1  0  0  0  0
 14 16  1  0  0  0  0
 14 31  1  0  0  0  0
 15 32  1  0  0  0  0
 16 33  1  0  0  0  0
M  END
> <PUBCHEM_COMPOUND_CID>
7098

> <PUBCHEM_CONFORMER_RMSD>
0.6

> <PUBCHEM_CONFORMER_DIVERSEORDER>
1
21
32
29
11
28
5
17
7
14
27
13
33
8
20
35
10
24
19
9
6
22
30
38
31
15
36
4
34
23
18
3
39
25
26
16
37
12
2

> <PUBCHEM_MMFF94_PARTIAL_CHARGES>
25
1 -0.84
10 -0.15
11 -0.15
12 -0.15
13 -0.15
14 -0.15
15 -0.15
16 -0.15
2 0.51
24 0.15
25 0.15
26 0.15
27 0.15
28 0.15
29 0.15
3 0.37
30 0.15
31 0.15
32 0.15
33 0.15
4 0.1
5 -0.14
7 -0.15
8 -0.15
9 -0.15

> <PUBCHEM_EFFECTIVE_ROTOR_COUNT>
4

> <PUBCHEM_PHARMACOPHORE_FEATURES>
3
1 1 cation
6 4 7 8 11 12 15 rings
6 5 9 10 13 14 16 rings

> <PUBCHEM_HEAVY_ATOM_COUNT>
16

> <PUBCHEM_ATOM_DEF_STEREO_COUNT>
0

> <PUBCHEM_ATOM_UDEF_STEREO_COUNT>
0

> <PUBCHEM_BOND_DEF_STEREO_COUNT>
0

> <PUBCHEM_BOND_UDEF_STEREO_COUNT>
0

> <PUBCHEM_ISOTOPIC_ATOM_COUNT>
0

> <PUBCHEM_COMPONENT_COUNT>
1

> <PUBCHEM_CACTVS_TAUTO_COUNT>
1

> <PUBCHEM_CONFORMER_ID>
00001BBA00000001

> <PUBCHEM_MMFF94_ENERGY>
56.2724

> <PUBCHEM_FEATURE_SELFOVERLAP>
15.223

> <PUBCHEM_SHAPE_FINGERPRINT>
10498660 4 18408321064705340205
11640471 11 17844810278733432364
11715629 250 18411138078062344389
12788726 201 17480861922919270394
13134695 92 17980482587433847982
14181834 199 18190460661023256958
14250199 8 18194962066138090805
15276787 5 14907908171152307981
15775835 57 18202283563264067572
15852999 172 18272651233773533499
15906896 17 17841711803479824642
16945 1 18336262358386388091
18186145 218 17895741929253418272
18981168 100 17914300646211365227
192875 21 18200327527989060829
20361792 2 7276832355303893377
20671657 1 18265607873981413271
20715895 44 17628661909731146573
21524375 3 18343023255079601626
21731516 1 8142088632646040849
21947302 44 18342171223783721187
2255824 54 18195523916316802795
23402539 116 18114754711400159116
23419403 2 16962992379875133386
23557571 272 17969218941442467527
23559900 14 18190472747092863483
305870 269 18410013247407101486
474 4 18202282532814528601
5262128 65 16950827146686103192
7364860 26 18191025796903866410
81228 2 17396410616401138274
84936 182 18261113018854794688
9981440 41 18339648849535758410

> <PUBCHEM_SHAPE_MULTIPOLES>
324.29
6.45
2.78
1.17
3.03
2.35
-0.05
-4.03
-0.65
-1.42
-0.33
-0.54
-0.2
-0.17

> <PUBCHEM_SHAPE_SELFOVERLAP>
681.332

> <PUBCHEM_SHAPE_VOLUME>
182.8

> <PUBCHEM_COORDINATE_TYPE>
2
5
10

$$$$

