10196
  -OEChem-06261204223D

 47 49  0     1  0  0  0  0  0999 V2000
   -0.8426    1.5639    0.2525 O   0  0  0  0  0  0  0  0  0  0  0  0
    0.3681   -1.3955    0.2537 O   0  0  0  0  0  0  0  0  0  0  0  0
    0.0391    1.8782   -1.8573 O   0  0  0  0  0  0  0  0  0  0  0  0
    3.9515   -1.1180    0.3914 O   0  0  0  0  0  0  0  0  0  0  0  0
    1.8476   -1.1856    2.0096 O   0  0  0  0  0  0  0  0  0  0  0  0
   -3.8347   -0.2892   -0.7579 N   0  0  2  0  0  0  0  0  0  0  0  0
   -2.3418   -0.2019   -0.5994 C   0  0  1  0  0  0  0  0  0  0  0  0
   -2.1257    1.2815   -0.3030 C   0  0  1  0  0  0  0  0  0  0  0  0
   -3.2504    1.5933    0.6594 C   0  0  0  0  0  0  0  0  0  0  0  0
   -4.4123    0.8021    0.0703 C   0  0  0  0  0  0  0  0  0  0  0  0
   -2.0157   -1.2302    0.4607 C   0  0  0  0  0  0  0  0  0  0  0  0
   -4.1980   -1.6246   -0.2303 C   0  0  0  0  0  0  0  0  0  0  0  0
   -3.0657   -2.0387    0.6419 C   0  0  0  0  0  0  0  0  0  0  0  0
   -0.7198   -1.3353    1.1874 C   0  0  0  0  0  0  0  0  0  0  0  0
    0.1610    1.7759   -0.6442 C   0  0  0  0  0  0  0  0  0  0  0  0
    2.6988   -1.3300   -0.2643 C   0  0  1  0  0  0  0  0  0  0  0  0
    1.4867    1.7589    0.0309 C   0  0  0  0  0  0  0  0  0  0  0  0
    1.6142   -1.2925    0.8107 C   0  0  0  0  0  0  0  0  0  0  0  0
    2.6645    1.2461   -0.7634 C   0  0  0  0  0  0  0  0  0  0  0  0
    2.5019   -0.1892   -1.2606 C   0  0  0  0  0  0  0  0  0  0  0  0
    2.7392   -2.7498   -0.8493 C   0  0  0  0  0  0  0  0  0  0  0  0
    1.6040    2.2235    1.2838 C   0  0  0  0  0  0  0  0  0  0  0  0
    2.2451   -0.3923   -2.5666 C   0  0  0  0  0  0  0  0  0  0  0  0
    2.8850    2.2495    2.0438 C   0  0  0  0  0  0  0  0  0  0  0  0
   -1.8396   -0.4844   -1.5328 H   0  0  0  0  0  0  0  0  0  0  0  0
   -2.2857    1.8781   -1.2131 H   0  0  0  0  0  0  0  0  0  0  0  0
   -3.4578    2.6665    0.7151 H   0  0  0  0  0  0  0  0  0  0  0  0
   -3.0070    1.2532    1.6732 H   0  0  0  0  0  0  0  0  0  0  0  0
   -5.0905    0.4642    0.8618 H   0  0  0  0  0  0  0  0  0  0  0  0
   -4.9950    1.4478   -0.5970 H   0  0  0  0  0  0  0  0  0  0  0  0
   -4.2913   -2.3304   -1.0637 H   0  0  0  0  0  0  0  0  0  0  0  0
   -5.1519   -1.6260    0.3071 H   0  0  0  0  0  0  0  0  0  0  0  0
   -3.0997   -2.8764    1.3228 H   0  0  0  0  0  0  0  0  0  0  0  0
   -0.6022   -0.4698    1.8492 H   0  0  0  0  0  0  0  0  0  0  0  0
   -0.6943   -2.2428    1.8028 H   0  0  0  0  0  0  0  0  0  0  0  0
    2.7935    1.9223   -1.6211 H   0  0  0  0  0  0  0  0  0  0  0  0
    3.6154    1.3266   -0.2281 H   0  0  0  0  0  0  0  0  0  0  0  0
    2.9042   -3.4911   -0.0576 H   0  0  0  0  0  0  0  0  0  0  0  0
    1.8063   -3.0200   -1.3558 H   0  0  0  0  0  0  0  0  0  0  0  0
    3.5715   -2.8625   -1.5537 H   0  0  0  0  0  0  0  0  0  0  0  0
    0.7409    2.6270    1.8072 H   0  0  0  0  0  0  0  0  0  0  0  0
    4.1054   -1.8572    1.0043 H   0  0  0  0  0  0  0  0  0  0  0  0
    2.1348   -1.3809   -2.9951 H   0  0  0  0  0  0  0  0  0  0  0  0
    2.1332    0.4401   -3.2544 H   0  0  0  0  0  0  0  0  0  0  0  0
    3.4967    3.1054    1.7438 H   0  0  0  0  0  0  0  0  0  0  0  0
    3.4603    1.3260    1.9375 H   0  0  0  0  0  0  0  0  0  0  0  0
    2.6684    2.3557    3.1126 H   0  0  0  0  0  0  0  0  0  0  0  0
  1  8  1  0  0  0  0
  1 15  1  0  0  0  0
  2 14  1  0  0  0  0
  2 18  1  0  0  0  0
  3 15  2  0  0  0  0
  4 16  1  0  0  0  0
  4 42  1  0  0  0  0
  5 18  2  0  0  0  0
  6  7  1  0  0  0  0
  6 10  1  0  0  0  0
  6 12  1  0  0  0  0
  7  8  1  0  0  0  0
  7 11  1  0  0  0  0
  7 25  1  0  0  0  0
  8  9  1  0  0  0  0
  8 26  1  0  0  0  0
  9 10  1  0  0  0  0
  9 27  1  0  0  0  0
  9 28  1  0  0  0  0
 10 29  1  0  0  0  0
 10 30  1  0  0  0  0
 11 13  2  0  0  0  0
 11 14  1  0  0  0  0
 12 13  1  0  0  0  0
 12 31  1  0  0  0  0
 12 32  1  0  0  0  0
 13 33  1  0  0  0  0
 14 34  1  0  0  0  0
 14 35  1  0  0  0  0
 15 17  1  0  0  0  0
 16 18  1  0  0  0  0
 16 20  1  0  0  0  0
 16 21  1  0  0  0  0
 17 19  1  0  0  0  0
 17 22  2  0  0  0  0
 19 20  1  0  0  0  0
 19 36  1  0  0  0  0
 19 37  1  0  0  0  0
 20 23  2  0  0  0  0
 21 38  1  0  0  0  0
 21 39  1  0  0  0  0
 21 40  1  0  0  0  0
 22 24  1  0  0  0  0
 22 41  1  0  0  0  0
 23 43  1  0  0  0  0
 23 44  1  0  0  0  0
 24 45  1  0  0  0  0
 24 46  1  0  0  0  0
 24 47  1  0  0  0  0
M  END
> <PUBCHEM_COMPOUND_CID>
10196

> <PUBCHEM_CONFORMER_RMSD>
0.6

> <PUBCHEM_CONFORMER_DIVERSEORDER>
4
7
14
9
8
22
21
20
12
18
1
6
2
11
17
15
10
19
5
16
13
3

> <PUBCHEM_MMFF94_PARTIAL_CHARGES>
27
1 -0.43
10 0.27
11 -0.28
12 0.41
13 -0.29
14 0.42
15 0.71
16 0.48
17 -0.12
18 0.66
19 0.28
2 -0.43
20 -0.28
22 -0.29
23 -0.3
24 0.14
3 -0.57
33 0.15
4 -0.68
41 0.15
42 0.4
43 0.15
44 0.15
5 -0.57
6 -0.81
7 0.41
8 0.28

> <PUBCHEM_EFFECTIVE_ROTOR_COUNT>
1.6

> <PUBCHEM_PHARMACOPHORE_FEATURES>
8
1 24 hydrophobe
1 3 acceptor
1 4 acceptor
1 4 donor
1 5 acceptor
1 6 cation
5 6 7 11 12 13 rings
5 6 7 8 9 10 rings

> <PUBCHEM_HEAVY_ATOM_COUNT>
24

> <PUBCHEM_ATOM_DEF_STEREO_COUNT>
3

> <PUBCHEM_ATOM_UDEF_STEREO_COUNT>
0

> <PUBCHEM_BOND_DEF_STEREO_COUNT>
0

> <PUBCHEM_BOND_UDEF_STEREO_COUNT>
1

> <PUBCHEM_ISOTOPIC_ATOM_COUNT>
0

> <PUBCHEM_COMPONENT_COUNT>
1

> <PUBCHEM_CACTVS_TAUTO_COUNT>
1

> <PUBCHEM_CONFORMER_ID>
000027D400000004

> <PUBCHEM_MMFF94_ENERGY>
51.6731

> <PUBCHEM_FEATURE_SELFOVERLAP>
41.131

> <PUBCHEM_SHAPE_FINGERPRINT>
10764073 3 17980235112035197528
10863032 1 18409161095530019836
11578080 2 17986411064089821932
12506688 2 18335698403257807588
12553582 1 18199751517113418963
12596599 1 18114446955455098219
12788726 201 17537693866434982412
13140716 1 18341901805070198875
13224815 77 18339640045190313539
13533116 47 18260548927225854501
13583140 156 15430049768236916981
14178342 30 18271251508543362409
14223421 5 18335990778851147761
14251745 187 18271236132375689708
14713325 29 15904553679169836764
14787075 74 18341332275627637272
15536298 74 18408889507989978801
15635459 17 18336261228615031255
16752209 62 18052820544342120133
16945 1 18196628887048030524
18186145 218 18131357423047708095
20600515 1 17685491349075469588
20691752 17 17632583746825222881
20905425 154 18266176128182554267
2334 1 18271808973818018547
23419403 2 17768857261374958338
23557571 272 17899412267003507134
23559900 14 18410012109061829420
2748010 2 18343304730251607971
2818148 4 17840547553857105091
3286 77 18335707139004775972
3797600 57 15359389489704847253
495365 180 17968109594218595785
5262128 65 18041823073978786973
5895379 119 17604701308676471672
7364860 26 18261117343992246232
84936 31 17458635484151804970
9709674 26 18338520720936390859

> <PUBCHEM_SHAPE_MULTIPOLES>
459.58
7.13
2.91
1.72
5.27
0.14
0.22
-1.43
0.12
-1.21
-0.56
-1.57
0.23
0.91

> <PUBCHEM_SHAPE_SELFOVERLAP>
976.29

> <PUBCHEM_SHAPE_VOLUME>
256.1

> <PUBCHEM_COORDINATE_TYPE>
2
5
10

$$$$

