47205110
  -OEChem-06241222583D

 34 35  0     0  0  0  0  0  0999 V2000
   -1.0663   -2.1370    0.7524 O   0  0  0  0  0  0  0  0  0  0  0  0
    0.0601    2.5102    1.1745 O   0  0  0  0  0  0  0  0  0  0  0  0
    0.5961    1.8336   -0.9810 N   0  0  0  0  0  0  0  0  0  0  0  0
   -1.6092   -2.2820   -0.5187 N   0  0  0  0  0  0  0  0  0  0  0  0
    2.2618   -0.7027   -1.1410 N   0  0  0  0  0  0  0  0  0  0  0  0
    2.7376   -1.8396   -0.6052 N   0  0  0  0  0  0  0  0  0  0  0  0
   -2.5802    1.2136    0.3712 C   0  0  0  0  0  0  0  0  0  0  0  0
   -2.0609   -0.1979    0.2810 C   0  0  0  0  0  0  0  0  0  0  0  0
   -1.7192    2.1847   -0.4345 C   0  0  0  0  0  0  0  0  0  0  0  0
   -1.3420   -0.8919    1.2179 C   0  0  0  0  0  0  0  0  0  0  0  0
   -2.1980   -1.1113   -0.7787 C   0  0  0  0  0  0  0  0  0  0  0  0
   -0.2749    2.2033    0.0336 C   0  0  0  0  0  0  0  0  0  0  0  0
    2.0259    1.7714   -0.7893 C   0  0  0  0  0  0  0  0  0  0  0  0
    2.4776    0.4021   -0.3707 C   0  0  0  0  0  0  0  0  0  0  0  0
   -0.8364   -0.5705    2.5591 C   0  0  0  0  0  0  0  0  0  0  0  0
   -2.8852   -0.9123   -2.0656 C   0  0  0  0  0  0  0  0  0  0  0  0
    3.1402   -0.0432    0.7470 C   0  0  0  0  0  0  0  0  0  0  0  0
    3.2731   -1.4305    0.5480 C   0  0  0  0  0  0  0  0  0  0  0  0
   -3.6126    1.2471    0.0040 H   0  0  0  0  0  0  0  0  0  0  0  0
   -2.6112    1.5290    1.4209 H   0  0  0  0  0  0  0  0  0  0  0  0
   -2.1098    3.2029   -0.3205 H   0  0  0  0  0  0  0  0  0  0  0  0
   -1.7823    1.9460   -1.5023 H   0  0  0  0  0  0  0  0  0  0  0  0
    2.3259    2.5127   -0.0405 H   0  0  0  0  0  0  0  0  0  0  0  0
    2.4966    2.0414   -1.7407 H   0  0  0  0  0  0  0  0  0  0  0  0
    0.2323    1.5714   -1.8922 H   0  0  0  0  0  0  0  0  0  0  0  0
   -1.4797    0.1557    3.0645 H   0  0  0  0  0  0  0  0  0  0  0  0
    0.1715   -0.1496    2.4952 H   0  0  0  0  0  0  0  0  0  0  0  0
   -0.7910   -1.4662    3.1868 H   0  0  0  0  0  0  0  0  0  0  0  0
   -2.2711   -0.3017   -2.7353 H   0  0  0  0  0  0  0  0  0  0  0  0
   -3.0869   -1.8642   -2.5683 H   0  0  0  0  0  0  0  0  0  0  0  0
   -3.8453   -0.4058   -1.9238 H   0  0  0  0  0  0  0  0  0  0  0  0
    3.4779    0.5489    1.5849 H   0  0  0  0  0  0  0  0  0  0  0  0
    1.7972   -0.7543   -2.0391 H   0  0  0  0  0  0  0  0  0  0  0  0
    3.7372   -2.1603    1.1957 H   0  0  0  0  0  0  0  0  0  0  0  0
  1  4  1  0  0  0  0
  1 10  1  0  0  0  0
  2 12  2  0  0  0  0
  3 12  1  0  0  0  0
  3 13  1  0  0  0  0
  3 25  1  0  0  0  0
  4 11  2  0  0  0  0
  5  6  1  0  0  0  0
  5 14  1  0  0  0  0
  5 33  1  0  0  0  0
  6 18  2  0  0  0  0
  7  8  1  0  0  0  0
  7  9  1  0  0  0  0
  7 19  1  0  0  0  0
  7 20  1  0  0  0  0
  8 10  2  0  0  0  0
  8 11  1  0  0  0  0
  9 12  1  0  0  0  0
  9 21  1  0  0  0  0
  9 22  1  0  0  0  0
 10 15  1  0  0  0  0
 11 16  1  0  0  0  0
 13 14  1  0  0  0  0
 13 23  1  0  0  0  0
 13 24  1  0  0  0  0
 14 17  2  0  0  0  0
 15 26  1  0  0  0  0
 15 27  1  0  0  0  0
 15 28  1  0  0  0  0
 16 29  1  0  0  0  0
 16 30  1  0  0  0  0
 16 31  1  0  0  0  0
 17 18  1  0  0  0  0
 17 32  1  0  0  0  0
 18 34  1  0  0  0  0
M  END
> <PUBCHEM_COMPOUND_CID>
47205110

> <PUBCHEM_CONFORMER_RMSD>
0.8

> <PUBCHEM_CONFORMER_DIVERSEORDER>
2
1
55
159
125
100
23
192
205
90
6
57
142
109
74
33
147
86
117
141
41
94
200
171
110
167
7
148
187
121
133
8
165
46
58
188
164
198
98
4
73
83
32
61
149
154
185
25
191
91
5
21
179
127
18
45
118
145
20
163
103
175
108
168
36
156
29
93
153
60
87
134
69
140
122
102
24
113
38
136
26
48
160
182
80
207
51
173
138
10
67
53
62
63
14
170
3
88
146
158
120
195
189
96
22
84
132
107
78
116
52
180
124
28
79
181
85
131
59
112
150
197
16
92
204
155
144
49
95
72
190
128
183
56
166
65
50
47
119
105
139
162
104
193
152
89
178
37
43
196
172
199
126
9
30
11
40
206
75
177
184
201
27
77
31
202
66
194
130
12
82
143
115
42
114
186
106
17
13
151
169
174
81
70
101
129
176
19
157
34
35
15
68
203
111
99
135
161
97
76
137
44
123
39
64
54
71

> <PUBCHEM_MMFF94_PARTIAL_CHARGES>
22
1 -0.02
10 -0.04
11 0.11
12 0.57
13 0.48
14 -0.33
15 0.18
16 0.18
17 -0.15
18 0.14
2 -0.57
25 0.37
3 -0.73
32 0.15
33 0.27
34 0.15
4 -0.41
5 0.3
6 -0.71
7 0.18
8 -0.18
9 0.06

> <PUBCHEM_EFFECTIVE_ROTOR_COUNT>
6

> <PUBCHEM_PHARMACOPHORE_FEATURES>
7
1 2 acceptor
1 3 donor
1 4 acceptor
1 5 donor
1 6 acceptor
5 1 4 8 10 11 rings
5 5 6 14 17 18 rings

> <PUBCHEM_HEAVY_ATOM_COUNT>
18

> <PUBCHEM_ATOM_DEF_STEREO_COUNT>
0

> <PUBCHEM_ATOM_UDEF_STEREO_COUNT>
0

> <PUBCHEM_BOND_DEF_STEREO_COUNT>
0

> <PUBCHEM_BOND_UDEF_STEREO_COUNT>
0

> <PUBCHEM_ISOTOPIC_ATOM_COUNT>
0

> <PUBCHEM_COMPONENT_COUNT>
1

> <PUBCHEM_CACTVS_TAUTO_COUNT>
4

> <PUBCHEM_CONFORMER_ID>
02D04AF600000002

> <PUBCHEM_MMFF94_ENERGY>
10.104

> <PUBCHEM_FEATURE_SELFOVERLAP>
35.521

> <PUBCHEM_SHAPE_MULTIPOLES>
338.77
5.02
2.83
1.71
2.98
0.87
0.5
-1.69
-1.15
-0.32
-0.1
-0.85
-0.47
-0.4

> <PUBCHEM_SHAPE_SELFOVERLAP>
705.325

> <PUBCHEM_SHAPE_VOLUME>
194.8

> <PUBCHEM_COORDINATE_TYPE>
2
5
10

$$$$

