3491
  -OEChem-06251223272D

 49 49  0     1  0  0  0  0  0999 V2000
    6.8671    2.4050    0.0000 S   0  0  0  0  0  0  0  0  0  0  0  0
    5.1350   -1.5950    0.0000 O   0  0  0  0  0  0  0  0  0  0  0  0
    2.5369   -3.0950    0.0000 O   0  0  0  0  0  0  0  0  0  0  0  0
    2.5369   -1.0950    0.0000 O   0  0  0  0  0  0  0  0  0  0  0  0
    4.2690   -4.0950    0.0000 O   0  0  0  0  0  0  0  0  0  0  0  0
    6.8671   -2.5950    0.0000 O   0  0  0  0  0  0  0  0  0  0  0  0
    6.0010   -0.0950    0.0000 O   0  0  0  0  0  0  0  0  0  0  0  0
    3.4030    3.4050    0.0000 O   0  0  0  0  0  0  0  0  0  0  0  0
    5.1350    3.4050    0.0000 O   0  0  0  0  0  0  0  0  0  0  0  0
    8.5991    2.4050    0.0000 O   0  0  0  0  0  0  0  0  0  0  0  0
    4.2690   -0.0950    0.0000 N   0  0  0  0  0  0  0  0  0  0  0  0
    4.2690    1.9050    0.0000 N   0  0  0  0  0  0  0  0  0  0  0  0
    7.7331    1.9050    0.0000 N   0  0  0  0  0  0  0  0  0  0  0  0
    3.4030   -2.5950    0.0000 C   0  0  3  0  0  0  0  0  0  0  0  0
    3.4030   -1.5950    0.0000 C   0  0  3  0  0  0  0  0  0  0  0  0
    4.2690   -3.0950    0.0000 C   0  0  3  0  0  0  0  0  0  0  0  0
    4.2690   -1.0950    0.0000 C   0  0  3  0  0  0  0  0  0  0  0  0
    5.1350   -2.5950    0.0000 C   0  0  3  0  0  0  0  0  0  0  0  0
    6.0010   -3.0950    0.0000 C   0  0  0  0  0  0  0  0  0  0  0  0
    5.1350    1.4050    0.0000 C   0  0  3  0  0  0  0  0  0  0  0  0
    6.0010    1.9050    0.0000 C   0  0  0  0  0  0  0  0  0  0  0  0
    5.1350    0.4050    0.0000 C   0  0  0  0  0  0  0  0  0  0  0  0
    5.5010    2.7710    0.0000 C   0  0  0  0  0  0  0  0  0  0  0  0
    6.5010    1.0390    0.0000 C   0  0  0  0  0  0  0  0  0  0  0  0
    4.2690    2.9050    0.0000 C   0  0  0  0  0  0  0  0  0  0  0  0
    3.4030    4.4050    0.0000 C   0  0  0  0  0  0  0  0  0  0  0  0
    3.4030   -3.2150    0.0000 H   0  0  0  0  0  0  0  0  0  0  0  0
    3.4030   -0.9750    0.0000 H   0  0  0  0  0  0  0  0  0  0  0  0
    4.8059   -3.4050    0.0000 H   0  0  0  0  0  0  0  0  0  0  0  0
    3.7320   -0.7850    0.0000 H   0  0  0  0  0  0  0  0  0  0  0  0
    5.6720   -2.2850    0.0000 H   0  0  0  0  0  0  0  0  0  0  0  0
    3.7320    0.2150    0.0000 H   0  0  0  0  0  0  0  0  0  0  0  0
    5.6025   -3.5700    0.0000 H   0  0  0  0  0  0  0  0  0  0  0  0
    6.3996   -3.5700    0.0000 H   0  0  0  0  0  0  0  0  0  0  0  0
    5.1350    2.0250    0.0000 H   0  0  0  0  0  0  0  0  0  0  0  0
    2.5369   -3.7150    0.0000 H   0  0  0  0  0  0  0  0  0  0  0  0
    2.0000   -1.4050    0.0000 H   0  0  0  0  0  0  0  0  0  0  0  0
    4.8059   -4.4050    0.0000 H   0  0  0  0  0  0  0  0  0  0  0  0
    6.0380    3.0810    0.0000 H   0  0  0  0  0  0  0  0  0  0  0  0
    5.1910    3.3080    0.0000 H   0  0  0  0  0  0  0  0  0  0  0  0
    4.9641    2.4610    0.0000 H   0  0  0  0  0  0  0  0  0  0  0  0
    5.9641    0.7290    0.0000 H   0  0  0  0  0  0  0  0  0  0  0  0
    6.8110    0.5020    0.0000 H   0  0  0  0  0  0  0  0  0  0  0  0
    7.0380    1.3490    0.0000 H   0  0  0  0  0  0  0  0  0  0  0  0
    3.7320    1.5950    0.0000 H   0  0  0  0  0  0  0  0  0  0  0  0
    7.4040   -2.9050    0.0000 H   0  0  0  0  0  0  0  0  0  0  0  0
    4.0230    4.4050    0.0000 H   0  0  0  0  0  0  0  0  0  0  0  0
    3.4030    5.0250    0.0000 H   0  0  0  0  0  0  0  0  0  0  0  0
    2.7830    4.4050    0.0000 H   0  0  0  0  0  0  0  0  0  0  0  0
  1 13  1  0  0  0  0
  1 21  1  0  0  0  0
  2 17  1  0  0  0  0
  2 18  1  0  0  0  0
  3 14  1  0  0  0  0
  3 36  1  0  0  0  0
  4 15  1  0  0  0  0
  4 37  1  0  0  0  0
  5 16  1  0  0  0  0
  5 38  1  0  0  0  0
  6 19  1  0  0  0  0
  6 46  1  0  0  0  0
  7 22  2  0  0  0  0
  8 25  1  0  0  0  0
  8 26  1  0  0  0  0
  9 25  2  0  0  0  0
 10 13  2  0  0  0  0
 11 17  1  0  0  0  0
 11 22  1  0  0  0  0
 11 32  1  0  0  0  0
 12 20  1  0  0  0  0
 12 25  1  0  0  0  0
 12 45  1  0  0  0  0
 14 15  1  0  0  0  0
 14 16  1  0  0  0  0
 14 27  1  0  0  0  0
 15 17  1  0  0  0  0
 15 28  1  0  0  0  0
 16 18  1  0  0  0  0
 16 29  1  0  0  0  0
 17 30  1  0  0  0  0
 18 19  1  0  0  0  0
 18 31  1  0  0  0  0
 19 33  1  0  0  0  0
 19 34  1  0  0  0  0
 20 21  1  0  0  0  0
 20 22  1  0  0  0  0
 20 35  1  0  0  0  0
 21 23  1  0  0  0  0
 21 24  1  0  0  0  0
 23 39  1  0  0  0  0
 23 40  1  0  0  0  0
 23 41  1  0  0  0  0
 24 42  1  0  0  0  0
 24 43  1  0  0  0  0
 24 44  1  0  0  0  0
 26 47  1  0  0  0  0
 26 48  1  0  0  0  0
 26 49  1  0  0  0  0
M  END
> <PUBCHEM_COMPOUND_CID>
3491

> <PUBCHEM_COMPOUND_CANONICALIZED>
1

> <PUBCHEM_CACTVS_COMPLEXITY>
521

> <PUBCHEM_CACTVS_HBOND_ACCEPTOR>
11

> <PUBCHEM_CACTVS_HBOND_DONOR>
6

> <PUBCHEM_CACTVS_ROTATABLE_BOND>
7

> <PUBCHEM_CACTVS_SUBSKEYS>
AAADceBzPABAAAAAAAAAAAAAAAAAAAAAAAAkAAAAAAAAAAAAAAAAHgQUSAAADDzhwAYCCALABgAJAAEQGAAAAAAAAAAAAIGIAAEDUBIAgCAeQAAHFgCTAAHwcAYIAAAAAAAAAAAAAAAAAAAAAAAAAAAAAA==

> <PUBCHEM_IUPAC_OPENEYE_NAME>
methyl N-[2-methyl-2-nitrososulfanyl-1-[[3,4,5-trihydroxy-6-(hydroxymethyl)tetrahydropyran-2-yl]carbamoyl]propyl]carbamate

> <PUBCHEM_IUPAC_CAS_NAME>
N-[3-methyl-3-(nitrosothio)-1-oxo-1-[[3,4,5-trihydroxy-6-(hydroxymethyl)-2-oxanyl]amino]butan-2-yl]carbamic acid methyl ester

> <PUBCHEM_IUPAC_NAME>
methyl N-[3-methyl-3-nitrososulfanyl-1-oxo-1-[[3,4,5-trihydroxy-6-(hydroxymethyl)oxan-2-yl]amino]butan-2-yl]carbamate

> <PUBCHEM_IUPAC_SYSTEMATIC_NAME>
methyl N-[1-[[6-(hydroxymethyl)-3,4,5-tris(oxidanyl)oxan-2-yl]amino]-3-methyl-3-nitrososulfanyl-1-oxidanylidene-butan-2-yl]carbamate

> <PUBCHEM_IUPAC_TRADITIONAL_NAME>
N-[2-methyl-2-(nitrosothio)-1-[(3,4,5-trihydroxy-6-methylol-tetrahydropyran-2-yl)carbamoyl]propyl]carbamic acid methyl ester

> <PUBCHEM_IUPAC_INCHI>
InChI=1S/C13H23N3O9S/c1-13(2,26-16-23)9(14-12(22)24-3)10(21)15-11-8(20)7(19)6(18)5(4-17)25-11/h5-9,11,17-20H,4H2,1-3H3,(H,14,22)(H,15,21)

> <PUBCHEM_IUPAC_INCHIKEY>
RYDVRJMYYHWSEX-UHFFFAOYSA-N

> <PUBCHEM_XLOGP3_AA>
-2.2

> <PUBCHEM_EXACT_MASS>
397.1155

> <PUBCHEM_MOLECULAR_FORMULA>
C13H23N3O9S

> <PUBCHEM_MOLECULAR_WEIGHT>
397.40142

> <PUBCHEM_OPENEYE_CAN_SMILES>
CC(C)(C(C(=O)NC1C(C(C(C(O1)CO)O)O)O)NC(=O)OC)SN=O

> <PUBCHEM_OPENEYE_ISO_SMILES>
CC(C)(C(C(=O)NC1C(C(C(C(O1)CO)O)O)O)NC(=O)OC)SN=O

> <PUBCHEM_CACTVS_TPSA>
212

> <PUBCHEM_MONOISOTOPIC_WEIGHT>
397.1155

> <PUBCHEM_TOTAL_CHARGE>
0

> <PUBCHEM_HEAVY_ATOM_COUNT>
26

> <PUBCHEM_ATOM_DEF_STEREO_COUNT>
0

> <PUBCHEM_ATOM_UDEF_STEREO_COUNT>
6

> <PUBCHEM_BOND_DEF_STEREO_COUNT>
0

> <PUBCHEM_BOND_UDEF_STEREO_COUNT>
0

> <PUBCHEM_ISOTOPIC_ATOM_COUNT>
0

> <PUBCHEM_COMPONENT_COUNT>
1

> <PUBCHEM_CACTVS_TAUTO_COUNT>
4

> <PUBCHEM_COORDINATE_TYPE>
1
5
255

> <PUBCHEM_BONDANNOTATIONS>
17  11  3
18  19  3
20  21  3
14  3  3
15  4  3
16  5  3

$$$$

