4072
  -OEChem-06251223522D

 70 71  0     0  0  0  0  0  0999 V2000
    7.2566    3.1458    0.0000 S   0  0  0  0  0  0  0  0  0  0  0  0
   12.2619   -1.7045    0.0000 S   0  0  0  0  0  0  0  0  0  0  0  0
    8.5458    4.3025    0.0000 Na  0  3  0  0  0  0  0  0  0  0  0  0
    4.6783   -0.7771    0.0000 O   0  0  0  0  0  0  0  0  0  0  0  0
    9.2619    0.0276    0.0000 O   0  0  0  0  0  0  0  0  0  0  0  0
    9.2619   -3.4365    0.0000 O   0  0  0  0  0  0  0  0  0  0  0  0
    8.2351    3.3520    0.0000 O   0  5  0  0  0  0  0  0  0  0  0  0
    7.0504    4.1243    0.0000 O   0  0  0  0  0  0  0  0  0  0  0  0
    7.4628    2.1673    0.0000 O   0  0  0  0  0  0  0  0  0  0  0  0
    4.6783    0.8323    0.0000 N   0  0  0  0  0  0  0  0  0  0  0  0
   10.7619   -0.8384    0.0000 N   0  0  0  0  0  0  0  0  0  0  0  0
   10.7619   -2.5705    0.0000 N   0  0  0  0  0  0  0  0  0  0  0  0
    4.9889    1.7828    0.0000 C   0  0  0  0  0  0  0  0  0  0  0  0
   11.2619   -3.4365    0.0000 C   0  0  0  0  0  0  0  0  0  0  0  0
   11.2619    0.0276    0.0000 C   0  0  0  0  0  0  0  0  0  0  0  0
    5.9674    1.9891    0.0000 C   0  0  0  0  0  0  0  0  0  0  0  0
   12.2619   -3.4365    0.0000 C   0  0  0  0  0  0  0  0  0  0  0  0
   12.2619    0.0276    0.0000 C   0  0  0  0  0  0  0  0  0  0  0  0
    3.7320    0.5276    0.0000 C   0  0  0  0  0  0  0  0  0  0  0  0
   11.2619   -1.7045    0.0000 C   0  0  0  0  0  0  0  0  0  0  0  0
    5.2619    0.0276    0.0000 C   0  0  0  0  0  0  0  0  0  0  0  0
    6.2781    2.9396    0.0000 C   0  0  0  0  0  0  0  0  0  0  0  0
    9.2619   -1.7045    0.0000 C   0  0  0  0  0  0  0  0  0  0  0  0
    9.7619   -0.8384    0.0000 C   0  0  0  0  0  0  0  0  0  0  0  0
    9.7619   -2.5705    0.0000 C   0  0  0  0  0  0  0  0  0  0  0  0
    3.7320   -0.4724    0.0000 C   0  0  0  0  0  0  0  0  0  0  0  0
   12.7619   -4.3025    0.0000 C   0  0  0  0  0  0  0  0  0  0  0  0
   12.7619    0.8936    0.0000 C   0  0  0  0  0  0  0  0  0  0  0  0
    2.8660    1.0276    0.0000 C   0  0  0  0  0  0  0  0  0  0  0  0
    6.2619    0.0276    0.0000 C   0  0  0  0  0  0  0  0  0  0  0  0
    8.2619   -1.7045    0.0000 C   0  0  0  0  0  0  0  0  0  0  0  0
    2.8660   -0.9724    0.0000 C   0  0  0  0  0  0  0  0  0  0  0  0
   13.7619    0.8936    0.0000 C   0  0  0  0  0  0  0  0  0  0  0  0
   13.7619   -4.3025    0.0000 C   0  0  0  0  0  0  0  0  0  0  0  0
    2.0000    0.5276    0.0000 C   0  0  0  0  0  0  0  0  0  0  0  0
    6.7619   -0.8384    0.0000 C   0  0  0  0  0  0  0  0  0  0  0  0
    2.0000   -0.4724    0.0000 C   0  0  0  0  0  0  0  0  0  0  0  0
    7.7619   -0.8384    0.0000 C   0  0  0  0  0  0  0  0  0  0  0  0
    4.9684    2.4025    0.0000 H   0  0  0  0  0  0  0  0  0  0  0  0
    4.3751    1.8702    0.0000 H   0  0  0  0  0  0  0  0  0  0  0  0
   10.6793   -3.6486    0.0000 H   0  0  0  0  0  0  0  0  0  0  0  0
   11.3695   -4.0471    0.0000 H   0  0  0  0  0  0  0  0  0  0  0  0
   11.3695    0.6382    0.0000 H   0  0  0  0  0  0  0  0  0  0  0  0
   10.6793    0.2396    0.0000 H   0  0  0  0  0  0  0  0  0  0  0  0
    5.9880    1.3694    0.0000 H   0  0  0  0  0  0  0  0  0  0  0  0
    6.5812    1.9017    0.0000 H   0  0  0  0  0  0  0  0  0  0  0  0
   12.8445   -3.2245    0.0000 H   0  0  0  0  0  0  0  0  0  0  0  0
   12.1542   -2.8259    0.0000 H   0  0  0  0  0  0  0  0  0  0  0  0
   12.1542   -0.5830    0.0000 H   0  0  0  0  0  0  0  0  0  0  0  0
   12.8445   -0.1845    0.0000 H   0  0  0  0  0  0  0  0  0  0  0  0
    6.2575    3.5592    0.0000 H   0  0  0  0  0  0  0  0  0  0  0  0
    5.6643    3.0269    0.0000 H   0  0  0  0  0  0  0  0  0  0  0  0
   12.1793   -4.5146    0.0000 H   0  0  0  0  0  0  0  0  0  0  0  0
   12.8695   -4.9131    0.0000 H   0  0  0  0  0  0  0  0  0  0  0  0
   12.8695    1.5042    0.0000 H   0  0  0  0  0  0  0  0  0  0  0  0
   12.1793    1.1057    0.0000 H   0  0  0  0  0  0  0  0  0  0  0  0
    2.8660    1.6476    0.0000 H   0  0  0  0  0  0  0  0  0  0  0  0
    6.5719    0.5645    0.0000 H   0  0  0  0  0  0  0  0  0  0  0  0
    7.9519   -2.2414    0.0000 H   0  0  0  0  0  0  0  0  0  0  0  0
    2.8660   -1.5924    0.0000 H   0  0  0  0  0  0  0  0  0  0  0  0
   13.7619    0.2736    0.0000 H   0  0  0  0  0  0  0  0  0  0  0  0
   14.3819    0.8936    0.0000 H   0  0  0  0  0  0  0  0  0  0  0  0
   13.7619   -4.9225    0.0000 H   0  0  0  0  0  0  0  0  0  0  0  0
   14.3819   -4.3025    0.0000 H   0  0  0  0  0  0  0  0  0  0  0  0
   13.7619   -3.6825    0.0000 H   0  0  0  0  0  0  0  0  0  0  0  0
   13.7619    1.5136    0.0000 H   0  0  0  0  0  0  0  0  0  0  0  0
    1.4631    0.8376    0.0000 H   0  0  0  0  0  0  0  0  0  0  0  0
    6.4519   -1.3754    0.0000 H   0  0  0  0  0  0  0  0  0  0  0  0
    1.4631   -0.7824    0.0000 H   0  0  0  0  0  0  0  0  0  0  0  0
    8.0719   -0.3015    0.0000 H   0  0  0  0  0  0  0  0  0  0  0  0
  1  7  1  0  0  0  0
  1  8  2  0  0  0  0
  1  9  2  0  0  0  0
  1 22  1  0  0  0  0
  2 20  2  0  0  0  0
  4 21  1  0  0  0  0
  4 26  1  0  0  0  0
  5 24  2  0  0  0  0
  6 25  2  0  0  0  0
 10 13  1  0  0  0  0
 10 19  1  0  0  0  0
 10 21  1  0  0  0  0
 11 15  1  0  0  0  0
 11 20  1  0  0  0  0
 11 24  1  0  0  0  0
 12 14  1  0  0  0  0
 12 20  1  0  0  0  0
 12 25  1  0  0  0  0
 13 16  1  0  0  0  0
 13 39  1  0  0  0  0
 13 40  1  0  0  0  0
 14 17  1  0  0  0  0
 14 41  1  0  0  0  0
 14 42  1  0  0  0  0
 15 18  1  0  0  0  0
 15 43  1  0  0  0  0
 15 44  1  0  0  0  0
 16 22  1  0  0  0  0
 16 45  1  0  0  0  0
 16 46  1  0  0  0  0
 17 27  1  0  0  0  0
 17 47  1  0  0  0  0
 17 48  1  0  0  0  0
 18 28  1  0  0  0  0
 18 49  1  0  0  0  0
 18 50  1  0  0  0  0
 19 26  1  0  0  0  0
 19 29  2  0  0  0  0
 21 30  2  3  0  0  0
 22 51  1  0  0  0  0
 22 52  1  0  0  0  0
 23 24  1  0  0  0  0
 23 25  1  0  0  0  0
 23 31  2  0  0  0  0
 26 32  2  0  0  0  0
 27 34  1  0  0  0  0
 27 53  1  0  0  0  0
 27 54  1  0  0  0  0
 28 33  1  0  0  0  0
 28 55  1  0  0  0  0
 28 56  1  0  0  0  0
 29 35  1  0  0  0  0
 29 57  1  0  0  0  0
 30 36  1  0  0  0  0
 30 58  1  0  0  0  0
 31 38  1  0  0  0  0
 31 59  1  0  0  0  0
 32 37  1  0  0  0  0
 32 60  1  0  0  0  0
 33 61  1  0  0  0  0
 33 62  1  0  0  0  0
 33 66  1  0  0  0  0
 34 63  1  0  0  0  0
 34 64  1  0  0  0  0
 34 65  1  0  0  0  0
 35 37  2  0  0  0  0
 35 67  1  0  0  0  0
 36 38  2  3  0  0  0
 36 68  1  0  0  0  0
 37 69  1  0  0  0  0
 38 70  1  0  0  0  0
M  CHG  2   3   1   7  -1
M  END
> <PUBCHEM_COMPOUND_CID>
4072

> <PUBCHEM_COMPOUND_CANONICALIZED>
1

> <PUBCHEM_CACTVS_COMPLEXITY>
1020

> <PUBCHEM_CACTVS_HBOND_ACCEPTOR>
8

> <PUBCHEM_CACTVS_HBOND_DONOR>
0

> <PUBCHEM_CACTVS_ROTATABLE_BOND>
12

> <PUBCHEM_CACTVS_SUBSKEYS>
AAADcfB7OCBgAAAAAAAAAAAAAAAAAWAAAAA8QAAAAAAAAFgBAAAAHgQAAAAADAzF0ASzxoMABAKMAiVSUHDCCAAhIggIiAEPbMiOJirM8ZuNMChsxxPY6YeQQAAAAAAAAAAAEAAAAAAAAAAgAAAAAAAAAA==

> <PUBCHEM_IUPAC_OPENEYE_NAME>
sodium 3-[2-[4-(1,3-dibutyl-4,6-dioxo-2-thioxo-hexahydropyrimidin-5-ylidene)but-2-enylidene]-1,3-benzoxazol-3-yl]propane-1-sulfonate

> <PUBCHEM_IUPAC_CAS_NAME>
sodium 3-[2-[4-(1,3-dibutyl-4,6-dioxo-2-sulfanylidene-1,3-diazinan-5-ylidene)but-2-enylidene]-1,3-benzoxazol-3-yl]-1-propanesulfonate

> <PUBCHEM_IUPAC_NAME>
sodium 3-[2-[4-(1,3-dibutyl-4,6-dioxo-2-sulfanylidene-1,3-diazinan-5-ylidene)but-2-enylidene]-1,3-benzoxazol-3-yl]propane-1-sulfonate

> <PUBCHEM_IUPAC_SYSTEMATIC_NAME>
sodium 3-[2-[4-[1,3-dibutyl-4,6-bis(oxidanylidene)-2-sulfanylidene-1,3-diazinan-5-ylidene]but-2-enylidene]-1,3-benzoxazol-3-yl]propane-1-sulfonate

> <PUBCHEM_IUPAC_TRADITIONAL_NAME>
sodium 3-[2-[4-(1,3-dibutyl-4,6-diketo-2-thioxo-hexahydropyrimidin-5-ylidene)but-2-enylidene]-1,3-benzoxazol-3-yl]propane-1-sulfonate

> <PUBCHEM_IUPAC_INCHI>
InChI=1S/C26H33N3O6S2.Na/c1-3-5-16-28-24(30)20(25(31)29(26(28)36)17-6-4-2)12-7-10-15-23-27(18-11-19-37(32,33)34)21-13-8-9-14-22(21)35-23;/h7-10,12-15H,3-6,11,16-19H2,1-2H3,(H,32,33,34);/q;+1/p-1

> <PUBCHEM_IUPAC_INCHIKEY>
OSQUFVVXNRMSHL-UHFFFAOYSA-M

> <PUBCHEM_EXACT_MASS>
569.163022

> <PUBCHEM_MOLECULAR_FORMULA>
C26H32N3NaO6S2

> <PUBCHEM_MOLECULAR_WEIGHT>
569.668549

> <PUBCHEM_OPENEYE_CAN_SMILES>
CCCCN1C(=O)C(=CC=CC=C2N(C3=CC=CC=C3O2)CCCS(=O)(=O)[O-])C(=O)N(C1=S)CCCC.[Na+]

> <PUBCHEM_OPENEYE_ISO_SMILES>
CCCCN1C(=O)C(=CC=CC=C2N(C3=CC=CC=C3O2)CCCS(=O)(=O)[O-])C(=O)N(C1=S)CCCC.[Na+]

> <PUBCHEM_CACTVS_TPSA>
151

> <PUBCHEM_MONOISOTOPIC_WEIGHT>
569.163022

> <PUBCHEM_TOTAL_CHARGE>
0

> <PUBCHEM_HEAVY_ATOM_COUNT>
38

> <PUBCHEM_ATOM_DEF_STEREO_COUNT>
0

> <PUBCHEM_ATOM_UDEF_STEREO_COUNT>
0

> <PUBCHEM_BOND_DEF_STEREO_COUNT>
0

> <PUBCHEM_BOND_UDEF_STEREO_COUNT>
2

> <PUBCHEM_ISOTOPIC_ATOM_COUNT>
0

> <PUBCHEM_COMPONENT_COUNT>
2

> <PUBCHEM_CACTVS_TAUTO_COUNT>
1

> <PUBCHEM_NONSTANDARDBOND>
3  7  7

> <PUBCHEM_COORDINATE_TYPE>
1
5
255

> <PUBCHEM_BONDANNOTATIONS>
19  26  8
19  29  8
21  30  1
26  32  8
29  35  8
32  37  8
35  37  8
36  38  1

$$$$

