13430
  -OEChem-06261214102D

 25 25  0     1  0  0  0  0  0999 V2000
    2.0000   -0.9050    0.0000 Br  0  0  0  0  0  0  0  0  0  0  0  0
    4.5981    0.5950    0.0000 N   0  0  3  0  0  0  0  0  0  0  0  0
    3.7320    0.0950    0.0000 C   0  0  0  0  0  0  0  0  0  0  0  0
    3.7320   -0.9050    0.0000 C   0  0  0  0  0  0  0  0  0  0  0  0
    4.5981    1.5950    0.0000 C   0  0  0  0  0  0  0  0  0  0  0  0
    5.4641    0.0950    0.0000 C   0  0  0  0  0  0  0  0  0  0  0  0
    2.8660   -1.4050    0.0000 C   0  0  0  0  0  0  0  0  0  0  0  0
    4.5981   -1.4050    0.0000 C   0  0  0  0  0  0  0  0  0  0  0  0
    2.8660   -2.4050    0.0000 C   0  0  0  0  0  0  0  0  0  0  0  0
    4.5981   -2.4050    0.0000 C   0  0  0  0  0  0  0  0  0  0  0  0
    3.7320   -2.9050    0.0000 C   0  0  0  0  0  0  0  0  0  0  0  0
    5.4641    2.0950    0.0000 C   0  0  0  0  0  0  0  0  0  0  0  0
    6.3301    2.5950    0.0000 C   0  0  0  0  0  0  0  0  0  0  0  0
    3.5200    0.6776    0.0000 H   0  0  0  0  0  0  0  0  0  0  0  0
    3.1215   -0.0127    0.0000 H   0  0  0  0  0  0  0  0  0  0  0  0
    4.3860    2.1776    0.0000 H   0  0  0  0  0  0  0  0  0  0  0  0
    3.9875    1.4873    0.0000 H   0  0  0  0  0  0  0  0  0  0  0  0
    5.1541   -0.4419    0.0000 H   0  0  0  0  0  0  0  0  0  0  0  0
    6.0010   -0.2150    0.0000 H   0  0  0  0  0  0  0  0  0  0  0  0
    5.7741    0.6319    0.0000 H   0  0  0  0  0  0  0  0  0  0  0  0
    5.1350   -1.0950    0.0000 H   0  0  0  0  0  0  0  0  0  0  0  0
    2.3291   -2.7150    0.0000 H   0  0  0  0  0  0  0  0  0  0  0  0
    5.1350   -2.7150    0.0000 H   0  0  0  0  0  0  0  0  0  0  0  0
    3.7320   -3.5250    0.0000 H   0  0  0  0  0  0  0  0  0  0  0  0
    6.8671    2.9050    0.0000 H   0  0  0  0  0  0  0  0  0  0  0  0
  1  7  1  0  0  0  0
  2  3  1  0  0  0  0
  2  5  1  0  0  0  0
  2  6  1  0  0  0  0
  3  4  1  0  0  0  0
  3 14  1  0  0  0  0
  3 15  1  0  0  0  0
  4  7  1  0  0  0  0
  4  8  2  0  0  0  0
  5 12  1  0  0  0  0
  5 16  1  0  0  0  0
  5 17  1  0  0  0  0
  6 18  1  0  0  0  0
  6 19  1  0  0  0  0
  6 20  1  0  0  0  0
  7  9  2  0  0  0  0
  8 10  1  0  0  0  0
  8 21  1  0  0  0  0
  9 11  1  0  0  0  0
  9 22  1  0  0  0  0
 10 11  2  0  0  0  0
 10 23  1  0  0  0  0
 11 24  1  0  0  0  0
 12 13  3  0  0  0  0
 13 25  1  0  0  0  0
M  END
> <PUBCHEM_COMPOUND_CID>
13430

> <PUBCHEM_COMPOUND_CANONICALIZED>
1

> <PUBCHEM_CACTVS_COMPLEXITY>
194

> <PUBCHEM_CACTVS_HBOND_ACCEPTOR>
1

> <PUBCHEM_CACTVS_HBOND_DONOR>
0

> <PUBCHEM_CACTVS_ROTATABLE_BOND>
3

> <PUBCHEM_CACTVS_SUBSKEYS>
AAADccByAAAAEAAAAAAAAAAAAAAAAAAAAAAwAAAAAAAAAAABAAAAHABAAAABrADBGAQyAIMAAADAGiBCAACCAAAgAAQIiAAIBKgIICKAkRGEIAhggACIihcQgAAOAAAAAAAAgAAAAAAAAAEAAAAAAAAAAA==

> <PUBCHEM_IUPAC_OPENEYE_NAME>
N-[(2-bromophenyl)methyl]-N-methyl-prop-2-yn-1-amine

> <PUBCHEM_IUPAC_CAS_NAME>
N-[(2-bromophenyl)methyl]-N-methyl-2-propyn-1-amine

> <PUBCHEM_IUPAC_NAME>
N-[(2-bromophenyl)methyl]-N-methylprop-2-yn-1-amine

> <PUBCHEM_IUPAC_SYSTEMATIC_NAME>
N-[(2-bromophenyl)methyl]-N-methyl-prop-2-yn-1-amine

> <PUBCHEM_IUPAC_TRADITIONAL_NAME>
(2-bromobenzyl)-methyl-propargyl-amine

> <PUBCHEM_IUPAC_INCHI>
InChI=1S/C11H12BrN/c1-3-8-13(2)9-10-6-4-5-7-11(10)12/h1,4-7H,8-9H2,2H3

> <PUBCHEM_IUPAC_INCHIKEY>
RAQPZRZYBLVXPM-UHFFFAOYSA-N

> <PUBCHEM_XLOGP3_AA>
2.6

> <PUBCHEM_EXACT_MASS>
237.015311

> <PUBCHEM_MOLECULAR_FORMULA>
C11H12BrN

> <PUBCHEM_MOLECULAR_WEIGHT>
238.12368

> <PUBCHEM_OPENEYE_CAN_SMILES>
CN(CC#C)CC1=CC=CC=C1Br

> <PUBCHEM_OPENEYE_ISO_SMILES>
CN(CC#C)CC1=CC=CC=C1Br

> <PUBCHEM_CACTVS_TPSA>
3.2

> <PUBCHEM_MONOISOTOPIC_WEIGHT>
237.015311

> <PUBCHEM_TOTAL_CHARGE>
0

> <PUBCHEM_HEAVY_ATOM_COUNT>
13

> <PUBCHEM_ATOM_DEF_STEREO_COUNT>
0

> <PUBCHEM_ATOM_UDEF_STEREO_COUNT>
0

> <PUBCHEM_BOND_DEF_STEREO_COUNT>
0

> <PUBCHEM_BOND_UDEF_STEREO_COUNT>
0

> <PUBCHEM_ISOTOPIC_ATOM_COUNT>
0

> <PUBCHEM_COMPONENT_COUNT>
1

> <PUBCHEM_CACTVS_TAUTO_COUNT>
1

> <PUBCHEM_COORDINATE_TYPE>
1
5
255

> <PUBCHEM_BONDANNOTATIONS>
10  11  8
4  7  8
4  8  8
7  9  8
8  10  8
9  11  8

$$$$

