12555
  -OEChem-06261207053D

 46 48  0     0  0  0  0  0  0999 V2000
   -2.1715   -0.9826    0.6206 O   0  0  0  0  0  0  0  0  0  0  0  0
    1.1514   -0.5559    1.0389 N   0  0  0  0  0  0  0  0  0  0  0  0
   -0.1162   -0.1628    1.2485 N   0  0  0  0  0  0  0  0  0  0  0  0
   -4.2271    1.4049   -0.8405 N   0  0  0  0  0  0  0  0  0  0  0  0
    1.2689   -1.6934    0.2866 C   0  0  0  0  0  0  0  0  0  0  0  0
   -0.0352   -2.0686   -0.0160 C   0  0  0  0  0  0  0  0  0  0  0  0
   -4.2514    0.0690    1.2114 C   0  0  0  0  0  0  0  0  0  0  0  0
    2.2310    0.2229    1.6005 C   0  0  0  0  0  0  0  0  0  0  0  0
   -0.8352   -1.0855    0.6055 C   0  0  0  0  0  0  0  0  0  0  0  0
   -4.6991    0.1613   -0.2438 C   0  0  0  0  0  0  0  0  0  0  0  0
   -2.7345    0.1245    1.3339 C   0  0  0  0  0  0  0  0  0  0  0  0
    2.6882    1.2947    0.6483 C   0  0  0  0  0  0  0  0  0  0  0  0
    2.3872   -2.4101   -0.1448 C   0  0  0  0  0  0  0  0  0  0  0  0
   -0.2582   -3.2194   -0.7904 C   0  0  0  0  0  0  0  0  0  0  0  0
    2.1491   -3.5530   -0.9153 C   0  0  0  0  0  0  0  0  0  0  0  0
    0.8497   -3.9527   -1.2333 C   0  0  0  0  0  0  0  0  0  0  0  0
   -4.5726    1.4586   -2.2622 C   0  0  0  0  0  0  0  0  0  0  0  0
   -4.7892    2.5598   -0.1379 C   0  0  0  0  0  0  0  0  0  0  0  0
    2.0943    2.5487    0.6936 C   0  0  0  0  0  0  0  0  0  0  0  0
    3.6982    1.0155   -0.2624 C   0  0  0  0  0  0  0  0  0  0  0  0
    2.5182    3.5424   -0.1888 C   0  0  0  0  0  0  0  0  0  0  0  0
    4.1221    2.0092   -1.1446 C   0  0  0  0  0  0  0  0  0  0  0  0
    3.5320    3.2726   -1.1079 C   0  0  0  0  0  0  0  0  0  0  0  0
   -4.7197    0.8279    1.8460 H   0  0  0  0  0  0  0  0  0  0  0  0
   -4.5959   -0.8998    1.5964 H   0  0  0  0  0  0  0  0  0  0  0  0
    3.0533   -0.4523    1.8635 H   0  0  0  0  0  0  0  0  0  0  0  0
    1.8822    0.6592    2.5449 H   0  0  0  0  0  0  0  0  0  0  0  0
   -5.7934    0.0854   -0.2912 H   0  0  0  0  0  0  0  0  0  0  0  0
   -4.3016   -0.6973   -0.7994 H   0  0  0  0  0  0  0  0  0  0  0  0
   -2.4731    0.0400    2.3965 H   0  0  0  0  0  0  0  0  0  0  0  0
   -2.3421    1.0739    0.9509 H   0  0  0  0  0  0  0  0  0  0  0  0
    3.3989   -2.1176    0.1090 H   0  0  0  0  0  0  0  0  0  0  0  0
   -1.2640   -3.5400   -1.0442 H   0  0  0  0  0  0  0  0  0  0  0  0
    2.9914   -4.1423   -1.2691 H   0  0  0  0  0  0  0  0  0  0  0  0
    0.6944   -4.8460   -1.8327 H   0  0  0  0  0  0  0  0  0  0  0  0
   -4.1720    2.3687   -2.7225 H   0  0  0  0  0  0  0  0  0  0  0  0
   -5.6563    1.4363   -2.4254 H   0  0  0  0  0  0  0  0  0  0  0  0
   -4.1247    0.6148   -2.7990 H   0  0  0  0  0  0  0  0  0  0  0  0
   -5.8819    2.5127   -0.0641 H   0  0  0  0  0  0  0  0  0  0  0  0
   -4.5322    3.4864   -0.6657 H   0  0  0  0  0  0  0  0  0  0  0  0
   -4.3676    2.6808    0.8643 H   0  0  0  0  0  0  0  0  0  0  0  0
    1.3033    2.7694    1.4048 H   0  0  0  0  0  0  0  0  0  0  0  0
    4.1783    0.0432   -0.2962 H   0  0  0  0  0  0  0  0  0  0  0  0
    2.0587    4.5261   -0.1603 H   0  0  0  0  0  0  0  0  0  0  0  0
    4.9138    1.8005   -1.8582 H   0  0  0  0  0  0  0  0  0  0  0  0
    3.8627    4.0465   -1.7944 H   0  0  0  0  0  0  0  0  0  0  0  0
  1  9  1  0  0  0  0
  1 11  1  0  0  0  0
  2  3  1  0  0  0  0
  2  5  1  0  0  0  0
  2  8  1  0  0  0  0
  3  9  2  0  0  0  0
  4 10  1  0  0  0  0
  4 17  1  0  0  0  0
  4 18  1  0  0  0  0
  5  6  1  0  0  0  0
  5 13  2  0  0  0  0
  6  9  1  0  0  0  0
  6 14  2  0  0  0  0
  7 10  1  0  0  0  0
  7 11  1  0  0  0  0
  7 24  1  0  0  0  0
  7 25  1  0  0  0  0
  8 12  1  0  0  0  0
  8 26  1  0  0  0  0
  8 27  1  0  0  0  0
 10 28  1  0  0  0  0
 10 29  1  0  0  0  0
 11 30  1  0  0  0  0
 11 31  1  0  0  0  0
 12 19  2  0  0  0  0
 12 20  1  0  0  0  0
 13 15  1  0  0  0  0
 13 32  1  0  0  0  0
 14 16  1  0  0  0  0
 14 33  1  0  0  0  0
 15 16  2  0  0  0  0
 15 34  1  0  0  0  0
 16 35  1  0  0  0  0
 17 36  1  0  0  0  0
 17 37  1  0  0  0  0
 17 38  1  0  0  0  0
 18 39  1  0  0  0  0
 18 40  1  0  0  0  0
 18 41  1  0  0  0  0
 19 21  1  0  0  0  0
 19 42  1  0  0  0  0
 20 22  2  0  0  0  0
 20 43  1  0  0  0  0
 21 23  2  0  0  0  0
 21 44  1  0  0  0  0
 22 23  1  0  0  0  0
 22 45  1  0  0  0  0
 23 46  1  0  0  0  0
M  END
> <PUBCHEM_COMPOUND_CID>
12555

> <PUBCHEM_CONFORMER_RMSD>
0.8

> <PUBCHEM_CONFORMER_DIVERSEORDER>
5
83
94
30
163
212
76
124
28
169
245
279
40
159
116
4
241
41
53
300
177
199
156
106
225
170
84
1
57
46
15
252
276
113
247
236
134
251
265
16
237
9
56
7
274
183
62
144
71
33
299
2
162
196
31
103
275
181
49
18
198
63
73
8
184
243
207
298
191
219
58
185
255
296
6
271
52
204
187
303
223
64
13
44
266
253
230
70
90
150
249
98
22
101
215
47
263
221
302
79
68
125
75
19
55
104
194
107
29
267
11
180
26
175
270
166
112
235
14
123
161
218
278
127
97
250
282
284
248
109
25
69
165
45
92
195
258
240
244
91
229
142
118
54
171
96
137
297
176
51
105
262
193
135
231
129
157
280
108
179
273
167
264
160
23
172
3
291
110
232
128
261
197
186
100
192
111
119
233
43
59
292
211
38
81
222
121
120
61
138
99
203
205
145
89
226
202
141
74
224
254
214
154
288
93
78
259
201
148
220
24
294
20
208
21
48
37
17
88
290
168
35
67
189
50
77
10
242
146
257
285
82
133
158
182
34
210
234
289
206
87
72
42
136
227
256
301
269
39
27
283
60
65
239
12
260
217
213
151
122
147
139
200
286
143
130
32
216
66
173
152
140
277
86
295
164
178
114
238
117
131
246
188
126
85
80
95
287
149
272
268
293
281
115
209
155
174
36
132
102
228
190
153

> <PUBCHEM_MMFF94_PARTIAL_CHARGES>
30
1 -0.34
10 0.27
11 0.28
12 -0.14
13 -0.15
14 -0.15
15 -0.15
16 -0.15
17 0.27
18 0.27
19 -0.15
2 0.31
20 -0.15
21 -0.15
22 -0.15
23 -0.15
3 -0.71
32 0.15
33 0.15
34 0.15
35 0.15
4 -0.81
42 0.15
43 0.15
44 0.15
45 0.15
46 0.15
5 -0.15
8 0.4
9 0.35

> <PUBCHEM_EFFECTIVE_ROTOR_COUNT>
7

> <PUBCHEM_PHARMACOPHORE_FEATURES>
4
1 4 cation
5 2 3 5 6 9 rings
6 12 19 20 21 22 23 rings
6 5 6 13 14 15 16 rings

> <PUBCHEM_HEAVY_ATOM_COUNT>
23

> <PUBCHEM_ATOM_DEF_STEREO_COUNT>
0

> <PUBCHEM_ATOM_UDEF_STEREO_COUNT>
0

> <PUBCHEM_BOND_DEF_STEREO_COUNT>
0

> <PUBCHEM_BOND_UDEF_STEREO_COUNT>
0

> <PUBCHEM_ISOTOPIC_ATOM_COUNT>
0

> <PUBCHEM_COMPONENT_COUNT>
1

> <PUBCHEM_CACTVS_TAUTO_COUNT>
1

> <PUBCHEM_CONFORMER_ID>
0000310B00000005

> <PUBCHEM_MMFF94_ENERGY>
53.9963

> <PUBCHEM_FEATURE_SELFOVERLAP>
20.388

> <PUBCHEM_SHAPE_FINGERPRINT>
10483366 6 18265879432648751884
10871710 139 17478042761698075813
11796584 16 5616990897420210797
12160290 23 17609502618225620826
12173636 292 17830735357403294270
12769317 202 18411700997518412832
12788726 201 17400086275277713602
12824470 246 7131620975789186200
13134695 92 18051976114821764623
13583140 156 17917434276126615955
13899415 180 17688606273785009983
14251764 38 18200882871951137045
14508225 48 17686888828233072966
14556957 393 17329106645222646374
15163728 17 18341879767208050029
15210252 30 17694489747514374828
15475509 35 7781222397293434405
15961568 22 17917990547426925893
16988056 13 18050577540294546125
17134986 127 18337104558512937178
17980427 26 17345494616915357874
20567600 299 18335994167533248449
21304303 282 17321027085682738674
21641784 216 17977677403023192159
21756936 100 17342654458269771392
21857420 4 17692257756164043772
21860390 5 18194130826430542869
22907989 373 17540252042992099806
23114952 82 18338517576999341577
23559900 14 18262524830798462347
238 59 18338247045282939613
26353 1 17321808094972742703
3057174 1 18187920647302586758
3060560 45 18335977606433948578
328310 1195 18271258225919614837
46194498 28 18339364192710876511
5281201 14 18265897041851076059
5969126 39 17470168523799502838
6287921 2 18338803424353155757
633830 44 17168417160949409081

> <PUBCHEM_SHAPE_MULTIPOLES>
452.52
9.19
5.17
1.55
11.41
2.12
-0.27
-9.54
-2.62
-4.68
-2.51
0.81
-0.29
0.6

> <PUBCHEM_SHAPE_SELFOVERLAP>
964.561

> <PUBCHEM_SHAPE_VOLUME>
253.7

> <PUBCHEM_COORDINATE_TYPE>
2
5
10

$$$$

