4300
  -OEChem-06261200013D

 35 36  0     0  0  0  0  0  0999 V2000
    5.6038   -2.5851   -0.9550 I   0  0  0  0  0  0  0  0  0  0  0  0
   -4.3826    0.3770   -2.5658 Cl  0  0  0  0  0  0  0  0  0  0  0  0
    2.5453   -2.2090    0.0809 O   0  0  0  0  0  0  0  0  0  0  0  0
    0.8255   -0.1165    2.0183 O   0  0  0  0  0  0  0  0  0  0  0  0
    0.1302    0.1901   -0.1926 N   0  0  0  0  0  0  0  0  0  0  0  0
   -6.0676   -0.3037    1.5128 N   0  0  0  0  0  0  0  0  0  0  0  0
   -6.2652    0.0330   -0.7912 N   0  0  0  0  0  0  0  0  0  0  0  0
    2.4871    0.1494    0.3886 C   0  0  0  0  0  0  0  0  0  0  0  0
    4.4243    1.4938   -0.0711 C   0  0  0  0  0  0  0  0  0  0  0  0
   -1.2594    0.1215   -0.0914 C   0  0  0  0  0  0  0  0  0  0  0  0
    3.0967    1.3948    0.3451 C   0  0  0  0  0  0  0  0  0  0  0  0
    1.0852    0.0721    0.8334 C   0  0  0  0  0  0  0  0  0  0  0  0
    3.1750   -0.9987    0.0255 C   0  0  0  0  0  0  0  0  0  0  0  0
    5.1273    0.3465   -0.4390 C   0  0  0  0  0  0  0  0  0  0  0  0
    4.5026   -0.8996   -0.3907 C   0  0  0  0  0  0  0  0  0  0  0  0
   -2.0495    0.2638   -1.2321 C   0  0  0  0  0  0  0  0  0  0  0  0
   -1.8587   -0.0886    1.1504 C   0  0  0  0  0  0  0  0  0  0  0  0
   -4.0384   -0.0142    0.1110 C   0  0  0  0  0  0  0  0  0  0  0  0
   -3.4391    0.1960   -1.1308 C   0  0  0  0  0  0  0  0  0  0  0  0
   -3.2482   -0.1564    1.2516 C   0  0  0  0  0  0  0  0  0  0  0  0
    5.0913    2.8267   -0.1242 C   0  0  0  0  0  0  0  0  0  0  0  0
   -5.4858   -0.0928    0.2660 C   0  0  0  0  0  0  0  0  0  0  0  0
    2.5464    2.2868    0.6345 H   0  0  0  0  0  0  0  0  0  0  0  0
    0.4905    0.3394   -1.1331 H   0  0  0  0  0  0  0  0  0  0  0  0
    6.1627    0.4360   -0.7604 H   0  0  0  0  0  0  0  0  0  0  0  0
   -1.5799    0.4279   -2.1999 H   0  0  0  0  0  0  0  0  0  0  0  0
   -1.3201   -0.2087    2.0793 H   0  0  0  0  0  0  0  0  0  0  0  0
   -3.6508   -0.3217    2.2442 H   0  0  0  0  0  0  0  0  0  0  0  0
    5.8194    2.8705   -0.9414 H   0  0  0  0  0  0  0  0  0  0  0  0
    4.3648    3.6274   -0.3000 H   0  0  0  0  0  0  0  0  0  0  0  0
    5.6090    3.0253    0.8194 H   0  0  0  0  0  0  0  0  0  0  0  0
    1.6273   -2.1102    0.3797 H   0  0  0  0  0  0  0  0  0  0  0  0
   -7.0777   -0.3569    1.5974 H   0  0  0  0  0  0  0  0  0  0  0  0
   -5.5518   -0.4114    2.3764 H   0  0  0  0  0  0  0  0  0  0  0  0
   -7.2408   -0.0516   -0.4851 H   0  0  0  0  0  0  0  0  0  0  0  0
  1 15  1  0  0  0  0
  2 19  1  0  0  0  0
  3 13  1  0  0  0  0
  3 32  1  0  0  0  0
  4 12  2  0  0  0  0
  5 10  1  0  0  0  0
  5 12  1  0  0  0  0
  5 24  1  0  0  0  0
  6 22  1  0  0  0  0
  6 33  1  0  0  0  0
  6 34  1  0  0  0  0
  7 22  2  0  0  0  0
  7 35  1  0  0  0  0
  8 11  1  0  0  0  0
  8 12  1  0  0  0  0
  8 13  2  0  0  0  0
  9 11  2  0  0  0  0
  9 14  1  0  0  0  0
  9 21  1  0  0  0  0
 10 16  2  0  0  0  0
 10 17  1  0  0  0  0
 11 23  1  0  0  0  0
 13 15  1  0  0  0  0
 14 15  2  0  0  0  0
 14 25  1  0  0  0  0
 16 19  1  0  0  0  0
 16 26  1  0  0  0  0
 17 20  2  0  0  0  0
 17 27  1  0  0  0  0
 18 19  2  0  0  0  0
 18 20  1  0  0  0  0
 18 22  1  0  0  0  0
 20 28  1  0  0  0  0
 21 29  1  0  0  0  0
 21 30  1  0  0  0  0
 21 31  1  0  0  0  0
M  END
> <PUBCHEM_COMPOUND_CID>
4300

> <PUBCHEM_CONFORMER_RMSD>
0.6

> <PUBCHEM_CONFORMER_DIVERSEORDER>
1
6
11
8
9
2
7
5
4
10
12
3

> <PUBCHEM_MMFF94_PARTIAL_CHARGES>
32
1 -0.08
10 0.12
11 -0.15
12 0.54
13 0.08
14 -0.15
15 0.08
16 -0.15
17 -0.15
18 0.09
19 0.18
2 -0.18
20 -0.15
21 0.14
22 0.41
23 0.15
24 0.37
25 0.15
26 0.15
27 0.15
28 0.15
3 -0.53
32 0.45
33 0.4
34 0.4
35 0.4
4 -0.57
5 -0.55
6 -0.85
7 -0.85
8 0.09
9 -0.14

> <PUBCHEM_EFFECTIVE_ROTOR_COUNT>
4

> <PUBCHEM_PHARMACOPHORE_FEATURES>
9
1 1 hydrophobe
1 3 donor
1 4 acceptor
1 5 donor
1 6 donor
1 7 donor
3 6 7 22 cation
6 10 16 17 18 19 20 rings
6 8 9 11 13 14 15 rings

> <PUBCHEM_HEAVY_ATOM_COUNT>
22

> <PUBCHEM_ATOM_DEF_STEREO_COUNT>
0

> <PUBCHEM_ATOM_UDEF_STEREO_COUNT>
0

> <PUBCHEM_BOND_DEF_STEREO_COUNT>
0

> <PUBCHEM_BOND_UDEF_STEREO_COUNT>
0

> <PUBCHEM_ISOTOPIC_ATOM_COUNT>
0

> <PUBCHEM_COMPONENT_COUNT>
1

> <PUBCHEM_CACTVS_TAUTO_COUNT>
15

> <PUBCHEM_CONFORMER_ID>
000010CC00000001

> <PUBCHEM_MMFF94_ENERGY>
83.8307

> <PUBCHEM_FEATURE_SELFOVERLAP>
45.712

> <PUBCHEM_SHAPE_FINGERPRINT>
10498660 4 16845300483017272748
10670039 82 15697717125128807454
11796584 16 13984379968066227852
12107183 9 17466491726454868339
12236239 1 17530963596509692715
12403259 415 17918276467224808277
12616971 3 17822294603857116190
12730499 353 18202278100513813490
12788726 201 16805589400150512155
13533116 47 18186236243054824194
13760787 5 18114185237037772957
13782708 43 18060699515422293906
13955234 65 18408889529939614746
14251752 14 17677050256474456761
15081414 286 18343300336685453932
15183329 4 16587738737892378129
15188451 53 14057306189422933661
15250474 111 17167875161430018863
15475509 35 4822666280693390956
15537594 2 17313103042583135223
17844677 252 18411132575734627453
17857418 61 17022627493678481526
18335252 98 18265892467542523195
200 152 18186803603517626416
20612939 158 18334852823350510592
20645477 70 18410572916332673218
21033648 29 18130803230322009581
21033650 10 15553317210384674766
21315763 178 17022910077041669198
220451 1 17530962458348634101
22061861 79 18412825815130420422
221357 26 18341612650702758972
22950370 63 17894352163851764557
2297311 6 17418084447568926167
2303208 19 17988634207828382099
23081809 10 17530964683405443833
23402539 116 14056723465730231489
23522609 53 17386827466400720841
23557571 272 17060335257716551215
23559900 14 18201998815569347544
23569914 152 17188724337424023359
29717793 49 17967809483478631324
3004659 81 17240474832639392476
341906 21 15913335710094636012
34797466 226 17560787819490809870
351380 3 17385726915258658175
3545911 37 17988923357974772144
46194498 28 18272085020319999572
5104073 3 16343156830328031337
5281201 14 18341330080683389860
542803 24 17749105582637634009
6025842 7 18334853905946065574
960060 61 17821451235853039516

> <PUBCHEM_SHAPE_MULTIPOLES>
439.87
16.03
1.96
1.57
8
0.11
-0.39
2.32
-2.81
-6.03
-0.38
2.53
0.03
-0.26

> <PUBCHEM_SHAPE_SELFOVERLAP>
918.41

> <PUBCHEM_SHAPE_VOLUME>
256

> <PUBCHEM_COORDINATE_TYPE>
2
5
10

$$$$

