11668
  -OEChem-06261205583D

 12 11  0     0  0  0  0  0  0999 V2000
    0.4880    0.1410   -0.0179 S   0  0  0  0  0  0  0  0  0  0  0  0
    1.5313   -1.0890    0.2271 O   0  0  0  0  0  0  0  0  0  0  0  0
    0.5208    1.0172    1.1397 O   0  0  0  0  0  0  0  0  0  0  0  0
    0.6819    0.6546   -1.3623 O   0  0  0  0  0  0  0  0  0  0  0  0
   -0.9990   -0.8059    0.0213 C   0  0  0  0  0  0  0  0  0  0  0  0
   -2.2229    0.0821   -0.0080 C   0  0  0  0  0  0  0  0  0  0  0  0
   -0.9896   -1.4827   -0.8380 H   0  0  0  0  0  0  0  0  0  0  0  0
   -0.9930   -1.3979    0.9417 H   0  0  0  0  0  0  0  0  0  0  0  0
   -3.1335   -0.5245    0.0057 H   0  0  0  0  0  0  0  0  0  0  0  0
   -2.2488    0.7523    0.8574 H   0  0  0  0  0  0  0  0  0  0  0  0
   -2.2393    0.7018   -0.9104 H   0  0  0  0  0  0  0  0  0  0  0  0
    1.5325   -1.4696    1.1368 H   0  0  0  0  0  0  0  0  0  0  0  0
  1  2  1  0  0  0  0
  1  3  2  0  0  0  0
  1  4  2  0  0  0  0
  1  5  1  0  0  0  0
  2 12  1  0  0  0  0
  5  6  1  0  0  0  0
  5  7  1  0  0  0  0
  5  8  1  0  0  0  0
  6  9  1  0  0  0  0
  6 10  1  0  0  0  0
  6 11  1  0  0  0  0
M  END
> <PUBCHEM_COMPOUND_CID>
11668

> <PUBCHEM_CONFORMER_RMSD>
0.4

> <PUBCHEM_CONFORMER_DIVERSEORDER>
1

> <PUBCHEM_MMFF94_PARTIAL_CHARGES>
6
1 1.38
12 0.5
2 -0.68
3 -0.65
4 -0.65
5 0.11

> <PUBCHEM_EFFECTIVE_ROTOR_COUNT>
1

> <PUBCHEM_PHARMACOPHORE_FEATURES>
4
1 2 acceptor
1 3 acceptor
1 4 acceptor
4 1 2 3 4 anion

> <PUBCHEM_HEAVY_ATOM_COUNT>
6

> <PUBCHEM_ATOM_DEF_STEREO_COUNT>
0

> <PUBCHEM_ATOM_UDEF_STEREO_COUNT>
0

> <PUBCHEM_BOND_DEF_STEREO_COUNT>
0

> <PUBCHEM_BOND_UDEF_STEREO_COUNT>
0

> <PUBCHEM_ISOTOPIC_ATOM_COUNT>
0

> <PUBCHEM_COMPONENT_COUNT>
1

> <PUBCHEM_CACTVS_TAUTO_COUNT>
1

> <PUBCHEM_CONFORMER_ID>
00002D9400000001

> <PUBCHEM_MMFF94_ENERGY>
0.4266

> <PUBCHEM_FEATURE_SELFOVERLAP>
20.351

> <PUBCHEM_SHAPE_FINGERPRINT>
139733 1 8862645919908572162
20096714 4 17460040573922891849
21040471 1 18340768118250510963
24536 1 17773886302700567887
29004967 10 17489581307344990938
5943 1 9291897218060738404

> <PUBCHEM_SHAPE_MULTIPOLES>
109.72
2.15
1.06
1.01
1.22
0.11
-0.12
0.23
0.01
-0.27
0.1
-0.29
-0.33
-0.05

> <PUBCHEM_SHAPE_SELFOVERLAP>
185.247

> <PUBCHEM_SHAPE_VOLUME>
74.8

> <PUBCHEM_COORDINATE_TYPE>
2
5
10

$$$$

