9154
  -OEChem-06261203273D

 26 29  0     0  0  0  0  0  0999 V2000
    0.8966   -0.0001    0.0001 C   0  0  0  0  0  0  0  0  0  0  0  0
    0.1039   -1.1395    0.0000 C   0  0  0  0  0  0  0  0  0  0  0  0
    0.1040    1.1392    0.0000 C   0  0  0  0  0  0  0  0  0  0  0  0
   -1.2885   -0.7124    0.0001 C   0  0  0  0  0  0  0  0  0  0  0  0
   -1.2885    0.7125    0.0000 C   0  0  0  0  0  0  0  0  0  0  0  0
    2.2897    0.0000    0.0000 C   0  0  0  0  0  0  0  0  0  0  0  0
    0.7103   -2.3817   -0.0002 C   0  0  0  0  0  0  0  0  0  0  0  0
    0.7108    2.3814   -0.0002 C   0  0  0  0  0  0  0  0  0  0  0  0
   -2.4710   -1.4271    0.0000 C   0  0  0  0  0  0  0  0  0  0  0  0
   -2.4708    1.4274   -0.0001 C   0  0  0  0  0  0  0  0  0  0  0  0
    2.9032   -1.2678    0.0002 C   0  0  0  0  0  0  0  0  0  0  0  0
    2.9036    1.2678    0.0001 C   0  0  0  0  0  0  0  0  0  0  0  0
    2.1155   -2.4394   -0.0001 C   0  0  0  0  0  0  0  0  0  0  0  0
    2.1159    2.4393    0.0000 C   0  0  0  0  0  0  0  0  0  0  0  0
   -3.6673   -0.7040    0.0001 C   0  0  0  0  0  0  0  0  0  0  0  0
   -3.6673    0.7044    0.0000 C   0  0  0  0  0  0  0  0  0  0  0  0
    0.1282   -3.2972   -0.0003 H   0  0  0  0  0  0  0  0  0  0  0  0
    0.1286    3.2969   -0.0003 H   0  0  0  0  0  0  0  0  0  0  0  0
   -2.4833   -2.5113    0.0000 H   0  0  0  0  0  0  0  0  0  0  0  0
   -2.4830    2.5116   -0.0002 H   0  0  0  0  0  0  0  0  0  0  0  0
    3.9868   -1.3542    0.0002 H   0  0  0  0  0  0  0  0  0  0  0  0
    3.9872    1.3540    0.0002 H   0  0  0  0  0  0  0  0  0  0  0  0
    2.6080   -3.4090   -0.0002 H   0  0  0  0  0  0  0  0  0  0  0  0
    2.6083    3.4090    0.0000 H   0  0  0  0  0  0  0  0  0  0  0  0
   -4.6154   -1.2361    0.0000 H   0  0  0  0  0  0  0  0  0  0  0  0
   -4.6153    1.2366    0.0000 H   0  0  0  0  0  0  0  0  0  0  0  0
  1  2  1  0  0  0  0
  1  3  1  0  0  0  0
  1  6  2  0  0  0  0
  2  4  1  0  0  0  0
  2  7  2  0  0  0  0
  3  5  1  0  0  0  0
  3  8  2  0  0  0  0
  4  5  1  0  0  0  0
  4  9  2  0  0  0  0
  5 10  2  0  0  0  0
  6 11  1  0  0  0  0
  6 12  1  0  0  0  0
  7 13  1  0  0  0  0
  7 17  1  0  0  0  0
  8 14  1  0  0  0  0
  8 18  1  0  0  0  0
  9 15  1  0  0  0  0
  9 19  1  0  0  0  0
 10 16  1  0  0  0  0
 10 20  1  0  0  0  0
 11 13  2  0  0  0  0
 11 21  1  0  0  0  0
 12 14  2  0  0  0  0
 12 22  1  0  0  0  0
 13 23  1  0  0  0  0
 14 24  1  0  0  0  0
 15 16  2  0  0  0  0
 15 25  1  0  0  0  0
 16 26  1  0  0  0  0
M  END
> <PUBCHEM_COMPOUND_CID>
9154

> <PUBCHEM_CONFORMER_RMSD>
0.4

> <PUBCHEM_CONFORMER_DIVERSEORDER>
1

> <PUBCHEM_MMFF94_PARTIAL_CHARGES>
20
10 -0.15
11 -0.15
12 -0.15
13 -0.15
14 -0.15
15 -0.15
16 -0.15
17 0.15
18 0.15
19 0.15
20 0.15
21 0.15
22 0.15
23 0.15
24 0.15
25 0.15
26 0.15
7 -0.15
8 -0.15
9 -0.15

> <PUBCHEM_EFFECTIVE_ROTOR_COUNT>
0

> <PUBCHEM_PHARMACOPHORE_FEATURES>
4
5 1 2 3 4 5 rings
6 1 2 6 7 11 13 rings
6 1 3 6 8 12 14 rings
6 4 5 9 10 15 16 rings

> <PUBCHEM_HEAVY_ATOM_COUNT>
16

> <PUBCHEM_ATOM_DEF_STEREO_COUNT>
0

> <PUBCHEM_ATOM_UDEF_STEREO_COUNT>
0

> <PUBCHEM_BOND_DEF_STEREO_COUNT>
0

> <PUBCHEM_BOND_UDEF_STEREO_COUNT>
0

> <PUBCHEM_ISOTOPIC_ATOM_COUNT>
0

> <PUBCHEM_COMPONENT_COUNT>
1

> <PUBCHEM_CACTVS_TAUTO_COUNT>
1

> <PUBCHEM_CONFORMER_ID>
000023C200000001

> <PUBCHEM_MMFF94_ENERGY>
70.1844

> <PUBCHEM_FEATURE_SELFOVERLAP>
20.603

> <PUBCHEM_SHAPE_FINGERPRINT>
10319926 262 17035584951320653504
10411042 1 17906171007528679567
10608611 8 18413393150561916341
10967382 1 18338797805987078469
10980938 120 18410854347763306696
11471102 20 18411142441622237221
11578080 2 17244463899153356193
12553582 1 18050845825357969162
13140716 1 18410575127644420328
13380535 76 18268996379834324714
13897977 150 18411703153792215141
14648413 74 18413106164894076297
14790565 3 16461341406957752296
15196674 1 18410573989604661015
15219456 202 18413671301265354449
15309172 13 18194392299749973465
15442244 35 18264768942430529953
15536298 74 18333450945698009604
16945 1 18410573989615210501
17990270 104 18411702114215132658
18186145 218 18261664900714417069
193761 8 18410856564103555429
19591789 44 17906445528810159674
20510252 161 17613992993664062777
20559304 39 18410292518796356144
20645477 70 18409453592025964423
21267235 1 18337944692459926183
21501502 16 18410011035572543717
221490 88 18340760481588071483
22854114 111 18410853239846445049
2334 1 18410575054724908388
23463225 33 18411702127147396762
23559900 14 18409456911428788698
25 1 18341332210348657068
2748010 2 18411138034811705156
3071541 12 18410006620167114204
3071541 158 18271243936188796620
335352 9 18194683902354513789
34934 24 18195537110297710290
352729 6 17763180237489557708
5104073 3 18411135840505371939
53812653 166 18335141942905116024
54173680 148 17186159211235260850
7364860 26 18408323289170734724
7832392 63 18264488562744345705
81228 2 17543344312097326530
84936 182 18114181869794606008
8809292 202 18272926146219745851
9709674 26 18411416198622435695

> <PUBCHEM_SHAPE_MULTIPOLES>
329.27
5.32
2.81
0.62
3.23
0
0
0
0
-1.74
0
0
0
0

> <PUBCHEM_SHAPE_SELFOVERLAP>
770.213

> <PUBCHEM_SHAPE_VOLUME>
156.6

> <PUBCHEM_COORDINATE_TYPE>
2
5
10

$$$$

