8973
  -OEChem-06261203173D

 27 26  0     1  0  0  0  0  0999 V2000
    0.4789    1.5447   -0.7921 O   0  0  0  0  0  0  0  0  0  0  0  0
   -0.1639   -1.2736   -0.8447 O   0  0  0  0  0  0  0  0  0  0  0  0
   -2.3061    0.8564    1.1739 O   0  0  0  0  0  0  0  0  0  0  0  0
    2.1565   -0.5099    1.7158 O   0  0  0  0  0  0  0  0  0  0  0  0
   -4.2251   -0.3996   -0.3553 O   0  0  0  0  0  0  0  0  0  0  0  0
    2.8428   -1.8481   -0.4800 O   0  0  0  0  0  0  0  0  0  0  0  0
   -0.4791   -0.3916    0.2380 C   0  0  1  0  0  0  0  0  0  0  0  0
    0.5998    0.6989    0.3581 C   0  0  1  0  0  0  0  0  0  0  0  0
   -1.9100    0.1172    0.0094 C   0  0  1  0  0  0  0  0  0  0  0  0
    2.0530    0.2271    0.5022 C   0  0  2  0  0  0  0  0  0  0  0  0
   -2.9393   -0.9906   -0.1871 C   0  0  0  0  0  0  0  0  0  0  0  0
    2.5201   -0.6727   -0.6234 C   0  0  0  0  0  0  0  0  0  0  0  0
    1.3724    2.6418   -0.7149 C   0  0  0  0  0  0  0  0  0  0  0  0
   -0.4544   -0.9965    1.1526 H   0  0  0  0  0  0  0  0  0  0  0  0
    0.3438    1.2941    1.2458 H   0  0  0  0  0  0  0  0  0  0  0  0
   -1.9583    0.8030   -0.8434 H   0  0  0  0  0  0  0  0  0  0  0  0
    2.7640    1.0536    0.5796 H   0  0  0  0  0  0  0  0  0  0  0  0
   -2.9945   -1.6413    0.6913 H   0  0  0  0  0  0  0  0  0  0  0  0
   -2.7249   -1.6039   -1.0672 H   0  0  0  0  0  0  0  0  0  0  0  0
   -0.1743   -0.7477   -1.6629 H   0  0  0  0  0  0  0  0  0  0  0  0
    2.5704   -0.1979   -1.6184 H   0  0  0  0  0  0  0  0  0  0  0  0
   -2.2750    0.2533    1.9363 H   0  0  0  0  0  0  0  0  0  0  0  0
    3.0983   -0.7031    1.8630 H   0  0  0  0  0  0  0  0  0  0  0  0
    2.3693    2.3655   -1.0696 H   0  0  0  0  0  0  0  0  0  0  0  0
    1.4147    3.0764    0.2893 H   0  0  0  0  0  0  0  0  0  0  0  0
    1.0016    3.4159   -1.3940 H   0  0  0  0  0  0  0  0  0  0  0  0
   -4.1900    0.1550   -1.1532 H   0  0  0  0  0  0  0  0  0  0  0  0
  1  8  1  0  0  0  0
  1 13  1  0  0  0  0
  2  7  1  0  0  0  0
  2 20  1  0  0  0  0
  3  9  1  0  0  0  0
  3 22  1  0  0  0  0
  4 10  1  0  0  0  0
  4 23  1  0  0  0  0
  5 11  1  0  0  0  0
  5 27  1  0  0  0  0
  6 12  2  0  0  0  0
  7  8  1  0  0  0  0
  7  9  1  0  0  0  0
  7 14  1  0  0  0  0
  8 10  1  0  0  0  0
  8 15  1  0  0  0  0
  9 11  1  0  0  0  0
  9 16  1  0  0  0  0
 10 12  1  0  0  0  0
 10 17  1  0  0  0  0
 11 18  1  0  0  0  0
 11 19  1  0  0  0  0
 12 21  1  0  0  0  0
 13 24  1  0  0  0  0
 13 25  1  0  0  0  0
 13 26  1  0  0  0  0
M  END
> <PUBCHEM_COMPOUND_CID>
8973

> <PUBCHEM_CONFORMER_RMSD>
0.6

> <PUBCHEM_CONFORMER_DIVERSEORDER>
1
5
10
11
9
29
20
26
27
7
2
14
6
3
23
8
4
13
25
31
24
17
28
21
16
18
22
12
19
30
15

> <PUBCHEM_MMFF94_PARTIAL_CHARGES>
18
1 -0.56
10 0.34
11 0.28
12 0.45
13 0.28
2 -0.68
20 0.4
21 0.06
22 0.4
23 0.4
27 0.4
3 -0.68
4 -0.68
5 -0.68
6 -0.57
7 0.28
8 0.28
9 0.28

> <PUBCHEM_EFFECTIVE_ROTOR_COUNT>
6

> <PUBCHEM_PHARMACOPHORE_FEATURES>
10
1 1 acceptor
1 2 acceptor
1 2 donor
1 3 acceptor
1 3 donor
1 4 acceptor
1 4 donor
1 5 acceptor
1 5 donor
1 6 acceptor

> <PUBCHEM_HEAVY_ATOM_COUNT>
13

> <PUBCHEM_ATOM_DEF_STEREO_COUNT>
4

> <PUBCHEM_ATOM_UDEF_STEREO_COUNT>
0

> <PUBCHEM_BOND_DEF_STEREO_COUNT>
0

> <PUBCHEM_BOND_UDEF_STEREO_COUNT>
0

> <PUBCHEM_ISOTOPIC_ATOM_COUNT>
0

> <PUBCHEM_COMPONENT_COUNT>
1

> <PUBCHEM_CACTVS_TAUTO_COUNT>
4

> <PUBCHEM_CONFORMER_ID>
0000230D00000001

> <PUBCHEM_MMFF94_ENERGY>
30.9555

> <PUBCHEM_FEATURE_SELFOVERLAP>
50.765

> <PUBCHEM_SHAPE_FINGERPRINT>
10219947 1 18408882949269034079
11769659 78 18040438819078475647
12326174 3 18059300842516521496
12932741 1 17274252843050848897
12932764 1 17418100884350920819
13380536 305 18341608166334681358
14344429 50 17988931032870262044
14993402 34 18410848858942867182
15219459 52 18337665326195730278
15477762 27 18410573950923828623
161256 15 18202005399934028308
16945 1 18271799112219607544
17041 50 18271811245734425077
170605 34 17913490138369314541
18186145 218 17988369187372314759
20339313 130 18413383220449743945
20559304 39 18187926119122296945
20645477 70 18270967821922270759
20653091 64 18270398291551256032
20711985 327 18272099300754059360
20711985 344 17912644906301634136
207724 885 18339347664890750747
20871998 22 18340494460214395490
21524375 3 17408523940135744524
23552423 10 18337389323128810351
3248919 1 18335984169043893083
5084963 1 18333447642783789051
528862 383 18199191685106028388
7364860 26 18263642866451419376
74978 22 18272083864588784875
81539 233 17914896422552831540

> <PUBCHEM_SHAPE_MULTIPOLES>
232.32
5.11
1.91
1.07
4.53
1.03
-0.32
-1.65
0.23
-1.47
0.61
-0.38
-0.02
-0.34

> <PUBCHEM_SHAPE_SELFOVERLAP>
442.643

> <PUBCHEM_SHAPE_VOLUME>
141.8

> <PUBCHEM_COORDINATE_TYPE>
2
5
10

$$$$

