17395263
  -OEChem-06241222492D

 41 42  0     1  0  0  0  0  0999 V2000
    4.4487   -0.6791    0.0000 S   0  0  0  0  0  0  0  0  0  0  0  0
    5.3147    3.8209    0.0000 O   0  0  0  0  0  0  0  0  0  0  0  0
    6.1808    0.3209    0.0000 O   0  0  0  0  0  0  0  0  0  0  0  0
    5.3147    1.8209    0.0000 N   0  0  0  0  0  0  0  0  0  0  0  0
    3.4782   -2.1736    0.0000 N   0  0  0  0  0  0  0  0  0  0  0  0
    2.5000   -2.3815    0.0000 N   0  0  0  0  0  0  0  0  0  0  0  0
    2.6691   -0.7724    0.0000 N   0  0  0  0  0  0  0  0  0  0  0  0
    2.0000   -1.5155    0.0000 N   0  0  0  0  0  0  0  0  0  0  0  0
    6.1808    3.3209    0.0000 C   0  0  3  0  0  0  0  0  0  0  0  0
    4.4487    3.3209    0.0000 C   0  0  3  0  0  0  0  0  0  0  0  0
    6.1808    2.3209    0.0000 C   0  0  0  0  0  0  0  0  0  0  0  0
    4.4487    2.3209    0.0000 C   0  0  0  0  0  0  0  0  0  0  0  0
    7.0468    3.8209    0.0000 C   0  0  0  0  0  0  0  0  0  0  0  0
    3.5827    3.8209    0.0000 C   0  0  0  0  0  0  0  0  0  0  0  0
    5.3147    0.8209    0.0000 C   0  0  0  0  0  0  0  0  0  0  0  0
    4.4487    0.3209    0.0000 C   0  0  0  0  0  0  0  0  0  0  0  0
    4.2213   -2.8428    0.0000 C   0  0  0  0  0  0  0  0  0  0  0  0
    3.5827   -1.1791    0.0000 C   0  0  0  0  0  0  0  0  0  0  0  0
    4.0134   -3.8209    0.0000 C   0  0  0  0  0  0  0  0  0  0  0  0
    5.1724   -2.5337    0.0000 C   0  0  0  0  0  0  0  0  0  0  0  0
    4.4487    3.9409    0.0000 H   0  0  0  0  0  0  0  0  0  0  0  0
    6.1808    3.9409    0.0000 H   0  0  0  0  0  0  0  0  0  0  0  0
    3.8381    2.4286    0.0000 H   0  0  0  0  0  0  0  0  0  0  0  0
    4.2366    1.7383    0.0000 H   0  0  0  0  0  0  0  0  0  0  0  0
    6.3928    1.7383    0.0000 H   0  0  0  0  0  0  0  0  0  0  0  0
    6.7913    2.4286    0.0000 H   0  0  0  0  0  0  0  0  0  0  0  0
    3.8927    4.3578    0.0000 H   0  0  0  0  0  0  0  0  0  0  0  0
    7.3568    3.2840    0.0000 H   0  0  0  0  0  0  0  0  0  0  0  0
    7.5837    4.1309    0.0000 H   0  0  0  0  0  0  0  0  0  0  0  0
    6.7368    4.3578    0.0000 H   0  0  0  0  0  0  0  0  0  0  0  0
    3.0457    4.1309    0.0000 H   0  0  0  0  0  0  0  0  0  0  0  0
    3.2727    3.2840    0.0000 H   0  0  0  0  0  0  0  0  0  0  0  0
    4.2366    0.9035    0.0000 H   0  0  0  0  0  0  0  0  0  0  0  0
    3.8381    0.2132    0.0000 H   0  0  0  0  0  0  0  0  0  0  0  0
    4.6820   -3.2576    0.0000 H   0  0  0  0  0  0  0  0  0  0  0  0
    5.3639   -3.1234    0.0000 H   0  0  0  0  0  0  0  0  0  0  0  0
    5.7620   -2.3421    0.0000 H   0  0  0  0  0  0  0  0  0  0  0  0
    3.4069   -3.6920    0.0000 H   0  0  0  0  0  0  0  0  0  0  0  0
    3.8845   -4.4274    0.0000 H   0  0  0  0  0  0  0  0  0  0  0  0
    4.6198   -3.9498    0.0000 H   0  0  0  0  0  0  0  0  0  0  0  0
    4.9808   -1.9441    0.0000 H   0  0  0  0  0  0  0  0  0  0  0  0
  1 16  1  0  0  0  0
  1 18  1  0  0  0  0
  2  9  1  0  0  0  0
  2 10  1  0  0  0  0
  3 15  2  0  0  0  0
  4 11  1  0  0  0  0
  4 12  1  0  0  0  0
  4 15  1  0  0  0  0
  5  6  1  0  0  0  0
  5 17  1  0  0  0  0
  5 18  1  0  0  0  0
  6  8  2  0  0  0  0
  7  8  1  0  0  0  0
  7 18  2  0  0  0  0
  9 11  1  0  0  0  0
  9 13  1  0  0  0  0
  9 22  1  0  0  0  0
 10 12  1  0  0  0  0
 10 14  1  0  0  0  0
 10 21  1  0  0  0  0
 11 25  1  0  0  0  0
 11 26  1  0  0  0  0
 12 23  1  0  0  0  0
 12 24  1  0  0  0  0
 13 28  1  0  0  0  0
 13 29  1  0  0  0  0
 13 30  1  0  0  0  0
 14 27  1  0  0  0  0
 14 31  1  0  0  0  0
 14 32  1  0  0  0  0
 15 16  1  0  0  0  0
 16 33  1  0  0  0  0
 16 34  1  0  0  0  0
 17 19  1  0  0  0  0
 17 20  1  0  0  0  0
 17 35  1  0  0  0  0
 19 38  1  0  0  0  0
 19 39  1  0  0  0  0
 19 40  1  0  0  0  0
 20 36  1  0  0  0  0
 20 37  1  0  0  0  0
 20 41  1  0  0  0  0
M  END
> <PUBCHEM_COMPOUND_CID>
17395263

> <PUBCHEM_COMPOUND_CANONICALIZED>
1

> <PUBCHEM_CACTVS_COMPLEXITY>
334

> <PUBCHEM_CACTVS_HBOND_ACCEPTOR>
6

> <PUBCHEM_CACTVS_HBOND_DONOR>
0

> <PUBCHEM_CACTVS_ROTATABLE_BOND>
4

> <PUBCHEM_CACTVS_SUBSKEYS>
AAADceBzsABAAAAAAAAAAAAAAAAAAWAAAAAsAAAAAAAAAAABgAAAHgQIAAAACDzlwAaDEAcIBAgqAAEQNAAAEANAgJAVQAAIAACCAAAACAAHAAAABgKQAAAAAAAAAAAAAAAAAAAAAAAAAAAAAAAAAAAAAA==

> <PUBCHEM_IUPAC_OPENEYE_NAME>
1-(2,6-dimethylmorpholin-4-yl)-2-(1-isopropyltetrazol-5-yl)sulfanyl-ethanone

> <PUBCHEM_IUPAC_CAS_NAME>
1-(2,6-dimethyl-4-morpholinyl)-2-[(1-propan-2-yl-5-tetrazolyl)thio]ethanone

> <PUBCHEM_IUPAC_NAME>
1-(2,6-dimethylmorpholin-4-yl)-2-(1-propan-2-yltetrazol-5-yl)sulfanylethanone

> <PUBCHEM_IUPAC_SYSTEMATIC_NAME>
1-(2,6-dimethylmorpholin-4-yl)-2-[(1-propan-2-yl-1,2,3,4-tetrazol-5-yl)sulfanyl]ethanone

> <PUBCHEM_IUPAC_TRADITIONAL_NAME>
1-(2,6-dimethylmorpholino)-2-[(1-isopropyltetrazol-5-yl)thio]ethanone

> <PUBCHEM_IUPAC_INCHI>
InChI=1S/C12H21N5O2S/c1-8(2)17-12(13-14-15-17)20-7-11(18)16-5-9(3)19-10(4)6-16/h8-10H,5-7H2,1-4H3

> <PUBCHEM_IUPAC_INCHIKEY>
TWBOUKSBVNKKKF-UHFFFAOYSA-N

> <PUBCHEM_XLOGP3_AA>
1.1

> <PUBCHEM_EXACT_MASS>
299.141596

> <PUBCHEM_MOLECULAR_FORMULA>
C12H21N5O2S

> <PUBCHEM_MOLECULAR_WEIGHT>
299.39244

> <PUBCHEM_OPENEYE_CAN_SMILES>
CC1CN(CC(O1)C)C(=O)CSC2=NN=NN2C(C)C

> <PUBCHEM_OPENEYE_ISO_SMILES>
CC1CN(CC(O1)C)C(=O)CSC2=NN=NN2C(C)C

> <PUBCHEM_CACTVS_TPSA>
98.4

> <PUBCHEM_MONOISOTOPIC_WEIGHT>
299.141596

> <PUBCHEM_TOTAL_CHARGE>
0

> <PUBCHEM_HEAVY_ATOM_COUNT>
20

> <PUBCHEM_ATOM_DEF_STEREO_COUNT>
0

> <PUBCHEM_ATOM_UDEF_STEREO_COUNT>
2

> <PUBCHEM_BOND_DEF_STEREO_COUNT>
0

> <PUBCHEM_BOND_UDEF_STEREO_COUNT>
0

> <PUBCHEM_ISOTOPIC_ATOM_COUNT>
0

> <PUBCHEM_COMPONENT_COUNT>
1

> <PUBCHEM_CACTVS_TAUTO_COUNT>
1

> <PUBCHEM_COORDINATE_TYPE>
1
5
255

> <PUBCHEM_BONDANNOTATIONS>
10  14  3
5  18  8
5  6  8
6  8  8
7  18  8
7  8  8
9  13  3

$$$$

