6068
  -OEChem-06261201053D

 31 32  0     1  0  0  0  0  0999 V2000
   -0.4844   -2.6020    0.7518 O   0  0  0  0  0  0  0  0  0  0  0  0
   -3.5967    0.2295   -1.0992 O   0  0  0  0  0  0  0  0  0  0  0  0
   -2.2264   -1.4353   -0.2394 N   0  0  0  0  0  0  0  0  0  0  0  0
   -0.4168   -0.1596    0.5473 C   0  0  1  0  0  0  0  0  0  0  0  0
   -1.3060    0.6946   -0.4086 C   0  0  2  0  0  0  0  0  0  0  0  0
   -1.6617    2.0971    0.0634 C   0  0  0  0  0  0  0  0  0  0  0  0
   -1.0008   -1.5609    0.3695 C   0  0  0  0  0  0  0  0  0  0  0  0
    1.0508   -0.0963    0.1168 C   0  0  0  0  0  0  0  0  0  0  0  0
   -2.5392   -0.1553   -0.6229 C   0  0  0  0  0  0  0  0  0  0  0  0
   -0.6529    0.1691    2.0390 C   0  0  0  0  0  0  0  0  0  0  0  0
   -0.4229    2.9563    0.2456 C   0  0  0  0  0  0  0  0  0  0  0  0
    1.4024   -0.4072   -1.1944 C   0  0  0  0  0  0  0  0  0  0  0  0
    2.0281    0.2716    1.0382 C   0  0  0  0  0  0  0  0  0  0  0  0
    2.7398   -0.3496   -1.5865 C   0  0  0  0  0  0  0  0  0  0  0  0
    3.3654    0.3293    0.6460 C   0  0  0  0  0  0  0  0  0  0  0  0
    3.7213    0.0187   -0.6664 C   0  0  0  0  0  0  0  0  0  0  0  0
   -0.8635    0.7895   -1.4083 H   0  0  0  0  0  0  0  0  0  0  0  0
   -2.2471    2.0760    0.9896 H   0  0  0  0  0  0  0  0  0  0  0  0
   -2.3095    2.5758   -0.6823 H   0  0  0  0  0  0  0  0  0  0  0  0
   -0.1543   -0.5641    2.6867 H   0  0  0  0  0  0  0  0  0  0  0  0
   -0.3103    1.1568    2.3505 H   0  0  0  0  0  0  0  0  0  0  0  0
   -1.7196    0.1069    2.2904 H   0  0  0  0  0  0  0  0  0  0  0  0
   -2.8540   -2.2198   -0.3769 H   0  0  0  0  0  0  0  0  0  0  0  0
    0.2312    2.6367    1.0551 H   0  0  0  0  0  0  0  0  0  0  0  0
    0.1683    2.9866   -0.6760 H   0  0  0  0  0  0  0  0  0  0  0  0
   -0.7244    3.9851    0.4714 H   0  0  0  0  0  0  0  0  0  0  0  0
    0.6622   -0.7203   -1.9252 H   0  0  0  0  0  0  0  0  0  0  0  0
    1.8074    0.5210    2.0698 H   0  0  0  0  0  0  0  0  0  0  0  0
    3.0178   -0.5970   -2.6069 H   0  0  0  0  0  0  0  0  0  0  0  0
    4.1304    0.6153    1.3621 H   0  0  0  0  0  0  0  0  0  0  0  0
    4.7628    0.0622   -0.9715 H   0  0  0  0  0  0  0  0  0  0  0  0
  1  7  2  0  0  0  0
  2  9  2  0  0  0  0
  3  7  1  0  0  0  0
  3  9  1  0  0  0  0
  3 23  1  0  0  0  0
  4  5  1  0  0  0  0
  4  7  1  0  0  0  0
  4  8  1  0  0  0  0
  4 10  1  0  0  0  0
  5  6  1  0  0  0  0
  5  9  1  0  0  0  0
  5 17  1  0  0  0  0
  6 11  1  0  0  0  0
  6 18  1  0  0  0  0
  6 19  1  0  0  0  0
  8 12  2  0  0  0  0
  8 13  1  0  0  0  0
 10 20  1  0  0  0  0
 10 21  1  0  0  0  0
 10 22  1  0  0  0  0
 11 24  1  0  0  0  0
 11 25  1  0  0  0  0
 11 26  1  0  0  0  0
 12 14  1  0  0  0  0
 12 27  1  0  0  0  0
 13 15  2  0  0  0  0
 13 28  1  0  0  0  0
 14 16  2  0  0  0  0
 14 29  1  0  0  0  0
 15 16  1  0  0  0  0
 15 30  1  0  0  0  0
 16 31  1  0  0  0  0
M  END
> <PUBCHEM_COMPOUND_CID>
6068

> <PUBCHEM_CONFORMER_RMSD>
0.6

> <PUBCHEM_CONFORMER_DIVERSEORDER>
1
11
6
7
5
9
3
2
4
8
10

> <PUBCHEM_MMFF94_PARTIAL_CHARGES>
19
1 -0.57
12 -0.15
13 -0.15
14 -0.15
15 -0.15
16 -0.15
2 -0.57
23 0.37
27 0.15
28 0.15
29 0.15
3 -0.49
30 0.15
31 0.15
4 0.2
5 0.06
7 0.57
8 -0.14
9 0.57

> <PUBCHEM_EFFECTIVE_ROTOR_COUNT>
2.6

> <PUBCHEM_PHARMACOPHORE_FEATURES>
6
1 1 acceptor
1 11 hydrophobe
1 2 acceptor
1 3 donor
5 3 4 5 7 9 rings
6 8 12 13 14 15 16 rings

> <PUBCHEM_HEAVY_ATOM_COUNT>
16

> <PUBCHEM_ATOM_DEF_STEREO_COUNT>
0

> <PUBCHEM_ATOM_UDEF_STEREO_COUNT>
2

> <PUBCHEM_BOND_DEF_STEREO_COUNT>
0

> <PUBCHEM_BOND_UDEF_STEREO_COUNT>
0

> <PUBCHEM_ISOTOPIC_ATOM_COUNT>
0

> <PUBCHEM_COMPONENT_COUNT>
1

> <PUBCHEM_CACTVS_TAUTO_COUNT>
5

> <PUBCHEM_CONFORMER_ID>
000017B400000001

> <PUBCHEM_MMFF94_ENERGY>
47.2912

> <PUBCHEM_FEATURE_SELFOVERLAP>
30.446

> <PUBCHEM_SHAPE_FINGERPRINT>
11640471 11 17418368091335517748
12423570 1 10910066802931224561
12491281 212 18130502045745158568
13024252 1 17417800721633791323
13299463 15 17895473725667532596
14713566 1 18060142024313594490
14817 1 6449113782701307849
15490181 7 17759512657515356529
15775835 57 18192142917860548344
15852999 172 18410291419617681142
15906896 17 17060048199541163139
16945 1 18410576184238049307
17134986 127 17547005685765638268
18186145 218 18261114092723004457
18534176 82 18410568453481708190
187816 3 18412549807773385727
19837323 101 18198041767652389320
19868273 293 17846499222877008134
19868273 325 18339916022392880252
20201158 50 17822011995214871494
20344682 1 17749965370402104860
20645476 183 17561083587813154699
21501502 16 18118403075622320662
21524375 3 17621586650399279872
22802520 49 18115018731355205884
23402539 116 18336563662852584164
23419403 2 17535478019423358459
23557571 272 18267296526721548412
23559900 14 18410300194804870826
2748010 2 18049728420890656689
305870 269 17911238639387670512
353137 74 18339086011541714333
465052 167 6410434897110137325
77492 1 17346608469000883058
81228 2 18335128825911645736

> <PUBCHEM_SHAPE_MULTIPOLES>
312.55
4.92
2.11
1.41
2.47
0.81
0.23
-0.03
-1.7
-1.38
0.32
0.27
-0.12
0.31

> <PUBCHEM_SHAPE_SELFOVERLAP>
668.499

> <PUBCHEM_SHAPE_VOLUME>
174.8

> <PUBCHEM_COORDINATE_TYPE>
2
5
10

$$$$

