4153
  -OEChem-06251223553D

 39 40  0     1  0  0  0  0  0999 V2000
    3.4624   -0.8615    0.6343 S   0  0  0  0  0  0  0  0  0  0  0  0
    4.8577   -1.0283    0.2698 O   0  0  0  0  0  0  0  0  0  0  0  0
    3.0416   -1.1664    1.9896 O   0  0  0  0  0  0  0  0  0  0  0  0
   -5.9683   -0.7329    0.3562 O   0  0  0  0  0  0  0  0  0  0  0  0
   -7.1440    1.6803    0.0003 O   0  0  0  0  0  0  0  0  0  0  0  0
    2.4476   -1.7154   -0.4956 N   0  0  1  0  0  0  0  0  0  0  0  0
   -5.7594    1.5145   -0.1423 N   0  0  0  0  0  0  0  0  0  0  0  0
    1.0382   -1.5346   -0.3561 C   0  0  0  0  0  0  0  0  0  0  0  0
    3.0483    0.8354    0.3327 C   0  0  0  0  0  0  0  0  0  0  0  0
    2.9789   -1.8567   -1.8875 C   0  0  0  0  0  0  0  0  0  0  0  0
    0.4146   -0.4345   -0.9449 C   0  0  0  0  0  0  0  0  0  0  0  0
    0.2848   -2.4582    0.3686 C   0  0  0  0  0  0  0  0  0  0  0  0
    2.0189    1.4128    1.0514 C   0  0  0  0  0  0  0  0  0  0  0  0
    3.7640    1.5426   -0.6146 C   0  0  0  0  0  0  0  0  0  0  0  0
   -1.7157   -1.1813   -0.0843 C   0  0  0  0  0  0  0  0  0  0  0  0
   -0.9623   -0.2578   -0.8089 C   0  0  0  0  0  0  0  0  0  0  0  0
   -1.0922   -2.2815    0.5045 C   0  0  0  0  0  0  0  0  0  0  0  0
    1.6927    2.7479    0.8137 C   0  0  0  0  0  0  0  0  0  0  0  0
    3.4377    2.8778   -0.8521 C   0  0  0  0  0  0  0  0  0  0  0  0
    2.4020    3.4805   -0.1380 C   0  0  0  0  0  0  0  0  0  0  0  0
   -3.1517   -0.9974    0.0567 C   0  0  0  0  0  0  0  0  0  0  0  0
   -3.8097    0.1707   -0.1172 C   0  0  0  0  0  0  0  0  0  0  0  0
   -5.2861    0.2438    0.0638 C   0  0  0  0  0  0  0  0  0  0  0  0
    3.9643   -2.3306   -1.8631 H   0  0  0  0  0  0  0  0  0  0  0  0
    3.0501   -0.8842   -2.3816 H   0  0  0  0  0  0  0  0  0  0  0  0
    2.3211   -2.5055   -2.4754 H   0  0  0  0  0  0  0  0  0  0  0  0
    0.9729    0.2793   -1.5439 H   0  0  0  0  0  0  0  0  0  0  0  0
    0.7616   -3.3184    0.8314 H   0  0  0  0  0  0  0  0  0  0  0  0
    1.4546    0.8608    1.7965 H   0  0  0  0  0  0  0  0  0  0  0  0
    4.5681    1.0889   -1.1852 H   0  0  0  0  0  0  0  0  0  0  0  0
   -1.4076    0.5987   -1.3067 H   0  0  0  0  0  0  0  0  0  0  0  0
   -1.6627   -3.0111    1.0742 H   0  0  0  0  0  0  0  0  0  0  0  0
    0.8857    3.2169    1.3689 H   0  0  0  0  0  0  0  0  0  0  0  0
    3.9886    3.4478   -1.5945 H   0  0  0  0  0  0  0  0  0  0  0  0
    2.1474    4.5198   -0.3236 H   0  0  0  0  0  0  0  0  0  0  0  0
   -3.7107   -1.8882    0.3353 H   0  0  0  0  0  0  0  0  0  0  0  0
   -3.2998    1.0943   -0.3683 H   0  0  0  0  0  0  0  0  0  0  0  0
   -5.2330    2.3175   -0.4674 H   0  0  0  0  0  0  0  0  0  0  0  0
   -7.1847    2.0035    0.9164 H   0  0  0  0  0  0  0  0  0  0  0  0
  1  2  2  0  0  0  0
  1  3  2  0  0  0  0
  1  6  1  0  0  0  0
  1  9  1  0  0  0  0
  4 23  2  0  0  0  0
  5  7  1  0  0  0  0
  5 39  1  0  0  0  0
  6  8  1  0  0  0  0
  6 10  1  0  0  0  0
  7 23  1  0  0  0  0
  7 38  1  0  0  0  0
  8 11  2  0  0  0  0
  8 12  1  0  0  0  0
  9 13  2  0  0  0  0
  9 14  1  0  0  0  0
 10 24  1  0  0  0  0
 10 25  1  0  0  0  0
 10 26  1  0  0  0  0
 11 16  1  0  0  0  0
 11 27  1  0  0  0  0
 12 17  2  0  0  0  0
 12 28  1  0  0  0  0
 13 18  1  0  0  0  0
 13 29  1  0  0  0  0
 14 19  2  0  0  0  0
 14 30  1  0  0  0  0
 15 16  2  0  0  0  0
 15 17  1  0  0  0  0
 15 21  1  0  0  0  0
 16 31  1  0  0  0  0
 17 32  1  0  0  0  0
 18 20  2  0  0  0  0
 18 33  1  0  0  0  0
 19 20  1  0  0  0  0
 19 34  1  0  0  0  0
 20 35  1  0  0  0  0
 21 22  2  0  0  0  0
 21 36  1  0  0  0  0
 22 23  1  0  0  0  0
 22 37  1  0  0  0  0
M  END
> <PUBCHEM_COMPOUND_CID>
4153

> <PUBCHEM_CONFORMER_RMSD>
0.8

> <PUBCHEM_CONFORMER_DIVERSEORDER>
3
9
7
8
18
1
17
11
19
10
13
12
5
4
2
14
6
16
15

> <PUBCHEM_MMFF94_PARTIAL_CHARGES>
36
1 1.45
10 0.36
11 -0.15
12 -0.15
13 -0.15
14 -0.15
15 0.03
16 -0.15
17 -0.15
18 -0.15
19 -0.15
2 -0.65
20 -0.15
21 -0.18
22 -0.14
23 0.62
27 0.15
28 0.15
29 0.15
3 -0.65
30 0.15
31 0.15
32 0.15
33 0.15
34 0.15
35 0.15
36 0.15
37 0.15
38 0.37
39 0.4
4 -0.57
5 -0.44
6 -0.69
7 -0.39
8 0.2
9 -0.01

> <PUBCHEM_EFFECTIVE_ROTOR_COUNT>
6

> <PUBCHEM_PHARMACOPHORE_FEATURES>
6
1 2 acceptor
1 3 acceptor
1 4 acceptor
1 7 donor
6 8 11 12 15 16 17 rings
6 9 13 14 18 19 20 rings

> <PUBCHEM_HEAVY_ATOM_COUNT>
23

> <PUBCHEM_ATOM_DEF_STEREO_COUNT>
0

> <PUBCHEM_ATOM_UDEF_STEREO_COUNT>
0

> <PUBCHEM_BOND_DEF_STEREO_COUNT>
0

> <PUBCHEM_BOND_UDEF_STEREO_COUNT>
1

> <PUBCHEM_ISOTOPIC_ATOM_COUNT>
0

> <PUBCHEM_COMPONENT_COUNT>
1

> <PUBCHEM_CACTVS_TAUTO_COUNT>
3

> <PUBCHEM_CONFORMER_ID>
0000103900000003

> <PUBCHEM_MMFF94_ENERGY>
64.4508

> <PUBCHEM_FEATURE_SELFOVERLAP>
30.465

> <PUBCHEM_SHAPE_FINGERPRINT>
10411042 1 17906452482547757158
11089746 13 18340775913969821655
11578080 2 15912181129182388288
11595378 159 16056609784961033653
12596602 18 14476661041201482245
12617007 42 18260820540794298862
12633257 1 18057906683226148474
12769317 202 18408329882410121565
12788726 201 18040422291907710417
13140716 1 18272090444146840635
13583140 156 18059849558943361771
13878862 14 18198084584851569117
13944108 23 18409441496771259653
14251764 38 18339362951301797283
14251764 75 18051401869136341009
14848178 96 18410294684024694037
15238133 3 18412266095588387528
15848702 68 18413113836032701456
17810953 82 18409732845972079721
17844677 252 18409440393765575827
17868525 174 18199482110789127560
17980427 23 17971504856487522090
20715895 44 18408889563877418273
21033650 10 14563347620003519091
21315763 129 18410295826580621959
21475661 188 18412546492164147529
21860390 5 18259981574261191828
22289505 5 18260261971216869980
23557571 272 5400809336488538403
23558518 356 17839745859293038282
23559900 14 18040994068029350639
3052486 1 18122902298889201472
335352 9 18410575089506854726
338550 245 18263916808240583841
3411729 13 18341892927462793260
350125 39 18341895207673722116
3680242 22 18340487880229546531
474 4 18407759222837293339
495365 180 17604717646979608320
5104073 3 18202275901986261515
5939293 188 18336834096038147216
633830 44 18410579470284183143
7808743 9 17982166721399012740
8272917 22 18335698317273818902
8509985 295 18342184392279915130
9999458 23 18202285797010980370

> <PUBCHEM_SHAPE_MULTIPOLES>
443.74
11.95
3.45
1.17
25.18
2.04
0.01
6
-0.22
-2.88
0.11
-1.26
-0.34
0.07

> <PUBCHEM_SHAPE_SELFOVERLAP>
925.56

> <PUBCHEM_SHAPE_VOLUME>
251.5

> <PUBCHEM_COORDINATE_TYPE>
2
5
10

$$$$

