10887
  -OEChem-06261205053D

 52 51  0     0  0  0  0  0  0999 V2000
   -0.0249    1.3932   -0.0355 O   0  0  0  0  0  0  0  0  0  0  0  0
    3.8314   -0.5871   -0.0732 C   0  0  0  0  0  0  0  0  0  0  0  0
   -3.8383   -0.5583   -0.0147 C   0  0  0  0  0  0  0  0  0  0  0  0
    5.1054    0.2639   -0.0670 C   0  0  0  0  0  0  0  0  0  0  0  0
   -5.1003    0.3106    0.0147 C   0  0  0  0  0  0  0  0  0  0  0  0
    2.5448    0.2438   -0.0316 C   0  0  0  0  0  0  0  0  0  0  0  0
   -2.5414    0.2549    0.0462 C   0  0  0  0  0  0  0  0  0  0  0  0
    6.4273   -0.5096   -0.0515 C   0  0  0  0  0  0  0  0  0  0  0  0
   -6.3959   -0.5044   -0.0203 C   0  0  0  0  0  0  0  0  0  0  0  0
    1.2926   -0.6299    0.0475 C   0  0  0  0  0  0  0  0  0  0  0  0
   -1.2982   -0.6304    0.0283 C   0  0  0  0  0  0  0  0  0  0  0  0
   -0.0047    0.1633    0.0185 C   0  0  0  0  0  0  0  0  0  0  0  0
    7.6607    0.3928    0.0166 C   0  0  0  0  0  0  0  0  0  0  0  0
   -7.6581    0.3630    0.0213 C   0  0  0  0  0  0  0  0  0  0  0  0
    8.9487   -0.4312    0.0369 C   0  0  0  0  0  0  0  0  0  0  0  0
   -8.9534   -0.4498    0.0137 C   0  0  0  0  0  0  0  0  0  0  0  0
   10.1801    0.4602    0.0666 C   0  0  0  0  0  0  0  0  0  0  0  0
  -10.1758    0.4551   -0.0162 C   0  0  0  0  0  0  0  0  0  0  0  0
    3.8269   -1.2213   -0.9680 H   0  0  0  0  0  0  0  0  0  0  0  0
    3.8524   -1.2606    0.7925 H   0  0  0  0  0  0  0  0  0  0  0  0
   -3.8418   -1.1658   -0.9281 H   0  0  0  0  0  0  0  0  0  0  0  0
   -3.8640   -1.2567    0.8309 H   0  0  0  0  0  0  0  0  0  0  0  0
    5.0787    0.9221    0.8109 H   0  0  0  0  0  0  0  0  0  0  0  0
    5.0929    0.9218   -0.9454 H   0  0  0  0  0  0  0  0  0  0  0  0
   -5.0893    0.9290    0.9207 H   0  0  0  0  0  0  0  0  0  0  0  0
   -5.0835    0.9990   -0.8393 H   0  0  0  0  0  0  0  0  0  0  0  0
    2.4962    0.8808   -0.9235 H   0  0  0  0  0  0  0  0  0  0  0  0
    2.5704    0.9185    0.8332 H   0  0  0  0  0  0  0  0  0  0  0  0
   -2.5138    0.9482   -0.8038 H   0  0  0  0  0  0  0  0  0  0  0  0
   -2.5386    0.8721    0.9533 H   0  0  0  0  0  0  0  0  0  0  0  0
    6.4820   -1.1369   -0.9497 H   0  0  0  0  0  0  0  0  0  0  0  0
    6.4299   -1.1896    0.8095 H   0  0  0  0  0  0  0  0  0  0  0  0
   -6.4110   -1.1191   -0.9287 H   0  0  0  0  0  0  0  0  0  0  0  0
   -6.4082   -1.1962    0.8309 H   0  0  0  0  0  0  0  0  0  0  0  0
    1.2747   -1.3232   -0.8010 H   0  0  0  0  0  0  0  0  0  0  0  0
    1.3063   -1.2158    0.9731 H   0  0  0  0  0  0  0  0  0  0  0  0
   -1.2910   -1.2768    0.9128 H   0  0  0  0  0  0  0  0  0  0  0  0
   -1.3053   -1.2646   -0.8653 H   0  0  0  0  0  0  0  0  0  0  0  0
    7.6667    1.0675   -0.8480 H   0  0  0  0  0  0  0  0  0  0  0  0
    7.6093    1.0191    0.9154 H   0  0  0  0  0  0  0  0  0  0  0  0
   -7.6502    1.0416   -0.8409 H   0  0  0  0  0  0  0  0  0  0  0  0
   -7.6331    0.9927    0.9194 H   0  0  0  0  0  0  0  0  0  0  0  0
    8.9938   -1.0744   -0.8498 H   0  0  0  0  0  0  0  0  0  0  0  0
    8.9571   -1.0876    0.9148 H   0  0  0  0  0  0  0  0  0  0  0  0
   -8.9727   -1.1086   -0.8622 H   0  0  0  0  0  0  0  0  0  0  0  0
   -8.9951   -1.0895    0.9026 H   0  0  0  0  0  0  0  0  0  0  0  0
   10.1823    1.0962    0.9575 H   0  0  0  0  0  0  0  0  0  0  0  0
   11.0890   -0.1493    0.0819 H   0  0  0  0  0  0  0  0  0  0  0  0
   10.2187    1.1056   -0.8167 H   0  0  0  0  0  0  0  0  0  0  0  0
  -10.2008    1.1093    0.8611 H   0  0  0  0  0  0  0  0  0  0  0  0
  -11.0910   -0.1450   -0.0187 H   0  0  0  0  0  0  0  0  0  0  0  0
  -10.1784    1.0822   -0.9134 H   0  0  0  0  0  0  0  0  0  0  0  0
  1 12  2  0  0  0  0
  2  4  1  0  0  0  0
  2  6  1  0  0  0  0
  2 19  1  0  0  0  0
  2 20  1  0  0  0  0
  3  5  1  0  0  0  0
  3  7  1  0  0  0  0
  3 21  1  0  0  0  0
  3 22  1  0  0  0  0
  4  8  1  0  0  0  0
  4 23  1  0  0  0  0
  4 24  1  0  0  0  0
  5  9  1  0  0  0  0
  5 25  1  0  0  0  0
  5 26  1  0  0  0  0
  6 10  1  0  0  0  0
  6 27  1  0  0  0  0
  6 28  1  0  0  0  0
  7 11  1  0  0  0  0
  7 29  1  0  0  0  0
  7 30  1  0  0  0  0
  8 13  1  0  0  0  0
  8 31  1  0  0  0  0
  8 32  1  0  0  0  0
  9 14  1  0  0  0  0
  9 33  1  0  0  0  0
  9 34  1  0  0  0  0
 10 12  1  0  0  0  0
 10 35  1  0  0  0  0
 10 36  1  0  0  0  0
 11 12  1  0  0  0  0
 11 37  1  0  0  0  0
 11 38  1  0  0  0  0
 13 15  1  0  0  0  0
 13 39  1  0  0  0  0
 13 40  1  0  0  0  0
 14 16  1  0  0  0  0
 14 41  1  0  0  0  0
 14 42  1  0  0  0  0
 15 17  1  0  0  0  0
 15 43  1  0  0  0  0
 15 44  1  0  0  0  0
 16 18  1  0  0  0  0
 16 45  1  0  0  0  0
 16 46  1  0  0  0  0
 17 47  1  0  0  0  0
 17 48  1  0  0  0  0
 17 49  1  0  0  0  0
 18 50  1  0  0  0  0
 18 51  1  0  0  0  0
 18 52  1  0  0  0  0
M  END
> <PUBCHEM_COMPOUND_CID>
10887

> <PUBCHEM_CONFORMER_RMSD>
1.4

> <PUBCHEM_CONFORMER_DIVERSEORDER>
1
38
35
17
13
21
23
7
8
44
4
36
29
39
15
11
27
37
33
3
30
9
16
22
26
31
19
24
42
14
18
40
34
20
12
2
25
41
32
43
28
5
10
6

> <PUBCHEM_MMFF94_PARTIAL_CHARGES>
4
1 -0.57
10 0.06
11 0.06
12 0.45

> <PUBCHEM_EFFECTIVE_ROTOR_COUNT>
14

> <PUBCHEM_PHARMACOPHORE_FEATURES>
3
1 1 acceptor
1 17 hydrophobe
1 18 hydrophobe

> <PUBCHEM_HEAVY_ATOM_COUNT>
18

> <PUBCHEM_ATOM_DEF_STEREO_COUNT>
0

> <PUBCHEM_ATOM_UDEF_STEREO_COUNT>
0

> <PUBCHEM_BOND_DEF_STEREO_COUNT>
0

> <PUBCHEM_BOND_UDEF_STEREO_COUNT>
0

> <PUBCHEM_ISOTOPIC_ATOM_COUNT>
0

> <PUBCHEM_COMPONENT_COUNT>
1

> <PUBCHEM_CACTVS_TAUTO_COUNT>
2

> <PUBCHEM_CONFORMER_ID>
00002A8700000001

> <PUBCHEM_MMFF94_ENERGY>
-1.7099

> <PUBCHEM_FEATURE_SELFOVERLAP>
15.223

> <PUBCHEM_SHAPE_FINGERPRINT>
14123256 10 18273215300518489910
14251764 18 18113615703020780251
14251764 46 18411700984575287243
14251920 1 18410011043888288658
15510794 2 18410851066377404011
18335252 98 17917432055322197838
22224240 67 16732987522018550095
232437 2 18410575088963658758
23521765 1 18335420170664770735
23581129 1 18411981360035043395
33684 2 18202565081532907306
4325135 7 18272932725966822206
67123 10 18410011030908363287
8209 1 18409448085260517230

> <PUBCHEM_SHAPE_MULTIPOLES>
364.56
38.14
0.88
0.61
0.22
0.05
0
2.31
0.32
0
0
0.01
-0.01
0.02

> <PUBCHEM_SHAPE_SELFOVERLAP>
658.5

> <PUBCHEM_SHAPE_VOLUME>
234.1

> <PUBCHEM_COORDINATE_TYPE>
2
5
10

$$$$

