583356
  -OEChem-06241222452D

 42 44  0     0  0  0  0  0  0999 V2000
    8.0622    1.0000    0.0000 O   0  0  0  0  0  0  0  0  0  0  0  0
    9.7942   -2.0000    0.0000 O   0  0  0  0  0  0  0  0  0  0  0  0
    6.3301    0.0000    0.0000 N   0  0  0  0  0  0  0  0  0  0  0  0
    4.5981    1.0000    0.0000 N   0  0  0  0  0  0  0  0  0  0  0  0
    8.0622   -2.0000    0.0000 N   0  0  0  0  0  0  0  0  0  0  0  0
    8.9282   -0.5000    0.0000 N   0  0  0  0  0  0  0  0  0  0  0  0
    6.3301    1.0000    0.0000 C   0  0  0  0  0  0  0  0  0  0  0  0
    5.4641   -0.5000    0.0000 C   0  0  0  0  0  0  0  0  0  0  0  0
    4.5981    0.0000    0.0000 C   0  0  0  0  0  0  0  0  0  0  0  0
    5.4641    1.5000    0.0000 C   0  0  0  0  0  0  0  0  0  0  0  0
    7.1962   -0.5000    0.0000 C   0  0  0  0  0  0  0  0  0  0  0  0
    3.7320    1.5000    0.0000 C   0  0  0  0  0  0  0  0  0  0  0  0
    7.1962   -1.5000    0.0000 C   0  0  0  0  0  0  0  0  0  0  0  0
    8.0622    0.0000    0.0000 C   0  0  0  0  0  0  0  0  0  0  0  0
    6.3301   -2.0000    0.0000 C   0  0  0  0  0  0  0  0  0  0  0  0
    3.7320    2.5000    0.0000 C   0  0  0  0  0  0  0  0  0  0  0  0
    2.8660    1.0000    0.0000 C   0  0  0  0  0  0  0  0  0  0  0  0
    8.9282   -1.5000    0.0000 C   0  0  0  0  0  0  0  0  0  0  0  0
    6.3301   -3.0000    0.0000 C   0  0  0  0  0  0  0  0  0  0  0  0
    2.8660    3.0000    0.0000 C   0  0  0  0  0  0  0  0  0  0  0  0
    2.0000    1.5000    0.0000 C   0  0  0  0  0  0  0  0  0  0  0  0
    2.0000    2.5000    0.0000 C   0  0  0  0  0  0  0  0  0  0  0  0
    6.9407    0.8923    0.0000 H   0  0  0  0  0  0  0  0  0  0  0  0
    6.5422    1.5826    0.0000 H   0  0  0  0  0  0  0  0  0  0  0  0
    5.0656   -0.9749    0.0000 H   0  0  0  0  0  0  0  0  0  0  0  0
    5.8626   -0.9749    0.0000 H   0  0  0  0  0  0  0  0  0  0  0  0
    5.8626    1.9750    0.0000 H   0  0  0  0  0  0  0  0  0  0  0  0
    5.0656    1.9750    0.0000 H   0  0  0  0  0  0  0  0  0  0  0  0
    3.9875    0.1077    0.0000 H   0  0  0  0  0  0  0  0  0  0  0  0
    4.3860   -0.5826    0.0000 H   0  0  0  0  0  0  0  0  0  0  0  0
    6.1181   -1.4174    0.0000 H   0  0  0  0  0  0  0  0  0  0  0  0
    5.7196   -2.1077    0.0000 H   0  0  0  0  0  0  0  0  0  0  0  0
    8.0622   -2.6200    0.0000 H   0  0  0  0  0  0  0  0  0  0  0  0
    4.2690    2.8100    0.0000 H   0  0  0  0  0  0  0  0  0  0  0  0
    2.8660    0.3800    0.0000 H   0  0  0  0  0  0  0  0  0  0  0  0
    9.4651   -0.1900    0.0000 H   0  0  0  0  0  0  0  0  0  0  0  0
    5.7101   -3.0000    0.0000 H   0  0  0  0  0  0  0  0  0  0  0  0
    6.3301   -3.6200    0.0000 H   0  0  0  0  0  0  0  0  0  0  0  0
    6.9501   -3.0000    0.0000 H   0  0  0  0  0  0  0  0  0  0  0  0
    2.8660    3.6200    0.0000 H   0  0  0  0  0  0  0  0  0  0  0  0
    1.4631    1.1900    0.0000 H   0  0  0  0  0  0  0  0  0  0  0  0
    1.4631    2.8100    0.0000 H   0  0  0  0  0  0  0  0  0  0  0  0
  1 14  2  0  0  0  0
  2 18  2  0  0  0  0
  3  7  1  0  0  0  0
  3  8  1  0  0  0  0
  3 11  1  0  0  0  0
  4  9  1  0  0  0  0
  4 10  1  0  0  0  0
  4 12  1  0  0  0  0
  5 13  1  0  0  0  0
  5 18  1  0  0  0  0
  5 33  1  0  0  0  0
  6 14  1  0  0  0  0
  6 18  1  0  0  0  0
  6 36  1  0  0  0  0
  7 10  1  0  0  0  0
  7 23  1  0  0  0  0
  7 24  1  0  0  0  0
  8  9  1  0  0  0  0
  8 25  1  0  0  0  0
  8 26  1  0  0  0  0
  9 29  1  0  0  0  0
  9 30  1  0  0  0  0
 10 27  1  0  0  0  0
 10 28  1  0  0  0  0
 11 13  2  0  0  0  0
 11 14  1  0  0  0  0
 12 16  2  0  0  0  0
 12 17  1  0  0  0  0
 13 15  1  0  0  0  0
 15 19  1  0  0  0  0
 15 31  1  0  0  0  0
 15 32  1  0  0  0  0
 16 20  1  0  0  0  0
 16 34  1  0  0  0  0
 17 21  2  0  0  0  0
 17 35  1  0  0  0  0
 19 37  1  0  0  0  0
 19 38  1  0  0  0  0
 19 39  1  0  0  0  0
 20 22  2  0  0  0  0
 20 40  1  0  0  0  0
 21 22  1  0  0  0  0
 21 41  1  0  0  0  0
 22 42  1  0  0  0  0
M  END
> <PUBCHEM_COMPOUND_CID>
583356

> <PUBCHEM_COMPOUND_CANONICALIZED>
1

> <PUBCHEM_CACTVS_COMPLEXITY>
475

> <PUBCHEM_CACTVS_HBOND_ACCEPTOR>
4

> <PUBCHEM_CACTVS_HBOND_DONOR>
2

> <PUBCHEM_CACTVS_ROTATABLE_BOND>
3

> <PUBCHEM_CACTVS_SUBSKEYS>
AAADceB7sAAAAAAAAAAAAAAAAAAAAAAAAAA8QIAAAAAAAAABAAAAHgAQAAAACAjBkAQzwIPAAACIACVSUACCAAAhAgAIiACIZMiIYCLAkbGUIAholSLIyUcQAAAAAAAAAAAAAAAAAAAAAAAAAAAAAAAAAA==

> <PUBCHEM_IUPAC_OPENEYE_NAME>
6-ethyl-5-(4-phenylpiperazin-1-yl)-1H-pyrimidine-2,4-dione

> <PUBCHEM_IUPAC_CAS_NAME>
6-ethyl-5-(4-phenyl-1-piperazinyl)-1H-pyrimidine-2,4-dione

> <PUBCHEM_IUPAC_NAME>
6-ethyl-5-(4-phenylpiperazin-1-yl)-1H-pyrimidine-2,4-dione

> <PUBCHEM_IUPAC_SYSTEMATIC_NAME>
6-ethyl-5-(4-phenylpiperazin-1-yl)-1H-pyrimidine-2,4-dione

> <PUBCHEM_IUPAC_TRADITIONAL_NAME>
6-ethyl-5-(4-phenylpiperazino)uracil

> <PUBCHEM_IUPAC_INCHI>
InChI=1S/C16H20N4O2/c1-2-13-14(15(21)18-16(22)17-13)20-10-8-19(9-11-20)12-6-4-3-5-7-12/h3-7H,2,8-11H2,1H3,(H2,17,18,21,22)

> <PUBCHEM_IUPAC_INCHIKEY>
UMWJRLKRKLUGTG-UHFFFAOYSA-N

> <PUBCHEM_XLOGP3_AA>
1.8

> <PUBCHEM_EXACT_MASS>
300.158626

> <PUBCHEM_MOLECULAR_FORMULA>
C16H20N4O2

> <PUBCHEM_MOLECULAR_WEIGHT>
300.3556

> <PUBCHEM_OPENEYE_CAN_SMILES>
CCC1=C(C(=O)NC(=O)N1)N2CCN(CC2)C3=CC=CC=C3

> <PUBCHEM_OPENEYE_ISO_SMILES>
CCC1=C(C(=O)NC(=O)N1)N2CCN(CC2)C3=CC=CC=C3

> <PUBCHEM_CACTVS_TPSA>
64.7

> <PUBCHEM_MONOISOTOPIC_WEIGHT>
300.158626

> <PUBCHEM_TOTAL_CHARGE>
0

> <PUBCHEM_HEAVY_ATOM_COUNT>
22

> <PUBCHEM_ATOM_DEF_STEREO_COUNT>
0

> <PUBCHEM_ATOM_UDEF_STEREO_COUNT>
0

> <PUBCHEM_BOND_DEF_STEREO_COUNT>
0

> <PUBCHEM_BOND_UDEF_STEREO_COUNT>
0

> <PUBCHEM_ISOTOPIC_ATOM_COUNT>
0

> <PUBCHEM_COMPONENT_COUNT>
1

> <PUBCHEM_CACTVS_TAUTO_COUNT>
17

> <PUBCHEM_COORDINATE_TYPE>
1
5
255

> <PUBCHEM_BONDANNOTATIONS>
11  13  8
11  14  8
12  16  8
12  17  8
16  20  8
17  21  8
20  22  8
21  22  8
5  13  8
5  18  8
6  14  8
6  18  8

$$$$

