12953
  -OEChem-06261207353D

 62 66  0     1  0  0  0  0  0999 V2000
   -0.6211    2.3267    1.1991 O   0  0  0  0  0  0  0  0  0  0  0  0
   -1.8200   -2.1994    0.5058 O   0  0  0  0  0  0  0  0  0  0  0  0
    3.8545    1.3936    1.4395 O   0  0  0  0  0  0  0  0  0  0  0  0
    6.4650   -1.1314   -1.6963 O   0  0  0  0  0  0  0  0  0  0  0  0
    3.3250   -0.9067    2.7127 O   0  0  0  0  0  0  0  0  0  0  0  0
   -5.8023   -1.6837   -0.6446 O   0  0  0  0  0  0  0  0  0  0  0  0
   -7.3472   -0.3430    0.4099 O   0  0  0  0  0  0  0  0  0  0  0  0
   -0.6730    1.4506    0.0668 C   0  0  1  0  0  0  0  0  0  0  0  0
    0.7689    0.9843   -0.2901 C   0  0  2  0  0  0  0  0  0  0  0  0
   -1.6823    0.2575    0.3188 C   0  0  2  0  0  0  0  0  0  0  0  0
    1.3171   -0.0411    0.7410 C   0  0  2  0  0  0  0  0  0  0  0  0
    2.7680   -0.5312    0.3848 C   0  0  2  0  0  0  0  0  0  0  0  0
   -0.9625   -1.1104    0.1703 C   0  0  1  0  0  0  0  0  0  0  0  0
    3.7245    0.6918    0.1923 C   0  0  1  0  0  0  0  0  0  0  0  0
   -2.7380    0.4232   -0.8282 C   0  0  2  0  0  0  0  0  0  0  0  0
    0.3172   -1.1942    1.0034 C   0  0  0  0  0  0  0  0  0  0  0  0
   -1.2924    2.2843   -1.0781 C   0  0  0  0  0  0  0  0  0  0  0  0
    1.7423    2.1674   -0.4357 C   0  0  0  0  0  0  0  0  0  0  0  0
   -2.7710    1.9289   -1.0728 C   0  0  0  0  0  0  0  0  0  0  0  0
    3.1446    1.7006   -0.8212 C   0  0  0  0  0  0  0  0  0  0  0  0
    2.8030   -1.4424   -0.8730 C   0  0  0  0  0  0  0  0  0  0  0  0
   -2.3653    0.3708    1.7086 C   0  0  0  0  0  0  0  0  0  0  0  0
    5.1374    0.2486   -0.2330 C   0  0  0  0  0  0  0  0  0  0  0  0
    4.2211   -1.8505   -1.2809 C   0  0  0  0  0  0  0  0  0  0  0  0
    5.1432   -0.6523   -1.4643 C   0  0  2  0  0  0  0  0  0  0  0  0
    3.2422   -1.3524    1.5730 C   0  0  0  0  0  0  0  0  0  0  0  0
   -4.0963   -0.1576   -0.6050 C   0  0  0  0  0  0  0  0  0  0  0  0
   -4.4355   -1.5277   -1.0405 C   0  0  0  0  0  0  0  0  0  0  0  0
   -5.1354    0.4325   -0.0205 C   0  0  0  0  0  0  0  0  0  0  0  0
   -6.2317   -0.5370   -0.0418 C   0  0  0  0  0  0  0  0  0  0  0  0
    0.7181    0.4888   -1.2686 H   0  0  0  0  0  0  0  0  0  0  0  0
    1.3968    0.4929    1.6995 H   0  0  0  0  0  0  0  0  0  0  0  0
   -0.6891   -1.2649   -0.8813 H   0  0  0  0  0  0  0  0  0  0  0  0
   -2.3413   -0.0275   -1.7505 H   0  0  0  0  0  0  0  0  0  0  0  0
    0.7711   -2.1794    0.8532 H   0  0  0  0  0  0  0  0  0  0  0  0
    0.0549   -1.1988    2.0700 H   0  0  0  0  0  0  0  0  0  0  0  0
   -0.8684    1.9983   -2.0486 H   0  0  0  0  0  0  0  0  0  0  0  0
   -1.1501    3.3625   -0.9492 H   0  0  0  0  0  0  0  0  0  0  0  0
    1.7941    2.7402    0.4979 H   0  0  0  0  0  0  0  0  0  0  0  0
    1.3846    2.8597   -1.2064 H   0  0  0  0  0  0  0  0  0  0  0  0
   -3.2763    2.4825   -0.2735 H   0  0  0  0  0  0  0  0  0  0  0  0
   -3.2497    2.1888   -2.0228 H   0  0  0  0  0  0  0  0  0  0  0  0
    3.1103    1.2784   -1.8312 H   0  0  0  0  0  0  0  0  0  0  0  0
    3.7913    2.5863   -0.8687 H   0  0  0  0  0  0  0  0  0  0  0  0
    2.3345   -0.9391   -1.7255 H   0  0  0  0  0  0  0  0  0  0  0  0
    2.2295   -2.3621   -0.7122 H   0  0  0  0  0  0  0  0  0  0  0  0
   -1.6300    0.3248    2.5188 H   0  0  0  0  0  0  0  0  0  0  0  0
   -2.9132    1.3127    1.8198 H   0  0  0  0  0  0  0  0  0  0  0  0
   -3.0699   -0.4474    1.8903 H   0  0  0  0  0  0  0  0  0  0  0  0
    5.6385   -0.2649    0.5996 H   0  0  0  0  0  0  0  0  0  0  0  0
    5.7732    1.1259   -0.4138 H   0  0  0  0  0  0  0  0  0  0  0  0
    4.6489   -2.5439   -0.5465 H   0  0  0  0  0  0  0  0  0  0  0  0
    4.1813   -2.4226   -2.2166 H   0  0  0  0  0  0  0  0  0  0  0  0
   -0.1821    1.8630    1.9303 H   0  0  0  0  0  0  0  0  0  0  0  0
    4.8477   -0.0862   -2.3534 H   0  0  0  0  0  0  0  0  0  0  0  0
    3.4857   -2.4112    1.3857 H   0  0  0  0  0  0  0  0  0  0  0  0
   -1.3244   -3.0226    0.3568 H   0  0  0  0  0  0  0  0  0  0  0  0
    4.3689    0.8445    2.0544 H   0  0  0  0  0  0  0  0  0  0  0  0
   -4.3692   -1.6416   -2.1266 H   0  0  0  0  0  0  0  0  0  0  0  0
   -3.8604   -2.3129   -0.5558 H   0  0  0  0  0  0  0  0  0  0  0  0
   -5.2091    1.4183    0.4039 H   0  0  0  0  0  0  0  0  0  0  0  0
    6.7481   -1.6297   -0.9107 H   0  0  0  0  0  0  0  0  0  0  0  0
  1  8  1  0  0  0  0
  1 54  1  0  0  0  0
  2 13  1  0  0  0  0
  2 57  1  0  0  0  0
  3 14  1  0  0  0  0
  3 58  1  0  0  0  0
  4 25  1  0  0  0  0
  4 62  1  0  0  0  0
  5 26  2  0  0  0  0
  6 28  1  0  0  0  0
  6 30  1  0  0  0  0
  7 30  2  0  0  0  0
  8  9  1  0  0  0  0
  8 10  1  0  0  0  0
  8 17  1  0  0  0  0
  9 11  1  0  0  0  0
  9 18  1  0  0  0  0
  9 31  1  0  0  0  0
 10 13  1  0  0  0  0
 10 15  1  0  0  0  0
 10 22  1  0  0  0  0
 11 12  1  0  0  0  0
 11 16  1  0  0  0  0
 11 32  1  0  0  0  0
 12 14  1  0  0  0  0
 12 21  1  0  0  0  0
 12 26  1  0  0  0  0
 13 16  1  0  0  0  0
 13 33  1  0  0  0  0
 14 20  1  0  0  0  0
 14 23  1  0  0  0  0
 15 19  1  0  0  0  0
 15 27  1  0  0  0  0
 15 34  1  0  0  0  0
 16 35  1  0  0  0  0
 16 36  1  0  0  0  0
 17 19  1  0  0  0  0
 17 37  1  0  0  0  0
 17 38  1  0  0  0  0
 18 20  1  0  0  0  0
 18 39  1  0  0  0  0
 18 40  1  0  0  0  0
 19 41  1  0  0  0  0
 19 42  1  0  0  0  0
 20 43  1  0  0  0  0
 20 44  1  0  0  0  0
 21 24  1  0  0  0  0
 21 45  1  0  0  0  0
 21 46  1  0  0  0  0
 22 47  1  0  0  0  0
 22 48  1  0  0  0  0
 22 49  1  0  0  0  0
 23 25  1  0  0  0  0
 23 50  1  0  0  0  0
 23 51  1  0  0  0  0
 24 25  1  0  0  0  0
 24 52  1  0  0  0  0
 24 53  1  0  0  0  0
 25 55  1  0  0  0  0
 26 56  1  0  0  0  0
 27 28  1  0  0  0  0
 27 29  2  0  0  0  0
 28 59  1  0  0  0  0
 28 60  1  0  0  0  0
 29 30  1  0  0  0  0
 29 61  1  0  0  0  0
M  END
> <PUBCHEM_COMPOUND_CID>
12953

> <PUBCHEM_CONFORMER_RMSD>
0.8

> <PUBCHEM_CONFORMER_DIVERSEORDER>
16
26
5
14
12
6
3
11
25
29
1
24
30
18
15
10
8
2
20
7
13
19
4
17
28
27
9
22
21
23

> <PUBCHEM_MMFF94_PARTIAL_CHARGES>
24
1 -0.68
12 0.06
13 0.28
14 0.28
15 0.14
2 -0.68
25 0.28
26 0.45
27 -0.28
28 0.42
29 -0.14
3 -0.68
30 0.71
4 -0.68
5 -0.57
54 0.4
56 0.06
57 0.4
58 0.4
6 -0.43
61 0.15
62 0.4
7 -0.57
8 0.28

> <PUBCHEM_EFFECTIVE_ROTOR_COUNT>
4.6

> <PUBCHEM_PHARMACOPHORE_FEATURES>
15
1 1 acceptor
1 1 donor
1 2 acceptor
1 2 donor
1 3 acceptor
1 3 donor
1 4 acceptor
1 4 donor
1 5 acceptor
1 7 acceptor
5 6 27 28 29 30 rings
5 8 10 15 17 19 rings
6 12 14 21 23 24 25 rings
6 8 9 10 11 13 16 rings
6 9 11 12 14 18 20 rings

> <PUBCHEM_HEAVY_ATOM_COUNT>
30

> <PUBCHEM_ATOM_DEF_STEREO_COUNT>
7

> <PUBCHEM_ATOM_UDEF_STEREO_COUNT>
2

> <PUBCHEM_BOND_DEF_STEREO_COUNT>
0

> <PUBCHEM_BOND_UDEF_STEREO_COUNT>
0

> <PUBCHEM_ISOTOPIC_ATOM_COUNT>
0

> <PUBCHEM_COMPONENT_COUNT>
1

> <PUBCHEM_CACTVS_TAUTO_COUNT>
1

> <PUBCHEM_CONFORMER_ID>
0000329900000010

> <PUBCHEM_MMFF94_ENERGY>
109.5942

> <PUBCHEM_FEATURE_SELFOVERLAP>
76.26

> <PUBCHEM_SHAPE_FINGERPRINT>
10366900 7 17561078111856362000
10670039 82 17631729482520486292
11578080 2 17170690873380185834
11961588 58 17060326402242910716
12107698 1 18410853283144167588
12166972 35 18259700094984530984
12236239 1 18040994017169614217
12596602 18 15285649746520418807
12788726 201 18341615966222443177
13150687 139 17987215782990840356
13224815 77 18335708268776600480
13533116 47 17822008692384981776
13540713 5 17487060222194319416
13782708 43 17530962536112181254
14294032 229 17701539743701771093
14347332 77 18266179611638635686
14790565 3 18342455950689199317
15183329 4 18343588456381947677
15840311 113 18260827069567088537
16752209 62 18201440319671124416
17349148 13 18409172116421252627
17492 89 18057338385817378347
1813 80 18202284702068562197
18681886 176 18408324367940970004
19319366 153 17131841962301873354
21267235 1 18412537709188148893
21641784 216 17274821402152730773
221357 26 18412543227741251948
22393880 68 18272093858967321900
22950370 63 18259703385335252253
23522609 53 18057297665100965933
23559900 14 18260270707296563352
23569914 152 17328328229570383975
23569943 247 18118957233567833931
239999 70 18411700963664842876
25147074 1 17773599506291097800
3004659 81 18412545401052589429
3680242 22 18272939357771016827
404807 78 16414332482606087259
46194498 28 18410569583437967900
463206 1 18115593642772052223
465052 167 17312817169638859756
5104073 3 18189063134378199848
53794403 172 17773305734638838196
9709674 26 18411981330228806852

> <PUBCHEM_SHAPE_MULTIPOLES>
576.3
13.73
2.25
1.58
9.48
0.61
-0.51
-5.28
3.82
-0.13
0.28
-1.63
-0.35
0.24

> <PUBCHEM_SHAPE_SELFOVERLAP>
1256.962

> <PUBCHEM_SHAPE_VOLUME>
309.6

> <PUBCHEM_COORDINATE_TYPE>
2
5
10

$$$$

