47205587
  -OEChem-06241222593D

 33 34  0     1  0  0  0  0  0999 V2000
    1.9334    0.8885   -0.8672 S   0  0  0  0  0  0  0  0  0  0  0  0
   -1.0577   -2.3737    0.6669 O   0  0  0  0  0  0  0  0  0  0  0  0
   -3.1500    0.2639   -0.1718 N   0  0  0  0  0  0  0  0  0  0  0  0
   -0.3388   -0.4598   -0.4860 N   0  0  0  0  0  0  0  0  0  0  0  0
    3.0797   -0.8545    0.6206 N   0  0  0  0  0  0  0  0  0  0  0  0
    1.7502   -1.2333    0.5579 N   0  0  0  0  0  0  0  0  0  0  0  0
   -3.8406    2.3703   -0.3057 N   0  0  0  0  0  0  0  0  0  0  0  0
   -2.6649   -1.1052   -0.6135 C   0  0  1  0  0  0  0  0  0  0  0  0
    4.6224    0.8986   -0.2171 C   0  0  0  0  0  0  0  0  0  0  0  0
   -1.2679   -1.4042   -0.0565 C   0  0  0  0  0  0  0  0  0  0  0  0
   -3.6707   -2.1908   -0.2218 C   0  0  0  0  0  0  0  0  0  0  0  0
    3.3101    0.2361   -0.0790 C   0  0  0  0  0  0  0  0  0  0  0  0
    5.6812    0.0039   -0.9024 C   0  0  0  0  0  0  0  0  0  0  0  0
    5.1843    1.4123    1.1287 C   0  0  0  0  0  0  0  0  0  0  0  0
   -3.3718    0.6674    1.1147 C   0  0  0  0  0  0  0  0  0  0  0  0
    1.0430   -0.4094   -0.1854 C   0  0  0  0  0  0  0  0  0  0  0  0
   -3.4449    1.3195   -0.9891 C   0  0  0  0  0  0  0  0  0  0  0  0
   -3.7972    1.9705    1.0065 C   0  0  0  0  0  0  0  0  0  0  0  0
   -2.5983   -1.0477   -1.7074 H   0  0  0  0  0  0  0  0  0  0  0  0
    4.5175    1.7853   -0.8577 H   0  0  0  0  0  0  0  0  0  0  0  0
   -3.7661   -2.2825    0.8658 H   0  0  0  0  0  0  0  0  0  0  0  0
   -4.6634   -1.9646   -0.6256 H   0  0  0  0  0  0  0  0  0  0  0  0
   -3.3589   -3.1658   -0.6114 H   0  0  0  0  0  0  0  0  0  0  0  0
    6.1269    1.9488    0.9780 H   0  0  0  0  0  0  0  0  0  0  0  0
    5.3300   -0.3251   -1.8865 H   0  0  0  0  0  0  0  0  0  0  0  0
    6.6208    0.5488   -1.0411 H   0  0  0  0  0  0  0  0  0  0  0  0
    5.8884   -0.8908   -0.3048 H   0  0  0  0  0  0  0  0  0  0  0  0
    4.4754    2.0972    1.6068 H   0  0  0  0  0  0  0  0  0  0  0  0
    5.3681    0.5838    1.8218 H   0  0  0  0  0  0  0  0  0  0  0  0
   -0.6514    0.2916   -1.0956 H   0  0  0  0  0  0  0  0  0  0  0  0
   -3.2125    0.0204    1.9659 H   0  0  0  0  0  0  0  0  0  0  0  0
   -3.3530    1.2658   -2.0652 H   0  0  0  0  0  0  0  0  0  0  0  0
   -4.0739    2.6412    1.8068 H   0  0  0  0  0  0  0  0  0  0  0  0
  1 12  1  0  0  0  0
  1 16  1  0  0  0  0
  2 10  2  0  0  0  0
  3  8  1  0  0  0  0
  3 15  1  0  0  0  0
  3 17  1  0  0  0  0
  4 10  1  0  0  0  0
  4 16  1  0  0  0  0
  4 30  1  0  0  0  0
  5  6  1  0  0  0  0
  5 12  2  0  0  0  0
  6 16  2  0  0  0  0
  7 17  2  0  0  0  0
  7 18  1  0  0  0  0
  8 10  1  0  0  0  0
  8 11  1  0  0  0  0
  8 19  1  0  0  0  0
  9 12  1  0  0  0  0
  9 13  1  0  0  0  0
  9 14  1  0  0  0  0
  9 20  1  0  0  0  0
 11 21  1  0  0  0  0
 11 22  1  0  0  0  0
 11 23  1  0  0  0  0
 13 25  1  0  0  0  0
 13 26  1  0  0  0  0
 13 27  1  0  0  0  0
 14 24  1  0  0  0  0
 14 28  1  0  0  0  0
 14 29  1  0  0  0  0
 15 18  2  0  0  0  0
 15 31  1  0  0  0  0
 17 32  1  0  0  0  0
 18 33  1  0  0  0  0
M  END
> <PUBCHEM_COMPOUND_CID>
47205587

> <PUBCHEM_CONFORMER_RMSD>
0.6

> <PUBCHEM_CONFORMER_DIVERSEORDER>
2
145
17
141
83
117
45
144
135
142
60
84
123
111
20
125
101
48
121
124
25
94
95
127
92
24
39
140
49
72
143
129
50
96
62
138
23
93
119
67
113
71
126
74
78
47
3
65
86
37
133
116
136
82
42
46
4
131
118
5
87
91
53
59
139
100
105
99
35
85
22
73
68
114
75
21
106
40
77
56
137
31
104
26
108
43
55
103
30
132
18
120
130
36
52
54
90
15
69
134
41
38
89
109
28
32
81
115
27
102
79
44
16
58
76
61
51
57
98
110
107
63
11
122
88
1
97
70
66
64
128
14
10
112
19
80
12
9
8
7
13
6
34
29
33

> <PUBCHEM_MMFF94_PARTIAL_CHARGES>
19
1 -0.08
10 0.57
12 0.2
15 -0.3
16 0.44
17 0.04
18 0.08
2 -0.57
3 0.05
30 0.37
31 0.15
32 0.15
33 0.15
4 -0.49
5 -0.34
6 -0.34
7 -0.57
8 0.32
9 0.18

> <PUBCHEM_EFFECTIVE_ROTOR_COUNT>
5

> <PUBCHEM_PHARMACOPHORE_FEATURES>
7
1 2 acceptor
1 4 donor
1 5 acceptor
3 3 7 17 cation
3 9 13 14 hydrophobe
5 1 5 6 12 16 rings
5 3 7 15 17 18 rings

> <PUBCHEM_HEAVY_ATOM_COUNT>
18

> <PUBCHEM_ATOM_DEF_STEREO_COUNT>
0

> <PUBCHEM_ATOM_UDEF_STEREO_COUNT>
1

> <PUBCHEM_BOND_DEF_STEREO_COUNT>
0

> <PUBCHEM_BOND_UDEF_STEREO_COUNT>
0

> <PUBCHEM_ISOTOPIC_ATOM_COUNT>
0

> <PUBCHEM_COMPONENT_COUNT>
1

> <PUBCHEM_CACTVS_TAUTO_COUNT>
3

> <PUBCHEM_CONFORMER_ID>
02D04CD300000002

> <PUBCHEM_MMFF94_ENERGY>
22.8377

> <PUBCHEM_FEATURE_SELFOVERLAP>
35.52

> <PUBCHEM_SHAPE_MULTIPOLES>
343.51
11.73
2.28
1.06
11.11
0.08
-0.06
-4.69
-0.23
-3.1
-0.29
0.08
-0.28
0.01

> <PUBCHEM_SHAPE_SELFOVERLAP>
695.682

> <PUBCHEM_SHAPE_VOLUME>
204.5

> <PUBCHEM_COORDINATE_TYPE>
2
5
10

$$$$

