51090850
  -OEChem-06241223003D

 38 41  0     0  0  0  0  0  0999 V2000
    3.9630   -1.4908    0.8227 O   0  0  0  0  0  0  0  0  0  0  0  0
    5.6128   -1.3519   -0.9284 O   0  0  0  0  0  0  0  0  0  0  0  0
   -0.0753    1.8638    0.3853 O   0  0  0  0  0  0  0  0  0  0  0  0
    1.0358    0.0348    1.2789 N   0  0  0  0  0  0  0  0  0  0  0  0
   -4.7834    0.0343   -0.1979 N   0  0  0  0  0  0  0  0  0  0  0  0
   -3.3665   -1.8293   -0.3281 N   0  0  0  0  0  0  0  0  0  0  0  0
   -6.9791    0.1409   -0.5136 N   0  0  0  0  0  0  0  0  0  0  0  0
    3.2396    0.8313    0.6130 C   0  0  0  0  0  0  0  0  0  0  0  0
    4.0164   -0.2530    0.2598 C   0  0  0  0  0  0  0  0  0  0  0  0
    2.2214    0.7434    1.6942 C   0  0  0  0  0  0  0  0  0  0  0  0
    4.9584   -0.1736   -0.7401 C   0  0  0  0  0  0  0  0  0  0  0  0
    3.4398    2.0264   -0.0822 C   0  0  0  0  0  0  0  0  0  0  0  0
    5.1759    0.9943   -1.4418 C   0  0  0  0  0  0  0  0  0  0  0  0
    4.9769   -2.1819    0.0650 C   0  0  0  0  0  0  0  0  0  0  0  0
    4.4025    2.1074   -1.1037 C   0  0  0  0  0  0  0  0  0  0  0  0
   -1.1869   -0.1994    0.3093 C   0  0  0  0  0  0  0  0  0  0  0  0
   -0.0280    0.6654    0.6501 C   0  0  0  0  0  0  0  0  0  0  0  0
   -3.5092   -0.5038   -0.1038 C   0  0  0  0  0  0  0  0  0  0  0  0
   -2.4624    0.3462    0.2147 C   0  0  0  0  0  0  0  0  0  0  0  0
   -0.9998   -1.5589    0.0857 C   0  0  0  0  0  0  0  0  0  0  0  0
   -2.1121   -2.3237   -0.2271 C   0  0  0  0  0  0  0  0  0  0  0  0
   -5.1259    1.3431   -0.0058 C   0  0  0  0  0  0  0  0  0  0  0  0
   -5.9284   -0.6489   -0.5005 C   0  0  0  0  0  0  0  0  0  0  0  0
   -6.4857    1.3841   -0.2059 C   0  0  0  0  0  0  0  0  0  0  0  0
    2.6352    0.2174    2.5624 H   0  0  0  0  0  0  0  0  0  0  0  0
    1.9340    1.7425    2.0431 H   0  0  0  0  0  0  0  0  0  0  0  0
    2.8530    2.9101    0.1564 H   0  0  0  0  0  0  0  0  0  0  0  0
    0.9892   -0.9505    1.5149 H   0  0  0  0  0  0  0  0  0  0  0  0
    5.9191    1.0526   -2.2288 H   0  0  0  0  0  0  0  0  0  0  0  0
    5.7427   -2.5498    0.7574 H   0  0  0  0  0  0  0  0  0  0  0  0
    4.5154   -3.0397   -0.4376 H   0  0  0  0  0  0  0  0  0  0  0  0
    4.5446    3.0449   -1.6343 H   0  0  0  0  0  0  0  0  0  0  0  0
   -2.5794    1.4062    0.4003 H   0  0  0  0  0  0  0  0  0  0  0  0
   -0.0287   -2.0394    0.1145 H   0  0  0  0  0  0  0  0  0  0  0  0
   -2.0192   -3.3877   -0.4182 H   0  0  0  0  0  0  0  0  0  0  0  0
   -4.4459    2.1429    0.2473 H   0  0  0  0  0  0  0  0  0  0  0  0
   -5.9536   -1.7119   -0.7029 H   0  0  0  0  0  0  0  0  0  0  0  0
   -7.1345    2.2455   -0.1442 H   0  0  0  0  0  0  0  0  0  0  0  0
  1  9  1  0  0  0  0
  1 14  1  0  0  0  0
  2 11  1  0  0  0  0
  2 14  1  0  0  0  0
  3 17  2  0  0  0  0
  4 10  1  0  0  0  0
  4 17  1  0  0  0  0
  4 28  1  0  0  0  0
  5 18  1  0  0  0  0
  5 22  1  0  0  0  0
  5 23  1  0  0  0  0
  6 18  2  0  0  0  0
  6 21  1  0  0  0  0
  7 23  2  0  0  0  0
  7 24  1  0  0  0  0
  8  9  2  0  0  0  0
  8 10  1  0  0  0  0
  8 12  1  0  0  0  0
  9 11  1  0  0  0  0
 10 25  1  0  0  0  0
 10 26  1  0  0  0  0
 11 13  2  0  0  0  0
 12 15  2  0  0  0  0
 12 27  1  0  0  0  0
 13 15  1  0  0  0  0
 13 29  1  0  0  0  0
 14 30  1  0  0  0  0
 14 31  1  0  0  0  0
 15 32  1  0  0  0  0
 16 17  1  0  0  0  0
 16 19  2  0  0  0  0
 16 20  1  0  0  0  0
 18 19  1  0  0  0  0
 19 33  1  0  0  0  0
 20 21  2  0  0  0  0
 20 34  1  0  0  0  0
 21 35  1  0  0  0  0
 22 24  2  0  0  0  0
 22 36  1  0  0  0  0
 23 37  1  0  0  0  0
 24 38  1  0  0  0  0
M  END
> <PUBCHEM_COMPOUND_CID>
51090850

> <PUBCHEM_CONFORMER_RMSD>
0.8

> <PUBCHEM_CONFORMER_DIVERSEORDER>
2
39
79
115
132
72
53
122
77
78
45
68
63
102
4
36
44
26
117
124
107
13
131
67
33
71
8
121
92
42
82
108
111
120
27
25
116
54
50
10
73
129
84
75
100
103
56
105
118
49
59
24
99
37
66
20
126
87
60
95
19
30
3
90
93
18
106
48
119
76
23
21
97
86
6
17
35
43
83
29
9
85
80
65
113
7
55
51
130
110
125
74
123
70
16
91
81
89
109
101
104
31
15
1
47
40
94
96
34
28
38
114
98
5
52
69
22
57
58
12
61
46
14
112
62
11
32
41
127
88
133
64
128

> <PUBCHEM_MMFF94_PARTIAL_CHARGES>
34
1 -0.36
10 0.44
11 0.08
12 -0.15
13 -0.15
14 0.56
15 -0.15
16 0.09
17 0.54
18 0.29
19 -0.15
2 -0.36
20 -0.15
21 0.16
22 -0.3
23 0.04
24 0.08
27 0.15
28 0.37
29 0.15
3 -0.57
32 0.15
33 0.15
34 0.15
35 0.15
36 0.15
37 0.15
38 0.15
4 -0.73
5 0.33
6 -0.62
7 -0.57
8 -0.14
9 0.08

> <PUBCHEM_EFFECTIVE_ROTOR_COUNT>
5.6

> <PUBCHEM_PHARMACOPHORE_FEATURES>
10
1 1 acceptor
1 2 acceptor
1 3 acceptor
1 4 donor
3 5 6 18 cation
3 5 7 23 cation
5 1 2 9 11 14 rings
5 5 7 22 23 24 rings
6 6 16 18 19 20 21 rings
6 8 9 11 12 13 15 rings

> <PUBCHEM_HEAVY_ATOM_COUNT>
24

> <PUBCHEM_ATOM_DEF_STEREO_COUNT>
0

> <PUBCHEM_ATOM_UDEF_STEREO_COUNT>
0

> <PUBCHEM_BOND_DEF_STEREO_COUNT>
0

> <PUBCHEM_BOND_UDEF_STEREO_COUNT>
0

> <PUBCHEM_ISOTOPIC_ATOM_COUNT>
0

> <PUBCHEM_COMPONENT_COUNT>
1

> <PUBCHEM_CACTVS_TAUTO_COUNT>
2

> <PUBCHEM_CONFORMER_ID>
030B95A200000002

> <PUBCHEM_MMFF94_ENERGY>
58.5051

> <PUBCHEM_FEATURE_SELFOVERLAP>
51.017

> <PUBCHEM_SHAPE_MULTIPOLES>
456.38
17.05
2.23
1.08
13.36
0.42
0.11
-1.46
-5.41
-1.39
-0.26
-1.28
-0.22
-0.63

> <PUBCHEM_SHAPE_SELFOVERLAP>
1017.135

> <PUBCHEM_SHAPE_VOLUME>
243

> <PUBCHEM_COORDINATE_TYPE>
2
5
10

$$$$

