7598
  -OEChem-06261202113D

 25 25  0     0  0  0  0  0  0999 V2000
   -0.4717    1.4766   -0.0057 O   0  0  0  0  0  0  0  0  0  0  0  0
   -5.3965    0.7151   -0.0156 O   0  0  0  0  0  0  0  0  0  0  0  0
   -4.5011   -1.3737    0.0209 O   0  0  0  0  0  0  0  0  0  0  0  0
    0.5364   -0.6468   -0.0041 N   0  0  0  0  0  0  0  0  0  0  0  0
   -1.8657   -0.4641   -0.0038 C   0  0  0  0  0  0  0  0  0  0  0  0
   -3.0177    0.5329    0.0024 C   0  0  0  0  0  0  0  0  0  0  0  0
   -0.5243    0.2501    0.0016 C   0  0  0  0  0  0  0  0  0  0  0  0
    1.9192   -0.3471   -0.0014 C   0  0  0  0  0  0  0  0  0  0  0  0
    2.8374   -1.3842   -0.0091 C   0  0  0  0  0  0  0  0  0  0  0  0
    2.3260    0.9771    0.0081 C   0  0  0  0  0  0  0  0  0  0  0  0
   -4.3587   -0.1580    0.0004 C   0  0  0  0  0  0  0  0  0  0  0  0
    4.2007   -1.0890   -0.0069 C   0  0  0  0  0  0  0  0  0  0  0  0
    3.6894    1.2722    0.0102 C   0  0  0  0  0  0  0  0  0  0  0  0
    4.6266    0.2391    0.0028 C   0  0  0  0  0  0  0  0  0  0  0  0
   -1.9176   -1.1027   -0.8939 H   0  0  0  0  0  0  0  0  0  0  0  0
   -1.9176   -1.1139    0.8781 H   0  0  0  0  0  0  0  0  0  0  0  0
   -2.9644    1.1658    0.8958 H   0  0  0  0  0  0  0  0  0  0  0  0
   -2.9657    1.1735   -0.8855 H   0  0  0  0  0  0  0  0  0  0  0  0
    0.3081   -1.6388   -0.0084 H   0  0  0  0  0  0  0  0  0  0  0  0
    2.5165   -2.4222   -0.0167 H   0  0  0  0  0  0  0  0  0  0  0  0
    1.6635    1.8299    0.0158 H   0  0  0  0  0  0  0  0  0  0  0  0
    4.9306   -1.8933   -0.0128 H   0  0  0  0  0  0  0  0  0  0  0  0
    4.0226    2.3060    0.0180 H   0  0  0  0  0  0  0  0  0  0  0  0
    5.6881    0.4689    0.0045 H   0  0  0  0  0  0  0  0  0  0  0  0
   -6.2626    0.2545   -0.0120 H   0  0  0  0  0  0  0  0  0  0  0  0
  1  7  2  0  0  0  0
  2 11  1  0  0  0  0
  2 25  1  0  0  0  0
  3 11  2  0  0  0  0
  4  7  1  0  0  0  0
  4  8  1  0  0  0  0
  4 19  1  0  0  0  0
  5  6  1  0  0  0  0
  5  7  1  0  0  0  0
  5 15  1  0  0  0  0
  5 16  1  0  0  0  0
  6 11  1  0  0  0  0
  6 17  1  0  0  0  0
  6 18  1  0  0  0  0
  8  9  2  0  0  0  0
  8 10  1  0  0  0  0
  9 12  1  0  0  0  0
  9 20  1  0  0  0  0
 10 13  2  0  0  0  0
 10 21  1  0  0  0  0
 12 14  2  0  0  0  0
 12 22  1  0  0  0  0
 13 14  1  0  0  0  0
 13 23  1  0  0  0  0
 14 24  1  0  0  0  0
M  END
> <PUBCHEM_COMPOUND_CID>
7598

> <PUBCHEM_CONFORMER_RMSD>
0.6

> <PUBCHEM_CONFORMER_DIVERSEORDER>
1
27
14
20
21
17
9
22
24
11
3
7
32
29
5
10
18
23
25
31
6
13
2
12
19
30
15
16
28
8
26
4

> <PUBCHEM_MMFF94_PARTIAL_CHARGES>
21
1 -0.57
10 -0.15
11 0.66
12 -0.15
13 -0.15
14 -0.15
19 0.37
2 -0.65
20 0.15
21 0.15
22 0.15
23 0.15
24 0.15
25 0.5
3 -0.57
4 -0.55
5 0.06
6 0.06
7 0.57
8 0.12
9 -0.15

> <PUBCHEM_EFFECTIVE_ROTOR_COUNT>
5

> <PUBCHEM_PHARMACOPHORE_FEATURES>
6
1 1 acceptor
1 2 acceptor
1 3 acceptor
1 4 donor
3 2 3 11 anion
6 8 9 10 12 13 14 rings

> <PUBCHEM_HEAVY_ATOM_COUNT>
14

> <PUBCHEM_ATOM_DEF_STEREO_COUNT>
0

> <PUBCHEM_ATOM_UDEF_STEREO_COUNT>
0

> <PUBCHEM_BOND_DEF_STEREO_COUNT>
0

> <PUBCHEM_BOND_UDEF_STEREO_COUNT>
0

> <PUBCHEM_ISOTOPIC_ATOM_COUNT>
0

> <PUBCHEM_COMPONENT_COUNT>
1

> <PUBCHEM_CACTVS_TAUTO_COUNT>
2

> <PUBCHEM_CONFORMER_ID>
00001DAE00000001

> <PUBCHEM_MMFF94_ENERGY>
31.4549

> <PUBCHEM_FEATURE_SELFOVERLAP>
30.504

> <PUBCHEM_SHAPE_FINGERPRINT>
11287383 113 18201435852868115907
11401426 45 18342459244612084421
11471102 20 18410573985700109792
13167823 11 18408606950528905471
14123238 8 18131633370021492807
14252887 29 17749381585931517742
15196674 1 18410856546770718435
15242433 33 18408603656098858055
15477762 27 18410009975106154718
17834072 33 18261675887435796239
17834076 25 16845572023855667209
18186145 218 17775292659534362775
200 152 18260267455700072883
20279233 1 17918267654073359786
20645477 70 18410011082912701350
21267235 1 18409158940026227334
22485316 2 18411420609479540939
23402539 116 18408610257779927847
23402655 69 18407760335133375340
23557571 272 17560804385079515381
23559900 14 18413389830557328442
26918003 58 18343584040290404074
3268164 11 16558762221444217535
33824 294 18341895208153769938
42 15 18412262847944135295
4214541 1 18410856598737944673
42788 4 18410856568625337063
5104073 3 18409729568900932009
522135 26 18410011052916027694
5374978 207 18411706499756459296
69090 78 18412827971125037387
77779 3 18410292514696528623

> <PUBCHEM_SHAPE_MULTIPOLES>
265.52
11.19
1.37
0.59
8.96
0.02
0
0.62
0
-0.6
0
-0.07
0
0.02

> <PUBCHEM_SHAPE_SELFOVERLAP>
544.598

> <PUBCHEM_SHAPE_VOLUME>
152

> <PUBCHEM_COORDINATE_TYPE>
2
5
10

$$$$

