854151
  -OEChem-06241222472D

 29 29  0     1  0  0  0  0  0999 V2000
    2.0000   -1.0000    0.0000 O   0  0  0  0  0  0  0  0  0  0  0  0
    4.5981    1.5000    0.0000 O   0  0  0  0  0  0  0  0  0  0  0  0
    5.4641    0.0000    0.0000 O   0  0  0  0  0  0  0  0  0  0  0  0
    3.7320   -1.0000    0.0000 C   0  0  1  0  0  0  0  0  0  0  0  0
    4.5981   -1.5000    0.0000 C   0  0  0  0  0  0  0  0  0  0  0  0
    4.5981   -2.5000    0.0000 C   0  0  0  0  0  0  0  0  0  0  0  0
    3.7320   -3.0000    0.0000 C   0  0  0  0  0  0  0  0  0  0  0  0
    2.8660   -2.5000    0.0000 C   0  0  0  0  0  0  0  0  0  0  0  0
    2.8660   -1.5000    0.0000 C   0  0  0  0  0  0  0  0  0  0  0  0
    3.7320    0.0000    0.0000 C   0  0  0  0  0  0  0  0  0  0  0  0
    4.5981    0.5000    0.0000 C   0  0  0  0  0  0  0  0  0  0  0  0
    5.4641    2.0000    0.0000 C   0  0  0  0  0  0  0  0  0  0  0  0
    5.4641    3.0000    0.0000 C   0  0  0  0  0  0  0  0  0  0  0  0
    4.2690   -0.6900    0.0000 H   0  0  0  0  0  0  0  0  0  0  0  0
    5.2087   -1.6077    0.0000 H   0  0  0  0  0  0  0  0  0  0  0  0
    4.8101   -0.9174    0.0000 H   0  0  0  0  0  0  0  0  0  0  0  0
    4.8101   -3.0826    0.0000 H   0  0  0  0  0  0  0  0  0  0  0  0
    5.2087   -2.3923    0.0000 H   0  0  0  0  0  0  0  0  0  0  0  0
    3.3335   -3.4750    0.0000 H   0  0  0  0  0  0  0  0  0  0  0  0
    4.1306   -3.4750    0.0000 H   0  0  0  0  0  0  0  0  0  0  0  0
    2.2554   -2.3923    0.0000 H   0  0  0  0  0  0  0  0  0  0  0  0
    2.6540   -3.0826    0.0000 H   0  0  0  0  0  0  0  0  0  0  0  0
    3.5200    0.5826    0.0000 H   0  0  0  0  0  0  0  0  0  0  0  0
    3.1215   -0.1077    0.0000 H   0  0  0  0  0  0  0  0  0  0  0  0
    5.6762    1.4174    0.0000 H   0  0  0  0  0  0  0  0  0  0  0  0
    6.0747    2.1077    0.0000 H   0  0  0  0  0  0  0  0  0  0  0  0
    6.0841    3.0000    0.0000 H   0  0  0  0  0  0  0  0  0  0  0  0
    5.4641    3.6200    0.0000 H   0  0  0  0  0  0  0  0  0  0  0  0
    4.8441    3.0000    0.0000 H   0  0  0  0  0  0  0  0  0  0  0  0
  1  9  2  0  0  0  0
  2 11  1  0  0  0  0
  2 12  1  0  0  0  0
  3 11  2  0  0  0  0
  4  5  1  0  0  0  0
  4  9  1  0  0  0  0
  4 10  1  1  0  0  0
  4 14  1  0  0  0  0
  5  6  1  0  0  0  0
  5 15  1  0  0  0  0
  5 16  1  0  0  0  0
  6  7  1  0  0  0  0
  6 17  1  0  0  0  0
  6 18  1  0  0  0  0
  7  8  1  0  0  0  0
  7 19  1  0  0  0  0
  7 20  1  0  0  0  0
  8  9  1  0  0  0  0
  8 21  1  0  0  0  0
  8 22  1  0  0  0  0
 10 11  1  0  0  0  0
 10 23  1  0  0  0  0
 10 24  1  0  0  0  0
 12 13  1  0  0  0  0
 12 25  1  0  0  0  0
 12 26  1  0  0  0  0
 13 27  1  0  0  0  0
 13 28  1  0  0  0  0
 13 29  1  0  0  0  0
M  END
> <PUBCHEM_COMPOUND_CID>
854151

> <PUBCHEM_COMPOUND_CANONICALIZED>
1

> <PUBCHEM_CACTVS_COMPLEXITY>
198

> <PUBCHEM_CACTVS_HBOND_ACCEPTOR>
3

> <PUBCHEM_CACTVS_HBOND_DONOR>
0

> <PUBCHEM_CACTVS_ROTATABLE_BOND>
4

> <PUBCHEM_CACTVS_SUBSKEYS>
AAADceBwMAAAAAAAAAAAAAAAAAAAAAAAAAAwAAAAAAAAAAAAAAAAGgAAAAAADQSggAICCAAABAAIAICQCAAAAAAAAAAAAAEAAAAAABIAAAACAAAEAAAAAAGLyKCOAAAAAAAAAAAAAAAAAAAAAAAAAAAAAA==

> <PUBCHEM_IUPAC_OPENEYE_NAME>
ethyl 2-[(1R)-2-oxocyclohexyl]acetate

> <PUBCHEM_IUPAC_CAS_NAME>
2-[(1R)-2-oxocyclohexyl]acetic acid ethyl ester

> <PUBCHEM_IUPAC_NAME>
ethyl 2-[(1R)-2-oxocyclohexyl]acetate

> <PUBCHEM_IUPAC_SYSTEMATIC_NAME>
ethyl 2-[(1R)-2-oxidanylidenecyclohexyl]ethanoate

> <PUBCHEM_IUPAC_TRADITIONAL_NAME>
2-[(1R)-2-ketocyclohexyl]acetic acid ethyl ester

> <PUBCHEM_IUPAC_INCHI>
InChI=1S/C10H16O3/c1-2-13-10(12)7-8-5-3-4-6-9(8)11/h8H,2-7H2,1H3/t8-/m1/s1

> <PUBCHEM_IUPAC_INCHIKEY>
ZZWSNYNCRUZSPR-MRVPVSSYSA-N

> <PUBCHEM_XLOGP3_AA>
1.2

> <PUBCHEM_EXACT_MASS>
184.109944

> <PUBCHEM_MOLECULAR_FORMULA>
C10H16O3

> <PUBCHEM_MOLECULAR_WEIGHT>
184.23224

> <PUBCHEM_OPENEYE_CAN_SMILES>
CCOC(=O)CC1CCCCC1=O

> <PUBCHEM_OPENEYE_ISO_SMILES>
CCOC(=O)C[C@H]1CCCCC1=O

> <PUBCHEM_CACTVS_TPSA>
43.4

> <PUBCHEM_MONOISOTOPIC_WEIGHT>
184.109944

> <PUBCHEM_TOTAL_CHARGE>
0

> <PUBCHEM_HEAVY_ATOM_COUNT>
13

> <PUBCHEM_ATOM_DEF_STEREO_COUNT>
1

> <PUBCHEM_ATOM_UDEF_STEREO_COUNT>
0

> <PUBCHEM_BOND_DEF_STEREO_COUNT>
0

> <PUBCHEM_BOND_UDEF_STEREO_COUNT>
0

> <PUBCHEM_ISOTOPIC_ATOM_COUNT>
0

> <PUBCHEM_COMPONENT_COUNT>
1

> <PUBCHEM_CACTVS_TAUTO_COUNT>
3

> <PUBCHEM_COORDINATE_TYPE>
1
5
255

> <PUBCHEM_BONDANNOTATIONS>
4  10  5

$$$$

