11553
  -OEChem-06261205493D

 11 10  0     0  0  0  0  0  0999 V2000
    3.0950    0.2641    0.0107 Br  0  0  0  0  0  0  0  0  0  0  0  0
   -2.1050    0.9449   -0.0192 O   0  0  0  0  0  0  0  0  0  0  0  0
   -1.4016   -1.2161    0.0151 O   0  0  0  0  0  0  0  0  0  0  0  0
    0.2484    0.5511    0.0247 C   0  0  0  0  0  0  0  0  0  0  0  0
    1.3131   -0.5258   -0.0384 C   0  0  0  0  0  0  0  0  0  0  0  0
   -1.1499   -0.0181    0.0071 C   0  0  0  0  0  0  0  0  0  0  0  0
    0.3593    1.1398    0.9426 H   0  0  0  0  0  0  0  0  0  0  0  0
    0.3494    1.2263   -0.8330 H   0  0  0  0  0  0  0  0  0  0  0  0
    1.2539   -1.2103    0.8130 H   0  0  0  0  0  0  0  0  0  0  0  0
    1.2533   -1.1060   -0.9638 H   0  0  0  0  0  0  0  0  0  0  0  0
   -3.0089    0.5638   -0.0307 H   0  0  0  0  0  0  0  0  0  0  0  0
  1  5  1  0  0  0  0
  2  6  1  0  0  0  0
  2 11  1  0  0  0  0
  3  6  2  0  0  0  0
  4  5  1  0  0  0  0
  4  6  1  0  0  0  0
  4  7  1  0  0  0  0
  4  8  1  0  0  0  0
  5  9  1  0  0  0  0
  5 10  1  0  0  0  0
M  END
> <PUBCHEM_COMPOUND_CID>
11553

> <PUBCHEM_CONFORMER_RMSD>
0.4

> <PUBCHEM_CONFORMER_DIVERSEORDER>
1
4
8
5
3
6
2
7

> <PUBCHEM_MMFF94_PARTIAL_CHARGES>
7
1 -0.23
11 0.5
2 -0.65
3 -0.57
4 0.06
5 0.23
6 0.66

> <PUBCHEM_EFFECTIVE_ROTOR_COUNT>
2

> <PUBCHEM_PHARMACOPHORE_FEATURES>
4
1 1 hydrophobe
1 2 acceptor
1 3 acceptor
3 2 3 6 anion

> <PUBCHEM_HEAVY_ATOM_COUNT>
6

> <PUBCHEM_ATOM_DEF_STEREO_COUNT>
0

> <PUBCHEM_ATOM_UDEF_STEREO_COUNT>
0

> <PUBCHEM_BOND_DEF_STEREO_COUNT>
0

> <PUBCHEM_BOND_UDEF_STEREO_COUNT>
0

> <PUBCHEM_ISOTOPIC_ATOM_COUNT>
0

> <PUBCHEM_COMPONENT_COUNT>
1

> <PUBCHEM_CACTVS_TAUTO_COUNT>
1

> <PUBCHEM_CONFORMER_ID>
00002D2100000001

> <PUBCHEM_MMFF94_ENERGY>
2.9774

> <PUBCHEM_FEATURE_SELFOVERLAP>
20.355

> <PUBCHEM_SHAPE_FINGERPRINT>
14390081 3 18260833700262948160
16714656 1 18413107290064776892
20096714 4 18341330084408423705
21040471 1 18338797943484099685
29004967 10 17167855353494055018
5460574 1 9367348132747105572

> <PUBCHEM_SHAPE_MULTIPOLES>
117.68
4
1.02
0.61
2.33
0.09
0
-0.48
0
-0.39
0
0.14
-0.01
0.02

> <PUBCHEM_SHAPE_SELFOVERLAP>
198.444

> <PUBCHEM_SHAPE_VOLUME>
81.4

> <PUBCHEM_COORDINATE_TYPE>
2
5
10

$$$$

