51090979
  -OEChem-06241223013D

 43 44  0     0  0  0  0  0  0999 V2000
   -0.4140    3.9881    0.0500 O   0  0  0  0  0  0  0  0  0  0  0  0
   -0.0012    1.8241   -2.0009 O   0  0  0  0  0  0  0  0  0  0  0  0
    5.0405   -0.5952    0.0708 O   0  5  0  0  0  0  0  0  0  0  0  0
    3.9915   -1.2306    1.8915 O   0  0  0  0  0  0  0  0  0  0  0  0
   -1.1876    1.2471   -0.0712 N   0  0  0  0  0  0  0  0  0  0  0  0
   -3.1871   -0.6205   -0.2056 N   0  0  0  0  0  0  0  0  0  0  0  0
    3.9980   -0.9500    0.6698 N   0  3  0  0  0  0  0  0  0  0  0  0
   -2.1509    2.3437   -0.1433 C   0  0  0  0  0  0  0  0  0  0  0  0
   -1.3477    0.3405    1.0570 C   0  0  0  0  0  0  0  0  0  0  0  0
   -0.1724    1.0785   -1.0288 C   0  0  0  0  0  0  0  0  0  0  0  0
    0.7400   -0.0497   -0.8956 C   0  0  0  0  0  0  0  0  0  0  0  0
    1.9270    0.0601   -0.1711 C   0  0  0  0  0  0  0  0  0  0  0  0
   -1.6562    3.5704    0.6010 C   0  0  0  0  0  0  0  0  0  0  0  0
   -2.2211   -0.8321    0.7161 C   0  0  0  0  0  0  0  0  0  0  0  0
    2.7813   -1.0371   -0.0618 C   0  0  0  0  0  0  0  0  0  0  0  0
    0.4073   -1.2566   -1.5105 C   0  0  0  0  0  0  0  0  0  0  0  0
    2.2795    1.3588    0.4868 C   0  0  0  0  0  0  0  0  0  0  0  0
    2.4486   -2.2441   -0.6768 C   0  0  0  0  0  0  0  0  0  0  0  0
    1.2615   -2.3537   -1.4012 C   0  0  0  0  0  0  0  0  0  0  0  0
   -2.0019   -2.0470    1.3453 C   0  0  0  0  0  0  0  0  0  0  0  0
   -2.8272   -3.1135    1.0064 C   0  0  0  0  0  0  0  0  0  0  0  0
   -3.9698   -1.6803   -0.5094 C   0  0  0  0  0  0  0  0  0  0  0  0
   -3.8323   -2.9349    0.0622 C   0  0  0  0  0  0  0  0  0  0  0  0
    0.0943    5.1339    0.7193 C   0  0  0  0  0  0  0  0  0  0  0  0
   -3.1222    2.0207    0.2448 H   0  0  0  0  0  0  0  0  0  0  0  0
   -2.2810    2.5997   -1.2013 H   0  0  0  0  0  0  0  0  0  0  0  0
   -1.7916    0.8846    1.8992 H   0  0  0  0  0  0  0  0  0  0  0  0
   -0.3680   -0.0066    1.3970 H   0  0  0  0  0  0  0  0  0  0  0  0
   -1.5227    3.3417    1.6648 H   0  0  0  0  0  0  0  0  0  0  0  0
   -2.3909    4.3779    0.5049 H   0  0  0  0  0  0  0  0  0  0  0  0
   -0.5134   -1.3549   -2.0801 H   0  0  0  0  0  0  0  0  0  0  0  0
    1.9236    2.2199   -0.0873 H   0  0  0  0  0  0  0  0  0  0  0  0
    3.3597    1.5089    0.5756 H   0  0  0  0  0  0  0  0  0  0  0  0
    1.8411    1.4016    1.4891 H   0  0  0  0  0  0  0  0  0  0  0  0
    3.1043   -3.1081   -0.6007 H   0  0  0  0  0  0  0  0  0  0  0  0
    1.0022   -3.2934   -1.8800 H   0  0  0  0  0  0  0  0  0  0  0  0
   -1.2153   -2.1766    2.0808 H   0  0  0  0  0  0  0  0  0  0  0  0
   -2.6872   -4.0820    1.4769 H   0  0  0  0  0  0  0  0  0  0  0  0
   -4.7380   -1.4888   -1.2512 H   0  0  0  0  0  0  0  0  0  0  0  0
   -4.4872   -3.7521   -0.2175 H   0  0  0  0  0  0  0  0  0  0  0  0
   -0.5997    5.9744    0.6227 H   0  0  0  0  0  0  0  0  0  0  0  0
    0.2748    4.9123    1.7755 H   0  0  0  0  0  0  0  0  0  0  0  0
    1.0443    5.4102    0.2541 H   0  0  0  0  0  0  0  0  0  0  0  0
  1 13  1  0  0  0  0
  1 24  1  0  0  0  0
  2 10  2  0  0  0  0
  3  7  1  0  0  0  0
  4  7  2  0  0  0  0
  5  8  1  0  0  0  0
  5  9  1  0  0  0  0
  5 10  1  0  0  0  0
  6 14  1  0  0  0  0
  6 22  2  0  0  0  0
  7 15  1  0  0  0  0
  8 13  1  0  0  0  0
  8 25  1  0  0  0  0
  8 26  1  0  0  0  0
  9 14  1  0  0  0  0
  9 27  1  0  0  0  0
  9 28  1  0  0  0  0
 10 11  1  0  0  0  0
 11 12  2  0  0  0  0
 11 16  1  0  0  0  0
 12 15  1  0  0  0  0
 12 17  1  0  0  0  0
 13 29  1  0  0  0  0
 13 30  1  0  0  0  0
 14 20  2  0  0  0  0
 15 18  2  0  0  0  0
 16 19  2  0  0  0  0
 16 31  1  0  0  0  0
 17 32  1  0  0  0  0
 17 33  1  0  0  0  0
 17 34  1  0  0  0  0
 18 19  1  0  0  0  0
 18 35  1  0  0  0  0
 19 36  1  0  0  0  0
 20 21  1  0  0  0  0
 20 37  1  0  0  0  0
 21 23  2  0  0  0  0
 21 38  1  0  0  0  0
 22 23  1  0  0  0  0
 22 39  1  0  0  0  0
 23 40  1  0  0  0  0
 24 41  1  0  0  0  0
 24 42  1  0  0  0  0
 24 43  1  0  0  0  0
M  CHG  2   3  -1   7   1
M  END
> <PUBCHEM_COMPOUND_CID>
51090979

> <PUBCHEM_CONFORMER_RMSD>
1

> <PUBCHEM_CONFORMER_DIVERSEORDER>
1
111
89
138
125
147
101
162
68
133
110
148
129
122
49
123
11
160
154
60
98
153
43
131
54
13
21
108
85
113
84
58
88
86
19
137
63
28
82
119
140
59
44
150
155
132
12
115
95
4
164
136
103
114
158
149
104
161
52
151
141
18
40
75
57
47
135
128
70
163
145
24
80
121
143
73
102
48
55
142
72
83
20
26
61
79
71
106
109
90
97
134
157
126
91
2
39
69
46
22
51
31
117
36
127
107
8
96
139
42
30
27
34
37
66
124
6
105
146
65
10
92
23
118
100
33
5
7
67
76
35
156
116
56
99
112
25
3
62
45
15
16
78
81
144
32
87
159
29
74
120
53
17
130
50
93
64
94
38
14
9
41
152
77

> <PUBCHEM_MMFF94_PARTIAL_CHARGES>
31
1 -0.56
10 0.54
11 0.09
12 -0.14
13 0.28
14 0.17
15 0.13
16 -0.15
17 0.14
18 -0.15
19 -0.15
2 -0.57
20 -0.15
21 -0.15
22 0.16
23 -0.15
24 0.28
3 -0.52
31 0.15
35 0.15
36 0.15
37 0.15
38 0.15
39 0.15
4 -0.52
40 0.15
5 -0.66
6 -0.62
7 0.91
8 0.3
9 0.44

> <PUBCHEM_EFFECTIVE_ROTOR_COUNT>
8

> <PUBCHEM_PHARMACOPHORE_FEATURES>
8
1 1 acceptor
1 2 acceptor
1 3 acceptor
1 3 anion
1 4 acceptor
1 6 acceptor
6 11 12 15 16 18 19 rings
6 6 14 20 21 22 23 rings

> <PUBCHEM_HEAVY_ATOM_COUNT>
24

> <PUBCHEM_ATOM_DEF_STEREO_COUNT>
0

> <PUBCHEM_ATOM_UDEF_STEREO_COUNT>
0

> <PUBCHEM_BOND_DEF_STEREO_COUNT>
0

> <PUBCHEM_BOND_UDEF_STEREO_COUNT>
0

> <PUBCHEM_ISOTOPIC_ATOM_COUNT>
0

> <PUBCHEM_COMPONENT_COUNT>
1

> <PUBCHEM_CACTVS_TAUTO_COUNT>
1

> <PUBCHEM_CONFORMER_ID>
030B962300000001

> <PUBCHEM_MMFF94_ENERGY>
76.5002

> <PUBCHEM_FEATURE_SELFOVERLAP>
40.678

> <PUBCHEM_SHAPE_FINGERPRINT>
10366900 7 18115601464112810184
11265709 11 18341605984818459491
11552529 35 18270406117409158130
12160290 23 17913468397634914597
12553582 1 18266714957916340799
12633257 1 18337950194370691578
12788726 201 18342451599306644705
13004483 165 18341624706364982307
13083527 12 18339364041569531894
13134695 92 18194969535028384855
13140716 1 18409167718665418080
14081887 123 18337675329243348770
14178342 30 18195529422638696250
14223421 5 18334572464638392926
17980427 23 18114452358787642235
17980427 26 16751855451052907188
19591789 44 17257365246033048229
20600515 1 18273492373196011567
21304303 282 17621919742582734301
21452121 199 18269550533800309715
23419403 2 17911833213349050533
23558518 356 18048598419538174445
23559900 14 18339932493444696105
24859131 72 18411141342000502062
257057 1 18340762629414110525
469060 322 17753084676432416606
5265222 85 17044259509077786286
81228 2 18199735007312004111
9709674 26 18262798613066700535

> <PUBCHEM_SHAPE_MULTIPOLES>
455.49
6.57
5.28
1.41
1.11
8.19
-0.09
-6.91
1.94
-0.81
0.8
0.36
-0.44
0.32

> <PUBCHEM_SHAPE_SELFOVERLAP>
960.163

> <PUBCHEM_SHAPE_VOLUME>
256.1

> <PUBCHEM_COORDINATE_TYPE>
2
5
10

$$$$

