9193
  -OEChem-06261203303D

 21 23  0     0  0  0  0  0  0999 V2000
    1.9226    1.8703   -0.0002 S   0  0  0  0  0  0  0  0  0  0  0  0
   -0.5277    0.4000   -0.0002 C   0  0  0  0  0  0  0  0  0  0  0  0
    0.9040    0.4651   -0.0002 C   0  0  0  0  0  0  0  0  0  0  0  0
   -1.1475   -0.8738   -0.0001 C   0  0  0  0  0  0  0  0  0  0  0  0
    1.6843   -0.6991   -0.0001 C   0  0  0  0  0  0  0  0  0  0  0  0
   -0.3666   -2.0285    0.0000 C   0  0  0  0  0  0  0  0  0  0  0  0
    1.0274   -1.9510   -0.0001 C   0  0  0  0  0  0  0  0  0  0  0  0
   -1.3325    1.5611   -0.0002 C   0  0  0  0  0  0  0  0  0  0  0  0
   -2.5493   -0.9519    0.0001 C   0  0  0  0  0  0  0  0  0  0  0  0
    3.0889   -0.4006    0.0001 C   0  0  0  0  0  0  0  0  0  0  0  0
   -2.7236    1.4572    0.0001 C   0  0  0  0  0  0  0  0  0  0  0  0
    3.3501    0.9466    0.0004 C   0  0  0  0  0  0  0  0  0  0  0  0
   -3.3301    0.2047    0.0003 C   0  0  0  0  0  0  0  0  0  0  0  0
   -0.8312   -3.0128    0.0001 H   0  0  0  0  0  0  0  0  0  0  0  0
    1.6099   -2.8696    0.0000 H   0  0  0  0  0  0  0  0  0  0  0  0
   -0.8946    2.5557   -0.0003 H   0  0  0  0  0  0  0  0  0  0  0  0
   -3.0495   -1.9185    0.0002 H   0  0  0  0  0  0  0  0  0  0  0  0
    3.8700   -1.1508    0.0002 H   0  0  0  0  0  0  0  0  0  0  0  0
   -3.3341    2.3555    0.0002 H   0  0  0  0  0  0  0  0  0  0  0  0
    4.3173    1.4291    0.0008 H   0  0  0  0  0  0  0  0  0  0  0  0
   -4.4135    0.1265    0.0006 H   0  0  0  0  0  0  0  0  0  0  0  0
  1  3  1  0  0  0  0
  1 12  1  0  0  0  0
  2  3  1  0  0  0  0
  2  4  1  0  0  0  0
  2  8  2  0  0  0  0
  3  5  2  0  0  0  0
  4  6  1  0  0  0  0
  4  9  2  0  0  0  0
  5  7  1  0  0  0  0
  5 10  1  0  0  0  0
  6  7  2  0  0  0  0
  6 14  1  0  0  0  0
  7 15  1  0  0  0  0
  8 11  1  0  0  0  0
  8 16  1  0  0  0  0
  9 13  1  0  0  0  0
  9 17  1  0  0  0  0
 10 12  2  0  0  0  0
 10 18  1  0  0  0  0
 11 13  2  0  0  0  0
 11 19  1  0  0  0  0
 12 20  1  0  0  0  0
 13 21  1  0  0  0  0
M  END
> <PUBCHEM_COMPOUND_CID>
9193

> <PUBCHEM_CONFORMER_RMSD>
0.4

> <PUBCHEM_CONFORMER_DIVERSEORDER>
1

> <PUBCHEM_MMFF94_PARTIAL_CHARGES>
18
1 -0.08
10 -0.15
11 -0.15
12 -0.11
13 -0.15
14 0.15
15 0.15
16 0.15
17 0.15
18 0.15
19 0.15
20 0.15
21 0.15
3 0.04
6 -0.15
7 -0.15
8 -0.15
9 -0.15

> <PUBCHEM_EFFECTIVE_ROTOR_COUNT>
0

> <PUBCHEM_PHARMACOPHORE_FEATURES>
3
5 1 3 5 10 12 rings
6 2 3 4 5 6 7 rings
6 2 4 8 9 11 13 rings

> <PUBCHEM_HEAVY_ATOM_COUNT>
13

> <PUBCHEM_ATOM_DEF_STEREO_COUNT>
0

> <PUBCHEM_ATOM_UDEF_STEREO_COUNT>
0

> <PUBCHEM_BOND_DEF_STEREO_COUNT>
0

> <PUBCHEM_BOND_UDEF_STEREO_COUNT>
0

> <PUBCHEM_ISOTOPIC_ATOM_COUNT>
0

> <PUBCHEM_COMPONENT_COUNT>
1

> <PUBCHEM_CACTVS_TAUTO_COUNT>
1

> <PUBCHEM_CONFORMER_ID>
000023E900000001

> <PUBCHEM_MMFF94_ENERGY>
35.3857

> <PUBCHEM_FEATURE_SELFOVERLAP>
15.304

> <PUBCHEM_SHAPE_FINGERPRINT>
10608611 8 18411140250851695749
10967382 1 18410855477308043972
11132069 177 18408891719518360592
11471102 20 18338521940607025621
12491281 212 18410563011541853585
13140716 1 18267021643949814939
13380535 76 18411140237987782426
13897977 150 18411140255436540581
14144814 61 18411700993281331496
14325111 11 18410855464470816224
14614273 12 18272378606703739805
15196674 1 18410573985167366340
15442244 35 18121499330214605170
15536298 74 18261394494269354830
15775835 57 18410569591405357496
16945 1 18410856568287934823
17844478 74 18272358746811665379
18186145 218 18261105300872455364
193761 8 17473826611578805764
20201158 50 18410293639893629107
20510252 161 18261388893183647361
20645476 183 17773299172186921454
20871998 184 18116988880172848727
21501502 16 18338520853827325275
21524375 3 18411140229487512106
2334 1 18050285860358878021
23402539 116 18263094248576615630
23402655 69 18263658410592068461
23463225 33 18270403905337177882
23552423 10 18340487867281483391
23559900 14 18261384560785193308
25 1 18339642346865516228
2748010 2 17977665303509117622
5084963 1 18186519890862902514
528886 8 18410579478425178898
53812653 166 18335143102598858104
6333449 129 18410014295204873029
69090 78 18260553285921529135
7364860 26 18191023602323394686

> <PUBCHEM_SHAPE_MULTIPOLES>
271.38
5.05
2.16
0.62
0.08
0.25
0
-1.39
0
0.1
0
0.01
-0.01
0

> <PUBCHEM_SHAPE_SELFOVERLAP>
600.323

> <PUBCHEM_SHAPE_VOLUME>
146

> <PUBCHEM_COORDINATE_TYPE>
2
5
10

$$$$

