5254
  -OEChem-06261200363D

 52 56  0     1  0  0  0  0  0999 V2000
   -3.2485   -1.6123   -0.0288 O   0  0  0  0  0  0  0  0  0  0  0  0
    1.5421   -1.4231   -0.1667 O   0  0  0  0  0  0  0  0  0  0  0  0
   -0.9885    2.6662    0.1355 O   0  0  0  0  0  0  0  0  0  0  0  0
   -3.5579    2.4563    0.0949 O   0  0  0  0  0  0  0  0  0  0  0  0
    0.0553    4.6971    0.2096 O   0  0  0  0  0  0  0  0  0  0  0  0
   -4.6845    0.3520   -0.0427 C   0  0  1  0  0  0  0  0  0  0  0  0
   -4.3537   -0.9829    0.6267 C   0  0  1  0  0  0  0  0  0  0  0  0
   -2.1345    0.5471    0.0533 C   0  0  0  0  0  0  0  0  0  0  0  0
   -2.1042   -0.8500   -0.0097 C   0  0  0  0  0  0  0  0  0  0  0  0
   -0.8761   -1.5286   -0.0916 C   0  0  0  0  0  0  0  0  0  0  0  0
    0.3263   -0.7970   -0.0711 C   0  0  0  0  0  0  0  0  0  0  0  0
   -3.4576    1.2347    0.0587 C   0  0  0  0  0  0  0  0  0  0  0  0
    1.6435   -2.8411    0.0574 C   0  0  0  0  0  0  0  0  0  0  0  0
    0.3214    0.6137    0.0057 C   0  0  0  0  0  0  0  0  0  0  0  0
   -0.9230    1.2563    0.0663 C   0  0  0  0  0  0  0  0  0  0  0  0
   -5.0999    0.2514   -1.5089 C   0  0  0  0  0  0  0  0  0  0  0  0
   -0.8245   -2.9846   -0.2061 C   0  0  0  0  0  0  0  0  0  0  0  0
    0.3575   -3.5973   -0.1274 C   0  0  0  0  0  0  0  0  0  0  0  0
   -5.5199   -1.9652    0.6035 C   0  0  0  0  0  0  0  0  0  0  0  0
    1.5468    1.4517    0.0219 C   0  0  0  0  0  0  0  0  0  0  0  0
    2.1726   -3.0493    1.4810 C   0  0  0  0  0  0  0  0  0  0  0  0
    2.6787   -3.3472   -0.9545 C   0  0  0  0  0  0  0  0  0  0  0  0
    1.4255    2.7877    0.0896 C   0  0  0  0  0  0  0  0  0  0  0  0
    2.9465    0.9770   -0.0276 C   0  0  0  0  0  0  0  0  0  0  0  0
    0.1306    3.4755    0.1495 C   0  0  0  0  0  0  0  0  0  0  0  0
    3.5775    0.8125   -1.2573 C   0  0  0  0  0  0  0  0  0  0  0  0
    3.6244    0.6983    1.1555 C   0  0  0  0  0  0  0  0  0  0  0  0
    4.8980    0.3652   -1.3042 C   0  0  0  0  0  0  0  0  0  0  0  0
    4.9448    0.2512    1.1087 C   0  0  0  0  0  0  0  0  0  0  0  0
    5.5815    0.0846   -0.1212 C   0  0  0  0  0  0  0  0  0  0  0  0
   -5.4868    0.8372    0.5277 H   0  0  0  0  0  0  0  0  0  0  0  0
   -4.0838   -0.8176    1.6803 H   0  0  0  0  0  0  0  0  0  0  0  0
   -6.0485   -0.2836   -1.6154 H   0  0  0  0  0  0  0  0  0  0  0  0
   -5.2348    1.2491   -1.9419 H   0  0  0  0  0  0  0  0  0  0  0  0
   -4.3463   -0.2643   -2.1135 H   0  0  0  0  0  0  0  0  0  0  0  0
   -1.7345   -3.5594   -0.3289 H   0  0  0  0  0  0  0  0  0  0  0  0
    0.3938   -4.6825   -0.1774 H   0  0  0  0  0  0  0  0  0  0  0  0
   -6.4183   -1.5287    1.0500 H   0  0  0  0  0  0  0  0  0  0  0  0
   -5.7498   -2.2950   -0.4149 H   0  0  0  0  0  0  0  0  0  0  0  0
   -5.2590   -2.8696    1.1646 H   0  0  0  0  0  0  0  0  0  0  0  0
    1.4759   -2.6416    2.2232 H   0  0  0  0  0  0  0  0  0  0  0  0
    2.3328   -4.1092    1.7068 H   0  0  0  0  0  0  0  0  0  0  0  0
    3.1210   -2.5198    1.6265 H   0  0  0  0  0  0  0  0  0  0  0  0
    3.6282   -2.8105   -0.8433 H   0  0  0  0  0  0  0  0  0  0  0  0
    2.8754   -4.4189   -0.8405 H   0  0  0  0  0  0  0  0  0  0  0  0
    2.3417   -3.1658   -1.9823 H   0  0  0  0  0  0  0  0  0  0  0  0
    2.2956    3.4402    0.1042 H   0  0  0  0  0  0  0  0  0  0  0  0
    3.0567    1.0252   -2.1875 H   0  0  0  0  0  0  0  0  0  0  0  0
    3.1403    0.8207    2.1212 H   0  0  0  0  0  0  0  0  0  0  0  0
    5.3933    0.2341   -2.2618 H   0  0  0  0  0  0  0  0  0  0  0  0
    5.4767    0.0311    2.0297 H   0  0  0  0  0  0  0  0  0  0  0  0
    6.6093   -0.2647   -0.1577 H   0  0  0  0  0  0  0  0  0  0  0  0
  1  7  1  0  0  0  0
  1  9  1  0  0  0  0
  2 11  1  0  0  0  0
  2 13  1  0  0  0  0
  3 15  1  0  0  0  0
  3 25  1  0  0  0  0
  4 12  2  0  0  0  0
  5 25  2  0  0  0  0
  6  7  1  0  0  0  0
  6 12  1  0  0  0  0
  6 16  1  0  0  0  0
  6 31  1  0  0  0  0
  7 19  1  0  0  0  0
  7 32  1  0  0  0  0
  8  9  2  0  0  0  0
  8 12  1  0  0  0  0
  8 15  1  0  0  0  0
  9 10  1  0  0  0  0
 10 11  2  0  0  0  0
 10 17  1  0  0  0  0
 11 14  1  0  0  0  0
 13 18  1  0  0  0  0
 13 21  1  0  0  0  0
 13 22  1  0  0  0  0
 14 15  2  0  0  0  0
 14 20  1  0  0  0  0
 16 33  1  0  0  0  0
 16 34  1  0  0  0  0
 16 35  1  0  0  0  0
 17 18  2  0  0  0  0
 17 36  1  0  0  0  0
 18 37  1  0  0  0  0
 19 38  1  0  0  0  0
 19 39  1  0  0  0  0
 19 40  1  0  0  0  0
 20 23  2  0  0  0  0
 20 24  1  0  0  0  0
 21 41  1  0  0  0  0
 21 42  1  0  0  0  0
 21 43  1  0  0  0  0
 22 44  1  0  0  0  0
 22 45  1  0  0  0  0
 22 46  1  0  0  0  0
 23 25  1  0  0  0  0
 23 47  1  0  0  0  0
 24 26  2  0  0  0  0
 24 27  1  0  0  0  0
 26 28  1  0  0  0  0
 26 48  1  0  0  0  0
 27 29  2  0  0  0  0
 27 49  1  0  0  0  0
 28 30  2  0  0  0  0
 28 50  1  0  0  0  0
 29 30  1  0  0  0  0
 29 51  1  0  0  0  0
 30 52  1  0  0  0  0
M  END
> <PUBCHEM_COMPOUND_CID>
5254

> <PUBCHEM_CONFORMER_RMSD>
0.6

> <PUBCHEM_CONFORMER_DIVERSEORDER>
1
2

> <PUBCHEM_MMFF94_PARTIAL_CHARGES>
34
1 -0.36
10 0.03
11 0.08
12 0.42
13 0.42
14 0.03
15 0.08
17 -0.18
18 -0.29
2 -0.36
20 -0.06
23 -0.14
24 0.03
25 0.71
26 -0.15
27 -0.15
28 -0.15
29 -0.15
3 -0.23
30 -0.15
36 0.15
37 0.15
4 -0.57
47 0.15
48 0.15
49 0.15
5 -0.57
50 0.15
51 0.15
52 0.15
6 0.06
7 0.28
8 0.09
9 0.08

> <PUBCHEM_EFFECTIVE_ROTOR_COUNT>
2

> <PUBCHEM_PHARMACOPHORE_FEATURES>
10
1 1 acceptor
1 2 acceptor
1 4 acceptor
1 5 acceptor
3 13 21 22 hydrophobe
6 1 6 7 8 9 12 rings
6 2 10 11 13 17 18 rings
6 24 26 27 28 29 30 rings
6 3 14 15 20 23 25 rings
6 8 9 10 11 14 15 rings

> <PUBCHEM_HEAVY_ATOM_COUNT>
30

> <PUBCHEM_ATOM_DEF_STEREO_COUNT>
0

> <PUBCHEM_ATOM_UDEF_STEREO_COUNT>
2

> <PUBCHEM_BOND_DEF_STEREO_COUNT>
0

> <PUBCHEM_BOND_UDEF_STEREO_COUNT>
0

> <PUBCHEM_ISOTOPIC_ATOM_COUNT>
0

> <PUBCHEM_COMPONENT_COUNT>
1

> <PUBCHEM_CACTVS_TAUTO_COUNT>
2

> <PUBCHEM_CONFORMER_ID>
0000148600000001

> <PUBCHEM_MMFF94_ENERGY>
109.9405

> <PUBCHEM_FEATURE_SELFOVERLAP>
50.823

> <PUBCHEM_SHAPE_FINGERPRINT>
10675989 125 17334229308693538909
10693767 8 18113628905930214183
10967382 1 18410012152058403303
1100329 8 18194119612107675179
11513181 2 17897168129026460927
11578080 2 17058665177053522119
11646440 116 18187355493877487393
11963148 33 18270403776389153875
12236239 1 17775005670357876628
12422481 6 18124057829970741778
12553582 1 18410018697451360392
12592029 89 18412258407006344171
12788726 201 18340194238154252864
12838862 33 18266480774808669600
13140716 1 17979636728105847963
13402501 40 18410291384903890934
138480 1 18338233868655448219
13911987 19 18341885264861427036
14394314 77 18410575089333275120
14466204 15 18410578357628898232
14790565 3 18339351981597465188
14955137 171 18339351959842313595
15081414 286 18336254700248916963
15420108 30 17753866596893153921
1601671 61 18412545405231473000
16112460 7 18118103802006289137
17909252 39 17970331832263331334
18681886 176 18342455903455166932
19319366 153 17774448153617167786
19591789 44 18338514144845666380
20028762 73 18043249033587426191
20691752 17 17559662035537599130
20721686 56 18339078311024698490
20739085 24 18120346977973503849
20775438 99 16743719628043518535
20905425 154 18190736634468179806
21033648 29 17749119871830382801
21267235 1 18339071610146923777
21421861 104 18056194923952214664
22113638 7 18337397019704761204
22311459 1 18338232657601602603
2334 1 18410575119228708011
23558518 356 17910951671195540688
23559900 14 17975701902196893130
266924 87 18266744773310479420
3004659 81 18201997703948537892
3178227 256 18268976597673869747
3298306 158 18341618100747141327
335352 9 18337952282056976573
3380486 145 18269821164575987705
338550 245 18341891892354459094
350125 39 18339919317033566985
4093350 32 17313371388383152119
469060 322 18337373998791318865
484989 97 18124319299079730647
5104073 3 18339918342250259859
5265222 85 18264201419365391724
6138700 20 18410289238101075846

> <PUBCHEM_SHAPE_MULTIPOLES>
588.04
10.16
4.64
1.03
2.84
0.4
0.07
-0.55
0.58
-0.65
-0.32
-0.58
-0.25
0.26

> <PUBCHEM_SHAPE_SELFOVERLAP>
1316.468

> <PUBCHEM_SHAPE_VOLUME>
311.7

> <PUBCHEM_COORDINATE_TYPE>
2
5
10

$$$$

