583277
  -OEChem-06241222453D

 29 28  0     1  0  0  0  0  0999 V2000
    1.9654    0.2811    0.4041 O   0  0  0  0  0  0  0  0  0  0  0  0
   -1.9839   -2.2925    0.9784 O   0  0  0  0  0  0  0  0  0  0  0  0
    1.3124   -1.0385   -1.3662 O   0  0  0  0  0  0  0  0  0  0  0  0
   -0.9190   -2.4795   -1.0127 O   0  0  0  0  0  0  0  0  0  0  0  0
   -0.8364    0.3568    1.0343 C   0  0  0  0  0  0  0  0  0  0  0  0
   -1.5403    1.0309   -0.1510 C   0  0  0  0  0  0  0  0  0  0  0  0
   -0.0565   -0.9141    0.6528 C   0  0  2  0  0  0  0  0  0  0  0  0
   -2.2460    2.3158    0.2854 C   0  0  0  0  0  0  0  0  0  0  0  0
    1.1292   -0.5848   -0.2445 C   0  0  0  0  0  0  0  0  0  0  0  0
   -2.9153    3.0105   -0.8897 C   0  0  0  0  0  0  0  0  0  0  0  0
   -1.0009   -1.9697    0.0966 C   0  0  0  0  0  0  0  0  0  0  0  0
    3.1393    0.6653   -0.3188 C   0  0  0  0  0  0  0  0  0  0  0  0
    3.9519    1.6186    0.5312 C   0  0  0  0  0  0  0  0  0  0  0  0
   -1.5871    0.1118    1.7965 H   0  0  0  0  0  0  0  0  0  0  0  0
   -0.1574    1.0798    1.5036 H   0  0  0  0  0  0  0  0  0  0  0  0
   -2.2745    0.3474   -0.5927 H   0  0  0  0  0  0  0  0  0  0  0  0
   -0.8086    1.2692   -0.9318 H   0  0  0  0  0  0  0  0  0  0  0  0
    0.3780   -1.3608    1.5581 H   0  0  0  0  0  0  0  0  0  0  0  0
   -3.0007    2.0857    1.0465 H   0  0  0  0  0  0  0  0  0  0  0  0
   -1.5230    3.0020    0.7417 H   0  0  0  0  0  0  0  0  0  0  0  0
   -2.1808    3.2843   -1.6539 H   0  0  0  0  0  0  0  0  0  0  0  0
   -3.4144    3.9252   -0.5551 H   0  0  0  0  0  0  0  0  0  0  0  0
   -3.6670    2.3627   -1.3518 H   0  0  0  0  0  0  0  0  0  0  0  0
    3.7347   -0.2254   -0.5483 H   0  0  0  0  0  0  0  0  0  0  0  0
    2.8475    1.1588   -1.2525 H   0  0  0  0  0  0  0  0  0  0  0  0
    4.8587    1.9338    0.0076 H   0  0  0  0  0  0  0  0  0  0  0  0
    3.3629    2.5063    0.7845 H   0  0  0  0  0  0  0  0  0  0  0  0
    4.2358    1.1452    1.4769 H   0  0  0  0  0  0  0  0  0  0  0  0
   -2.5943   -2.9681    0.6134 H   0  0  0  0  0  0  0  0  0  0  0  0
  1  9  1  0  0  0  0
  1 12  1  0  0  0  0
  2 11  1  0  0  0  0
  2 29  1  0  0  0  0
  3  9  2  0  0  0  0
  4 11  2  0  0  0  0
  5  6  1  0  0  0  0
  5  7  1  0  0  0  0
  5 14  1  0  0  0  0
  5 15  1  0  0  0  0
  6  8  1  0  0  0  0
  6 16  1  0  0  0  0
  6 17  1  0  0  0  0
  7  9  1  0  0  0  0
  7 11  1  0  0  0  0
  7 18  1  0  0  0  0
  8 10  1  0  0  0  0
  8 19  1  0  0  0  0
  8 20  1  0  0  0  0
 10 21  1  0  0  0  0
 10 22  1  0  0  0  0
 10 23  1  0  0  0  0
 12 13  1  0  0  0  0
 12 24  1  0  0  0  0
 12 25  1  0  0  0  0
 13 26  1  0  0  0  0
 13 27  1  0  0  0  0
 13 28  1  0  0  0  0
M  END
> <PUBCHEM_COMPOUND_CID>
583277

> <PUBCHEM_CONFORMER_RMSD>
0.8

> <PUBCHEM_CONFORMER_DIVERSEORDER>
1
31
71
73
3
126
105
56
77
47
123
125
21
54
111
117
10
114
80
68
110
8
74
34
129
15
113
120
66
44
119
6
2
25
100
128
115
90
118
7
82
112
67
70
101
127
45
35
78
38
122
87
49
18
30
84
107
57
95
85
106
5
64
16
97
39
59
96
91
62
20
102
103
33
4
76
50
27
86
60
9
42
29
92
83
36
58
65
28
12
79
52
121
81
32
116
26
14
124
88
104
22
24
89
48
41
98
55
63
51
94
43
11
75
109
40
99
17
37
93
69
46
53
13
108
72
23
19
61

> <PUBCHEM_MMFF94_PARTIAL_CHARGES>
9
1 -0.43
11 0.66
12 0.28
2 -0.65
29 0.5
3 -0.57
4 -0.57
7 0.12
9 0.66

> <PUBCHEM_EFFECTIVE_ROTOR_COUNT>
7

> <PUBCHEM_PHARMACOPHORE_FEATURES>
7
1 10 hydrophobe
1 2 acceptor
1 3 acceptor
1 4 acceptor
1 7 anion
3 2 4 11 anion
4 5 6 7 8 hydrophobe

> <PUBCHEM_HEAVY_ATOM_COUNT>
13

> <PUBCHEM_ATOM_DEF_STEREO_COUNT>
0

> <PUBCHEM_ATOM_UDEF_STEREO_COUNT>
1

> <PUBCHEM_BOND_DEF_STEREO_COUNT>
0

> <PUBCHEM_BOND_UDEF_STEREO_COUNT>
0

> <PUBCHEM_ISOTOPIC_ATOM_COUNT>
0

> <PUBCHEM_COMPONENT_COUNT>
1

> <PUBCHEM_CACTVS_TAUTO_COUNT>
1

> <PUBCHEM_CONFORMER_ID>
0008E66D00000001

> <PUBCHEM_MMFF94_ENERGY>
7.8618

> <PUBCHEM_FEATURE_SELFOVERLAP>
35.832

> <PUBCHEM_SHAPE_FINGERPRINT>
1 1 17908985748625840343
10149128 76 18337673134652294856
12138202 97 18334575754551290382
14614273 12 18188198798058661354
14817 1 10281985762278715403
1741750 31 18408606993515488992
18186145 218 18045494467858261793
20388701 513 18340193090754107883
20605781 55 18338238279191696532
20645477 56 18335693923807514440
20711985 344 18195828283289281859
20820808 20 18119255214229807665
21339142 126 18191868924917424754
21499 59 18267031741750860549
21524375 3 18268997663961162777
220403 375 18339640156490379947
23402539 116 18118408349853255399
25 1 17903904905225303284
2748010 2 18265031695417813960
3060560 45 17833276698010293229
3250762 1 18335969965371248190
7364860 26 17545608210960556333
81228 2 18196349477781732427

> <PUBCHEM_SHAPE_MULTIPOLES>
244.06
4.97
3.32
1.07
3.3
0.36
0.1
-5.5
0.16
-2.67
0.35
-0.11
0.21
0.95

> <PUBCHEM_SHAPE_SELFOVERLAP>
460.337

> <PUBCHEM_SHAPE_VOLUME>
151

> <PUBCHEM_COORDINATE_TYPE>
2
5
10

$$$$

