12010
  -OEChem-06261206233D

 20 19  0     0  0  0  0  0  0999 V2000
   -0.7705   -2.3928   -1.1099 S   0  0  0  0  0  0  0  0  0  0  0  0
    0.5632   -0.9268    2.0865 S   0  0  0  0  0  0  0  0  0  0  0  0
   -1.8094   -0.1286   -0.3960 O   0  0  0  0  0  0  0  0  0  0  0  0
    1.3285    0.0990   -0.2999 O   0  0  0  0  0  0  0  0  0  0  0  0
   -1.8101    1.1519    0.2573 C   0  0  0  0  0  0  0  0  0  0  0  0
    2.5797    0.5848    0.2200 C   0  0  0  0  0  0  0  0  0  0  0  0
   -3.1186    1.8544   -0.0358 C   0  0  0  0  0  0  0  0  0  0  0  0
    3.3518    1.2534   -0.8974 C   0  0  0  0  0  0  0  0  0  0  0  0
   -0.7609   -0.9440   -0.3047 C   0  0  0  0  0  0  0  0  0  0  0  0
    0.4462   -0.5514    0.4800 C   0  0  0  0  0  0  0  0  0  0  0  0
   -1.7182    1.0158    1.3388 H   0  0  0  0  0  0  0  0  0  0  0  0
   -0.9758    1.7551   -0.1159 H   0  0  0  0  0  0  0  0  0  0  0  0
    2.3868    1.3125    1.0155 H   0  0  0  0  0  0  0  0  0  0  0  0
    3.1639   -0.2539    0.6136 H   0  0  0  0  0  0  0  0  0  0  0  0
   -3.1541    2.8341    0.4488 H   0  0  0  0  0  0  0  0  0  0  0  0
   -3.2502    1.9884   -1.1146 H   0  0  0  0  0  0  0  0  0  0  0  0
   -3.9650    1.2549    0.3154 H   0  0  0  0  0  0  0  0  0  0  0  0
    4.3106    1.6359   -0.5366 H   0  0  0  0  0  0  0  0  0  0  0  0
    3.5369    0.5473   -1.7136 H   0  0  0  0  0  0  0  0  0  0  0  0
    2.7760    2.0834   -1.3201 H   0  0  0  0  0  0  0  0  0  0  0  0
  1  9  2  0  0  0  0
  2 10  2  0  0  0  0
  3  5  1  0  0  0  0
  3  9  1  0  0  0  0
  4  6  1  0  0  0  0
  4 10  1  0  0  0  0
  5  7  1  0  0  0  0
  5 11  1  0  0  0  0
  5 12  1  0  0  0  0
  6  8  1  0  0  0  0
  6 13  1  0  0  0  0
  6 14  1  0  0  0  0
  7 15  1  0  0  0  0
  7 16  1  0  0  0  0
  7 17  1  0  0  0  0
  8 18  1  0  0  0  0
  8 19  1  0  0  0  0
  8 20  1  0  0  0  0
  9 10  1  0  0  0  0
M  END
> <PUBCHEM_COMPOUND_CID>
12010

> <PUBCHEM_CONFORMER_RMSD>
0.6

> <PUBCHEM_CONFORMER_DIVERSEORDER>
1
53
55
50
14
17
67
25
66
51
57
8
19
23
3
63
20
4
42
24
39
36
52
54
64
61
56
37
32
46
45
40
2
26
16
65
21
59
27
31
43
18
33
58
41
47
28
15
30
11
29
62
35
22
13
48
44
6
38
5
49
7
9
34
10
12
60

> <PUBCHEM_MMFF94_PARTIAL_CHARGES>
8
1 -0.38
10 0.53
2 -0.38
3 -0.43
4 -0.43
5 0.28
6 0.28
9 0.53

> <PUBCHEM_EFFECTIVE_ROTOR_COUNT>
5

> <PUBCHEM_PHARMACOPHORE_FEATURES>
2
1 1 acceptor
1 2 acceptor

> <PUBCHEM_HEAVY_ATOM_COUNT>
10

> <PUBCHEM_ATOM_DEF_STEREO_COUNT>
0

> <PUBCHEM_ATOM_UDEF_STEREO_COUNT>
0

> <PUBCHEM_BOND_DEF_STEREO_COUNT>
0

> <PUBCHEM_BOND_UDEF_STEREO_COUNT>
0

> <PUBCHEM_ISOTOPIC_ATOM_COUNT>
0

> <PUBCHEM_COMPONENT_COUNT>
1

> <PUBCHEM_CACTVS_TAUTO_COUNT>
1

> <PUBCHEM_CONFORMER_ID>
00002EEA00000001

> <PUBCHEM_MMFF94_ENERGY>
30.2892

> <PUBCHEM_FEATURE_SELFOVERLAP>
10.149

> <PUBCHEM_SHAPE_FINGERPRINT>
12716758 59 18114186298195472754
12932764 1 18116142269589191858
14648413 74 17761481891799656129
14817 1 7404872047610687251
15775835 57 18343580763241400228
170605 34 18200025278308026897
18342897 96 18271803484612528260
19837323 101 18334009467313425431
20645477 56 18188202101120808872
20653085 51 18339346514171928560
20711978 78 16628576914355387651
20711985 344 17971776383871881111
21040471 1 17970088783910163339
21524375 3 18341896328607276129
21930827 45 17749970876713779987
228727 97 17913226277053504239
430814 3 18272936050166001113
68419 9 18124629467915008522
76951 1 16910282874354767147

> <PUBCHEM_SHAPE_MULTIPOLES>
201.76
4.32
2.22
1.44
1.51
0.63
-0.84
-3.9
1.19
-1.36
0.72
0.5
0.68
-0.82

> <PUBCHEM_SHAPE_SELFOVERLAP>
355.015

> <PUBCHEM_SHAPE_VOLUME>
134.4

> <PUBCHEM_COORDINATE_TYPE>
2
5
10

$$$$

