10121
  -OEChem-06261204202D

 96 96  0     0  0  0  0  0  0999 V2000
   24.5167    0.5000    0.0000 C   0  0  0  0  0  0  0  0  0  0  0  0
   25.3827    0.0000    0.0000 C   0  0  0  0  0  0  0  0  0  0  0  0
   25.3827   -1.0000    0.0000 C   0  0  0  0  0  0  0  0  0  0  0  0
   23.6506    0.0000    0.0000 C   0  0  0  0  0  0  0  0  0  0  0  0
   24.5167   -1.5000    0.0000 C   0  0  0  0  0  0  0  0  0  0  0  0
   23.6506   -1.0000    0.0000 C   0  0  0  0  0  0  0  0  0  0  0  0
   25.0167    1.3660    0.0000 C   0  0  0  0  0  0  0  0  0  0  0  0
   24.0167    1.3660    0.0000 C   0  0  0  0  0  0  0  0  0  0  0  0
   22.7846    0.5000    0.0000 C   0  0  0  0  0  0  0  0  0  0  0  0
   22.7846   -1.5000    0.0000 C   0  0  0  0  0  0  0  0  0  0  0  0
   21.9186    0.0000    0.0000 C   0  0  0  0  0  0  0  0  0  0  0  0
   21.0526    0.5000    0.0000 C   0  0  0  0  0  0  0  0  0  0  0  0
   21.0526    1.5000    0.0000 C   0  0  0  0  0  0  0  0  0  0  0  0
   20.1865    0.0000    0.0000 C   0  0  0  0  0  0  0  0  0  0  0  0
   19.3205    0.5000    0.0000 C   0  0  0  0  0  0  0  0  0  0  0  0
   18.4545    0.0000    0.0000 C   0  0  0  0  0  0  0  0  0  0  0  0
   17.5885    0.5000    0.0000 C   0  0  0  0  0  0  0  0  0  0  0  0
   17.5885    1.5000    0.0000 C   0  0  0  0  0  0  0  0  0  0  0  0
   16.7224    0.0000    0.0000 C   0  0  0  0  0  0  0  0  0  0  0  0
    5.4641    0.5000    0.0000 C   0  0  0  0  0  0  0  0  0  0  0  0
    4.5981    0.0000    0.0000 C   0  0  0  0  0  0  0  0  0  0  0  0
    6.3301    0.0000    0.0000 C   0  0  0  0  0  0  0  0  0  0  0  0
    3.7320    0.5000    0.0000 C   0  0  0  0  0  0  0  0  0  0  0  0
   15.8564    0.5000    0.0000 C   0  0  0  0  0  0  0  0  0  0  0  0
    2.8660    0.0000    0.0000 C   0  0  0  0  0  0  0  0  0  0  0  0
    6.3301   -1.0000    0.0000 C   0  0  0  0  0  0  0  0  0  0  0  0
    7.1962    0.5000    0.0000 C   0  0  0  0  0  0  0  0  0  0  0  0
    2.0000    0.5000    0.0000 C   0  0  0  0  0  0  0  0  0  0  0  0
    2.8660   -1.0000    0.0000 C   0  0  0  0  0  0  0  0  0  0  0  0
   14.9904    0.0000    0.0000 C   0  0  0  0  0  0  0  0  0  0  0  0
    8.0622    0.0000    0.0000 C   0  0  0  0  0  0  0  0  0  0  0  0
    8.9282    0.5000    0.0000 C   0  0  0  0  0  0  0  0  0  0  0  0
    9.7942    0.0000    0.0000 C   0  0  0  0  0  0  0  0  0  0  0  0
   14.1244    0.5000    0.0000 C   0  0  0  0  0  0  0  0  0  0  0  0
   13.2583    0.0000    0.0000 C   0  0  0  0  0  0  0  0  0  0  0  0
   10.6603    0.5000    0.0000 C   0  0  0  0  0  0  0  0  0  0  0  0
    9.7942   -1.0000    0.0000 C   0  0  0  0  0  0  0  0  0  0  0  0
   12.3923    0.5000    0.0000 C   0  0  0  0  0  0  0  0  0  0  0  0
   11.5263    0.0000    0.0000 C   0  0  0  0  0  0  0  0  0  0  0  0
   13.2583   -1.0000    0.0000 C   0  0  0  0  0  0  0  0  0  0  0  0
   25.9933   -0.1077    0.0000 H   0  0  0  0  0  0  0  0  0  0  0  0
   25.5947    0.5826    0.0000 H   0  0  0  0  0  0  0  0  0  0  0  0
   25.5947   -1.5826    0.0000 H   0  0  0  0  0  0  0  0  0  0  0  0
   25.9933   -0.8923    0.0000 H   0  0  0  0  0  0  0  0  0  0  0  0
   24.1181   -1.9750    0.0000 H   0  0  0  0  0  0  0  0  0  0  0  0
   24.9152   -1.9750    0.0000 H   0  0  0  0  0  0  0  0  0  0  0  0
   25.5536    1.0560    0.0000 H   0  0  0  0  0  0  0  0  0  0  0  0
   25.3267    1.9030    0.0000 H   0  0  0  0  0  0  0  0  0  0  0  0
   24.4797    1.6760    0.0000 H   0  0  0  0  0  0  0  0  0  0  0  0
   24.5536    1.6760    0.0000 H   0  0  0  0  0  0  0  0  0  0  0  0
   23.7067    1.9030    0.0000 H   0  0  0  0  0  0  0  0  0  0  0  0
   23.4797    1.0560    0.0000 H   0  0  0  0  0  0  0  0  0  0  0  0
   22.7846    1.1200    0.0000 H   0  0  0  0  0  0  0  0  0  0  0  0
   22.4746   -0.9631    0.0000 H   0  0  0  0  0  0  0  0  0  0  0  0
   22.2477   -1.8100    0.0000 H   0  0  0  0  0  0  0  0  0  0  0  0
   23.0946   -2.0369    0.0000 H   0  0  0  0  0  0  0  0  0  0  0  0
   21.9186   -0.6200    0.0000 H   0  0  0  0  0  0  0  0  0  0  0  0
   21.6726    1.5000    0.0000 H   0  0  0  0  0  0  0  0  0  0  0  0
   21.0526    2.1200    0.0000 H   0  0  0  0  0  0  0  0  0  0  0  0
   20.4326    1.5000    0.0000 H   0  0  0  0  0  0  0  0  0  0  0  0
   20.1865   -0.6200    0.0000 H   0  0  0  0  0  0  0  0  0  0  0  0
   19.3205    1.1200    0.0000 H   0  0  0  0  0  0  0  0  0  0  0  0
   18.4545   -0.6200    0.0000 H   0  0  0  0  0  0  0  0  0  0  0  0
   18.2085    1.5000    0.0000 H   0  0  0  0  0  0  0  0  0  0  0  0
   17.5885    2.1200    0.0000 H   0  0  0  0  0  0  0  0  0  0  0  0
   16.9685    1.5000    0.0000 H   0  0  0  0  0  0  0  0  0  0  0  0
   16.7224   -0.6200    0.0000 H   0  0  0  0  0  0  0  0  0  0  0  0
    5.8626    0.9749    0.0000 H   0  0  0  0  0  0  0  0  0  0  0  0
    5.0656    0.9749    0.0000 H   0  0  0  0  0  0  0  0  0  0  0  0
    4.1996   -0.4749    0.0000 H   0  0  0  0  0  0  0  0  0  0  0  0
    4.9966   -0.4749    0.0000 H   0  0  0  0  0  0  0  0  0  0  0  0
    3.7320    1.1200    0.0000 H   0  0  0  0  0  0  0  0  0  0  0  0
   15.8564    1.1200    0.0000 H   0  0  0  0  0  0  0  0  0  0  0  0
    5.7101   -1.0000    0.0000 H   0  0  0  0  0  0  0  0  0  0  0  0
    6.3301   -1.6200    0.0000 H   0  0  0  0  0  0  0  0  0  0  0  0
    6.9501   -1.0000    0.0000 H   0  0  0  0  0  0  0  0  0  0  0  0
    7.1962    1.1200    0.0000 H   0  0  0  0  0  0  0  0  0  0  0  0
    2.3100    1.0369    0.0000 H   0  0  0  0  0  0  0  0  0  0  0  0
    1.4631    0.8100    0.0000 H   0  0  0  0  0  0  0  0  0  0  0  0
    1.6900   -0.0369    0.0000 H   0  0  0  0  0  0  0  0  0  0  0  0
    2.2460   -1.0000    0.0000 H   0  0  0  0  0  0  0  0  0  0  0  0
    2.8660   -1.6200    0.0000 H   0  0  0  0  0  0  0  0  0  0  0  0
    3.4860   -1.0000    0.0000 H   0  0  0  0  0  0  0  0  0  0  0  0
    8.0622   -0.6200    0.0000 H   0  0  0  0  0  0  0  0  0  0  0  0
   14.9904   -0.6200    0.0000 H   0  0  0  0  0  0  0  0  0  0  0  0
    8.9282    1.1200    0.0000 H   0  0  0  0  0  0  0  0  0  0  0  0
   14.1244    1.1200    0.0000 H   0  0  0  0  0  0  0  0  0  0  0  0
   10.6603    1.1200    0.0000 H   0  0  0  0  0  0  0  0  0  0  0  0
    9.1742   -1.0000    0.0000 H   0  0  0  0  0  0  0  0  0  0  0  0
    9.7942   -1.6200    0.0000 H   0  0  0  0  0  0  0  0  0  0  0  0
   10.4142   -1.0000    0.0000 H   0  0  0  0  0  0  0  0  0  0  0  0
   12.3923    1.1200    0.0000 H   0  0  0  0  0  0  0  0  0  0  0  0
   11.5263   -0.6200    0.0000 H   0  0  0  0  0  0  0  0  0  0  0  0
   12.6383   -1.0000    0.0000 H   0  0  0  0  0  0  0  0  0  0  0  0
   13.2583   -1.6200    0.0000 H   0  0  0  0  0  0  0  0  0  0  0  0
   13.8783   -1.0000    0.0000 H   0  0  0  0  0  0  0  0  0  0  0  0
  1  2  1  0  0  0  0
  1  4  1  0  0  0  0
  1  7  1  0  0  0  0
  1  8  1  0  0  0  0
  2  3  1  0  0  0  0
  2 41  1  0  0  0  0
  2 42  1  0  0  0  0
  3  5  1  0  0  0  0
  3 43  1  0  0  0  0
  3 44  1  0  0  0  0
  4  6  2  0  0  0  0
  4  9  1  0  0  0  0
  5  6  1  0  0  0  0
  5 45  1  0  0  0  0
  5 46  1  0  0  0  0
  6 10  1  0  0  0  0
  7 47  1  0  0  0  0
  7 48  1  0  0  0  0
  7 49  1  0  0  0  0
  8 50  1  0  0  0  0
  8 51  1  0  0  0  0
  8 52  1  0  0  0  0
  9 11  2  3  0  0  0
  9 53  1  0  0  0  0
 10 54  1  0  0  0  0
 10 55  1  0  0  0  0
 10 56  1  0  0  0  0
 11 12  1  0  0  0  0
 11 57  1  0  0  0  0
 12 13  1  0  0  0  0
 12 14  2  3  0  0  0
 13 58  1  0  0  0  0
 13 59  1  0  0  0  0
 13 60  1  0  0  0  0
 14 15  1  0  0  0  0
 14 61  1  0  0  0  0
 15 16  2  3  0  0  0
 15 62  1  0  0  0  0
 16 17  1  0  0  0  0
 16 63  1  0  0  0  0
 17 18  1  0  0  0  0
 17 19  2  3  0  0  0
 18 64  1  0  0  0  0
 18 65  1  0  0  0  0
 18 66  1  0  0  0  0
 19 24  1  0  0  0  0
 19 67  1  0  0  0  0
 20 21  1  0  0  0  0
 20 22  1  0  0  0  0
 20 68  1  0  0  0  0
 20 69  1  0  0  0  0
 21 23  1  0  0  0  0
 21 70  1  0  0  0  0
 21 71  1  0  0  0  0
 22 26  1  0  0  0  0
 22 27  2  3  0  0  0
 23 25  2  0  0  0  0
 23 72  1  0  0  0  0
 24 30  2  3  0  0  0
 24 73  1  0  0  0  0
 25 28  1  0  0  0  0
 25 29  1  0  0  0  0
 26 74  1  0  0  0  0
 26 75  1  0  0  0  0
 26 76  1  0  0  0  0
 27 31  1  0  0  0  0
 27 77  1  0  0  0  0
 28 78  1  0  0  0  0
 28 79  1  0  0  0  0
 28 80  1  0  0  0  0
 29 81  1  0  0  0  0
 29 82  1  0  0  0  0
 29 83  1  0  0  0  0
 30 34  1  0  0  0  0
 30 85  1  0  0  0  0
 31 32  2  3  0  0  0
 31 84  1  0  0  0  0
 32 33  1  0  0  0  0
 32 86  1  0  0  0  0
 33 36  2  3  0  0  0
 33 37  1  0  0  0  0
 34 35  2  3  0  0  0
 34 87  1  0  0  0  0
 35 38  1  0  0  0  0
 35 40  1  0  0  0  0
 36 39  1  0  0  0  0
 36 88  1  0  0  0  0
 37 89  1  0  0  0  0
 37 90  1  0  0  0  0
 37 91  1  0  0  0  0
 38 39  2  3  0  0  0
 38 92  1  0  0  0  0
 39 93  1  0  0  0  0
 40 94  1  0  0  0  0
 40 95  1  0  0  0  0
 40 96  1  0  0  0  0
M  END
> <PUBCHEM_COMPOUND_CID>
10121

> <PUBCHEM_COMPOUND_CANONICALIZED>
1

> <PUBCHEM_CACTVS_COMPLEXITY>
1180

> <PUBCHEM_CACTVS_HBOND_ACCEPTOR>
0

> <PUBCHEM_CACTVS_HBOND_DONOR>
0

> <PUBCHEM_CACTVS_ROTATABLE_BOND>
13

> <PUBCHEM_CACTVS_SUBSKEYS>
AAADcfB8AAAAAAAAAAAAAAAAAAAAAAAAAAAgAAAAAAAAAAAAAAAAGAAAAAAADgCAAAACAAAAAACAAiBCAAAAAAAgAAAICAAAAAgIAAIAAQAAAAAAgAAIgAMAgMAPAAAAAAAAAAAAAAAAAAAAAAAAAAAAAA==

> <PUBCHEM_IUPAC_OPENEYE_NAME>
2-(3,7,12,16,20,24-hexamethylpentacosa-1,3,5,7,9,11,13,15,17,19,23-undecaenyl)-1,3,3-trimethyl-cyclohexene

> <PUBCHEM_IUPAC_CAS_NAME>
2-(3,7,12,16,20,24-hexamethylpentacosa-1,3,5,7,9,11,13,15,17,19,23-undecaenyl)-1,3,3-trimethylcyclohexene

> <PUBCHEM_IUPAC_NAME>
2-(3,7,12,16,20,24-hexamethylpentacosa-1,3,5,7,9,11,13,15,17,19,23-undecaenyl)-1,3,3-trimethylcyclohexene

> <PUBCHEM_IUPAC_SYSTEMATIC_NAME>
2-(3,7,12,16,20,24-hexamethylpentacosa-1,3,5,7,9,11,13,15,17,19,23-undecaenyl)-1,3,3-trimethyl-cyclohexene

> <PUBCHEM_IUPAC_TRADITIONAL_NAME>
2-(3,7,12,16,20,24-hexamethylpentacosa-1,3,5,7,9,11,13,15,17,19,23-undecaenyl)-1,3,3-trimethyl-cyclohexene

> <PUBCHEM_IUPAC_INCHI>
InChI=1S/C40H56/c1-32(2)18-13-21-35(5)24-15-26-36(6)25-14-22-33(3)19-11-12-20-34(4)23-16-27-37(7)29-30-39-38(8)28-17-31-40(39,9)10/h11-12,14-16,18-20,22-27,29-30H,13,17,21,28,31H2,1-10H3

> <PUBCHEM_IUPAC_INCHIKEY>
HRQKOYFGHJYEFS-UHFFFAOYSA-N

> <PUBCHEM_XLOGP3>
14.5

> <PUBCHEM_EXACT_MASS>
536.438202

> <PUBCHEM_MOLECULAR_FORMULA>
C40H56

> <PUBCHEM_MOLECULAR_WEIGHT>
536.87264

> <PUBCHEM_OPENEYE_CAN_SMILES>
CC1=C(C(CCC1)(C)C)C=CC(=CC=CC(=CC=CC=C(C)C=CC=C(C)C=CC=C(C)CCC=C(C)C)C)C

> <PUBCHEM_OPENEYE_ISO_SMILES>
CC1=C(C(CCC1)(C)C)C=CC(=CC=CC(=CC=CC=C(C)C=CC=C(C)C=CC=C(C)CCC=C(C)C)C)C

> <PUBCHEM_CACTVS_TPSA>
0

> <PUBCHEM_MONOISOTOPIC_WEIGHT>
536.438202

> <PUBCHEM_TOTAL_CHARGE>
0

> <PUBCHEM_HEAVY_ATOM_COUNT>
40

> <PUBCHEM_ATOM_DEF_STEREO_COUNT>
0

> <PUBCHEM_ATOM_UDEF_STEREO_COUNT>
0

> <PUBCHEM_BOND_DEF_STEREO_COUNT>
0

> <PUBCHEM_BOND_UDEF_STEREO_COUNT>
10

> <PUBCHEM_ISOTOPIC_ATOM_COUNT>
0

> <PUBCHEM_COMPONENT_COUNT>
1

> <PUBCHEM_CACTVS_TAUTO_COUNT>
1

> <PUBCHEM_COORDINATE_TYPE>
1
5
255

> <PUBCHEM_BONDANNOTATIONS>
12  14  1
15  16  1
17  19  1
22  27  1
24  30  1
31  32  1
33  36  1
34  35  1
38  39  1
9  11  1

$$$$

