11992
  -OEChem-06261206223D

 14 14  0     0  0  0  0  0  0999 V2000
    2.4558   -1.1985    0.0005 Br  0  0  0  0  0  0  0  0  0  0  0  0
    1.4308    1.7893   -0.0018 N   0  0  0  0  0  0  0  0  0  0  0  0
    0.3971    0.8258    0.0013 C   0  0  0  0  0  0  0  0  0  0  0  0
    0.6751   -0.5412    0.0004 C   0  0  0  0  0  0  0  0  0  0  0  0
   -0.9258    1.2684    0.0011 C   0  0  0  0  0  0  0  0  0  0  0  0
   -0.3699   -1.4653   -0.0006 C   0  0  0  0  0  0  0  0  0  0  0  0
   -1.9705    0.3441    0.0000 C   0  0  0  0  0  0  0  0  0  0  0  0
   -1.6926   -1.0227   -0.0009 C   0  0  0  0  0  0  0  0  0  0  0  0
   -1.1577    2.3306    0.0009 H   0  0  0  0  0  0  0  0  0  0  0  0
   -0.1734   -2.5345   -0.0012 H   0  0  0  0  0  0  0  0  0  0  0  0
   -3.0005    0.6887   -0.0003 H   0  0  0  0  0  0  0  0  0  0  0  0
   -2.5063   -1.7421   -0.0018 H   0  0  0  0  0  0  0  0  0  0  0  0
    1.2073    2.7755    0.0055 H   0  0  0  0  0  0  0  0  0  0  0  0
    2.3964    1.4886    0.0043 H   0  0  0  0  0  0  0  0  0  0  0  0
  1  4  1  0  0  0  0
  2  3  1  0  0  0  0
  2 13  1  0  0  0  0
  2 14  1  0  0  0  0
  3  4  1  0  0  0  0
  3  5  2  0  0  0  0
  4  6  2  0  0  0  0
  5  7  1  0  0  0  0
  5  9  1  0  0  0  0
  6  8  1  0  0  0  0
  6 10  1  0  0  0  0
  7  8  2  0  0  0  0
  7 11  1  0  0  0  0
  8 12  1  0  0  0  0
M  END
> <PUBCHEM_COMPOUND_CID>
11992

> <PUBCHEM_CONFORMER_RMSD>
0.4

> <PUBCHEM_CONFORMER_DIVERSEORDER>
1

> <PUBCHEM_MMFF94_PARTIAL_CHARGES>
14
1 -0.11
10 0.15
11 0.15
12 0.15
13 0.4
14 0.4
2 -0.9
3 0.1
4 0.11
5 -0.15
6 -0.15
7 -0.15
8 -0.15
9 0.15

> <PUBCHEM_EFFECTIVE_ROTOR_COUNT>
0

> <PUBCHEM_PHARMACOPHORE_FEATURES>
4
1 1 hydrophobe
1 2 cation
1 2 donor
6 3 4 5 6 7 8 rings

> <PUBCHEM_HEAVY_ATOM_COUNT>
8

> <PUBCHEM_ATOM_DEF_STEREO_COUNT>
0

> <PUBCHEM_ATOM_UDEF_STEREO_COUNT>
0

> <PUBCHEM_BOND_DEF_STEREO_COUNT>
0

> <PUBCHEM_BOND_UDEF_STEREO_COUNT>
0

> <PUBCHEM_ISOTOPIC_ATOM_COUNT>
0

> <PUBCHEM_COMPONENT_COUNT>
1

> <PUBCHEM_CACTVS_TAUTO_COUNT>
1

> <PUBCHEM_CONFORMER_ID>
00002ED800000001

> <PUBCHEM_MMFF94_ENERGY>
28.401

> <PUBCHEM_FEATURE_SELFOVERLAP>
20.297

> <PUBCHEM_SHAPE_FINGERPRINT>
16714656 1 18194118753272432414
16945 1 18338797926320165191
18185500 45 18196654209747965650
21040471 1 18194401095853570885
23552423 10 18271523079151109702
241688 4 18412827996994704361
2748010 2 18339645538231978039
29004967 10 18337104691287859610
5084963 1 18187370947349282955

> <PUBCHEM_SHAPE_MULTIPOLES>
165.6
2.85
1.85
0.62
1.21
0.46
0
-0.65
0
0.13
0
0.04
-0.03
0

> <PUBCHEM_SHAPE_SELFOVERLAP>
328.078

> <PUBCHEM_SHAPE_VOLUME>
101.8

> <PUBCHEM_COORDINATE_TYPE>
2
5
10

$$$$

