17395673
  -OEChem-06241222513D

 45 47  0     0  0  0  0  0  0999 V2000
    5.2822   -2.2277   -0.4629 O   0  0  0  0  0  0  0  0  0  0  0  0
   -1.3782   -1.3749   -0.5593 O   0  0  0  0  0  0  0  0  0  0  0  0
    4.9899    0.0656    0.1317 N   0  0  0  0  0  0  0  0  0  0  0  0
   -0.5778    0.7560    0.0296 N   0  0  0  0  0  0  0  0  0  0  0  0
   -6.3804   -0.9973    0.3599 N   0  0  0  0  0  0  0  0  0  0  0  0
    5.8934    1.1232    0.5417 C   0  0  0  0  0  0  0  0  0  0  0  0
    7.2459    0.6674    0.0354 C   0  0  0  0  0  0  0  0  0  0  0  0
    7.1589   -0.8437    0.1124 C   0  0  0  0  0  0  0  0  0  0  0  0
    5.6948   -1.1230   -0.1410 C   0  0  0  0  0  0  0  0  0  0  0  0
    3.5746    0.2406    0.1066 C   0  0  0  0  0  0  0  0  0  0  0  0
    3.0210    1.4868    0.4001 C   0  0  0  0  0  0  0  0  0  0  0  0
    2.7442   -0.8338   -0.2129 C   0  0  0  0  0  0  0  0  0  0  0  0
    0.8066    0.5842    0.0544 C   0  0  0  0  0  0  0  0  0  0  0  0
    1.6369    1.6587    0.3741 C   0  0  0  0  0  0  0  0  0  0  0  0
    1.3603   -0.6620   -0.2390 C   0  0  0  0  0  0  0  0  0  0  0  0
   -2.9607    0.2992   -0.2370 C   0  0  0  0  0  0  0  0  0  0  0  0
   -5.3215   -0.1106    0.0731 C   0  0  0  0  0  0  0  0  0  0  0  0
   -1.5603   -0.1984   -0.2653 C   0  0  0  0  0  0  0  0  0  0  0  0
   -4.0074   -0.5778    0.0479 C   0  0  0  0  0  0  0  0  0  0  0  0
   -3.2281    1.6434   -0.4963 C   0  0  0  0  0  0  0  0  0  0  0  0
   -5.5888    1.2336   -0.1865 C   0  0  0  0  0  0  0  0  0  0  0  0
   -4.5420    2.1105   -0.4712 C   0  0  0  0  0  0  0  0  0  0  0  0
   -6.1146   -2.3987    0.6172 C   0  0  0  0  0  0  0  0  0  0  0  0
   -7.7490   -0.5213    0.3873 C   0  0  0  0  0  0  0  0  0  0  0  0
    5.6401    2.0861    0.0898 H   0  0  0  0  0  0  0  0  0  0  0  0
    5.8754    1.1960    1.6346 H   0  0  0  0  0  0  0  0  0  0  0  0
    8.0776    1.0793    0.6136 H   0  0  0  0  0  0  0  0  0  0  0  0
    7.3759    0.9745   -1.0101 H   0  0  0  0  0  0  0  0  0  0  0  0
    7.7864   -1.3269   -0.6406 H   0  0  0  0  0  0  0  0  0  0  0  0
    7.4191   -1.2120    1.1098 H   0  0  0  0  0  0  0  0  0  0  0  0
    3.6226    2.3495    0.6659 H   0  0  0  0  0  0  0  0  0  0  0  0
    3.1064   -1.8249   -0.4493 H   0  0  0  0  0  0  0  0  0  0  0  0
    1.2186    2.6347    0.6076 H   0  0  0  0  0  0  0  0  0  0  0  0
    0.7846   -1.5402   -0.4948 H   0  0  0  0  0  0  0  0  0  0  0  0
   -0.8810    1.6884    0.2963 H   0  0  0  0  0  0  0  0  0  0  0  0
   -3.7682   -1.6170    0.2524 H   0  0  0  0  0  0  0  0  0  0  0  0
   -2.4502    2.3539   -0.7590 H   0  0  0  0  0  0  0  0  0  0  0  0
   -6.5931    1.6455   -0.1814 H   0  0  0  0  0  0  0  0  0  0  0  0
   -4.7510    3.1555   -0.6818 H   0  0  0  0  0  0  0  0  0  0  0  0
   -5.6438   -2.8784   -0.2482 H   0  0  0  0  0  0  0  0  0  0  0  0
   -5.4785   -2.5258    1.5002 H   0  0  0  0  0  0  0  0  0  0  0  0
   -7.0372   -2.9553    0.8169 H   0  0  0  0  0  0  0  0  0  0  0  0
   -7.8848    0.2503    1.1533 H   0  0  0  0  0  0  0  0  0  0  0  0
   -8.0505   -0.1268   -0.5894 H   0  0  0  0  0  0  0  0  0  0  0  0
   -8.4527   -1.3257    0.6291 H   0  0  0  0  0  0  0  0  0  0  0  0
  1  9  2  0  0  0  0
  2 18  2  0  0  0  0
  3  6  1  0  0  0  0
  3  9  1  0  0  0  0
  3 10  1  0  0  0  0
  4 13  1  0  0  0  0
  4 18  1  0  0  0  0
  4 35  1  0  0  0  0
  5 17  1  0  0  0  0
  5 23  1  0  0  0  0
  5 24  1  0  0  0  0
  6  7  1  0  0  0  0
  6 25  1  0  0  0  0
  6 26  1  0  0  0  0
  7  8  1  0  0  0  0
  7 27  1  0  0  0  0
  7 28  1  0  0  0  0
  8  9  1  0  0  0  0
  8 29  1  0  0  0  0
  8 30  1  0  0  0  0
 10 11  2  0  0  0  0
 10 12  1  0  0  0  0
 11 14  1  0  0  0  0
 11 31  1  0  0  0  0
 12 15  2  0  0  0  0
 12 32  1  0  0  0  0
 13 14  2  0  0  0  0
 13 15  1  0  0  0  0
 14 33  1  0  0  0  0
 15 34  1  0  0  0  0
 16 18  1  0  0  0  0
 16 19  2  0  0  0  0
 16 20  1  0  0  0  0
 17 19  1  0  0  0  0
 17 21  2  0  0  0  0
 19 36  1  0  0  0  0
 20 22  2  0  0  0  0
 20 37  1  0  0  0  0
 21 22  1  0  0  0  0
 21 38  1  0  0  0  0
 22 39  1  0  0  0  0
 23 40  1  0  0  0  0
 23 41  1  0  0  0  0
 23 42  1  0  0  0  0
 24 43  1  0  0  0  0
 24 44  1  0  0  0  0
 24 45  1  0  0  0  0
M  END
> <PUBCHEM_COMPOUND_CID>
17395673

> <PUBCHEM_CONFORMER_RMSD>
0.8

> <PUBCHEM_CONFORMER_DIVERSEORDER>
3
7
9
4
13
1
10
12
11
8
5
2
6

> <PUBCHEM_MMFF94_PARTIAL_CHARGES>
32
1 -0.57
10 0.12
11 -0.15
12 -0.15
13 0.12
14 -0.15
15 -0.15
16 0.09
17 0.1
18 0.54
19 -0.15
2 -0.57
20 -0.15
21 -0.15
22 -0.15
23 0.37
24 0.37
3 -0.48
31 0.15
32 0.15
33 0.15
34 0.15
35 0.37
36 0.15
37 0.15
38 0.15
39 0.15
4 -0.55
5 -0.84
6 0.3
8 0.06
9 0.57

> <PUBCHEM_EFFECTIVE_ROTOR_COUNT>
5.8

> <PUBCHEM_PHARMACOPHORE_FEATURES>
7
1 1 acceptor
1 2 acceptor
1 4 donor
1 5 cation
5 3 6 7 8 9 rings
6 10 11 12 13 14 15 rings
6 16 17 19 20 21 22 rings

> <PUBCHEM_HEAVY_ATOM_COUNT>
24

> <PUBCHEM_ATOM_DEF_STEREO_COUNT>
0

> <PUBCHEM_ATOM_UDEF_STEREO_COUNT>
0

> <PUBCHEM_BOND_DEF_STEREO_COUNT>
0

> <PUBCHEM_BOND_UDEF_STEREO_COUNT>
0

> <PUBCHEM_ISOTOPIC_ATOM_COUNT>
0

> <PUBCHEM_COMPONENT_COUNT>
1

> <PUBCHEM_CACTVS_TAUTO_COUNT>
4

> <PUBCHEM_CONFORMER_ID>
01096FD900000003

> <PUBCHEM_MMFF94_ENERGY>
91.6178

> <PUBCHEM_FEATURE_SELFOVERLAP>
35.52

> <PUBCHEM_SHAPE_FINGERPRINT>
10 15 18338524045383892976
10299344 5 18131631188183407114
11315181 36 17988923362792147821
11524674 6 16950563255811749367
11646440 116 17458344130523616688
11719270 70 18260551147392195958
12091667 2 17822014216177193677
12166972 35 18413386514484646180
12236239 1 18201439198779716020
12516196 113 18260268555707943136
12616971 3 16298393426595465953
13073987 5 18335139838392174952
13288520 33 18342739607635526549
13533116 47 4895283560113936636
13685833 64 18409728461105317376
13885169 127 18412263965432535481
14170010 4 18335141969091716120
14251732 16 18412826875976545880
14251764 18 18259703389092188277
14251764 46 18410856559639796073
14341114 176 18408885135317749396
14461889 52 18341335505385243218
14849402 71 17968939678253479336
14933364 13 18409449193705087884
15183329 4 18187092766723128454
15716309 27 18334576832836124895
15927050 60 18412268332787476738
17844677 252 18412257337538615397
18335252 98 18410853261748549434
18608769 82 18411419475624343531
18927931 339 18202842141974418635
19489759 90 17846499236416011601
20281389 69 18408044005007523632
21130935 74 18334856151470728042
21150785 3 16988841666247100446
21267235 1 18410289211645352781
21279426 13 18264771150291542780
21315759 40 16845294947178727474
21315763 28 18342740728289681356
21623969 137 18040430005694821286
220451 1 16443351979034013380
23081809 10 15625950879796541300
23522609 53 18196059270968652101
23536379 177 18341896320428713864
23559900 14 18409175389376821153
23569943 247 17415007034861643898
3004659 81 18341612659867323022
3178227 256 18040151799462230474
34797466 226 17240759567707777268
3545911 37 18260550017393309960
4073 2 18130221563059062938
4463277 17 18408887352153974284
465052 167 18260266374154414918
5104073 3 18335145331433742649
5385378 56 14562518609505174212
9996256 80 18412263926192092003
999808 66 18272362054237508203

> <PUBCHEM_SHAPE_MULTIPOLES>
467.23
22.27
1.98
0.7
1.68
0.21
-0.01
5.42
-2.2
-1.2
0.01
-0.1
0
1.39

> <PUBCHEM_SHAPE_SELFOVERLAP>
1003.646

> <PUBCHEM_SHAPE_VOLUME>
258.2

> <PUBCHEM_COORDINATE_TYPE>
2
5
10

$$$$

