12501
  -OEChem-06261207013D

 16 16  0     0  0  0  0  0  0999 V2000
    3.9788    0.0000    0.2150 S   0  0  0  0  0  0  0  0  0  0  0  0
    1.4566    0.0002   -0.5747 N   0  0  0  0  0  0  0  0  0  0  0  0
    0.0864   -0.0002   -0.2950 C   0  0  0  0  0  0  0  0  0  0  0  0
   -0.5969    1.2079   -0.1551 C   0  0  0  0  0  0  0  0  0  0  0  0
   -0.5970   -1.2082   -0.1550 C   0  0  0  0  0  0  0  0  0  0  0  0
   -1.9634    1.2081    0.1247 C   0  0  0  0  0  0  0  0  0  0  0  0
   -1.9636   -1.2080    0.1247 C   0  0  0  0  0  0  0  0  0  0  0  0
   -2.6467    0.0002    0.2646 C   0  0  0  0  0  0  0  0  0  0  0  0
    2.2457    0.0001    0.4507 C   0  0  0  0  0  0  0  0  0  0  0  0
   -0.0736    2.1545   -0.2629 H   0  0  0  0  0  0  0  0  0  0  0  0
   -0.0739   -2.1548   -0.2627 H   0  0  0  0  0  0  0  0  0  0  0  0
   -2.4954    2.1487    0.2336 H   0  0  0  0  0  0  0  0  0  0  0  0
   -2.4958   -2.1484    0.2336 H   0  0  0  0  0  0  0  0  0  0  0  0
   -3.7106    0.0002    0.4824 H   0  0  0  0  0  0  0  0  0  0  0  0
    1.8787   -0.0003    1.4924 H   0  0  0  0  0  0  0  0  0  0  0  0
    4.3233   -0.0003    1.5111 H   0  0  0  0  0  0  0  0  0  0  0  0
  1  9  1  0  0  0  0
  1 16  1  0  0  0  0
  2  3  1  0  0  0  0
  2  9  2  0  0  0  0
  3  4  2  0  0  0  0
  3  5  1  0  0  0  0
  4  6  1  0  0  0  0
  4 10  1  0  0  0  0
  5  7  2  0  0  0  0
  5 11  1  0  0  0  0
  6  8  2  0  0  0  0
  6 12  1  0  0  0  0
  7  8  1  0  0  0  0
  7 13  1  0  0  0  0
  8 14  1  0  0  0  0
  9 15  1  0  0  0  0
M  END
> <PUBCHEM_COMPOUND_CID>
12501

> <PUBCHEM_CONFORMER_RMSD>
0.4

> <PUBCHEM_CONFORMER_DIVERSEORDER>
1
2

> <PUBCHEM_MMFF94_PARTIAL_CHARGES>
16
1 -0.32
10 0.15
11 0.15
12 0.15
13 0.15
14 0.15
15 0.06
16 0.18
2 -0.63
3 0.18
4 -0.15
5 -0.15
6 -0.15
7 -0.15
8 -0.15
9 0.53

> <PUBCHEM_EFFECTIVE_ROTOR_COUNT>
1

> <PUBCHEM_PHARMACOPHORE_FEATURES>
2
1 2 acceptor
6 3 4 5 6 7 8 rings

> <PUBCHEM_HEAVY_ATOM_COUNT>
9

> <PUBCHEM_ATOM_DEF_STEREO_COUNT>
0

> <PUBCHEM_ATOM_UDEF_STEREO_COUNT>
0

> <PUBCHEM_BOND_DEF_STEREO_COUNT>
0

> <PUBCHEM_BOND_UDEF_STEREO_COUNT>
0

> <PUBCHEM_ISOTOPIC_ATOM_COUNT>
0

> <PUBCHEM_COMPONENT_COUNT>
1

> <PUBCHEM_CACTVS_TAUTO_COUNT>
2

> <PUBCHEM_CONFORMER_ID>
000030D500000001

> <PUBCHEM_MMFF94_ENERGY>
20.3978

> <PUBCHEM_FEATURE_SELFOVERLAP>
10.148

> <PUBCHEM_SHAPE_FINGERPRINT>
10857977 72 18335707104565994337
11062470 55 15698002941889776548
12932764 1 17560810943816342020
13024252 1 14692573234310607437
14325111 11 18409730698809632776
20645464 45 17967247611361593150
20653085 51 14634874145144531906
20871998 184 18188486869941978887
21040471 1 18267010851082167085
23402539 116 18259995872666086845
23552423 10 17841424834949337133
2748010 2 18051680342246409709
29004967 10 16660355987263678319
369184 2 18409735062084981435
75552 356 18412262817974283746

> <PUBCHEM_SHAPE_MULTIPOLES>
184.08
5.19
1.27
0.7
5.57
0
-0.01
0
-0.77
-0.84
0.01
0.09
0
0

> <PUBCHEM_SHAPE_SELFOVERLAP>
367.127

> <PUBCHEM_SHAPE_VOLUME>
110.4

> <PUBCHEM_COORDINATE_TYPE>
2
5
10

$$$$

