17396035
  -OEChem-06241222543D

 56 60  0     1  0  0  0  0  0999 V2000
   -3.3126    0.5165    2.1388 O   0  0  0  0  0  0  0  0  0  0  0  0
   -2.8906    2.3698   -2.0544 O   0  0  0  0  0  0  0  0  0  0  0  0
   -1.9222   -0.8637   -0.8492 O   0  0  0  0  0  0  0  0  0  0  0  0
   -0.2571   -3.9127   -0.6650 O   0  0  0  0  0  0  0  0  0  0  0  0
    7.4487    2.1759    0.6095 O   0  0  0  0  0  0  0  0  0  0  0  0
   -4.7307    1.9649   -0.6803 N   0  0  0  0  0  0  0  0  0  0  0  0
   -2.7077    1.3997    0.0649 N   0  0  0  0  0  0  0  0  0  0  0  0
    0.3372   -0.5076   -0.5299 N   0  0  0  0  0  0  0  0  0  0  0  0
    1.3263    0.3495   -0.1439 N   0  0  0  0  0  0  0  0  0  0  0  0
   -5.8951    0.2123    0.5243 C   0  0  0  0  0  0  0  0  0  0  0  0
   -5.8985   -0.5874   -0.7454 C   0  0  0  0  0  0  0  0  0  0  0  0
   -7.0845    0.2603   -0.3895 C   0  0  0  0  0  0  0  0  0  0  0  0
   -5.0033    1.4152    0.6311 C   0  0  1  0  0  0  0  0  0  0  0  0
   -3.5840    1.0443    1.0675 C   0  0  0  0  0  0  0  0  0  0  0  0
   -5.5759    2.4799    1.5601 C   0  0  0  0  0  0  0  0  0  0  0  0
   -3.3743    1.9581   -1.0079 C   0  0  0  0  0  0  0  0  0  0  0  0
   -1.2721    1.2114    0.1284 C   0  0  0  0  0  0  0  0  0  0  0  0
   -0.9961   -0.1493   -0.4629 C   0  0  0  0  0  0  0  0  0  0  0  0
    0.8511   -1.7707   -1.0612 C   0  0  1  0  0  0  0  0  0  0  0  0
    2.3473   -1.5221   -1.1831 C   0  0  0  0  0  0  0  0  0  0  0  0
    2.4586   -0.1997   -0.4642 C   0  0  0  0  0  0  0  0  0  0  0  0
    0.5098   -2.9235   -0.1364 C   0  0  0  0  0  0  0  0  0  0  0  0
    3.7697    0.4241   -0.1811 C   0  0  0  0  0  0  0  0  0  0  0  0
    0.8182   -3.1999    1.1754 C   0  0  0  0  0  0  0  0  0  0  0  0
    4.9452   -0.2113   -0.5813 C   0  0  0  0  0  0  0  0  0  0  0  0
    3.8307    1.6481    0.4853 C   0  0  0  0  0  0  0  0  0  0  0  0
    0.2010   -4.4386    1.4717 C   0  0  0  0  0  0  0  0  0  0  0  0
   -0.4405   -4.8309    0.3200 C   0  0  0  0  0  0  0  0  0  0  0  0
    6.1816    0.3769   -0.3151 C   0  0  0  0  0  0  0  0  0  0  0  0
    5.0670    2.2363    0.7516 C   0  0  0  0  0  0  0  0  0  0  0  0
    6.2424    1.6008    0.3514 C   0  0  0  0  0  0  0  0  0  0  0  0
    8.6103    1.4731    0.1705 C   0  0  0  0  0  0  0  0  0  0  0  0
   -6.0065   -0.3209    1.4609 H   0  0  0  0  0  0  0  0  0  0  0  0
   -5.3046   -0.2935   -1.6003 H   0  0  0  0  0  0  0  0  0  0  0  0
   -6.0074   -1.6629   -0.6553 H   0  0  0  0  0  0  0  0  0  0  0  0
   -7.2783    1.1443   -0.9826 H   0  0  0  0  0  0  0  0  0  0  0  0
   -7.9851   -0.2491   -0.0659 H   0  0  0  0  0  0  0  0  0  0  0  0
   -5.4416    2.3365   -1.3026 H   0  0  0  0  0  0  0  0  0  0  0  0
   -6.5332    2.8591    1.1848 H   0  0  0  0  0  0  0  0  0  0  0  0
   -5.7479    2.0761    2.5642 H   0  0  0  0  0  0  0  0  0  0  0  0
   -4.8969    3.3348    1.6593 H   0  0  0  0  0  0  0  0  0  0  0  0
   -0.9394    1.2374    1.1702 H   0  0  0  0  0  0  0  0  0  0  0  0
   -0.7755    1.9850   -0.4647 H   0  0  0  0  0  0  0  0  0  0  0  0
    0.3949   -1.9486   -2.0424 H   0  0  0  0  0  0  0  0  0  0  0  0
    2.6388   -1.3811   -2.2292 H   0  0  0  0  0  0  0  0  0  0  0  0
    2.9639   -2.2983   -0.7228 H   0  0  0  0  0  0  0  0  0  0  0  0
    1.4127   -2.5870    1.8377 H   0  0  0  0  0  0  0  0  0  0  0  0
    4.9356   -1.1615   -1.1065 H   0  0  0  0  0  0  0  0  0  0  0  0
    2.9301    2.1635    0.8078 H   0  0  0  0  0  0  0  0  0  0  0  0
    0.2210   -4.9777    2.4077 H   0  0  0  0  0  0  0  0  0  0  0  0
   -1.0381   -5.6899    0.0524 H   0  0  0  0  0  0  0  0  0  0  0  0
    7.0547   -0.1696   -0.6547 H   0  0  0  0  0  0  0  0  0  0  0  0
    5.1084    3.1900    1.2708 H   0  0  0  0  0  0  0  0  0  0  0  0
    8.7096    0.5056    0.6743 H   0  0  0  0  0  0  0  0  0  0  0  0
    8.6347    1.3777   -0.9203 H   0  0  0  0  0  0  0  0  0  0  0  0
    9.4794    2.0739    0.4582 H   0  0  0  0  0  0  0  0  0  0  0  0
  1 14  2  0  0  0  0
  2 16  2  0  0  0  0
  3 18  2  0  0  0  0
  4 22  1  0  0  0  0
  4 28  1  0  0  0  0
  5 31  1  0  0  0  0
  5 32  1  0  0  0  0
  6 13  1  0  0  0  0
  6 16  1  0  0  0  0
  6 38  1  0  0  0  0
  7 14  1  0  0  0  0
  7 16  1  0  0  0  0
  7 17  1  0  0  0  0
  8  9  1  0  0  0  0
  8 18  1  0  0  0  0
  8 19  1  0  0  0  0
  9 21  2  0  0  0  0
 10 11  1  0  0  0  0
 10 12  1  0  0  0  0
 10 13  1  0  0  0  0
 10 33  1  0  0  0  0
 11 12  1  0  0  0  0
 11 34  1  0  0  0  0
 11 35  1  0  0  0  0
 12 36  1  0  0  0  0
 12 37  1  0  0  0  0
 13 14  1  0  0  0  0
 13 15  1  0  0  0  0
 15 39  1  0  0  0  0
 15 40  1  0  0  0  0
 15 41  1  0  0  0  0
 17 18  1  0  0  0  0
 17 42  1  0  0  0  0
 17 43  1  0  0  0  0
 19 20  1  0  0  0  0
 19 22  1  0  0  0  0
 19 44  1  0  0  0  0
 20 21  1  0  0  0  0
 20 45  1  0  0  0  0
 20 46  1  0  0  0  0
 21 23  1  0  0  0  0
 22 24  2  0  0  0  0
 23 25  2  0  0  0  0
 23 26  1  0  0  0  0
 24 27  1  0  0  0  0
 24 47  1  0  0  0  0
 25 29  1  0  0  0  0
 25 48  1  0  0  0  0
 26 30  2  0  0  0  0
 26 49  1  0  0  0  0
 27 28  2  0  0  0  0
 27 50  1  0  0  0  0
 28 51  1  0  0  0  0
 29 31  2  0  0  0  0
 29 52  1  0  0  0  0
 30 31  1  0  0  0  0
 30 53  1  0  0  0  0
 32 54  1  0  0  0  0
 32 55  1  0  0  0  0
 32 56  1  0  0  0  0
M  END
> <PUBCHEM_COMPOUND_CID>
17396035

> <PUBCHEM_CONFORMER_RMSD>
1

> <PUBCHEM_CONFORMER_DIVERSEORDER>
1
167
28
195
89
90
113
92
87
36
161
171
27
118
136
169
35
194
144
66
117
115
186
158
176
32
119
130
25
80
170
73
30
57
74
131
187
108
39
83
156
140
101
143
60
116
160
177
91
122
109
178
99
191
100
77
69
98
79
190
29
58
162
33
142
9
65
168
47
85
127
155
111
53
153
51
132
189
104
112
95
43
196
93
149
68
137
145
45
164
188
173
31
114
150
49
134
105
67
110
175
15
81
63
76
123
182
181
129
126
59
135
26
174
107
103
24
20
172
37
48
54
185
179
121
14
75
139
192
23
10
165
106
120
70
42
151
16
46
8
11
124
13
183
40
193
125
17
56
146
97
50
96
86
84
71
38
147
159
148
5
55
166
62
141
61
34
157
128
64
180
44
163
78
138
3
18
72
154
82
41
6
184
12
152
52
22
21
102
7
94
88
19
4
133
2

> <PUBCHEM_MMFF94_PARTIAL_CHARGES>
44
1 -0.57
10 -0.19
11 -0.2
12 -0.2
13 0.46
14 0.57
16 0.69
17 0.36
18 0.57
19 0.48
2 -0.57
20 0.06
21 0.3
22 -0.04
23 0.09
24 -0.15
25 -0.15
26 -0.15
27 -0.15
28 -0.01
29 -0.15
3 -0.57
30 -0.15
31 0.08
32 0.28
33 0.1
34 0.1
35 0.1
36 0.1
37 0.1
38 0.37
4 -0.28
47 0.15
48 0.15
49 0.15
5 -0.36
50 0.15
51 0.15
52 0.15
53 0.15
6 -0.73
7 -0.42
8 -0.3
9 -0.51

> <PUBCHEM_EFFECTIVE_ROTOR_COUNT>
8.8

> <PUBCHEM_PHARMACOPHORE_FEATURES>
11
1 1 acceptor
1 2 acceptor
1 3 acceptor
1 4 acceptor
1 5 acceptor
1 6 donor
1 9 acceptor
5 4 22 24 27 28 rings
5 6 7 13 14 16 rings
5 8 9 19 20 21 rings
6 23 25 26 29 30 31 rings

> <PUBCHEM_HEAVY_ATOM_COUNT>
32

> <PUBCHEM_ATOM_DEF_STEREO_COUNT>
0

> <PUBCHEM_ATOM_UDEF_STEREO_COUNT>
2

> <PUBCHEM_BOND_DEF_STEREO_COUNT>
0

> <PUBCHEM_BOND_UDEF_STEREO_COUNT>
0

> <PUBCHEM_ISOTOPIC_ATOM_COUNT>
0

> <PUBCHEM_COMPONENT_COUNT>
1

> <PUBCHEM_CACTVS_TAUTO_COUNT>
2

> <PUBCHEM_CONFORMER_ID>
0109714300000001

> <PUBCHEM_MMFF94_ENERGY>
82.1114

> <PUBCHEM_FEATURE_SELFOVERLAP>
55.818

> <PUBCHEM_SHAPE_FINGERPRINT>
10 15 18201720631297773324
10074138 170 18128261073512729410
10985338 8 16879911008889393744
11007060 377 18261386702776485786
11136131 41 18130794498453635075
11578080 2 18126292080648710573
11991303 11 18270674269397264742
12788726 201 18050868631972310938
12925494 130 17973169431420216736
12977781 61 15265401286296431691
13631057 29 18188214204918962967
13726171 33 17531514504145041049
14068700 686 18199188562981601645
14190465 44 18192438463984161984
14556957 393 6988045725659618970
14856354 85 16415192365519174960
15183329 4 4823214987623134700
15338160 23 18052533271518061068
15347590 135 18262783122074102569
15927050 60 18411140225821097774
16126227 98 18337108969513305144
16992610 120 18341879772610774116
17913733 40 18341891947677213954
18393751 57 18272645723494068201
20567600 254 18411141337636482364
21033648 29 18409738331083439824
21033650 10 13912591788763385690
21049683 118 18265917807728134202
21796203 349 17330240263127859555
22224240 67 18411699885090143717
23536364 44 7637130199539054579
23559900 14 17342923052486184319
25019877 29 18335699429501856318
255183 313 18130515162854829886
4073 2 18337945788488639057
4258327 124 18057592180299643500
4325135 7 18113901546533541245
4403749 210 18271811181178195861
469060 322 17988371386348306447
5758199 1 18335415781366618793
6009941 240 18334859365282288392
6669772 16 18335135432167621638
7399639 24 18200875209518127669
9658208 31 18339627989539380550
9961470 85 17975984163137269048

> <PUBCHEM_SHAPE_MULTIPOLES>
609.27
18.37
4.61
1.33
14.27
7.59
-0.17
-18.98
-2.08
0.19
-1.29
-1.22
-0.05
0.45

> <PUBCHEM_SHAPE_SELFOVERLAP>
1332.25

> <PUBCHEM_SHAPE_VOLUME>
333.9

> <PUBCHEM_COORDINATE_TYPE>
2
5
10

$$$$

