10875
  -OEChem-06261205043D

 19 19  0     0  0  0  0  0  0999 V2000
    2.3822   -0.4491   -0.0843 N   0  0  0  0  0  0  0  0  0  0  0  0
    3.2578    0.5860    0.1462 N   0  0  0  0  0  0  0  0  0  0  0  0
   -1.7792    0.1117    0.0140 C   0  0  0  0  0  0  0  0  0  0  0  0
    0.9848   -0.2609   -0.0512 C   0  0  0  0  0  0  0  0  0  0  0  0
   -0.9278    1.2154   -0.0369 C   0  0  0  0  0  0  0  0  0  0  0  0
   -1.2487   -1.1783    0.0323 C   0  0  0  0  0  0  0  0  0  0  0  0
    0.4542    1.0290   -0.0696 C   0  0  0  0  0  0  0  0  0  0  0  0
    0.1333   -1.3647   -0.0003 C   0  0  0  0  0  0  0  0  0  0  0  0
   -3.2567    0.3109    0.0499 C   0  0  0  0  0  0  0  0  0  0  0  0
   -1.3296    2.2250   -0.0548 H   0  0  0  0  0  0  0  0  0  0  0  0
   -1.9019   -2.0461    0.0701 H   0  0  0  0  0  0  0  0  0  0  0  0
    1.0857    1.9121   -0.1166 H   0  0  0  0  0  0  0  0  0  0  0  0
    0.5342   -2.3749    0.0139 H   0  0  0  0  0  0  0  0  0  0  0  0
   -3.7511   -0.4964    0.6009 H   0  0  0  0  0  0  0  0  0  0  0  0
   -3.5169    1.2482    0.5535 H   0  0  0  0  0  0  0  0  0  0  0  0
   -3.6571    0.3370   -0.9685 H   0  0  0  0  0  0  0  0  0  0  0  0
    2.7333   -1.3972   -0.0116 H   0  0  0  0  0  0  0  0  0  0  0  0
    4.1472    0.3639   -0.2988 H   0  0  0  0  0  0  0  0  0  0  0  0
    3.4484    0.6348    1.1462 H   0  0  0  0  0  0  0  0  0  0  0  0
  1  2  1  0  0  0  0
  1  4  1  0  0  0  0
  1 17  1  0  0  0  0
  2 18  1  0  0  0  0
  2 19  1  0  0  0  0
  3  5  2  0  0  0  0
  3  6  1  0  0  0  0
  3  9  1  0  0  0  0
  4  7  2  0  0  0  0
  4  8  1  0  0  0  0
  5  7  1  0  0  0  0
  5 10  1  0  0  0  0
  6  8  2  0  0  0  0
  6 11  1  0  0  0  0
  7 12  1  0  0  0  0
  8 13  1  0  0  0  0
  9 14  1  0  0  0  0
  9 15  1  0  0  0  0
  9 16  1  0  0  0  0
M  END
> <PUBCHEM_COMPOUND_CID>
10875

> <PUBCHEM_CONFORMER_RMSD>
0.4

> <PUBCHEM_CONFORMER_DIVERSEORDER>
1
2

> <PUBCHEM_MMFF94_PARTIAL_CHARGES>
16
1 -0.51
10 0.15
11 0.15
12 0.15
13 0.15
17 0.4
18 0.36
19 0.36
2 -0.71
3 -0.14
4 0.1
5 -0.15
6 -0.15
7 -0.15
8 -0.15
9 0.14

> <PUBCHEM_EFFECTIVE_ROTOR_COUNT>
1

> <PUBCHEM_PHARMACOPHORE_FEATURES>
3
1 1 donor
1 2 donor
6 3 4 5 6 7 8 rings

> <PUBCHEM_HEAVY_ATOM_COUNT>
9

> <PUBCHEM_ATOM_DEF_STEREO_COUNT>
0

> <PUBCHEM_ATOM_UDEF_STEREO_COUNT>
0

> <PUBCHEM_BOND_DEF_STEREO_COUNT>
0

> <PUBCHEM_BOND_UDEF_STEREO_COUNT>
0

> <PUBCHEM_ISOTOPIC_ATOM_COUNT>
0

> <PUBCHEM_COMPONENT_COUNT>
1

> <PUBCHEM_CACTVS_TAUTO_COUNT>
1

> <PUBCHEM_CONFORMER_ID>
00002A7B00000001

> <PUBCHEM_MMFF94_ENERGY>
28.9541

> <PUBCHEM_FEATURE_SELFOVERLAP>
16.753

> <PUBCHEM_SHAPE_FINGERPRINT>
10857977 72 18340492179191116121
14325111 11 18410575110443451685
15310529 11 16630536149549724297
16714656 1 18411418418671530727
16945 1 18412821399935396029
193761 8 17690279309548692525
20871998 184 18115583725734691975
21040471 1 18411416236975934855
21293036 1 18411145723019391037
23235685 24 18410298020818299785
23402655 69 18193857044685115773
23552423 10 18057042402435268932
2748010 2 18122343480319532165
29004967 10 18130215043092654121
369184 2 16415484839405574272
5084963 1 18261393394261673081

> <PUBCHEM_SHAPE_MULTIPOLES>
175.25
4.06
1.35
0.6
0.85
0.14
0
-0.67
-0.17
-0.09
0.01
-0.05
0
0.04

> <PUBCHEM_SHAPE_SELFOVERLAP>
358.382

> <PUBCHEM_SHAPE_VOLUME>
102.1

> <PUBCHEM_COORDINATE_TYPE>
2
5
10

$$$$

