9838
  -OEChem-06261204073D

 35 36  0     0  0  0  0  0  0999 V2000
   -6.1659   -1.2657   -0.0380 F   0  0  0  0  0  0  0  0  0  0  0  0
   -6.2945    0.7207    0.8232 F   0  0  0  0  0  0  0  0  0  0  0  0
   -6.0128    0.4840   -1.3201 F   0  0  0  0  0  0  0  0  0  0  0  0
    6.1418    0.0153    0.1212 N   0  0  0  0  0  0  0  0  0  0  0  0
    0.5840   -0.0622   -0.5479 N   0  0  0  0  0  0  0  0  0  0  0  0
    0.0169    0.0624    0.5630 N   0  0  0  0  0  0  0  0  0  0  0  0
    4.7418   -0.0042   -0.0470 C   0  0  0  0  0  0  0  0  0  0  0  0
    4.0499   -1.2143    0.0046 C   0  0  0  0  0  0  0  0  0  0  0  0
    4.0488    1.1866   -0.2656 C   0  0  0  0  0  0  0  0  0  0  0  0
    1.9792   -0.0426   -0.3799 C   0  0  0  0  0  0  0  0  0  0  0  0
    2.6651   -1.2335   -0.1624 C   0  0  0  0  0  0  0  0  0  0  0  0
    2.6642    1.1673   -0.4323 C   0  0  0  0  0  0  0  0  0  0  0  0
   -4.1415    0.0049    0.0663 C   0  0  0  0  0  0  0  0  0  0  0  0
    6.9461   -1.1192   -0.2871 C   0  0  0  0  0  0  0  0  0  0  0  0
    6.7964    1.1759    0.6917 C   0  0  0  0  0  0  0  0  0  0  0  0
   -1.3715    0.0433    0.3962 C   0  0  0  0  0  0  0  0  0  0  0  0
   -3.4482   -1.1861    0.2828 C   0  0  0  0  0  0  0  0  0  0  0  0
   -3.4497    1.2150    0.0147 C   0  0  0  0  0  0  0  0  0  0  0  0
   -2.0632   -1.1669    0.4479 C   0  0  0  0  0  0  0  0  0  0  0  0
   -2.0648    1.2342    0.1795 C   0  0  0  0  0  0  0  0  0  0  0  0
   -5.6221   -0.0147   -0.1110 C   0  0  0  0  0  0  0  0  0  0  0  0
    4.5573   -2.1577    0.1846 H   0  0  0  0  0  0  0  0  0  0  0  0
    4.5581    2.1443   -0.3238 H   0  0  0  0  0  0  0  0  0  0  0  0
    2.1332   -2.1802   -0.1191 H   0  0  0  0  0  0  0  0  0  0  0  0
    2.1322    2.0990   -0.6054 H   0  0  0  0  0  0  0  0  0  0  0  0
    6.9022   -1.9160    0.4628 H   0  0  0  0  0  0  0  0  0  0  0  0
    7.9983   -0.8363   -0.4051 H   0  0  0  0  0  0  0  0  0  0  0  0
    6.6171   -1.5171   -1.2537 H   0  0  0  0  0  0  0  0  0  0  0  0
    7.7965    0.9231    1.0618 H   0  0  0  0  0  0  0  0  0  0  0  0
    6.2367    1.5733    1.5460 H   0  0  0  0  0  0  0  0  0  0  0  0
    6.9131    1.9641   -0.0595 H   0  0  0  0  0  0  0  0  0  0  0  0
   -3.9695   -2.1384    0.3263 H   0  0  0  0  0  0  0  0  0  0  0  0
   -3.9811    2.1481   -0.1535 H   0  0  0  0  0  0  0  0  0  0  0  0
   -1.5320   -2.1000    0.6172 H   0  0  0  0  0  0  0  0  0  0  0  0
   -1.5347    2.1822    0.1386 H   0  0  0  0  0  0  0  0  0  0  0  0
  1 21  1  0  0  0  0
  2 21  1  0  0  0  0
  3 21  1  0  0  0  0
  4  7  1  0  0  0  0
  4 14  1  0  0  0  0
  4 15  1  0  0  0  0
  5  6  2  0  0  0  0
  5 10  1  0  0  0  0
  6 16  1  0  0  0  0
  7  8  2  0  0  0  0
  7  9  1  0  0  0  0
  8 11  1  0  0  0  0
  8 22  1  0  0  0  0
  9 12  2  0  0  0  0
  9 23  1  0  0  0  0
 10 11  2  0  0  0  0
 10 12  1  0  0  0  0
 11 24  1  0  0  0  0
 12 25  1  0  0  0  0
 13 17  2  0  0  0  0
 13 18  1  0  0  0  0
 13 21  1  0  0  0  0
 14 26  1  0  0  0  0
 14 27  1  0  0  0  0
 14 28  1  0  0  0  0
 15 29  1  0  0  0  0
 15 30  1  0  0  0  0
 15 31  1  0  0  0  0
 16 19  2  0  0  0  0
 16 20  1  0  0  0  0
 17 19  1  0  0  0  0
 17 32  1  0  0  0  0
 18 20  2  0  0  0  0
 18 33  1  0  0  0  0
 19 34  1  0  0  0  0
 20 35  1  0  0  0  0
M  END
> <PUBCHEM_COMPOUND_CID>
9838

> <PUBCHEM_CONFORMER_RMSD>
0.6

> <PUBCHEM_CONFORMER_DIVERSEORDER>
1
4
2
3

> <PUBCHEM_MMFF94_PARTIAL_CHARGES>
29
1 -0.34
10 0.18
11 -0.15
12 -0.15
13 -0.14
14 0.37
15 0.37
16 0.18
17 -0.15
18 -0.15
19 -0.15
2 -0.34
20 -0.15
21 1.16
22 0.15
23 0.15
24 0.15
25 0.15
3 -0.34
32 0.15
33 0.15
34 0.15
35 0.15
4 -0.84
5 -0.18
6 -0.18
7 0.1
8 -0.15
9 -0.15

> <PUBCHEM_EFFECTIVE_ROTOR_COUNT>
4

> <PUBCHEM_PHARMACOPHORE_FEATURES>
3
1 4 cation
6 13 16 17 18 19 20 rings
6 7 8 9 10 11 12 rings

> <PUBCHEM_HEAVY_ATOM_COUNT>
21

> <PUBCHEM_ATOM_DEF_STEREO_COUNT>
0

> <PUBCHEM_ATOM_UDEF_STEREO_COUNT>
0

> <PUBCHEM_BOND_DEF_STEREO_COUNT>
0

> <PUBCHEM_BOND_UDEF_STEREO_COUNT>
0

> <PUBCHEM_ISOTOPIC_ATOM_COUNT>
0

> <PUBCHEM_COMPONENT_COUNT>
1

> <PUBCHEM_CACTVS_TAUTO_COUNT>
1

> <PUBCHEM_CONFORMER_ID>
0000266E00000001

> <PUBCHEM_MMFF94_ENERGY>
64.6055

> <PUBCHEM_FEATURE_SELFOVERLAP>
15.223

> <PUBCHEM_SHAPE_FINGERPRINT>
10 15 18337962199727586224
10968037 39 18410011031367338199
11315181 36 18259982661204415409
11719270 70 18408606976852844030
12091667 2 17418093222355858211
12107183 9 17619630619349941456
12166972 35 18341890784105703668
12236239 1 17967252001076613022
12516196 113 18260548918024263072
13073987 5 18272089464967598201
13533116 47 18114464565127441242
14170010 4 18412825777187922908
14251764 18 18202845440134723060
14251764 46 18410856559639835050
15183329 4 18201723976612488641
15716309 27 17530965791069195462
19489759 90 18341894099687898769
200 152 18040715874760321737
20645477 70 18337388352682836662
21130935 74 18260827115962480674
21267235 1 18341323448636446146
220451 1 14045742608248002688
22224240 67 16081094779582982870
23035841 295 14779267518478931438
23402539 116 18411703171283281983
23536379 177 18411136952348058395
23559900 14 18337676312701221481
26918003 58 18343580720307096914
29717793 49 18186513320190654844
300161 21 18342744013480830914
3004659 81 18202565073117253920
34797466 226 17458057145789790372
351380 180 18412261726915492444
3545911 37 18413387644265889874
4073 2 17988355971716130834
4214541 1 18412823607422251925
4325135 7 18114183042720941493
5104073 3 18340762762093880418
542803 24 14201397187889361538
7495541 125 17821731593884916089

> <PUBCHEM_SHAPE_MULTIPOLES>
395.41
18.91
1.41
0.77
2.1
0.04
0.04
0.09
-0.12
0.5
-0.04
-0.25
-0.07
0.38

> <PUBCHEM_SHAPE_SELFOVERLAP>
844.861

> <PUBCHEM_SHAPE_VOLUME>
222

> <PUBCHEM_COORDINATE_TYPE>
2
5
10

$$$$

