3593
  -OEChem-06251223323D

 36 38  0     1  0  0  0  0  0999 V2000
    0.5138   -0.7159   -0.0417 O   0  0  0  0  0  0  0  0  0  0  0  0
    2.4372    2.9074   -0.0965 O   0  0  0  0  0  0  0  0  0  0  0  0
    4.7358    1.6867   -0.0009 O   0  0  0  0  0  0  0  0  0  0  0  0
   -5.7287   -0.1589    0.1622 O   0  0  0  0  0  0  0  0  0  0  0  0
   -4.1903   -0.0396   -2.1500 O   0  0  0  0  0  0  0  0  0  0  0  0
    4.6362   -3.0591   -0.0456 O   0  0  0  0  0  0  0  0  0  0  0  0
   -0.1075    0.4533    0.5149 C   0  0  1  0  0  0  0  0  0  0  0  0
    0.3573    1.7168   -0.2066 C   0  0  0  0  0  0  0  0  0  0  0  0
   -1.6096    0.2898    0.4169 C   0  0  0  0  0  0  0  0  0  0  0  0
    2.5964    0.5528   -0.0261 C   0  0  0  0  0  0  0  0  0  0  0  0
    1.8549    1.8294   -0.0860 C   0  0  0  0  0  0  0  0  0  0  0  0
    1.8831   -0.6495   -0.0298 C   0  0  0  0  0  0  0  0  0  0  0  0
   -2.2207    0.1991   -0.8332 C   0  0  0  0  0  0  0  0  0  0  0  0
   -2.3808    0.2300    1.5773 C   0  0  0  0  0  0  0  0  0  0  0  0
    3.9934    0.5446   -0.0096 C   0  0  0  0  0  0  0  0  0  0  0  0
    2.5705   -1.8638   -0.0513 C   0  0  0  0  0  0  0  0  0  0  0  0
   -3.6045    0.0482   -0.9234 C   0  0  0  0  0  0  0  0  0  0  0  0
    4.6750   -0.6729   -0.0105 C   0  0  0  0  0  0  0  0  0  0  0  0
    3.9656   -1.8742   -0.0362 C   0  0  0  0  0  0  0  0  0  0  0  0
   -3.7647    0.0795    1.4871 C   0  0  0  0  0  0  0  0  0  0  0  0
   -4.3765   -0.0116    0.2369 C   0  0  0  0  0  0  0  0  0  0  0  0
   -6.2360   -1.4919    0.1522 C   0  0  0  0  0  0  0  0  0  0  0  0
    0.1765    0.5081    1.5764 H   0  0  0  0  0  0  0  0  0  0  0  0
   -0.1024    2.6038    0.2436 H   0  0  0  0  0  0  0  0  0  0  0  0
    0.1264    1.7025   -1.2776 H   0  0  0  0  0  0  0  0  0  0  0  0
   -1.6233    0.2331   -1.7408 H   0  0  0  0  0  0  0  0  0  0  0  0
   -1.9190    0.2994    2.5585 H   0  0  0  0  0  0  0  0  0  0  0  0
    2.0215   -2.8021   -0.0690 H   0  0  0  0  0  0  0  0  0  0  0  0
    5.7624   -0.6899    0.0015 H   0  0  0  0  0  0  0  0  0  0  0  0
   -4.3600    0.0344    2.3951 H   0  0  0  0  0  0  0  0  0  0  0  0
    5.6812    1.4595    0.0083 H   0  0  0  0  0  0  0  0  0  0  0  0
   -3.5029    0.0208   -2.8354 H   0  0  0  0  0  0  0  0  0  0  0  0
    5.5923   -2.8811   -0.0324 H   0  0  0  0  0  0  0  0  0  0  0  0
   -5.8528   -2.0441   -0.7118 H   0  0  0  0  0  0  0  0  0  0  0  0
   -7.3259   -1.4432    0.0805 H   0  0  0  0  0  0  0  0  0  0  0  0
   -5.9688   -2.0105    1.0784 H   0  0  0  0  0  0  0  0  0  0  0  0
  1  7  1  0  0  0  0
  1 12  1  0  0  0  0
  2 11  2  0  0  0  0
  3 15  1  0  0  0  0
  3 31  1  0  0  0  0
  4 21  1  0  0  0  0
  4 22  1  0  0  0  0
  5 17  1  0  0  0  0
  5 32  1  0  0  0  0
  6 19  1  0  0  0  0
  6 33  1  0  0  0  0
  7  8  1  0  0  0  0
  7  9  1  0  0  0  0
  7 23  1  0  0  0  0
  8 11  1  0  0  0  0
  8 24  1  0  0  0  0
  8 25  1  0  0  0  0
  9 13  2  0  0  0  0
  9 14  1  0  0  0  0
 10 11  1  0  0  0  0
 10 12  1  0  0  0  0
 10 15  2  0  0  0  0
 12 16  2  0  0  0  0
 13 17  1  0  0  0  0
 13 26  1  0  0  0  0
 14 20  2  0  0  0  0
 14 27  1  0  0  0  0
 15 18  1  0  0  0  0
 16 19  1  0  0  0  0
 16 28  1  0  0  0  0
 17 21  2  0  0  0  0
 18 19  2  0  0  0  0
 18 29  1  0  0  0  0
 20 21  1  0  0  0  0
 20 30  1  0  0  0  0
 22 34  1  0  0  0  0
 22 35  1  0  0  0  0
 22 36  1  0  0  0  0
M  END
> <PUBCHEM_COMPOUND_CID>
3593

> <PUBCHEM_CONFORMER_RMSD>
0.6

> <PUBCHEM_CONFORMER_DIVERSEORDER>
1
8
19
7
20
16
15
6
18
4
10
2
9
11
13
17
12
5
21
3
14

> <PUBCHEM_MMFF94_PARTIAL_CHARGES>
30
1 -0.36
10 0.09
11 0.42
12 0.08
13 -0.15
14 -0.15
15 0.08
16 -0.15
17 0.08
18 -0.15
19 0.08
2 -0.57
20 -0.15
21 0.08
22 0.28
26 0.15
27 0.15
28 0.15
29 0.15
3 -0.53
30 0.15
31 0.45
32 0.45
33 0.45
4 -0.36
5 -0.53
6 -0.53
7 0.42
8 0.06
9 -0.14

> <PUBCHEM_EFFECTIVE_ROTOR_COUNT>
2.6

> <PUBCHEM_PHARMACOPHORE_FEATURES>
9
1 1 acceptor
1 2 acceptor
1 3 donor
1 4 acceptor
1 5 donor
1 6 donor
6 1 7 8 10 11 12 rings
6 10 12 15 16 18 19 rings
6 9 13 14 17 20 21 rings

> <PUBCHEM_HEAVY_ATOM_COUNT>
22

> <PUBCHEM_ATOM_DEF_STEREO_COUNT>
0

> <PUBCHEM_ATOM_UDEF_STEREO_COUNT>
1

> <PUBCHEM_BOND_DEF_STEREO_COUNT>
0

> <PUBCHEM_BOND_UDEF_STEREO_COUNT>
0

> <PUBCHEM_ISOTOPIC_ATOM_COUNT>
0

> <PUBCHEM_COMPONENT_COUNT>
1

> <PUBCHEM_CACTVS_TAUTO_COUNT>
63

> <PUBCHEM_CONFORMER_ID>
00000E0900000001

> <PUBCHEM_MMFF94_ENERGY>
73.6391

> <PUBCHEM_FEATURE_SELFOVERLAP>
45.699

> <PUBCHEM_SHAPE_FINGERPRINT>
10366900 7 17346313817196344995
10411042 1 18194963170451620666
11471102 20 18412260623599637744
11796584 16 16486978444635627338
12107183 9 17901655296256480833
12236239 1 17894345575535527929
12616971 3 17894914018836445517
12788726 201 17168131352492920123
13009979 54 17677605535626668306
13134695 92 18411136948380664900
13140716 1 18121500155529184976
13167823 11 18113898281904429459
13533116 47 18261110759754569091
13544653 18 18341607174476765236
13782708 43 17775003488303780115
13862211 1 18340204202383538114
13955234 65 18335704875768469240
14386348 63 17775281655891434601
15196674 1 18339078293132224384
15788980 27 18187368761305777309
15848702 151 18410290341453626381
15961568 22 16127523757645749108
17349148 13 17967250909875585319
17357779 13 18130514118682255580
17844677 252 18411412947268570837
1813 80 18189040057755989772
18186145 218 17561081440540243553
18222031 100 18335418023735212146
200 152 18333450945824818225
20028762 73 18187928425583980518
20645477 70 18343021094837678218
21033648 29 17917723383080765549
21033650 10 15984540147333686508
21065198 48 18114172064552599873
21065201 7 16487255473698622441
21267235 1 18335414708162916974
21641784 216 17986933311202532484
221357 26 18272938245443266573
22224240 67 18262243210425905352
22393880 68 17917720136090731899
22646028 1 17967816063162787403
23175994 123 18060131059689758549
23557571 272 17203614770117040453
23559900 14 16988832861226559403
2871803 45 18131067186269005594
314194 84 18260272949100855719
33824 294 18412545401627504866
345986 75 17969225701852848032
34797466 226 16773783797213350534
4073 2 18130781205987808763
42630746 31 18408602531371301312
46194498 28 17703789167801565285
465052 167 18334008410746618374
474 4 18191023404955580256
5104073 3 18260829353407801313
5281201 14 17917710214404866781
573450 72 17095242540333062385
602551 16 15213310685483421692
7970288 3 18194402414472867218

> <PUBCHEM_SHAPE_MULTIPOLES>
417.53
12.63
2.19
1.09
9.05
0.19
-0.11
5.13
-0.45
-3.78
-0.08
1.64
-0.05
-0.03

> <PUBCHEM_SHAPE_SELFOVERLAP>
920.915

> <PUBCHEM_SHAPE_VOLUME>
224.3

> <PUBCHEM_COORDINATE_TYPE>
2
5
10

$$$$

