17396435
  -OEChem-06241222563D

 46 48  0     1  0  0  0  0  0999 V2000
   -2.8126    2.6806    0.1311 S   0  0  0  0  0  0  0  0  0  0  0  0
    0.1975    2.8969   -0.3976 S   0  0  0  0  0  0  0  0  0  0  0  0
   -3.9951    0.7768   -1.6337 O   0  0  0  0  0  0  0  0  0  0  0  0
   -3.9308   -1.0372   -0.2044 N   0  0  0  0  0  0  0  0  0  0  0  0
    2.4483    1.4638   -0.3358 N   0  0  0  0  0  0  0  0  0  0  0  0
   -0.9425    0.7436    0.3961 N   0  0  0  0  0  0  0  0  0  0  0  0
    0.4010    0.4334    0.2769 N   0  0  0  0  0  0  0  0  0  0  0  0
   -3.7420   -3.3590   -0.5398 C   0  0  0  0  0  0  0  0  0  0  0  0
   -4.1939   -3.1062    0.8929 C   0  0  0  0  0  0  0  0  0  0  0  0
   -4.0829   -2.0512   -1.2374 C   0  0  0  0  0  0  0  0  0  0  0  0
   -3.8197   -1.6478    1.1166 C   0  0  0  0  0  0  0  0  0  0  0  0
   -3.8993    0.3145   -0.4957 C   0  0  0  0  0  0  0  0  0  0  0  0
   -3.7432    1.2317    0.6906 C   0  0  2  0  0  0  0  0  0  0  0  0
   -5.1037    1.6313    1.2212 C   0  0  0  0  0  0  0  0  0  0  0  0
   -1.1841    1.9966    0.0745 C   0  0  0  0  0  0  0  0  0  0  0  0
    3.3944    0.4158   -0.1819 C   0  0  0  0  0  0  0  0  0  0  0  0
    4.7441    0.6975    0.0291 C   0  0  0  0  0  0  0  0  0  0  0  0
    5.2247   -1.6685    0.1151 C   0  0  0  0  0  0  0  0  0  0  0  0
    5.6592   -0.3445    0.1776 C   0  0  0  0  0  0  0  0  0  0  0  0
    1.1066    1.4675   -0.1289 C   0  0  0  0  0  0  0  0  0  0  0  0
    2.9597   -0.9083   -0.2444 C   0  0  0  0  0  0  0  0  0  0  0  0
    3.8749   -1.9503   -0.0958 C   0  0  0  0  0  0  0  0  0  0  0  0
    5.2369    2.1063    0.1004 C   0  0  0  0  0  0  0  0  0  0  0  0
    6.2027   -2.7831    0.2736 C   0  0  0  0  0  0  0  0  0  0  0  0
   -4.2323   -4.2220   -0.9981 H   0  0  0  0  0  0  0  0  0  0  0  0
   -2.6582   -3.5257   -0.5621 H   0  0  0  0  0  0  0  0  0  0  0  0
   -3.7230   -3.7779    1.6157 H   0  0  0  0  0  0  0  0  0  0  0  0
   -5.2812   -3.2302    0.9648 H   0  0  0  0  0  0  0  0  0  0  0  0
   -5.1264   -2.0325   -1.5706 H   0  0  0  0  0  0  0  0  0  0  0  0
   -3.4347   -1.8376   -2.0924 H   0  0  0  0  0  0  0  0  0  0  0  0
   -2.7783   -1.5533    1.4434 H   0  0  0  0  0  0  0  0  0  0  0  0
   -4.4718   -1.1628    1.8461 H   0  0  0  0  0  0  0  0  0  0  0  0
   -3.1852    0.7635    1.5049 H   0  0  0  0  0  0  0  0  0  0  0  0
   -5.0144    2.3006    2.0840 H   0  0  0  0  0  0  0  0  0  0  0  0
   -5.7067    2.1372    0.4575 H   0  0  0  0  0  0  0  0  0  0  0  0
   -5.6797    0.7576    1.5435 H   0  0  0  0  0  0  0  0  0  0  0  0
    6.7130   -0.1304    0.3396 H   0  0  0  0  0  0  0  0  0  0  0  0
    2.8698    2.3545   -0.5832 H   0  0  0  0  0  0  0  0  0  0  0  0
    1.9310   -1.1827   -0.4486 H   0  0  0  0  0  0  0  0  0  0  0  0
    3.5264   -2.9780   -0.1574 H   0  0  0  0  0  0  0  0  0  0  0  0
    5.1197    2.6026   -0.8686 H   0  0  0  0  0  0  0  0  0  0  0  0
    4.6940    2.6686    0.8676 H   0  0  0  0  0  0  0  0  0  0  0  0
    6.2993    2.1518    0.3642 H   0  0  0  0  0  0  0  0  0  0  0  0
    5.7226   -3.6767    0.6868 H   0  0  0  0  0  0  0  0  0  0  0  0
    7.0080   -2.5054    0.9622 H   0  0  0  0  0  0  0  0  0  0  0  0
    6.6414   -3.0386   -0.6961 H   0  0  0  0  0  0  0  0  0  0  0  0
  1 13  1  0  0  0  0
  1 15  1  0  0  0  0
  2 15  1  0  0  0  0
  2 20  1  0  0  0  0
  3 12  2  0  0  0  0
  4 10  1  0  0  0  0
  4 11  1  0  0  0  0
  4 12  1  0  0  0  0
  5 16  1  0  0  0  0
  5 20  1  0  0  0  0
  5 38  1  0  0  0  0
  6  7  1  0  0  0  0
  6 15  2  0  0  0  0
  7 20  2  0  0  0  0
  8  9  1  0  0  0  0
  8 10  1  0  0  0  0
  8 25  1  0  0  0  0
  8 26  1  0  0  0  0
  9 11  1  0  0  0  0
  9 27  1  0  0  0  0
  9 28  1  0  0  0  0
 10 29  1  0  0  0  0
 10 30  1  0  0  0  0
 11 31  1  0  0  0  0
 11 32  1  0  0  0  0
 12 13  1  0  0  0  0
 13 14  1  0  0  0  0
 13 33  1  0  0  0  0
 14 34  1  0  0  0  0
 14 35  1  0  0  0  0
 14 36  1  0  0  0  0
 16 17  2  0  0  0  0
 16 21  1  0  0  0  0
 17 19  1  0  0  0  0
 17 23  1  0  0  0  0
 18 19  2  0  0  0  0
 18 22  1  0  0  0  0
 18 24  1  0  0  0  0
 19 37  1  0  0  0  0
 21 22  2  0  0  0  0
 21 39  1  0  0  0  0
 22 40  1  0  0  0  0
 23 41  1  0  0  0  0
 23 42  1  0  0  0  0
 23 43  1  0  0  0  0
 24 44  1  0  0  0  0
 24 45  1  0  0  0  0
 24 46  1  0  0  0  0
M  END
> <PUBCHEM_COMPOUND_CID>
17396435

> <PUBCHEM_CONFORMER_RMSD>
1.2

> <PUBCHEM_CONFORMER_DIVERSEORDER>
1
44
53
88
72
7
24
101
112
82
37
97
4
5
66
87
109
83
69
34
38
59
46
73
100
105
94
103
99
23
13
29
79
102
48
57
42
27
74
14
77
41
22
86
3
43
52
39
55
91
60
6
20
58
76
104
25
26
89
68
75
50
47
107
36
96
49
80
110
67
56
106
31
84
90
78
40
111
2
70
15
71
85
9
51
11
65
54
32
98
30
61
12
21
28
10
18
92
8
95
63
113
81
17
35
33
108
19
62
16
45
64
93

> <PUBCHEM_MMFF94_PARTIAL_CHARGES>
25
1 -0.29
10 0.3
11 0.3
12 0.57
13 0.29
15 0.43
16 0.1
17 -0.14
18 -0.14
19 -0.15
2 -0.08
20 0.46
21 -0.15
22 -0.15
23 0.14
24 0.14
3 -0.57
37 0.15
38 0.4
39 0.15
4 -0.66
40 0.15
5 -0.58
6 -0.34
7 -0.34

> <PUBCHEM_EFFECTIVE_ROTOR_COUNT>
7

> <PUBCHEM_PHARMACOPHORE_FEATURES>
8
1 14 hydrophobe
1 3 acceptor
1 5 donor
1 6 acceptor
3 5 7 20 cation
5 2 6 7 15 20 rings
5 4 8 9 10 11 rings
6 16 17 18 19 21 22 rings

> <PUBCHEM_HEAVY_ATOM_COUNT>
24

> <PUBCHEM_ATOM_DEF_STEREO_COUNT>
0

> <PUBCHEM_ATOM_UDEF_STEREO_COUNT>
1

> <PUBCHEM_BOND_DEF_STEREO_COUNT>
0

> <PUBCHEM_BOND_UDEF_STEREO_COUNT>
0

> <PUBCHEM_ISOTOPIC_ATOM_COUNT>
0

> <PUBCHEM_COMPONENT_COUNT>
1

> <PUBCHEM_CACTVS_TAUTO_COUNT>
2

> <PUBCHEM_CONFORMER_ID>
010972D300000001

> <PUBCHEM_MMFF94_ENERGY>
59.7191

> <PUBCHEM_FEATURE_SELFOVERLAP>
40.594

> <PUBCHEM_SHAPE_FINGERPRINT>
11135609 12 18200306603324827473
11443803 9 16879069845137360257
11524674 6 17386010636571557823
12174731 88 17911812571678814386
12422481 6 17603584162335062566
12616971 3 17632286874195856605
13167823 11 18410013269013722336
13941219 33 18339067225734414387
14211702 104 18410572881930866734
14251751 18 18408042927060299346
14866123 147 18408316680376966739
14950920 106 16806442505589539187
15250474 111 18410299137605171018
15352361 1 18411419475291676743
15361156 5 18058995259951746892
15728490 83 18342450418476339251
15799311 1 18337372933823577172
16110190 28 18335976528233646529
16994733 274 14563637999227760761
17492 89 18267583511967415019
17627616 140 17773607198467457379
17857418 61 18409733997381530336
18927931 339 18338508737539837237
19141452 34 18337666511960495529
20028762 73 18335146440395933534
21403212 168 18191295182687349697
220451 1 18411127052902556804
221490 88 18268710519680492237
22393880 68 17988936586226026570
23424784 1240 18334563668756822206
23559900 14 18337121072604843769
25122255 55 18335134341166592510
312425 54 18186523245559675256
314194 84 18264768757720419400
329604 57 18269272374327296678
4073 2 18341891862252667456
44062 13 18343021095043497551
463206 1 18341044198489744322
484985 159 18409449160010325767
5104073 3 18260547827271284584
5365585 94 18129937858947073763
5486654 36 18340198610251170681
559249 180 18409730707774256697
6431902 208 18339644425661836150
7495541 125 17822300080694896736
7970288 3 17977384932883113491
999808 66 17988907973976795291

> <PUBCHEM_SHAPE_MULTIPOLES>
475.81
15.38
4.09
0.98
12.47
1.7
0.07
8.07
-1.34
-2.4
-0.05
-1.38
0.17
-0.67

> <PUBCHEM_SHAPE_SELFOVERLAP>
976.082

> <PUBCHEM_SHAPE_VOLUME>
277.6

> <PUBCHEM_COORDINATE_TYPE>
2
5
10

$$$$

