13498
  -OEChem-06261214492D

 60 61  0     0  0  0  0  0  0999 V2000
    6.6138    5.0783    0.0000 O   0  0  0  0  0  0  0  0  0  0  0  0
    2.7690    3.6944    0.0000 O   0  0  0  0  0  0  0  0  0  0  0  0
    4.0010    4.5604    0.0000 O   0  5  0  0  0  0  0  0  0  0  0  0
    3.1350    6.0604    0.0000 O   0  0  0  0  0  0  0  0  0  0  0  0
    0.5369    2.5604    0.0000 O   0  0  0  0  0  0  0  0  0  0  0  0
    0.2690    6.2925    0.0000 O   0  0  0  0  0  0  0  0  0  0  0  0
    2.2690    2.5604    0.0000 O   0  0  0  0  0  0  0  0  0  0  0  0
    0.2690    4.5604    0.0000 O   0  0  0  0  0  0  0  0  0  0  0  0
    9.6083    6.9149    0.0000 N   0  3  0  0  0  0  0  0  0  0  0  0
    6.4059    4.1002    0.0000 N   0  0  0  0  0  0  0  0  0  0  0  0
    8.7423    7.4149    0.0000 C   0  0  0  0  0  0  0  0  0  0  0  0
   10.4744    7.4149    0.0000 C   0  0  0  0  0  0  0  0  0  0  0  0
   10.4744    8.4149    0.0000 C   0  0  0  0  0  0  0  0  0  0  0  0
    8.7423    8.4149    0.0000 C   0  0  0  0  0  0  0  0  0  0  0  0
    9.6083    8.9149    0.0000 C   0  0  0  0  0  0  0  0  0  0  0  0
    9.1083    6.0489    0.0000 C   0  0  0  0  0  0  0  0  0  0  0  0
    8.1083    6.0489    0.0000 C   0  0  0  0  0  0  0  0  0  0  0  0
    7.6083    5.1828    0.0000 C   0  0  0  0  0  0  0  0  0  0  0  0
    8.0151    4.2693    0.0000 C   0  0  0  0  0  0  0  0  0  0  0  0
    7.2719    3.6002    0.0000 C   0  0  0  0  0  0  0  0  0  0  0  0
    7.3764    2.6056    0.0000 C   0  0  0  0  0  0  0  0  0  0  0  0
    2.2690    4.5604    0.0000 C   0  0  0  0  0  0  0  0  0  0  0  0
    6.5674    2.0179    0.0000 C   0  0  0  0  0  0  0  0  0  0  0  0
    8.2900    2.1989    0.0000 C   0  0  0  0  0  0  0  0  0  0  0  0
    1.4030    4.0604    0.0000 C   0  0  0  0  0  0  0  0  0  0  0  0
    1.7690    5.4264    0.0000 C   0  0  0  0  0  0  0  0  0  0  0  0
    3.1350    5.0604    0.0000 C   0  0  0  0  0  0  0  0  0  0  0  0
    6.6720    1.0233    0.0000 C   0  0  0  0  0  0  0  0  0  0  0  0
    8.3945    1.2044    0.0000 C   0  0  0  0  0  0  0  0  0  0  0  0
    1.4030    3.0604    0.0000 C   0  0  0  0  0  0  0  0  0  0  0  0
    0.7690    5.4264    0.0000 C   0  0  0  0  0  0  0  0  0  0  0  0
    7.5855    0.6166    0.0000 C   0  0  0  0  0  0  0  0  0  0  0  0
    9.9183    6.3780    0.0000 H   0  0  0  0  0  0  0  0  0  0  0  0
    8.1317    7.5226    0.0000 H   0  0  0  0  0  0  0  0  0  0  0  0
    8.5302    6.8323    0.0000 H   0  0  0  0  0  0  0  0  0  0  0  0
   10.6864    6.8323    0.0000 H   0  0  0  0  0  0  0  0  0  0  0  0
   11.0849    7.5226    0.0000 H   0  0  0  0  0  0  0  0  0  0  0  0
   11.0849    8.3072    0.0000 H   0  0  0  0  0  0  0  0  0  0  0  0
   10.6864    8.9975    0.0000 H   0  0  0  0  0  0  0  0  0  0  0  0
    8.5302    8.9975    0.0000 H   0  0  0  0  0  0  0  0  0  0  0  0
    8.1317    8.3072    0.0000 H   0  0  0  0  0  0  0  0  0  0  0  0
   10.0069    9.3898    0.0000 H   0  0  0  0  0  0  0  0  0  0  0  0
    9.2098    9.3898    0.0000 H   0  0  0  0  0  0  0  0  0  0  0  0
    9.0007    5.4383    0.0000 H   0  0  0  0  0  0  0  0  0  0  0  0
    9.6909    5.8368    0.0000 H   0  0  0  0  0  0  0  0  0  0  0  0
    8.2160    6.6594    0.0000 H   0  0  0  0  0  0  0  0  0  0  0  0
    7.5257    6.2609    0.0000 H   0  0  0  0  0  0  0  0  0  0  0  0
    8.6215    4.1404    0.0000 H   0  0  0  0  0  0  0  0  0  0  0  0
    1.1909    4.6430    0.0000 H   0  0  0  0  0  0  0  0  0  0  0  0
    0.7924    3.9528    0.0000 H   0  0  0  0  0  0  0  0  0  0  0  0
    2.3516    5.6385    0.0000 H   0  0  0  0  0  0  0  0  0  0  0  0
    1.6613    6.0370    0.0000 H   0  0  0  0  0  0  0  0  0  0  0  0
    6.0010    2.2700    0.0000 H   0  0  0  0  0  0  0  0  0  0  0  0
    8.7916    2.5633    0.0000 H   0  0  0  0  0  0  0  0  0  0  0  0
    6.1704    0.6589    0.0000 H   0  0  0  0  0  0  0  0  0  0  0  0
    8.9609    0.9522    0.0000 H   0  0  0  0  0  0  0  0  0  0  0  0
    2.4590    3.1575    0.0000 H   0  0  0  0  0  0  0  0  0  0  0  0
    7.6503    0.0000    0.0000 H   0  0  0  0  0  0  0  0  0  0  0  0
    0.0000    2.8704    0.0000 H   0  0  0  0  0  0  0  0  0  0  0  0
    0.5790    6.8294    0.0000 H   0  0  0  0  0  0  0  0  0  0  0  0
  1 10  1  0  0  0  0
  1 18  1  0  0  0  0
  2 22  1  0  0  0  0
  2 57  1  0  0  0  0
  3 27  1  0  0  0  0
  4 27  2  0  0  0  0
  5 30  1  0  0  0  0
  5 59  1  0  0  0  0
  6 31  1  0  0  0  0
  6 60  1  0  0  0  0
  7 30  2  0  0  0  0
  8 31  2  0  0  0  0
  9 11  1  0  0  0  0
  9 12  1  0  0  0  0
  9 16  1  0  0  0  0
  9 33  1  0  0  0  0
 10 20  2  0  0  0  0
 11 14  1  0  0  0  0
 11 34  1  0  0  0  0
 11 35  1  0  0  0  0
 12 13  1  0  0  0  0
 12 36  1  0  0  0  0
 12 37  1  0  0  0  0
 13 15  1  0  0  0  0
 13 38  1  0  0  0  0
 13 39  1  0  0  0  0
 14 15  1  0  0  0  0
 14 40  1  0  0  0  0
 14 41  1  0  0  0  0
 15 42  1  0  0  0  0
 15 43  1  0  0  0  0
 16 17  1  0  0  0  0
 16 44  1  0  0  0  0
 16 45  1  0  0  0  0
 17 18  1  0  0  0  0
 17 46  1  0  0  0  0
 17 47  1  0  0  0  0
 18 19  2  0  0  0  0
 19 20  1  0  0  0  0
 19 48  1  0  0  0  0
 20 21  1  0  0  0  0
 21 23  2  0  0  0  0
 21 24  1  0  0  0  0
 22 25  1  0  0  0  0
 22 26  1  0  0  0  0
 22 27  1  0  0  0  0
 23 28  1  0  0  0  0
 23 53  1  0  0  0  0
 24 29  2  0  0  0  0
 24 54  1  0  0  0  0
 25 30  1  0  0  0  0
 25 49  1  0  0  0  0
 25 50  1  0  0  0  0
 26 31  1  0  0  0  0
 26 51  1  0  0  0  0
 26 52  1  0  0  0  0
 28 32  2  0  0  0  0
 28 55  1  0  0  0  0
 29 32  1  0  0  0  0
 29 56  1  0  0  0  0
 32 58  1  0  0  0  0
M  CHG  2   3  -1   9   1
M  END
> <PUBCHEM_COMPOUND_CID>
13498

> <PUBCHEM_COMPOUND_CANONICALIZED>
1

> <PUBCHEM_CACTVS_COMPLEXITY>
481

> <PUBCHEM_CACTVS_HBOND_ACCEPTOR>
9

> <PUBCHEM_CACTVS_HBOND_DONOR>
4

> <PUBCHEM_CACTVS_ROTATABLE_BOND>
8

> <PUBCHEM_CACTVS_SUBSKEYS>
AAADceB7PAAAAAAAAAAAAAAAAAAAAWAAAAA8QAAAAAAAAAABwAAAHgAUCAAADEzBngQwjJPQAgCpA6TySgKCAAAkIgAomKF+bNoJJr6AkZOEcYBnsBiJyUfb7uCOAAAAAAAAAAAAAAAAAAAAAAAAAAAAAA==

> <PUBCHEM_IUPAC_OPENEYE_NAME>
2-(carboxymethyl)-2,4-dihydroxy-4-oxo-butanoate; 3-phenyl-5-(2-piperidin-1-ium-1-ylethyl)isoxazole

> <PUBCHEM_IUPAC_CAS_NAME>
2-(carboxymethyl)-2,4-dihydroxy-4-oxobutanoate; 3-phenyl-5-[2-(1-piperidin-1-iumyl)ethyl]isoxazole

> <PUBCHEM_IUPAC_NAME>
2-(carboxymethyl)-2,4-dihydroxy-4-oxobutanoate; 3-phenyl-5-(2-piperidin-1-ium-1-ylethyl)-1,2-oxazole

> <PUBCHEM_IUPAC_SYSTEMATIC_NAME>
2-(2-hydroxy-2-oxoethyl)-2,4-bis(oxidanyl)-4-oxidanylidene-butanoate; 3-phenyl-5-(2-piperidin-1-ium-1-ylethyl)-1,2-oxazole

> <PUBCHEM_IUPAC_TRADITIONAL_NAME>
2-(carboxymethyl)-2,4-dihydroxy-4-keto-butyrate; 3-phenyl-5-(2-piperidin-1-ium-1-ylethyl)isoxazole

> <PUBCHEM_IUPAC_INCHI>
InChI=1S/C16H20N2O.C6H8O7/c1-3-7-14(8-4-1)16-13-15(19-17-16)9-12-18-10-5-2-6-11-18;7-3(8)1-6(13,5(11)12)2-4(9)10/h1,3-4,7-8,13H,2,5-6,9-12H2;13H,1-2H2,(H,7,8)(H,9,10)(H,11,12)

> <PUBCHEM_IUPAC_INCHIKEY>
WUYWHUFUKXULGK-UHFFFAOYSA-N

> <PUBCHEM_EXACT_MASS>
448.184566

> <PUBCHEM_MOLECULAR_FORMULA>
C22H28N2O8

> <PUBCHEM_MOLECULAR_WEIGHT>
448.46632

> <PUBCHEM_OPENEYE_CAN_SMILES>
C1CC[NH+](CC1)CCC2=CC(=NO2)C3=CC=CC=C3.C(C(=O)O)C(CC(=O)O)(C(=O)[O-])O

> <PUBCHEM_OPENEYE_ISO_SMILES>
C1CC[NH+](CC1)CCC2=CC(=NO2)C3=CC=CC=C3.C(C(=O)O)C(CC(=O)O)(C(=O)[O-])O

> <PUBCHEM_CACTVS_TPSA>
165

> <PUBCHEM_MONOISOTOPIC_WEIGHT>
448.184566

> <PUBCHEM_TOTAL_CHARGE>
0

> <PUBCHEM_HEAVY_ATOM_COUNT>
32

> <PUBCHEM_ATOM_DEF_STEREO_COUNT>
0

> <PUBCHEM_ATOM_UDEF_STEREO_COUNT>
0

> <PUBCHEM_BOND_DEF_STEREO_COUNT>
0

> <PUBCHEM_BOND_UDEF_STEREO_COUNT>
0

> <PUBCHEM_ISOTOPIC_ATOM_COUNT>
0

> <PUBCHEM_COMPONENT_COUNT>
2

> <PUBCHEM_CACTVS_TAUTO_COUNT>
1

> <PUBCHEM_COORDINATE_TYPE>
1
5
255

> <PUBCHEM_BONDANNOTATIONS>
1  10  8
1  18  8
10  20  8
18  19  8
19  20  8
21  23  8
21  24  8
23  28  8
24  29  8
28  32  8
29  32  8

$$$$

