8465
  -OEChem-06261202522D

 30 30  0     0  0  0  0  0  0999 V2000
    3.4030    1.1550    0.0000 O   0  0  0  0  0  0  0  0  0  0  0  0
    2.5369   -2.3450    0.0000 O   0  0  0  0  0  0  0  0  0  0  0  0
    4.2690   -3.3450    0.0000 O   0  0  0  0  0  0  0  0  0  0  0  0
    5.1350    2.1550    0.0000 N   0  0  0  0  0  0  0  0  0  0  0  0
    6.0010    2.6550    0.0000 C   0  0  0  0  0  0  0  0  0  0  0  0
    5.1350    1.1550    0.0000 C   0  0  0  0  0  0  0  0  0  0  0  0
    6.0010    3.6550    0.0000 C   0  0  0  0  0  0  0  0  0  0  0  0
    6.8671    2.1550    0.0000 C   0  0  0  0  0  0  0  0  0  0  0  0
    4.2690    0.6550    0.0000 C   0  0  0  0  0  0  0  0  0  0  0  0
    4.2690   -0.3450    0.0000 C   0  0  0  0  0  0  0  0  0  0  0  0
    3.4030   -0.8450    0.0000 C   0  0  0  0  0  0  0  0  0  0  0  0
    5.1350   -0.8450    0.0000 C   0  0  0  0  0  0  0  0  0  0  0  0
    3.4030   -1.8450    0.0000 C   0  0  0  0  0  0  0  0  0  0  0  0
    5.1350   -1.8450    0.0000 C   0  0  0  0  0  0  0  0  0  0  0  0
    4.2690   -2.3450    0.0000 C   0  0  0  0  0  0  0  0  0  0  0  0
    5.4641    2.9650    0.0000 H   0  0  0  0  0  0  0  0  0  0  0  0
    4.5981    2.4650    0.0000 H   0  0  0  0  0  0  0  0  0  0  0  0
    5.3471    0.5724    0.0000 H   0  0  0  0  0  0  0  0  0  0  0  0
    5.7456    1.2627    0.0000 H   0  0  0  0  0  0  0  0  0  0  0  0
    6.6210    3.6550    0.0000 H   0  0  0  0  0  0  0  0  0  0  0  0
    6.0010    4.2750    0.0000 H   0  0  0  0  0  0  0  0  0  0  0  0
    5.3810    3.6550    0.0000 H   0  0  0  0  0  0  0  0  0  0  0  0
    6.5571    1.6181    0.0000 H   0  0  0  0  0  0  0  0  0  0  0  0
    7.4040    1.8450    0.0000 H   0  0  0  0  0  0  0  0  0  0  0  0
    7.1771    2.6919    0.0000 H   0  0  0  0  0  0  0  0  0  0  0  0
    2.8660   -0.5350    0.0000 H   0  0  0  0  0  0  0  0  0  0  0  0
    5.6720   -0.5350    0.0000 H   0  0  0  0  0  0  0  0  0  0  0  0
    5.6720   -2.1550    0.0000 H   0  0  0  0  0  0  0  0  0  0  0  0
    2.0000   -2.0350    0.0000 H   0  0  0  0  0  0  0  0  0  0  0  0
    4.8059   -3.6550    0.0000 H   0  0  0  0  0  0  0  0  0  0  0  0
  1  9  2  0  0  0  0
  2 13  1  0  0  0  0
  2 29  1  0  0  0  0
  3 15  1  0  0  0  0
  3 30  1  0  0  0  0
  4  5  1  0  0  0  0
  4  6  1  0  0  0  0
  4 17  1  0  0  0  0
  5  7  1  0  0  0  0
  5  8  1  0  0  0  0
  5 16  1  0  0  0  0
  6  9  1  0  0  0  0
  6 18  1  0  0  0  0
  6 19  1  0  0  0  0
  7 20  1  0  0  0  0
  7 21  1  0  0  0  0
  7 22  1  0  0  0  0
  8 23  1  0  0  0  0
  8 24  1  0  0  0  0
  8 25  1  0  0  0  0
  9 10  1  0  0  0  0
 10 11  2  0  0  0  0
 10 12  1  0  0  0  0
 11 13  1  0  0  0  0
 11 26  1  0  0  0  0
 12 14  2  0  0  0  0
 12 27  1  0  0  0  0
 13 15  2  0  0  0  0
 14 15  1  0  0  0  0
 14 28  1  0  0  0  0
M  END
> <PUBCHEM_COMPOUND_CID>
8465

> <PUBCHEM_COMPOUND_CANONICALIZED>
1

> <PUBCHEM_CACTVS_COMPLEXITY>
218

> <PUBCHEM_CACTVS_HBOND_ACCEPTOR>
4

> <PUBCHEM_CACTVS_HBOND_DONOR>
3

> <PUBCHEM_CACTVS_ROTATABLE_BOND>
4

> <PUBCHEM_CACTVS_SUBSKEYS>
AAADccByMAAAAAAAAAAAAAAAAAAAAAAAAAAwAAAAAAAAAAABAAAAHgAQCAAADCzBmAQyBoLAAgCIAqBSAAACAAAkIAAIiIGOiMgJJjKClTOEcQEk0BGJmYea3LLOIAABAAAAQABAAAIAAACAAAAAAAAAAA==

> <PUBCHEM_IUPAC_OPENEYE_NAME>
1-(3,4-dihydroxyphenyl)-2-(isopropylamino)ethanone

> <PUBCHEM_IUPAC_CAS_NAME>
1-(3,4-dihydroxyphenyl)-2-(propan-2-ylamino)ethanone

> <PUBCHEM_IUPAC_NAME>
1-(3,4-dihydroxyphenyl)-2-(propan-2-ylamino)ethanone

> <PUBCHEM_IUPAC_SYSTEMATIC_NAME>
1-[3,4-bis(oxidanyl)phenyl]-2-(propan-2-ylamino)ethanone

> <PUBCHEM_IUPAC_TRADITIONAL_NAME>
1-(3,4-dihydroxyphenyl)-2-(isopropylamino)ethanone

> <PUBCHEM_IUPAC_INCHI>
InChI=1S/C11H15NO3/c1-7(2)12-6-11(15)8-3-4-9(13)10(14)5-8/h3-5,7,12-14H,6H2,1-2H3

> <PUBCHEM_IUPAC_INCHIKEY>
BIQMIYWSZZTXEX-UHFFFAOYSA-N

> <PUBCHEM_XLOGP3_AA>
1.3

> <PUBCHEM_EXACT_MASS>
209.105193

> <PUBCHEM_MOLECULAR_FORMULA>
C11H15NO3

> <PUBCHEM_MOLECULAR_WEIGHT>
209.2417

> <PUBCHEM_OPENEYE_CAN_SMILES>
CC(C)NCC(=O)C1=CC(=C(C=C1)O)O

> <PUBCHEM_OPENEYE_ISO_SMILES>
CC(C)NCC(=O)C1=CC(=C(C=C1)O)O

> <PUBCHEM_CACTVS_TPSA>
69.6

> <PUBCHEM_MONOISOTOPIC_WEIGHT>
209.105193

> <PUBCHEM_TOTAL_CHARGE>
0

> <PUBCHEM_HEAVY_ATOM_COUNT>
15

> <PUBCHEM_ATOM_DEF_STEREO_COUNT>
0

> <PUBCHEM_ATOM_UDEF_STEREO_COUNT>
0

> <PUBCHEM_BOND_DEF_STEREO_COUNT>
0

> <PUBCHEM_BOND_UDEF_STEREO_COUNT>
0

> <PUBCHEM_ISOTOPIC_ATOM_COUNT>
0

> <PUBCHEM_COMPONENT_COUNT>
1

> <PUBCHEM_CACTVS_TAUTO_COUNT>
47

> <PUBCHEM_COORDINATE_TYPE>
1
5
255

> <PUBCHEM_BONDANNOTATIONS>
10  11  8
10  12  8
11  13  8
12  14  8
13  15  8
14  15  8

$$$$

