47205492
  -OEChem-06241222593D

 35 36  0     1  0  0  0  0  0999 V2000
   -4.5318   -0.9504    1.3314 F   0  0  0  0  0  0  0  0  0  0  0  0
    1.3728    2.5331    0.6849 O   0  0  0  0  0  0  0  0  0  0  0  0
    2.7594   -0.5967    0.0708 N   0  0  0  0  0  0  0  0  0  0  0  0
    0.8396    1.2395   -1.1690 N   0  0  0  0  0  0  0  0  0  0  0  0
    2.7846   -2.7683   -0.3932 N   0  0  0  0  0  0  0  0  0  0  0  0
    2.9838    0.8956   -0.0927 C   0  0  1  0  0  0  0  0  0  0  0  0
    1.6568    1.6547   -0.1268 C   0  0  0  0  0  0  0  0  0  0  0  0
   -0.4663    1.8028   -1.4260 C   0  0  0  0  0  0  0  0  0  0  0  0
    3.9062    1.4323    1.0045 C   0  0  0  0  0  0  0  0  0  0  0  0
   -1.5502    1.0661   -0.6933 C   0  0  0  0  0  0  0  0  0  0  0  0
    2.1662   -1.2139    1.1359 C   0  0  0  0  0  0  0  0  0  0  0  0
   -1.9768   -0.1817   -1.1479 C   0  0  0  0  0  0  0  0  0  0  0  0
    3.1140   -1.5700   -0.8215 C   0  0  0  0  0  0  0  0  0  0  0  0
   -2.9834   -0.8655   -0.4662 C   0  0  0  0  0  0  0  0  0  0  0  0
   -2.1305    1.6303    0.4429 C   0  0  0  0  0  0  0  0  0  0  0  0
   -3.5636   -0.3013    0.6699 C   0  0  0  0  0  0  0  0  0  0  0  0
   -3.1371    0.9466    1.1245 C   0  0  0  0  0  0  0  0  0  0  0  0
    2.1933   -2.5533    0.8265 C   0  0  0  0  0  0  0  0  0  0  0  0
   -3.4370   -2.1998   -0.9546 C   0  0  0  0  0  0  0  0  0  0  0  0
    3.4734    1.0075   -1.0684 H   0  0  0  0  0  0  0  0  0  0  0  0
   -0.6434    1.7527   -2.5064 H   0  0  0  0  0  0  0  0  0  0  0  0
   -0.4598    2.8641   -1.1512 H   0  0  0  0  0  0  0  0  0  0  0  0
    3.4513    1.3420    1.9972 H   0  0  0  0  0  0  0  0  0  0  0  0
    4.8529    0.8816    1.0202 H   0  0  0  0  0  0  0  0  0  0  0  0
    4.1310    2.4911    0.8374 H   0  0  0  0  0  0  0  0  0  0  0  0
    1.1622    0.5043   -1.7912 H   0  0  0  0  0  0  0  0  0  0  0  0
    1.7866   -0.6700    1.9894 H   0  0  0  0  0  0  0  0  0  0  0  0
   -1.5210   -0.6195   -2.0329 H   0  0  0  0  0  0  0  0  0  0  0  0
    3.6049   -1.3490   -1.7593 H   0  0  0  0  0  0  0  0  0  0  0  0
   -1.8068    2.6008    0.8093 H   0  0  0  0  0  0  0  0  0  0  0  0
   -3.5888    1.3852    2.0093 H   0  0  0  0  0  0  0  0  0  0  0  0
    1.8161   -3.3736    1.4195 H   0  0  0  0  0  0  0  0  0  0  0  0
   -3.0798   -2.9873   -0.2834 H   0  0  0  0  0  0  0  0  0  0  0  0
   -4.5305   -2.2403   -1.0017 H   0  0  0  0  0  0  0  0  0  0  0  0
   -3.0614   -2.4137   -1.9609 H   0  0  0  0  0  0  0  0  0  0  0  0
  1 16  1  0  0  0  0
  2  7  2  0  0  0  0
  3  6  1  0  0  0  0
  3 11  1  0  0  0  0
  3 13  1  0  0  0  0
  4  7  1  0  0  0  0
  4  8  1  0  0  0  0
  4 26  1  0  0  0  0
  5 13  2  0  0  0  0
  5 18  1  0  0  0  0
  6  7  1  0  0  0  0
  6  9  1  0  0  0  0
  6 20  1  0  0  0  0
  8 10  1  0  0  0  0
  8 21  1  0  0  0  0
  8 22  1  0  0  0  0
  9 23  1  0  0  0  0
  9 24  1  0  0  0  0
  9 25  1  0  0  0  0
 10 12  2  0  0  0  0
 10 15  1  0  0  0  0
 11 18  2  0  0  0  0
 11 27  1  0  0  0  0
 12 14  1  0  0  0  0
 12 28  1  0  0  0  0
 13 29  1  0  0  0  0
 14 16  2  0  0  0  0
 14 19  1  0  0  0  0
 15 17  2  0  0  0  0
 15 30  1  0  0  0  0
 16 17  1  0  0  0  0
 17 31  1  0  0  0  0
 18 32  1  0  0  0  0
 19 33  1  0  0  0  0
 19 34  1  0  0  0  0
 19 35  1  0  0  0  0
M  END
> <PUBCHEM_COMPOUND_CID>
47205492

> <PUBCHEM_CONFORMER_RMSD>
0.8

> <PUBCHEM_CONFORMER_DIVERSEORDER>
1
108
40
90
52
20
123
124
3
10
51
43
116
26
62
97
13
2
88
76
25
38
98
82
96
29
128
120
7
55
71
58
57
14
23
125
22
54
70
103
4
132
48
122
94
134
81
15
92
41
121
102
64
84
32
31
80
17
114
33
115
46
56
12
35
104
21
34
126
113
77
83
24
101
131
6
75
109
95
91
85
60
18
9
42
136
67
68
45
112
53
110
69
73
27
11
28
30
93
74
105
86
66
133
127
117
44
36
100
19
8
5
129
99
87
49
119
16
78
107
63
135
37
72
130
50
61
47
59
106
111
79
89
39
65
118

> <PUBCHEM_MMFF94_PARTIAL_CHARGES>
25
1 -0.19
10 -0.14
11 -0.3
12 -0.15
13 0.04
14 -0.14
15 -0.15
16 0.19
17 -0.15
18 0.08
19 0.14
2 -0.57
26 0.37
27 0.15
28 0.15
29 0.15
3 0.05
30 0.15
31 0.15
32 0.15
4 -0.73
5 -0.57
6 0.32
7 0.57
8 0.44

> <PUBCHEM_EFFECTIVE_ROTOR_COUNT>
5

> <PUBCHEM_PHARMACOPHORE_FEATURES>
5
1 2 acceptor
1 4 donor
3 3 5 13 cation
5 3 5 11 13 18 rings
6 10 12 14 15 16 17 rings

> <PUBCHEM_HEAVY_ATOM_COUNT>
19

> <PUBCHEM_ATOM_DEF_STEREO_COUNT>
0

> <PUBCHEM_ATOM_UDEF_STEREO_COUNT>
1

> <PUBCHEM_BOND_DEF_STEREO_COUNT>
0

> <PUBCHEM_BOND_UDEF_STEREO_COUNT>
0

> <PUBCHEM_ISOTOPIC_ATOM_COUNT>
0

> <PUBCHEM_COMPONENT_COUNT>
1

> <PUBCHEM_CACTVS_TAUTO_COUNT>
2

> <PUBCHEM_CONFORMER_ID>
02D04C7400000001

> <PUBCHEM_MMFF94_ENERGY>
30.2351

> <PUBCHEM_FEATURE_SELFOVERLAP>
25.371

> <PUBCHEM_SHAPE_FINGERPRINT>
12363563 72 16917076529138067413
12506688 2 18339928241738250688
12553582 1 18272647905215986285
12596599 1 18262236728307450923
12633257 1 18043529619294383195
12892183 10 18333443244795807161
13533116 47 18335138679331097707
13583140 156 18113628858743751185
14178342 30 18335998514192938080
14251757 17 17698486288104396863
14251764 30 17679285610964361678
14713325 29 4888745018045756784
14787075 74 16817158161082693325
15375462 189 18408321086000471336
15422964 175 18131628963601545893
15635459 17 18131072627649899075
1813 80 16988832883271348917
20291156 8 18338793545464040362
20442098 301 18335423490700877431
20645477 70 18129114333263922509
21427221 339 17897424289423405681
21673915 165 18264492793123634430
21731516 1 18200316652983719342
22445834 79 18408881819887950453
2255824 54 18197210343762855540
23557571 272 13901917669545464757
23559900 14 17168682207776549549
3797600 57 17532095981848755256
463206 1 17543921105205921639
474229 33 18269847424074243032
5262128 65 16630519622579289253
6287921 2 18333726922937863654
7097593 13 18333725836347970017

> <PUBCHEM_SHAPE_MULTIPOLES>
362.92
7.81
2.98
1.34
2.2
0.97
0
2.67
1.93
-1.75
-0.07
0.48
-0.05
-0.08

> <PUBCHEM_SHAPE_SELFOVERLAP>
763.012

> <PUBCHEM_SHAPE_VOLUME>
206.9

> <PUBCHEM_COORDINATE_TYPE>
2
5
10

$$$$

