13168
  -OEChem-06261207502D

 14 13  0     0  0  0  0  0  0999 V2000
    2.0000   -0.4330    0.0000 F   0  0  0  0  0  0  0  0  0  0  0  0
    2.3660    0.9330    0.0000 F   0  0  0  0  0  0  0  0  0  0  0  0
    3.3660   -0.7990    0.0000 F   0  0  0  0  0  0  0  0  0  0  0  0
    6.3301    0.0670    0.0000 O   0  0  0  0  0  0  0  0  0  0  0  0
    4.5981    0.0670    0.0000 N   0  0  0  0  0  0  0  0  0  0  0  0
    5.4641    0.5670    0.0000 N   0  0  0  0  0  0  0  0  0  0  0  0
    3.7320    0.5670    0.0000 C   0  0  0  0  0  0  0  0  0  0  0  0
    2.8660    0.0670    0.0000 C   0  0  0  0  0  0  0  0  0  0  0  0
    4.5981   -0.9330    0.0000 C   0  0  0  0  0  0  0  0  0  0  0  0
    4.1306    1.0419    0.0000 H   0  0  0  0  0  0  0  0  0  0  0  0
    3.3335    1.0419    0.0000 H   0  0  0  0  0  0  0  0  0  0  0  0
    3.9781   -0.9330    0.0000 H   0  0  0  0  0  0  0  0  0  0  0  0
    4.5981   -1.5530    0.0000 H   0  0  0  0  0  0  0  0  0  0  0  0
    5.2181   -0.9330    0.0000 H   0  0  0  0  0  0  0  0  0  0  0  0
  1  8  1  0  0  0  0
  2  8  1  0  0  0  0
  3  8  1  0  0  0  0
  4  6  2  0  0  0  0
  5  6  1  0  0  0  0
  5  7  1  0  0  0  0
  5  9  1  0  0  0  0
  7  8  1  0  0  0  0
  7 10  1  0  0  0  0
  7 11  1  0  0  0  0
  9 12  1  0  0  0  0
  9 13  1  0  0  0  0
  9 14  1  0  0  0  0
M  END
> <PUBCHEM_COMPOUND_CID>
13168

> <PUBCHEM_COMPOUND_CANONICALIZED>
1

> <PUBCHEM_CACTVS_COMPLEXITY>
102

> <PUBCHEM_CACTVS_HBOND_ACCEPTOR>
6

> <PUBCHEM_CACTVS_HBOND_DONOR>
0

> <PUBCHEM_CACTVS_ROTATABLE_BOND>
1

> <PUBCHEM_CACTVS_SUBSKEYS>
AAADcYBDIYAAAAAAAAAAAAAAAAAAAAAAAAAAAAAAAAAAAAAAAAAAHQAMAAAAAADBABQCAAIAAAABAAAAAAAAAAAAAAAQAAAIAAAAAAAAAAAAAAAAAAAAAAAAAAAAAAAAAAAAAAAAAAAAAAAAAAAAAAAAAA==

> <PUBCHEM_IUPAC_OPENEYE_NAME>
N-methyl-N-(2,2,2-trifluoroethyl)nitrous amide

> <PUBCHEM_IUPAC_CAS_NAME>
N-methyl-N-(2,2,2-trifluoroethyl)nitrous amide

> <PUBCHEM_IUPAC_NAME>
N-methyl-N-(2,2,2-trifluoroethyl)nitrous amide

> <PUBCHEM_IUPAC_SYSTEMATIC_NAME>
N-methyl-N-[2,2,2-tris(fluoranyl)ethyl]nitrous amide

> <PUBCHEM_IUPAC_TRADITIONAL_NAME>
N-methyl-N-(2,2,2-trifluoroethyl)nitrous amide

> <PUBCHEM_IUPAC_INCHI>
InChI=1S/C3H5F3N2O/c1-8(7-9)2-3(4,5)6/h2H2,1H3

> <PUBCHEM_IUPAC_INCHIKEY>
LMGJQNSPQYXKLA-UHFFFAOYSA-N

> <PUBCHEM_XLOGP3_AA>
1.3

> <PUBCHEM_EXACT_MASS>
142.035397

> <PUBCHEM_MOLECULAR_FORMULA>
C3H5F3N2O

> <PUBCHEM_MOLECULAR_WEIGHT>
142.07981

> <PUBCHEM_OPENEYE_CAN_SMILES>
CN(CC(F)(F)F)N=O

> <PUBCHEM_OPENEYE_ISO_SMILES>
CN(CC(F)(F)F)N=O

> <PUBCHEM_CACTVS_TPSA>
32.7

> <PUBCHEM_MONOISOTOPIC_WEIGHT>
142.035397

> <PUBCHEM_TOTAL_CHARGE>
0

> <PUBCHEM_HEAVY_ATOM_COUNT>
9

> <PUBCHEM_ATOM_DEF_STEREO_COUNT>
0

> <PUBCHEM_ATOM_UDEF_STEREO_COUNT>
0

> <PUBCHEM_BOND_DEF_STEREO_COUNT>
0

> <PUBCHEM_BOND_UDEF_STEREO_COUNT>
0

> <PUBCHEM_ISOTOPIC_ATOM_COUNT>
0

> <PUBCHEM_COMPONENT_COUNT>
1

> <PUBCHEM_CACTVS_TAUTO_COUNT>
1

> <PUBCHEM_COORDINATE_TYPE>
1
5
255

$$$$

