9800
  -OEChem-06261204042D

 77 81  0     0  0  0  0  0  0999 V2000
   14.1904   -4.2085    0.0000 Cl  0  0  0  0  0  0  0  0  0  0  0  0
   10.6603   -6.2327    0.0000 S   0  0  0  0  0  0  0  0  0  0  0  0
    5.4641    1.7673    0.0000 O   0  0  0  0  0  0  0  0  0  0  0  0
    6.3301    3.2673    0.0000 O   0  0  0  0  0  0  0  0  0  0  0  0
    2.0000    2.7673    0.0000 O   0  0  0  0  0  0  0  0  0  0  0  0
    3.7320    5.7673    0.0000 O   0  0  0  0  0  0  0  0  0  0  0  0
    2.0000    4.7673    0.0000 O   0  0  0  0  0  0  0  0  0  0  0  0
    8.9282   -1.2327    0.0000 N   0  0  0  0  0  0  0  0  0  0  0  0
    7.1962   -0.2327    0.0000 N   0  0  0  0  0  0  0  0  0  0  0  0
   10.6603   -4.2327    0.0000 N   0  0  0  0  0  0  0  0  0  0  0  0
    8.9282   -0.2327    0.0000 C   0  0  0  0  0  0  0  0  0  0  0  0
    8.0622   -1.7327    0.0000 C   0  0  0  0  0  0  0  0  0  0  0  0
    8.0622    0.2673    0.0000 C   0  0  0  0  0  0  0  0  0  0  0  0
    7.1962   -1.2327    0.0000 C   0  0  0  0  0  0  0  0  0  0  0  0
    9.7942   -1.7327    0.0000 C   0  0  0  0  0  0  0  0  0  0  0  0
    9.7942   -2.7327    0.0000 C   0  0  0  0  0  0  0  0  0  0  0  0
    6.3301    0.2673    0.0000 C   0  0  0  0  0  0  0  0  0  0  0  0
   10.6603   -3.2327    0.0000 C   0  0  0  0  0  0  0  0  0  0  0  0
    6.3301    1.2673    0.0000 C   0  0  0  0  0  0  0  0  0  0  0  0
   11.5263   -4.7327    0.0000 C   0  0  0  0  0  0  0  0  0  0  0  0
    9.7942   -4.7327    0.0000 C   0  0  0  0  0  0  0  0  0  0  0  0
   11.5263   -5.7327    0.0000 C   0  0  0  0  0  0  0  0  0  0  0  0
    9.7942   -5.7327    0.0000 C   0  0  0  0  0  0  0  0  0  0  0  0
   12.4202   -4.1980    0.0000 C   0  0  0  0  0  0  0  0  0  0  0  0
    8.9003   -4.1980    0.0000 C   0  0  0  0  0  0  0  0  0  0  0  0
   12.4202   -6.2673    0.0000 C   0  0  0  0  0  0  0  0  0  0  0  0
    8.9003   -6.2673    0.0000 C   0  0  0  0  0  0  0  0  0  0  0  0
   13.3263   -4.7118    0.0000 C   0  0  0  0  0  0  0  0  0  0  0  0
    7.9942   -4.7118    0.0000 C   0  0  0  0  0  0  0  0  0  0  0  0
    5.4641    2.7673    0.0000 C   0  0  0  0  0  0  0  0  0  0  0  0
   13.3263   -5.7535    0.0000 C   0  0  0  0  0  0  0  0  0  0  0  0
    7.9942   -5.7535    0.0000 C   0  0  0  0  0  0  0  0  0  0  0  0
    4.5981    3.2673    0.0000 C   0  0  0  0  0  0  0  0  0  0  0  0
    4.5981    4.2673    0.0000 C   0  0  0  0  0  0  0  0  0  0  0  0
    3.7320    2.7673    0.0000 C   0  0  0  0  0  0  0  0  0  0  0  0
    2.8660    3.2673    0.0000 C   0  0  0  0  0  0  0  0  0  0  0  0
    3.7320    4.7673    0.0000 C   0  0  0  0  0  0  0  0  0  0  0  0
    2.8660    4.2673    0.0000 C   0  0  0  0  0  0  0  0  0  0  0  0
    2.0000    1.7673    0.0000 C   0  0  0  0  0  0  0  0  0  0  0  0
    4.5981    6.2673    0.0000 C   0  0  0  0  0  0  0  0  0  0  0  0
    2.0000    5.7673    0.0000 C   0  0  0  0  0  0  0  0  0  0  0  0
    9.5388   -0.3403    0.0000 H   0  0  0  0  0  0  0  0  0  0  0  0
    9.1403    0.3499    0.0000 H   0  0  0  0  0  0  0  0  0  0  0  0
    7.6636   -2.2076    0.0000 H   0  0  0  0  0  0  0  0  0  0  0  0
    8.4607   -2.2076    0.0000 H   0  0  0  0  0  0  0  0  0  0  0  0
    8.4607    0.7423    0.0000 H   0  0  0  0  0  0  0  0  0  0  0  0
    7.6636    0.7423    0.0000 H   0  0  0  0  0  0  0  0  0  0  0  0
    6.5856   -1.1250    0.0000 H   0  0  0  0  0  0  0  0  0  0  0  0
    6.9841   -1.8153    0.0000 H   0  0  0  0  0  0  0  0  0  0  0  0
   10.4048   -1.8403    0.0000 H   0  0  0  0  0  0  0  0  0  0  0  0
   10.0063   -1.1501    0.0000 H   0  0  0  0  0  0  0  0  0  0  0  0
    9.1836   -2.6250    0.0000 H   0  0  0  0  0  0  0  0  0  0  0  0
    9.5822   -3.3153    0.0000 H   0  0  0  0  0  0  0  0  0  0  0  0
    5.7196    0.3750    0.0000 H   0  0  0  0  0  0  0  0  0  0  0  0
    6.1181   -0.3153    0.0000 H   0  0  0  0  0  0  0  0  0  0  0  0
   11.2708   -3.3403    0.0000 H   0  0  0  0  0  0  0  0  0  0  0  0
   10.8723   -2.6501    0.0000 H   0  0  0  0  0  0  0  0  0  0  0  0
    6.9407    1.1597    0.0000 H   0  0  0  0  0  0  0  0  0  0  0  0
    6.5422    1.8499    0.0000 H   0  0  0  0  0  0  0  0  0  0  0  0
   12.4131   -3.5780    0.0000 H   0  0  0  0  0  0  0  0  0  0  0  0
    8.9075   -3.5780    0.0000 H   0  0  0  0  0  0  0  0  0  0  0  0
   12.4131   -6.8873    0.0000 H   0  0  0  0  0  0  0  0  0  0  0  0
    8.9075   -6.8873    0.0000 H   0  0  0  0  0  0  0  0  0  0  0  0
    7.4585   -4.3998    0.0000 H   0  0  0  0  0  0  0  0  0  0  0  0
   13.8620   -6.0656    0.0000 H   0  0  0  0  0  0  0  0  0  0  0  0
    7.4585   -6.0656    0.0000 H   0  0  0  0  0  0  0  0  0  0  0  0
    5.1350    4.5773    0.0000 H   0  0  0  0  0  0  0  0  0  0  0  0
    3.7320    2.1473    0.0000 H   0  0  0  0  0  0  0  0  0  0  0  0
    1.3800    1.7673    0.0000 H   0  0  0  0  0  0  0  0  0  0  0  0
    2.0000    1.1473    0.0000 H   0  0  0  0  0  0  0  0  0  0  0  0
    2.6200    1.7673    0.0000 H   0  0  0  0  0  0  0  0  0  0  0  0
    4.9081    5.7304    0.0000 H   0  0  0  0  0  0  0  0  0  0  0  0
    5.1350    6.5773    0.0000 H   0  0  0  0  0  0  0  0  0  0  0  0
    4.2881    6.8043    0.0000 H   0  0  0  0  0  0  0  0  0  0  0  0
    2.6200    5.7673    0.0000 H   0  0  0  0  0  0  0  0  0  0  0  0
    2.0000    6.3873    0.0000 H   0  0  0  0  0  0  0  0  0  0  0  0
    1.3800    5.7673    0.0000 H   0  0  0  0  0  0  0  0  0  0  0  0
  1 28  1  0  0  0  0
  2 22  1  0  0  0  0
  2 23  1  0  0  0  0
  3 19  1  0  0  0  0
  3 30  1  0  0  0  0
  4 30  2  0  0  0  0
  5 36  1  0  0  0  0
  5 39  1  0  0  0  0
  6 37  1  0  0  0  0
  6 40  1  0  0  0  0
  7 38  1  0  0  0  0
  7 41  1  0  0  0  0
  8 11  1  0  0  0  0
  8 12  1  0  0  0  0
  8 15  1  0  0  0  0
  9 13  1  0  0  0  0
  9 14  1  0  0  0  0
  9 17  1  0  0  0  0
 10 18  1  0  0  0  0
 10 20  1  0  0  0  0
 10 21  1  0  0  0  0
 11 13  1  0  0  0  0
 11 42  1  0  0  0  0
 11 43  1  0  0  0  0
 12 14  1  0  0  0  0
 12 44  1  0  0  0  0
 12 45  1  0  0  0  0
 13 46  1  0  0  0  0
 13 47  1  0  0  0  0
 14 48  1  0  0  0  0
 14 49  1  0  0  0  0
 15 16  1  0  0  0  0
 15 50  1  0  0  0  0
 15 51  1  0  0  0  0
 16 18  1  0  0  0  0
 16 52  1  0  0  0  0
 16 53  1  0  0  0  0
 17 19  1  0  0  0  0
 17 54  1  0  0  0  0
 17 55  1  0  0  0  0
 18 56  1  0  0  0  0
 18 57  1  0  0  0  0
 19 58  1  0  0  0  0
 19 59  1  0  0  0  0
 20 22  2  0  0  0  0
 20 24  1  0  0  0  0
 21 23  1  0  0  0  0
 21 25  2  0  0  0  0
 22 26  1  0  0  0  0
 23 27  2  0  0  0  0
 24 28  2  0  0  0  0
 24 60  1  0  0  0  0
 25 29  1  0  0  0  0
 25 61  1  0  0  0  0
 26 31  2  0  0  0  0
 26 62  1  0  0  0  0
 27 32  1  0  0  0  0
 27 63  1  0  0  0  0
 28 31  1  0  0  0  0
 29 32  2  0  0  0  0
 29 64  1  0  0  0  0
 30 33  1  0  0  0  0
 31 65  1  0  0  0  0
 32 66  1  0  0  0  0
 33 34  2  0  0  0  0
 33 35  1  0  0  0  0
 34 37  1  0  0  0  0
 34 67  1  0  0  0  0
 35 36  2  0  0  0  0
 35 68  1  0  0  0  0
 36 38  1  0  0  0  0
 37 38  2  0  0  0  0
 39 69  1  0  0  0  0
 39 70  1  0  0  0  0
 39 71  1  0  0  0  0
 40 72  1  0  0  0  0
 40 73  1  0  0  0  0
 40 74  1  0  0  0  0
 41 75  1  0  0  0  0
 41 76  1  0  0  0  0
 41 77  1  0  0  0  0
M  END
> <PUBCHEM_COMPOUND_CID>
9800

> <PUBCHEM_COMPOUND_CANONICALIZED>
1

> <PUBCHEM_CACTVS_COMPLEXITY>
807

> <PUBCHEM_CACTVS_HBOND_ACCEPTOR>
9

> <PUBCHEM_CACTVS_HBOND_DONOR>
0

> <PUBCHEM_CACTVS_ROTATABLE_BOND>
12

> <PUBCHEM_CACTVS_SUBSKEYS>
AAADcfB7OABEAAAAAAAAAAAAAAAAAAAAAAA8eMECAAAAAACxUAAAHgYAAAAADA7h2CYyz4MABAiIAiTSSACCCAAlLxAIiB0O7sgPZ3Ll95uXMSplwBX66Yfa7DzOIAIBCAIAQQBABAIQBACCAAAAAAAAAA==

> <PUBCHEM_IUPAC_OPENEYE_NAME>
2-[4-[3-(2-chlorophenothiazin-10-yl)propyl]piperazin-1-yl]ethyl 3,4,5-trimethoxybenzoate

> <PUBCHEM_IUPAC_CAS_NAME>
3,4,5-trimethoxybenzoic acid 2-[4-[3-(2-chloro-10-phenothiazinyl)propyl]-1-piperazinyl]ethyl ester

> <PUBCHEM_IUPAC_NAME>
2-[4-[3-(2-chlorophenothiazin-10-yl)propyl]piperazin-1-yl]ethyl 3,4,5-trimethoxybenzoate

> <PUBCHEM_IUPAC_SYSTEMATIC_NAME>
2-[4-[3-(2-chloranylphenothiazin-10-yl)propyl]piperazin-1-yl]ethyl 3,4,5-trimethoxybenzoate

> <PUBCHEM_IUPAC_TRADITIONAL_NAME>
3,4,5-trimethoxybenzoic acid 2-[4-[3-(2-chlorophenothiazin-10-yl)propyl]piperazino]ethyl ester

> <PUBCHEM_IUPAC_INCHI>
InChI=1S/C31H36ClN3O5S/c1-37-26-19-22(20-27(38-2)30(26)39-3)31(36)40-18-17-34-15-13-33(14-16-34)11-6-12-35-24-7-4-5-8-28(24)41-29-10-9-23(32)21-25(29)35/h4-5,7-10,19-21H,6,11-18H2,1-3H3

> <PUBCHEM_IUPAC_INCHIKEY>
BAQLUVXNKOTTHU-UHFFFAOYSA-N

> <PUBCHEM_XLOGP3>
6.3

> <PUBCHEM_EXACT_MASS>
597.20642

> <PUBCHEM_MOLECULAR_FORMULA>
C31H36ClN3O5S

> <PUBCHEM_MOLECULAR_WEIGHT>
598.15264

> <PUBCHEM_OPENEYE_CAN_SMILES>
COC1=CC(=CC(=C1OC)OC)C(=O)OCCN2CCN(CC2)CCCN3C4=CC=CC=C4SC5=C3C=C(C=C5)Cl

> <PUBCHEM_OPENEYE_ISO_SMILES>
COC1=CC(=CC(=C1OC)OC)C(=O)OCCN2CCN(CC2)CCCN3C4=CC=CC=C4SC5=C3C=C(C=C5)Cl

> <PUBCHEM_CACTVS_TPSA>
89

> <PUBCHEM_MONOISOTOPIC_WEIGHT>
597.20642

> <PUBCHEM_TOTAL_CHARGE>
0

> <PUBCHEM_HEAVY_ATOM_COUNT>
41

> <PUBCHEM_ATOM_DEF_STEREO_COUNT>
0

> <PUBCHEM_ATOM_UDEF_STEREO_COUNT>
0

> <PUBCHEM_BOND_DEF_STEREO_COUNT>
0

> <PUBCHEM_BOND_UDEF_STEREO_COUNT>
0

> <PUBCHEM_ISOTOPIC_ATOM_COUNT>
0

> <PUBCHEM_COMPONENT_COUNT>
1

> <PUBCHEM_CACTVS_TAUTO_COUNT>
1

> <PUBCHEM_COORDINATE_TYPE>
1
5
255

> <PUBCHEM_BONDANNOTATIONS>
20  22  8
20  24  8
21  23  8
21  25  8
22  26  8
23  27  8
24  28  8
25  29  8
26  31  8
27  32  8
28  31  8
29  32  8
33  34  8
33  35  8
34  37  8
35  36  8
36  38  8
37  38  8

$$$$

