12612
  -OEChem-06261207093D

 18 18  0     0  0  0  0  0  0999 V2000
    3.8208   -0.4621   -0.0012 F   0  0  0  0  0  0  0  0  0  0  0  0
   -2.6132   -1.3861    0.0009 O   0  0  0  0  0  0  0  0  0  0  0  0
   -1.5737    0.7277   -0.0004 N   0  0  0  0  0  0  0  0  0  0  0  0
   -3.8753    0.5186   -0.0014 N   0  0  0  0  0  0  0  0  0  0  0  0
   -0.2113    0.4273    0.0009 C   0  0  0  0  0  0  0  0  0  0  0  0
    0.7299    1.4567    0.0009 C   0  0  0  0  0  0  0  0  0  0  0  0
    0.2096   -0.9026    0.0004 C   0  0  0  0  0  0  0  0  0  0  0  0
    2.0920    1.1562    0.0003 C   0  0  0  0  0  0  0  0  0  0  0  0
    1.5717   -1.2030    0.0000 C   0  0  0  0  0  0  0  0  0  0  0  0
    2.5129   -0.1737   -0.0001 C   0  0  0  0  0  0  0  0  0  0  0  0
   -2.6634   -0.1589   -0.0002 C   0  0  0  0  0  0  0  0  0  0  0  0
    0.4162    2.4975    0.0009 H   0  0  0  0  0  0  0  0  0  0  0  0
   -0.4587   -1.7524   -0.0001 H   0  0  0  0  0  0  0  0  0  0  0  0
   -1.8073    1.7177   -0.0010 H   0  0  0  0  0  0  0  0  0  0  0  0
    2.8252    1.9573    0.0000 H   0  0  0  0  0  0  0  0  0  0  0  0
    1.9011   -2.2380   -0.0006 H   0  0  0  0  0  0  0  0  0  0  0  0
   -4.7566    0.0162   -0.0014 H   0  0  0  0  0  0  0  0  0  0  0  0
   -3.9204    1.5319   -0.0023 H   0  0  0  0  0  0  0  0  0  0  0  0
  1 10  1  0  0  0  0
  2 11  2  0  0  0  0
  3  5  1  0  0  0  0
  3 11  1  0  0  0  0
  3 14  1  0  0  0  0
  4 11  1  0  0  0  0
  4 17  1  0  0  0  0
  4 18  1  0  0  0  0
  5  6  2  0  0  0  0
  5  7  1  0  0  0  0
  6  8  1  0  0  0  0
  6 12  1  0  0  0  0
  7  9  2  0  0  0  0
  7 13  1  0  0  0  0
  8 10  2  0  0  0  0
  8 15  1  0  0  0  0
  9 10  1  0  0  0  0
  9 16  1  0  0  0  0
M  END
> <PUBCHEM_COMPOUND_CID>
12612

> <PUBCHEM_CONFORMER_RMSD>
0.4

> <PUBCHEM_CONFORMER_DIVERSEORDER>
1
8
9
4
6
10
11
7
5
2
3

> <PUBCHEM_MMFF94_PARTIAL_CHARGES>
18
1 -0.19
10 0.19
11 0.69
12 0.15
13 0.15
14 0.37
15 0.15
16 0.15
17 0.37
18 0.37
2 -0.57
3 -0.55
4 -0.8
5 0.12
6 -0.15
7 -0.15
8 -0.15
9 -0.15

> <PUBCHEM_EFFECTIVE_ROTOR_COUNT>
2

> <PUBCHEM_PHARMACOPHORE_FEATURES>
4
1 2 acceptor
1 3 donor
1 4 donor
6 5 6 7 8 9 10 rings

> <PUBCHEM_HEAVY_ATOM_COUNT>
11

> <PUBCHEM_ATOM_DEF_STEREO_COUNT>
0

> <PUBCHEM_ATOM_UDEF_STEREO_COUNT>
0

> <PUBCHEM_BOND_DEF_STEREO_COUNT>
0

> <PUBCHEM_BOND_UDEF_STEREO_COUNT>
0

> <PUBCHEM_ISOTOPIC_ATOM_COUNT>
0

> <PUBCHEM_COMPONENT_COUNT>
1

> <PUBCHEM_CACTVS_TAUTO_COUNT>
3

> <PUBCHEM_CONFORMER_ID>
0000314400000001

> <PUBCHEM_MMFF94_ENERGY>
27.7528

> <PUBCHEM_FEATURE_SELFOVERLAP>
20.346

> <PUBCHEM_SHAPE_FINGERPRINT>
10219947 1 18186518821574327286
11062470 55 17418372510461024703
12032990 46 18408879659682898398
12897270 3 18412263934686899205
12932764 1 17203340995868647113
14128692 85 18408602535091099812
14325111 11 18338517434864624033
16945 1 18410855490335442112
193761 8 17617941773768871778
20201158 50 18411699911002437235
20871998 22 18117555360921683638
23402655 69 18336559312768424077
23552423 10 18271806770272831799
2748010 2 18195244412618661622
3248919 1 16878212100452664045
528886 8 18409735070664425067
8809292 202 18201151079330544611

> <PUBCHEM_SHAPE_MULTIPOLES>
203.27
5.48
1.4
0.58
2.33
0.02
0
-0.43
0
-0.21
0
-0.03
0.01
0

> <PUBCHEM_SHAPE_SELFOVERLAP>
423.334

> <PUBCHEM_SHAPE_VOLUME>
115.4

> <PUBCHEM_COORDINATE_TYPE>
2
5
10

$$$$

