17396620
  -OEChem-06241222572D

 35 37  0     1  0  0  0  0  0999 V2000
    2.0000   -1.5000    0.0000 F   0  0  0  0  0  0  0  0  0  0  0  0
   10.7404    0.3047    0.0000 O   0  0  0  0  0  0  0  0  0  0  0  0
   10.7404   -1.3047    0.0000 O   0  0  0  0  0  0  0  0  0  0  0  0
    7.1962    1.5000    0.0000 O   0  0  0  0  0  0  0  0  0  0  0  0
    6.3301    0.0000    0.0000 N   0  0  0  0  0  0  0  0  0  0  0  0
    5.4641    0.5000    0.0000 C   0  0  3  0  0  0  0  0  0  0  0  0
    4.5981    0.0000    0.0000 C   0  0  0  0  0  0  0  0  0  0  0  0
    5.4641    1.5000    0.0000 C   0  0  0  0  0  0  0  0  0  0  0  0
    8.0622    0.0000    0.0000 C   0  0  0  0  0  0  0  0  0  0  0  0
    7.1962    0.5000    0.0000 C   0  0  0  0  0  0  0  0  0  0  0  0
    9.7942    0.0000    0.0000 C   0  0  0  0  0  0  0  0  0  0  0  0
    9.7942   -1.0000    0.0000 C   0  0  0  0  0  0  0  0  0  0  0  0
    8.9282    0.5000    0.0000 C   0  0  0  0  0  0  0  0  0  0  0  0
    3.7320    0.5000    0.0000 C   0  0  0  0  0  0  0  0  0  0  0  0
    4.5981   -1.0000    0.0000 C   0  0  0  0  0  0  0  0  0  0  0  0
    8.0622   -1.0000    0.0000 C   0  0  0  0  0  0  0  0  0  0  0  0
    8.9282   -1.5000    0.0000 C   0  0  0  0  0  0  0  0  0  0  0  0
   11.3241   -0.5000    0.0000 C   0  0  0  0  0  0  0  0  0  0  0  0
    2.8660    0.0000    0.0000 C   0  0  0  0  0  0  0  0  0  0  0  0
    3.7320   -1.5000    0.0000 C   0  0  0  0  0  0  0  0  0  0  0  0
    2.8660   -1.0000    0.0000 C   0  0  0  0  0  0  0  0  0  0  0  0
    5.4641   -0.1200    0.0000 H   0  0  0  0  0  0  0  0  0  0  0  0
    6.3301   -0.6200    0.0000 H   0  0  0  0  0  0  0  0  0  0  0  0
    6.0841    1.5000    0.0000 H   0  0  0  0  0  0  0  0  0  0  0  0
    5.4641    2.1200    0.0000 H   0  0  0  0  0  0  0  0  0  0  0  0
    4.8441    1.5000    0.0000 H   0  0  0  0  0  0  0  0  0  0  0  0
    8.9282    1.1200    0.0000 H   0  0  0  0  0  0  0  0  0  0  0  0
    3.7320    1.1200    0.0000 H   0  0  0  0  0  0  0  0  0  0  0  0
    5.1350   -1.3100    0.0000 H   0  0  0  0  0  0  0  0  0  0  0  0
    7.5252   -1.3100    0.0000 H   0  0  0  0  0  0  0  0  0  0  0  0
    8.9282   -2.1200    0.0000 H   0  0  0  0  0  0  0  0  0  0  0  0
   11.7849   -0.9147    0.0000 H   0  0  0  0  0  0  0  0  0  0  0  0
   11.7849   -0.0853    0.0000 H   0  0  0  0  0  0  0  0  0  0  0  0
    2.3291    0.3100    0.0000 H   0  0  0  0  0  0  0  0  0  0  0  0
    3.7320   -2.1200    0.0000 H   0  0  0  0  0  0  0  0  0  0  0  0
  1 21  1  0  0  0  0
  2 11  1  0  0  0  0
  2 18  1  0  0  0  0
  3 12  1  0  0  0  0
  3 18  1  0  0  0  0
  4 10  2  0  0  0  0
  5  6  1  0  0  0  0
  5 10  1  0  0  0  0
  5 23  1  0  0  0  0
  6  7  1  0  0  0  0
  6  8  1  0  0  0  0
  6 22  1  0  0  0  0
  7 14  2  0  0  0  0
  7 15  1  0  0  0  0
  8 24  1  0  0  0  0
  8 25  1  0  0  0  0
  8 26  1  0  0  0  0
  9 10  1  0  0  0  0
  9 13  2  0  0  0  0
  9 16  1  0  0  0  0
 11 12  2  0  0  0  0
 11 13  1  0  0  0  0
 12 17  1  0  0  0  0
 13 27  1  0  0  0  0
 14 19  1  0  0  0  0
 14 28  1  0  0  0  0
 15 20  2  0  0  0  0
 15 29  1  0  0  0  0
 16 17  2  0  0  0  0
 16 30  1  0  0  0  0
 17 31  1  0  0  0  0
 18 32  1  0  0  0  0
 18 33  1  0  0  0  0
 19 21  2  0  0  0  0
 19 34  1  0  0  0  0
 20 21  1  0  0  0  0
 20 35  1  0  0  0  0
M  END
> <PUBCHEM_COMPOUND_CID>
17396620

> <PUBCHEM_COMPOUND_CANONICALIZED>
1

> <PUBCHEM_CACTVS_COMPLEXITY>
371

> <PUBCHEM_CACTVS_HBOND_ACCEPTOR>
4

> <PUBCHEM_CACTVS_HBOND_DONOR>
1

> <PUBCHEM_CACTVS_ROTATABLE_BOND>
3

> <PUBCHEM_CACTVS_SUBSKEYS>
AAADccB6MQAAAAAAAAAAAAAAAAAAASAAAAAwYAAAAAAAAEgBQAAAHwAQAAAADCzBmA8yDoLABACIAiFSEACCCAAkIAAIiIEOjMgdJjKEtRukMSpk1hGOqYe63JLOIAABAAAAQABAAAIAAACAAAAAAAAAAA==

> <PUBCHEM_IUPAC_OPENEYE_NAME>
N-[1-(4-fluorophenyl)ethyl]-1,3-benzodioxole-5-carboxamide

> <PUBCHEM_IUPAC_CAS_NAME>
N-[1-(4-fluorophenyl)ethyl]-1,3-benzodioxole-5-carboxamide

> <PUBCHEM_IUPAC_NAME>
N-[1-(4-fluorophenyl)ethyl]-1,3-benzodioxole-5-carboxamide

> <PUBCHEM_IUPAC_SYSTEMATIC_NAME>
N-[1-(4-fluorophenyl)ethyl]-1,3-benzodioxole-5-carboxamide

> <PUBCHEM_IUPAC_TRADITIONAL_NAME>
N-[1-(4-fluorophenyl)ethyl]-piperonylamide

> <PUBCHEM_IUPAC_INCHI>
InChI=1S/C16H14FNO3/c1-10(11-2-5-13(17)6-3-11)18-16(19)12-4-7-14-15(8-12)21-9-20-14/h2-8,10H,9H2,1H3,(H,18,19)

> <PUBCHEM_IUPAC_INCHIKEY>
DEYOPPCMWKYOEN-UHFFFAOYSA-N

> <PUBCHEM_XLOGP3_AA>
3

> <PUBCHEM_EXACT_MASS>
287.095772

> <PUBCHEM_MOLECULAR_FORMULA>
C16H14FNO3

> <PUBCHEM_MOLECULAR_WEIGHT>
287.285663

> <PUBCHEM_OPENEYE_CAN_SMILES>
CC(C1=CC=C(C=C1)F)NC(=O)C2=CC3=C(C=C2)OCO3

> <PUBCHEM_OPENEYE_ISO_SMILES>
CC(C1=CC=C(C=C1)F)NC(=O)C2=CC3=C(C=C2)OCO3

> <PUBCHEM_CACTVS_TPSA>
47.6

> <PUBCHEM_MONOISOTOPIC_WEIGHT>
287.095772

> <PUBCHEM_TOTAL_CHARGE>
0

> <PUBCHEM_HEAVY_ATOM_COUNT>
21

> <PUBCHEM_ATOM_DEF_STEREO_COUNT>
0

> <PUBCHEM_ATOM_UDEF_STEREO_COUNT>
1

> <PUBCHEM_BOND_DEF_STEREO_COUNT>
0

> <PUBCHEM_BOND_UDEF_STEREO_COUNT>
0

> <PUBCHEM_ISOTOPIC_ATOM_COUNT>
0

> <PUBCHEM_COMPONENT_COUNT>
1

> <PUBCHEM_CACTVS_TAUTO_COUNT>
2

> <PUBCHEM_COORDINATE_TYPE>
1
5
255

> <PUBCHEM_BONDANNOTATIONS>
11  12  8
11  13  8
12  17  8
14  19  8
15  20  8
16  17  8
19  21  8
20  21  8
6  8  3
7  14  8
7  15  8
9  13  8
9  16  8

$$$$

