17396624
  -OEChem-06241222573D

 43 44  0     1  0  0  0  0  0999 V2000
    7.2445   -0.4639   -0.9351 F   0  0  0  0  0  0  0  0  0  0  0  0
    7.1178    1.9123    0.4109 F   0  0  0  0  0  0  0  0  0  0  0  0
    1.4031   -0.5697    0.2990 O   0  0  0  0  0  0  0  0  0  0  0  0
   -4.5574   -2.3861   -0.3231 O   0  0  0  0  0  0  0  0  0  0  0  0
   -4.9051    3.1140   -0.1488 O   0  0  0  0  0  0  0  0  0  0  0  0
   -0.7518    0.9635    0.2111 O   0  0  0  0  0  0  0  0  0  0  0  0
    2.4686   -2.2442   -0.8673 O   0  0  0  0  0  0  0  0  0  0  0  0
   -2.2025   -0.8665   -0.0320 N   0  0  0  0  0  0  0  0  0  0  0  0
    0.1673   -1.2584    0.1928 C   0  0  2  0  0  0  0  0  0  0  0  0
   -3.4739   -0.2532   -0.1347 C   0  0  0  0  0  0  0  0  0  0  0  0
   -0.9692   -0.2415    0.1215 C   0  0  0  0  0  0  0  0  0  0  0  0
   -4.6266   -1.0255   -0.2783 C   0  0  0  0  0  0  0  0  0  0  0  0
    0.0101   -2.1937    1.3826 C   0  0  0  0  0  0  0  0  0  0  0  0
   -3.5674    1.1379   -0.0914 C   0  0  0  0  0  0  0  0  0  0  0  0
   -4.8136    1.7567   -0.1912 C   0  0  0  0  0  0  0  0  0  0  0  0
   -5.8727   -0.4066   -0.3784 C   0  0  0  0  0  0  0  0  0  0  0  0
   -5.9662    0.9845   -0.3347 C   0  0  0  0  0  0  0  0  0  0  0  0
    3.7061   -0.3579   -0.0956 C   0  0  0  0  0  0  0  0  0  0  0  0
    2.4798   -1.1752   -0.2770 C   0  0  0  0  0  0  0  0  0  0  0  0
    4.9233   -0.8036   -0.6107 C   0  0  0  0  0  0  0  0  0  0  0  0
    3.6415    0.8546    0.5910 C   0  0  0  0  0  0  0  0  0  0  0  0
    6.0760   -0.0369   -0.4393 C   0  0  0  0  0  0  0  0  0  0  0  0
    4.7941    1.6211    0.7627 C   0  0  0  0  0  0  0  0  0  0  0  0
    6.0114    1.1755    0.2474 C   0  0  0  0  0  0  0  0  0  0  0  0
   -4.6498   -3.0801    0.9190 C   0  0  0  0  0  0  0  0  0  0  0  0
   -3.6873    3.8427   -0.0005 C   0  0  0  0  0  0  0  0  0  0  0  0
    0.1230   -1.8344   -0.7412 H   0  0  0  0  0  0  0  0  0  0  0  0
   -2.2153   -1.8808   -0.1046 H   0  0  0  0  0  0  0  0  0  0  0  0
   -0.8924   -2.8080    1.3174 H   0  0  0  0  0  0  0  0  0  0  0  0
    0.8708   -2.8657    1.4671 H   0  0  0  0  0  0  0  0  0  0  0  0
   -0.0375   -1.6232    2.3174 H   0  0  0  0  0  0  0  0  0  0  0  0
   -2.6868    1.7428    0.0148 H   0  0  0  0  0  0  0  0  0  0  0  0
   -6.7750   -1.0015   -0.4913 H   0  0  0  0  0  0  0  0  0  0  0  0
   -6.9396    1.4609   -0.4132 H   0  0  0  0  0  0  0  0  0  0  0  0
    4.9952   -1.7450   -1.1486 H   0  0  0  0  0  0  0  0  0  0  0  0
    2.7152    1.2392    1.0083 H   0  0  0  0  0  0  0  0  0  0  0  0
    4.7448    2.5653    1.2970 H   0  0  0  0  0  0  0  0  0  0  0  0
   -3.8545   -2.7653    1.6021 H   0  0  0  0  0  0  0  0  0  0  0  0
   -5.6282   -2.9097    1.3793 H   0  0  0  0  0  0  0  0  0  0  0  0
   -4.5378   -4.1499    0.7227 H   0  0  0  0  0  0  0  0  0  0  0  0
   -3.9499    4.9058    0.0150 H   0  0  0  0  0  0  0  0  0  0  0  0
   -3.0206    3.6953   -0.8570 H   0  0  0  0  0  0  0  0  0  0  0  0
   -3.1989    3.6247    0.9555 H   0  0  0  0  0  0  0  0  0  0  0  0
  1 22  1  0  0  0  0
  2 24  1  0  0  0  0
  3  9  1  0  0  0  0
  3 19  1  0  0  0  0
  4 12  1  0  0  0  0
  4 25  1  0  0  0  0
  5 15  1  0  0  0  0
  5 26  1  0  0  0  0
  6 11  2  0  0  0  0
  7 19  2  0  0  0  0
  8 10  1  0  0  0  0
  8 11  1  0  0  0  0
  8 28  1  0  0  0  0
  9 11  1  0  0  0  0
  9 13  1  0  0  0  0
  9 27  1  0  0  0  0
 10 12  2  0  0  0  0
 10 14  1  0  0  0  0
 12 16  1  0  0  0  0
 13 29  1  0  0  0  0
 13 30  1  0  0  0  0
 13 31  1  0  0  0  0
 14 15  2  0  0  0  0
 14 32  1  0  0  0  0
 15 17  1  0  0  0  0
 16 17  2  0  0  0  0
 16 33  1  0  0  0  0
 17 34  1  0  0  0  0
 18 19  1  0  0  0  0
 18 20  2  0  0  0  0
 18 21  1  0  0  0  0
 20 22  1  0  0  0  0
 20 35  1  0  0  0  0
 21 23  2  0  0  0  0
 21 36  1  0  0  0  0
 22 24  2  0  0  0  0
 23 24  1  0  0  0  0
 23 37  1  0  0  0  0
 25 38  1  0  0  0  0
 25 39  1  0  0  0  0
 25 40  1  0  0  0  0
 26 41  1  0  0  0  0
 26 42  1  0  0  0  0
 26 43  1  0  0  0  0
M  END
> <PUBCHEM_COMPOUND_CID>
17396624

> <PUBCHEM_CONFORMER_RMSD>
1.2

> <PUBCHEM_CONFORMER_DIVERSEORDER>
1
98
63
76
96
59
45
86
105
53
104
101
12
81
43
21
19
102
24
75
65
18
88
36
91
39
69
17
9
37
95
100
29
51
26
13
8
46
44
33
58
99
48
67
57
23
35
87
70
52
92
103
62
20
107
25
7
85
97
83
60
47
10
74
93
68
32
41
55
28
78
34
106
61
80
15
56
31
73
16
90
14
84
5
4
3
77
72
89
94
50
11
71
49
6
79
30
27
2
40
54
82
38
64
22
66
42

> <PUBCHEM_MMFF94_PARTIAL_CHARGES>
32
1 -0.19
10 0.12
11 0.57
12 0.08
14 -0.15
15 0.08
16 -0.15
17 -0.15
18 0.09
19 0.63
2 -0.19
20 -0.15
21 -0.15
22 0.19
23 -0.15
24 0.19
25 0.28
26 0.28
28 0.37
3 -0.43
32 0.15
33 0.15
34 0.15
35 0.15
36 0.15
37 0.15
4 -0.36
5 -0.36
6 -0.57
7 -0.57
8 -0.55
9 0.34

> <PUBCHEM_EFFECTIVE_ROTOR_COUNT>
8

> <PUBCHEM_PHARMACOPHORE_FEATURES>
7
1 4 acceptor
1 5 acceptor
1 6 acceptor
1 7 acceptor
1 8 donor
6 10 12 14 15 16 17 rings
6 18 20 21 22 23 24 rings

> <PUBCHEM_HEAVY_ATOM_COUNT>
26

> <PUBCHEM_ATOM_DEF_STEREO_COUNT>
0

> <PUBCHEM_ATOM_UDEF_STEREO_COUNT>
1

> <PUBCHEM_BOND_DEF_STEREO_COUNT>
0

> <PUBCHEM_BOND_UDEF_STEREO_COUNT>
0

> <PUBCHEM_ISOTOPIC_ATOM_COUNT>
0

> <PUBCHEM_COMPONENT_COUNT>
1

> <PUBCHEM_CACTVS_TAUTO_COUNT>
2

> <PUBCHEM_CONFORMER_ID>
0109739000000001

> <PUBCHEM_MMFF94_ENERGY>
88.5264

> <PUBCHEM_FEATURE_SELFOVERLAP>
35.52

> <PUBCHEM_SHAPE_FINGERPRINT>
10087517 78 18343305872713305221
10411042 1 18051692145513826067
10595046 47 18410860970719363331
11719270 70 18040439932208748366
12596602 18 11527946764202062036
13073987 5 18273215317725220443
13402501 40 18410295804889968872
13631057 29 18271808961445430339
13690498 29 17895768288058934887
13911987 19 16877944949476768039
14528608 73 18333735714825069566
14556957 393 16226036786906446376
14739800 52 18341067288181180641
14790565 3 17687461682681993057
14933364 13 18407758140362966932
15183329 4 18335138726238102144
15778101 99 18410290350302231721
15961568 22 18413109476166883292
17844677 252 18408880720107154369
18608769 82 18339077091301102123
20281389 69 18343022224298253280
20511986 3 17845949519051159331
21033648 29 18262809463034779144
21315763 129 18410576154463714308
23559900 14 18335148544602425857
2747138 104 18200021821028354227
2838139 119 18335426768288393108
2916195 48 18411702080018703706
34797466 226 17822005423809212477
4073 2 18272084976906641714
441001 317 18411983581129188931
445580 37 18411409631348142372
5104073 3 18130507538881912259
5283173 99 18410011030987692722
543368 44 18411140260206320053

> <PUBCHEM_SHAPE_MULTIPOLES>
486.19
19.1
3.25
0.85
16.95
1.38
0.1
6.29
-2.24
-5.1
0.52
0.38
-0.3
1.37

> <PUBCHEM_SHAPE_SELFOVERLAP>
1033.071

> <PUBCHEM_SHAPE_VOLUME>
272.2

> <PUBCHEM_COORDINATE_TYPE>
2
5
10

$$$$

