6127
  -OEChem-06261201072D

 45 47  0     0  0  0  0  0  0999 V2000
    4.5981   -2.0670    0.0000 N   0  3  0  0  0  0  0  0  0  0  0  0
    3.7320   -1.5670    0.0000 C   0  0  0  0  0  0  0  0  0  0  0  0
    5.4641   -1.5670    0.0000 C   0  0  0  0  0  0  0  0  0  0  0  0
    3.7320   -0.5670    0.0000 C   0  0  0  0  0  0  0  0  0  0  0  0
    5.4641   -0.5670    0.0000 C   0  0  0  0  0  0  0  0  0  0  0  0
    4.5981   -0.0670    0.0000 C   0  0  0  0  0  0  0  0  0  0  0  0
    4.0981   -2.9330    0.0000 C   0  0  0  0  0  0  0  0  0  0  0  0
    5.0981   -2.9330    0.0000 C   0  0  0  0  0  0  0  0  0  0  0  0
    4.5981    0.9330    0.0000 C   0  0  0  0  0  0  0  0  0  0  0  0
    5.4641    1.4330    0.0000 C   0  0  0  0  0  0  0  0  0  0  0  0
    3.7320    1.4330    0.0000 C   0  0  0  0  0  0  0  0  0  0  0  0
    6.3301    0.9330    0.0000 C   0  0  0  0  0  0  0  0  0  0  0  0
    3.7320    2.4330    0.0000 C   0  0  0  0  0  0  0  0  0  0  0  0
    5.4641    2.4330    0.0000 C   0  0  0  0  0  0  0  0  0  0  0  0
    2.8660    0.9330    0.0000 C   0  0  0  0  0  0  0  0  0  0  0  0
    2.8660    2.9330    0.0000 C   0  0  0  0  0  0  0  0  0  0  0  0
    7.1962    1.4330    0.0000 C   0  0  0  0  0  0  0  0  0  0  0  0
    2.0000    1.4330    0.0000 C   0  0  0  0  0  0  0  0  0  0  0  0
    6.3301    2.9330    0.0000 C   0  0  0  0  0  0  0  0  0  0  0  0
    7.1962    2.4330    0.0000 C   0  0  0  0  0  0  0  0  0  0  0  0
    2.0000    2.4330    0.0000 C   0  0  0  0  0  0  0  0  0  0  0  0
    3.1215   -1.4593    0.0000 H   0  0  0  0  0  0  0  0  0  0  0  0
    3.5200   -2.1496    0.0000 H   0  0  0  0  0  0  0  0  0  0  0  0
    5.6762   -2.1496    0.0000 H   0  0  0  0  0  0  0  0  0  0  0  0
    6.0747   -1.4593    0.0000 H   0  0  0  0  0  0  0  0  0  0  0  0
    6.0747   -0.6746    0.0000 H   0  0  0  0  0  0  0  0  0  0  0  0
    5.6762    0.0156    0.0000 H   0  0  0  0  0  0  0  0  0  0  0  0
    3.5200    0.0156    0.0000 H   0  0  0  0  0  0  0  0  0  0  0  0
    3.1215   -0.6746    0.0000 H   0  0  0  0  0  0  0  0  0  0  0  0
    4.5611   -3.2430    0.0000 H   0  0  0  0  0  0  0  0  0  0  0  0
    5.4081   -3.4700    0.0000 H   0  0  0  0  0  0  0  0  0  0  0  0
    5.6350   -2.6230    0.0000 H   0  0  0  0  0  0  0  0  0  0  0  0
    3.5611   -2.6230    0.0000 H   0  0  0  0  0  0  0  0  0  0  0  0
    3.7881   -3.4700    0.0000 H   0  0  0  0  0  0  0  0  0  0  0  0
    4.6350   -3.2430    0.0000 H   0  0  0  0  0  0  0  0  0  0  0  0
    6.3301    0.3130    0.0000 H   0  0  0  0  0  0  0  0  0  0  0  0
    4.2690    2.7430    0.0000 H   0  0  0  0  0  0  0  0  0  0  0  0
    4.9272    2.7430    0.0000 H   0  0  0  0  0  0  0  0  0  0  0  0
    2.8660    0.3130    0.0000 H   0  0  0  0  0  0  0  0  0  0  0  0
    2.8660    3.5530    0.0000 H   0  0  0  0  0  0  0  0  0  0  0  0
    7.7331    1.1230    0.0000 H   0  0  0  0  0  0  0  0  0  0  0  0
    1.4631    1.1230    0.0000 H   0  0  0  0  0  0  0  0  0  0  0  0
    6.3301    3.5530    0.0000 H   0  0  0  0  0  0  0  0  0  0  0  0
    1.4631    2.7430    0.0000 H   0  0  0  0  0  0  0  0  0  0  0  0
    7.7331    2.7430    0.0000 H   0  0  0  0  0  0  0  0  0  0  0  0
  1  2  1  0  0  0  0
  1  3  1  0  0  0  0
  1  7  1  0  0  0  0
  1  8  1  0  0  0  0
  2  4  1  0  0  0  0
  2 22  1  0  0  0  0
  2 23  1  0  0  0  0
  3  5  1  0  0  0  0
  3 24  1  0  0  0  0
  3 25  1  0  0  0  0
  4  6  1  0  0  0  0
  4 28  1  0  0  0  0
  4 29  1  0  0  0  0
  5  6  1  0  0  0  0
  5 26  1  0  0  0  0
  5 27  1  0  0  0  0
  6  9  2  0  0  0  0
  7 33  1  0  0  0  0
  7 34  1  0  0  0  0
  7 35  1  0  0  0  0
  8 30  1  0  0  0  0
  8 31  1  0  0  0  0
  8 32  1  0  0  0  0
  9 10  1  0  0  0  0
  9 11  1  0  0  0  0
 10 12  2  0  0  0  0
 10 14  1  0  0  0  0
 11 13  2  0  0  0  0
 11 15  1  0  0  0  0
 12 17  1  0  0  0  0
 12 36  1  0  0  0  0
 13 16  1  0  0  0  0
 13 37  1  0  0  0  0
 14 19  2  0  0  0  0
 14 38  1  0  0  0  0
 15 18  2  0  0  0  0
 15 39  1  0  0  0  0
 16 21  2  0  0  0  0
 16 40  1  0  0  0  0
 17 20  2  0  0  0  0
 17 41  1  0  0  0  0
 18 21  1  0  0  0  0
 18 42  1  0  0  0  0
 19 20  1  0  0  0  0
 19 43  1  0  0  0  0
 20 45  1  0  0  0  0
 21 44  1  0  0  0  0
M  CHG  1   1   1
M  END
> <PUBCHEM_COMPOUND_CID>
6127

> <PUBCHEM_COMPOUND_CANONICALIZED>
1

> <PUBCHEM_CACTVS_COMPLEXITY>
335

> <PUBCHEM_CACTVS_HBOND_ACCEPTOR>
0

> <PUBCHEM_CACTVS_HBOND_DONOR>
0

> <PUBCHEM_CACTVS_ROTATABLE_BOND>
2

> <PUBCHEM_CACTVS_SUBSKEYS>
AAADceB6AAAAAAAAAAAAAAAAAAAAAAAAAAA8YIAAAAAAAAABQAAAHAAAAAAADADBGAQyAIMAAACAAiBCAAACAAAgAAAIiAAIAIgIICKAkRCEIAAggACIiAcQgMAOAAAAAAAAAAAAAAAAAAAAAAAAAAAAAA==

> <PUBCHEM_IUPAC_OPENEYE_NAME>
4-benzhydrylidene-1,1-dimethyl-piperidin-1-ium

> <PUBCHEM_IUPAC_CAS_NAME>
4-(diphenylmethylene)-1,1-dimethylpiperidin-1-ium

> <PUBCHEM_IUPAC_NAME>
4-benzhydrylidene-1,1-dimethylpiperidin-1-ium

> <PUBCHEM_IUPAC_SYSTEMATIC_NAME>
4-(diphenylmethylidene)-1,1-dimethyl-piperidin-1-ium

> <PUBCHEM_IUPAC_TRADITIONAL_NAME>
4-benzhydrylidene-1,1-dimethyl-piperidin-1-ium

> <PUBCHEM_IUPAC_INCHI>
InChI=1S/C20H24N/c1-21(2)15-13-19(14-16-21)20(17-9-5-3-6-10-17)18-11-7-4-8-12-18/h3-12H,13-16H2,1-2H3/q+1

> <PUBCHEM_IUPAC_INCHIKEY>
LCTZPQRFOZKZNK-UHFFFAOYSA-N

> <PUBCHEM_XLOGP3_AA>
4.4

> <PUBCHEM_EXACT_MASS>
278.190875

> <PUBCHEM_MOLECULAR_FORMULA>
C20H24N+

> <PUBCHEM_MOLECULAR_WEIGHT>
278.41126

> <PUBCHEM_OPENEYE_CAN_SMILES>
C[N+]1(CCC(=C(C2=CC=CC=C2)C3=CC=CC=C3)CC1)C

> <PUBCHEM_OPENEYE_ISO_SMILES>
C[N+]1(CCC(=C(C2=CC=CC=C2)C3=CC=CC=C3)CC1)C

> <PUBCHEM_CACTVS_TPSA>
0

> <PUBCHEM_MONOISOTOPIC_WEIGHT>
278.190875

> <PUBCHEM_TOTAL_CHARGE>
1

> <PUBCHEM_HEAVY_ATOM_COUNT>
21

> <PUBCHEM_ATOM_DEF_STEREO_COUNT>
0

> <PUBCHEM_ATOM_UDEF_STEREO_COUNT>
0

> <PUBCHEM_BOND_DEF_STEREO_COUNT>
0

> <PUBCHEM_BOND_UDEF_STEREO_COUNT>
0

> <PUBCHEM_ISOTOPIC_ATOM_COUNT>
0

> <PUBCHEM_COMPONENT_COUNT>
1

> <PUBCHEM_CACTVS_TAUTO_COUNT>
1

> <PUBCHEM_COORDINATE_TYPE>
1
5
255

> <PUBCHEM_BONDANNOTATIONS>
10  12  8
10  14  8
11  13  8
11  15  8
12  17  8
13  16  8
14  19  8
15  18  8
16  21  8
17  20  8
18  21  8
19  20  8

$$$$

