47205742
  -OEChem-06241223003D

 39 39  0     0  0  0  0  0  0999 V2000
    0.3262   -3.5020    0.4673 F   0  0  0  0  0  0  0  0  0  0  0  0
    2.0805    0.9186    0.7277 O   0  0  0  0  0  0  0  0  0  0  0  0
   -1.8759   -0.0884   -1.3395 O   0  0  0  0  0  0  0  0  0  0  0  0
   -0.4212    2.4842    1.4279 O   0  0  0  0  0  0  0  0  0  0  0  0
   -2.6261    1.6957   -0.0575 N   0  0  0  0  0  0  0  0  0  0  0  0
    0.6492    3.0507   -0.5557 N   0  0  0  0  0  0  0  0  0  0  0  0
   -3.6699   -0.4492    0.2459 C   0  0  0  0  0  0  0  0  0  0  0  0
   -3.6837   -1.9061   -0.2078 C   0  0  0  0  0  0  0  0  0  0  0  0
    1.9841    3.1965   -0.0209 C   0  0  0  0  0  0  0  0  0  0  0  0
   -1.7210    2.6815   -0.5991 C   0  0  0  0  0  0  0  0  0  0  0  0
    2.7503    1.8872   -0.0690 C   0  0  0  0  0  0  0  0  0  0  0  0
   -2.6239    0.3752   -0.4827 C   0  0  0  0  0  0  0  0  0  0  0  0
   -0.4479    2.7044    0.2197 C   0  0  0  0  0  0  0  0  0  0  0  0
   -4.7597   -2.7038    0.5105 C   0  0  0  0  0  0  0  0  0  0  0  0
    2.2091   -0.3912    0.3453 C   0  0  0  0  0  0  0  0  0  0  0  0
    1.1819   -1.2980    0.6063 C   0  0  0  0  0  0  0  0  0  0  0  0
    3.3670   -0.8172   -0.3055 C   0  0  0  0  0  0  0  0  0  0  0  0
    1.3126   -2.6310    0.2165 C   0  0  0  0  0  0  0  0  0  0  0  0
    3.4978   -2.1502   -0.6950 C   0  0  0  0  0  0  0  0  0  0  0  0
    2.4705   -3.0570   -0.4344 C   0  0  0  0  0  0  0  0  0  0  0  0
   -4.6504    0.0083    0.0669 H   0  0  0  0  0  0  0  0  0  0  0  0
   -3.4628   -0.3939    1.3213 H   0  0  0  0  0  0  0  0  0  0  0  0
   -3.8565   -1.9600   -1.2893 H   0  0  0  0  0  0  0  0  0  0  0  0
   -2.7052   -2.3646   -0.0201 H   0  0  0  0  0  0  0  0  0  0  0  0
    1.9046    3.5486    1.0135 H   0  0  0  0  0  0  0  0  0  0  0  0
    2.4954    3.9619   -0.6128 H   0  0  0  0  0  0  0  0  0  0  0  0
   -1.5156    2.4498   -1.6488 H   0  0  0  0  0  0  0  0  0  0  0  0
   -2.2016    3.6619   -0.5322 H   0  0  0  0  0  0  0  0  0  0  0  0
    2.8116    1.5761   -1.1203 H   0  0  0  0  0  0  0  0  0  0  0  0
    3.7616    2.0390    0.3245 H   0  0  0  0  0  0  0  0  0  0  0  0
    0.5244    3.2193   -1.5495 H   0  0  0  0  0  0  0  0  0  0  0  0
   -3.2712    1.9865    0.6715 H   0  0  0  0  0  0  0  0  0  0  0  0
   -5.7535   -2.2904    0.3111 H   0  0  0  0  0  0  0  0  0  0  0  0
   -4.7502   -3.7443    0.1712 H   0  0  0  0  0  0  0  0  0  0  0  0
   -4.5953   -2.6978    1.5928 H   0  0  0  0  0  0  0  0  0  0  0  0
    0.2769   -0.9715    1.1113 H   0  0  0  0  0  0  0  0  0  0  0  0
    4.2015   -0.1507   -0.5021 H   0  0  0  0  0  0  0  0  0  0  0  0
    4.4019   -2.4840   -1.1958 H   0  0  0  0  0  0  0  0  0  0  0  0
    2.5726   -4.0952   -0.7364 H   0  0  0  0  0  0  0  0  0  0  0  0
  1 18  1  0  0  0  0
  2 11  1  0  0  0  0
  2 15  1  0  0  0  0
  3 12  2  0  0  0  0
  4 13  2  0  0  0  0
  5 10  1  0  0  0  0
  5 12  1  0  0  0  0
  5 32  1  0  0  0  0
  6  9  1  0  0  0  0
  6 13  1  0  0  0  0
  6 31  1  0  0  0  0
  7  8  1  0  0  0  0
  7 12  1  0  0  0  0
  7 21  1  0  0  0  0
  7 22  1  0  0  0  0
  8 14  1  0  0  0  0
  8 23  1  0  0  0  0
  8 24  1  0  0  0  0
  9 11  1  0  0  0  0
  9 25  1  0  0  0  0
  9 26  1  0  0  0  0
 10 13  1  0  0  0  0
 10 27  1  0  0  0  0
 10 28  1  0  0  0  0
 11 29  1  0  0  0  0
 11 30  1  0  0  0  0
 14 33  1  0  0  0  0
 14 34  1  0  0  0  0
 14 35  1  0  0  0  0
 15 16  2  0  0  0  0
 15 17  1  0  0  0  0
 16 18  1  0  0  0  0
 16 36  1  0  0  0  0
 17 19  2  0  0  0  0
 17 37  1  0  0  0  0
 18 20  2  0  0  0  0
 19 20  1  0  0  0  0
 19 38  1  0  0  0  0
 20 39  1  0  0  0  0
M  END
> <PUBCHEM_COMPOUND_CID>
47205742

> <PUBCHEM_CONFORMER_RMSD>
1.2

> <PUBCHEM_CONFORMER_DIVERSEORDER>
1
2
84
100
40
71
74
50
89
61
81
46
8
78
60
76
97
19
73
54
80
64
52
69
56
65
35
28
49
85
41
13
88
63
79
48
98
47
95
10
70
87
20
15
31
94
75
3
68
55
26
57
21
25
102
24
67
91
18
77
34
36
92
66
44
53
93
96
62
59
86
37
33
99
38
82
45
43
32
83
12
11
51
14
58
90
101
6
72
17
29
27
42
39
23
16
9
22
30
5
7
4

> <PUBCHEM_MMFF94_PARTIAL_CHARGES>
24
1 -0.19
10 0.36
11 0.28
12 0.57
13 0.57
15 0.08
16 -0.15
17 -0.15
18 0.19
19 -0.15
2 -0.36
20 -0.15
3 -0.57
31 0.37
32 0.37
36 0.15
37 0.15
38 0.15
39 0.15
4 -0.57
5 -0.73
6 -0.73
7 0.06
9 0.3

> <PUBCHEM_EFFECTIVE_ROTOR_COUNT>
10

> <PUBCHEM_PHARMACOPHORE_FEATURES>
7
1 14 hydrophobe
1 2 acceptor
1 3 acceptor
1 4 acceptor
1 5 donor
1 6 donor
6 15 16 17 18 19 20 rings

> <PUBCHEM_HEAVY_ATOM_COUNT>
20

> <PUBCHEM_ATOM_DEF_STEREO_COUNT>
0

> <PUBCHEM_ATOM_UDEF_STEREO_COUNT>
0

> <PUBCHEM_BOND_DEF_STEREO_COUNT>
0

> <PUBCHEM_BOND_UDEF_STEREO_COUNT>
0

> <PUBCHEM_ISOTOPIC_ATOM_COUNT>
0

> <PUBCHEM_COMPONENT_COUNT>
1

> <PUBCHEM_CACTVS_TAUTO_COUNT>
4

> <PUBCHEM_CONFORMER_ID>
02D04D6E00000001

> <PUBCHEM_MMFF94_ENERGY>
34.714

> <PUBCHEM_FEATURE_SELFOVERLAP>
35.521

> <PUBCHEM_SHAPE_FINGERPRINT>
10064457 181 17545038204449967533
12038231 1 18411138052012991559
12054548 360 18122062267599590158
12553582 1 18050574233074113109
12596599 1 17896577592629770363
12990986 174 18124320660088478266
13122387 1 18337957762082142967
13533116 47 18189617138906519779
138480 1 18410573972335322453
14251705 54 18411140225229188773
14251757 5 17182761707257501742
14863182 85 18053659179297634580
14916288 52 18265615574894548911
19591789 44 17618503177502522015
19930381 70 18267585715333169131
20291156 8 18336828713832358005
20645477 70 18126298454321297831
20765182 20 17622974956144991403
21197605 99 17117189604452969963
21634736 98 17907009931063849006
221490 88 18410008875230685906
238 59 17836688194844349815
6287921 2 18261952921337591179

> <PUBCHEM_SHAPE_MULTIPOLES>
376.75
7.16
5.24
0.9
6.38
0.59
-0.01
-5.3
0.31
-1.17
-0.11
0.09
0.13
0.74

> <PUBCHEM_SHAPE_SELFOVERLAP>
756.925

> <PUBCHEM_SHAPE_VOLUME>
220.6

> <PUBCHEM_COORDINATE_TYPE>
2
5
10

$$$$

