854190
  -OEChem-06241222473D

 34 35  0     1  0  0  0  0  0999 V2000
    5.1186    2.5848    0.1634 Cl  0  0  0  0  0  0  0  0  0  0  0  0
   -4.0808    0.6859   -1.4815 S   0  0  0  0  0  0  0  0  0  0  0  0
   -0.7458   -0.2879    1.5923 O   0  0  0  0  0  0  0  0  0  0  0  0
   -1.8077   -0.1775   -0.5027 N   0  0  0  0  0  0  0  0  0  0  0  0
   -3.3994    0.8170    1.0087 N   0  0  0  0  0  0  0  0  0  0  0  0
    0.4202   -1.1139   -0.3574 C   0  0  2  0  0  0  0  0  0  0  0  0
    0.7152   -2.5608    0.1375 C   0  0  0  0  0  0  0  0  0  0  0  0
    1.6116   -0.1743   -0.2246 C   0  0  0  0  0  0  0  0  0  0  0  0
    1.8624   -3.2137   -0.6470 C   0  0  0  0  0  0  0  0  0  0  0  0
   -0.5292   -3.4519    0.0028 C   0  0  0  0  0  0  0  0  0  0  0  0
   -0.7788   -0.4886    0.3815 C   0  0  0  0  0  0  0  0  0  0  0  0
    1.8017    0.7995   -1.1827 C   0  0  0  0  0  0  0  0  0  0  0  0
    2.4640   -0.3278    0.8490 C   0  0  0  0  0  0  0  0  0  0  0  0
    2.8936    1.6591   -1.0616 C   0  0  0  0  0  0  0  0  0  0  0  0
    3.5558    0.5318    0.9700 C   0  0  0  0  0  0  0  0  0  0  0  0
    3.7707    1.5252    0.0148 C   0  0  0  0  0  0  0  0  0  0  0  0
   -3.0197    0.4336   -0.1718 C   0  0  0  0  0  0  0  0  0  0  0  0
   -5.1930    1.3882   -0.3810 C   0  0  0  0  0  0  0  0  0  0  0  0
   -4.6591    1.3712    0.8904 C   0  0  0  0  0  0  0  0  0  0  0  0
    0.1849   -1.1961   -1.4282 H   0  0  0  0  0  0  0  0  0  0  0  0
    0.9680   -2.5689    1.2037 H   0  0  0  0  0  0  0  0  0  0  0  0
    1.6415   -3.2382   -1.7198 H   0  0  0  0  0  0  0  0  0  0  0  0
    2.0174   -4.2464   -0.3150 H   0  0  0  0  0  0  0  0  0  0  0  0
    2.8121   -2.6899   -0.5106 H   0  0  0  0  0  0  0  0  0  0  0  0
   -1.3480   -3.0948    0.6354 H   0  0  0  0  0  0  0  0  0  0  0  0
   -0.3076   -4.4792    0.3122 H   0  0  0  0  0  0  0  0  0  0  0  0
   -0.8856   -3.4812   -1.0326 H   0  0  0  0  0  0  0  0  0  0  0  0
    1.1227    0.9119   -2.0225 H   0  0  0  0  0  0  0  0  0  0  0  0
    2.3186   -1.0660    1.6282 H   0  0  0  0  0  0  0  0  0  0  0  0
   -1.7048   -0.3976   -1.4896 H   0  0  0  0  0  0  0  0  0  0  0  0
    3.0483    2.4288   -1.8134 H   0  0  0  0  0  0  0  0  0  0  0  0
    4.2278    0.4201    1.8172 H   0  0  0  0  0  0  0  0  0  0  0  0
   -6.1514    1.7679   -0.7052 H   0  0  0  0  0  0  0  0  0  0  0  0
   -5.1520    1.7534    1.7741 H   0  0  0  0  0  0  0  0  0  0  0  0
  1 16  1  0  0  0  0
  2 17  1  0  0  0  0
  2 18  1  0  0  0  0
  3 11  2  0  0  0  0
  4 11  1  0  0  0  0
  4 17  1  0  0  0  0
  4 30  1  0  0  0  0
  5 17  2  0  0  0  0
  5 19  1  0  0  0  0
  6  7  1  0  0  0  0
  6  8  1  0  0  0  0
  6 11  1  0  0  0  0
  6 20  1  0  0  0  0
  7  9  1  0  0  0  0
  7 10  1  0  0  0  0
  7 21  1  0  0  0  0
  8 12  2  0  0  0  0
  8 13  1  0  0  0  0
  9 22  1  0  0  0  0
  9 23  1  0  0  0  0
  9 24  1  0  0  0  0
 10 25  1  0  0  0  0
 10 26  1  0  0  0  0
 10 27  1  0  0  0  0
 12 14  1  0  0  0  0
 12 28  1  0  0  0  0
 13 15  2  0  0  0  0
 13 29  1  0  0  0  0
 14 16  2  0  0  0  0
 14 31  1  0  0  0  0
 15 16  1  0  0  0  0
 15 32  1  0  0  0  0
 18 19  2  0  0  0  0
 18 33  1  0  0  0  0
 19 34  1  0  0  0  0
M  END
> <PUBCHEM_COMPOUND_CID>
854190

> <PUBCHEM_CONFORMER_RMSD>
0.6

> <PUBCHEM_CONFORMER_DIVERSEORDER>
1
20
12
16
8
4
19
15
13
17
11
5
10
7
14
18
3
6
2
9

> <PUBCHEM_MMFF94_PARTIAL_CHARGES>
23
1 -0.18
11 0.57
12 -0.15
13 -0.15
14 -0.15
15 -0.15
16 0.18
17 0.44
18 -0.11
19 0.08
2 -0.08
28 0.15
29 0.15
3 -0.57
30 0.37
31 0.15
32 0.15
33 0.15
34 0.15
4 -0.49
5 -0.57
6 0.2
8 -0.14

> <PUBCHEM_EFFECTIVE_ROTOR_COUNT>
5

> <PUBCHEM_PHARMACOPHORE_FEATURES>
5
1 3 acceptor
1 4 donor
3 7 9 10 hydrophobe
5 2 5 17 18 19 rings
6 8 12 13 14 15 16 rings

> <PUBCHEM_HEAVY_ATOM_COUNT>
19

> <PUBCHEM_ATOM_DEF_STEREO_COUNT>
1

> <PUBCHEM_ATOM_UDEF_STEREO_COUNT>
0

> <PUBCHEM_BOND_DEF_STEREO_COUNT>
0

> <PUBCHEM_BOND_UDEF_STEREO_COUNT>
0

> <PUBCHEM_ISOTOPIC_ATOM_COUNT>
0

> <PUBCHEM_COMPONENT_COUNT>
1

> <PUBCHEM_CACTVS_TAUTO_COUNT>
3

> <PUBCHEM_CONFORMER_ID>
000D08AE00000001

> <PUBCHEM_MMFF94_ENERGY>
40.6583

> <PUBCHEM_FEATURE_SELFOVERLAP>
25.371

> <PUBCHEM_SHAPE_FINGERPRINT>
10465860 228 18337105777872211967
12035758 1 18270411619489273698
12390115 104 18266447720745491508
12403259 327 16415758609105896504
12500047 106 18192152599460489072
12633257 1 15984824775038048544
12788726 201 17763456219071761214
12892183 10 16343715347431779320
13103583 49 11383840415126962885
13134695 92 17910957172859112991
13583140 156 16343437128134893365
13631057 29 18116726114886082543
13955234 65 18267859669801201739
14123255 52 18410291380693534108
15061688 2 18409167671467867244
15188451 53 14117512092102128249
15342168 16 18412261740254263693
16752209 62 18047198445126358598
1741750 31 18337952264739995976
17834072 32 18338797793482517420
1813 80 17465093143201318423
18186145 218 18338229474761635743
19784866 34 18334856121579718361
20157964 124 18269281330336623781
204376 136 18411984645964619207
212916 134 18262252014586421272
21452121 103 18199191861510969309
21499 59 18409732859078046951
21524375 3 18200877275033295591
2255824 54 18191585470034975127
22950370 63 9511468852530153968
23559900 14 18266739267220558059
283562 15 18050293565779003951
312423 11 17751632380944200507
4259306 186 7637411730398273648
474 4 18411421738992447971
633830 44 18187921819896820709
7364860 26 18263925621127885310
7808743 9 18195808466817229472
81539 233 18412828018453878691
84936 182 18187081805829621000
960060 61 6194833761894636377

> <PUBCHEM_SHAPE_MULTIPOLES>
380.9
9.79
3.25
1.22
5.9
3.35
-0.01
-10.43
0.17
-2.37
-0.36
0.42
-0.26
-0.07

> <PUBCHEM_SHAPE_SELFOVERLAP>
779.271

> <PUBCHEM_SHAPE_VOLUME>
223.1

> <PUBCHEM_COORDINATE_TYPE>
2
5
10

$$$$

