8720
  -OEChem-06261203022D

 12 10  0     1  0  0  0  0  0999 V2000
    6.0010    0.2500    0.0000 Sr  0  2  0  0  0  0  0  0  0  0  0  0
    2.5369    0.2500    0.0000 O   0  0  0  0  0  0  0  0  0  0  0  0
    5.1350   -0.2500    0.0000 O   0  5  0  0  0  0  0  0  0  0  0  0
    4.2690    1.2500    0.0000 O   0  0  0  0  0  0  0  0  0  0  0  0
    3.4030   -0.2500    0.0000 C   0  0  3  0  0  0  0  0  0  0  0  0
    3.4030   -1.2500    0.0000 C   0  0  0  0  0  0  0  0  0  0  0  0
    4.2690    0.2500    0.0000 C   0  0  0  0  0  0  0  0  0  0  0  0
    3.4030    0.6000    0.0000 H   0  0  0  0  0  0  0  0  0  0  0  0
    2.7830   -1.2500    0.0000 H   0  0  0  0  0  0  0  0  0  0  0  0
    3.4030   -1.8700    0.0000 H   0  0  0  0  0  0  0  0  0  0  0  0
    4.0230   -1.2500    0.0000 H   0  0  0  0  0  0  0  0  0  0  0  0
    2.0000   -0.0600    0.0000 H   0  0  0  0  0  0  0  0  0  0  0  0
  2  5  1  0  0  0  0
  2 12  1  0  0  0  0
  3  7  1  0  0  0  0
  4  7  2  0  0  0  0
  5  6  1  0  0  0  0
  5  7  1  0  0  0  0
  5  8  1  0  0  0  0
  6  9  1  0  0  0  0
  6 10  1  0  0  0  0
  6 11  1  0  0  0  0
M  CHG  2   1   2   3  -1
M  END
> <PUBCHEM_COMPOUND_CID>
8720

> <PUBCHEM_COMPOUND_CANONICALIZED>
1

> <PUBCHEM_CACTVS_COMPLEXITY>
53.5

> <PUBCHEM_CACTVS_HBOND_ACCEPTOR>
3

> <PUBCHEM_CACTVS_HBOND_DONOR>
1

> <PUBCHEM_CACTVS_ROTATABLE_BOND>
0

> <PUBCHEM_CACTVS_SUBSKEYS>
AAADcYBAMAAAAAAABAAAAAAAAAAAAAAAAAAAAAAAAAAAAAAAAAAAGgAACAAACBSggAICCAAAAgAIAACQCAIAAAAAAAAAAAFAAAABEAAAAAAAAAAAAAABAAAAAAAAAAAAAAAAAAAAAAAAAAAAAAAAAAAAAA==

> <PUBCHEM_IUPAC_OPENEYE_NAME>
strontium 2-hydroxypropanoate

> <PUBCHEM_IUPAC_CAS_NAME>
strontium 2-hydroxypropanoate

> <PUBCHEM_IUPAC_NAME>
strontium 2-hydroxypropanoate

> <PUBCHEM_IUPAC_SYSTEMATIC_NAME>
strontium 2-oxidanylpropanoate

> <PUBCHEM_IUPAC_TRADITIONAL_NAME>
strontium lactate

> <PUBCHEM_IUPAC_INCHI>
InChI=1S/C3H6O3.Sr/c1-2(4)3(5)6;/h2,4H,1H3,(H,5,6);/q;+2/p-1

> <PUBCHEM_IUPAC_INCHIKEY>
ZYEJEDLYJKCTPM-UHFFFAOYSA-M

> <PUBCHEM_EXACT_MASS>
176.929481

> <PUBCHEM_MOLECULAR_FORMULA>
C3H5O3Sr+

> <PUBCHEM_MOLECULAR_WEIGHT>
176.69

> <PUBCHEM_OPENEYE_CAN_SMILES>
CC(C(=O)[O-])O.[Sr+2]

> <PUBCHEM_OPENEYE_ISO_SMILES>
CC(C(=O)[O-])O.[Sr+2]

> <PUBCHEM_CACTVS_TPSA>
60.4

> <PUBCHEM_MONOISOTOPIC_WEIGHT>
176.929481

> <PUBCHEM_TOTAL_CHARGE>
1

> <PUBCHEM_HEAVY_ATOM_COUNT>
7

> <PUBCHEM_ATOM_DEF_STEREO_COUNT>
0

> <PUBCHEM_ATOM_UDEF_STEREO_COUNT>
1

> <PUBCHEM_BOND_DEF_STEREO_COUNT>
0

> <PUBCHEM_BOND_UDEF_STEREO_COUNT>
0

> <PUBCHEM_ISOTOPIC_ATOM_COUNT>
0

> <PUBCHEM_COMPONENT_COUNT>
2

> <PUBCHEM_CACTVS_TAUTO_COUNT>
1

> <PUBCHEM_COORDINATE_TYPE>
1
5
255

> <PUBCHEM_BONDANNOTATIONS>
5  8  3

$$$$

