9498
  -OEChem-06261203453D

 31 32  0     0  0  0  0  0  0999 V2000
    0.5973    2.6025   -0.3204 O   0  0  0  0  0  0  0  0  0  0  0  0
   -5.6643   -0.1512    0.5192 O   0  5  0  0  0  0  0  0  0  0  0  0
   -4.8867   -2.0495   -0.2624 O   0  0  0  0  0  0  0  0  0  0  0  0
    2.7878    0.9725   -0.1337 N   0  0  0  0  0  0  0  0  0  0  0  0
    1.5224    0.4926   -0.0903 N   0  0  0  0  0  0  0  0  0  0  0  0
   -4.7180   -0.8593    0.0976 N   0  3  0  0  0  0  0  0  0  0  0  0
    5.7406   -0.9473    0.4873 C   0  0  0  0  0  0  0  0  0  0  0  0
    4.7673   -2.0118   -0.0105 C   0  0  0  0  0  0  0  0  0  0  0  0
    5.1585    0.3689   -0.0136 C   0  0  0  0  0  0  0  0  0  0  0  0
    3.3882   -1.3952    0.1904 C   0  0  0  0  0  0  0  0  0  0  0  0
    3.6909    0.0622    0.0020 C   0  0  0  0  0  0  0  0  0  0  0  0
    0.4733    1.3871   -0.1918 C   0  0  0  0  0  0  0  0  0  0  0  0
   -0.8887    0.7975   -0.1154 C   0  0  0  0  0  0  0  0  0  0  0  0
   -1.9268    1.5781    0.3482 C   0  0  0  0  0  0  0  0  0  0  0  0
   -1.0707   -0.5112   -0.5113 C   0  0  0  0  0  0  0  0  0  0  0  0
   -3.4166   -0.2964    0.0252 C   0  0  0  0  0  0  0  0  0  0  0  0
   -3.2053    1.0249    0.4196 C   0  0  0  0  0  0  0  0  0  0  0  0
   -2.3492   -1.0645   -0.4402 C   0  0  0  0  0  0  0  0  0  0  0  0
    6.7587   -1.1124    0.1230 H   0  0  0  0  0  0  0  0  0  0  0  0
    5.7682   -0.9523    1.5840 H   0  0  0  0  0  0  0  0  0  0  0  0
    4.8775   -2.9582    0.5268 H   0  0  0  0  0  0  0  0  0  0  0  0
    4.9422   -2.2051   -1.0762 H   0  0  0  0  0  0  0  0  0  0  0  0
    5.4669    0.5817   -1.0416 H   0  0  0  0  0  0  0  0  0  0  0  0
    5.4041    1.2121    0.6356 H   0  0  0  0  0  0  0  0  0  0  0  0
    3.0218   -1.5686    1.2069 H   0  0  0  0  0  0  0  0  0  0  0  0
    2.6931   -1.7970   -0.5510 H   0  0  0  0  0  0  0  0  0  0  0  0
    1.3649   -0.4836    0.1171 H   0  0  0  0  0  0  0  0  0  0  0  0
   -1.7775    2.6064    0.6636 H   0  0  0  0  0  0  0  0  0  0  0  0
   -0.2739   -1.1302   -0.9105 H   0  0  0  0  0  0  0  0  0  0  0  0
   -4.0126    1.6525    0.7884 H   0  0  0  0  0  0  0  0  0  0  0  0
   -2.4783   -2.0946   -0.7626 H   0  0  0  0  0  0  0  0  0  0  0  0
  1 12  2  0  0  0  0
  2  6  1  0  0  0  0
  3  6  2  0  0  0  0
  4  5  1  0  0  0  0
  4 11  2  0  0  0  0
  5 12  1  0  0  0  0
  5 27  1  0  0  0  0
  6 16  1  0  0  0  0
  7  8  1  0  0  0  0
  7  9  1  0  0  0  0
  7 19  1  0  0  0  0
  7 20  1  0  0  0  0
  8 10  1  0  0  0  0
  8 21  1  0  0  0  0
  8 22  1  0  0  0  0
  9 11  1  0  0  0  0
  9 23  1  0  0  0  0
  9 24  1  0  0  0  0
 10 11  1  0  0  0  0
 10 25  1  0  0  0  0
 10 26  1  0  0  0  0
 12 13  1  0  0  0  0
 13 14  2  0  0  0  0
 13 15  1  0  0  0  0
 14 17  1  0  0  0  0
 14 28  1  0  0  0  0
 15 18  2  0  0  0  0
 15 29  1  0  0  0  0
 16 17  2  0  0  0  0
 16 18  1  0  0  0  0
 17 30  1  0  0  0  0
 18 31  1  0  0  0  0
M  CHG  2   2  -1   6   1
M  END
> <PUBCHEM_COMPOUND_CID>
9498

> <PUBCHEM_CONFORMER_RMSD>
0.6

> <PUBCHEM_CONFORMER_DIVERSEORDER>
1
2

> <PUBCHEM_MMFF94_PARTIAL_CHARGES>
21
1 -0.57
10 0.06
11 0.33
12 0.54
13 0.09
14 -0.15
15 -0.15
16 0.13
17 -0.15
18 -0.15
2 -0.52
27 0.37
28 0.15
29 0.15
3 -0.52
30 0.15
31 0.15
4 -0.51
5 -0.37
6 0.91
9 0.06

> <PUBCHEM_EFFECTIVE_ROTOR_COUNT>
4.8

> <PUBCHEM_PHARMACOPHORE_FEATURES>
8
1 1 acceptor
1 2 acceptor
1 2 anion
1 3 acceptor
1 4 acceptor
1 5 donor
5 7 8 9 10 11 rings
6 13 14 15 16 17 18 rings

> <PUBCHEM_HEAVY_ATOM_COUNT>
18

> <PUBCHEM_ATOM_DEF_STEREO_COUNT>
0

> <PUBCHEM_ATOM_UDEF_STEREO_COUNT>
0

> <PUBCHEM_BOND_DEF_STEREO_COUNT>
0

> <PUBCHEM_BOND_UDEF_STEREO_COUNT>
0

> <PUBCHEM_ISOTOPIC_ATOM_COUNT>
0

> <PUBCHEM_COMPONENT_COUNT>
1

> <PUBCHEM_CACTVS_TAUTO_COUNT>
2

> <PUBCHEM_CONFORMER_ID>
0000251A00000001

> <PUBCHEM_MMFF94_ENERGY>
51.3961

> <PUBCHEM_FEATURE_SELFOVERLAP>
40.682

> <PUBCHEM_SHAPE_FINGERPRINT>
100836 57 8070025588574065818
10968037 39 18413387614301352228
12107183 9 17687742053439652010
12236239 1 18410854360621971257
12596602 18 17385723578106097010
12633257 1 16009038254369289186
12839892 36 17458062630109801719
13167823 11 18409731785468130634
13288520 33 18410855469024200989
13533116 47 18335984160005779985
13551218 46 18334574684899290071
13690532 89 18411699872495340173
13862211 1 18335422340203744527
1420 369 18410854378202799502
14251764 18 18260823787958158659
15042514 8 18265612259270220577
15196674 1 18410575132366759030
15342168 16 6988308461250534650
15352361 1 18411982459805328938
17804303 29 18187364332946887113
17834072 33 18412824668674722092
17857418 61 18410294704940198867
17862501 102 18261390031824474161
1813 80 17774996925530019692
19141452 34 18259988149893226703
193927 3 18272077310336867866
19784866 240 18201433683825248429
200 152 18411703187919896880
20261772 1 18041002838895569870
20281475 54 18411697712359152276
20374829 77 18271812349488142336
20645477 56 8358259254433518409
20645477 70 18202284676177217676
21267235 1 18410848880718507158
22079108 93 5400795085839330053
22950370 63 18411697699231234944
2297311 6 18040986376407139460
23402539 116 18113341903725731517
23559900 14 18339368444201465937
2871803 45 18059859497655634210
3004659 81 18131632301197128326
314194 84 18411696543668858562
335352 9 18410012135706807037
3421961 26 18337393742940574688
351380 3 18411703183841506202
42 15 18407758135899136085
4214541 1 18337954592406892832
4325135 7 18272647931861444412
465052 167 18338228267976221191
5104073 3 18042677322205812379
542803 24 5400796172629527386
559249 180 18270405013159100427

> <PUBCHEM_SHAPE_MULTIPOLES>
337.88
13.08
2.03
0.67
3.58
0.17
0.01
-6.93
1.76
-0.12
-0.12
-0.04
-0.01
-0.48

> <PUBCHEM_SHAPE_SELFOVERLAP>
717.32

> <PUBCHEM_SHAPE_VOLUME>
190.3

> <PUBCHEM_COORDINATE_TYPE>
2
5
10

$$$$

