854041
  -OEChem-06241222473D

 19 20  0     0  0  0  0  0  0999 V2000
    3.0561    2.3815    0.1615 Cl  0  0  0  0  0  0  0  0  0  0  0  0
    2.6441   -2.9781   -0.1447 Cl  0  0  0  0  0  0  0  0  0  0  0  0
   -2.2004   -1.0580    0.4663 O   0  0  0  0  0  0  0  0  0  0  0  0
    0.0734    2.3016    0.0919 O   0  0  0  0  0  0  0  0  0  0  0  0
   -3.5699   -0.8436    0.3689 N   0  0  0  0  0  0  0  0  0  0  0  0
   -0.1099   -0.0784   -0.0440 C   0  0  0  0  0  0  0  0  0  0  0  0
   -1.5526    0.0010   -0.0715 C   0  0  0  0  0  0  0  0  0  0  0  0
    0.6713    1.0745    0.0369 C   0  0  0  0  0  0  0  0  0  0  0  0
    0.5001   -1.3315   -0.1004 C   0  0  0  0  0  0  0  0  0  0  0  0
    2.0623    0.9742    0.0618 C   0  0  0  0  0  0  0  0  0  0  0  0
    1.8912   -1.4318   -0.0756 C   0  0  0  0  0  0  0  0  0  0  0  0
    2.6722   -0.2789    0.0055 C   0  0  0  0  0  0  0  0  0  0  0  0
   -2.4459    0.9223   -0.5283 C   0  0  0  0  0  0  0  0  0  0  0  0
   -3.6919    0.3452   -0.2284 C   0  0  0  0  0  0  0  0  0  0  0  0
   -0.0945   -2.2400   -0.1730 H   0  0  0  0  0  0  0  0  0  0  0  0
    3.7572   -0.3588    0.0249 H   0  0  0  0  0  0  0  0  0  0  0  0
   -2.2535    1.8655   -1.0174 H   0  0  0  0  0  0  0  0  0  0  0  0
   -4.6806    0.7352   -0.4204 H   0  0  0  0  0  0  0  0  0  0  0  0
    0.7684    2.9802    0.1439 H   0  0  0  0  0  0  0  0  0  0  0  0
  1 10  1  0  0  0  0
  2 11  1  0  0  0  0
  3  5  1  0  0  0  0
  3  7  1  0  0  0  0
  4  8  1  0  0  0  0
  4 19  1  0  0  0  0
  5 14  2  0  0  0  0
  6  7  1  0  0  0  0
  6  8  2  0  0  0  0
  6  9  1  0  0  0  0
  7 13  2  0  0  0  0
  8 10  1  0  0  0  0
  9 11  2  0  0  0  0
  9 15  1  0  0  0  0
 10 12  2  0  0  0  0
 11 12  1  0  0  0  0
 12 16  1  0  0  0  0
 13 14  1  0  0  0  0
 13 17  1  0  0  0  0
 14 18  1  0  0  0  0
M  END
> <PUBCHEM_COMPOUND_CID>
854041

> <PUBCHEM_CONFORMER_RMSD>
0.4

> <PUBCHEM_CONFORMER_DIVERSEORDER>
6
4
1
2
5
3

> <PUBCHEM_MMFF94_PARTIAL_CHARGES>
19
1 -0.18
10 0.18
11 0.18
12 -0.15
13 -0.15
14 0.14
15 0.15
16 0.15
17 0.15
18 0.15
19 0.45
2 -0.18
3 -0.02
4 -0.53
5 -0.41
6 0.05
7 0.09
8 0.08
9 -0.15

> <PUBCHEM_EFFECTIVE_ROTOR_COUNT>
1

> <PUBCHEM_PHARMACOPHORE_FEATURES>
4
1 4 donor
1 5 acceptor
5 3 5 7 13 14 rings
6 6 8 9 10 11 12 rings

> <PUBCHEM_HEAVY_ATOM_COUNT>
14

> <PUBCHEM_ATOM_DEF_STEREO_COUNT>
0

> <PUBCHEM_ATOM_UDEF_STEREO_COUNT>
0

> <PUBCHEM_BOND_DEF_STEREO_COUNT>
0

> <PUBCHEM_BOND_UDEF_STEREO_COUNT>
0

> <PUBCHEM_ISOTOPIC_ATOM_COUNT>
0

> <PUBCHEM_COMPONENT_COUNT>
1

> <PUBCHEM_CACTVS_TAUTO_COUNT>
4

> <PUBCHEM_CONFORMER_ID>
000D081900000006

> <PUBCHEM_MMFF94_ENERGY>
26.2783

> <PUBCHEM_FEATURE_SELFOVERLAP>
20.297

> <PUBCHEM_SHAPE_FINGERPRINT>
1 1 18337391526631461212
10608611 8 18342181076618182821
10967382 1 18410575046029478774
10980938 120 18410013195677407984
11471102 20 18410016524256158405
12032990 46 18339076119921074559
12138202 78 18338518641992955964
12932764 1 17386013836301255977
13140716 1 18265343811356021826
13296908 3 18340204189028884303
13380535 76 18197783206468549690
14325111 11 18411420566361127901
15219456 202 18342459227274089637
15442244 35 18192146225112025369
15775835 57 18116148874747941085
161256 15 18411702127379583452
16945 1 18409448119952500000
17990270 104 18339927111919252306
19049666 15 18271528701353035857
193761 8 18193838373802714456
20201158 50 18413390959838432003
20645476 183 17698712611479827444
20645477 70 18410864278208068039
20671657 53 18119524581783264518
20871998 22 18118684559337113670
21501502 16 18192706958862367240
21524375 3 18124320398247921112
221490 88 18412819170821697259
23402655 69 18335713732470880021
23463225 33 18337110162996910967
23557571 272 17418379103594722245
23559900 14 18267593579418229562
2748010 2 18412828001184098551
3071541 37 18341607097409979716
458136 41 18267564841670589832
5104073 3 18413106165379399689
53812653 166 18190745228313058896
54173680 148 17473262553698174742
7364860 26 18408604777528290894
77492 1 17458064867702852799
81228 2 17397259907518050002
81539 233 18270966734952341756
8809292 202 18127404764355159427
9709674 26 18342174453863183763

> <PUBCHEM_SHAPE_MULTIPOLES>
275.13
5.72
2.69
0.65
3.92
0.24
-0.02
0.47
0.03
-3.2
0.02
0.07
0.01
0.42

> <PUBCHEM_SHAPE_SELFOVERLAP>
582.281

> <PUBCHEM_SHAPE_VOLUME>
156.9

> <PUBCHEM_COORDINATE_TYPE>
2
5
10

$$$$

