3309
  -OEChem-06251223193D

 57 60  0     1  0  0  0  0  0999 V2000
   -2.9072   -1.5513    0.7408 O   0  0  0  0  0  0  0  0  0  0  0  0
    6.7355    0.2508   -0.9465 O   0  0  0  0  0  0  0  0  0  0  0  0
   -6.0304    0.3505    0.2388 N   0  0  0  0  0  0  0  0  0  0  0  0
    4.7938   -0.9121   -0.2628 N   0  0  0  0  0  0  0  0  0  0  0  0
    2.4453   -0.9915   -0.6598 N   0  0  0  0  0  0  0  0  0  0  0  0
   -6.5513   -0.3508   -0.9429 C   0  0  0  0  0  0  0  0  0  0  0  0
   -7.1160    0.7253    1.1556 C   0  0  0  0  0  0  0  0  0  0  0  0
   -7.5524    0.5195   -1.7043 C   0  0  0  0  0  0  0  0  0  0  0  0
   -8.1356    1.6310    0.4628 C   0  0  0  0  0  0  0  0  0  0  0  0
   -8.6895    0.9786   -0.7986 C   0  0  0  0  0  0  0  0  0  0  0  0
   -5.0403   -0.4759    0.9288 C   0  0  0  0  0  0  0  0  0  0  0  0
    3.4713   -0.5559    0.2502 C   0  0  2  0  0  0  0  0  0  0  0  0
    3.5519    0.9367    0.2970 C   0  0  0  0  0  0  0  0  0  0  0  0
    4.7968    1.3718   -0.1617 C   0  0  0  0  0  0  0  0  0  0  0  0
   -3.8526   -0.7593    0.0230 C   0  0  0  0  0  0  0  0  0  0  0  0
    5.5958    0.1956   -0.5218 C   0  0  0  0  0  0  0  0  0  0  0  0
    5.2253   -2.2791   -0.4794 C   0  0  0  0  0  0  0  0  0  0  0  0
    2.6070    1.8554    0.7183 C   0  0  0  0  0  0  0  0  0  0  0  0
    1.1091   -1.1317   -0.3099 C   0  0  0  0  0  0  0  0  0  0  0  0
    5.1452    2.7071   -0.2255 C   0  0  0  0  0  0  0  0  0  0  0  0
    5.8877   -2.8542    0.7554 C   0  0  0  0  0  0  0  0  0  0  0  0
    2.9344    3.2142    0.6628 C   0  0  0  0  0  0  0  0  0  0  0  0
   -1.5973   -1.4143    0.3981 C   0  0  0  0  0  0  0  0  0  0  0  0
    4.1921    3.6359    0.1943 C   0  0  0  0  0  0  0  0  0  0  0  0
    0.0927   -0.9396   -1.2620 C   0  0  0  0  0  0  0  0  0  0  0  0
    0.7406   -1.4684    1.0046 C   0  0  0  0  0  0  0  0  0  0  0  0
   -1.2500   -1.0797   -0.9108 C   0  0  0  0  0  0  0  0  0  0  0  0
   -0.6020   -1.6087    1.3558 C   0  0  0  0  0  0  0  0  0  0  0  0
   -7.0250   -1.3004   -0.6610 H   0  0  0  0  0  0  0  0  0  0  0  0
   -5.7644   -0.5749   -1.6677 H   0  0  0  0  0  0  0  0  0  0  0  0
   -7.6227   -0.1670    1.5467 H   0  0  0  0  0  0  0  0  0  0  0  0
   -6.7058    1.2699    2.0148 H   0  0  0  0  0  0  0  0  0  0  0  0
   -7.0382    1.3966   -2.1178 H   0  0  0  0  0  0  0  0  0  0  0  0
   -7.9609   -0.0408   -2.5531 H   0  0  0  0  0  0  0  0  0  0  0  0
   -8.9565    1.8592    1.1519 H   0  0  0  0  0  0  0  0  0  0  0  0
   -7.6615    2.5860    0.2025 H   0  0  0  0  0  0  0  0  0  0  0  0
   -9.3362    1.6826   -1.3338 H   0  0  0  0  0  0  0  0  0  0  0  0
   -9.3090    0.1163   -0.5231 H   0  0  0  0  0  0  0  0  0  0  0  0
   -4.6713    0.0429    1.8233 H   0  0  0  0  0  0  0  0  0  0  0  0
   -5.4733   -1.4205    1.2844 H   0  0  0  0  0  0  0  0  0  0  0  0
    3.4057   -0.9822    1.2555 H   0  0  0  0  0  0  0  0  0  0  0  0
   -4.1301   -1.3463   -0.8560 H   0  0  0  0  0  0  0  0  0  0  0  0
   -3.4204    0.2004   -0.2905 H   0  0  0  0  0  0  0  0  0  0  0  0
    5.9476   -2.2853   -1.3034 H   0  0  0  0  0  0  0  0  0  0  0  0
    4.3664   -2.8872   -0.7795 H   0  0  0  0  0  0  0  0  0  0  0  0
    2.6423   -0.8829   -1.6498 H   0  0  0  0  0  0  0  0  0  0  0  0
    1.6366    1.5443    1.0881 H   0  0  0  0  0  0  0  0  0  0  0  0
    6.1162    3.0296   -0.5830 H   0  0  0  0  0  0  0  0  0  0  0  0
    6.2211   -3.8794    0.5679 H   0  0  0  0  0  0  0  0  0  0  0  0
    5.1939   -2.8697    1.6024 H   0  0  0  0  0  0  0  0  0  0  0  0
    6.7587   -2.2592    1.0499 H   0  0  0  0  0  0  0  0  0  0  0  0
    2.2089    3.9556    0.9877 H   0  0  0  0  0  0  0  0  0  0  0  0
    4.4227    4.6975    0.1621 H   0  0  0  0  0  0  0  0  0  0  0  0
    0.3471   -0.6833   -2.2881 H   0  0  0  0  0  0  0  0  0  0  0  0
    1.4816   -1.6465    1.7780 H   0  0  0  0  0  0  0  0  0  0  0  0
   -1.9907   -0.9465   -1.6936 H   0  0  0  0  0  0  0  0  0  0  0  0
   -0.8670   -1.8730    2.3758 H   0  0  0  0  0  0  0  0  0  0  0  0
  1 15  1  0  0  0  0
  1 23  1  0  0  0  0
  2 16  2  0  0  0  0
  3  6  1  0  0  0  0
  3  7  1  0  0  0  0
  3 11  1  0  0  0  0
  4 12  1  0  0  0  0
  4 16  1  0  0  0  0
  4 17  1  0  0  0  0
  5 12  1  0  0  0  0
  5 19  1  0  0  0  0
  5 46  1  0  0  0  0
  6  8  1  0  0  0  0
  6 29  1  0  0  0  0
  6 30  1  0  0  0  0
  7  9  1  0  0  0  0
  7 31  1  0  0  0  0
  7 32  1  0  0  0  0
  8 10  1  0  0  0  0
  8 33  1  0  0  0  0
  8 34  1  0  0  0  0
  9 10  1  0  0  0  0
  9 35  1  0  0  0  0
  9 36  1  0  0  0  0
 10 37  1  0  0  0  0
 10 38  1  0  0  0  0
 11 15  1  0  0  0  0
 11 39  1  0  0  0  0
 11 40  1  0  0  0  0
 12 13  1  0  0  0  0
 12 41  1  0  0  0  0
 13 14  1  0  0  0  0
 13 18  2  0  0  0  0
 14 16  1  0  0  0  0
 14 20  2  0  0  0  0
 15 42  1  0  0  0  0
 15 43  1  0  0  0  0
 17 21  1  0  0  0  0
 17 44  1  0  0  0  0
 17 45  1  0  0  0  0
 18 22  1  0  0  0  0
 18 47  1  0  0  0  0
 19 25  2  0  0  0  0
 19 26  1  0  0  0  0
 20 24  1  0  0  0  0
 20 48  1  0  0  0  0
 21 49  1  0  0  0  0
 21 50  1  0  0  0  0
 21 51  1  0  0  0  0
 22 24  2  0  0  0  0
 22 52  1  0  0  0  0
 23 27  2  0  0  0  0
 23 28  1  0  0  0  0
 24 53  1  0  0  0  0
 25 27  1  0  0  0  0
 25 54  1  0  0  0  0
 26 28  2  0  0  0  0
 26 55  1  0  0  0  0
 27 56  1  0  0  0  0
 28 57  1  0  0  0  0
M  END
> <PUBCHEM_COMPOUND_CID>
3309

> <PUBCHEM_CONFORMER_RMSD>
1

> <PUBCHEM_CONFORMER_DIVERSEORDER>
1
70
135
102
62
45
144
29
46
120
12
116
48
68
146
52
72
79
127
80
7
89
138
76
152
129
69
33
101
47
150
63
64
159
18
103
2
100
126
93
157
78
108
55
121
41
122
88
3
104
74
134
136
139
143
148
14
111
59
53
85
51
147
84
114
158
140
81
119
94
40
66
35
56
95
107
115
6
105
131
124
156
123
36
31
155
98
141
21
112
75
82
87
26
73
90
20
137
50
133
92
25
71
13
28
153
32
34
27
54
154
43
61
106
149
19
145
83
65
10
23
44
58
16
30
38
86
99
24
67
110
60
91
118
5
17
11
151
37
130
22
109
128
97
132
8
39
113
42
77
117
49
9
15
96
142
4
125
57

> <PUBCHEM_MMFF94_PARTIAL_CHARGES>
33
1 -0.36
11 0.27
12 0.81
13 -0.14
14 0.09
15 0.28
16 0.54
17 0.3
18 -0.15
19 0.1
2 -0.57
20 -0.15
22 -0.15
23 0.08
24 -0.15
25 -0.15
26 -0.15
27 -0.15
28 -0.15
3 -0.81
4 -0.66
46 0.4
47 0.15
48 0.15
5 -0.87
52 0.15
53 0.15
54 0.15
55 0.15
56 0.15
57 0.15
6 0.27
7 0.27

> <PUBCHEM_EFFECTIVE_ROTOR_COUNT>
8.6

> <PUBCHEM_PHARMACOPHORE_FEATURES>
9
1 1 acceptor
1 2 acceptor
1 3 cation
1 5 cation
1 5 donor
5 4 12 13 14 16 rings
6 13 14 18 20 22 24 rings
6 19 23 25 26 27 28 rings
6 3 6 7 8 9 10 rings

> <PUBCHEM_HEAVY_ATOM_COUNT>
28

> <PUBCHEM_ATOM_DEF_STEREO_COUNT>
0

> <PUBCHEM_ATOM_UDEF_STEREO_COUNT>
1

> <PUBCHEM_BOND_DEF_STEREO_COUNT>
0

> <PUBCHEM_BOND_UDEF_STEREO_COUNT>
0

> <PUBCHEM_ISOTOPIC_ATOM_COUNT>
0

> <PUBCHEM_COMPONENT_COUNT>
1

> <PUBCHEM_CACTVS_TAUTO_COUNT>
1

> <PUBCHEM_CONFORMER_ID>
00000CED00000001

> <PUBCHEM_MMFF94_ENERGY>
74.5071

> <PUBCHEM_FEATURE_SELFOVERLAP>
45.756

> <PUBCHEM_SHAPE_FINGERPRINT>
10 15 16056878031665098207
10165383 225 17632573847701266830
10554248 39 17894623777509977471
10763959 59 18342176635511332901
11386260 185 18260543420814550508
11456790 92 18130510824853302808
11991303 11 17531252704213618871
13685833 64 8862942780143711883
13878862 14 18337686247081870404
14117953 113 18114455760798146766
14294032 229 16299769023352970971
14556957 393 17240473724712534097
15183329 4 17821725040075941609
15301273 46 16702301291118001975
15483637 11 18122342647213123009
15840311 113 18342737417096795413
18335252 114 18334861636233122485
190975 80 10447928365327338633
19301679 30 17978232983330399370
20157964 124 18333446547324892782
20511986 3 17169272534189177256
20567600 247 10519987037523416193
20721686 124 18188207714691402511
21033648 29 17775005631017167666
21792934 111 18334580123883919320
22122407 14 18262222361768180665
221357 26 18409729577981671012
22149856 69 10880002371320007527
249057 25 17604141614577026259
249057 3 18333450958515126038
255183 451 17679572613648540718
2838139 119 18407759253408446937
328310 630 18187075145269138265
397830 11 18200301114562566067
4073 2 18129094520406336322
4144715 1 18128244585228232027
44555599 121 18260261984666417393
6371009 1 17967529099339361257
6898599 12 18043815282286461047
9658208 31 17489298655621725098
9663363 56 18336827585659653998

> <PUBCHEM_SHAPE_MULTIPOLES>
549.55
24.09
3.2
1.2
47.21
2.17
0.09
8.65
3.85
-6.76
-0.65
1.31
-0.19
0.16

> <PUBCHEM_SHAPE_SELFOVERLAP>
1172.057

> <PUBCHEM_SHAPE_VOLUME>
306.6

> <PUBCHEM_COORDINATE_TYPE>
2
5
10

$$$$

