17395967
  -OEChem-06241222532D

 38 40  0     1  0  0  0  0  0999 V2000
    5.5443   -2.6147    0.0000 S   0  0  0  0  0  0  0  0  0  0  0  0
    2.0000    2.1900    0.0000 O   0  0  0  0  0  0  0  0  0  0  0  0
    3.7320    0.1900    0.0000 N   0  0  0  0  0  0  0  0  0  0  0  0
    2.8660   -1.3100    0.0000 N   0  0  0  0  0  0  0  0  0  0  0  0
    3.7320   -2.8100    0.0000 N   0  0  0  0  0  0  0  0  0  0  0  0
    4.5981   -1.3100    0.0000 C   0  0  0  0  0  0  0  0  0  0  0  0
    5.5443   -1.0053    0.0000 C   0  0  0  0  0  0  0  0  0  0  0  0
    2.8660    0.6900    0.0000 C   0  0  0  0  0  0  0  0  0  0  0  0
    3.7320   -0.8100    0.0000 C   0  0  0  0  0  0  0  0  0  0  0  0
    2.8660    1.6900    0.0000 C   0  0  3  0  0  0  0  0  0  0  0  0
    5.8550   -0.0547    0.0000 C   0  0  0  0  0  0  0  0  0  0  0  0
    4.5981   -2.3100    0.0000 C   0  0  0  0  0  0  0  0  0  0  0  0
    6.1279   -1.8100    0.0000 C   0  0  0  0  0  0  0  0  0  0  0  0
    6.8335    0.1515    0.0000 C   0  0  0  0  0  0  0  0  0  0  0  0
    5.1871    0.6896    0.0000 C   0  0  0  0  0  0  0  0  0  0  0  0
    3.7320    2.1900    0.0000 C   0  0  0  0  0  0  0  0  0  0  0  0
    6.4763    1.8463    0.0000 C   0  0  0  0  0  0  0  0  0  0  0  0
    7.1441    1.1020    0.0000 C   0  0  0  0  0  0  0  0  0  0  0  0
    5.4978    1.6401    0.0000 C   0  0  0  0  0  0  0  0  0  0  0  0
    2.8660   -2.3100    0.0000 C   0  0  0  0  0  0  0  0  0  0  0  0
    6.7870    2.7968    0.0000 C   0  0  0  0  0  0  0  0  0  0  0  0
    2.2554    0.7977    0.0000 H   0  0  0  0  0  0  0  0  0  0  0  0
    2.6540    0.1074    0.0000 H   0  0  0  0  0  0  0  0  0  0  0  0
    2.8660    2.3100    0.0000 H   0  0  0  0  0  0  0  0  0  0  0  0
    4.2690    0.5000    0.0000 H   0  0  0  0  0  0  0  0  0  0  0  0
    6.7479   -1.8100    0.0000 H   0  0  0  0  0  0  0  0  0  0  0  0
    7.2475   -0.3100    0.0000 H   0  0  0  0  0  0  0  0  0  0  0  0
    4.5804    0.5617    0.0000 H   0  0  0  0  0  0  0  0  0  0  0  0
    4.0420    1.6531    0.0000 H   0  0  0  0  0  0  0  0  0  0  0  0
    4.2690    2.5000    0.0000 H   0  0  0  0  0  0  0  0  0  0  0  0
    3.4220    2.7269    0.0000 H   0  0  0  0  0  0  0  0  0  0  0  0
    7.7508    1.2299    0.0000 H   0  0  0  0  0  0  0  0  0  0  0  0
    5.0837    2.1015    0.0000 H   0  0  0  0  0  0  0  0  0  0  0  0
    2.3291   -2.6200    0.0000 H   0  0  0  0  0  0  0  0  0  0  0  0
    2.0000    2.8100    0.0000 H   0  0  0  0  0  0  0  0  0  0  0  0
    7.3763    2.6042    0.0000 H   0  0  0  0  0  0  0  0  0  0  0  0
    6.9796    3.3861    0.0000 H   0  0  0  0  0  0  0  0  0  0  0  0
    6.1976    2.9894    0.0000 H   0  0  0  0  0  0  0  0  0  0  0  0
  1 12  1  0  0  0  0
  1 13  1  0  0  0  0
  2 10  1  0  0  0  0
  2 35  1  0  0  0  0
  3  8  1  0  0  0  0
  3  9  1  0  0  0  0
  3 25  1  0  0  0  0
  4  9  1  0  0  0  0
  4 20  2  0  0  0  0
  5 12  2  0  0  0  0
  5 20  1  0  0  0  0
  6  7  1  0  0  0  0
  6  9  2  0  0  0  0
  6 12  1  0  0  0  0
  7 11  1  0  0  0  0
  7 13  2  0  0  0  0
  8 10  1  0  0  0  0
  8 22  1  0  0  0  0
  8 23  1  0  0  0  0
 10 16  1  0  0  0  0
 10 24  1  0  0  0  0
 11 14  2  0  0  0  0
 11 15  1  0  0  0  0
 13 26  1  0  0  0  0
 14 18  1  0  0  0  0
 14 27  1  0  0  0  0
 15 19  2  0  0  0  0
 15 28  1  0  0  0  0
 16 29  1  0  0  0  0
 16 30  1  0  0  0  0
 16 31  1  0  0  0  0
 17 18  2  0  0  0  0
 17 19  1  0  0  0  0
 17 21  1  0  0  0  0
 18 32  1  0  0  0  0
 19 33  1  0  0  0  0
 20 34  1  0  0  0  0
 21 36  1  0  0  0  0
 21 37  1  0  0  0  0
 21 38  1  0  0  0  0
M  END
> <PUBCHEM_COMPOUND_CID>
17395967

> <PUBCHEM_COMPOUND_CANONICALIZED>
1

> <PUBCHEM_CACTVS_COMPLEXITY>
336

> <PUBCHEM_CACTVS_HBOND_ACCEPTOR>
5

> <PUBCHEM_CACTVS_HBOND_DONOR>
2

> <PUBCHEM_CACTVS_ROTATABLE_BOND>
4

> <PUBCHEM_CACTVS_SUBSKEYS>
AAADceB7IABAAAAAAAAAAAAAAAAAASAAAAA8QAAAAAAAAFgB/AAAHgQQCAAADBTl2ga3sdbIEgikAiJjZACD0KlxCLgJ2LAoRJiKOCLg2dGEJAxokAL4yCcQgMAOwAAAAAAAAACAAAAAAAAAAAAAAAAAAA==

> <PUBCHEM_IUPAC_OPENEYE_NAME>
1-[[5-(p-tolyl)thieno[2,3-d]pyrimidin-4-yl]amino]propan-2-ol

> <PUBCHEM_IUPAC_CAS_NAME>
1-[[5-(4-methylphenyl)-4-thieno[2,3-d]pyrimidinyl]amino]-2-propanol

> <PUBCHEM_IUPAC_NAME>
1-[[5-(4-methylphenyl)thieno[2,3-d]pyrimidin-4-yl]amino]propan-2-ol

> <PUBCHEM_IUPAC_SYSTEMATIC_NAME>
1-[[5-(4-methylphenyl)thieno[2,3-d]pyrimidin-4-yl]amino]propan-2-ol

> <PUBCHEM_IUPAC_TRADITIONAL_NAME>
1-[[5-(p-tolyl)thieno[2,3-d]pyrimidin-4-yl]amino]propan-2-ol

> <PUBCHEM_IUPAC_INCHI>
InChI=1S/C16H17N3OS/c1-10-3-5-12(6-4-10)13-8-21-16-14(13)15(18-9-19-16)17-7-11(2)20/h3-6,8-9,11,20H,7H2,1-2H3,(H,17,18,19)

> <PUBCHEM_IUPAC_INCHIKEY>
KFGJCXIJHBNDOD-UHFFFAOYSA-N

> <PUBCHEM_XLOGP3_AA>
3.6

> <PUBCHEM_EXACT_MASS>
299.109233

> <PUBCHEM_MOLECULAR_FORMULA>
C16H17N3OS

> <PUBCHEM_MOLECULAR_WEIGHT>
299.39068

> <PUBCHEM_OPENEYE_CAN_SMILES>
CC1=CC=C(C=C1)C2=CSC3=NC=NC(=C23)NCC(C)O

> <PUBCHEM_OPENEYE_ISO_SMILES>
CC1=CC=C(C=C1)C2=CSC3=NC=NC(=C23)NCC(C)O

> <PUBCHEM_CACTVS_TPSA>
86.3

> <PUBCHEM_MONOISOTOPIC_WEIGHT>
299.109233

> <PUBCHEM_TOTAL_CHARGE>
0

> <PUBCHEM_HEAVY_ATOM_COUNT>
21

> <PUBCHEM_ATOM_DEF_STEREO_COUNT>
0

> <PUBCHEM_ATOM_UDEF_STEREO_COUNT>
1

> <PUBCHEM_BOND_DEF_STEREO_COUNT>
0

> <PUBCHEM_BOND_UDEF_STEREO_COUNT>
0

> <PUBCHEM_ISOTOPIC_ATOM_COUNT>
0

> <PUBCHEM_COMPONENT_COUNT>
1

> <PUBCHEM_CACTVS_TAUTO_COUNT>
4

> <PUBCHEM_COORDINATE_TYPE>
1
5
255

> <PUBCHEM_BONDANNOTATIONS>
1  12  8
1  13  8
11  14  8
11  15  8
14  18  8
15  19  8
17  18  8
17  19  8
10  2  3
4  20  8
4  9  8
5  12  8
5  20  8
6  12  8
6  7  8
6  9  8
7  13  8

$$$$

