5729
  -OEChem-06261200503D

 26 26  0     1  0  0  0  0  0999 V2000
   -1.8004    1.7923    0.3770 F   0  0  0  0  0  0  0  0  0  0  0  0
   -2.5270    0.2651    1.7469 F   0  0  0  0  0  0  0  0  0  0  0  0
   -3.8280    1.0147    0.1669 F   0  0  0  0  0  0  0  0  0  0  0  0
   -2.8706   -1.5667   -0.2446 O   0  0  0  0  0  0  0  0  0  0  0  0
   -0.3460   -1.9546    0.2805 O   0  0  0  0  0  0  0  0  0  0  0  0
    0.3105    0.1962   -0.3670 N   0  0  0  0  0  0  0  0  0  0  0  0
   -2.0487   -0.4219   -0.4723 C   0  0  2  0  0  0  0  0  0  0  0  0
   -0.6016   -0.8281   -0.1400 C   0  0  0  0  0  0  0  0  0  0  0  0
   -2.5527    0.6734    0.4573 C   0  0  0  0  0  0  0  0  0  0  0  0
   -2.1927   -0.0216   -1.9407 C   0  0  0  0  0  0  0  0  0  0  0  0
    1.7117    0.1685   -0.1698 C   0  0  0  0  0  0  0  0  0  0  0  0
    2.4584    1.2994   -0.4553 C   0  0  0  0  0  0  0  0  0  0  0  0
    2.3065   -0.9887    0.3050 C   0  0  0  0  0  0  0  0  0  0  0  0
    3.8394    1.2726   -0.2607 C   0  0  0  0  0  0  0  0  0  0  0  0
    3.6874   -1.0156    0.4997 C   0  0  0  0  0  0  0  0  0  0  0  0
    4.4539    0.1151    0.2169 C   0  0  0  0  0  0  0  0  0  0  0  0
   -3.2490    0.0743   -2.2171 H   0  0  0  0  0  0  0  0  0  0  0  0
   -1.6923    0.9251   -2.1665 H   0  0  0  0  0  0  0  0  0  0  0  0
   -1.7668   -0.7905   -2.5960 H   0  0  0  0  0  0  0  0  0  0  0  0
   -0.0544    1.0837   -0.7043 H   0  0  0  0  0  0  0  0  0  0  0  0
   -2.6219   -2.2492   -0.8914 H   0  0  0  0  0  0  0  0  0  0  0  0
    1.9898    2.2061   -0.8276 H   0  0  0  0  0  0  0  0  0  0  0  0
    1.7859   -1.9031    0.5470 H   0  0  0  0  0  0  0  0  0  0  0  0
    4.4362    2.1528   -0.4809 H   0  0  0  0  0  0  0  0  0  0  0  0
    4.1676   -1.9163    0.8715 H   0  0  0  0  0  0  0  0  0  0  0  0
    5.5291    0.0941    0.3685 H   0  0  0  0  0  0  0  0  0  0  0  0
  1  9  1  0  0  0  0
  2  9  1  0  0  0  0
  3  9  1  0  0  0  0
  4  7  1  0  0  0  0
  4 21  1  0  0  0  0
  5  8  2  0  0  0  0
  6  8  1  0  0  0  0
  6 11  1  0  0  0  0
  6 20  1  0  0  0  0
  7  8  1  0  0  0  0
  7  9  1  0  0  0  0
  7 10  1  0  0  0  0
 10 17  1  0  0  0  0
 10 18  1  0  0  0  0
 10 19  1  0  0  0  0
 11 12  2  0  0  0  0
 11 13  1  0  0  0  0
 12 14  1  0  0  0  0
 12 22  1  0  0  0  0
 13 15  2  0  0  0  0
 13 23  1  0  0  0  0
 14 16  2  0  0  0  0
 14 24  1  0  0  0  0
 15 16  1  0  0  0  0
 15 25  1  0  0  0  0
 16 26  1  0  0  0  0
M  END
> <PUBCHEM_COMPOUND_CID>
5729

> <PUBCHEM_CONFORMER_RMSD>
0.6

> <PUBCHEM_CONFORMER_DIVERSEORDER>
2
16
4
7
13
18
11
9
3
17
15
12
8
14
10
5
6
1

> <PUBCHEM_MMFF94_PARTIAL_CHARGES>
22
1 -0.34
11 0.12
12 -0.15
13 -0.15
14 -0.15
15 -0.15
16 -0.15
2 -0.34
20 0.37
21 0.4
22 0.15
23 0.15
24 0.15
25 0.15
26 0.15
3 -0.34
4 -0.68
5 -0.57
6 -0.55
7 0.34
8 0.57
9 1.02

> <PUBCHEM_EFFECTIVE_ROTOR_COUNT>
4

> <PUBCHEM_PHARMACOPHORE_FEATURES>
5
1 4 acceptor
1 4 donor
1 5 acceptor
1 6 donor
6 11 12 13 14 15 16 rings

> <PUBCHEM_HEAVY_ATOM_COUNT>
16

> <PUBCHEM_ATOM_DEF_STEREO_COUNT>
0

> <PUBCHEM_ATOM_UDEF_STEREO_COUNT>
1

> <PUBCHEM_BOND_DEF_STEREO_COUNT>
0

> <PUBCHEM_BOND_UDEF_STEREO_COUNT>
0

> <PUBCHEM_ISOTOPIC_ATOM_COUNT>
0

> <PUBCHEM_COMPONENT_COUNT>
1

> <PUBCHEM_CACTVS_TAUTO_COUNT>
2

> <PUBCHEM_CONFORMER_ID>
0000166100000002

> <PUBCHEM_MMFF94_ENERGY>
36.9572

> <PUBCHEM_FEATURE_SELFOVERLAP>
25.383

> <PUBCHEM_SHAPE_FINGERPRINT>
10922523 26 17822848805273405022
11132069 177 18334016111849501832
12162725 195 18335423448072925350
12251169 10 18341893004560759588
12916754 54 18202006477791230958
12932764 1 17489314096239597686
13024252 1 13398637143265227839
13296908 3 16558756719532861158
14004511 7 18113333141623039402
14144814 61 18410577275576434810
14325111 11 18411982446941370190
15309172 13 18202002139916472834
15442244 35 18267024041201020210
15653759 3 16415480471460777164
15775835 57 18333447664016181865
17844478 74 17060338539335231404
18186145 218 18343023307020246254
19422 9 18410575067931849558
200 152 18337684009672954095
20112054 13 18130786793223146237
20279233 1 16272216279636141058
20645477 56 16153703232613516369
20645477 70 17987816210111954366
20715346 28 17275108336037875638
2306618 200 18202013130885483229
23402539 116 18040726822658625831
23557571 272 15792313500112093587
23559900 14 18113338622597401554
3248919 1 18261399940177103590
5104073 3 18412829058299896586
74978 22 18339362963970388924

> <PUBCHEM_SHAPE_MULTIPOLES>
290.73
7.6
1.57
1.08
3.55
0.12
0.16
-1.14
-0.59
0.03
-0.1
-1.02
-0.11
-0.61

> <PUBCHEM_SHAPE_SELFOVERLAP>
609.89

> <PUBCHEM_SHAPE_VOLUME>
164.3

> <PUBCHEM_COORDINATE_TYPE>
2
5
10

$$$$

