13839
  -OEChem-06241222402D

 40 39  0     0  0  0  0  0  0999 V2000
    7.1962    0.0000    0.0000 P   0  0  0  0  0  0  0  0  0  0  0  0
    8.0622    0.5000    0.0000 O   0  0  0  0  0  0  0  0  0  0  0  0
    6.3301   -0.5000    0.0000 O   0  0  0  0  0  0  0  0  0  0  0  0
    7.6962   -0.8660    0.0000 O   0  0  0  0  0  0  0  0  0  0  0  0
    9.7942    0.5000    0.0000 C   0  0  0  0  0  0  0  0  0  0  0  0
    4.5981   -0.5000    0.0000 C   0  0  0  0  0  0  0  0  0  0  0  0
   10.6603    0.0000    0.0000 C   0  0  0  0  0  0  0  0  0  0  0  0
    3.7320    0.0000    0.0000 C   0  0  0  0  0  0  0  0  0  0  0  0
    8.9282    0.0000    0.0000 C   0  0  0  0  0  0  0  0  0  0  0  0
    5.4641    0.0000    0.0000 C   0  0  0  0  0  0  0  0  0  0  0  0
   11.5263    0.5000    0.0000 C   0  0  0  0  0  0  0  0  0  0  0  0
    2.8660   -0.5000    0.0000 C   0  0  0  0  0  0  0  0  0  0  0  0
    6.6962    0.8660    0.0000 C   0  0  0  0  0  0  0  0  0  0  0  0
   12.3923    0.0000    0.0000 C   0  0  0  0  0  0  0  0  0  0  0  0
    2.0000    0.0000    0.0000 C   0  0  0  0  0  0  0  0  0  0  0  0
   10.1928    0.9749    0.0000 H   0  0  0  0  0  0  0  0  0  0  0  0
    9.3957    0.9749    0.0000 H   0  0  0  0  0  0  0  0  0  0  0  0
    4.1996   -0.9749    0.0000 H   0  0  0  0  0  0  0  0  0  0  0  0
    4.9966   -0.9749    0.0000 H   0  0  0  0  0  0  0  0  0  0  0  0
    4.1306    0.4749    0.0000 H   0  0  0  0  0  0  0  0  0  0  0  0
    3.3335    0.4749    0.0000 H   0  0  0  0  0  0  0  0  0  0  0  0
   10.2617   -0.4749    0.0000 H   0  0  0  0  0  0  0  0  0  0  0  0
   11.0588   -0.4749    0.0000 H   0  0  0  0  0  0  0  0  0  0  0  0
    5.8626    0.4749    0.0000 H   0  0  0  0  0  0  0  0  0  0  0  0
    5.0656    0.4749    0.0000 H   0  0  0  0  0  0  0  0  0  0  0  0
    8.5297   -0.4749    0.0000 H   0  0  0  0  0  0  0  0  0  0  0  0
    9.3267   -0.4749    0.0000 H   0  0  0  0  0  0  0  0  0  0  0  0
    2.4675   -0.9749    0.0000 H   0  0  0  0  0  0  0  0  0  0  0  0
    3.2646   -0.9749    0.0000 H   0  0  0  0  0  0  0  0  0  0  0  0
   11.9248    0.9749    0.0000 H   0  0  0  0  0  0  0  0  0  0  0  0
   11.1278    0.9749    0.0000 H   0  0  0  0  0  0  0  0  0  0  0  0
    7.2331    1.1760    0.0000 H   0  0  0  0  0  0  0  0  0  0  0  0
    6.3862    1.4030    0.0000 H   0  0  0  0  0  0  0  0  0  0  0  0
    6.1592    0.5560    0.0000 H   0  0  0  0  0  0  0  0  0  0  0  0
   12.0823   -0.5369    0.0000 H   0  0  0  0  0  0  0  0  0  0  0  0
   12.9292   -0.3100    0.0000 H   0  0  0  0  0  0  0  0  0  0  0  0
   12.7023    0.5369    0.0000 H   0  0  0  0  0  0  0  0  0  0  0  0
    2.3100    0.5369    0.0000 H   0  0  0  0  0  0  0  0  0  0  0  0
    1.4631    0.3100    0.0000 H   0  0  0  0  0  0  0  0  0  0  0  0
    1.6900   -0.5369    0.0000 H   0  0  0  0  0  0  0  0  0  0  0  0
  1  2  1  0  0  0  0
  1  3  1  0  0  0  0
  1  4  2  0  0  0  0
  1 13  1  0  0  0  0
  2  9  1  0  0  0  0
  3 10  1  0  0  0  0
  5  7  1  0  0  0  0
  5  9  1  0  0  0  0
  5 16  1  0  0  0  0
  5 17  1  0  0  0  0
  6  8  1  0  0  0  0
  6 10  1  0  0  0  0
  6 18  1  0  0  0  0
  6 19  1  0  0  0  0
  7 11  1  0  0  0  0
  7 22  1  0  0  0  0
  7 23  1  0  0  0  0
  8 12  1  0  0  0  0
  8 20  1  0  0  0  0
  8 21  1  0  0  0  0
  9 26  1  0  0  0  0
  9 27  1  0  0  0  0
 10 24  1  0  0  0  0
 10 25  1  0  0  0  0
 11 14  1  0  0  0  0
 11 30  1  0  0  0  0
 11 31  1  0  0  0  0
 12 15  1  0  0  0  0
 12 28  1  0  0  0  0
 12 29  1  0  0  0  0
 13 32  1  0  0  0  0
 13 33  1  0  0  0  0
 13 34  1  0  0  0  0
 14 35  1  0  0  0  0
 14 36  1  0  0  0  0
 14 37  1  0  0  0  0
 15 38  1  0  0  0  0
 15 39  1  0  0  0  0
 15 40  1  0  0  0  0
M  END
> <PUBCHEM_COMPOUND_CID>
13839

> <PUBCHEM_COMPOUND_CANONICALIZED>
1

> <PUBCHEM_CACTVS_COMPLEXITY>
167

> <PUBCHEM_CACTVS_HBOND_ACCEPTOR>
3

> <PUBCHEM_CACTVS_HBOND_DONOR>
0

> <PUBCHEM_CACTVS_ROTATABLE_BOND>
10

> <PUBCHEM_CACTVS_SUBSKEYS>
AAADceBwMAIAAAAAAAAAAAAAAAAAAAAAAAAAAAAAAAAAAAAAAAAAGggAACAACACggAICAAAAARAAQAAAAIAAAAAAAAAAAAAAAAAAAAIAAAAAAAAEAAAAAACAAAAAAAAAAAAAAAAAAAAAAAAAAAAAAAAAAA==

> <PUBCHEM_IUPAC_OPENEYE_NAME>
1-[methyl(pentoxy)phosphoryl]oxypentane

> <PUBCHEM_IUPAC_CAS_NAME>
1-[methyl(pentoxy)phosphoryl]oxypentane

> <PUBCHEM_IUPAC_NAME>
1-[methyl(pentoxy)phosphoryl]oxypentane

> <PUBCHEM_IUPAC_SYSTEMATIC_NAME>
1-[methyl(pentoxy)phosphoryl]oxypentane

> <PUBCHEM_IUPAC_TRADITIONAL_NAME>
1-[amoxy(methyl)phosphoryl]oxypentane

> <PUBCHEM_IUPAC_INCHI>
InChI=1S/C11H25O3P/c1-4-6-8-10-13-15(3,12)14-11-9-7-5-2/h4-11H2,1-3H3

> <PUBCHEM_IUPAC_INCHIKEY>
IYWHBXSPNUEWOS-UHFFFAOYSA-N

> <PUBCHEM_XLOGP3_AA>
3.1

> <PUBCHEM_EXACT_MASS>
236.154131

> <PUBCHEM_MOLECULAR_FORMULA>
C11H25O3P

> <PUBCHEM_MOLECULAR_WEIGHT>
236.288162

> <PUBCHEM_OPENEYE_CAN_SMILES>
CCCCCOP(=O)(C)OCCCCC

> <PUBCHEM_OPENEYE_ISO_SMILES>
CCCCCOP(=O)(C)OCCCCC

> <PUBCHEM_CACTVS_TPSA>
35.5

> <PUBCHEM_MONOISOTOPIC_WEIGHT>
236.154131

> <PUBCHEM_TOTAL_CHARGE>
0

> <PUBCHEM_HEAVY_ATOM_COUNT>
15

> <PUBCHEM_ATOM_DEF_STEREO_COUNT>
0

> <PUBCHEM_ATOM_UDEF_STEREO_COUNT>
0

> <PUBCHEM_BOND_DEF_STEREO_COUNT>
0

> <PUBCHEM_BOND_UDEF_STEREO_COUNT>
0

> <PUBCHEM_ISOTOPIC_ATOM_COUNT>
0

> <PUBCHEM_COMPONENT_COUNT>
1

> <PUBCHEM_CACTVS_TAUTO_COUNT>
1

> <PUBCHEM_COORDINATE_TYPE>
1
5
255

$$$$

