7556
  -OEChem-06261202093D

 13 13  0     0  0  0  0  0  0999 V2000
   -2.5236   -2.1165   -0.0003 Cl  0  0  0  0  0  0  0  0  0  0  0  0
   -0.5046    2.9789   -0.0002 Cl  0  0  0  0  0  0  0  0  0  0  0  0
    3.5386    0.2557   -0.0001 Cl  0  0  0  0  0  0  0  0  0  0  0  0
   -2.5587    0.8450   -0.0003 O   0  0  0  0  0  0  0  0  0  0  0  0
    2.4811   -1.1228   -0.0002 N   0  0  0  0  0  0  0  0  0  0  0  0
    1.2678   -0.6700    0.0001 C   0  0  0  0  0  0  0  0  0  0  0  0
    0.0846   -1.5619    0.0002 C   0  0  0  0  0  0  0  0  0  0  0  0
    1.0155    0.7880    0.0001 C   0  0  0  0  0  0  0  0  0  0  0  0
   -1.1558   -1.0673    0.0002 C   0  0  0  0  0  0  0  0  0  0  0  0
   -0.2268    1.2777    0.0002 C   0  0  0  0  0  0  0  0  0  0  0  0
   -1.4182    0.3932    0.0004 C   0  0  0  0  0  0  0  0  0  0  0  0
    0.2754   -2.6304   -0.0001 H   0  0  0  0  0  0  0  0  0  0  0  0
    1.7534    1.5781   -0.0002 H   0  0  0  0  0  0  0  0  0  0  0  0
  1  9  1  0  0  0  0
  2 10  1  0  0  0  0
  3  5  1  0  0  0  0
  4 11  2  0  0  0  0
  5  6  2  0  0  0  0
  6  7  1  0  0  0  0
  6  8  1  0  0  0  0
  7  9  2  0  0  0  0
  7 12  1  0  0  0  0
  8 10  2  0  0  0  0
  8 13  1  0  0  0  0
  9 11  1  0  0  0  0
 10 11  1  0  0  0  0
M  END
> <PUBCHEM_COMPOUND_CID>
7556

> <PUBCHEM_CONFORMER_RMSD>
0.4

> <PUBCHEM_CONFORMER_DIVERSEORDER>
1

> <PUBCHEM_MMFF94_PARTIAL_CHARGES>
12
1 -0.14
10 0.15
11 0.54
12 0.15
13 0.15
2 -0.14
4 -0.57
5 -0.45
6 0.42
7 -0.14
8 -0.14
9 0.15

> <PUBCHEM_EFFECTIVE_ROTOR_COUNT>
0

> <PUBCHEM_PHARMACOPHORE_FEATURES>
3
1 4 acceptor
1 5 acceptor
6 6 7 8 9 10 11 rings

> <PUBCHEM_HEAVY_ATOM_COUNT>
11

> <PUBCHEM_ATOM_DEF_STEREO_COUNT>
0

> <PUBCHEM_ATOM_UDEF_STEREO_COUNT>
0

> <PUBCHEM_BOND_DEF_STEREO_COUNT>
0

> <PUBCHEM_BOND_UDEF_STEREO_COUNT>
0

> <PUBCHEM_ISOTOPIC_ATOM_COUNT>
0

> <PUBCHEM_COMPONENT_COUNT>
1

> <PUBCHEM_CACTVS_TAUTO_COUNT>
1

> <PUBCHEM_CONFORMER_ID>
00001D8400000001

> <PUBCHEM_MMFF94_ENERGY>
41.8866

> <PUBCHEM_FEATURE_SELFOVERLAP>
15.223

> <PUBCHEM_SHAPE_FINGERPRINT>
12423570 1 17173792917984205759
16945 1 18266740366641897670
193761 8 17906452130269741701
20871998 184 18259702289538577086
21040471 1 17906171003169564258
22802520 49 18042668680404993566
2334 1 18266741285690981024
23552423 10 18272931583616453446
241688 4 18410858732967133737
2748010 2 18336834082488477165
528886 8 18409736178792354691
6333449 129 18335706035393463502
7364860 26 17831578673915443649

> <PUBCHEM_SHAPE_MULTIPOLES>
221.13
4.01
2.69
0.61
1.98
1.83
0
-1.8
0
-0.99
0
0.01
0
0

> <PUBCHEM_SHAPE_SELFOVERLAP>
434.004

> <PUBCHEM_SHAPE_VOLUME>
135.5

> <PUBCHEM_COORDINATE_TYPE>
2
5
10

$$$$

