4710
  -OEChem-06261200183D

 46 46  0     1  0  0  0  0  0999 V2000
   -1.4520   -1.8541    1.2733 O   0  0  0  0  0  0  0  0  0  0  0  0
   -1.9088    0.2325   -1.6740 O   0  0  0  0  0  0  0  0  0  0  0  0
    0.8645   -2.6404   -0.0441 N   0  0  0  0  0  0  0  0  0  0  0  0
    2.4652   -0.1607    0.3525 C   0  0  0  0  0  0  0  0  0  0  0  0
    0.9516   -0.2446    0.5409 C   0  0  0  0  0  0  0  0  0  0  0  0
    2.8118    0.1954   -1.0995 C   0  0  0  0  0  0  0  0  0  0  0  0
    3.0769    0.8564    1.3254 C   0  0  0  0  0  0  0  0  0  0  0  0
    0.2721   -1.3228   -0.3225 C   0  0  2  0  0  0  0  0  0  0  0  0
    4.3187    0.3375   -1.3008 C   0  0  0  0  0  0  0  0  0  0  0  0
    4.5834    0.9976    1.1200 C   0  0  0  0  0  0  0  0  0  0  0  0
    4.9244    1.3428   -0.3262 C   0  0  0  0  0  0  0  0  0  0  0  0
   -1.2527   -1.4222   -0.0801 C   0  0  2  0  0  0  0  0  0  0  0  0
   -2.0519   -0.1189   -0.2945 C   0  0  2  0  0  0  0  0  0  0  0  0
   -3.5460   -0.2473    0.0506 C   0  0  0  0  0  0  0  0  0  0  0  0
   -4.3923    1.0146   -0.2241 C   0  0  0  0  0  0  0  0  0  0  0  0
   -3.8049    2.2052    0.5400 C   0  0  0  0  0  0  0  0  0  0  0  0
   -5.8600    0.8292    0.1631 C   0  0  0  0  0  0  0  0  0  0  0  0
    2.9202   -1.1305    0.5898 H   0  0  0  0  0  0  0  0  0  0  0  0
    0.5212    0.7372    0.3123 H   0  0  0  0  0  0  0  0  0  0  0  0
    0.7463   -0.4342    1.6020 H   0  0  0  0  0  0  0  0  0  0  0  0
    2.3183    1.1331   -1.3850 H   0  0  0  0  0  0  0  0  0  0  0  0
    2.4595   -0.5766   -1.7908 H   0  0  0  0  0  0  0  0  0  0  0  0
    2.8819    0.5503    2.3602 H   0  0  0  0  0  0  0  0  0  0  0  0
    2.6017    1.8364    1.1892 H   0  0  0  0  0  0  0  0  0  0  0  0
    0.4203   -1.1021   -1.3842 H   0  0  0  0  0  0  0  0  0  0  0  0
    4.5251    0.6526   -2.3299 H   0  0  0  0  0  0  0  0  0  0  0  0
    4.7991   -0.6392   -1.1633 H   0  0  0  0  0  0  0  0  0  0  0  0
    5.0791    0.0594    1.3983 H   0  0  0  0  0  0  0  0  0  0  0  0
    4.9745    1.7748    1.7863 H   0  0  0  0  0  0  0  0  0  0  0  0
    6.0125    1.3695   -0.4524 H   0  0  0  0  0  0  0  0  0  0  0  0
    4.5505    2.3474   -0.5593 H   0  0  0  0  0  0  0  0  0  0  0  0
   -1.6638   -2.2019   -0.7345 H   0  0  0  0  0  0  0  0  0  0  0  0
   -1.6285    0.6806    0.3188 H   0  0  0  0  0  0  0  0  0  0  0  0
   -3.9726   -1.0671   -0.5424 H   0  0  0  0  0  0  0  0  0  0  0  0
   -3.6562   -0.5295    1.1050 H   0  0  0  0  0  0  0  0  0  0  0  0
    1.8224   -2.6689   -0.3901 H   0  0  0  0  0  0  0  0  0  0  0  0
    0.3624   -3.3577   -0.5665 H   0  0  0  0  0  0  0  0  0  0  0  0
   -4.3565    1.2418   -1.2967 H   0  0  0  0  0  0  0  0  0  0  0  0
   -1.2967   -1.0963    1.8615 H   0  0  0  0  0  0  0  0  0  0  0  0
   -1.0008    0.5537   -1.8040 H   0  0  0  0  0  0  0  0  0  0  0  0
   -3.6884    1.9800    1.6056 H   0  0  0  0  0  0  0  0  0  0  0  0
   -2.8317    2.5032    0.1387 H   0  0  0  0  0  0  0  0  0  0  0  0
   -4.4596    3.0797    0.4529 H   0  0  0  0  0  0  0  0  0  0  0  0
   -6.2994   -0.0106   -0.3852 H   0  0  0  0  0  0  0  0  0  0  0  0
   -6.4434    1.7254   -0.0724 H   0  0  0  0  0  0  0  0  0  0  0  0
   -5.9650    0.6261    1.2342 H   0  0  0  0  0  0  0  0  0  0  0  0
  1 12  1  0  0  0  0
  1 39  1  0  0  0  0
  2 13  1  0  0  0  0
  2 40  1  0  0  0  0
  3  8  1  0  0  0  0
  3 36  1  0  0  0  0
  3 37  1  0  0  0  0
  4  5  1  0  0  0  0
  4  6  1  0  0  0  0
  4  7  1  0  0  0  0
  4 18  1  0  0  0  0
  5  8  1  0  0  0  0
  5 19  1  0  0  0  0
  5 20  1  0  0  0  0
  6  9  1  0  0  0  0
  6 21  1  0  0  0  0
  6 22  1  0  0  0  0
  7 10  1  0  0  0  0
  7 23  1  0  0  0  0
  7 24  1  0  0  0  0
  8 12  1  0  0  0  0
  8 25  1  0  0  0  0
  9 11  1  0  0  0  0
  9 26  1  0  0  0  0
  9 27  1  0  0  0  0
 10 11  1  0  0  0  0
 10 28  1  0  0  0  0
 10 29  1  0  0  0  0
 11 30  1  0  0  0  0
 11 31  1  0  0  0  0
 12 13  1  0  0  0  0
 12 32  1  0  0  0  0
 13 14  1  0  0  0  0
 13 33  1  0  0  0  0
 14 15  1  0  0  0  0
 14 34  1  0  0  0  0
 14 35  1  0  0  0  0
 15 16  1  0  0  0  0
 15 17  1  0  0  0  0
 15 38  1  0  0  0  0
 16 41  1  0  0  0  0
 16 42  1  0  0  0  0
 16 43  1  0  0  0  0
 17 44  1  0  0  0  0
 17 45  1  0  0  0  0
 17 46  1  0  0  0  0
M  END
> <PUBCHEM_COMPOUND_CID>
4710

> <PUBCHEM_CONFORMER_RMSD>
0.8

> <PUBCHEM_CONFORMER_DIVERSEORDER>
1
79
21
38
59
28
60
16
22
19
54
46
73
47
71
20
78
41
23
12
77
64
26
48
15
58
7
44
40
4
62
50
61
2
56
13
42
31
37
24
81
49
33
32
39
66
30
68
35
8
75
74
36
57
80
17
14
70
34
18
5
76
10
65
69
82
52
67
11
51
45
25
55
43
63
29
3
27
6
9
72
53

> <PUBCHEM_MMFF94_PARTIAL_CHARGES>
10
1 -0.68
12 0.28
13 0.28
2 -0.68
3 -0.99
36 0.36
37 0.36
39 0.4
40 0.4
8 0.27

> <PUBCHEM_EFFECTIVE_ROTOR_COUNT>
7.2

> <PUBCHEM_PHARMACOPHORE_FEATURES>
8
1 1 acceptor
1 1 donor
1 2 acceptor
1 2 donor
1 3 cation
1 3 donor
3 15 16 17 hydrophobe
6 4 6 7 9 10 11 rings

> <PUBCHEM_HEAVY_ATOM_COUNT>
17

> <PUBCHEM_ATOM_DEF_STEREO_COUNT>
0

> <PUBCHEM_ATOM_UDEF_STEREO_COUNT>
3

> <PUBCHEM_BOND_DEF_STEREO_COUNT>
0

> <PUBCHEM_BOND_UDEF_STEREO_COUNT>
0

> <PUBCHEM_ISOTOPIC_ATOM_COUNT>
0

> <PUBCHEM_COMPONENT_COUNT>
1

> <PUBCHEM_CACTVS_TAUTO_COUNT>
1

> <PUBCHEM_CONFORMER_ID>
0000126600000001

> <PUBCHEM_MMFF94_ENERGY>
22.7401

> <PUBCHEM_FEATURE_SELFOVERLAP>
40.599

> <PUBCHEM_SHAPE_FINGERPRINT>
100836 57 18410291406384197089
10354089 29 16988560195607730564
10498660 4 18261675981909876289
10670039 82 18340758360090687420
12363563 72 8790885215516459838
12596602 18 16773793680197161049
12633257 1 17060619975430493216
12730499 353 18114453522486896407
12788726 201 17412449244013053146
12892183 10 15051463737858319484
12916748 109 18334855022004754561
14123255 352 18411703183751751009
14123255 52 18334017198275611707
1420 369 10159696902058387961
14251764 30 13685748306974592240
14252887 29 11959733776464657500
14341114 176 15339120152077110540
14341114 328 16702017565151004376
15422964 175 11527680699288440802
15880784 105 15123502601845102361
1741750 31 18412827962703771506
17834072 32 18339923697652542428
1798214 55 18411702092803495692
18186145 218 17603863377815843098
18222031 100 10519984889538316002
18785283 64 18058453269402242274
200 152 4823220515329765154
20374829 77 7997969068436217393
204376 136 17989488537243248931
20621476 51 12606245466999732977
20645477 56 18260829263313603555
20645477 70 16298375873490830492
20671657 53 7709453926999278107
212847 35 18409451405702766904
21354914 88 10231752293025655709
221357 26 17023186050170834465
22713019 99 7204768194588030525
23253445 4 14189287145261856429
23402539 116 18113910325393667084
23402655 69 17022618663542192832
23500284 214 18412827975567373035
23557571 272 18115867395455294070
2916195 48 18114471050258721216
29717793 49 5039681374144137936
351380 3 7565343137096540565
4028521 119 17822008717996660145
465052 167 9222939409511190353
474 4 18343016705412763205
495365 180 17530689810068092046
5104073 3 18198617934180127569
5352402 22 13614248100438107144
56616090 163 18410002247706018022
633830 44 18187372012632969988
8863177 126 6626594459372827293
960060 61 6050436033241443184

> <PUBCHEM_SHAPE_MULTIPOLES>
333.13
11.69
1.96
1.23
3.95
0.59
-0.11
-7.82
-0.36
0.75
0.41
-0.94
-0.08
0.27

> <PUBCHEM_SHAPE_SELFOVERLAP>
639.575

> <PUBCHEM_SHAPE_VOLUME>
202.7

> <PUBCHEM_COORDINATE_TYPE>
2
5
10

$$$$

