5517
  -OEChem-06261200433D

 44 47  0     1  0  0  0  0  0999 V2000
   -2.2657    3.7044    0.0342 F   0  0  0  0  0  0  0  0  0  0  0  0
    0.9566   -1.9586   -2.2309 F   0  0  0  0  0  0  0  0  0  0  0  0
   -0.1227   -5.8380    0.2537 F   0  0  0  0  0  0  0  0  0  0  0  0
    2.7666    3.3860    0.1069 O   0  0  0  0  0  0  0  0  0  0  0  0
    5.0835    2.3531   -0.5800 O   0  0  0  0  0  0  0  0  0  0  0  0
    5.5117    0.4147    0.5555 O   0  0  0  0  0  0  0  0  0  0  0  0
   -3.1064    1.1142    0.0058 N   0  0  3  0  0  0  0  0  0  0  0  0
   -6.0272   -1.0510    0.0882 N   0  0  0  0  0  0  0  0  0  0  0  0
   -0.8905    0.3434    0.0555 N   0  0  0  0  0  0  0  0  0  0  0  0
    1.4020   -0.4784    0.1052 N   0  0  0  0  0  0  0  0  0  0  0  0
   -5.1447    0.0053   -0.3762 C   0  0  1  0  0  0  0  0  0  0  0  0
   -5.4331    1.3611    0.2600 C   0  0  0  0  0  0  0  0  0  0  0  0
   -3.6763   -0.2333   -0.0064 C   0  0  0  0  0  0  0  0  0  0  0  0
   -4.1475    2.1407   -0.0162 C   0  0  0  0  0  0  0  0  0  0  0  0
   -1.7551    1.3836    0.0392 C   0  0  0  0  0  0  0  0  0  0  0  0
   -1.3710    2.7086    0.0527 C   0  0  0  0  0  0  0  0  0  0  0  0
    0.4448    0.6004    0.0981 C   0  0  0  0  0  0  0  0  0  0  0  0
    0.9048    1.9282    0.0964 C   0  0  0  0  0  0  0  0  0  0  0  0
   -0.0127    2.9830    0.0788 C   0  0  0  0  0  0  0  0  0  0  0  0
    2.3543    2.2330    0.0942 C   0  0  0  0  0  0  0  0  0  0  0  0
    2.7547   -0.1500    0.0777 C   0  0  0  0  0  0  0  0  0  0  0  0
    3.2812    1.0801    0.0719 C   0  0  0  0  0  0  0  0  0  0  0  0
    1.0087   -1.8590    0.1414 C   0  0  0  0  0  0  0  0  0  0  0  0
    0.7954   -2.5667   -1.0471 C   0  0  0  0  0  0  0  0  0  0  0  0
    0.8361   -2.5102    1.3681 C   0  0  0  0  0  0  0  0  0  0  0  0
    4.7387    1.2155    0.0595 C   0  0  0  0  0  0  0  0  0  0  0  0
    0.4143   -3.9081   -1.0091 C   0  0  0  0  0  0  0  0  0  0  0  0
    0.4551   -3.8514    1.4059 C   0  0  0  0  0  0  0  0  0  0  0  0
    0.2442   -4.5503    0.2173 C   0  0  0  0  0  0  0  0  0  0  0  0
   -5.2363    0.0945   -1.4663 H   0  0  0  0  0  0  0  0  0  0  0  0
   -5.5818    1.2616    1.3432 H   0  0  0  0  0  0  0  0  0  0  0  0
   -6.3162    1.8523   -0.1597 H   0  0  0  0  0  0  0  0  0  0  0  0
   -3.5698   -0.6829    0.9882 H   0  0  0  0  0  0  0  0  0  0  0  0
   -3.1928   -0.8843   -0.7436 H   0  0  0  0  0  0  0  0  0  0  0  0
   -4.1937    2.6280   -0.9966 H   0  0  0  0  0  0  0  0  0  0  0  0
   -4.0478    2.8836    0.7819 H   0  0  0  0  0  0  0  0  0  0  0  0
   -5.9681   -1.1336    1.1025 H   0  0  0  0  0  0  0  0  0  0  0  0
   -5.7133   -1.9464   -0.2845 H   0  0  0  0  0  0  0  0  0  0  0  0
    0.3147    4.0187    0.0795 H   0  0  0  0  0  0  0  0  0  0  0  0
    3.3943   -1.0291    0.0654 H   0  0  0  0  0  0  0  0  0  0  0  0
    0.9968   -1.9766    2.3016 H   0  0  0  0  0  0  0  0  0  0  0  0
    0.2499   -4.4521   -1.9344 H   0  0  0  0  0  0  0  0  0  0  0  0
    0.3222   -4.3518    2.3605 H   0  0  0  0  0  0  0  0  0  0  0  0
    6.0559    2.4796   -0.6088 H   0  0  0  0  0  0  0  0  0  0  0  0
  1 16  1  0  0  0  0
  2 24  1  0  0  0  0
  3 29  1  0  0  0  0
  4 20  2  0  0  0  0
  5 26  1  0  0  0  0
  5 44  1  0  0  0  0
  6 26  2  0  0  0  0
  7 13  1  0  0  0  0
  7 14  1  0  0  0  0
  7 15  1  0  0  0  0
  8 11  1  0  0  0  0
  8 37  1  0  0  0  0
  8 38  1  0  0  0  0
  9 15  1  0  0  0  0
  9 17  2  0  0  0  0
 10 17  1  0  0  0  0
 10 21  1  0  0  0  0
 10 23  1  0  0  0  0
 11 12  1  0  0  0  0
 11 13  1  0  0  0  0
 11 30  1  0  0  0  0
 12 14  1  0  0  0  0
 12 31  1  0  0  0  0
 12 32  1  0  0  0  0
 13 33  1  0  0  0  0
 13 34  1  0  0  0  0
 14 35  1  0  0  0  0
 14 36  1  0  0  0  0
 15 16  2  0  0  0  0
 16 19  1  0  0  0  0
 17 18  1  0  0  0  0
 18 19  2  0  0  0  0
 18 20  1  0  0  0  0
 19 39  1  0  0  0  0
 20 22  1  0  0  0  0
 21 22  2  0  0  0  0
 21 40  1  0  0  0  0
 22 26  1  0  0  0  0
 23 24  2  0  0  0  0
 23 25  1  0  0  0  0
 24 27  1  0  0  0  0
 25 28  2  0  0  0  0
 25 41  1  0  0  0  0
 27 29  2  0  0  0  0
 27 42  1  0  0  0  0
 28 29  1  0  0  0  0
 28 43  1  0  0  0  0
M  END
> <PUBCHEM_COMPOUND_CID>
5517

> <PUBCHEM_CONFORMER_RMSD>
0.8

> <PUBCHEM_CONFORMER_DIVERSEORDER>
1
8
9
5
4
7
6
2
3

> <PUBCHEM_MMFF94_PARTIAL_CHARGES>
36
1 -0.19
10 -0.3
11 0.27
13 0.37
14 0.37
15 0.41
16 0.19
17 0.41
18 0.09
19 -0.15
2 -0.19
20 0.47
21 -0.05
22 0.03
23 0.1
24 0.19
25 -0.15
26 0.71
27 -0.15
28 -0.15
29 0.19
3 -0.19
37 0.36
38 0.36
39 0.15
4 -0.57
40 0.15
41 0.15
42 0.15
43 0.15
44 0.5
5 -0.65
6 -0.57
7 -0.84
8 -0.99
9 -0.62

> <PUBCHEM_EFFECTIVE_ROTOR_COUNT>
4

> <PUBCHEM_PHARMACOPHORE_FEATURES>
13
1 22 anion
1 4 acceptor
1 5 acceptor
1 6 acceptor
1 7 cation
1 8 cation
1 8 donor
3 5 6 26 anion
3 9 10 17 cation
5 7 11 12 13 14 rings
6 10 17 18 20 21 22 rings
6 23 24 25 27 28 29 rings
6 9 15 16 17 18 19 rings

> <PUBCHEM_HEAVY_ATOM_COUNT>
29

> <PUBCHEM_ATOM_DEF_STEREO_COUNT>
0

> <PUBCHEM_ATOM_UDEF_STEREO_COUNT>
1

> <PUBCHEM_BOND_DEF_STEREO_COUNT>
0

> <PUBCHEM_BOND_UDEF_STEREO_COUNT>
0

> <PUBCHEM_ISOTOPIC_ATOM_COUNT>
0

> <PUBCHEM_COMPONENT_COUNT>
1

> <PUBCHEM_CACTVS_TAUTO_COUNT>
1

> <PUBCHEM_CONFORMER_ID>
0000158D00000001

> <PUBCHEM_MMFF94_ENERGY>
95.1499

> <PUBCHEM_FEATURE_SELFOVERLAP>
66.391

> <PUBCHEM_SHAPE_FINGERPRINT>
10074138 170 18048627848975853442
10090160 65 18412267246196680197
10906281 52 18271225193252690841
1100329 8 18267028245657693264
11135926 11 18340212994017874429
11421498 54 17531518875883619697
11488393 25 17824242998792193894
11719270 70 18411429431194661081
11991303 11 18057882446641437726
12156800 1 17622976046596868127
12553582 1 17184182289222621839
12788726 201 17405439801540077234
12839892 36 18267884937046039104
12969540 37 17908984648987989078
13140716 1 18337959999886847777
13257819 37 18269254838624654596
13692114 37 18117291250038976979
138480 1 17906453586227004691
14790565 3 18410853231046215469
14863182 85 18340757217344088645
14866123 147 18266748995732894650
15131766 46 15552460442731904460
15927050 60 18411420575616265986
16728300 4 17413903095174787330
16993438 75 18056756525719207851
17138139 8 17607833628868627095
18681886 176 18342462495866385440
19591789 44 18338238146126526337
20028762 73 18333735684639083391
20567600 347 18341608252360744594
21133410 32 16191358302073735963
21133410 62 18055378863715028423
21133410 90 16593912289793248443
21197605 99 18121210988171400227
21344244 181 18040979744766820358
21421861 104 18195523925133097441
21796203 349 17039467824428943595
22956985 138 17982739872195356290
23184049 29 17546449341545030395
23366157 5 17910384318895385412
23559900 14 17833277793269151241
283562 15 18334852848562107096
3178227 256 18340198605497741993
3383291 50 18410579526704463426
38695281 34 18410295804615162131
3882209 13 17477527486684045363
4280585 95 17544193143917573014
5486654 2 18339075991209231828
6669772 16 18334855052592083798
9709674 26 18122625226406774545

> <PUBCHEM_SHAPE_MULTIPOLES>
537.45
9.33
6.37
0.97
7.99
8.36
-0.18
-6.74
0.08
-2.55
0.35
-0.36
0.94
-0.16

> <PUBCHEM_SHAPE_SELFOVERLAP>
1191.754

> <PUBCHEM_SHAPE_VOLUME>
287.6

> <PUBCHEM_COORDINATE_TYPE>
2
5
10

$$$$

