51090852
  -OEChem-06241223003D

 38 40  0     1  0  0  0  0  0999 V2000
    4.8559   -2.6174   -0.3504 S   0  0  0  0  0  0  0  0  0  0  0  0
    0.4230    1.8031   -1.2013 O   0  0  0  0  0  0  0  0  0  0  0  0
    1.7158    1.0106    0.5530 N   0  0  0  0  0  0  0  0  0  0  0  0
   -4.1329   -0.1658   -0.0961 N   0  0  0  0  0  0  0  0  0  0  0  0
   -2.5697   -1.6242    0.8670 N   0  0  0  0  0  0  0  0  0  0  0  0
   -6.3403   -0.3740   -0.2229 N   0  0  0  0  0  0  0  0  0  0  0  0
    2.8550    1.8701    0.3236 C   0  0  2  0  0  0  0  0  0  0  0  0
    4.1627    1.1959    0.7672 C   0  0  0  0  0  0  0  0  0  0  0  0
    4.4108   -0.1231    0.0745 C   0  0  0  0  0  0  0  0  0  0  0  0
    2.6551    3.1933    1.0560 C   0  0  0  0  0  0  0  0  0  0  0  0
    0.5815    1.0528   -0.2418 C   0  0  0  0  0  0  0  0  0  0  0  0
   -0.5125    0.1237    0.1413 C   0  0  0  0  0  0  0  0  0  0  0  0
    4.4727   -0.2780   -1.3405 C   0  0  0  0  0  0  0  0  0  0  0  0
    4.6023   -1.3170    0.7345 C   0  0  0  0  0  0  0  0  0  0  0  0
   -1.8322    0.4311   -0.1707 C   0  0  0  0  0  0  0  0  0  0  0  0
   -2.8152   -0.4678    0.2109 C   0  0  0  0  0  0  0  0  0  0  0  0
    4.7095   -1.5843   -1.7081 C   0  0  0  0  0  0  0  0  0  0  0  0
   -0.2202   -1.0567    0.8158 C   0  0  0  0  0  0  0  0  0  0  0  0
   -1.2752   -1.8891    1.1532 C   0  0  0  0  0  0  0  0  0  0  0  0
   -4.5770    0.9491   -0.7495 C   0  0  0  0  0  0  0  0  0  0  0  0
   -5.2269   -0.9304    0.2002 C   0  0  0  0  0  0  0  0  0  0  0  0
   -5.9421    0.7979   -0.8159 C   0  0  0  0  0  0  0  0  0  0  0  0
    2.9046    2.0881   -0.7505 H   0  0  0  0  0  0  0  0  0  0  0  0
    4.1456    1.0357    1.8536 H   0  0  0  0  0  0  0  0  0  0  0  0
    5.0114    1.8603    0.5603 H   0  0  0  0  0  0  0  0  0  0  0  0
    1.7303    0.4440    1.3947 H   0  0  0  0  0  0  0  0  0  0  0  0
    3.4975    3.8698    0.8778 H   0  0  0  0  0  0  0  0  0  0  0  0
    1.7426    3.6964    0.7178 H   0  0  0  0  0  0  0  0  0  0  0  0
    2.5633    3.0391    2.1371 H   0  0  0  0  0  0  0  0  0  0  0  0
    4.3544    0.5227   -2.0594 H   0  0  0  0  0  0  0  0  0  0  0  0
    4.6056   -1.4938    1.8011 H   0  0  0  0  0  0  0  0  0  0  0  0
   -2.0311    1.3596   -0.6904 H   0  0  0  0  0  0  0  0  0  0  0  0
    4.8042   -1.9811   -2.7090 H   0  0  0  0  0  0  0  0  0  0  0  0
    0.7890   -1.3667    1.0619 H   0  0  0  0  0  0  0  0  0  0  0  0
   -1.1003   -2.8251    1.6734 H   0  0  0  0  0  0  0  0  0  0  0  0
   -3.9576    1.7529   -1.1189 H   0  0  0  0  0  0  0  0  0  0  0  0
   -5.1702   -1.8777    0.7206 H   0  0  0  0  0  0  0  0  0  0  0  0
   -6.6584    1.4733   -1.2604 H   0  0  0  0  0  0  0  0  0  0  0  0
  1 14  1  0  0  0  0
  1 17  1  0  0  0  0
  2 11  2  0  0  0  0
  3  7  1  0  0  0  0
  3 11  1  0  0  0  0
  3 26  1  0  0  0  0
  4 16  1  0  0  0  0
  4 20  1  0  0  0  0
  4 21  1  0  0  0  0
  5 16  2  0  0  0  0
  5 19  1  0  0  0  0
  6 21  2  0  0  0  0
  6 22  1  0  0  0  0
  7  8  1  0  0  0  0
  7 10  1  0  0  0  0
  7 23  1  0  0  0  0
  8  9  1  0  0  0  0
  8 24  1  0  0  0  0
  8 25  1  0  0  0  0
  9 13  1  0  0  0  0
  9 14  2  0  0  0  0
 10 27  1  0  0  0  0
 10 28  1  0  0  0  0
 10 29  1  0  0  0  0
 11 12  1  0  0  0  0
 12 15  2  0  0  0  0
 12 18  1  0  0  0  0
 13 17  2  0  0  0  0
 13 30  1  0  0  0  0
 14 31  1  0  0  0  0
 15 16  1  0  0  0  0
 15 32  1  0  0  0  0
 17 33  1  0  0  0  0
 18 19  2  0  0  0  0
 18 34  1  0  0  0  0
 19 35  1  0  0  0  0
 20 22  2  0  0  0  0
 20 36  1  0  0  0  0
 21 37  1  0  0  0  0
 22 38  1  0  0  0  0
M  END
> <PUBCHEM_COMPOUND_CID>
51090852

> <PUBCHEM_CONFORMER_RMSD>
0.8

> <PUBCHEM_CONFORMER_DIVERSEORDER>
1
157
62
223
175
129
89
201
189
108
120
145
130
190
215
73
17
46
211
125
74
27
10
123
103
70
119
138
139
187
79
141
212
18
146
84
109
54
127
158
159
214
112
3
188
80
217
135
76
68
176
101
126
81
48
191
224
192
37
137
169
124
98
186
21
102
198
162
209
105
116
107
208
106
220
154
43
19
161
15
30
131
87
132
40
52
166
221
111
82
92
20
222
49
104
41
147
219
167
206
42
53
113
91
210
31
144
216
194
168
218
23
148
45
174
136
185
213
164
24
163
69
96
25
44
149
114
172
8
29
143
71
181
200
173
128
133
177
72
78
180
165
225
75
160
193
153
63
88
205
151
152
110
182
203
39
59
9
22
202
155
171
183
121
47
156
11
178
64
86
57
115
93
170
7
4
65
66
16
134
204
77
58
99
94
36
6
32
60
184
35
5
142
199
118
38
97
90
28
150
179
26
33
2
51
67
122
207
55
117
196
85
195
14
100
197
50
140
56
12
83
61
34
13
95

> <PUBCHEM_MMFF94_PARTIAL_CHARGES>
31
1 -0.08
11 0.54
12 0.09
13 -0.15
14 -0.11
15 -0.15
16 0.29
17 -0.11
18 -0.15
19 0.16
2 -0.57
20 -0.3
21 0.04
22 0.08
26 0.37
3 -0.73
30 0.15
31 0.15
32 0.15
33 0.15
34 0.15
35 0.15
36 0.15
37 0.15
38 0.15
4 0.33
5 -0.62
6 -0.57
7 0.3
8 0.18
9 -0.18

> <PUBCHEM_EFFECTIVE_ROTOR_COUNT>
6

> <PUBCHEM_PHARMACOPHORE_FEATURES>
7
1 2 acceptor
1 3 donor
3 4 5 16 cation
3 4 6 21 cation
5 1 9 13 14 17 rings
5 4 6 20 21 22 rings
6 5 12 15 16 18 19 rings

> <PUBCHEM_HEAVY_ATOM_COUNT>
22

> <PUBCHEM_ATOM_DEF_STEREO_COUNT>
0

> <PUBCHEM_ATOM_UDEF_STEREO_COUNT>
1

> <PUBCHEM_BOND_DEF_STEREO_COUNT>
0

> <PUBCHEM_BOND_UDEF_STEREO_COUNT>
0

> <PUBCHEM_ISOTOPIC_ATOM_COUNT>
0

> <PUBCHEM_COMPONENT_COUNT>
1

> <PUBCHEM_CACTVS_TAUTO_COUNT>
2

> <PUBCHEM_CONFORMER_ID>
030B95A400000001

> <PUBCHEM_MMFF94_ENERGY>
43.0866

> <PUBCHEM_FEATURE_SELFOVERLAP>
35.638

> <PUBCHEM_SHAPE_FINGERPRINT>
11954058 11 15069165897368765764
12166972 35 18411134702461058617
12403259 415 18202291294948960085
12617007 42 17703505519930352180
13402501 40 18341611542632961926
13533116 47 18187082836658753552
13544592 145 18341894086818704210
13583140 156 17170401706058921440
13675066 3 18199187295939530993
13914758 101 17749387126898395513
14022347 108 17489874817026248040
14366163 111 15697993025184862836
14573314 32 18413107264363616485
146900 427 11959728274321459676
14866123 147 17758671544379296720
14931854 50 18056744637418693134
15099037 51 18131350804328869199
15183329 4 18411698828707342153
15475509 8 17988353892466513477
15664445 248 17632008655616850412
17349148 13 15791723096669576893
17834072 8 18342174470646939791
17844677 252 18408039615519409033
18222031 100 17821720672379207326
19958102 18 18340782429525335687
20369508 70 18335139791601052808
20645477 70 18259983752194504780
20832881 197 18410575132171541576
21279426 13 18340211911332752925
21285901 2 18130786815046168950
21521239 73 18261968366588653263
21781051 124 17345736514127320243
22061861 79 18334296478687577823
221357 26 18410013268702641892
2215653 11 18410291419374587734
22224240 67 17603880962445603250
2303208 19 18201711830692999811
23536379 177 17603303756926026857
23559900 14 18337954480964733128
3004659 81 17917428770284373386
3298306 158 18342177807789835490
345986 75 17531811384795123250
3886686 26 5973376580868672254
404807 14 16957577276297538143
437815 12 18262232330893448812
445580 125 18189045546904061689
465052 167 18186516618546430630
495365 180 17969229945333537016
5207 123 18262232326413917174
5326457 24 17749966448676462023
5374978 207 6122503497546733670
6138700 20 18271526519388888946
633830 44 18058740099922939751
6913067 236 4750873706884578609
8988823 20 16805613559853072858
960060 61 18201992231943723630
9709674 26 18268427928012193970

> <PUBCHEM_SHAPE_MULTIPOLES>
430.81
14.49
2.58
1.2
11.74
0.83
0.22
-4.1
3.44
-3.59
-0.53
-0.83
-0.15
1.9

> <PUBCHEM_SHAPE_SELFOVERLAP>
916.075

> <PUBCHEM_SHAPE_VOLUME>
243.3

> <PUBCHEM_COORDINATE_TYPE>
2
5
10

$$$$

