4389
  -OEChem-06261200053D

 28 28  0     1  0  0  0  0  0999 V2000
    3.5354    1.8993    0.1083 O   0  0  0  0  0  0  0  0  0  0  0  0
   -0.2625    1.5615    0.6592 O   0  0  0  0  0  0  0  0  0  0  0  0
    2.4566    0.8567   -1.6079 O   0  0  0  0  0  0  0  0  0  0  0  0
   -5.0961    0.8037    0.0317 O   0  0  0  0  0  0  0  0  0  0  0  0
   -4.1507   -1.2116   -0.4253 O   0  0  0  0  0  0  0  0  0  0  0  0
    0.8741   -0.4061    0.2201 N   0  0  0  0  0  0  0  0  0  0  0  0
    2.1845    0.0573    0.6574 C   0  0  1  0  0  0  0  0  0  0  0  0
    3.0169   -1.2119    0.7985 C   0  0  0  0  0  0  0  0  0  0  0  0
    2.3962   -2.1590   -0.2254 C   0  0  0  0  0  0  0  0  0  0  0  0
    0.9159   -1.8134   -0.1690 C   0  0  0  0  0  0  0  0  0  0  0  0
   -0.2660    0.3749    0.3274 C   0  0  0  0  0  0  0  0  0  0  0  0
    2.7170    0.9556   -0.4180 C   0  0  0  0  0  0  0  0  0  0  0  0
   -1.5627   -0.3192   -0.0054 C   0  0  0  0  0  0  0  0  0  0  0  0
   -2.7190    0.6472    0.1535 C   0  0  0  0  0  0  0  0  0  0  0  0
   -4.0396   -0.0352   -0.1054 C   0  0  0  0  0  0  0  0  0  0  0  0
    2.0832    0.6151    1.5945 H   0  0  0  0  0  0  0  0  0  0  0  0
    2.8869   -1.6307    1.8039 H   0  0  0  0  0  0  0  0  0  0  0  0
    4.0864   -1.0587    0.6255 H   0  0  0  0  0  0  0  0  0  0  0  0
    2.7959   -1.9438   -1.2235 H   0  0  0  0  0  0  0  0  0  0  0  0
    2.5904   -3.2121   -0.0036 H   0  0  0  0  0  0  0  0  0  0  0  0
    0.4113   -1.9687   -1.1264 H   0  0  0  0  0  0  0  0  0  0  0  0
    0.4030   -2.3942    0.6052 H   0  0  0  0  0  0  0  0  0  0  0  0
   -1.6889   -1.1777    0.6640 H   0  0  0  0  0  0  0  0  0  0  0  0
   -1.5211   -0.6874   -1.0364 H   0  0  0  0  0  0  0  0  0  0  0  0
   -2.7472    1.0495    1.1730 H   0  0  0  0  0  0  0  0  0  0  0  0
   -2.6221    1.4799   -0.5528 H   0  0  0  0  0  0  0  0  0  0  0  0
    3.8960    2.4972   -0.5808 H   0  0  0  0  0  0  0  0  0  0  0  0
   -5.9481    0.3524   -0.1491 H   0  0  0  0  0  0  0  0  0  0  0  0
  1 12  1  0  0  0  0
  1 27  1  0  0  0  0
  2 11  2  0  0  0  0
  3 12  2  0  0  0  0
  4 15  1  0  0  0  0
  4 28  1  0  0  0  0
  5 15  2  0  0  0  0
  6  7  1  0  0  0  0
  6 10  1  0  0  0  0
  6 11  1  0  0  0  0
  7  8  1  0  0  0  0
  7 12  1  0  0  0  0
  7 16  1  0  0  0  0
  8  9  1  0  0  0  0
  8 17  1  0  0  0  0
  8 18  1  0  0  0  0
  9 10  1  0  0  0  0
  9 19  1  0  0  0  0
  9 20  1  0  0  0  0
 10 21  1  0  0  0  0
 10 22  1  0  0  0  0
 11 13  1  0  0  0  0
 13 14  1  0  0  0  0
 13 23  1  0  0  0  0
 13 24  1  0  0  0  0
 14 15  1  0  0  0  0
 14 25  1  0  0  0  0
 14 26  1  0  0  0  0
M  END
> <PUBCHEM_COMPOUND_CID>
4389

> <PUBCHEM_CONFORMER_RMSD>
0.6

> <PUBCHEM_CONFORMER_DIVERSEORDER>
2
61
24
55
72
50
76
49
83
110
58
118
75
1
96
117
91
62
107
14
11
52
4
95
32
3
84
104
9
64
29
102
65
93
115
82
51
13
74
81
99
6
89
17
71
40
86
68
88
108
20
116
98
30
45
36
105
119
34
37
92
66
15
87
43
80
16
60
10
106
28
112
94
27
12
25
101
26
33
31
73
111
46
47
63
114
78
77
54
48
79
39
85
21
53
56
44
70
8
103
35
23
38
41
5
67
18
19
57
42
109
113
22
100
90
97
69
59
7

> <PUBCHEM_MMFF94_PARTIAL_CHARGES>
15
1 -0.65
10 0.3
11 0.57
12 0.66
13 0.06
14 0.06
15 0.66
2 -0.57
27 0.5
28 0.5
3 -0.57
4 -0.65
5 -0.57
6 -0.66
7 0.36

> <PUBCHEM_EFFECTIVE_ROTOR_COUNT>
6

> <PUBCHEM_PHARMACOPHORE_FEATURES>
8
1 1 acceptor
1 2 acceptor
1 3 acceptor
1 4 acceptor
1 5 acceptor
3 1 3 12 anion
3 4 5 15 anion
5 6 7 8 9 10 rings

> <PUBCHEM_HEAVY_ATOM_COUNT>
15

> <PUBCHEM_ATOM_DEF_STEREO_COUNT>
0

> <PUBCHEM_ATOM_UDEF_STEREO_COUNT>
1

> <PUBCHEM_BOND_DEF_STEREO_COUNT>
0

> <PUBCHEM_BOND_UDEF_STEREO_COUNT>
0

> <PUBCHEM_ISOTOPIC_ATOM_COUNT>
0

> <PUBCHEM_COMPONENT_COUNT>
1

> <PUBCHEM_CACTVS_TAUTO_COUNT>
1

> <PUBCHEM_CONFORMER_ID>
0000112500000002

> <PUBCHEM_MMFF94_ENERGY>
25.0634

> <PUBCHEM_FEATURE_SELFOVERLAP>
40.709

> <PUBCHEM_SHAPE_FINGERPRINT>
11471102 20 18411140250846044249
11806522 49 18337672039841822802
12346645 6 18413108359827982332
12616999 72 18341045242114088463
12932764 1 17313116249818469449
14251717 144 18409733980012010443
14415576 193 18341331166835134469
15477762 27 18339360898112705730
17834072 33 18335145272200777863
18186145 218 17561364015186707587
19050596 39 18410014355677384643
19422 9 18333730256106285179
20281475 54 18334579049250226707
20559304 39 18334577988118946208
20645477 70 18410577327153413927
21501925 9 18337963397021148250
22485316 2 18335425664534467345
23402655 69 18409450306228185733
23557571 272 17023749068632313656
23559900 14 18337677536856824746
3060560 45 18408878525895649452
4047638 21 17775282772503745353
449060 62 18272929397530925308
4990 188 17676758803940363100
5104073 3 18411981365010545643
522135 26 18410292544898443275
581208 293 18409171021210113875
7364860 26 18335700572553739658
81539 233 17988640753606181628

> <PUBCHEM_SHAPE_MULTIPOLES>
274.37
7.99
1.88
0.86
10.38
0.34
-0.16
-0.61
-0.45
-1.71
-0.1
-0.55
-0.11
-0.5

> <PUBCHEM_SHAPE_SELFOVERLAP>
556.296

> <PUBCHEM_SHAPE_VOLUME>
159.5

> <PUBCHEM_COORDINATE_TYPE>
2
5
10

$$$$

