47205379
  -OEChem-06241222583D

 34 34  0     0  0  0  0  0  0999 V2000
   -1.8324   -1.4433    0.2952 O   0  0  0  0  0  0  0  0  0  0  0  0
   -3.0149    0.5097    0.7271 N   0  0  0  0  0  0  0  0  0  0  0  0
    1.7796    0.7473    0.1977 N   0  0  0  0  0  0  0  0  0  0  0  0
    3.2718   -0.9926   -0.1887 N   0  0  0  0  0  0  0  0  0  0  0  0
    4.0372    1.2802    0.0470 N   0  0  0  0  0  0  0  0  0  0  0  0
   -5.0300   -0.1147   -0.5656 C   0  0  0  0  0  0  0  0  0  0  0  0
   -4.3309   -0.0822    0.7981 C   0  0  0  0  0  0  0  0  0  0  0  0
   -5.1880    1.3063   -1.1078 C   0  0  0  0  0  0  0  0  0  0  0  0
   -6.3975   -0.7968   -0.4828 C   0  0  0  0  0  0  0  0  0  0  0  0
   -0.6302    0.6500    0.4591 C   0  0  0  0  0  0  0  0  0  0  0  0
   -1.8674   -0.2296    0.4793 C   0  0  0  0  0  0  0  0  0  0  0  0
    0.6426   -0.1405    0.1885 C   0  0  0  0  0  0  0  0  0  0  0  0
    3.0872    0.3264    0.0104 C   0  0  0  0  0  0  0  0  0  0  0  0
    4.5556   -1.3673   -0.3671 C   0  0  0  0  0  0  0  0  0  0  0  0
    5.2976    0.8359   -0.1387 C   0  0  0  0  0  0  0  0  0  0  0  0
    5.6197   -0.4889   -0.3519 C   0  0  0  0  0  0  0  0  0  0  0  0
   -4.4093   -0.6804   -1.2722 H   0  0  0  0  0  0  0  0  0  0  0  0
   -4.2378   -1.0992    1.1959 H   0  0  0  0  0  0  0  0  0  0  0  0
   -4.9102    0.5057    1.5190 H   0  0  0  0  0  0  0  0  0  0  0  0
   -7.0667   -0.2626    0.2001 H   0  0  0  0  0  0  0  0  0  0  0  0
   -5.7607    1.9355   -0.4177 H   0  0  0  0  0  0  0  0  0  0  0  0
   -5.7153    1.2963   -2.0680 H   0  0  0  0  0  0  0  0  0  0  0  0
   -4.2172    1.7830   -1.2779 H   0  0  0  0  0  0  0  0  0  0  0  0
   -6.2942   -1.8251   -0.1208 H   0  0  0  0  0  0  0  0  0  0  0  0
   -6.8750   -0.8342   -1.4676 H   0  0  0  0  0  0  0  0  0  0  0  0
   -2.9383    1.5133    0.8655 H   0  0  0  0  0  0  0  0  0  0  0  0
   -0.7668    1.4194   -0.3111 H   0  0  0  0  0  0  0  0  0  0  0  0
   -0.5570    1.1625    1.4266 H   0  0  0  0  0  0  0  0  0  0  0  0
    0.5656   -0.6441   -0.7829 H   0  0  0  0  0  0  0  0  0  0  0  0
    0.7636   -0.9153    0.9556 H   0  0  0  0  0  0  0  0  0  0  0  0
    1.6381    1.7404    0.3446 H   0  0  0  0  0  0  0  0  0  0  0  0
    4.7106   -2.4289   -0.5278 H   0  0  0  0  0  0  0  0  0  0  0  0
    6.0673    1.5997   -0.1103 H   0  0  0  0  0  0  0  0  0  0  0  0
    6.6400   -0.8174   -0.4978 H   0  0  0  0  0  0  0  0  0  0  0  0
  1 11  2  0  0  0  0
  2  7  1  0  0  0  0
  2 11  1  0  0  0  0
  2 26  1  0  0  0  0
  3 12  1  0  0  0  0
  3 13  1  0  0  0  0
  3 31  1  0  0  0  0
  4 13  1  0  0  0  0
  4 14  2  0  0  0  0
  5 13  2  0  0  0  0
  5 15  1  0  0  0  0
  6  7  1  0  0  0  0
  6  8  1  0  0  0  0
  6  9  1  0  0  0  0
  6 17  1  0  0  0  0
  7 18  1  0  0  0  0
  7 19  1  0  0  0  0
  8 21  1  0  0  0  0
  8 22  1  0  0  0  0
  8 23  1  0  0  0  0
  9 20  1  0  0  0  0
  9 24  1  0  0  0  0
  9 25  1  0  0  0  0
 10 11  1  0  0  0  0
 10 12  1  0  0  0  0
 10 27  1  0  0  0  0
 10 28  1  0  0  0  0
 12 29  1  0  0  0  0
 12 30  1  0  0  0  0
 14 16  1  0  0  0  0
 14 32  1  0  0  0  0
 15 16  2  0  0  0  0
 15 33  1  0  0  0  0
 16 34  1  0  0  0  0
M  END
> <PUBCHEM_COMPOUND_CID>
47205379

> <PUBCHEM_CONFORMER_RMSD>
0.8

> <PUBCHEM_CONFORMER_DIVERSEORDER>
1
84
34
87
93
17
71
39
8
5
62
10
94
66
11
29
95
26
83
41
68
54
59
60
77
23
69
15
73
89
56
13
45
61
37
92
43
85
67
7
65
25
81
74
22
32
14
90
2
82
80
21
76
70
27
9
31
3
78
46
86
4
51
38
16
48
19
72
42
36
18
75
44
28
91
49
79
53
88
6
20
24
35
12
55
63
47
64
50
40
33
57
30
58
52

> <PUBCHEM_MMFF94_PARTIAL_CHARGES>
18
1 -0.57
10 0.06
11 0.57
12 0.37
13 0.72
14 0.16
15 0.16
16 -0.15
2 -0.73
26 0.37
3 -0.87
31 0.4
32 0.15
33 0.15
34 0.15
4 -0.62
5 -0.62
7 0.3

> <PUBCHEM_EFFECTIVE_ROTOR_COUNT>
7

> <PUBCHEM_PHARMACOPHORE_FEATURES>
7
1 1 acceptor
1 2 donor
1 3 donor
1 4 acceptor
3 6 8 9 hydrophobe
4 3 4 5 13 cation
6 4 5 13 14 15 16 rings

> <PUBCHEM_HEAVY_ATOM_COUNT>
16

> <PUBCHEM_ATOM_DEF_STEREO_COUNT>
0

> <PUBCHEM_ATOM_UDEF_STEREO_COUNT>
0

> <PUBCHEM_BOND_DEF_STEREO_COUNT>
0

> <PUBCHEM_BOND_UDEF_STEREO_COUNT>
0

> <PUBCHEM_ISOTOPIC_ATOM_COUNT>
0

> <PUBCHEM_COMPONENT_COUNT>
1

> <PUBCHEM_CACTVS_TAUTO_COUNT>
4

> <PUBCHEM_CONFORMER_ID>
02D04C0300000001

> <PUBCHEM_MMFF94_ENERGY>
29.2134

> <PUBCHEM_FEATURE_SELFOVERLAP>
35.52

> <PUBCHEM_SHAPE_FINGERPRINT>
10354089 29 10231754492259985742
10912923 1 17385715911256767883
11089746 13 16774082842996162373
11858739 19 18261672662121208790
12555020 224 18334859428736431631
12596602 18 9655571924851298205
12616971 3 14923950012006252729
12670543 26 18341054107359143125
13288520 33 16660645146828340657
13533116 47 17967249832181873690
13668630 136 17894346679104889511
14123238 8 17530963592051188528
1420 363 6627752192732734957
14251718 22 18410013221726799599
14573314 32 18059857298204922509
15048467 5 13254801244048860535
15183329 4 18341335590920546073
15242439 84 18131630079960493184
15348495 7 7853560327745795327
15716309 27 14273455877296963277
16079462 125 18271817795623244300
17834072 33 18113620066565147478
17834072 8 18202281407380025235
17834076 25 15123790682444012505
18222031 100 15430033253887398880
19489759 90 17346881152675378417
200 152 17530684320735566249
20281389 69 13901912202405401287
20621476 66 18058729238674049677
20645477 70 18261951942449005838
21150785 3 17989207015037663775
220451 1 17313099748453943479
22224240 67 17603594032787034306
23402539 116 17676203602540733289
23536379 177 18333731334169378737
23559900 14 18114469950456917400
2871803 45 18343017831031843874
29717793 49 17822004341852091012
300161 21 18411422778691038272
3004659 81 18413107282129009002
3014965 18 17917155008636442498
351380 3 16660366974206694637
42788 4 18413388735124351009
5283173 99 18341618173856979077
7062679 6 14548743941017763951

> <PUBCHEM_SHAPE_MULTIPOLES>
303.48
16.74
1.26
0.84
4.49
0.06
-0.04
0.72
-4.06
-0.37
-0.14
0.82
-0.08
0.55

> <PUBCHEM_SHAPE_SELFOVERLAP>
600.662

> <PUBCHEM_SHAPE_VOLUME>
179.7

> <PUBCHEM_COORDINATE_TYPE>
2
5
10

$$$$

