12874
  -OEChem-06261207292D

 29 30  0     0  0  0  0  0  0999 V2000
    2.8660   -0.4050    0.0000 N   0  0  0  0  0  0  0  0  0  0  0  0
    3.7320    0.0950    0.0000 N   0  0  0  0  0  0  0  0  0  0  0  0
    3.7320    4.0950    0.0000 N   0  0  0  0  0  0  0  0  0  0  0  0
    2.8660   -3.4050    0.0000 C   0  0  0  0  0  0  0  0  0  0  0  0
    2.8660   -1.4050    0.0000 C   0  0  0  0  0  0  0  0  0  0  0  0
    3.7320   -2.9050    0.0000 C   0  0  0  0  0  0  0  0  0  0  0  0
    2.0000   -2.9050    0.0000 C   0  0  0  0  0  0  0  0  0  0  0  0
    3.7320   -1.9050    0.0000 C   0  0  0  0  0  0  0  0  0  0  0  0
    2.0000   -1.9050    0.0000 C   0  0  0  0  0  0  0  0  0  0  0  0
    3.7320    1.0950    0.0000 C   0  0  0  0  0  0  0  0  0  0  0  0
    3.7320    3.0950    0.0000 C   0  0  0  0  0  0  0  0  0  0  0  0
    2.8660   -4.4050    0.0000 C   0  0  0  0  0  0  0  0  0  0  0  0
    4.5981    1.5950    0.0000 C   0  0  0  0  0  0  0  0  0  0  0  0
    2.8660    1.5950    0.0000 C   0  0  0  0  0  0  0  0  0  0  0  0
    4.5981    2.5950    0.0000 C   0  0  0  0  0  0  0  0  0  0  0  0
    2.8660    2.5950    0.0000 C   0  0  0  0  0  0  0  0  0  0  0  0
    4.2690   -3.2150    0.0000 H   0  0  0  0  0  0  0  0  0  0  0  0
    1.4631   -3.2150    0.0000 H   0  0  0  0  0  0  0  0  0  0  0  0
    4.2690   -1.5950    0.0000 H   0  0  0  0  0  0  0  0  0  0  0  0
    1.4631   -1.5950    0.0000 H   0  0  0  0  0  0  0  0  0  0  0  0
    2.2460   -4.4050    0.0000 H   0  0  0  0  0  0  0  0  0  0  0  0
    2.8660   -5.0250    0.0000 H   0  0  0  0  0  0  0  0  0  0  0  0
    3.4860   -4.4050    0.0000 H   0  0  0  0  0  0  0  0  0  0  0  0
    5.1350    1.2850    0.0000 H   0  0  0  0  0  0  0  0  0  0  0  0
    2.3291    1.2850    0.0000 H   0  0  0  0  0  0  0  0  0  0  0  0
    5.1350    2.9050    0.0000 H   0  0  0  0  0  0  0  0  0  0  0  0
    2.3291    2.9050    0.0000 H   0  0  0  0  0  0  0  0  0  0  0  0
    4.2690    4.4050    0.0000 H   0  0  0  0  0  0  0  0  0  0  0  0
    3.1951    4.4050    0.0000 H   0  0  0  0  0  0  0  0  0  0  0  0
  1  2  2  0  0  0  0
  1  5  1  0  0  0  0
  2 10  1  0  0  0  0
  3 11  1  0  0  0  0
  3 28  1  0  0  0  0
  3 29  1  0  0  0  0
  4  6  2  0  0  0  0
  4  7  1  0  0  0  0
  4 12  1  0  0  0  0
  5  8  2  0  0  0  0
  5  9  1  0  0  0  0
  6  8  1  0  0  0  0
  6 17  1  0  0  0  0
  7  9  2  0  0  0  0
  7 18  1  0  0  0  0
  8 19  1  0  0  0  0
  9 20  1  0  0  0  0
 10 13  2  0  0  0  0
 10 14  1  0  0  0  0
 11 15  2  0  0  0  0
 11 16  1  0  0  0  0
 12 21  1  0  0  0  0
 12 22  1  0  0  0  0
 12 23  1  0  0  0  0
 13 15  1  0  0  0  0
 13 24  1  0  0  0  0
 14 16  2  0  0  0  0
 14 25  1  0  0  0  0
 15 26  1  0  0  0  0
 16 27  1  0  0  0  0
M  END
> <PUBCHEM_COMPOUND_CID>
12874

> <PUBCHEM_COMPOUND_CANONICALIZED>
1

> <PUBCHEM_CACTVS_COMPLEXITY>
223

> <PUBCHEM_CACTVS_HBOND_ACCEPTOR>
3

> <PUBCHEM_CACTVS_HBOND_DONOR>
1

> <PUBCHEM_CACTVS_ROTATABLE_BOND>
2

> <PUBCHEM_CACTVS_SUBSKEYS>
AAADccBzAAAAAAAAAAAAAAAAAAAAAAAAAAAwYAAAAAAAAAABQAAAHAAYAAAADAiBGAAywIBAAACCAiRCQACCAAAgAgAIiAAAZIgIICKAkZGAIABgkAAIyAcQgAAOCACAAAAAAAAQAQAAAAAAAAAAAAAAAA==

> <PUBCHEM_IUPAC_OPENEYE_NAME>
4-(p-tolylazo)aniline

> <PUBCHEM_IUPAC_CAS_NAME>
4-(4-methylphenyl)azoaniline

> <PUBCHEM_IUPAC_NAME>
4-[(4-methylphenyl)diazenyl]aniline

> <PUBCHEM_IUPAC_SYSTEMATIC_NAME>
4-[(4-methylphenyl)diazenyl]aniline

> <PUBCHEM_IUPAC_TRADITIONAL_NAME>
[4-(p-tolylazo)phenyl]amine

> <PUBCHEM_IUPAC_INCHI>
InChI=1S/C13H13N3/c1-10-2-6-12(7-3-10)15-16-13-8-4-11(14)5-9-13/h2-9H,14H2,1H3

> <PUBCHEM_IUPAC_INCHIKEY>
PBKCJNOFHGLNEZ-UHFFFAOYSA-N

> <PUBCHEM_XLOGP3>
3.8

> <PUBCHEM_EXACT_MASS>
211.110947

> <PUBCHEM_MOLECULAR_FORMULA>
C13H13N3

> <PUBCHEM_MOLECULAR_WEIGHT>
211.26242

> <PUBCHEM_OPENEYE_CAN_SMILES>
CC1=CC=C(C=C1)N=NC2=CC=C(C=C2)N

> <PUBCHEM_OPENEYE_ISO_SMILES>
CC1=CC=C(C=C1)N=NC2=CC=C(C=C2)N

> <PUBCHEM_CACTVS_TPSA>
50.7

> <PUBCHEM_MONOISOTOPIC_WEIGHT>
211.110947

> <PUBCHEM_TOTAL_CHARGE>
0

> <PUBCHEM_HEAVY_ATOM_COUNT>
16

> <PUBCHEM_ATOM_DEF_STEREO_COUNT>
0

> <PUBCHEM_ATOM_UDEF_STEREO_COUNT>
0

> <PUBCHEM_BOND_DEF_STEREO_COUNT>
0

> <PUBCHEM_BOND_UDEF_STEREO_COUNT>
0

> <PUBCHEM_ISOTOPIC_ATOM_COUNT>
0

> <PUBCHEM_COMPONENT_COUNT>
1

> <PUBCHEM_CACTVS_TAUTO_COUNT>
3

> <PUBCHEM_COORDINATE_TYPE>
1
5
255

> <PUBCHEM_BONDANNOTATIONS>
10  13  8
10  14  8
11  15  8
11  16  8
13  15  8
14  16  8
4  6  8
4  7  8
5  8  8
5  9  8
6  8  8
7  9  8

$$$$

