8429
  -OEChem-06261202493D

 34 34  0     0  0  0  0  0  0999 V2000
   -2.2572    2.8305   -0.5575 Cl  0  0  0  0  0  0  0  0  0  0  0  0
   -4.7128   -2.8222    0.4386 Cl  0  0  0  0  0  0  0  0  0  0  0  0
   -6.3121   -0.5973   -1.2849 Cl  0  0  0  0  0  0  0  0  0  0  0  0
    2.3812   -0.2455    0.2540 O   0  0  0  0  0  0  0  0  0  0  0  0
   -1.0169    0.5725    0.9916 O   0  0  0  0  0  0  0  0  0  0  0  0
    1.4097    1.7213    0.9726 O   0  0  0  0  0  0  0  0  0  0  0  0
    6.1036   -0.0411   -0.2128 C   0  0  0  0  0  0  0  0  0  0  0  0
    4.7012   -0.6448   -0.1835 C   0  0  0  0  0  0  0  0  0  0  0  0
    7.1361   -1.0566   -0.7016 C   0  0  0  0  0  0  0  0  0  0  0  0
    3.6605    0.3725    0.2622 C   0  0  0  0  0  0  0  0  0  0  0  0
    8.5284   -0.4491   -0.7644 C   0  0  0  0  0  0  0  0  0  0  0  0
    1.3312    0.5482    0.6343 C   0  0  0  0  0  0  0  0  0  0  0  0
    0.0550   -0.2489    0.5730 C   0  0  0  0  0  0  0  0  0  0  0  0
   -2.2546    0.3066    0.4573 C   0  0  0  0  0  0  0  0  0  0  0  0
   -2.9337    1.2678   -0.2809 C   0  0  0  0  0  0  0  0  0  0  0  0
   -2.8107   -0.9486    0.6729 C   0  0  0  0  0  0  0  0  0  0  0  0
   -4.0655   -1.2467    0.1417 C   0  0  0  0  0  0  0  0  0  0  0  0
   -4.1886    0.9695   -0.8120 C   0  0  0  0  0  0  0  0  0  0  0  0
   -4.7546   -0.2877   -0.6007 C   0  0  0  0  0  0  0  0  0  0  0  0
    6.1117    0.8350   -0.8728 H   0  0  0  0  0  0  0  0  0  0  0  0
    6.3759    0.3080    0.7906 H   0  0  0  0  0  0  0  0  0  0  0  0
    4.6747   -1.5121    0.4881 H   0  0  0  0  0  0  0  0  0  0  0  0
    4.4312   -1.0263   -1.1762 H   0  0  0  0  0  0  0  0  0  0  0  0
    6.8589   -1.4201   -1.6980 H   0  0  0  0  0  0  0  0  0  0  0  0
    7.1505   -1.9244   -0.0319 H   0  0  0  0  0  0  0  0  0  0  0  0
    3.8899    0.7244    1.2749 H   0  0  0  0  0  0  0  0  0  0  0  0
    3.6555    1.2288   -0.4224 H   0  0  0  0  0  0  0  0  0  0  0  0
    8.5550    0.4012   -1.4533 H   0  0  0  0  0  0  0  0  0  0  0  0
    8.8498   -0.1022    0.2228 H   0  0  0  0  0  0  0  0  0  0  0  0
    9.2510   -1.1928   -1.1150 H   0  0  0  0  0  0  0  0  0  0  0  0
    0.1413   -1.1028    1.2526 H   0  0  0  0  0  0  0  0  0  0  0  0
   -0.0846   -0.5882   -0.4604 H   0  0  0  0  0  0  0  0  0  0  0  0
   -2.2752   -1.6909    1.2599 H   0  0  0  0  0  0  0  0  0  0  0  0
   -4.7245    1.7189   -1.3910 H   0  0  0  0  0  0  0  0  0  0  0  0
  1 15  1  0  0  0  0
  2 17  1  0  0  0  0
  3 19  1  0  0  0  0
  4 10  1  0  0  0  0
  4 12  1  0  0  0  0
  5 13  1  0  0  0  0
  5 14  1  0  0  0  0
  6 12  2  0  0  0  0
  7  8  1  0  0  0  0
  7  9  1  0  0  0  0
  7 20  1  0  0  0  0
  7 21  1  0  0  0  0
  8 10  1  0  0  0  0
  8 22  1  0  0  0  0
  8 23  1  0  0  0  0
  9 11  1  0  0  0  0
  9 24  1  0  0  0  0
  9 25  1  0  0  0  0
 10 26  1  0  0  0  0
 10 27  1  0  0  0  0
 11 28  1  0  0  0  0
 11 29  1  0  0  0  0
 11 30  1  0  0  0  0
 12 13  1  0  0  0  0
 13 31  1  0  0  0  0
 13 32  1  0  0  0  0
 14 15  1  0  0  0  0
 14 16  2  0  0  0  0
 15 18  2  0  0  0  0
 16 17  1  0  0  0  0
 16 33  1  0  0  0  0
 17 19  2  0  0  0  0
 18 19  1  0  0  0  0
 18 34  1  0  0  0  0
M  END
> <PUBCHEM_COMPOUND_CID>
8429

> <PUBCHEM_CONFORMER_RMSD>
1

> <PUBCHEM_CONFORMER_DIVERSEORDER>
1
101
516
192
468
211
662
476
154
518
207
437
120
54
24
89
279
170
39
300
4
76
78
30
194
114
627
302
175
212
638
602
7
323
43
159
434
354
115
223
505
56
102
62
64
269
5
15
429
256
79
475
185
537
2
352
86
625
210
12
129
457
133
157
22
37
420
317
324
528
411
71
153
452
53
405
426
595
60
605
51
363
81
561
271
61
38
649
126
345
353
326
11
26
158
231
414
480
533
229
98
23
378
6
83
424
258
623
553
461
166
443
84
73
171
10
621

> <PUBCHEM_MMFF94_PARTIAL_CHARGES>
17
1 -0.18
10 0.28
12 0.66
13 0.34
14 0.08
15 0.18
16 -0.15
17 0.18
18 -0.15
19 0.18
2 -0.18
3 -0.18
33 0.15
34 0.15
4 -0.43
5 -0.36
6 -0.57

> <PUBCHEM_EFFECTIVE_ROTOR_COUNT>
8

> <PUBCHEM_PHARMACOPHORE_FEATURES>
4
1 11 hydrophobe
1 5 acceptor
1 6 acceptor
6 14 15 16 17 18 19 rings

> <PUBCHEM_HEAVY_ATOM_COUNT>
19

> <PUBCHEM_ATOM_DEF_STEREO_COUNT>
0

> <PUBCHEM_ATOM_UDEF_STEREO_COUNT>
0

> <PUBCHEM_BOND_DEF_STEREO_COUNT>
0

> <PUBCHEM_BOND_UDEF_STEREO_COUNT>
0

> <PUBCHEM_ISOTOPIC_ATOM_COUNT>
0

> <PUBCHEM_COMPONENT_COUNT>
1

> <PUBCHEM_CACTVS_TAUTO_COUNT>
1

> <PUBCHEM_CONFORMER_ID>
000020ED00000001

> <PUBCHEM_MMFF94_ENERGY>
33.7081

> <PUBCHEM_FEATURE_SELFOVERLAP>
20.305

> <PUBCHEM_SHAPE_FINGERPRINT>
10 15 8286198366356179990
11089746 13 16630804396834213676
11315181 36 18060414711966676052
12091667 2 17774995800317010080
12954195 1 18410295852218894905
13288520 33 18407758136178710945
13668630 136 17458343057325059510
1420 363 17312820485870654286
14350574 20 18040720255226283944
14729087 3 12607405469204783398
14849402 71 5761066576984059442
15048467 5 13542464272037057478
15183329 4 18060139868925846682
15348495 7 9439103348751132902
15461852 350 11455882538349630787
15716309 27 14345797158636458110
16992828 155 16771834504784493428
17093844 174 16081088216202957323
17780758 139 6122495809397038029
17870717 6 18412826885041409475
18643901 69 18411697652509399487
18927931 339 18342454833738973099
19489759 90 18201716280221050248
200 152 17530689797056284481
20281389 69 10375874074082331582
21150785 3 18130785655848006166
21267235 1 18342174437110023859
21307412 95 18266470815508069711
21623969 137 17168139062186277582
22224240 67 9151168749126546316
22288116 15 16916495965740257898
2297311 6 18413108355643986145
23081809 10 17346599708053524648
23198884 109 17275101747790106458
23402539 116 18131635577476414415
23557571 272 18408325506023141389
23559900 14 18340778022508672161
2838139 119 15554444094219076862
3004659 81 18341615906440644816
335352 9 18342183276421946037

> <PUBCHEM_SHAPE_MULTIPOLES>
379.01
19.92
2.11
1.01
42.42
0.28
-0.08
-8.74
-8.53
-3.52
0.03
-0.41
0.03
1.06

> <PUBCHEM_SHAPE_SELFOVERLAP>
736.806

> <PUBCHEM_SHAPE_VOLUME>
231.1

> <PUBCHEM_COORDINATE_TYPE>
2
5
10

$$$$

