47205217
  -OEChem-06241222582D

 30 31  0     0  0  0  0  0  0999 V2000
    2.0000   -1.4547    0.0000 Br  0  0  0  0  0  0  0  0  0  0  0  0
    3.7320   -4.4547    0.0000 Cl  0  0  0  0  0  0  0  0  0  0  0  0
    3.7320   -0.4547    0.0000 O   0  0  0  0  0  0  0  0  0  0  0  0
    3.7320    1.5453    0.0000 O   0  0  0  0  0  0  0  0  0  0  0  0
    5.4641    1.5453    0.0000 N   0  0  0  0  0  0  0  0  0  0  0  0
    6.4347    4.0398    0.0000 N   0  0  0  0  0  0  0  0  0  0  0  0
    7.4128    4.2477    0.0000 N   0  0  0  0  0  0  0  0  0  0  0  0
    5.4641    2.5453    0.0000 C   0  0  0  0  0  0  0  0  0  0  0  0
    6.3301    3.0453    0.0000 C   0  0  0  0  0  0  0  0  0  0  0  0
    4.5981    0.0453    0.0000 C   0  0  0  0  0  0  0  0  0  0  0  0
    4.5981    1.0453    0.0000 C   0  0  0  0  0  0  0  0  0  0  0  0
    7.2437    2.6386    0.0000 C   0  0  0  0  0  0  0  0  0  0  0  0
    3.7320   -1.4547    0.0000 C   0  0  0  0  0  0  0  0  0  0  0  0
    7.9128    3.3817    0.0000 C   0  0  0  0  0  0  0  0  0  0  0  0
    2.8660   -1.9547    0.0000 C   0  0  0  0  0  0  0  0  0  0  0  0
    4.5981   -1.9547    0.0000 C   0  0  0  0  0  0  0  0  0  0  0  0
    2.8660   -2.9547    0.0000 C   0  0  0  0  0  0  0  0  0  0  0  0
    4.5981   -2.9547    0.0000 C   0  0  0  0  0  0  0  0  0  0  0  0
    3.7320   -3.4547    0.0000 C   0  0  0  0  0  0  0  0  0  0  0  0
    5.2520    3.1279    0.0000 H   0  0  0  0  0  0  0  0  0  0  0  0
    4.8535    2.4376    0.0000 H   0  0  0  0  0  0  0  0  0  0  0  0
    6.0010    1.2353    0.0000 H   0  0  0  0  0  0  0  0  0  0  0  0
    4.8101   -0.5373    0.0000 H   0  0  0  0  0  0  0  0  0  0  0  0
    5.2087    0.1530    0.0000 H   0  0  0  0  0  0  0  0  0  0  0  0
    7.3726    2.0321    0.0000 H   0  0  0  0  0  0  0  0  0  0  0  0
    5.9739    4.4547    0.0000 H   0  0  0  0  0  0  0  0  0  0  0  0
    5.1350   -1.6447    0.0000 H   0  0  0  0  0  0  0  0  0  0  0  0
    8.5294    3.3169    0.0000 H   0  0  0  0  0  0  0  0  0  0  0  0
    2.3291   -3.2647    0.0000 H   0  0  0  0  0  0  0  0  0  0  0  0
    5.1350   -3.2647    0.0000 H   0  0  0  0  0  0  0  0  0  0  0  0
  1 15  1  0  0  0  0
  2 19  1  0  0  0  0
  3 10  1  0  0  0  0
  3 13  1  0  0  0  0
  4 11  2  0  0  0  0
  5  8  1  0  0  0  0
  5 11  1  0  0  0  0
  5 22  1  0  0  0  0
  6  7  1  0  0  0  0
  6  9  1  0  0  0  0
  6 26  1  0  0  0  0
  7 14  2  0  0  0  0
  8  9  1  0  0  0  0
  8 20  1  0  0  0  0
  8 21  1  0  0  0  0
  9 12  2  0  0  0  0
 10 11  1  0  0  0  0
 10 23  1  0  0  0  0
 10 24  1  0  0  0  0
 12 14  1  0  0  0  0
 12 25  1  0  0  0  0
 13 15  2  0  0  0  0
 13 16  1  0  0  0  0
 14 28  1  0  0  0  0
 15 17  1  0  0  0  0
 16 18  2  0  0  0  0
 16 27  1  0  0  0  0
 17 19  2  0  0  0  0
 17 29  1  0  0  0  0
 18 19  1  0  0  0  0
 18 30  1  0  0  0  0
M  END
> <PUBCHEM_COMPOUND_CID>
47205217

> <PUBCHEM_COMPOUND_CANONICALIZED>
1

> <PUBCHEM_CACTVS_COMPLEXITY>
309

> <PUBCHEM_CACTVS_HBOND_ACCEPTOR>
3

> <PUBCHEM_CACTVS_HBOND_DONOR>
2

> <PUBCHEM_CACTVS_ROTATABLE_BOND>
5

> <PUBCHEM_CACTVS_SUBSKEYS>
AAADccBzMAAEEAAAAAAAAAAAAAAAAWAAAAAwAAAAAAAAAAABwAAAHgJYAAABqA7hliY8hpLjBACqATV3UAKSDAAgpwQYuaB+brgOZqKF89+XvCjk3hGY6heAQAAAACAAAABABAAAQAAAAIAIAAAAAAAAAA==

> <PUBCHEM_IUPAC_OPENEYE_NAME>
2-(2-bromo-4-chloro-phenoxy)-N-(1H-pyrazol-5-ylmethyl)acetamide

> <PUBCHEM_IUPAC_CAS_NAME>
2-(2-bromo-4-chlorophenoxy)-N-(1H-pyrazol-5-ylmethyl)acetamide

> <PUBCHEM_IUPAC_NAME>
2-(2-bromo-4-chlorophenoxy)-N-(1H-pyrazol-5-ylmethyl)acetamide

> <PUBCHEM_IUPAC_SYSTEMATIC_NAME>
2-(2-bromanyl-4-chloranyl-phenoxy)-N-(1H-pyrazol-5-ylmethyl)ethanamide

> <PUBCHEM_IUPAC_TRADITIONAL_NAME>
2-(2-bromo-4-chloro-phenoxy)-N-(1H-pyrazol-5-ylmethyl)acetamide

> <PUBCHEM_IUPAC_INCHI>
InChI=1S/C12H11BrClN3O2/c13-10-5-8(14)1-2-11(10)19-7-12(18)15-6-9-3-4-16-17-9/h1-5H,6-7H2,(H,15,18)(H,16,17)

> <PUBCHEM_IUPAC_INCHIKEY>
QQMJGPHSOUDOAR-UHFFFAOYSA-N

> <PUBCHEM_XLOGP3_AA>
2.4

> <PUBCHEM_EXACT_MASS>
342.972316

> <PUBCHEM_MOLECULAR_FORMULA>
C12H11BrClN3O2

> <PUBCHEM_MOLECULAR_WEIGHT>
344.59164

> <PUBCHEM_OPENEYE_CAN_SMILES>
C1=CC(=C(C=C1Cl)Br)OCC(=O)NCC2=CC=NN2

> <PUBCHEM_OPENEYE_ISO_SMILES>
C1=CC(=C(C=C1Cl)Br)OCC(=O)NCC2=CC=NN2

> <PUBCHEM_CACTVS_TPSA>
67

> <PUBCHEM_MONOISOTOPIC_WEIGHT>
342.972316

> <PUBCHEM_TOTAL_CHARGE>
0

> <PUBCHEM_HEAVY_ATOM_COUNT>
19

> <PUBCHEM_ATOM_DEF_STEREO_COUNT>
0

> <PUBCHEM_ATOM_UDEF_STEREO_COUNT>
0

> <PUBCHEM_BOND_DEF_STEREO_COUNT>
0

> <PUBCHEM_BOND_UDEF_STEREO_COUNT>
0

> <PUBCHEM_ISOTOPIC_ATOM_COUNT>
0

> <PUBCHEM_COMPONENT_COUNT>
1

> <PUBCHEM_CACTVS_TAUTO_COUNT>
4

> <PUBCHEM_COORDINATE_TYPE>
1
5
255

> <PUBCHEM_BONDANNOTATIONS>
12  14  8
13  15  8
13  16  8
15  17  8
16  18  8
17  19  8
18  19  8
6  7  8
6  9  8
7  14  8
9  12  8

$$$$

