12646
  -OEChem-06261207123D

 48 48  0     0  0  0  0  0  0999 V2000
   -0.0661   -1.0683   -0.3781 O   0  0  0  0  0  0  0  0  0  0  0  0
    4.9770   -0.2441   -0.1523 N   0  0  0  0  0  0  0  0  0  0  0  0
   -1.0545    1.0002    0.1331 N   0  0  0  0  0  0  0  0  0  0  0  0
    3.8499    0.6541    0.0684 C   0  0  0  0  0  0  0  0  0  0  0  0
    2.5314   -0.0983   -0.0984 C   0  0  0  0  0  0  0  0  0  0  0  0
    1.3355    0.8270    0.1206 C   0  0  0  0  0  0  0  0  0  0  0  0
    6.2434    0.4835   -0.0524 C   0  0  0  0  0  0  0  0  0  0  0  0
    4.9501   -1.3501    0.8065 C   0  0  0  0  0  0  0  0  0  0  0  0
    0.0022    0.1186   -0.0766 C   0  0  0  0  0  0  0  0  0  0  0  0
    6.2932    1.6372   -1.0396 C   0  0  0  0  0  0  0  0  0  0  0  0
    6.0817   -2.3300    0.5461 C   0  0  0  0  0  0  0  0  0  0  0  0
   -2.4395    0.7234    0.0447 C   0  0  0  0  0  0  0  0  0  0  0  0
   -3.3671    1.7242    0.2860 C   0  0  0  0  0  0  0  0  0  0  0  0
   -4.1983   -0.8545   -0.3794 C   0  0  0  0  0  0  0  0  0  0  0  0
   -2.8375   -0.5625   -0.2866 C   0  0  0  0  0  0  0  0  0  0  0  0
   -4.6434   -2.2331   -0.7348 C   0  0  0  0  0  0  0  0  0  0  0  0
   -4.7280    1.4320    0.1935 C   0  0  0  0  0  0  0  0  0  0  0  0
   -5.1436    0.1428   -0.1394 C   0  0  0  0  0  0  0  0  0  0  0  0
   -2.9510    3.1143    0.6435 C   0  0  0  0  0  0  0  0  0  0  0  0
   -4.8353   -3.1164    0.4953 C   0  0  0  0  0  0  0  0  0  0  0  0
    3.8961    1.1177    1.0625 H   0  0  0  0  0  0  0  0  0  0  0  0
    3.8316    1.4611   -0.6713 H   0  0  0  0  0  0  0  0  0  0  0  0
    2.4166   -0.9045    0.6318 H   0  0  0  0  0  0  0  0  0  0  0  0
    2.4764   -0.5507   -1.0969 H   0  0  0  0  0  0  0  0  0  0  0  0
    1.3802    1.6670   -0.5833 H   0  0  0  0  0  0  0  0  0  0  0  0
    1.3606    1.2365    1.1378 H   0  0  0  0  0  0  0  0  0  0  0  0
    7.0834   -0.1673   -0.3159 H   0  0  0  0  0  0  0  0  0  0  0  0
    6.4208    0.8603    0.9629 H   0  0  0  0  0  0  0  0  0  0  0  0
    4.9917   -0.9977    1.8446 H   0  0  0  0  0  0  0  0  0  0  0  0
    4.0468   -1.9547    0.6961 H   0  0  0  0  0  0  0  0  0  0  0  0
    5.9797    1.3297   -2.0432 H   0  0  0  0  0  0  0  0  0  0  0  0
    5.6864    2.4899   -0.7196 H   0  0  0  0  0  0  0  0  0  0  0  0
    7.3228    2.0044   -1.1200 H   0  0  0  0  0  0  0  0  0  0  0  0
    5.9076   -3.2516    1.1134 H   0  0  0  0  0  0  0  0  0  0  0  0
    7.0526   -1.9445    0.8723 H   0  0  0  0  0  0  0  0  0  0  0  0
    6.1450   -2.6064   -0.5120 H   0  0  0  0  0  0  0  0  0  0  0  0
   -0.8063    1.9549    0.3783 H   0  0  0  0  0  0  0  0  0  0  0  0
   -2.1637   -1.3826   -0.4822 H   0  0  0  0  0  0  0  0  0  0  0  0
   -3.9163   -2.7013   -1.4100 H   0  0  0  0  0  0  0  0  0  0  0  0
   -5.5830   -2.1883   -1.2997 H   0  0  0  0  0  0  0  0  0  0  0  0
   -5.4780    2.1967    0.3776 H   0  0  0  0  0  0  0  0  0  0  0  0
   -6.2068   -0.0725   -0.2066 H   0  0  0  0  0  0  0  0  0  0  0  0
   -2.3745    3.1165    1.5745 H   0  0  0  0  0  0  0  0  0  0  0  0
   -2.3522    3.5558   -0.1600 H   0  0  0  0  0  0  0  0  0  0  0  0
   -3.8155    3.7694    0.7983 H   0  0  0  0  0  0  0  0  0  0  0  0
   -3.9018   -3.2184    1.0589 H   0  0  0  0  0  0  0  0  0  0  0  0
   -5.1625   -4.1167    0.1946 H   0  0  0  0  0  0  0  0  0  0  0  0
   -5.5916   -2.6989    1.1686 H   0  0  0  0  0  0  0  0  0  0  0  0
  1  9  2  0  0  0  0
  2  4  1  0  0  0  0
  2  7  1  0  0  0  0
  2  8  1  0  0  0  0
  3  9  1  0  0  0  0
  3 12  1  0  0  0  0
  3 37  1  0  0  0  0
  4  5  1  0  0  0  0
  4 21  1  0  0  0  0
  4 22  1  0  0  0  0
  5  6  1  0  0  0  0
  5 23  1  0  0  0  0
  5 24  1  0  0  0  0
  6  9  1  0  0  0  0
  6 25  1  0  0  0  0
  6 26  1  0  0  0  0
  7 10  1  0  0  0  0
  7 27  1  0  0  0  0
  7 28  1  0  0  0  0
  8 11  1  0  0  0  0
  8 29  1  0  0  0  0
  8 30  1  0  0  0  0
 10 31  1  0  0  0  0
 10 32  1  0  0  0  0
 10 33  1  0  0  0  0
 11 34  1  0  0  0  0
 11 35  1  0  0  0  0
 11 36  1  0  0  0  0
 12 13  2  0  0  0  0
 12 15  1  0  0  0  0
 13 17  1  0  0  0  0
 13 19  1  0  0  0  0
 14 15  2  0  0  0  0
 14 16  1  0  0  0  0
 14 18  1  0  0  0  0
 15 38  1  0  0  0  0
 16 20  1  0  0  0  0
 16 39  1  0  0  0  0
 16 40  1  0  0  0  0
 17 18  2  0  0  0  0
 17 41  1  0  0  0  0
 18 42  1  0  0  0  0
 19 43  1  0  0  0  0
 19 44  1  0  0  0  0
 19 45  1  0  0  0  0
 20 46  1  0  0  0  0
 20 47  1  0  0  0  0
 20 48  1  0  0  0  0
M  END
> <PUBCHEM_COMPOUND_CID>
12646

> <PUBCHEM_CONFORMER_RMSD>
0.8

> <PUBCHEM_CONFORMER_DIVERSEORDER>
1
5
142
86
163
169
146
44
121
123
196
193
85
71
209
81
108
115
18
95
200
213
148
214
64
69
153
73
150
92
104
118
192
48
102
82
90
191
194
174
143
101
10
125
178
96
97
113
186
122
171
158
160
87
77
60
184
93
166
59
57
124
180
147
189
152
144
43
61
203
9
105
4
136
133
75
66
116
119
177
62
32
21
58
154
175
162
212
50
173
76
208
31
207
23
198
84
2
46
67
199
22
80
202
55
68
29
182
7
106
190
188
45
111
156
35
157
56
70
47
89
114
110
3
78
211
215
151
185
201
53
83
145
134
183
34
161
63
30
91
74
141
197
117
65
155
206
49
37
127
100
107
27
94
19
54
41
51
52
140
36
40
126
179
167
187
6
39
149
129
72
195
210
38
132
164
181
14
98
15
24
12
176
28
33
26
103
168
159
17
20
165
8
172
13
79
120
137
11
16
112
204
205
42
130
128
88
99
135
139
138
131
25
109
170

> <PUBCHEM_MMFF94_PARTIAL_CHARGES>
20
1 -0.57
12 0.12
13 -0.14
14 -0.14
15 -0.15
16 0.14
17 -0.15
18 -0.15
19 0.14
2 -0.81
3 -0.55
37 0.37
38 0.15
4 0.27
41 0.15
42 0.15
6 0.06
7 0.27
8 0.27
9 0.57

> <PUBCHEM_EFFECTIVE_ROTOR_COUNT>
9

> <PUBCHEM_PHARMACOPHORE_FEATURES>
5
1 1 acceptor
1 2 cation
1 20 hydrophobe
1 3 donor
6 12 13 14 15 17 18 rings

> <PUBCHEM_HEAVY_ATOM_COUNT>
20

> <PUBCHEM_ATOM_DEF_STEREO_COUNT>
0

> <PUBCHEM_ATOM_UDEF_STEREO_COUNT>
0

> <PUBCHEM_BOND_DEF_STEREO_COUNT>
0

> <PUBCHEM_BOND_UDEF_STEREO_COUNT>
0

> <PUBCHEM_ISOTOPIC_ATOM_COUNT>
0

> <PUBCHEM_COMPONENT_COUNT>
1

> <PUBCHEM_CACTVS_TAUTO_COUNT>
2

> <PUBCHEM_CONFORMER_ID>
0000316600000001

> <PUBCHEM_MMFF94_ENERGY>
42.7335

> <PUBCHEM_FEATURE_SELFOVERLAP>
25.371

> <PUBCHEM_SHAPE_FINGERPRINT>
10411042 1 18119812405512948927
10595046 47 18412543185329817788
10912923 1 18343866636781242568
11315181 36 18342738490158221469
11524674 6 16370727015579664127
12107183 9 17691127458394955304
12236239 1 18272088318285319308
12596602 18 18343585127275916882
12616971 3 17703498952640266541
13073987 5 18409169909525461384
13167823 11 18411422830030484514
13288520 33 18335984178002962839
13533116 47 18342459279451994442
13631057 29 18338238163702248915
14211702 104 18410006650480422246
14251732 16 18337954485475640204
14461889 52 18339086965641496818
14528608 73 18341609305250127076
15183329 4 18410291449908765990
15250474 111 18341906215865124290
17834072 33 18413671314234756344
17844677 252 18334853914088048904
17857418 61 18342463668344360794
18927931 339 18186801344997929239
21236236 1 18409166593515595451
21267235 1 18337107853296334503
220451 1 18411412925798768800
2297311 6 18040710351332574445
2303208 19 17095233714412620324
23081809 10 18273212002553338284
23402539 116 18411985749929476557
23522609 53 18193529290729324152
23536379 177 18411982494455126888
23559900 14 18336839597791468561
335352 9 18335987494176846445
4073 2 18130783426517562194
4214541 1 18336548308365892009
497634 4 18343866610573706165
5104073 3 18187366514842787936
5109719 28 17826237294638297928
531348 171 17702114753473952223
559249 180 18339085990283116615
7062679 117 18411417276437135319
7495541 125 17894918395323802248

> <PUBCHEM_SHAPE_MULTIPOLES>
395.76
17.66
2.89
0.8
22
0.73
0.03
4.45
0.6
-3.07
-0.51
0.27
0.02
-1.8

> <PUBCHEM_SHAPE_SELFOVERLAP>
787.031

> <PUBCHEM_SHAPE_VOLUME>
236.7

> <PUBCHEM_COORDINATE_TYPE>
2
5
10

$$$$

