8235
  -OEChem-06261202402D

 79 83  0     0  0  0  0  0  0999 V2000
   14.5907    0.7485    0.0000 O   0  0  0  0  0  0  0  0  0  0  0  0
   12.3054   -3.6980    0.0000 O   0  0  0  0  0  0  0  0  0  0  0  0
    9.0896    3.9502    0.0000 O   0  0  0  0  0  0  0  0  0  0  0  0
   10.5828   -3.8791    0.0000 O   0  0  0  0  0  0  0  0  0  0  0  0
   10.1077    2.5489    0.0000 O   0  0  0  0  0  0  0  0  0  0  0  0
    4.4099    3.7288    0.0000 O   0  0  0  0  0  0  0  0  0  0  0  0
    9.6111    0.5827    0.0000 N   0  0  0  0  0  0  0  0  0  0  0  0
    6.7296   -0.5235    0.0000 N   0  0  0  0  0  0  0  0  0  0  0  0
   12.6934    0.7442    0.0000 N   0  0  0  0  0  0  0  0  0  0  0  0
    5.0485    2.0651    0.0000 N   0  0  0  0  0  0  0  0  0  0  0  0
    9.4032   -0.3955    0.0000 C   0  0  0  0  0  0  0  0  0  0  0  0
    8.4897   -0.8022    0.0000 C   0  0  0  0  0  0  0  0  0  0  0  0
    7.6806   -0.2144    0.0000 C   0  0  0  0  0  0  0  0  0  0  0  0
   10.2692   -0.8955    0.0000 C   0  0  0  0  0  0  0  0  0  0  0  0
    7.6806    0.7856    0.0000 C   0  0  0  0  0  0  0  0  0  0  0  0
   11.0124   -0.2264    0.0000 C   0  0  0  0  0  0  0  0  0  0  0  0
   10.6056    0.6872    0.0000 C   0  0  0  0  0  0  0  0  0  0  0  0
    6.7296    1.0946    0.0000 C   0  0  0  0  0  0  0  0  0  0  0  0
   10.3738   -1.8900    0.0000 C   0  0  0  0  0  0  0  0  0  0  0  0
    6.1418    0.2856    0.0000 C   0  0  0  0  0  0  0  0  0  0  0  0
    8.4897    1.3733    0.0000 C   0  0  0  0  0  0  0  0  0  0  0  0
   11.1056    1.5532    0.0000 C   0  0  0  0  0  0  0  0  0  0  0  0
   12.1056    1.5532    0.0000 C   0  0  0  0  0  0  0  0  0  0  0  0
   13.6445    2.0532    0.0000 C   0  0  0  0  0  0  0  0  0  0  0  0
   11.9905   -0.4343    0.0000 C   0  0  0  0  0  0  0  0  0  0  0  0
   12.6934    2.3622    0.0000 C   0  0  0  0  0  0  0  0  0  0  0  0
   11.2873   -2.2967    0.0000 C   0  0  0  0  0  0  0  0  0  0  0  0
   14.5907    2.3579    0.0000 C   0  0  0  0  0  0  0  0  0  0  0  0
    6.4206    2.0456    0.0000 C   0  0  0  0  0  0  0  0  0  0  0  0
    8.3851    2.3679    0.0000 C   0  0  0  0  0  0  0  0  0  0  0  0
    5.1418    0.2856    0.0000 C   0  0  0  0  0  0  0  0  0  0  0  0
   13.6445    1.0532    0.0000 C   0  0  0  0  0  0  0  0  0  0  0  0
   15.1743    1.5532    0.0000 C   0  0  0  0  0  0  0  0  0  0  0  0
    4.6418    1.1516    0.0000 C   0  0  0  0  0  0  0  0  0  0  0  0
   12.3844    3.3133    0.0000 C   0  0  0  0  0  0  0  0  0  0  0  0
    3.6473    1.2561    0.0000 C   0  0  0  0  0  0  0  0  0  0  0  0
   11.3918   -3.2913    0.0000 C   0  0  0  0  0  0  0  0  0  0  0  0
    9.1941    2.9557    0.0000 C   0  0  0  0  0  0  0  0  0  0  0  0
    3.4394    2.2343    0.0000 C   0  0  0  0  0  0  0  0  0  0  0  0
    4.3054    2.7343    0.0000 C   0  0  0  0  0  0  0  0  0  0  0  0
    2.9781    0.5130    0.0000 C   0  0  0  0  0  0  0  0  0  0  0  0
    2.5258    2.6410    0.0000 C   0  0  0  0  0  0  0  0  0  0  0  0
    2.0000    0.7209    0.0000 C   0  0  0  0  0  0  0  0  0  0  0  0
    8.8364   -1.3162    0.0000 H   0  0  0  0  0  0  0  0  0  0  0  0
    8.0437   -1.2329    0.0000 H   0  0  0  0  0  0  0  0  0  0  0  0
    9.1963    1.0434    0.0000 H   0  0  0  0  0  0  0  0  0  0  0  0
    9.7553   -1.8468    0.0000 H   0  0  0  0  0  0  0  0  0  0  0  0
   10.2238   -2.4916    0.0000 H   0  0  0  0  0  0  0  0  0  0  0  0
    6.5380   -1.1131    0.0000 H   0  0  0  0  0  0  0  0  0  0  0  0
    8.7614    0.8161    0.0000 H   0  0  0  0  0  0  0  0  0  0  0  0
    9.0856    1.5442    0.0000 H   0  0  0  0  0  0  0  0  0  0  0  0
   10.7956    2.0902    0.0000 H   0  0  0  0  0  0  0  0  0  0  0  0
   12.1194    0.1722    0.0000 H   0  0  0  0  0  0  0  0  0  0  0  0
   12.5970   -0.5632    0.0000 H   0  0  0  0  0  0  0  0  0  0  0  0
   11.8616   -1.0407    0.0000 H   0  0  0  0  0  0  0  0  0  0  0  0
   11.4373   -1.6952    0.0000 H   0  0  0  0  0  0  0  0  0  0  0  0
   11.9058   -2.3400    0.0000 H   0  0  0  0  0  0  0  0  0  0  0  0
   14.3397    2.9249    0.0000 H   0  0  0  0  0  0  0  0  0  0  0  0
   15.1281    2.6672    0.0000 H   0  0  0  0  0  0  0  0  0  0  0  0
    6.2290    2.6353    0.0000 H   0  0  0  0  0  0  0  0  0  0  0  0
    7.0102    2.2372    0.0000 H   0  0  0  0  0  0  0  0  0  0  0  0
    5.8309    1.8540    0.0000 H   0  0  0  0  0  0  0  0  0  0  0  0
    8.1133    2.9251    0.0000 H   0  0  0  0  0  0  0  0  0  0  0  0
    7.7891    2.1970    0.0000 H   0  0  0  0  0  0  0  0  0  0  0  0
    4.8318   -0.2514    0.0000 H   0  0  0  0  0  0  0  0  0  0  0  0
   15.6352    1.9679    0.0000 H   0  0  0  0  0  0  0  0  0  0  0  0
   15.6352    1.1385    0.0000 H   0  0  0  0  0  0  0  0  0  0  0  0
   12.1928    3.9029    0.0000 H   0  0  0  0  0  0  0  0  0  0  0  0
   11.7948    3.1217    0.0000 H   0  0  0  0  0  0  0  0  0  0  0  0
   12.9741    3.5049    0.0000 H   0  0  0  0  0  0  0  0  0  0  0  0
    5.6550    2.1940    0.0000 H   0  0  0  0  0  0  0  0  0  0  0  0
    3.1697   -0.0767    0.0000 H   0  0  0  0  0  0  0  0  0  0  0  0
    2.7780    3.2074    0.0000 H   0  0  0  0  0  0  0  0  0  0  0  0
    1.9594    2.8932    0.0000 H   0  0  0  0  0  0  0  0  0  0  0  0
    2.2736    2.0746    0.0000 H   0  0  0  0  0  0  0  0  0  0  0  0
   12.3702   -4.3146    0.0000 H   0  0  0  0  0  0  0  0  0  0  0  0
    9.5912    4.3146    0.0000 H   0  0  0  0  0  0  0  0  0  0  0  0
    1.5851    0.2601    0.0000 H   0  0  0  0  0  0  0  0  0  0  0  0
    1.8084    1.3105    0.0000 H   0  0  0  0  0  0  0  0  0  0  0  0
  1 32  1  0  0  0  0
  1 33  1  0  0  0  0
  2 37  1  0  0  0  0
  2 76  1  0  0  0  0
  3 38  1  0  0  0  0
  3 77  1  0  0  0  0
  4 37  2  0  0  0  0
  5 38  2  0  0  0  0
  6 40  2  0  0  0  0
  7 11  1  0  0  0  0
  7 17  1  0  0  0  0
  7 46  1  0  0  0  0
  8 13  1  0  0  0  0
  8 20  1  0  0  0  0
  8 49  1  0  0  0  0
  9 23  1  0  0  0  0
  9 32  2  0  0  0  0
 10 34  1  0  0  0  0
 10 40  1  0  0  0  0
 10 71  1  0  0  0  0
 11 12  1  0  0  0  0
 11 14  2  0  0  0  0
 12 13  1  0  0  0  0
 12 44  1  0  0  0  0
 12 45  1  0  0  0  0
 13 15  2  0  0  0  0
 14 16  1  0  0  0  0
 14 19  1  0  0  0  0
 15 18  1  0  0  0  0
 15 21  1  0  0  0  0
 16 17  2  0  0  0  0
 16 25  1  0  0  0  0
 17 22  1  0  0  0  0
 18 20  2  0  0  0  0
 18 29  1  0  0  0  0
 19 27  1  0  0  0  0
 19 47  1  0  0  0  0
 19 48  1  0  0  0  0
 20 31  1  0  0  0  0
 21 30  1  0  0  0  0
 21 50  1  0  0  0  0
 21 51  1  0  0  0  0
 22 23  2  3  0  0  0
 22 52  1  0  0  0  0
 23 26  1  0  0  0  0
 24 26  2  0  0  0  0
 24 28  1  0  0  0  0
 24 32  1  0  0  0  0
 25 53  1  0  0  0  0
 25 54  1  0  0  0  0
 25 55  1  0  0  0  0
 26 35  1  0  0  0  0
 27 37  1  0  0  0  0
 27 56  1  0  0  0  0
 27 57  1  0  0  0  0
 28 33  1  0  0  0  0
 28 58  1  0  0  0  0
 28 59  1  0  0  0  0
 29 60  1  0  0  0  0
 29 61  1  0  0  0  0
 29 62  1  0  0  0  0
 30 38  1  0  0  0  0
 30 63  1  0  0  0  0
 30 64  1  0  0  0  0
 31 34  2  3  0  0  0
 31 65  1  0  0  0  0
 33 66  1  0  0  0  0
 33 67  1  0  0  0  0
 34 36  1  0  0  0  0
 35 68  1  0  0  0  0
 35 69  1  0  0  0  0
 35 70  1  0  0  0  0
 36 39  2  0  0  0  0
 36 41  1  0  0  0  0
 39 40  1  0  0  0  0
 39 42  1  0  0  0  0
 41 43  2  0  0  0  0
 41 72  1  0  0  0  0
 42 73  1  0  0  0  0
 42 74  1  0  0  0  0
 42 75  1  0  0  0  0
 43 78  1  0  0  0  0
 43 79  1  0  0  0  0
M  END
> <PUBCHEM_COMPOUND_CID>
8235

> <PUBCHEM_COMPOUND_CANONICALIZED>
1

> <PUBCHEM_CACTVS_COMPLEXITY>
1360

> <PUBCHEM_CACTVS_HBOND_ACCEPTOR>
7

> <PUBCHEM_CACTVS_HBOND_DONOR>
5

> <PUBCHEM_CACTVS_ROTATABLE_BOND>
11

> <PUBCHEM_CACTVS_SUBSKEYS>
AAADcfB/uAAAAAAAAAAAAAAAAAAAAWLEiBAAAAAAAAAQAAAB4AAAHgAQCAAADAihngICiJLJlgCoAyXyXACCgCAhAiAImSEwRNgIJHLA8JGGcAhk1ADI6QeY2fOegAAAAAAAAAAAAAAAAAAAAAAAAAAAAA==

> <PUBCHEM_IUPAC_OPENEYE_NAME>
3-[2-[[3-(2-carboxyethyl)-4-methyl-5-[(4-methyl-2,3-dihydrofuro[2,3-b]pyrrol-5-ylidene)methyl]-1H-pyrrol-2-yl]methyl]-4-methyl-5-[(4-methyl-5-oxo-3-vinyl-pyrrol-2-ylidene)methyl]-1H-pyrrol-3-yl]propanoic acid

> <PUBCHEM_IUPAC_CAS_NAME>
3-[2-[[3-(2-carboxyethyl)-4-methyl-5-[(4-methyl-2,3-dihydrofuro[2,3-b]pyrrol-5-ylidene)methyl]-1H-pyrrol-2-yl]methyl]-5-[(3-ethenyl-4-methyl-5-oxo-2-pyrrolylidene)methyl]-4-methyl-1H-pyrrol-3-yl]propanoic acid

> <PUBCHEM_IUPAC_NAME>
3-[2-[[3-(2-carboxyethyl)-4-methyl-5-[(4-methyl-2,3-dihydrofuro[2,3-b]pyrrol-5-ylidene)methyl]-1H-pyrrol-2-yl]methyl]-5-[(3-ethenyl-4-methyl-5-oxopyrrol-2-ylidene)methyl]-4-methyl-1H-pyrrol-3-yl]propanoic acid

> <PUBCHEM_IUPAC_SYSTEMATIC_NAME>
3-[5-[(3-ethenyl-4-methyl-5-oxidanylidene-pyrrol-2-ylidene)methyl]-2-[[3-(3-hydroxy-3-oxopropyl)-4-methyl-5-[(4-methyl-2,3-dihydrofuro[2,3-b]pyrrol-5-ylidene)methyl]-1H-pyrrol-2-yl]methyl]-4-methyl-1H-pyrrol-3-yl]propanoic acid

> <PUBCHEM_IUPAC_TRADITIONAL_NAME>
3-[2-[[3-(2-carboxyethyl)-4-methyl-5-[(4-methyl-2,3-dihydrofuro[2,3-b]pyrrol-5-ylidene)methyl]-1H-pyrrol-2-yl]methyl]-5-[(5-keto-4-methyl-3-vinyl-3-pyrrolin-2-ylidene)methyl]-4-methyl-1H-pyrrol-3-yl]propionic acid

> <PUBCHEM_IUPAC_INCHI>
InChI=1S/C33H36N4O6/c1-6-20-19(5)32(42)36-27(20)14-25-17(3)22(8-10-31(40)41)29(35-25)15-28-21(7-9-30(38)39)16(2)24(34-28)13-26-18(4)23-11-12-43-33(23)37-26/h6,13-14,34-35H,1,7-12,15H2,2-5H3,(H,36,42)(H,38,39)(H,40,41)

> <PUBCHEM_IUPAC_INCHIKEY>
MPFHLZXEMZWKKS-UHFFFAOYSA-N

> <PUBCHEM_XLOGP3_AA>
2.8

> <PUBCHEM_EXACT_MASS>
584.263485

> <PUBCHEM_MOLECULAR_FORMULA>
C33H36N4O6

> <PUBCHEM_MOLECULAR_WEIGHT>
584.66214

> <PUBCHEM_OPENEYE_CAN_SMILES>
CC1=C2CCOC2=NC1=CC3=C(C(=C(N3)CC4=C(C(=C(N4)C=C5C(=C(C(=O)N5)C)C=C)C)CCC(=O)O)CCC(=O)O)C

> <PUBCHEM_OPENEYE_ISO_SMILES>
CC1=C2CCOC2=NC1=CC3=C(C(=C(N3)CC4=C(C(=C(N4)C=C5C(=C(C(=O)N5)C)C=C)C)CCC(=O)O)CCC(=O)O)C

> <PUBCHEM_CACTVS_TPSA>
157

> <PUBCHEM_MONOISOTOPIC_WEIGHT>
584.263485

> <PUBCHEM_TOTAL_CHARGE>
0

> <PUBCHEM_HEAVY_ATOM_COUNT>
43

> <PUBCHEM_ATOM_DEF_STEREO_COUNT>
0

> <PUBCHEM_ATOM_UDEF_STEREO_COUNT>
0

> <PUBCHEM_BOND_DEF_STEREO_COUNT>
0

> <PUBCHEM_BOND_UDEF_STEREO_COUNT>
2

> <PUBCHEM_ISOTOPIC_ATOM_COUNT>
0

> <PUBCHEM_COMPONENT_COUNT>
1

> <PUBCHEM_CACTVS_TAUTO_COUNT>
10

> <PUBCHEM_COORDINATE_TYPE>
1
5
255

> <PUBCHEM_BONDANNOTATIONS>
11  14  8
13  15  8
14  16  8
15  18  8
16  17  8
18  20  8
22  23  1
31  34  1
7  11  8
7  17  8
8  13  8
8  20  8

$$$$

