17395478
  -OEChem-06241222503D

 37 40  0     0  0  0  0  0  0999 V2000
    2.3337   -1.3569    1.7191 S   0  0  0  0  0  0  0  0  0  0  0  0
   -2.0855   -1.4679    0.3491 N   0  0  0  0  0  0  0  0  0  0  0  0
   -0.1516   -1.5543   -0.7715 N   0  0  0  0  0  0  0  0  0  0  0  0
    2.3902    0.5841   -0.2870 N   0  0  0  0  0  0  0  0  0  0  0  0
    3.1304    1.0032   -1.3228 N   0  0  0  0  0  0  0  0  0  0  0  0
    4.0955   -0.7542   -0.3480 N   0  0  0  0  0  0  0  0  0  0  0  0
    4.1723    0.1813   -1.3550 N   0  0  0  0  0  0  0  0  0  0  0  0
    0.0010   -2.0957    0.4797 C   0  0  0  0  0  0  0  0  0  0  0  0
   -1.4131   -1.1804   -0.8358 C   0  0  0  0  0  0  0  0  0  0  0  0
   -1.1755   -2.0550    1.1902 C   0  0  0  0  0  0  0  0  0  0  0  0
    1.3032   -2.6276    0.9093 C   0  0  0  0  0  0  0  0  0  0  0  0
    1.2024    1.2259    0.0479 C   0  0  0  0  0  0  0  0  0  0  0  0
   -3.4312   -1.1808    0.5606 C   0  0  0  0  0  0  0  0  0  0  0  0
   -2.1673   -0.5581   -1.8737 C   0  0  0  0  0  0  0  0  0  0  0  0
    2.9857   -0.4862    0.3006 C   0  0  0  0  0  0  0  0  0  0  0  0
   -1.1794    2.5135    0.7199 C   0  0  0  0  0  0  0  0  0  0  0  0
    0.7720    1.2484    1.3746 C   0  0  0  0  0  0  0  0  0  0  0  0
    0.4419    1.8470   -0.9428 C   0  0  0  0  0  0  0  0  0  0  0  0
   -4.1346   -0.5944   -0.4216 C   0  0  0  0  0  0  0  0  0  0  0  0
   -3.4699   -0.2776   -1.6757 C   0  0  0  0  0  0  0  0  0  0  0  0
   -0.4188    1.8922    1.7105 C   0  0  0  0  0  0  0  0  0  0  0  0
   -0.7490    2.4910   -0.6068 C   0  0  0  0  0  0  0  0  0  0  0  0
   -2.4523    3.2024    1.0793 C   0  0  0  0  0  0  0  0  0  0  0  0
   -1.4375   -2.3803    2.1879 H   0  0  0  0  0  0  0  0  0  0  0  0
    1.8497   -3.0531    0.0607 H   0  0  0  0  0  0  0  0  0  0  0  0
    1.1567   -3.4396    1.6299 H   0  0  0  0  0  0  0  0  0  0  0  0
   -3.8634   -1.4428    1.5186 H   0  0  0  0  0  0  0  0  0  0  0  0
   -1.6820   -0.3164   -2.8126 H   0  0  0  0  0  0  0  0  0  0  0  0
    1.3696    0.9131    2.2116 H   0  0  0  0  0  0  0  0  0  0  0  0
    0.7454    1.8368   -1.9867 H   0  0  0  0  0  0  0  0  0  0  0  0
   -5.1833   -0.3493   -0.3066 H   0  0  0  0  0  0  0  0  0  0  0  0
   -4.0593    0.1969   -2.4528 H   0  0  0  0  0  0  0  0  0  0  0  0
   -0.7297    1.9295    2.7513 H   0  0  0  0  0  0  0  0  0  0  0  0
   -1.3338    2.9701   -1.3876 H   0  0  0  0  0  0  0  0  0  0  0  0
   -2.9298    2.7243    1.9413 H   0  0  0  0  0  0  0  0  0  0  0  0
   -3.1702    3.1609    0.2530 H   0  0  0  0  0  0  0  0  0  0  0  0
   -2.2567    4.2513    1.3225 H   0  0  0  0  0  0  0  0  0  0  0  0
  1 11  1  0  0  0  0
  1 15  1  0  0  0  0
  2  9  1  0  0  0  0
  2 10  1  0  0  0  0
  2 13  1  0  0  0  0
  3  8  1  0  0  0  0
  3  9  2  0  0  0  0
  4  5  1  0  0  0  0
  4 12  1  0  0  0  0
  4 15  1  0  0  0  0
  5  7  2  0  0  0  0
  6  7  1  0  0  0  0
  6 15  2  0  0  0  0
  8 10  2  0  0  0  0
  8 11  1  0  0  0  0
  9 14  1  0  0  0  0
 10 24  1  0  0  0  0
 11 25  1  0  0  0  0
 11 26  1  0  0  0  0
 12 17  2  0  0  0  0
 12 18  1  0  0  0  0
 13 19  2  0  0  0  0
 13 27  1  0  0  0  0
 14 20  2  0  0  0  0
 14 28  1  0  0  0  0
 16 21  2  0  0  0  0
 16 22  1  0  0  0  0
 16 23  1  0  0  0  0
 17 21  1  0  0  0  0
 17 29  1  0  0  0  0
 18 22  2  0  0  0  0
 18 30  1  0  0  0  0
 19 20  1  0  0  0  0
 19 31  1  0  0  0  0
 20 32  1  0  0  0  0
 21 33  1  0  0  0  0
 22 34  1  0  0  0  0
 23 35  1  0  0  0  0
 23 36  1  0  0  0  0
 23 37  1  0  0  0  0
M  END
> <PUBCHEM_COMPOUND_CID>
17395478

> <PUBCHEM_CONFORMER_RMSD>
0.8

> <PUBCHEM_CONFORMER_DIVERSEORDER>
1
3
59
45
31
83
30
68
57
85
28
46
40
58
8
71
88
12
79
41
35
84
43
38
4
67
13
80
5
2
78
22
49
56
81
11
62
76
60
39
47
48
52
24
70
66
20
87
10
18
9
72
17
27
54
53
33
55
77
65
69
44
29
37
51
6
34
32
50
7
61
73
16
82
21
14
19
36
64
74
15
25
42
75
26
23
63
86

> <PUBCHEM_MMFF94_PARTIAL_CHARGES>
31
1 -0.29
10 -0.3
11 0.41
12 -0.02
13 -0.18
14 -0.11
15 0.24
16 -0.14
17 -0.15
18 -0.15
19 -0.15
2 0.33
20 -0.15
21 -0.15
22 -0.15
23 0.14
24 0.15
27 0.15
28 0.15
29 0.15
3 -0.57
30 0.15
31 0.15
32 0.15
33 0.15
34 0.15
4 0.59
5 -0.42
6 -0.34
8 0.05
9 0.14

> <PUBCHEM_EFFECTIVE_ROTOR_COUNT>
4

> <PUBCHEM_PHARMACOPHORE_FEATURES>
6
3 2 3 9 cation
3 4 6 15 cation
5 2 3 8 9 10 rings
5 4 5 6 7 15 rings
6 12 16 17 18 21 22 rings
6 2 9 13 14 19 20 rings

> <PUBCHEM_HEAVY_ATOM_COUNT>
23

> <PUBCHEM_ATOM_DEF_STEREO_COUNT>
0

> <PUBCHEM_ATOM_UDEF_STEREO_COUNT>
0

> <PUBCHEM_BOND_DEF_STEREO_COUNT>
0

> <PUBCHEM_BOND_UDEF_STEREO_COUNT>
0

> <PUBCHEM_ISOTOPIC_ATOM_COUNT>
0

> <PUBCHEM_COMPONENT_COUNT>
1

> <PUBCHEM_CACTVS_TAUTO_COUNT>
1

> <PUBCHEM_CONFORMER_ID>
01096F1600000001

> <PUBCHEM_MMFF94_ENERGY>
58.3002

> <PUBCHEM_FEATURE_SELFOVERLAP>
30.562

> <PUBCHEM_SHAPE_FINGERPRINT>
104564 63 18334857263893137569
10863032 1 17060349521450731371
12035759 4 18201437017036413522
12422481 6 17536273207259696899
12596599 1 17605011229411487367
12788726 201 18334846217216659832
128993 33 17555462721473955751
13140716 1 18194977248542027698
14251751 93 18191291883086563000
14464042 87 18262528108190623193
14713325 29 15972706795564369956
16752209 62 18334581282010708924
16945 1 18262533536280374619
17357779 13 18187366527706479756
20905425 154 18262237849689118879
21236236 1 18336263557146636578
23419403 2 15502677999655334401
23559900 14 18267583504105584628
238 59 17328325549030872391
2818148 4 17907845550789349806
3027735 51 18188758582684892046
35225 105 16952524947379090257
3524813 1 17987519195695484623
394222 165 16916515757349756872
6438718 38 17895755226762239073
7226269 152 18196098742482350448
81228 2 18407758131905310648

> <PUBCHEM_SHAPE_MULTIPOLES>
447.29
6
3.32
1.73
1.33
1.32
-0.07
-1.3
-2.01
-1.29
1.27
-0.02
0.18
-1.16

> <PUBCHEM_SHAPE_SELFOVERLAP>
973.076

> <PUBCHEM_SHAPE_VOLUME>
244.3

> <PUBCHEM_COORDINATE_TYPE>
2
5
10

$$$$

