582734
  -OEChem-06241222432D

 62 63  0     1  0  0  0  0  0999 V2000
    7.9244   -1.8553    0.0000 O   0  0  0  0  0  0  0  0  0  0  0  0
    7.6138   -2.8058    0.0000 O   0  0  0  0  0  0  0  0  0  0  0  0
    6.3246   -3.9625    0.0000 O   0  0  0  0  0  0  0  0  0  0  0  0
    6.2781   -1.3172    0.0000 N   0  0  0  0  0  0  0  0  0  0  0  0
    4.6783   -5.0339    0.0000 N   0  0  0  0  0  0  0  0  0  0  0  0
   10.1456    2.1530    0.0000 C   0  0  0  0  0  0  0  0  0  0  0  0
   11.1241    2.3592    0.0000 C   0  0  0  0  0  0  0  0  0  0  0  0
    9.8349    1.2025    0.0000 C   0  0  0  0  0  0  0  0  0  0  0  0
   11.4348    3.3098    0.0000 C   0  0  0  0  0  0  0  0  0  0  0  0
    8.8564    0.9963    0.0000 C   0  0  0  0  0  0  0  0  0  0  0  0
   12.4133    3.5160    0.0000 C   0  0  0  0  0  0  0  0  0  0  0  0
    8.5458    0.0458    0.0000 C   0  0  0  0  0  0  0  0  0  0  0  0
   12.7239    4.4665    0.0000 C   0  0  0  0  0  0  0  0  0  0  0  0
    7.5673   -0.1605    0.0000 C   0  0  0  0  0  0  0  0  0  0  0  0
    5.9674   -2.2677    0.0000 C   0  0  3  0  0  0  0  0  0  0  0  0
    4.9889   -2.4739    0.0000 C   0  0  0  0  0  0  0  0  0  0  0  0
    4.6783   -3.4244    0.0000 C   0  0  0  0  0  0  0  0  0  0  0  0
   13.7024    4.6727    0.0000 C   0  0  0  0  0  0  0  0  0  0  0  0
    7.2566   -1.1110    0.0000 C   0  0  0  0  0  0  0  0  0  0  0  0
    3.7320   -3.7292    0.0000 C   0  0  0  0  0  0  0  0  0  0  0  0
    3.7320   -4.7292    0.0000 C   0  0  0  0  0  0  0  0  0  0  0  0
    5.2619   -4.2292    0.0000 C   0  0  0  0  0  0  0  0  0  0  0  0
   14.0131    5.6232    0.0000 C   0  0  0  0  0  0  0  0  0  0  0  0
    6.6353   -3.0120    0.0000 C   0  0  0  0  0  0  0  0  0  0  0  0
    2.8660   -3.2292    0.0000 C   0  0  0  0  0  0  0  0  0  0  0  0
    2.8660   -5.2292    0.0000 C   0  0  0  0  0  0  0  0  0  0  0  0
    2.0000   -3.7292    0.0000 C   0  0  0  0  0  0  0  0  0  0  0  0
    2.0000   -4.7292    0.0000 C   0  0  0  0  0  0  0  0  0  0  0  0
   10.1250    2.7727    0.0000 H   0  0  0  0  0  0  0  0  0  0  0  0
    9.5318    2.2404    0.0000 H   0  0  0  0  0  0  0  0  0  0  0  0
   11.1447    1.7396    0.0000 H   0  0  0  0  0  0  0  0  0  0  0  0
   11.7379    2.2719    0.0000 H   0  0  0  0  0  0  0  0  0  0  0  0
    9.8555    0.5828    0.0000 H   0  0  0  0  0  0  0  0  0  0  0  0
   10.4488    1.1152    0.0000 H   0  0  0  0  0  0  0  0  0  0  0  0
   11.4142    3.9294    0.0000 H   0  0  0  0  0  0  0  0  0  0  0  0
   10.8210    3.3971    0.0000 H   0  0  0  0  0  0  0  0  0  0  0  0
    8.8359    1.6159    0.0000 H   0  0  0  0  0  0  0  0  0  0  0  0
    8.2426    1.0836    0.0000 H   0  0  0  0  0  0  0  0  0  0  0  0
   12.4338    2.8963    0.0000 H   0  0  0  0  0  0  0  0  0  0  0  0
   13.0271    3.4286    0.0000 H   0  0  0  0  0  0  0  0  0  0  0  0
    8.5663   -0.5739    0.0000 H   0  0  0  0  0  0  0  0  0  0  0  0
    9.1596   -0.0416    0.0000 H   0  0  0  0  0  0  0  0  0  0  0  0
   12.7034    5.0862    0.0000 H   0  0  0  0  0  0  0  0  0  0  0  0
   12.1101    4.5538    0.0000 H   0  0  0  0  0  0  0  0  0  0  0  0
    7.5467    0.4592    0.0000 H   0  0  0  0  0  0  0  0  0  0  0  0
    6.9534   -0.0731    0.0000 H   0  0  0  0  0  0  0  0  0  0  0  0
    5.5534   -1.8062    0.0000 H   0  0  0  0  0  0  0  0  0  0  0  0
    4.9684   -1.8543    0.0000 H   0  0  0  0  0  0  0  0  0  0  0  0
    4.3751   -2.3866    0.0000 H   0  0  0  0  0  0  0  0  0  0  0  0
   13.7230    4.0531    0.0000 H   0  0  0  0  0  0  0  0  0  0  0  0
   14.3163    4.5854    0.0000 H   0  0  0  0  0  0  0  0  0  0  0  0
    5.8640   -0.8557    0.0000 H   0  0  0  0  0  0  0  0  0  0  0  0
    5.8819   -4.2292    0.0000 H   0  0  0  0  0  0  0  0  0  0  0  0
    4.8709   -5.6232    0.0000 H   0  0  0  0  0  0  0  0  0  0  0  0
   14.6024    5.4306    0.0000 H   0  0  0  0  0  0  0  0  0  0  0  0
   14.2057    6.2126    0.0000 H   0  0  0  0  0  0  0  0  0  0  0  0
   13.4238    5.8158    0.0000 H   0  0  0  0  0  0  0  0  0  0  0  0
    2.8660   -2.6092    0.0000 H   0  0  0  0  0  0  0  0  0  0  0  0
    2.8660   -5.8492    0.0000 H   0  0  0  0  0  0  0  0  0  0  0  0
    1.4631   -3.4192    0.0000 H   0  0  0  0  0  0  0  0  0  0  0  0
    1.4631   -5.0392    0.0000 H   0  0  0  0  0  0  0  0  0  0  0  0
    8.0279   -3.2673    0.0000 H   0  0  0  0  0  0  0  0  0  0  0  0
  1 19  2  0  0  0  0
  2 24  1  0  0  0  0
  2 62  1  0  0  0  0
  3 24  2  0  0  0  0
  4 15  1  0  0  0  0
  4 19  1  0  0  0  0
  4 52  1  0  0  0  0
  5 21  1  0  0  0  0
  5 22  1  0  0  0  0
  5 54  1  0  0  0  0
  6  7  1  0  0  0  0
  6  8  1  0  0  0  0
  6 29  1  0  0  0  0
  6 30  1  0  0  0  0
  7  9  1  0  0  0  0
  7 31  1  0  0  0  0
  7 32  1  0  0  0  0
  8 10  1  0  0  0  0
  8 33  1  0  0  0  0
  8 34  1  0  0  0  0
  9 11  1  0  0  0  0
  9 35  1  0  0  0  0
  9 36  1  0  0  0  0
 10 12  1  0  0  0  0
 10 37  1  0  0  0  0
 10 38  1  0  0  0  0
 11 13  1  0  0  0  0
 11 39  1  0  0  0  0
 11 40  1  0  0  0  0
 12 14  1  0  0  0  0
 12 41  1  0  0  0  0
 12 42  1  0  0  0  0
 13 18  1  0  0  0  0
 13 43  1  0  0  0  0
 13 44  1  0  0  0  0
 14 19  1  0  0  0  0
 14 45  1  0  0  0  0
 14 46  1  0  0  0  0
 15 16  1  0  0  0  0
 15 24  1  0  0  0  0
 15 47  1  0  0  0  0
 16 17  1  0  0  0  0
 16 48  1  0  0  0  0
 16 49  1  0  0  0  0
 17 20  1  0  0  0  0
 17 22  2  0  0  0  0
 18 23  1  0  0  0  0
 18 50  1  0  0  0  0
 18 51  1  0  0  0  0
 20 21  1  0  0  0  0
 20 25  2  0  0  0  0
 21 26  2  0  0  0  0
 22 53  1  0  0  0  0
 23 55  1  0  0  0  0
 23 56  1  0  0  0  0
 23 57  1  0  0  0  0
 25 27  1  0  0  0  0
 25 58  1  0  0  0  0
 26 28  1  0  0  0  0
 26 59  1  0  0  0  0
 27 28  2  0  0  0  0
 27 60  1  0  0  0  0
 28 61  1  0  0  0  0
M  END
> <PUBCHEM_COMPOUND_CID>
582734

> <PUBCHEM_COMPOUND_CANONICALIZED>
1

> <PUBCHEM_CACTVS_COMPLEXITY>
469

> <PUBCHEM_CACTVS_HBOND_ACCEPTOR>
3

> <PUBCHEM_CACTVS_HBOND_DONOR>
3

> <PUBCHEM_CACTVS_ROTATABLE_BOND>
14

> <PUBCHEM_CACTVS_SUBSKEYS>
AAADcfB7MAAAAAAAAAAAAAAAAAAAAWAAAAAwAAAAAAAAAFgB8AAAHgAQCAAADCjBngQ+yPLJkgCoAzX3XACCgCAxAiAI2aG4ZJgKIPLAkbGEYAhklgDYyAeY2fKOgAAAAAACAAAAAAAAAAQAAAAAAAAAAA==

> <PUBCHEM_IUPAC_OPENEYE_NAME>
2-(dodecanoylamino)-3-(1H-indol-3-yl)propanoic acid

> <PUBCHEM_IUPAC_CAS_NAME>
3-(1H-indol-3-yl)-2-(1-oxododecylamino)propanoic acid

> <PUBCHEM_IUPAC_NAME>
2-(dodecanoylamino)-3-(1H-indol-3-yl)propanoic acid

> <PUBCHEM_IUPAC_SYSTEMATIC_NAME>
2-(dodecanoylamino)-3-(1H-indol-3-yl)propanoic acid

> <PUBCHEM_IUPAC_TRADITIONAL_NAME>
3-(1H-indol-3-yl)-2-(lauroylamino)propionic acid

> <PUBCHEM_IUPAC_INCHI>
InChI=1S/C23H34N2O3/c1-2-3-4-5-6-7-8-9-10-15-22(26)25-21(23(27)28)16-18-17-24-20-14-12-11-13-19(18)20/h11-14,17,21,24H,2-10,15-16H2,1H3,(H,25,26)(H,27,28)

> <PUBCHEM_IUPAC_INCHIKEY>
MTYLJFSVEPZMIY-UHFFFAOYSA-N

> <PUBCHEM_XLOGP3>
5.7

> <PUBCHEM_EXACT_MASS>
386.256943

> <PUBCHEM_MOLECULAR_FORMULA>
C23H34N2O3

> <PUBCHEM_MOLECULAR_WEIGHT>
386.52766

> <PUBCHEM_OPENEYE_CAN_SMILES>
CCCCCCCCCCCC(=O)NC(CC1=CNC2=CC=CC=C21)C(=O)O

> <PUBCHEM_OPENEYE_ISO_SMILES>
CCCCCCCCCCCC(=O)NC(CC1=CNC2=CC=CC=C21)C(=O)O

> <PUBCHEM_CACTVS_TPSA>
82.2

> <PUBCHEM_MONOISOTOPIC_WEIGHT>
386.256943

> <PUBCHEM_TOTAL_CHARGE>
0

> <PUBCHEM_HEAVY_ATOM_COUNT>
28

> <PUBCHEM_ATOM_DEF_STEREO_COUNT>
0

> <PUBCHEM_ATOM_UDEF_STEREO_COUNT>
1

> <PUBCHEM_BOND_DEF_STEREO_COUNT>
0

> <PUBCHEM_BOND_UDEF_STEREO_COUNT>
0

> <PUBCHEM_ISOTOPIC_ATOM_COUNT>
0

> <PUBCHEM_COMPONENT_COUNT>
1

> <PUBCHEM_CACTVS_TAUTO_COUNT>
2

> <PUBCHEM_COORDINATE_TYPE>
1
5
255

> <PUBCHEM_BONDANNOTATIONS>
15  16  3
17  20  8
17  22  8
20  21  8
20  25  8
21  26  8
25  27  8
26  28  8
27  28  8
5  21  8
5  22  8

$$$$

