583350
  -OEChem-06241222452D

 44 47  0     1  0  0  0  0  0999 V2000
    4.5981   -0.2990    0.0000 P   0  0  0  0  0  0  0  0  0  0  0  0
    5.0981   -1.1651    0.0000 O   0  0  0  0  0  0  0  0  0  0  0  0
    5.4641    0.2010    0.0000 N   0  0  3  0  0  0  0  0  0  0  0  0
    5.4641    1.2010    0.0000 C   0  0  0  0  0  0  0  0  0  0  0  0
    6.3301   -0.2990    0.0000 C   0  0  0  0  0  0  0  0  0  0  0  0
    6.3301    1.7010    0.0000 C   0  0  0  0  0  0  0  0  0  0  0  0
    7.1962    0.2010    0.0000 C   0  0  0  0  0  0  0  0  0  0  0  0
    7.1962    1.2010    0.0000 C   0  0  0  0  0  0  0  0  0  0  0  0
    3.7320   -0.7990    0.0000 C   0  0  0  0  0  0  0  0  0  0  0  0
    4.0981    0.5670    0.0000 C   0  0  0  0  0  0  0  0  0  0  0  0
    8.0901   -0.3337    0.0000 C   0  0  0  0  0  0  0  0  0  0  0  0
    8.0901    1.7356    0.0000 C   0  0  0  0  0  0  0  0  0  0  0  0
    4.5981    1.4330    0.0000 C   0  0  0  0  0  0  0  0  0  0  0  0
    2.8660   -0.2990    0.0000 C   0  0  0  0  0  0  0  0  0  0  0  0
    3.0981    0.5670    0.0000 C   0  0  0  0  0  0  0  0  0  0  0  0
    3.7320   -1.7990    0.0000 C   0  0  0  0  0  0  0  0  0  0  0  0
    8.9962    0.1801    0.0000 C   0  0  0  0  0  0  0  0  0  0  0  0
    8.9962    1.2218    0.0000 C   0  0  0  0  0  0  0  0  0  0  0  0
    4.0981    2.2990    0.0000 C   0  0  0  0  0  0  0  0  0  0  0  0
    2.0000   -0.7990    0.0000 C   0  0  0  0  0  0  0  0  0  0  0  0
    2.8660   -2.2990    0.0000 C   0  0  0  0  0  0  0  0  0  0  0  0
    2.5981    1.4330    0.0000 C   0  0  0  0  0  0  0  0  0  0  0  0
    2.0000   -1.7990    0.0000 C   0  0  0  0  0  0  0  0  0  0  0  0
    3.0981    2.2990    0.0000 C   0  0  0  0  0  0  0  0  0  0  0  0
    5.2520    1.7836    0.0000 H   0  0  0  0  0  0  0  0  0  0  0  0
    4.8535    1.0933    0.0000 H   0  0  0  0  0  0  0  0  0  0  0  0
    5.9316   -0.7740    0.0000 H   0  0  0  0  0  0  0  0  0  0  0  0
    6.7287   -0.7740    0.0000 H   0  0  0  0  0  0  0  0  0  0  0  0
    6.7287    2.1759    0.0000 H   0  0  0  0  0  0  0  0  0  0  0  0
    5.9316    2.1759    0.0000 H   0  0  0  0  0  0  0  0  0  0  0  0
    8.0829   -0.9537    0.0000 H   0  0  0  0  0  0  0  0  0  0  0  0
    8.0829    2.3556    0.0000 H   0  0  0  0  0  0  0  0  0  0  0  0
    5.2181    1.4330    0.0000 H   0  0  0  0  0  0  0  0  0  0  0  0
    2.8660    0.3210    0.0000 H   0  0  0  0  0  0  0  0  0  0  0  0
    2.7881    0.0301    0.0000 H   0  0  0  0  0  0  0  0  0  0  0  0
    4.2690   -2.1090    0.0000 H   0  0  0  0  0  0  0  0  0  0  0  0
    9.5319   -0.1319    0.0000 H   0  0  0  0  0  0  0  0  0  0  0  0
    9.5319    1.5338    0.0000 H   0  0  0  0  0  0  0  0  0  0  0  0
    1.4631   -0.4890    0.0000 H   0  0  0  0  0  0  0  0  0  0  0  0
    4.4081    2.8360    0.0000 H   0  0  0  0  0  0  0  0  0  0  0  0
    2.8660   -2.9190    0.0000 H   0  0  0  0  0  0  0  0  0  0  0  0
    1.9781    1.4330    0.0000 H   0  0  0  0  0  0  0  0  0  0  0  0
    1.4631   -2.1090    0.0000 H   0  0  0  0  0  0  0  0  0  0  0  0
    2.7881    2.8360    0.0000 H   0  0  0  0  0  0  0  0  0  0  0  0
  1  2  2  0  0  0  0
  1  3  1  0  0  0  0
  1  9  1  0  0  0  0
  1 10  1  0  0  0  0
  3  4  1  0  0  0  0
  3  5  1  0  0  0  0
  4  6  1  0  0  0  0
  4 25  1  0  0  0  0
  4 26  1  0  0  0  0
  5  7  1  0  0  0  0
  5 27  1  0  0  0  0
  5 28  1  0  0  0  0
  6  8  1  0  0  0  0
  6 29  1  0  0  0  0
  6 30  1  0  0  0  0
  7  8  1  0  0  0  0
  7 11  2  0  0  0  0
  8 12  2  0  0  0  0
  9 14  2  0  0  0  0
  9 16  1  0  0  0  0
 10 13  2  0  0  0  0
 10 15  1  0  0  0  0
 11 17  1  0  0  0  0
 11 31  1  0  0  0  0
 12 18  1  0  0  0  0
 12 32  1  0  0  0  0
 13 19  1  0  0  0  0
 13 33  1  0  0  0  0
 14 20  1  0  0  0  0
 14 34  1  0  0  0  0
 15 22  2  0  0  0  0
 15 35  1  0  0  0  0
 16 21  2  0  0  0  0
 16 36  1  0  0  0  0
 17 18  2  0  0  0  0
 17 37  1  0  0  0  0
 18 38  1  0  0  0  0
 19 24  2  0  0  0  0
 19 40  1  0  0  0  0
 20 23  2  0  0  0  0
 20 39  1  0  0  0  0
 21 23  1  0  0  0  0
 21 41  1  0  0  0  0
 22 24  1  0  0  0  0
 22 42  1  0  0  0  0
 23 43  1  0  0  0  0
 24 44  1  0  0  0  0
M  END
> <PUBCHEM_COMPOUND_CID>
583350

> <PUBCHEM_COMPOUND_CANONICALIZED>
1

> <PUBCHEM_CACTVS_COMPLEXITY>
431

> <PUBCHEM_CACTVS_HBOND_ACCEPTOR>
2

> <PUBCHEM_CACTVS_HBOND_DONOR>
0

> <PUBCHEM_CACTVS_ROTATABLE_BOND>
3

> <PUBCHEM_CACTVS_SUBSKEYS>
AAADceB6IAIAAAAAAAAAAAAAAAAAAAAAAAA8YMEAAAAAAACxUAAAHAgAgCAADADBGAQwAIIAACCAQiBCAACCAAAgAAAIiAAIBIgIICKAkRGEIAhggACIiAcQgIAOgAAAAAAQAAAAAAAAACAAAAAAAAAAAA==

> <PUBCHEM_IUPAC_OPENEYE_NAME>
2-diphenylphosphoryl-3,4-dihydro-1H-isoquinoline

> <PUBCHEM_IUPAC_CAS_NAME>
2-diphenylphosphoryl-3,4-dihydro-1H-isoquinoline

> <PUBCHEM_IUPAC_NAME>
2-diphenylphosphoryl-3,4-dihydro-1H-isoquinoline

> <PUBCHEM_IUPAC_SYSTEMATIC_NAME>
2-diphenylphosphoryl-3,4-dihydro-1H-isoquinoline

> <PUBCHEM_IUPAC_TRADITIONAL_NAME>
2-diphenylphosphoryl-3,4-dihydro-1H-isoquinoline

> <PUBCHEM_IUPAC_INCHI>
InChI=1S/C21H20NOP/c23-24(20-11-3-1-4-12-20,21-13-5-2-6-14-21)22-16-15-18-9-7-8-10-19(18)17-22/h1-14H,15-17H2

> <PUBCHEM_IUPAC_INCHIKEY>
FXRBDNDQSKYADK-UHFFFAOYSA-N

> <PUBCHEM_XLOGP3_AA>
4.3

> <PUBCHEM_EXACT_MASS>
333.128251

> <PUBCHEM_MOLECULAR_FORMULA>
C21H20NOP

> <PUBCHEM_MOLECULAR_WEIGHT>
333.363362

> <PUBCHEM_OPENEYE_CAN_SMILES>
C1CN(CC2=CC=CC=C21)P(=O)(C3=CC=CC=C3)C4=CC=CC=C4

> <PUBCHEM_OPENEYE_ISO_SMILES>
C1CN(CC2=CC=CC=C21)P(=O)(C3=CC=CC=C3)C4=CC=CC=C4

> <PUBCHEM_CACTVS_TPSA>
20.3

> <PUBCHEM_MONOISOTOPIC_WEIGHT>
333.128251

> <PUBCHEM_TOTAL_CHARGE>
0

> <PUBCHEM_HEAVY_ATOM_COUNT>
24

> <PUBCHEM_ATOM_DEF_STEREO_COUNT>
0

> <PUBCHEM_ATOM_UDEF_STEREO_COUNT>
0

> <PUBCHEM_BOND_DEF_STEREO_COUNT>
0

> <PUBCHEM_BOND_UDEF_STEREO_COUNT>
0

> <PUBCHEM_ISOTOPIC_ATOM_COUNT>
0

> <PUBCHEM_COMPONENT_COUNT>
1

> <PUBCHEM_CACTVS_TAUTO_COUNT>
1

> <PUBCHEM_COORDINATE_TYPE>
1
5
255

> <PUBCHEM_BONDANNOTATIONS>
10  13  8
10  15  8
11  17  8
12  18  8
13  19  8
14  20  8
15  22  8
16  21  8
17  18  8
19  24  8
20  23  8
21  23  8
22  24  8
7  11  8
7  8  8
8  12  8
9  14  8
9  16  8

$$$$

