9619
  -OEChem-06261203523D

 39 38  0     0  0  0  0  0  0999 V2000
    7.1543   -1.1355    0.5189 F   0  0  0  0  0  0  0  0  0  0  0  0
   -8.1097   -0.5131   -0.0887 O   0  0  0  0  0  0  0  0  0  0  0  0
   -0.5170   -0.2699   -0.1121 C   0  0  0  0  0  0  0  0  0  0  0  0
    0.7589    0.5389    0.1416 C   0  0  0  0  0  0  0  0  0  0  0  0
   -1.8343    0.4641    0.1589 C   0  0  0  0  0  0  0  0  0  0  0  0
    2.0392   -0.2134   -0.2274 C   0  0  0  0  0  0  0  0  0  0  0  0
   -3.1083   -0.3222   -0.1656 C   0  0  0  0  0  0  0  0  0  0  0  0
    3.2819    0.6272    0.0751 C   0  0  0  0  0  0  0  0  0  0  0  0
   -4.4248    0.3848    0.1725 C   0  0  0  0  0  0  0  0  0  0  0  0
    4.5647   -0.1353   -0.2617 C   0  0  0  0  0  0  0  0  0  0  0  0
   -5.6983   -0.4271   -0.0922 C   0  0  0  0  0  0  0  0  0  0  0  0
    5.8055    0.7177    0.0077 C   0  0  0  0  0  0  0  0  0  0  0  0
   -6.9959    0.3303    0.1645 C   0  0  0  0  0  0  0  0  0  0  0  0
    7.0839   -0.0464   -0.2915 C   0  0  0  0  0  0  0  0  0  0  0  0
   -0.5170   -0.6023   -1.1580 H   0  0  0  0  0  0  0  0  0  0  0  0
   -0.4880   -1.1797    0.5006 H   0  0  0  0  0  0  0  0  0  0  0  0
    0.7107    1.4709   -0.4350 H   0  0  0  0  0  0  0  0  0  0  0  0
    0.7927    0.8235    1.2005 H   0  0  0  0  0  0  0  0  0  0  0  0
   -1.8445    1.3966   -0.4192 H   0  0  0  0  0  0  0  0  0  0  0  0
   -1.8583    0.7558    1.2163 H   0  0  0  0  0  0  0  0  0  0  0  0
    2.0844   -1.1535    0.3355 H   0  0  0  0  0  0  0  0  0  0  0  0
    2.0185   -0.4740   -1.2923 H   0  0  0  0  0  0  0  0  0  0  0  0
   -3.1063   -0.5745   -1.2332 H   0  0  0  0  0  0  0  0  0  0  0  0
   -3.0767   -1.2753    0.3773 H   0  0  0  0  0  0  0  0  0  0  0  0
    3.2897    0.9057    1.1359 H   0  0  0  0  0  0  0  0  0  0  0  0
    3.2436    1.5581   -0.5036 H   0  0  0  0  0  0  0  0  0  0  0  0
   -4.4095    0.6739    1.2308 H   0  0  0  0  0  0  0  0  0  0  0  0
   -4.4749    1.3178   -0.4027 H   0  0  0  0  0  0  0  0  0  0  0  0
    4.5493   -0.4351   -1.3167 H   0  0  0  0  0  0  0  0  0  0  0  0
    4.6098   -1.0547    0.3347 H   0  0  0  0  0  0  0  0  0  0  0  0
   -5.6965   -0.7797   -1.1316 H   0  0  0  0  0  0  0  0  0  0  0  0
   -5.6857   -1.3361    0.5226 H   0  0  0  0  0  0  0  0  0  0  0  0
    5.7738    1.6284   -0.6009 H   0  0  0  0  0  0  0  0  0  0  0  0
    5.8111    1.0201    1.0614 H   0  0  0  0  0  0  0  0  0  0  0  0
   -7.0660    1.2048   -0.4902 H   0  0  0  0  0  0  0  0  0  0  0  0
   -7.0444    0.6651    1.2056 H   0  0  0  0  0  0  0  0  0  0  0  0
    7.1160   -0.3910   -1.3292 H   0  0  0  0  0  0  0  0  0  0  0  0
    7.9633    0.5742   -0.0976 H   0  0  0  0  0  0  0  0  0  0  0  0
   -8.9101    0.0102    0.0877 H   0  0  0  0  0  0  0  0  0  0  0  0
  1 14  1  0  0  0  0
  2 13  1  0  0  0  0
  2 39  1  0  0  0  0
  3  4  1  0  0  0  0
  3  5  1  0  0  0  0
  3 15  1  0  0  0  0
  3 16  1  0  0  0  0
  4  6  1  0  0  0  0
  4 17  1  0  0  0  0
  4 18  1  0  0  0  0
  5  7  1  0  0  0  0
  5 19  1  0  0  0  0
  5 20  1  0  0  0  0
  6  8  1  0  0  0  0
  6 21  1  0  0  0  0
  6 22  1  0  0  0  0
  7  9  1  0  0  0  0
  7 23  1  0  0  0  0
  7 24  1  0  0  0  0
  8 10  1  0  0  0  0
  8 25  1  0  0  0  0
  8 26  1  0  0  0  0
  9 11  1  0  0  0  0
  9 27  1  0  0  0  0
  9 28  1  0  0  0  0
 10 12  1  0  0  0  0
 10 29  1  0  0  0  0
 10 30  1  0  0  0  0
 11 13  1  0  0  0  0
 11 31  1  0  0  0  0
 11 32  1  0  0  0  0
 12 14  1  0  0  0  0
 12 33  1  0  0  0  0
 12 34  1  0  0  0  0
 13 35  1  0  0  0  0
 13 36  1  0  0  0  0
 14 37  1  0  0  0  0
 14 38  1  0  0  0  0
M  END
> <PUBCHEM_COMPOUND_CID>
9619

> <PUBCHEM_CONFORMER_RMSD>
1.2

> <PUBCHEM_CONFORMER_DIVERSEORDER>
1
35
19
10
2
60
14
7
11
9
15
31
16
20
29
47
44
36
8
38
50
43
57
17
32
3
13
25
27
5
41
59
28
52
62
6
48
33
37
26
46
49
24
54
53
18
34
21
56
12
40
23
30
39
4
58
45
61
55
22
51
42

> <PUBCHEM_MMFF94_PARTIAL_CHARGES>
5
1 -0.34
13 0.28
14 0.34
2 -0.68
39 0.4

> <PUBCHEM_EFFECTIVE_ROTOR_COUNT>
11

> <PUBCHEM_PHARMACOPHORE_FEATURES>
2
1 2 acceptor
1 2 donor

> <PUBCHEM_HEAVY_ATOM_COUNT>
14

> <PUBCHEM_ATOM_DEF_STEREO_COUNT>
0

> <PUBCHEM_ATOM_UDEF_STEREO_COUNT>
0

> <PUBCHEM_BOND_DEF_STEREO_COUNT>
0

> <PUBCHEM_BOND_UDEF_STEREO_COUNT>
0

> <PUBCHEM_ISOTOPIC_ATOM_COUNT>
0

> <PUBCHEM_COMPONENT_COUNT>
1

> <PUBCHEM_CACTVS_TAUTO_COUNT>
1

> <PUBCHEM_CONFORMER_ID>
0000259300000001

> <PUBCHEM_MMFF94_ENERGY>
0.8825

> <PUBCHEM_FEATURE_SELFOVERLAP>
10.148

> <PUBCHEM_SHAPE_FINGERPRINT>
12091667 2 18060419115178455905
13533116 47 17489035945841673722
14123256 10 17821727239151944503
14251764 18 18333730230056783115
14251764 46 18410573985151451138
14729087 3 14418127448811849251
15716309 27 18408324375982142087
17834076 25 18410855460128174797
18006028 8 17603586326866586937
20281389 69 18408887330410359424
20621476 8 17418097632775704815
21315763 28 18410575076537738261
22224240 67 14345798248877903660
23035841 295 18334013886919220951
23402539 116 17967537861025204452
23521765 1 18335420166374993741
28498 318 18272372000980650334
33532 11 18130792282582195706
33684 2 18410856563940038115
42788 4 18408040710830722548
8209 1 18412544310320819621

> <PUBCHEM_SHAPE_MULTIPOLES>
274.97
24.15
0.83
0.64
6.72
0
0
2.99
0.51
-0.42
0.04
-0.18
0.01
-0.3

> <PUBCHEM_SHAPE_SELFOVERLAP>
490.021

> <PUBCHEM_SHAPE_VOLUME>
178.1

> <PUBCHEM_COORDINATE_TYPE>
2
5
10

$$$$

