12455
  -OEChem-06261206572D

 43 44  0     0  0  0  0  0  0999 V2000
    3.7320   -4.1550    0.0000 O   0  0  0  0  0  0  0  0  0  0  0  0
    4.5981    4.3450    0.0000 O   0  0  0  0  0  0  0  0  0  0  0  0
    3.7320   -0.1550    0.0000 C   0  0  0  0  0  0  0  0  0  0  0  0
    4.5981    0.3450    0.0000 C   0  0  0  0  0  0  0  0  0  0  0  0
    2.8660    0.3450    0.0000 C   0  0  0  0  0  0  0  0  0  0  0  0
    5.4641   -0.1550    0.0000 C   0  0  0  0  0  0  0  0  0  0  0  0
    3.7320   -1.1550    0.0000 C   0  0  0  0  0  0  0  0  0  0  0  0
    4.5981    1.3450    0.0000 C   0  0  0  0  0  0  0  0  0  0  0  0
    2.0000   -0.1550    0.0000 C   0  0  0  0  0  0  0  0  0  0  0  0
    6.3301    0.3450    0.0000 C   0  0  0  0  0  0  0  0  0  0  0  0
    2.8660   -1.6550    0.0000 C   0  0  0  0  0  0  0  0  0  0  0  0
    4.5981   -1.6550    0.0000 C   0  0  0  0  0  0  0  0  0  0  0  0
    5.4641    1.8450    0.0000 C   0  0  0  0  0  0  0  0  0  0  0  0
    3.7320    1.8450    0.0000 C   0  0  0  0  0  0  0  0  0  0  0  0
    2.8660   -2.6550    0.0000 C   0  0  0  0  0  0  0  0  0  0  0  0
    4.5981   -2.6550    0.0000 C   0  0  0  0  0  0  0  0  0  0  0  0
    3.7320   -3.1550    0.0000 C   0  0  0  0  0  0  0  0  0  0  0  0
    5.4641    2.8450    0.0000 C   0  0  0  0  0  0  0  0  0  0  0  0
    3.7320    2.8450    0.0000 C   0  0  0  0  0  0  0  0  0  0  0  0
    4.5981    3.3450    0.0000 C   0  0  0  0  0  0  0  0  0  0  0  0
    2.8660   -4.6550    0.0000 C   0  0  0  0  0  0  0  0  0  0  0  0
    3.2646    0.8199    0.0000 H   0  0  0  0  0  0  0  0  0  0  0  0
    2.4675    0.8199    0.0000 H   0  0  0  0  0  0  0  0  0  0  0  0
    5.0656   -0.6299    0.0000 H   0  0  0  0  0  0  0  0  0  0  0  0
    5.8626   -0.6299    0.0000 H   0  0  0  0  0  0  0  0  0  0  0  0
    1.6900    0.3819    0.0000 H   0  0  0  0  0  0  0  0  0  0  0  0
    1.4631   -0.4650    0.0000 H   0  0  0  0  0  0  0  0  0  0  0  0
    2.3100   -0.6919    0.0000 H   0  0  0  0  0  0  0  0  0  0  0  0
    6.6401   -0.1919    0.0000 H   0  0  0  0  0  0  0  0  0  0  0  0
    6.8671    0.6550    0.0000 H   0  0  0  0  0  0  0  0  0  0  0  0
    6.0201    0.8819    0.0000 H   0  0  0  0  0  0  0  0  0  0  0  0
    2.3291   -1.3450    0.0000 H   0  0  0  0  0  0  0  0  0  0  0  0
    5.1350   -1.3450    0.0000 H   0  0  0  0  0  0  0  0  0  0  0  0
    6.0010    1.5350    0.0000 H   0  0  0  0  0  0  0  0  0  0  0  0
    3.1951    1.5350    0.0000 H   0  0  0  0  0  0  0  0  0  0  0  0
    2.3291   -2.9650    0.0000 H   0  0  0  0  0  0  0  0  0  0  0  0
    5.1350   -2.9650    0.0000 H   0  0  0  0  0  0  0  0  0  0  0  0
    6.0010    3.1550    0.0000 H   0  0  0  0  0  0  0  0  0  0  0  0
    3.1951    3.1550    0.0000 H   0  0  0  0  0  0  0  0  0  0  0  0
    5.1350    4.6550    0.0000 H   0  0  0  0  0  0  0  0  0  0  0  0
    2.5560   -4.1181    0.0000 H   0  0  0  0  0  0  0  0  0  0  0  0
    2.3291   -4.9650    0.0000 H   0  0  0  0  0  0  0  0  0  0  0  0
    3.1760   -5.1919    0.0000 H   0  0  0  0  0  0  0  0  0  0  0  0
  1 17  1  0  0  0  0
  1 21  1  0  0  0  0
  2 20  1  0  0  0  0
  2 40  1  0  0  0  0
  3  4  2  3  0  0  0
  3  5  1  0  0  0  0
  3  7  1  0  0  0  0
  4  6  1  0  0  0  0
  4  8  1  0  0  0  0
  5  9  1  0  0  0  0
  5 22  1  0  0  0  0
  5 23  1  0  0  0  0
  6 10  1  0  0  0  0
  6 24  1  0  0  0  0
  6 25  1  0  0  0  0
  7 11  2  0  0  0  0
  7 12  1  0  0  0  0
  8 13  2  0  0  0  0
  8 14  1  0  0  0  0
  9 26  1  0  0  0  0
  9 27  1  0  0  0  0
  9 28  1  0  0  0  0
 10 29  1  0  0  0  0
 10 30  1  0  0  0  0
 10 31  1  0  0  0  0
 11 15  1  0  0  0  0
 11 32  1  0  0  0  0
 12 16  2  0  0  0  0
 12 33  1  0  0  0  0
 13 18  1  0  0  0  0
 13 34  1  0  0  0  0
 14 19  2  0  0  0  0
 14 35  1  0  0  0  0
 15 17  2  0  0  0  0
 15 36  1  0  0  0  0
 16 17  1  0  0  0  0
 16 37  1  0  0  0  0
 18 20  2  0  0  0  0
 18 38  1  0  0  0  0
 19 20  1  0  0  0  0
 19 39  1  0  0  0  0
 21 41  1  0  0  0  0
 21 42  1  0  0  0  0
 21 43  1  0  0  0  0
M  END
> <PUBCHEM_COMPOUND_CID>
12455

> <PUBCHEM_COMPOUND_CANONICALIZED>
1

> <PUBCHEM_CACTVS_COMPLEXITY>
332

> <PUBCHEM_CACTVS_HBOND_ACCEPTOR>
2

> <PUBCHEM_CACTVS_HBOND_DONOR>
1

> <PUBCHEM_CACTVS_ROTATABLE_BOND>
5

> <PUBCHEM_CACTVS_SUBSKEYS>
AAADceB4MAAAAAAAAAAAAAAAAAAAAAAAAAAwYAAAAAAAAAABQAAAGgAACAAADASAmAIyBoAABgCAAiBCAAACCAAgIAAIiAAGCIgMJiKGMRqAcCAkwBEIuAeAwKAOIAAAAAAAAABAAAAAAAAAAAAAAAAAAA==

> <PUBCHEM_IUPAC_OPENEYE_NAME>
4-[1-ethyl-2-(4-methoxyphenyl)but-1-enyl]phenol

> <PUBCHEM_IUPAC_CAS_NAME>
4-[4-(4-methoxyphenyl)hex-3-en-3-yl]phenol

> <PUBCHEM_IUPAC_NAME>
4-[4-(4-methoxyphenyl)hex-3-en-3-yl]phenol

> <PUBCHEM_IUPAC_SYSTEMATIC_NAME>
4-[4-(4-methoxyphenyl)hex-3-en-3-yl]phenol

> <PUBCHEM_IUPAC_TRADITIONAL_NAME>
4-[1-ethyl-2-(4-methoxyphenyl)but-1-enyl]phenol

> <PUBCHEM_IUPAC_INCHI>
InChI=1S/C19H22O2/c1-4-18(14-6-10-16(20)11-7-14)19(5-2)15-8-12-17(21-3)13-9-15/h6-13,20H,4-5H2,1-3H3

> <PUBCHEM_IUPAC_INCHIKEY>
CKMDPZMWUZDKAI-UHFFFAOYSA-N

> <PUBCHEM_XLOGP3>
5.4

> <PUBCHEM_EXACT_MASS>
282.16198

> <PUBCHEM_MOLECULAR_FORMULA>
C19H22O2

> <PUBCHEM_MOLECULAR_WEIGHT>
282.37678

> <PUBCHEM_OPENEYE_CAN_SMILES>
CCC(=C(CC)C1=CC=C(C=C1)OC)C2=CC=C(C=C2)O

> <PUBCHEM_OPENEYE_ISO_SMILES>
CCC(=C(CC)C1=CC=C(C=C1)OC)C2=CC=C(C=C2)O

> <PUBCHEM_CACTVS_TPSA>
29.5

> <PUBCHEM_MONOISOTOPIC_WEIGHT>
282.16198

> <PUBCHEM_TOTAL_CHARGE>
0

> <PUBCHEM_HEAVY_ATOM_COUNT>
21

> <PUBCHEM_ATOM_DEF_STEREO_COUNT>
0

> <PUBCHEM_ATOM_UDEF_STEREO_COUNT>
0

> <PUBCHEM_BOND_DEF_STEREO_COUNT>
0

> <PUBCHEM_BOND_UDEF_STEREO_COUNT>
1

> <PUBCHEM_ISOTOPIC_ATOM_COUNT>
0

> <PUBCHEM_COMPONENT_COUNT>
1

> <PUBCHEM_CACTVS_TAUTO_COUNT>
5

> <PUBCHEM_COORDINATE_TYPE>
1
5
255

> <PUBCHEM_BONDANNOTATIONS>
11  15  8
12  16  8
13  18  8
14  19  8
15  17  8
16  17  8
18  20  8
19  20  8
3  4  1
7  11  8
7  12  8
8  13  8
8  14  8

$$$$

