17396323
  -OEChem-06241222552D

 46 47  0     1  0  0  0  0  0999 V2000
    7.1962   -1.0670    0.0000 O   0  0  0  0  0  0  0  0  0  0  0  0
    8.9282   -2.0670    0.0000 O   0  0  0  0  0  0  0  0  0  0  0  0
   12.2782    1.6535    0.0000 O   0  0  0  0  0  0  0  0  0  0  0  0
   10.6959    2.3580    0.0000 O   0  0  0  0  0  0  0  0  0  0  0  0
    6.3301    0.4330    0.0000 O   0  0  0  0  0  0  0  0  0  0  0  0
    2.8660   -2.5670    0.0000 O   0  0  0  0  0  0  0  0  0  0  0  0
   10.7078   -0.9738    0.0000 N   0  0  0  0  0  0  0  0  0  0  0  0
    4.5981   -2.5670    0.0000 N   0  0  0  0  0  0  0  0  0  0  0  0
    9.7942   -0.5670    0.0000 C   0  0  0  0  0  0  0  0  0  0  0  0
    9.8988    0.4275    0.0000 C   0  0  0  0  0  0  0  0  0  0  0  0
   10.8769    0.6354    0.0000 C   0  0  0  0  0  0  0  0  0  0  0  0
   11.3769   -0.2306    0.0000 C   0  0  0  0  0  0  0  0  0  0  0  0
    8.9282   -1.0670    0.0000 C   0  0  0  0  0  0  0  0  0  0  0  0
    8.0622   -0.5670    0.0000 C   0  0  3  0  0  0  0  0  0  0  0  0
    9.1556    1.0966    0.0000 C   0  0  0  0  0  0  0  0  0  0  0  0
   12.3714   -0.3351    0.0000 C   0  0  0  0  0  0  0  0  0  0  0  0
    8.0622    0.4330    0.0000 C   0  0  0  0  0  0  0  0  0  0  0  0
   11.2836    1.5490    0.0000 C   0  0  0  0  0  0  0  0  0  0  0  0
    6.3301   -0.5670    0.0000 C   0  0  0  0  0  0  0  0  0  0  0  0
    5.4641   -1.0670    0.0000 C   0  0  0  0  0  0  0  0  0  0  0  0
    4.5981   -0.5670    0.0000 C   0  0  0  0  0  0  0  0  0  0  0  0
   12.6849    2.5670    0.0000 C   0  0  0  0  0  0  0  0  0  0  0  0
    5.4641   -2.0670    0.0000 C   0  0  0  0  0  0  0  0  0  0  0  0
    3.7320   -1.0670    0.0000 C   0  0  0  0  0  0  0  0  0  0  0  0
    3.7320   -2.0670    0.0000 C   0  0  0  0  0  0  0  0  0  0  0  0
    2.0000   -2.0670    0.0000 C   0  0  0  0  0  0  0  0  0  0  0  0
   10.8367   -1.5802    0.0000 H   0  0  0  0  0  0  0  0  0  0  0  0
    8.0622   -1.1870    0.0000 H   0  0  0  0  0  0  0  0  0  0  0  0
    9.5705    1.5574    0.0000 H   0  0  0  0  0  0  0  0  0  0  0  0
    8.6949    1.5115    0.0000 H   0  0  0  0  0  0  0  0  0  0  0  0
    8.7408    0.6359    0.0000 H   0  0  0  0  0  0  0  0  0  0  0  0
   12.3066   -0.9518    0.0000 H   0  0  0  0  0  0  0  0  0  0  0  0
   12.9880   -0.4000    0.0000 H   0  0  0  0  0  0  0  0  0  0  0  0
   12.4362    0.2815    0.0000 H   0  0  0  0  0  0  0  0  0  0  0  0
    8.6822    0.4330    0.0000 H   0  0  0  0  0  0  0  0  0  0  0  0
    8.0622    1.0530    0.0000 H   0  0  0  0  0  0  0  0  0  0  0  0
    7.4422    0.4330    0.0000 H   0  0  0  0  0  0  0  0  0  0  0  0
    4.5981    0.0530    0.0000 H   0  0  0  0  0  0  0  0  0  0  0  0
   13.2513    2.3148    0.0000 H   0  0  0  0  0  0  0  0  0  0  0  0
   12.9371    3.1334    0.0000 H   0  0  0  0  0  0  0  0  0  0  0  0
   12.1185    2.8192    0.0000 H   0  0  0  0  0  0  0  0  0  0  0  0
    6.0010   -2.3770    0.0000 H   0  0  0  0  0  0  0  0  0  0  0  0
    3.1951   -0.7570    0.0000 H   0  0  0  0  0  0  0  0  0  0  0  0
    2.3100   -1.5301    0.0000 H   0  0  0  0  0  0  0  0  0  0  0  0
    1.4631   -1.7570    0.0000 H   0  0  0  0  0  0  0  0  0  0  0  0
    1.6900   -2.6040    0.0000 H   0  0  0  0  0  0  0  0  0  0  0  0
  1 14  1  0  0  0  0
  1 19  1  0  0  0  0
  2 13  2  0  0  0  0
  3 18  1  0  0  0  0
  3 22  1  0  0  0  0
  4 18  2  0  0  0  0
  5 19  2  0  0  0  0
  6 25  1  0  0  0  0
  6 26  1  0  0  0  0
  7  9  1  0  0  0  0
  7 12  1  0  0  0  0
  7 27  1  0  0  0  0
  8 23  1  0  0  0  0
  8 25  2  0  0  0  0
  9 10  2  0  0  0  0
  9 13  1  0  0  0  0
 10 11  1  0  0  0  0
 10 15  1  0  0  0  0
 11 12  2  0  0  0  0
 11 18  1  0  0  0  0
 12 16  1  0  0  0  0
 13 14  1  0  0  0  0
 14 17  1  0  0  0  0
 14 28  1  0  0  0  0
 15 29  1  0  0  0  0
 15 30  1  0  0  0  0
 15 31  1  0  0  0  0
 16 32  1  0  0  0  0
 16 33  1  0  0  0  0
 16 34  1  0  0  0  0
 17 35  1  0  0  0  0
 17 36  1  0  0  0  0
 17 37  1  0  0  0  0
 19 20  1  0  0  0  0
 20 21  1  0  0  0  0
 20 23  2  0  0  0  0
 21 24  2  0  0  0  0
 21 38  1  0  0  0  0
 22 39  1  0  0  0  0
 22 40  1  0  0  0  0
 22 41  1  0  0  0  0
 23 42  1  0  0  0  0
 24 25  1  0  0  0  0
 24 43  1  0  0  0  0
 26 44  1  0  0  0  0
 26 45  1  0  0  0  0
 26 46  1  0  0  0  0
M  END
> <PUBCHEM_COMPOUND_CID>
17396323

> <PUBCHEM_COMPOUND_CANONICALIZED>
1

> <PUBCHEM_CACTVS_COMPLEXITY>
540

> <PUBCHEM_CACTVS_HBOND_ACCEPTOR>
7

> <PUBCHEM_CACTVS_HBOND_DONOR>
1

> <PUBCHEM_CACTVS_ROTATABLE_BOND>
8

> <PUBCHEM_CACTVS_SUBSKEYS>
AAADceB7OAAAAAAAAAAAAAAAAAAAAWAAAAAsAAAAAAAAAAAB4AAAHgAQAAAADBzhngY+jJLJlACoA7T3TAKCiCA3IiAI2SH+bNgMJvrEtb+GMahm0BHI6ce8//q+gAAAAAAAAAAAAAAAAAAAAAAAAAAAAA==

> <PUBCHEM_IUPAC_OPENEYE_NAME>
[2-(4-methoxycarbonyl-3,5-dimethyl-1H-pyrrol-2-yl)-1-methyl-2-oxo-ethyl] 6-methoxypyridine-3-carboxylate

> <PUBCHEM_IUPAC_CAS_NAME>
6-methoxy-3-pyridinecarboxylic acid [1-(4-methoxycarbonyl-3,5-dimethyl-1H-pyrrol-2-yl)-1-oxopropan-2-yl] ester

> <PUBCHEM_IUPAC_NAME>
[1-(4-methoxycarbonyl-3,5-dimethyl-1H-pyrrol-2-yl)-1-oxopropan-2-yl] 6-methoxypyridine-3-carboxylate

> <PUBCHEM_IUPAC_SYSTEMATIC_NAME>
[1-(4-methoxycarbonyl-3,5-dimethyl-1H-pyrrol-2-yl)-1-oxidanylidene-propan-2-yl] 6-methoxypyridine-3-carboxylate

> <PUBCHEM_IUPAC_TRADITIONAL_NAME>
6-methoxynicotinic acid [2-(4-carbomethoxy-3,5-dimethyl-1H-pyrrol-2-yl)-2-keto-1-methyl-ethyl] ester

> <PUBCHEM_IUPAC_INCHI>
InChI=1S/C18H20N2O6/c1-9-14(18(23)25-5)10(2)20-15(9)16(21)11(3)26-17(22)12-6-7-13(24-4)19-8-12/h6-8,11,20H,1-5H3

> <PUBCHEM_IUPAC_INCHIKEY>
SZVPMAKPOAIWOO-UHFFFAOYSA-N

> <PUBCHEM_XLOGP3_AA>
2.6

> <PUBCHEM_EXACT_MASS>
360.132136

> <PUBCHEM_MOLECULAR_FORMULA>
C18H20N2O6

> <PUBCHEM_MOLECULAR_WEIGHT>
360.3612

> <PUBCHEM_OPENEYE_CAN_SMILES>
CC1=C(NC(=C1C(=O)OC)C)C(=O)C(C)OC(=O)C2=CN=C(C=C2)OC

> <PUBCHEM_OPENEYE_ISO_SMILES>
CC1=C(NC(=C1C(=O)OC)C)C(=O)C(C)OC(=O)C2=CN=C(C=C2)OC

> <PUBCHEM_CACTVS_TPSA>
108

> <PUBCHEM_MONOISOTOPIC_WEIGHT>
360.132136

> <PUBCHEM_TOTAL_CHARGE>
0

> <PUBCHEM_HEAVY_ATOM_COUNT>
26

> <PUBCHEM_ATOM_DEF_STEREO_COUNT>
0

> <PUBCHEM_ATOM_UDEF_STEREO_COUNT>
1

> <PUBCHEM_BOND_DEF_STEREO_COUNT>
0

> <PUBCHEM_BOND_UDEF_STEREO_COUNT>
0

> <PUBCHEM_ISOTOPIC_ATOM_COUNT>
0

> <PUBCHEM_COMPONENT_COUNT>
1

> <PUBCHEM_CACTVS_TAUTO_COUNT>
33

> <PUBCHEM_COORDINATE_TYPE>
1
5
255

> <PUBCHEM_BONDANNOTATIONS>
10  11  8
11  12  8
14  17  3
20  21  8
20  23  8
21  24  8
24  25  8
7  12  8
7  9  8
8  23  8
8  25  8
9  10  8

$$$$

