586281
  -OEChem-06241222463D

 24 24  0     1  0  0  0  0  0999 V2000
    0.6147    2.9580   -0.0288 Cl  0  0  0  0  0  0  0  0  0  0  0  0
    0.7179   -1.8744    0.4761 S   0  0  0  0  0  0  0  0  0  0  0  0
    2.1897    0.7967    1.2396 O   0  0  0  0  0  0  0  0  0  0  0  0
    1.8941   -0.8644   -0.4749 C   0  0  2  0  0  0  0  0  0  0  0  0
    3.2917   -1.4631   -0.3932 C   0  0  0  0  0  0  0  0  0  0  0  0
    1.8547    0.5538    0.0798 C   0  0  0  0  0  0  0  0  0  0  0  0
   -0.8090   -0.9823    0.2074 C   0  0  0  0  0  0  0  0  0  0  0  0
    1.4089    1.6300   -0.8896 C   0  0  0  0  0  0  0  0  0  0  0  0
   -1.2931   -0.8150   -1.0867 C   0  0  0  0  0  0  0  0  0  0  0  0
   -1.5050   -0.4604    1.2938 C   0  0  0  0  0  0  0  0  0  0  0  0
   -2.4838   -0.1194   -1.2964 C   0  0  0  0  0  0  0  0  0  0  0  0
   -2.6958    0.2351    1.0840 C   0  0  0  0  0  0  0  0  0  0  0  0
   -3.1851    0.4055   -0.2112 C   0  0  0  0  0  0  0  0  0  0  0  0
    1.5910   -0.8569   -1.5265 H   0  0  0  0  0  0  0  0  0  0  0  0
    3.6586   -1.5095    0.6386 H   0  0  0  0  0  0  0  0  0  0  0  0
    3.3203   -2.4726   -0.8174 H   0  0  0  0  0  0  0  0  0  0  0  0
    4.0009   -0.8456   -0.9560 H   0  0  0  0  0  0  0  0  0  0  0  0
    2.2828    2.0182   -1.4191 H   0  0  0  0  0  0  0  0  0  0  0  0
    0.6924    1.2357   -1.6118 H   0  0  0  0  0  0  0  0  0  0  0  0
   -0.7687   -1.2232   -1.9466 H   0  0  0  0  0  0  0  0  0  0  0  0
   -1.1374   -0.5826    2.3094 H   0  0  0  0  0  0  0  0  0  0  0  0
   -2.8658    0.0121   -2.3046 H   0  0  0  0  0  0  0  0  0  0  0  0
   -3.2417    0.6446    1.9288 H   0  0  0  0  0  0  0  0  0  0  0  0
   -4.1122    0.9471   -0.3744 H   0  0  0  0  0  0  0  0  0  0  0  0
  1  8  1  0  0  0  0
  2  4  1  0  0  0  0
  2  7  1  0  0  0  0
  3  6  2  0  0  0  0
  4  5  1  0  0  0  0
  4  6  1  0  0  0  0
  4 14  1  0  0  0  0
  5 15  1  0  0  0  0
  5 16  1  0  0  0  0
  5 17  1  0  0  0  0
  6  8  1  0  0  0  0
  7  9  2  0  0  0  0
  7 10  1  0  0  0  0
  8 18  1  0  0  0  0
  8 19  1  0  0  0  0
  9 11  1  0  0  0  0
  9 20  1  0  0  0  0
 10 12  2  0  0  0  0
 10 21  1  0  0  0  0
 11 13  2  0  0  0  0
 11 22  1  0  0  0  0
 12 13  1  0  0  0  0
 12 23  1  0  0  0  0
 13 24  1  0  0  0  0
M  END
> <PUBCHEM_COMPOUND_CID>
586281

> <PUBCHEM_CONFORMER_RMSD>
0.6

> <PUBCHEM_CONFORMER_DIVERSEORDER>
11
63
29
25
10
35
2
19
14
32
44
53
33
54
55
56
21
38
61
60
62
34
50
23
36
48
41
52
59
51
42
58
49
46
22
43
4
31
47
37
30
1
7
45
24
17
20
57
26
13
12
8
9
5
6
15
3
16
40
18
39
28
27

> <PUBCHEM_MMFF94_PARTIAL_CHARGES>
17
1 -0.29
10 -0.15
11 -0.15
12 -0.15
13 -0.15
2 -0.33
20 0.15
21 0.15
22 0.15
23 0.15
24 0.15
3 -0.57
4 0.29
6 0.45
7 0.1
8 0.35
9 -0.15

> <PUBCHEM_EFFECTIVE_ROTOR_COUNT>
4

> <PUBCHEM_PHARMACOPHORE_FEATURES>
3
1 3 acceptor
1 5 hydrophobe
6 7 9 10 11 12 13 rings

> <PUBCHEM_HEAVY_ATOM_COUNT>
13

> <PUBCHEM_ATOM_DEF_STEREO_COUNT>
0

> <PUBCHEM_ATOM_UDEF_STEREO_COUNT>
1

> <PUBCHEM_BOND_DEF_STEREO_COUNT>
0

> <PUBCHEM_BOND_UDEF_STEREO_COUNT>
0

> <PUBCHEM_ISOTOPIC_ATOM_COUNT>
0

> <PUBCHEM_COMPONENT_COUNT>
1

> <PUBCHEM_CACTVS_TAUTO_COUNT>
3

> <PUBCHEM_CONFORMER_ID>
0008F2290000000B

> <PUBCHEM_MMFF94_ENERGY>
27.9881

> <PUBCHEM_FEATURE_SELFOVERLAP>
15.223

> <PUBCHEM_SHAPE_FINGERPRINT>
10353120 184 18197198442534520078
104564 63 17978221991690222348
10857977 72 16343692228028883303
13693222 7 18262234391844871505
15775835 57 17894624842545659593
16945 1 17560809852451628143
17357990 137 17605806257838105145
17834069 17 18196066881844956979
20653085 51 18411704283600716159
21130352 189 18412260666332798996
21524375 3 17694216669504760668
21947302 44 18340771437954152234
23175994 123 18129652144816341174
23419403 2 12371925421003476197
23557571 272 16372137577080867967
2748010 2 18200025119172521934
31174 14 18055895633472271939
3286 77 18201711830461072647
5084963 1 18335420136463476351
6992083 37 18040433342863239695
74978 22 18410289173022373710
7832392 63 18264500640408796541
81228 2 17981600782591081592

> <PUBCHEM_SHAPE_MULTIPOLES>
267.38
4.66
2.32
1.26
0.61
1.73
-0.04
-0.67
0.25
-1.52
0
0.52
-0.04
0.1

> <PUBCHEM_SHAPE_SELFOVERLAP>
517.876

> <PUBCHEM_SHAPE_VOLUME>
163.6

> <PUBCHEM_COORDINATE_TYPE>
2
5
10

$$$$

