17395593
  -OEChem-06241222513D

 41 43  0     1  0  0  0  0  0999 V2000
    2.6170   -2.8087    0.4616 O   0  0  0  0  0  0  0  0  0  0  0  0
   -2.5108   -0.1726   -0.1393 N   0  0  1  0  0  0  0  0  0  0  0  0
    0.1611    0.2585   -0.6064 N   0  0  0  0  0  0  0  0  0  0  0  0
    2.3289   -0.5197    0.0224 N   0  0  0  0  0  0  0  0  0  0  0  0
   -3.8146    0.0849   -0.7932 C   0  0  1  0  0  0  0  0  0  0  0  0
   -4.5728    1.2054   -0.0530 C   0  0  0  0  0  0  0  0  0  0  0  0
   -2.6887   -0.5351    1.2779 C   0  0  0  0  0  0  0  0  0  0  0  0
   -4.7509    0.8904    1.4266 C   0  0  0  0  0  0  0  0  0  0  0  0
   -3.4070    0.5632    2.0585 C   0  0  0  0  0  0  0  0  0  0  0  0
   -1.7434   -1.2251   -0.8117 C   0  0  0  0  0  0  0  0  0  0  0  0
   -3.6674    0.4991   -2.2644 C   0  0  0  0  0  0  0  0  0  0  0  0
   -0.2870   -1.0344   -0.5027 C   0  0  0  0  0  0  0  0  0  0  0  0
    0.4839   -2.0743   -0.1566 C   0  0  0  0  0  0  0  0  0  0  0  0
    1.4166    0.4765   -0.3502 C   0  0  0  0  0  0  0  0  0  0  0  0
    1.9170   -1.8502    0.1417 C   0  0  0  0  0  0  0  0  0  0  0  0
    3.6582   -0.2023    0.2808 C   0  0  0  0  0  0  0  0  0  0  0  0
    1.9423    1.8683   -0.4522 C   0  0  0  0  0  0  0  0  0  0  0  0
    4.1308    1.0501    0.1890 C   0  0  0  0  0  0  0  0  0  0  0  0
    3.2306    2.1127   -0.1917 C   0  0  0  0  0  0  0  0  0  0  0  0
    5.5564    1.4134    0.4629 C   0  0  0  0  0  0  0  0  0  0  0  0
   -4.4283   -0.8262   -0.7591 H   0  0  0  0  0  0  0  0  0  0  0  0
   -5.5609    1.3532   -0.5056 H   0  0  0  0  0  0  0  0  0  0  0  0
   -4.0309    2.1549   -0.1573 H   0  0  0  0  0  0  0  0  0  0  0  0
   -1.7177   -0.6952    1.7617 H   0  0  0  0  0  0  0  0  0  0  0  0
   -3.2527   -1.4730    1.3709 H   0  0  0  0  0  0  0  0  0  0  0  0
   -5.4310    0.0377    1.5420 H   0  0  0  0  0  0  0  0  0  0  0  0
   -5.2110    1.7419    1.9399 H   0  0  0  0  0  0  0  0  0  0  0  0
   -2.7826    1.4652    2.0856 H   0  0  0  0  0  0  0  0  0  0  0  0
   -3.5543    0.2447    3.0967 H   0  0  0  0  0  0  0  0  0  0  0  0
   -2.1077   -2.2262   -0.5467 H   0  0  0  0  0  0  0  0  0  0  0  0
   -1.8097   -1.1578   -1.9015 H   0  0  0  0  0  0  0  0  0  0  0  0
   -2.9146    1.2861   -2.3849 H   0  0  0  0  0  0  0  0  0  0  0  0
   -3.3976   -0.3432   -2.9080 H   0  0  0  0  0  0  0  0  0  0  0  0
   -4.6157    0.8877   -2.6534 H   0  0  0  0  0  0  0  0  0  0  0  0
    0.1016   -3.0859   -0.0835 H   0  0  0  0  0  0  0  0  0  0  0  0
    4.3099   -1.0221    0.5648 H   0  0  0  0  0  0  0  0  0  0  0  0
    1.2600    2.6602   -0.7383 H   0  0  0  0  0  0  0  0  0  0  0  0
    3.6181    3.1236   -0.2643 H   0  0  0  0  0  0  0  0  0  0  0  0
    5.6193    2.1342    1.2852 H   0  0  0  0  0  0  0  0  0  0  0  0
    6.0182    1.8585   -0.4249 H   0  0  0  0  0  0  0  0  0  0  0  0
    6.1534    0.5388    0.7431 H   0  0  0  0  0  0  0  0  0  0  0  0
  1 15  2  0  0  0  0
  2  5  1  0  0  0  0
  2  7  1  0  0  0  0
  2 10  1  0  0  0  0
  3 12  1  0  0  0  0
  3 14  2  0  0  0  0
  4 14  1  0  0  0  0
  4 15  1  0  0  0  0
  4 16  1  0  0  0  0
  5  6  1  0  0  0  0
  5 11  1  0  0  0  0
  5 21  1  0  0  0  0
  6  8  1  0  0  0  0
  6 22  1  0  0  0  0
  6 23  1  0  0  0  0
  7  9  1  0  0  0  0
  7 24  1  0  0  0  0
  7 25  1  0  0  0  0
  8  9  1  0  0  0  0
  8 26  1  0  0  0  0
  8 27  1  0  0  0  0
  9 28  1  0  0  0  0
  9 29  1  0  0  0  0
 10 12  1  0  0  0  0
 10 30  1  0  0  0  0
 10 31  1  0  0  0  0
 11 32  1  0  0  0  0
 11 33  1  0  0  0  0
 11 34  1  0  0  0  0
 12 13  2  0  0  0  0
 13 15  1  0  0  0  0
 13 35  1  0  0  0  0
 14 17  1  0  0  0  0
 16 18  2  0  0  0  0
 16 36  1  0  0  0  0
 17 19  2  0  0  0  0
 17 37  1  0  0  0  0
 18 19  1  0  0  0  0
 18 20  1  0  0  0  0
 19 38  1  0  0  0  0
 20 39  1  0  0  0  0
 20 40  1  0  0  0  0
 20 41  1  0  0  0  0
M  END
> <PUBCHEM_COMPOUND_CID>
17395593

> <PUBCHEM_CONFORMER_RMSD>
0.6

> <PUBCHEM_CONFORMER_DIVERSEORDER>
2
45
25
51
14
40
22
41
28
50
35
47
13
46
44
29
52
26
27
18
20
7
36
15
32
9
8
31
34
30
16
48
17
19
37
3
6
23
24
43
11
33
1
21
42
10
12
39
49
4
38
5

> <PUBCHEM_MMFF94_PARTIAL_CHARGES>
20
1 -0.57
10 0.41
12 0.03
13 -0.14
14 0.5
15 0.62
16 -0.04
17 -0.14
18 -0.14
19 -0.15
2 -0.81
20 0.14
3 -0.62
35 0.15
36 0.15
37 0.15
38 0.15
4 -0.23
5 0.27
7 0.27

> <PUBCHEM_EFFECTIVE_ROTOR_COUNT>
3.2

> <PUBCHEM_PHARMACOPHORE_FEATURES>
5
1 1 acceptor
1 2 cation
6 2 5 6 7 8 9 rings
6 3 4 12 13 14 15 rings
6 4 14 16 17 18 19 rings

> <PUBCHEM_HEAVY_ATOM_COUNT>
20

> <PUBCHEM_ATOM_DEF_STEREO_COUNT>
0

> <PUBCHEM_ATOM_UDEF_STEREO_COUNT>
1

> <PUBCHEM_BOND_DEF_STEREO_COUNT>
0

> <PUBCHEM_BOND_UDEF_STEREO_COUNT>
0

> <PUBCHEM_ISOTOPIC_ATOM_COUNT>
0

> <PUBCHEM_COMPONENT_COUNT>
1

> <PUBCHEM_CACTVS_TAUTO_COUNT>
1

> <PUBCHEM_CONFORMER_ID>
01096F8900000002

> <PUBCHEM_MMFF94_ENERGY>
40.361

> <PUBCHEM_FEATURE_SELFOVERLAP>
25.405

> <PUBCHEM_SHAPE_FINGERPRINT>
10382601 240 18342459261887198218
10465860 228 18408599275474796110
10498660 4 15864348086384594817
10906281 52 18265042537102718580
11089746 13 17676494917414145536
11370993 144 18059291093062065813
11543360 7 15430319075217973484
11640471 11 17894623786310615883
12236239 1 17894351094568340893
12390115 104 18123175811123321372
12507557 5 18340206289172979129
12633257 1 17131541739750301305
12644460 14 18271811254593560370
12670546 177 13912607113074621176
13140716 1 18196932171847707544
13583140 156 16988295195830122593
13631057 29 18045229245644811879
13675066 3 17632578270604750815
14123260 362 17749102284187016873
14251764 38 17024603183072502136
14739800 52 17168727279321609826
14790565 3 18198616636873968964
15081414 286 18411133650151671844
15188451 53 15984533396441299345
15209294 21 18260549987687254720
15342168 16 18334284380118275413
15375358 24 17846788420247024007
15475509 8 17607782188129900598
1601671 61 18272089379664585148
1813 80 17610046133663167318
18186145 218 18408597050623682342
18219364 16 18271808986581620605
19049666 15 17416692555942397423
19784866 170 18131632279368857612
19784866 9 18410011031304080528
20157964 124 18338517551677982685
20645477 70 18341341092415326638
20715895 44 17539684021500538353
20739085 24 18270390707134623372
21033648 29 17560803285915968989
21065199 12 18130496514075091043
21503847 285 18188477107570719218
21864079 5 18042675264695216753
22182313 1 18057900210989859094
231179 274 18271813414756108958
23402539 116 17312821554864213612
23557571 272 14490480768374942611
23559900 14 16701177662832419834
283562 15 17834121840211292142
2838139 119 16299525855533094456
3268164 11 16009033873866968941
3472631 163 16805597101618120073
350125 39 18051972515506807918
474 4 18409446959968510305
4921388 177 14562807725639900525
5104073 3 18198071279279970672
602551 16 15626215810379568409
6049 1 17632005459791507455
6328613 192 18191583057033812808
633830 44 18188196629142479220
7226269 152 18041556949970040824
7615 1 17894921766831002655
7970288 3 10303824171893760784
8272917 22 18336826493307937863

> <PUBCHEM_SHAPE_MULTIPOLES>
390.78
10.54
2.21
1.43
0.33
0.88
0
-5.83
-1.86
2.2
-0.09
-2.48
-0.28
-0.52

> <PUBCHEM_SHAPE_SELFOVERLAP>
827.918

> <PUBCHEM_SHAPE_VOLUME>
218.3

> <PUBCHEM_COORDINATE_TYPE>
2
5
10

$$$$

