13910
  -OEChem-06241222403D

 26 27  0     0  0  0  0  0  0999 V2000
    3.5211   -1.3265    0.3120 S   0  0  0  0  0  0  0  0  0  0  0  0
   -1.0949    0.2915   -0.7564 O   0  0  0  0  0  0  0  0  0  0  0  0
   -1.5816    0.2359    1.5053 O   0  0  0  0  0  0  0  0  0  0  0  0
   -3.2658   -0.2292   -0.0298 N   0  0  0  0  0  0  0  0  0  0  0  0
    1.1774   -0.3766   -0.2265 C   0  0  0  0  0  0  0  0  0  0  0  0
    2.4751    0.0281    0.1011 C   0  0  0  0  0  0  0  0  0  0  0  0
    0.1965    0.6234   -0.4330 C   0  0  0  0  0  0  0  0  0  0  0  0
    1.0811   -1.8071   -0.2949 C   0  0  0  0  0  0  0  0  0  0  0  0
    0.5279    1.9754   -0.3103 C   0  0  0  0  0  0  0  0  0  0  0  0
    2.8125    1.3901    0.2259 C   0  0  0  0  0  0  0  0  0  0  0  0
    1.8229    2.3523    0.0161 C   0  0  0  0  0  0  0  0  0  0  0  0
    2.2730   -2.4370   -0.0259 C   0  0  0  0  0  0  0  0  0  0  0  0
   -1.9593    0.1078    0.3412 C   0  0  0  0  0  0  0  0  0  0  0  0
   -4.2812   -0.4530    0.9892 C   0  0  0  0  0  0  0  0  0  0  0  0
   -3.7046   -0.3752   -1.4140 C   0  0  0  0  0  0  0  0  0  0  0  0
    0.1729   -2.3475   -0.5323 H   0  0  0  0  0  0  0  0  0  0  0  0
   -0.2284    2.7395   -0.4704 H   0  0  0  0  0  0  0  0  0  0  0  0
    3.8236    1.6946    0.4809 H   0  0  0  0  0  0  0  0  0  0  0  0
    2.0713    3.4061    0.1095 H   0  0  0  0  0  0  0  0  0  0  0  0
    2.4667   -3.5003   -0.0126 H   0  0  0  0  0  0  0  0  0  0  0  0
   -5.0941    0.2634    0.8395 H   0  0  0  0  0  0  0  0  0  0  0  0
   -3.8774   -0.3271    1.9968 H   0  0  0  0  0  0  0  0  0  0  0  0
   -4.6662   -1.4716    0.8850 H   0  0  0  0  0  0  0  0  0  0  0  0
   -4.5086    0.3421   -1.6029 H   0  0  0  0  0  0  0  0  0  0  0  0
   -4.0821   -1.3921   -1.5552 H   0  0  0  0  0  0  0  0  0  0  0  0
   -2.8974   -0.1963   -2.1267 H   0  0  0  0  0  0  0  0  0  0  0  0
  1  6  1  0  0  0  0
  1 12  1  0  0  0  0
  2  7  1  0  0  0  0
  2 13  1  0  0  0  0
  3 13  2  0  0  0  0
  4 13  1  0  0  0  0
  4 14  1  0  0  0  0
  4 15  1  0  0  0  0
  5  6  1  0  0  0  0
  5  7  2  0  0  0  0
  5  8  1  0  0  0  0
  6 10  2  0  0  0  0
  7  9  1  0  0  0  0
  8 12  2  0  0  0  0
  8 16  1  0  0  0  0
  9 11  2  0  0  0  0
  9 17  1  0  0  0  0
 10 11  1  0  0  0  0
 10 18  1  0  0  0  0
 11 19  1  0  0  0  0
 12 20  1  0  0  0  0
 14 21  1  0  0  0  0
 14 22  1  0  0  0  0
 14 23  1  0  0  0  0
 15 24  1  0  0  0  0
 15 25  1  0  0  0  0
 15 26  1  0  0  0  0
M  END
> <PUBCHEM_COMPOUND_CID>
13910

> <PUBCHEM_CONFORMER_RMSD>
0.6

> <PUBCHEM_CONFORMER_DIVERSEORDER>
1
16
15
12
11
18
7
8
19
5
4
17
13
3
9
6
14
10
2

> <PUBCHEM_MMFF94_PARTIAL_CHARGES>
19
1 -0.08
10 -0.15
11 -0.15
12 -0.11
13 0.78
14 0.3
15 0.3
16 0.15
17 0.15
18 0.15
19 0.15
2 -0.23
20 0.15
3 -0.57
4 -0.66
6 0.04
7 0.08
8 -0.15
9 -0.15

> <PUBCHEM_EFFECTIVE_ROTOR_COUNT>
3

> <PUBCHEM_PHARMACOPHORE_FEATURES>
3
1 3 acceptor
5 1 5 6 8 12 rings
6 5 6 7 9 10 11 rings

> <PUBCHEM_HEAVY_ATOM_COUNT>
15

> <PUBCHEM_ATOM_DEF_STEREO_COUNT>
0

> <PUBCHEM_ATOM_UDEF_STEREO_COUNT>
0

> <PUBCHEM_BOND_DEF_STEREO_COUNT>
0

> <PUBCHEM_BOND_UDEF_STEREO_COUNT>
0

> <PUBCHEM_ISOTOPIC_ATOM_COUNT>
0

> <PUBCHEM_COMPONENT_COUNT>
1

> <PUBCHEM_CACTVS_TAUTO_COUNT>
1

> <PUBCHEM_CONFORMER_ID>
0000365600000001

> <PUBCHEM_MMFF94_ENERGY>
38.477

> <PUBCHEM_FEATURE_SELFOVERLAP>
15.283

> <PUBCHEM_SHAPE_FINGERPRINT>
10219947 1 18411140216686830908
10980938 120 18409451353910075100
11471102 20 18411424994398472828
11471102 22 18412539920769245784
11796584 16 16629975454707731586
12346645 6 18410854322246898916
12553582 1 18265893747052673022
13296908 3 17846498136545616163
14251717 144 18409738339145236279
15219456 202 18202289086897699205
15375462 189 17895193256172280523
15442244 35 18192427691651944577
15501101 241 18343300370643589860
16945 1 18411135818782796564
19049666 15 17988369277234429125
200 152 18187377540440463645
20201158 50 18201439211369238394
20233049 118 14333140666813467967
204376 136 18122908620944229376
20559304 39 18187076269648431152
20645477 70 18341062860523747607
20871998 22 18190455167923446934
21501502 16 18268706285022216468
21639500 275 18337963272519850565
22112679 90 17240776051011290861
2255824 54 18336822001056839908
23419403 2 14973831650127589218
23598291 2 18113616776936684309
2748010 2 18048612705031729004
33824 294 18340771442291467074
54173680 148 17401769017841999942
581208 293 18409455747640402916
7364860 26 18408038494448087356
77492 1 17748829583696688205
81228 2 17691964186622502800
81539 233 18129664084904408948
8272917 22 18410002226510451029

> <PUBCHEM_SHAPE_MULTIPOLES>
295.82
6.62
2.25
1
6.47
0.21
-0.04
-2.05
-0.63
-2.57
0.1
0.99
-0.06
0

> <PUBCHEM_SHAPE_SELFOVERLAP>
617.923

> <PUBCHEM_SHAPE_VOLUME>
170.3

> <PUBCHEM_COORDINATE_TYPE>
2
5
10

$$$$

