17396427
  -OEChem-06241222563D

 55 58  0     1  0  0  0  0  0999 V2000
   -8.1916    3.2703    0.4616 Cl  0  0  0  0  0  0  0  0  0  0  0  0
    0.5129    1.7289   -0.5069 O   0  0  0  0  0  0  0  0  0  0  0  0
   -1.7960    1.0125   -1.6910 O   0  0  0  0  0  0  0  0  0  0  0  0
    6.6825    2.2121    0.8491 O   0  0  0  0  0  0  0  0  0  0  0  0
   -3.5568   -3.2178   -0.3691 N   0  0  0  0  0  0  0  0  0  0  0  0
   -2.4597   -0.2496    0.1467 N   0  0  0  0  0  0  0  0  0  0  0  0
   -4.8356   -2.3218    1.2101 N   0  0  0  0  0  0  0  0  0  0  0  0
   -3.7304   -0.6971   -0.3757 C   0  0  1  0  0  0  0  0  0  0  0  0
   -4.0598   -2.0708    0.1789 C   0  0  0  0  0  0  0  0  0  0  0  0
   -4.8528    0.3029   -0.1647 C   0  0  0  0  0  0  0  0  0  0  0  0
   -4.8290    1.1564    0.9383 C   0  0  0  0  0  0  0  0  0  0  0  0
   -5.9086    0.3676   -1.0741 C   0  0  0  0  0  0  0  0  0  0  0  0
   -4.0426   -4.2671    0.3590 C   0  0  0  0  0  0  0  0  0  0  0  0
   -1.5973    0.5721   -0.5620 C   0  0  0  0  0  0  0  0  0  0  0  0
   -2.6735   -3.3205   -1.5066 C   0  0  0  0  0  0  0  0  0  0  0  0
   -4.8287   -3.6891    1.3280 C   0  0  0  0  0  0  0  0  0  0  0  0
   -0.3434    0.8808    0.2281 C   0  0  0  0  0  0  0  0  0  0  0  0
   -5.8611    2.0747    1.1319 C   0  0  0  0  0  0  0  0  0  0  0  0
   -6.9405    1.2857   -0.8805 C   0  0  0  0  0  0  0  0  0  0  0  0
   -6.9168    2.1394    0.2224 C   0  0  0  0  0  0  0  0  0  0  0  0
    1.8632    1.6098   -0.2770 C   0  0  0  0  0  0  0  0  0  0  0  0
    4.6030    1.3685    0.1899 C   0  0  0  0  0  0  0  0  0  0  0  0
    2.3245    1.2124    0.9780 C   0  0  0  0  0  0  0  0  0  0  0  0
    2.7718    1.8867   -1.2986 C   0  0  0  0  0  0  0  0  0  0  0  0
    3.6943    1.0917    1.2114 C   0  0  0  0  0  0  0  0  0  0  0  0
    4.1418    1.7659   -1.0651 C   0  0  0  0  0  0  0  0  0  0  0  0
    6.0313    1.2423    0.4333 C   0  0  0  0  0  0  0  0  0  0  0  0
    6.7736   -0.0335    0.2012 C   0  0  0  0  0  0  0  0  0  0  0  0
    6.0959   -1.1594   -0.2666 C   0  0  0  0  0  0  0  0  0  0  0  0
    8.1443   -0.0985    0.4518 C   0  0  0  0  0  0  0  0  0  0  0  0
    6.7888   -2.3505   -0.4836 C   0  0  0  0  0  0  0  0  0  0  0  0
    8.8372   -1.2896    0.2348 C   0  0  0  0  0  0  0  0  0  0  0  0
    8.1593   -2.4155   -0.2329 C   0  0  0  0  0  0  0  0  0  0  0  0
   -3.6016   -0.7823   -1.4631 H   0  0  0  0  0  0  0  0  0  0  0  0
   -2.2072   -0.5223    1.0931 H   0  0  0  0  0  0  0  0  0  0  0  0
   -4.0272    1.1196    1.6703 H   0  0  0  0  0  0  0  0  0  0  0  0
   -5.9397   -0.2930   -1.9365 H   0  0  0  0  0  0  0  0  0  0  0  0
   -3.7990   -5.2967    0.1368 H   0  0  0  0  0  0  0  0  0  0  0  0
   -3.2025   -2.9572   -2.3910 H   0  0  0  0  0  0  0  0  0  0  0  0
   -1.7787   -2.7244   -1.3132 H   0  0  0  0  0  0  0  0  0  0  0  0
   -2.3898   -4.3662   -1.6523 H   0  0  0  0  0  0  0  0  0  0  0  0
   -5.3905   -4.1880    2.1041 H   0  0  0  0  0  0  0  0  0  0  0  0
   -0.6336    1.3755    1.1622 H   0  0  0  0  0  0  0  0  0  0  0  0
    0.1254   -0.0880    0.4468 H   0  0  0  0  0  0  0  0  0  0  0  0
   -5.8313    2.7315    1.9976 H   0  0  0  0  0  0  0  0  0  0  0  0
   -7.7572    1.3244   -1.5968 H   0  0  0  0  0  0  0  0  0  0  0  0
    1.6509    1.0135    1.8064 H   0  0  0  0  0  0  0  0  0  0  0  0
    2.4179    2.1965   -2.2780 H   0  0  0  0  0  0  0  0  0  0  0  0
    4.0433    0.7870    2.1948 H   0  0  0  0  0  0  0  0  0  0  0  0
    4.8406    1.9841   -1.8685 H   0  0  0  0  0  0  0  0  0  0  0  0
    5.0301   -1.1492   -0.4735 H   0  0  0  0  0  0  0  0  0  0  0  0
    8.6965    0.7633    0.8164 H   0  0  0  0  0  0  0  0  0  0  0  0
    6.2615   -3.2274   -0.8478 H   0  0  0  0  0  0  0  0  0  0  0  0
    9.9044   -1.3407    0.4298 H   0  0  0  0  0  0  0  0  0  0  0  0
    8.6988   -3.3428   -0.4019 H   0  0  0  0  0  0  0  0  0  0  0  0
  1 20  1  0  0  0  0
  2 17  1  0  0  0  0
  2 21  1  0  0  0  0
  3 14  2  0  0  0  0
  4 27  2  0  0  0  0
  5  9  1  0  0  0  0
  5 13  1  0  0  0  0
  5 15  1  0  0  0  0
  6  8  1  0  0  0  0
  6 14  1  0  0  0  0
  6 35  1  0  0  0  0
  7  9  2  0  0  0  0
  7 16  1  0  0  0  0
  8  9  1  0  0  0  0
  8 10  1  0  0  0  0
  8 34  1  0  0  0  0
 10 11  2  0  0  0  0
 10 12  1  0  0  0  0
 11 18  1  0  0  0  0
 11 36  1  0  0  0  0
 12 19  2  0  0  0  0
 12 37  1  0  0  0  0
 13 16  2  0  0  0  0
 13 38  1  0  0  0  0
 14 17  1  0  0  0  0
 15 39  1  0  0  0  0
 15 40  1  0  0  0  0
 15 41  1  0  0  0  0
 16 42  1  0  0  0  0
 17 43  1  0  0  0  0
 17 44  1  0  0  0  0
 18 20  2  0  0  0  0
 18 45  1  0  0  0  0
 19 20  1  0  0  0  0
 19 46  1  0  0  0  0
 21 23  2  0  0  0  0
 21 24  1  0  0  0  0
 22 25  2  0  0  0  0
 22 26  1  0  0  0  0
 22 27  1  0  0  0  0
 23 25  1  0  0  0  0
 23 47  1  0  0  0  0
 24 26  2  0  0  0  0
 24 48  1  0  0  0  0
 25 49  1  0  0  0  0
 26 50  1  0  0  0  0
 27 28  1  0  0  0  0
 28 29  2  0  0  0  0
 28 30  1  0  0  0  0
 29 31  1  0  0  0  0
 29 51  1  0  0  0  0
 30 32  2  0  0  0  0
 30 52  1  0  0  0  0
 31 33  2  0  0  0  0
 31 53  1  0  0  0  0
 32 33  1  0  0  0  0
 32 54  1  0  0  0  0
 33 55  1  0  0  0  0
M  END
> <PUBCHEM_COMPOUND_CID>
17396427

> <PUBCHEM_CONFORMER_RMSD>
1.2

> <PUBCHEM_CONFORMER_DIVERSEORDER>
2
68
186
230
17
142
93
204
188
205
4
236
237
58
55
169
98
150
108
120
202
145
222
57
105
224
191
94
88
244
34
226
218
23
41
239
161
133
18
97
74
84
117
51
118
229
36
60
179
220
90
71
92
16
201
39
219
241
96
140
91
21
64
155
130
43
192
151
33
164
102
107
29
3
176
35
116
119
83
190
195
234
180
148
132
13
235
122
42
76
243
212
156
27
154
106
189
70
175
20
197
177
14
49
137
124
152
165
227
217
65
174
15
47
147
183
1
79
46
11
72
40
210
109
185
82
149
115
77
198
203
25
209
59
62
75
44
196
30
78
167
69
19
146
166
111
157
160
9
199
121
138
159
100
187
66
182
171
221
181
24
8
73
232
139
67
136
45
215
103
101
178
168
153
7
129
144
134
56
95
214
12
54
231
50
228
10
173
104
233
125
89
135
216
207
53
194
5
225
158
238
61
28
113
123
87
26
213
52
32
208
80
200
206
162
172
85
86
38
184
143
240
193
170
242
112
131
37
81
141
128
126
99
211
31
48
110
63
223
6
114
163
127
22

> <PUBCHEM_MMFF94_PARTIAL_CHARGES>
49
1 -0.18
10 -0.14
11 -0.15
12 -0.15
13 -0.3
14 0.57
15 0.26
16 0.08
17 0.34
18 -0.15
19 -0.15
2 -0.36
20 0.18
21 0.08
22 0.09
23 -0.15
24 -0.15
25 -0.15
26 -0.15
27 0.4
28 0.09
29 -0.15
3 -0.57
30 -0.15
31 -0.15
32 -0.15
33 -0.15
35 0.37
36 0.15
37 0.15
38 0.15
4 -0.57
42 0.15
45 0.15
46 0.15
47 0.15
48 0.15
49 0.15
5 0.05
50 0.15
51 0.15
52 0.15
53 0.15
54 0.15
55 0.15
6 -0.73
7 -0.57
8 0.62
9 0.01

> <PUBCHEM_EFFECTIVE_ROTOR_COUNT>
9

> <PUBCHEM_PHARMACOPHORE_FEATURES>
9
1 2 acceptor
1 3 acceptor
1 4 acceptor
1 6 donor
3 5 7 9 cation
5 5 7 9 13 16 rings
6 10 11 12 18 19 20 rings
6 21 22 23 24 25 26 rings
6 28 29 30 31 32 33 rings

> <PUBCHEM_HEAVY_ATOM_COUNT>
33

> <PUBCHEM_ATOM_DEF_STEREO_COUNT>
0

> <PUBCHEM_ATOM_UDEF_STEREO_COUNT>
1

> <PUBCHEM_BOND_DEF_STEREO_COUNT>
0

> <PUBCHEM_BOND_UDEF_STEREO_COUNT>
0

> <PUBCHEM_ISOTOPIC_ATOM_COUNT>
0

> <PUBCHEM_COMPONENT_COUNT>
1

> <PUBCHEM_CACTVS_TAUTO_COUNT>
2

> <PUBCHEM_CONFORMER_ID>
010972CB00000002

> <PUBCHEM_MMFF94_ENERGY>
90.7678

> <PUBCHEM_FEATURE_SELFOVERLAP>
45.676

> <PUBCHEM_SHAPE_FINGERPRINT>
10119406 146 18410009974969056855
10391435 84 18409740534627632496
11103572 155 18413389835090185594
11331351 85 18060700606782077892
117089 54 18199742544980544402
12013929 2 18114744953440509108
12643181 29 18411984671518424490
12717326 25 18271512195999719459
13165053 103 18187652388594724695
1361 4 17911232824329668594
14444916 359 17561359621414130459
15064986 96 18113328730497201711
15131766 46 16518811329322247424
15152005 290 18339081618777517125
15183329 4 17846787303866880440
15230672 131 18341618152113065498
15347591 1 18267300937221029401
15352257 5 18411420605548674574
15361156 5 17846206735773046604
15439362 3 18192711370663809039
1577012 14 17988921116339902476
15890870 6 18339646763369607765
17686467 74 9439107763677034181
20105231 36 17131546232170081152
21049683 271 10879692292177382815
21130935 74 18339643339773186096
21814621 53 18261116223090399584
23522609 53 17702643485175871309
3504750 166 18337953360310701655
4073 2 18410576141594286098
44389302 135 18270412685506372634
5381727 24 18411980283328074449
6009941 240 18334857216738447665
6086070 43 16660939802358147337
6691757 9 18335415765136276705
9831232 110 18412258446589425670
99344 41 18408042918692332846

> <PUBCHEM_SHAPE_MULTIPOLES>
648.44
28.43
4.42
1.21
29.52
4.91
0.11
-1.28
-3.28
-7.02
-0.45
-0.8
0.03
0.66

> <PUBCHEM_SHAPE_SELFOVERLAP>
1401.71

> <PUBCHEM_SHAPE_VOLUME>
355.7

> <PUBCHEM_COORDINATE_TYPE>
2
5
10

$$$$

