14091
  -OEChem-06241222423D

 24 24  0     0  0  0  0  0  0999 V2000
    1.5043    0.2166   -0.6629 C   0  0  0  0  0  0  0  0  0  0  0  0
    0.0506    0.2190   -0.3204 C   0  0  0  0  0  0  0  0  0  0  0  0
    2.3933    0.3201    0.5833 C   0  0  0  0  0  0  0  0  0  0  0  0
   -0.6297   -0.9726   -0.0697 C   0  0  0  0  0  0  0  0  0  0  0  0
   -0.6270    1.4363   -0.2530 C   0  0  0  0  0  0  0  0  0  0  0  0
    3.8716    0.2831    0.2297 C   0  0  0  0  0  0  0  0  0  0  0  0
   -1.9876   -0.9470    0.2483 C   0  0  0  0  0  0  0  0  0  0  0  0
    0.0745   -2.2880   -0.1363 C   0  0  0  0  0  0  0  0  0  0  0  0
   -1.9849    1.4621    0.0652 C   0  0  0  0  0  0  0  0  0  0  0  0
   -2.6651    0.2705    0.3157 C   0  0  0  0  0  0  0  0  0  0  0  0
    1.7731   -0.6688   -1.2503 H   0  0  0  0  0  0  0  0  0  0  0  0
    1.7205    1.0630   -1.3291 H   0  0  0  0  0  0  0  0  0  0  0  0
    2.1778    1.2541    1.1170 H   0  0  0  0  0  0  0  0  0  0  0  0
    2.1753   -0.4951    1.2823 H   0  0  0  0  0  0  0  0  0  0  0  0
   -0.1096    2.3729   -0.4435 H   0  0  0  0  0  0  0  0  0  0  0  0
    4.1312   -0.6561   -0.2691 H   0  0  0  0  0  0  0  0  0  0  0  0
    4.1361    1.1110   -0.4357 H   0  0  0  0  0  0  0  0  0  0  0  0
    4.4805    0.3668    1.1353 H   0  0  0  0  0  0  0  0  0  0  0  0
   -2.5332   -1.8659    0.4457 H   0  0  0  0  0  0  0  0  0  0  0  0
    0.3912   -2.5042   -1.1617 H   0  0  0  0  0  0  0  0  0  0  0  0
    0.9416   -2.3113    0.5298 H   0  0  0  0  0  0  0  0  0  0  0  0
   -0.5809   -3.1092    0.1759 H   0  0  0  0  0  0  0  0  0  0  0  0
   -2.5125    2.4100    0.1183 H   0  0  0  0  0  0  0  0  0  0  0  0
   -3.7224    0.2907    0.5634 H   0  0  0  0  0  0  0  0  0  0  0  0
  1  2  1  0  0  0  0
  1  3  1  0  0  0  0
  1 11  1  0  0  0  0
  1 12  1  0  0  0  0
  2  4  1  0  0  0  0
  2  5  2  0  0  0  0
  3  6  1  0  0  0  0
  3 13  1  0  0  0  0
  3 14  1  0  0  0  0
  4  7  2  0  0  0  0
  4  8  1  0  0  0  0
  5  9  1  0  0  0  0
  5 15  1  0  0  0  0
  6 16  1  0  0  0  0
  6 17  1  0  0  0  0
  6 18  1  0  0  0  0
  7 10  1  0  0  0  0
  7 19  1  0  0  0  0
  8 20  1  0  0  0  0
  8 21  1  0  0  0  0
  8 22  1  0  0  0  0
  9 10  2  0  0  0  0
  9 23  1  0  0  0  0
 10 24  1  0  0  0  0
M  END
> <PUBCHEM_COMPOUND_CID>
14091

> <PUBCHEM_CONFORMER_RMSD>
0.4

> <PUBCHEM_CONFORMER_DIVERSEORDER>
1
4
3
2
6
7
5

> <PUBCHEM_MMFF94_PARTIAL_CHARGES>
12
1 0.14
10 -0.15
15 0.15
19 0.15
2 -0.14
23 0.15
24 0.15
4 -0.14
5 -0.15
7 -0.15
8 0.14
9 -0.15

> <PUBCHEM_EFFECTIVE_ROTOR_COUNT>
2

> <PUBCHEM_PHARMACOPHORE_FEATURES>
2
1 6 hydrophobe
6 2 4 5 7 9 10 rings

> <PUBCHEM_HEAVY_ATOM_COUNT>
10

> <PUBCHEM_ATOM_DEF_STEREO_COUNT>
0

> <PUBCHEM_ATOM_UDEF_STEREO_COUNT>
0

> <PUBCHEM_BOND_DEF_STEREO_COUNT>
0

> <PUBCHEM_BOND_UDEF_STEREO_COUNT>
0

> <PUBCHEM_ISOTOPIC_ATOM_COUNT>
0

> <PUBCHEM_COMPONENT_COUNT>
1

> <PUBCHEM_CACTVS_TAUTO_COUNT>
1

> <PUBCHEM_CONFORMER_ID>
0000370B00000001

> <PUBCHEM_MMFF94_ENERGY>
19.8597

> <PUBCHEM_FEATURE_SELFOVERLAP>
10.148

> <PUBCHEM_SHAPE_FINGERPRINT>
10857977 72 18410013199972524857
13024252 1 14405193871426499901
13380535 76 18341334504299010403
14325111 11 18410012169417666024
15310529 11 14634858790810495631
15775835 57 18410855486140656512
16945 1 18341037580251070141
20645464 45 18113052731792975844
20653085 51 14996283595862182352
20871998 184 18189893115301815806
21040471 1 18339631347691648117
23235685 24 18411141367527173581
23402539 116 18188783755630275031
23552423 10 18128522941805269887
2748010 2 18053651762326431517
369184 2 18186805763923112368
43471831 8 18343305894045892274
5084963 1 18114175324237435857
54338 74 18123484790490028463
6333449 129 18334580122322079252
7364860 26 17973442401474931423
75552 356 18339924818564822336

> <PUBCHEM_SHAPE_MULTIPOLES>
205.8
4.49
1.78
0.74
4
0.76
0.01
-1.07
-0.86
-0.71
0.09
0.12
-0.03
0.07

> <PUBCHEM_SHAPE_SELFOVERLAP>
414.176

> <PUBCHEM_SHAPE_VOLUME>
118.1

> <PUBCHEM_COORDINATE_TYPE>
2
5
10

$$$$

