13056
  -OEChem-06261207422D

 40 41  0     0  0  0  0  0  0999 V2000
    2.8660    2.0670    0.0000 N   0  3  0  0  0  0  0  0  0  0  0  0
    2.8660    0.0670    0.0000 C   0  0  0  0  0  0  0  0  0  0  0  0
    3.7320    0.5670    0.0000 C   0  0  0  0  0  0  0  0  0  0  0  0
    2.0000    0.5670    0.0000 C   0  0  0  0  0  0  0  0  0  0  0  0
    3.7320   -0.4330    0.0000 C   0  0  0  0  0  0  0  0  0  0  0  0
    2.0000   -0.4330    0.0000 C   0  0  0  0  0  0  0  0  0  0  0  0
    3.7320    1.5670    0.0000 C   0  0  0  0  0  0  0  0  0  0  0  0
    2.0000    1.5670    0.0000 C   0  0  0  0  0  0  0  0  0  0  0  0
    3.7320   -1.4330    0.0000 C   0  0  0  0  0  0  0  0  0  0  0  0
    2.0000   -1.4330    0.0000 C   0  0  0  0  0  0  0  0  0  0  0  0
    2.8660   -1.9330    0.0000 C   0  0  0  0  0  0  0  0  0  0  0  0
    3.3660    2.9330    0.0000 C   0  0  0  0  0  0  0  0  0  0  0  0
    2.3660    2.9330    0.0000 C   0  0  0  0  0  0  0  0  0  0  0  0
    2.8660   -2.9330    0.0000 C   0  0  0  0  0  0  0  0  0  0  0  0
    1.3894    0.6746    0.0000 H   0  0  0  0  0  0  0  0  0  0  0  0
    1.7880   -0.0156    0.0000 H   0  0  0  0  0  0  0  0  0  0  0  0
    3.9441   -0.0156    0.0000 H   0  0  0  0  0  0  0  0  0  0  0  0
    4.3426    0.6746    0.0000 H   0  0  0  0  0  0  0  0  0  0  0  0
    4.3426   -0.5407    0.0000 H   0  0  0  0  0  0  0  0  0  0  0  0
    3.9441    0.1496    0.0000 H   0  0  0  0  0  0  0  0  0  0  0  0
    1.7880    0.1496    0.0000 H   0  0  0  0  0  0  0  0  0  0  0  0
    1.3894   -0.5407    0.0000 H   0  0  0  0  0  0  0  0  0  0  0  0
    4.3426    1.4593    0.0000 H   0  0  0  0  0  0  0  0  0  0  0  0
    1.7880    2.1496    0.0000 H   0  0  0  0  0  0  0  0  0  0  0  0
    1.3894    1.4593    0.0000 H   0  0  0  0  0  0  0  0  0  0  0  0
    3.9441    2.1496    0.0000 H   0  0  0  0  0  0  0  0  0  0  0  0
    1.3894   -1.3254    0.0000 H   0  0  0  0  0  0  0  0  0  0  0  0
    1.7880   -2.0156    0.0000 H   0  0  0  0  0  0  0  0  0  0  0  0
    3.9441   -2.0156    0.0000 H   0  0  0  0  0  0  0  0  0  0  0  0
    4.3426   -1.3254    0.0000 H   0  0  0  0  0  0  0  0  0  0  0  0
    3.4030   -2.2430    0.0000 H   0  0  0  0  0  0  0  0  0  0  0  0
    3.9030    2.6230    0.0000 H   0  0  0  0  0  0  0  0  0  0  0  0
    3.6760    3.4700    0.0000 H   0  0  0  0  0  0  0  0  0  0  0  0
    2.8291    3.2430    0.0000 H   0  0  0  0  0  0  0  0  0  0  0  0
    2.9030    3.2430    0.0000 H   0  0  0  0  0  0  0  0  0  0  0  0
    2.0560    3.4700    0.0000 H   0  0  0  0  0  0  0  0  0  0  0  0
    1.8291    2.6230    0.0000 H   0  0  0  0  0  0  0  0  0  0  0  0
    2.2460   -2.9330    0.0000 H   0  0  0  0  0  0  0  0  0  0  0  0
    2.8660   -3.5530    0.0000 H   0  0  0  0  0  0  0  0  0  0  0  0
    3.4860   -2.9330    0.0000 H   0  0  0  0  0  0  0  0  0  0  0  0
  1  7  1  0  0  0  0
  1  8  1  0  0  0  0
  1 12  1  0  0  0  0
  1 13  1  0  0  0  0
  2  3  1  0  0  0  0
  2  4  1  0  0  0  0
  2  5  1  0  0  0  0
  2  6  1  0  0  0  0
  3  7  1  0  0  0  0
  3 17  1  0  0  0  0
  3 18  1  0  0  0  0
  4  8  1  0  0  0  0
  4 15  1  0  0  0  0
  4 16  1  0  0  0  0
  5  9  1  0  0  0  0
  5 19  1  0  0  0  0
  5 20  1  0  0  0  0
  6 10  1  0  0  0  0
  6 21  1  0  0  0  0
  6 22  1  0  0  0  0
  7 23  1  0  0  0  0
  7 26  1  0  0  0  0
  8 24  1  0  0  0  0
  8 25  1  0  0  0  0
  9 11  1  0  0  0  0
  9 29  1  0  0  0  0
  9 30  1  0  0  0  0
 10 11  1  0  0  0  0
 10 27  1  0  0  0  0
 10 28  1  0  0  0  0
 11 14  1  0  0  0  0
 11 31  1  0  0  0  0
 12 32  1  0  0  0  0
 12 33  1  0  0  0  0
 12 34  1  0  0  0  0
 13 35  1  0  0  0  0
 13 36  1  0  0  0  0
 13 37  1  0  0  0  0
 14 38  1  0  0  0  0
 14 39  1  0  0  0  0
 14 40  1  0  0  0  0
M  CHG  1   1   1
M  END
> <PUBCHEM_COMPOUND_CID>
13056

> <PUBCHEM_COMPOUND_CANONICALIZED>
1

> <PUBCHEM_CACTVS_COMPLEXITY>
187

> <PUBCHEM_CACTVS_HBOND_ACCEPTOR>
0

> <PUBCHEM_CACTVS_HBOND_DONOR>
0

> <PUBCHEM_CACTVS_ROTATABLE_BOND>
0

> <PUBCHEM_CACTVS_SUBSKEYS>
AAADceByAAAAAAAAAAAAAAAAAAAAAAAAAAA8QAAAAAAAAAAAAAAAHAAAAAAADwDBAAQCAAMAAAAAAAAAAAAAAAAAAAAAAAAIAAAAAAIAgAAEAAAAAACAAAEQgMAPAAAAAAAAAACAAAAAAAAAAAAAAAAAAA==

> <PUBCHEM_IUPAC_OPENEYE_NAME>
3,3,9-trimethyl-3-azoniaspiro[5.5]undecane

> <PUBCHEM_IUPAC_CAS_NAME>
3,3,9-trimethyl-3-azoniaspiro[5.5]undecane

> <PUBCHEM_IUPAC_NAME>
3,3,9-trimethyl-3-azoniaspiro[5.5]undecane

> <PUBCHEM_IUPAC_SYSTEMATIC_NAME>
3,3,9-trimethyl-3-azoniaspiro[5.5]undecane

> <PUBCHEM_IUPAC_TRADITIONAL_NAME>
3,3,9-trimethyl-3-azoniaspiro[5.5]undecane

> <PUBCHEM_IUPAC_INCHI>
InChI=1S/C13H26N/c1-12-4-6-13(7-5-12)8-10-14(2,3)11-9-13/h12H,4-11H2,1-3H3/q+1

> <PUBCHEM_IUPAC_INCHIKEY>
BFXFQKZGUOEDCH-UHFFFAOYSA-N

> <PUBCHEM_XLOGP3_AA>
3.6

> <PUBCHEM_EXACT_MASS>
196.206525

> <PUBCHEM_MOLECULAR_FORMULA>
C13H26N+

> <PUBCHEM_MOLECULAR_WEIGHT>
196.35224

> <PUBCHEM_OPENEYE_CAN_SMILES>
CC1CCC2(CC1)CC[N+](CC2)(C)C

> <PUBCHEM_OPENEYE_ISO_SMILES>
CC1CCC2(CC1)CC[N+](CC2)(C)C

> <PUBCHEM_CACTVS_TPSA>
0

> <PUBCHEM_MONOISOTOPIC_WEIGHT>
196.206525

> <PUBCHEM_TOTAL_CHARGE>
1

> <PUBCHEM_HEAVY_ATOM_COUNT>
14

> <PUBCHEM_ATOM_DEF_STEREO_COUNT>
0

> <PUBCHEM_ATOM_UDEF_STEREO_COUNT>
0

> <PUBCHEM_BOND_DEF_STEREO_COUNT>
0

> <PUBCHEM_BOND_UDEF_STEREO_COUNT>
0

> <PUBCHEM_ISOTOPIC_ATOM_COUNT>
0

> <PUBCHEM_COMPONENT_COUNT>
1

> <PUBCHEM_CACTVS_TAUTO_COUNT>
1

> <PUBCHEM_COORDINATE_TYPE>
1
5
255

$$$$

