51090900
  -OEChem-06241223002D

 51 53  0     0  0  0  0  0  0999 V2000
    5.5443    1.2933    0.0000 O   0  0  0  0  0  0  0  0  0  0  0  0
    7.6279    2.9641    0.0000 O   0  0  0  0  0  0  0  0  0  0  0  0
   10.6279   -0.5000    0.0000 N   0  0  0  0  0  0  0  0  0  0  0  0
   11.6279   -2.2320    0.0000 N   0  0  0  0  0  0  0  0  0  0  0  0
    7.6279    1.2320    0.0000 N   0  0  0  0  0  0  0  0  0  0  0  0
   10.1279   -1.3660    0.0000 C   0  0  0  0  0  0  0  0  0  0  0  0
   11.6279   -0.5000    0.0000 C   0  0  0  0  0  0  0  0  0  0  0  0
   10.6279   -2.2320    0.0000 C   0  0  0  0  0  0  0  0  0  0  0  0
   12.1279   -1.3660    0.0000 C   0  0  0  0  0  0  0  0  0  0  0  0
   10.1279    0.3660    0.0000 C   0  0  0  0  0  0  0  0  0  0  0  0
   12.1279   -3.0981    0.0000 C   0  0  0  0  0  0  0  0  0  0  0  0
    9.1279    0.3660    0.0000 C   0  0  0  0  0  0  0  0  0  0  0  0
    8.6279    1.2320    0.0000 C   0  0  0  0  0  0  0  0  0  0  0  0
   13.1279   -3.0981    0.0000 C   0  0  0  0  0  0  0  0  0  0  0  0
    7.1279    2.0981    0.0000 C   0  0  0  0  0  0  0  0  0  0  0  0
    6.1279    2.0981    0.0000 C   0  0  0  0  0  0  0  0  0  0  0  0
    4.5981    2.5981    0.0000 C   0  0  0  0  0  0  0  0  0  0  0  0
    5.5443    2.9028    0.0000 C   0  0  0  0  0  0  0  0  0  0  0  0
    4.5981    1.5981    0.0000 C   0  0  0  0  0  0  0  0  0  0  0  0
    3.7320    3.0981    0.0000 C   0  0  0  0  0  0  0  0  0  0  0  0
    2.8660    2.5981    0.0000 C   0  0  0  0  0  0  0  0  0  0  0  0
    3.7320    1.0981    0.0000 C   0  0  0  0  0  0  0  0  0  0  0  0
    2.8660    1.5981    0.0000 C   0  0  0  0  0  0  0  0  0  0  0  0
    2.0000    3.0981    0.0000 C   0  0  0  0  0  0  0  0  0  0  0  0
   12.2105   -0.2879    0.0000 H   0  0  0  0  0  0  0  0  0  0  0  0
   11.5202    0.1106    0.0000 H   0  0  0  0  0  0  0  0  0  0  0  0
    9.6530   -0.9675    0.0000 H   0  0  0  0  0  0  0  0  0  0  0  0
    9.6530   -1.7646    0.0000 H   0  0  0  0  0  0  0  0  0  0  0  0
   10.0453   -2.4441    0.0000 H   0  0  0  0  0  0  0  0  0  0  0  0
   10.7356   -2.8426    0.0000 H   0  0  0  0  0  0  0  0  0  0  0  0
   12.6029   -1.7646    0.0000 H   0  0  0  0  0  0  0  0  0  0  0  0
   12.6029   -0.9675    0.0000 H   0  0  0  0  0  0  0  0  0  0  0  0
   10.7105    0.5781    0.0000 H   0  0  0  0  0  0  0  0  0  0  0  0
   10.0202    0.9766    0.0000 H   0  0  0  0  0  0  0  0  0  0  0  0
   11.5453   -3.3101    0.0000 H   0  0  0  0  0  0  0  0  0  0  0  0
   12.2356   -3.7087    0.0000 H   0  0  0  0  0  0  0  0  0  0  0  0
    8.5453    0.1540    0.0000 H   0  0  0  0  0  0  0  0  0  0  0  0
    9.2356   -0.2446    0.0000 H   0  0  0  0  0  0  0  0  0  0  0  0
    9.2105    1.4441    0.0000 H   0  0  0  0  0  0  0  0  0  0  0  0
    8.5202    1.8426    0.0000 H   0  0  0  0  0  0  0  0  0  0  0  0
   13.1279   -3.7181    0.0000 H   0  0  0  0  0  0  0  0  0  0  0  0
   13.7479   -3.0981    0.0000 H   0  0  0  0  0  0  0  0  0  0  0  0
   13.1279   -2.4781    0.0000 H   0  0  0  0  0  0  0  0  0  0  0  0
    7.3179    0.6951    0.0000 H   0  0  0  0  0  0  0  0  0  0  0  0
    5.7369    3.4921    0.0000 H   0  0  0  0  0  0  0  0  0  0  0  0
    3.7320    3.7181    0.0000 H   0  0  0  0  0  0  0  0  0  0  0  0
    3.7320    0.4781    0.0000 H   0  0  0  0  0  0  0  0  0  0  0  0
    2.3291    1.2881    0.0000 H   0  0  0  0  0  0  0  0  0  0  0  0
    2.3100    3.6350    0.0000 H   0  0  0  0  0  0  0  0  0  0  0  0
    1.4631    3.4081    0.0000 H   0  0  0  0  0  0  0  0  0  0  0  0
    1.6900    2.5611    0.0000 H   0  0  0  0  0  0  0  0  0  0  0  0
  1 16  1  0  0  0  0
  1 19  1  0  0  0  0
  2 15  2  0  0  0  0
  3  6  1  0  0  0  0
  3  7  1  0  0  0  0
  3 10  1  0  0  0  0
  4  8  1  0  0  0  0
  4  9  1  0  0  0  0
  4 11  1  0  0  0  0
  5 13  1  0  0  0  0
  5 15  1  0  0  0  0
  5 44  1  0  0  0  0
  6  8  1  0  0  0  0
  6 27  1  0  0  0  0
  6 28  1  0  0  0  0
  7  9  1  0  0  0  0
  7 25  1  0  0  0  0
  7 26  1  0  0  0  0
  8 29  1  0  0  0  0
  8 30  1  0  0  0  0
  9 31  1  0  0  0  0
  9 32  1  0  0  0  0
 10 12  1  0  0  0  0
 10 33  1  0  0  0  0
 10 34  1  0  0  0  0
 11 14  1  0  0  0  0
 11 35  1  0  0  0  0
 11 36  1  0  0  0  0
 12 13  1  0  0  0  0
 12 37  1  0  0  0  0
 12 38  1  0  0  0  0
 13 39  1  0  0  0  0
 13 40  1  0  0  0  0
 14 41  1  0  0  0  0
 14 42  1  0  0  0  0
 14 43  1  0  0  0  0
 15 16  1  0  0  0  0
 16 18  2  0  0  0  0
 17 18  1  0  0  0  0
 17 19  2  0  0  0  0
 17 20  1  0  0  0  0
 18 45  1  0  0  0  0
 19 22  1  0  0  0  0
 20 21  2  0  0  0  0
 20 46  1  0  0  0  0
 21 23  1  0  0  0  0
 21 24  1  0  0  0  0
 22 23  2  0  0  0  0
 22 47  1  0  0  0  0
 23 48  1  0  0  0  0
 24 49  1  0  0  0  0
 24 50  1  0  0  0  0
 24 51  1  0  0  0  0
M  END
> <PUBCHEM_COMPOUND_CID>
51090900

> <PUBCHEM_COMPOUND_CANONICALIZED>
1

> <PUBCHEM_CACTVS_COMPLEXITY>
409

> <PUBCHEM_CACTVS_HBOND_ACCEPTOR>
4

> <PUBCHEM_CACTVS_HBOND_DONOR>
1

> <PUBCHEM_CACTVS_ROTATABLE_BOND>
6

> <PUBCHEM_CACTVS_SUBSKEYS>
AAADceB7MAAAAAAAAAAAAAAAAAAAASAAAAA8QAAAAAAAAEgB8AAAHgAQAAAADATBmAQyBsPABECIAqFSEAKCCAAkIAAIiIHODMgOZjKE9T+XOSjk1hGYqYeY3/LuIAACAAAIAABAAAQAABAAAAAAAAAAAA==

> <PUBCHEM_IUPAC_OPENEYE_NAME>
N-[3-(4-ethylpiperazin-1-yl)propyl]-5-methyl-benzofuran-2-carboxamide

> <PUBCHEM_IUPAC_CAS_NAME>
N-[3-(4-ethyl-1-piperazinyl)propyl]-5-methyl-2-benzofurancarboxamide

> <PUBCHEM_IUPAC_NAME>
N-[3-(4-ethylpiperazin-1-yl)propyl]-5-methyl-1-benzofuran-2-carboxamide

> <PUBCHEM_IUPAC_SYSTEMATIC_NAME>
N-[3-(4-ethylpiperazin-1-yl)propyl]-5-methyl-1-benzofuran-2-carboxamide

> <PUBCHEM_IUPAC_TRADITIONAL_NAME>
N-[3-(4-ethylpiperazino)propyl]-5-methyl-coumarilamide

> <PUBCHEM_IUPAC_INCHI>
InChI=1S/C19H27N3O2/c1-3-21-9-11-22(12-10-21)8-4-7-20-19(23)18-14-16-13-15(2)5-6-17(16)24-18/h5-6,13-14H,3-4,7-12H2,1-2H3,(H,20,23)

> <PUBCHEM_IUPAC_INCHIKEY>
HREWLMNHZHYGNT-UHFFFAOYSA-N

> <PUBCHEM_XLOGP3_AA>
2.9

> <PUBCHEM_EXACT_MASS>
329.210327

> <PUBCHEM_MOLECULAR_FORMULA>
C19H27N3O2

> <PUBCHEM_MOLECULAR_WEIGHT>
329.43658

> <PUBCHEM_OPENEYE_CAN_SMILES>
CCN1CCN(CC1)CCCNC(=O)C2=CC3=C(O2)C=CC(=C3)C

> <PUBCHEM_OPENEYE_ISO_SMILES>
CCN1CCN(CC1)CCCNC(=O)C2=CC3=C(O2)C=CC(=C3)C

> <PUBCHEM_CACTVS_TPSA>
48.7

> <PUBCHEM_MONOISOTOPIC_WEIGHT>
329.210327

> <PUBCHEM_TOTAL_CHARGE>
0

> <PUBCHEM_HEAVY_ATOM_COUNT>
24

> <PUBCHEM_ATOM_DEF_STEREO_COUNT>
0

> <PUBCHEM_ATOM_UDEF_STEREO_COUNT>
0

> <PUBCHEM_BOND_DEF_STEREO_COUNT>
0

> <PUBCHEM_BOND_UDEF_STEREO_COUNT>
0

> <PUBCHEM_ISOTOPIC_ATOM_COUNT>
0

> <PUBCHEM_COMPONENT_COUNT>
1

> <PUBCHEM_CACTVS_TAUTO_COUNT>
2

> <PUBCHEM_COORDINATE_TYPE>
1
5
255

> <PUBCHEM_BONDANNOTATIONS>
1  16  8
1  19  8
16  18  8
17  18  8
17  19  8
17  20  8
19  22  8
20  21  8
21  23  8
22  23  8

$$$$

