12709
  -OEChem-06261207163D

 19 18  0     0  0  0  0  0  0999 V2000
   -0.8511   -0.3017   -0.0004 O   0  0  0  0  0  0  0  0  0  0  0  0
    0.2416    1.7057   -0.0003 O   0  0  0  0  0  0  0  0  0  0  0  0
    1.4542   -0.2788    0.0000 N   0  0  0  0  0  0  0  0  0  0  0  0
   -2.1011    0.3977    0.0003 C   0  0  0  0  0  0  0  0  0  0  0  0
    0.2766    0.4763   -0.0007 C   0  0  0  0  0  0  0  0  0  0  0  0
    2.7733    0.3461    0.0010 C   0  0  0  0  0  0  0  0  0  0  0  0
    1.4367   -1.7346   -0.0004 C   0  0  0  0  0  0  0  0  0  0  0  0
   -3.2302   -0.6107    0.0005 C   0  0  0  0  0  0  0  0  0  0  0  0
   -2.1665    1.0267    0.8950 H   0  0  0  0  0  0  0  0  0  0  0  0
   -2.1673    1.0271   -0.8940 H   0  0  0  0  0  0  0  0  0  0  0  0
    3.3155    0.0267   -0.8935 H   0  0  0  0  0  0  0  0  0  0  0  0
    3.3146    0.0259    0.8957 H   0  0  0  0  0  0  0  0  0  0  0  0
    2.6922    1.4359    0.0014 H   0  0  0  0  0  0  0  0  0  0  0  0
    1.9613   -2.0885    0.8923 H   0  0  0  0  0  0  0  0  0  0  0  0
    1.9640   -2.0881   -0.8916 H   0  0  0  0  0  0  0  0  0  0  0  0
    0.4301   -2.1566   -0.0020 H   0  0  0  0  0  0  0  0  0  0  0  0
   -4.2022   -0.1096    0.0009 H   0  0  0  0  0  0  0  0  0  0  0  0
   -3.1672   -1.2597   -0.8792 H   0  0  0  0  0  0  0  0  0  0  0  0
   -3.1666   -1.2602    0.8797 H   0  0  0  0  0  0  0  0  0  0  0  0
  1  4  1  0  0  0  0
  1  5  1  0  0  0  0
  2  5  2  0  0  0  0
  3  5  1  0  0  0  0
  3  6  1  0  0  0  0
  3  7  1  0  0  0  0
  4  8  1  0  0  0  0
  4  9  1  0  0  0  0
  4 10  1  0  0  0  0
  6 11  1  0  0  0  0
  6 12  1  0  0  0  0
  6 13  1  0  0  0  0
  7 14  1  0  0  0  0
  7 15  1  0  0  0  0
  7 16  1  0  0  0  0
  8 17  1  0  0  0  0
  8 18  1  0  0  0  0
  8 19  1  0  0  0  0
M  END
> <PUBCHEM_COMPOUND_CID>
12709

> <PUBCHEM_CONFORMER_RMSD>
0.6

> <PUBCHEM_CONFORMER_DIVERSEORDER>
1
4
2
3
5

> <PUBCHEM_MMFF94_PARTIAL_CHARGES>
7
1 -0.43
2 -0.57
3 -0.66
4 0.28
5 0.78
6 0.3
7 0.3

> <PUBCHEM_EFFECTIVE_ROTOR_COUNT>
3

> <PUBCHEM_PHARMACOPHORE_FEATURES>
1
1 2 acceptor

> <PUBCHEM_HEAVY_ATOM_COUNT>
8

> <PUBCHEM_ATOM_DEF_STEREO_COUNT>
0

> <PUBCHEM_ATOM_UDEF_STEREO_COUNT>
0

> <PUBCHEM_BOND_DEF_STEREO_COUNT>
0

> <PUBCHEM_BOND_UDEF_STEREO_COUNT>
0

> <PUBCHEM_ISOTOPIC_ATOM_COUNT>
0

> <PUBCHEM_COMPONENT_COUNT>
1

> <PUBCHEM_CACTVS_TAUTO_COUNT>
1

> <PUBCHEM_CONFORMER_ID>
000031A500000001

> <PUBCHEM_MMFF94_ENERGY>
9.0751

> <PUBCHEM_FEATURE_SELFOVERLAP>
5.074

> <PUBCHEM_SHAPE_FINGERPRINT>
10857977 72 18337684056521675992
12932764 1 17385734603265675913
20201158 50 18343582928157904235
21040471 1 17978228262347950540
23552333 60 18334857272477882146
23552423 10 18128249197706277926
29004967 10 18413105073824625049
5460574 1 9295291642378609665

> <PUBCHEM_SHAPE_MULTIPOLES>
147.92
4.31
1.43
0.58
2.07
0.16
0
0.7
0
-0.52
0
0.01
0.02
0

> <PUBCHEM_SHAPE_SELFOVERLAP>
267.089

> <PUBCHEM_SHAPE_VOLUME>
96.6

> <PUBCHEM_COORDINATE_TYPE>
2
5
10

$$$$

