12602
  -OEChem-06261207083D

 27 28  0     1  0  0  0  0  0999 V2000
    0.9516    0.3376   -0.8683 O   0  0  0  0  0  0  0  0  0  0  0  0
   -0.0740   -2.6747    0.5002 O   0  0  0  0  0  0  0  0  0  0  0  0
    3.0479    0.6925   -0.0218 N   0  0  0  0  0  0  0  0  0  0  0  0
    1.7582   -1.2598    0.5019 N   0  0  0  0  0  0  0  0  0  0  0  0
   -0.0670   -0.6666   -0.8473 C   0  0  2  0  0  0  0  0  0  0  0  0
   -1.3464   -0.0688   -0.3670 C   0  0  0  0  0  0  0  0  0  0  0  0
    1.9621   -0.1257   -0.0795 C   0  0  0  0  0  0  0  0  0  0  0  0
    0.5048   -1.6651    0.1217 C   0  0  0  0  0  0  0  0  0  0  0  0
   -2.5622   -0.6723   -0.6884 C   0  0  0  0  0  0  0  0  0  0  0  0
   -1.3270    1.0939    0.4033 C   0  0  0  0  0  0  0  0  0  0  0  0
    3.0804    1.9416   -0.7596 C   0  0  0  0  0  0  0  0  0  0  0  0
    4.0929    0.4776    0.9617 C   0  0  0  0  0  0  0  0  0  0  0  0
   -3.7587   -0.1131   -0.2396 C   0  0  0  0  0  0  0  0  0  0  0  0
   -2.5235    1.6532    0.8522 C   0  0  0  0  0  0  0  0  0  0  0  0
   -3.7392    1.0496    0.5306 C   0  0  0  0  0  0  0  0  0  0  0  0
   -0.1477   -1.0980   -1.8499 H   0  0  0  0  0  0  0  0  0  0  0  0
   -2.5893   -1.5789   -1.2872 H   0  0  0  0  0  0  0  0  0  0  0  0
   -0.4001    1.5855    0.6841 H   0  0  0  0  0  0  0  0  0  0  0  0
    4.0693    2.4112   -0.7210 H   0  0  0  0  0  0  0  0  0  0  0  0
    2.3578    2.6507   -0.3418 H   0  0  0  0  0  0  0  0  0  0  0  0
    2.8459    1.7785   -1.8171 H   0  0  0  0  0  0  0  0  0  0  0  0
    5.0472    0.9003    0.6299 H   0  0  0  0  0  0  0  0  0  0  0  0
    4.2624   -0.5899    1.1390 H   0  0  0  0  0  0  0  0  0  0  0  0
    3.8184    0.9474    1.9116 H   0  0  0  0  0  0  0  0  0  0  0  0
   -4.7053   -0.5831   -0.4895 H   0  0  0  0  0  0  0  0  0  0  0  0
   -2.5088    2.5568    1.4544 H   0  0  0  0  0  0  0  0  0  0  0  0
   -4.6708    1.4847    0.8808 H   0  0  0  0  0  0  0  0  0  0  0  0
  1  5  1  0  0  0  0
  1  7  1  0  0  0  0
  2  8  2  0  0  0  0
  3  7  1  0  0  0  0
  3 11  1  0  0  0  0
  3 12  1  0  0  0  0
  4  7  2  0  0  0  0
  4  8  1  0  0  0  0
  5  6  1  0  0  0  0
  5  8  1  0  0  0  0
  5 16  1  0  0  0  0
  6  9  2  0  0  0  0
  6 10  1  0  0  0  0
  9 13  1  0  0  0  0
  9 17  1  0  0  0  0
 10 14  2  0  0  0  0
 10 18  1  0  0  0  0
 11 19  1  0  0  0  0
 11 20  1  0  0  0  0
 11 21  1  0  0  0  0
 12 22  1  0  0  0  0
 12 23  1  0  0  0  0
 12 24  1  0  0  0  0
 13 15  2  0  0  0  0
 13 25  1  0  0  0  0
 14 15  1  0  0  0  0
 14 26  1  0  0  0  0
 15 27  1  0  0  0  0
M  END
> <PUBCHEM_COMPOUND_CID>
12602

> <PUBCHEM_CONFORMER_RMSD>
0.6

> <PUBCHEM_CONFORMER_DIVERSEORDER>
1
2
6
7
5
3
4

> <PUBCHEM_MMFF94_PARTIAL_CHARGES>
20
1 -0.43
10 -0.15
11 0.37
12 0.37
13 -0.15
14 -0.15
15 -0.15
17 0.15
18 0.15
2 -0.57
25 0.15
26 0.15
27 0.15
3 -0.79
4 -0.66
5 0.48
6 -0.14
7 0.65
8 0.72
9 -0.15

> <PUBCHEM_EFFECTIVE_ROTOR_COUNT>
2.4

> <PUBCHEM_PHARMACOPHORE_FEATURES>
4
1 2 acceptor
1 4 donor
5 1 4 5 7 8 rings
6 6 9 10 13 14 15 rings

> <PUBCHEM_HEAVY_ATOM_COUNT>
15

> <PUBCHEM_ATOM_DEF_STEREO_COUNT>
0

> <PUBCHEM_ATOM_UDEF_STEREO_COUNT>
1

> <PUBCHEM_BOND_DEF_STEREO_COUNT>
0

> <PUBCHEM_BOND_UDEF_STEREO_COUNT>
0

> <PUBCHEM_ISOTOPIC_ATOM_COUNT>
0

> <PUBCHEM_COMPONENT_COUNT>
1

> <PUBCHEM_CACTVS_TAUTO_COUNT>
1

> <PUBCHEM_CONFORMER_ID>
0000313A00000001

> <PUBCHEM_MMFF94_ENERGY>
32.2812

> <PUBCHEM_FEATURE_SELFOVERLAP>
20.297

> <PUBCHEM_SHAPE_FINGERPRINT>
10465860 228 18264483060632594800
11132069 177 18333453140104836821
11471102 22 17561084747617367708
12251169 10 18131075930795903464
12346645 44 18335140911996666891
13380535 76 18410012113504255814
13764800 53 18268138769370470402
14787075 74 18122906434974492355
15309172 13 18202847647109590302
15536298 74 18187927334750996502
15775835 57 18259983798964605801
16945 1 17822862978433314519
170605 34 18260824938170747335
18186145 218 18409726300451911668
201361 129 18264202689525873827
20361792 2 8718826453236838921
204376 136 18272930483962225478
20510252 161 18050841126742693394
21524375 3 18335423456562672102
22854114 111 18339639057063070297
23236772 104 18333732429470422235
23402539 116 18187940434269211814
23557571 272 16516256119267589077
2748010 2 17769116849172098062
276578 36 18411697703557909290
305870 269 18339926029571630498
4340502 62 17989198275248533315
474 4 18413665820475913985
6333272 397 18341044125412113472
7364860 26 18043810011770679870

> <PUBCHEM_SHAPE_MULTIPOLES>
286.99
6.68
1.99
0.95
0.93
0.56
0.02
-3.2
-0.88
0.26
-0.28
0.19
-0.11
-0.82

> <PUBCHEM_SHAPE_SELFOVERLAP>
613.807

> <PUBCHEM_SHAPE_VOLUME>
161.3

> <PUBCHEM_COORDINATE_TYPE>
2
5
10

$$$$

