17396219
  -OEChem-06241222552D

 50 53  0     1  0  0  0  0  0999 V2000
    5.9641   -3.1149    0.0000 S   0  0  0  0  0  0  0  0  0  0  0  0
    6.5519   -3.9239    0.0000 O   0  0  0  0  0  0  0  0  0  0  0  0
    5.3763   -3.9239    0.0000 O   0  0  0  0  0  0  0  0  0  0  0  0
    7.1962   -0.5761    0.0000 O   0  0  0  0  0  0  0  0  0  0  0  0
    6.3301    3.9239    0.0000 O   0  0  0  0  0  0  0  0  0  0  0  0
    5.4641   -0.5761    0.0000 N   0  0  0  0  0  0  0  0  0  0  0  0
    5.4641    1.4239    0.0000 N   0  0  0  0  0  0  0  0  0  0  0  0
    5.4641    2.4239    0.0000 N   0  0  0  0  0  0  0  0  0  0  0  0
    5.4641   -1.5761    0.0000 C   0  0  3  0  0  0  0  0  0  0  0  0
    5.1551   -2.5271    0.0000 C   0  0  0  0  0  0  0  0  0  0  0  0
    6.4641   -1.5761    0.0000 C   0  0  0  0  0  0  0  0  0  0  0  0
    6.7731   -2.5271    0.0000 C   0  0  0  0  0  0  0  0  0  0  0  0
    4.5130   -1.2670    0.0000 C   0  0  0  0  0  0  0  0  0  0  0  0
    6.3301   -0.0761    0.0000 C   0  0  0  0  0  0  0  0  0  0  0  0
    6.3301    0.9239    0.0000 C   0  0  0  0  0  0  0  0  0  0  0  0
    7.1962    1.4239    0.0000 C   0  0  0  0  0  0  0  0  0  0  0  0
    7.1962    2.4239    0.0000 C   0  0  0  0  0  0  0  0  0  0  0  0
    6.3301    2.9239    0.0000 C   0  0  0  0  0  0  0  0  0  0  0  0
    8.0901    0.8893    0.0000 C   0  0  0  0  0  0  0  0  0  0  0  0
    4.5981    2.9239    0.0000 C   0  0  0  0  0  0  0  0  0  0  0  0
    8.0901    2.9586    0.0000 C   0  0  0  0  0  0  0  0  0  0  0  0
    8.9962    1.4031    0.0000 C   0  0  0  0  0  0  0  0  0  0  0  0
    3.7320    2.4239    0.0000 C   0  0  0  0  0  0  0  0  0  0  0  0
    8.9962    2.4447    0.0000 C   0  0  0  0  0  0  0  0  0  0  0  0
    2.8660    2.9239    0.0000 C   0  0  0  0  0  0  0  0  0  0  0  0
    3.7320    1.4239    0.0000 C   0  0  0  0  0  0  0  0  0  0  0  0
    2.0000    2.4239    0.0000 C   0  0  0  0  0  0  0  0  0  0  0  0
    2.8660    0.9239    0.0000 C   0  0  0  0  0  0  0  0  0  0  0  0
    2.0000    1.4239    0.0000 C   0  0  0  0  0  0  0  0  0  0  0  0
    4.5887   -2.2750    0.0000 H   0  0  0  0  0  0  0  0  0  0  0  0
    4.8451   -3.0641    0.0000 H   0  0  0  0  0  0  0  0  0  0  0  0
    7.0706   -1.4472    0.0000 H   0  0  0  0  0  0  0  0  0  0  0  0
    6.3993   -0.9595    0.0000 H   0  0  0  0  0  0  0  0  0  0  0  0
    7.0831   -3.0641    0.0000 H   0  0  0  0  0  0  0  0  0  0  0  0
    7.3395   -2.2750    0.0000 H   0  0  0  0  0  0  0  0  0  0  0  0
    4.7046   -0.6774    0.0000 H   0  0  0  0  0  0  0  0  0  0  0  0
    3.9234   -1.0755    0.0000 H   0  0  0  0  0  0  0  0  0  0  0  0
    4.3214   -1.8567    0.0000 H   0  0  0  0  0  0  0  0  0  0  0  0
    4.9272   -0.2661    0.0000 H   0  0  0  0  0  0  0  0  0  0  0  0
    8.0829    0.2693    0.0000 H   0  0  0  0  0  0  0  0  0  0  0  0
    4.9966    3.3989    0.0000 H   0  0  0  0  0  0  0  0  0  0  0  0
    4.1996    3.3989    0.0000 H   0  0  0  0  0  0  0  0  0  0  0  0
    8.0829    3.5786    0.0000 H   0  0  0  0  0  0  0  0  0  0  0  0
    9.5319    1.0910    0.0000 H   0  0  0  0  0  0  0  0  0  0  0  0
    9.5319    2.7568    0.0000 H   0  0  0  0  0  0  0  0  0  0  0  0
    2.8660    3.5439    0.0000 H   0  0  0  0  0  0  0  0  0  0  0  0
    4.2690    1.1139    0.0000 H   0  0  0  0  0  0  0  0  0  0  0  0
    1.4631    2.7339    0.0000 H   0  0  0  0  0  0  0  0  0  0  0  0
    2.8660    0.3039    0.0000 H   0  0  0  0  0  0  0  0  0  0  0  0
    1.4631    1.1139    0.0000 H   0  0  0  0  0  0  0  0  0  0  0  0
  1  2  2  0  0  0  0
  1  3  2  0  0  0  0
  1 10  1  0  0  0  0
  1 12  1  0  0  0  0
  4 14  2  0  0  0  0
  5 18  2  0  0  0  0
  6  9  1  0  0  0  0
  6 14  1  0  0  0  0
  6 39  1  0  0  0  0
  7  8  1  0  0  0  0
  7 15  2  0  0  0  0
  8 18  1  0  0  0  0
  8 20  1  0  0  0  0
  9 10  1  0  0  0  0
  9 11  1  0  0  0  0
  9 13  1  0  0  0  0
 10 30  1  0  0  0  0
 10 31  1  0  0  0  0
 11 12  1  0  0  0  0
 11 32  1  0  0  0  0
 11 33  1  0  0  0  0
 12 34  1  0  0  0  0
 12 35  1  0  0  0  0
 13 36  1  0  0  0  0
 13 37  1  0  0  0  0
 13 38  1  0  0  0  0
 14 15  1  0  0  0  0
 15 16  1  0  0  0  0
 16 17  1  0  0  0  0
 16 19  2  0  0  0  0
 17 18  1  0  0  0  0
 17 21  2  0  0  0  0
 19 22  1  0  0  0  0
 19 40  1  0  0  0  0
 20 23  1  0  0  0  0
 20 41  1  0  0  0  0
 20 42  1  0  0  0  0
 21 24  1  0  0  0  0
 21 43  1  0  0  0  0
 22 24  2  0  0  0  0
 22 44  1  0  0  0  0
 23 25  2  0  0  0  0
 23 26  1  0  0  0  0
 24 45  1  0  0  0  0
 25 27  1  0  0  0  0
 25 46  1  0  0  0  0
 26 28  2  0  0  0  0
 26 47  1  0  0  0  0
 27 29  2  0  0  0  0
 27 48  1  0  0  0  0
 28 29  1  0  0  0  0
 28 49  1  0  0  0  0
 29 50  1  0  0  0  0
M  END
> <PUBCHEM_COMPOUND_CID>
17396219

> <PUBCHEM_COMPOUND_CANONICALIZED>
1

> <PUBCHEM_CACTVS_COMPLEXITY>
797

> <PUBCHEM_CACTVS_HBOND_ACCEPTOR>
5

> <PUBCHEM_CACTVS_HBOND_DONOR>
1

> <PUBCHEM_CACTVS_ROTATABLE_BOND>
4

> <PUBCHEM_CACTVS_SUBSKEYS>
AAADceB7OABAAAAAAAAAAAAAAAAAASAAAAAwYIAAAAAAAACBQAAAHgQYAAAADIjF2ASyAILAAAqoAyFyEHDSAAAkABAaiAEoBNgIILKglRGEIQhgngCoiYcYi4COgAAAAAAQAAAAAAAAACAAAAAAAAAAAA==

> <PUBCHEM_IUPAC_OPENEYE_NAME>
3-benzyl-N-(3-methyl-1,1-dioxo-thiolan-3-yl)-4-oxo-phthalazine-1-carboxamide

> <PUBCHEM_IUPAC_CAS_NAME>
N-(3-methyl-1,1-dioxo-3-thiolanyl)-4-oxo-3-(phenylmethyl)-1-phthalazinecarboxamide

> <PUBCHEM_IUPAC_NAME>
3-benzyl-N-(3-methyl-1,1-dioxothiolan-3-yl)-4-oxophthalazine-1-carboxamide

> <PUBCHEM_IUPAC_SYSTEMATIC_NAME>
N-[3-methyl-1,1-bis(oxidanylidene)thiolan-3-yl]-4-oxidanylidene-3-(phenylmethyl)phthalazine-1-carboxamide

> <PUBCHEM_IUPAC_TRADITIONAL_NAME>
3-benzyl-N-(1,1-diketo-3-methyl-thiolan-3-yl)-4-keto-phthalazine-1-carboxamide

> <PUBCHEM_IUPAC_INCHI>
InChI=1S/C21H21N3O4S/c1-21(11-12-29(27,28)14-21)22-19(25)18-16-9-5-6-10-17(16)20(26)24(23-18)13-15-7-3-2-4-8-15/h2-10H,11-14H2,1H3,(H,22,25)

> <PUBCHEM_IUPAC_INCHIKEY>
OEPPZUIWZOILJU-UHFFFAOYSA-N

> <PUBCHEM_XLOGP3_AA>
1.8

> <PUBCHEM_EXACT_MASS>
411.125277

> <PUBCHEM_MOLECULAR_FORMULA>
C21H21N3O4S

> <PUBCHEM_MOLECULAR_WEIGHT>
411.47414

> <PUBCHEM_OPENEYE_CAN_SMILES>
CC1(CCS(=O)(=O)C1)NC(=O)C2=NN(C(=O)C3=CC=CC=C32)CC4=CC=CC=C4

> <PUBCHEM_OPENEYE_ISO_SMILES>
CC1(CCS(=O)(=O)C1)NC(=O)C2=NN(C(=O)C3=CC=CC=C32)CC4=CC=CC=C4

> <PUBCHEM_CACTVS_TPSA>
104

> <PUBCHEM_MONOISOTOPIC_WEIGHT>
411.125277

> <PUBCHEM_TOTAL_CHARGE>
0

> <PUBCHEM_HEAVY_ATOM_COUNT>
29

> <PUBCHEM_ATOM_DEF_STEREO_COUNT>
0

> <PUBCHEM_ATOM_UDEF_STEREO_COUNT>
1

> <PUBCHEM_BOND_DEF_STEREO_COUNT>
0

> <PUBCHEM_BOND_UDEF_STEREO_COUNT>
0

> <PUBCHEM_ISOTOPIC_ATOM_COUNT>
0

> <PUBCHEM_COMPONENT_COUNT>
1

> <PUBCHEM_CACTVS_TAUTO_COUNT>
2

> <PUBCHEM_COORDINATE_TYPE>
1
5
255

> <PUBCHEM_BONDANNOTATIONS>
15  16  8
16  17  8
16  19  8
17  18  8
17  21  8
19  22  8
21  24  8
22  24  8
23  25  8
23  26  8
25  27  8
26  28  8
27  29  8
28  29  8
7  15  8
7  8  8
8  18  8
9  13  3

$$$$

