586252
  -OEChem-06241222463D

 27 28  0     0  0  0  0  0  0999 V2000
    4.5201    1.5503    0.5556 O   0  0  0  0  0  0  0  0  0  0  0  0
    5.1680   -1.0945   -0.0025 O   0  0  0  0  0  0  0  0  0  0  0  0
   -0.4306    1.7725   -0.4462 O   0  0  0  0  0  0  0  0  0  0  0  0
   -1.1356   -0.4016    0.0844 N   0  0  0  0  0  0  0  0  0  0  0  0
   -3.2699   -1.3817    0.3622 N   0  0  0  0  0  0  0  0  0  0  0  0
    1.2107    0.1555   -0.1261 C   0  0  0  0  0  0  0  0  0  0  0  0
    2.2162    1.0669    0.1965 C   0  0  0  0  0  0  0  0  0  0  0  0
    1.5360   -1.1718   -0.4060 C   0  0  0  0  0  0  0  0  0  0  0  0
   -0.1768    0.5887   -0.1709 C   0  0  0  0  0  0  0  0  0  0  0  0
    3.5469    0.6510    0.2394 C   0  0  0  0  0  0  0  0  0  0  0  0
    3.8721   -0.6762   -0.0404 C   0  0  0  0  0  0  0  0  0  0  0  0
    2.8667   -1.5877   -0.3631 C   0  0  0  0  0  0  0  0  0  0  0  0
   -2.5472   -0.2828    0.0861 C   0  0  0  0  0  0  0  0  0  0  0  0
   -3.0669    0.9611   -0.1989 C   0  0  0  0  0  0  0  0  0  0  0  0
   -4.4516    1.0881   -0.2005 C   0  0  0  0  0  0  0  0  0  0  0  0
   -5.2460   -0.0182    0.0789 C   0  0  0  0  0  0  0  0  0  0  0  0
   -4.6121   -1.2198    0.3514 C   0  0  0  0  0  0  0  0  0  0  0  0
    1.9772    2.1036    0.4219 H   0  0  0  0  0  0  0  0  0  0  0  0
    0.7933   -1.9079   -0.6985 H   0  0  0  0  0  0  0  0  0  0  0  0
    3.1076   -2.6226   -0.5914 H   0  0  0  0  0  0  0  0  0  0  0  0
   -0.8261   -1.3348    0.3394 H   0  0  0  0  0  0  0  0  0  0  0  0
   -2.5220    1.8615   -0.4244 H   0  0  0  0  0  0  0  0  0  0  0  0
   -4.9126    2.0469   -0.4189 H   0  0  0  0  0  0  0  0  0  0  0  0
   -6.3273    0.0575    0.0832 H   0  0  0  0  0  0  0  0  0  0  0  0
   -5.1866   -2.1125    0.5754 H   0  0  0  0  0  0  0  0  0  0  0  0
    5.3779    1.0914    0.5381 H   0  0  0  0  0  0  0  0  0  0  0  0
    5.2019   -2.0413   -0.2228 H   0  0  0  0  0  0  0  0  0  0  0  0
  1 10  1  0  0  0  0
  1 26  1  0  0  0  0
  2 11  1  0  0  0  0
  2 27  1  0  0  0  0
  3  9  2  0  0  0  0
  4  9  1  0  0  0  0
  4 13  1  0  0  0  0
  4 21  1  0  0  0  0
  5 13  1  0  0  0  0
  5 17  2  0  0  0  0
  6  7  2  0  0  0  0
  6  8  1  0  0  0  0
  6  9  1  0  0  0  0
  7 10  1  0  0  0  0
  7 18  1  0  0  0  0
  8 12  2  0  0  0  0
  8 19  1  0  0  0  0
 10 11  2  0  0  0  0
 11 12  1  0  0  0  0
 12 20  1  0  0  0  0
 13 14  2  0  0  0  0
 14 15  1  0  0  0  0
 14 22  1  0  0  0  0
 15 16  2  0  0  0  0
 15 23  1  0  0  0  0
 16 17  1  0  0  0  0
 16 24  1  0  0  0  0
 17 25  1  0  0  0  0
M  END
> <PUBCHEM_COMPOUND_CID>
586252

> <PUBCHEM_CONFORMER_RMSD>
0.6

> <PUBCHEM_CONFORMER_DIVERSEORDER>
1
3
2
4

> <PUBCHEM_MMFF94_PARTIAL_CHARGES>
27
1 -0.53
10 0.08
11 0.08
12 -0.15
13 0.43
14 -0.15
15 -0.15
16 -0.15
17 0.16
18 0.15
19 0.15
2 -0.53
20 0.15
21 0.37
22 0.15
23 0.15
24 0.15
25 0.15
26 0.45
27 0.45
3 -0.57
4 -0.55
5 -0.62
6 0.09
7 -0.15
8 -0.15
9 0.54

> <PUBCHEM_EFFECTIVE_ROTOR_COUNT>
3

> <PUBCHEM_PHARMACOPHORE_FEATURES>
7
1 1 donor
1 2 donor
1 3 acceptor
1 4 donor
1 5 acceptor
6 5 13 14 15 16 17 rings
6 6 7 8 10 11 12 rings

> <PUBCHEM_HEAVY_ATOM_COUNT>
17

> <PUBCHEM_ATOM_DEF_STEREO_COUNT>
0

> <PUBCHEM_ATOM_UDEF_STEREO_COUNT>
0

> <PUBCHEM_BOND_DEF_STEREO_COUNT>
0

> <PUBCHEM_BOND_UDEF_STEREO_COUNT>
0

> <PUBCHEM_ISOTOPIC_ATOM_COUNT>
0

> <PUBCHEM_COMPONENT_COUNT>
1

> <PUBCHEM_CACTVS_TAUTO_COUNT>
34

> <PUBCHEM_CONFORMER_ID>
0008F20C00000001

> <PUBCHEM_MMFF94_ENERGY>
54.2085

> <PUBCHEM_FEATURE_SELFOVERLAP>
35.524

> <PUBCHEM_SHAPE_FINGERPRINT>
11471102 20 18334016094780337428
12107183 9 17613428270031378475
12236239 1 16732704956167378231
12507560 40 18408604755837261117
13167823 11 18408325475578503583
13675066 3 18341892970201073169
14252887 29 18336256907672196554
14341114 176 18409161104283588729
14386348 63 18342454850644464187
15196674 1 18411138030337383175
15375358 24 18412544305920571699
15536298 74 18408321094426693687
15788980 27 17632576058907466385
15961568 22 17560797672373465836
17834072 33 18186241710215830679
17844677 252 18409441501276560817
1813 80 17131830971390333117
18186145 218 15410889626549542861
19141452 34 18409445865564473471
200 152 17967535692140384329
20279233 1 18411411821944856799
20374829 77 18272090525734953227
20645477 70 18187644742903635966
21065198 57 18410292510433242353
21267235 1 18410565210533564279
22485316 2 18412265038599132167
22854114 59 18259985950711455560
23402539 116 18131074852353040783
23557571 272 17774723168145368269
23559900 14 18410858780343759448
239999 70 18335135410787444462
26918003 58 18334577962111824003
2871803 45 18343585174188371058
33824 294 18410575102302384266
3545911 37 18410853274401297277
42 15 18411416219917313543
4214541 1 18411418444974344257
5104073 3 18410011052393808649
5283173 99 18200883997090241597
5374978 207 18411705395949877144
542803 24 16732698350861053003
69090 78 18335423456795099015
77779 3 18410009944561186257
9709674 26 18341044125765859731
9971528 1 18060419110187384220

> <PUBCHEM_SHAPE_MULTIPOLES>
322.28
11.56
1.63
0.66
2.93
0.03
0.01
-1.16
-1.01
-0.46
0.02
-0.01
0.01
0.73

> <PUBCHEM_SHAPE_SELFOVERLAP>
699.036

> <PUBCHEM_SHAPE_VOLUME>
174.3

> <PUBCHEM_COORDINATE_TYPE>
2
5
10

$$$$

