14117
  -OEChem-06241222422D

 30 31  0     0  0  0  0  0  0999 V2000
    2.9483    0.0000    0.0000 Cl  0  5  0  0  0  0  0  0  0  0  0  0
    3.0755    5.8880    0.0000 N   0  0  0  0  0  0  0  0  0  0  0  0
    5.9473    3.0274    0.0000 N   0  3  0  0  0  0  0  0  0  0  0  0
    2.5755    4.3491    0.0000 C   0  0  0  0  0  0  0  0  0  0  0  0
    2.2665    5.3002    0.0000 C   0  0  0  0  0  0  0  0  0  0  0  0
    1.8906    3.5644    0.0000 C   0  0  0  0  0  0  0  0  0  0  0  0
    1.2511    5.5324    0.0000 C   0  0  0  0  0  0  0  0  0  0  0  0
    0.8701    3.7731    0.0000 C   0  0  0  0  0  0  0  0  0  0  0  0
    0.5482    4.7638    0.0000 C   0  0  0  0  0  0  0  0  0  0  0  0
    3.5755    4.3491    0.0000 C   0  0  0  0  0  0  0  0  0  0  0  0
    3.8846    5.3002    0.0000 C   0  0  0  0  0  0  0  0  0  0  0  0
    4.2605    3.5644    0.0000 C   0  0  0  0  0  0  0  0  0  0  0  0
    4.9000    5.5324    0.0000 C   0  0  0  0  0  0  0  0  0  0  0  0
    5.2810    3.7731    0.0000 C   0  0  0  0  0  0  0  0  0  0  0  0
    5.6029    4.7638    0.0000 C   0  0  0  0  0  0  0  0  0  0  0  0
    1.6642    2.9872    0.0000 H   0  0  0  0  0  0  0  0  0  0  0  0
    2.4205    3.2426    0.0000 H   0  0  0  0  0  0  0  0  0  0  0  0
    1.4907    6.1043    0.0000 H   0  0  0  0  0  0  0  0  0  0  0  0
    0.7287    5.8664    0.0000 H   0  0  0  0  0  0  0  0  0  0  0  0
    0.2563    3.6852    0.0000 H   0  0  0  0  0  0  0  0  0  0  0  0
    0.8516    3.1534    0.0000 H   0  0  0  0  0  0  0  0  0  0  0  0
    0.1690    5.2543    0.0000 H   0  0  0  0  0  0  0  0  0  0  0  0
    0.0000    4.4741    0.0000 H   0  0  0  0  0  0  0  0  0  0  0  0
    3.0755    6.5080    0.0000 H   0  0  0  0  0  0  0  0  0  0  0  0
    4.0621    2.9770    0.0000 H   0  0  0  0  0  0  0  0  0  0  0  0
    5.0847    6.1243    0.0000 H   0  0  0  0  0  0  0  0  0  0  0  0
    6.2088    4.8950    0.0000 H   0  0  0  0  0  0  0  0  0  0  0  0
    6.3604    2.5650    0.0000 H   0  0  0  0  0  0  0  0  0  0  0  0
    6.4096    3.4405    0.0000 H   0  0  0  0  0  0  0  0  0  0  0  0
    5.4849    2.6143    0.0000 H   0  0  0  0  0  0  0  0  0  0  0  0
  2  5  1  0  0  0  0
  2 11  1  0  0  0  0
  2 24  1  0  0  0  0
  3 14  1  0  0  0  0
  3 28  1  0  0  0  0
  3 29  1  0  0  0  0
  3 30  1  0  0  0  0
  4  5  2  0  0  0  0
  4  6  1  0  0  0  0
  4 10  1  0  0  0  0
  5  7  1  0  0  0  0
  6  8  1  0  0  0  0
  6 16  1  0  0  0  0
  6 17  1  0  0  0  0
  7  9  1  0  0  0  0
  7 18  1  0  0  0  0
  7 19  1  0  0  0  0
  8  9  1  0  0  0  0
  8 20  1  0  0  0  0
  8 21  1  0  0  0  0
  9 22  1  0  0  0  0
  9 23  1  0  0  0  0
 10 11  2  0  0  0  0
 10 12  1  0  0  0  0
 11 13  1  0  0  0  0
 12 14  2  0  0  0  0
 12 25  1  0  0  0  0
 13 15  2  0  0  0  0
 13 26  1  0  0  0  0
 14 15  1  0  0  0  0
 15 27  1  0  0  0  0
M  CHG  2   1  -1   3   1
M  END
> <PUBCHEM_COMPOUND_CID>
14117

> <PUBCHEM_COMPOUND_CANONICALIZED>
1

> <PUBCHEM_CACTVS_COMPLEXITY>
216

> <PUBCHEM_CACTVS_HBOND_ACCEPTOR>
1

> <PUBCHEM_CACTVS_HBOND_DONOR>
2

> <PUBCHEM_CACTVS_ROTATABLE_BOND>
0

> <PUBCHEM_CACTVS_SUBSKEYS>
AAADccBzAAAEAAAAAAAAAAAAAAAAAWAAAAAwYAAAAAAAAFgB8AAAHAAQAAAADAiBHgAwwPLJkACgAyRiRACCgCAhAiAImSAwZJgIIOLAkZGEIAhgkADIyAcQgMAOgACAQAACAAAAAQCAAAQAAAAAAAAAAA==

> <PUBCHEM_IUPAC_OPENEYE_NAME>
6,7,8,9-tetrahydro-5H-carbazol-3-ylammonium chloride

> <PUBCHEM_IUPAC_CAS_NAME>
6,7,8,9-tetrahydro-5H-carbazol-3-ylammonium chloride

> <PUBCHEM_IUPAC_NAME>
6,7,8,9-tetrahydro-5H-carbazol-3-ylazanium chloride

> <PUBCHEM_IUPAC_SYSTEMATIC_NAME>
6,7,8,9-tetrahydro-5H-carbazol-3-ylazanium chloride

> <PUBCHEM_IUPAC_TRADITIONAL_NAME>
6,7,8,9-tetrahydro-5H-carbazol-3-ylammonium chloride

> <PUBCHEM_IUPAC_INCHI>
InChI=1S/C12H14N2.ClH/c13-8-5-6-12-10(7-8)9-3-1-2-4-11(9)14-12;/h5-7,14H,1-4,13H2;1H

> <PUBCHEM_IUPAC_INCHIKEY>
IQYBYMUXGYHPFW-UHFFFAOYSA-N

> <PUBCHEM_EXACT_MASS>
222.092376

> <PUBCHEM_MOLECULAR_FORMULA>
C12H15ClN2

> <PUBCHEM_MOLECULAR_WEIGHT>
222.7139

> <PUBCHEM_OPENEYE_CAN_SMILES>
C1CCC2=C(C1)C3=C(N2)C=CC(=C3)[NH3+].[Cl-]

> <PUBCHEM_OPENEYE_ISO_SMILES>
C1CCC2=C(C1)C3=C(N2)C=CC(=C3)[NH3+].[Cl-]

> <PUBCHEM_CACTVS_TPSA>
43.4

> <PUBCHEM_MONOISOTOPIC_WEIGHT>
222.092376

> <PUBCHEM_TOTAL_CHARGE>
0

> <PUBCHEM_HEAVY_ATOM_COUNT>
15

> <PUBCHEM_ATOM_DEF_STEREO_COUNT>
0

> <PUBCHEM_ATOM_UDEF_STEREO_COUNT>
0

> <PUBCHEM_BOND_DEF_STEREO_COUNT>
0

> <PUBCHEM_BOND_UDEF_STEREO_COUNT>
0

> <PUBCHEM_ISOTOPIC_ATOM_COUNT>
0

> <PUBCHEM_COMPONENT_COUNT>
2

> <PUBCHEM_CACTVS_TAUTO_COUNT>
1

> <PUBCHEM_COORDINATE_TYPE>
1
5
255

> <PUBCHEM_BONDANNOTATIONS>
10  11  8
10  12  8
11  13  8
12  14  8
13  15  8
14  15  8
2  11  8
2  5  8
4  10  8
4  5  8

$$$$

