10718
  -OEChem-06261204532D

 30 31  0     0  0  0  0  0  0999 V2000
    2.5369    2.1900    0.0000 O   0  0  0  0  0  0  0  0  0  0  0  0
    6.0010   -0.8100    0.0000 O   0  0  0  0  0  0  0  0  0  0  0  0
    5.1350    3.6900    0.0000 O   0  0  0  0  0  0  0  0  0  0  0  0
    3.4030    3.6900    0.0000 O   0  0  0  0  0  0  0  0  0  0  0  0
    4.2690   -0.8100    0.0000 N   0  0  0  0  0  0  0  0  0  0  0  0
    4.2690    0.1900    0.0000 C   0  0  0  0  0  0  0  0  0  0  0  0
    3.4030    0.6900    0.0000 C   0  0  0  0  0  0  0  0  0  0  0  0
    4.2690    2.1900    0.0000 C   0  0  0  0  0  0  0  0  0  0  0  0
    5.1350    0.6900    0.0000 C   0  0  0  0  0  0  0  0  0  0  0  0
    3.4030    1.6900    0.0000 C   0  0  0  0  0  0  0  0  0  0  0  0
    5.1350   -2.3100    0.0000 C   0  0  0  0  0  0  0  0  0  0  0  0
    5.1350    1.6900    0.0000 C   0  0  0  0  0  0  0  0  0  0  0  0
    5.1350   -1.3100    0.0000 C   0  0  0  0  0  0  0  0  0  0  0  0
    4.2690   -2.8100    0.0000 C   0  0  0  0  0  0  0  0  0  0  0  0
    6.0010   -2.8100    0.0000 C   0  0  0  0  0  0  0  0  0  0  0  0
    4.2690   -3.8100    0.0000 C   0  0  0  0  0  0  0  0  0  0  0  0
    6.0010   -3.8100    0.0000 C   0  0  0  0  0  0  0  0  0  0  0  0
    4.2690    3.1900    0.0000 C   0  0  0  0  0  0  0  0  0  0  0  0
    5.1350   -4.3100    0.0000 C   0  0  0  0  0  0  0  0  0  0  0  0
    2.8660    0.3800    0.0000 H   0  0  0  0  0  0  0  0  0  0  0  0
    5.6720    0.3800    0.0000 H   0  0  0  0  0  0  0  0  0  0  0  0
    3.7320   -1.1200    0.0000 H   0  0  0  0  0  0  0  0  0  0  0  0
    5.6720    2.0000    0.0000 H   0  0  0  0  0  0  0  0  0  0  0  0
    3.7320   -2.5000    0.0000 H   0  0  0  0  0  0  0  0  0  0  0  0
    6.5380   -2.5000    0.0000 H   0  0  0  0  0  0  0  0  0  0  0  0
    3.7320   -4.1200    0.0000 H   0  0  0  0  0  0  0  0  0  0  0  0
    6.5380   -4.1200    0.0000 H   0  0  0  0  0  0  0  0  0  0  0  0
    5.1350   -4.9300    0.0000 H   0  0  0  0  0  0  0  0  0  0  0  0
    2.0000    1.8800    0.0000 H   0  0  0  0  0  0  0  0  0  0  0  0
    5.1350    4.3100    0.0000 H   0  0  0  0  0  0  0  0  0  0  0  0
  1 10  1  0  0  0  0
  1 29  1  0  0  0  0
  2 13  2  0  0  0  0
  3 18  1  0  0  0  0
  3 30  1  0  0  0  0
  4 18  2  0  0  0  0
  5  6  1  0  0  0  0
  5 13  1  0  0  0  0
  5 22  1  0  0  0  0
  6  7  2  0  0  0  0
  6  9  1  0  0  0  0
  7 10  1  0  0  0  0
  7 20  1  0  0  0  0
  8 10  2  0  0  0  0
  8 12  1  0  0  0  0
  8 18  1  0  0  0  0
  9 12  2  0  0  0  0
  9 21  1  0  0  0  0
 11 13  1  0  0  0  0
 11 14  2  0  0  0  0
 11 15  1  0  0  0  0
 12 23  1  0  0  0  0
 14 16  1  0  0  0  0
 14 24  1  0  0  0  0
 15 17  2  0  0  0  0
 15 25  1  0  0  0  0
 16 19  2  0  0  0  0
 16 26  1  0  0  0  0
 17 19  1  0  0  0  0
 17 27  1  0  0  0  0
 19 28  1  0  0  0  0
M  END
> <PUBCHEM_COMPOUND_CID>
10718

> <PUBCHEM_COMPOUND_CANONICALIZED>
1

> <PUBCHEM_CACTVS_COMPLEXITY>
338

> <PUBCHEM_CACTVS_HBOND_ACCEPTOR>
4

> <PUBCHEM_CACTVS_HBOND_DONOR>
3

> <PUBCHEM_CACTVS_ROTATABLE_BOND>
3

> <PUBCHEM_CACTVS_SUBSKEYS>
AAADccByOAAAAAAAAAAAAAAAAAAAAAAAAAAwYAAAAAAAAAABQAAAHgAQCAAADAyBmAAwzoLAAgCIAiXSWACCAAAlIgAIiAEGbMgIJzbClZOEcUhn9BnI2YeY2SOeCAAAAgAIAAAQAAAEABAAAAAAAAAAAA==

> <PUBCHEM_IUPAC_OPENEYE_NAME>
4-benzamido-2-hydroxy-benzoic acid

> <PUBCHEM_IUPAC_CAS_NAME>
4-benzamido-2-hydroxybenzoic acid

> <PUBCHEM_IUPAC_NAME>
4-benzamido-2-hydroxybenzoic acid

> <PUBCHEM_IUPAC_SYSTEMATIC_NAME>
4-benzamido-2-oxidanyl-benzoic acid

> <PUBCHEM_IUPAC_TRADITIONAL_NAME>
4-benzamido-2-hydroxy-benzoic acid

> <PUBCHEM_IUPAC_INCHI>
InChI=1S/C14H11NO4/c16-12-8-10(6-7-11(12)14(18)19)15-13(17)9-4-2-1-3-5-9/h1-8,16H,(H,15,17)(H,18,19)

> <PUBCHEM_IUPAC_INCHIKEY>
GNZCRYWFWKFIDM-UHFFFAOYSA-N

> <PUBCHEM_XLOGP3>
3.3

> <PUBCHEM_EXACT_MASS>
257.068808

> <PUBCHEM_MOLECULAR_FORMULA>
C14H11NO4

> <PUBCHEM_MOLECULAR_WEIGHT>
257.24144

> <PUBCHEM_OPENEYE_CAN_SMILES>
C1=CC=C(C=C1)C(=O)NC2=CC(=C(C=C2)C(=O)O)O

> <PUBCHEM_OPENEYE_ISO_SMILES>
C1=CC=C(C=C1)C(=O)NC2=CC(=C(C=C2)C(=O)O)O

> <PUBCHEM_CACTVS_TPSA>
86.6

> <PUBCHEM_MONOISOTOPIC_WEIGHT>
257.068808

> <PUBCHEM_TOTAL_CHARGE>
0

> <PUBCHEM_HEAVY_ATOM_COUNT>
19

> <PUBCHEM_ATOM_DEF_STEREO_COUNT>
0

> <PUBCHEM_ATOM_UDEF_STEREO_COUNT>
0

> <PUBCHEM_BOND_DEF_STEREO_COUNT>
0

> <PUBCHEM_BOND_UDEF_STEREO_COUNT>
0

> <PUBCHEM_ISOTOPIC_ATOM_COUNT>
0

> <PUBCHEM_COMPONENT_COUNT>
1

> <PUBCHEM_CACTVS_TAUTO_COUNT>
17

> <PUBCHEM_COORDINATE_TYPE>
1
5
255

> <PUBCHEM_BONDANNOTATIONS>
11  14  8
11  15  8
14  16  8
15  17  8
16  19  8
17  19  8
6  7  8
6  9  8
7  10  8
8  10  8
8  12  8
9  12  8

$$$$

