17395398
  -OEChem-06241222503D

 46 49  0     0  0  0  0  0  0999 V2000
   -3.6047   -1.6428    1.2117 O   0  0  0  0  0  0  0  0  0  0  0  0
   -5.3723   -0.5930   -0.9635 O   0  0  0  0  0  0  0  0  0  0  0  0
   -0.7595    2.9626    1.3113 O   0  0  0  0  0  0  0  0  0  0  0  0
    0.5906    1.7052   -0.1259 N   0  0  0  0  0  0  0  0  0  0  0  0
    1.8011    2.4647    0.1797 C   0  0  0  0  0  0  0  0  0  0  0  0
    2.8949    1.5369    0.7022 C   0  0  0  0  0  0  0  0  0  0  0  0
    0.7417    0.6305   -1.1170 C   0  0  0  0  0  0  0  0  0  0  0  0
    3.0638    0.3221   -0.1788 C   0  0  0  0  0  0  0  0  0  0  0  0
    2.0701   -0.0635   -1.0026 C   0  0  0  0  0  0  0  0  0  0  0  0
   -0.6175    2.0660    0.4808 C   0  0  0  0  0  0  0  0  0  0  0  0
    4.3387   -0.4294   -0.0925 C   0  0  0  0  0  0  0  0  0  0  0  0
   -1.8330    1.3280    0.1031 C   0  0  0  0  0  0  0  0  0  0  0  0
   -3.3665   -0.5146    0.4678 C   0  0  0  0  0  0  0  0  0  0  0  0
   -2.2084    0.1899    0.8161 C   0  0  0  0  0  0  0  0  0  0  0  0
   -4.1819   -0.0371   -0.5675 C   0  0  0  0  0  0  0  0  0  0  0  0
   -5.7128   -2.5628    0.4217 C   0  0  0  0  0  0  0  0  0  0  0  0
   -2.6153    1.7720   -0.9596 C   0  0  0  0  0  0  0  0  0  0  0  0
   -4.1998   -2.7095    0.4731 C   0  0  0  0  0  0  0  0  0  0  0  0
   -6.1428   -1.1383    0.1072 C   0  0  0  0  0  0  0  0  0  0  0  0
    4.8196   -1.1194   -1.2053 C   0  0  0  0  0  0  0  0  0  0  0  0
    5.0586   -0.4446    1.1021 C   0  0  0  0  0  0  0  0  0  0  0  0
   -3.7848    1.0905   -1.2955 C   0  0  0  0  0  0  0  0  0  0  0  0
    6.0204   -1.8244   -1.1236 C   0  0  0  0  0  0  0  0  0  0  0  0
    6.2595   -1.1496    1.1838 C   0  0  0  0  0  0  0  0  0  0  0  0
    6.7404   -1.8395    0.0710 C   0  0  0  0  0  0  0  0  0  0  0  0
    1.5985    3.2507    0.9143 H   0  0  0  0  0  0  0  0  0  0  0  0
    2.1193    2.9589   -0.7468 H   0  0  0  0  0  0  0  0  0  0  0  0
    2.6358    1.2091    1.7170 H   0  0  0  0  0  0  0  0  0  0  0  0
    3.8268    2.1118    0.7610 H   0  0  0  0  0  0  0  0  0  0  0  0
    0.6490    1.0863   -2.1090 H   0  0  0  0  0  0  0  0  0  0  0  0
   -0.0549   -0.1093   -1.0104 H   0  0  0  0  0  0  0  0  0  0  0  0
    2.1650   -0.9481   -1.6264 H   0  0  0  0  0  0  0  0  0  0  0  0
   -1.5879   -0.1640    1.6370 H   0  0  0  0  0  0  0  0  0  0  0  0
   -6.1547   -2.8545    1.3814 H   0  0  0  0  0  0  0  0  0  0  0  0
   -6.1025   -3.2524   -0.3360 H   0  0  0  0  0  0  0  0  0  0  0  0
   -2.3308    2.6550   -1.5258 H   0  0  0  0  0  0  0  0  0  0  0  0
   -3.9466   -3.6446    0.9852 H   0  0  0  0  0  0  0  0  0  0  0  0
   -3.7634   -2.7864   -0.5320 H   0  0  0  0  0  0  0  0  0  0  0  0
   -7.1913   -1.1413   -0.2113 H   0  0  0  0  0  0  0  0  0  0  0  0
   -6.0975   -0.4934    0.9955 H   0  0  0  0  0  0  0  0  0  0  0  0
   -4.3970    1.4578   -2.1156 H   0  0  0  0  0  0  0  0  0  0  0  0
    4.3033   -1.1120   -2.1612 H   0  0  0  0  0  0  0  0  0  0  0  0
    4.7083    0.0711    1.9919 H   0  0  0  0  0  0  0  0  0  0  0  0
    6.3982   -2.3569   -1.9915 H   0  0  0  0  0  0  0  0  0  0  0  0
    6.8193   -1.1637    2.1145 H   0  0  0  0  0  0  0  0  0  0  0  0
    7.6758   -2.3877    0.1344 H   0  0  0  0  0  0  0  0  0  0  0  0
  1 13  1  0  0  0  0
  1 18  1  0  0  0  0
  2 15  1  0  0  0  0
  2 19  1  0  0  0  0
  3 10  2  0  0  0  0
  4  5  1  0  0  0  0
  4  7  1  0  0  0  0
  4 10  1  0  0  0  0
  5  6  1  0  0  0  0
  5 26  1  0  0  0  0
  5 27  1  0  0  0  0
  6  8  1  0  0  0  0
  6 28  1  0  0  0  0
  6 29  1  0  0  0  0
  7  9  1  0  0  0  0
  7 30  1  0  0  0  0
  7 31  1  0  0  0  0
  8  9  2  0  0  0  0
  8 11  1  0  0  0  0
  9 32  1  0  0  0  0
 10 12  1  0  0  0  0
 11 20  2  0  0  0  0
 11 21  1  0  0  0  0
 12 14  2  0  0  0  0
 12 17  1  0  0  0  0
 13 14  1  0  0  0  0
 13 15  2  0  0  0  0
 14 33  1  0  0  0  0
 15 22  1  0  0  0  0
 16 18  1  0  0  0  0
 16 19  1  0  0  0  0
 16 34  1  0  0  0  0
 16 35  1  0  0  0  0
 17 22  2  0  0  0  0
 17 36  1  0  0  0  0
 18 37  1  0  0  0  0
 18 38  1  0  0  0  0
 19 39  1  0  0  0  0
 19 40  1  0  0  0  0
 20 23  1  0  0  0  0
 20 42  1  0  0  0  0
 21 24  2  0  0  0  0
 21 43  1  0  0  0  0
 22 41  1  0  0  0  0
 23 25  2  0  0  0  0
 23 44  1  0  0  0  0
 24 25  1  0  0  0  0
 24 45  1  0  0  0  0
 25 46  1  0  0  0  0
M  END
> <PUBCHEM_COMPOUND_CID>
17395398

> <PUBCHEM_CONFORMER_RMSD>
0.8

> <PUBCHEM_CONFORMER_DIVERSEORDER>
5
19
9
7
14
18
11
4
6
12
13
20
8
3
17
15
10
21
16
1
22
2

> <PUBCHEM_MMFF94_PARTIAL_CHARGES>
33
1 -0.36
10 0.54
11 0.03
12 0.09
13 0.08
14 -0.15
15 0.08
17 -0.15
18 0.28
19 0.28
2 -0.36
20 -0.15
21 -0.15
22 -0.15
23 -0.15
24 -0.15
25 -0.15
3 -0.57
32 0.15
33 0.15
36 0.15
4 -0.66
41 0.15
42 0.15
43 0.15
44 0.15
45 0.15
46 0.15
5 0.3
6 0.14
7 0.44
8 -0.17
9 -0.29

> <PUBCHEM_EFFECTIVE_ROTOR_COUNT>
4.8

> <PUBCHEM_PHARMACOPHORE_FEATURES>
7
1 1 acceptor
1 2 acceptor
1 3 acceptor
6 11 20 21 23 24 25 rings
6 12 13 14 15 17 22 rings
6 4 5 6 7 8 9 rings
7 1 2 13 15 16 18 19 rings

> <PUBCHEM_HEAVY_ATOM_COUNT>
25

> <PUBCHEM_ATOM_DEF_STEREO_COUNT>
0

> <PUBCHEM_ATOM_UDEF_STEREO_COUNT>
0

> <PUBCHEM_BOND_DEF_STEREO_COUNT>
0

> <PUBCHEM_BOND_UDEF_STEREO_COUNT>
0

> <PUBCHEM_ISOTOPIC_ATOM_COUNT>
0

> <PUBCHEM_COMPONENT_COUNT>
1

> <PUBCHEM_CACTVS_TAUTO_COUNT>
1

> <PUBCHEM_CONFORMER_ID>
01096EC600000005

> <PUBCHEM_MMFF94_ENERGY>
86.8543

> <PUBCHEM_FEATURE_SELFOVERLAP>
35.534

> <PUBCHEM_SHAPE_FINGERPRINT>
10 15 6699806497057920543
10076449 9 17240750819217767246
11135609 99 18411985737535535886
11796584 16 18271251620133150232
11809386 21 18060422447197384747
12166972 35 18060414694681279756
12760667 363 18408885135887292787
12895836 83 10303810969274068365
13402501 40 18410008827685735647
13540713 5 18264745762577462416
13685833 64 18409730655448535658
13782708 43 18342178821871037831
14123256 34 18407754846344791926
14216079 64 18411981322209052035
14251751 18 18343585113974315983
14341114 328 13984665836752075824
14420673 8 18341608197333401947
14848160 23 18409454699932055342
14848178 5 18410574011469874654
14866123 147 18336539521743902873
14910302 57 18060148595904000325
14931854 50 17846505854465346987
15183329 4 15052016788376457610
15188451 53 18341900714312145866
15510800 12 18261107521856247310
17138139 8 17917997161713381330
18222031 100 18130784586390736564
19377110 9 15936410018175889512
193927 3 18334853926825049700
20028762 73 18260265235624935766
20281389 69 8646767790153098094
20403669 9 18409726253128396711
20567600 70 18411139100264359498
21033650 10 17131840910114136325
21302155 148 7709458333625187578
21315763 87 17748830691846203866
21623969 137 17894914044743730798
21781051 124 16916494858271412987
22393880 68 18060430126430273440
229767 8 17841138962502174827
23198884 109 15410892972592888455
23522609 53 18053345960244604085
23559900 14 18200880565358435997
25025965 108 17462309111531209598
25122255 55 18411134731834492654
270888 7 9079126539788027779
2748736 6 9079122124250644995
2838139 119 9943529570416014210
293599 30 10231753396695198156
3004659 81 18131632270673369310
3089732 80 18410852153183289654
312425 54 17750223871778240482
3383291 50 18410577262787498739
3862424 121 16914794948702121851
392239 28 15719400524893380282
439807 62 18130785642610053219
44062 13 18273217504058258997
463206 1 18268709420480490947
465052 167 18260827086208257524
484985 159 18337947987311376145
5104073 3 18114178627147006216
559249 180 18341897424425011549
5718773 13 18337676308981598255
636775 8 18262789779548360646
7808743 9 8430310229810740148
7970288 3 18409166623454136262
86090 222 17895459419654632374
8863177 126 18339362963685851158
960060 61 16272209695809855448

> <PUBCHEM_SHAPE_MULTIPOLES>
491.9
16.97
2.91
1.25
8.53
0.19
-0.08
-15.77
0
-1.74
0.61
0.49
0.03
1.34

> <PUBCHEM_SHAPE_SELFOVERLAP>
1071.683

> <PUBCHEM_SHAPE_VOLUME>
264.7

> <PUBCHEM_COORDINATE_TYPE>
2
5
10

$$$$

