17395511
  -OEChem-06241222503D

 41 43  0     0  0  0  0  0  0999 V2000
    8.0331    1.7053   -0.1579 S   0  0  0  0  0  0  0  0  0  0  0  0
    4.0215   -0.9264    0.0958 O   0  0  0  0  0  0  0  0  0  0  0  0
   -0.4409    1.2567    1.0293 O   0  0  0  0  0  0  0  0  0  0  0  0
   -7.8801    0.1140   -0.3151 O   0  0  0  0  0  0  0  0  0  0  0  0
   -1.9733   -0.3366    0.2286 N   0  0  0  0  0  0  0  0  0  0  0  0
    6.2480    0.3113   -1.4039 N   0  0  0  0  0  0  0  0  0  0  0  0
    0.3905   -0.8598    0.5393 C   0  0  0  0  0  0  0  0  0  0  0  0
   -3.1770    0.3678    0.1859 C   0  0  0  0  0  0  0  0  0  0  0  0
    2.7406   -1.3517    0.2716 C   0  0  0  0  0  0  0  0  0  0  0  0
    1.7030   -0.4236    0.3591 C   0  0  0  0  0  0  0  0  0  0  0  0
   -5.5440    0.4396   -0.2926 C   0  0  0  0  0  0  0  0  0  0  0  0
   -0.7154    0.1289    0.6334 C   0  0  0  0  0  0  0  0  0  0  0  0
   -4.3411   -0.2653   -0.2497 C   0  0  0  0  0  0  0  0  0  0  0  0
    0.1155   -2.2242    0.6318 C   0  0  0  0  0  0  0  0  0  0  0  0
   -3.2160    1.7056    0.5787 C   0  0  0  0  0  0  0  0  0  0  0  0
    2.4655   -2.7161    0.3642 C   0  0  0  0  0  0  0  0  0  0  0  0
   -5.5828    1.7774    0.1003 C   0  0  0  0  0  0  0  0  0  0  0  0
    1.1530   -3.1524    0.5442 C   0  0  0  0  0  0  0  0  0  0  0  0
    4.2319    0.4821    0.0093 C   0  0  0  0  0  0  0  0  0  0  0  0
   -4.4188    2.4105    0.5361 C   0  0  0  0  0  0  0  0  0  0  0  0
   -6.7582   -0.2198   -0.7460 C   0  0  0  0  0  0  0  0  0  0  0  0
    5.6610    0.8151   -0.2596 C   0  0  0  0  0  0  0  0  0  0  0  0
   -6.6842   -1.3475   -1.7697 C   0  0  0  0  0  0  0  0  0  0  0  0
    6.4708    1.5932    0.5408 C   0  0  0  0  0  0  0  0  0  0  0  0
    7.4976    0.7161   -1.4539 C   0  0  0  0  0  0  0  0  0  0  0  0
    1.8634    0.6467    0.2907 H   0  0  0  0  0  0  0  0  0  0  0  0
   -4.3000   -1.3123   -0.5406 H   0  0  0  0  0  0  0  0  0  0  0  0
   -2.0430   -1.2878   -0.1214 H   0  0  0  0  0  0  0  0  0  0  0  0
   -0.8839   -2.6092    0.8106 H   0  0  0  0  0  0  0  0  0  0  0  0
   -2.3598    2.2655    0.9271 H   0  0  0  0  0  0  0  0  0  0  0  0
    3.2699   -3.4436    0.2986 H   0  0  0  0  0  0  0  0  0  0  0  0
   -6.5099    2.3439    0.0701 H   0  0  0  0  0  0  0  0  0  0  0  0
    0.9406   -4.2145    0.6251 H   0  0  0  0  0  0  0  0  0  0  0  0
    3.6578    0.9020   -0.8275 H   0  0  0  0  0  0  0  0  0  0  0  0
    3.9317    0.9623    0.9498 H   0  0  0  0  0  0  0  0  0  0  0  0
   -4.4501    3.4527    0.8408 H   0  0  0  0  0  0  0  0  0  0  0  0
   -6.5688   -2.3035   -1.2533 H   0  0  0  0  0  0  0  0  0  0  0  0
   -5.8554   -1.1876   -2.4646 H   0  0  0  0  0  0  0  0  0  0  0  0
   -7.6076   -1.3576   -2.3567 H   0  0  0  0  0  0  0  0  0  0  0  0
    6.2320    2.0864    1.4725 H   0  0  0  0  0  0  0  0  0  0  0  0
    8.1583    0.4438   -2.2655 H   0  0  0  0  0  0  0  0  0  0  0  0
  1 24  1  0  0  0  0
  1 25  1  0  0  0  0
  2  9  1  0  0  0  0
  2 19  1  0  0  0  0
  3 12  2  0  0  0  0
  4 21  2  0  0  0  0
  5  8  1  0  0  0  0
  5 12  1  0  0  0  0
  5 28  1  0  0  0  0
  6 22  1  0  0  0  0
  6 25  2  0  0  0  0
  7 10  2  0  0  0  0
  7 12  1  0  0  0  0
  7 14  1  0  0  0  0
  8 13  1  0  0  0  0
  8 15  2  0  0  0  0
  9 10  1  0  0  0  0
  9 16  2  0  0  0  0
 10 26  1  0  0  0  0
 11 13  2  0  0  0  0
 11 17  1  0  0  0  0
 11 21  1  0  0  0  0
 13 27  1  0  0  0  0
 14 18  2  0  0  0  0
 14 29  1  0  0  0  0
 15 20  1  0  0  0  0
 15 30  1  0  0  0  0
 16 18  1  0  0  0  0
 16 31  1  0  0  0  0
 17 20  2  0  0  0  0
 17 32  1  0  0  0  0
 18 33  1  0  0  0  0
 19 22  1  0  0  0  0
 19 34  1  0  0  0  0
 19 35  1  0  0  0  0
 20 36  1  0  0  0  0
 21 23  1  0  0  0  0
 22 24  2  0  0  0  0
 23 37  1  0  0  0  0
 23 38  1  0  0  0  0
 23 39  1  0  0  0  0
 24 40  1  0  0  0  0
 25 41  1  0  0  0  0
M  END
> <PUBCHEM_COMPOUND_CID>
17395511

> <PUBCHEM_CONFORMER_RMSD>
1.2

> <PUBCHEM_CONFORMER_DIVERSEORDER>
3
44
29
28
67
32
15
47
41
54
57
27
9
61
65
25
72
10
30
34
63
42
4
64
62
68
59
55
16
36
70
45
39
19
23
35
50
49
7
69
5
31
48
58
14
51
2
13
43
24
38
18
26
56
6
12
17
60
20
8
71
37
1
66
53
11
33
21
46
52
22
40

> <PUBCHEM_MMFF94_PARTIAL_CHARGES>
36
1 -0.08
10 -0.15
11 0.09
12 0.54
13 -0.15
14 -0.15
15 -0.15
16 -0.15
17 -0.15
18 -0.15
19 0.46
2 -0.36
20 -0.15
21 0.42
22 0.05
23 0.06
24 -0.11
25 0.23
26 0.15
27 0.15
28 0.37
29 0.15
3 -0.57
30 0.15
31 0.15
32 0.15
33 0.15
36 0.15
4 -0.57
40 0.15
41 0.15
5 -0.55
6 -0.57
7 0.09
8 0.12
9 0.08

> <PUBCHEM_EFFECTIVE_ROTOR_COUNT>
7

> <PUBCHEM_PHARMACOPHORE_FEATURES>
8
1 2 acceptor
1 3 acceptor
1 4 acceptor
1 5 donor
1 6 acceptor
5 1 6 22 24 25 rings
6 7 9 10 14 16 18 rings
6 8 11 13 15 17 20 rings

> <PUBCHEM_HEAVY_ATOM_COUNT>
25

> <PUBCHEM_ATOM_DEF_STEREO_COUNT>
0

> <PUBCHEM_ATOM_UDEF_STEREO_COUNT>
0

> <PUBCHEM_BOND_DEF_STEREO_COUNT>
0

> <PUBCHEM_BOND_UDEF_STEREO_COUNT>
0

> <PUBCHEM_ISOTOPIC_ATOM_COUNT>
0

> <PUBCHEM_COMPONENT_COUNT>
1

> <PUBCHEM_CACTVS_TAUTO_COUNT>
4

> <PUBCHEM_CONFORMER_ID>
01096F3700000003

> <PUBCHEM_MMFF94_ENERGY>
75.9511

> <PUBCHEM_FEATURE_SELFOVERLAP>
40.596

> <PUBCHEM_SHAPE_FINGERPRINT>
10299344 5 7709458338252262664
10595046 47 18337393850419680473
10669705 176 18412258429040395134
10753850 27 6266903446576387854
11135609 187 18272938262970853457
11443803 9 18341906156267949218
11973863 73 5833448461777896782
12293681 160 18113613504530346858
12592606 108 8862937273800914417
12821665 9 18410575059552755623
12838862 33 18270412607426677452
13150687 139 18408597068321107622
13540713 5 17972028412594658266
13673619 4 5689596078413886618
13685833 64 7420947565265912150
14117953 113 18201431472830084996
14123256 10 18409167701290058261
14257110 125 18412544319090102242
14420673 8 8286199457246471341
14428016 545 9151184159917590871
14528608 73 18408885169856660514
14767858 380 18408888425436641661
14931854 50 18260546749187279728
15003188 100 18187083915350023352
15131766 46 15336842931043052438
15183329 4 17022894675557645862
15301273 46 13326577384795885162
15352257 5 15213020436125967461
1577012 14 18410575132224581257
15961568 22 17988641930053376484
1754911 235 18334296470150800141
18365409 1 18266740186206721719
20554085 129 18187377511061761746
21033648 29 16343422929289725447
21049683 118 18129118731817057386
21049683 271 18409450259327047705
21150785 3 17967532363340497236
21298829 104 18343014523527971508
21344244 246 16806430574893292494
21365058 113 14923950024421644155
21521239 73 17676478485159480190
21585481 151 10592042471166966288
22224240 67 18131071515559045086
23522609 53 17969202577965723961
23559900 14 18339371773544678649
246663 6 14129055902582070533
3103668 31 18050005493622218335
335352 9 18412538835276981438
34797466 226 16877948213414789456
4073 2 18201715189647933107
4325135 7 18408042905506270077
45377200 153 16371582384577317415
5080951 261 16128360555721395385
5207 217 18413670192836920083
5219985 9 7204776986507664562
5283384 27 17561087998828476980
543368 44 18411417336978348457
5470011 282 14562525164358775832
5486654 2 18409729551832026650
5758199 1 18412823590316034529
6058803 2 17975416038111266075
6327066 14 18341609266785163076
9961470 85 18051695438925690484

> <PUBCHEM_SHAPE_MULTIPOLES>
490.77
23.36
2.63
1.07
7.9
1.39
0.38
-12.6
9.71
0.73
-0.64
0.01
0.07
-1.68

> <PUBCHEM_SHAPE_SELFOVERLAP>
1047.902

> <PUBCHEM_SHAPE_VOLUME>
273.9

> <PUBCHEM_COORDINATE_TYPE>
2
5
10

$$$$

