12977
  -OEChem-06261207373D

 19 18  0     0  0  0  0  0  0999 V2000
   -0.0133   -0.8673    0.6017 P   0  0  0  0  0  0  0  0  0  0  0  0
    0.9488    0.3429    0.1090 O   0  0  0  0  0  0  0  0  0  0  0  0
   -1.3649   -0.4160   -0.1734 O   0  0  0  0  0  0  0  0  0  0  0  0
    0.4794   -1.9930   -0.4518 O   0  0  0  0  0  0  0  0  0  0  0  0
    2.3472    0.1035    0.1850 C   0  0  0  0  0  0  0  0  0  0  0  0
   -2.1337    0.6047    0.4476 C   0  0  0  0  0  0  0  0  0  0  0  0
    3.0849    1.3289   -0.3107 C   0  0  0  0  0  0  0  0  0  0  0  0
   -3.3484    0.8964   -0.4073 C   0  0  0  0  0  0  0  0  0  0  0  0
    2.6428   -0.0976    1.2225 H   0  0  0  0  0  0  0  0  0  0  0  0
    2.6395   -0.7495   -0.4395 H   0  0  0  0  0  0  0  0  0  0  0  0
   -2.4647    0.2799    1.4423 H   0  0  0  0  0  0  0  0  0  0  0  0
   -1.5423    1.5232    0.5519 H   0  0  0  0  0  0  0  0  0  0  0  0
    4.1674    1.1808   -0.2620 H   0  0  0  0  0  0  0  0  0  0  0  0
    2.8056    1.5552   -1.3451 H   0  0  0  0  0  0  0  0  0  0  0  0
    2.8216    2.2065    0.2891 H   0  0  0  0  0  0  0  0  0  0  0  0
   -3.9653    1.6790    0.0431 H   0  0  0  0  0  0  0  0  0  0  0  0
   -3.0464    1.2181   -1.4095 H   0  0  0  0  0  0  0  0  0  0  0  0
   -3.9576   -0.0049   -0.5326 H   0  0  0  0  0  0  0  0  0  0  0  0
    0.4190   -1.6518   -1.3697 H   0  0  0  0  0  0  0  0  0  0  0  0
  1  2  1  0  0  0  0
  1  3  1  0  0  0  0
  1  4  1  0  0  0  0
  2  5  1  0  0  0  0
  3  6  1  0  0  0  0
  4 19  1  0  0  0  0
  5  7  1  0  0  0  0
  5  9  1  0  0  0  0
  5 10  1  0  0  0  0
  6  8  1  0  0  0  0
  6 11  1  0  0  0  0
  6 12  1  0  0  0  0
  7 13  1  0  0  0  0
  7 14  1  0  0  0  0
  7 15  1  0  0  0  0
  8 16  1  0  0  0  0
  8 17  1  0  0  0  0
  8 18  1  0  0  0  0
M  END
> <PUBCHEM_COMPOUND_CID>
12977

> <PUBCHEM_CONFORMER_RMSD>
0.6

> <PUBCHEM_CONFORMER_DIVERSEORDER>
1
8
10
16
11
7
9
5
12
3
13
6
2
4
15
14

> <PUBCHEM_MMFF94_PARTIAL_CHARGES>
7
1 0.3
19 0.5
2 -0.38
3 -0.38
4 -0.6
5 0.28
6 0.28

> <PUBCHEM_EFFECTIVE_ROTOR_COUNT>
4

> <PUBCHEM_PHARMACOPHORE_FEATURES>
1
1 4 acceptor

> <PUBCHEM_HEAVY_ATOM_COUNT>
8

> <PUBCHEM_ATOM_DEF_STEREO_COUNT>
0

> <PUBCHEM_ATOM_UDEF_STEREO_COUNT>
0

> <PUBCHEM_BOND_DEF_STEREO_COUNT>
0

> <PUBCHEM_BOND_UDEF_STEREO_COUNT>
0

> <PUBCHEM_ISOTOPIC_ATOM_COUNT>
0

> <PUBCHEM_COMPONENT_COUNT>
1

> <PUBCHEM_CACTVS_TAUTO_COUNT>
2

> <PUBCHEM_CONFORMER_ID>
000032B100000001

> <PUBCHEM_MMFF94_ENERGY>
4.1114

> <PUBCHEM_FEATURE_SELFOVERLAP>
5.074

> <PUBCHEM_SHAPE_FINGERPRINT>
10149128 76 18413670222822589133
14325111 11 18412263917348761472
14390081 3 18412545435581347041
170605 34 18271807955805144419
20653085 51 18340194198934752568
21028194 46 18342171154900571289
21040471 1 18335704897290524690
21293036 1 18040437659521584769
23235685 24 18412548708156509529

> <PUBCHEM_SHAPE_MULTIPOLES>
150.88
5.08
1.53
0.74
0.79
0.5
0.04
-3.26
-0.56
-0.44
-0.24
0.08
0.06
0

> <PUBCHEM_SHAPE_SELFOVERLAP>
253.797

> <PUBCHEM_SHAPE_VOLUME>
103.3

> <PUBCHEM_COORDINATE_TYPE>
2
5
10

$$$$

