17396098
  -OEChem-06241222543D

 50 52  0     1  0  0  0  0  0999 V2000
   -2.3506   -4.8268    0.9512 F   0  0  0  0  0  0  0  0  0  0  0  0
    0.0816    0.4143   -1.9712 O   0  0  0  0  0  0  0  0  0  0  0  0
    0.3330    2.7703    1.9768 O   0  0  0  0  0  0  0  0  0  0  0  0
    4.7743   -1.6631   -1.2234 O   0  0  0  0  0  0  0  0  0  0  0  0
   -1.3192    1.4118    1.0489 N   0  0  0  0  0  0  0  0  0  0  0  0
    0.5516    1.7479   -0.1155 N   0  0  0  0  0  0  0  0  0  0  0  0
   -1.5529    0.6543   -0.1701 C   0  0  1  0  0  0  0  0  0  0  0  0
   -2.6479    1.3506   -0.9884 C   0  0  0  0  0  0  0  0  0  0  0  0
   -0.2163    0.9008   -0.8870 C   0  0  0  0  0  0  0  0  0  0  0  0
   -1.7674   -0.8221    0.1319 C   0  0  0  0  0  0  0  0  0  0  0  0
   -3.9911    1.3266   -0.2601 C   0  0  0  0  0  0  0  0  0  0  0  0
   -0.0857    2.0657    1.0675 C   0  0  0  0  0  0  0  0  0  0  0  0
    1.8756    2.2112   -0.4794 C   0  0  0  0  0  0  0  0  0  0  0  0
   -5.0714    2.0506   -1.0633 C   0  0  0  0  0  0  0  0  0  0  0  0
   -2.4134   -1.6373   -0.7974 C   0  0  0  0  0  0  0  0  0  0  0  0
   -1.3185   -1.3598    1.3383 C   0  0  0  0  0  0  0  0  0  0  0  0
    2.9478    1.2679   -0.0161 C   0  0  0  0  0  0  0  0  0  0  0  0
   -6.4017    2.0586   -0.3273 C   0  0  0  0  0  0  0  0  0  0  0  0
   -2.6104   -2.9902   -0.5208 C   0  0  0  0  0  0  0  0  0  0  0  0
   -1.5155   -2.7126    1.6151 C   0  0  0  0  0  0  0  0  0  0  0  0
   -2.1615   -3.5278    0.6855 C   0  0  0  0  0  0  0  0  0  0  0  0
    3.3688    0.2286   -0.8458 C   0  0  0  0  0  0  0  0  0  0  0  0
    3.5229    1.4308    1.2443 C   0  0  0  0  0  0  0  0  0  0  0  0
    4.3647   -0.6478   -0.4150 C   0  0  0  0  0  0  0  0  0  0  0  0
    4.5187    0.5544    1.6749 C   0  0  0  0  0  0  0  0  0  0  0  0
    4.9397   -0.4850    0.8454 C   0  0  0  0  0  0  0  0  0  0  0  0
    4.1446   -1.7719   -2.4991 C   0  0  0  0  0  0  0  0  0  0  0  0
   -2.3680    2.3984   -1.1702 H   0  0  0  0  0  0  0  0  0  0  0  0
   -2.7517    0.9034   -1.9843 H   0  0  0  0  0  0  0  0  0  0  0  0
   -1.9795    1.4664    1.8186 H   0  0  0  0  0  0  0  0  0  0  0  0
   -3.9036    1.8129    0.7182 H   0  0  0  0  0  0  0  0  0  0  0  0
   -4.3203    0.2983   -0.0769 H   0  0  0  0  0  0  0  0  0  0  0  0
    2.0375    3.2037   -0.0421 H   0  0  0  0  0  0  0  0  0  0  0  0
    1.9234    2.3273   -1.5689 H   0  0  0  0  0  0  0  0  0  0  0  0
   -5.2009    1.5628   -2.0365 H   0  0  0  0  0  0  0  0  0  0  0  0
   -4.7631    3.0847   -1.2564 H   0  0  0  0  0  0  0  0  0  0  0  0
   -2.7600   -1.2567   -1.7525 H   0  0  0  0  0  0  0  0  0  0  0  0
   -0.7974   -0.7645    2.0820 H   0  0  0  0  0  0  0  0  0  0  0  0
   -6.7553    1.0388   -0.1447 H   0  0  0  0  0  0  0  0  0  0  0  0
   -7.1597    2.5797   -0.9204 H   0  0  0  0  0  0  0  0  0  0  0  0
   -6.3141    2.5700    0.6366 H   0  0  0  0  0  0  0  0  0  0  0  0
   -3.1099   -3.6263   -1.2456 H   0  0  0  0  0  0  0  0  0  0  0  0
   -1.1632   -3.1329    2.5524 H   0  0  0  0  0  0  0  0  0  0  0  0
    2.8910    0.1487   -1.8162 H   0  0  0  0  0  0  0  0  0  0  0  0
    3.2056    2.2368    1.9005 H   0  0  0  0  0  0  0  0  0  0  0  0
    4.9665    0.6811    2.6563 H   0  0  0  0  0  0  0  0  0  0  0  0
    5.7157   -1.1648    1.1866 H   0  0  0  0  0  0  0  0  0  0  0  0
    4.5914   -2.6327   -3.0074 H   0  0  0  0  0  0  0  0  0  0  0  0
    4.3443   -0.8940   -3.1230 H   0  0  0  0  0  0  0  0  0  0  0  0
    3.0733   -1.9789   -2.4030 H   0  0  0  0  0  0  0  0  0  0  0  0
  1 21  1  0  0  0  0
  2  9  2  0  0  0  0
  3 12  2  0  0  0  0
  4 24  1  0  0  0  0
  4 27  1  0  0  0  0
  5  7  1  0  0  0  0
  5 12  1  0  0  0  0
  5 30  1  0  0  0  0
  6  9  1  0  0  0  0
  6 12  1  0  0  0  0
  6 13  1  0  0  0  0
  7  8  1  0  0  0  0
  7  9  1  0  0  0  0
  7 10  1  0  0  0  0
  8 11  1  0  0  0  0
  8 28  1  0  0  0  0
  8 29  1  0  0  0  0
 10 15  2  0  0  0  0
 10 16  1  0  0  0  0
 11 14  1  0  0  0  0
 11 31  1  0  0  0  0
 11 32  1  0  0  0  0
 13 17  1  0  0  0  0
 13 33  1  0  0  0  0
 13 34  1  0  0  0  0
 14 18  1  0  0  0  0
 14 35  1  0  0  0  0
 14 36  1  0  0  0  0
 15 19  1  0  0  0  0
 15 37  1  0  0  0  0
 16 20  2  0  0  0  0
 16 38  1  0  0  0  0
 17 22  2  0  0  0  0
 17 23  1  0  0  0  0
 18 39  1  0  0  0  0
 18 40  1  0  0  0  0
 18 41  1  0  0  0  0
 19 21  2  0  0  0  0
 19 42  1  0  0  0  0
 20 21  1  0  0  0  0
 20 43  1  0  0  0  0
 22 24  1  0  0  0  0
 22 44  1  0  0  0  0
 23 25  2  0  0  0  0
 23 45  1  0  0  0  0
 24 26  2  0  0  0  0
 25 26  1  0  0  0  0
 25 46  1  0  0  0  0
 26 47  1  0  0  0  0
 27 48  1  0  0  0  0
 27 49  1  0  0  0  0
 27 50  1  0  0  0  0
M  END
> <PUBCHEM_COMPOUND_CID>
17396098

> <PUBCHEM_CONFORMER_RMSD>
0.8

> <PUBCHEM_CONFORMER_DIVERSEORDER>
1
275
98
259
232
285
108
258
156
53
270
242
294
282
257
261
118
229
182
133
37
206
290
154
220
74
280
266
238
221
29
85
251
272
274
218
155
146
162
250
148
247
245
94
226
54
213
179
228
197
198
300
277
217
302
192
75
241
214
268
161
240
42
143
119
216
189
176
142
191
202
185
298
295
264
34
105
102
278
95
51
303
87
252
237
157
234
10
256
86
224
254
172
263
68
219
127
113
244
188
210
109
150
167
120
166
284
140
249
296
24
231
125
269
204
13
286
288
301
227
230
223
246
48
132
82
267
77
76
292
56
279
134
50
49
43
170
262
66
163
60
103
19
73
131
141
168
265
38
52
124
199
222
207
33
130
45
171
93
28
194
84
79
273
291
35
212
139
67
153
190
114
293
63
47
283
7
135
255
90
123
243
183
32
281
175
193
107
57
248
186
287
205
236
44
112
209
299
9
106
104
184
18
14
58
147
128
297
11
233
96
208
21
83
22
55
201
159
239
62
174
138
178
137
88
144
235
121
36
6
165
253
65
111
152
160
91
64
97
8
145
89
158
276
69
59
116
180
71
41
151
260
136
187
20
200
203
173
129
271
169
126
101
81
100
177
3
115
215
78
39
164
15
31
80
23
225
17
16
4
46
211
117
12
72
181
5
122
99
149
289
2
40
70
27
195
26
25
92
61
196
110
30

> <PUBCHEM_MMFF94_PARTIAL_CHARGES>
32
1 -0.19
10 -0.14
12 0.69
13 0.44
15 -0.15
16 -0.15
17 -0.14
19 -0.15
2 -0.57
20 -0.15
21 0.19
22 -0.15
23 -0.15
24 0.08
25 -0.15
26 -0.15
27 0.28
3 -0.57
30 0.37
37 0.15
38 0.15
4 -0.36
42 0.15
43 0.15
44 0.15
45 0.15
46 0.15
47 0.15
5 -0.73
6 -0.42
7 0.5
9 0.57

> <PUBCHEM_EFFECTIVE_ROTOR_COUNT>
7.6

> <PUBCHEM_PHARMACOPHORE_FEATURES>
8
1 18 hydrophobe
1 2 acceptor
1 3 acceptor
1 4 acceptor
1 5 donor
5 5 6 7 9 12 rings
6 10 15 16 19 20 21 rings
6 17 22 23 24 25 26 rings

> <PUBCHEM_HEAVY_ATOM_COUNT>
27

> <PUBCHEM_ATOM_DEF_STEREO_COUNT>
0

> <PUBCHEM_ATOM_UDEF_STEREO_COUNT>
1

> <PUBCHEM_BOND_DEF_STEREO_COUNT>
0

> <PUBCHEM_BOND_UDEF_STEREO_COUNT>
0

> <PUBCHEM_ISOTOPIC_ATOM_COUNT>
0

> <PUBCHEM_COMPONENT_COUNT>
1

> <PUBCHEM_CACTVS_TAUTO_COUNT>
2

> <PUBCHEM_CONFORMER_ID>
0109718200000001

> <PUBCHEM_MMFF94_ENERGY>
66.7013

> <PUBCHEM_FEATURE_SELFOVERLAP>
40.594

> <PUBCHEM_SHAPE_FINGERPRINT>
10906281 52 17822278094240973545
11578080 2 16952831445193787945
11991303 11 17489587853793437471
12549972 3 17897742967676152345
12592029 89 17774443918294363801
12596599 1 18409722968121760058
13135754 10 16987701421529278699
13533116 47 17458912655608487916
13583140 156 17678185888450300296
14725015 67 17833838548727010158
14790565 3 18195818585791652161
14866123 147 18342185436321478243
15775530 1 17903935365698330569
17809404 112 18041001709234521254
18393751 57 9222072917371024652
19141452 34 18272379662991595564
20197701 30 18341056319515376269
21133410 58 17113834985307000535
21781051 124 17988062475178303249
23558518 356 17842843222393060569
23559900 14 18334856109001037940
3178227 256 18340760521234664737
3298306 158 18129946818195585503
340366 18 18060134340728450565
3729539 64 18053099815699927679
38695281 34 18198352934576709245
404807 14 15580313626734913535
463206 1 17846233180229651586
5309563 4 17331958322506386091
5385378 56 18125441071628366777
7399639 24 17327189745125026825
9709674 26 18338238154827022956

> <PUBCHEM_SHAPE_MULTIPOLES>
520.8
10.68
4.18
1.8
1.05
4.76
0.21
-2.59
2.21
-4.58
-1.23
1.53
0.34
2.5

> <PUBCHEM_SHAPE_SELFOVERLAP>
1114.606

> <PUBCHEM_SHAPE_VOLUME>
291.5

> <PUBCHEM_COORDINATE_TYPE>
2
5
10

$$$$

