13489
  -OEChem-06261214432D

 32 33  0     0  0  0  0  0  0999 V2000
    5.0724   -0.4042    0.0000 O   0  0  0  0  0  0  0  0  0  0  0  0
    2.9945    3.0784    0.0000 N   0  0  0  0  0  0  0  0  0  0  0  0
    4.7634    0.5469    0.0000 N   0  0  0  0  0  0  0  0  0  0  0  0
    3.1756    1.3559    0.0000 C   0  0  0  0  0  0  0  0  0  0  0  0
    3.5823    2.2694    0.0000 C   0  0  0  0  0  0  0  0  0  0  0  0
    3.7634    0.5469    0.0000 C   0  0  0  0  0  0  0  0  0  0  0  0
    3.4543   -0.4042    0.0000 C   0  0  0  0  0  0  0  0  0  0  0  0
    4.2634   -0.9920    0.0000 C   0  0  0  0  0  0  0  0  0  0  0  0
    3.4013    3.9920    0.0000 C   0  0  0  0  0  0  0  0  0  0  0  0
    2.0000    2.9739    0.0000 C   0  0  0  0  0  0  0  0  0  0  0  0
    4.2634   -1.9920    0.0000 C   0  0  0  0  0  0  0  0  0  0  0  0
    3.3973   -2.4920    0.0000 C   0  0  0  0  0  0  0  0  0  0  0  0
    5.1294   -2.4920    0.0000 C   0  0  0  0  0  0  0  0  0  0  0  0
    3.3973   -3.4920    0.0000 C   0  0  0  0  0  0  0  0  0  0  0  0
    5.1294   -3.4920    0.0000 C   0  0  0  0  0  0  0  0  0  0  0  0
    4.2634   -3.9920    0.0000 C   0  0  0  0  0  0  0  0  0  0  0  0
    2.6616    1.7026    0.0000 H   0  0  0  0  0  0  0  0  0  0  0  0
    2.7449    0.9099    0.0000 H   0  0  0  0  0  0  0  0  0  0  0  0
    4.0963    1.9227    0.0000 H   0  0  0  0  0  0  0  0  0  0  0  0
    4.0130    2.7154    0.0000 H   0  0  0  0  0  0  0  0  0  0  0  0
    2.8647   -0.5958    0.0000 H   0  0  0  0  0  0  0  0  0  0  0  0
    3.9677    3.7398    0.0000 H   0  0  0  0  0  0  0  0  0  0  0  0
    3.6534    4.5584    0.0000 H   0  0  0  0  0  0  0  0  0  0  0  0
    2.8349    4.2442    0.0000 H   0  0  0  0  0  0  0  0  0  0  0  0
    1.9352    3.5905    0.0000 H   0  0  0  0  0  0  0  0  0  0  0  0
    1.3834    2.9091    0.0000 H   0  0  0  0  0  0  0  0  0  0  0  0
    2.0648    2.3573    0.0000 H   0  0  0  0  0  0  0  0  0  0  0  0
    2.8604   -2.1820    0.0000 H   0  0  0  0  0  0  0  0  0  0  0  0
    5.6663   -2.1820    0.0000 H   0  0  0  0  0  0  0  0  0  0  0  0
    2.8604   -3.8020    0.0000 H   0  0  0  0  0  0  0  0  0  0  0  0
    5.6663   -3.8020    0.0000 H   0  0  0  0  0  0  0  0  0  0  0  0
    4.2634   -4.6120    0.0000 H   0  0  0  0  0  0  0  0  0  0  0  0
  1  3  1  0  0  0  0
  1  8  1  0  0  0  0
  2  5  1  0  0  0  0
  2  9  1  0  0  0  0
  2 10  1  0  0  0  0
  3  6  2  0  0  0  0
  4  5  1  0  0  0  0
  4  6  1  0  0  0  0
  4 17  1  0  0  0  0
  4 18  1  0  0  0  0
  5 19  1  0  0  0  0
  5 20  1  0  0  0  0
  6  7  1  0  0  0  0
  7  8  2  0  0  0  0
  7 21  1  0  0  0  0
  8 11  1  0  0  0  0
  9 22  1  0  0  0  0
  9 23  1  0  0  0  0
  9 24  1  0  0  0  0
 10 25  1  0  0  0  0
 10 26  1  0  0  0  0
 10 27  1  0  0  0  0
 11 12  2  0  0  0  0
 11 13  1  0  0  0  0
 12 14  1  0  0  0  0
 12 28  1  0  0  0  0
 13 15  2  0  0  0  0
 13 29  1  0  0  0  0
 14 16  2  0  0  0  0
 14 30  1  0  0  0  0
 15 16  1  0  0  0  0
 15 31  1  0  0  0  0
 16 32  1  0  0  0  0
M  END
> <PUBCHEM_COMPOUND_CID>
13489

> <PUBCHEM_COMPOUND_CANONICALIZED>
1

> <PUBCHEM_CACTVS_COMPLEXITY>
202

> <PUBCHEM_CACTVS_HBOND_ACCEPTOR>
3

> <PUBCHEM_CACTVS_HBOND_DONOR>
0

> <PUBCHEM_CACTVS_ROTATABLE_BOND>
4

> <PUBCHEM_CACTVS_SUBSKEYS>
AAADceBzIAAAAAAAAAAAAAAAAAAAAWAAAAAwAAAAAAAAAAABwAAAHgAEAAAADAzBngQyhJMQAACpA6RyQgCCAAAkIgAomCE+bNoIJjqA1ZOEMYBmwBkIyceY2eKOAAAAAAAAAAAAAAAAAAAAAAAAAAAAAA==

> <PUBCHEM_IUPAC_OPENEYE_NAME>
N,N-dimethyl-2-(5-phenylisoxazol-3-yl)ethanamine

> <PUBCHEM_IUPAC_CAS_NAME>
N,N-dimethyl-2-(5-phenyl-3-isoxazolyl)ethanamine

> <PUBCHEM_IUPAC_NAME>
N,N-dimethyl-2-(5-phenyl-1,2-oxazol-3-yl)ethanamine

> <PUBCHEM_IUPAC_SYSTEMATIC_NAME>
N,N-dimethyl-2-(5-phenyl-1,2-oxazol-3-yl)ethanamine

> <PUBCHEM_IUPAC_TRADITIONAL_NAME>
dimethyl-[2-(5-phenylisoxazol-3-yl)ethyl]amine

> <PUBCHEM_IUPAC_INCHI>
InChI=1S/C13H16N2O/c1-15(2)9-8-12-10-13(16-14-12)11-6-4-3-5-7-11/h3-7,10H,8-9H2,1-2H3

> <PUBCHEM_IUPAC_INCHIKEY>
CHXNVLTUKKKSBE-UHFFFAOYSA-N

> <PUBCHEM_XLOGP3_AA>
2.4

> <PUBCHEM_EXACT_MASS>
216.126263

> <PUBCHEM_MOLECULAR_FORMULA>
C13H16N2O

> <PUBCHEM_MOLECULAR_WEIGHT>
216.27894

> <PUBCHEM_OPENEYE_CAN_SMILES>
CN(C)CCC1=NOC(=C1)C2=CC=CC=C2

> <PUBCHEM_OPENEYE_ISO_SMILES>
CN(C)CCC1=NOC(=C1)C2=CC=CC=C2

> <PUBCHEM_CACTVS_TPSA>
29.3

> <PUBCHEM_MONOISOTOPIC_WEIGHT>
216.126263

> <PUBCHEM_TOTAL_CHARGE>
0

> <PUBCHEM_HEAVY_ATOM_COUNT>
16

> <PUBCHEM_ATOM_DEF_STEREO_COUNT>
0

> <PUBCHEM_ATOM_UDEF_STEREO_COUNT>
0

> <PUBCHEM_BOND_DEF_STEREO_COUNT>
0

> <PUBCHEM_BOND_UDEF_STEREO_COUNT>
0

> <PUBCHEM_ISOTOPIC_ATOM_COUNT>
0

> <PUBCHEM_COMPONENT_COUNT>
1

> <PUBCHEM_CACTVS_TAUTO_COUNT>
1

> <PUBCHEM_COORDINATE_TYPE>
1
5
255

> <PUBCHEM_BONDANNOTATIONS>
1  3  8
1  8  8
11  12  8
11  13  8
12  14  8
13  15  8
14  16  8
15  16  8
3  6  8
6  7  8
7  8  8

$$$$

