8754
  -OEChem-06261203042D

 60 60  0     0  0  0  0  0  0999 V2000
    3.7320   -2.7500    0.0000 N   0  3  0  0  0  0  0  0  0  0  0  0
    4.5981   -2.2500    0.0000 C   0  0  0  0  0  0  0  0  0  0  0  0
    4.5981   -1.2500    0.0000 C   0  0  0  0  0  0  0  0  0  0  0  0
    2.8660   -3.2500    0.0000 C   0  0  0  0  0  0  0  0  0  0  0  0
    5.4641   -0.7500    0.0000 C   0  0  0  0  0  0  0  0  0  0  0  0
    3.2320   -1.8840    0.0000 C   0  0  0  0  0  0  0  0  0  0  0  0
    4.2320   -3.6160    0.0000 C   0  0  0  0  0  0  0  0  0  0  0  0
    5.4641    0.2500    0.0000 C   0  0  0  0  0  0  0  0  0  0  0  0
    6.3301    0.7500    0.0000 C   0  0  0  0  0  0  0  0  0  0  0  0
    6.3301    1.7500    0.0000 C   0  0  0  0  0  0  0  0  0  0  0  0
    2.8660   -4.2500    0.0000 C   0  0  0  0  0  0  0  0  0  0  0  0
    7.1962    2.2500    0.0000 C   0  0  0  0  0  0  0  0  0  0  0  0
    7.1962    3.2500    0.0000 C   0  0  0  0  0  0  0  0  0  0  0  0
    8.0622    3.7500    0.0000 C   0  0  0  0  0  0  0  0  0  0  0  0
    2.0000   -4.7500    0.0000 C   0  0  0  0  0  0  0  0  0  0  0  0
    3.7320   -4.7500    0.0000 C   0  0  0  0  0  0  0  0  0  0  0  0
    8.0622    4.7500    0.0000 C   0  0  0  0  0  0  0  0  0  0  0  0
    8.9282    5.2500    0.0000 C   0  0  0  0  0  0  0  0  0  0  0  0
    2.0000   -5.7500    0.0000 C   0  0  0  0  0  0  0  0  0  0  0  0
    3.7320   -5.7500    0.0000 C   0  0  0  0  0  0  0  0  0  0  0  0
    2.8660   -6.2500    0.0000 C   0  0  0  0  0  0  0  0  0  0  0  0
    8.9282    6.2500    0.0000 C   0  0  0  0  0  0  0  0  0  0  0  0
    4.8101   -2.8326    0.0000 H   0  0  0  0  0  0  0  0  0  0  0  0
    5.2087   -2.1423    0.0000 H   0  0  0  0  0  0  0  0  0  0  0  0
    4.3860   -0.6674    0.0000 H   0  0  0  0  0  0  0  0  0  0  0  0
    3.9875   -1.3577    0.0000 H   0  0  0  0  0  0  0  0  0  0  0  0
    2.6540   -2.6674    0.0000 H   0  0  0  0  0  0  0  0  0  0  0  0
    2.2554   -3.3577    0.0000 H   0  0  0  0  0  0  0  0  0  0  0  0
    5.6762   -1.3326    0.0000 H   0  0  0  0  0  0  0  0  0  0  0  0
    6.0747   -0.6423    0.0000 H   0  0  0  0  0  0  0  0  0  0  0  0
    3.7690   -1.5740    0.0000 H   0  0  0  0  0  0  0  0  0  0  0  0
    2.9220   -1.3470    0.0000 H   0  0  0  0  0  0  0  0  0  0  0  0
    2.6951   -2.1940    0.0000 H   0  0  0  0  0  0  0  0  0  0  0  0
    3.6951   -3.9260    0.0000 H   0  0  0  0  0  0  0  0  0  0  0  0
    4.5420   -4.1530    0.0000 H   0  0  0  0  0  0  0  0  0  0  0  0
    4.7690   -3.3060    0.0000 H   0  0  0  0  0  0  0  0  0  0  0  0
    5.2520    0.8326    0.0000 H   0  0  0  0  0  0  0  0  0  0  0  0
    4.8535    0.1423    0.0000 H   0  0  0  0  0  0  0  0  0  0  0  0
    6.5422    0.1674    0.0000 H   0  0  0  0  0  0  0  0  0  0  0  0
    6.9407    0.8577    0.0000 H   0  0  0  0  0  0  0  0  0  0  0  0
    6.1181    2.3326    0.0000 H   0  0  0  0  0  0  0  0  0  0  0  0
    5.7196    1.6423    0.0000 H   0  0  0  0  0  0  0  0  0  0  0  0
    7.4082    1.6674    0.0000 H   0  0  0  0  0  0  0  0  0  0  0  0
    7.8067    2.3577    0.0000 H   0  0  0  0  0  0  0  0  0  0  0  0
    6.9841    3.8326    0.0000 H   0  0  0  0  0  0  0  0  0  0  0  0
    6.5856    3.1423    0.0000 H   0  0  0  0  0  0  0  0  0  0  0  0
    8.2742    3.1674    0.0000 H   0  0  0  0  0  0  0  0  0  0  0  0
    8.6728    3.8577    0.0000 H   0  0  0  0  0  0  0  0  0  0  0  0
    1.4631   -4.4400    0.0000 H   0  0  0  0  0  0  0  0  0  0  0  0
    4.2690   -4.4400    0.0000 H   0  0  0  0  0  0  0  0  0  0  0  0
    7.8501    5.3326    0.0000 H   0  0  0  0  0  0  0  0  0  0  0  0
    7.4516    4.6423    0.0000 H   0  0  0  0  0  0  0  0  0  0  0  0
    9.1403    4.6674    0.0000 H   0  0  0  0  0  0  0  0  0  0  0  0
    9.5388    5.3577    0.0000 H   0  0  0  0  0  0  0  0  0  0  0  0
    1.4631   -6.0600    0.0000 H   0  0  0  0  0  0  0  0  0  0  0  0
    4.2690   -6.0600    0.0000 H   0  0  0  0  0  0  0  0  0  0  0  0
    2.8660   -6.8700    0.0000 H   0  0  0  0  0  0  0  0  0  0  0  0
    9.5482    6.2500    0.0000 H   0  0  0  0  0  0  0  0  0  0  0  0
    8.9282    6.8700    0.0000 H   0  0  0  0  0  0  0  0  0  0  0  0
    8.3082    6.2500    0.0000 H   0  0  0  0  0  0  0  0  0  0  0  0
  1  2  1  0  0  0  0
  1  4  1  0  0  0  0
  1  6  1  0  0  0  0
  1  7  1  0  0  0  0
  2  3  1  0  0  0  0
  2 23  1  0  0  0  0
  2 24  1  0  0  0  0
  3  5  1  0  0  0  0
  3 25  1  0  0  0  0
  3 26  1  0  0  0  0
  4 11  1  0  0  0  0
  4 27  1  0  0  0  0
  4 28  1  0  0  0  0
  5  8  1  0  0  0  0
  5 29  1  0  0  0  0
  5 30  1  0  0  0  0
  6 31  1  0  0  0  0
  6 32  1  0  0  0  0
  6 33  1  0  0  0  0
  7 34  1  0  0  0  0
  7 35  1  0  0  0  0
  7 36  1  0  0  0  0
  8  9  1  0  0  0  0
  8 37  1  0  0  0  0
  8 38  1  0  0  0  0
  9 10  1  0  0  0  0
  9 39  1  0  0  0  0
  9 40  1  0  0  0  0
 10 12  1  0  0  0  0
 10 41  1  0  0  0  0
 10 42  1  0  0  0  0
 11 15  2  0  0  0  0
 11 16  1  0  0  0  0
 12 13  1  0  0  0  0
 12 43  1  0  0  0  0
 12 44  1  0  0  0  0
 13 14  1  0  0  0  0
 13 45  1  0  0  0  0
 13 46  1  0  0  0  0
 14 17  1  0  0  0  0
 14 47  1  0  0  0  0
 14 48  1  0  0  0  0
 15 19  1  0  0  0  0
 15 49  1  0  0  0  0
 16 20  2  0  0  0  0
 16 50  1  0  0  0  0
 17 18  1  0  0  0  0
 17 51  1  0  0  0  0
 17 52  1  0  0  0  0
 18 22  1  0  0  0  0
 18 53  1  0  0  0  0
 18 54  1  0  0  0  0
 19 21  2  0  0  0  0
 19 55  1  0  0  0  0
 20 21  1  0  0  0  0
 20 56  1  0  0  0  0
 21 57  1  0  0  0  0
 22 58  1  0  0  0  0
 22 59  1  0  0  0  0
 22 60  1  0  0  0  0
M  CHG  1   1   1
M  END
> <PUBCHEM_COMPOUND_CID>
8754

> <PUBCHEM_COMPOUND_CANONICALIZED>
1

> <PUBCHEM_CACTVS_COMPLEXITY>
240

> <PUBCHEM_CACTVS_HBOND_ACCEPTOR>
0

> <PUBCHEM_CACTVS_HBOND_DONOR>
0

> <PUBCHEM_CACTVS_ROTATABLE_BOND>
13

> <PUBCHEM_CACTVS_SUBSKEYS>
AAADcfB6AAAAAAAAAAAAAAAAAAAAAAAAAAAwAAAAAAAAAAABAAAAHAAAAAAADADBGAQyAIMAAACAAiBCAACCAAAgAAAIiAAIBIgIICKAkRGEIAhggACIiAcQgIAOAAAAAAAAAAAAAAAAAAAAAAAAAAAAAA==

> <PUBCHEM_IUPAC_OPENEYE_NAME>
benzyl-dodecyl-dimethyl-ammonium

> <PUBCHEM_IUPAC_CAS_NAME>
dodecyl-dimethyl-(phenylmethyl)ammonium

> <PUBCHEM_IUPAC_NAME>
benzyl-dodecyl-dimethylazanium

> <PUBCHEM_IUPAC_SYSTEMATIC_NAME>
dodecyl-dimethyl-(phenylmethyl)azanium

> <PUBCHEM_IUPAC_TRADITIONAL_NAME>
benzyl-lauryl-dimethyl-ammonium

> <PUBCHEM_IUPAC_INCHI>
InChI=1S/C21H38N/c1-4-5-6-7-8-9-10-11-12-16-19-22(2,3)20-21-17-14-13-15-18-21/h13-15,17-18H,4-12,16,19-20H2,1-3H3/q+1

> <PUBCHEM_IUPAC_INCHIKEY>
CYDRXTMLKJDRQH-UHFFFAOYSA-N

> <PUBCHEM_XLOGP3_AA>
7.4

> <PUBCHEM_EXACT_MASS>
304.300425

> <PUBCHEM_MOLECULAR_FORMULA>
C21H38N+

> <PUBCHEM_MOLECULAR_WEIGHT>
304.53312

> <PUBCHEM_OPENEYE_CAN_SMILES>
CCCCCCCCCCCC[N+](C)(C)CC1=CC=CC=C1

> <PUBCHEM_OPENEYE_ISO_SMILES>
CCCCCCCCCCCC[N+](C)(C)CC1=CC=CC=C1

> <PUBCHEM_CACTVS_TPSA>
0

> <PUBCHEM_MONOISOTOPIC_WEIGHT>
304.300425

> <PUBCHEM_TOTAL_CHARGE>
1

> <PUBCHEM_HEAVY_ATOM_COUNT>
22

> <PUBCHEM_ATOM_DEF_STEREO_COUNT>
0

> <PUBCHEM_ATOM_UDEF_STEREO_COUNT>
0

> <PUBCHEM_BOND_DEF_STEREO_COUNT>
0

> <PUBCHEM_BOND_UDEF_STEREO_COUNT>
0

> <PUBCHEM_ISOTOPIC_ATOM_COUNT>
0

> <PUBCHEM_COMPONENT_COUNT>
1

> <PUBCHEM_CACTVS_TAUTO_COUNT>
1

> <PUBCHEM_COORDINATE_TYPE>
1
5
255

> <PUBCHEM_BONDANNOTATIONS>
11  15  8
11  16  8
15  19  8
16  20  8
19  21  8
20  21  8

$$$$

