12234
  -OEChem-06261206423D

 21 20  0     1  0  0  0  0  0999 V2000
   -1.9472   -1.2007   -0.0292 S   0  0  0  0  0  0  0  0  0  0  0  0
    0.6488   -0.0554   -0.0043 N   0  3  0  0  0  0  0  0  0  0  0  0
   -0.8307    0.1574    0.4630 C   0  0  1  0  0  0  0  0  0  0  0  0
    1.5317    1.0801    0.5367 C   0  0  0  0  0  0  0  0  0  0  0  0
    1.2060   -1.3614    0.5852 C   0  0  0  0  0  0  0  0  0  0  0  0
    0.8130   -0.0993   -1.5227 C   0  0  0  0  0  0  0  0  0  0  0  0
   -1.4215    1.4794   -0.0286 C   0  0  0  0  0  0  0  0  0  0  0  0
   -0.7935    0.1665    1.5584 H   0  0  0  0  0  0  0  0  0  0  0  0
    2.5782    0.8367    0.3277 H   0  0  0  0  0  0  0  0  0  0  0  0
    1.2688    2.0093    0.0256 H   0  0  0  0  0  0  0  0  0  0  0  0
    1.3671    1.1618    1.6147 H   0  0  0  0  0  0  0  0  0  0  0  0
    0.6900   -2.2103    0.1304 H   0  0  0  0  0  0  0  0  0  0  0  0
    2.2737   -1.4198    0.3507 H   0  0  0  0  0  0  0  0  0  0  0  0
    1.0548   -1.3427    1.6683 H   0  0  0  0  0  0  0  0  0  0  0  0
    0.2447   -0.9417   -1.9227 H   0  0  0  0  0  0  0  0  0  0  0  0
    0.4658    0.8455   -1.9466 H   0  0  0  0  0  0  0  0  0  0  0  0
    1.8759   -0.2349   -1.7470 H   0  0  0  0  0  0  0  0  0  0  0  0
   -2.4398    1.6135    0.3568 H   0  0  0  0  0  0  0  0  0  0  0  0
   -0.8499    2.3396    0.3310 H   0  0  0  0  0  0  0  0  0  0  0  0
   -1.4748    1.5392   -1.1201 H   0  0  0  0  0  0  0  0  0  0  0  0
   -1.9594   -0.9363   -1.3437 H   0  0  0  0  0  0  0  0  0  0  0  0
  1  3  1  0  0  0  0
  1 21  1  0  0  0  0
  2  3  1  0  0  0  0
  2  4  1  0  0  0  0
  2  5  1  0  0  0  0
  2  6  1  0  0  0  0
  3  7  1  0  0  0  0
  3  8  1  0  0  0  0
  4  9  1  0  0  0  0
  4 10  1  0  0  0  0
  4 11  1  0  0  0  0
  5 12  1  0  0  0  0
  5 13  1  0  0  0  0
  5 14  1  0  0  0  0
  6 15  1  0  0  0  0
  6 16  1  0  0  0  0
  6 17  1  0  0  0  0
  7 18  1  0  0  0  0
  7 19  1  0  0  0  0
  7 20  1  0  0  0  0
M  CHG  1   2   1
M  END
> <PUBCHEM_COMPOUND_CID>
12234

> <PUBCHEM_CONFORMER_RMSD>
0.4

> <PUBCHEM_CONFORMER_DIVERSEORDER>
1
2

> <PUBCHEM_MMFF94_PARTIAL_CHARGES>
7
1 -0.41
2 -1.01
21 0.18
3 0.73
4 0.5
5 0.5
6 0.5

> <PUBCHEM_EFFECTIVE_ROTOR_COUNT>
1

> <PUBCHEM_PHARMACOPHORE_FEATURES>
1
1 2 cation

> <PUBCHEM_HEAVY_ATOM_COUNT>
7

> <PUBCHEM_ATOM_DEF_STEREO_COUNT>
0

> <PUBCHEM_ATOM_UDEF_STEREO_COUNT>
1

> <PUBCHEM_BOND_DEF_STEREO_COUNT>
0

> <PUBCHEM_BOND_UDEF_STEREO_COUNT>
0

> <PUBCHEM_ISOTOPIC_ATOM_COUNT>
0

> <PUBCHEM_COMPONENT_COUNT>
1

> <PUBCHEM_CACTVS_TAUTO_COUNT>
1

> <PUBCHEM_CONFORMER_ID>
00002FCA00000001

> <PUBCHEM_MMFF94_ENERGY>
26.9349

> <PUBCHEM_FEATURE_SELFOVERLAP>
5.074

> <PUBCHEM_SHAPE_FINGERPRINT>
137420 1 14871626873100685158
16714656 1 17462566104792411276
18185500 45 18269273469844877707
21040471 1 18123463049523916089
24536 1 17168419479951991497
29004967 10 18126003767629753795
5084963 1 18115867395624079752
5943 1 7825186824347341511

> <PUBCHEM_SHAPE_MULTIPOLES>
142.93
2.34
1.61
1.07
0.64
0.11
0.44
-0.21
-0.18
0.26
-0.23
-0.36
-0.08
0

> <PUBCHEM_SHAPE_SELFOVERLAP>
237.976

> <PUBCHEM_SHAPE_VOLUME>
102

> <PUBCHEM_COORDINATE_TYPE>
2
5
10

$$$$

