4387
  -OEChem-06261200053D

 35 34  0     1  0  0  0  0  0999 V2000
   -4.0194   -0.2362    1.8899 O   0  0  0  0  0  0  0  0  0  0  0  0
   -4.7407    1.1297    0.2303 O   0  0  0  0  0  0  0  0  0  0  0  0
    0.9637    1.0278   -0.3067 N   0  0  0  0  0  0  0  0  0  0  0  0
   -3.9735   -0.5927   -1.7223 N   0  0  0  0  0  0  0  0  0  0  0  0
    3.0673    0.0978    0.1820 N   0  0  0  0  0  0  0  0  0  0  0  0
    2.7788    2.4010   -0.4153 N   0  0  0  0  0  0  0  0  0  0  0  0
   -2.1430   -1.1896   -0.1597 C   0  0  0  0  0  0  0  0  0  0  0  0
   -1.2915    0.0737   -0.3650 C   0  0  0  0  0  0  0  0  0  0  0  0
   -3.6529   -0.9783   -0.3484 C   0  0  1  0  0  0  0  0  0  0  0  0
    0.1939   -0.1773   -0.1093 C   0  0  0  0  0  0  0  0  0  0  0  0
   -4.1983    0.0902    0.5823 C   0  0  0  0  0  0  0  0  0  0  0  0
    2.3377    1.1194   -0.1580 C   0  0  0  0  0  0  0  0  0  0  0  0
    4.5025    0.3142    0.3085 C   0  0  0  0  0  0  0  0  0  0  0  0
    5.1884   -0.9862    0.7082 C   0  0  0  0  0  0  0  0  0  0  0  0
    4.9871   -2.0935   -0.3165 C   0  0  0  0  0  0  0  0  0  0  0  0
   -1.9614   -1.5717    0.8531 H   0  0  0  0  0  0  0  0  0  0  0  0
   -1.7974   -1.9717   -0.8480 H   0  0  0  0  0  0  0  0  0  0  0  0
   -1.4140    0.4473   -1.3886 H   0  0  0  0  0  0  0  0  0  0  0  0
   -1.6356    0.8719    0.3037 H   0  0  0  0  0  0  0  0  0  0  0  0
   -4.1875   -1.9094   -0.1291 H   0  0  0  0  0  0  0  0  0  0  0  0
    0.3340   -0.5362    0.9169 H   0  0  0  0  0  0  0  0  0  0  0  0
    0.5555   -0.9582   -0.7883 H   0  0  0  0  0  0  0  0  0  0  0  0
    0.4527    1.8652   -0.5725 H   0  0  0  0  0  0  0  0  0  0  0  0
   -3.5328    0.2963   -1.9532 H   0  0  0  0  0  0  0  0  0  0  0  0
   -3.5833   -1.2771   -2.3691 H   0  0  0  0  0  0  0  0  0  0  0  0
    4.7097    1.0657    1.0798 H   0  0  0  0  0  0  0  0  0  0  0  0
    4.9264    0.6649   -0.6405 H   0  0  0  0  0  0  0  0  0  0  0  0
    6.2618   -0.8026    0.8323 H   0  0  0  0  0  0  0  0  0  0  0  0
    4.8039   -1.3257    1.6774 H   0  0  0  0  0  0  0  0  0  0  0  0
    5.5405   -2.9889   -0.0154 H   0  0  0  0  0  0  0  0  0  0  0  0
    3.9321   -2.3693   -0.4089 H   0  0  0  0  0  0  0  0  0  0  0  0
    5.3512   -1.7863   -1.3021 H   0  0  0  0  0  0  0  0  0  0  0  0
    3.7573    2.6588   -0.3550 H   0  0  0  0  0  0  0  0  0  0  0  0
    2.1299    3.1360   -0.6752 H   0  0  0  0  0  0  0  0  0  0  0  0
   -4.3718    0.4550    2.4902 H   0  0  0  0  0  0  0  0  0  0  0  0
  1 11  1  0  0  0  0
  1 35  1  0  0  0  0
  2 11  2  0  0  0  0
  3 10  1  0  0  0  0
  3 12  1  0  0  0  0
  3 23  1  0  0  0  0
  4  9  1  0  0  0  0
  4 24  1  0  0  0  0
  4 25  1  0  0  0  0
  5 12  2  0  0  0  0
  5 13  1  0  0  0  0
  6 12  1  0  0  0  0
  6 33  1  0  0  0  0
  6 34  1  0  0  0  0
  7  8  1  0  0  0  0
  7  9  1  0  0  0  0
  7 16  1  0  0  0  0
  7 17  1  0  0  0  0
  8 10  1  0  0  0  0
  8 18  1  0  0  0  0
  8 19  1  0  0  0  0
  9 11  1  0  0  0  0
  9 20  1  0  0  0  0
 10 21  1  0  0  0  0
 10 22  1  0  0  0  0
 13 14  1  0  0  0  0
 13 26  1  0  0  0  0
 13 27  1  0  0  0  0
 14 15  1  0  0  0  0
 14 28  1  0  0  0  0
 14 29  1  0  0  0  0
 15 30  1  0  0  0  0
 15 31  1  0  0  0  0
 15 32  1  0  0  0  0
M  END
> <PUBCHEM_COMPOUND_CID>
4387

> <PUBCHEM_CONFORMER_RMSD>
0.8

> <PUBCHEM_CONFORMER_DIVERSEORDER>
1
62
305
338
313
268
140
41
363
61
150
105
60
368
19
375
315
352
145
88
74
246
57
160
142
165
346
293
261
210
85
27
53
113
297
357
320
106
18
298
229
94
58
226
110
7
280
350
35
166
86
248
270
90
217
231
178
13
163
377
225
68
303
138
198
93
103
335
115
9
123
208
349
223
244
364
22
358
327
227
203
59
204
83
180
242
97
33
54
253
116
21
128
366
20
73
331
334
49
378
336
319
287
38
127
44
99
282
341
184
32
252
285
281
42
189
119
240
14
379
117
183
98
79
220
81
10
146
260
192
186
233
276
12
109
200
148
190
345
50
230
317
170
157
274
30
132
207
197
4
239
56
104
151
195
129
143
77
328
182
263
51
45
337
272
29
156
120
273
201
137
256
34
222
196
193
66
318
221
321
111
299
333
311
359
356
82
171
134
213
67
247
176
153
264
122
343
71
75
149
152
277
47
139
332
87
238
194
234
199
135
202
130
118
24
271
25
124
214
23
245
312
380
2
316
31
185
69
89
241
243
133
141
251
154
114
11
342
266
370
323
95
369
360
205
258
215
161
172
39
288
310
121
175
290
367
284
206
292
15
96
371
301
173
8
269
43
36
235
46
6
262
72
279
101
265
17
40
102
324
147
52
209
16
55
381
361
219
155
339
179
84
3
340
294
347
295
92
224
37
159
125
64
5
126
296
302
254
136
325
355
211
76
48
80
314
228
286
63
168
255
91
372
300
169
70
304
362
275
26
322
249
257
167
232
348
329
187
373
107
237
177
267
365
162
259
174
236
181
330
326
344
283
65
108
112
289
212
158
250
306
144
188
164
376
100
78
374
354
309
308
191
278
291
216
218
131
351
28
353
307

> <PUBCHEM_MMFF94_PARTIAL_CHARGES>
17
1 -0.65
10 0.37
11 0.66
12 0.55
13 0.25
2 -0.57
23 0.4
24 0.36
25 0.36
3 -0.82
33 0.4
34 0.4
35 0.5
4 -0.99
5 -0.7
6 -0.85
9 0.33

> <PUBCHEM_EFFECTIVE_ROTOR_COUNT>
8

> <PUBCHEM_PHARMACOPHORE_FEATURES>
9
1 1 acceptor
1 15 hydrophobe
1 2 acceptor
1 3 donor
1 4 cation
1 4 donor
1 6 donor
3 1 2 11 anion
4 3 5 6 12 cation

> <PUBCHEM_HEAVY_ATOM_COUNT>
15

> <PUBCHEM_ATOM_DEF_STEREO_COUNT>
0

> <PUBCHEM_ATOM_UDEF_STEREO_COUNT>
1

> <PUBCHEM_BOND_DEF_STEREO_COUNT>
0

> <PUBCHEM_BOND_UDEF_STEREO_COUNT>
0

> <PUBCHEM_ISOTOPIC_ATOM_COUNT>
0

> <PUBCHEM_COMPONENT_COUNT>
1

> <PUBCHEM_CACTVS_TAUTO_COUNT>
3

> <PUBCHEM_CONFORMER_ID>
0000112300000001

> <PUBCHEM_MMFF94_ENERGY>
16.4513

> <PUBCHEM_FEATURE_SELFOVERLAP>
45.784

> <PUBCHEM_SHAPE_FINGERPRINT>
10680689 15 15554450682672307125
10912923 1 17822572707321448400
11128504 68 12391507586066591506
12596602 18 16660653938426572378
13675066 3 17845937333701419965
14251718 22 11239991261256021034
14251758 9 18335699498178945565
14252887 29 18411425020969980514
14455015 7 17917988391041781746
15375358 24 13984661438695021868
15531645 54 18341051912404027557
15885798 251 18411982485933913276
17834072 8 18060427931907629383
17844677 252 16272208582938754644
18186145 218 17561089068264972169
19489759 90 16225767428111286067
20281475 54 18338518525765075558
20325693 3 14979962475799123159
20645477 70 18271814480061134934
21728266 224 16805900502123061711
2297311 6 15841830062699549167
23016692 55 18261944246326372366
23402539 116 17967821552289539645
23532345 12 18187365424042491200
23557571 272 14273719764240172576
23590187 198 18113901580307600022
2838139 119 18336834195282091189
328317 168 8070023376671183110
42 15 18260268555649563378
5104073 3 18261952942706569659
5312625 73 10735578194606637630
573450 72 17458065949823868223
633830 44 17560808688446743733
90127 26 17203335481162638805
9841814 1 17917161533161211632
9971528 1 18409173199423210048

> <PUBCHEM_SHAPE_MULTIPOLES>
277.03
13.05
1.73
1.06
2.77
0.27
0.14
-3.49
1.87
2.12
-0.3
-1.32
-0.15
-0.53

> <PUBCHEM_SHAPE_SELFOVERLAP>
519.695

> <PUBCHEM_SHAPE_VOLUME>
171.9

> <PUBCHEM_COORDINATE_TYPE>
2
5
10

$$$$

