4445
  -OEChem-06261200073D

 42 44  0     1  0  0  0  0  0999 V2000
    0.8451    0.7867   -0.8481 S   0  0  1  0  0  0  0  0  0  0  0  0
    0.9673    2.2976   -0.8241 O   0  0  0  0  0  0  0  0  0  0  0  0
   -6.6165    0.0231    0.2031 O   0  0  0  0  0  0  0  0  0  0  0  0
   -1.9381    1.0374   -0.8274 N   0  0  0  0  0  0  0  0  0  0  0  0
    3.5472   -1.7378   -0.5884 N   0  0  0  0  0  0  0  0  0  0  0  0
   -1.1520   -0.7011    0.3127 N   0  0  0  0  0  0  0  0  0  0  0  0
    3.2018    0.4089    0.5196 C   0  0  0  0  0  0  0  0  0  0  0  0
    1.7245    0.1585    0.6116 C   0  0  0  0  0  0  0  0  0  0  0  0
    4.0498   -0.5262   -0.0652 C   0  0  0  0  0  0  0  0  0  0  0  0
   -0.8339    0.3388   -0.4252 C   0  0  0  0  0  0  0  0  0  0  0  0
   -3.0423    0.4065   -0.3147 C   0  0  0  0  0  0  0  0  0  0  0  0
   -2.5253   -0.6753    0.3930 C   0  0  0  0  0  0  0  0  0  0  0  0
    3.7091    1.5988    1.0325 C   0  0  0  0  0  0  0  0  0  0  0  0
    5.4187   -0.2692   -0.1379 C   0  0  0  0  0  0  0  0  0  0  0  0
   -4.4074    0.6806   -0.4064 C   0  0  0  0  0  0  0  0  0  0  0  0
   -3.4079   -1.5454    1.0552 C   0  0  0  0  0  0  0  0  0  0  0  0
    5.0781    1.8559    0.9597 C   0  0  0  0  0  0  0  0  0  0  0  0
    5.9329    0.9219    0.3746 C   0  0  0  0  0  0  0  0  0  0  0  0
   -5.2715   -0.1959    0.2584 C   0  0  0  0  0  0  0  0  0  0  0  0
    3.4485   -2.9133    0.2522 C   0  0  0  0  0  0  0  0  0  0  0  0
    3.1118   -1.8148   -1.9678 C   0  0  0  0  0  0  0  0  0  0  0  0
   -4.7827   -1.2897    0.9769 C   0  0  0  0  0  0  0  0  0  0  0  0
   -7.0572    1.1540   -0.5444 C   0  0  0  0  0  0  0  0  0  0  0  0
    1.4986   -0.9047    0.7291 H   0  0  0  0  0  0  0  0  0  0  0  0
    1.3115    0.6577    1.4967 H   0  0  0  0  0  0  0  0  0  0  0  0
   -1.9421    1.8711   -1.4000 H   0  0  0  0  0  0  0  0  0  0  0  0
    3.0547    2.3357    1.4904 H   0  0  0  0  0  0  0  0  0  0  0  0
    6.0949   -0.9894   -0.5917 H   0  0  0  0  0  0  0  0  0  0  0  0
   -4.7210    1.5439   -0.9784 H   0  0  0  0  0  0  0  0  0  0  0  0
   -3.0379   -2.3978    1.6158 H   0  0  0  0  0  0  0  0  0  0  0  0
    5.4785    2.7835    1.3583 H   0  0  0  0  0  0  0  0  0  0  0  0
    6.9988    1.1223    0.3178 H   0  0  0  0  0  0  0  0  0  0  0  0
    4.4442   -3.3291    0.4388 H   0  0  0  0  0  0  0  0  0  0  0  0
    2.8429   -3.6924   -0.2232 H   0  0  0  0  0  0  0  0  0  0  0  0
    2.9881   -2.6788    1.2176 H   0  0  0  0  0  0  0  0  0  0  0  0
    3.6413   -2.6212   -2.4861 H   0  0  0  0  0  0  0  0  0  0  0  0
    3.3055   -0.8853   -2.5146 H   0  0  0  0  0  0  0  0  0  0  0  0
    2.0381   -2.0226   -2.0177 H   0  0  0  0  0  0  0  0  0  0  0  0
   -5.4742   -1.9572    1.4857 H   0  0  0  0  0  0  0  0  0  0  0  0
   -6.6950    2.0916   -0.1093 H   0  0  0  0  0  0  0  0  0  0  0  0
   -8.1502    1.1761   -0.4822 H   0  0  0  0  0  0  0  0  0  0  0  0
   -6.8010    1.0614   -1.6054 H   0  0  0  0  0  0  0  0  0  0  0  0
  1  2  2  0  0  0  0
  1  8  1  0  0  0  0
  1 10  1  0  0  0  0
  3 19  1  0  0  0  0
  3 23  1  0  0  0  0
  4 10  1  0  0  0  0
  4 11  1  0  0  0  0
  4 26  1  0  0  0  0
  5  9  1  0  0  0  0
  5 20  1  0  0  0  0
  5 21  1  0  0  0  0
  6 10  2  0  0  0  0
  6 12  1  0  0  0  0
  7  8  1  0  0  0  0
  7  9  1  0  0  0  0
  7 13  2  0  0  0  0
  8 24  1  0  0  0  0
  8 25  1  0  0  0  0
  9 14  2  0  0  0  0
 11 12  2  0  0  0  0
 11 15  1  0  0  0  0
 12 16  1  0  0  0  0
 13 17  1  0  0  0  0
 13 27  1  0  0  0  0
 14 18  1  0  0  0  0
 14 28  1  0  0  0  0
 15 19  2  0  0  0  0
 15 29  1  0  0  0  0
 16 22  2  0  0  0  0
 16 30  1  0  0  0  0
 17 18  2  0  0  0  0
 17 31  1  0  0  0  0
 18 32  1  0  0  0  0
 19 22  1  0  0  0  0
 20 33  1  0  0  0  0
 20 34  1  0  0  0  0
 20 35  1  0  0  0  0
 21 36  1  0  0  0  0
 21 37  1  0  0  0  0
 21 38  1  0  0  0  0
 22 39  1  0  0  0  0
 23 40  1  0  0  0  0
 23 41  1  0  0  0  0
 23 42  1  0  0  0  0
M  END
> <PUBCHEM_COMPOUND_CID>
4445

> <PUBCHEM_CONFORMER_RMSD>
0.8

> <PUBCHEM_CONFORMER_DIVERSEORDER>
1
11
33
12
5
18
36
32
35
22
21
24
16
28
20
29
30
26
2
8
31
19
10
4
6
40
3
27
9
38
23
25
17
15
37
14
34
39
7
13

> <PUBCHEM_MMFF94_PARTIAL_CHARGES>
31
1 0.3
10 0.2
11 -0.15
12 0.23
13 -0.15
14 -0.15
15 -0.15
16 -0.15
17 -0.15
18 -0.15
19 0.08
2 -0.5
20 0.37
21 0.37
22 -0.15
23 0.28
26 0.27
27 0.15
28 0.15
29 0.15
3 -0.36
30 0.15
31 0.15
32 0.15
39 0.15
4 0.03
5 -0.84
6 -0.57
7 -0.14
8 0.34
9 0.1

> <PUBCHEM_EFFECTIVE_ROTOR_COUNT>
5

> <PUBCHEM_PHARMACOPHORE_FEATURES>
8
1 2 acceptor
1 3 acceptor
1 4 donor
1 5 cation
3 4 6 10 cation
5 4 6 10 11 12 rings
6 11 12 15 16 19 22 rings
6 7 9 13 14 17 18 rings

> <PUBCHEM_HEAVY_ATOM_COUNT>
23

> <PUBCHEM_ATOM_DEF_STEREO_COUNT>
0

> <PUBCHEM_ATOM_UDEF_STEREO_COUNT>
1

> <PUBCHEM_BOND_DEF_STEREO_COUNT>
0

> <PUBCHEM_BOND_UDEF_STEREO_COUNT>
0

> <PUBCHEM_ISOTOPIC_ATOM_COUNT>
0

> <PUBCHEM_COMPONENT_COUNT>
1

> <PUBCHEM_CACTVS_TAUTO_COUNT>
2

> <PUBCHEM_CONFORMER_ID>
0000115D00000001

> <PUBCHEM_MMFF94_ENERGY>
83.9063

> <PUBCHEM_FEATURE_SELFOVERLAP>
40.702

> <PUBCHEM_SHAPE_FINGERPRINT>
12107183 9 17465085438134743922
12166972 35 7132433536030571019
12236239 1 15719389538161178646
12516196 113 18411419497072650177
12596602 18 17168143382216553562
12616971 3 13901908886580145307
12730499 353 18409164399056352282
13402501 40 18341894078471635714
13533116 47 18113619022993817059
13583140 156 17749955427911393699
14341114 176 18335415755454383849
14386348 63 18343299271205775818
14617045 38 18411978070575638334
15183329 4 17531247292564926393
17844677 252 18335133228379653057
1813 80 16988841687437094412
19141452 34 18339924822970825863
20157964 124 17967813860013454175
20645477 70 18113617923951661814
21033648 29 18187944862354692145
21033650 10 16342573049719349284
21279426 13 18126852818482347797
21315763 191 14764344921319165961
21623969 137 18260543407512806278
21859007 373 17632031826917972397
22122407 14 17241034419322497241
2215653 11 18411701015215175503
22224240 67 18262526888556931496
23557571 272 17632300116007006036
23559900 14 18342461396391154665
239999 70 18408036317474928246
300161 21 17821734909483669167
3004659 81 17346590868335667884
335352 9 18060421301306345037
3383291 50 17702939233283468115
345986 75 17532096166638176106
3545911 37 18412263930233793345
394071 54 18261383447117552168
4073 2 18271804583987214315
4325135 7 17561360661255171132
4340502 62 18334860502773381718
5104073 3 18339643459256875792
542803 24 15936405624187033793
621550 34 18412271631875221604
7495541 125 13614229365411057557
8272917 22 17676202485912195574
8988823 20 18113901584565345334
9995097 60 18411983546432054885

> <PUBCHEM_SHAPE_MULTIPOLES>
450.5
16.55
2.14
1.15
14.04
0.82
-0.23
-2.26
1.7
-2.46
-0.05
-0.43
0.2
2.13

> <PUBCHEM_SHAPE_SELFOVERLAP>
955.228

> <PUBCHEM_SHAPE_VOLUME>
254.5

> <PUBCHEM_COORDINATE_TYPE>
2
5
10

$$$$

