8860
  -OEChem-06261203112D

 10 10  0     0  0  0  0  0  0999 V2000
    4.2601    0.7694    0.0000 S   0  0  0  0  0  0  0  0  0  0  0  0
    5.5201   -0.4907    0.0000 S   0  0  0  0  0  0  0  0  0  0  0  0
    2.0000   -0.4907    0.0000 O   0  0  0  0  0  0  0  0  0  0  0  0
    3.7601   -0.7694    0.0000 N   0  0  0  0  0  0  0  0  0  0  0  0
    3.2601    0.7694    0.0000 C   0  0  0  0  0  0  0  0  0  0  0  0
    2.9511   -0.1816    0.0000 C   0  0  0  0  0  0  0  0  0  0  0  0
    4.5691   -0.1816    0.0000 C   0  0  0  0  0  0  0  0  0  0  0  0
    3.3249    1.3860    0.0000 H   0  0  0  0  0  0  0  0  0  0  0  0
    2.6536    0.8983    0.0000 H   0  0  0  0  0  0  0  0  0  0  0  0
    5.9809   -0.0758    0.0000 H   0  0  0  0  0  0  0  0  0  0  0  0
  1  5  1  0  0  0  0
  1  7  1  0  0  0  0
  2  7  1  0  0  0  0
  2 10  1  0  0  0  0
  3  6  2  0  0  0  0
  4  6  1  0  0  0  0
  4  7  2  0  0  0  0
  5  6  1  0  0  0  0
  5  8  1  0  0  0  0
  5  9  1  0  0  0  0
M  END
> <PUBCHEM_COMPOUND_CID>
8860

> <PUBCHEM_COMPOUND_CANONICALIZED>
1

> <PUBCHEM_CACTVS_COMPLEXITY>
131

> <PUBCHEM_CACTVS_HBOND_ACCEPTOR>
3

> <PUBCHEM_CACTVS_HBOND_DONOR>
1

> <PUBCHEM_CACTVS_ROTATABLE_BOND>
0

> <PUBCHEM_CACTVS_SUBSKEYS>
AAADcQBCIABgAAAAAAAAAAAAAAAAAQAAAAAAAAAAAAAAAAAAAAAAHgQAAAAAAACFwACAAAIAAAwoAAEQFAAAEQAAABAAAAAAAAAAAAAAAAAAAAAAAAAAAAAAAAAAAAAAAAAAAAAAAAAAAAAAAAAAAAAAAA==

> <PUBCHEM_IUPAC_OPENEYE_NAME>
2-sulfanylthiazol-4-one

> <PUBCHEM_IUPAC_CAS_NAME>
2-mercapto-4-thiazolone

> <PUBCHEM_IUPAC_NAME>
2-sulfanyl-1,3-thiazol-4-one

> <PUBCHEM_IUPAC_SYSTEMATIC_NAME>
2-sulfanyl-1,3-thiazol-4-one

> <PUBCHEM_IUPAC_TRADITIONAL_NAME>
2-mercapto-2-thiazolin-4-one

> <PUBCHEM_IUPAC_INCHI>
InChI=1S/C3H3NOS2/c5-2-1-7-3(6)4-2/h1H2,(H,4,5,6)

> <PUBCHEM_IUPAC_INCHIKEY>
KIWUVOGUEXMXSV-UHFFFAOYSA-N

> <PUBCHEM_XLOGP3_AA>
0.9

> <PUBCHEM_EXACT_MASS>
132.965606

> <PUBCHEM_MOLECULAR_FORMULA>
C3H3NOS2

> <PUBCHEM_MOLECULAR_WEIGHT>
133.19202

> <PUBCHEM_OPENEYE_CAN_SMILES>
C1C(=O)N=C(S1)S

> <PUBCHEM_OPENEYE_ISO_SMILES>
C1C(=O)N=C(S1)S

> <PUBCHEM_CACTVS_TPSA>
55.7

> <PUBCHEM_MONOISOTOPIC_WEIGHT>
132.965606

> <PUBCHEM_TOTAL_CHARGE>
0

> <PUBCHEM_HEAVY_ATOM_COUNT>
7

> <PUBCHEM_ATOM_DEF_STEREO_COUNT>
0

> <PUBCHEM_ATOM_UDEF_STEREO_COUNT>
0

> <PUBCHEM_BOND_DEF_STEREO_COUNT>
0

> <PUBCHEM_BOND_UDEF_STEREO_COUNT>
0

> <PUBCHEM_ISOTOPIC_ATOM_COUNT>
0

> <PUBCHEM_COMPONENT_COUNT>
1

> <PUBCHEM_CACTVS_TAUTO_COUNT>
3

> <PUBCHEM_COORDINATE_TYPE>
1
5
255

$$$$

