17395551
  -OEChem-06241222512D

 36 37  0     1  0  0  0  0  0999 V2000
    5.9155   -0.9062    0.0000 S   0  0  0  0  0  0  0  0  0  0  0  0
    7.6756   -1.1850    0.0000 S   0  0  0  0  0  0  0  0  0  0  0  0
    4.0134   -1.5243    0.0000 O   0  0  0  0  0  0  0  0  0  0  0  0
    3.4782    0.1230    0.0000 N   0  0  0  0  0  0  0  0  0  0  0  0
    9.4356   -0.9062    0.0000 N   0  0  0  0  0  0  0  0  0  0  0  0
    7.1756    0.3538    0.0000 N   0  0  0  0  0  0  0  0  0  0  0  0
    8.1756    0.3538    0.0000 N   0  0  0  0  0  0  0  0  0  0  0  0
    2.6691    1.5243    0.0000 C   0  0  0  0  0  0  0  0  0  0  0  0
    2.0000    0.7811    0.0000 C   0  0  0  0  0  0  0  0  0  0  0  0
    3.5827    1.1175    0.0000 C   0  0  0  0  0  0  0  0  0  0  0  0
    2.5000   -0.0849    0.0000 C   0  0  0  0  0  0  0  0  0  0  0  0
    4.2213   -0.5461    0.0000 C   0  0  0  0  0  0  0  0  0  0  0  0
    5.1724   -0.2371    0.0000 C   0  0  3  0  0  0  0  0  0  0  0  0
    5.3803    0.7410    0.0000 C   0  0  0  0  0  0  0  0  0  0  0  0
    6.8666   -0.5972    0.0000 C   0  0  0  0  0  0  0  0  0  0  0  0
    8.4846   -0.5972    0.0000 C   0  0  0  0  0  0  0  0  0  0  0  0
   10.1788   -0.2371    0.0000 C   0  0  0  0  0  0  0  0  0  0  0  0
   11.1298   -0.5461    0.0000 C   0  0  0  0  0  0  0  0  0  0  0  0
    2.9791    2.0612    0.0000 H   0  0  0  0  0  0  0  0  0  0  0  0
    2.1675    1.8887    0.0000 H   0  0  0  0  0  0  0  0  0  0  0  0
    1.5851    1.2419    0.0000 H   0  0  0  0  0  0  0  0  0  0  0  0
    1.4984    0.4167    0.0000 H   0  0  0  0  0  0  0  0  0  0  0  0
    1.9336   -0.3371    0.0000 H   0  0  0  0  0  0  0  0  0  0  0  0
    2.6916   -0.6746    0.0000 H   0  0  0  0  0  0  0  0  0  0  0  0
    4.1891    0.9886    0.0000 H   0  0  0  0  0  0  0  0  0  0  0  0
    3.7743    1.7072    0.0000 H   0  0  0  0  0  0  0  0  0  0  0  0
    5.7620   -0.0455    0.0000 H   0  0  0  0  0  0  0  0  0  0  0  0
    5.9867    0.6121    0.0000 H   0  0  0  0  0  0  0  0  0  0  0  0
    5.5092    1.3475    0.0000 H   0  0  0  0  0  0  0  0  0  0  0  0
    4.7738    0.8699    0.0000 H   0  0  0  0  0  0  0  0  0  0  0  0
   10.4699    0.3103    0.0000 H   0  0  0  0  0  0  0  0  0  0  0  0
    9.6902    0.1446    0.0000 H   0  0  0  0  0  0  0  0  0  0  0  0
    9.5646   -1.5127    0.0000 H   0  0  0  0  0  0  0  0  0  0  0  0
   10.9383   -1.1358    0.0000 H   0  0  0  0  0  0  0  0  0  0  0  0
   11.7195   -0.7377    0.0000 H   0  0  0  0  0  0  0  0  0  0  0  0
   11.3214    0.0435    0.0000 H   0  0  0  0  0  0  0  0  0  0  0  0
  1 13  1  0  0  0  0
  1 15  1  0  0  0  0
  2 15  1  0  0  0  0
  2 16  1  0  0  0  0
  3 12  2  0  0  0  0
  4 10  1  0  0  0  0
  4 11  1  0  0  0  0
  4 12  1  0  0  0  0
  5 16  1  0  0  0  0
  5 17  1  0  0  0  0
  5 33  1  0  0  0  0
  6  7  1  0  0  0  0
  6 15  2  0  0  0  0
  7 16  2  0  0  0  0
  8  9  1  0  0  0  0
  8 10  1  0  0  0  0
  8 19  1  0  0  0  0
  8 20  1  0  0  0  0
  9 11  1  0  0  0  0
  9 21  1  0  0  0  0
  9 22  1  0  0  0  0
 10 25  1  0  0  0  0
 10 26  1  0  0  0  0
 11 23  1  0  0  0  0
 11 24  1  0  0  0  0
 12 13  1  0  0  0  0
 13 14  1  0  0  0  0
 13 27  1  0  0  0  0
 14 28  1  0  0  0  0
 14 29  1  0  0  0  0
 14 30  1  0  0  0  0
 17 18  1  0  0  0  0
 17 31  1  0  0  0  0
 17 32  1  0  0  0  0
 18 34  1  0  0  0  0
 18 35  1  0  0  0  0
 18 36  1  0  0  0  0
M  END
> <PUBCHEM_COMPOUND_CID>
17395551

> <PUBCHEM_COMPOUND_CANONICALIZED>
1

> <PUBCHEM_CACTVS_COMPLEXITY>
286

> <PUBCHEM_CACTVS_HBOND_ACCEPTOR>
6

> <PUBCHEM_CACTVS_HBOND_DONOR>
1

> <PUBCHEM_CACTVS_ROTATABLE_BOND>
5

> <PUBCHEM_CACTVS_SUBSKEYS>
AAADceBzoABgAAAAAAAAAAAAAAAAAWLAAAAAAAAAAAAAAAABgAAAHgQYAAAACADFwASDEAPAAAguAAEQMAAQAQJAABkFAIEIAACAAAAAiAAEAAAQFgKAAAAAAAAAAAAAAAAAAAAAAAAAAAAAAAAAAAAAAA==

> <PUBCHEM_IUPAC_OPENEYE_NAME>
2-[[5-(ethylamino)-1,3,4-thiadiazol-2-yl]sulfanyl]-1-pyrrolidin-1-yl-propan-1-one

> <PUBCHEM_IUPAC_CAS_NAME>
2-[[5-(ethylamino)-1,3,4-thiadiazol-2-yl]thio]-1-(1-pyrrolidinyl)-1-propanone

> <PUBCHEM_IUPAC_NAME>
2-[[5-(ethylamino)-1,3,4-thiadiazol-2-yl]sulfanyl]-1-pyrrolidin-1-ylpropan-1-one

> <PUBCHEM_IUPAC_SYSTEMATIC_NAME>
2-[[5-(ethylamino)-1,3,4-thiadiazol-2-yl]sulfanyl]-1-pyrrolidin-1-yl-propan-1-one

> <PUBCHEM_IUPAC_TRADITIONAL_NAME>
2-[[5-(ethylamino)-1,3,4-thiadiazol-2-yl]thio]-1-pyrrolidino-propan-1-one

> <PUBCHEM_IUPAC_INCHI>
InChI=1S/C11H18N4OS2/c1-3-12-10-13-14-11(18-10)17-8(2)9(16)15-6-4-5-7-15/h8H,3-7H2,1-2H3,(H,12,13)

> <PUBCHEM_IUPAC_INCHIKEY>
AMFPYGQPVIIAAI-UHFFFAOYSA-N

> <PUBCHEM_XLOGP3_AA>
2.3

> <PUBCHEM_EXACT_MASS>
286.092203

> <PUBCHEM_MOLECULAR_FORMULA>
C11H18N4OS2

> <PUBCHEM_MOLECULAR_WEIGHT>
286.41682

> <PUBCHEM_OPENEYE_CAN_SMILES>
CCNC1=NN=C(S1)SC(C)C(=O)N2CCCC2

> <PUBCHEM_OPENEYE_ISO_SMILES>
CCNC1=NN=C(S1)SC(C)C(=O)N2CCCC2

> <PUBCHEM_CACTVS_TPSA>
112

> <PUBCHEM_MONOISOTOPIC_WEIGHT>
286.092203

> <PUBCHEM_TOTAL_CHARGE>
0

> <PUBCHEM_HEAVY_ATOM_COUNT>
18

> <PUBCHEM_ATOM_DEF_STEREO_COUNT>
0

> <PUBCHEM_ATOM_UDEF_STEREO_COUNT>
1

> <PUBCHEM_BOND_DEF_STEREO_COUNT>
0

> <PUBCHEM_BOND_UDEF_STEREO_COUNT>
0

> <PUBCHEM_ISOTOPIC_ATOM_COUNT>
0

> <PUBCHEM_COMPONENT_COUNT>
1

> <PUBCHEM_CACTVS_TAUTO_COUNT>
2

> <PUBCHEM_COORDINATE_TYPE>
1
5
255

> <PUBCHEM_BONDANNOTATIONS>
13  14  3
2  15  8
2  16  8
6  15  8
6  7  8
7  16  8

$$$$

