12167
  -OEChem-06261206373D

 16 16  0     0  0  0  0  0  0999 V2000
    3.4389   -0.3539    0.0001 Cl  0  0  0  0  0  0  0  0  0  0  0  0
   -2.3725    0.4850    0.0000 O   0  0  0  0  0  0  0  0  0  0  0  0
   -1.0255    0.2906   -0.0001 C   0  0  0  0  0  0  0  0  0  0  0  0
   -0.5079   -1.0046   -0.0001 C   0  0  0  0  0  0  0  0  0  0  0  0
   -0.1626    1.3867    0.0000 C   0  0  0  0  0  0  0  0  0  0  0  0
    0.8727   -1.2038    0.0000 C   0  0  0  0  0  0  0  0  0  0  0  0
    1.2180    1.1875    0.0000 C   0  0  0  0  0  0  0  0  0  0  0  0
    1.7357   -0.1079    0.0000 C   0  0  0  0  0  0  0  0  0  0  0  0
   -3.1968   -0.6796    0.0001 C   0  0  0  0  0  0  0  0  0  0  0  0
   -1.1202   -1.8998   -0.0002 H   0  0  0  0  0  0  0  0  0  0  0  0
   -0.5603    2.3979    0.0000 H   0  0  0  0  0  0  0  0  0  0  0  0
    1.2630   -2.2184    0.0000 H   0  0  0  0  0  0  0  0  0  0  0  0
    1.8783    2.0509    0.0000 H   0  0  0  0  0  0  0  0  0  0  0  0
   -3.0547   -1.2732   -0.9094 H   0  0  0  0  0  0  0  0  0  0  0  0
   -4.2374   -0.3392    0.0002 H   0  0  0  0  0  0  0  0  0  0  0  0
   -3.0546   -1.2731    0.9097 H   0  0  0  0  0  0  0  0  0  0  0  0
  1  8  1  0  0  0  0
  2  3  1  0  0  0  0
  2  9  1  0  0  0  0
  3  4  2  0  0  0  0
  3  5  1  0  0  0  0
  4  6  1  0  0  0  0
  4 10  1  0  0  0  0
  5  7  2  0  0  0  0
  5 11  1  0  0  0  0
  6  8  2  0  0  0  0
  6 12  1  0  0  0  0
  7  8  1  0  0  0  0
  7 13  1  0  0  0  0
  9 14  1  0  0  0  0
  9 15  1  0  0  0  0
  9 16  1  0  0  0  0
M  END
> <PUBCHEM_COMPOUND_CID>
12167

> <PUBCHEM_CONFORMER_RMSD>
0.4

> <PUBCHEM_CONFORMER_DIVERSEORDER>
1

> <PUBCHEM_MMFF94_PARTIAL_CHARGES>
13
1 -0.18
10 0.15
11 0.15
12 0.15
13 0.15
2 -0.36
3 0.08
4 -0.15
5 -0.15
6 -0.15
7 -0.15
8 0.18
9 0.28

> <PUBCHEM_EFFECTIVE_ROTOR_COUNT>
1

> <PUBCHEM_PHARMACOPHORE_FEATURES>
2
1 2 acceptor
6 3 4 5 6 7 8 rings

> <PUBCHEM_HEAVY_ATOM_COUNT>
9

> <PUBCHEM_ATOM_DEF_STEREO_COUNT>
0

> <PUBCHEM_ATOM_UDEF_STEREO_COUNT>
0

> <PUBCHEM_BOND_DEF_STEREO_COUNT>
0

> <PUBCHEM_BOND_UDEF_STEREO_COUNT>
0

> <PUBCHEM_ISOTOPIC_ATOM_COUNT>
0

> <PUBCHEM_COMPONENT_COUNT>
1

> <PUBCHEM_CACTVS_TAUTO_COUNT>
1

> <PUBCHEM_CONFORMER_ID>
00002F8700000001

> <PUBCHEM_MMFF94_ENERGY>
28.3822

> <PUBCHEM_FEATURE_SELFOVERLAP>
10.148

> <PUBCHEM_SHAPE_FINGERPRINT>
10219947 1 18334293162730244774
10857977 72 18410022038914791978
11062470 55 12463571776778549679
12032990 46 18410004442560731318
14128692 85 18334296422726389135
14325111 11 18410573972308890176
16945 1 18410855473049999942
193761 8 17618223252993063974
21040471 1 18194683661598974436
21293036 1 18341888576481100180
23235685 24 18410579487210285640
23402655 69 18193858148333474781
23552423 10 17984132936126156746
2748010 2 18123186805690602534
29004967 10 18412259558067745433
5084963 1 18408604751273216553

> <PUBCHEM_SHAPE_MULTIPOLES>
181.22
4.43
1.37
0.61
0.21
0.17
0
-0.95
0
-0.05
0
-0.04
-0.01
0

> <PUBCHEM_SHAPE_SELFOVERLAP>
363.447

> <PUBCHEM_SHAPE_VOLUME>
108.7

> <PUBCHEM_COORDINATE_TYPE>
2
5
10

$$$$

