583347
  -OEChem-06241222453D

 42 43  0     0  0  0  0  0  0999 V2000
    0.0423    1.5321    0.7031 S   0  0  0  0  0  0  0  0  0  0  0  0
    2.1898   -0.5506   -0.9354 S   0  0  0  0  0  0  0  0  0  0  0  0
   -0.9122    1.7836    1.7758 O   0  0  0  0  0  0  0  0  0  0  0  0
    1.4769    1.5220    0.9656 O   0  0  0  0  0  0  0  0  0  0  0  0
    2.6490   -1.6656   -1.7565 O   0  0  0  0  0  0  0  0  0  0  0  0
    2.3026    0.8235   -1.4150 O   0  0  0  0  0  0  0  0  0  0  0  0
   -1.4505   -1.8601   -0.5555 N   0  0  0  0  0  0  0  0  0  0  0  0
   -3.1321    0.8890    1.2772 N   0  0  0  0  0  0  0  0  0  0  0  0
   -0.3685    0.0009    0.0600 C   0  0  0  0  0  0  0  0  0  0  0  0
    0.5400   -0.8480   -0.6159 C   0  0  0  0  0  0  0  0  0  0  0  0
   -1.5955   -0.6346    0.0911 C   0  0  0  0  0  0  0  0  0  0  0  0
   -0.1481   -1.9825   -0.9834 C   0  0  0  0  0  0  0  0  0  0  0  0
   -0.2652    2.6931   -0.6153 C   0  0  0  0  0  0  0  0  0  0  0  0
    3.0036   -0.6428    0.6499 C   0  0  0  0  0  0  0  0  0  0  0  0
   -2.8899   -0.2930    0.6249 C   0  0  0  0  0  0  0  0  0  0  0  0
    0.0583    4.1149   -0.1872 C   0  0  0  0  0  0  0  0  0  0  0  0
    4.0614   -1.7338    0.6664 C   0  0  0  0  0  0  0  0  0  0  0  0
   -2.4928   -2.7696   -0.7110 C   0  0  0  0  0  0  0  0  0  0  0  0
   -3.8879   -1.1951    0.4609 C   0  0  0  0  0  0  0  0  0  0  0  0
   -3.7018   -2.4646   -0.2191 C   0  0  0  0  0  0  0  0  0  0  0  0
   -0.2217    5.1085   -1.3022 C   0  0  0  0  0  0  0  0  0  0  0  0
    4.7423   -1.8276    2.0216 C   0  0  0  0  0  0  0  0  0  0  0  0
    0.1730   -2.8706   -1.5124 H   0  0  0  0  0  0  0  0  0  0  0  0
   -1.3237    2.6051   -0.8819 H   0  0  0  0  0  0  0  0  0  0  0  0
    0.3356    2.4033   -1.4800 H   0  0  0  0  0  0  0  0  0  0  0  0
    2.2572   -0.8357    1.4258 H   0  0  0  0  0  0  0  0  0  0  0  0
    3.4907    0.3183    0.8393 H   0  0  0  0  0  0  0  0  0  0  0  0
   -0.5336    4.3866    0.6947 H   0  0  0  0  0  0  0  0  0  0  0  0
    1.1120    4.1887    0.1055 H   0  0  0  0  0  0  0  0  0  0  0  0
    3.6080   -2.7052    0.4359 H   0  0  0  0  0  0  0  0  0  0  0  0
    4.8176   -1.5401   -0.1034 H   0  0  0  0  0  0  0  0  0  0  0  0
   -2.2866   -3.6987   -1.2285 H   0  0  0  0  0  0  0  0  0  0  0  0
   -4.8874   -0.9988    0.8398 H   0  0  0  0  0  0  0  0  0  0  0  0
   -4.5445   -3.1384   -0.3145 H   0  0  0  0  0  0  0  0  0  0  0  0
    0.0180    6.1246   -0.9738 H   0  0  0  0  0  0  0  0  0  0  0  0
    0.3835    4.8859   -2.1869 H   0  0  0  0  0  0  0  0  0  0  0  0
   -1.2770    5.0853   -1.5925 H   0  0  0  0  0  0  0  0  0  0  0  0
    4.0186   -2.0594    2.8096 H   0  0  0  0  0  0  0  0  0  0  0  0
    5.4987   -2.6186    2.0121 H   0  0  0  0  0  0  0  0  0  0  0  0
    5.2391   -0.8861    2.2772 H   0  0  0  0  0  0  0  0  0  0  0  0
   -4.0639    1.0660    1.6347 H   0  0  0  0  0  0  0  0  0  0  0  0
   -2.5333    1.6847    1.1150 H   0  0  0  0  0  0  0  0  0  0  0  0
  1  3  2  0  0  0  0
  1  4  2  0  0  0  0
  1  9  1  0  0  0  0
  1 13  1  0  0  0  0
  2  5  2  0  0  0  0
  2  6  2  0  0  0  0
  2 10  1  0  0  0  0
  2 14  1  0  0  0  0
  7 11  1  0  0  0  0
  7 12  1  0  0  0  0
  7 18  1  0  0  0  0
  8 15  1  0  0  0  0
  8 41  1  0  0  0  0
  8 42  1  0  0  0  0
  9 10  1  0  0  0  0
  9 11  2  0  0  0  0
 10 12  2  0  0  0  0
 11 15  1  0  0  0  0
 12 23  1  0  0  0  0
 13 16  1  0  0  0  0
 13 24  1  0  0  0  0
 13 25  1  0  0  0  0
 14 17  1  0  0  0  0
 14 26  1  0  0  0  0
 14 27  1  0  0  0  0
 15 19  2  0  0  0  0
 16 21  1  0  0  0  0
 16 28  1  0  0  0  0
 16 29  1  0  0  0  0
 17 22  1  0  0  0  0
 17 30  1  0  0  0  0
 17 31  1  0  0  0  0
 18 20  2  0  0  0  0
 18 32  1  0  0  0  0
 19 20  1  0  0  0  0
 19 33  1  0  0  0  0
 20 34  1  0  0  0  0
 21 35  1  0  0  0  0
 21 36  1  0  0  0  0
 21 37  1  0  0  0  0
 22 38  1  0  0  0  0
 22 39  1  0  0  0  0
 22 40  1  0  0  0  0
M  END
> <PUBCHEM_COMPOUND_CID>
583347

> <PUBCHEM_CONFORMER_RMSD>
0.8

> <PUBCHEM_CONFORMER_DIVERSEORDER>
1
14
8
13
22
12
28
4
27
26
17
19
20
10
2
25
7
23
6
18
16
24
5
9
3
21
11
15

> <PUBCHEM_MMFF94_PARTIAL_CHARGES>
24
1 1.26
10 -0.06
11 -0.2
12 -0.3
13 0.11
14 0.11
15 0.15
18 -0.18
19 -0.15
2 1.26
20 -0.15
23 0.15
3 -0.65
32 0.15
33 0.15
34 0.15
4 -0.65
41 0.4
42 0.4
5 -0.65
6 -0.65
7 0.33
8 -0.9
9 -0.06

> <PUBCHEM_EFFECTIVE_ROTOR_COUNT>
6

> <PUBCHEM_PHARMACOPHORE_FEATURES>
11
1 21 hydrophobe
1 22 hydrophobe
1 3 acceptor
1 4 acceptor
1 5 acceptor
1 6 acceptor
1 7 cation
1 8 cation
1 8 donor
5 7 9 10 11 12 rings
6 7 11 15 18 19 20 rings

> <PUBCHEM_HEAVY_ATOM_COUNT>
22

> <PUBCHEM_ATOM_DEF_STEREO_COUNT>
0

> <PUBCHEM_ATOM_UDEF_STEREO_COUNT>
0

> <PUBCHEM_BOND_DEF_STEREO_COUNT>
0

> <PUBCHEM_BOND_UDEF_STEREO_COUNT>
0

> <PUBCHEM_ISOTOPIC_ATOM_COUNT>
0

> <PUBCHEM_COMPONENT_COUNT>
1

> <PUBCHEM_CACTVS_TAUTO_COUNT>
1

> <PUBCHEM_CONFORMER_ID>
0008E6B300000001

> <PUBCHEM_MMFF94_ENERGY>
47.8853

> <PUBCHEM_FEATURE_SELFOVERLAP>
55.962

> <PUBCHEM_SHAPE_FINGERPRINT>
10165383 225 16747294608159294208
107951 10 16683431124516792260
10967382 1 17609209049037410703
11132069 177 18115017640507658091
11578080 2 18058754436650777836
11582403 64 16600738496017204524
12035758 1 18337111293264653657
12553582 1 18336533967491378191
12643181 29 17329715835205977330
12788726 201 18128522937837103216
13004483 165 18342186595550697536
13134695 92 18270410381899908367
13140716 1 18261110764118303059
13540713 5 17826787033182456463
13583140 156 17986947449939126763
13965767 371 17611723988406504147
14022347 108 18193527095599771535
14178342 30 18040707100137504587
16945 1 17894896460667436315
1813 80 18412258411269370234
19930374 2 18121497126796317961
20600515 1 18261110781197776363
20645476 183 16393810935502618821
21304303 282 17477523105009873412
22112679 90 18411128147786622050
2255824 54 17977660909746959582
2334 1 18115301151430761687
23366157 5 17981326690346511791
23419403 2 17754776816173980929
23557571 272 17895184537088307662
23558518 356 18193271885081195099
23559900 14 17750781320279573214
25147074 1 17681545940778138207
2748010 2 17756397694298569295
394222 165 17618221711231608898
4409770 3 18053679236789495493
474 4 17620476805248618029
4938544 92 17908729541886316250
5104073 3 18043804287492326715
7364860 26 17753883909705505967
81228 2 18189597496918567563
90316 7 18411419552585140482
9981440 41 17330852720915658784

> <PUBCHEM_SHAPE_MULTIPOLES>
427.01
6.4
4.95
1.52
2.87
8.44
0.15
-7.33
2.6
-0.9
-1.65
0.99
-0.01
-1.12

> <PUBCHEM_SHAPE_SELFOVERLAP>
874.531

> <PUBCHEM_SHAPE_VOLUME>
246.9

> <PUBCHEM_COORDINATE_TYPE>
2
5
10

$$$$

