12972
  -OEChem-06261207363D

 35 34  0     0  0  0  0  0  0999 V2000
   -3.2867    2.3532    0.4900 O   0  0  0  0  0  0  0  0  0  0  0  0
   -2.9348   -2.3873    0.6448 O   0  0  0  0  0  0  0  0  0  0  0  0
   -3.6433    1.2335   -1.4500 O   0  0  0  0  0  0  0  0  0  0  0  0
   -3.4436   -1.4459   -1.3531 O   0  0  0  0  0  0  0  0  0  0  0  0
    1.0102    0.1262    0.8681 C   0  0  0  0  0  0  0  0  0  0  0  0
    2.1772    0.0414   -0.1217 C   0  0  0  0  0  0  0  0  0  0  0  0
   -0.3590    0.0059    0.1983 C   0  0  0  0  0  0  0  0  0  0  0  0
    3.5496    0.0947    0.5535 C   0  0  0  0  0  0  0  0  0  0  0  0
   -1.5478    0.0908    1.1688 C   0  0  0  0  0  0  0  0  0  0  0  0
    4.6776    0.0188   -0.4780 C   0  0  0  0  0  0  0  0  0  0  0  0
   -2.9564    0.0024    0.5505 C   0  0  0  0  0  0  0  0  0  0  0  0
    6.0493    0.0338    0.1962 C   0  0  0  0  0  0  0  0  0  0  0  0
    7.1722   -0.0748   -0.8231 C   0  0  0  0  0  0  0  0  0  0  0  0
   -3.3169    1.2293   -0.2720 C   0  0  0  0  0  0  0  0  0  0  0  0
   -3.1475   -1.3220   -0.1722 C   0  0  0  0  0  0  0  0  0  0  0  0
    1.0665    1.0782    1.4099 H   0  0  0  0  0  0  0  0  0  0  0  0
    1.1134   -0.6704    1.6153 H   0  0  0  0  0  0  0  0  0  0  0  0
    2.0940    0.8637   -0.8432 H   0  0  0  0  0  0  0  0  0  0  0  0
    2.0942   -0.8913   -0.6934 H   0  0  0  0  0  0  0  0  0  0  0  0
   -0.4030   -0.9462   -0.3438 H   0  0  0  0  0  0  0  0  0  0  0  0
   -0.4564    0.7990   -0.5531 H   0  0  0  0  0  0  0  0  0  0  0  0
    3.6392    1.0230    1.1305 H   0  0  0  0  0  0  0  0  0  0  0  0
    3.6396   -0.7374    1.2621 H   0  0  0  0  0  0  0  0  0  0  0  0
   -1.4621    1.0293    1.7315 H   0  0  0  0  0  0  0  0  0  0  0  0
   -1.4350   -0.7091    1.9125 H   0  0  0  0  0  0  0  0  0  0  0  0
    4.5990    0.8635   -1.1731 H   0  0  0  0  0  0  0  0  0  0  0  0
    4.5711   -0.8982   -1.0705 H   0  0  0  0  0  0  0  0  0  0  0  0
   -3.6965   -0.0136    1.3641 H   0  0  0  0  0  0  0  0  0  0  0  0
    6.1261   -0.8001    0.9037 H   0  0  0  0  0  0  0  0  0  0  0  0
    6.1714    0.9593    0.7708 H   0  0  0  0  0  0  0  0  0  0  0  0
    7.0975   -1.0075   -1.3914 H   0  0  0  0  0  0  0  0  0  0  0  0
    8.1438   -0.0609   -0.3195 H   0  0  0  0  0  0  0  0  0  0  0  0
    7.1433    0.7614   -1.5289 H   0  0  0  0  0  0  0  0  0  0  0  0
   -3.5400    3.1498   -0.0233 H   0  0  0  0  0  0  0  0  0  0  0  0
   -3.0508   -3.2390    0.1721 H   0  0  0  0  0  0  0  0  0  0  0  0
  1 14  1  0  0  0  0
  1 34  1  0  0  0  0
  2 15  1  0  0  0  0
  2 35  1  0  0  0  0
  3 14  2  0  0  0  0
  4 15  2  0  0  0  0
  5  6  1  0  0  0  0
  5  7  1  0  0  0  0
  5 16  1  0  0  0  0
  5 17  1  0  0  0  0
  6  8  1  0  0  0  0
  6 18  1  0  0  0  0
  6 19  1  0  0  0  0
  7  9  1  0  0  0  0
  7 20  1  0  0  0  0
  7 21  1  0  0  0  0
  8 10  1  0  0  0  0
  8 22  1  0  0  0  0
  8 23  1  0  0  0  0
  9 11  1  0  0  0  0
  9 24  1  0  0  0  0
  9 25  1  0  0  0  0
 10 12  1  0  0  0  0
 10 26  1  0  0  0  0
 10 27  1  0  0  0  0
 11 14  1  0  0  0  0
 11 15  1  0  0  0  0
 11 28  1  0  0  0  0
 12 13  1  0  0  0  0
 12 29  1  0  0  0  0
 12 30  1  0  0  0  0
 13 31  1  0  0  0  0
 13 32  1  0  0  0  0
 13 33  1  0  0  0  0
M  END
> <PUBCHEM_COMPOUND_CID>
12972

> <PUBCHEM_CONFORMER_RMSD>
0.8

> <PUBCHEM_CONFORMER_DIVERSEORDER>
1
235
259
284
80
266
282
62
252
107
64
44
215
32
306
148
10
139
211
164
302
198
144
7
4
222
272
112
207
267
163
114
102
264
178
236
108
281
220
278
48
50
103
76
173
41
238
189
160
18
170
253
233
247
242
260
202
77
271
263
127
218
58
217
35
223
165
227
301
2
45
28
179
273
177
210
230
181
137
101
248
213
8
145
31
57
79
280
53
39
89
225
270
168
226
240
180
293
97
149
56
232
16
51
60
243
67
174
91
216
197
303
113
305
124
201
257
275
11
5
37
61
106
12
268
22
33
27
166
290
274
292
157
286
128
283
214
219
185
26
71
120
255
208
175
304
19
188
296
150
246
55
66
13
118
86
36
143
256
146
121
229
289
182
192
63
285
9
228
20
34
14
38
245
95
17
59
110
109
261
98
153
298
69
23
93
156
54
122
300
291
3
134
70
52
111
84
265
129
147
269
6
154
29
99
85
203
135
241
123
251
116
231
184
279
249
81
115
239
294
193
258
73
49
262
167
92
172
74
72
15
295
287
119
88
152
237
158
171
100
46
65
161
131
254
200
186
151
43
96
288
83
277
196
297
94
194
155
176
244
299
75
136
87
24
250
138
183
276
40
221
82
104
199
190
90
132
78
205
126
142
21
105
169
140
204
68
212
187
195
206
125
159
47
25
234
162
130
133
42
224
30
117
141
209
191

> <PUBCHEM_MMFF94_PARTIAL_CHARGES>
9
1 -0.65
11 0.12
14 0.66
15 0.66
2 -0.65
3 -0.57
34 0.5
35 0.5
4 -0.57

> <PUBCHEM_EFFECTIVE_ROTOR_COUNT>
9

> <PUBCHEM_PHARMACOPHORE_FEATURES>
8
1 1 acceptor
1 11 anion
1 13 hydrophobe
1 2 acceptor
1 3 acceptor
1 4 acceptor
3 1 3 14 anion
3 2 4 15 anion

> <PUBCHEM_HEAVY_ATOM_COUNT>
15

> <PUBCHEM_ATOM_DEF_STEREO_COUNT>
0

> <PUBCHEM_ATOM_UDEF_STEREO_COUNT>
0

> <PUBCHEM_BOND_DEF_STEREO_COUNT>
0

> <PUBCHEM_BOND_UDEF_STEREO_COUNT>
0

> <PUBCHEM_ISOTOPIC_ATOM_COUNT>
0

> <PUBCHEM_COMPONENT_COUNT>
1

> <PUBCHEM_CACTVS_TAUTO_COUNT>
1

> <PUBCHEM_CONFORMER_ID>
000032AC00000001

> <PUBCHEM_MMFF94_ENERGY>
7.1521

> <PUBCHEM_FEATURE_SELFOVERLAP>
41.216

> <PUBCHEM_SHAPE_FINGERPRINT>
10680689 15 18411695474285143258
10912923 1 17775289357279415112
11315181 36 17530964674715373736
12091667 2 18343857815150265296
13675066 3 11815897860226527384
1420 363 16660357074718605286
14251718 22 18334573513243045538
14251731 8 18260265257404810934
15716309 27 5689593884175824972
17834072 33 18408881803293513748
17844677 252 18260261915925886904
17870717 6 18186519908095629695
18927931 339 15719382937123726232
19489759 90 18412546509507547120
20325693 3 18408605864049411355
20645477 56 18411136978592973137
21426921 1 18411698773157610505
21709351 56 18410855443644781108
220451 1 18341606036843331466
23081809 10 17632577146314862226
23402539 116 18273214201550187644
23402655 69 18271525390239127928
23557571 272 18333444352580708664
23559900 14 18187653487958015864
300161 21 18130795581258873512
328310 630 17060040520830494228
49783359 22 6555410899574058988

> <PUBCHEM_SHAPE_MULTIPOLES>
285.22
14.39
1.59
1.1
28.32
0.13
0.16
-0.09
3.89
-3.39
0.04
-0.61
0.01
0.12

> <PUBCHEM_SHAPE_SELFOVERLAP>
534.522

> <PUBCHEM_SHAPE_VOLUME>
176.9

> <PUBCHEM_COORDINATE_TYPE>
2
5
10

$$$$

