7847041
  -OEChem-06241222483D

 58 60  0     1  0  0  0  0  0999 V2000
   -4.0042   -2.2481   -1.1378 S   0  0  0  0  0  0  0  0  0  0  0  0
   -3.3944    1.4873   -0.0301 O   0  0  0  0  0  0  0  0  0  0  0  0
   -1.2023    1.4200   -1.5911 O   0  0  0  0  0  0  0  0  0  0  0  0
   -4.6115    2.1938    1.7981 O   0  0  0  0  0  0  0  0  0  0  0  0
   -0.0516    2.8765   -0.1910 N   0  0  0  0  0  0  0  0  0  0  0  0
   -3.0852   -1.3519    1.0993 N   0  0  0  0  0  0  0  0  0  0  0  0
    6.2890   -1.0212    0.3256 C   0  0  0  0  0  0  0  0  0  0  0  0
    4.8033   -1.3450    0.5766 C   0  0  0  0  0  0  0  0  0  0  0  0
    3.8614   -0.2340    0.1811 C   0  0  0  0  0  0  0  0  0  0  0  0
    1.1914    2.9181   -0.9427 C   0  0  2  0  0  0  0  0  0  0  0  0
    2.1209    1.8197   -0.5508 C   0  0  0  0  0  0  0  0  0  0  0  0
    3.3407   -0.1886   -1.1123 C   0  0  0  0  0  0  0  0  0  0  0  0
    3.5118    0.7477    1.1084 C   0  0  0  0  0  0  0  0  0  0  0  0
    7.1535   -2.2249    0.7090 C   0  0  0  0  0  0  0  0  0  0  0  0
    6.7477    0.2123    1.1076 C   0  0  0  0  0  0  0  0  0  0  0  0
    2.4704    0.8381   -1.4781 C   0  0  0  0  0  0  0  0  0  0  0  0
    2.6417    1.7745    0.7425 C   0  0  0  0  0  0  0  0  0  0  0  0
    1.8196    4.3148   -0.8262 C   0  0  0  0  0  0  0  0  0  0  0  0
   -1.1414    2.1256   -0.5879 C   0  0  0  0  0  0  0  0  0  0  0  0
   -5.4839   -0.7893    0.7038 C   0  0  0  0  0  0  0  0  0  0  0  0
   -2.2945    2.2704    0.3823 C   0  0  0  0  0  0  0  0  0  0  0  0
   -5.5890    0.6488    0.1940 C   0  0  0  0  0  0  0  0  0  0  0  0
   -4.1576   -1.4086    0.3446 C   0  0  0  0  0  0  0  0  0  0  0  0
   -2.3538   -2.5818   -0.7666 C   0  0  0  0  0  0  0  0  0  0  0  0
   -2.0421   -2.0205    0.4755 C   0  0  0  0  0  0  0  0  0  0  0  0
   -4.5091    1.5343    0.7729 C   0  0  0  0  0  0  0  0  0  0  0  0
   -1.4034   -3.2893   -1.5201 C   0  0  0  0  0  0  0  0  0  0  0  0
   -0.7320   -2.1742    0.9787 C   0  0  0  0  0  0  0  0  0  0  0  0
   -0.1144   -3.4270   -0.9992 C   0  0  0  0  0  0  0  0  0  0  0  0
    0.2191   -2.8775    0.2339 C   0  0  0  0  0  0  0  0  0  0  0  0
    6.4377   -0.8215   -0.7433 H   0  0  0  0  0  0  0  0  0  0  0  0
    4.6446   -1.5885    1.6360 H   0  0  0  0  0  0  0  0  0  0  0  0
    4.5268   -2.2549    0.0271 H   0  0  0  0  0  0  0  0  0  0  0  0
    0.9204    2.7912   -1.9994 H   0  0  0  0  0  0  0  0  0  0  0  0
    3.6066   -0.9471   -1.8437 H   0  0  0  0  0  0  0  0  0  0  0  0
    3.9046    0.7215    2.1212 H   0  0  0  0  0  0  0  0  0  0  0  0
    8.2103   -2.0280    0.4998 H   0  0  0  0  0  0  0  0  0  0  0  0
    6.8608   -3.1114    0.1365 H   0  0  0  0  0  0  0  0  0  0  0  0
    7.0571   -2.4613    1.7742 H   0  0  0  0  0  0  0  0  0  0  0  0
    7.8289    0.3547    1.0012 H   0  0  0  0  0  0  0  0  0  0  0  0
    6.2728    1.1253    0.7365 H   0  0  0  0  0  0  0  0  0  0  0  0
    6.5283    0.1134    2.1760 H   0  0  0  0  0  0  0  0  0  0  0  0
    2.0733    0.8578   -2.4895 H   0  0  0  0  0  0  0  0  0  0  0  0
    2.3760    2.5261    1.4810 H   0  0  0  0  0  0  0  0  0  0  0  0
    1.1300    5.0778   -1.2045 H   0  0  0  0  0  0  0  0  0  0  0  0
    2.7473    4.3770   -1.4055 H   0  0  0  0  0  0  0  0  0  0  0  0
    2.0517    4.5750    0.2125 H   0  0  0  0  0  0  0  0  0  0  0  0
   -0.0899    3.3722    0.6955 H   0  0  0  0  0  0  0  0  0  0  0  0
   -5.5829   -0.7995    1.7965 H   0  0  0  0  0  0  0  0  0  0  0  0
   -6.3132   -1.3855    0.3056 H   0  0  0  0  0  0  0  0  0  0  0  0
   -2.5836    3.3272    0.4208 H   0  0  0  0  0  0  0  0  0  0  0  0
   -1.9567    1.9417    1.3722 H   0  0  0  0  0  0  0  0  0  0  0  0
   -5.5396    0.6940   -0.9007 H   0  0  0  0  0  0  0  0  0  0  0  0
   -6.5581    1.0775    0.4744 H   0  0  0  0  0  0  0  0  0  0  0  0
   -1.6565   -3.7206   -2.4838 H   0  0  0  0  0  0  0  0  0  0  0  0
   -0.4599   -1.7472    1.9398 H   0  0  0  0  0  0  0  0  0  0  0  0
    0.6368   -3.9697   -1.5669 H   0  0  0  0  0  0  0  0  0  0  0  0
    1.2275   -2.9925    0.6221 H   0  0  0  0  0  0  0  0  0  0  0  0
  1 23  1  0  0  0  0
  1 24  1  0  0  0  0
  2 21  1  0  0  0  0
  2 26  1  0  0  0  0
  3 19  2  0  0  0  0
  4 26  2  0  0  0  0
  5 10  1  0  0  0  0
  5 19  1  0  0  0  0
  5 48  1  0  0  0  0
  6 23  2  0  0  0  0
  6 25  1  0  0  0  0
  7  8  1  0  0  0  0
  7 14  1  0  0  0  0
  7 15  1  0  0  0  0
  7 31  1  0  0  0  0
  8  9  1  0  0  0  0
  8 32  1  0  0  0  0
  8 33  1  0  0  0  0
  9 12  2  0  0  0  0
  9 13  1  0  0  0  0
 10 11  1  0  0  0  0
 10 18  1  0  0  0  0
 10 34  1  0  0  0  0
 11 16  2  0  0  0  0
 11 17  1  0  0  0  0
 12 16  1  0  0  0  0
 12 35  1  0  0  0  0
 13 17  2  0  0  0  0
 13 36  1  0  0  0  0
 14 37  1  0  0  0  0
 14 38  1  0  0  0  0
 14 39  1  0  0  0  0
 15 40  1  0  0  0  0
 15 41  1  0  0  0  0
 15 42  1  0  0  0  0
 16 43  1  0  0  0  0
 17 44  1  0  0  0  0
 18 45  1  0  0  0  0
 18 46  1  0  0  0  0
 18 47  1  0  0  0  0
 19 21  1  0  0  0  0
 20 22  1  0  0  0  0
 20 23  1  0  0  0  0
 20 49  1  0  0  0  0
 20 50  1  0  0  0  0
 21 51  1  0  0  0  0
 21 52  1  0  0  0  0
 22 26  1  0  0  0  0
 22 53  1  0  0  0  0
 22 54  1  0  0  0  0
 24 25  1  0  0  0  0
 24 27  2  0  0  0  0
 25 28  2  0  0  0  0
 27 29  1  0  0  0  0
 27 55  1  0  0  0  0
 28 30  1  0  0  0  0
 28 56  1  0  0  0  0
 29 30  2  0  0  0  0
 29 57  1  0  0  0  0
 30 58  1  0  0  0  0
M  END
> <PUBCHEM_COMPOUND_CID>
7847041

> <PUBCHEM_CONFORMER_RMSD>
1.4

> <PUBCHEM_CONFORMER_DIVERSEORDER>
1
80
54
7
71
21
31
43
97
107
70
20
61
2
34
110
3
13
16
64
50
69
59
51
67
30
84
93
68
8
15
42
24
5
10
90
112
99
62
48
36
53
83
109
95
33
56
82
73
87
41
78
52
45
88
35
6
25
47
60
49
89
27
92
101
58
104
94
17
91
40
106
105
86
23
102
100
74
29
12
77
81
85
44
75
103
26
57
19
37
28
79
4
22
11
111
63
55
32
38
72
39
66
98
96
14
18
76
46
9
108
65

> <PUBCHEM_MMFF94_PARTIAL_CHARGES>
35
1 -0.08
10 0.44
11 -0.14
12 -0.15
13 -0.15
16 -0.15
17 -0.15
19 0.57
2 -0.43
20 0.18
21 0.34
22 0.06
23 0.2
24 0.04
25 0.23
26 0.66
27 -0.15
28 -0.15
29 -0.15
3 -0.57
30 -0.15
35 0.15
36 0.15
4 -0.57
43 0.15
44 0.15
48 0.37
5 -0.73
55 0.15
56 0.15
57 0.15
58 0.15
6 -0.57
8 0.14
9 -0.14

> <PUBCHEM_EFFECTIVE_ROTOR_COUNT>
11

> <PUBCHEM_PHARMACOPHORE_FEATURES>
8
1 3 acceptor
1 4 acceptor
1 5 donor
1 6 acceptor
3 7 14 15 hydrophobe
5 1 6 23 24 25 rings
6 24 25 27 28 29 30 rings
6 9 11 12 13 16 17 rings

> <PUBCHEM_HEAVY_ATOM_COUNT>
30

> <PUBCHEM_ATOM_DEF_STEREO_COUNT>
1

> <PUBCHEM_ATOM_UDEF_STEREO_COUNT>
0

> <PUBCHEM_BOND_DEF_STEREO_COUNT>
0

> <PUBCHEM_BOND_UDEF_STEREO_COUNT>
0

> <PUBCHEM_ISOTOPIC_ATOM_COUNT>
0

> <PUBCHEM_COMPONENT_COUNT>
1

> <PUBCHEM_CACTVS_TAUTO_COUNT>
4

> <PUBCHEM_CONFORMER_ID>
0077BC8100000001

> <PUBCHEM_MMFF94_ENERGY>
52.3705

> <PUBCHEM_FEATURE_SELFOVERLAP>
40.666

> <PUBCHEM_SHAPE_FINGERPRINT>
10939801 23 18339359661604859352
11135609 12 18201165369282927988
11513181 2 18115856404502206654
12107183 9 18409727348619220907
12422481 6 18269273632963957987
12633257 1 18411414016377830812
12838863 1 18336558157258983375
12978246 48 18337100186373275881
13402501 40 18337389443604224306
14117953 113 18339363075697899261
14279260 333 17702956975777601906
14394314 77 18270399528665906768
14466204 15 18411134770578745698
14725015 67 18342177761087630889
15297060 5 17822571728628185579
16110190 28 18410857646889137620
16112460 7 18411978031820985208
20764821 26 18337090320279613677
21133410 171 16959050231147354750
21796203 349 17912042236522945296
229767 44 18408325488442527310
238918 7 18115023125312959238
3298306 158 18342459292247557037
338550 245 18341326725701839413
6287921 2 17755852371085940835
9896288 288 17899976329068953000

> <PUBCHEM_SHAPE_MULTIPOLES>
593.67
14.07
4.9
1.39
13.01
1.12
-0.15
-4.41
5.67
-0.89
-1.35
-0.21
-0.01
-1.95

> <PUBCHEM_SHAPE_SELFOVERLAP>
1235.993

> <PUBCHEM_SHAPE_VOLUME>
338.2

> <PUBCHEM_COORDINATE_TYPE>
2
5
10

$$$$

