9461
  -OEChem-06261203433D

 22 23  0     0  0  0  0  0  0999 V2000
    4.4793    0.0004    0.0000 F   0  0  0  0  0  0  0  0  0  0  0  0
    0.3502   -0.0002   -0.0001 C   0  0  0  0  0  0  0  0  0  0  0  0
   -1.0966   -0.0005    0.0001 C   0  0  0  0  0  0  0  0  0  0  0  0
    1.0475   -0.8253   -0.8823 C   0  0  0  0  0  0  0  0  0  0  0  0
    1.0473    0.8251    0.8822 C   0  0  0  0  0  0  0  0  0  0  0  0
   -1.7936    0.8822   -0.8250 C   0  0  0  0  0  0  0  0  0  0  0  0
   -1.7943   -0.8826    0.8250 C   0  0  0  0  0  0  0  0  0  0  0  0
    2.4424   -0.8252   -0.8821 C   0  0  0  0  0  0  0  0  0  0  0  0
    2.4422    0.8251    0.8823 C   0  0  0  0  0  0  0  0  0  0  0  0
   -3.1885    0.8826   -0.8251 C   0  0  0  0  0  0  0  0  0  0  0  0
   -3.1892   -0.8821    0.8249 C   0  0  0  0  0  0  0  0  0  0  0  0
    3.1397    0.0000    0.0002 C   0  0  0  0  0  0  0  0  0  0  0  0
   -3.8864    0.0004   -0.0001 C   0  0  0  0  0  0  0  0  0  0  0  0
    0.5196   -1.4747   -1.5766 H   0  0  0  0  0  0  0  0  0  0  0  0
    0.5192    1.4744    1.5765 H   0  0  0  0  0  0  0  0  0  0  0  0
   -1.2653    1.5766   -1.4742 H   0  0  0  0  0  0  0  0  0  0  0  0
   -1.2665   -1.5771    1.4745 H   0  0  0  0  0  0  0  0  0  0  0  0
    2.9859   -1.4673   -1.5688 H   0  0  0  0  0  0  0  0  0  0  0  0
    2.9856    1.4675    1.5690 H   0  0  0  0  0  0  0  0  0  0  0  0
   -3.7314    1.5698   -1.4674 H   0  0  0  0  0  0  0  0  0  0  0  0
   -3.7327   -1.5689    1.4673 H   0  0  0  0  0  0  0  0  0  0  0  0
   -4.9724    0.0009   -0.0001 H   0  0  0  0  0  0  0  0  0  0  0  0
  1 12  1  0  0  0  0
  2  3  1  0  0  0  0
  2  4  2  0  0  0  0
  2  5  1  0  0  0  0
  3  6  2  0  0  0  0
  3  7  1  0  0  0  0
  4  8  1  0  0  0  0
  4 14  1  0  0  0  0
  5  9  2  0  0  0  0
  5 15  1  0  0  0  0
  6 10  1  0  0  0  0
  6 16  1  0  0  0  0
  7 11  2  0  0  0  0
  7 17  1  0  0  0  0
  8 12  2  0  0  0  0
  8 18  1  0  0  0  0
  9 12  1  0  0  0  0
  9 19  1  0  0  0  0
 10 13  2  0  0  0  0
 10 20  1  0  0  0  0
 11 13  1  0  0  0  0
 11 21  1  0  0  0  0
 13 22  1  0  0  0  0
M  END
> <PUBCHEM_COMPOUND_CID>
9461

> <PUBCHEM_CONFORMER_RMSD>
0.4

> <PUBCHEM_CONFORMER_DIVERSEORDER>
1
2

> <PUBCHEM_MMFF94_PARTIAL_CHARGES>
20
1 -0.19
10 -0.15
11 -0.15
12 0.19
13 -0.15
14 0.15
15 0.15
16 0.15
17 0.15
18 0.15
19 0.15
20 0.15
21 0.15
22 0.15
4 -0.15
5 -0.15
6 -0.15
7 -0.15
8 -0.15
9 -0.15

> <PUBCHEM_EFFECTIVE_ROTOR_COUNT>
1

> <PUBCHEM_PHARMACOPHORE_FEATURES>
2
6 2 4 5 8 9 12 rings
6 3 6 7 10 11 13 rings

> <PUBCHEM_HEAVY_ATOM_COUNT>
13

> <PUBCHEM_ATOM_DEF_STEREO_COUNT>
0

> <PUBCHEM_ATOM_UDEF_STEREO_COUNT>
0

> <PUBCHEM_BOND_DEF_STEREO_COUNT>
0

> <PUBCHEM_BOND_UDEF_STEREO_COUNT>
0

> <PUBCHEM_ISOTOPIC_ATOM_COUNT>
0

> <PUBCHEM_COMPONENT_COUNT>
1

> <PUBCHEM_CACTVS_TAUTO_COUNT>
1

> <PUBCHEM_CONFORMER_ID>
000024F500000001

> <PUBCHEM_MMFF94_ENERGY>
38.3279

> <PUBCHEM_FEATURE_SELFOVERLAP>
10.149

> <PUBCHEM_SHAPE_FINGERPRINT>
10219947 1 17676204676018481548
10465860 250 18342465863141026032
10608611 8 18410579482878882281
11471102 20 17821449062578339320
124424 183 18411426132707133546
12500047 106 18059582398833905683
12932764 1 18409737248313252667
13581323 91 17561086903585474787
14144814 61 15791729715367056903
14993402 34 15936413346527786421
15219456 202 18408604759841941573
15309172 13 17530962479765636807
15653759 3 18343303656177377208
16945 1 17603866706557636228
17844478 74 18335697247837771321
18175812 5 18410576149862525733
18186145 218 18337103574606671727
19026448 4 18201719552943795332
19026448 5 17060338522382091750
19049666 15 18193837265447515799
19422 9 15985101916207732235
200 152 17095249120402229965
20201158 50 18334010609685165763
20279233 1 18410009944492835415
20645464 45 18411136935627163915
20645477 70 17823137993742588103
21639500 275 17313962813278643064
23402539 116 18060147535147071167
23402655 69 17386007316504165785
23557571 272 18201717379321442661
23559900 14 18201441436784802774
474 4 15937842626203330122
69090 78 18333736788915417063
77492 1 15574713594992032517

> <PUBCHEM_SHAPE_MULTIPOLES>
260.26
6.93
1.07
1.07
1.01
0
0
0
0
-0.11
0
-0.19
0
0.98

> <PUBCHEM_SHAPE_SELFOVERLAP>
567.707

> <PUBCHEM_SHAPE_VOLUME>
142.6

> <PUBCHEM_COORDINATE_TYPE>
2
5
10

$$$$

