17395952
  -OEChem-06241222532D

 44 47  0     1  0  0  0  0  0999 V2000
    6.5879    3.4132    0.0000 S   0  0  0  0  0  0  0  0  0  0  0  0
    6.7975    4.3910    0.0000 O   0  0  0  0  0  0  0  0  0  0  0  0
    5.7228    3.9147    0.0000 O   0  0  0  0  0  0  0  0  0  0  0  0
    6.2619   -2.9970    0.0000 O   0  0  0  0  0  0  0  0  0  0  0  0
    6.5447    0.8260    0.0000 N   0  0  0  0  0  0  0  0  0  0  0  0
    7.2125    0.0817    0.0000 N   0  0  0  0  0  0  0  0  0  0  0  0
    4.6783   -3.8017    0.0000 N   0  0  0  0  0  0  0  0  0  0  0  0
    6.7543    1.8038    0.0000 C   0  0  3  0  0  0  0  0  0  0  0  0
    6.0864    2.5481    0.0000 C   0  0  0  0  0  0  0  0  0  0  0  0
    7.6685    2.2089    0.0000 C   0  0  0  0  0  0  0  0  0  0  0  0
    7.5657    3.2036    0.0000 C   0  0  0  0  0  0  0  0  0  0  0  0
    5.6304    0.4208    0.0000 C   0  0  0  0  0  0  0  0  0  0  0  0
    5.7332   -0.5739    0.0000 C   0  0  0  0  0  0  0  0  0  0  0  0
    6.7110   -0.7835    0.0000 C   0  0  0  0  0  0  0  0  0  0  0  0
    4.7653    0.9223    0.0000 C   0  0  0  0  0  0  0  0  0  0  0  0
    4.9889   -1.2417    0.0000 C   0  0  0  0  0  0  0  0  0  0  0  0
    6.6049   -1.7778    0.0000 C   0  0  0  0  0  0  0  0  0  0  0  0
    4.6783   -2.1922    0.0000 C   0  0  0  0  0  0  0  0  0  0  0  0
    3.7320   -2.4970    0.0000 C   0  0  0  0  0  0  0  0  0  0  0  0
    3.7320   -3.4970    0.0000 C   0  0  0  0  0  0  0  0  0  0  0  0
    5.2619   -2.9970    0.0000 C   0  0  0  0  0  0  0  0  0  0  0  0
    2.8660   -1.9970    0.0000 C   0  0  0  0  0  0  0  0  0  0  0  0
    2.8660   -3.9970    0.0000 C   0  0  0  0  0  0  0  0  0  0  0  0
    2.0000   -2.4970    0.0000 C   0  0  0  0  0  0  0  0  0  0  0  0
    2.0000   -3.4970    0.0000 C   0  0  0  0  0  0  0  0  0  0  0  0
    6.1551    1.6443    0.0000 H   0  0  0  0  0  0  0  0  0  0  0  0
    5.5855    2.9134    0.0000 H   0  0  0  0  0  0  0  0  0  0  0  0
    5.6708    2.0880    0.0000 H   0  0  0  0  0  0  0  0  0  0  0  0
    7.8591    1.6189    0.0000 H   0  0  0  0  0  0  0  0  0  0  0  0
    8.2752    2.3368    0.0000 H   0  0  0  0  0  0  0  0  0  0  0  0
    8.1857    3.2026    0.0000 H   0  0  0  0  0  0  0  0  0  0  0  0
    7.6316    3.8201    0.0000 H   0  0  0  0  0  0  0  0  0  0  0  0
    5.0762    1.4587    0.0000 H   0  0  0  0  0  0  0  0  0  0  0  0
    4.2289    1.2333    0.0000 H   0  0  0  0  0  0  0  0  0  0  0  0
    4.4543    0.3859    0.0000 H   0  0  0  0  0  0  0  0  0  0  0  0
    4.5749   -0.7802    0.0000 H   0  0  0  0  0  0  0  0  0  0  0  0
    5.9884   -1.7120    0.0000 H   0  0  0  0  0  0  0  0  0  0  0  0
    6.5390   -2.3943    0.0000 H   0  0  0  0  0  0  0  0  0  0  0  0
    7.2214   -1.8436    0.0000 H   0  0  0  0  0  0  0  0  0  0  0  0
    4.8709   -4.3910    0.0000 H   0  0  0  0  0  0  0  0  0  0  0  0
    2.8660   -1.3770    0.0000 H   0  0  0  0  0  0  0  0  0  0  0  0
    2.8660   -4.6170    0.0000 H   0  0  0  0  0  0  0  0  0  0  0  0
    1.4631   -2.1870    0.0000 H   0  0  0  0  0  0  0  0  0  0  0  0
    1.4631   -3.8070    0.0000 H   0  0  0  0  0  0  0  0  0  0  0  0
  1  2  2  0  0  0  0
  1  3  2  0  0  0  0
  1  9  1  0  0  0  0
  1 11  1  0  0  0  0
  4 21  2  0  0  0  0
  5  6  1  0  0  0  0
  5  8  1  0  0  0  0
  5 12  1  0  0  0  0
  6 14  2  0  0  0  0
  7 20  1  0  0  0  0
  7 21  1  0  0  0  0
  7 40  1  0  0  0  0
  8  9  1  0  0  0  0
  8 10  1  0  0  0  0
  8 26  1  0  0  0  0
  9 27  1  0  0  0  0
  9 28  1  0  0  0  0
 10 11  1  0  0  0  0
 10 29  1  0  0  0  0
 10 30  1  0  0  0  0
 11 31  1  0  0  0  0
 11 32  1  0  0  0  0
 12 13  2  0  0  0  0
 12 15  1  0  0  0  0
 13 14  1  0  0  0  0
 13 16  1  0  0  0  0
 14 17  1  0  0  0  0
 15 33  1  0  0  0  0
 15 34  1  0  0  0  0
 15 35  1  0  0  0  0
 16 18  2  0  0  0  0
 16 36  1  0  0  0  0
 17 37  1  0  0  0  0
 17 38  1  0  0  0  0
 17 39  1  0  0  0  0
 18 19  1  0  0  0  0
 18 21  1  0  0  0  0
 19 20  1  0  0  0  0
 19 22  2  0  0  0  0
 20 23  2  0  0  0  0
 22 24  1  0  0  0  0
 22 41  1  0  0  0  0
 23 25  1  0  0  0  0
 23 42  1  0  0  0  0
 24 25  2  0  0  0  0
 24 43  1  0  0  0  0
 25 44  1  0  0  0  0
M  END
> <PUBCHEM_COMPOUND_CID>
17395952

> <PUBCHEM_COMPOUND_CANONICALIZED>
1

> <PUBCHEM_CACTVS_COMPLEXITY>
684

> <PUBCHEM_CACTVS_HBOND_ACCEPTOR>
4

> <PUBCHEM_CACTVS_HBOND_DONOR>
1

> <PUBCHEM_CACTVS_ROTATABLE_BOND>
2

> <PUBCHEM_CACTVS_SUBSKEYS>
AAADceB7MABAAAAAAAAAAAAAAAAAAWLEgAAwAAAAAAAAAFgBwAAAHgQYAAAADCjF3gSywJLIAAqqAyVyVHDSBAAhghAY2CE4ZNgIIDLg1dGEpAhgnADoyYcciICOAAAAAAACAAAAAAAAAAQAAAAAAAAAAA==

> <PUBCHEM_IUPAC_OPENEYE_NAME>
(3Z)-3-[[1-(1,1-dioxothiolan-3-yl)-3,5-dimethyl-pyrazol-4-yl]methylene]indolin-2-one

> <PUBCHEM_IUPAC_CAS_NAME>
(3Z)-3-[[1-(1,1-dioxo-3-thiolanyl)-3,5-dimethyl-4-pyrazolyl]methylidene]-1H-indol-2-one

> <PUBCHEM_IUPAC_NAME>
(3Z)-3-[[1-(1,1-dioxothiolan-3-yl)-3,5-dimethylpyrazol-4-yl]methylidene]-1H-indol-2-one

> <PUBCHEM_IUPAC_SYSTEMATIC_NAME>
(3Z)-3-[[1-[1,1-bis(oxidanylidene)thiolan-3-yl]-3,5-dimethyl-pyrazol-4-yl]methylidene]-1H-indol-2-one

> <PUBCHEM_IUPAC_TRADITIONAL_NAME>
(3Z)-3-[[1-(1,1-diketothiolan-3-yl)-3,5-dimethyl-pyrazol-4-yl]methylene]oxindole

> <PUBCHEM_IUPAC_INCHI>
InChI=1S/C18H19N3O3S/c1-11-15(9-16-14-5-3-4-6-17(14)19-18(16)22)12(2)21(20-11)13-7-8-25(23,24)10-13/h3-6,9,13H,7-8,10H2,1-2H3,(H,19,22)/b16-9-

> <PUBCHEM_IUPAC_INCHIKEY>
XEPRRJJJELQSQK-SXGWCWSVSA-N

> <PUBCHEM_XLOGP3_AA>
1.5

> <PUBCHEM_EXACT_MASS>
357.114712

> <PUBCHEM_MOLECULAR_FORMULA>
C18H19N3O3S

> <PUBCHEM_MOLECULAR_WEIGHT>
357.42676

> <PUBCHEM_OPENEYE_CAN_SMILES>
CC1=C(C(=NN1C2CCS(=O)(=O)C2)C)C=C3C4=CC=CC=C4NC3=O

> <PUBCHEM_OPENEYE_ISO_SMILES>
CC1=C(C(=NN1C2CCS(=O)(=O)C2)C)/C=C\3/C4=CC=CC=C4NC3=O

> <PUBCHEM_CACTVS_TPSA>
89.4

> <PUBCHEM_MONOISOTOPIC_WEIGHT>
357.114712

> <PUBCHEM_TOTAL_CHARGE>
0

> <PUBCHEM_HEAVY_ATOM_COUNT>
25

> <PUBCHEM_ATOM_DEF_STEREO_COUNT>
0

> <PUBCHEM_ATOM_UDEF_STEREO_COUNT>
1

> <PUBCHEM_BOND_DEF_STEREO_COUNT>
1

> <PUBCHEM_BOND_UDEF_STEREO_COUNT>
0

> <PUBCHEM_ISOTOPIC_ATOM_COUNT>
0

> <PUBCHEM_COMPONENT_COUNT>
1

> <PUBCHEM_CACTVS_TAUTO_COUNT>
12

> <PUBCHEM_COORDINATE_TYPE>
1
5
255

> <PUBCHEM_BONDANNOTATIONS>
12  13  8
13  14  8
19  20  8
19  22  8
20  23  8
22  24  8
23  25  8
24  25  8
5  12  8
5  6  8
8  5  3
6  14  8

$$$$

