4005
  -OEChem-06251223492D

 74 75  0     1  0  0  0  0  0999 V2000
    9.3462    1.2818    0.0000 S   0  0  0  0  0  0  0  0  0  0  0  0
    8.9635    2.2057    0.0000 S   0  0  0  0  0  0  0  0  0  0  0  0
    5.3309    0.8362    0.0000 O   0  0  0  0  0  0  0  0  0  0  0  0
    6.7266   -0.0340    0.0000 O   0  0  0  0  0  0  0  0  0  0  0  0
    3.9350    2.5585    0.0000 O   0  0  0  0  0  0  0  0  0  0  0  0
    7.1157    4.0535    0.0000 O   0  0  0  0  0  0  0  0  0  0  0  0
    6.6931   -0.5484    0.0000 O   0  0  0  0  0  0  0  0  0  0  0  0
    5.5831   -1.0791    0.0000 N   0  0  0  0  0  0  0  0  0  0  0  0
    3.8263    0.8991    0.0000 N   0  0  0  0  0  0  0  0  0  0  0  0
    5.8092    2.7469    0.0000 N   0  0  0  0  0  0  0  0  0  0  0  0
    8.4223   -0.9486    0.0000 N   0  0  0  0  0  0  0  0  0  0  0  0
    6.7330    1.2818    0.0000 N   0  0  0  0  0  0  0  0  0  0  0  0
    6.5070   -1.4618    0.0000 C   0  0  3  0  0  0  0  0  0  0  0  0
    6.6375   -2.4533    0.0000 C   0  0  3  0  0  0  0  0  0  0  0  0
    4.2090   -0.0247    0.0000 C   0  0  3  0  0  0  0  0  0  0  0  0
    3.6002   -0.8181    0.0000 C   0  0  0  0  0  0  0  0  0  0  0  0
    5.4265    1.8230    0.0000 C   0  0  3  0  0  0  0  0  0  0  0  0
    2.6088   -0.6876    0.0000 C   0  0  0  0  0  0  0  0  0  0  0  0
    5.8442   -3.0620    0.0000 C   0  0  0  0  0  0  0  0  0  0  0  0
    6.1638    1.1474    0.0000 C   0  0  0  0  0  0  0  0  0  0  0  0
    5.2004   -0.1553    0.0000 C   0  0  0  0  0  0  0  0  0  0  0  0
    7.3003   -0.8531    0.0000 C   0  0  0  0  0  0  0  0  0  0  0  0
    4.4351    1.6925    0.0000 C   0  0  0  0  0  0  0  0  0  0  0  0
    7.5614   -2.8360    0.0000 C   0  0  0  0  0  0  0  0  0  0  0  0
    8.0396   -0.0247    0.0000 C   0  0  3  0  0  0  0  0  0  0  0  0
    7.1157    2.2057    0.0000 C   0  0  3  0  0  0  0  0  0  0  0  0
    2.0000   -1.4809    0.0000 C   0  0  0  0  0  0  0  0  0  0  0  0
    2.2261    0.2363    0.0000 C   0  0  0  0  0  0  0  0  0  0  0  0
    6.7330    3.1296    0.0000 C   0  0  0  0  0  0  0  0  0  0  0  0
    5.9473    0.1711    0.0000 C   0  0  0  0  0  0  0  0  0  0  0  0
    7.1628    1.1038    0.0000 C   0  0  0  0  0  0  0  0  0  0  0  0
    5.9747   -4.0535    0.0000 C   0  0  0  0  0  0  0  0  0  0  0  0
    7.1157    0.3580    0.0000 C   0  0  0  0  0  0  0  0  0  0  0  0
    8.9635    0.3580    0.0000 C   0  0  0  0  0  0  0  0  0  0  0  0
    8.0396    2.5884    0.0000 C   0  0  0  0  0  0  0  0  0  0  0  0
    6.0151   -1.8392    0.0000 H   0  0  0  0  0  0  0  0  0  0  0  0
    6.7184   -3.0680    0.0000 H   0  0  0  0  0  0  0  0  0  0  0  0
    3.5943    0.0562    0.0000 H   0  0  0  0  0  0  0  0  0  0  0  0
    3.4138   -1.4094    0.0000 H   0  0  0  0  0  0  0  0  0  0  0  0
    4.1502   -1.1044    0.0000 H   0  0  0  0  0  0  0  0  0  0  0  0
    6.0318    1.9572    0.0000 H   0  0  0  0  0  0  0  0  0  0  0  0
    1.9941   -0.6066    0.0000 H   0  0  0  0  0  0  0  0  0  0  0  0
    5.1447   -1.5175    0.0000 H   0  0  0  0  0  0  0  0  0  0  0  0
    5.5579   -2.5121    0.0000 H   0  0  0  0  0  0  0  0  0  0  0  0
    5.2528   -3.2485    0.0000 H   0  0  0  0  0  0  0  0  0  0  0  0
    6.4010    1.7202    0.0000 H   0  0  0  0  0  0  0  0  0  0  0  0
    3.2116    0.9801    0.0000 H   0  0  0  0  0  0  0  0  0  0  0  0
    7.3241   -3.4088    0.0000 H   0  0  0  0  0  0  0  0  0  0  0  0
    8.1342   -3.0732    0.0000 H   0  0  0  0  0  0  0  0  0  0  0  0
    7.7986   -2.2631    0.0000 H   0  0  0  0  0  0  0  0  0  0  0  0
    8.0396    0.5953    0.0000 H   0  0  0  0  0  0  0  0  0  0  0  0
    5.3708    3.1853    0.0000 H   0  0  0  0  0  0  0  0  0  0  0  0
    7.5541    1.7673    0.0000 H   0  0  0  0  0  0  0  0  0  0  0  0
    8.9356   -1.2964    0.0000 H   0  0  0  0  0  0  0  0  0  0  0  0
    1.5081   -1.1035    0.0000 H   0  0  0  0  0  0  0  0  0  0  0  0
    1.6226   -1.9728    0.0000 H   0  0  0  0  0  0  0  0  0  0  0  0
    2.4919   -1.8583    0.0000 H   0  0  0  0  0  0  0  0  0  0  0  0
    2.7989    0.4736    0.0000 H   0  0  0  0  0  0  0  0  0  0  0  0
    1.9888    0.8091    0.0000 H   0  0  0  0  0  0  0  0  0  0  0  0
    1.6533   -0.0009    0.0000 H   0  0  0  0  0  0  0  0  0  0  0  0
    7.1358    0.4844    0.0000 H   0  0  0  0  0  0  0  0  0  0  0  0
    7.7822    1.0768    0.0000 H   0  0  0  0  0  0  0  0  0  0  0  0
    7.1899    1.7232    0.0000 H   0  0  0  0  0  0  0  0  0  0  0  0
    5.3420    0.3053    0.0000 H   0  0  0  0  0  0  0  0  0  0  0  0
    5.8131   -0.4342    0.0000 H   0  0  0  0  0  0  0  0  0  0  0  0
    6.5526    0.0369    0.0000 H   0  0  0  0  0  0  0  0  0  0  0  0
    5.3600   -4.1344    0.0000 H   0  0  0  0  0  0  0  0  0  0  0  0
    6.0556   -4.6682    0.0000 H   0  0  0  0  0  0  0  0  0  0  0  0
    6.5894   -3.9725    0.0000 H   0  0  0  0  0  0  0  0  0  0  0  0
    9.0444   -0.2567    0.0000 H   0  0  0  0  0  0  0  0  0  0  0  0
    9.5782    0.2770    0.0000 H   0  0  0  0  0  0  0  0  0  0  0  0
    6.4231    1.8188    0.0000 H   0  0  0  0  0  0  0  0  0  0  0  0
    8.4170    3.0803    0.0000 H   0  0  0  0  0  0  0  0  0  0  0  0
    7.6622    3.0803    0.0000 H   0  0  0  0  0  0  0  0  0  0  0  0
  1  2  1  0  0  0  0
  1 34  1  0  0  0  0
  2 35  1  0  0  0  0
  3 21  2  0  0  0  0
  4 22  2  0  0  0  0
  5 23  2  0  0  0  0
  6 29  2  0  0  0  0
  7 33  2  0  0  0  0
  8 13  1  0  0  0  0
  8 21  1  0  0  0  0
  8 43  1  0  0  0  0
  9 15  1  0  0  0  0
  9 23  1  0  0  0  0
  9 47  1  0  0  0  0
 10 17  1  0  0  0  0
 10 29  1  0  0  0  0
 10 52  1  0  0  0  0
 11 22  1  0  0  0  0
 11 25  1  0  0  0  0
 11 54  1  0  0  0  0
 12 26  1  0  0  0  0
 12 33  1  0  0  0  0
 12 72  1  0  0  0  0
 13 14  1  0  0  0  0
 13 22  1  0  0  0  0
 13 36  1  0  0  0  0
 14 19  1  0  0  0  0
 14 24  1  0  0  0  0
 14 37  1  0  0  0  0
 15 16  1  0  0  0  0
 15 21  1  0  0  0  0
 15 38  1  0  0  0  0
 16 18  1  0  0  0  0
 16 39  1  0  0  0  0
 16 40  1  0  0  0  0
 17 20  1  0  0  0  0
 17 23  1  0  0  0  0
 17 41  1  0  0  0  0
 18 27  1  0  0  0  0
 18 28  1  0  0  0  0
 18 42  1  0  0  0  0
 19 32  1  0  0  0  0
 19 44  1  0  0  0  0
 19 45  1  0  0  0  0
 20 30  1  0  0  0  0
 20 31  1  0  0  0  0
 20 46  1  0  0  0  0
 24 48  1  0  0  0  0
 24 49  1  0  0  0  0
 24 50  1  0  0  0  0
 25 33  1  0  0  0  0
 25 34  1  0  0  0  0
 25 51  1  0  0  0  0
 26 29  1  0  0  0  0
 26 35  1  0  0  0  0
 26 53  1  0  0  0  0
 27 55  1  0  0  0  0
 27 56  1  0  0  0  0
 27 57  1  0  0  0  0
 28 58  1  0  0  0  0
 28 59  1  0  0  0  0
 28 60  1  0  0  0  0
 30 64  1  0  0  0  0
 30 65  1  0  0  0  0
 30 66  1  0  0  0  0
 31 61  1  0  0  0  0
 31 62  1  0  0  0  0
 31 63  1  0  0  0  0
 32 67  1  0  0  0  0
 32 68  1  0  0  0  0
 32 69  1  0  0  0  0
 34 70  1  0  0  0  0
 34 71  1  0  0  0  0
 35 73  1  0  0  0  0
 35 74  1  0  0  0  0
M  END
> <PUBCHEM_COMPOUND_CID>
4005

> <PUBCHEM_COMPOUND_CANONICALIZED>
1

> <PUBCHEM_CACTVS_COMPLEXITY>
809

> <PUBCHEM_CACTVS_HBOND_ACCEPTOR>
7

> <PUBCHEM_CACTVS_HBOND_DONOR>
5

> <PUBCHEM_CACTVS_ROTATABLE_BOND>
5

> <PUBCHEM_CACTVS_SUBSKEYS>
AAADcfB7uABgAAAAAAAAAAAAAAAAAAAAAAAAAAAAAAAWAAAAAAAAHgQQAAAADSjFwASCAALAAAAIAAEQEAAAAAAAAAAAAIGIAAAAQBIAgCAUAAAAFgCAAAAYAAAOAAAAAAAAAAAAAAAAAAAAAAAAAAAAAA==

> <PUBCHEM_IUPAC_OPENEYE_NAME>
7-isobutyl-4-isopropyl-10-sec-butyl-15,16-dithia-3,6,9,12,18-pentazabicyclo[11.4.2]nonadecane-2,5,8,11,19-pentone

> <PUBCHEM_IUPAC_CAS_NAME>
10-butan-2-yl-7-(2-methylpropyl)-4-propan-2-yl-15,16-dithia-3,6,9,12,18-pentazabicyclo[11.4.2]nonadecane-2,5,8,11,19-pentone

> <PUBCHEM_IUPAC_NAME>
10-butan-2-yl-7-(2-methylpropyl)-4-propan-2-yl-15,16-dithia-3,6,9,12,18-pentazabicyclo[11.4.2]nonadecane-2,5,8,11,19-pentone

> <PUBCHEM_IUPAC_SYSTEMATIC_NAME>
10-butan-2-yl-7-(2-methylpropyl)-4-propan-2-yl-15,16-dithia-3,6,9,12,18-pentazabicyclo[11.4.2]nonadecane-2,5,8,11,19-pentone

> <PUBCHEM_IUPAC_TRADITIONAL_NAME>
7-isobutyl-4-isopropyl-10-sec-butyl-15,16-dithia-3,6,9,12,18-pentazabicyclo[11.4.2]nonadecane-2,5,8,11,19-pentone

> <PUBCHEM_IUPAC_INCHI>
InChI=1S/C23H39N5O5S2/c1-7-13(6)18-23(33)26-15-9-34-35-10-16(25-20(15)30)21(31)27-17(12(4)5)22(32)24-14(8-11(2)3)19(29)28-18/h11-18H,7-10H2,1-6H3,(H,24,32)(H,25,30)(H,26,33)(H,27,31)(H,28,29)

> <PUBCHEM_IUPAC_INCHIKEY>
RNCGDQLZIATDOU-UHFFFAOYSA-N

> <PUBCHEM_XLOGP3_AA>
2.1

> <PUBCHEM_EXACT_MASS>
529.239261

> <PUBCHEM_MOLECULAR_FORMULA>
C23H39N5O5S2

> <PUBCHEM_MOLECULAR_WEIGHT>
529.71626

> <PUBCHEM_OPENEYE_CAN_SMILES>
CCC(C)C1C(=O)NC2CSSCC(C(=O)NC(C(=O)NC(C(=O)N1)CC(C)C)C(C)C)NC2=O

> <PUBCHEM_OPENEYE_ISO_SMILES>
CCC(C)C1C(=O)NC2CSSCC(C(=O)NC(C(=O)NC(C(=O)N1)CC(C)C)C(C)C)NC2=O

> <PUBCHEM_CACTVS_TPSA>
196

> <PUBCHEM_MONOISOTOPIC_WEIGHT>
529.239261

> <PUBCHEM_TOTAL_CHARGE>
0

> <PUBCHEM_HEAVY_ATOM_COUNT>
35

> <PUBCHEM_ATOM_DEF_STEREO_COUNT>
0

> <PUBCHEM_ATOM_UDEF_STEREO_COUNT>
6

> <PUBCHEM_BOND_DEF_STEREO_COUNT>
0

> <PUBCHEM_BOND_UDEF_STEREO_COUNT>
0

> <PUBCHEM_ISOTOPIC_ATOM_COUNT>
0

> <PUBCHEM_COMPONENT_COUNT>
1

> <PUBCHEM_CACTVS_TAUTO_COUNT>
108

> <PUBCHEM_COORDINATE_TYPE>
1
5
255

> <PUBCHEM_BONDANNOTATIONS>
13  22  3
14  24  3
15  16  3
17  20  3
25  33  3
26  29  3

$$$$

