9702
  -OEChem-06261203583D

 38 39  0     0  0  0  0  0  0999 V2000
    4.9236    0.0016   -0.0030 N   0  0  0  0  0  0  0  0  0  0  0  0
   -4.9236   -0.0007    0.0032 N   0  0  0  0  0  0  0  0  0  0  0  0
    0.7233    0.0005    0.0002 C   0  0  0  0  0  0  0  0  0  0  0  0
   -0.7233    0.0001    0.0001 C   0  0  0  0  0  0  0  0  0  0  0  0
    3.5130    0.0014   -0.0019 C   0  0  0  0  0  0  0  0  0  0  0  0
   -3.5130   -0.0003    0.0020 C   0  0  0  0  0  0  0  0  0  0  0  0
    1.4203    1.2042    0.1036 C   0  0  0  0  0  0  0  0  0  0  0  0
   -1.4210    1.0937   -0.5122 C   0  0  0  0  0  0  0  0  0  0  0  0
    1.4210   -1.2028   -0.1042 C   0  0  0  0  0  0  0  0  0  0  0  0
   -1.4203   -1.0939    0.5133 C   0  0  0  0  0  0  0  0  0  0  0  0
    2.8151    1.2047    0.1025 C   0  0  0  0  0  0  0  0  0  0  0  0
   -2.8159    1.0936   -0.5111 C   0  0  0  0  0  0  0  0  0  0  0  0
    2.8159   -1.2025   -0.1052 C   0  0  0  0  0  0  0  0  0  0  0  0
   -2.8151   -1.0941    0.5144 C   0  0  0  0  0  0  0  0  0  0  0  0
    5.6578    1.0264    0.7121 C   0  0  0  0  0  0  0  0  0  0  0  0
    5.6569   -1.0312   -0.7075 C   0  0  0  0  0  0  0  0  0  0  0  0
   -5.6576    1.2443    0.1103 C   0  0  0  0  0  0  0  0  0  0  0  0
   -5.6571   -1.2450   -0.1168 C   0  0  0  0  0  0  0  0  0  0  0  0
    0.9203    2.1624    0.2152 H   0  0  0  0  0  0  0  0  0  0  0  0
   -0.9216    1.9524   -0.9522 H   0  0  0  0  0  0  0  0  0  0  0  0
    0.9214   -2.1613   -0.2153 H   0  0  0  0  0  0  0  0  0  0  0  0
   -0.9200   -1.9525    0.9529 H   0  0  0  0  0  0  0  0  0  0  0  0
    3.3277    2.1594    0.1791 H   0  0  0  0  0  0  0  0  0  0  0  0
   -3.3294    1.9524   -0.9341 H   0  0  0  0  0  0  0  0  0  0  0  0
    3.3285   -2.1572   -0.1825 H   0  0  0  0  0  0  0  0  0  0  0  0
   -3.3283   -1.9528    0.9381 H   0  0  0  0  0  0  0  0  0  0  0  0
    5.6915    1.9552    0.1330 H   0  0  0  0  0  0  0  0  0  0  0  0
    6.6925    0.7159    0.8962 H   0  0  0  0  0  0  0  0  0  0  0  0
    5.2114    1.2298    1.6920 H   0  0  0  0  0  0  0  0  0  0  0  0
    6.6903   -0.7210   -0.8988 H   0  0  0  0  0  0  0  0  0  0  0  0
    5.2083   -1.2475   -1.6837 H   0  0  0  0  0  0  0  0  0  0  0  0
    5.6939   -1.9526   -0.1170 H   0  0  0  0  0  0  0  0  0  0  0  0
   -5.2062    1.9143    0.8508 H   0  0  0  0  0  0  0  0  0  0  0  0
   -6.6895    1.0676    0.4342 H   0  0  0  0  0  0  0  0  0  0  0  0
   -5.6991    1.7550   -0.8575 H   0  0  0  0  0  0  0  0  0  0  0  0
   -5.2070   -1.9053   -0.8667 H   0  0  0  0  0  0  0  0  0  0  0  0
   -6.6904   -1.0657   -0.4348 H   0  0  0  0  0  0  0  0  0  0  0  0
   -5.6948   -1.7673    0.8448 H   0  0  0  0  0  0  0  0  0  0  0  0
  1  5  1  0  0  0  0
  1 15  1  0  0  0  0
  1 16  1  0  0  0  0
  2  6  1  0  0  0  0
  2 17  1  0  0  0  0
  2 18  1  0  0  0  0
  3  4  1  0  0  0  0
  3  7  2  0  0  0  0
  3  9  1  0  0  0  0
  4  8  2  0  0  0  0
  4 10  1  0  0  0  0
  5 11  2  0  0  0  0
  5 13  1  0  0  0  0
  6 12  2  0  0  0  0
  6 14  1  0  0  0  0
  7 11  1  0  0  0  0
  7 19  1  0  0  0  0
  8 12  1  0  0  0  0
  8 20  1  0  0  0  0
  9 13  2  0  0  0  0
  9 21  1  0  0  0  0
 10 14  2  0  0  0  0
 10 22  1  0  0  0  0
 11 23  1  0  0  0  0
 12 24  1  0  0  0  0
 13 25  1  0  0  0  0
 14 26  1  0  0  0  0
 15 27  1  0  0  0  0
 15 28  1  0  0  0  0
 15 29  1  0  0  0  0
 16 30  1  0  0  0  0
 16 31  1  0  0  0  0
 16 32  1  0  0  0  0
 17 33  1  0  0  0  0
 17 34  1  0  0  0  0
 17 35  1  0  0  0  0
 18 36  1  0  0  0  0
 18 37  1  0  0  0  0
 18 38  1  0  0  0  0
M  END
> <PUBCHEM_COMPOUND_CID>
9702

> <PUBCHEM_CONFORMER_RMSD>
0.6

> <PUBCHEM_CONFORMER_DIVERSEORDER>
1
2

> <PUBCHEM_MMFF94_PARTIAL_CHARGES>
24
1 -0.84
10 -0.15
11 -0.15
12 -0.15
13 -0.15
14 -0.15
15 0.37
16 0.37
17 0.37
18 0.37
19 0.15
2 -0.84
20 0.15
21 0.15
22 0.15
23 0.15
24 0.15
25 0.15
26 0.15
5 0.1
6 0.1
7 -0.15
8 -0.15
9 -0.15

> <PUBCHEM_EFFECTIVE_ROTOR_COUNT>
3

> <PUBCHEM_PHARMACOPHORE_FEATURES>
4
1 1 cation
1 2 cation
6 3 5 7 9 11 13 rings
6 4 6 8 10 12 14 rings

> <PUBCHEM_HEAVY_ATOM_COUNT>
18

> <PUBCHEM_ATOM_DEF_STEREO_COUNT>
0

> <PUBCHEM_ATOM_UDEF_STEREO_COUNT>
0

> <PUBCHEM_BOND_DEF_STEREO_COUNT>
0

> <PUBCHEM_BOND_UDEF_STEREO_COUNT>
0

> <PUBCHEM_ISOTOPIC_ATOM_COUNT>
0

> <PUBCHEM_COMPONENT_COUNT>
1

> <PUBCHEM_CACTVS_TAUTO_COUNT>
1

> <PUBCHEM_CONFORMER_ID>
000025E600000001

> <PUBCHEM_MMFF94_ENERGY>
87.6411

> <PUBCHEM_FEATURE_SELFOVERLAP>
20.297

> <PUBCHEM_SHAPE_FINGERPRINT>
10 15 18341339877783490544
10968037 39 18201998820012020879
11471102 20 18335138687583344232
12107183 9 17614557472826029035
12236239 1 17022620879344202515
12403259 415 18343311378576555028
13288520 33 18410291419748906623
13533116 47 4750886901403790620
13862211 1 18343869913282178554
1420 363 18413666907176434411
14251764 18 18273219686371026920
14341114 176 18409443691667326464
15048467 5 18187082880035772409
15196674 1 18411418410092132613
17834072 33 18040437659320968863
18522853 276 18408885139776383496
19141452 34 18335701611456108919
19489759 90 16056886836252972893
200 152 17967816041846232459
20279233 1 18342168968751811026
20645477 70 18041557044422229078
21130935 74 18334576858369201778
21267235 1 18412255138509617343
21709351 56 18341619204885935733
2297311 6 18340760520395433380
23402539 116 18411142433227494557
23402655 69 18334862748777377701
23536379 177 17894347795780282435
23557571 272 18059288880963979052
23559900 14 18411142394108941945
26918003 58 18411418397439333073
29717793 49 17167857604056983332
300161 21 18341337764184417355
3004659 81 18130504241138409794
335352 9 18412824685464078038
351380 180 18412265025460866825
3545911 37 18341611533573119590
4072396 5 18339372937254001522
4073 2 18201432545617204499
4214541 1 18410573994369256617
42788 4 18335138691408826097
4463277 17 18409448093840103681
5104073 3 18341332309159207961
542803 24 14996282513382606960
69090 78 18411140221287987119
9709674 26 18412537721920667435

> <PUBCHEM_SHAPE_MULTIPOLES>
360.47
13.75
1.51
0.73
0
0
0
0.01
0
-0.2
0
0.2
0
0.71

> <PUBCHEM_SHAPE_SELFOVERLAP>
763.152

> <PUBCHEM_SHAPE_VOLUME>
203.3

> <PUBCHEM_COORDINATE_TYPE>
2
5
10

$$$$

