11416
  -OEChem-06261205393D

 24 24  0     1  0  0  0  0  0999 V2000
    0.6501    0.7189    0.2882 C   0  0  2  0  0  0  0  0  0  0  0  0
    0.6504   -0.7187   -0.2881 C   0  0  2  0  0  0  0  0  0  0  0  0
   -0.6317    1.4677   -0.1159 C   0  0  0  0  0  0  0  0  0  0  0  0
   -0.6312   -1.4679    0.1161 C   0  0  0  0  0  0  0  0  0  0  0  0
   -1.8905    0.7059    0.2846 C   0  0  0  0  0  0  0  0  0  0  0  0
   -1.8902   -0.7064   -0.2847 C   0  0  0  0  0  0  0  0  0  0  0  0
    1.8712    1.5293   -0.1556 C   0  0  0  0  0  0  0  0  0  0  0  0
    1.8718   -1.5288    0.1555 C   0  0  0  0  0  0  0  0  0  0  0  0
    0.6731    0.6562    1.3849 H   0  0  0  0  0  0  0  0  0  0  0  0
    0.6733   -0.6561   -1.3848 H   0  0  0  0  0  0  0  0  0  0  0  0
   -0.6392    1.6325   -1.2011 H   0  0  0  0  0  0  0  0  0  0  0  0
   -0.6495    2.4583    0.3546 H   0  0  0  0  0  0  0  0  0  0  0  0
   -0.6388   -1.6325    1.2014 H   0  0  0  0  0  0  0  0  0  0  0  0
   -0.6487   -2.4585   -0.3542 H   0  0  0  0  0  0  0  0  0  0  0  0
   -2.7761    1.2458   -0.0689 H   0  0  0  0  0  0  0  0  0  0  0  0
   -1.9588    0.6610    1.3784 H   0  0  0  0  0  0  0  0  0  0  0  0
   -2.7757   -1.2466    0.0686 H   0  0  0  0  0  0  0  0  0  0  0  0
   -1.9583   -0.6616   -1.3786 H   0  0  0  0  0  0  0  0  0  0  0  0
    1.8042    2.5614    0.2053 H   0  0  0  0  0  0  0  0  0  0  0  0
    2.7975    1.1086    0.2465 H   0  0  0  0  0  0  0  0  0  0  0  0
    1.9530    1.5580   -1.2473 H   0  0  0  0  0  0  0  0  0  0  0  0
    2.7979   -1.1077   -0.2467 H   0  0  0  0  0  0  0  0  0  0  0  0
    1.9538   -1.5575    1.2472 H   0  0  0  0  0  0  0  0  0  0  0  0
    1.8052   -2.5609   -0.2054 H   0  0  0  0  0  0  0  0  0  0  0  0
  1  2  1  0  0  0  0
  1  3  1  0  0  0  0
  1  7  1  0  0  0  0
  1  9  1  0  0  0  0
  2  4  1  0  0  0  0
  2  8  1  0  0  0  0
  2 10  1  0  0  0  0
  3  5  1  0  0  0  0
  3 11  1  0  0  0  0
  3 12  1  0  0  0  0
  4  6  1  0  0  0  0
  4 13  1  0  0  0  0
  4 14  1  0  0  0  0
  5  6  1  0  0  0  0
  5 15  1  0  0  0  0
  5 16  1  0  0  0  0
  6 17  1  0  0  0  0
  6 18  1  0  0  0  0
  7 19  1  0  0  0  0
  7 20  1  0  0  0  0
  7 21  1  0  0  0  0
  8 22  1  0  0  0  0
  8 23  1  0  0  0  0
  8 24  1  0  0  0  0
M  END
> <PUBCHEM_COMPOUND_CID>
11416

> <PUBCHEM_CONFORMER_RMSD>
0.4

> <PUBCHEM_CONFORMER_DIVERSEORDER>
2
6
3
4
1
5

> <PUBCHEM_MMFF94_PARTIAL_CHARGES>
0

> <PUBCHEM_EFFECTIVE_ROTOR_COUNT>
1.2

> <PUBCHEM_PHARMACOPHORE_FEATURES>
1
6 1 2 3 4 5 6 rings

> <PUBCHEM_HEAVY_ATOM_COUNT>
8

> <PUBCHEM_ATOM_DEF_STEREO_COUNT>
0

> <PUBCHEM_ATOM_UDEF_STEREO_COUNT>
2

> <PUBCHEM_BOND_DEF_STEREO_COUNT>
0

> <PUBCHEM_BOND_UDEF_STEREO_COUNT>
0

> <PUBCHEM_ISOTOPIC_ATOM_COUNT>
0

> <PUBCHEM_COMPONENT_COUNT>
1

> <PUBCHEM_CACTVS_TAUTO_COUNT>
1

> <PUBCHEM_CONFORMER_ID>
00002C9800000002

> <PUBCHEM_MMFF94_ENERGY>
6.2046

> <PUBCHEM_FEATURE_SELFOVERLAP>
5.074

> <PUBCHEM_SHAPE_FINGERPRINT>
18185500 45 17979354484118812587
21040471 1 18337672997012666937
23235685 24 18123474882179876565
23552423 10 18342174449261832582
241688 4 18339928228626417809
2748010 2 18411136939626654247
29004967 10 18128811954533753761
5084963 1 18188217618573613035
66348 1 18265896843596817126

> <PUBCHEM_SHAPE_MULTIPOLES>
164.64
2.59
1.99
0.67
0.04
0
0
0
0
-0.6
0
0.02
0
-0.15

> <PUBCHEM_SHAPE_SELFOVERLAP>
312.122

> <PUBCHEM_SHAPE_VOLUME>
101.7

> <PUBCHEM_COORDINATE_TYPE>
2
5
10

$$$$

