10287
  -OEChem-06261204263D

 34 36  0     0  0  0  0  0  0999 V2000
    1.5876    1.7826   -0.0238 O   0  0  0  0  0  0  0  0  0  0  0  0
   -0.5871    2.6577    0.0081 O   0  0  0  0  0  0  0  0  0  0  0  0
    0.1558   -2.0246    0.1279 O   0  0  0  0  0  0  0  0  0  0  0  0
    4.2554    2.2996   -0.1369 O   0  0  0  0  0  0  0  0  0  0  0  0
    5.2268   -2.3655   -0.0724 O   0  0  0  0  0  0  0  0  0  0  0  0
   -5.8909   -0.4373    0.2420 O   0  0  0  0  0  0  0  0  0  0  0  0
   -0.3230    0.3063    0.0772 C   0  0  0  0  0  0  0  0  0  0  0  0
    2.0232   -0.6014    0.0116 C   0  0  0  0  0  0  0  0  0  0  0  0
    2.4522    0.7211   -0.0337 C   0  0  0  0  0  0  0  0  0  0  0  0
    0.5809   -0.8775    0.0750 C   0  0  0  0  0  0  0  0  0  0  0  0
   -1.7826    0.1120    0.1206 C   0  0  0  0  0  0  0  0  0  0  0  0
    0.2253    1.5369    0.0247 C   0  0  0  0  0  0  0  0  0  0  0  0
    2.9522   -1.6454   -0.0012 C   0  0  0  0  0  0  0  0  0  0  0  0
    3.8161    1.0108   -0.0919 C   0  0  0  0  0  0  0  0  0  0  0  0
   -2.4371    0.0433    1.3482 C   0  0  0  0  0  0  0  0  0  0  0  0
   -2.5023   -0.0029   -1.0665 C   0  0  0  0  0  0  0  0  0  0  0  0
    4.3155   -1.3540   -0.0601 C   0  0  0  0  0  0  0  0  0  0  0  0
    4.7470   -0.0281   -0.1051 C   0  0  0  0  0  0  0  0  0  0  0  0
   -3.8191   -0.1415    1.3889 C   0  0  0  0  0  0  0  0  0  0  0  0
   -3.8843   -0.1875   -1.0257 C   0  0  0  0  0  0  0  0  0  0  0  0
   -4.5427   -0.2569    0.2020 C   0  0  0  0  0  0  0  0  0  0  0  0
   -6.5690   -0.5476   -1.0087 C   0  0  0  0  0  0  0  0  0  0  0  0
    2.6294   -2.6826    0.0340 H   0  0  0  0  0  0  0  0  0  0  0  0
   -1.8862    0.1311    2.2813 H   0  0  0  0  0  0  0  0  0  0  0  0
   -2.0014    0.0487   -2.0303 H   0  0  0  0  0  0  0  0  0  0  0  0
    5.8104    0.1948   -0.1505 H   0  0  0  0  0  0  0  0  0  0  0  0
   -4.3265   -0.1949    2.3483 H   0  0  0  0  0  0  0  0  0  0  0  0
   -4.3844   -0.2696   -1.9847 H   0  0  0  0  0  0  0  0  0  0  0  0
   -1.5236    2.4107    0.0491 H   0  0  0  0  0  0  0  0  0  0  0  0
    5.2273    2.3032   -0.1741 H   0  0  0  0  0  0  0  0  0  0  0  0
    6.1208   -1.9847   -0.1149 H   0  0  0  0  0  0  0  0  0  0  0  0
   -6.4820    0.3728   -1.5961 H   0  0  0  0  0  0  0  0  0  0  0  0
   -7.6325   -0.6869   -0.7885 H   0  0  0  0  0  0  0  0  0  0  0  0
   -6.2401   -1.4299   -1.5682 H   0  0  0  0  0  0  0  0  0  0  0  0
  1  9  1  0  0  0  0
  1 12  1  0  0  0  0
  2 12  1  0  0  0  0
  2 29  1  0  0  0  0
  3 10  2  0  0  0  0
  4 14  1  0  0  0  0
  4 30  1  0  0  0  0
  5 17  1  0  0  0  0
  5 31  1  0  0  0  0
  6 21  1  0  0  0  0
  6 22  1  0  0  0  0
  7 10  1  0  0  0  0
  7 11  1  0  0  0  0
  7 12  2  0  0  0  0
  8  9  2  0  0  0  0
  8 10  1  0  0  0  0
  8 13  1  0  0  0  0
  9 14  1  0  0  0  0
 11 15  2  0  0  0  0
 11 16  1  0  0  0  0
 13 17  2  0  0  0  0
 13 23  1  0  0  0  0
 14 18  2  0  0  0  0
 15 19  1  0  0  0  0
 15 24  1  0  0  0  0
 16 20  2  0  0  0  0
 16 25  1  0  0  0  0
 17 18  1  0  0  0  0
 18 26  1  0  0  0  0
 19 21  2  0  0  0  0
 19 27  1  0  0  0  0
 20 21  1  0  0  0  0
 20 28  1  0  0  0  0
 22 32  1  0  0  0  0
 22 33  1  0  0  0  0
 22 34  1  0  0  0  0
M  END
> <PUBCHEM_COMPOUND_CID>
10287

> <PUBCHEM_CONFORMER_RMSD>
0.6

> <PUBCHEM_CONFORMER_DIVERSEORDER>
1
2

> <PUBCHEM_MMFF94_PARTIAL_CHARGES>
31
1 -0.16
10 0.47
11 0.03
12 0.15
13 -0.15
14 0.08
15 -0.15
16 -0.15
17 0.08
18 -0.15
19 -0.15
2 -0.53
20 -0.15
21 0.08
22 0.28
23 0.15
24 0.15
25 0.15
26 0.15
27 0.15
28 0.15
29 0.45
3 -0.57
30 0.45
31 0.45
4 -0.53
5 -0.53
6 -0.36
7 -0.01
8 0.09
9 0.08

> <PUBCHEM_EFFECTIVE_ROTOR_COUNT>
2

> <PUBCHEM_PHARMACOPHORE_FEATURES>
9
1 1 acceptor
1 2 donor
1 3 acceptor
1 4 donor
1 5 donor
1 6 acceptor
6 1 7 8 9 10 12 rings
6 11 15 16 19 20 21 rings
6 8 9 13 14 17 18 rings

> <PUBCHEM_HEAVY_ATOM_COUNT>
22

> <PUBCHEM_ATOM_DEF_STEREO_COUNT>
0

> <PUBCHEM_ATOM_UDEF_STEREO_COUNT>
0

> <PUBCHEM_BOND_DEF_STEREO_COUNT>
0

> <PUBCHEM_BOND_UDEF_STEREO_COUNT>
0

> <PUBCHEM_ISOTOPIC_ATOM_COUNT>
0

> <PUBCHEM_COMPONENT_COUNT>
1

> <PUBCHEM_CACTVS_TAUTO_COUNT>
27

> <PUBCHEM_CONFORMER_ID>
0000282F00000001

> <PUBCHEM_MMFF94_ENERGY>
76.2725

> <PUBCHEM_FEATURE_SELFOVERLAP>
45.697

> <PUBCHEM_SHAPE_FINGERPRINT>
10411042 1 18266741475571985886
10912923 1 17749382659525460475
11471102 20 18412543193581895344
11796584 16 16774077366838988226
12107183 9 17466210243088728563
12236239 1 17894347774695764513
12403259 415 17846503646893646869
13140716 1 18049725114425767656
13533116 47 18259985963691205706
13544653 18 18342733035401978053
13760787 5 18408040710371650333
13862211 1 18338800121381250106
14386348 63 17846777391108559563
15196674 1 18410854399303284472
15475509 35 14707476049658364260
15848702 151 17968369160334943174
15961568 22 16128085634321407740
17492 89 18120657100361720078
17844677 252 18412821421436989741
1813 80 18260816142246764428
18222031 100 18408327704397375146
200 152 18333452045557823105
20028762 73 18187086186770979998
20612939 158 18411417297737944068
20645477 70 18412547630304380102
21033648 29 18060151928629862373
21267235 1 18337103557854395318
21641784 216 18058713806123404292
21682296 61 18264481969996543790
221357 26 18343590655083657813
23175994 123 18131346406419820117
23402539 116 18334859467111211467
23559900 14 17131827681582728874
2871803 45 18202001062063979730
29717793 49 18113335340677930703
3004659 81 18202566202561725450
312423 11 18337657724662954252
3286 77 17458634431905871442
34797466 226 16415185767800406126
34934 24 18265337218538887628
350125 39 18338230574637513552
42630746 31 18409168792659864950
465052 167 18334572438647101759
474 4 17824834329863107504
5104073 3 18410291457960917176
5283173 99 17987525969112293781
602551 16 15213311784968565311

> <PUBCHEM_SHAPE_MULTIPOLES>
417.53
12.57
1.98
0.94
8.6
0.48
-0.1
-3.69
1.65
-2.89
0.05
1.25
-0.05
-0.2

> <PUBCHEM_SHAPE_SELFOVERLAP>
928.666

> <PUBCHEM_SHAPE_VOLUME>
221.2

> <PUBCHEM_COORDINATE_TYPE>
2
5
10

$$$$

