12766
  -OEChem-06261207203D

 25 25  0     0  0  0  0  0  0999 V2000
   -2.5072   -0.1450   -0.6270 O   0  0  0  0  0  0  0  0  0  0  0  0
   -1.4907   -0.5186    0.3039 C   0  0  0  0  0  0  0  0  0  0  0  0
   -0.4725   -1.4117   -0.4101 C   0  0  0  0  0  0  0  0  0  0  0  0
   -0.9606    0.7444    0.9821 C   0  0  0  0  0  0  0  0  0  0  0  0
    0.8210   -1.6715    0.3601 C   0  0  0  0  0  0  0  0  0  0  0  0
   -0.3293    1.7997    0.0747 C   0  0  0  0  0  0  0  0  0  0  0  0
    2.0216   -0.8570   -0.1264 C   0  0  0  0  0  0  0  0  0  0  0  0
    0.9362    1.4086   -0.6883 C   0  0  0  0  0  0  0  0  0  0  0  0
    1.9815    0.6511    0.1310 C   0  0  0  0  0  0  0  0  0  0  0  0
   -1.9826   -1.1179    1.0807 H   0  0  0  0  0  0  0  0  0  0  0  0
   -0.2729   -1.0542   -1.4260 H   0  0  0  0  0  0  0  0  0  0  0  0
   -0.9687   -2.3795   -0.5727 H   0  0  0  0  0  0  0  0  0  0  0  0
   -0.2741    0.4820    1.7934 H   0  0  0  0  0  0  0  0  0  0  0  0
   -1.8140    1.2336    1.4724 H   0  0  0  0  0  0  0  0  0  0  0  0
    1.0822   -2.7285    0.2151 H   0  0  0  0  0  0  0  0  0  0  0  0
    0.6812   -1.5494    1.4396 H   0  0  0  0  0  0  0  0  0  0  0  0
   -0.0845    2.6645    0.7061 H   0  0  0  0  0  0  0  0  0  0  0  0
   -1.0739    2.1619   -0.6448 H   0  0  0  0  0  0  0  0  0  0  0  0
    2.1773   -1.0403   -1.1971 H   0  0  0  0  0  0  0  0  0  0  0  0
    2.9132   -1.2528    0.3774 H   0  0  0  0  0  0  0  0  0  0  0  0
    1.3931    2.3447   -1.0375 H   0  0  0  0  0  0  0  0  0  0  0  0
    0.6816    0.8657   -1.6037 H   0  0  0  0  0  0  0  0  0  0  0  0
    1.8850    0.8591    1.2021 H   0  0  0  0  0  0  0  0  0  0  0  0
    2.9672    1.0415   -0.1566 H   0  0  0  0  0  0  0  0  0  0  0  0
   -2.8785   -0.9623   -1.0008 H   0  0  0  0  0  0  0  0  0  0  0  0
  1  2  1  0  0  0  0
  1 25  1  0  0  0  0
  2  3  1  0  0  0  0
  2  4  1  0  0  0  0
  2 10  1  0  0  0  0
  3  5  1  0  0  0  0
  3 11  1  0  0  0  0
  3 12  1  0  0  0  0
  4  6  1  0  0  0  0
  4 13  1  0  0  0  0
  4 14  1  0  0  0  0
  5  7  1  0  0  0  0
  5 15  1  0  0  0  0
  5 16  1  0  0  0  0
  6  8  1  0  0  0  0
  6 17  1  0  0  0  0
  6 18  1  0  0  0  0
  7  9  1  0  0  0  0
  7 19  1  0  0  0  0
  7 20  1  0  0  0  0
  8  9  1  0  0  0  0
  8 21  1  0  0  0  0
  8 22  1  0  0  0  0
  9 23  1  0  0  0  0
  9 24  1  0  0  0  0
M  END
> <PUBCHEM_COMPOUND_CID>
12766

> <PUBCHEM_CONFORMER_RMSD>
0.4

> <PUBCHEM_CONFORMER_DIVERSEORDER>
1
14
16
4
9
15
5
13
17
7
8
3
10
2
12
11
6

> <PUBCHEM_MMFF94_PARTIAL_CHARGES>
3
1 -0.68
2 0.28
25 0.4

> <PUBCHEM_EFFECTIVE_ROTOR_COUNT>
1.6

> <PUBCHEM_PHARMACOPHORE_FEATURES>
2
1 1 acceptor
1 1 donor

> <PUBCHEM_HEAVY_ATOM_COUNT>
9

> <PUBCHEM_ATOM_DEF_STEREO_COUNT>
0

> <PUBCHEM_ATOM_UDEF_STEREO_COUNT>
0

> <PUBCHEM_BOND_DEF_STEREO_COUNT>
0

> <PUBCHEM_BOND_UDEF_STEREO_COUNT>
0

> <PUBCHEM_ISOTOPIC_ATOM_COUNT>
0

> <PUBCHEM_COMPONENT_COUNT>
1

> <PUBCHEM_CACTVS_TAUTO_COUNT>
1

> <PUBCHEM_CONFORMER_ID>
000031DE00000001

> <PUBCHEM_MMFF94_ENERGY>
17.6921

> <PUBCHEM_FEATURE_SELFOVERLAP>
10.148

> <PUBCHEM_SHAPE_FINGERPRINT>
10702982 57 5645189406528361337
12423570 1 11526854910063319153
16945 1 18411979169665013074
18185500 45 18336826386023179146
21040471 1 18051410660901837900
23552423 10 18341607139779345271
241688 4 18195523920605839480
2748010 2 18122337982877548230
29004967 10 18201997703135933608
5084963 1 18187645872527338386
66348 1 18339357582091634290

> <PUBCHEM_SHAPE_MULTIPOLES>
179.35
2.61
1.98
0.85
0.17
0.12
-0.04
-0.25
0.21
-0.31
0.06
0.15
0.08
-0.24

> <PUBCHEM_SHAPE_SELFOVERLAP>
337.754

> <PUBCHEM_SHAPE_VOLUME>
110.1

> <PUBCHEM_COORDINATE_TYPE>
2
5
10

$$$$

