3666
  -OEChem-06251223342D

 59 62  0     1  0  0  0  0  0999 V2000
    8.4855    1.9466    0.0000 O   0  0  0  0  0  0  0  0  0  0  0  0
    4.3976    2.9127    0.0000 O   0  0  0  0  0  0  0  0  0  0  0  0
    3.6730   -0.5928    0.0000 O   0  0  0  0  0  0  0  0  0  0  0  0
    6.1122   -2.9127    0.0000 O   0  0  0  0  0  0  0  0  0  0  0  0
    2.4483    0.6320    0.0000 O   0  0  0  0  0  0  0  0  0  0  0  0
    7.4850    1.9463    0.0000 C   0  0  3  0  0  0  0  0  0  0  0  0
    7.9850    1.0803    0.0000 C   0  0  3  0  0  0  0  0  0  0  0  0
    4.1390    1.9463    0.0000 C   0  0  3  0  0  0  0  0  0  0  0  0
    6.1122    0.1143    0.0000 C   0  0  0  0  0  0  0  0  0  0  0  0
    6.9782   -0.3857    0.0000 C   0  0  3  0  0  0  0  0  0  0  0  0
    5.1049    2.2051    0.0000 C   0  0  3  0  0  0  0  0  0  0  0  0
    7.8442    0.1143    0.0000 C   0  0  0  0  0  0  0  0  0  0  0  0
    5.2462   -0.3857    0.0000 C   0  0  3  0  0  0  0  0  0  0  0  0
    6.5191    2.2051    0.0000 C   0  0  0  0  0  0  0  0  0  0  0  0
    5.8120    1.4980    0.0000 C   0  0  0  0  0  0  0  0  0  0  0  0
    3.8801    0.9804    0.0000 C   0  0  0  0  0  0  0  0  0  0  0  0
    4.3801    0.1143    0.0000 C   0  0  3  0  0  0  0  0  0  0  0  0
    6.9900   -1.4014    0.0000 C   0  0  0  0  0  0  0  0  0  0  0  0
    6.9850    2.8123    0.0000 C   0  0  0  0  0  0  0  0  0  0  0  0
    5.2344   -1.4014    0.0000 C   0  0  0  0  0  0  0  0  0  0  0  0
    3.1730    1.6875    0.0000 C   0  0  0  0  0  0  0  0  0  0  0  0
    6.6122    0.9804    0.0000 C   0  0  0  0  0  0  0  0  0  0  0  0
    5.2462    0.6143    0.0000 C   0  0  0  0  0  0  0  0  0  0  0  0
    6.1122   -1.9127    0.0000 C   0  0  0  0  0  0  0  0  0  0  0  0
    4.3646   -1.8947    0.0000 C   0  0  0  0  0  0  0  0  0  0  0  0
    2.7071   -0.3339    0.0000 C   0  0  0  0  0  0  0  0  0  0  0  0
    2.0000   -1.0410    0.0000 C   0  0  0  0  0  0  0  0  0  0  0  0
    8.5707    0.8769    0.0000 H   0  0  0  0  0  0  0  0  0  0  0  0
    7.5169   -0.6925    0.0000 H   0  0  0  0  0  0  0  0  0  0  0  0
    5.5434    2.6435    0.0000 H   0  0  0  0  0  0  0  0  0  0  0  0
    8.0280   -0.4778    0.0000 H   0  0  0  0  0  0  0  0  0  0  0  0
    8.4624    0.1627    0.0000 H   0  0  0  0  0  0  0  0  0  0  0  0
    4.7074   -0.6925    0.0000 H   0  0  0  0  0  0  0  0  0  0  0  0
    6.7811    2.7670    0.0000 H   0  0  0  0  0  0  0  0  0  0  0  0
    6.0112    2.5607    0.0000 H   0  0  0  0  0  0  0  0  0  0  0  0
    5.3736    1.0596    0.0000 H   0  0  0  0  0  0  0  0  0  0  0  0
    6.2504    1.0596    0.0000 H   0  0  0  0  0  0  0  0  0  0  0  0
    3.3432    1.2904    0.0000 H   0  0  0  0  0  0  0  0  0  0  0  0
    3.4417    0.5420    0.0000 H   0  0  0  0  0  0  0  0  0  0  0  0
    4.4611   -0.5003    0.0000 H   0  0  0  0  0  0  0  0  0  0  0  0
    7.2058   -1.9826    0.0000 H   0  0  0  0  0  0  0  0  0  0  0  0
    7.5996   -1.2883    0.0000 H   0  0  0  0  0  0  0  0  0  0  0  0
    7.5220    3.1223    0.0000 H   0  0  0  0  0  0  0  0  0  0  0  0
    6.6750    3.3493    0.0000 H   0  0  0  0  0  0  0  0  0  0  0  0
    6.4481    2.5023    0.0000 H   0  0  0  0  0  0  0  0  0  0  0  0
    3.0126    2.2864    0.0000 H   0  0  0  0  0  0  0  0  0  0  0  0
    2.5742    1.5270    0.0000 H   0  0  0  0  0  0  0  0  0  0  0  0
    3.3335    1.0886    0.0000 H   0  0  0  0  0  0  0  0  0  0  0  0
    5.5562    1.1513    0.0000 H   0  0  0  0  0  0  0  0  0  0  0  0
    4.7092    0.9243    0.0000 H   0  0  0  0  0  0  0  0  0  0  0  0
    4.9362    0.0774    0.0000 H   0  0  0  0  0  0  0  0  0  0  0  0
    7.1491    0.6704    0.0000 H   0  0  0  0  0  0  0  0  0  0  0  0
    6.9222    1.5173    0.0000 H   0  0  0  0  0  0  0  0  0  0  0  0
    6.0752    1.2904    0.0000 H   0  0  0  0  0  0  0  0  0  0  0  0
    3.8300   -1.5806    0.0000 H   0  0  0  0  0  0  0  0  0  0  0  0
    4.3598   -2.5147    0.0000 H   0  0  0  0  0  0  0  0  0  0  0  0
    1.5616   -0.6026    0.0000 H   0  0  0  0  0  0  0  0  0  0  0  0
    1.5616   -1.4794    0.0000 H   0  0  0  0  0  0  0  0  0  0  0  0
    2.4384   -1.4794    0.0000 H   0  0  0  0  0  0  0  0  0  0  0  0
  1  6  1  0  0  0  0
  1  7  1  0  0  0  0
  2  8  1  0  0  0  0
  2 11  1  0  0  0  0
  3 17  1  0  0  0  0
  3 26  1  0  0  0  0
  4 24  2  0  0  0  0
  5 26  2  0  0  0  0
  6  7  1  0  0  0  0
  6 14  1  0  0  0  0
  6 19  1  0  0  0  0
  7 12  1  0  0  0  0
  7 28  1  0  0  0  0
  8 11  1  0  0  0  0
  8 16  1  0  0  0  0
  8 21  1  0  0  0  0
  9 10  1  0  0  0  0
  9 13  1  0  0  0  0
  9 22  1  0  0  0  0
  9 23  1  0  0  0  0
 10 12  1  0  0  0  0
 10 18  1  0  0  0  0
 10 29  1  0  0  0  0
 11 15  1  0  0  0  0
 11 30  1  0  0  0  0
 12 31  1  0  0  0  0
 12 32  1  0  0  0  0
 13 17  1  0  0  0  0
 13 20  1  0  0  0  0
 13 33  1  0  0  0  0
 14 15  1  0  0  0  0
 14 34  1  0  0  0  0
 14 35  1  0  0  0  0
 15 36  1  0  0  0  0
 15 37  1  0  0  0  0
 16 17  1  0  0  0  0
 16 38  1  0  0  0  0
 16 39  1  0  0  0  0
 17 40  1  0  0  0  0
 18 24  1  0  0  0  0
 18 41  1  0  0  0  0
 18 42  1  0  0  0  0
 19 43  1  0  0  0  0
 19 44  1  0  0  0  0
 19 45  1  0  0  0  0
 20 24  1  0  0  0  0
 20 25  2  0  0  0  0
 21 46  1  0  0  0  0
 21 47  1  0  0  0  0
 21 48  1  0  0  0  0
 22 52  1  0  0  0  0
 22 53  1  0  0  0  0
 22 54  1  0  0  0  0
 23 49  1  0  0  0  0
 23 50  1  0  0  0  0
 23 51  1  0  0  0  0
 25 55  1  0  0  0  0
 25 56  1  0  0  0  0
 26 27  1  0  0  0  0
 27 57  1  0  0  0  0
 27 58  1  0  0  0  0
 27 59  1  0  0  0  0
M  END
> <PUBCHEM_COMPOUND_CID>
3666

> <PUBCHEM_COMPOUND_CANONICALIZED>
1

> <PUBCHEM_CACTVS_COMPLEXITY>
697

> <PUBCHEM_CACTVS_HBOND_ACCEPTOR>
5

> <PUBCHEM_CACTVS_HBOND_DONOR>
0

> <PUBCHEM_CACTVS_ROTATABLE_BOND>
2

> <PUBCHEM_CACTVS_SUBSKEYS>
AAADcfB4OAAAAAAAAAAAAAAAEiQAAAAAAAAwAAAAAAAAAAAAAAAAGgAAAAAAD1SggAICCAAABACIAoDSCAAAAAAgAAAAAAEAAEgAABIAAQACAAAFwAAAAIHK7PzPgAAAAAAAAAAAAAQAACAAAAAAAAAAAA==

> <PUBCHEM_IUPAC_INCHI>
InChI=1S/C22H32O5/c1-12-15(24)9-14-10-18-21(5,27-18)8-7-17-22(6,26-17)11-16(25-13(2)23)19(12)20(14,3)4/h14,16-19H,1,7-11H2,2-6H3

> <PUBCHEM_IUPAC_INCHIKEY>
HNPAHGHFONBTLV-UHFFFAOYSA-N

> <PUBCHEM_XLOGP3_AA>
2.9

> <PUBCHEM_EXACT_MASS>
376.224974

> <PUBCHEM_MOLECULAR_FORMULA>
C22H32O5

> <PUBCHEM_MOLECULAR_WEIGHT>
376.48648

> <PUBCHEM_OPENEYE_CAN_SMILES>
CC(=O)OC1CC2(C(O2)CCC3(C(O3)CC4CC(=O)C(=C)C1C4(C)C)C)C

> <PUBCHEM_OPENEYE_ISO_SMILES>
CC(=O)OC1CC2(C(O2)CCC3(C(O3)CC4CC(=O)C(=C)C1C4(C)C)C)C

> <PUBCHEM_CACTVS_TPSA>
68.4

> <PUBCHEM_MONOISOTOPIC_WEIGHT>
376.224974

> <PUBCHEM_TOTAL_CHARGE>
0

> <PUBCHEM_HEAVY_ATOM_COUNT>
27

> <PUBCHEM_ATOM_DEF_STEREO_COUNT>
0

> <PUBCHEM_ATOM_UDEF_STEREO_COUNT>
7

> <PUBCHEM_BOND_DEF_STEREO_COUNT>
0

> <PUBCHEM_BOND_UDEF_STEREO_COUNT>
0

> <PUBCHEM_ISOTOPIC_ATOM_COUNT>
0

> <PUBCHEM_COMPONENT_COUNT>
1

> <PUBCHEM_CACTVS_TAUTO_COUNT>
2

> <PUBCHEM_COORDINATE_TYPE>
1
5
255

> <PUBCHEM_BONDANNOTATIONS>
11  15  3
17  3  3
6  19  3
7  12  3
8  21  3
10  9  3
13  9  3

$$$$

