17396573
  -OEChem-06241222573D

 44 46  0     1  0  0  0  0  0999 V2000
    3.5299    2.8206    1.0921 S   0  0  0  0  0  0  0  0  0  0  0  0
   -0.0127    0.2214   -1.7647 O   0  0  0  0  0  0  0  0  0  0  0  0
    0.3619   -3.2244    1.2677 O   0  0  0  0  0  0  0  0  0  0  0  0
   -2.1313   -0.9462    1.5553 O   0  0  0  0  0  0  0  0  0  0  0  0
    1.8688   -1.6178    0.5054 N   0  0  0  0  0  0  0  0  0  0  0  0
   -0.1995   -1.6049   -0.3259 N   0  0  0  0  0  0  0  0  0  0  0  0
   -3.7155   -0.9321   -0.1453 N   0  0  0  0  0  0  0  0  0  0  0  0
    1.8951   -0.5167   -0.4348 C   0  0  2  0  0  0  0  0  0  0  0  0
    2.8769   -0.7852   -1.5930 C   0  0  0  0  0  0  0  0  0  0  0  0
    2.2029    0.7551    0.3027 C   0  0  0  0  0  0  0  0  0  0  0  0
    4.3298   -0.4794   -1.1962 C   0  0  0  0  0  0  0  0  0  0  0  0
    4.5076    0.9888   -0.7831 C   0  0  0  0  0  0  0  0  0  0  0  0
    0.4542   -0.5591   -0.9443 C   0  0  0  0  0  0  0  0  0  0  0  0
    3.4093    1.4135    0.1411 C   0  0  0  0  0  0  0  0  0  0  0  0
    0.6315   -2.2635    0.5588 C   0  0  0  0  0  0  0  0  0  0  0  0
    1.3738    1.4357    1.2516 C   0  0  0  0  0  0  0  0  0  0  0  0
   -1.5853   -1.9494   -0.5736 C   0  0  0  0  0  0  0  0  0  0  0  0
    1.9722    2.5708    1.7530 C   0  0  0  0  0  0  0  0  0  0  0  0
   -2.4736   -1.2123    0.4060 C   0  0  0  0  0  0  0  0  0  0  0  0
   -4.7779   -0.2786    0.5850 C   0  0  0  0  0  0  0  0  0  0  0  0
   -4.7307    1.2395    0.4471 C   0  0  0  0  0  0  0  0  0  0  0  0
   -4.8891    1.7034   -1.0027 C   0  0  0  0  0  0  0  0  0  0  0  0
   -4.8985    3.2208   -1.1022 C   0  0  0  0  0  0  0  0  0  0  0  0
    2.8014   -1.8272   -1.9289 H   0  0  0  0  0  0  0  0  0  0  0  0
    2.6171   -0.1614   -2.4591 H   0  0  0  0  0  0  0  0  0  0  0  0
    4.6250   -1.1342   -0.3665 H   0  0  0  0  0  0  0  0  0  0  0  0
    5.0001   -0.7059   -2.0331 H   0  0  0  0  0  0  0  0  0  0  0  0
    5.4898    1.1167   -0.3139 H   0  0  0  0  0  0  0  0  0  0  0  0
    4.4829    1.6230   -1.6779 H   0  0  0  0  0  0  0  0  0  0  0  0
    2.6633   -1.8955    1.0738 H   0  0  0  0  0  0  0  0  0  0  0  0
    0.3868    1.1089    1.5537 H   0  0  0  0  0  0  0  0  0  0  0  0
   -1.8384   -1.6835   -1.6048 H   0  0  0  0  0  0  0  0  0  0  0  0
   -1.7292   -3.0241   -0.4235 H   0  0  0  0  0  0  0  0  0  0  0  0
    1.5678    3.2638    2.4772 H   0  0  0  0  0  0  0  0  0  0  0  0
   -3.9075   -1.2033   -1.1052 H   0  0  0  0  0  0  0  0  0  0  0  0
   -5.7258   -0.6698    0.2005 H   0  0  0  0  0  0  0  0  0  0  0  0
   -4.7033   -0.5544    1.6425 H   0  0  0  0  0  0  0  0  0  0  0  0
   -5.5309    1.6728    1.0590 H   0  0  0  0  0  0  0  0  0  0  0  0
   -3.7807    1.6163    0.8463 H   0  0  0  0  0  0  0  0  0  0  0  0
   -5.8240    1.3104   -1.4188 H   0  0  0  0  0  0  0  0  0  0  0  0
   -4.0701    1.3151   -1.6188 H   0  0  0  0  0  0  0  0  0  0  0  0
   -5.7278    3.6466   -0.5284 H   0  0  0  0  0  0  0  0  0  0  0  0
   -5.0127    3.5315   -2.1455 H   0  0  0  0  0  0  0  0  0  0  0  0
   -3.9635    3.6444   -0.7219 H   0  0  0  0  0  0  0  0  0  0  0  0
  1 14  1  0  0  0  0
  1 18  1  0  0  0  0
  2 13  2  0  0  0  0
  3 15  2  0  0  0  0
  4 19  2  0  0  0  0
  5  8  1  0  0  0  0
  5 15  1  0  0  0  0
  5 30  1  0  0  0  0
  6 13  1  0  0  0  0
  6 15  1  0  0  0  0
  6 17  1  0  0  0  0
  7 19  1  0  0  0  0
  7 20  1  0  0  0  0
  7 35  1  0  0  0  0
  8  9  1  0  0  0  0
  8 10  1  0  0  0  0
  8 13  1  0  0  0  0
  9 11  1  0  0  0  0
  9 24  1  0  0  0  0
  9 25  1  0  0  0  0
 10 14  2  0  0  0  0
 10 16  1  0  0  0  0
 11 12  1  0  0  0  0
 11 26  1  0  0  0  0
 11 27  1  0  0  0  0
 12 14  1  0  0  0  0
 12 28  1  0  0  0  0
 12 29  1  0  0  0  0
 16 18  2  0  0  0  0
 16 31  1  0  0  0  0
 17 19  1  0  0  0  0
 17 32  1  0  0  0  0
 17 33  1  0  0  0  0
 18 34  1  0  0  0  0
 20 21  1  0  0  0  0
 20 36  1  0  0  0  0
 20 37  1  0  0  0  0
 21 22  1  0  0  0  0
 21 38  1  0  0  0  0
 21 39  1  0  0  0  0
 22 23  1  0  0  0  0
 22 40  1  0  0  0  0
 22 41  1  0  0  0  0
 23 42  1  0  0  0  0
 23 43  1  0  0  0  0
 23 44  1  0  0  0  0
M  END
> <PUBCHEM_COMPOUND_CID>
17396573

> <PUBCHEM_CONFORMER_RMSD>
0.8

> <PUBCHEM_CONFORMER_DIVERSEORDER>
1
40
12
144
88
26
17
142
60
112
177
140
114
136
129
30
11
151
110
119
172
82
128
20
156
75
118
67
131
87
71
63
34
3
117
146
47
45
108
2
68
138
121
109
111
137
174
66
61
25
31
158
55
86
176
89
76
135
19
59
37
107
69
106
120
105
93
6
21
127
150
70
84
171
160
79
49
130
10
175
116
27
41
36
57
115
159
97
48
64
62
83
53
98
95
94
99
141
54
163
165
178
96
101
32
56
28
152
103
90
22
73
85
24
15
169
104
52
155
143
29
77
168
125
7
161
14
9
126
39
145
170
72
166
91
8
92
133
16
65
167
157
74
23
50
102
43
100
113
122
162
13
18
44
149
38
132
42
139
173
51
123
81
148
154
164
134
179
5
58
180
46
80
78
153
35
124
4
147
33

> <PUBCHEM_MMFF94_PARTIAL_CHARGES>
22
1 -0.08
10 -0.18
12 0.18
13 0.57
14 -0.14
15 0.69
16 -0.15
17 0.36
18 -0.11
19 0.57
2 -0.57
20 0.3
3 -0.57
30 0.37
31 0.15
34 0.15
35 0.37
4 -0.57
5 -0.73
6 -0.42
7 -0.73
8 0.54

> <PUBCHEM_EFFECTIVE_ROTOR_COUNT>
7

> <PUBCHEM_PHARMACOPHORE_FEATURES>
9
1 2 acceptor
1 23 hydrophobe
1 3 acceptor
1 4 acceptor
1 5 donor
1 7 donor
5 1 10 14 16 18 rings
5 5 6 8 13 15 rings
6 8 9 10 11 12 14 rings

> <PUBCHEM_HEAVY_ATOM_COUNT>
23

> <PUBCHEM_ATOM_DEF_STEREO_COUNT>
0

> <PUBCHEM_ATOM_UDEF_STEREO_COUNT>
1

> <PUBCHEM_BOND_DEF_STEREO_COUNT>
0

> <PUBCHEM_BOND_UDEF_STEREO_COUNT>
0

> <PUBCHEM_ISOTOPIC_ATOM_COUNT>
0

> <PUBCHEM_COMPONENT_COUNT>
1

> <PUBCHEM_CACTVS_TAUTO_COUNT>
4

> <PUBCHEM_CONFORMER_ID>
0109735D00000001

> <PUBCHEM_MMFF94_ENERGY>
25.6872

> <PUBCHEM_FEATURE_SELFOVERLAP>
45.728

> <PUBCHEM_SHAPE_FINGERPRINT>
10498660 4 18410293623115011465
10646746 165 18410290285640163567
11089746 13 18336554892708837311
11595378 159 16343708776495950237
12403259 415 18409725154323618177
12596602 18 15841258269392952737
12769317 202 18335704974436269281
13464514 151 18189610558383450794
13878862 14 17841737371878775269
13944108 23 17760646267290000421
14178342 30 17916867898599498395
14347329 18 18202555172869776132
14466204 15 18411708698611124240
14790565 3 17916288477383005556
14848178 96 18410298021050921597
15238133 3 18268999841725619610
15848702 68 18264221368412490585
1601671 61 17704065200991174492
17868525 174 17554623055457486155
17980427 26 18263944180166985326
20832881 197 18337382838329898278
21033648 144 17895756175512376021
21033648 29 18412263896217154393
21279426 13 18336258037702016550
21475661 188 18335426729080260497
221357 26 18040992943227479601
22289505 5 18187077382340379596
22393880 68 18334861623611906271
231179 274 18334010566756429514
23379529 103 8934712336279220837
23559900 14 17821717339379519366
350125 39 17987518281189119750
3524813 1 18408603660726400969
508706 21 18341618092705956365
5895379 119 17462568630613074569
633830 44 18335144141711879479
6442390 28 18272089379105181982
7808743 9 18056190272444987244
84936 182 18340207504865002035

> <PUBCHEM_SHAPE_MULTIPOLES>
444.63
10.16
3.41
1.55
10.89
1.02
0.05
7.44
2.39
0.59
-0.9
-0.33
0.27
2.39

> <PUBCHEM_SHAPE_SELFOVERLAP>
927.448

> <PUBCHEM_SHAPE_VOLUME>
256.4

> <PUBCHEM_COORDINATE_TYPE>
2
5
10

$$$$

