7829
  -OEChem-06261202213D

 38 37  0     0  0  0  0  0  0999 V2000
   -6.7665    0.7369   -0.0920 O   0  0  0  0  0  0  0  0  0  0  0  0
    6.7632   -0.7428   -0.0809 O   0  0  0  0  0  0  0  0  0  0  0  0
   -5.8296   -1.3709   -0.0612 O   0  0  0  0  0  0  0  0  0  0  0  0
    5.8245    1.3642   -0.0660 O   0  0  0  0  0  0  0  0  0  0  0  0
   -0.6383   -0.3753    0.1418 C   0  0  0  0  0  0  0  0  0  0  0  0
    0.6693    0.4195    0.1270 C   0  0  0  0  0  0  0  0  0  0  0  0
   -1.8896    0.5082    0.1409 C   0  0  0  0  0  0  0  0  0  0  0  0
    1.8836   -0.5127    0.1051 C   0  0  0  0  0  0  0  0  0  0  0  0
   -3.1967   -0.2898    0.0804 C   0  0  0  0  0  0  0  0  0  0  0  0
    3.1922    0.2819    0.0518 C   0  0  0  0  0  0  0  0  0  0  0  0
   -4.4275    0.6156    0.0135 C   0  0  0  0  0  0  0  0  0  0  0  0
    4.4231   -0.6231    0.0011 C   0  0  0  0  0  0  0  0  0  0  0  0
   -5.7292   -0.1516   -0.0592 C   0  0  0  0  0  0  0  0  0  0  0  0
    5.7250    0.1449   -0.0613 C   0  0  0  0  0  0  0  0  0  0  0  0
   -8.0740    0.1563   -0.1319 C   0  0  0  0  0  0  0  0  0  0  0  0
    8.0706   -0.1615   -0.1090 C   0  0  0  0  0  0  0  0  0  0  0  0
   -0.6598   -1.0249    1.0256 H   0  0  0  0  0  0  0  0  0  0  0  0
   -0.6672   -1.0340   -0.7353 H   0  0  0  0  0  0  0  0  0  0  0  0
    0.7154    1.0670    1.0106 H   0  0  0  0  0  0  0  0  0  0  0  0
    0.6893    1.0717   -0.7544 H   0  0  0  0  0  0  0  0  0  0  0  0
   -1.8889    1.1364    1.0400 H   0  0  0  0  0  0  0  0  0  0  0  0
   -1.8453    1.1868   -0.7201 H   0  0  0  0  0  0  0  0  0  0  0  0
    1.8767   -1.1500    0.9974 H   0  0  0  0  0  0  0  0  0  0  0  0
    1.8238   -1.1748   -0.7672 H   0  0  0  0  0  0  0  0  0  0  0  0
   -3.2670   -0.9431    0.9590 H   0  0  0  0  0  0  0  0  0  0  0  0
   -3.1823   -0.9480   -0.7972 H   0  0  0  0  0  0  0  0  0  0  0  0
    3.2580    0.9390    0.9282 H   0  0  0  0  0  0  0  0  0  0  0  0
    3.1875    0.9370   -0.8286 H   0  0  0  0  0  0  0  0  0  0  0  0
   -4.4586    1.2523    0.9052 H   0  0  0  0  0  0  0  0  0  0  0  0
   -4.3630    1.2543   -0.8749 H   0  0  0  0  0  0  0  0  0  0  0  0
    4.4457   -1.2560    0.8956 H   0  0  0  0  0  0  0  0  0  0  0  0
    4.3677   -1.2652   -0.8854 H   0  0  0  0  0  0  0  0  0  0  0  0
   -8.8059    0.9680   -0.1551 H   0  0  0  0  0  0  0  0  0  0  0  0
   -8.2477   -0.4475    0.7640 H   0  0  0  0  0  0  0  0  0  0  0  0
   -8.1921   -0.4491   -1.0356 H   0  0  0  0  0  0  0  0  0  0  0  0
    8.8033   -0.9729   -0.1223 H   0  0  0  0  0  0  0  0  0  0  0  0
    8.2348    0.4452    0.7867 H   0  0  0  0  0  0  0  0  0  0  0  0
    8.1977    0.4413   -1.0132 H   0  0  0  0  0  0  0  0  0  0  0  0
  1 13  1  0  0  0  0
  1 15  1  0  0  0  0
  2 14  1  0  0  0  0
  2 16  1  0  0  0  0
  3 13  2  0  0  0  0
  4 14  2  0  0  0  0
  5  6  1  0  0  0  0
  5  7  1  0  0  0  0
  5 17  1  0  0  0  0
  5 18  1  0  0  0  0
  6  8  1  0  0  0  0
  6 19  1  0  0  0  0
  6 20  1  0  0  0  0
  7  9  1  0  0  0  0
  7 21  1  0  0  0  0
  7 22  1  0  0  0  0
  8 10  1  0  0  0  0
  8 23  1  0  0  0  0
  8 24  1  0  0  0  0
  9 11  1  0  0  0  0
  9 25  1  0  0  0  0
  9 26  1  0  0  0  0
 10 12  1  0  0  0  0
 10 27  1  0  0  0  0
 10 28  1  0  0  0  0
 11 13  1  0  0  0  0
 11 29  1  0  0  0  0
 11 30  1  0  0  0  0
 12 14  1  0  0  0  0
 12 31  1  0  0  0  0
 12 32  1  0  0  0  0
 15 33  1  0  0  0  0
 15 34  1  0  0  0  0
 15 35  1  0  0  0  0
 16 36  1  0  0  0  0
 16 37  1  0  0  0  0
 16 38  1  0  0  0  0
M  END
> <PUBCHEM_COMPOUND_CID>
7829

> <PUBCHEM_CONFORMER_RMSD>
1.2

> <PUBCHEM_CONFORMER_DIVERSEORDER>
1
24
23
73
36
52
29
2
69
41
7
10
32
14
33
38
5
70
55
34
64
6
15
22
63
45
42
9
17
11
4
72
43
57
71
51
3
8
48
27
46
30
16
62
37
13
28
67
40
54
26
47
49
19
50
61
21
20
60
68
39
56
59
44
65
35
18
53
31
66
74
12
25
58

> <PUBCHEM_MMFF94_PARTIAL_CHARGES>
10
1 -0.43
11 0.06
12 0.06
13 0.66
14 0.66
15 0.28
16 0.28
2 -0.43
3 -0.57
4 -0.57

> <PUBCHEM_EFFECTIVE_ROTOR_COUNT>
11

> <PUBCHEM_PHARMACOPHORE_FEATURES>
2
1 3 acceptor
1 4 acceptor

> <PUBCHEM_HEAVY_ATOM_COUNT>
16

> <PUBCHEM_ATOM_DEF_STEREO_COUNT>
0

> <PUBCHEM_ATOM_UDEF_STEREO_COUNT>
0

> <PUBCHEM_BOND_DEF_STEREO_COUNT>
0

> <PUBCHEM_BOND_UDEF_STEREO_COUNT>
0

> <PUBCHEM_ISOTOPIC_ATOM_COUNT>
0

> <PUBCHEM_COMPONENT_COUNT>
1

> <PUBCHEM_CACTVS_TAUTO_COUNT>
1

> <PUBCHEM_CONFORMER_ID>
00001E9500000001

> <PUBCHEM_MMFF94_ENERGY>
10.1936

> <PUBCHEM_FEATURE_SELFOVERLAP>
10.149

> <PUBCHEM_SHAPE_FINGERPRINT>
10066227 49 17823130284878081334
10968037 39 18413389835210907235
11315181 36 18186799172145228521
12091667 2 17846778516690690857
13533116 47 16988574541172780016
14123256 10 18410575097547987371
1420 363 15285356215005589766
14251764 18 18410292535944557472
14251764 46 17530683212554895406
15716309 27 18260831492639026671
17834076 25 18410856563940031626
18006028 8 16805324400900522113
20281389 69 18131917061433800636
20621476 8 17846219972883124423
21315763 28 18409449193462514272
22224240 67 14549016563892830064
23035841 295 17385444314720785319
23521765 1 18335421274471268353
28498 318 18333731347006833982
33684 2 18412545422385026922
42788 4 18410855464797714472
4325135 7 18410292518764681860
4463277 17 18411419509931093849
8209 1 18410856568229724165

> <PUBCHEM_SHAPE_MULTIPOLES>
305.8
25.99
0.95
0.6
0.16
0
0.01
0.08
-1.88
0
-0.01
0.01
0
-0.01

> <PUBCHEM_SHAPE_SELFOVERLAP>
567.262

> <PUBCHEM_SHAPE_VOLUME>
192.4

> <PUBCHEM_COORDINATE_TYPE>
2
5
10

$$$$

