12207
  -OEChem-06261206403D

 15 15  0     0  0  0  0  0  0999 V2000
   -3.3993   -0.0009    0.0023 I   0  0  0  0  0  0  0  0  0  0  0  0
    1.4681    0.0003   -0.0002 C   0  0  0  0  0  0  0  0  0  0  0  0
    0.7709   -1.2077   -0.0004 C   0  0  0  0  0  0  0  0  0  0  0  0
    0.7707    1.2083   -0.0005 C   0  0  0  0  0  0  0  0  0  0  0  0
    2.9595   -0.0009    0.0020 C   0  0  0  0  0  0  0  0  0  0  0  0
   -0.6240   -1.2077   -0.0010 C   0  0  0  0  0  0  0  0  0  0  0  0
   -0.6243    1.2084   -0.0010 C   0  0  0  0  0  0  0  0  0  0  0  0
   -1.3216    0.0002   -0.0013 C   0  0  0  0  0  0  0  0  0  0  0  0
    1.3032   -2.1552   -0.0017 H   0  0  0  0  0  0  0  0  0  0  0  0
    1.3028    2.1560   -0.0019 H   0  0  0  0  0  0  0  0  0  0  0  0
    3.3552    0.8887    0.5037 H   0  0  0  0  0  0  0  0  0  0  0  0
    3.3527   -0.8717    0.5374 H   0  0  0  0  0  0  0  0  0  0  0  0
    3.3365   -0.0204   -1.0253 H   0  0  0  0  0  0  0  0  0  0  0  0
   -1.1477   -2.1604   -0.0011 H   0  0  0  0  0  0  0  0  0  0  0  0
   -1.1482    2.1608   -0.0011 H   0  0  0  0  0  0  0  0  0  0  0  0
  1  8  1  0  0  0  0
  2  3  2  0  0  0  0
  2  4  1  0  0  0  0
  2  5  1  0  0  0  0
  3  6  1  0  0  0  0
  3  9  1  0  0  0  0
  4  7  2  0  0  0  0
  4 10  1  0  0  0  0
  5 11  1  0  0  0  0
  5 12  1  0  0  0  0
  5 13  1  0  0  0  0
  6  8  2  0  0  0  0
  6 14  1  0  0  0  0
  7  8  1  0  0  0  0
  7 15  1  0  0  0  0
M  END
> <PUBCHEM_COMPOUND_CID>
12207

> <PUBCHEM_CONFORMER_RMSD>
0.4

> <PUBCHEM_CONFORMER_DIVERSEORDER>
1

> <PUBCHEM_MMFF94_PARTIAL_CHARGES>
12
1 -0.08
10 0.15
14 0.15
15 0.15
2 -0.14
3 -0.15
4 -0.15
5 0.14
6 -0.15
7 -0.15
8 0.08
9 0.15

> <PUBCHEM_EFFECTIVE_ROTOR_COUNT>
0

> <PUBCHEM_PHARMACOPHORE_FEATURES>
2
1 1 hydrophobe
6 2 3 4 6 7 8 rings

> <PUBCHEM_HEAVY_ATOM_COUNT>
8

> <PUBCHEM_ATOM_DEF_STEREO_COUNT>
0

> <PUBCHEM_ATOM_UDEF_STEREO_COUNT>
0

> <PUBCHEM_BOND_DEF_STEREO_COUNT>
0

> <PUBCHEM_BOND_UDEF_STEREO_COUNT>
0

> <PUBCHEM_ISOTOPIC_ATOM_COUNT>
0

> <PUBCHEM_COMPONENT_COUNT>
1

> <PUBCHEM_CACTVS_TAUTO_COUNT>
1

> <PUBCHEM_CONFORMER_ID>
00002FAF00000001

> <PUBCHEM_MMFF94_ENERGY>
17.3039

> <PUBCHEM_FEATURE_SELFOVERLAP>
10.148

> <PUBCHEM_SHAPE_FINGERPRINT>
10219947 1 18411134740640321825
12032990 46 18410566305803004735
14325111 11 18410855443296556161
15310529 11 16630255765542147124
16945 1 18410855464512799879
193761 8 17618222144828165607
21040471 1 18266458689812241125
21293036 1 18412540998589791788
23235685 24 18410859853890281101
23402655 69 18193292982255959013
23552423 10 18056480552109532934
2748010 2 18122341272569178959
29004967 10 18343015610164395825
5084963 1 18260829306215823337

> <PUBCHEM_SHAPE_MULTIPOLES>
176.57
4.44
1.34
0.66
1.83
0
0
0
-0.01
-0.08
0
0.13
0
0

> <PUBCHEM_SHAPE_SELFOVERLAP>
340.388

> <PUBCHEM_SHAPE_VOLUME>
112.2

> <PUBCHEM_COORDINATE_TYPE>
2
5
10

$$$$

