5332
  -OEChem-06261200383D

 31 32  0     0  0  0  0  0  0999 V2000
    1.3884    2.1448   -0.1330 S   0  0  0  0  0  0  0  0  0  0  0  0
    2.3575    2.7462   -1.0417 O   0  0  0  0  0  0  0  0  0  0  0  0
    1.2351    2.7075    1.2030 O   0  0  0  0  0  0  0  0  0  0  0  0
   -3.1139   -1.6522   -1.0369 O   0  0  0  0  0  0  0  0  0  0  0  0
   -0.1412    2.1158   -0.9254 N   0  0  0  0  0  0  0  0  0  0  0  0
   -1.6564    1.6923    0.8316 N   0  0  0  0  0  0  0  0  0  0  0  0
    2.7179   -3.6285    0.3738 N   0  0  0  0  0  0  0  0  0  0  0  0
   -3.1467   -0.2005    0.7712 N   0  0  0  0  0  0  0  0  0  0  0  0
    1.7794    0.4497    0.0158 C   0  0  0  0  0  0  0  0  0  0  0  0
    2.4906   -0.1935   -0.9971 C   0  0  0  0  0  0  0  0  0  0  0  0
    1.3795   -0.2616    1.1471 C   0  0  0  0  0  0  0  0  0  0  0  0
   -1.1800    1.2963   -0.3618 C   0  0  0  0  0  0  0  0  0  0  0  0
    2.4021   -2.2594    0.2526 C   0  0  0  0  0  0  0  0  0  0  0  0
    2.8017   -1.5481   -0.8788 C   0  0  0  0  0  0  0  0  0  0  0  0
    1.6909   -1.6161    1.2655 C   0  0  0  0  0  0  0  0  0  0  0  0
   -1.6186    0.1887   -1.0474 C   0  0  0  0  0  0  0  0  0  0  0  0
   -2.6170   -0.5323   -0.4245 C   0  0  0  0  0  0  0  0  0  0  0  0
   -2.6277    0.9069    1.3350 C   0  0  0  0  0  0  0  0  0  0  0  0
   -4.1416   -2.3559   -0.3492 C   0  0  0  0  0  0  0  0  0  0  0  0
   -0.0981    2.0914   -1.9530 H   0  0  0  0  0  0  0  0  0  0  0  0
    2.8053    0.3381   -1.8906 H   0  0  0  0  0  0  0  0  0  0  0  0
    0.8244    0.2179    1.9483 H   0  0  0  0  0  0  0  0  0  0  0  0
    3.3548   -2.0387   -1.6757 H   0  0  0  0  0  0  0  0  0  0  0  0
    1.3734   -2.1594    2.1518 H   0  0  0  0  0  0  0  0  0  0  0  0
   -1.2126   -0.1044   -2.0074 H   0  0  0  0  0  0  0  0  0  0  0  0
    3.2315   -4.0965   -0.3610 H   0  0  0  0  0  0  0  0  0  0  0  0
    2.4262   -4.1448    1.1931 H   0  0  0  0  0  0  0  0  0  0  0  0
   -3.0340    1.1961    2.2964 H   0  0  0  0  0  0  0  0  0  0  0  0
   -4.4283   -3.2160   -0.9615 H   0  0  0  0  0  0  0  0  0  0  0  0
   -5.0276   -1.7262   -0.2161 H   0  0  0  0  0  0  0  0  0  0  0  0
   -3.7823   -2.7328    0.6143 H   0  0  0  0  0  0  0  0  0  0  0  0
  1  2  2  0  0  0  0
  1  3  2  0  0  0  0
  1  5  1  0  0  0  0
  1  9  1  0  0  0  0
  4 17  1  0  0  0  0
  4 19  1  0  0  0  0
  5 12  1  0  0  0  0
  5 20  1  0  0  0  0
  6 12  1  0  0  0  0
  6 18  2  0  0  0  0
  7 13  1  0  0  0  0
  7 26  1  0  0  0  0
  7 27  1  0  0  0  0
  8 17  2  0  0  0  0
  8 18  1  0  0  0  0
  9 10  2  0  0  0  0
  9 11  1  0  0  0  0
 10 14  1  0  0  0  0
 10 21  1  0  0  0  0
 11 15  2  0  0  0  0
 11 22  1  0  0  0  0
 12 16  2  0  0  0  0
 13 14  2  0  0  0  0
 13 15  1  0  0  0  0
 14 23  1  0  0  0  0
 15 24  1  0  0  0  0
 16 17  1  0  0  0  0
 16 25  1  0  0  0  0
 18 28  1  0  0  0  0
 19 29  1  0  0  0  0
 19 30  1  0  0  0  0
 19 31  1  0  0  0  0
M  END
> <PUBCHEM_COMPOUND_CID>
5332

> <PUBCHEM_CONFORMER_RMSD>
0.6

> <PUBCHEM_CONFORMER_DIVERSEORDER>
1
17
8
55
50
20
49
23
48
2
39
35
53
15
28
24
22
25
36
10
46
4
21
3
37
5
52
51
7
40
32
27
9
26
14
30
38
54
31
29
47
6
42
13
12
11
16
41
45
44
34
43
19
18
33

> <PUBCHEM_MMFF94_PARTIAL_CHARGES>
28
1 1.45
10 -0.15
11 -0.15
12 0.51
13 0.1
14 -0.15
15 -0.15
16 -0.15
17 0.39
18 0.47
19 0.28
2 -0.65
20 0.42
21 0.15
22 0.15
23 0.15
24 0.15
25 0.15
26 0.4
27 0.4
28 0.15
3 -0.65
4 -0.36
5 -0.76
6 -0.62
7 -0.9
8 -0.62
9 -0.01

> <PUBCHEM_EFFECTIVE_ROTOR_COUNT>
4

> <PUBCHEM_PHARMACOPHORE_FEATURES>
8
1 2 acceptor
1 3 acceptor
1 5 donor
1 7 cation
1 7 donor
3 6 8 18 cation
6 6 8 12 16 17 18 rings
6 9 10 11 13 14 15 rings

> <PUBCHEM_HEAVY_ATOM_COUNT>
19

> <PUBCHEM_ATOM_DEF_STEREO_COUNT>
0

> <PUBCHEM_ATOM_UDEF_STEREO_COUNT>
0

> <PUBCHEM_BOND_DEF_STEREO_COUNT>
0

> <PUBCHEM_BOND_UDEF_STEREO_COUNT>
0

> <PUBCHEM_ISOTOPIC_ATOM_COUNT>
0

> <PUBCHEM_COMPONENT_COUNT>
1

> <PUBCHEM_CACTVS_TAUTO_COUNT>
3

> <PUBCHEM_CONFORMER_ID>
000014D400000001

> <PUBCHEM_MMFF94_ENERGY>
56.4597

> <PUBCHEM_FEATURE_SELFOVERLAP>
40.613

> <PUBCHEM_SHAPE_FINGERPRINT>
11725454 13 14331119687670476262
12553582 1 18267300018055531294
12596599 1 18188196706235690291
13533116 47 18263359206101311155
14178342 30 18336277832794807864
14251757 17 17841470091700029447
14787075 74 16743406224037465081
14863182 85 17981323391674420111
15375462 189 18267850847806038760
16752209 62 17405720657836210260
16945 1 18201147815397914564
17349148 13 17344328202988576306
18522851 12 18266163105799703254
18981168 100 8285911462319215741
20291156 8 18338512070408435718
20442098 301 18261108582353914151
20645477 70 18198073490924539527
21452121 199 18128831900725957754
21634736 98 18410290294162065678
21731516 1 18340206400657272031
22445834 79 18335411353466372153
2255824 54 18269830930745568964
23419403 2 13894948973676250216
23728640 28 17116368805519897122
238 59 18128247879114206474
7097593 13 18335129947140280737
7364860 26 18334298621802567512
74978 22 18337394949699537405
81228 2 17547026568286729120
90525 40 16830088993355854496

> <PUBCHEM_SHAPE_MULTIPOLES>
357.33
5.89
3.6
1.3
4.26
0.58
0.16
4.36
-0.52
-2.05
0.04
0
-0.17
-1.01

> <PUBCHEM_SHAPE_SELFOVERLAP>
746.834

> <PUBCHEM_SHAPE_VOLUME>
202.7

> <PUBCHEM_COORDINATE_TYPE>
2
5
10

$$$$

