4257
  -OEChem-06251223592D

 69 74  0     1  0  0  0  0  0999 V2000
    3.9884   -4.7499    0.0000 Cl  0  0  0  0  0  0  0  0  0  0  0  0
    6.2874    3.1225    0.0000 O   0  0  0  0  0  0  0  0  0  0  0  0
    3.7183    3.4315    0.0000 N   0  0  3  0  0  0  0  0  0  0  0  0
    5.0274    4.3826    0.0000 N   0  0  0  0  0  0  0  0  0  0  0  0
    4.5274    0.8437    0.0000 N   0  0  0  0  0  0  0  0  0  0  0  0
    6.2594   -2.1563    0.0000 N   0  0  0  0  0  0  0  0  0  0  0  0
    4.5274    2.8437    0.0000 C   0  0  0  0  0  0  0  0  0  0  0  0
    4.0274    4.3826    0.0000 C   0  0  3  0  0  0  0  0  0  0  0  0
    3.6613    2.3437    0.0000 C   0  0  0  0  0  0  0  0  0  0  0  0
    5.3934    2.3437    0.0000 C   0  0  0  0  0  0  0  0  0  0  0  0
    2.7029    3.1993    0.0000 C   0  0  0  0  0  0  0  0  0  0  0  0
    5.3364    3.4315    0.0000 C   0  0  0  0  0  0  0  0  0  0  0  0
    3.3424    5.1673    0.0000 C   0  0  0  0  0  0  0  0  0  0  0  0
    3.6613    1.3437    0.0000 C   0  0  0  0  0  0  0  0  0  0  0  0
    5.3934    1.3437    0.0000 C   0  0  0  0  0  0  0  0  0  0  0  0
    2.0000    3.9680    0.0000 C   0  0  0  0  0  0  0  0  0  0  0  0
    2.3219    4.9586    0.0000 C   0  0  0  0  0  0  0  0  0  0  0  0
    4.5274   -0.1563    0.0000 C   0  0  0  0  0  0  0  0  0  0  0  0
    5.3934   -0.6563    0.0000 C   0  0  0  0  0  0  0  0  0  0  0  0
    5.3934   -1.6563    0.0000 C   0  0  0  0  0  0  0  0  0  0  0  0
    6.1847   -3.1535    0.0000 C   0  0  0  0  0  0  0  0  0  0  0  0
    7.0856   -1.5930    0.0000 C   0  0  0  0  0  0  0  0  0  0  0  0
    6.9177   -3.8336    0.0000 C   0  0  0  0  0  0  0  0  0  0  0  0
    8.0412   -1.8877    0.0000 C   0  0  0  0  0  0  0  0  0  0  0  0
    7.9066   -3.6846    0.0000 C   0  0  0  0  0  0  0  0  0  0  0  0
    8.4066   -2.8186    0.0000 C   0  0  0  0  0  0  0  0  0  0  0  0
    5.1847   -3.4451    0.0000 C   0  0  0  0  0  0  0  0  0  0  0  0
    6.8382   -0.5811    0.0000 C   0  0  0  0  0  0  0  0  0  0  0  0
    6.7016   -4.8526    0.0000 C   0  0  0  0  0  0  0  0  0  0  0  0
    8.8156   -1.1911    0.0000 C   0  0  0  0  0  0  0  0  0  0  0  0
    4.9451   -4.4588    0.0000 C   0  0  0  0  0  0  0  0  0  0  0  0
    7.5963    0.1332    0.0000 C   0  0  0  0  0  0  0  0  0  0  0  0
    5.7087   -5.1673    0.0000 C   0  0  0  0  0  0  0  0  0  0  0  0
    8.5917   -0.1738    0.0000 C   0  0  0  0  0  0  0  0  0  0  0  0
    4.2839    4.9470    0.0000 H   0  0  0  0  0  0  0  0  0  0  0  0
    6.0040    2.2361    0.0000 H   0  0  0  0  0  0  0  0  0  0  0  0
    5.6054    2.9263    0.0000 H   0  0  0  0  0  0  0  0  0  0  0  0
    3.4493    2.9263    0.0000 H   0  0  0  0  0  0  0  0  0  0  0  0
    3.0508    2.2361    0.0000 H   0  0  0  0  0  0  0  0  0  0  0  0
    2.1806    2.8653    0.0000 H   0  0  0  0  0  0  0  0  0  0  0  0
    2.9426    2.6274    0.0000 H   0  0  0  0  0  0  0  0  0  0  0  0
    3.8724    5.4891    0.0000 H   0  0  0  0  0  0  0  0  0  0  0  0
    3.1160    5.7445    0.0000 H   0  0  0  0  0  0  0  0  0  0  0  0
    5.6054    0.7611    0.0000 H   0  0  0  0  0  0  0  0  0  0  0  0
    6.0040    1.4514    0.0000 H   0  0  0  0  0  0  0  0  0  0  0  0
    3.0508    1.4514    0.0000 H   0  0  0  0  0  0  0  0  0  0  0  0
    3.4493    0.7611    0.0000 H   0  0  0  0  0  0  0  0  0  0  0  0
    5.3918    4.8842    0.0000 H   0  0  0  0  0  0  0  0  0  0  0  0
    1.4518    4.2576    0.0000 H   0  0  0  0  0  0  0  0  0  0  0  0
    1.6208    3.4774    0.0000 H   0  0  0  0  0  0  0  0  0  0  0  0
    2.3034    5.5783    0.0000 H   0  0  0  0  0  0  0  0  0  0  0  0
    1.7081    5.0465    0.0000 H   0  0  0  0  0  0  0  0  0  0  0  0
    3.9168   -0.0486    0.0000 H   0  0  0  0  0  0  0  0  0  0  0  0
    4.3153   -0.7389    0.0000 H   0  0  0  0  0  0  0  0  0  0  0  0
    6.0040   -0.7639    0.0000 H   0  0  0  0  0  0  0  0  0  0  0  0
    5.6054   -0.0737    0.0000 H   0  0  0  0  0  0  0  0  0  0  0  0
    4.7828   -1.5486    0.0000 H   0  0  0  0  0  0  0  0  0  0  0  0
    5.1813   -2.2389    0.0000 H   0  0  0  0  0  0  0  0  0  0  0  0
    7.8602   -4.3029    0.0000 H   0  0  0  0  0  0  0  0  0  0  0  0
    8.4990   -3.8674    0.0000 H   0  0  0  0  0  0  0  0  0  0  0  0
    8.8611   -3.2403    0.0000 H   0  0  0  0  0  0  0  0  0  0  0  0
    8.9188   -2.4693    0.0000 H   0  0  0  0  0  0  0  0  0  0  0  0
    4.7351   -3.0182    0.0000 H   0  0  0  0  0  0  0  0  0  0  0  0
    6.2437   -0.4052    0.0000 H   0  0  0  0  0  0  0  0  0  0  0  0
    7.1610   -5.2690    0.0000 H   0  0  0  0  0  0  0  0  0  0  0  0
    9.4059   -1.3807    0.0000 H   0  0  0  0  0  0  0  0  0  0  0  0
    7.4560    0.7371    0.0000 H   0  0  0  0  0  0  0  0  0  0  0  0
    5.5730   -5.7723    0.0000 H   0  0  0  0  0  0  0  0  0  0  0  0
    9.0478    0.2461    0.0000 H   0  0  0  0  0  0  0  0  0  0  0  0
  1 31  1  0  0  0  0
  2 12  2  0  0  0  0
  3  7  1  0  0  0  0
  3  8  1  0  0  0  0
  3 11  1  0  0  0  0
  4  8  1  0  0  0  0
  4 12  1  0  0  0  0
  4 48  1  0  0  0  0
  5 14  1  0  0  0  0
  5 15  1  0  0  0  0
  5 18  1  0  0  0  0
  6 20  1  0  0  0  0
  6 21  1  0  0  0  0
  6 22  1  0  0  0  0
  7  9  1  0  0  0  0
  7 10  1  0  0  0  0
  7 12  1  0  0  0  0
  8 13  1  0  0  0  0
  8 35  1  0  0  0  0
  9 14  1  0  0  0  0
  9 38  1  0  0  0  0
  9 39  1  0  0  0  0
 10 15  1  0  0  0  0
 10 36  1  0  0  0  0
 10 37  1  0  0  0  0
 11 16  1  0  0  0  0
 11 40  1  0  0  0  0
 11 41  1  0  0  0  0
 13 17  1  0  0  0  0
 13 42  1  0  0  0  0
 13 43  1  0  0  0  0
 14 46  1  0  0  0  0
 14 47  1  0  0  0  0
 15 44  1  0  0  0  0
 15 45  1  0  0  0  0
 16 17  1  0  0  0  0
 16 49  1  0  0  0  0
 16 50  1  0  0  0  0
 17 51  1  0  0  0  0
 17 52  1  0  0  0  0
 18 19  1  0  0  0  0
 18 53  1  0  0  0  0
 18 54  1  0  0  0  0
 19 20  1  0  0  0  0
 19 55  1  0  0  0  0
 19 56  1  0  0  0  0
 20 57  1  0  0  0  0
 20 58  1  0  0  0  0
 21 23  2  0  0  0  0
 21 27  1  0  0  0  0
 22 24  1  0  0  0  0
 22 28  2  0  0  0  0
 23 25  1  0  0  0  0
 23 29  1  0  0  0  0
 24 26  1  0  0  0  0
 24 30  2  0  0  0  0
 25 26  1  0  0  0  0
 25 59  1  0  0  0  0
 25 60  1  0  0  0  0
 26 61  1  0  0  0  0
 26 62  1  0  0  0  0
 27 31  2  0  0  0  0
 27 63  1  0  0  0  0
 28 32  1  0  0  0  0
 28 64  1  0  0  0  0
 29 33  2  0  0  0  0
 29 65  1  0  0  0  0
 30 34  1  0  0  0  0
 30 66  1  0  0  0  0
 31 33  1  0  0  0  0
 32 34  2  0  0  0  0
 32 67  1  0  0  0  0
 33 68  1  0  0  0  0
 34 69  1  0  0  0  0
M  END
> <PUBCHEM_COMPOUND_CID>
4257

> <PUBCHEM_COMPOUND_CANONICALIZED>
1

> <PUBCHEM_CACTVS_COMPLEXITY>
725

> <PUBCHEM_CACTVS_HBOND_ACCEPTOR>
4

> <PUBCHEM_CACTVS_HBOND_DONOR>
1

> <PUBCHEM_CACTVS_ROTATABLE_BOND>
4

> <PUBCHEM_CACTVS_SUBSKEYS>
AAADcfB7oAAEAAAAAAAAAAAAAAAAAWAAAAA8eIEABYAAAFgBQAAAHgIQAAAADIrBmCQxwIPAAACIAiVSUACCAAAhBwAIiIGIZoiIYHLB07GUIAholwLIyAcUgMAOBAAAAAICAAAIAAAABAQAAAAAAAAAAA==

> <PUBCHEM_IUPAC_OPENEYE_NAME>
1'-[3-(2-chloro-5,6-dihydrobenzo[b][1]benzazepin-11-yl)propyl]spiro[1,5,6,7,8,8a-hexahydroimidazo[1,2-a]pyridine-3,4'-piperidine]-2-one

> <PUBCHEM_IUPAC_CAS_NAME>
1'-[3-(2-chloro-5,6-dihydrobenzo[b][1]benzazepin-11-yl)propyl]-2-spiro[1,5,6,7,8,8a-hexahydroimidazo[1,2-a]pyridine-3,4'-piperidine]one

> <PUBCHEM_IUPAC_NAME>
1'-[3-(2-chloro-5,6-dihydrobenzo[b][1]benzazepin-11-yl)propyl]spiro[1,5,6,7,8,8a-hexahydroimidazo[1,2-a]pyridine-3,4'-piperidine]-2-one

> <PUBCHEM_IUPAC_SYSTEMATIC_NAME>
1'-[3-(2-chloranyl-5,6-dihydrobenzo[b][1]benzazepin-11-yl)propyl]spiro[1,5,6,7,8,8a-hexahydroimidazo[1,2-a]pyridine-3,4'-piperidine]-2-one

> <PUBCHEM_IUPAC_TRADITIONAL_NAME>
1'-[3-(2-chloro-5,6-dihydrobenzo[b][1]benzazepin-11-yl)propyl]spiro[1,5,6,7,8,8a-hexahydroimidazo[1,2-a]pyridine-3,4'-piperidine]-2-one

> <PUBCHEM_IUPAC_INCHI>
InChI=1S/C28H35ClN4O/c29-23-12-11-22-10-9-21-6-1-2-7-24(21)32(25(22)20-23)16-5-15-31-18-13-28(14-19-31)27(34)30-26-8-3-4-17-33(26)28/h1-2,6-7,11-12,20,26H,3-5,8-10,13-19H2,(H,30,34)

> <PUBCHEM_IUPAC_INCHIKEY>
PXUIZULXJVRBPC-UHFFFAOYSA-N

> <PUBCHEM_XLOGP3_AA>
5.4

> <PUBCHEM_EXACT_MASS>
478.249939

> <PUBCHEM_MOLECULAR_FORMULA>
C28H35ClN4O

> <PUBCHEM_MOLECULAR_WEIGHT>
479.0567

> <PUBCHEM_OPENEYE_CAN_SMILES>
C1CCN2C(C1)NC(=O)C23CCN(CC3)CCCN4C5=CC=CC=C5CCC6=C4C=C(C=C6)Cl

> <PUBCHEM_OPENEYE_ISO_SMILES>
C1CCN2C(C1)NC(=O)C23CCN(CC3)CCCN4C5=CC=CC=C5CCC6=C4C=C(C=C6)Cl

> <PUBCHEM_CACTVS_TPSA>
38.8

> <PUBCHEM_MONOISOTOPIC_WEIGHT>
478.249939

> <PUBCHEM_TOTAL_CHARGE>
0

> <PUBCHEM_HEAVY_ATOM_COUNT>
34

> <PUBCHEM_ATOM_DEF_STEREO_COUNT>
0

> <PUBCHEM_ATOM_UDEF_STEREO_COUNT>
1

> <PUBCHEM_BOND_DEF_STEREO_COUNT>
0

> <PUBCHEM_BOND_UDEF_STEREO_COUNT>
0

> <PUBCHEM_ISOTOPIC_ATOM_COUNT>
0

> <PUBCHEM_COMPONENT_COUNT>
1

> <PUBCHEM_CACTVS_TAUTO_COUNT>
2

> <PUBCHEM_COORDINATE_TYPE>
1
5
255

> <PUBCHEM_BONDANNOTATIONS>
21  23  8
21  27  8
22  24  8
22  28  8
23  29  8
24  30  8
27  31  8
28  32  8
29  33  8
30  34  8
31  33  8
32  34  8
8  13  3

$$$$

