3478
  -OEChem-06251223263D

 58 60  0     0  0  0  0  0  0999 V2000
   -4.0331    0.0044   -0.7568 S   0  0  0  0  0  0  0  0  0  0  0  0
   -1.6382   -1.6511   -1.8388 O   0  0  0  0  0  0  0  0  0  0  0  0
   -4.0561   -0.1147   -2.2019 O   0  0  0  0  0  0  0  0  0  0  0  0
   -5.2662    0.1754   -0.0133 O   0  0  0  0  0  0  0  0  0  0  0  0
    1.5758    1.5851    2.1877 O   0  0  0  0  0  0  0  0  0  0  0  0
   -1.5384   -2.9908    0.0423 N   0  0  0  0  0  0  0  0  0  0  0  0
   -3.1521   -1.3025   -0.0948 N   0  0  0  0  0  0  0  0  0  0  0  0
    1.6394    3.3603    0.6960 N   0  0  0  0  0  0  0  0  0  0  0  0
    3.2639    1.8965   -0.8895 N   0  0  0  0  0  0  0  0  0  0  0  0
    4.0543   -0.7117   -0.2267 N   0  0  0  0  0  0  0  0  0  0  0  0
   -0.4238   -3.8089   -0.3813 C   0  0  0  0  0  0  0  0  0  0  0  0
   -0.5431   -5.2326    0.1731 C   0  0  0  0  0  0  0  0  0  0  0  0
    0.9110   -3.1687    0.0146 C   0  0  0  0  0  0  0  0  0  0  0  0
   -0.2827   -5.2980    1.6780 C   0  0  0  0  0  0  0  0  0  0  0  0
    1.1691   -3.2375    1.5198 C   0  0  0  0  0  0  0  0  0  0  0  0
    1.0558   -4.6652    2.0459 C   0  0  0  0  0  0  0  0  0  0  0  0
   -2.0573   -1.9701   -0.7302 C   0  0  0  0  0  0  0  0  0  0  0  0
   -2.9880    1.3656   -0.3335 C   0  0  0  0  0  0  0  0  0  0  0  0
   -1.3398    3.5155    0.3326 C   0  0  0  0  0  0  0  0  0  0  0  0
   -3.1684    2.0337    0.8775 C   0  0  0  0  0  0  0  0  0  0  0  0
   -1.9835    1.7724   -1.2117 C   0  0  0  0  0  0  0  0  0  0  0  0
   -0.4576    4.6639    0.6890 C   0  0  0  0  0  0  0  0  0  0  0  0
   -2.3443    3.1085    1.2107 C   0  0  0  0  0  0  0  0  0  0  0  0
   -1.1594    2.8473   -0.8785 C   0  0  0  0  0  0  0  0  0  0  0  0
    0.8052    4.2522    1.4557 C   0  0  0  0  0  0  0  0  0  0  0  0
    1.9606    2.0805    1.1318 C   0  0  0  0  0  0  0  0  0  0  0  0
    2.8547    1.2933    0.2441 C   0  0  0  0  0  0  0  0  0  0  0  0
    3.2431    0.0123    0.5697 C   0  0  0  0  0  0  0  0  0  0  0  0
    4.4632   -0.1086   -1.3605 C   0  0  0  0  0  0  0  0  0  0  0  0
    4.0751    1.1725   -1.6861 C   0  0  0  0  0  0  0  0  0  0  0  0
    5.3607   -0.8789   -2.2651 C   0  0  0  0  0  0  0  0  0  0  0  0
   -0.4610   -3.8665   -1.4764 H   0  0  0  0  0  0  0  0  0  0  0  0
    0.1840   -5.8763   -0.3384 H   0  0  0  0  0  0  0  0  0  0  0  0
   -1.5372   -5.6427   -0.0417 H   0  0  0  0  0  0  0  0  0  0  0  0
    1.7245   -3.6906   -0.5055 H   0  0  0  0  0  0  0  0  0  0  0  0
    0.9474   -2.1227   -0.3123 H   0  0  0  0  0  0  0  0  0  0  0  0
   -0.2932   -6.3445    2.0038 H   0  0  0  0  0  0  0  0  0  0  0  0
   -1.0893   -4.7930    2.2221 H   0  0  0  0  0  0  0  0  0  0  0  0
    2.1699   -2.8499    1.7386 H   0  0  0  0  0  0  0  0  0  0  0  0
    0.4561   -2.5932    2.0481 H   0  0  0  0  0  0  0  0  0  0  0  0
    1.8709   -5.2713    1.6314 H   0  0  0  0  0  0  0  0  0  0  0  0
    1.1787   -4.6682    3.1348 H   0  0  0  0  0  0  0  0  0  0  0  0
   -1.9318   -3.1369    0.9667 H   0  0  0  0  0  0  0  0  0  0  0  0
   -3.4647   -1.6596    0.8170 H   0  0  0  0  0  0  0  0  0  0  0  0
   -0.1716    5.1998   -0.2259 H   0  0  0  0  0  0  0  0  0  0  0  0
   -1.0198    5.3910    1.2890 H   0  0  0  0  0  0  0  0  0  0  0  0
   -3.9391    1.7291    1.5799 H   0  0  0  0  0  0  0  0  0  0  0  0
   -1.8232    1.2644   -2.1582 H   0  0  0  0  0  0  0  0  0  0  0  0
   -2.4921    3.6184    2.1590 H   0  0  0  0  0  0  0  0  0  0  0  0
   -0.3809    3.1534   -1.5725 H   0  0  0  0  0  0  0  0  0  0  0  0
    0.5357    3.7960    2.4147 H   0  0  0  0  0  0  0  0  0  0  0  0
    1.4054    5.1429    1.6700 H   0  0  0  0  0  0  0  0  0  0  0  0
    2.0332    3.7002   -0.1769 H   0  0  0  0  0  0  0  0  0  0  0  0
    2.9266   -0.4847    1.4785 H   0  0  0  0  0  0  0  0  0  0  0  0
    4.3994    1.6643   -2.5955 H   0  0  0  0  0  0  0  0  0  0  0  0
    4.8942   -1.0055   -3.2471 H   0  0  0  0  0  0  0  0  0  0  0  0
    5.5676   -1.8744   -1.8587 H   0  0  0  0  0  0  0  0  0  0  0  0
    6.3159   -0.3588   -2.3875 H   0  0  0  0  0  0  0  0  0  0  0  0
  1  3  2  0  0  0  0
  1  4  2  0  0  0  0
  1  7  1  0  0  0  0
  1 18  1  0  0  0  0
  2 17  2  0  0  0  0
  5 26  2  0  0  0  0
  6 11  1  0  0  0  0
  6 17  1  0  0  0  0
  6 43  1  0  0  0  0
  7 17  1  0  0  0  0
  7 44  1  0  0  0  0
  8 25  1  0  0  0  0
  8 26  1  0  0  0  0
  8 53  1  0  0  0  0
  9 27  2  0  0  0  0
  9 30  1  0  0  0  0
 10 28  2  0  0  0  0
 10 29  1  0  0  0  0
 11 12  1  0  0  0  0
 11 13  1  0  0  0  0
 11 32  1  0  0  0  0
 12 14  1  0  0  0  0
 12 33  1  0  0  0  0
 12 34  1  0  0  0  0
 13 15  1  0  0  0  0
 13 35  1  0  0  0  0
 13 36  1  0  0  0  0
 14 16  1  0  0  0  0
 14 37  1  0  0  0  0
 14 38  1  0  0  0  0
 15 16  1  0  0  0  0
 15 39  1  0  0  0  0
 15 40  1  0  0  0  0
 16 41  1  0  0  0  0
 16 42  1  0  0  0  0
 18 20  2  0  0  0  0
 18 21  1  0  0  0  0
 19 22  1  0  0  0  0
 19 23  2  0  0  0  0
 19 24  1  0  0  0  0
 20 23  1  0  0  0  0
 20 47  1  0  0  0  0
 21 24  2  0  0  0  0
 21 48  1  0  0  0  0
 22 25  1  0  0  0  0
 22 45  1  0  0  0  0
 22 46  1  0  0  0  0
 23 49  1  0  0  0  0
 24 50  1  0  0  0  0
 25 51  1  0  0  0  0
 25 52  1  0  0  0  0
 26 27  1  0  0  0  0
 27 28  1  0  0  0  0
 28 54  1  0  0  0  0
 29 30  2  0  0  0  0
 29 31  1  0  0  0  0
 30 55  1  0  0  0  0
 31 56  1  0  0  0  0
 31 57  1  0  0  0  0
 31 58  1  0  0  0  0
M  END
> <PUBCHEM_COMPOUND_CID>
3478

> <PUBCHEM_CONFORMER_RMSD>
1.2

> <PUBCHEM_CONFORMER_DIVERSEORDER>
1
140
128
55
109
23
64
50
137
65
132
56
49
19
84
103
136
101
156
159
94
125
22
29
96
152
113
144
69
123
35
116
131
108
124
146
98
71
139
75
43
52
41
4
33
72
134
88
77
90
39
115
27
151
120
28
26
48
58
93
53
155
73
110
154
138
46
62
42
60
74
99
127
21
130
37
68
135
79
25
86
57
8
63
107
143
91
100
95
18
17
121
105
147
153
14
78
66
157
80
106
89
92
9
150
30
7
54
5
16
118
76
142
10
45
149
40
111
158
24
31
3
104
81
126
141
61
15
34
83
13
70
51
97
6
145
67
148
44
85
59
87
129
2
114
117
133
20
32
112
12
82
119
11
102
38
36
47
122

> <PUBCHEM_MMFF94_PARTIAL_CHARGES>
35
1 1.45
10 -0.62
11 0.3
17 0.87
18 -0.01
19 -0.14
2 -0.57
20 -0.15
21 -0.15
22 0.14
23 -0.15
24 -0.15
25 0.3
26 0.54
27 0.4
28 0.16
29 0.17
3 -0.65
30 0.16
31 0.14
4 -0.65
43 0.37
44 0.42
47 0.15
48 0.15
49 0.15
5 -0.57
50 0.15
53 0.37
54 0.15
55 0.15
6 -0.73
7 -0.79
8 -0.73
9 -0.62

> <PUBCHEM_EFFECTIVE_ROTOR_COUNT>
11.2

> <PUBCHEM_PHARMACOPHORE_FEATURES>
12
1 10 acceptor
1 2 acceptor
1 3 acceptor
1 4 acceptor
1 5 acceptor
1 6 donor
1 7 donor
1 8 donor
1 9 acceptor
6 11 12 13 14 15 16 rings
6 18 19 20 21 23 24 rings
6 9 10 27 28 29 30 rings

> <PUBCHEM_HEAVY_ATOM_COUNT>
31

> <PUBCHEM_ATOM_DEF_STEREO_COUNT>
0

> <PUBCHEM_ATOM_UDEF_STEREO_COUNT>
0

> <PUBCHEM_BOND_DEF_STEREO_COUNT>
0

> <PUBCHEM_BOND_UDEF_STEREO_COUNT>
0

> <PUBCHEM_ISOTOPIC_ATOM_COUNT>
0

> <PUBCHEM_COMPONENT_COUNT>
1

> <PUBCHEM_CACTVS_TAUTO_COUNT>
6

> <PUBCHEM_CONFORMER_ID>
00000D9600000001

> <PUBCHEM_MMFF94_ENERGY>
36.9822

> <PUBCHEM_FEATURE_SELFOVERLAP>
60.959

> <PUBCHEM_SHAPE_FINGERPRINT>
10006869 2 17901381522752490125
10838868 158 17908702831410784312
12156800 1 11256696987435747377
13122387 1 17687756351116760929
14251757 5 18266157492999874526
161222 619 16034928115646540050
17627616 140 17979630465790134430
18603816 31 15870780384627580278
19319366 153 18341044233044641804
20764821 26 18338243763864407722
20775438 99 17684392571533121471
394071 54 16323710467720258362
42626532 9 17838044915521943354
437795 70 17968922197931042398
46939830 39 16118461505758547258
474144 1 17691963087121411574
9982175 49 17767677627475783858

> <PUBCHEM_SHAPE_MULTIPOLES>
593.43
8.54
7.97
1.97
4.07
3.97
-0.11
-3.87
4.18
1.57
-4.11
0.77
0.74
-3.22

> <PUBCHEM_SHAPE_SELFOVERLAP>
1229.605

> <PUBCHEM_SHAPE_VOLUME>
337.6

> <PUBCHEM_COORDINATE_TYPE>
2
5
10

$$$$

