11342
  -OEChem-06261205333D

 27 29  0     0  0  0  0  0  0999 V2000
   -0.8805   -2.7392    0.0007 O   0  0  0  0  0  0  0  0  0  0  0  0
    2.4583    2.3167    0.0014 O   0  0  0  0  0  0  0  0  0  0  0  0
    4.5632    0.5610   -0.0006 O   0  0  0  0  0  0  0  0  0  0  0  0
    0.8835    0.4913   -0.0002 C   0  0  0  0  0  0  0  0  0  0  0  0
    0.6578   -0.9027   -0.0002 C   0  0  0  0  0  0  0  0  0  0  0  0
   -1.7609   -0.5110    0.0000 C   0  0  0  0  0  0  0  0  0  0  0  0
   -1.5352    0.8829   -0.0001 C   0  0  0  0  0  0  0  0  0  0  0  0
   -0.6614   -1.3857   -0.0001 C   0  0  0  0  0  0  0  0  0  0  0  0
   -0.2159    1.3659   -0.0002 C   0  0  0  0  0  0  0  0  0  0  0  0
    2.2030    0.9735   -0.0002 C   0  0  0  0  0  0  0  0  0  0  0  0
    1.7578   -1.7766    0.0000 C   0  0  0  0  0  0  0  0  0  0  0  0
   -3.0802   -0.9933    0.0001 C   0  0  0  0  0  0  0  0  0  0  0  0
   -2.6350    1.7568   -0.0002 C   0  0  0  0  0  0  0  0  0  0  0  0
    3.2842    0.0919   -0.0001 C   0  0  0  0  0  0  0  0  0  0  0  0
    3.0618   -1.2814   -0.0001 C   0  0  0  0  0  0  0  0  0  0  0  0
   -4.1615   -0.1118    0.0000 C   0  0  0  0  0  0  0  0  0  0  0  0
   -3.9391    1.2615   -0.0002 C   0  0  0  0  0  0  0  0  0  0  0  0
   -0.0541    2.4436   -0.0003 H   0  0  0  0  0  0  0  0  0  0  0  0
    1.6430   -2.8570   -0.0176 H   0  0  0  0  0  0  0  0  0  0  0  0
   -3.2916   -2.0604    0.0002 H   0  0  0  0  0  0  0  0  0  0  0  0
   -2.4848    2.8344   -0.0002 H   0  0  0  0  0  0  0  0  0  0  0  0
    3.8944   -1.9798   -0.0039 H   0  0  0  0  0  0  0  0  0  0  0  0
   -5.1766   -0.4980    0.0000 H   0  0  0  0  0  0  0  0  0  0  0  0
   -4.7803    1.9484   -0.0002 H   0  0  0  0  0  0  0  0  0  0  0  0
   -0.2151   -3.1762    0.5563 H   0  0  0  0  0  0  0  0  0  0  0  0
    3.4221    2.4495    0.0015 H   0  0  0  0  0  0  0  0  0  0  0  0
    5.1779   -0.1927   -0.0004 H   0  0  0  0  0  0  0  0  0  0  0  0
  1  8  1  0  0  0  0
  1 25  1  0  0  0  0
  2 10  1  0  0  0  0
  2 26  1  0  0  0  0
  3 14  1  0  0  0  0
  3 27  1  0  0  0  0
  4  5  1  0  0  0  0
  4  9  2  0  0  0  0
  4 10  1  0  0  0  0
  5  8  2  0  0  0  0
  5 11  1  0  0  0  0
  6  7  1  0  0  0  0
  6  8  1  0  0  0  0
  6 12  2  0  0  0  0
  7  9  1  0  0  0  0
  7 13  2  0  0  0  0
  9 18  1  0  0  0  0
 10 14  2  0  0  0  0
 11 15  2  0  0  0  0
 11 19  1  0  0  0  0
 12 16  1  0  0  0  0
 12 20  1  0  0  0  0
 13 17  1  0  0  0  0
 13 21  1  0  0  0  0
 14 15  1  0  0  0  0
 15 22  1  0  0  0  0
 16 17  2  0  0  0  0
 16 23  1  0  0  0  0
 17 24  1  0  0  0  0
M  END
> <PUBCHEM_COMPOUND_CID>
11342

> <PUBCHEM_CONFORMER_RMSD>
0.4

> <PUBCHEM_CONFORMER_DIVERSEORDER>
1

> <PUBCHEM_MMFF94_PARTIAL_CHARGES>
23
1 -0.53
10 0.08
11 -0.15
12 -0.15
13 -0.15
14 0.08
15 -0.15
16 -0.15
17 -0.15
18 0.15
19 0.15
2 -0.53
20 0.15
21 0.15
22 0.15
23 0.15
24 0.15
25 0.45
26 0.45
27 0.45
3 -0.53
8 0.08
9 -0.15

> <PUBCHEM_EFFECTIVE_ROTOR_COUNT>
0

> <PUBCHEM_PHARMACOPHORE_FEATURES>
6
1 1 donor
1 2 donor
1 3 donor
6 4 5 10 11 14 15 rings
6 4 5 6 7 8 9 rings
6 6 7 12 13 16 17 rings

> <PUBCHEM_HEAVY_ATOM_COUNT>
17

> <PUBCHEM_ATOM_DEF_STEREO_COUNT>
0

> <PUBCHEM_ATOM_UDEF_STEREO_COUNT>
0

> <PUBCHEM_BOND_DEF_STEREO_COUNT>
0

> <PUBCHEM_BOND_UDEF_STEREO_COUNT>
0

> <PUBCHEM_ISOTOPIC_ATOM_COUNT>
0

> <PUBCHEM_COMPONENT_COUNT>
1

> <PUBCHEM_CACTVS_TAUTO_COUNT>
65

> <PUBCHEM_CONFORMER_ID>
00002C4E00000001

> <PUBCHEM_MMFF94_ENERGY>
56.9417

> <PUBCHEM_FEATURE_SELFOVERLAP>
30.503

> <PUBCHEM_SHAPE_FINGERPRINT>
10411042 1 16753249641009431139
10608611 8 18411703196641940605
10616163 171 18337107852320752327
10967382 1 18410855485903240324
11132069 177 18408891753914937745
11471102 20 18410578421873780070
12251169 10 18412267220510960440
13140716 1 18122623847057537210
13221675 6 18410856564008772310
13380535 76 18409729560269142782
13583140 156 16916798361618204857
13897977 150 18411140264021154965
14144814 61 18411138068981532985
14325111 11 18410855490393568321
15196674 1 18410574028111732071
15219456 202 18410291449507787447
15309172 13 18410003356250276435
15442244 35 18193838377712215746
15536298 74 18334576884180592566
15775835 57 18413103991477042029
16945 1 18338797805987156422
1813 80 16915665998450726858
18186145 218 18262513809648369917
193761 8 17906453229786631233
200 152 18113627789612769013
20510252 161 18260828236869414617
20645477 70 18263365944124179663
21267235 1 18410565180595406711
21501502 16 18337676317001190383
221490 88 18412254034745382802
2334 1 18410856559935253633
23402539 116 18334304153525064885
23402655 69 18334863865421570901
23463225 33 18341050804091384061
23559900 14 18261674865719084278
238 59 16260428681853054957
2748010 2 18411697716400489799
335352 9 18122626325264229527
474 4 17273971338231348772
5104073 3 18411138073271239362
528886 8 18410579508500538475
53812653 166 18407763646500530008
54173680 148 18124031230826982563
69090 78 18408326579332136751
7364860 26 18263644129293110814
8809292 202 18271521996624425827
9709674 26 18409162195073737926

> <PUBCHEM_SHAPE_MULTIPOLES>
332.24
7.05
2.25
0.6
0.1
0.36
0
-1.54
0
-0.18
0
0.04
0
0

> <PUBCHEM_SHAPE_SELFOVERLAP>
756.836

> <PUBCHEM_SHAPE_VOLUME>
173.7

> <PUBCHEM_COORDINATE_TYPE>
2
5
10

$$$$

