12471
  -OEChem-06261206583D

 14 14  0     0  0  0  0  0  0999 V2000
    1.2442   -2.7295    0.0003 Cl  0  0  0  0  0  0  0  0  0  0  0  0
    1.2447    2.7293    0.0003 Cl  0  0  0  0  0  0  0  0  0  0  0  0
   -3.3891    0.0002    0.0007 Cl  0  0  0  0  0  0  0  0  0  0  0  0
    2.5381   -0.0002    0.0002 N   0  0  0  0  0  0  0  0  0  0  0  0
    1.1220   -0.0001   -0.0001 C   0  0  0  0  0  0  0  0  0  0  0  0
    0.4243   -1.2081   -0.0002 C   0  0  0  0  0  0  0  0  0  0  0  0
    0.4246    1.2080   -0.0002 C   0  0  0  0  0  0  0  0  0  0  0  0
   -0.9706   -1.2078   -0.0003 C   0  0  0  0  0  0  0  0  0  0  0  0
   -0.9704    1.2080   -0.0003 C   0  0  0  0  0  0  0  0  0  0  0  0
   -1.6679    0.0001   -0.0004 C   0  0  0  0  0  0  0  0  0  0  0  0
   -1.5168   -2.1488   -0.0002 H   0  0  0  0  0  0  0  0  0  0  0  0
   -1.5165    2.1490   -0.0002 H   0  0  0  0  0  0  0  0  0  0  0  0
    3.0416   -0.8772   -0.0006 H   0  0  0  0  0  0  0  0  0  0  0  0
    3.0417    0.8767   -0.0002 H   0  0  0  0  0  0  0  0  0  0  0  0
  1  6  1  0  0  0  0
  2  7  1  0  0  0  0
  3 10  1  0  0  0  0
  4  5  1  0  0  0  0
  4 13  1  0  0  0  0
  4 14  1  0  0  0  0
  5  6  2  0  0  0  0
  5  7  1  0  0  0  0
  6  8  1  0  0  0  0
  7  9  2  0  0  0  0
  8 10  2  0  0  0  0
  8 11  1  0  0  0  0
  9 10  1  0  0  0  0
  9 12  1  0  0  0  0
M  END
> <PUBCHEM_COMPOUND_CID>
12471

> <PUBCHEM_CONFORMER_RMSD>
0.4

> <PUBCHEM_CONFORMER_DIVERSEORDER>
1

> <PUBCHEM_MMFF94_PARTIAL_CHARGES>
14
1 -0.18
10 0.18
11 0.15
12 0.15
13 0.4
14 0.4
2 -0.18
3 -0.18
4 -0.9
5 0.1
6 0.18
7 0.18
8 -0.15
9 -0.15

> <PUBCHEM_EFFECTIVE_ROTOR_COUNT>
0

> <PUBCHEM_PHARMACOPHORE_FEATURES>
3
1 4 cation
1 4 donor
6 5 6 7 8 9 10 rings

> <PUBCHEM_HEAVY_ATOM_COUNT>
10

> <PUBCHEM_ATOM_DEF_STEREO_COUNT>
0

> <PUBCHEM_ATOM_UDEF_STEREO_COUNT>
0

> <PUBCHEM_BOND_DEF_STEREO_COUNT>
0

> <PUBCHEM_BOND_UDEF_STEREO_COUNT>
0

> <PUBCHEM_ISOTOPIC_ATOM_COUNT>
0

> <PUBCHEM_COMPONENT_COUNT>
1

> <PUBCHEM_CACTVS_TAUTO_COUNT>
1

> <PUBCHEM_CONFORMER_ID>
000030B700000001

> <PUBCHEM_MMFF94_ENERGY>
30.8732

> <PUBCHEM_FEATURE_SELFOVERLAP>
15.223

> <PUBCHEM_SHAPE_FINGERPRINT>
1 1 18339081488782694855
12423570 1 8209289778260622015
13380535 76 17903925456775696396
13380536 305 18338509733930266141
161256 15 18191865849726057182
16945 1 18410856564166845957
18185500 45 18337391650874276255
193761 8 17762338419689061380
20871998 184 17395869016492554303
21040471 1 17906170650866435301
2334 1 17978510828108937991
23552423 10 17983286320541138334
23559900 14 17830436295206602316
241688 4 17906450279001641985
2748010 2 18052252903977936655
29004967 10 18341889731711329667
5084963 1 18113898208731632561

> <PUBCHEM_SHAPE_MULTIPOLES>
206.42
3.32
2.82
0.62
2.58
0
0
0
0
-1.99
0
0.02
0
0

> <PUBCHEM_SHAPE_SELFOVERLAP>
403.919

> <PUBCHEM_SHAPE_VOLUME>
125.6

> <PUBCHEM_COORDINATE_TYPE>
2
5
10

$$$$

