6238
  -OEChem-06261201113D

 54 57  0     1  0  0  0  0  0999 V2000
   -3.4372   -0.2001   -1.9123 O   0  0  0  0  0  0  0  0  0  0  0  0
   -5.3533   -0.1867    0.9361 O   0  0  0  0  0  0  0  0  0  0  0  0
    6.2128   -0.2803   -1.0650 O   0  0  0  0  0  0  0  0  0  0  0  0
   -2.1622   -0.2279    0.1834 C   0  0  1  0  0  0  0  0  0  0  0  0
   -1.2919    0.9592   -0.2903 C   0  0  2  0  0  0  0  0  0  0  0  0
    0.1132    0.9587    0.3240 C   0  0  1  0  0  0  0  0  0  0  0  0
    0.8374   -0.3672   -0.0667 C   0  0  1  0  0  0  0  0  0  0  0  0
   -3.4937    0.1272   -0.5273 C   0  0  1  0  0  0  0  0  0  0  0  0
    2.3121   -0.4461    0.4881 C   0  0  2  0  0  0  0  0  0  0  0  0
   -1.4661   -1.5200   -0.2745 C   0  0  0  0  0  0  0  0  0  0  0  0
   -0.0262   -1.6152    0.2615 C   0  0  0  0  0  0  0  0  0  0  0  0
   -2.1896    2.1718   -0.0602 C   0  0  0  0  0  0  0  0  0  0  0  0
   -3.6117    1.6596   -0.3681 C   0  0  0  0  0  0  0  0  0  0  0  0
    0.9329    2.1648   -0.1530 C   0  0  0  0  0  0  0  0  0  0  0  0
   -2.3685   -0.2655    1.7231 C   0  0  0  0  0  0  0  0  0  0  0  0
    3.0581    0.8502    0.1464 C   0  0  0  0  0  0  0  0  0  0  0  0
    2.3367    2.1449    0.4378 C   0  0  0  0  0  0  0  0  0  0  0  0
    3.0216   -1.6598   -0.1802 C   0  0  0  0  0  0  0  0  0  0  0  0
    2.3434   -0.6307    2.0222 C   0  0  0  0  0  0  0  0  0  0  0  0
   -4.6824   -0.6196    0.0004 C   0  0  0  0  0  0  0  0  0  0  0  0
    4.5349   -1.6393   -0.0315 C   0  0  0  0  0  0  0  0  0  0  0  0
    4.2998    0.8898   -0.3654 C   0  0  0  0  0  0  0  0  0  0  0  0
    5.0958   -0.3443   -0.5557 C   0  0  0  0  0  0  0  0  0  0  0  0
   -5.0159   -1.9235   -0.6728 C   0  0  0  0  0  0  0  0  0  0  0  0
   -1.1555    0.8817   -1.3816 H   0  0  0  0  0  0  0  0  0  0  0  0
    0.0298    1.0283    1.4138 H   0  0  0  0  0  0  0  0  0  0  0  0
    0.9206   -0.3495   -1.1659 H   0  0  0  0  0  0  0  0  0  0  0  0
   -1.4261   -1.5743   -1.3692 H   0  0  0  0  0  0  0  0  0  0  0  0
   -2.0254   -2.3999    0.0623 H   0  0  0  0  0  0  0  0  0  0  0  0
   -0.0567   -1.7847    1.3421 H   0  0  0  0  0  0  0  0  0  0  0  0
    0.4296   -2.5103   -0.1760 H   0  0  0  0  0  0  0  0  0  0  0  0
   -1.9219    3.0089   -0.7132 H   0  0  0  0  0  0  0  0  0  0  0  0
   -2.1267    2.5272    0.9745 H   0  0  0  0  0  0  0  0  0  0  0  0
   -4.2796    1.9624    0.4453 H   0  0  0  0  0  0  0  0  0  0  0  0
   -3.9829    2.1315   -1.2852 H   0  0  0  0  0  0  0  0  0  0  0  0
    0.4407    3.0981    0.1441 H   0  0  0  0  0  0  0  0  0  0  0  0
    0.9929    2.1718   -1.2492 H   0  0  0  0  0  0  0  0  0  0  0  0
   -2.9446   -1.1514    2.0145 H   0  0  0  0  0  0  0  0  0  0  0  0
   -1.4274   -0.3143    2.2767 H   0  0  0  0  0  0  0  0  0  0  0  0
   -2.9066    0.6110    2.0979 H   0  0  0  0  0  0  0  0  0  0  0  0
    2.2792    2.2827    1.5246 H   0  0  0  0  0  0  0  0  0  0  0  0
    2.8925    3.0069    0.0489 H   0  0  0  0  0  0  0  0  0  0  0  0
    2.7872   -1.6744   -1.2539 H   0  0  0  0  0  0  0  0  0  0  0  0
    2.6459   -2.6040    0.2318 H   0  0  0  0  0  0  0  0  0  0  0  0
    1.9676   -1.6159    2.3177 H   0  0  0  0  0  0  0  0  0  0  0  0
    3.3629   -0.5478    2.4167 H   0  0  0  0  0  0  0  0  0  0  0  0
    1.7411    0.1199    2.5431 H   0  0  0  0  0  0  0  0  0  0  0  0
   -4.1992    0.2104   -2.3558 H   0  0  0  0  0  0  0  0  0  0  0  0
    4.9636   -2.4639   -0.6118 H   0  0  0  0  0  0  0  0  0  0  0  0
    4.8437   -1.7605    1.0115 H   0  0  0  0  0  0  0  0  0  0  0  0
    4.7906    1.8268   -0.6065 H   0  0  0  0  0  0  0  0  0  0  0  0
   -5.4962   -1.7357   -1.6362 H   0  0  0  0  0  0  0  0  0  0  0  0
   -4.1254   -2.5391   -0.8066 H   0  0  0  0  0  0  0  0  0  0  0  0
   -5.7138   -2.4818   -0.0412 H   0  0  0  0  0  0  0  0  0  0  0  0
  1  8  1  0  0  0  0
  1 48  1  0  0  0  0
  2 20  2  0  0  0  0
  3 23  2  0  0  0  0
  4  5  1  0  0  0  0
  4  8  1  0  0  0  0
  4 10  1  0  0  0  0
  4 15  1  0  0  0  0
  5  6  1  0  0  0  0
  5 12  1  0  0  0  0
  5 25  1  0  0  0  0
  6  7  1  0  0  0  0
  6 14  1  0  0  0  0
  6 26  1  0  0  0  0
  7  9  1  0  0  0  0
  7 11  1  0  0  0  0
  7 27  1  0  0  0  0
  8 13  1  0  0  0  0
  8 20  1  0  0  0  0
  9 16  1  0  0  0  0
  9 18  1  0  0  0  0
  9 19  1  0  0  0  0
 10 11  1  0  0  0  0
 10 28  1  0  0  0  0
 10 29  1  0  0  0  0
 11 30  1  0  0  0  0
 11 31  1  0  0  0  0
 12 13  1  0  0  0  0
 12 32  1  0  0  0  0
 12 33  1  0  0  0  0
 13 34  1  0  0  0  0
 13 35  1  0  0  0  0
 14 17  1  0  0  0  0
 14 36  1  0  0  0  0
 14 37  1  0  0  0  0
 15 38  1  0  0  0  0
 15 39  1  0  0  0  0
 15 40  1  0  0  0  0
 16 17  1  0  0  0  0
 16 22  2  0  0  0  0
 17 41  1  0  0  0  0
 17 42  1  0  0  0  0
 18 21  1  0  0  0  0
 18 43  1  0  0  0  0
 18 44  1  0  0  0  0
 19 45  1  0  0  0  0
 19 46  1  0  0  0  0
 19 47  1  0  0  0  0
 20 24  1  0  0  0  0
 21 23  1  0  0  0  0
 21 49  1  0  0  0  0
 21 50  1  0  0  0  0
 22 23  1  0  0  0  0
 22 51  1  0  0  0  0
 24 52  1  0  0  0  0
 24 53  1  0  0  0  0
 24 54  1  0  0  0  0
M  END
> <PUBCHEM_COMPOUND_CID>
6238

> <PUBCHEM_CONFORMER_RMSD>
0.6

> <PUBCHEM_CONFORMER_DIVERSEORDER>
2
1
3

> <PUBCHEM_MMFF94_PARTIAL_CHARGES>
14
1 -0.68
16 -0.28
17 0.14
2 -0.57
20 0.45
21 0.06
22 -0.14
23 0.49
24 0.06
3 -0.57
48 0.4
51 0.15
8 0.34
9 0.14

> <PUBCHEM_EFFECTIVE_ROTOR_COUNT>
2.8

> <PUBCHEM_PHARMACOPHORE_FEATURES>
8
1 1 acceptor
1 1 donor
1 2 acceptor
1 3 acceptor
5 4 5 8 12 13 rings
6 4 5 6 7 10 11 rings
6 6 7 9 14 16 17 rings
6 9 16 18 21 22 23 rings

> <PUBCHEM_HEAVY_ATOM_COUNT>
24

> <PUBCHEM_ATOM_DEF_STEREO_COUNT>
6

> <PUBCHEM_ATOM_UDEF_STEREO_COUNT>
0

> <PUBCHEM_BOND_DEF_STEREO_COUNT>
0

> <PUBCHEM_BOND_UDEF_STEREO_COUNT>
0

> <PUBCHEM_ISOTOPIC_ATOM_COUNT>
0

> <PUBCHEM_COMPONENT_COUNT>
1

> <PUBCHEM_CACTVS_TAUTO_COUNT>
10

> <PUBCHEM_CONFORMER_ID>
0000185E00000002

> <PUBCHEM_MMFF94_ENERGY>
76.5344

> <PUBCHEM_FEATURE_SELFOVERLAP>
40.688

> <PUBCHEM_SHAPE_FINGERPRINT>
10366900 7 17775567524345473697
10498660 4 17417540197412826324
11089746 13 12391511958042670470
12011746 2 18343864415713230351
12166972 35 18040995111785063904
12236239 1 17676482826553452625
12403259 226 18409175402303992241
12403259 415 18334864925983288761
12553582 1 18409741654886310384
12596602 18 16950564354990774890
12633257 1 14057009308034443748
12788726 201 18268151044377148265
12916754 54 18334016060494393697
13140716 1 18122915230507988545
13224815 77 18060140954982866793
13288520 33 18260826011970658597
13533116 47 17968377819015405169
13583140 156 16486970678611991072
13862211 1 18410859862897232946
15196674 1 18411420639270089892
15536298 74 18334582308793028200
15788980 27 18411139155602977492
16752209 62 18339090383623288408
16945 1 18337682948467579777
17349148 13 17967250884042387111
1813 80 18041264548316674716
18186145 218 17989215875233318485
18681886 176 18408888426285889600
19591789 44 18411421743018682158
19862831 5 18341896307417133368
200 152 18113900467889750416
20028762 73 18114188488656025655
20645477 70 18341055116623937452
20871999 31 18341331175546401260
21033648 29 18059587870691007613
21267235 1 18410004429548975590
221357 26 18410577288018478509
221490 88 18340202973336563042
22393880 68 18271255992135635637
22950370 63 18334855025983015781
23402539 116 18334860540779072284
23522609 53 18120340286019720457
23559900 14 18335991882372919329
2871803 45 18202568362724540648
296302 2 13830131697992728776
3004659 81 18200871898768501758
335352 9 18409730673546491485
350125 39 18410570725809863425
4214541 1 18410012169175189901
4280585 95 17471006356123744518
465052 167 18260824860946044095
474 4 17131823228176201916
5104073 3 18410015471904860072
542803 24 17918274263816888567
7495541 125 17531250521916122050
9709674 26 18342177713547617529

> <PUBCHEM_SHAPE_MULTIPOLES>
476.3
11.37
2.15
1.18
2.22
0.55
0.31
-3.17
-2.53
-0.13
-0.12
-0.21
-0.2
-0.08

> <PUBCHEM_SHAPE_SELFOVERLAP>
1025.436

> <PUBCHEM_SHAPE_VOLUME>
260.9

> <PUBCHEM_COORDINATE_TYPE>
2
5
10

$$$$

