4428
  -OEChem-06261200073D

 48 53  0     1  0  0  0  0  0999 V2000
    2.5701   -0.1474   -1.4943 O   0  0  0  0  0  0  0  0  0  0  0  0
   -0.7554    2.7236   -0.1283 O   0  0  0  0  0  0  0  0  0  0  0  0
    3.9503    1.8098   -0.2409 O   0  0  0  0  0  0  0  0  0  0  0  0
    3.7974   -2.7065   -0.8006 O   0  0  0  0  0  0  0  0  0  0  0  0
   -2.3437    0.4910    0.0675 N   0  0  1  0  0  0  0  0  0  0  0  0
    0.4793    0.6630   -0.5907 C   0  0  2  0  0  0  0  0  0  0  0  0
   -0.1622    1.5625    0.4769 C   0  0  2  0  0  0  0  0  0  0  0  0
   -1.3191    0.7237    1.1198 C   0  0  2  0  0  0  0  0  0  0  0  0
    1.8418    1.0796   -1.1673 C   0  0  1  0  0  0  0  0  0  0  0  0
   -0.5611    0.3389   -1.6884 C   0  0  0  0  0  0  0  0  0  0  0  0
    0.9350   -0.6117    0.0322 C   0  0  0  0  0  0  0  0  0  0  0  0
    0.8697    2.0865    1.4913 C   0  0  0  0  0  0  0  0  0  0  0  0
   -1.8595   -0.2475   -1.1032 C   0  0  0  0  0  0  0  0  0  0  0  0
   -0.7975   -0.5838    1.8143 C   0  0  0  0  0  0  0  0  0  0  0  0
    0.3428   -1.2598    1.0993 C   0  0  0  0  0  0  0  0  0  0  0  0
   -3.5900   -0.0703    0.5770 C   0  0  0  0  0  0  0  0  0  0  0  0
    2.0332    2.7887    0.7928 C   0  0  0  0  0  0  0  0  0  0  0  0
   -4.6962    0.0071   -0.4551 C   0  0  0  0  0  0  0  0  0  0  0  0
    2.7204    1.8659   -0.1886 C   0  0  0  0  0  0  0  0  0  0  0  0
    2.0931   -1.0534   -0.5755 C   0  0  0  0  0  0  0  0  0  0  0  0
   -6.0335   -0.5280   -0.0920 C   0  0  0  0  0  0  0  0  0  0  0  0
   -5.1667   -1.2580   -1.0757 C   0  0  0  0  0  0  0  0  0  0  0  0
    0.9192   -2.4652    1.4993 C   0  0  0  0  0  0  0  0  0  0  0  0
    2.6693   -2.2471   -0.2068 C   0  0  0  0  0  0  0  0  0  0  0  0
    2.0633   -2.9616    0.8369 C   0  0  0  0  0  0  0  0  0  0  0  0
   -1.7981    1.3456    1.8886 H   0  0  0  0  0  0  0  0  0  0  0  0
    1.7360    1.6826   -2.0761 H   0  0  0  0  0  0  0  0  0  0  0  0
   -0.8002    1.2556   -2.2436 H   0  0  0  0  0  0  0  0  0  0  0  0
   -0.1591   -0.3676   -2.4265 H   0  0  0  0  0  0  0  0  0  0  0  0
    0.3938    2.8031    2.1721 H   0  0  0  0  0  0  0  0  0  0  0  0
    1.2694    1.2775    2.1123 H   0  0  0  0  0  0  0  0  0  0  0  0
   -2.5981   -0.2225   -1.9126 H   0  0  0  0  0  0  0  0  0  0  0  0
   -1.7088   -1.3067   -0.8595 H   0  0  0  0  0  0  0  0  0  0  0  0
   -1.6053   -1.3033    1.9779 H   0  0  0  0  0  0  0  0  0  0  0  0
   -0.4329   -0.3038    2.8116 H   0  0  0  0  0  0  0  0  0  0  0  0
   -3.4630   -1.1027    0.9225 H   0  0  0  0  0  0  0  0  0  0  0  0
   -3.9226    0.5183    1.4410 H   0  0  0  0  0  0  0  0  0  0  0  0
    2.7644    3.1124    1.5417 H   0  0  0  0  0  0  0  0  0  0  0  0
    1.6959    3.6768    0.2481 H   0  0  0  0  0  0  0  0  0  0  0  0
   -4.6880    0.9195   -1.0389 H   0  0  0  0  0  0  0  0  0  0  0  0
   -6.9071   -0.0153   -0.4755 H   0  0  0  0  0  0  0  0  0  0  0  0
   -6.1711   -0.9742    0.8853 H   0  0  0  0  0  0  0  0  0  0  0  0
   -4.7306   -2.1980   -0.7613 H   0  0  0  0  0  0  0  0  0  0  0  0
   -5.4550   -1.2306   -2.1195 H   0  0  0  0  0  0  0  0  0  0  0  0
   -1.2238    3.2166    0.5668 H   0  0  0  0  0  0  0  0  0  0  0  0
    0.5035   -3.0226    2.3344 H   0  0  0  0  0  0  0  0  0  0  0  0
    2.4903   -3.9043    1.1727 H   0  0  0  0  0  0  0  0  0  0  0  0
    4.0436   -3.5545   -0.3929 H   0  0  0  0  0  0  0  0  0  0  0  0
  1  9  1  0  0  0  0
  1 20  1  0  0  0  0
  2  7  1  0  0  0  0
  2 45  1  0  0  0  0
  3 19  2  0  0  0  0
  4 24  1  0  0  0  0
  4 48  1  0  0  0  0
  5  8  1  0  0  0  0
  5 13  1  0  0  0  0
  5 16  1  0  0  0  0
  6  7  1  0  0  0  0
  6  9  1  0  0  0  0
  6 10  1  0  0  0  0
  6 11  1  0  0  0  0
  7  8  1  0  0  0  0
  7 12  1  0  0  0  0
  8 14  1  0  0  0  0
  8 26  1  0  0  0  0
  9 19  1  0  0  0  0
  9 27  1  0  0  0  0
 10 13  1  0  0  0  0
 10 28  1  0  0  0  0
 10 29  1  0  0  0  0
 11 15  2  0  0  0  0
 11 20  1  0  0  0  0
 12 17  1  0  0  0  0
 12 30  1  0  0  0  0
 12 31  1  0  0  0  0
 13 32  1  0  0  0  0
 13 33  1  0  0  0  0
 14 15  1  0  0  0  0
 14 34  1  0  0  0  0
 14 35  1  0  0  0  0
 15 23  1  0  0  0  0
 16 18  1  0  0  0  0
 16 36  1  0  0  0  0
 16 37  1  0  0  0  0
 17 19  1  0  0  0  0
 17 38  1  0  0  0  0
 17 39  1  0  0  0  0
 18 21  1  0  0  0  0
 18 22  1  0  0  0  0
 18 40  1  0  0  0  0
 20 24  2  0  0  0  0
 21 22  1  0  0  0  0
 21 41  1  0  0  0  0
 21 42  1  0  0  0  0
 22 43  1  0  0  0  0
 22 44  1  0  0  0  0
 23 25  2  0  0  0  0
 23 46  1  0  0  0  0
 24 25  1  0  0  0  0
 25 47  1  0  0  0  0
M  END
> <PUBCHEM_COMPOUND_CID>
4428

> <PUBCHEM_CONFORMER_RMSD>
0.8

> <PUBCHEM_CONFORMER_DIVERSEORDER>
1
13
7
10
5
3
2
12
4
11
9
8
14
6

> <PUBCHEM_MMFF94_PARTIAL_CHARGES>
32
1 -0.36
11 -0.14
13 0.27
14 0.14
15 -0.14
16 0.37
17 0.06
18 -0.19
19 0.45
2 -0.68
20 0.08
21 -0.2
22 -0.2
23 -0.15
24 0.08
25 -0.15
3 -0.57
4 -0.53
40 0.1
41 0.1
42 0.1
43 0.1
44 0.1
45 0.4
46 0.15
47 0.15
48 0.45
5 -0.81
6 0.14
7 0.28
8 0.27
9 0.34

> <PUBCHEM_EFFECTIVE_ROTOR_COUNT>
4

> <PUBCHEM_PHARMACOPHORE_FEATURES>
11
1 1 acceptor
1 2 acceptor
1 2 donor
1 3 acceptor
1 4 donor
1 5 cation
5 1 6 9 11 20 rings
6 11 15 20 23 24 25 rings
6 5 6 7 8 10 13 rings
6 6 7 8 11 14 15 rings
6 6 7 9 12 17 19 rings

> <PUBCHEM_HEAVY_ATOM_COUNT>
25

> <PUBCHEM_ATOM_DEF_STEREO_COUNT>
0

> <PUBCHEM_ATOM_UDEF_STEREO_COUNT>
4

> <PUBCHEM_BOND_DEF_STEREO_COUNT>
0

> <PUBCHEM_BOND_UDEF_STEREO_COUNT>
0

> <PUBCHEM_ISOTOPIC_ATOM_COUNT>
0

> <PUBCHEM_COMPONENT_COUNT>
1

> <PUBCHEM_CACTVS_TAUTO_COUNT>
9

> <PUBCHEM_CONFORMER_ID>
0000114C00000001

> <PUBCHEM_MMFF94_ENERGY>
89.5359

> <PUBCHEM_FEATURE_SELFOVERLAP>
57.895

> <PUBCHEM_SHAPE_FINGERPRINT>
10863032 1 18263074444693539875
10930396 42 17845396426807091688
10948715 1 18122347873987024240
12011746 2 18342168935151656420
12730499 353 18269267972650450187
13009979 54 17168973646623699371
13083527 12 18270134516308735170
13140716 1 18046359530549304472
13533116 47 18409735041697224551
14787075 74 18410568522659932514
15238133 3 16660635315722112275
15852999 172 17845927420885122752
16945 1 17986081163382494504
17492 54 17345734413271393366
17980427 26 17825691961664693332
1813 80 18042125525660544287
18681886 176 16443624580445259885
20567600 347 18198635340891404003
20645477 70 18410576189087177535
20691752 17 17203324580482945665
21033648 29 11598628783531659999
21421861 104 18411427236424142513
22112679 90 17899116476278131657
22393880 68 18131077052173245127
23419403 2 17342420489487952218
23559900 14 18131061606684429844
238 59 18341601590808459299
2748010 2 17843371069499585786
3286 77 18342458191881061983
3323516 105 18343582928326520723
34934 24 18041844995803147709
4340502 62 18341332172116002987
474 4 18119529838660009721
54040823 5 17968090885245719215
5895379 119 17097195363474173361
7364860 26 18409732867451840098
7471813 234 18336548342688603362
7970288 3 18118401971758853655

> <PUBCHEM_SHAPE_MULTIPOLES>
486.03
7.73
3.08
1.52
13.49
0.5
0.12
2.15
-2.29
-3.89
0.8
-0.13
0.14
-0.09

> <PUBCHEM_SHAPE_SELFOVERLAP>
1098.159

> <PUBCHEM_SHAPE_VOLUME>
252.3

> <PUBCHEM_COORDINATE_TYPE>
2
5
10

$$$$

