854121
  -OEChem-06241222473D

 23 24  0     0  0  0  0  0  0999 V2000
   -2.6803    1.2078    0.4805 S   0  0  0  0  0  0  0  0  0  0  0  0
    2.3523    2.0667   -0.4565 S   0  0  0  0  0  0  0  0  0  0  0  0
    0.1202    0.6597   -0.1979 N   0  0  0  0  0  0  0  0  0  0  0  0
    4.7157   -0.8707    0.0579 N   0  0  0  0  0  0  0  0  0  0  0  0
   -0.5908   -0.4712    0.0095 C   0  0  0  0  0  0  0  0  0  0  0  0
   -2.0188   -0.2948   -0.0142 C   0  0  0  0  0  0  0  0  0  0  0  0
   -0.0223   -1.7152    0.2304 C   0  0  0  0  0  0  0  0  0  0  0  0
    1.4661    0.5341   -0.1824 C   0  0  0  0  0  0  0  0  0  0  0  0
    2.1311   -0.6628    0.0299 C   0  0  0  0  0  0  0  0  0  0  0  0
    1.3654   -1.8043    0.2393 C   0  0  0  0  0  0  0  0  0  0  0  0
   -3.0024   -1.1872   -0.3914 C   0  0  0  0  0  0  0  0  0  0  0  0
   -4.3087   -0.6309   -0.2727 C   0  0  0  0  0  0  0  0  0  0  0  0
   -4.2786    0.6660    0.1907 C   0  0  0  0  0  0  0  0  0  0  0  0
    1.1940    3.2802    0.2317 C   0  0  0  0  0  0  0  0  0  0  0  0
    3.5573   -0.7776    0.0452 C   0  0  0  0  0  0  0  0  0  0  0  0
   -0.6173   -2.6063    0.4014 H   0  0  0  0  0  0  0  0  0  0  0  0
    1.8333   -2.7703    0.4127 H   0  0  0  0  0  0  0  0  0  0  0  0
   -2.8080   -2.1928   -0.7434 H   0  0  0  0  0  0  0  0  0  0  0  0
   -5.2240   -1.1547   -0.5161 H   0  0  0  0  0  0  0  0  0  0  0  0
   -5.1187    1.3214    0.3725 H   0  0  0  0  0  0  0  0  0  0  0  0
    0.9363    3.0252    1.2633 H   0  0  0  0  0  0  0  0  0  0  0  0
    0.2844    3.3340   -0.3726 H   0  0  0  0  0  0  0  0  0  0  0  0
    1.6673    4.2658    0.2266 H   0  0  0  0  0  0  0  0  0  0  0  0
  1  6  1  0  0  0  0
  1 13  1  0  0  0  0
  2  8  1  0  0  0  0
  2 14  1  0  0  0  0
  3  5  2  0  0  0  0
  3  8  1  0  0  0  0
  4 15  3  0  0  0  0
  5  6  1  0  0  0  0
  5  7  1  0  0  0  0
  6 11  2  0  0  0  0
  7 10  2  0  0  0  0
  7 16  1  0  0  0  0
  8  9  2  0  0  0  0
  9 10  1  0  0  0  0
  9 15  1  0  0  0  0
 10 17  1  0  0  0  0
 11 12  1  0  0  0  0
 11 18  1  0  0  0  0
 12 13  2  0  0  0  0
 12 19  1  0  0  0  0
 13 20  1  0  0  0  0
 14 21  1  0  0  0  0
 14 22  1  0  0  0  0
 14 23  1  0  0  0  0
M  END
> <PUBCHEM_COMPOUND_CID>
854121

> <PUBCHEM_CONFORMER_RMSD>
0.6

> <PUBCHEM_CONFORMER_DIVERSEORDER>
1
9
5
3
6
10
4
7
2
8

> <PUBCHEM_MMFF94_PARTIAL_CHARGES>
20
1 -0.08
10 -0.15
11 -0.15
12 -0.15
13 -0.11
14 0.23
15 0.48
16 0.15
17 0.15
18 0.15
19 0.15
2 -0.33
20 0.15
3 -0.62
4 -0.56
5 0.36
6 -0.01
7 -0.15
8 0.41
9 0.07

> <PUBCHEM_EFFECTIVE_ROTOR_COUNT>
2

> <PUBCHEM_PHARMACOPHORE_FEATURES>
5
1 14 hydrophobe
1 3 acceptor
1 4 acceptor
5 1 6 11 12 13 rings
6 3 5 7 8 9 10 rings

> <PUBCHEM_HEAVY_ATOM_COUNT>
15

> <PUBCHEM_ATOM_DEF_STEREO_COUNT>
0

> <PUBCHEM_ATOM_UDEF_STEREO_COUNT>
0

> <PUBCHEM_BOND_DEF_STEREO_COUNT>
0

> <PUBCHEM_BOND_UDEF_STEREO_COUNT>
0

> <PUBCHEM_ISOTOPIC_ATOM_COUNT>
0

> <PUBCHEM_COMPONENT_COUNT>
1

> <PUBCHEM_CACTVS_TAUTO_COUNT>
1

> <PUBCHEM_CONFORMER_ID>
000D086900000001

> <PUBCHEM_MMFF94_ENERGY>
29.5361

> <PUBCHEM_FEATURE_SELFOVERLAP>
25.371

> <PUBCHEM_SHAPE_FINGERPRINT>
10608611 8 18342460322733479757
10967382 1 18410855468744489640
11401426 45 18410298029392682970
11471102 20 18413111645129836718
11680986 33 18127125269194562706
12251169 10 18410009970499886055
12507557 5 18411140242620191113
13132413 78 18336264664430794284
13140716 1 18269834229116980571
13862211 1 18341336681974608290
13922767 16 18412827984072820460
14250199 8 18409730625795260373
14251717 144 18412266116382592566
14911166 2 18341888598088240662
15196674 1 18411136909340362917
15375462 189 18131072696501095434
15442244 35 18409446994349613920
15536298 74 18334576802534080856
16945 1 18412258449908446491
17802600 8 18341617027142402333
18186145 218 18060427884863435943
18522853 276 18335139812532486025
200 152 18261401052868960879
20559304 39 18408884035885320849
20645477 70 18410013213211030231
20671657 1 18266176141152118620
21029758 11 18410575098033420408
21267235 1 18410003339213137119
21501502 16 18266178327142571399
21524375 3 18197499519530920996
21639500 275 18339936904624055037
221490 88 18269267972144392115
2255824 54 18342455911485412686
22854114 111 18411979131290038057
22959321 4 18339079285723006083
23402539 116 18261401087012596806
23402655 69 18339086011805257253
23557571 272 16733261339395424617
23558518 356 17625264104935902538
23559900 14 18335708195471830809
2748010 2 18055061060933612822
3071541 12 18267302036990801740
3286 77 18342741784339836231
474 4 18270684138767938913
5104073 3 18411416168662543475
7364860 26 18336265630972405216
7832392 63 18192427696025799265
84936 182 18116995477105718809
9709674 26 18409161100289834455
9971528 1 18334580157272596278
9981440 41 17545049195229197704

> <PUBCHEM_SHAPE_MULTIPOLES>
306.43
7.66
2.53
0.69
2.4
2.02
0
-1.03
0.18
-1.72
-0.15
0.08
0.06
-0.49

> <PUBCHEM_SHAPE_SELFOVERLAP>
630.434

> <PUBCHEM_SHAPE_VOLUME>
179.2

> <PUBCHEM_COORDINATE_TYPE>
2
5
10

$$$$

