9042
  -OEChem-06261203212D

 86 85  0     0  0  0  0  0  0999 V2000
   12.8923   13.6200    0.0000 Cl  0  0  0  0  0  0  0  0  0  0  0  0
    2.5000    2.6200    0.0000 Cl  0  0  0  0  0  0  0  0  0  0  0  0
    0.0000    7.8700    0.0000 Cl  0  5  0  0  0  0  0  0  0  0  0  0
   14.8923    7.8700    0.0000 Cl  0  5  0  0  0  0  0  0  0  0  0  0
    6.8301    9.1200    0.0000 O   0  0  0  0  0  0  0  0  0  0  0  0
    8.5622    7.1200    0.0000 O   0  0  0  0  0  0  0  0  0  0  0  0
   10.2942   12.1200    0.0000 N   0  3  0  0  0  0  0  0  0  0  0  0
    5.0981    4.1200    0.0000 N   0  3  0  0  0  0  0  0  0  0  0  0
    8.5622    9.1200    0.0000 N   0  0  0  0  0  0  0  0  0  0  0  0
    6.8301    7.1200    0.0000 N   0  0  0  0  0  0  0  0  0  0  0  0
    9.4282   11.6200    0.0000 C   0  0  0  0  0  0  0  0  0  0  0  0
    5.9641    4.6200    0.0000 C   0  0  0  0  0  0  0  0  0  0  0  0
    4.2320    3.6200    0.0000 C   0  0  0  0  0  0  0  0  0  0  0  0
   11.1603   12.6200    0.0000 C   0  0  0  0  0  0  0  0  0  0  0  0
    4.5981    4.9860    0.0000 C   0  0  0  0  0  0  0  0  0  0  0  0
    5.5981    3.2540    0.0000 C   0  0  0  0  0  0  0  0  0  0  0  0
    9.7942   12.9860    0.0000 C   0  0  0  0  0  0  0  0  0  0  0  0
   10.7942   11.2540    0.0000 C   0  0  0  0  0  0  0  0  0  0  0  0
    5.9641    5.6200    0.0000 C   0  0  0  0  0  0  0  0  0  0  0  0
    9.4282   10.6200    0.0000 C   0  0  0  0  0  0  0  0  0  0  0  0
    4.2320    2.6200    0.0000 C   0  0  0  0  0  0  0  0  0  0  0  0
   11.1603   13.6200    0.0000 C   0  0  0  0  0  0  0  0  0  0  0  0
    3.5981    4.9860    0.0000 C   0  0  0  0  0  0  0  0  0  0  0  0
    6.5981    3.2540    0.0000 C   0  0  0  0  0  0  0  0  0  0  0  0
    8.7942   12.9860    0.0000 C   0  0  0  0  0  0  0  0  0  0  0  0
   11.7942   11.2540    0.0000 C   0  0  0  0  0  0  0  0  0  0  0  0
    6.8301    6.1200    0.0000 C   0  0  0  0  0  0  0  0  0  0  0  0
    8.5622   10.1200    0.0000 C   0  0  0  0  0  0  0  0  0  0  0  0
    3.3660    2.1200    0.0000 C   0  0  0  0  0  0  0  0  0  0  0  0
   12.0263   14.1200    0.0000 C   0  0  0  0  0  0  0  0  0  0  0  0
   10.2942   14.1200    0.0000 C   0  0  0  0  0  0  0  0  0  0  0  0
    5.0981    2.1200    0.0000 C   0  0  0  0  0  0  0  0  0  0  0  0
    7.6962    7.6200    0.0000 C   0  0  0  0  0  0  0  0  0  0  0  0
    7.6962    8.6200    0.0000 C   0  0  0  0  0  0  0  0  0  0  0  0
   12.0263   15.1200    0.0000 C   0  0  0  0  0  0  0  0  0  0  0  0
    3.3660    1.1200    0.0000 C   0  0  0  0  0  0  0  0  0  0  0  0
    5.0981    1.1200    0.0000 C   0  0  0  0  0  0  0  0  0  0  0  0
   10.2942   15.1200    0.0000 C   0  0  0  0  0  0  0  0  0  0  0  0
    4.2320    0.6200    0.0000 C   0  0  0  0  0  0  0  0  0  0  0  0
   11.1603   15.6200    0.0000 C   0  0  0  0  0  0  0  0  0  0  0  0
    9.2162   12.2026    0.0000 H   0  0  0  0  0  0  0  0  0  0  0  0
    8.8176   11.5123    0.0000 H   0  0  0  0  0  0  0  0  0  0  0  0
    6.1762    4.0374    0.0000 H   0  0  0  0  0  0  0  0  0  0  0  0
    6.5747    4.7277    0.0000 H   0  0  0  0  0  0  0  0  0  0  0  0
    4.0200    4.2026    0.0000 H   0  0  0  0  0  0  0  0  0  0  0  0
    3.6215    3.5123    0.0000 H   0  0  0  0  0  0  0  0  0  0  0  0
   11.3723   12.0374    0.0000 H   0  0  0  0  0  0  0  0  0  0  0  0
   11.7708   12.7277    0.0000 H   0  0  0  0  0  0  0  0  0  0  0  0
   10.2116   11.0419    0.0000 H   0  0  0  0  0  0  0  0  0  0  0  0
   10.9019   10.6434    0.0000 H   0  0  0  0  0  0  0  0  0  0  0  0
   10.3768   13.1981    0.0000 H   0  0  0  0  0  0  0  0  0  0  0  0
    9.6866   13.5966    0.0000 H   0  0  0  0  0  0  0  0  0  0  0  0
    5.0155    3.0419    0.0000 H   0  0  0  0  0  0  0  0  0  0  0  0
    5.7057    2.6434    0.0000 H   0  0  0  0  0  0  0  0  0  0  0  0
    5.1807    5.1981    0.0000 H   0  0  0  0  0  0  0  0  0  0  0  0
    4.4904    5.5966    0.0000 H   0  0  0  0  0  0  0  0  0  0  0  0
    9.6403   10.0374    0.0000 H   0  0  0  0  0  0  0  0  0  0  0  0
   10.0388   10.7277    0.0000 H   0  0  0  0  0  0  0  0  0  0  0  0
    5.7520    6.2026    0.0000 H   0  0  0  0  0  0  0  0  0  0  0  0
    5.3535    5.5123    0.0000 H   0  0  0  0  0  0  0  0  0  0  0  0
    3.5981    5.6060    0.0000 H   0  0  0  0  0  0  0  0  0  0  0  0
    2.9781    4.9860    0.0000 H   0  0  0  0  0  0  0  0  0  0  0  0
    3.5981    4.3660    0.0000 H   0  0  0  0  0  0  0  0  0  0  0  0
    6.5981    2.6340    0.0000 H   0  0  0  0  0  0  0  0  0  0  0  0
    7.2181    3.2540    0.0000 H   0  0  0  0  0  0  0  0  0  0  0  0
    6.5981    3.8740    0.0000 H   0  0  0  0  0  0  0  0  0  0  0  0
    8.7942   13.6060    0.0000 H   0  0  0  0  0  0  0  0  0  0  0  0
    8.1742   12.9860    0.0000 H   0  0  0  0  0  0  0  0  0  0  0  0
    8.7942   12.3660    0.0000 H   0  0  0  0  0  0  0  0  0  0  0  0
   11.7942   10.6340    0.0000 H   0  0  0  0  0  0  0  0  0  0  0  0
   12.4142   11.2540    0.0000 H   0  0  0  0  0  0  0  0  0  0  0  0
   11.7942   11.8740    0.0000 H   0  0  0  0  0  0  0  0  0  0  0  0
    7.0422    5.5374    0.0000 H   0  0  0  0  0  0  0  0  0  0  0  0
    7.4407    6.2277    0.0000 H   0  0  0  0  0  0  0  0  0  0  0  0
    8.3501   10.7026    0.0000 H   0  0  0  0  0  0  0  0  0  0  0  0
    7.9516   10.0123    0.0000 H   0  0  0  0  0  0  0  0  0  0  0  0
    5.6350    2.4300    0.0000 H   0  0  0  0  0  0  0  0  0  0  0  0
    9.7573   13.8100    0.0000 H   0  0  0  0  0  0  0  0  0  0  0  0
    9.0991    8.8100    0.0000 H   0  0  0  0  0  0  0  0  0  0  0  0
    6.2932    7.4300    0.0000 H   0  0  0  0  0  0  0  0  0  0  0  0
    2.8291    0.8100    0.0000 H   0  0  0  0  0  0  0  0  0  0  0  0
   12.5632   15.4300    0.0000 H   0  0  0  0  0  0  0  0  0  0  0  0
    5.6350    0.8100    0.0000 H   0  0  0  0  0  0  0  0  0  0  0  0
    9.7573   15.4300    0.0000 H   0  0  0  0  0  0  0  0  0  0  0  0
    4.2320    0.0000    0.0000 H   0  0  0  0  0  0  0  0  0  0  0  0
   11.1603   16.2400    0.0000 H   0  0  0  0  0  0  0  0  0  0  0  0
  1 30  1  0  0  0  0
  2 29  1  0  0  0  0
  5 34  2  0  0  0  0
  6 33  2  0  0  0  0
  7 11  1  0  0  0  0
  7 14  1  0  0  0  0
  7 17  1  0  0  0  0
  7 18  1  0  0  0  0
  8 12  1  0  0  0  0
  8 13  1  0  0  0  0
  8 15  1  0  0  0  0
  8 16  1  0  0  0  0
  9 28  1  0  0  0  0
  9 34  1  0  0  0  0
  9 79  1  0  0  0  0
 10 27  1  0  0  0  0
 10 33  1  0  0  0  0
 10 80  1  0  0  0  0
 11 20  1  0  0  0  0
 11 41  1  0  0  0  0
 11 42  1  0  0  0  0
 12 19  1  0  0  0  0
 12 43  1  0  0  0  0
 12 44  1  0  0  0  0
 13 21  1  0  0  0  0
 13 45  1  0  0  0  0
 13 46  1  0  0  0  0
 14 22  1  0  0  0  0
 14 47  1  0  0  0  0
 14 48  1  0  0  0  0
 15 23  1  0  0  0  0
 15 55  1  0  0  0  0
 15 56  1  0  0  0  0
 16 24  1  0  0  0  0
 16 53  1  0  0  0  0
 16 54  1  0  0  0  0
 17 25  1  0  0  0  0
 17 51  1  0  0  0  0
 17 52  1  0  0  0  0
 18 26  1  0  0  0  0
 18 49  1  0  0  0  0
 18 50  1  0  0  0  0
 19 27  1  0  0  0  0
 19 59  1  0  0  0  0
 19 60  1  0  0  0  0
 20 28  1  0  0  0  0
 20 57  1  0  0  0  0
 20 58  1  0  0  0  0
 21 29  1  0  0  0  0
 21 32  2  0  0  0  0
 22 30  1  0  0  0  0
 22 31  2  0  0  0  0
 23 61  1  0  0  0  0
 23 62  1  0  0  0  0
 23 63  1  0  0  0  0
 24 64  1  0  0  0  0
 24 65  1  0  0  0  0
 24 66  1  0  0  0  0
 25 67  1  0  0  0  0
 25 68  1  0  0  0  0
 25 69  1  0  0  0  0
 26 70  1  0  0  0  0
 26 71  1  0  0  0  0
 26 72  1  0  0  0  0
 27 73  1  0  0  0  0
 27 74  1  0  0  0  0
 28 75  1  0  0  0  0
 28 76  1  0  0  0  0
 29 36  2  0  0  0  0
 30 35  2  0  0  0  0
 31 38  1  0  0  0  0
 31 78  1  0  0  0  0
 32 37  1  0  0  0  0
 32 77  1  0  0  0  0
 33 34  1  0  0  0  0
 35 40  1  0  0  0  0
 35 82  1  0  0  0  0
 36 39  1  0  0  0  0
 36 81  1  0  0  0  0
 37 39  2  0  0  0  0
 37 83  1  0  0  0  0
 38 40  2  0  0  0  0
 38 84  1  0  0  0  0
 39 85  1  0  0  0  0
 40 86  1  0  0  0  0
M  CHG  4   3  -1   4  -1   7   1   8   1
M  END
> <PUBCHEM_COMPOUND_CID>
9042

> <PUBCHEM_COMPOUND_CANONICALIZED>
1

> <PUBCHEM_CACTVS_COMPLEXITY>
642

> <PUBCHEM_CACTVS_HBOND_ACCEPTOR>
4

> <PUBCHEM_CACTVS_HBOND_DONOR>
2

> <PUBCHEM_CACTVS_ROTATABLE_BOND>
16

> <PUBCHEM_CACTVS_SUBSKEYS>
AAADcfB7sAAHAAAAAAAAAAAAAAAAAAAAAAAwYAAAAAAAAAABQAAAHgIQAAAADALBmCQyAIPAAACIAiFSEACCAAAgBQAIiICIBogIYCKB0zGUIAhglgCIiAcQgAAOAAAAAAABAAAAAAAAAAIAAAAAAAAAAA==

> <PUBCHEM_IUPAC_OPENEYE_NAME>
(2-chlorophenyl)methyl-[3-[[2-[3-[(2-chlorophenyl)methyl-diethyl-ammonio]propylamino]-2-oxo-acetyl]amino]propyl]-diethyl-ammonium dichloride

> <PUBCHEM_IUPAC_CAS_NAME>
(2-chlorophenyl)methyl-[3-[[2-[3-[(2-chlorophenyl)methyl-diethylammonio]propylamino]-1,2-dioxoethyl]amino]propyl]-diethylammonium dichloride

> <PUBCHEM_IUPAC_NAME>
(2-chlorophenyl)methyl-[3-[[2-[3-[(2-chlorophenyl)methyl-diethylazaniumyl]propylamino]-2-oxoacetyl]amino]propyl]-diethylazanium dichloride

> <PUBCHEM_IUPAC_SYSTEMATIC_NAME>
(2-chlorophenyl)methyl-[3-[[2-[3-[(2-chlorophenyl)methyl-diethyl-azaniumyl]propylamino]-2-oxidanylidene-ethanoyl]amino]propyl]-diethyl-azanium dichloride

> <PUBCHEM_IUPAC_TRADITIONAL_NAME>
(2-chlorobenzyl)-[3-[[2-[3-[(2-chlorobenzyl)-diethyl-ammonio]propylamino]-2-keto-acetyl]amino]propyl]-diethyl-ammonium dichloride

> <PUBCHEM_IUPAC_INCHI>
InChI=1S/C30H44Cl2N4O2.2ClH/c1-5-35(6-2,23-25-15-9-11-17-27(25)31)21-13-19-33-29(37)30(38)34-20-14-22-36(7-3,8-4)24-26-16-10-12-18-28(26)32;;/h9-12,15-18H,5-8,13-14,19-24H2,1-4H3;2*1H

> <PUBCHEM_IUPAC_INCHIKEY>
BVVRUUIKERVUPT-UHFFFAOYSA-N

> <PUBCHEM_EXACT_MASS>
636.234537

> <PUBCHEM_MOLECULAR_FORMULA>
C30H46Cl4N4O2

> <PUBCHEM_MOLECULAR_WEIGHT>
636.52384

> <PUBCHEM_OPENEYE_CAN_SMILES>
CC[N+](CC)(CCCNC(=O)C(=O)NCCC[N+](CC)(CC)CC1=CC=CC=C1Cl)CC2=CC=CC=C2Cl.[Cl-].[Cl-]

> <PUBCHEM_OPENEYE_ISO_SMILES>
CC[N+](CC)(CCCNC(=O)C(=O)NCCC[N+](CC)(CC)CC1=CC=CC=C1Cl)CC2=CC=CC=C2Cl.[Cl-].[Cl-]

> <PUBCHEM_CACTVS_TPSA>
58.2

> <PUBCHEM_MONOISOTOPIC_WEIGHT>
634.237487

> <PUBCHEM_TOTAL_CHARGE>
0

> <PUBCHEM_HEAVY_ATOM_COUNT>
40

> <PUBCHEM_ATOM_DEF_STEREO_COUNT>
0

> <PUBCHEM_ATOM_UDEF_STEREO_COUNT>
0

> <PUBCHEM_BOND_DEF_STEREO_COUNT>
0

> <PUBCHEM_BOND_UDEF_STEREO_COUNT>
0

> <PUBCHEM_ISOTOPIC_ATOM_COUNT>
0

> <PUBCHEM_COMPONENT_COUNT>
3

> <PUBCHEM_CACTVS_TAUTO_COUNT>
3

> <PUBCHEM_COORDINATE_TYPE>
1
5
255

> <PUBCHEM_BONDANNOTATIONS>
21  29  8
21  32  8
22  30  8
22  31  8
29  36  8
30  35  8
31  38  8
32  37  8
35  40  8
36  39  8
37  39  8
38  40  8

$$$$

