47205578
  -OEChem-06241222592D

 39 40  0     1  0  0  0  0  0999 V2000
    5.4543   -0.8504    0.0000 S   0  0  0  0  0  0  0  0  0  0  0  0
    7.7496    1.0756    0.0000 O   0  0  0  0  0  0  0  0  0  0  0  0
    9.6517    0.4576    0.0000 N   0  0  0  0  0  0  0  0  0  0  0  0
    4.9543    0.6884    0.0000 N   0  0  0  0  0  0  0  0  0  0  0  0
    7.2144   -0.5717    0.0000 N   0  0  0  0  0  0  0  0  0  0  0  0
    5.9543    0.6884    0.0000 N   0  0  0  0  0  0  0  0  0  0  0  0
   10.4607    1.8588    0.0000 N   0  0  0  0  0  0  0  0  0  0  0  0
    3.6942   -0.5717    0.0000 C   0  0  0  0  0  0  0  0  0  0  0  0
    2.9511    0.0975    0.0000 C   0  0  0  0  0  0  0  0  0  0  0  0
    3.4863   -1.5498    0.0000 C   0  0  0  0  0  0  0  0  0  0  0  0
    4.6453   -0.2627    0.0000 C   0  0  0  0  0  0  0  0  0  0  0  0
    8.9086   -0.2116    0.0000 C   0  0  3  0  0  0  0  0  0  0  0  0
    2.5352   -1.8588    0.0000 C   0  0  0  0  0  0  0  0  0  0  0  0
    2.0000   -0.2116    0.0000 C   0  0  0  0  0  0  0  0  0  0  0  0
    7.9575    0.0975    0.0000 C   0  0  0  0  0  0  0  0  0  0  0  0
    6.2633   -0.2627    0.0000 C   0  0  0  0  0  0  0  0  0  0  0  0
    9.1165   -1.1897    0.0000 C   0  0  0  0  0  0  0  0  0  0  0  0
   10.6298    0.2497    0.0000 C   0  0  0  0  0  0  0  0  0  0  0  0
    9.5472    1.4521    0.0000 C   0  0  0  0  0  0  0  0  0  0  0  0
   11.1298    1.1157    0.0000 C   0  0  0  0  0  0  0  0  0  0  0  0
    3.1046   -0.7633    0.0000 H   0  0  0  0  0  0  0  0  0  0  0  0
    3.5726   -2.1638    0.0000 H   0  0  0  0  0  0  0  0  0  0  0  0
    4.1059   -1.5714    0.0000 H   0  0  0  0  0  0  0  0  0  0  0  0
    3.4396    0.4792    0.0000 H   0  0  0  0  0  0  0  0  0  0  0  0
    2.6600    0.6449    0.0000 H   0  0  0  0  0  0  0  0  0  0  0  0
    9.4982   -0.4031    0.0000 H   0  0  0  0  0  0  0  0  0  0  0  0
    1.8084    0.3781    0.0000 H   0  0  0  0  0  0  0  0  0  0  0  0
    2.3436   -1.2692    0.0000 H   0  0  0  0  0  0  0  0  0  0  0  0
    1.9456   -2.0504    0.0000 H   0  0  0  0  0  0  0  0  0  0  0  0
    2.7268   -2.4485    0.0000 H   0  0  0  0  0  0  0  0  0  0  0  0
    1.4103   -0.4031    0.0000 H   0  0  0  0  0  0  0  0  0  0  0  0
    2.1916   -0.8012    0.0000 H   0  0  0  0  0  0  0  0  0  0  0  0
    8.5100   -1.3186    0.0000 H   0  0  0  0  0  0  0  0  0  0  0  0
    9.2454   -1.7962    0.0000 H   0  0  0  0  0  0  0  0  0  0  0  0
    9.7229   -1.0608    0.0000 H   0  0  0  0  0  0  0  0  0  0  0  0
    7.3432   -1.1781    0.0000 H   0  0  0  0  0  0  0  0  0  0  0  0
   10.8820   -0.3167    0.0000 H   0  0  0  0  0  0  0  0  0  0  0  0
    9.0102    1.7621    0.0000 H   0  0  0  0  0  0  0  0  0  0  0  0
   11.7464    1.1805    0.0000 H   0  0  0  0  0  0  0  0  0  0  0  0
  1 11  1  0  0  0  0
  1 16  1  0  0  0  0
  2 15  2  0  0  0  0
  3 12  1  0  0  0  0
  3 18  1  0  0  0  0
  3 19  1  0  0  0  0
  4  6  1  0  0  0  0
  4 11  2  0  0  0  0
  5 15  1  0  0  0  0
  5 16  1  0  0  0  0
  5 36  1  0  0  0  0
  6 16  2  0  0  0  0
  7 19  2  0  0  0  0
  7 20  1  0  0  0  0
  8  9  1  0  0  0  0
  8 10  1  0  0  0  0
  8 11  1  0  0  0  0
  8 21  1  0  0  0  0
  9 14  1  0  0  0  0
  9 24  1  0  0  0  0
  9 25  1  0  0  0  0
 10 13  1  0  0  0  0
 10 22  1  0  0  0  0
 10 23  1  0  0  0  0
 12 15  1  0  0  0  0
 12 17  1  0  0  0  0
 12 26  1  0  0  0  0
 13 28  1  0  0  0  0
 13 29  1  0  0  0  0
 13 30  1  0  0  0  0
 14 27  1  0  0  0  0
 14 31  1  0  0  0  0
 14 32  1  0  0  0  0
 17 33  1  0  0  0  0
 17 34  1  0  0  0  0
 17 35  1  0  0  0  0
 18 20  2  0  0  0  0
 18 37  1  0  0  0  0
 19 38  1  0  0  0  0
 20 39  1  0  0  0  0
M  END
> <PUBCHEM_COMPOUND_CID>
47205578

> <PUBCHEM_COMPOUND_CANONICALIZED>
1

> <PUBCHEM_CACTVS_COMPLEXITY>
326

> <PUBCHEM_CACTVS_HBOND_ACCEPTOR>
5

> <PUBCHEM_CACTVS_HBOND_DONOR>
1

> <PUBCHEM_CACTVS_ROTATABLE_BOND>
6

> <PUBCHEM_CACTVS_SUBSKEYS>
AAADceBzoABAAAAAAAAAAAAAAAAAAWLAAAAAAAAAAAAAAAAB4AAAHgQYAAAADSjBwgQvkBfMEAiuABE3dAAQgK9RErkdQAG4MACASAIgiCAUAAAYGQKAACAAAAAKAAAAAAAAAAAAAAAAAAAAAAAAAAAAAA==

> <PUBCHEM_IUPAC_OPENEYE_NAME>
N-[5-(1-ethylpropyl)-1,3,4-thiadiazol-2-yl]-2-imidazol-1-yl-propanamide

> <PUBCHEM_IUPAC_CAS_NAME>
2-(1-imidazolyl)-N-(5-pentan-3-yl-1,3,4-thiadiazol-2-yl)propanamide

> <PUBCHEM_IUPAC_NAME>
2-imidazol-1-yl-N-(5-pentan-3-yl-1,3,4-thiadiazol-2-yl)propanamide

> <PUBCHEM_IUPAC_SYSTEMATIC_NAME>
2-imidazol-1-yl-N-(5-pentan-3-yl-1,3,4-thiadiazol-2-yl)propanamide

> <PUBCHEM_IUPAC_TRADITIONAL_NAME>
N-[5-(1-ethylpropyl)-1,3,4-thiadiazol-2-yl]-2-imidazol-1-yl-propionamide

> <PUBCHEM_IUPAC_INCHI>
InChI=1S/C13H19N5OS/c1-4-10(5-2)12-16-17-13(20-12)15-11(19)9(3)18-7-6-14-8-18/h6-10H,4-5H2,1-3H3,(H,15,17,19)

> <PUBCHEM_IUPAC_INCHIKEY>
YRBOQGGMVPADRB-UHFFFAOYSA-N

> <PUBCHEM_XLOGP3_AA>
2.1

> <PUBCHEM_EXACT_MASS>
293.131031

> <PUBCHEM_MOLECULAR_FORMULA>
C13H19N5OS

> <PUBCHEM_MOLECULAR_WEIGHT>
293.38786

> <PUBCHEM_OPENEYE_CAN_SMILES>
CCC(CC)C1=NN=C(S1)NC(=O)C(C)N2C=CN=C2

> <PUBCHEM_OPENEYE_ISO_SMILES>
CCC(CC)C1=NN=C(S1)NC(=O)C(C)N2C=CN=C2

> <PUBCHEM_CACTVS_TPSA>
101

> <PUBCHEM_MONOISOTOPIC_WEIGHT>
293.131031

> <PUBCHEM_TOTAL_CHARGE>
0

> <PUBCHEM_HEAVY_ATOM_COUNT>
20

> <PUBCHEM_ATOM_DEF_STEREO_COUNT>
0

> <PUBCHEM_ATOM_UDEF_STEREO_COUNT>
1

> <PUBCHEM_BOND_DEF_STEREO_COUNT>
0

> <PUBCHEM_BOND_UDEF_STEREO_COUNT>
0

> <PUBCHEM_ISOTOPIC_ATOM_COUNT>
0

> <PUBCHEM_COMPONENT_COUNT>
1

> <PUBCHEM_CACTVS_TAUTO_COUNT>
5

> <PUBCHEM_COORDINATE_TYPE>
1
5
255

> <PUBCHEM_BONDANNOTATIONS>
1  11  8
1  16  8
12  17  3
18  20  8
3  18  8
3  19  8
4  11  8
4  6  8
6  16  8
7  19  8
7  20  8

$$$$

