13494
  -OEChem-06261214462D

 51 52  0     1  0  0  0  0  0999 V2000
    6.8671   -0.9050    0.0000 O   0  0  0  0  0  0  0  0  0  0  0  0
    6.0010    2.5950    0.0000 O   0  0  0  0  0  0  0  0  0  0  0  0
    4.2690   -5.4050    0.0000 O   0  5  0  0  0  0  0  0  0  0  0  0
    6.0010   -5.4050    0.0000 O   0  0  0  0  0  0  0  0  0  0  0  0
    6.8671    1.0950    0.0000 N   0  0  0  0  0  0  0  0  0  0  0  0
    5.1350   -0.9050    0.0000 N   0  0  0  0  0  0  0  0  0  0  0  0
    4.2690    3.5950    0.0000 N   0  0  0  0  0  0  0  0  0  0  0  0
    5.1350   -4.9050    0.0000 N   0  3  0  0  0  0  0  0  0  0  0  0
    3.4030    5.0950    0.0000 N   0  0  0  0  0  0  0  0  0  0  0  0
    2.5369    3.5950    0.0000 N   0  0  0  0  0  0  0  0  0  0  0  0
    6.0010    0.5950    0.0000 C   0  0  3  0  0  0  0  0  0  0  0  0
    5.1350    1.0950    0.0000 C   0  0  0  0  0  0  0  0  0  0  0  0
    5.1350    2.0950    0.0000 C   0  0  0  0  0  0  0  0  0  0  0  0
    6.0010   -0.4050    0.0000 C   0  0  0  0  0  0  0  0  0  0  0  0
    4.2690    2.5950    0.0000 C   0  0  0  0  0  0  0  0  0  0  0  0
    6.8671    2.0950    0.0000 C   0  0  0  0  0  0  0  0  0  0  0  0
    5.1350   -1.9050    0.0000 C   0  0  0  0  0  0  0  0  0  0  0  0
    7.7331    2.5950    0.0000 C   0  0  0  0  0  0  0  0  0  0  0  0
    4.2690   -2.4050    0.0000 C   0  0  0  0  0  0  0  0  0  0  0  0
    6.0010   -2.4050    0.0000 C   0  0  0  0  0  0  0  0  0  0  0  0
    8.5991    2.0950    0.0000 C   0  0  0  0  0  0  0  0  0  0  0  0
    7.7331    3.5950    0.0000 C   0  0  0  0  0  0  0  0  0  0  0  0
    4.2690   -3.4050    0.0000 C   0  0  0  0  0  0  0  0  0  0  0  0
    6.0010   -3.4050    0.0000 C   0  0  0  0  0  0  0  0  0  0  0  0
    3.4030    4.0950    0.0000 C   0  0  0  0  0  0  0  0  0  0  0  0
    5.1350   -3.9050    0.0000 C   0  0  0  0  0  0  0  0  0  0  0  0
    9.4651    2.5950    0.0000 C   0  0  0  0  0  0  0  0  0  0  0  0
    8.5991    4.0950    0.0000 C   0  0  0  0  0  0  0  0  0  0  0  0
    9.4651    3.5950    0.0000 C   0  0  0  0  0  0  0  0  0  0  0  0
    6.7372    0.1700    0.0000 H   0  0  0  0  0  0  0  0  0  0  0  0
    4.5244    1.2027    0.0000 H   0  0  0  0  0  0  0  0  0  0  0  0
    4.9230    0.5124    0.0000 H   0  0  0  0  0  0  0  0  0  0  0  0
    5.7456    1.9873    0.0000 H   0  0  0  0  0  0  0  0  0  0  0  0
    5.3471    2.6776    0.0000 H   0  0  0  0  0  0  0  0  0  0  0  0
    7.4040    0.7850    0.0000 H   0  0  0  0  0  0  0  0  0  0  0  0
    3.6584    2.7027    0.0000 H   0  0  0  0  0  0  0  0  0  0  0  0
    4.0569    2.0124    0.0000 H   0  0  0  0  0  0  0  0  0  0  0  0
    4.5981   -0.5950    0.0000 H   0  0  0  0  0  0  0  0  0  0  0  0
    3.7320   -2.0950    0.0000 H   0  0  0  0  0  0  0  0  0  0  0  0
    6.5380   -2.0950    0.0000 H   0  0  0  0  0  0  0  0  0  0  0  0
    8.5991    1.4750    0.0000 H   0  0  0  0  0  0  0  0  0  0  0  0
    7.1962    3.9050    0.0000 H   0  0  0  0  0  0  0  0  0  0  0  0
    3.7320   -3.7150    0.0000 H   0  0  0  0  0  0  0  0  0  0  0  0
    6.5380   -3.7150    0.0000 H   0  0  0  0  0  0  0  0  0  0  0  0
   10.0021    2.2850    0.0000 H   0  0  0  0  0  0  0  0  0  0  0  0
    8.5991    4.7150    0.0000 H   0  0  0  0  0  0  0  0  0  0  0  0
   10.0021    3.9050    0.0000 H   0  0  0  0  0  0  0  0  0  0  0  0
    2.8660    5.4050    0.0000 H   0  0  0  0  0  0  0  0  0  0  0  0
    3.9399    5.4050    0.0000 H   0  0  0  0  0  0  0  0  0  0  0  0
    2.0000    3.9050    0.0000 H   0  0  0  0  0  0  0  0  0  0  0  0
    2.5369    2.9750    0.0000 H   0  0  0  0  0  0  0  0  0  0  0  0
  1 14  2  0  0  0  0
  2 16  2  0  0  0  0
  3  8  1  0  0  0  0
  4  8  2  0  0  0  0
  5 11  1  0  0  0  0
  5 16  1  0  0  0  0
  5 35  1  0  0  0  0
  6 14  1  0  0  0  0
  6 17  1  0  0  0  0
  6 38  1  0  0  0  0
  7 15  1  0  0  0  0
  7 25  2  0  0  0  0
  8 26  1  0  0  0  0
  9 25  1  0  0  0  0
  9 48  1  0  0  0  0
  9 49  1  0  0  0  0
 10 25  1  0  0  0  0
 10 50  1  0  0  0  0
 10 51  1  0  0  0  0
 11 12  1  0  0  0  0
 11 14  1  0  0  0  0
 11 30  1  0  0  0  0
 12 13  1  0  0  0  0
 12 31  1  0  0  0  0
 12 32  1  0  0  0  0
 13 15  1  0  0  0  0
 13 33  1  0  0  0  0
 13 34  1  0  0  0  0
 15 36  1  0  0  0  0
 15 37  1  0  0  0  0
 16 18  1  0  0  0  0
 17 19  2  0  0  0  0
 17 20  1  0  0  0  0
 18 21  2  0  0  0  0
 18 22  1  0  0  0  0
 19 23  1  0  0  0  0
 19 39  1  0  0  0  0
 20 24  2  0  0  0  0
 20 40  1  0  0  0  0
 21 27  1  0  0  0  0
 21 41  1  0  0  0  0
 22 28  2  0  0  0  0
 22 42  1  0  0  0  0
 23 26  2  0  0  0  0
 23 43  1  0  0  0  0
 24 26  1  0  0  0  0
 24 44  1  0  0  0  0
 27 29  2  0  0  0  0
 27 45  1  0  0  0  0
 28 29  1  0  0  0  0
 28 46  1  0  0  0  0
 29 47  1  0  0  0  0
M  CHG  2   3  -1   8   1
M  END
> <PUBCHEM_COMPOUND_CID>
13494

> <PUBCHEM_COMPOUND_CANONICALIZED>
1

> <PUBCHEM_CACTVS_COMPLEXITY>
588

> <PUBCHEM_CACTVS_HBOND_ACCEPTOR>
5

> <PUBCHEM_CACTVS_HBOND_DONOR>
4

> <PUBCHEM_CACTVS_ROTATABLE_BOND>
8

> <PUBCHEM_CACTVS_SUBSKEYS>
AAADceB7uAAAAAAAAAAAAAAAAAAAAAAAAAAwYAAAAAAAAAABQAAAHgAUAAAADCjBmAQxwILQQACpAiVSdwCCAAElAgAoiIGIZMoIYDLAlbGUIQhglgDIyYcYiQCOAACAAAAAAAAAAQAAAAAAAAAAAAAAAA==

> <PUBCHEM_IUPAC_OPENEYE_NAME>
N-[4-guanidino-1-[(4-nitrophenyl)carbamoyl]butyl]benzamide

> <PUBCHEM_IUPAC_CAS_NAME>
N-[5-(diaminomethylideneamino)-1-(4-nitroanilino)-1-oxopentan-2-yl]benzamide

> <PUBCHEM_IUPAC_NAME>
N-[5-(diaminomethylideneamino)-1-(4-nitroanilino)-1-oxopentan-2-yl]benzamide

> <PUBCHEM_IUPAC_SYSTEMATIC_NAME>
N-[5-[bis(azanyl)methylideneamino]-1-[(4-nitrophenyl)amino]-1-oxidanylidene-pentan-2-yl]benzamide

> <PUBCHEM_IUPAC_TRADITIONAL_NAME>
N-[4-guanidino-1-[(4-nitrophenyl)carbamoyl]butyl]benzamide

> <PUBCHEM_IUPAC_INCHI>
InChI=1S/C19H22N6O4/c20-19(21)22-12-4-7-16(24-17(26)13-5-2-1-3-6-13)18(27)23-14-8-10-15(11-9-14)25(28)29/h1-3,5-6,8-11,16H,4,7,12H2,(H,23,27)(H,24,26)(H4,20,21,22)

> <PUBCHEM_IUPAC_INCHIKEY>
RKDYKIHMFYAPMZ-UHFFFAOYSA-N

> <PUBCHEM_XLOGP3_AA>
1.1

> <PUBCHEM_EXACT_MASS>
398.170253

> <PUBCHEM_MOLECULAR_FORMULA>
C19H22N6O4

> <PUBCHEM_MOLECULAR_WEIGHT>
398.41578

> <PUBCHEM_OPENEYE_CAN_SMILES>
C1=CC=C(C=C1)C(=O)NC(CCCN=C(N)N)C(=O)NC2=CC=C(C=C2)[N+](=O)[O-]

> <PUBCHEM_OPENEYE_ISO_SMILES>
C1=CC=C(C=C1)C(=O)NC(CCCN=C(N)N)C(=O)NC2=CC=C(C=C2)[N+](=O)[O-]

> <PUBCHEM_CACTVS_TPSA>
168

> <PUBCHEM_MONOISOTOPIC_WEIGHT>
398.170253

> <PUBCHEM_TOTAL_CHARGE>
0

> <PUBCHEM_HEAVY_ATOM_COUNT>
29

> <PUBCHEM_ATOM_DEF_STEREO_COUNT>
0

> <PUBCHEM_ATOM_UDEF_STEREO_COUNT>
1

> <PUBCHEM_BOND_DEF_STEREO_COUNT>
0

> <PUBCHEM_BOND_UDEF_STEREO_COUNT>
0

> <PUBCHEM_ISOTOPIC_ATOM_COUNT>
0

> <PUBCHEM_COMPONENT_COUNT>
1

> <PUBCHEM_CACTVS_TAUTO_COUNT>
12

> <PUBCHEM_COORDINATE_TYPE>
1
5
255

> <PUBCHEM_BONDANNOTATIONS>
11  30  3
17  19  8
17  20  8
18  21  8
18  22  8
19  23  8
20  24  8
21  27  8
22  28  8
23  26  8
24  26  8
27  29  8
28  29  8

$$$$

