10169
  -OEChem-06261204213D

 30 32  0     0  0  0  0  0  0999 V2000
   -0.4419    2.3805   -0.0275 O   0  0  0  0  0  0  0  0  0  0  0  0
    0.8702   -2.7990    0.0083 O   0  0  0  0  0  0  0  0  0  0  0  0
   -1.5859   -3.5282    0.0013 O   0  0  0  0  0  0  0  0  0  0  0  0
    3.3694   -2.2366    0.0186 O   0  0  0  0  0  0  0  0  0  0  0  0
    4.5649    2.3472   -0.0016 O   0  0  0  0  0  0  0  0  0  0  0  0
   -3.2172    2.3830    1.2160 O   0  0  0  0  0  0  0  0  0  0  0  0
   -3.2682    2.5550   -1.0499 O   0  0  0  0  0  0  0  0  0  0  0  0
   -1.2116    0.1409   -0.0183 C   0  0  0  0  0  0  0  0  0  0  0  0
   -0.8594   -1.2104   -0.0086 C   0  0  0  0  0  0  0  0  0  0  0  0
    1.6043   -0.5682    0.0003 C   0  0  0  0  0  0  0  0  0  0  0  0
    1.2521    0.7830   -0.0094 C   0  0  0  0  0  0  0  0  0  0  0  0
   -0.1687    1.1870   -0.0191 C   0  0  0  0  0  0  0  0  0  0  0  0
    0.5614   -1.6143    0.0012 C   0  0  0  0  0  0  0  0  0  0  0  0
   -2.5619    0.5105   -0.0275 C   0  0  0  0  0  0  0  0  0  0  0  0
   -1.8576   -2.1921   -0.0080 C   0  0  0  0  0  0  0  0  0  0  0  0
    2.9547   -0.9378    0.0094 C   0  0  0  0  0  0  0  0  0  0  0  0
    2.2503    1.7648   -0.0102 C   0  0  0  0  0  0  0  0  0  0  0  0
   -3.5535   -0.4710   -0.0270 C   0  0  0  0  0  0  0  0  0  0  0  0
   -3.2021   -1.8194   -0.0173 C   0  0  0  0  0  0  0  0  0  0  0  0
    3.5948    1.3922   -0.0012 C   0  0  0  0  0  0  0  0  0  0  0  0
    3.9463    0.0438    0.0085 C   0  0  0  0  0  0  0  0  0  0  0  0
   -3.0403    1.8889   -0.0381 C   0  0  0  0  0  0  0  0  0  0  0  0
    1.9911    2.8206   -0.0177 H   0  0  0  0  0  0  0  0  0  0  0  0
   -4.6066   -0.2001   -0.0344 H   0  0  0  0  0  0  0  0  0  0  0  0
   -3.9826   -2.5757   -0.0170 H   0  0  0  0  0  0  0  0  0  0  0  0
    4.9984   -0.2315    0.0154 H   0  0  0  0  0  0  0  0  0  0  0  0
   -0.6301   -3.6852    0.0093 H   0  0  0  0  0  0  0  0  0  0  0  0
    4.3412   -2.2699    0.0237 H   0  0  0  0  0  0  0  0  0  0  0  0
    4.1449    3.2245   -0.0089 H   0  0  0  0  0  0  0  0  0  0  0  0
   -3.5388    3.3097    1.2015 H   0  0  0  0  0  0  0  0  0  0  0  0
  1 12  2  0  0  0  0
  2 13  2  0  0  0  0
  3 15  1  0  0  0  0
  3 27  1  0  0  0  0
  4 16  1  0  0  0  0
  4 28  1  0  0  0  0
  5 20  1  0  0  0  0
  5 29  1  0  0  0  0
  6 22  1  0  0  0  0
  6 30  1  0  0  0  0
  7 22  2  0  0  0  0
  8  9  1  0  0  0  0
  8 12  1  0  0  0  0
  8 14  2  0  0  0  0
  9 13  1  0  0  0  0
  9 15  2  0  0  0  0
 10 11  2  0  0  0  0
 10 13  1  0  0  0  0
 10 16  1  0  0  0  0
 11 12  1  0  0  0  0
 11 17  1  0  0  0  0
 14 18  1  0  0  0  0
 14 22  1  0  0  0  0
 15 19  1  0  0  0  0
 16 21  2  0  0  0  0
 17 20  2  0  0  0  0
 17 23  1  0  0  0  0
 18 19  2  0  0  0  0
 18 24  1  0  0  0  0
 19 25  1  0  0  0  0
 20 21  1  0  0  0  0
 21 26  1  0  0  0  0
M  END
> <PUBCHEM_COMPOUND_CID>
10169

> <PUBCHEM_CONFORMER_RMSD>
0.6

> <PUBCHEM_CONFORMER_DIVERSEORDER>
1

> <PUBCHEM_MMFF94_PARTIAL_CHARGES>
30
1 -0.57
10 0.09
11 0.09
12 0.4
13 0.4
14 0.09
15 0.08
16 0.08
17 -0.15
18 -0.15
19 -0.15
2 -0.57
20 0.08
21 -0.15
22 0.63
23 0.15
24 0.15
25 0.15
26 0.15
27 0.45
28 0.45
29 0.45
3 -0.53
30 0.5
4 -0.53
5 -0.53
6 -0.65
7 -0.57
8 0.09
9 0.09

> <PUBCHEM_EFFECTIVE_ROTOR_COUNT>
1

> <PUBCHEM_PHARMACOPHORE_FEATURES>
11
1 1 acceptor
1 2 acceptor
1 3 donor
1 4 donor
1 5 donor
1 6 acceptor
1 7 acceptor
3 6 7 22 anion
6 10 11 16 17 20 21 rings
6 8 9 10 11 12 13 rings
6 8 9 14 15 18 19 rings

> <PUBCHEM_HEAVY_ATOM_COUNT>
22

> <PUBCHEM_ATOM_DEF_STEREO_COUNT>
0

> <PUBCHEM_ATOM_UDEF_STEREO_COUNT>
0

> <PUBCHEM_BOND_DEF_STEREO_COUNT>
0

> <PUBCHEM_BOND_UDEF_STEREO_COUNT>
0

> <PUBCHEM_ISOTOPIC_ATOM_COUNT>
0

> <PUBCHEM_COMPONENT_COUNT>
1

> <PUBCHEM_CACTVS_TAUTO_COUNT>
69

> <PUBCHEM_CONFORMER_ID>
000027B900000001

> <PUBCHEM_MMFF94_ENERGY>
76.8278

> <PUBCHEM_FEATURE_SELFOVERLAP>
55.92

> <PUBCHEM_SHAPE_FINGERPRINT>
10319926 262 18118424864857064736
10411042 1 16897645685539338210
10493431 412 18335973247111306385
10608611 8 18410576179995829468
10616163 171 18338232640068117238
10863032 1 18409166619090012500
10967382 1 18410856568240293166
1100329 8 17256525747414125832
12173636 292 18411140216560113869
12390115 104 18261935389112459480
12403260 363 18337686294337293679
12553582 1 17978233759674208251
12633257 1 18194686088461114752
13140716 1 18339356482469152611
13583140 156 16845017912897981585
138480 1 17257935326011897911
14081887 123 18117008684219194784
14178342 30 18339655425605571672
14223421 5 18337674088013319024
14790565 3 18048305932181758545
15196674 1 18410856559645064334
15442244 35 18411139181779249066
15536298 74 18335137575250196070
16945 1 18194683906380318894
17492 89 18411700980492258626
18186145 218 18263357143714973916
19591789 44 18339358668750177611
20510252 161 18335136449678633969
20905425 154 18335979749232655110
21267235 1 18410846647119521186
21279426 13 18336259129140603108
21501502 16 18409731772145313866
2334 1 18410575054608870350
23366157 5 18131632288375692242
23402539 116 18119254956389020294
23558518 356 18272646822836982059
23559900 14 18261674891626103094
238 59 17336507436313305613
2748010 2 18410290302588008694
335352 9 18194683906644225830
34934 24 18266465316931305438
350125 39 18410849997483662321
352729 6 18263924504404356523
474 4 18047471420436403305
5104073 3 18411420613938052472
7097593 13 17842857778069142266
9709674 26 18408037395047547926

> <PUBCHEM_SHAPE_MULTIPOLES>
411.66
7.17
3.54
0.68
3.61
0.76
-0.02
-2.5
-0.02
-1.41
0
-0.29
-0.24
-0.03

> <PUBCHEM_SHAPE_SELFOVERLAP>
938.978

> <PUBCHEM_SHAPE_VOLUME>
211.5

> <PUBCHEM_COORDINATE_TYPE>
2
5
10

$$$$

