13406
  -OEChem-06261209453D

 24 24  0     0  0  0  0  0  0999 V2000
   -2.9660    0.0887   -0.9005 O   0  0  0  0  0  0  0  0  0  0  0  0
    2.7898   -0.6678   -0.0109 C   0  0  0  0  0  0  0  0  0  0  0  0
    2.5086    0.7011    0.6107 C   0  0  0  0  0  0  0  0  0  0  0  0
    1.5233   -1.5224   -0.0847 C   0  0  0  0  0  0  0  0  0  0  0  0
    1.3815    1.4355   -0.1167 C   0  0  0  0  0  0  0  0  0  0  0  0
    0.3909   -0.7992   -0.8153 C   0  0  0  0  0  0  0  0  0  0  0  0
    0.1567    0.5648   -0.2200 C   0  0  0  0  0  0  0  0  0  0  0  0
   -1.0496    0.9664    0.2056 C   0  0  0  0  0  0  0  0  0  0  0  0
   -2.2301    0.0737    0.0837 C   0  0  0  0  0  0  0  0  0  0  0  0
   -2.5051   -0.8407    1.2481 C   0  0  0  0  0  0  0  0  0  0  0  0
    3.1984   -0.5332   -1.0199 H   0  0  0  0  0  0  0  0  0  0  0  0
    3.5530   -1.1900    0.5770 H   0  0  0  0  0  0  0  0  0  0  0  0
    3.4197    1.3097    0.5862 H   0  0  0  0  0  0  0  0  0  0  0  0
    2.2403    0.5709    1.6669 H   0  0  0  0  0  0  0  0  0  0  0  0
    1.1990   -1.7800    0.9316 H   0  0  0  0  0  0  0  0  0  0  0  0
    1.7479   -2.4651   -0.5966 H   0  0  0  0  0  0  0  0  0  0  0  0
    1.7106    1.7058   -1.1278 H   0  0  0  0  0  0  0  0  0  0  0  0
    1.1633    2.3730    0.4080 H   0  0  0  0  0  0  0  0  0  0  0  0
   -0.4924   -1.4440   -0.8074 H   0  0  0  0  0  0  0  0  0  0  0  0
    0.6656   -0.6724   -1.8706 H   0  0  0  0  0  0  0  0  0  0  0  0
   -1.2186    1.9469    0.6354 H   0  0  0  0  0  0  0  0  0  0  0  0
   -1.7263   -0.7539    2.0111 H   0  0  0  0  0  0  0  0  0  0  0  0
   -3.4649   -0.5724    1.6970 H   0  0  0  0  0  0  0  0  0  0  0  0
   -2.5304   -1.8753    0.8959 H   0  0  0  0  0  0  0  0  0  0  0  0
  1  9  2  0  0  0  0
  2  3  1  0  0  0  0
  2  4  1  0  0  0  0
  2 11  1  0  0  0  0
  2 12  1  0  0  0  0
  3  5  1  0  0  0  0
  3 13  1  0  0  0  0
  3 14  1  0  0  0  0
  4  6  1  0  0  0  0
  4 15  1  0  0  0  0
  4 16  1  0  0  0  0
  5  7  1  0  0  0  0
  5 17  1  0  0  0  0
  5 18  1  0  0  0  0
  6  7  1  0  0  0  0
  6 19  1  0  0  0  0
  6 20  1  0  0  0  0
  7  8  2  0  0  0  0
  8  9  1  0  0  0  0
  8 21  1  0  0  0  0
  9 10  1  0  0  0  0
 10 22  1  0  0  0  0
 10 23  1  0  0  0  0
 10 24  1  0  0  0  0
M  END
> <PUBCHEM_COMPOUND_CID>
13406

> <PUBCHEM_CONFORMER_RMSD>
0.4

> <PUBCHEM_CONFORMER_DIVERSEORDER>
1
10
3
16
2
4
12
7
14
8
9
5
13
6
11
15

> <PUBCHEM_MMFF94_PARTIAL_CHARGES>
8
1 -0.57
10 0.06
21 0.15
5 0.14
6 0.14
7 -0.28
8 -0.14
9 0.49

> <PUBCHEM_EFFECTIVE_ROTOR_COUNT>
2

> <PUBCHEM_PHARMACOPHORE_FEATURES>
2
1 1 acceptor
6 2 3 4 5 6 7 rings

> <PUBCHEM_HEAVY_ATOM_COUNT>
10

> <PUBCHEM_ATOM_DEF_STEREO_COUNT>
0

> <PUBCHEM_ATOM_UDEF_STEREO_COUNT>
0

> <PUBCHEM_BOND_DEF_STEREO_COUNT>
0

> <PUBCHEM_BOND_UDEF_STEREO_COUNT>
0

> <PUBCHEM_ISOTOPIC_ATOM_COUNT>
0

> <PUBCHEM_COMPONENT_COUNT>
1

> <PUBCHEM_CACTVS_TAUTO_COUNT>
5

> <PUBCHEM_CONFORMER_ID>
0000345E00000001

> <PUBCHEM_MMFF94_ENERGY>
12.1864

> <PUBCHEM_FEATURE_SELFOVERLAP>
10.148

> <PUBCHEM_SHAPE_FINGERPRINT>
10219947 1 18407762529893409420
10857977 72 18342178864519718586
12716758 59 17560525109268399945
12932741 1 18131632283373609415
12932764 1 17822005406640178225
14325111 11 18333454222515690708
15775835 57 17603304825697793417
16945 1 18408038494395339828
20201158 50 18342741844548694235
20711985 344 17770788119314747620
21040471 1 18190182282891689236
23552423 10 18341608260813412284
2748010 2 18118406382857908540
29004967 10 18413105078225165256
3248919 1 18273215296149896909
5084963 1 17603592945125943850

> <PUBCHEM_SHAPE_MULTIPOLES>
199.93
4.42
1.42
0.94
1.25
0.06
0.08
0.51
0.54
-0.62
0.03
0.44
0.13
0.38

> <PUBCHEM_SHAPE_SELFOVERLAP>
392.344

> <PUBCHEM_SHAPE_VOLUME>
119

> <PUBCHEM_COORDINATE_TYPE>
2
5
10

$$$$

