3873
  -OEChem-06251223442D

 59 61  0     1  0  0  0  0  0999 V2000
    4.4487   -4.1488    0.0000 S   0  0  3  0  0  0  0  0  0  0  0  0
    7.9128    1.8512    0.0000 O   0  0  0  0  0  0  0  0  0  0  0  0
    3.4782   -6.6433    0.0000 O   0  0  0  0  0  0  0  0  0  0  0  0
    3.5827   -3.6488    0.0000 O   0  0  0  0  0  0  0  0  0  0  0  0
    4.4487   -2.1488    0.0000 O   0  0  0  0  0  0  0  0  0  0  0  0
   10.5109    5.3512    0.0000 N   0  0  0  0  0  0  0  0  0  0  0  0
    9.6448    1.8512    0.0000 N   0  0  0  0  0  0  0  0  0  0  0  0
    6.1808   -2.1488    0.0000 N   0  0  0  0  0  0  0  0  0  0  0  0
   11.3769    4.8512    0.0000 C   0  0  0  0  0  0  0  0  0  0  0  0
   10.5109    6.3512    0.0000 C   0  0  0  0  0  0  0  0  0  0  0  0
   11.3769    6.8512    0.0000 C   0  0  0  0  0  0  0  0  0  0  0  0
   12.2429    5.3512    0.0000 C   0  0  0  0  0  0  0  0  0  0  0  0
   12.2429    6.3512    0.0000 C   0  0  0  0  0  0  0  0  0  0  0  0
    9.6448    4.8512    0.0000 C   0  0  0  0  0  0  0  0  0  0  0  0
    9.6448    3.8512    0.0000 C   0  0  0  0  0  0  0  0  0  0  0  0
    8.7788    3.3512    0.0000 C   0  0  0  0  0  0  0  0  0  0  0  0
   10.5109    3.3512    0.0000 C   0  0  0  0  0  0  0  0  0  0  0  0
    8.7788    2.3512    0.0000 C   0  0  0  0  0  0  0  0  0  0  0  0
   10.5109    2.3512    0.0000 C   0  0  0  0  0  0  0  0  0  0  0  0
    7.9128    0.8512    0.0000 C   0  0  0  0  0  0  0  0  0  0  0  0
    7.0468    0.3512    0.0000 C   0  0  0  0  0  0  0  0  0  0  0  0
    4.4487   -5.1488    0.0000 C   0  0  0  0  0  0  0  0  0  0  0  0
    5.3147   -3.6488    0.0000 C   0  0  0  0  0  0  0  0  0  0  0  0
    6.1808   -1.1488    0.0000 C   0  0  0  0  0  0  0  0  0  0  0  0
    7.0468   -0.6488    0.0000 C   0  0  0  0  0  0  0  0  0  0  0  0
    3.5827   -5.6488    0.0000 C   0  0  0  0  0  0  0  0  0  0  0  0
    5.3147   -2.6488    0.0000 C   0  0  0  0  0  0  0  0  0  0  0  0
    2.6691   -5.2420    0.0000 C   0  0  0  0  0  0  0  0  0  0  0  0
    2.0000   -5.9852    0.0000 C   0  0  0  0  0  0  0  0  0  0  0  0
    2.5000   -6.8512    0.0000 C   0  0  0  0  0  0  0  0  0  0  0  0
   10.9784    4.3763    0.0000 H   0  0  0  0  0  0  0  0  0  0  0  0
   11.7754    4.3763    0.0000 H   0  0  0  0  0  0  0  0  0  0  0  0
   10.2988    6.9338    0.0000 H   0  0  0  0  0  0  0  0  0  0  0  0
    9.9003    6.2436    0.0000 H   0  0  0  0  0  0  0  0  0  0  0  0
   11.7754    7.3262    0.0000 H   0  0  0  0  0  0  0  0  0  0  0  0
   10.9784    7.3262    0.0000 H   0  0  0  0  0  0  0  0  0  0  0  0
   12.4550    4.7686    0.0000 H   0  0  0  0  0  0  0  0  0  0  0  0
   12.8535    5.4589    0.0000 H   0  0  0  0  0  0  0  0  0  0  0  0
   12.8535    6.2436    0.0000 H   0  0  0  0  0  0  0  0  0  0  0  0
   12.4550    6.9338    0.0000 H   0  0  0  0  0  0  0  0  0  0  0  0
    9.4328    5.4338    0.0000 H   0  0  0  0  0  0  0  0  0  0  0  0
    9.0343    4.7436    0.0000 H   0  0  0  0  0  0  0  0  0  0  0  0
    8.2419    3.6612    0.0000 H   0  0  0  0  0  0  0  0  0  0  0  0
   11.0478    3.6612    0.0000 H   0  0  0  0  0  0  0  0  0  0  0  0
   11.0478    2.0412    0.0000 H   0  0  0  0  0  0  0  0  0  0  0  0
    8.1249    0.2686    0.0000 H   0  0  0  0  0  0  0  0  0  0  0  0
    8.5234    0.9589    0.0000 H   0  0  0  0  0  0  0  0  0  0  0  0
    4.6608   -5.7314    0.0000 H   0  0  0  0  0  0  0  0  0  0  0  0
    5.0593   -5.0411    0.0000 H   0  0  0  0  0  0  0  0  0  0  0  0
    6.5098    0.6612    0.0000 H   0  0  0  0  0  0  0  0  0  0  0  0
    5.5268   -4.2314    0.0000 H   0  0  0  0  0  0  0  0  0  0  0  0
    5.9253   -3.5411    0.0000 H   0  0  0  0  0  0  0  0  0  0  0  0
    5.9687   -0.5662    0.0000 H   0  0  0  0  0  0  0  0  0  0  0  0
    5.5702   -1.2564    0.0000 H   0  0  0  0  0  0  0  0  0  0  0  0
    7.5837   -0.9588    0.0000 H   0  0  0  0  0  0  0  0  0  0  0  0
    6.7177   -2.4588    0.0000 H   0  0  0  0  0  0  0  0  0  0  0  0
    2.5402   -4.6356    0.0000 H   0  0  0  0  0  0  0  0  0  0  0  0
    1.3834   -5.9204    0.0000 H   0  0  0  0  0  0  0  0  0  0  0  0
    2.2478   -7.4176    0.0000 H   0  0  0  0  0  0  0  0  0  0  0  0
  1  4  2  0  0  0  0
  1 22  1  0  0  0  0
  1 23  1  0  0  0  0
  2 18  1  0  0  0  0
  2 20  1  0  0  0  0
  3 26  1  0  0  0  0
  3 30  1  0  0  0  0
  5 27  2  0  0  0  0
  6  9  1  0  0  0  0
  6 10  1  0  0  0  0
  6 14  1  0  0  0  0
  7 18  2  0  0  0  0
  7 19  1  0  0  0  0
  8 24  1  0  0  0  0
  8 27  1  0  0  0  0
  8 56  1  0  0  0  0
  9 12  1  0  0  0  0
  9 31  1  0  0  0  0
  9 32  1  0  0  0  0
 10 11  1  0  0  0  0
 10 33  1  0  0  0  0
 10 34  1  0  0  0  0
 11 13  1  0  0  0  0
 11 35  1  0  0  0  0
 11 36  1  0  0  0  0
 12 13  1  0  0  0  0
 12 37  1  0  0  0  0
 12 38  1  0  0  0  0
 13 39  1  0  0  0  0
 13 40  1  0  0  0  0
 14 15  1  0  0  0  0
 14 41  1  0  0  0  0
 14 42  1  0  0  0  0
 15 16  2  0  0  0  0
 15 17  1  0  0  0  0
 16 18  1  0  0  0  0
 16 43  1  0  0  0  0
 17 19  2  0  0  0  0
 17 44  1  0  0  0  0
 19 45  1  0  0  0  0
 20 21  1  0  0  0  0
 20 46  1  0  0  0  0
 20 47  1  0  0  0  0
 21 25  2  3  0  0  0
 21 50  1  0  0  0  0
 22 26  1  0  0  0  0
 22 48  1  0  0  0  0
 22 49  1  0  0  0  0
 23 27  1  0  0  0  0
 23 51  1  0  0  0  0
 23 52  1  0  0  0  0
 24 25  1  0  0  0  0
 24 53  1  0  0  0  0
 24 54  1  0  0  0  0
 25 55  1  0  0  0  0
 26 28  2  0  0  0  0
 28 29  1  0  0  0  0
 28 57  1  0  0  0  0
 29 30  2  0  0  0  0
 29 58  1  0  0  0  0
 30 59  1  0  0  0  0
M  END
> <PUBCHEM_COMPOUND_CID>
3873

> <PUBCHEM_COMPOUND_CANONICALIZED>
1

> <PUBCHEM_CACTVS_COMPLEXITY>
569

> <PUBCHEM_CACTVS_HBOND_ACCEPTOR>
7

> <PUBCHEM_CACTVS_HBOND_DONOR>
1

> <PUBCHEM_CACTVS_ROTATABLE_BOND>
11

> <PUBCHEM_CACTVS_SUBSKEYS>
AAADceB7OABAAAAAAAAAAAAAAAAAASAAAAAsWAAAAAAAAAAB4AAAHgQQAAAADATl2ga8hJPIFEqoArl31EDCiCA1IjAI2KE+bNgMJnLktZuOOSjk1hHo6Ya4EAAKAAAAAAAAAAAAAAAAAAAAAAAAAAAAAA==

> <PUBCHEM_IUPAC_OPENEYE_NAME>
2-(2-furylmethylsulfinyl)-N-[4-[[4-(1-piperidylmethyl)-2-pyridyl]oxy]but-2-enyl]acetamide

> <PUBCHEM_IUPAC_CAS_NAME>
2-(2-furanylmethylsulfinyl)-N-[4-[[4-(1-piperidinylmethyl)-2-pyridinyl]oxy]but-2-enyl]acetamide

> <PUBCHEM_IUPAC_NAME>
2-(furan-2-ylmethylsulfinyl)-N-[4-[4-(piperidin-1-ylmethyl)pyridin-2-yl]oxybut-2-enyl]acetamide

> <PUBCHEM_IUPAC_SYSTEMATIC_NAME>
2-(furan-2-ylmethylsulfinyl)-N-[4-[4-(piperidin-1-ylmethyl)pyridin-2-yl]oxybut-2-enyl]ethanamide

> <PUBCHEM_IUPAC_TRADITIONAL_NAME>
2-(2-furfurylsulfinyl)-N-[4-[[4-(piperidinomethyl)-2-pyridyl]oxy]but-2-enyl]acetamide

> <PUBCHEM_IUPAC_INCHI>
InChI=1S/C22H29N3O4S/c26-21(18-30(27)17-20-7-6-14-28-20)23-9-2-5-13-29-22-15-19(8-10-24-22)16-25-11-3-1-4-12-25/h2,5-8,10,14-15H,1,3-4,9,11-13,16-18H2,(H,23,26)

> <PUBCHEM_IUPAC_INCHIKEY>
KMZQAVXSMUKBPD-UHFFFAOYSA-N

> <PUBCHEM_XLOGP3_AA>
1.4

> <PUBCHEM_EXACT_MASS>
431.187877

> <PUBCHEM_MOLECULAR_FORMULA>
C22H29N3O4S

> <PUBCHEM_MOLECULAR_WEIGHT>
431.54836

> <PUBCHEM_OPENEYE_CAN_SMILES>
C1CCN(CC1)CC2=CC(=NC=C2)OCC=CCNC(=O)CS(=O)CC3=CC=CO3

> <PUBCHEM_OPENEYE_ISO_SMILES>
C1CCN(CC1)CC2=CC(=NC=C2)OCC=CCNC(=O)CS(=O)CC3=CC=CO3

> <PUBCHEM_CACTVS_TPSA>
104

> <PUBCHEM_MONOISOTOPIC_WEIGHT>
431.187877

> <PUBCHEM_TOTAL_CHARGE>
0

> <PUBCHEM_HEAVY_ATOM_COUNT>
30

> <PUBCHEM_ATOM_DEF_STEREO_COUNT>
0

> <PUBCHEM_ATOM_UDEF_STEREO_COUNT>
1

> <PUBCHEM_BOND_DEF_STEREO_COUNT>
0

> <PUBCHEM_BOND_UDEF_STEREO_COUNT>
1

> <PUBCHEM_ISOTOPIC_ATOM_COUNT>
0

> <PUBCHEM_COMPONENT_COUNT>
1

> <PUBCHEM_CACTVS_TAUTO_COUNT>
2

> <PUBCHEM_COORDINATE_TYPE>
1
5
255

> <PUBCHEM_BONDANNOTATIONS>
1  22  3
15  16  8
15  17  8
16  18  8
17  19  8
21  25  1
26  28  8
28  29  8
29  30  8
3  26  8
3  30  8
7  18  8
7  19  8

$$$$

