3463
  -OEChem-06251223252D

 40 40  0     0  0  0  0  0  0999 V2000
    3.7320   -1.0600    0.0000 O   0  0  0  0  0  0  0  0  0  0  0  0
    6.3301    3.4400    0.0000 O   0  0  0  0  0  0  0  0  0  0  0  0
    4.5981    3.4400    0.0000 O   0  0  0  0  0  0  0  0  0  0  0  0
    5.4641    1.9400    0.0000 C   0  0  0  0  0  0  0  0  0  0  0  0
    5.4641    0.9400    0.0000 C   0  0  0  0  0  0  0  0  0  0  0  0
    4.5981    0.4400    0.0000 C   0  0  0  0  0  0  0  0  0  0  0  0
    6.4641    1.9400    0.0000 C   0  0  0  0  0  0  0  0  0  0  0  0
    4.4641    1.9400    0.0000 C   0  0  0  0  0  0  0  0  0  0  0  0
    4.5981   -0.5600    0.0000 C   0  0  0  0  0  0  0  0  0  0  0  0
    5.4641    2.9400    0.0000 C   0  0  0  0  0  0  0  0  0  0  0  0
    3.7320   -2.0600    0.0000 C   0  0  0  0  0  0  0  0  0  0  0  0
    2.8660   -2.5600    0.0000 C   0  0  0  0  0  0  0  0  0  0  0  0
    4.5981   -2.5600    0.0000 C   0  0  0  0  0  0  0  0  0  0  0  0
    4.5981   -3.5600    0.0000 C   0  0  0  0  0  0  0  0  0  0  0  0
    2.8660   -3.5600    0.0000 C   0  0  0  0  0  0  0  0  0  0  0  0
    3.7320   -4.0600    0.0000 C   0  0  0  0  0  0  0  0  0  0  0  0
    2.0000   -2.0600    0.0000 C   0  0  0  0  0  0  0  0  0  0  0  0
    5.4641   -4.0600    0.0000 C   0  0  0  0  0  0  0  0  0  0  0  0
    5.6762    0.3574    0.0000 H   0  0  0  0  0  0  0  0  0  0  0  0
    6.0747    1.0477    0.0000 H   0  0  0  0  0  0  0  0  0  0  0  0
    4.3860    1.0226    0.0000 H   0  0  0  0  0  0  0  0  0  0  0  0
    3.9875    0.3323    0.0000 H   0  0  0  0  0  0  0  0  0  0  0  0
    6.4641    1.3200    0.0000 H   0  0  0  0  0  0  0  0  0  0  0  0
    7.0841    1.9400    0.0000 H   0  0  0  0  0  0  0  0  0  0  0  0
    6.4641    2.5600    0.0000 H   0  0  0  0  0  0  0  0  0  0  0  0
    4.4641    2.5600    0.0000 H   0  0  0  0  0  0  0  0  0  0  0  0
    3.8441    1.9400    0.0000 H   0  0  0  0  0  0  0  0  0  0  0  0
    4.4641    1.3200    0.0000 H   0  0  0  0  0  0  0  0  0  0  0  0
    4.8101   -1.1426    0.0000 H   0  0  0  0  0  0  0  0  0  0  0  0
    5.2087   -0.4523    0.0000 H   0  0  0  0  0  0  0  0  0  0  0  0
    6.3301    4.0600    0.0000 H   0  0  0  0  0  0  0  0  0  0  0  0
    5.1350   -2.2500    0.0000 H   0  0  0  0  0  0  0  0  0  0  0  0
    2.3291   -3.8700    0.0000 H   0  0  0  0  0  0  0  0  0  0  0  0
    3.7320   -4.6800    0.0000 H   0  0  0  0  0  0  0  0  0  0  0  0
    2.3100   -1.5231    0.0000 H   0  0  0  0  0  0  0  0  0  0  0  0
    1.4631   -1.7500    0.0000 H   0  0  0  0  0  0  0  0  0  0  0  0
    1.6900   -2.5969    0.0000 H   0  0  0  0  0  0  0  0  0  0  0  0
    5.1541   -4.5969    0.0000 H   0  0  0  0  0  0  0  0  0  0  0  0
    6.0010   -4.3700    0.0000 H   0  0  0  0  0  0  0  0  0  0  0  0
    5.7741   -3.5231    0.0000 H   0  0  0  0  0  0  0  0  0  0  0  0
  1  9  1  0  0  0  0
  1 11  1  0  0  0  0
  2 10  1  0  0  0  0
  2 31  1  0  0  0  0
  3 10  2  0  0  0  0
  4  5  1  0  0  0  0
  4  7  1  0  0  0  0
  4  8  1  0  0  0  0
  4 10  1  0  0  0  0
  5  6  1  0  0  0  0
  5 19  1  0  0  0  0
  5 20  1  0  0  0  0
  6  9  1  0  0  0  0
  6 21  1  0  0  0  0
  6 22  1  0  0  0  0
  7 23  1  0  0  0  0
  7 24  1  0  0  0  0
  7 25  1  0  0  0  0
  8 26  1  0  0  0  0
  8 27  1  0  0  0  0
  8 28  1  0  0  0  0
  9 29  1  0  0  0  0
  9 30  1  0  0  0  0
 11 12  2  0  0  0  0
 11 13  1  0  0  0  0
 12 15  1  0  0  0  0
 12 17  1  0  0  0  0
 13 14  2  0  0  0  0
 13 32  1  0  0  0  0
 14 16  1  0  0  0  0
 14 18  1  0  0  0  0
 15 16  2  0  0  0  0
 15 33  1  0  0  0  0
 16 34  1  0  0  0  0
 17 35  1  0  0  0  0
 17 36  1  0  0  0  0
 17 37  1  0  0  0  0
 18 38  1  0  0  0  0
 18 39  1  0  0  0  0
 18 40  1  0  0  0  0
M  END
> <PUBCHEM_COMPOUND_CID>
3463

> <PUBCHEM_COMPOUND_CANONICALIZED>
1

> <PUBCHEM_CACTVS_COMPLEXITY>
273

> <PUBCHEM_CACTVS_HBOND_ACCEPTOR>
3

> <PUBCHEM_CACTVS_HBOND_DONOR>
1

> <PUBCHEM_CACTVS_ROTATABLE_BOND>
6

> <PUBCHEM_CACTVS_SUBSKEYS>
AAADceBwMAAAAAAAAAAAAAAAAAAAAAAAAAAwAAAAAAAAAAABAAAAGgAACAAADgSgmAIyDoAABgCIAiDSCAACCAAgIAAIiAEGCIgMJjKEMRqCeCCkwBEIqAeI5DgPQAABAAAIAACAAAIAABAAAAAAAAAAAA==

> <PUBCHEM_IUPAC_OPENEYE_NAME>
5-(2,5-dimethylphenoxy)-2,2-dimethyl-pentanoic acid

> <PUBCHEM_IUPAC_CAS_NAME>
5-(2,5-dimethylphenoxy)-2,2-dimethylpentanoic acid

> <PUBCHEM_IUPAC_NAME>
5-(2,5-dimethylphenoxy)-2,2-dimethylpentanoic acid

> <PUBCHEM_IUPAC_SYSTEMATIC_NAME>
5-(2,5-dimethylphenoxy)-2,2-dimethyl-pentanoic acid

> <PUBCHEM_IUPAC_TRADITIONAL_NAME>
5-(2,5-dimethylphenoxy)-2,2-dimethyl-valeric acid

> <PUBCHEM_IUPAC_INCHI>
InChI=1S/C15H22O3/c1-11-6-7-12(2)13(10-11)18-9-5-8-15(3,4)14(16)17/h6-7,10H,5,8-9H2,1-4H3,(H,16,17)

> <PUBCHEM_IUPAC_INCHIKEY>
HEMJJKBWTPKOJG-UHFFFAOYSA-N

> <PUBCHEM_XLOGP3_AA>
3.8

> <PUBCHEM_EXACT_MASS>
250.156895

> <PUBCHEM_MOLECULAR_FORMULA>
C15H22O3

> <PUBCHEM_MOLECULAR_WEIGHT>
250.33338

> <PUBCHEM_OPENEYE_CAN_SMILES>
CC1=CC(=C(C=C1)C)OCCCC(C)(C)C(=O)O

> <PUBCHEM_OPENEYE_ISO_SMILES>
CC1=CC(=C(C=C1)C)OCCCC(C)(C)C(=O)O

> <PUBCHEM_CACTVS_TPSA>
46.5

> <PUBCHEM_MONOISOTOPIC_WEIGHT>
250.156895

> <PUBCHEM_TOTAL_CHARGE>
0

> <PUBCHEM_HEAVY_ATOM_COUNT>
18

> <PUBCHEM_ATOM_DEF_STEREO_COUNT>
0

> <PUBCHEM_ATOM_UDEF_STEREO_COUNT>
0

> <PUBCHEM_BOND_DEF_STEREO_COUNT>
0

> <PUBCHEM_BOND_UDEF_STEREO_COUNT>
0

> <PUBCHEM_ISOTOPIC_ATOM_COUNT>
0

> <PUBCHEM_COMPONENT_COUNT>
1

> <PUBCHEM_CACTVS_TAUTO_COUNT>
1

> <PUBCHEM_COORDINATE_TYPE>
1
5
255

> <PUBCHEM_BONDANNOTATIONS>
11  12  8
11  13  8
12  15  8
13  14  8
14  16  8
15  16  8

$$$$

