7847001
  -OEChem-06241222483D

 42 44  0     1  0  0  0  0  0999 V2000
    5.0829    1.7820    0.0874 Cl  0  0  0  0  0  0  0  0  0  0  0  0
   -0.5333   -3.1430   -1.3287 S   0  0  0  0  0  0  0  0  0  0  0  0
   -3.3631    0.7862   -0.6799 O   0  0  0  0  0  0  0  0  0  0  0  0
   -3.0235   -0.1472    1.4022 O   0  0  0  0  0  0  0  0  0  0  0  0
   -1.4838    2.2984    1.6301 O   0  0  0  0  0  0  0  0  0  0  0  0
   -0.6776   -2.0450    1.0007 N   0  0  0  0  0  0  0  0  0  0  0  0
   -0.7235    1.9039   -0.5559 N   0  0  0  0  0  0  0  0  0  0  0  0
    1.4313    1.6627   -1.5002 N   0  0  0  0  0  0  0  0  0  0  0  0
   -2.8614   -2.7495    0.0865 C   0  0  0  0  0  0  0  0  0  0  0  0
   -3.6034   -1.5377   -0.5073 C   0  0  0  0  0  0  0  0  0  0  0  0
   -1.3916   -2.5906    0.0438 C   0  0  0  0  0  0  0  0  0  0  0  0
   -3.0935    2.0854   -0.1433 C   0  0  2  0  0  0  0  0  0  0  0  0
    0.9411   -2.6166   -0.6062 C   0  0  0  0  0  0  0  0  0  0  0  0
    0.6625   -2.0528    0.6425 C   0  0  0  0  0  0  0  0  0  0  0  0
   -3.2922   -0.2453    0.2129 C   0  0  0  0  0  0  0  0  0  0  0  0
   -3.2683    3.1278   -1.2378 C   0  0  0  0  0  0  0  0  0  0  0  0
   -1.6802    2.1061    0.4336 C   0  0  0  0  0  0  0  0  0  0  0  0
    2.2500   -2.6968   -1.1084 C   0  0  0  0  0  0  0  0  0  0  0  0
    1.7338   -1.5522    1.4140 C   0  0  0  0  0  0  0  0  0  0  0  0
    3.2917   -2.1941   -0.3248 C   0  0  0  0  0  0  0  0  0  0  0  0
    3.0392   -1.6288    0.9202 C   0  0  0  0  0  0  0  0  0  0  0  0
    0.6833    1.8749   -0.4031 C   0  0  0  0  0  0  0  0  0  0  0  0
    1.1768    2.0673    0.8697 C   0  0  0  0  0  0  0  0  0  0  0  0
    2.5577    2.0394    1.0303 C   0  0  0  0  0  0  0  0  0  0  0  0
    3.3761    1.8233   -0.0730 C   0  0  0  0  0  0  0  0  0  0  0  0
    2.7689    1.6423   -1.3052 C   0  0  0  0  0  0  0  0  0  0  0  0
   -3.1767   -3.6568   -0.4429 H   0  0  0  0  0  0  0  0  0  0  0  0
   -3.1707   -2.8839    1.1309 H   0  0  0  0  0  0  0  0  0  0  0  0
   -3.3287   -1.4323   -1.5641 H   0  0  0  0  0  0  0  0  0  0  0  0
   -4.6853   -1.6993   -0.4528 H   0  0  0  0  0  0  0  0  0  0  0  0
   -3.8071    2.2969    0.6629 H   0  0  0  0  0  0  0  0  0  0  0  0
   -2.7223    2.8681   -2.1506 H   0  0  0  0  0  0  0  0  0  0  0  0
   -2.9417    4.1175   -0.9038 H   0  0  0  0  0  0  0  0  0  0  0  0
   -4.3238    3.1898   -1.5257 H   0  0  0  0  0  0  0  0  0  0  0  0
    2.4546   -3.1361   -2.0799 H   0  0  0  0  0  0  0  0  0  0  0  0
    1.5477   -1.1086    2.3880 H   0  0  0  0  0  0  0  0  0  0  0  0
   -1.0362    1.7305   -1.5071 H   0  0  0  0  0  0  0  0  0  0  0  0
    4.3123   -2.2451   -0.6951 H   0  0  0  0  0  0  0  0  0  0  0  0
    3.8622   -1.2443    1.5164 H   0  0  0  0  0  0  0  0  0  0  0  0
    0.6115    2.2372    1.7699 H   0  0  0  0  0  0  0  0  0  0  0  0
    2.9842    2.1854    2.0193 H   0  0  0  0  0  0  0  0  0  0  0  0
    3.3524    1.4680   -2.2042 H   0  0  0  0  0  0  0  0  0  0  0  0
  1 25  1  0  0  0  0
  2 11  1  0  0  0  0
  2 13  1  0  0  0  0
  3 12  1  0  0  0  0
  3 15  1  0  0  0  0
  4 15  2  0  0  0  0
  5 17  2  0  0  0  0
  6 11  2  0  0  0  0
  6 14  1  0  0  0  0
  7 17  1  0  0  0  0
  7 22  1  0  0  0  0
  7 37  1  0  0  0  0
  8 22  2  0  0  0  0
  8 26  1  0  0  0  0
  9 10  1  0  0  0  0
  9 11  1  0  0  0  0
  9 27  1  0  0  0  0
  9 28  1  0  0  0  0
 10 15  1  0  0  0  0
 10 29  1  0  0  0  0
 10 30  1  0  0  0  0
 12 16  1  0  0  0  0
 12 17  1  0  0  0  0
 12 31  1  0  0  0  0
 13 14  1  0  0  0  0
 13 18  2  0  0  0  0
 14 19  2  0  0  0  0
 16 32  1  0  0  0  0
 16 33  1  0  0  0  0
 16 34  1  0  0  0  0
 18 20  1  0  0  0  0
 18 35  1  0  0  0  0
 19 21  1  0  0  0  0
 19 36  1  0  0  0  0
 20 21  2  0  0  0  0
 20 38  1  0  0  0  0
 21 39  1  0  0  0  0
 22 23  1  0  0  0  0
 23 24  2  0  0  0  0
 23 40  1  0  0  0  0
 24 25  1  0  0  0  0
 24 41  1  0  0  0  0
 25 26  2  0  0  0  0
 26 42  1  0  0  0  0
M  END
> <PUBCHEM_COMPOUND_CID>
7847001

> <PUBCHEM_CONFORMER_RMSD>
1

> <PUBCHEM_CONFORMER_DIVERSEORDER>
1
84
44
128
304
183
117
359
242
21
346
163
340
361
356
103
269
347
313
263
25
244
253
365
309
255
187
332
3
252
159
17
66
52
127
188
131
260
154
227
24
32
64
325
236
118
77
63
369
8
30
51
194
213
281
170
94
12
19
205
235
357
265
126
284
39
338
302
112
355
140
225
311
184
363
92
195
33
9
257
251
301
228
113
376
60
230
206
280
141
243
7
331
322
101
307
40
153
91
333
287
343
122
351
300
119
264
148
46
196
192
182
362
74
180
354
259
344
155
10
15
334
50
366
48
272
305
2
90
79
193
289
142
327
336
249
209
160
273
80
308
88
133
328
109
161
151
238
266
364
368
177
96
13
185
86
245
215
139
108
271
145
116
229
371
16
312
214
41
349
316
38
124
202
75
82
98
67
234
191
282
102
165
348
14
350
224
43
279
335
268
162
323
299
59
339
256
370
6
204
89
367
261
212
174
294
374
114
267
290
175
326
292
56
68
199
78
105
28
179
248
200
240
57
181
222
18
72
135
53
197
247
164
37
81
306
73
250
20
360
95
130
288
285
69
303
166
295
352
71
42
65
297
111
97
219
223
35
83
137
220
278
173
45
104
61
208
231
241
190
375
54
27
87
207
315
221
317
296
341
115
176
167
198
11
239
31
216
314
5
36
342
85
201
22
150
203
110
107
320
47
211
146
49
270
100
55
34
293
106
318
76
226
276
168
358
58
125
121
132
70
283
274
353
233
169
157
158
4
178
298
120
372
138
275
26
324
345
147
123
143
258
373
144
237
254
156
310
172
330
277
23
329
99
93
129
136
62
321
189
319
218
171
262
246
149
29
134
291
286
217
152
337
232
210
186

> <PUBCHEM_MMFF94_PARTIAL_CHARGES>
33
1 -0.18
10 0.06
11 0.2
12 0.34
13 0.04
14 0.23
15 0.66
17 0.57
18 -0.15
19 -0.15
2 -0.08
20 -0.15
21 -0.15
22 0.43
23 -0.15
24 -0.15
25 0.18
26 0.16
3 -0.43
35 0.15
36 0.15
37 0.37
38 0.15
39 0.15
4 -0.57
40 0.15
41 0.15
42 0.15
5 -0.57
6 -0.57
7 -0.55
8 -0.62
9 0.18

> <PUBCHEM_EFFECTIVE_ROTOR_COUNT>
8

> <PUBCHEM_PHARMACOPHORE_FEATURES>
7
1 4 acceptor
1 5 acceptor
1 6 acceptor
1 7 donor
5 2 6 11 13 14 rings
6 13 14 18 19 20 21 rings
6 8 22 23 24 25 26 rings

> <PUBCHEM_HEAVY_ATOM_COUNT>
26

> <PUBCHEM_ATOM_DEF_STEREO_COUNT>
1

> <PUBCHEM_ATOM_UDEF_STEREO_COUNT>
0

> <PUBCHEM_BOND_DEF_STEREO_COUNT>
0

> <PUBCHEM_BOND_UDEF_STEREO_COUNT>
0

> <PUBCHEM_ISOTOPIC_ATOM_COUNT>
0

> <PUBCHEM_COMPONENT_COUNT>
1

> <PUBCHEM_CACTVS_TAUTO_COUNT>
6

> <PUBCHEM_CONFORMER_ID>
0077BC5900000001

> <PUBCHEM_MMFF94_ENERGY>
54.6143

> <PUBCHEM_FEATURE_SELFOVERLAP>
35.595

> <PUBCHEM_SHAPE_FINGERPRINT>
104564 63 18196378022403257288
10616163 171 18340488854860230352
1100329 8 18193839472865527114
11513181 2 18186524310585425662
11578080 2 17130453317554205567
12156800 1 16452978061237442991
12422481 6 18269298853739479114
12788726 201 17908409269990290732
13122387 1 18122060072470602623
13140716 1 18268423719118369201
13642711 20 16589168025920512154
14117953 113 17331694942226296150
14251751 93 18340489950393428084
14251757 17 17897699086137233124
14251757 5 17620739597603070084
14955137 171 17109004251352728409
15210252 30 17262146438081451220
17492 54 17984120828887409598
19930381 70 15816224244643311254
20691752 17 17274822488557539099
20905425 154 18337948987390110807
23566358 2 18408882945005624582
27425 322 16988840600963998517
338550 245 18272647939496843644
35225 105 18116730524915239708
463206 1 18266179435692461707
469060 322 17766541479148888627
5265222 85 18051118204548976332
6287921 2 18115300223454159570
6443956 14 17617382126598484532
9862522 239 18339375054192667872

> <PUBCHEM_SHAPE_MULTIPOLES>
508.24
7.11
5
1.37
1.55
0.89
-0.02
-2.71
0.31
-0.67
0.87
0.14
-0.09
0.23

> <PUBCHEM_SHAPE_SELFOVERLAP>
1070.656

> <PUBCHEM_SHAPE_VOLUME>
287.4

> <PUBCHEM_COORDINATE_TYPE>
2
5
10

$$$$

