47205569
  -OEChem-06241222592D

 38 40  0     0  0  0  0  0  0999 V2000
    3.0000    1.0670    0.0000 S   0  0  0  0  0  0  0  0  0  0  0  0
   10.0084   -1.7378    0.0000 S   0  0  0  0  0  0  0  0  0  0  0  0
    2.0000    1.0670    0.0000 O   0  0  0  0  0  0  0  0  0  0  0  0
    2.5000    1.9330    0.0000 O   0  0  0  0  0  0  0  0  0  0  0  0
    6.4641    1.0670    0.0000 O   0  0  0  0  0  0  0  0  0  0  0  0
    4.7320    0.0670    0.0000 N   0  0  0  0  0  0  0  0  0  0  0  0
    7.3301   -0.4330    0.0000 N   0  0  0  0  0  0  0  0  0  0  0  0
    3.8660   -0.4330    0.0000 C   0  0  0  0  0  0  0  0  0  0  0  0
    4.7320    1.0670    0.0000 C   0  0  0  0  0  0  0  0  0  0  0  0
    3.0000    0.0670    0.0000 C   0  0  0  0  0  0  0  0  0  0  0  0
    3.8660    1.5670    0.0000 C   0  0  0  0  0  0  0  0  0  0  0  0
    5.5981   -0.4330    0.0000 C   0  0  0  0  0  0  0  0  0  0  0  0
    7.3301   -1.4330    0.0000 C   0  0  0  0  0  0  0  0  0  0  0  0
    6.4641    0.0670    0.0000 C   0  0  0  0  0  0  0  0  0  0  0  0
    8.1962    0.0670    0.0000 C   0  0  0  0  0  0  0  0  0  0  0  0
    8.1962   -1.9330    0.0000 C   0  0  0  0  0  0  0  0  0  0  0  0
    9.0622   -0.4330    0.0000 C   0  0  0  0  0  0  0  0  0  0  0  0
    9.0622   -1.4330    0.0000 C   0  0  0  0  0  0  0  0  0  0  0  0
   10.0084   -0.1283    0.0000 C   0  0  0  0  0  0  0  0  0  0  0  0
   10.5920   -0.9330    0.0000 C   0  0  0  0  0  0  0  0  0  0  0  0
    3.4675   -0.9080    0.0000 H   0  0  0  0  0  0  0  0  0  0  0  0
    4.2646   -0.9080    0.0000 H   0  0  0  0  0  0  0  0  0  0  0  0
    5.3426    0.9593    0.0000 H   0  0  0  0  0  0  0  0  0  0  0  0
    4.9441    1.6496    0.0000 H   0  0  0  0  0  0  0  0  0  0  0  0
    2.3894    0.1746    0.0000 H   0  0  0  0  0  0  0  0  0  0  0  0
    2.7880   -0.5156    0.0000 H   0  0  0  0  0  0  0  0  0  0  0  0
    4.2646    2.0419    0.0000 H   0  0  0  0  0  0  0  0  0  0  0  0
    3.4675    2.0419    0.0000 H   0  0  0  0  0  0  0  0  0  0  0  0
    5.1996   -0.9080    0.0000 H   0  0  0  0  0  0  0  0  0  0  0  0
    5.9966   -0.9080    0.0000 H   0  0  0  0  0  0  0  0  0  0  0  0
    6.7196   -1.3254    0.0000 H   0  0  0  0  0  0  0  0  0  0  0  0
    7.1181   -2.0156    0.0000 H   0  0  0  0  0  0  0  0  0  0  0  0
    8.5947    0.5419    0.0000 H   0  0  0  0  0  0  0  0  0  0  0  0
    7.7976    0.5419    0.0000 H   0  0  0  0  0  0  0  0  0  0  0  0
    7.7976   -2.4080    0.0000 H   0  0  0  0  0  0  0  0  0  0  0  0
    8.5947   -2.4080    0.0000 H   0  0  0  0  0  0  0  0  0  0  0  0
   10.2010    0.4610    0.0000 H   0  0  0  0  0  0  0  0  0  0  0  0
   11.2120   -0.9330    0.0000 H   0  0  0  0  0  0  0  0  0  0  0  0
  1  3  2  0  0  0  0
  1  4  2  0  0  0  0
  1 10  1  0  0  0  0
  1 11  1  0  0  0  0
  2 18  1  0  0  0  0
  2 20  1  0  0  0  0
  5 14  2  0  0  0  0
  6  8  1  0  0  0  0
  6  9  1  0  0  0  0
  6 12  1  0  0  0  0
  7 13  1  0  0  0  0
  7 14  1  0  0  0  0
  7 15  1  0  0  0  0
  8 10  1  0  0  0  0
  8 21  1  0  0  0  0
  8 22  1  0  0  0  0
  9 11  1  0  0  0  0
  9 23  1  0  0  0  0
  9 24  1  0  0  0  0
 10 25  1  0  0  0  0
 10 26  1  0  0  0  0
 11 27  1  0  0  0  0
 11 28  1  0  0  0  0
 12 14  1  0  0  0  0
 12 29  1  0  0  0  0
 12 30  1  0  0  0  0
 13 16  1  0  0  0  0
 13 31  1  0  0  0  0
 13 32  1  0  0  0  0
 15 17  1  0  0  0  0
 15 33  1  0  0  0  0
 15 34  1  0  0  0  0
 16 18  1  0  0  0  0
 16 35  1  0  0  0  0
 16 36  1  0  0  0  0
 17 18  2  0  0  0  0
 17 19  1  0  0  0  0
 19 20  2  0  0  0  0
 19 37  1  0  0  0  0
 20 38  1  0  0  0  0
M  END
> <PUBCHEM_COMPOUND_CID>
47205569

> <PUBCHEM_COMPOUND_CANONICALIZED>
1

> <PUBCHEM_CACTVS_COMPLEXITY>
461

> <PUBCHEM_CACTVS_HBOND_ACCEPTOR>
5

> <PUBCHEM_CACTVS_HBOND_DONOR>
0

> <PUBCHEM_CACTVS_ROTATABLE_BOND>
2

> <PUBCHEM_CACTVS_SUBSKEYS>
AAADceBzMABgAAAAAAAAAAAAAAAAASAAAAAsWAAAAAAAAFgBgAAAHgQAAAAADADF2ASwAYMAAAqMAiFSEHDDAIAgCBBIiBiIBIgIYCKgkTGUAAhghgCoiAcQAAAOAAAAAAAAAAAAAAAAAAAAAAAAAAAAAA==

> <PUBCHEM_IUPAC_OPENEYE_NAME>
1-(6,7-dihydro-4H-thieno[3,2-c]pyridin-5-yl)-2-(1,1-dioxo-1,4-thiazinan-4-yl)ethanone

> <PUBCHEM_IUPAC_CAS_NAME>
1-(6,7-dihydro-4H-thieno[3,2-c]pyridin-5-yl)-2-(1,1-dioxo-1,4-thiazinan-4-yl)ethanone

> <PUBCHEM_IUPAC_NAME>
1-(6,7-dihydro-4H-thieno[3,2-c]pyridin-5-yl)-2-(1,1-dioxo-1,4-thiazinan-4-yl)ethanone

> <PUBCHEM_IUPAC_SYSTEMATIC_NAME>
2-[1,1-bis(oxidanylidene)-1,4-thiazinan-4-yl]-1-(6,7-dihydro-4H-thieno[3,2-c]pyridin-5-yl)ethanone

> <PUBCHEM_IUPAC_TRADITIONAL_NAME>
1-(6,7-dihydro-4H-thieno[3,2-c]pyridin-5-yl)-2-(1,1-diketo-1,4-thiazinan-4-yl)ethanone

> <PUBCHEM_IUPAC_INCHI>
InChI=1S/C13H18N2O3S2/c16-13(10-14-4-7-20(17,18)8-5-14)15-3-1-12-11(9-15)2-6-19-12/h2,6H,1,3-5,7-10H2

> <PUBCHEM_IUPAC_INCHIKEY>
NBOGCEDOJFCLNC-UHFFFAOYSA-N

> <PUBCHEM_XLOGP3_AA>
0.2

> <PUBCHEM_EXACT_MASS>
314.075884

> <PUBCHEM_MOLECULAR_FORMULA>
C13H18N2O3S2

> <PUBCHEM_MOLECULAR_WEIGHT>
314.42362

> <PUBCHEM_OPENEYE_CAN_SMILES>
C1CN(CC2=C1SC=C2)C(=O)CN3CCS(=O)(=O)CC3

> <PUBCHEM_OPENEYE_ISO_SMILES>
C1CN(CC2=C1SC=C2)C(=O)CN3CCS(=O)(=O)CC3

> <PUBCHEM_CACTVS_TPSA>
94.3

> <PUBCHEM_MONOISOTOPIC_WEIGHT>
314.075884

> <PUBCHEM_TOTAL_CHARGE>
0

> <PUBCHEM_HEAVY_ATOM_COUNT>
20

> <PUBCHEM_ATOM_DEF_STEREO_COUNT>
0

> <PUBCHEM_ATOM_UDEF_STEREO_COUNT>
0

> <PUBCHEM_BOND_DEF_STEREO_COUNT>
0

> <PUBCHEM_BOND_UDEF_STEREO_COUNT>
0

> <PUBCHEM_ISOTOPIC_ATOM_COUNT>
0

> <PUBCHEM_COMPONENT_COUNT>
1

> <PUBCHEM_CACTVS_TAUTO_COUNT>
1

> <PUBCHEM_COORDINATE_TYPE>
1
5
255

> <PUBCHEM_BONDANNOTATIONS>
17  18  8
17  19  8
19  20  8
2  18  8
2  20  8

$$$$

