11995
  -OEChem-06261206233D

 14 14  0     0  0  0  0  0  0999 V2000
    2.6917   -1.0978   -0.0001 I   0  0  0  0  0  0  0  0  0  0  0  0
    1.2814    1.8940   -0.0001 N   0  0  0  0  0  0  0  0  0  0  0  0
    0.3196    0.8583    0.0001 C   0  0  0  0  0  0  0  0  0  0  0  0
    0.6869   -0.4875    0.0001 C   0  0  0  0  0  0  0  0  0  0  0  0
   -1.0295    1.2129    0.0000 C   0  0  0  0  0  0  0  0  0  0  0  0
   -0.2950   -1.4783    0.0001 C   0  0  0  0  0  0  0  0  0  0  0  0
   -2.0112    0.2219   -0.0001 C   0  0  0  0  0  0  0  0  0  0  0  0
   -1.6440   -1.1237   -0.0001 C   0  0  0  0  0  0  0  0  0  0  0  0
   -1.3313    2.2573    0.0000 H   0  0  0  0  0  0  0  0  0  0  0  0
   -0.0345   -2.5338    0.0001 H   0  0  0  0  0  0  0  0  0  0  0  0
   -3.0616    0.4980   -0.0002 H   0  0  0  0  0  0  0  0  0  0  0  0
   -2.4085   -1.8950   -0.0002 H   0  0  0  0  0  0  0  0  0  0  0  0
    0.9880    2.8618    0.0005 H   0  0  0  0  0  0  0  0  0  0  0  0
    2.2660    1.6632    0.0005 H   0  0  0  0  0  0  0  0  0  0  0  0
  1  4  1  0  0  0  0
  2  3  1  0  0  0  0
  2 13  1  0  0  0  0
  2 14  1  0  0  0  0
  3  4  1  0  0  0  0
  3  5  2  0  0  0  0
  4  6  2  0  0  0  0
  5  7  1  0  0  0  0
  5  9  1  0  0  0  0
  6  8  1  0  0  0  0
  6 10  1  0  0  0  0
  7  8  2  0  0  0  0
  7 11  1  0  0  0  0
  8 12  1  0  0  0  0
M  END
> <PUBCHEM_COMPOUND_CID>
11995

> <PUBCHEM_CONFORMER_RMSD>
0.4

> <PUBCHEM_CONFORMER_DIVERSEORDER>
1

> <PUBCHEM_MMFF94_PARTIAL_CHARGES>
14
1 -0.08
10 0.15
11 0.15
12 0.15
13 0.4
14 0.4
2 -0.9
3 0.1
4 0.08
5 -0.15
6 -0.15
7 -0.15
8 -0.15
9 0.15

> <PUBCHEM_EFFECTIVE_ROTOR_COUNT>
0

> <PUBCHEM_PHARMACOPHORE_FEATURES>
4
1 1 hydrophobe
1 2 cation
1 2 donor
6 3 4 5 6 7 8 rings

> <PUBCHEM_HEAVY_ATOM_COUNT>
8

> <PUBCHEM_ATOM_DEF_STEREO_COUNT>
0

> <PUBCHEM_ATOM_UDEF_STEREO_COUNT>
0

> <PUBCHEM_BOND_DEF_STEREO_COUNT>
0

> <PUBCHEM_BOND_UDEF_STEREO_COUNT>
0

> <PUBCHEM_ISOTOPIC_ATOM_COUNT>
0

> <PUBCHEM_COMPONENT_COUNT>
1

> <PUBCHEM_CACTVS_TAUTO_COUNT>
1

> <PUBCHEM_CONFORMER_ID>
00002EDB00000001

> <PUBCHEM_MMFF94_ENERGY>
29.4852

> <PUBCHEM_FEATURE_SELFOVERLAP>
20.297

> <PUBCHEM_SHAPE_FINGERPRINT>
10857977 72 18337122257994192282
16714656 1 18266176330177950926
16945 1 18410855507430999719
18185500 45 18269274728022284634
21040471 1 18122626054871329921
23552423 10 18199465467933286622
241688 4 18412547604323372041
2748010 2 18339928095524649007
29004967 10 18335136544104812074
369184 2 18267307710589748290
5084963 1 18187369830626176467

> <PUBCHEM_SHAPE_MULTIPOLES>
171.59
3.21
1.85
0.65
1.96
0.5
0
-0.75
0
-0.04
0
0.1
-0.04
0

> <PUBCHEM_SHAPE_SELFOVERLAP>
332.636

> <PUBCHEM_SHAPE_VOLUME>
107

> <PUBCHEM_COORDINATE_TYPE>
2
5
10

$$$$

