14439
  -OEChem-06241222432D

 42 44  0     0  0  0  0  0  0999 V2000
    2.0000    2.2317    0.0000 Cl  0  0  0  0  0  0  0  0  0  0  0  0
    5.3374    3.0953    0.0000 S   0  0  0  0  0  0  0  0  0  0  0  0
    7.5694   -2.0953    0.0000 N   0  0  0  0  0  0  0  0  0  0  0  0
    5.8374    0.9047    0.0000 C   0  0  0  0  0  0  0  0  0  0  0  0
    6.7384    1.3386    0.0000 C   0  0  0  0  0  0  0  0  0  0  0  0
    4.9365    1.3386    0.0000 C   0  0  0  0  0  0  0  0  0  0  0  0
    6.9609    2.3135    0.0000 C   0  0  0  0  0  0  0  0  0  0  0  0
    6.7034   -0.5953    0.0000 C   0  0  0  0  0  0  0  0  0  0  0  0
    5.8374   -0.0953    0.0000 C   0  0  0  0  0  0  0  0  0  0  0  0
    6.7034   -1.5953    0.0000 C   0  0  0  0  0  0  0  0  0  0  0  0
    6.3374    3.0953    0.0000 C   0  0  0  0  0  0  0  0  0  0  0  0
    4.7139    2.3135    0.0000 C   0  0  0  0  0  0  0  0  0  0  0  0
    7.4909    0.6184    0.0000 C   0  0  0  0  0  0  0  0  0  0  0  0
    7.9514    2.6358    0.0000 C   0  0  0  0  0  0  0  0  0  0  0  0
    4.1839    0.6184    0.0000 C   0  0  0  0  0  0  0  0  0  0  0  0
    3.7234    2.6358    0.0000 C   0  0  0  0  0  0  0  0  0  0  0  0
    8.4886    0.9177    0.0000 C   0  0  0  0  0  0  0  0  0  0  0  0
    8.7204    1.9332    0.0000 C   0  0  0  0  0  0  0  0  0  0  0  0
    3.1862    0.9178    0.0000 C   0  0  0  0  0  0  0  0  0  0  0  0
    2.9544    1.9333    0.0000 C   0  0  0  0  0  0  0  0  0  0  0  0
    7.5694   -3.0953    0.0000 C   0  0  0  0  0  0  0  0  0  0  0  0
    8.4355   -1.5953    0.0000 C   0  0  0  0  0  0  0  0  0  0  0  0
    7.3140   -0.7030    0.0000 H   0  0  0  0  0  0  0  0  0  0  0  0
    6.9155   -0.0127    0.0000 H   0  0  0  0  0  0  0  0  0  0  0  0
    5.3005   -0.4053    0.0000 H   0  0  0  0  0  0  0  0  0  0  0  0
    6.0928   -1.4877    0.0000 H   0  0  0  0  0  0  0  0  0  0  0  0
    6.4914   -2.1779    0.0000 H   0  0  0  0  0  0  0  0  0  0  0  0
    6.8960    3.3643    0.0000 H   0  0  0  0  0  0  0  0  0  0  0  0
    6.1995    3.6998    0.0000 H   0  0  0  0  0  0  0  0  0  0  0  0
    7.3460    0.0156    0.0000 H   0  0  0  0  0  0  0  0  0  0  0  0
    8.0824    3.2418    0.0000 H   0  0  0  0  0  0  0  0  0  0  0  0
    4.3288    0.0156    0.0000 H   0  0  0  0  0  0  0  0  0  0  0  0
    3.5925    3.2419    0.0000 H   0  0  0  0  0  0  0  0  0  0  0  0
    8.9415    0.4943    0.0000 H   0  0  0  0  0  0  0  0  0  0  0  0
    9.3122    2.1183    0.0000 H   0  0  0  0  0  0  0  0  0  0  0  0
    2.7333    0.4943    0.0000 H   0  0  0  0  0  0  0  0  0  0  0  0
    8.1894   -3.0953    0.0000 H   0  0  0  0  0  0  0  0  0  0  0  0
    7.5694   -3.7153    0.0000 H   0  0  0  0  0  0  0  0  0  0  0  0
    6.9494   -3.0953    0.0000 H   0  0  0  0  0  0  0  0  0  0  0  0
    8.1255   -1.0584    0.0000 H   0  0  0  0  0  0  0  0  0  0  0  0
    8.9724   -1.2853    0.0000 H   0  0  0  0  0  0  0  0  0  0  0  0
    8.7455   -2.1323    0.0000 H   0  0  0  0  0  0  0  0  0  0  0  0
  1 20  1  0  0  0  0
  2 11  1  0  0  0  0
  2 12  1  0  0  0  0
  3 10  1  0  0  0  0
  3 21  1  0  0  0  0
  3 22  1  0  0  0  0
  4  5  1  0  0  0  0
  4  6  1  0  0  0  0
  4  9  2  3  0  0  0
  5  7  1  0  0  0  0
  5 13  2  0  0  0  0
  6 12  2  0  0  0  0
  6 15  1  0  0  0  0
  7 11  1  0  0  0  0
  7 14  2  0  0  0  0
  8  9  1  0  0  0  0
  8 10  1  0  0  0  0
  8 23  1  0  0  0  0
  8 24  1  0  0  0  0
  9 25  1  0  0  0  0
 10 26  1  0  0  0  0
 10 27  1  0  0  0  0
 11 28  1  0  0  0  0
 11 29  1  0  0  0  0
 12 16  1  0  0  0  0
 13 17  1  0  0  0  0
 13 30  1  0  0  0  0
 14 18  1  0  0  0  0
 14 31  1  0  0  0  0
 15 19  2  0  0  0  0
 15 32  1  0  0  0  0
 16 20  2  0  0  0  0
 16 33  1  0  0  0  0
 17 18  2  0  0  0  0
 17 34  1  0  0  0  0
 18 35  1  0  0  0  0
 19 20  1  0  0  0  0
 19 36  1  0  0  0  0
 21 37  1  0  0  0  0
 21 38  1  0  0  0  0
 21 39  1  0  0  0  0
 22 40  1  0  0  0  0
 22 41  1  0  0  0  0
 22 42  1  0  0  0  0
M  END
> <PUBCHEM_COMPOUND_CID>
14439

> <PUBCHEM_COMPOUND_CANONICALIZED>
1

> <PUBCHEM_CACTVS_COMPLEXITY>
395

> <PUBCHEM_CACTVS_HBOND_ACCEPTOR>
2

> <PUBCHEM_CACTVS_HBOND_DONOR>
0

> <PUBCHEM_CACTVS_ROTATABLE_BOND>
3

> <PUBCHEM_CACTVS_SUBSKEYS>
AAADceB6AABEAAAAAAAAAAAAAAAAAAAAAAAwYAAABIAAAAABQAAAHAYAAAAADALFWCSyAYMAAAiAAiBCAAACAAAgDRAIiBgIAogIICKhExCEIAAggAAoiAcAgMAOhAAAABAUAAAIAAAAICgAAAAAAAAAAA==

> <PUBCHEM_IUPAC_OPENEYE_NAME>
3-(3-chloro-6H-benzo[c][1]benzothiepin-11-ylidene)-N,N-dimethyl-propan-1-amine

> <PUBCHEM_IUPAC_CAS_NAME>
3-(3-chloro-6H-benzo[c][1]benzothiepin-11-ylidene)-N,N-dimethyl-1-propanamine

> <PUBCHEM_IUPAC_NAME>
3-(3-chloro-6H-benzo[c][1]benzothiepin-11-ylidene)-N,N-dimethylpropan-1-amine

> <PUBCHEM_IUPAC_SYSTEMATIC_NAME>
3-(3-chloranyl-6H-benzo[c][1]benzothiepin-11-ylidene)-N,N-dimethyl-propan-1-amine

> <PUBCHEM_IUPAC_TRADITIONAL_NAME>
3-(3-chloro-6H-benzo[c][1]benzothiepin-11-ylidene)propyl-dimethyl-amine

> <PUBCHEM_IUPAC_INCHI>
InChI=1S/C19H20ClNS/c1-21(2)11-5-8-17-16-7-4-3-6-14(16)13-22-19-12-15(20)9-10-18(17)19/h3-4,6-10,12H,5,11,13H2,1-2H3

> <PUBCHEM_IUPAC_INCHIKEY>
WRIGYGCLZLNSIV-UHFFFAOYSA-N

> <PUBCHEM_XLOGP3>
5.1

> <PUBCHEM_EXACT_MASS>
329.100498

> <PUBCHEM_MOLECULAR_FORMULA>
C19H20ClNS

> <PUBCHEM_MOLECULAR_WEIGHT>
329.8868

> <PUBCHEM_OPENEYE_CAN_SMILES>
CN(C)CCC=C1C2=C(C=C(C=C2)Cl)SCC3=CC=CC=C31

> <PUBCHEM_OPENEYE_ISO_SMILES>
CN(C)CCC=C1C2=C(C=C(C=C2)Cl)SCC3=CC=CC=C31

> <PUBCHEM_CACTVS_TPSA>
28.5

> <PUBCHEM_MONOISOTOPIC_WEIGHT>
329.100498

> <PUBCHEM_TOTAL_CHARGE>
0

> <PUBCHEM_HEAVY_ATOM_COUNT>
22

> <PUBCHEM_ATOM_DEF_STEREO_COUNT>
0

> <PUBCHEM_ATOM_UDEF_STEREO_COUNT>
0

> <PUBCHEM_BOND_DEF_STEREO_COUNT>
0

> <PUBCHEM_BOND_UDEF_STEREO_COUNT>
1

> <PUBCHEM_ISOTOPIC_ATOM_COUNT>
0

> <PUBCHEM_COMPONENT_COUNT>
1

> <PUBCHEM_CACTVS_TAUTO_COUNT>
1

> <PUBCHEM_COORDINATE_TYPE>
1
5
255

> <PUBCHEM_BONDANNOTATIONS>
12  16  8
13  17  8
14  18  8
15  19  8
16  20  8
17  18  8
19  20  8
4  9  1
5  13  8
5  7  8
6  12  8
6  15  8
7  14  8

$$$$

