17396502
  -OEChem-06241222573D

 61 64  0     0  0  0  0  0  0999 V2000
    2.4343    0.3272    1.8221 S   0  0  0  0  0  0  0  0  0  0  0  0
    3.4252    1.1685    2.4589 O   0  0  0  0  0  0  0  0  0  0  0  0
    1.4597   -0.4008    2.6068 O   0  0  0  0  0  0  0  0  0  0  0  0
    3.5950    2.3099   -0.1415 O   0  0  0  0  0  0  0  0  0  0  0  0
   -2.6236    2.9213   -0.1989 O   0  0  0  0  0  0  0  0  0  0  0  0
   -1.5629   -1.5245    0.5216 O   0  0  0  0  0  0  0  0  0  0  0  0
    3.2225   -0.7627    0.7633 N   0  0  0  0  0  0  0  0  0  0  0  0
   -2.5682    0.6209   -0.7323 N   0  0  0  0  0  0  0  0  0  0  0  0
    2.3510   -1.5982   -0.1010 C   0  0  0  0  0  0  0  0  0  0  0  0
    4.4268   -1.4345    1.3171 C   0  0  0  0  0  0  0  0  0  0  0  0
    2.7589   -1.3918   -1.5557 C   0  0  0  0  0  0  0  0  0  0  0  0
    5.1455   -2.3494    0.3289 C   0  0  0  0  0  0  0  0  0  0  0  0
    4.0474   -2.1081   -1.9567 C   0  0  0  0  0  0  0  0  0  0  0  0
    5.2667   -1.7920   -1.0887 C   0  0  0  0  0  0  0  0  0  0  0  0
    1.5588    1.3168    0.6511 C   0  0  0  0  0  0  0  0  0  0  0  0
    0.1696    1.2137    0.5785 C   0  0  0  0  0  0  0  0  0  0  0  0
    2.2382    2.1935   -0.1947 C   0  0  0  0  0  0  0  0  0  0  0  0
   -0.5402    1.9869   -0.3402 C   0  0  0  0  0  0  0  0  0  0  0  0
    1.5284    2.9668   -1.1132 C   0  0  0  0  0  0  0  0  0  0  0  0
    0.1393    2.8635   -1.1861 C   0  0  0  0  0  0  0  0  0  0  0  0
   -1.9884    1.8794   -0.4169 C   0  0  0  0  0  0  0  0  0  0  0  0
   -1.8477   -0.3424   -1.5799 C   0  0  0  0  0  0  0  0  0  0  0  0
   -3.8809    0.2831   -0.2144 C   0  0  0  0  0  0  0  0  0  0  0  0
    4.2018    3.2314   -1.0448 C   0  0  0  0  0  0  0  0  0  0  0  0
   -1.6566   -1.6255   -0.8301 C   0  0  0  0  0  0  0  0  0  0  0  0
   -4.3051    0.8077    1.0065 C   0  0  0  0  0  0  0  0  0  0  0  0
   -4.7185   -0.5665   -0.9371 C   0  0  0  0  0  0  0  0  0  0  0  0
   -1.5502   -2.9388   -1.2250 C   0  0  0  0  0  0  0  0  0  0  0  0
   -5.5669    0.4827    1.5045 C   0  0  0  0  0  0  0  0  0  0  0  0
   -5.9803   -0.8913   -0.4391 C   0  0  0  0  0  0  0  0  0  0  0  0
   -6.4045   -0.3666    0.7817 C   0  0  0  0  0  0  0  0  0  0  0  0
   -1.3801   -3.6933   -0.0397 C   0  0  0  0  0  0  0  0  0  0  0  0
   -1.3949   -2.7872    0.9951 C   0  0  0  0  0  0  0  0  0  0  0  0
    1.3031   -1.3105    0.0066 H   0  0  0  0  0  0  0  0  0  0  0  0
    2.3994   -2.6529    0.1905 H   0  0  0  0  0  0  0  0  0  0  0  0
    4.1491   -2.0095    2.2079 H   0  0  0  0  0  0  0  0  0  0  0  0
    5.1343   -0.6566    1.6282 H   0  0  0  0  0  0  0  0  0  0  0  0
    2.8608   -0.3223   -1.7739 H   0  0  0  0  0  0  0  0  0  0  0  0
    1.9530   -1.7646   -2.2000 H   0  0  0  0  0  0  0  0  0  0  0  0
    6.1535   -2.5326    0.7229 H   0  0  0  0  0  0  0  0  0  0  0  0
    4.6575   -3.3314    0.3040 H   0  0  0  0  0  0  0  0  0  0  0  0
    3.8723   -3.1914   -1.9560 H   0  0  0  0  0  0  0  0  0  0  0  0
    4.2795   -1.8378   -2.9943 H   0  0  0  0  0  0  0  0  0  0  0  0
    5.4636   -0.7136   -1.0724 H   0  0  0  0  0  0  0  0  0  0  0  0
    6.1370   -2.2621   -1.5636 H   0  0  0  0  0  0  0  0  0  0  0  0
   -0.3728    0.5610    1.2543 H   0  0  0  0  0  0  0  0  0  0  0  0
    1.9858    3.6677   -1.8027 H   0  0  0  0  0  0  0  0  0  0  0  0
   -0.4028    3.4690   -1.9082 H   0  0  0  0  0  0  0  0  0  0  0  0
   -2.4177   -0.5011   -2.5013 H   0  0  0  0  0  0  0  0  0  0  0  0
   -0.8733    0.0430   -1.8921 H   0  0  0  0  0  0  0  0  0  0  0  0
    5.2811    3.1947   -0.8638 H   0  0  0  0  0  0  0  0  0  0  0  0
    3.8827    4.2607   -0.8481 H   0  0  0  0  0  0  0  0  0  0  0  0
    4.0460    2.9362   -2.0881 H   0  0  0  0  0  0  0  0  0  0  0  0
   -3.6671    1.4480    1.6089 H   0  0  0  0  0  0  0  0  0  0  0  0
   -4.4354   -0.9810   -1.8992 H   0  0  0  0  0  0  0  0  0  0  0  0
   -1.5894   -3.3079   -2.2398 H   0  0  0  0  0  0  0  0  0  0  0  0
   -5.8949    0.8856    2.4584 H   0  0  0  0  0  0  0  0  0  0  0  0
   -6.6344   -1.5497   -1.0034 H   0  0  0  0  0  0  0  0  0  0  0  0
   -7.3867   -0.6201    1.1699 H   0  0  0  0  0  0  0  0  0  0  0  0
   -1.2608   -4.7633    0.0492 H   0  0  0  0  0  0  0  0  0  0  0  0
   -1.3017   -2.8749    2.0676 H   0  0  0  0  0  0  0  0  0  0  0  0
  1  2  2  0  0  0  0
  1  3  2  0  0  0  0
  1  7  1  0  0  0  0
  1 15  1  0  0  0  0
  4 17  1  0  0  0  0
  4 24  1  0  0  0  0
  5 21  2  0  0  0  0
  6 25  1  0  0  0  0
  6 33  1  0  0  0  0
  7  9  1  0  0  0  0
  7 10  1  0  0  0  0
  8 21  1  0  0  0  0
  8 22  1  0  0  0  0
  8 23  1  0  0  0  0
  9 11  1  0  0  0  0
  9 34  1  0  0  0  0
  9 35  1  0  0  0  0
 10 12  1  0  0  0  0
 10 36  1  0  0  0  0
 10 37  1  0  0  0  0
 11 13  1  0  0  0  0
 11 38  1  0  0  0  0
 11 39  1  0  0  0  0
 12 14  1  0  0  0  0
 12 40  1  0  0  0  0
 12 41  1  0  0  0  0
 13 14  1  0  0  0  0
 13 42  1  0  0  0  0
 13 43  1  0  0  0  0
 14 44  1  0  0  0  0
 14 45  1  0  0  0  0
 15 16  1  0  0  0  0
 15 17  2  0  0  0  0
 16 18  2  0  0  0  0
 16 46  1  0  0  0  0
 17 19  1  0  0  0  0
 18 20  1  0  0  0  0
 18 21  1  0  0  0  0
 19 20  2  0  0  0  0
 19 47  1  0  0  0  0
 20 48  1  0  0  0  0
 22 25  1  0  0  0  0
 22 49  1  0  0  0  0
 22 50  1  0  0  0  0
 23 26  2  0  0  0  0
 23 27  1  0  0  0  0
 24 51  1  0  0  0  0
 24 52  1  0  0  0  0
 24 53  1  0  0  0  0
 25 28  2  0  0  0  0
 26 29  1  0  0  0  0
 26 54  1  0  0  0  0
 27 30  2  0  0  0  0
 27 55  1  0  0  0  0
 28 32  1  0  0  0  0
 28 56  1  0  0  0  0
 29 31  2  0  0  0  0
 29 57  1  0  0  0  0
 30 31  1  0  0  0  0
 30 58  1  0  0  0  0
 31 59  1  0  0  0  0
 32 33  2  0  0  0  0
 32 60  1  0  0  0  0
 33 61  1  0  0  0  0
M  END
> <PUBCHEM_COMPOUND_CID>
17396502

> <PUBCHEM_CONFORMER_RMSD>
1.2

> <PUBCHEM_CONFORMER_DIVERSEORDER>
1
32
80
25
70
100
51
76
20
103
69
47
59
27
82
94
77
61
16
48
63
58
14
99
33
89
104
29
81
56
95
24
101
64
68
65
7
30
88
66
75
45
19
102
92
85
44
97
12
74
98
41
52
93
3
39
10
62
34
40
96
87
57
55
35
105
91
6
73
72
42
50
43
28
53
71
26
54
36
8
49
9
38
5
18
60
84
15
11
23
79
67
13
2
22
90
46
4
78
17
86
21
37
83
31

> <PUBCHEM_MMFF94_PARTIAL_CHARGES>
40
1 1.45
10 0.36
15 -0.01
16 -0.15
17 0.08
18 0.09
19 -0.15
2 -0.65
20 -0.15
21 0.54
22 0.48
23 0.12
24 0.28
25 -0.04
26 -0.15
27 -0.15
28 -0.15
29 -0.15
3 -0.65
30 -0.15
31 -0.15
32 -0.15
33 -0.01
4 -0.36
46 0.15
47 0.15
48 0.15
5 -0.57
54 0.15
55 0.15
56 0.15
57 0.15
58 0.15
59 0.15
6 -0.28
60 0.15
61 0.15
7 -0.85
8 -0.48
9 0.36

> <PUBCHEM_EFFECTIVE_ROTOR_COUNT>
9.4

> <PUBCHEM_PHARMACOPHORE_FEATURES>
9
1 2 acceptor
1 3 acceptor
1 4 acceptor
1 5 acceptor
1 6 acceptor
5 6 25 28 32 33 rings
6 15 16 17 18 19 20 rings
6 23 26 27 29 30 31 rings
7 7 9 10 11 12 13 14 rings

> <PUBCHEM_HEAVY_ATOM_COUNT>
33

> <PUBCHEM_ATOM_DEF_STEREO_COUNT>
0

> <PUBCHEM_ATOM_UDEF_STEREO_COUNT>
0

> <PUBCHEM_BOND_DEF_STEREO_COUNT>
0

> <PUBCHEM_BOND_UDEF_STEREO_COUNT>
0

> <PUBCHEM_ISOTOPIC_ATOM_COUNT>
0

> <PUBCHEM_COMPONENT_COUNT>
1

> <PUBCHEM_CACTVS_TAUTO_COUNT>
1

> <PUBCHEM_CONFORMER_ID>
0109731600000001

> <PUBCHEM_MMFF94_ENERGY>
97.5747

> <PUBCHEM_FEATURE_SELFOVERLAP>
45.69

> <PUBCHEM_SHAPE_FINGERPRINT>
11135609 12 18341055134040833202
11135926 11 18197788704486144716
11421498 54 17488179486118116482
11513181 2 18115867387103159478
12107698 1 18342738550203107856
12156800 1 16338594754208806702
12403259 327 16660653920502423816
12422481 6 18041272270841744909
12633257 1 18128839459451647642
12788726 201 17676751129055962329
13402501 40 18187366588153078766
14725015 67 18339648956999831655
16112460 7 18335691750042119592
1813 80 18342741848685626924
19319366 153 17703513177466345368
20028762 73 18260550030991064071
20764821 26 18339928108341551102
21987440 362 16302867563216600721
23559900 14 18335415729721445206
3052486 1 18198071476458114322
3380486 77 17408302066435881619
460360 51 18058166112489604591
469060 322 18123169458206911529
563151 74 16661513726354249106
6287921 2 18187924036564318207
6669772 16 17988922220283309528

> <PUBCHEM_SHAPE_MULTIPOLES>
643.67
12.01
4.15
1.84
7.97
0.3
-0.64
-3.34
-1.1
-2.88
1.33
-1.3
-0.19
-0.15

> <PUBCHEM_SHAPE_SELFOVERLAP>
1365.783

> <PUBCHEM_SHAPE_VOLUME>
358.5

> <PUBCHEM_COORDINATE_TYPE>
2
5
10

$$$$

