51091005
  -OEChem-06241223013D

 37 39  0     0  0  0  0  0  0999 V2000
   -2.9283    1.0265    1.9250 F   0  0  0  0  0  0  0  0  0  0  0  0
   -1.3472    1.5229   -0.2773 O   0  0  0  0  0  0  0  0  0  0  0  0
    1.9321    0.9017    0.0845 N   0  0  0  0  0  0  0  0  0  0  0  0
    2.9428    1.6196    0.5937 N   0  0  0  0  0  0  0  0  0  0  0  0
    1.4270    2.9699   -0.3280 N   0  0  0  0  0  0  0  0  0  0  0  0
    2.6287    2.8839    0.3382 N   0  0  0  0  0  0  0  0  0  0  0  0
    1.9079   -0.4829    0.1637 C   0  0  0  0  0  0  0  0  0  0  0  0
    2.4756   -1.2498   -0.8538 C   0  0  0  0  0  0  0  0  0  0  0  0
    1.3150   -1.1083    1.2604 C   0  0  0  0  0  0  0  0  0  0  0  0
    1.0138    1.7322   -0.4747 C   0  0  0  0  0  0  0  0  0  0  0  0
    2.4502   -2.6423   -0.7746 C   0  0  0  0  0  0  0  0  0  0  0  0
    1.2897   -2.5006    1.3397 C   0  0  0  0  0  0  0  0  0  0  0  0
   -0.2257    1.2743   -1.1263 C   0  0  0  0  0  0  0  0  0  0  0  0
    3.1193   -0.6137   -2.0440 C   0  0  0  0  0  0  0  0  0  0  0  0
    0.6946   -0.3187    2.3681 C   0  0  0  0  0  0  0  0  0  0  0  0
    1.8573   -3.2676    0.3221 C   0  0  0  0  0  0  0  0  0  0  0  0
   -2.3768    0.6255   -0.3468 C   0  0  0  0  0  0  0  0  0  0  0  0
   -3.1694    0.3825    0.7748 C   0  0  0  0  0  0  0  0  0  0  0  0
   -2.6327   -0.0480   -1.5410 C   0  0  0  0  0  0  0  0  0  0  0  0
   -4.2183   -0.5342    0.7022 C   0  0  0  0  0  0  0  0  0  0  0  0
   -3.6815   -0.9649   -1.6137 C   0  0  0  0  0  0  0  0  0  0  0  0
   -4.4744   -1.2080   -0.4921 C   0  0  0  0  0  0  0  0  0  0  0  0
    2.8870   -3.2558   -1.5582 H   0  0  0  0  0  0  0  0  0  0  0  0
    0.8314   -3.0051    2.1862 H   0  0  0  0  0  0  0  0  0  0  0  0
   -0.3692    1.8410   -2.0542 H   0  0  0  0  0  0  0  0  0  0  0  0
   -0.1307    0.2155   -1.3925 H   0  0  0  0  0  0  0  0  0  0  0  0
    3.5441   -1.3611   -2.7233 H   0  0  0  0  0  0  0  0  0  0  0  0
    3.9407    0.0418   -1.7371 H   0  0  0  0  0  0  0  0  0  0  0  0
    2.3866   -0.0368   -2.6175 H   0  0  0  0  0  0  0  0  0  0  0  0
    0.2807   -0.9688    3.1470 H   0  0  0  0  0  0  0  0  0  0  0  0
   -0.1283    0.2977    1.9961 H   0  0  0  0  0  0  0  0  0  0  0  0
    1.4404    0.3226    2.8492 H   0  0  0  0  0  0  0  0  0  0  0  0
    1.8372   -4.3518    0.3838 H   0  0  0  0  0  0  0  0  0  0  0  0
   -2.0652    0.1368   -2.4483 H   0  0  0  0  0  0  0  0  0  0  0  0
   -4.8355   -0.7230    1.5756 H   0  0  0  0  0  0  0  0  0  0  0  0
   -3.8866   -1.4835   -2.5457 H   0  0  0  0  0  0  0  0  0  0  0  0
   -5.2922   -1.9203   -0.5492 H   0  0  0  0  0  0  0  0  0  0  0  0
  1 18  1  0  0  0  0
  2 13  1  0  0  0  0
  2 17  1  0  0  0  0
  3  4  1  0  0  0  0
  3  7  1  0  0  0  0
  3 10  1  0  0  0  0
  4  6  2  0  0  0  0
  5  6  1  0  0  0  0
  5 10  2  0  0  0  0
  7  8  2  0  0  0  0
  7  9  1  0  0  0  0
  8 11  1  0  0  0  0
  8 14  1  0  0  0  0
  9 12  2  0  0  0  0
  9 15  1  0  0  0  0
 10 13  1  0  0  0  0
 11 16  2  0  0  0  0
 11 23  1  0  0  0  0
 12 16  1  0  0  0  0
 12 24  1  0  0  0  0
 13 25  1  0  0  0  0
 13 26  1  0  0  0  0
 14 27  1  0  0  0  0
 14 28  1  0  0  0  0
 14 29  1  0  0  0  0
 15 30  1  0  0  0  0
 15 31  1  0  0  0  0
 15 32  1  0  0  0  0
 16 33  1  0  0  0  0
 17 18  1  0  0  0  0
 17 19  2  0  0  0  0
 18 20  2  0  0  0  0
 19 21  1  0  0  0  0
 19 34  1  0  0  0  0
 20 22  1  0  0  0  0
 20 35  1  0  0  0  0
 21 22  2  0  0  0  0
 21 36  1  0  0  0  0
 22 37  1  0  0  0  0
M  END
> <PUBCHEM_COMPOUND_CID>
51091005

> <PUBCHEM_CONFORMER_RMSD>
0.6

> <PUBCHEM_CONFORMER_DIVERSEORDER>
7
126
119
116
129
12
120
140
142
28
115
77
84
109
82
78
81
48
49
95
132
25
89
76
124
63
110
57
21
62
143
86
13
135
113
118
121
96
22
99
44
23
111
112
123
104
98
75
94
52
74
54
83
65
87
55
141
85
58
105
122
64
130
60
136
100
45
16
67
56
134
71
53
80
73
34
29
10
106
103
61
47
5
127
69
125
108
20
42
50
92
27
3
43
97
72
17
93
40
101
6
46
128
88
35
2
139
38
36
137
59
1
102
70
11
33
26
79
133
15
90
41
117
131
51
138
4
24
8
68
107
9
32
66
91
30
31
19
37
114
39
18
14

> <PUBCHEM_MMFF94_PARTIAL_CHARGES>
28
1 -0.19
10 0.01
11 -0.15
12 -0.15
13 0.46
14 0.14
15 0.14
16 -0.15
17 0.08
18 0.19
19 -0.15
2 -0.36
20 -0.15
21 -0.15
22 -0.15
23 0.15
24 0.15
3 0.59
33 0.15
34 0.15
35 0.15
36 0.15
37 0.15
4 -0.42
5 -0.34
7 -0.02
8 -0.14
9 -0.14

> <PUBCHEM_EFFECTIVE_ROTOR_COUNT>
4

> <PUBCHEM_PHARMACOPHORE_FEATURES>
5
1 2 acceptor
3 3 5 10 cation
5 3 4 5 6 10 rings
6 17 18 19 20 21 22 rings
6 7 8 9 11 12 16 rings

> <PUBCHEM_HEAVY_ATOM_COUNT>
22

> <PUBCHEM_ATOM_DEF_STEREO_COUNT>
0

> <PUBCHEM_ATOM_UDEF_STEREO_COUNT>
0

> <PUBCHEM_BOND_DEF_STEREO_COUNT>
0

> <PUBCHEM_BOND_UDEF_STEREO_COUNT>
0

> <PUBCHEM_ISOTOPIC_ATOM_COUNT>
0

> <PUBCHEM_COMPONENT_COUNT>
1

> <PUBCHEM_CACTVS_TAUTO_COUNT>
1

> <PUBCHEM_CONFORMER_ID>
030B963D00000007

> <PUBCHEM_MMFF94_ENERGY>
78.6877

> <PUBCHEM_FEATURE_SELFOVERLAP>
25.371

> <PUBCHEM_SHAPE_MULTIPOLES>
419.68
7.02
3.18
1.84
7.83
0.18
-0.27
-1.95
1.25
-3.42
-0.18
0.05
-0.4
-0.18

> <PUBCHEM_SHAPE_SELFOVERLAP>
911.606

> <PUBCHEM_SHAPE_VOLUME>
232.1

> <PUBCHEM_COORDINATE_TYPE>
2
5
10

$$$$

