854128
  -OEChem-06241222472D

 42 44  0     0  0  0  0  0  0999 V2000
    3.7601   -2.7306    0.0000 S   0  0  0  0  0  0  0  0  0  0  0  0
    5.4921    5.2694    0.0000 O   0  0  0  0  0  0  0  0  0  0  0  0
    3.7601   -0.7306    0.0000 O   0  0  0  0  0  0  0  0  0  0  0  0
    5.4921    3.2694    0.0000 N   0  0  0  0  0  0  0  0  0  0  0  0
    5.4921   -0.7306    0.0000 N   0  0  0  0  0  0  0  0  0  0  0  0
    2.9511   -4.3184    0.0000 N   0  0  0  0  0  0  0  0  0  0  0  0
    4.5691   -4.3184    0.0000 N   0  0  0  0  0  0  0  0  0  0  0  0
    4.2601   -5.2694    0.0000 N   0  0  0  0  0  0  0  0  0  0  0  0
    4.6261    3.7694    0.0000 C   0  0  0  0  0  0  0  0  0  0  0  0
    6.3582    3.7694    0.0000 C   0  0  0  0  0  0  0  0  0  0  0  0
    4.6261    4.7694    0.0000 C   0  0  0  0  0  0  0  0  0  0  0  0
    6.3582    4.7694    0.0000 C   0  0  0  0  0  0  0  0  0  0  0  0
    5.4921    2.2694    0.0000 C   0  0  0  0  0  0  0  0  0  0  0  0
    4.6261    1.7694    0.0000 C   0  0  0  0  0  0  0  0  0  0  0  0
    6.3582    1.7694    0.0000 C   0  0  0  0  0  0  0  0  0  0  0  0
    5.4921    0.2694    0.0000 C   0  0  0  0  0  0  0  0  0  0  0  0
    4.6261    0.7694    0.0000 C   0  0  0  0  0  0  0  0  0  0  0  0
    6.3582    0.7694    0.0000 C   0  0  0  0  0  0  0  0  0  0  0  0
    4.6261   -1.2306    0.0000 C   0  0  0  0  0  0  0  0  0  0  0  0
    4.6261   -2.2306    0.0000 C   0  0  0  0  0  0  0  0  0  0  0  0
    3.7601   -3.7306    0.0000 C   0  0  0  0  0  0  0  0  0  0  0  0
    2.0000   -4.0094    0.0000 C   0  0  0  0  0  0  0  0  0  0  0  0
    3.2601   -5.2694    0.0000 C   0  0  0  0  0  0  0  0  0  0  0  0
    6.5702    3.1868    0.0000 H   0  0  0  0  0  0  0  0  0  0  0  0
    6.9687    3.8771    0.0000 H   0  0  0  0  0  0  0  0  0  0  0  0
    4.0155    3.8771    0.0000 H   0  0  0  0  0  0  0  0  0  0  0  0
    4.4140    3.1868    0.0000 H   0  0  0  0  0  0  0  0  0  0  0  0
    6.9687    4.6618    0.0000 H   0  0  0  0  0  0  0  0  0  0  0  0
    6.5702    5.3520    0.0000 H   0  0  0  0  0  0  0  0  0  0  0  0
    4.4140    5.3520    0.0000 H   0  0  0  0  0  0  0  0  0  0  0  0
    4.0155    4.6618    0.0000 H   0  0  0  0  0  0  0  0  0  0  0  0
    4.0892    2.0794    0.0000 H   0  0  0  0  0  0  0  0  0  0  0  0
    6.8951    2.0794    0.0000 H   0  0  0  0  0  0  0  0  0  0  0  0
    4.0892    0.4594    0.0000 H   0  0  0  0  0  0  0  0  0  0  0  0
    6.8951    0.4594    0.0000 H   0  0  0  0  0  0  0  0  0  0  0  0
    6.0291   -1.0406    0.0000 H   0  0  0  0  0  0  0  0  0  0  0  0
    4.8382   -2.8132    0.0000 H   0  0  0  0  0  0  0  0  0  0  0  0
    5.2367   -2.1229    0.0000 H   0  0  0  0  0  0  0  0  0  0  0  0
    2.1916   -3.4197    0.0000 H   0  0  0  0  0  0  0  0  0  0  0  0
    1.4103   -3.8178    0.0000 H   0  0  0  0  0  0  0  0  0  0  0  0
    1.8084   -4.5990    0.0000 H   0  0  0  0  0  0  0  0  0  0  0  0
    2.8956   -5.7710    0.0000 H   0  0  0  0  0  0  0  0  0  0  0  0
  1 20  1  0  0  0  0
  1 21  1  0  0  0  0
  2 11  1  0  0  0  0
  2 12  1  0  0  0  0
  3 19  2  0  0  0  0
  4  9  1  0  0  0  0
  4 10  1  0  0  0  0
  4 13  1  0  0  0  0
  5 16  1  0  0  0  0
  5 19  1  0  0  0  0
  5 36  1  0  0  0  0
  6 21  1  0  0  0  0
  6 22  1  0  0  0  0
  6 23  1  0  0  0  0
  7  8  1  0  0  0  0
  7 21  2  0  0  0  0
  8 23  2  0  0  0  0
  9 11  1  0  0  0  0
  9 26  1  0  0  0  0
  9 27  1  0  0  0  0
 10 12  1  0  0  0  0
 10 24  1  0  0  0  0
 10 25  1  0  0  0  0
 11 30  1  0  0  0  0
 11 31  1  0  0  0  0
 12 28  1  0  0  0  0
 12 29  1  0  0  0  0
 13 14  2  0  0  0  0
 13 15  1  0  0  0  0
 14 17  1  0  0  0  0
 14 32  1  0  0  0  0
 15 18  2  0  0  0  0
 15 33  1  0  0  0  0
 16 17  2  0  0  0  0
 16 18  1  0  0  0  0
 17 34  1  0  0  0  0
 18 35  1  0  0  0  0
 19 20  1  0  0  0  0
 20 37  1  0  0  0  0
 20 38  1  0  0  0  0
 22 39  1  0  0  0  0
 22 40  1  0  0  0  0
 22 41  1  0  0  0  0
 23 42  1  0  0  0  0
M  END
> <PUBCHEM_COMPOUND_CID>
854128

> <PUBCHEM_COMPOUND_CANONICALIZED>
1

> <PUBCHEM_CACTVS_COMPLEXITY>
386

> <PUBCHEM_CACTVS_HBOND_ACCEPTOR>
6

> <PUBCHEM_CACTVS_HBOND_DONOR>
1

> <PUBCHEM_CACTVS_ROTATABLE_BOND>
5

> <PUBCHEM_CACTVS_SUBSKEYS>
AAADceBzsABAAAAAAAAAAAAAAAAAAWAAAAA8QAAAAAAAAAABwAAAHgQYAAAACAjl0Aa30IfMFAiqACVTdACSUAtxgpANyAAIZIiKKCLAkZGHIAhglADYyAcQAAAAAACAAAAAAAAAAQAAAAAAAAAAAAAAAA==

> <PUBCHEM_IUPAC_OPENEYE_NAME>
2-[(4-methyl-1,2,4-triazol-3-yl)sulfanyl]-N-(4-morpholinophenyl)acetamide

> <PUBCHEM_IUPAC_CAS_NAME>
2-[(4-methyl-1,2,4-triazol-3-yl)thio]-N-[4-(4-morpholinyl)phenyl]acetamide

> <PUBCHEM_IUPAC_NAME>
2-[(4-methyl-1,2,4-triazol-3-yl)sulfanyl]-N-(4-morpholin-4-ylphenyl)acetamide

> <PUBCHEM_IUPAC_SYSTEMATIC_NAME>
2-[(4-methyl-1,2,4-triazol-3-yl)sulfanyl]-N-(4-morpholin-4-ylphenyl)ethanamide

> <PUBCHEM_IUPAC_TRADITIONAL_NAME>
2-[(4-methyl-1,2,4-triazol-3-yl)thio]-N-(4-morpholinophenyl)acetamide

> <PUBCHEM_IUPAC_INCHI>
InChI=1S/C15H19N5O2S/c1-19-11-16-18-15(19)23-10-14(21)17-12-2-4-13(5-3-12)20-6-8-22-9-7-20/h2-5,11H,6-10H2,1H3,(H,17,21)

> <PUBCHEM_IUPAC_INCHIKEY>
MXGHLGATFHPQRC-UHFFFAOYSA-N

> <PUBCHEM_XLOGP3_AA>
0.9

> <PUBCHEM_EXACT_MASS>
333.125946

> <PUBCHEM_MOLECULAR_FORMULA>
C15H19N5O2S

> <PUBCHEM_MOLECULAR_WEIGHT>
333.40866

> <PUBCHEM_OPENEYE_CAN_SMILES>
CN1C=NN=C1SCC(=O)NC2=CC=C(C=C2)N3CCOCC3

> <PUBCHEM_OPENEYE_ISO_SMILES>
CN1C=NN=C1SCC(=O)NC2=CC=C(C=C2)N3CCOCC3

> <PUBCHEM_CACTVS_TPSA>
97.6

> <PUBCHEM_MONOISOTOPIC_WEIGHT>
333.125946

> <PUBCHEM_TOTAL_CHARGE>
0

> <PUBCHEM_HEAVY_ATOM_COUNT>
23

> <PUBCHEM_ATOM_DEF_STEREO_COUNT>
0

> <PUBCHEM_ATOM_UDEF_STEREO_COUNT>
0

> <PUBCHEM_BOND_DEF_STEREO_COUNT>
0

> <PUBCHEM_BOND_UDEF_STEREO_COUNT>
0

> <PUBCHEM_ISOTOPIC_ATOM_COUNT>
0

> <PUBCHEM_COMPONENT_COUNT>
1

> <PUBCHEM_CACTVS_TAUTO_COUNT>
3

> <PUBCHEM_COORDINATE_TYPE>
1
5
255

> <PUBCHEM_BONDANNOTATIONS>
13  14  8
13  15  8
14  17  8
15  18  8
16  17  8
16  18  8
6  21  8
6  23  8
7  21  8
7  8  8
8  23  8

$$$$

