12929
  -OEChem-06261207332D

 53 53  0     1  0  0  0  0  0999 V2000
    8.8806    5.2975    0.0000 S   0  0  0  0  0  0  0  0  0  0  0  0
    9.7466    5.7975    0.0000 O   0  0  0  0  0  0  0  0  0  0  0  0
    8.3806    6.1635    0.0000 O   0  0  0  0  0  0  0  0  0  0  0  0
    9.3806    4.4314    0.0000 O   0  0  0  0  0  0  0  0  0  0  0  0
    2.2690    5.1200    0.0000 O   0  0  0  0  0  0  0  0  0  0  0  0
    8.0146    4.7975    0.0000 N   0  0  0  0  0  0  0  0  0  0  0  0
    3.1350    5.6200    0.0000 N   0  0  0  0  0  0  0  0  0  0  0  0
    4.0010    7.1200    0.0000 N   0  0  0  0  0  0  0  0  0  0  0  0
    2.2690    7.1200    0.0000 N   0  0  0  0  0  0  0  0  0  0  0  0
    8.0146    3.7975    0.0000 C   0  0  0  0  0  0  0  0  0  0  0  0
    7.1486    3.2975    0.0000 C   0  0  0  0  0  0  0  0  0  0  0  0
    8.8806    3.2975    0.0000 C   0  0  0  0  0  0  0  0  0  0  0  0
    7.1486    2.2975    0.0000 C   0  0  0  0  0  0  0  0  0  0  0  0
    8.8806    2.2975    0.0000 C   0  0  0  0  0  0  0  0  0  0  0  0
    8.0146    1.7975    0.0000 C   0  0  0  0  0  0  0  0  0  0  0  0
    1.4030    3.6200    0.0000 C   0  0  0  0  0  0  0  0  0  0  0  0
    2.2690    4.1200    0.0000 C   0  0  3  0  0  0  0  0  0  0  0  0
    1.4030    2.6200    0.0000 C   0  0  0  0  0  0  0  0  0  0  0  0
    3.1350    3.6200    0.0000 C   0  0  0  0  0  0  0  0  0  0  0  0
    0.5369    2.1200    0.0000 C   0  0  0  0  0  0  0  0  0  0  0  0
    2.2690    2.1200    0.0000 C   0  0  0  0  0  0  0  0  0  0  0  0
    0.5369    1.1200    0.0000 C   0  0  0  0  0  0  0  0  0  0  0  0
    2.2690    1.1200    0.0000 C   0  0  0  0  0  0  0  0  0  0  0  0
    1.4030    0.6200    0.0000 C   0  0  0  0  0  0  0  0  0  0  0  0
    3.1350    6.6200    0.0000 C   0  0  0  0  0  0  0  0  0  0  0  0
    8.5515    4.1075    0.0000 H   0  0  0  0  0  0  0  0  0  0  0  0
    6.9365    3.8801    0.0000 H   0  0  0  0  0  0  0  0  0  0  0  0
    9.4912    3.1898    0.0000 H   0  0  0  0  0  0  0  0  0  0  0  0
    9.0927    3.8801    0.0000 H   0  0  0  0  0  0  0  0  0  0  0  0
    6.5380    3.1898    0.0000 H   0  0  0  0  0  0  0  0  0  0  0  0
    6.5380    2.4051    0.0000 H   0  0  0  0  0  0  0  0  0  0  0  0
    6.9365    1.7149    0.0000 H   0  0  0  0  0  0  0  0  0  0  0  0
    9.0927    1.7149    0.0000 H   0  0  0  0  0  0  0  0  0  0  0  0
    9.4912    2.4051    0.0000 H   0  0  0  0  0  0  0  0  0  0  0  0
    7.6160    1.3225    0.0000 H   0  0  0  0  0  0  0  0  0  0  0  0
    8.4131    1.3225    0.0000 H   0  0  0  0  0  0  0  0  0  0  0  0
    7.4776    5.1075    0.0000 H   0  0  0  0  0  0  0  0  0  0  0  0
    9.7466    6.4175    0.0000 H   0  0  0  0  0  0  0  0  0  0  0  0
    1.1909    4.2026    0.0000 H   0  0  0  0  0  0  0  0  0  0  0  0
    0.7924    3.5123    0.0000 H   0  0  0  0  0  0  0  0  0  0  0  0
    1.7320    4.4300    0.0000 H   0  0  0  0  0  0  0  0  0  0  0  0
    2.8250    3.0831    0.0000 H   0  0  0  0  0  0  0  0  0  0  0  0
    3.6720    3.3100    0.0000 H   0  0  0  0  0  0  0  0  0  0  0  0
    3.4450    4.1569    0.0000 H   0  0  0  0  0  0  0  0  0  0  0  0
    0.0000    2.4300    0.0000 H   0  0  0  0  0  0  0  0  0  0  0  0
    2.8059    2.4300    0.0000 H   0  0  0  0  0  0  0  0  0  0  0  0
    0.0000    0.8100    0.0000 H   0  0  0  0  0  0  0  0  0  0  0  0
    2.8059    0.8100    0.0000 H   0  0  0  0  0  0  0  0  0  0  0  0
    1.4030    0.0000    0.0000 H   0  0  0  0  0  0  0  0  0  0  0  0
    4.0010    7.7400    0.0000 H   0  0  0  0  0  0  0  0  0  0  0  0
    4.5380    6.8100    0.0000 H   0  0  0  0  0  0  0  0  0  0  0  0
    2.2690    7.7400    0.0000 H   0  0  0  0  0  0  0  0  0  0  0  0
    1.7320    6.8100    0.0000 H   0  0  0  0  0  0  0  0  0  0  0  0
  1  2  1  0  0  0  0
  1  3  2  0  0  0  0
  1  4  2  0  0  0  0
  1  6  1  0  0  0  0
  2 38  1  0  0  0  0
  5  7  1  0  0  0  0
  5 17  1  0  0  0  0
  6 10  1  0  0  0  0
  6 37  1  0  0  0  0
  7 25  2  0  0  0  0
  8 25  1  0  0  0  0
  8 50  1  0  0  0  0
  8 51  1  0  0  0  0
  9 25  1  0  0  0  0
  9 52  1  0  0  0  0
  9 53  1  0  0  0  0
 10 11  1  0  0  0  0
 10 12  1  0  0  0  0
 10 26  1  0  0  0  0
 11 13  1  0  0  0  0
 11 27  1  0  0  0  0
 11 30  1  0  0  0  0
 12 14  1  0  0  0  0
 12 28  1  0  0  0  0
 12 29  1  0  0  0  0
 13 15  1  0  0  0  0
 13 31  1  0  0  0  0
 13 32  1  0  0  0  0
 14 15  1  0  0  0  0
 14 33  1  0  0  0  0
 14 34  1  0  0  0  0
 15 35  1  0  0  0  0
 15 36  1  0  0  0  0
 16 17  1  0  0  0  0
 16 18  1  0  0  0  0
 16 39  1  0  0  0  0
 16 40  1  0  0  0  0
 17 19  1  0  0  0  0
 17 41  1  0  0  0  0
 18 20  2  0  0  0  0
 18 21  1  0  0  0  0
 19 42  1  0  0  0  0
 19 43  1  0  0  0  0
 19 44  1  0  0  0  0
 20 22  1  0  0  0  0
 20 45  1  0  0  0  0
 21 23  2  0  0  0  0
 21 46  1  0  0  0  0
 22 24  2  0  0  0  0
 22 47  1  0  0  0  0
 23 24  1  0  0  0  0
 23 48  1  0  0  0  0
 24 49  1  0  0  0  0
M  END
> <PUBCHEM_COMPOUND_CID>
12929

> <PUBCHEM_COMPOUND_CANONICALIZED>
1

> <PUBCHEM_CACTVS_COMPLEXITY>
384

> <PUBCHEM_CACTVS_HBOND_ACCEPTOR>
6

> <PUBCHEM_CACTVS_HBOND_DONOR>
4

> <PUBCHEM_CACTVS_ROTATABLE_BOND>
6

> <PUBCHEM_CACTVS_SUBSKEYS>
AAADceB7uABAAAAAAAAAAAAAAAAAAAAAAAAwYAAAAAAAAAABAAAAHgAUSAAADDzhmAYzAIBQAICgAiBCIDACAAAgAAAIiIAAAIgIICKAkRCAIAAk0AEIiAeQwKAOAAAAAAAAAAAAAAAAAAAAAAAAAAAAAA==

> <PUBCHEM_IUPAC_OPENEYE_NAME>
cyclohexylsulfamic acid; 2-(1-methyl-2-phenyl-ethoxy)guanidine

> <PUBCHEM_IUPAC_CAS_NAME>
cyclohexylsulfamic acid; 2-(1-phenylpropan-2-yloxy)guanidine

> <PUBCHEM_IUPAC_NAME>
cyclohexylsulfamic acid; 2-(1-phenylpropan-2-yloxy)guanidine

> <PUBCHEM_IUPAC_SYSTEMATIC_NAME>
cyclohexylsulfamic acid; 2-(1-phenylpropan-2-yloxy)guanidine

> <PUBCHEM_IUPAC_TRADITIONAL_NAME>
cyclohexylsulfamic acid; 2-(1-methyl-2-phenyl-ethoxy)guanidine

> <PUBCHEM_IUPAC_INCHI>
InChI=1S/C10H15N3O.C6H13NO3S/c1-8(14-13-10(11)12)7-9-5-3-2-4-6-9;8-11(9,10)7-6-4-2-1-3-5-6/h2-6,8H,7H2,1H3,(H4,11,12,13);6-7H,1-5H2,(H,8,9,10)

> <PUBCHEM_IUPAC_INCHIKEY>
UFSMIDVLTYWKEH-UHFFFAOYSA-N

> <PUBCHEM_EXACT_MASS>
372.183126

> <PUBCHEM_MOLECULAR_FORMULA>
C16H28N4O4S

> <PUBCHEM_MOLECULAR_WEIGHT>
372.48292

> <PUBCHEM_OPENEYE_CAN_SMILES>
CC(CC1=CC=CC=C1)ON=C(N)N.C1CCC(CC1)NS(=O)(=O)O

> <PUBCHEM_OPENEYE_ISO_SMILES>
CC(CC1=CC=CC=C1)ON=C(N)N.C1CCC(CC1)NS(=O)(=O)O

> <PUBCHEM_CACTVS_TPSA>
148

> <PUBCHEM_MONOISOTOPIC_WEIGHT>
372.183126

> <PUBCHEM_TOTAL_CHARGE>
0

> <PUBCHEM_HEAVY_ATOM_COUNT>
25

> <PUBCHEM_ATOM_DEF_STEREO_COUNT>
0

> <PUBCHEM_ATOM_UDEF_STEREO_COUNT>
1

> <PUBCHEM_BOND_DEF_STEREO_COUNT>
0

> <PUBCHEM_BOND_UDEF_STEREO_COUNT>
0

> <PUBCHEM_ISOTOPIC_ATOM_COUNT>
0

> <PUBCHEM_COMPONENT_COUNT>
2

> <PUBCHEM_CACTVS_TAUTO_COUNT>
2

> <PUBCHEM_COORDINATE_TYPE>
1
5
255

> <PUBCHEM_BONDANNOTATIONS>
17  19  3
18  20  8
18  21  8
20  22  8
21  23  8
22  24  8
23  24  8

$$$$

