17395696
  -OEChem-06241222513D

 47 49  0     0  0  0  0  0  0999 V2000
   -1.7812    1.1463   -0.2302 S   0  0  0  0  0  0  0  0  0  0  0  0
    0.9300    2.1985   -0.1068 O   0  0  0  0  0  0  0  0  0  0  0  0
    6.4506    0.8139   -0.3977 O   0  0  0  0  0  0  0  0  0  0  0  0
    6.5688   -1.1453    0.7871 O   0  0  0  0  0  0  0  0  0  0  0  0
   -4.3515    0.1681   -0.3523 N   0  0  0  0  0  0  0  0  0  0  0  0
   -4.0168   -1.9891   -0.3149 N   0  0  0  0  0  0  0  0  0  0  0  0
   -2.7916   -1.3571   -0.2616 N   0  0  0  0  0  0  0  0  0  0  0  0
    2.3748   -1.1144    0.0303 N   0  0  0  0  0  0  0  0  0  0  0  0
   -7.2865    0.8995    0.6381 C   0  0  0  0  0  0  0  0  0  0  0  0
   -5.9723    1.6730    0.7695 C   0  0  0  0  0  0  0  0  0  0  0  0
   -7.1551   -0.6226    0.7417 C   0  0  0  0  0  0  0  0  0  0  0  0
   -5.0070    1.4546   -0.3926 C   0  0  0  0  0  0  0  0  0  0  0  0
   -6.4200   -1.2653   -0.4332 C   0  0  0  0  0  0  0  0  0  0  0  0
   -4.9513   -1.0604   -0.3687 C   0  0  0  0  0  0  0  0  0  0  0  0
   -3.0131   -0.0627   -0.2843 C   0  0  0  0  0  0  0  0  0  0  0  0
    2.2727    0.2519    0.0020 C   0  0  0  0  0  0  0  0  0  0  0  0
    3.5466    0.7716    0.0668 C   0  0  0  0  0  0  0  0  0  0  0  0
   -0.2822    0.1244   -0.1429 C   0  0  0  0  0  0  0  0  0  0  0  0
    4.4462   -0.3207    0.1362 C   0  0  0  0  0  0  0  0  0  0  0  0
    3.6946   -1.4747    0.1114 C   0  0  0  0  0  0  0  0  0  0  0  0
    0.9855    0.9681   -0.0838 C   0  0  0  0  0  0  0  0  0  0  0  0
    3.9098    2.2046    0.0650 C   0  0  0  0  0  0  0  0  0  0  0  0
    4.0914   -2.8957    0.1567 C   0  0  0  0  0  0  0  0  0  0  0  0
    5.8791   -0.2818    0.2179 C   0  0  0  0  0  0  0  0  0  0  0  0
    7.8784    0.9154   -0.3536 C   0  0  0  0  0  0  0  0  0  0  0  0
   -7.9558    1.2349    1.4405 H   0  0  0  0  0  0  0  0  0  0  0  0
   -7.7797    1.1650   -0.3050 H   0  0  0  0  0  0  0  0  0  0  0  0
   -5.4880    1.4257    1.7223 H   0  0  0  0  0  0  0  0  0  0  0  0
   -6.2198    2.7411    0.8086 H   0  0  0  0  0  0  0  0  0  0  0  0
   -6.6758   -0.8910    1.6916 H   0  0  0  0  0  0  0  0  0  0  0  0
   -8.1697   -1.0397    0.7735 H   0  0  0  0  0  0  0  0  0  0  0  0
   -5.5259    1.5224   -1.3561 H   0  0  0  0  0  0  0  0  0  0  0  0
   -4.2584    2.2505   -0.3801 H   0  0  0  0  0  0  0  0  0  0  0  0
   -6.8104   -0.8894   -1.3861 H   0  0  0  0  0  0  0  0  0  0  0  0
   -6.6173   -2.3444   -0.4183 H   0  0  0  0  0  0  0  0  0  0  0  0
   -0.2351   -0.5119   -1.0325 H   0  0  0  0  0  0  0  0  0  0  0  0
   -0.3301   -0.4955    0.7582 H   0  0  0  0  0  0  0  0  0  0  0  0
    1.6004   -1.7631   -0.0033 H   0  0  0  0  0  0  0  0  0  0  0  0
    4.8437    2.3895    0.6043 H   0  0  0  0  0  0  0  0  0  0  0  0
    3.1599    2.8199    0.5696 H   0  0  0  0  0  0  0  0  0  0  0  0
    4.0237    2.5698   -0.9604 H   0  0  0  0  0  0  0  0  0  0  0  0
    4.4709   -3.1552    1.1502 H   0  0  0  0  0  0  0  0  0  0  0  0
    3.2500   -3.5606   -0.0654 H   0  0  0  0  0  0  0  0  0  0  0  0
    4.8774   -3.1022   -0.5770 H   0  0  0  0  0  0  0  0  0  0  0  0
    8.2192    0.9824    0.6838 H   0  0  0  0  0  0  0  0  0  0  0  0
    8.3329    0.0567   -0.8562 H   0  0  0  0  0  0  0  0  0  0  0  0
    8.1707    1.8276   -0.8801 H   0  0  0  0  0  0  0  0  0  0  0  0
  1 15  1  0  0  0  0
  1 18  1  0  0  0  0
  2 21  2  0  0  0  0
  3 24  1  0  0  0  0
  3 25  1  0  0  0  0
  4 24  2  0  0  0  0
  5 12  1  0  0  0  0
  5 14  1  0  0  0  0
  5 15  1  0  0  0  0
  6  7  1  0  0  0  0
  6 14  2  0  0  0  0
  7 15  2  0  0  0  0
  8 16  1  0  0  0  0
  8 20  1  0  0  0  0
  8 38  1  0  0  0  0
  9 10  1  0  0  0  0
  9 11  1  0  0  0  0
  9 26  1  0  0  0  0
  9 27  1  0  0  0  0
 10 12  1  0  0  0  0
 10 28  1  0  0  0  0
 10 29  1  0  0  0  0
 11 13  1  0  0  0  0
 11 30  1  0  0  0  0
 11 31  1  0  0  0  0
 12 32  1  0  0  0  0
 12 33  1  0  0  0  0
 13 14  1  0  0  0  0
 13 34  1  0  0  0  0
 13 35  1  0  0  0  0
 16 17  2  0  0  0  0
 16 21  1  0  0  0  0
 17 19  1  0  0  0  0
 17 22  1  0  0  0  0
 18 21  1  0  0  0  0
 18 36  1  0  0  0  0
 18 37  1  0  0  0  0
 19 20  2  0  0  0  0
 19 24  1  0  0  0  0
 20 23  1  0  0  0  0
 22 39  1  0  0  0  0
 22 40  1  0  0  0  0
 22 41  1  0  0  0  0
 23 42  1  0  0  0  0
 23 43  1  0  0  0  0
 23 44  1  0  0  0  0
 25 45  1  0  0  0  0
 25 46  1  0  0  0  0
 25 47  1  0  0  0  0
M  END
> <PUBCHEM_COMPOUND_CID>
17395696

> <PUBCHEM_CONFORMER_RMSD>
1.2

> <PUBCHEM_CONFORMER_DIVERSEORDER>
1
25
91
46
60
76
22
35
44
53
6
74
41
20
29
70
7
18
10
37
31
2
24
87
71
52
38
57
56
34
33
66
69
89
40
55
63
15
21
77
64
4
12
27
3
58
13
50
28
32
81
36
43
8
9
42
49
72
26
79
23
61
5
14
82
48
11
68
47
67
83
86
90
65
85
19
88
45
39
54
75
73
78
92
30
62
16
84
59
80
51
17

> <PUBCHEM_MMFF94_PARTIAL_CHARGES>
23
1 -0.29
12 0.26
13 0.18
14 0.01
15 0.24
16 -0.24
17 -0.18
18 0.29
19 -0.09
2 -0.57
20 -0.33
21 0.59
22 0.18
23 0.18
24 0.81
25 0.28
3 -0.43
38 0.27
4 -0.57
5 0.05
6 -0.34
7 -0.34
8 0.03

> <PUBCHEM_EFFECTIVE_ROTOR_COUNT>
7

> <PUBCHEM_PHARMACOPHORE_FEATURES>
9
1 2 acceptor
1 4 acceptor
1 8 cation
1 8 donor
3 5 6 14 cation
3 5 7 15 cation
5 5 6 7 14 15 rings
5 8 16 17 19 20 rings
7 5 9 10 11 12 13 14 rings

> <PUBCHEM_HEAVY_ATOM_COUNT>
25

> <PUBCHEM_ATOM_DEF_STEREO_COUNT>
0

> <PUBCHEM_ATOM_UDEF_STEREO_COUNT>
0

> <PUBCHEM_BOND_DEF_STEREO_COUNT>
0

> <PUBCHEM_BOND_UDEF_STEREO_COUNT>
0

> <PUBCHEM_ISOTOPIC_ATOM_COUNT>
0

> <PUBCHEM_COMPONENT_COUNT>
1

> <PUBCHEM_CACTVS_TAUTO_COUNT>
18

> <PUBCHEM_CONFORMER_ID>
01096FF000000001

> <PUBCHEM_MMFF94_ENERGY>
33.9012

> <PUBCHEM_FEATURE_SELFOVERLAP>
48.19

> <PUBCHEM_SHAPE_FINGERPRINT>
100830 39 18337109068609231129
10299344 5 18412543206208288924
11315181 36 18411418398178018945
11524674 6 17022623057351883343
11719270 70 18113620101616456958
12107183 9 18047749596856904561
12236239 1 18259985976718629548
12516196 113 18333452049309757304
13073987 5 18408885135987695001
13533116 47 18408604781301122970
13685833 64 18343301470028415419
14251764 18 18410293605713193399
14251764 46 15913327991795824536
14617045 38 18411698781442064110
14849402 71 18340483353276974612
14933364 13 18410011035435673009
15021287 119 17846207878772878845
15183329 4 18411707595083739811
15461852 350 16877951529815435341
17844677 252 18410289203483075901
1813 80 17131833170835653405
18608769 82 17845929633474308203
21267235 1 18410290324611380404
23035841 295 18413110562850832057
23522609 53 18198596948105788557
23559900 14 18336554828052537488
24771293 8 18043549218148475352
3004659 81 18343587334757316168
350125 39 18409451388602395628
4073 2 18201434714580846770
4214541 1 18409450284980248021
4325135 7 18272369759508700124
5104073 3 18409451371385272569
559249 180 18409451397540035103
5758199 1 18341895169567187770
7226269 152 17604147129848057041
999808 66 17846206749322509283

> <PUBCHEM_SHAPE_MULTIPOLES>
480.81
22.95
2.25
0.73
3.19
0.53
0.05
0.23
2.27
-0.81
0.04
0.39
-0.02
-1.02

> <PUBCHEM_SHAPE_SELFOVERLAP>
1003.677

> <PUBCHEM_SHAPE_VOLUME>
276.2

> <PUBCHEM_COORDINATE_TYPE>
2
5
10

$$$$

