7182
  -OEChem-06261201523D

 26 26  0     0  0  0  0  0  0999 V2000
   -2.3647   -0.1493    0.0038 O   0  0  0  0  0  0  0  0  0  0  0  0
   -1.9541    2.1157   -0.0007 O   0  0  0  0  0  0  0  0  0  0  0  0
    4.7947    0.3650   -0.0061 O   0  5  0  0  0  0  0  0  0  0  0  0
    4.2208   -1.7539   -0.0003 O   0  0  0  0  0  0  0  0  0  0  0  0
    3.9206   -0.5354   -0.0022 N   0  3  0  0  0  0  0  0  0  0  0  0
   -4.5068   -1.2367    0.0043 C   0  0  0  0  0  0  0  0  0  0  0  0
   -3.7750    0.0967    0.0022 C   0  0  0  0  0  0  0  0  0  0  0  0
   -0.1423    0.5658    0.0026 C   0  0  0  0  0  0  0  0  0  0  0  0
   -6.0138   -1.0539   -0.0123 C   0  0  0  0  0  0  0  0  0  0  0  0
   -1.5458    0.9468    0.0021 C   0  0  0  0  0  0  0  0  0  0  0  0
    0.8468    1.5492   -0.0001 C   0  0  0  0  0  0  0  0  0  0  0  0
    0.2148   -0.7827    0.0042 C   0  0  0  0  0  0  0  0  0  0  0  0
    2.5503   -0.1641    0.0005 C   0  0  0  0  0  0  0  0  0  0  0  0
    2.1931    1.1842   -0.0012 C   0  0  0  0  0  0  0  0  0  0  0  0
    1.5612   -1.1475    0.0033 C   0  0  0  0  0  0  0  0  0  0  0  0
   -4.1940   -1.8290   -0.8640 H   0  0  0  0  0  0  0  0  0  0  0  0
   -4.2110   -1.8168    0.8866 H   0  0  0  0  0  0  0  0  0  0  0  0
   -4.0383    0.6715   -0.8932 H   0  0  0  0  0  0  0  0  0  0  0  0
   -4.0407    0.6757    0.8941 H   0  0  0  0  0  0  0  0  0  0  0  0
   -6.3333   -0.5102   -0.9070 H   0  0  0  0  0  0  0  0  0  0  0  0
   -6.5141   -2.0273   -0.0098 H   0  0  0  0  0  0  0  0  0  0  0  0
   -6.3510   -0.4965    0.8675 H   0  0  0  0  0  0  0  0  0  0  0  0
    0.5900    2.6054   -0.0017 H   0  0  0  0  0  0  0  0  0  0  0  0
   -0.5210   -1.5819    0.0061 H   0  0  0  0  0  0  0  0  0  0  0  0
    2.9366    1.9773   -0.0037 H   0  0  0  0  0  0  0  0  0  0  0  0
    1.8028   -2.2074    0.0043 H   0  0  0  0  0  0  0  0  0  0  0  0
  1  7  1  0  0  0  0
  1 10  1  0  0  0  0
  2 10  2  0  0  0  0
  3  5  1  0  0  0  0
  4  5  2  0  0  0  0
  5 13  1  0  0  0  0
  6  7  1  0  0  0  0
  6  9  1  0  0  0  0
  6 16  1  0  0  0  0
  6 17  1  0  0  0  0
  7 18  1  0  0  0  0
  7 19  1  0  0  0  0
  8 10  1  0  0  0  0
  8 11  2  0  0  0  0
  8 12  1  0  0  0  0
  9 20  1  0  0  0  0
  9 21  1  0  0  0  0
  9 22  1  0  0  0  0
 11 14  1  0  0  0  0
 11 23  1  0  0  0  0
 12 15  2  0  0  0  0
 12 24  1  0  0  0  0
 13 14  2  0  0  0  0
 13 15  1  0  0  0  0
 14 25  1  0  0  0  0
 15 26  1  0  0  0  0
M  CHG  2   3  -1   5   1
M  END
> <PUBCHEM_COMPOUND_CID>
7182

> <PUBCHEM_CONFORMER_RMSD>
0.6

> <PUBCHEM_CONFORMER_DIVERSEORDER>
1
16
3
8
4
14
2
5
9
18
12
11
7
6
13
10
15
17

> <PUBCHEM_MMFF94_PARTIAL_CHARGES>
17
1 -0.43
10 0.63
11 -0.15
12 -0.15
13 0.13
14 -0.15
15 -0.15
2 -0.57
23 0.15
24 0.15
25 0.15
26 0.15
3 -0.52
4 -0.52
5 0.91
7 0.28
8 0.09

> <PUBCHEM_EFFECTIVE_ROTOR_COUNT>
5

> <PUBCHEM_PHARMACOPHORE_FEATURES>
6
1 2 acceptor
1 3 acceptor
1 3 anion
1 4 acceptor
1 9 hydrophobe
6 8 11 12 13 14 15 rings

> <PUBCHEM_HEAVY_ATOM_COUNT>
15

> <PUBCHEM_ATOM_DEF_STEREO_COUNT>
0

> <PUBCHEM_ATOM_UDEF_STEREO_COUNT>
0

> <PUBCHEM_BOND_DEF_STEREO_COUNT>
0

> <PUBCHEM_BOND_UDEF_STEREO_COUNT>
0

> <PUBCHEM_ISOTOPIC_ATOM_COUNT>
0

> <PUBCHEM_COMPONENT_COUNT>
1

> <PUBCHEM_CACTVS_TAUTO_COUNT>
1

> <PUBCHEM_CONFORMER_ID>
00001C0E00000001

> <PUBCHEM_MMFF94_ENERGY>
37.222

> <PUBCHEM_FEATURE_SELFOVERLAP>
30.527

> <PUBCHEM_SHAPE_FINGERPRINT>
11806522 49 18413107264247383380
12032990 46 18336826489355510942
13690532 89 18412263943123969874
13862211 1 18411422808155007219
14115302 16 17703500004939025607
14252887 29 17749099011116125262
14325111 11 18338797926826625824
14993402 34 15554726668237727843
15048467 5 8214137465314961346
15196674 1 18410856598299782977
15477762 27 18412261735853606212
200 152 18334297565599133449
20261772 1 17968099694297944767
20645477 70 18413389825877427591
21267235 1 18409721863640210654
21501925 9 18411421713217551336
221490 88 18127123070530237155
23402539 116 18343305881408214957
26918003 58 18343865485814338243
2871803 45 18273500078530909483
3286 77 18411420613569013972
4463277 17 18409446977649675697
465052 167 18334851680668144831
5104073 3 18261960759758032072
76465 3 18129952294194719610
8809292 202 18201715107521243283

> <PUBCHEM_SHAPE_MULTIPOLES>
280.23
10.49
1.71
0.58
8.2
0.31
0
-5.12
0.03
-0.17
0
0.06
0
0

> <PUBCHEM_SHAPE_SELFOVERLAP>
576.719

> <PUBCHEM_SHAPE_VOLUME>
162.4

> <PUBCHEM_COORDINATE_TYPE>
2
5
10

$$$$

