7815
  -OEChem-06261202213D

 13 13  0     0  0  0  0  0  0999 V2000
   -3.1230   -0.0001   -0.0015 Cl  0  0  0  0  0  0  0  0  0  0  0  0
    3.1693   -0.0001   -0.0007 S   0  0  0  0  0  0  0  0  0  0  0  0
    1.3872   -0.0002   -0.0003 C   0  0  0  0  0  0  0  0  0  0  0  0
    0.6895   -1.2080    0.0001 C   0  0  0  0  0  0  0  0  0  0  0  0
    0.6899    1.2079    0.0001 C   0  0  0  0  0  0  0  0  0  0  0  0
   -0.7054   -1.2078    0.0007 C   0  0  0  0  0  0  0  0  0  0  0  0
   -0.7050    1.2081    0.0007 C   0  0  0  0  0  0  0  0  0  0  0  0
   -1.4026    0.0002    0.0009 C   0  0  0  0  0  0  0  0  0  0  0  0
    1.2157   -2.1595   -0.0002 H   0  0  0  0  0  0  0  0  0  0  0  0
    1.2121    2.1615   -0.0003 H   0  0  0  0  0  0  0  0  0  0  0  0
   -1.2358   -2.1566    0.0005 H   0  0  0  0  0  0  0  0  0  0  0  0
   -1.2353    2.1569    0.0005 H   0  0  0  0  0  0  0  0  0  0  0  0
    3.3434    1.3298   -0.0012 H   0  0  0  0  0  0  0  0  0  0  0  0
  1  8  1  0  0  0  0
  2  3  1  0  0  0  0
  2 13  1  0  0  0  0
  3  4  2  0  0  0  0
  3  5  1  0  0  0  0
  4  6  1  0  0  0  0
  4  9  1  0  0  0  0
  5  7  2  0  0  0  0
  5 10  1  0  0  0  0
  6  8  2  0  0  0  0
  6 11  1  0  0  0  0
  7  8  1  0  0  0  0
  7 12  1  0  0  0  0
M  END
> <PUBCHEM_COMPOUND_CID>
7815

> <PUBCHEM_CONFORMER_RMSD>
0.4

> <PUBCHEM_CONFORMER_DIVERSEORDER>
1

> <PUBCHEM_MMFF94_PARTIAL_CHARGES>
13
1 -0.18
10 0.15
11 0.15
12 0.15
13 0.18
2 -0.28
3 0.1
4 -0.15
5 -0.15
6 -0.15
7 -0.15
8 0.18
9 0.15

> <PUBCHEM_EFFECTIVE_ROTOR_COUNT>
0

> <PUBCHEM_PHARMACOPHORE_FEATURES>
1
6 3 4 5 6 7 8 rings

> <PUBCHEM_HEAVY_ATOM_COUNT>
8

> <PUBCHEM_ATOM_DEF_STEREO_COUNT>
0

> <PUBCHEM_ATOM_UDEF_STEREO_COUNT>
0

> <PUBCHEM_BOND_DEF_STEREO_COUNT>
0

> <PUBCHEM_BOND_UDEF_STEREO_COUNT>
0

> <PUBCHEM_ISOTOPIC_ATOM_COUNT>
0

> <PUBCHEM_COMPONENT_COUNT>
1

> <PUBCHEM_CACTVS_TAUTO_COUNT>
2

> <PUBCHEM_CONFORMER_ID>
00001E8700000001

> <PUBCHEM_MMFF94_ENERGY>
15.8736

> <PUBCHEM_FEATURE_SELFOVERLAP>
5.074

> <PUBCHEM_SHAPE_FINGERPRINT>
14325111 11 18410573993778438912
15310529 11 16630537240613809792
16714656 1 18410572885903567510
16945 1 18410855460149260806
193761 8 17617941769315577472
21040471 1 18266740169126143073
21293036 1 18412262822163756220
23235685 24 18410859862474960416
23402655 69 18193575569629270837
23552423 10 18056760919090163284
2748010 2 18122626046059673942
29004967 10 18343577460553448361
5084963 1 18260830397068977224

> <PUBCHEM_SHAPE_MULTIPOLES>
170.36
4.06
1.34
0.63
0.21
0
0
0
0
-0.01
0
0.02
0
0

> <PUBCHEM_SHAPE_SELFOVERLAP>
331.793

> <PUBCHEM_SHAPE_VOLUME>
103.1

> <PUBCHEM_COORDINATE_TYPE>
2
5
10

$$$$

