586121
  -OEChem-06241222453D

 46 50  0     1  0  0  0  0  0999 V2000
   -4.0182   -0.3835    1.1503 O   0  0  0  0  0  0  0  0  0  0  0  0
    2.7491    1.2554   -0.2847 N   0  0  1  0  0  0  0  0  0  0  0  0
   -1.1892    0.1078    1.6907 N   0  0  0  0  0  0  0  0  0  0  0  0
    0.4170    0.9364    0.0609 C   0  0  1  0  0  0  0  0  0  0  0  0
    1.6054    0.4587   -0.7895 C   0  0  2  0  0  0  0  0  0  0  0  0
    0.2551    0.2050    1.4554 C   0  0  2  0  0  0  0  0  0  0  0  0
    0.7193    2.4425    0.2411 C   0  0  0  0  0  0  0  0  0  0  0  0
    2.1197   -1.4662    0.6917 C   0  0  1  0  0  0  0  0  0  0  0  0
    0.8613   -1.2180    1.5368 C   0  0  0  0  0  0  0  0  0  0  0  0
    1.8258   -1.0205   -0.7079 C   0  0  0  0  0  0  0  0  0  0  0  0
    2.1891    2.6130   -0.1628 C   0  0  0  0  0  0  0  0  0  0  0  0
   -0.9511    0.7178   -0.5334 C   0  0  0  0  0  0  0  0  0  0  0  0
    3.3743   -0.7167    1.1625 C   0  0  0  0  0  0  0  0  0  0  0  0
    3.2842    0.8068    1.0144 C   0  0  0  0  0  0  0  0  0  0  0  0
   -1.8188    0.2483    0.4573 C   0  0  0  0  0  0  0  0  0  0  0  0
    1.7601   -1.8490   -1.7586 C   0  0  0  0  0  0  0  0  0  0  0  0
   -1.4020    0.9531   -1.8239 C   0  0  0  0  0  0  0  0  0  0  0  0
   -3.1610    0.0415    0.1860 C   0  0  0  0  0  0  0  0  0  0  0  0
   -2.7477    0.7187   -2.1116 C   0  0  0  0  0  0  0  0  0  0  0  0
    1.9311   -3.3268   -1.6655 C   0  0  0  0  0  0  0  0  0  0  0  0
   -3.6226    0.2697   -1.1120 C   0  0  0  0  0  0  0  0  0  0  0  0
   -4.1808   -1.7941    1.3026 C   0  0  0  0  0  0  0  0  0  0  0  0
    1.4604    0.7425   -1.8414 H   0  0  0  0  0  0  0  0  0  0  0  0
    0.6820    0.8019    2.2680 H   0  0  0  0  0  0  0  0  0  0  0  0
    0.5628    2.7717    1.2744 H   0  0  0  0  0  0  0  0  0  0  0  0
    0.0937    3.0770   -0.3982 H   0  0  0  0  0  0  0  0  0  0  0  0
    2.3540   -2.5336    0.7576 H   0  0  0  0  0  0  0  0  0  0  0  0
    0.1047   -1.9543    1.2275 H   0  0  0  0  0  0  0  0  0  0  0  0
    1.0718   -1.4512    2.5890 H   0  0  0  0  0  0  0  0  0  0  0  0
    2.2413    3.1015   -1.1438 H   0  0  0  0  0  0  0  0  0  0  0  0
    2.7429    3.2522    0.5342 H   0  0  0  0  0  0  0  0  0  0  0  0
    4.2355   -1.0713    0.5793 H   0  0  0  0  0  0  0  0  0  0  0  0
    3.5866   -0.9657    2.2094 H   0  0  0  0  0  0  0  0  0  0  0  0
    2.7135    1.2077    1.8585 H   0  0  0  0  0  0  0  0  0  0  0  0
    4.2924    1.2247    1.1289 H   0  0  0  0  0  0  0  0  0  0  0  0
   -1.5946   -0.4229    2.4489 H   0  0  0  0  0  0  0  0  0  0  0  0
    1.5569   -1.4436   -2.7464 H   0  0  0  0  0  0  0  0  0  0  0  0
   -0.7369    1.3245   -2.5958 H   0  0  0  0  0  0  0  0  0  0  0  0
   -3.1242    0.8973   -3.1151 H   0  0  0  0  0  0  0  0  0  0  0  0
    1.4546   -3.8001   -2.5310 H   0  0  0  0  0  0  0  0  0  0  0  0
    1.4544   -3.7549   -0.7794 H   0  0  0  0  0  0  0  0  0  0  0  0
    2.9917   -3.5944   -1.6823 H   0  0  0  0  0  0  0  0  0  0  0  0
   -4.6692    0.1059   -1.3563 H   0  0  0  0  0  0  0  0  0  0  0  0
   -4.5951   -2.2314    0.3888 H   0  0  0  0  0  0  0  0  0  0  0  0
   -4.8801   -1.9712    2.1243 H   0  0  0  0  0  0  0  0  0  0  0  0
   -3.2250   -2.2684    1.5470 H   0  0  0  0  0  0  0  0  0  0  0  0
  1 18  1  0  0  0  0
  1 22  1  0  0  0  0
  2  5  1  0  0  0  0
  2 11  1  0  0  0  0
  2 14  1  0  0  0  0
  3  6  1  0  0  0  0
  3 15  1  0  0  0  0
  3 36  1  0  0  0  0
  4  5  1  0  0  0  0
  4  6  1  0  0  0  0
  4  7  1  0  0  0  0
  4 12  1  0  0  0  0
  5 10  1  0  0  0  0
  5 23  1  0  0  0  0
  6  9  1  0  0  0  0
  6 24  1  0  0  0  0
  7 11  1  0  0  0  0
  7 25  1  0  0  0  0
  7 26  1  0  0  0  0
  8  9  1  0  0  0  0
  8 10  1  0  0  0  0
  8 13  1  0  0  0  0
  8 27  1  0  0  0  0
  9 28  1  0  0  0  0
  9 29  1  0  0  0  0
 10 16  2  0  0  0  0
 11 30  1  0  0  0  0
 11 31  1  0  0  0  0
 12 15  2  0  0  0  0
 12 17  1  0  0  0  0
 13 14  1  0  0  0  0
 13 32  1  0  0  0  0
 13 33  1  0  0  0  0
 14 34  1  0  0  0  0
 14 35  1  0  0  0  0
 15 18  1  0  0  0  0
 16 20  1  0  0  0  0
 16 37  1  0  0  0  0
 17 19  2  0  0  0  0
 17 38  1  0  0  0  0
 18 21  2  0  0  0  0
 19 21  1  0  0  0  0
 19 39  1  0  0  0  0
 20 40  1  0  0  0  0
 20 41  1  0  0  0  0
 20 42  1  0  0  0  0
 21 43  1  0  0  0  0
 22 44  1  0  0  0  0
 22 45  1  0  0  0  0
 22 46  1  0  0  0  0
M  END
> <PUBCHEM_COMPOUND_CID>
586121

> <PUBCHEM_CONFORMER_RMSD>
0.6

> <PUBCHEM_CONFORMER_DIVERSEORDER>
2
6
3
7
1
8
5
4

> <PUBCHEM_MMFF94_PARTIAL_CHARGES>
24
1 -0.36
10 -0.28
11 0.27
12 -0.14
14 0.27
15 0.1
16 -0.29
17 -0.15
18 0.08
19 -0.15
2 -0.81
20 0.14
21 -0.15
22 0.28
3 -0.87
36 0.4
37 0.15
38 0.15
39 0.15
4 0.14
43 0.15
5 0.41
6 0.37
8 0.14

> <PUBCHEM_EFFECTIVE_ROTOR_COUNT>
2.2

> <PUBCHEM_PHARMACOPHORE_FEATURES>
10
1 1 acceptor
1 2 cation
1 20 hydrophobe
1 3 cation
1 3 donor
5 2 4 5 7 11 rings
5 3 4 6 12 15 rings
6 12 15 17 18 19 21 rings
6 2 5 8 10 13 14 rings
6 4 5 6 8 9 10 rings

> <PUBCHEM_HEAVY_ATOM_COUNT>
22

> <PUBCHEM_ATOM_DEF_STEREO_COUNT>
0

> <PUBCHEM_ATOM_UDEF_STEREO_COUNT>
4

> <PUBCHEM_BOND_DEF_STEREO_COUNT>
0

> <PUBCHEM_BOND_UDEF_STEREO_COUNT>
1

> <PUBCHEM_ISOTOPIC_ATOM_COUNT>
0

> <PUBCHEM_COMPONENT_COUNT>
1

> <PUBCHEM_CACTVS_TAUTO_COUNT>
1

> <PUBCHEM_CONFORMER_ID>
0008F18900000002

> <PUBCHEM_MMFF94_ENERGY>
92.3553

> <PUBCHEM_FEATURE_SELFOVERLAP>
53.079

> <PUBCHEM_SHAPE_FINGERPRINT>
10064457 181 17385727945818986710
10863032 1 17417546803378404192
11582403 64 16328587106715895796
12403259 226 17703801283725088545
12596599 1 18341878728358714483
13134695 92 18197242371676606532
13224815 77 16559030489401715241
13965767 371 15937232530304197139
15219456 202 17989218022564290993
15422964 175 18262790912253577215
16945 1 18260550004561370100
1813 80 17315617754804570390
19786989 88 18337389340218865877
20645477 70 18337685152223581461
21731516 1 17680700729335910334
22149856 69 15621473811353402221
23419403 2 17627269867711670660
23557571 272 17060346197578476413
23728640 28 15886580550458471262
238 59 18125187981473058069
2748010 2 17417820525986585905
4340502 62 17969493815228751635
5845 1 15592969547121621684
6669772 16 18266731395478655324
77492 1 17313391093086425141
81228 2 17615417286508450504
84936 31 18260823778540061942

> <PUBCHEM_SHAPE_MULTIPOLES>
436.92
6.18
2.53
1.96
4.99
0.76
-0.36
1.37
1.01
-2.05
-0.85
0.64
0.72
1.45

> <PUBCHEM_SHAPE_SELFOVERLAP>
972.67

> <PUBCHEM_SHAPE_VOLUME>
233.1

> <PUBCHEM_COORDINATE_TYPE>
2
5
10

$$$$

