12861
  -OEChem-06261207283D

 21 22  0     0  0  0  0  0  0999 V2000
    4.1695    1.5184    0.1446 F   0  0  0  0  0  0  0  0  0  0  0  0
    2.2805   -2.6163   -0.3359 F   0  0  0  0  0  0  0  0  0  0  0  0
   -0.4418    1.0988    0.1357 N   0  0  0  0  0  0  0  0  0  0  0  0
    0.8970   -0.8109   -0.1049 N   0  0  0  0  0  0  0  0  0  0  0  0
    1.8886    1.3595    0.1474 N   0  0  0  0  0  0  0  0  0  0  0  0
    3.2850   -0.5762   -0.0983 N   0  0  0  0  0  0  0  0  0  0  0  0
   -1.7403    0.5508    0.0820 C   0  0  0  0  0  0  0  0  0  0  0  0
   -2.7960    1.3077   -0.4263 C   0  0  0  0  0  0  0  0  0  0  0  0
   -1.9687   -0.7480    0.5362 C   0  0  0  0  0  0  0  0  0  0  0  0
    0.8408    0.5224    0.0561 C   0  0  0  0  0  0  0  0  0  0  0  0
   -4.0801    0.7657   -0.4803 C   0  0  0  0  0  0  0  0  0  0  0  0
   -3.2528   -1.2901    0.4821 C   0  0  0  0  0  0  0  0  0  0  0  0
   -4.3085   -0.5332   -0.0262 C   0  0  0  0  0  0  0  0  0  0  0  0
    3.0771    0.7406    0.0620 C   0  0  0  0  0  0  0  0  0  0  0  0
    2.1498   -1.2893   -0.1740 C   0  0  0  0  0  0  0  0  0  0  0  0
   -0.4150    2.1140    0.1198 H   0  0  0  0  0  0  0  0  0  0  0  0
   -2.6311    2.3207   -0.7844 H   0  0  0  0  0  0  0  0  0  0  0  0
   -1.1871   -1.3564    0.9788 H   0  0  0  0  0  0  0  0  0  0  0  0
   -4.9023    1.3551   -0.8758 H   0  0  0  0  0  0  0  0  0  0  0  0
   -3.4333   -2.2978    0.8448 H   0  0  0  0  0  0  0  0  0  0  0  0
   -5.3087   -0.9544   -0.0661 H   0  0  0  0  0  0  0  0  0  0  0  0
  1 14  1  0  0  0  0
  2 15  1  0  0  0  0
  3  7  1  0  0  0  0
  3 10  1  0  0  0  0
  3 16  1  0  0  0  0
  4 10  2  0  0  0  0
  4 15  1  0  0  0  0
  5 10  1  0  0  0  0
  5 14  2  0  0  0  0
  6 14  1  0  0  0  0
  6 15  2  0  0  0  0
  7  8  2  0  0  0  0
  7  9  1  0  0  0  0
  8 11  1  0  0  0  0
  8 17  1  0  0  0  0
  9 12  2  0  0  0  0
  9 18  1  0  0  0  0
 11 13  2  0  0  0  0
 11 19  1  0  0  0  0
 12 13  1  0  0  0  0
 12 20  1  0  0  0  0
 13 21  1  0  0  0  0
M  END
> <PUBCHEM_COMPOUND_CID>
12861

> <PUBCHEM_CONFORMER_RMSD>
0.6

> <PUBCHEM_CONFORMER_DIVERSEORDER>
1
3
2

> <PUBCHEM_MMFF94_PARTIAL_CHARGES>
21
1 -0.19
10 0.72
11 -0.15
12 -0.15
13 -0.15
14 0.81
15 0.81
16 0.4
17 0.15
18 0.15
19 0.15
2 -0.19
20 0.15
21 0.15
3 -0.6
4 -0.62
5 -0.62
6 -0.62
7 0.1
8 -0.15
9 -0.15

> <PUBCHEM_EFFECTIVE_ROTOR_COUNT>
2

> <PUBCHEM_PHARMACOPHORE_FEATURES>
4
1 3 donor
4 3 4 5 10 cation
6 4 5 6 10 14 15 rings
6 7 8 9 11 12 13 rings

> <PUBCHEM_HEAVY_ATOM_COUNT>
15

> <PUBCHEM_ATOM_DEF_STEREO_COUNT>
0

> <PUBCHEM_ATOM_UDEF_STEREO_COUNT>
0

> <PUBCHEM_BOND_DEF_STEREO_COUNT>
0

> <PUBCHEM_BOND_UDEF_STEREO_COUNT>
0

> <PUBCHEM_ISOTOPIC_ATOM_COUNT>
0

> <PUBCHEM_COMPONENT_COUNT>
1

> <PUBCHEM_CACTVS_TAUTO_COUNT>
3

> <PUBCHEM_CONFORMER_ID>
0000323D00000001

> <PUBCHEM_MMFF94_ENERGY>
43.1725

> <PUBCHEM_FEATURE_SELFOVERLAP>
20.297

> <PUBCHEM_SHAPE_FINGERPRINT>
10608611 8 18413111679711523797
10922523 26 18272651272786668911
11471102 20 18408325479799357980
11615757 297 17603581902786261553
12932764 1 17417251068988847585
13296908 3 18410854386687128587
13380535 76 18341895151854757050
14144814 61 18409445912249756193
14325111 11 18411982472647987313
14415576 193 18343298137408477364
15196674 1 18411700988880745587
15219456 202 18411981368888696101
15375358 24 18343023272285877027
15442244 35 18120371226878847880
15536298 74 18408322211139393586
17834074 16 18411417310860196647
18186145 218 17917149515298917327
19107657 46 18410291380867639927
200 152 17968100802789455101
20201158 50 18411698794379408219
20279233 1 18342454837659192707
20645477 56 18130508617420064293
20645477 70 18260831543988970807
221490 88 18411691115031033146
22169311 21 18412831304293504413
22485316 2 18335141981802148295
23402539 116 17703239433388634165
23402655 69 18335424586255323525
23557571 272 17703795842228371837
23559900 14 18339648944272867058
3312278 4 18408319973788519193
33824 294 18410856551229657890
5104073 3 18412263956262080313
581208 293 18408045095744275530
69090 78 18410579483395574199
7364860 26 18335420214073555006
77779 3 18410854382502950589
81539 233 18413107234741827134
93112 12 18412825823962759509
9709674 26 18413384328614934667

> <PUBCHEM_SHAPE_MULTIPOLES>
274.22
8.12
1.82
0.66
0.86
0.65
0.01
-0.43
-0.35
-0.94
-0.11
0.21
0.03
0.68

> <PUBCHEM_SHAPE_SELFOVERLAP>
590.145

> <PUBCHEM_SHAPE_VOLUME>
148.9

> <PUBCHEM_COORDINATE_TYPE>
2
5
10

$$$$

