854025
  -OEChem-06241222463D

 21 20  0     1  0  0  0  0  0999 V2000
   -0.5199   -1.5990   -0.8609 O   0  0  0  0  0  0  0  0  0  0  0  0
   -1.8499    1.0457    1.1882 O   0  0  0  0  0  0  0  0  0  0  0  0
   -2.3172    0.4124   -0.9385 O   0  0  0  0  0  0  0  0  0  0  0  0
    0.8451   -0.1350    0.5171 C   0  0  1  0  0  0  0  0  0  0  0  0
    1.3975    0.7309   -0.6369 C   0  0  0  0  0  0  0  0  0  0  0  0
   -0.5531   -0.7452    0.2728 C   0  0  1  0  0  0  0  0  0  0  0  0
    1.8465   -1.2699    0.7861 C   0  0  0  0  0  0  0  0  0  0  0  0
    2.7995    1.2716   -0.4074 C   0  0  0  0  0  0  0  0  0  0  0  0
   -1.6485    0.2885    0.0796 C   0  0  0  0  0  0  0  0  0  0  0  0
    0.7933    0.4915    1.4172 H   0  0  0  0  0  0  0  0  0  0  0  0
    0.7221    1.5817   -0.7887 H   0  0  0  0  0  0  0  0  0  0  0  0
    1.3907    0.1600   -1.5735 H   0  0  0  0  0  0  0  0  0  0  0  0
   -0.8435   -1.3645    1.1305 H   0  0  0  0  0  0  0  0  0  0  0  0
    1.4466   -1.9707    1.5276 H   0  0  0  0  0  0  0  0  0  0  0  0
    2.7859   -0.8869    1.1971 H   0  0  0  0  0  0  0  0  0  0  0  0
    2.0742   -1.8365   -0.1233 H   0  0  0  0  0  0  0  0  0  0  0  0
    3.5534    0.4802   -0.4508 H   0  0  0  0  0  0  0  0  0  0  0  0
    3.0502    1.9990   -1.1867 H   0  0  0  0  0  0  0  0  0  0  0  0
    2.8743    1.7765    0.5607 H   0  0  0  0  0  0  0  0  0  0  0  0
   -1.3700   -2.0698   -0.8993 H   0  0  0  0  0  0  0  0  0  0  0  0
   -2.5730    1.6961    1.0605 H   0  0  0  0  0  0  0  0  0  0  0  0
  1  6  1  0  0  0  0
  1 20  1  0  0  0  0
  2  9  1  0  0  0  0
  2 21  1  0  0  0  0
  3  9  2  0  0  0  0
  4  5  1  0  0  0  0
  4  6  1  0  0  0  0
  4  7  1  0  0  0  0
  4 10  1  0  0  0  0
  5  8  1  0  0  0  0
  5 11  1  0  0  0  0
  5 12  1  0  0  0  0
  6  9  1  0  0  0  0
  6 13  1  0  0  0  0
  7 14  1  0  0  0  0
  7 15  1  0  0  0  0
  7 16  1  0  0  0  0
  8 17  1  0  0  0  0
  8 18  1  0  0  0  0
  8 19  1  0  0  0  0
M  END
> <PUBCHEM_COMPOUND_CID>
854025

> <PUBCHEM_CONFORMER_RMSD>
0.6

> <PUBCHEM_CONFORMER_DIVERSEORDER>
3
10
1
13
5
2
14
15
16
8
6
9
12
11
7
4

> <PUBCHEM_MMFF94_PARTIAL_CHARGES>
7
1 -0.68
2 -0.65
20 0.4
21 0.5
3 -0.57
6 0.34
9 0.66

> <PUBCHEM_EFFECTIVE_ROTOR_COUNT>
3

> <PUBCHEM_PHARMACOPHORE_FEATURES>
7
1 1 acceptor
1 1 donor
1 2 acceptor
1 3 acceptor
1 7 hydrophobe
1 8 hydrophobe
3 2 3 9 anion

> <PUBCHEM_HEAVY_ATOM_COUNT>
9

> <PUBCHEM_ATOM_DEF_STEREO_COUNT>
2

> <PUBCHEM_ATOM_UDEF_STEREO_COUNT>
0

> <PUBCHEM_BOND_DEF_STEREO_COUNT>
0

> <PUBCHEM_BOND_UDEF_STEREO_COUNT>
0

> <PUBCHEM_ISOTOPIC_ATOM_COUNT>
0

> <PUBCHEM_COMPONENT_COUNT>
1

> <PUBCHEM_CACTVS_TAUTO_COUNT>
1

> <PUBCHEM_CONFORMER_ID>
000D080900000003

> <PUBCHEM_MMFF94_ENERGY>
7.3781

> <PUBCHEM_FEATURE_SELFOVERLAP>
35.588

> <PUBCHEM_SHAPE_FINGERPRINT>
10857977 72 15051438414768052481
12716758 59 17895465930660553834
12932741 1 16845289492369840283
14390081 3 18338234864877137160
15775835 57 18342175544357420772
19837323 101 17678430057187811321
20653085 51 18119500207991455276
21040471 1 17968097559461574635
23552423 10 18339934782667896666
24536 1 18261388992062716875
29004967 10 17416968511680424178
5084963 1 18339657748813516035

> <PUBCHEM_SHAPE_MULTIPOLES>
167.61
3.43
1.47
1.02
0.57
0.3
-0.05
-1.42
0.08
0.63
0.05
-0.38
0.01
-0.49

> <PUBCHEM_SHAPE_SELFOVERLAP>
310.496

> <PUBCHEM_SHAPE_VOLUME>
106.1

> <PUBCHEM_COORDINATE_TYPE>
2
5
10

$$$$

