10399
  -OEChem-06261204313D

 22 22  0     0  0  0  0  0  0999 V2000
   -2.6326    0.1204    0.2477 O   0  0  0  0  0  0  0  0  0  0  0  0
   -1.3120    0.0662   -0.2996 C   0  0  0  0  0  0  0  0  0  0  0  0
   -0.7284   -1.3112    0.0090 C   0  0  0  0  0  0  0  0  0  0  0  0
   -0.5302    1.2472    0.2775 C   0  0  0  0  0  0  0  0  0  0  0  0
    0.7266   -1.5172   -0.4035 C   0  0  0  0  0  0  0  0  0  0  0  0
    0.7977    1.4874   -0.4312 C   0  0  0  0  0  0  0  0  0  0  0  0
    1.7034   -0.7703    0.4986 C   0  0  0  0  0  0  0  0  0  0  0  0
    1.9754    0.6774    0.1016 C   0  0  0  0  0  0  0  0  0  0  0  0
   -1.4162    0.1850   -1.3841 H   0  0  0  0  0  0  0  0  0  0  0  0
   -1.3468   -2.0609   -0.5028 H   0  0  0  0  0  0  0  0  0  0  0  0
   -0.8473   -1.5356    1.0774 H   0  0  0  0  0  0  0  0  0  0  0  0
   -0.3902    1.1357    1.3599 H   0  0  0  0  0  0  0  0  0  0  0  0
   -1.1481    2.1476    0.1586 H   0  0  0  0  0  0  0  0  0  0  0  0
    0.8787   -1.2582   -1.4575 H   0  0  0  0  0  0  0  0  0  0  0  0
    0.9417   -2.5897   -0.3131 H   0  0  0  0  0  0  0  0  0  0  0  0
    1.0587    2.5495   -0.3385 H   0  0  0  0  0  0  0  0  0  0  0  0
    0.6835    1.3052   -1.5071 H   0  0  0  0  0  0  0  0  0  0  0  0
    2.6642   -1.3009    0.4939 H   0  0  0  0  0  0  0  0  0  0  0  0
    1.3525   -0.8047    1.5376 H   0  0  0  0  0  0  0  0  0  0  0  0
    2.3966    1.1928    0.9744 H   0  0  0  0  0  0  0  0  0  0  0  0
    2.7663    0.6946   -0.6593 H   0  0  0  0  0  0  0  0  0  0  0  0
   -2.5597    0.0354    1.2139 H   0  0  0  0  0  0  0  0  0  0  0  0
  1  2  1  0  0  0  0
  1 22  1  0  0  0  0
  2  3  1  0  0  0  0
  2  4  1  0  0  0  0
  2  9  1  0  0  0  0
  3  5  1  0  0  0  0
  3 10  1  0  0  0  0
  3 11  1  0  0  0  0
  4  6  1  0  0  0  0
  4 12  1  0  0  0  0
  4 13  1  0  0  0  0
  5  7  1  0  0  0  0
  5 14  1  0  0  0  0
  5 15  1  0  0  0  0
  6  8  1  0  0  0  0
  6 16  1  0  0  0  0
  6 17  1  0  0  0  0
  7  8  1  0  0  0  0
  7 18  1  0  0  0  0
  7 19  1  0  0  0  0
  8 20  1  0  0  0  0
  8 21  1  0  0  0  0
M  END
> <PUBCHEM_COMPOUND_CID>
10399

> <PUBCHEM_CONFORMER_RMSD>
0.4

> <PUBCHEM_CONFORMER_DIVERSEORDER>
1
4
2
6
7
3
8
5

> <PUBCHEM_MMFF94_PARTIAL_CHARGES>
3
1 -0.68
2 0.28
22 0.4

> <PUBCHEM_EFFECTIVE_ROTOR_COUNT>
1.4

> <PUBCHEM_PHARMACOPHORE_FEATURES>
3
1 1 acceptor
1 1 donor
7 2 3 4 5 6 7 8 rings

> <PUBCHEM_HEAVY_ATOM_COUNT>
8

> <PUBCHEM_ATOM_DEF_STEREO_COUNT>
0

> <PUBCHEM_ATOM_UDEF_STEREO_COUNT>
0

> <PUBCHEM_BOND_DEF_STEREO_COUNT>
0

> <PUBCHEM_BOND_UDEF_STEREO_COUNT>
0

> <PUBCHEM_ISOTOPIC_ATOM_COUNT>
0

> <PUBCHEM_COMPONENT_COUNT>
1

> <PUBCHEM_CACTVS_TAUTO_COUNT>
1

> <PUBCHEM_CONFORMER_ID>
0000289F00000001

> <PUBCHEM_MMFF94_ENERGY>
11.7639

> <PUBCHEM_FEATURE_SELFOVERLAP>
15.223

> <PUBCHEM_SHAPE_FINGERPRINT>
16714656 1 18410291406753221884
18185500 45 18267029366480347764
20096714 4 18339081475824069630
21040471 1 18265332798490103836
23235685 24 18409451362452530316
23552423 10 18126840727611325966
241688 4 17833826458018895514
2748010 2 18050007997528726326
29004967 10 18131068242393201393
5084963 1 18115310114779465234

> <PUBCHEM_SHAPE_MULTIPOLES>
158.77
2.6
1.75
0.71
0.77
0.09
-0.01
-0.14
0.3
-0.33
-0.14
-0.07
0.01
-0.11

> <PUBCHEM_SHAPE_SELFOVERLAP>
300.251

> <PUBCHEM_SHAPE_VOLUME>
97.1

> <PUBCHEM_COORDINATE_TYPE>
2
5
10

$$$$

