583019
  -OEChem-06241222442D

 31 32  0     1  0  0  0  0  0999 V2000
    6.0861    1.2670    0.0000 F   0  0  0  0  0  0  0  0  0  0  0  0
    6.0318    3.3361    0.0000 F   0  0  0  0  0  0  0  0  0  0  0  0
    6.3951    2.2181    0.0000 F   0  0  0  0  0  0  0  0  0  0  0  0
    4.0472    3.9239    0.0000 F   0  0  0  0  0  0  0  0  0  0  0  0
    5.2228    3.9239    0.0000 F   0  0  0  0  0  0  0  0  0  0  0  0
    2.8749    2.2181    0.0000 F   0  0  0  0  0  0  0  0  0  0  0  0
    3.2382    3.3361    0.0000 F   0  0  0  0  0  0  0  0  0  0  0  0
    6.1350    0.5761    0.0000 F   0  0  0  0  0  0  0  0  0  0  0  0
    4.1350    0.5761    0.0000 F   0  0  0  0  0  0  0  0  0  0  0  0
    4.1350    1.5761    0.0000 O   0  0  0  0  0  0  0  0  0  0  0  0
    6.0010   -0.9239    0.0000 O   0  0  0  0  0  0  0  0  0  0  0  0
    2.5369   -1.9239    0.0000 O   0  0  0  0  0  0  0  0  0  0  0  0
    4.2690   -0.9239    0.0000 N   0  0  0  0  0  0  0  0  0  0  0  0
    5.1350    1.5761    0.0000 C   0  0  3  0  0  0  0  0  0  0  0  0
    5.4440    2.5271    0.0000 C   0  0  0  0  0  0  0  0  0  0  0  0
    4.6350    3.1149    0.0000 C   0  0  0  0  0  0  0  0  0  0  0  0
    3.8260    2.5271    0.0000 C   0  0  0  0  0  0  0  0  0  0  0  0
    5.1350    0.5761    0.0000 C   0  0  0  0  0  0  0  0  0  0  0  0
    5.1350   -0.4239    0.0000 C   0  0  0  0  0  0  0  0  0  0  0  0
    4.2690   -1.9239    0.0000 C   0  0  0  0  0  0  0  0  0  0  0  0
    3.4030   -2.4239    0.0000 C   0  0  0  0  0  0  0  0  0  0  0  0
    5.1350   -2.4239    0.0000 C   0  0  0  0  0  0  0  0  0  0  0  0
    3.4030   -3.4239    0.0000 C   0  0  0  0  0  0  0  0  0  0  0  0
    5.1350   -3.4239    0.0000 C   0  0  0  0  0  0  0  0  0  0  0  0
    4.2690   -3.9239    0.0000 C   0  0  0  0  0  0  0  0  0  0  0  0
    3.7320   -0.6139    0.0000 H   0  0  0  0  0  0  0  0  0  0  0  0
    5.6720   -2.1139    0.0000 H   0  0  0  0  0  0  0  0  0  0  0  0
    2.8660   -3.7339    0.0000 H   0  0  0  0  0  0  0  0  0  0  0  0
    5.6720   -3.7339    0.0000 H   0  0  0  0  0  0  0  0  0  0  0  0
    4.2690   -4.5439    0.0000 H   0  0  0  0  0  0  0  0  0  0  0  0
    2.0000   -2.2339    0.0000 H   0  0  0  0  0  0  0  0  0  0  0  0
  1 14  1  0  0  0  0
  2 15  1  0  0  0  0
  3 15  1  0  0  0  0
  4 16  1  0  0  0  0
  5 16  1  0  0  0  0
  6 17  1  0  0  0  0
  7 17  1  0  0  0  0
  8 18  1  0  0  0  0
  9 18  1  0  0  0  0
 10 14  1  0  0  0  0
 10 17  1  0  0  0  0
 11 19  2  0  0  0  0
 12 21  1  0  0  0  0
 12 31  1  0  0  0  0
 13 19  1  0  0  0  0
 13 20  1  0  0  0  0
 13 26  1  0  0  0  0
 14 15  1  0  0  0  0
 14 18  1  0  0  0  0
 15 16  1  0  0  0  0
 16 17  1  0  0  0  0
 18 19  1  0  0  0  0
 20 21  1  0  0  0  0
 20 22  2  0  0  0  0
 21 23  2  0  0  0  0
 22 24  1  0  0  0  0
 22 27  1  0  0  0  0
 23 25  1  0  0  0  0
 23 28  1  0  0  0  0
 24 25  2  0  0  0  0
 24 29  1  0  0  0  0
 25 30  1  0  0  0  0
M  END
> <PUBCHEM_COMPOUND_CID>
583019

> <PUBCHEM_COMPOUND_CANONICALIZED>
1

> <PUBCHEM_CACTVS_COMPLEXITY>
556

> <PUBCHEM_CACTVS_HBOND_ACCEPTOR>
12

> <PUBCHEM_CACTVS_HBOND_DONOR>
2

> <PUBCHEM_CACTVS_ROTATABLE_BOND>
3

> <PUBCHEM_CACTVS_SUBSKEYS>
AAADcYByMcAAAAAAAAAAAAAAAAAAASAAAAAwAAAAAAAAAAABAAAAHwAQCAAACAyBkBAwxoLABgCIACVSUACCAAAhIgAIiAEHbIgKJjbSkZOGcAhm9BHY2AeYSAAAAAAAAAAAEAAAAAAAAAAgAAAAAAAAAA==

> <PUBCHEM_IUPAC_OPENEYE_NAME>
2,2-difluoro-2-(2,3,3,4,4,5,5-heptafluorotetrahydrofuran-2-yl)-N-(2-hydroxyphenyl)acetamide

> <PUBCHEM_IUPAC_CAS_NAME>
2,2-difluoro-2-(2,3,3,4,4,5,5-heptafluoro-2-oxolanyl)-N-(2-hydroxyphenyl)acetamide

> <PUBCHEM_IUPAC_NAME>
2,2-difluoro-2-(2,3,3,4,4,5,5-heptafluorooxolan-2-yl)-N-(2-hydroxyphenyl)acetamide

> <PUBCHEM_IUPAC_SYSTEMATIC_NAME>
2,2-bis(fluoranyl)-2-[2,3,3,4,4,5,5-heptakis(fluoranyl)oxolan-2-yl]-N-(2-hydroxyphenyl)ethanamide

> <PUBCHEM_IUPAC_TRADITIONAL_NAME>
2,2-difluoro-2-(2,3,3,4,4,5,5-heptafluorotetrahydrofuran-2-yl)-N-(2-hydroxyphenyl)acetamide

> <PUBCHEM_IUPAC_INCHI>
InChI=1S/C12H6F9NO3/c13-8(14,7(24)22-5-3-1-2-4-6(5)23)11(19)9(15,16)10(17,18)12(20,21)25-11/h1-4,23H,(H,22,24)

> <PUBCHEM_IUPAC_INCHIKEY>
BZGKRAPRXYPKNS-UHFFFAOYSA-N

> <PUBCHEM_XLOGP3_AA>
3.5

> <PUBCHEM_EXACT_MASS>
383.020397

> <PUBCHEM_MOLECULAR_FORMULA>
C12H6F9NO3

> <PUBCHEM_MOLECULAR_WEIGHT>
383.166569

> <PUBCHEM_OPENEYE_CAN_SMILES>
C1=CC=C(C(=C1)NC(=O)C(C2(C(C(C(O2)(F)F)(F)F)(F)F)F)(F)F)O

> <PUBCHEM_OPENEYE_ISO_SMILES>
C1=CC=C(C(=C1)NC(=O)C(C2(C(C(C(O2)(F)F)(F)F)(F)F)F)(F)F)O

> <PUBCHEM_CACTVS_TPSA>
58.6

> <PUBCHEM_MONOISOTOPIC_WEIGHT>
383.020397

> <PUBCHEM_TOTAL_CHARGE>
0

> <PUBCHEM_HEAVY_ATOM_COUNT>
25

> <PUBCHEM_ATOM_DEF_STEREO_COUNT>
0

> <PUBCHEM_ATOM_UDEF_STEREO_COUNT>
1

> <PUBCHEM_BOND_DEF_STEREO_COUNT>
0

> <PUBCHEM_BOND_UDEF_STEREO_COUNT>
0

> <PUBCHEM_ISOTOPIC_ATOM_COUNT>
0

> <PUBCHEM_COMPONENT_COUNT>
1

> <PUBCHEM_CACTVS_TAUTO_COUNT>
8

> <PUBCHEM_COORDINATE_TYPE>
1
5
255

> <PUBCHEM_BONDANNOTATIONS>
14  1  3
20  21  8
20  22  8
21  23  8
22  24  8
23  25  8
24  25  8

$$$$

