4995
  -OEChem-06261200283D

 11 10  0     1  0  0  0  0  0999 V2000
   -1.4838   -0.0015   -0.0596 P   0  0  1  0  0  0  0  0  0  0  0  0
    1.4836   -0.0011   -0.0604 P   0  0  1  0  0  0  0  0  0  0  0  0
    0.0002    0.0053    0.6196 O   0  0  0  0  0  0  0  0  0  0  0  0
   -2.3909    0.0114    1.2982 O   0  0  0  0  0  0  0  0  0  0  0  0
    2.3795    0.0122    1.3048 O   0  0  0  0  0  0  0  0  0  0  0  0
   -1.6915    1.3091   -0.7856 O   0  5  0  0  0  0  0  0  0  0  0  0
    1.7007   -1.3231   -0.7622 O   0  5  0  0  0  0  0  0  0  0  0  0
   -1.6962   -1.3207   -0.7684 O   0  0  0  0  0  0  0  0  0  0  0  0
    1.6983    1.3084   -0.7865 O   0  0  0  0  0  0  0  0  0  0  0  0
   -2.5043    0.8608    1.7756 H   0  0  0  0  0  0  0  0  0  0  0  0
    2.4868    0.8612    1.7843 H   0  0  0  0  0  0  0  0  0  0  0  0
  1  3  1  0  0  0  0
  1  4  1  0  0  0  0
  1  6  1  0  0  0  0
  1  8  2  0  0  0  0
  2  3  1  0  0  0  0
  2  5  1  0  0  0  0
  2  7  1  0  0  0  0
  2  9  2  0  0  0  0
  4 10  1  0  0  0  0
  5 11  1  0  0  0  0
M  CHG  2   6  -1   7  -1
M  END
> <PUBCHEM_COMPOUND_CID>
4995

> <PUBCHEM_CONFORMER_RMSD>
0.4

> <PUBCHEM_CONFORMER_DIVERSEORDER>
1
2
3
4

> <PUBCHEM_MMFF94_PARTIAL_CHARGES>
11
1 1.44
10 0.5
11 0.5
2 1.44
3 -0.54
4 -0.77
5 -0.77
6 -0.95
7 -0.95
8 -0.95
9 -0.95

> <PUBCHEM_EFFECTIVE_ROTOR_COUNT>
2

> <PUBCHEM_PHARMACOPHORE_FEATURES>
8
1 4 acceptor
1 5 acceptor
1 6 acceptor
1 7 acceptor
1 8 acceptor
1 9 acceptor
4 1 4 6 8 anion
4 2 5 7 9 anion

> <PUBCHEM_HEAVY_ATOM_COUNT>
9

> <PUBCHEM_ATOM_DEF_STEREO_COUNT>
0

> <PUBCHEM_ATOM_UDEF_STEREO_COUNT>
0

> <PUBCHEM_BOND_DEF_STEREO_COUNT>
0

> <PUBCHEM_BOND_UDEF_STEREO_COUNT>
0

> <PUBCHEM_ISOTOPIC_ATOM_COUNT>
0

> <PUBCHEM_COMPONENT_COUNT>
1

> <PUBCHEM_CACTVS_TAUTO_COUNT>
1

> <PUBCHEM_CONFORMER_ID>
0000138300000001

> <PUBCHEM_MMFF94_ENERGY>
-31.5764

> <PUBCHEM_FEATURE_SELFOVERLAP>
40.675

> <PUBCHEM_SHAPE_FINGERPRINT>
14390081 3 16226051076077503402
15310529 11 17987497347054204310
21040471 1 17822001025704776123
23235687 12 18411136909335075173
24536 1 18410855468760339924
29004967 10 18411977000880575970
5084963 1 18334295365980032375

> <PUBCHEM_SHAPE_MULTIPOLES>
151.83
3.48
1.23
1.16
0.01
0.01
0.27
0
0.55
0
-0.52
0
-0.01
0

> <PUBCHEM_SHAPE_SELFOVERLAP>
260.102

> <PUBCHEM_SHAPE_VOLUME>
102.1

> <PUBCHEM_COORDINATE_TYPE>
2
5
10

$$$$

