5738
  -OEChem-06261200512D

 74 79  0     0  0  0  0  0  0999 V2000
    4.9936   -3.6453    0.0000 S   0  0  0  0  0  0  0  0  0  0  0  0
    9.5772   -2.8406    0.0000 O   0  0  0  0  0  0  0  0  0  0  0  0
    2.6329    1.8919    0.0000 O   0  0  0  0  0  0  0  0  0  0  0  0
    6.2828   -0.8791    0.0000 O   0  0  0  0  0  0  0  0  0  0  0  0
   11.5772   -4.5726    0.0000 N   0  0  0  0  0  0  0  0  0  0  0  0
    2.5864    4.5372    0.0000 N   0  0  0  0  0  0  0  0  0  0  0  0
    4.2792    1.3538    0.0000 N   0  0  0  0  0  0  0  0  0  0  0  0
   11.1705   -5.4862    0.0000 C   0  0  0  0  0  0  0  0  0  0  0  0
   12.5717   -4.6771    0.0000 C   0  0  0  0  0  0  0  0  0  0  0  0
   11.9136   -6.1553    0.0000 C   0  0  0  0  0  0  0  0  0  0  0  0
   12.7797   -5.6553    0.0000 C   0  0  0  0  0  0  0  0  0  0  0  0
    3.5380    4.8446    0.0000 C   0  0  0  0  0  0  0  0  0  0  0  0
    2.0000    5.3473    0.0000 C   0  0  0  0  0  0  0  0  0  0  0  0
    3.5397    5.8446    0.0000 C   0  0  0  0  0  0  0  0  0  0  0  0
    2.5892    6.1553    0.0000 C   0  0  0  0  0  0  0  0  0  0  0  0
   11.0772   -3.7066    0.0000 C   0  0  0  0  0  0  0  0  0  0  0  0
    2.2757    3.5867    0.0000 C   0  0  0  0  0  0  0  0  0  0  0  0
   10.0772   -3.7066    0.0000 C   0  0  0  0  0  0  0  0  0  0  0  0
    2.9436    2.8424    0.0000 C   0  0  0  0  0  0  0  0  0  0  0  0
    8.5772   -2.8406    0.0000 C   0  0  0  0  0  0  0  0  0  0  0  0
    3.3008    1.1476    0.0000 C   0  0  0  0  0  0  0  0  0  0  0  0
    6.5772   -2.8406    0.0000 C   0  0  0  0  0  0  0  0  0  0  0  0
    5.5772   -2.8406    0.0000 C   0  0  0  0  0  0  0  0  0  0  0  0
    4.9936   -2.0358    0.0000 C   0  0  0  0  0  0  0  0  0  0  0  0
    8.0772   -1.9745    0.0000 C   0  0  0  0  0  0  0  0  0  0  0  0
    8.0772   -3.7066    0.0000 C   0  0  0  0  0  0  0  0  0  0  0  0
    4.0474   -2.3406    0.0000 C   0  0  0  0  0  0  0  0  0  0  0  0
    7.0772   -1.9745    0.0000 C   0  0  0  0  0  0  0  0  0  0  0  0
    7.0772   -3.7066    0.0000 C   0  0  0  0  0  0  0  0  0  0  0  0
    4.0474   -3.3406    0.0000 C   0  0  0  0  0  0  0  0  0  0  0  0
    2.9901    0.1971    0.0000 C   0  0  0  0  0  0  0  0  0  0  0  0
    5.3043   -1.0853    0.0000 C   0  0  0  0  0  0  0  0  0  0  0  0
    4.6364   -0.3410    0.0000 C   0  0  0  0  0  0  0  0  0  0  0  0
    3.6579   -0.5472    0.0000 C   0  0  0  0  0  0  0  0  0  0  0  0
    4.9471    0.6095    0.0000 C   0  0  0  0  0  0  0  0  0  0  0  0
    3.1814   -1.8406    0.0000 C   0  0  0  0  0  0  0  0  0  0  0  0
    3.1814   -3.8406    0.0000 C   0  0  0  0  0  0  0  0  0  0  0  0
    2.3153   -2.3406    0.0000 C   0  0  0  0  0  0  0  0  0  0  0  0
    2.3153   -3.3406    0.0000 C   0  0  0  0  0  0  0  0  0  0  0  0
   10.6336   -5.1762    0.0000 H   0  0  0  0  0  0  0  0  0  0  0  0
   10.8061   -5.9877    0.0000 H   0  0  0  0  0  0  0  0  0  0  0  0
   13.1884   -4.6123    0.0000 H   0  0  0  0  0  0  0  0  0  0  0  0
   12.5717   -4.0571    0.0000 H   0  0  0  0  0  0  0  0  0  0  0  0
   11.4529   -6.5701    0.0000 H   0  0  0  0  0  0  0  0  0  0  0  0
   12.2781   -6.6569    0.0000 H   0  0  0  0  0  0  0  0  0  0  0  0
   13.0318   -6.2217    0.0000 H   0  0  0  0  0  0  0  0  0  0  0  0
   13.3693   -5.4637    0.0000 H   0  0  0  0  0  0  0  0  0  0  0  0
    3.6658    4.2380    0.0000 H   0  0  0  0  0  0  0  0  0  0  0  0
    4.1547    4.9084    0.0000 H   0  0  0  0  0  0  0  0  0  0  0  0
    1.5400    5.7629    0.0000 H   0  0  0  0  0  0  0  0  0  0  0  0
    1.5385    4.9332    0.0000 H   0  0  0  0  0  0  0  0  0  0  0  0
    4.1562    5.7787    0.0000 H   0  0  0  0  0  0  0  0  0  0  0  0
    3.6697    6.4508    0.0000 H   0  0  0  0  0  0  0  0  0  0  0  0
    2.8423    6.7212    0.0000 H   0  0  0  0  0  0  0  0  0  0  0  0
    2.0528    6.4662    0.0000 H   0  0  0  0  0  0  0  0  0  0  0  0
   11.6598   -3.4945    0.0000 H   0  0  0  0  0  0  0  0  0  0  0  0
   10.9696   -3.0960    0.0000 H   0  0  0  0  0  0  0  0  0  0  0  0
    1.7288    3.8788    0.0000 H   0  0  0  0  0  0  0  0  0  0  0  0
    1.8932    3.0988    0.0000 H   0  0  0  0  0  0  0  0  0  0  0  0
    9.4946   -3.9186    0.0000 H   0  0  0  0  0  0  0  0  0  0  0  0
   10.1849   -4.3172    0.0000 H   0  0  0  0  0  0  0  0  0  0  0  0
    3.4905    2.5504    0.0000 H   0  0  0  0  0  0  0  0  0  0  0  0
    3.3261    3.3303    0.0000 H   0  0  0  0  0  0  0  0  0  0  0  0
    8.3872   -1.4376    0.0000 H   0  0  0  0  0  0  0  0  0  0  0  0
    8.3872   -4.2435    0.0000 H   0  0  0  0  0  0  0  0  0  0  0  0
    6.7672   -1.4376    0.0000 H   0  0  0  0  0  0  0  0  0  0  0  0
    6.7672   -4.2435    0.0000 H   0  0  0  0  0  0  0  0  0  0  0  0
    2.3834    0.0692    0.0000 H   0  0  0  0  0  0  0  0  0  0  0  0
    3.4653   -1.1365    0.0000 H   0  0  0  0  0  0  0  0  0  0  0  0
    5.5538    0.7374    0.0000 H   0  0  0  0  0  0  0  0  0  0  0  0
    3.1814   -1.2206    0.0000 H   0  0  0  0  0  0  0  0  0  0  0  0
    3.1814   -4.4605    0.0000 H   0  0  0  0  0  0  0  0  0  0  0  0
    1.7784   -2.0306    0.0000 H   0  0  0  0  0  0  0  0  0  0  0  0
    1.7784   -3.6506    0.0000 H   0  0  0  0  0  0  0  0  0  0  0  0
  1 23  1  0  0  0  0
  1 30  1  0  0  0  0
  2 18  1  0  0  0  0
  2 20  1  0  0  0  0
  3 19  1  0  0  0  0
  3 21  1  0  0  0  0
  4 32  2  0  0  0  0
  5  8  1  0  0  0  0
  5  9  1  0  0  0  0
  5 16  1  0  0  0  0
  6 12  1  0  0  0  0
  6 13  1  0  0  0  0
  6 17  1  0  0  0  0
  7 21  2  0  0  0  0
  7 35  1  0  0  0  0
  8 10  1  0  0  0  0
  8 40  1  0  0  0  0
  8 41  1  0  0  0  0
  9 11  1  0  0  0  0
  9 42  1  0  0  0  0
  9 43  1  0  0  0  0
 10 11  1  0  0  0  0
 10 44  1  0  0  0  0
 10 45  1  0  0  0  0
 11 46  1  0  0  0  0
 11 47  1  0  0  0  0
 12 14  1  0  0  0  0
 12 48  1  0  0  0  0
 12 49  1  0  0  0  0
 13 15  1  0  0  0  0
 13 50  1  0  0  0  0
 13 51  1  0  0  0  0
 14 15  1  0  0  0  0
 14 52  1  0  0  0  0
 14 53  1  0  0  0  0
 15 54  1  0  0  0  0
 15 55  1  0  0  0  0
 16 18  1  0  0  0  0
 16 56  1  0  0  0  0
 16 57  1  0  0  0  0
 17 19  1  0  0  0  0
 17 58  1  0  0  0  0
 17 59  1  0  0  0  0
 18 60  1  0  0  0  0
 18 61  1  0  0  0  0
 19 62  1  0  0  0  0
 19 63  1  0  0  0  0
 20 25  2  0  0  0  0
 20 26  1  0  0  0  0
 21 31  1  0  0  0  0
 22 23  1  0  0  0  0
 22 28  2  0  0  0  0
 22 29  1  0  0  0  0
 23 24  2  0  0  0  0
 24 27  1  0  0  0  0
 24 32  1  0  0  0  0
 25 28  1  0  0  0  0
 25 64  1  0  0  0  0
 26 29  2  0  0  0  0
 26 65  1  0  0  0  0
 27 30  1  0  0  0  0
 27 36  2  0  0  0  0
 28 66  1  0  0  0  0
 29 67  1  0  0  0  0
 30 37  2  0  0  0  0
 31 34  2  0  0  0  0
 31 68  1  0  0  0  0
 32 33  1  0  0  0  0
 33 34  1  0  0  0  0
 33 35  2  0  0  0  0
 34 69  1  0  0  0  0
 35 70  1  0  0  0  0
 36 38  1  0  0  0  0
 36 71  1  0  0  0  0
 37 39  1  0  0  0  0
 37 72  1  0  0  0  0
 38 39  2  0  0  0  0
 38 73  1  0  0  0  0
 39 74  1  0  0  0  0
M  END
> <PUBCHEM_COMPOUND_CID>
5738

> <PUBCHEM_COMPOUND_CANONICALIZED>
1

> <PUBCHEM_CACTVS_COMPLEXITY>
766

> <PUBCHEM_CACTVS_HBOND_ACCEPTOR>
7

> <PUBCHEM_CACTVS_HBOND_DONOR>
0

> <PUBCHEM_CACTVS_ROTATABLE_BOND>
11

> <PUBCHEM_CACTVS_SUBSKEYS>
AAADcfB/MABAAAAAAAAAAAAAAAAAAWLEgAA8YIAAAAAAAEgB/AAAHgQAAAAADATh2gY8h9MIFAisArB3RACDiKA1KjBI2Dk+bNgOJvrktZuPOajkwBH46ceY3eCOoAAAAAAEAABAAAAAAAgAAAAAAAAAAA==

> <PUBCHEM_IUPAC_OPENEYE_NAME>
[2-[4-(2-pyrrolidin-1-ylethoxy)phenyl]benzothiophen-3-yl]-[6-(2-pyrrolidin-1-ylethoxy)-3-pyridyl]methanone

> <PUBCHEM_IUPAC_CAS_NAME>
[2-[4-[2-(1-pyrrolidinyl)ethoxy]phenyl]-1-benzothiophen-3-yl]-[6-[2-(1-pyrrolidinyl)ethoxy]-3-pyridinyl]methanone

> <PUBCHEM_IUPAC_NAME>
[2-[4-(2-pyrrolidin-1-ylethoxy)phenyl]-1-benzothiophen-3-yl]-[6-(2-pyrrolidin-1-ylethoxy)pyridin-3-yl]methanone

> <PUBCHEM_IUPAC_SYSTEMATIC_NAME>
[2-[4-(2-pyrrolidin-1-ylethoxy)phenyl]-1-benzothiophen-3-yl]-[6-(2-pyrrolidin-1-ylethoxy)pyridin-3-yl]methanone

> <PUBCHEM_IUPAC_TRADITIONAL_NAME>
[2-[4-(2-pyrrolidinoethoxy)phenyl]benzothiophen-3-yl]-[6-(2-pyrrolidinoethoxy)-3-pyridyl]methanone

> <PUBCHEM_IUPAC_INCHI>
InChI=1S/C32H35N3O3S/c36-31(25-11-14-29(33-23-25)38-22-20-35-17-5-6-18-35)30-27-7-1-2-8-28(27)39-32(30)24-9-12-26(13-10-24)37-21-19-34-15-3-4-16-34/h1-2,7-14,23H,3-6,15-22H2

> <PUBCHEM_IUPAC_INCHIKEY>
ZWXFJUPNUWRODU-UHFFFAOYSA-N

> <PUBCHEM_XLOGP3_AA>
6.2

> <PUBCHEM_EXACT_MASS>
541.239913

> <PUBCHEM_MOLECULAR_FORMULA>
C32H35N3O3S

> <PUBCHEM_MOLECULAR_WEIGHT>
541.7036

> <PUBCHEM_OPENEYE_CAN_SMILES>
C1CCN(C1)CCOC2=CC=C(C=C2)C3=C(C4=CC=CC=C4S3)C(=O)C5=CN=C(C=C5)OCCN6CCCC6

> <PUBCHEM_OPENEYE_ISO_SMILES>
C1CCN(C1)CCOC2=CC=C(C=C2)C3=C(C4=CC=CC=C4S3)C(=O)C5=CN=C(C=C5)OCCN6CCCC6

> <PUBCHEM_CACTVS_TPSA>
83.1

> <PUBCHEM_MONOISOTOPIC_WEIGHT>
541.239913

> <PUBCHEM_TOTAL_CHARGE>
0

> <PUBCHEM_HEAVY_ATOM_COUNT>
39

> <PUBCHEM_ATOM_DEF_STEREO_COUNT>
0

> <PUBCHEM_ATOM_UDEF_STEREO_COUNT>
0

> <PUBCHEM_BOND_DEF_STEREO_COUNT>
0

> <PUBCHEM_BOND_UDEF_STEREO_COUNT>
0

> <PUBCHEM_ISOTOPIC_ATOM_COUNT>
0

> <PUBCHEM_COMPONENT_COUNT>
1

> <PUBCHEM_CACTVS_TAUTO_COUNT>
1

> <PUBCHEM_COORDINATE_TYPE>
1
5
255

> <PUBCHEM_BONDANNOTATIONS>
1  23  8
1  30  8
20  25  8
20  26  8
21  31  8
22  28  8
22  29  8
23  24  8
24  27  8
25  28  8
26  29  8
27  30  8
27  36  8
30  37  8
31  34  8
33  34  8
33  35  8
36  38  8
37  39  8
38  39  8
7  21  8
7  35  8

$$$$

