17395629
  -OEChem-06241222512D

 47 48  0     1  0  0  0  0  0999 V2000
    7.1962   -1.1156    0.0000 S   0  0  0  0  0  0  0  0  0  0  0  0
    3.7320    1.8844    0.0000 O   0  0  0  0  0  0  0  0  0  0  0  0
    4.5981    0.3844    0.0000 O   0  0  0  0  0  0  0  0  0  0  0  0
    5.4641   -0.1156    0.0000 O   0  0  0  0  0  0  0  0  0  0  0  0
    6.3301    1.3844    0.0000 N   0  0  0  0  0  0  0  0  0  0  0  0
    8.9757   -1.2088    0.0000 N   0  0  0  0  0  0  0  0  0  0  0  0
    9.1448   -2.8180    0.0000 N   0  0  0  0  0  0  0  0  0  0  0  0
    8.1667   -2.6101    0.0000 N   0  0  0  0  0  0  0  0  0  0  0  0
    5.4641    1.8844    0.0000 C   0  0  3  0  0  0  0  0  0  0  0  0
    5.4641    2.8844    0.0000 C   0  0  0  0  0  0  0  0  0  0  0  0
    6.3301    3.3844    0.0000 C   0  0  0  0  0  0  0  0  0  0  0  0
    7.1962    2.8844    0.0000 C   0  0  0  0  0  0  0  0  0  0  0  0
    7.1962    1.8844    0.0000 C   0  0  0  0  0  0  0  0  0  0  0  0
    4.5981    1.3844    0.0000 C   0  0  0  0  0  0  0  0  0  0  0  0
    6.3301    0.3844    0.0000 C   0  0  0  0  0  0  0  0  0  0  0  0
    7.1962   -0.1156    0.0000 C   0  0  0  0  0  0  0  0  0  0  0  0
    2.8660    1.3844    0.0000 C   0  0  0  0  0  0  0  0  0  0  0  0
   10.6394   -1.8475    0.0000 C   0  0  0  0  0  0  0  0  0  0  0  0
    9.6448   -1.9520    0.0000 C   0  0  0  0  0  0  0  0  0  0  0  0
    8.0622   -1.6156    0.0000 C   0  0  0  0  0  0  0  0  0  0  0  0
    2.0000    1.8844    0.0000 C   0  0  0  0  0  0  0  0  0  0  0  0
   11.2272   -2.6565    0.0000 C   0  0  0  0  0  0  0  0  0  0  0  0
   11.0461   -0.9339    0.0000 C   0  0  0  0  0  0  0  0  0  0  0  0
    5.4641    1.2644    0.0000 H   0  0  0  0  0  0  0  0  0  0  0  0
    5.2520    3.4670    0.0000 H   0  0  0  0  0  0  0  0  0  0  0  0
    4.8535    2.7768    0.0000 H   0  0  0  0  0  0  0  0  0  0  0  0
    6.7287    3.8594    0.0000 H   0  0  0  0  0  0  0  0  0  0  0  0
    5.9316    3.8594    0.0000 H   0  0  0  0  0  0  0  0  0  0  0  0
    7.8067    2.7768    0.0000 H   0  0  0  0  0  0  0  0  0  0  0  0
    7.4082    3.4670    0.0000 H   0  0  0  0  0  0  0  0  0  0  0  0
    7.4082    1.3018    0.0000 H   0  0  0  0  0  0  0  0  0  0  0  0
    7.8067    1.9921    0.0000 H   0  0  0  0  0  0  0  0  0  0  0  0
    7.8067   -0.2232    0.0000 H   0  0  0  0  0  0  0  0  0  0  0  0
    7.4082    0.4670    0.0000 H   0  0  0  0  0  0  0  0  0  0  0  0
    2.4675    0.9095    0.0000 H   0  0  0  0  0  0  0  0  0  0  0  0
    3.2646    0.9095    0.0000 H   0  0  0  0  0  0  0  0  0  0  0  0
   10.3872   -2.4139    0.0000 H   0  0  0  0  0  0  0  0  0  0  0  0
   10.7256   -3.0209    0.0000 H   0  0  0  0  0  0  0  0  0  0  0  0
   11.5916   -3.1581    0.0000 H   0  0  0  0  0  0  0  0  0  0  0  0
   11.7288   -2.2920    0.0000 H   0  0  0  0  0  0  0  0  0  0  0  0
   11.6125   -1.1861    0.0000 H   0  0  0  0  0  0  0  0  0  0  0  0
   11.2983   -0.3675    0.0000 H   0  0  0  0  0  0  0  0  0  0  0  0
   10.4797   -0.6817    0.0000 H   0  0  0  0  0  0  0  0  0  0  0  0
    2.3100    2.4214    0.0000 H   0  0  0  0  0  0  0  0  0  0  0  0
    1.4631    2.1944    0.0000 H   0  0  0  0  0  0  0  0  0  0  0  0
    1.6900    1.3475    0.0000 H   0  0  0  0  0  0  0  0  0  0  0  0
    9.3970   -3.3844    0.0000 H   0  0  0  0  0  0  0  0  0  0  0  0
  1 16  1  0  0  0  0
  1 20  1  0  0  0  0
  2 14  1  0  0  0  0
  2 17  1  0  0  0  0
  3 14  2  0  0  0  0
  4 15  2  0  0  0  0
  5  9  1  0  0  0  0
  5 13  1  0  0  0  0
  5 15  1  0  0  0  0
  6 19  2  0  0  0  0
  6 20  1  0  0  0  0
  7  8  1  0  0  0  0
  7 19  1  0  0  0  0
  7 47  1  0  0  0  0
  8 20  2  0  0  0  0
  9 10  1  0  0  0  0
  9 14  1  0  0  0  0
  9 24  1  0  0  0  0
 10 11  1  0  0  0  0
 10 25  1  0  0  0  0
 10 26  1  0  0  0  0
 11 12  1  0  0  0  0
 11 27  1  0  0  0  0
 11 28  1  0  0  0  0
 12 13  1  0  0  0  0
 12 29  1  0  0  0  0
 12 30  1  0  0  0  0
 13 31  1  0  0  0  0
 13 32  1  0  0  0  0
 15 16  1  0  0  0  0
 16 33  1  0  0  0  0
 16 34  1  0  0  0  0
 17 21  1  0  0  0  0
 17 35  1  0  0  0  0
 17 36  1  0  0  0  0
 18 19  1  0  0  0  0
 18 22  1  0  0  0  0
 18 23  1  0  0  0  0
 18 37  1  0  0  0  0
 21 44  1  0  0  0  0
 21 45  1  0  0  0  0
 21 46  1  0  0  0  0
 22 38  1  0  0  0  0
 22 39  1  0  0  0  0
 22 40  1  0  0  0  0
 23 41  1  0  0  0  0
 23 42  1  0  0  0  0
 23 43  1  0  0  0  0
M  END
> <PUBCHEM_COMPOUND_CID>
17395629

> <PUBCHEM_COMPOUND_CANONICALIZED>
1

> <PUBCHEM_CACTVS_COMPLEXITY>
422

> <PUBCHEM_CACTVS_HBOND_ACCEPTOR>
6

> <PUBCHEM_CACTVS_HBOND_DONOR>
1

> <PUBCHEM_CACTVS_ROTATABLE_BOND>
7

> <PUBCHEM_CACTVS_SUBSKEYS>
AAADceBzsABAAAAAAAAAAAAAAAAAAWAAAAAsAAAAAAAAAAABgAAAHgQYAAAADSjlwwaDGAdrFAgqAAOwPAAQ0AvAALAVIAG4AACCCBIAiCAHAAAEHgKQAAGYSAAAAAAAAAAAAAAAAAAAAAAAAAAAAAAAAA==

> <PUBCHEM_IUPAC_OPENEYE_NAME>
ethyl 1-[2-[(5-isopropyl-1H-1,2,4-triazol-3-yl)sulfanyl]acetyl]piperidine-2-carboxylate

> <PUBCHEM_IUPAC_CAS_NAME>
1-[1-oxo-2-[(5-propan-2-yl-1H-1,2,4-triazol-3-yl)thio]ethyl]-2-piperidinecarboxylic acid ethyl ester

> <PUBCHEM_IUPAC_NAME>
ethyl 1-[2-[(5-propan-2-yl-1H-1,2,4-triazol-3-yl)sulfanyl]acetyl]piperidine-2-carboxylate

> <PUBCHEM_IUPAC_SYSTEMATIC_NAME>
ethyl 1-[2-[(5-propan-2-yl-1H-1,2,4-triazol-3-yl)sulfanyl]ethanoyl]piperidine-2-carboxylate

> <PUBCHEM_IUPAC_TRADITIONAL_NAME>
1-[2-[(5-isopropyl-1H-1,2,4-triazol-3-yl)thio]acetyl]pipecolinic acid ethyl ester

> <PUBCHEM_IUPAC_INCHI>
InChI=1S/C15H24N4O3S/c1-4-22-14(21)11-7-5-6-8-19(11)12(20)9-23-15-16-13(10(2)3)17-18-15/h10-11H,4-9H2,1-3H3,(H,16,17,18)

> <PUBCHEM_IUPAC_INCHIKEY>
DHWPRZWQXWMNLO-UHFFFAOYSA-N

> <PUBCHEM_XLOGP3_AA>
2.7

> <PUBCHEM_EXACT_MASS>
340.156912

> <PUBCHEM_MOLECULAR_FORMULA>
C15H24N4O3S

> <PUBCHEM_MOLECULAR_WEIGHT>
340.44106

> <PUBCHEM_OPENEYE_CAN_SMILES>
CCOC(=O)C1CCCCN1C(=O)CSC2=NNC(=N2)C(C)C

> <PUBCHEM_OPENEYE_ISO_SMILES>
CCOC(=O)C1CCCCN1C(=O)CSC2=NNC(=N2)C(C)C

> <PUBCHEM_CACTVS_TPSA>
114

> <PUBCHEM_MONOISOTOPIC_WEIGHT>
340.156912

> <PUBCHEM_TOTAL_CHARGE>
0

> <PUBCHEM_HEAVY_ATOM_COUNT>
23

> <PUBCHEM_ATOM_DEF_STEREO_COUNT>
0

> <PUBCHEM_ATOM_UDEF_STEREO_COUNT>
1

> <PUBCHEM_BOND_DEF_STEREO_COUNT>
0

> <PUBCHEM_BOND_UDEF_STEREO_COUNT>
0

> <PUBCHEM_ISOTOPIC_ATOM_COUNT>
0

> <PUBCHEM_COMPONENT_COUNT>
1

> <PUBCHEM_CACTVS_TAUTO_COUNT>
5

> <PUBCHEM_COORDINATE_TYPE>
1
5
255

> <PUBCHEM_BONDANNOTATIONS>
6  19  8
6  20  8
7  19  8
7  8  8
8  20  8
9  14  3

$$$$

