8120
  -OEChem-06261202363D

 18 17  0     0  0  0  0  0  0999 V2000
    3.3908    1.6765   -0.7458 S   0  0  0  0  0  0  0  0  0  0  0  0
    3.7144   -0.8231    0.8169 S   0  0  0  0  0  0  0  0  0  0  0  0
   -3.3908    1.6766    0.7459 S   0  0  0  0  0  0  0  0  0  0  0  0
   -3.7145   -0.8231   -0.8167 S   0  0  0  0  0  0  0  0  0  0  0  0
    1.3967    0.0542   -0.3106 N   0  0  0  0  0  0  0  0  0  0  0  0
   -1.3966    0.0540    0.3104 N   0  0  0  0  0  0  0  0  0  0  0  0
    0.7273   -1.1371    0.2179 C   0  0  0  0  0  0  0  0  0  0  0  0
   -0.7273   -1.1371   -0.2179 C   0  0  0  0  0  0  0  0  0  0  0  0
    2.6458    0.2295   -0.0868 C   0  0  0  0  0  0  0  0  0  0  0  0
   -2.6458    0.2296    0.0869 C   0  0  0  0  0  0  0  0  0  0  0  0
    0.7729   -1.1420    1.3138 H   0  0  0  0  0  0  0  0  0  0  0  0
    1.2031   -2.0484   -0.1628 H   0  0  0  0  0  0  0  0  0  0  0  0
   -0.7728   -1.1421   -1.3138 H   0  0  0  0  0  0  0  0  0  0  0  0
   -1.2031   -2.0484    0.1628 H   0  0  0  0  0  0  0  0  0  0  0  0
    4.5642    1.5968   -0.1045 H   0  0  0  0  0  0  0  0  0  0  0  0
    4.8771   -0.2431    0.4909 H   0  0  0  0  0  0  0  0  0  0  0  0
   -4.5644    1.5967    0.1048 H   0  0  0  0  0  0  0  0  0  0  0  0
   -4.8772   -0.2430   -0.4908 H   0  0  0  0  0  0  0  0  0  0  0  0
  1  9  1  0  0  0  0
  1 15  1  0  0  0  0
  2  9  1  0  0  0  0
  2 16  1  0  0  0  0
  3 10  1  0  0  0  0
  3 17  1  0  0  0  0
  4 10  1  0  0  0  0
  4 18  1  0  0  0  0
  5  7  1  0  0  0  0
  5  9  2  0  0  0  0
  6  8  1  0  0  0  0
  6 10  2  0  0  0  0
  7  8  1  0  0  0  0
  7 11  1  0  0  0  0
  7 12  1  0  0  0  0
  8 13  1  0  0  0  0
  8 14  1  0  0  0  0
M  END
> <PUBCHEM_COMPOUND_CID>
8120

> <PUBCHEM_CONFORMER_RMSD>
0.6

> <PUBCHEM_CONFORMER_DIVERSEORDER>
1
20
16
3
11
19
14
18
5
21
13
15
6
12
2
17
4
10
9
7
8

> <PUBCHEM_MMFF94_PARTIAL_CHARGES>
14
1 -0.32
10 0.73
15 0.18
16 0.18
17 0.18
18 0.18
2 -0.32
3 -0.32
4 -0.32
5 -0.7
6 -0.7
7 0.25
8 0.25
9 0.73

> <PUBCHEM_EFFECTIVE_ROTOR_COUNT>
3

> <PUBCHEM_PHARMACOPHORE_FEATURES>
4
1 5 acceptor
1 6 acceptor
3 1 2 9 anion
3 3 4 10 anion

> <PUBCHEM_HEAVY_ATOM_COUNT>
10

> <PUBCHEM_ATOM_DEF_STEREO_COUNT>
0

> <PUBCHEM_ATOM_UDEF_STEREO_COUNT>
0

> <PUBCHEM_BOND_DEF_STEREO_COUNT>
0

> <PUBCHEM_BOND_UDEF_STEREO_COUNT>
0

> <PUBCHEM_ISOTOPIC_ATOM_COUNT>
0

> <PUBCHEM_COMPONENT_COUNT>
1

> <PUBCHEM_CACTVS_TAUTO_COUNT>
3

> <PUBCHEM_CONFORMER_ID>
00001FB800000001

> <PUBCHEM_MMFF94_ENERGY>
17.1646

> <PUBCHEM_FEATURE_SELFOVERLAP>
20.3

> <PUBCHEM_SHAPE_FINGERPRINT>
10149128 111 18410847763547079169
12162725 195 18410575088958059205
14325111 11 18410291410668497903
14897335 6 18270685247243735886
15775835 57 18410847767842124420
18186145 218 18131066043601917886
19107657 47 17632587062313011380
20281407 28 9943807776637866951
20671657 1 18271520884787123852
20711983 171 18261106387367280157
22959321 54 18266178335827659268
23048698 100 17988649575120912882
23380061 81 18131627890038868400
23402539 116 17895487993427538126
23532345 12 18335986454066604410
23557571 272 16950279602848437561
3248919 1 18410855464423492871

> <PUBCHEM_SHAPE_MULTIPOLES>
211.23
8.24
1.7
0.94
0
0.63
0
1.82
0
0
0
0
0.1
-1.62

> <PUBCHEM_SHAPE_SELFOVERLAP>
356.902

> <PUBCHEM_SHAPE_VOLUME>
144.4

> <PUBCHEM_COORDINATE_TYPE>
2
5
10

$$$$

