47205505
  -OEChem-06241222592D

 37 38  0     0  0  0  0  0  0999 V2000
    2.0000   -0.1616    0.0000 S   0  0  0  0  0  0  0  0  0  0  0  0
    7.0468    0.5020    0.0000 O   0  0  0  0  0  0  0  0  0  0  0  0
    6.1808   -0.9980    0.0000 N   0  0  0  0  0  0  0  0  0  0  0  0
    9.6448   -0.9980    0.0000 N   0  0  0  0  0  0  0  0  0  0  0  0
    3.4782    0.4965    0.0000 N   0  0  0  0  0  0  0  0  0  0  0  0
   11.3769   -0.9980    0.0000 N   0  0  0  0  0  0  0  0  0  0  0  0
   10.5109    0.5020    0.0000 N   0  0  0  0  0  0  0  0  0  0  0  0
    5.3147   -0.4980    0.0000 C   0  0  0  0  0  0  0  0  0  0  0  0
    4.4487   -0.9980    0.0000 C   0  0  0  0  0  0  0  0  0  0  0  0
    7.9128   -0.9980    0.0000 C   0  0  0  0  0  0  0  0  0  0  0  0
    8.7788   -0.4980    0.0000 C   0  0  0  0  0  0  0  0  0  0  0  0
    3.5827   -0.4980    0.0000 C   0  0  0  0  0  0  0  0  0  0  0  0
    7.0468   -0.4980    0.0000 C   0  0  0  0  0  0  0  0  0  0  0  0
    2.6691   -0.9047    0.0000 C   0  0  0  0  0  0  0  0  0  0  0  0
    2.5000    0.7044    0.0000 C   0  0  0  0  0  0  0  0  0  0  0  0
   10.5109   -0.4980    0.0000 C   0  0  0  0  0  0  0  0  0  0  0  0
    2.0933    1.6180    0.0000 C   0  0  0  0  0  0  0  0  0  0  0  0
   12.2429   -0.4980    0.0000 C   0  0  0  0  0  0  0  0  0  0  0  0
   11.3769    1.0020    0.0000 C   0  0  0  0  0  0  0  0  0  0  0  0
   12.2429    0.5020    0.0000 C   0  0  0  0  0  0  0  0  0  0  0  0
    5.7133   -0.0230    0.0000 H   0  0  0  0  0  0  0  0  0  0  0  0
    4.9162   -0.0230    0.0000 H   0  0  0  0  0  0  0  0  0  0  0  0
    4.0502   -1.4729    0.0000 H   0  0  0  0  0  0  0  0  0  0  0  0
    4.8472   -1.4729    0.0000 H   0  0  0  0  0  0  0  0  0  0  0  0
    7.5143   -1.4729    0.0000 H   0  0  0  0  0  0  0  0  0  0  0  0
    8.3113   -1.4729    0.0000 H   0  0  0  0  0  0  0  0  0  0  0  0
    6.1808   -1.6180    0.0000 H   0  0  0  0  0  0  0  0  0  0  0  0
    9.1774   -0.0230    0.0000 H   0  0  0  0  0  0  0  0  0  0  0  0
    8.3803   -0.0230    0.0000 H   0  0  0  0  0  0  0  0  0  0  0  0
    9.6448   -1.6180    0.0000 H   0  0  0  0  0  0  0  0  0  0  0  0
    2.5402   -1.5112    0.0000 H   0  0  0  0  0  0  0  0  0  0  0  0
    2.6597    1.8702    0.0000 H   0  0  0  0  0  0  0  0  0  0  0  0
    1.8411    2.1844    0.0000 H   0  0  0  0  0  0  0  0  0  0  0  0
    1.5269    1.3658    0.0000 H   0  0  0  0  0  0  0  0  0  0  0  0
   12.7799   -0.8080    0.0000 H   0  0  0  0  0  0  0  0  0  0  0  0
   11.3769    1.6220    0.0000 H   0  0  0  0  0  0  0  0  0  0  0  0
   12.7799    0.8120    0.0000 H   0  0  0  0  0  0  0  0  0  0  0  0
  1 14  1  0  0  0  0
  1 15  1  0  0  0  0
  2 13  2  0  0  0  0
  3  8  1  0  0  0  0
  3 13  1  0  0  0  0
  3 27  1  0  0  0  0
  4 11  1  0  0  0  0
  4 16  1  0  0  0  0
  4 30  1  0  0  0  0
  5 12  1  0  0  0  0
  5 15  2  0  0  0  0
  6 16  1  0  0  0  0
  6 18  2  0  0  0  0
  7 16  2  0  0  0  0
  7 19  1  0  0  0  0
  8  9  1  0  0  0  0
  8 21  1  0  0  0  0
  8 22  1  0  0  0  0
  9 12  1  0  0  0  0
  9 23  1  0  0  0  0
  9 24  1  0  0  0  0
 10 11  1  0  0  0  0
 10 13  1  0  0  0  0
 10 25  1  0  0  0  0
 10 26  1  0  0  0  0
 11 28  1  0  0  0  0
 11 29  1  0  0  0  0
 12 14  2  0  0  0  0
 14 31  1  0  0  0  0
 15 17  1  0  0  0  0
 17 32  1  0  0  0  0
 17 33  1  0  0  0  0
 17 34  1  0  0  0  0
 18 20  1  0  0  0  0
 18 35  1  0  0  0  0
 19 20  2  0  0  0  0
 19 36  1  0  0  0  0
 20 37  1  0  0  0  0
M  END
> <PUBCHEM_COMPOUND_CID>
47205505

> <PUBCHEM_COMPOUND_CANONICALIZED>
1

> <PUBCHEM_CACTVS_COMPLEXITY>
299

> <PUBCHEM_CACTVS_HBOND_ACCEPTOR>
6

> <PUBCHEM_CACTVS_HBOND_DONOR>
2

> <PUBCHEM_CACTVS_ROTATABLE_BOND>
7

> <PUBCHEM_CACTVS_SUBSKEYS>
AAADceBzoABAAAAAAAAAAAAAAAAAAWAAAAAsAAAAAAAAAAAB4AAAHgQQAAAACAjF1gS/kZbIEAisATV3dACA8KlxCrgJULU4ZBiAKIhgyUEEBAgIFgLgACAAAAAAAAAAAAAAAAAAAAAAAAAAAAAAAAAAAA==

> <PUBCHEM_IUPAC_OPENEYE_NAME>
N-[2-(2-methylthiazol-4-yl)ethyl]-3-(pyrimidin-2-ylamino)propanamide

> <PUBCHEM_IUPAC_CAS_NAME>
N-[2-(2-methyl-4-thiazolyl)ethyl]-3-(2-pyrimidinylamino)propanamide

> <PUBCHEM_IUPAC_NAME>
N-[2-(2-methyl-1,3-thiazol-4-yl)ethyl]-3-(pyrimidin-2-ylamino)propanamide

> <PUBCHEM_IUPAC_SYSTEMATIC_NAME>
N-[2-(2-methyl-1,3-thiazol-4-yl)ethyl]-3-(pyrimidin-2-ylamino)propanamide

> <PUBCHEM_IUPAC_TRADITIONAL_NAME>
N-[2-(2-methylthiazol-4-yl)ethyl]-3-(2-pyrimidylamino)propionamide

> <PUBCHEM_IUPAC_INCHI>
InChI=1S/C13H17N5OS/c1-10-18-11(9-20-10)3-7-14-12(19)4-8-17-13-15-5-2-6-16-13/h2,5-6,9H,3-4,7-8H2,1H3,(H,14,19)(H,15,16,17)

> <PUBCHEM_IUPAC_INCHIKEY>
PJHUNNPJWWSBLD-UHFFFAOYSA-N

> <PUBCHEM_XLOGP3_AA>
1.7

> <PUBCHEM_EXACT_MASS>
291.115381

> <PUBCHEM_MOLECULAR_FORMULA>
C13H17N5OS

> <PUBCHEM_MOLECULAR_WEIGHT>
291.37198

> <PUBCHEM_OPENEYE_CAN_SMILES>
CC1=NC(=CS1)CCNC(=O)CCNC2=NC=CC=N2

> <PUBCHEM_OPENEYE_ISO_SMILES>
CC1=NC(=CS1)CCNC(=O)CCNC2=NC=CC=N2

> <PUBCHEM_CACTVS_TPSA>
108

> <PUBCHEM_MONOISOTOPIC_WEIGHT>
291.115381

> <PUBCHEM_TOTAL_CHARGE>
0

> <PUBCHEM_HEAVY_ATOM_COUNT>
20

> <PUBCHEM_ATOM_DEF_STEREO_COUNT>
0

> <PUBCHEM_ATOM_UDEF_STEREO_COUNT>
0

> <PUBCHEM_BOND_DEF_STEREO_COUNT>
0

> <PUBCHEM_BOND_UDEF_STEREO_COUNT>
0

> <PUBCHEM_ISOTOPIC_ATOM_COUNT>
0

> <PUBCHEM_COMPONENT_COUNT>
1

> <PUBCHEM_CACTVS_TAUTO_COUNT>
4

> <PUBCHEM_COORDINATE_TYPE>
1
5
255

> <PUBCHEM_BONDANNOTATIONS>
1  14  8
1  15  8
12  14  8
18  20  8
19  20  8
5  12  8
5  15  8
6  16  8
6  18  8
7  16  8
7  19  8

$$$$

