17396256
  -OEChem-06241222553D

 54 55  0     0  0  0  0  0  0999 V2000
   -4.0801    0.0998   -3.2146 Cl  0  0  0  0  0  0  0  0  0  0  0  0
    2.2165    2.0804    1.0732 S   0  0  0  0  0  0  0  0  0  0  0  0
    1.5920    1.8014    2.3533 O   0  0  0  0  0  0  0  0  0  0  0  0
    3.3827    2.9428    1.0209 O   0  0  0  0  0  0  0  0  0  0  0  0
   -0.4777   -2.3589   -1.0265 O   0  0  0  0  0  0  0  0  0  0  0  0
    1.0254    2.6569   -0.0328 N   0  0  0  0  0  0  0  0  0  0  0  0
    1.6677   -3.0294    0.5464 N   0  0  0  0  0  0  0  0  0  0  0  0
   -1.6103   -1.6687    0.9116 N   0  0  0  0  0  0  0  0  0  0  0  0
    2.6810    0.5251    0.3648 C   0  0  0  0  0  0  0  0  0  0  0  0
   -0.3460    2.0969    0.0723 C   0  0  0  0  0  0  0  0  0  0  0  0
    1.4339    2.8650   -1.4452 C   0  0  0  0  0  0  0  0  0  0  0  0
    2.3669   -1.8622    0.1682 C   0  0  0  0  0  0  0  0  0  0  0  0
    2.0012   -0.6377    0.7271 C   0  0  0  0  0  0  0  0  0  0  0  0
    3.4126   -1.9239   -0.7528 C   0  0  0  0  0  0  0  0  0  0  0  0
    3.7268    0.4633   -0.5563 C   0  0  0  0  0  0  0  0  0  0  0  0
    4.0926   -0.7612   -1.1152 C   0  0  0  0  0  0  0  0  0  0  0  0
   -1.1623    2.9224    1.0463 C   0  0  0  0  0  0  0  0  0  0  0  0
    0.5965    3.9666   -2.0629 C   0  0  0  0  0  0  0  0  0  0  0  0
    0.3656   -2.9962    1.1347 C   0  0  0  0  0  0  0  0  0  0  0  0
    3.8254   -3.2219   -1.3672 C   0  0  0  0  0  0  0  0  0  0  0  0
   -0.6097   -2.3173    0.1926 C   0  0  0  0  0  0  0  0  0  0  0  0
   -2.6993   -0.9259    0.3968 C   0  0  0  0  0  0  0  0  0  0  0  0
   -3.6263   -0.3304    1.2524 C   0  0  0  0  0  0  0  0  0  0  0  0
   -2.8396   -0.7933   -0.9845 C   0  0  0  0  0  0  0  0  0  0  0  0
   -4.6934    0.3978    0.7266 C   0  0  0  0  0  0  0  0  0  0  0  0
   -3.5019   -0.4571    2.7363 C   0  0  0  0  0  0  0  0  0  0  0  0
   -3.9067   -0.0649   -1.5104 C   0  0  0  0  0  0  0  0  0  0  0  0
   -4.8336    0.5305   -0.6549 C   0  0  0  0  0  0  0  0  0  0  0  0
   -0.8569    2.0494   -0.8932 H   0  0  0  0  0  0  0  0  0  0  0  0
   -0.3002    1.0624    0.4224 H   0  0  0  0  0  0  0  0  0  0  0  0
    2.4835    3.1736   -1.4862 H   0  0  0  0  0  0  0  0  0  0  0  0
    1.3288    1.9362   -2.0161 H   0  0  0  0  0  0  0  0  0  0  0  0
    1.2049   -0.5684    1.4606 H   0  0  0  0  0  0  0  0  0  0  0  0
    4.2678    1.3565   -0.8555 H   0  0  0  0  0  0  0  0  0  0  0  0
    4.9090   -0.7910   -1.8318 H   0  0  0  0  0  0  0  0  0  0  0  0
   -0.7323    2.9164    2.0516 H   0  0  0  0  0  0  0  0  0  0  0  0
   -1.2226    3.9652    0.7172 H   0  0  0  0  0  0  0  0  0  0  0  0
   -2.1814    2.5310    1.1157 H   0  0  0  0  0  0  0  0  0  0  0  0
   -0.4543    3.6895   -2.1824 H   0  0  0  0  0  0  0  0  0  0  0  0
    0.6350    4.8772   -1.4554 H   0  0  0  0  0  0  0  0  0  0  0  0
    0.9798    4.2107   -3.0593 H   0  0  0  0  0  0  0  0  0  0  0  0
    2.0022   -3.9177    0.1921 H   0  0  0  0  0  0  0  0  0  0  0  0
    0.3898   -2.5249    2.1231 H   0  0  0  0  0  0  0  0  0  0  0  0
    0.0080   -4.0215    1.2846 H   0  0  0  0  0  0  0  0  0  0  0  0
    4.1804   -3.9155   -0.5978 H   0  0  0  0  0  0  0  0  0  0  0  0
    2.9888   -3.6742   -1.9102 H   0  0  0  0  0  0  0  0  0  0  0  0
    4.6417   -3.0897   -2.0860 H   0  0  0  0  0  0  0  0  0  0  0  0
   -1.5654   -1.7362    1.9244 H   0  0  0  0  0  0  0  0  0  0  0  0
   -2.1592   -1.2270   -1.7028 H   0  0  0  0  0  0  0  0  0  0  0  0
   -5.4245    0.8685    1.3785 H   0  0  0  0  0  0  0  0  0  0  0  0
   -3.5550   -1.5081    3.0391 H   0  0  0  0  0  0  0  0  0  0  0  0
   -2.5575   -0.0226    3.0811 H   0  0  0  0  0  0  0  0  0  0  0  0
   -4.3084    0.0702    3.2578 H   0  0  0  0  0  0  0  0  0  0  0  0
   -5.6698    1.1012   -1.0506 H   0  0  0  0  0  0  0  0  0  0  0  0
  1 27  1  0  0  0  0
  2  3  2  0  0  0  0
  2  4  2  0  0  0  0
  2  6  1  0  0  0  0
  2  9  1  0  0  0  0
  5 21  2  0  0  0  0
  6 10  1  0  0  0  0
  6 11  1  0  0  0  0
  7 12  1  0  0  0  0
  7 19  1  0  0  0  0
  7 42  1  0  0  0  0
  8 21  1  0  0  0  0
  8 22  1  0  0  0  0
  8 48  1  0  0  0  0
  9 13  2  0  0  0  0
  9 15  1  0  0  0  0
 10 17  1  0  0  0  0
 10 29  1  0  0  0  0
 10 30  1  0  0  0  0
 11 18  1  0  0  0  0
 11 31  1  0  0  0  0
 11 32  1  0  0  0  0
 12 13  1  0  0  0  0
 12 14  2  0  0  0  0
 13 33  1  0  0  0  0
 14 16  1  0  0  0  0
 14 20  1  0  0  0  0
 15 16  2  0  0  0  0
 15 34  1  0  0  0  0
 16 35  1  0  0  0  0
 17 36  1  0  0  0  0
 17 37  1  0  0  0  0
 17 38  1  0  0  0  0
 18 39  1  0  0  0  0
 18 40  1  0  0  0  0
 18 41  1  0  0  0  0
 19 21  1  0  0  0  0
 19 43  1  0  0  0  0
 19 44  1  0  0  0  0
 20 45  1  0  0  0  0
 20 46  1  0  0  0  0
 20 47  1  0  0  0  0
 22 23  2  0  0  0  0
 22 24  1  0  0  0  0
 23 25  1  0  0  0  0
 23 26  1  0  0  0  0
 24 27  2  0  0  0  0
 24 49  1  0  0  0  0
 25 28  2  0  0  0  0
 25 50  1  0  0  0  0
 26 51  1  0  0  0  0
 26 52  1  0  0  0  0
 26 53  1  0  0  0  0
 27 28  1  0  0  0  0
 28 54  1  0  0  0  0
M  END
> <PUBCHEM_COMPOUND_CID>
17396256

> <PUBCHEM_CONFORMER_RMSD>
1

> <PUBCHEM_CONFORMER_DIVERSEORDER>
1
29
24
35
19
34
8
18
15
12
6
26
11
32
16
21
36
7
37
23
13
5
20
22
39
31
25
27
28
40
33
30
38
10
17
14
2
9
4
3

> <PUBCHEM_MMFF94_PARTIAL_CHARGES>
34
1 -0.18
10 0.36
11 0.36
12 0.1
13 -0.15
14 -0.14
15 -0.15
16 -0.15
19 0.43
2 1.45
20 0.14
21 0.57
22 0.12
23 -0.14
24 -0.15
25 -0.15
26 0.14
27 0.18
28 -0.15
3 -0.65
33 0.15
34 0.15
35 0.15
4 -0.65
42 0.4
48 0.37
49 0.15
5 -0.57
50 0.15
54 0.15
6 -0.85
7 -0.87
8 -0.55
9 -0.01

> <PUBCHEM_EFFECTIVE_ROTOR_COUNT>
9

> <PUBCHEM_PHARMACOPHORE_FEATURES>
8
1 3 acceptor
1 4 acceptor
1 5 acceptor
1 7 cation
1 7 donor
1 8 donor
6 22 23 24 25 27 28 rings
6 9 12 13 14 15 16 rings

> <PUBCHEM_HEAVY_ATOM_COUNT>
28

> <PUBCHEM_ATOM_DEF_STEREO_COUNT>
0

> <PUBCHEM_ATOM_UDEF_STEREO_COUNT>
0

> <PUBCHEM_BOND_DEF_STEREO_COUNT>
0

> <PUBCHEM_BOND_UDEF_STEREO_COUNT>
0

> <PUBCHEM_ISOTOPIC_ATOM_COUNT>
0

> <PUBCHEM_COMPONENT_COUNT>
1

> <PUBCHEM_CACTVS_TAUTO_COUNT>
2

> <PUBCHEM_CONFORMER_ID>
0109722000000001

> <PUBCHEM_MMFF94_ENERGY>
70.7938

> <PUBCHEM_FEATURE_SELFOVERLAP>
40.613

> <PUBCHEM_SHAPE_FINGERPRINT>
104564 63 18120085345265717571
11513181 2 17822007644344260598
12156800 1 16545294513515215417
12422481 6 18195266442292530824
12553582 1 18408881871279657346
13140716 1 18266178327649058434
13726171 33 17060329768801608508
14251757 17 18131077056188416513
15081414 286 18339625798836520766
151778 21 17984119492910220909
15210252 30 18060413647015461644
17093844 170 18411422774364909736
17357779 13 18338517550765268620
17921350 177 17488486099216780677
20554085 129 16127556902947088711
21033648 29 17989210352111162847
23536364 44 17835513096388441934
238 59 18266481899916054103
354706 35 17694248585380793309
46194498 28 17773869814442743453
508706 21 17917715648071544439
574716 61 17895487951005561535

> <PUBCHEM_SHAPE_MULTIPOLES>
549.4
8.79
4.52
2.32
5.26
2.05
0.54
-2.09
2.23
-4.3
0.56
2.22
0.63
1.27

> <PUBCHEM_SHAPE_SELFOVERLAP>
1119.578

> <PUBCHEM_SHAPE_VOLUME>
320.8

> <PUBCHEM_COORDINATE_TYPE>
2
5
10

$$$$

