17396244
  -OEChem-06241222553D

 43 45  0     1  0  0  0  0  0999 V2000
   -4.3070    1.9239    0.5126 S   0  0  0  0  0  0  0  0  0  0  0  0
    0.3486    1.1491    2.1134 O   0  0  0  0  0  0  0  0  0  0  0  0
    4.5450   -1.1868   -1.6867 O   0  0  0  0  0  0  0  0  0  0  0  0
   -0.7362    1.1072    0.0634 N   0  0  0  0  0  0  0  0  0  0  0  0
   -1.9406    0.4265    0.5265 C   0  0  2  0  0  0  0  0  0  0  0  0
   -1.8381   -1.0614    0.5384 C   0  0  0  0  0  0  0  0  0  0  0  0
   -3.1353    0.9502   -0.2692 C   0  0  0  0  0  0  0  0  0  0  0  0
    1.4296    2.1079    0.1698 C   0  0  0  0  0  0  0  0  0  0  0  0
    0.3083    1.4079    0.9133 C   0  0  0  0  0  0  0  0  0  0  0  0
    2.7355    1.3598    0.2175 C   0  0  0  0  0  0  0  0  0  0  0  0
   -2.5631   -1.8030    1.4713 C   0  0  0  0  0  0  0  0  0  0  0  0
   -1.0178   -1.7116   -0.3837 C   0  0  0  0  0  0  0  0  0  0  0  0
   -3.4348    0.7479   -1.5985 C   0  0  0  0  0  0  0  0  0  0  0  0
   -2.4676   -3.1945    1.4824 C   0  0  0  0  0  0  0  0  0  0  0  0
   -0.9224   -3.1032   -0.3726 C   0  0  0  0  0  0  0  0  0  0  0  0
    3.0396    0.4228   -0.7701 C   0  0  0  0  0  0  0  0  0  0  0  0
   -4.6422    1.4011   -1.9803 C   0  0  0  0  0  0  0  0  0  0  0  0
    3.6401    1.6023    1.2513 C   0  0  0  0  0  0  0  0  0  0  0  0
   -5.2194    2.0776   -0.9283 C   0  0  0  0  0  0  0  0  0  0  0  0
   -1.6474   -3.8446    0.5605 C   0  0  0  0  0  0  0  0  0  0  0  0
    4.2483   -0.2719   -0.7238 C   0  0  0  0  0  0  0  0  0  0  0  0
    4.8486    0.9076    1.2976 C   0  0  0  0  0  0  0  0  0  0  0  0
    5.1528   -0.0295    0.3100 C   0  0  0  0  0  0  0  0  0  0  0  0
    3.5755   -1.3854   -2.7146 C   0  0  0  0  0  0  0  0  0  0  0  0
   -2.0626    0.7411    1.5732 H   0  0  0  0  0  0  0  0  0  0  0  0
   -0.6568    1.3156   -0.9280 H   0  0  0  0  0  0  0  0  0  0  0  0
    1.5503    3.0992    0.6258 H   0  0  0  0  0  0  0  0  0  0  0  0
    1.1623    2.3064   -0.8753 H   0  0  0  0  0  0  0  0  0  0  0  0
   -3.2073   -1.3099    2.1947 H   0  0  0  0  0  0  0  0  0  0  0  0
   -0.4499   -1.1628   -1.1299 H   0  0  0  0  0  0  0  0  0  0  0  0
   -2.8214    0.1633   -2.2722 H   0  0  0  0  0  0  0  0  0  0  0  0
   -3.0324   -3.7719    2.2084 H   0  0  0  0  0  0  0  0  0  0  0  0
   -0.2855   -3.6097   -1.0920 H   0  0  0  0  0  0  0  0  0  0  0  0
    2.2979    0.2721   -1.5477 H   0  0  0  0  0  0  0  0  0  0  0  0
   -5.0654    1.3766   -2.9760 H   0  0  0  0  0  0  0  0  0  0  0  0
    3.4139    2.3282    2.0277 H   0  0  0  0  0  0  0  0  0  0  0  0
   -6.1331    2.6548   -0.9369 H   0  0  0  0  0  0  0  0  0  0  0  0
   -1.5737   -4.9282    0.5685 H   0  0  0  0  0  0  0  0  0  0  0  0
    5.5527    1.0957    2.1028 H   0  0  0  0  0  0  0  0  0  0  0  0
    6.0958   -0.5678    0.3517 H   0  0  0  0  0  0  0  0  0  0  0  0
    2.6365   -1.7802   -2.3116 H   0  0  0  0  0  0  0  0  0  0  0  0
    3.4241   -0.4763   -3.3065 H   0  0  0  0  0  0  0  0  0  0  0  0
    3.9757   -2.1454   -3.3936 H   0  0  0  0  0  0  0  0  0  0  0  0
  1  7  1  0  0  0  0
  1 19  1  0  0  0  0
  2  9  2  0  0  0  0
  3 21  1  0  0  0  0
  3 24  1  0  0  0  0
  4  5  1  0  0  0  0
  4  9  1  0  0  0  0
  4 26  1  0  0  0  0
  5  6  1  0  0  0  0
  5  7  1  0  0  0  0
  5 25  1  0  0  0  0
  6 11  2  0  0  0  0
  6 12  1  0  0  0  0
  7 13  2  0  0  0  0
  8  9  1  0  0  0  0
  8 10  1  0  0  0  0
  8 27  1  0  0  0  0
  8 28  1  0  0  0  0
 10 16  2  0  0  0  0
 10 18  1  0  0  0  0
 11 14  1  0  0  0  0
 11 29  1  0  0  0  0
 12 15  2  0  0  0  0
 12 30  1  0  0  0  0
 13 17  1  0  0  0  0
 13 31  1  0  0  0  0
 14 20  2  0  0  0  0
 14 32  1  0  0  0  0
 15 20  1  0  0  0  0
 15 33  1  0  0  0  0
 16 21  1  0  0  0  0
 16 34  1  0  0  0  0
 17 19  2  0  0  0  0
 17 35  1  0  0  0  0
 18 22  2  0  0  0  0
 18 36  1  0  0  0  0
 19 37  1  0  0  0  0
 20 38  1  0  0  0  0
 21 23  2  0  0  0  0
 22 23  1  0  0  0  0
 22 39  1  0  0  0  0
 23 40  1  0  0  0  0
 24 41  1  0  0  0  0
 24 42  1  0  0  0  0
 24 43  1  0  0  0  0
M  END
> <PUBCHEM_COMPOUND_CID>
17396244

> <PUBCHEM_CONFORMER_RMSD>
0.8

> <PUBCHEM_CONFORMER_DIVERSEORDER>
2
205
60
49
263
259
191
67
274
209
99
101
306
179
222
62
233
15
200
26
38
265
127
248
75
108
135
90
146
36
301
147
25
93
266
189
74
125
197
91
255
71
212
103
187
241
97
163
210
270
285
39
245
81
22
70
247
298
12
254
69
66
195
250
116
27
136
40
177
129
109
159
51
126
84
32
261
216
78
239
65
169
256
289
58
170
24
232
300
82
34
257
68
54
284
142
111
151
283
220
302
13
251
37
172
155
281
41
215
50
57
167
141
47
240
287
95
150
45
153
117
96
174
73
105
271
128
230
221
207
63
137
229
42
262
14
114
160
52
118
33
280
231
21
64
180
10
276
168
16
308
48
268
225
286
273
94
56
203
102
184
166
30
176
61
295
238
140
44
201
144
304
17
31
143
192
183
11
249
139
6
293
87
156
122
213
243
53
158
305
165
307
149
173
277
120
252
190
92
269
124
121
297
202
100
113
185
152
29
214
134
130
188
28
272
237
59
115
43
258
175
253
246
123
182
110
98
104
178
218
46
211
303
217
275
260
204
89
85
244
161
242
294
145
171
86
88
193
154
131
219
133
5
106
296
199
208
234
35
80
278
282
79
194
119
4
226
20
76
264
228
77
107
83
132
148
19
224
112
196
288
138
157
223
72
23
235
206
7
8
291
279
181
18
292
227
55
9
299
162
198
3
236
1
186
267
164
290

> <PUBCHEM_MMFF94_PARTIAL_CHARGES>
37
1 -0.08
10 -0.14
11 -0.15
12 -0.15
13 -0.15
14 -0.15
15 -0.15
16 -0.15
17 -0.15
18 -0.15
19 -0.11
2 -0.57
20 -0.15
21 0.08
22 -0.15
23 -0.15
24 0.28
26 0.37
29 0.15
3 -0.36
30 0.15
31 0.15
32 0.15
33 0.15
34 0.15
35 0.15
36 0.15
37 0.15
38 0.15
39 0.15
4 -0.73
40 0.15
5 0.62
6 -0.14
7 -0.14
8 0.2
9 0.57

> <PUBCHEM_EFFECTIVE_ROTOR_COUNT>
7

> <PUBCHEM_PHARMACOPHORE_FEATURES>
6
1 2 acceptor
1 3 acceptor
1 4 donor
5 1 7 13 17 19 rings
6 10 16 18 21 22 23 rings
6 6 11 12 14 15 20 rings

> <PUBCHEM_HEAVY_ATOM_COUNT>
24

> <PUBCHEM_ATOM_DEF_STEREO_COUNT>
0

> <PUBCHEM_ATOM_UDEF_STEREO_COUNT>
1

> <PUBCHEM_BOND_DEF_STEREO_COUNT>
0

> <PUBCHEM_BOND_UDEF_STEREO_COUNT>
0

> <PUBCHEM_ISOTOPIC_ATOM_COUNT>
0

> <PUBCHEM_COMPONENT_COUNT>
1

> <PUBCHEM_CACTVS_TAUTO_COUNT>
2

> <PUBCHEM_CONFORMER_ID>
0109721400000002

> <PUBCHEM_MMFF94_ENERGY>
60.6218

> <PUBCHEM_FEATURE_SELFOVERLAP>
30.446

> <PUBCHEM_SHAPE_FINGERPRINT>
10366900 7 17095523977093151544
105312 117 18131359639229623741
10764073 3 17828161564398278819
107951 10 17703788141447040243
11796584 16 18343587352601811066
12596602 18 4678808455215107298
12643181 29 18341335574300099682
12714826 92 18268980990855785490
12788726 201 18042127720652771968
13135754 10 17702651160856740403
1361 2 17458633362153209470
13726171 33 18053915439038555628
14251751 93 18200878374766489563
14251757 17 18335413569506025194
15163728 17 17415288501269433933
15375358 24 18113904844857278256
15420108 30 15875019104204040880
15664445 248 16831476001641504271
15775530 1 17757852034581407505
15880784 105 15357696409918968540
1813 80 17553751872939447179
20645477 70 17894633656235451348
21521239 73 17968111840934625253
21781051 124 17916850401234335931
22182313 1 18334847295047514914
22907989 373 18127690418767312909
23559900 14 18334009476652881552
3298306 158 18341897445546744975
340366 18 18131345293612022636
3729539 64 18053659462781423607
4015057 19 17749683895346728040
404807 14 15507689779892361239
4403749 210 17608112888074976552
44062 13 18272651216767757178
508706 21 18341045229445977895
559249 180 18201453475213942354
7399639 24 17327747197346235945
9709674 26 18187644678716308076

> <PUBCHEM_SHAPE_MULTIPOLES>
481.04
11.09
3.65
1.94
5.96
4.03
0.81
-5.22
3.16
-3.81
-0.78
0.72
0.27
3.21

> <PUBCHEM_SHAPE_SELFOVERLAP>
1018.979

> <PUBCHEM_SHAPE_VOLUME>
270.3

> <PUBCHEM_COORDINATE_TYPE>
2
5
10

$$$$

