47205280
  -OEChem-06241222582D

 37 38  0     0  0  0  0  0  0999 V2000
    8.7576    2.1479    0.0000 O   0  0  0  0  0  0  0  0  0  0  0  0
    4.8340   -0.2196    0.0000 O   0  0  0  0  0  0  0  0  0  0  0  0
    5.3692    1.4277    0.0000 N   0  0  0  0  0  0  0  0  0  0  0  0
    2.3660    2.0186    0.0000 N   0  0  0  0  0  0  0  0  0  0  0  0
    2.8660    0.4798    0.0000 C   0  0  0  0  0  0  0  0  0  0  0  0
    3.6750    1.0676    0.0000 C   0  0  0  0  0  0  0  0  0  0  0  0
    6.3203    1.1187    0.0000 C   0  0  0  0  0  0  0  0  0  0  0  0
    7.0634    1.7878    0.0000 C   0  0  0  0  0  0  0  0  0  0  0  0
    2.8660   -0.5202    0.0000 C   0  0  0  0  0  0  0  0  0  0  0  0
    4.6261    0.7586    0.0000 C   0  0  0  0  0  0  0  0  0  0  0  0
    2.0570    1.0676    0.0000 C   0  0  0  0  0  0  0  0  0  0  0  0
    3.3660    2.0186    0.0000 C   0  0  0  0  0  0  0  0  0  0  0  0
    8.0145    1.4788    0.0000 C   0  0  0  0  0  0  0  0  0  0  0  0
    2.0000   -1.0202    0.0000 C   0  0  0  0  0  0  0  0  0  0  0  0
    3.7320   -1.0202    0.0000 C   0  0  0  0  0  0  0  0  0  0  0  0
    2.0000   -2.0202    0.0000 C   0  0  0  0  0  0  0  0  0  0  0  0
    3.7320   -2.0202    0.0000 C   0  0  0  0  0  0  0  0  0  0  0  0
    2.8660   -2.5202    0.0000 C   0  0  0  0  0  0  0  0  0  0  0  0
    9.7087    1.8389    0.0000 C   0  0  0  0  0  0  0  0  0  0  0  0
    6.0292    0.5712    0.0000 H   0  0  0  0  0  0  0  0  0  0  0  0
    6.8089    0.7370    0.0000 H   0  0  0  0  0  0  0  0  0  0  0  0
    7.3545    2.3352    0.0000 H   0  0  0  0  0  0  0  0  0  0  0  0
    6.5749    2.1695    0.0000 H   0  0  0  0  0  0  0  0  0  0  0  0
    5.2403    2.0341    0.0000 H   0  0  0  0  0  0  0  0  0  0  0  0
    7.7234    0.9314    0.0000 H   0  0  0  0  0  0  0  0  0  0  0  0
    8.5031    1.0971    0.0000 H   0  0  0  0  0  0  0  0  0  0  0  0
    1.4674    0.8760    0.0000 H   0  0  0  0  0  0  0  0  0  0  0  0
    3.7304    2.5202    0.0000 H   0  0  0  0  0  0  0  0  0  0  0  0
    2.0016    2.5202    0.0000 H   0  0  0  0  0  0  0  0  0  0  0  0
    1.4631   -0.7102    0.0000 H   0  0  0  0  0  0  0  0  0  0  0  0
    4.2690   -0.7102    0.0000 H   0  0  0  0  0  0  0  0  0  0  0  0
    1.4631   -2.3302    0.0000 H   0  0  0  0  0  0  0  0  0  0  0  0
    4.2690   -2.3302    0.0000 H   0  0  0  0  0  0  0  0  0  0  0  0
    2.8660   -3.1402    0.0000 H   0  0  0  0  0  0  0  0  0  0  0  0
    9.5171    1.2492    0.0000 H   0  0  0  0  0  0  0  0  0  0  0  0
   10.2984    1.6473    0.0000 H   0  0  0  0  0  0  0  0  0  0  0  0
    9.9003    2.4286    0.0000 H   0  0  0  0  0  0  0  0  0  0  0  0
  1 13  1  0  0  0  0
  1 19  1  0  0  0  0
  2 10  2  0  0  0  0
  3  7  1  0  0  0  0
  3 10  1  0  0  0  0
  3 24  1  0  0  0  0
  4 11  1  0  0  0  0
  4 12  1  0  0  0  0
  4 29  1  0  0  0  0
  5  6  1  0  0  0  0
  5  9  1  0  0  0  0
  5 11  2  0  0  0  0
  6 10  1  0  0  0  0
  6 12  2  0  0  0  0
  7  8  1  0  0  0  0
  7 20  1  0  0  0  0
  7 21  1  0  0  0  0
  8 13  1  0  0  0  0
  8 22  1  0  0  0  0
  8 23  1  0  0  0  0
  9 14  2  0  0  0  0
  9 15  1  0  0  0  0
 11 27  1  0  0  0  0
 12 28  1  0  0  0  0
 13 25  1  0  0  0  0
 13 26  1  0  0  0  0
 14 16  1  0  0  0  0
 14 30  1  0  0  0  0
 15 17  2  0  0  0  0
 15 31  1  0  0  0  0
 16 18  2  0  0  0  0
 16 32  1  0  0  0  0
 17 18  1  0  0  0  0
 17 33  1  0  0  0  0
 18 34  1  0  0  0  0
 19 35  1  0  0  0  0
 19 36  1  0  0  0  0
 19 37  1  0  0  0  0
M  END
> <PUBCHEM_COMPOUND_CID>
47205280

> <PUBCHEM_COMPOUND_CANONICALIZED>
1

> <PUBCHEM_CACTVS_COMPLEXITY>
277

> <PUBCHEM_CACTVS_HBOND_ACCEPTOR>
2

> <PUBCHEM_CACTVS_HBOND_DONOR>
2

> <PUBCHEM_CACTVS_ROTATABLE_BOND>
6

> <PUBCHEM_CACTVS_SUBSKEYS>
AAADceBzMAAAAAAAAAAAAAAAAAAAAWAAAAAwAAAAAAAAAAABwAAAHgAQAAAADADhmgY+gJLJlACoAjF3VACCgCA1ACAI2aEoRNgIIHrA1ZGEIYhilgDIyccciMCOgAAAAAAAAAAAAAAAAAAAAAAAAAAAAA==

> <PUBCHEM_IUPAC_OPENEYE_NAME>
N-(3-methoxypropyl)-4-phenyl-1H-pyrrole-3-carboxamide

> <PUBCHEM_IUPAC_CAS_NAME>
N-(3-methoxypropyl)-4-phenyl-1H-pyrrole-3-carboxamide

> <PUBCHEM_IUPAC_NAME>
N-(3-methoxypropyl)-4-phenyl-1H-pyrrole-3-carboxamide

> <PUBCHEM_IUPAC_SYSTEMATIC_NAME>
N-(3-methoxypropyl)-4-phenyl-1H-pyrrole-3-carboxamide

> <PUBCHEM_IUPAC_TRADITIONAL_NAME>
N-(3-methoxypropyl)-4-phenyl-1H-pyrrole-3-carboxamide

> <PUBCHEM_IUPAC_INCHI>
InChI=1S/C15H18N2O2/c1-19-9-5-8-17-15(18)14-11-16-10-13(14)12-6-3-2-4-7-12/h2-4,6-7,10-11,16H,5,8-9H2,1H3,(H,17,18)

> <PUBCHEM_IUPAC_INCHIKEY>
JQFFWWJDKZYWLJ-UHFFFAOYSA-N

> <PUBCHEM_XLOGP3_AA>
1.8

> <PUBCHEM_EXACT_MASS>
258.136828

> <PUBCHEM_MOLECULAR_FORMULA>
C15H18N2O2

> <PUBCHEM_MOLECULAR_WEIGHT>
258.31562

> <PUBCHEM_OPENEYE_CAN_SMILES>
COCCCNC(=O)C1=CNC=C1C2=CC=CC=C2

> <PUBCHEM_OPENEYE_ISO_SMILES>
COCCCNC(=O)C1=CNC=C1C2=CC=CC=C2

> <PUBCHEM_CACTVS_TPSA>
54.1

> <PUBCHEM_MONOISOTOPIC_WEIGHT>
258.136828

> <PUBCHEM_TOTAL_CHARGE>
0

> <PUBCHEM_HEAVY_ATOM_COUNT>
19

> <PUBCHEM_ATOM_DEF_STEREO_COUNT>
0

> <PUBCHEM_ATOM_UDEF_STEREO_COUNT>
0

> <PUBCHEM_BOND_DEF_STEREO_COUNT>
0

> <PUBCHEM_BOND_UDEF_STEREO_COUNT>
0

> <PUBCHEM_ISOTOPIC_ATOM_COUNT>
0

> <PUBCHEM_COMPONENT_COUNT>
1

> <PUBCHEM_CACTVS_TAUTO_COUNT>
5

> <PUBCHEM_COORDINATE_TYPE>
1
5
255

> <PUBCHEM_BONDANNOTATIONS>
14  16  8
15  17  8
16  18  8
17  18  8
4  11  8
4  12  8
5  11  8
5  6  8
6  12  8
9  14  8
9  15  8

$$$$

