9106
  -OEChem-06261203252D

 38 43  0     0  0  0  0  0  0999 V2000
    5.6098   -1.0391    0.0000 C   0  0  0  0  0  0  0  0  0  0  0  0
    4.7438   -0.5391    0.0000 C   0  0  0  0  0  0  0  0  0  0  0  0
    6.4758   -0.5391    0.0000 C   0  0  0  0  0  0  0  0  0  0  0  0
    4.7438    0.4609    0.0000 C   0  0  0  0  0  0  0  0  0  0  0  0
    3.8498   -1.0737    0.0000 C   0  0  0  0  0  0  0  0  0  0  0  0
    5.5938   -2.0806    0.0000 C   0  0  0  0  0  0  0  0  0  0  0  0
    7.3858   -1.0459    0.0000 C   0  0  0  0  0  0  0  0  0  0  0  0
    3.8498    0.9956    0.0000 C   0  0  0  0  0  0  0  0  0  0  0  0
    2.9438    0.4818    0.0000 C   0  0  0  0  0  0  0  0  0  0  0  0
    7.3939   -2.0875    0.0000 C   0  0  0  0  0  0  0  0  0  0  0  0
    5.6098    0.9609    0.0000 C   0  0  0  0  0  0  0  0  0  0  0  0
    6.4758    0.4609    0.0000 C   0  0  0  0  0  0  0  0  0  0  0  0
    2.9438   -0.5599    0.0000 C   0  0  0  0  0  0  0  0  0  0  0  0
    6.4918   -2.6083    0.0000 C   0  0  0  0  0  0  0  0  0  0  0  0
    3.8877   -2.0647    0.0000 C   0  0  0  0  0  0  0  0  0  0  0  0
    4.7590   -2.5382    0.0000 C   0  0  0  0  0  0  0  0  0  0  0  0
    3.8749    2.0803    0.0000 C   0  0  0  0  0  0  0  0  0  0  0  0
    8.3127   -0.4818    0.0000 C   0  0  0  0  0  0  0  0  0  0  0  0
    8.3293   -2.6372    0.0000 C   0  0  0  0  0  0  0  0  0  0  0  0
    2.0000    1.0170    0.0000 C   0  0  0  0  0  0  0  0  0  0  0  0
    9.2606   -1.0098    0.0000 C   0  0  0  0  0  0  0  0  0  0  0  0
    2.9438    2.6372    0.0000 C   0  0  0  0  0  0  0  0  0  0  0  0
    9.2689   -2.0947    0.0000 C   0  0  0  0  0  0  0  0  0  0  0  0
    2.0000    2.1020    0.0000 C   0  0  0  0  0  0  0  0  0  0  0  0
    5.6098    1.5809    0.0000 H   0  0  0  0  0  0  0  0  0  0  0  0
    7.0128    0.7709    0.0000 H   0  0  0  0  0  0  0  0  0  0  0  0
    2.4080   -0.8719    0.0000 H   0  0  0  0  0  0  0  0  0  0  0  0
    6.4894   -3.2283    0.0000 H   0  0  0  0  0  0  0  0  0  0  0  0
    3.3609   -2.3917    0.0000 H   0  0  0  0  0  0  0  0  0  0  0  0
    4.7602   -3.1582    0.0000 H   0  0  0  0  0  0  0  0  0  0  0  0
    4.4178    2.3799    0.0000 H   0  0  0  0  0  0  0  0  0  0  0  0
    8.3007    0.1381    0.0000 H   0  0  0  0  0  0  0  0  0  0  0  0
    1.4643    0.7049    0.0000 H   0  0  0  0  0  0  0  0  0  0  0  0
    8.3269   -3.2572    0.0000 H   0  0  0  0  0  0  0  0  0  0  0  0
    2.9510    3.2572    0.0000 H   0  0  0  0  0  0  0  0  0  0  0  0
    9.7939   -0.6936    0.0000 H   0  0  0  0  0  0  0  0  0  0  0  0
    1.4643    2.4141    0.0000 H   0  0  0  0  0  0  0  0  0  0  0  0
    9.8071   -2.4027    0.0000 H   0  0  0  0  0  0  0  0  0  0  0  0
  1  2  1  0  0  0  0
  1  3  2  0  0  0  0
  1  6  1  0  0  0  0
  2  4  2  0  0  0  0
  2  5  1  0  0  0  0
  3  7  1  0  0  0  0
  3 12  1  0  0  0  0
  4  8  1  0  0  0  0
  4 11  1  0  0  0  0
  5 13  2  0  0  0  0
  5 15  1  0  0  0  0
  6 14  2  0  0  0  0
  6 16  1  0  0  0  0
  7 10  1  0  0  0  0
  7 18  2  0  0  0  0
  8  9  1  0  0  0  0
  8 17  2  0  0  0  0
  9 13  1  0  0  0  0
  9 20  2  0  0  0  0
 10 14  1  0  0  0  0
 10 19  2  0  0  0  0
 11 12  2  0  0  0  0
 11 25  1  0  0  0  0
 12 26  1  0  0  0  0
 13 27  1  0  0  0  0
 14 28  1  0  0  0  0
 15 16  2  0  0  0  0
 15 29  1  0  0  0  0
 16 30  1  0  0  0  0
 17 22  1  0  0  0  0
 17 31  1  0  0  0  0
 18 21  1  0  0  0  0
 18 32  1  0  0  0  0
 19 23  1  0  0  0  0
 19 34  1  0  0  0  0
 20 24  1  0  0  0  0
 20 33  1  0  0  0  0
 21 23  2  0  0  0  0
 21 36  1  0  0  0  0
 22 24  2  0  0  0  0
 22 35  1  0  0  0  0
 23 38  1  0  0  0  0
 24 37  1  0  0  0  0
M  END
> <PUBCHEM_COMPOUND_CID>
9106

> <PUBCHEM_COMPOUND_CANONICALIZED>
1

> <PUBCHEM_CACTVS_COMPLEXITY>
436

> <PUBCHEM_CACTVS_HBOND_ACCEPTOR>
0

> <PUBCHEM_CACTVS_HBOND_DONOR>
0

> <PUBCHEM_CACTVS_ROTATABLE_BOND>
0

> <PUBCHEM_CACTVS_SUBSKEYS>
AAADccB4AAAAAAAAAAAAAAAAAAAAAAAAAAAwYMGDAAAAAADBVAAAGAAAAAAADACAGAAwAMAAAACAAiBCAAACAAAgAAAIiAAAAIgIICKAERCAIAAggAAIiAcAgMAOwAACAAAQAACAAAQAACAAAAAAAAAAAA==

> <PUBCHEM_IUPAC_INCHI>
InChI=1S/C24H14/c1-3-7-19-15(5-1)13-17-9-10-18-14-16-6-2-4-8-20(16)22-12-11-21(19)23(17)24(18)22/h1-14H

> <PUBCHEM_IUPAC_INCHIKEY>
TUGYIJVAYAHHHM-UHFFFAOYSA-N

> <PUBCHEM_XLOGP3_AA>
7.3

> <PUBCHEM_EXACT_MASS>
302.10955

> <PUBCHEM_MOLECULAR_FORMULA>
C24H14

> <PUBCHEM_MOLECULAR_WEIGHT>
302.36796

> <PUBCHEM_OPENEYE_CAN_SMILES>
C1=CC=C2C3=C4C(=CC2=C1)C=CC5=CC6=CC=CC=C6C(=C54)C=C3

> <PUBCHEM_OPENEYE_ISO_SMILES>
C1=CC=C2C3=C4C(=CC2=C1)C=CC5=CC6=CC=CC=C6C(=C54)C=C3

> <PUBCHEM_CACTVS_TPSA>
0

> <PUBCHEM_MONOISOTOPIC_WEIGHT>
302.10955

> <PUBCHEM_TOTAL_CHARGE>
0

> <PUBCHEM_HEAVY_ATOM_COUNT>
24

> <PUBCHEM_ATOM_DEF_STEREO_COUNT>
0

> <PUBCHEM_ATOM_UDEF_STEREO_COUNT>
0

> <PUBCHEM_BOND_DEF_STEREO_COUNT>
0

> <PUBCHEM_BOND_UDEF_STEREO_COUNT>
0

> <PUBCHEM_ISOTOPIC_ATOM_COUNT>
0

> <PUBCHEM_COMPONENT_COUNT>
1

> <PUBCHEM_CACTVS_TAUTO_COUNT>
1

> <PUBCHEM_COORDINATE_TYPE>
1
5
255

> <PUBCHEM_BONDANNOTATIONS>
1  2  8
1  3  8
1  6  8
10  14  8
10  19  8
11  12  8
15  16  8
17  22  8
18  21  8
19  23  8
2  4  8
2  5  8
20  24  8
21  23  8
22  24  8
3  12  8
3  7  8
4  11  8
4  8  8
5  13  8
5  15  8
6  14  8
6  16  8
7  10  8
7  18  8
8  17  8
8  9  8
9  13  8
9  20  8

$$$$

