17395544
  -OEChem-06241222513D

 61 65  0     1  0  0  0  0  0999 V2000
    1.9435    2.6977   -1.4493 S   0  0  0  0  0  0  0  0  0  0  0  0
    2.3839   -3.0775    0.3776 O   0  0  0  0  0  0  0  0  0  0  0  0
    2.6853    3.9399   -1.5197 O   0  0  0  0  0  0  0  0  0  0  0  0
    0.7741    2.4504   -2.2678 O   0  0  0  0  0  0  0  0  0  0  0  0
    3.7561   -0.3142   -0.0842 N   0  0  0  0  0  0  0  0  0  0  0  0
    1.4342   -1.9696   -1.4361 N   0  0  0  0  0  0  0  0  0  0  0  0
    2.9668    1.4046   -1.4889 N   0  0  0  0  0  0  0  0  0  0  0  0
   -2.1834   -0.2144    0.1989 N   0  0  0  0  0  0  0  0  0  0  0  0
   -1.8399   -0.8790    1.3154 N   0  0  0  0  0  0  0  0  0  0  0  0
    3.7184   -1.5433   -0.8678 C   0  0  1  0  0  0  0  0  0  0  0  0
    4.9530   -2.3206   -0.4133 C   0  0  0  0  0  0  0  0  0  0  0  0
    5.1755   -1.8356    1.0134 C   0  0  0  0  0  0  0  0  0  0  0  0
    4.7849   -0.3639    0.9469 C   0  0  0  0  0  0  0  0  0  0  0  0
    3.0059    0.7767   -0.3397 C   0  0  0  0  0  0  0  0  0  0  0  0
    2.4550   -2.2806   -0.5544 C   0  0  0  0  0  0  0  0  0  0  0  0
    2.1410    1.3595    0.7086 C   0  0  0  0  0  0  0  0  0  0  0  0
    1.4765    2.4657    0.2060 C   0  0  0  0  0  0  0  0  0  0  0  0
    0.1189   -2.5640   -1.3642 C   0  0  0  0  0  0  0  0  0  0  0  0
    1.9406    0.9583    2.0158 C   0  0  0  0  0  0  0  0  0  0  0  0
   -0.7683   -1.7145   -0.5207 C   0  0  0  0  0  0  0  0  0  0  0  0
    0.5962    3.2241    0.9438 C   0  0  0  0  0  0  0  0  0  0  0  0
   -1.5696   -0.6760   -0.9283 C   0  0  0  0  0  0  0  0  0  0  0  0
   -0.9752   -1.7942    0.8695 C   0  0  0  0  0  0  0  0  0  0  0  0
    1.0515    1.7067    2.7966 C   0  0  0  0  0  0  0  0  0  0  0  0
    0.3858    2.8291    2.2651 C   0  0  0  0  0  0  0  0  0  0  0  0
   -3.1265    0.8761    0.2894 C   0  0  0  0  0  0  0  0  0  0  0  0
   -1.8029   -0.0917   -2.2629 C   0  0  0  0  0  0  0  0  0  0  0  0
   -0.3619   -2.7370    1.8218 C   0  0  0  0  0  0  0  0  0  0  0  0
   -4.5414    0.3942    0.1156 C   0  0  0  0  0  0  0  0  0  0  0  0
   -5.2843   -0.0033    1.2273 C   0  0  0  0  0  0  0  0  0  0  0  0
   -5.1106    0.3454   -1.1571 C   0  0  0  0  0  0  0  0  0  0  0  0
   -6.5960   -0.4497    1.0665 C   0  0  0  0  0  0  0  0  0  0  0  0
   -6.4223   -0.1010   -1.3178 C   0  0  0  0  0  0  0  0  0  0  0  0
   -7.1649   -0.4985   -0.2060 C   0  0  0  0  0  0  0  0  0  0  0  0
    3.7902   -1.3402   -1.9428 H   0  0  0  0  0  0  0  0  0  0  0  0
    4.8456   -3.4080   -0.4724 H   0  0  0  0  0  0  0  0  0  0  0  0
    5.8151   -2.0342   -1.0287 H   0  0  0  0  0  0  0  0  0  0  0  0
    6.2069   -1.9769    1.3489 H   0  0  0  0  0  0  0  0  0  0  0  0
    4.5185   -2.3700    1.7090 H   0  0  0  0  0  0  0  0  0  0  0  0
    4.4737    0.0008    1.9266 H   0  0  0  0  0  0  0  0  0  0  0  0
    5.6426    0.2376    0.6230 H   0  0  0  0  0  0  0  0  0  0  0  0
    1.5949   -1.2742   -2.1591 H   0  0  0  0  0  0  0  0  0  0  0  0
    0.1962   -3.5790   -0.9617 H   0  0  0  0  0  0  0  0  0  0  0  0
   -0.2649   -2.6405   -2.3867 H   0  0  0  0  0  0  0  0  0  0  0  0
    2.4062    0.0781    2.4399 H   0  0  0  0  0  0  0  0  0  0  0  0
    0.0869    4.0844    0.5271 H   0  0  0  0  0  0  0  0  0  0  0  0
    0.8623    1.4126    3.8258 H   0  0  0  0  0  0  0  0  0  0  0  0
   -0.3020    3.3894    2.8929 H   0  0  0  0  0  0  0  0  0  0  0  0
   -2.9991    1.3494    1.2716 H   0  0  0  0  0  0  0  0  0  0  0  0
   -2.8729    1.6481   -0.4431 H   0  0  0  0  0  0  0  0  0  0  0  0
   -1.9198    0.9944   -2.2411 H   0  0  0  0  0  0  0  0  0  0  0  0
   -2.6858   -0.5380   -2.7292 H   0  0  0  0  0  0  0  0  0  0  0  0
   -0.9528   -0.2942   -2.9237 H   0  0  0  0  0  0  0  0  0  0  0  0
    0.5778   -2.3308    2.2086 H   0  0  0  0  0  0  0  0  0  0  0  0
   -1.0223   -2.9190    2.6769 H   0  0  0  0  0  0  0  0  0  0  0  0
   -0.1606   -3.7078    1.3600 H   0  0  0  0  0  0  0  0  0  0  0  0
   -4.8526    0.0294    2.2241 H   0  0  0  0  0  0  0  0  0  0  0  0
   -4.5573    0.6726   -2.0315 H   0  0  0  0  0  0  0  0  0  0  0  0
   -7.1743   -0.7592    1.9322 H   0  0  0  0  0  0  0  0  0  0  0  0
   -6.8674   -0.1339   -2.3079 H   0  0  0  0  0  0  0  0  0  0  0  0
   -8.1867   -0.8447   -0.3311 H   0  0  0  0  0  0  0  0  0  0  0  0
  1  3  2  0  0  0  0
  1  4  2  0  0  0  0
  1  7  1  0  0  0  0
  1 17  1  0  0  0  0
  2 15  2  0  0  0  0
  5 10  1  0  0  0  0
  5 13  1  0  0  0  0
  5 14  1  0  0  0  0
  6 15  1  0  0  0  0
  6 18  1  0  0  0  0
  6 42  1  0  0  0  0
  7 14  2  0  0  0  0
  8  9  1  0  0  0  0
  8 22  1  0  0  0  0
  8 26  1  0  0  0  0
  9 23  2  0  0  0  0
 10 11  1  0  0  0  0
 10 15  1  0  0  0  0
 10 35  1  0  0  0  0
 11 12  1  0  0  0  0
 11 36  1  0  0  0  0
 11 37  1  0  0  0  0
 12 13  1  0  0  0  0
 12 38  1  0  0  0  0
 12 39  1  0  0  0  0
 13 40  1  0  0  0  0
 13 41  1  0  0  0  0
 14 16  1  0  0  0  0
 16 17  1  0  0  0  0
 16 19  2  0  0  0  0
 17 21  2  0  0  0  0
 18 20  1  0  0  0  0
 18 43  1  0  0  0  0
 18 44  1  0  0  0  0
 19 24  1  0  0  0  0
 19 45  1  0  0  0  0
 20 22  2  0  0  0  0
 20 23  1  0  0  0  0
 21 25  1  0  0  0  0
 21 46  1  0  0  0  0
 22 27  1  0  0  0  0
 23 28  1  0  0  0  0
 24 25  2  0  0  0  0
 24 47  1  0  0  0  0
 25 48  1  0  0  0  0
 26 29  1  0  0  0  0
 26 49  1  0  0  0  0
 26 50  1  0  0  0  0
 27 51  1  0  0  0  0
 27 52  1  0  0  0  0
 27 53  1  0  0  0  0
 28 54  1  0  0  0  0
 28 55  1  0  0  0  0
 28 56  1  0  0  0  0
 29 30  2  0  0  0  0
 29 31  1  0  0  0  0
 30 32  1  0  0  0  0
 30 57  1  0  0  0  0
 31 33  2  0  0  0  0
 31 58  1  0  0  0  0
 32 34  2  0  0  0  0
 32 59  1  0  0  0  0
 33 34  1  0  0  0  0
 33 60  1  0  0  0  0
 34 61  1  0  0  0  0
M  END
> <PUBCHEM_COMPOUND_CID>
17395544

> <PUBCHEM_CONFORMER_RMSD>
1.4

> <PUBCHEM_CONFORMER_DIVERSEORDER>
1
50
113
97
21
41
52
92
60
116
119
72
51
107
20
29
15
36
99
66
82
126
120
109
33
68
84
11
87
132
127
78
95
46
10
80
102
105
71
123
69
79
125
122
130
4
45
62
83
47
98
42
12
18
117
89
40
103
115
56
58
94
90
124
53
91
129
32
110
108
24
39
74
43
55
81
101
135
2
57
54
34
86
70
114
112
17
59
63
111
16
19
128
93
27
23
85
88
7
25
9
75
8
30
65
96
38
134
118
67
14
37
44
106
104
61
64
49
73
100
3
26
13
31
77
35
5
48
133
28
6
121
76
131
22

> <PUBCHEM_MMFF94_PARTIAL_CHARGES>
42
1 1.5
10 0.43
13 0.37
14 0.41
15 0.57
16 0.09
17 -0.01
18 0.48
19 -0.15
2 -0.57
20 -0.18
21 -0.15
22 -0.33
23 0.11
24 -0.15
25 -0.15
26 0.4
27 0.18
28 0.18
29 -0.14
3 -0.65
30 -0.15
31 -0.15
32 -0.15
33 -0.15
34 -0.15
4 -0.65
42 0.37
45 0.15
46 0.15
47 0.15
48 0.15
5 -0.79
57 0.15
58 0.15
59 0.15
6 -0.73
60 0.15
61 0.15
7 -0.64
8 0.31
9 -0.71

> <PUBCHEM_EFFECTIVE_ROTOR_COUNT>
8

> <PUBCHEM_PHARMACOPHORE_FEATURES>
11
1 2 acceptor
1 3 acceptor
1 4 acceptor
1 6 donor
1 7 donor
1 9 acceptor
5 1 7 14 16 17 rings
5 5 10 11 12 13 rings
5 8 9 20 22 23 rings
6 16 17 19 21 24 25 rings
6 29 30 31 32 33 34 rings

> <PUBCHEM_HEAVY_ATOM_COUNT>
34

> <PUBCHEM_ATOM_DEF_STEREO_COUNT>
1

> <PUBCHEM_ATOM_UDEF_STEREO_COUNT>
0

> <PUBCHEM_BOND_DEF_STEREO_COUNT>
0

> <PUBCHEM_BOND_UDEF_STEREO_COUNT>
0

> <PUBCHEM_ISOTOPIC_ATOM_COUNT>
0

> <PUBCHEM_COMPONENT_COUNT>
1

> <PUBCHEM_CACTVS_TAUTO_COUNT>
2

> <PUBCHEM_CONFORMER_ID>
01096F5800000001

> <PUBCHEM_MMFF94_ENERGY>
69.7834

> <PUBCHEM_FEATURE_SELFOVERLAP>
55.899

> <PUBCHEM_SHAPE_FINGERPRINT>
10674148 151 13614233820257832466
11646440 116 18186803612329419162
11828532 37 14779845815257869023
12156800 1 12530239792735307368
12166972 35 18335697282054877006
12422481 6 17463388857254089619
12788726 201 17968925500935355560
13782708 43 18059849554928021107
14068700 675 18041552659350088784
14955137 171 18040714805108236895
17809404 112 6483070821031298269
23559900 14 18131070442223520043
24893992 56 18202001084345905363
25019877 29 16878234163658064406
27425 322 16127524848488047052
46194498 28 18059858346035109301
463206 1 18113341881908159383
469060 322 17912066550548396456
508706 21 17986964123266102677
6086070 43 17968652697328660667
6669772 16 17751657458979109057
8509985 295 18259983760304527756

> <PUBCHEM_SHAPE_MULTIPOLES>
661.04
12.5
3.88
2.22
21.42
1.59
-0.22
-4.24
0.09
-4.95
0.11
-0.27
1.09
-0.35

> <PUBCHEM_SHAPE_SELFOVERLAP>
1435.228

> <PUBCHEM_SHAPE_VOLUME>
365.5

> <PUBCHEM_COORDINATE_TYPE>
2
5
10

$$$$

