17395443
  -OEChem-06241222502D

 39 41  0     1  0  0  0  0  0999 V2000
    2.0000    3.7885    0.0000 F   0  0  0  0  0  0  0  0  0  0  0  0
    3.3660    4.1546    0.0000 F   0  0  0  0  0  0  0  0  0  0  0  0
    2.3660    2.4225    0.0000 F   0  0  0  0  0  0  0  0  0  0  0  0
    3.7320   -0.2115    0.0000 O   0  0  0  0  0  0  0  0  0  0  0  0
    4.5981    1.2885    0.0000 N   0  0  0  0  0  0  0  0  0  0  0  0
    6.3776    0.1953    0.0000 N   0  0  0  0  0  0  0  0  0  0  0  0
    7.0468   -0.5479    0.0000 N   0  0  0  0  0  0  0  0  0  0  0  0
    3.7320    2.7885    0.0000 C   0  0  3  0  0  0  0  0  0  0  0  0
    4.5981    3.2885    0.0000 C   0  0  0  0  0  0  0  0  0  0  0  0
    3.7320    1.7885    0.0000 C   0  0  0  0  0  0  0  0  0  0  0  0
    5.4641    2.7885    0.0000 C   0  0  0  0  0  0  0  0  0  0  0  0
    5.4641    1.7885    0.0000 C   0  0  0  0  0  0  0  0  0  0  0  0
    2.8660    3.2885    0.0000 C   0  0  0  0  0  0  0  0  0  0  0  0
    4.5981    0.2885    0.0000 C   0  0  0  0  0  0  0  0  0  0  0  0
    5.4641   -0.2115    0.0000 C   0  0  0  0  0  0  0  0  0  0  0  0
    5.5686   -1.2060    0.0000 C   0  0  0  0  0  0  0  0  0  0  0  0
    6.5468   -1.4139    0.0000 C   0  0  0  0  0  0  0  0  0  0  0  0
    6.9535   -2.3275    0.0000 C   0  0  0  0  0  0  0  0  0  0  0  0
    6.3657   -3.1365    0.0000 C   0  0  0  0  0  0  0  0  0  0  0  0
    7.9480   -2.4320    0.0000 C   0  0  0  0  0  0  0  0  0  0  0  0
    6.7725   -4.0500    0.0000 C   0  0  0  0  0  0  0  0  0  0  0  0
    8.3548   -3.3455    0.0000 C   0  0  0  0  0  0  0  0  0  0  0  0
    7.7670   -4.1546    0.0000 C   0  0  0  0  0  0  0  0  0  0  0  0
    3.7320    3.4085    0.0000 H   0  0  0  0  0  0  0  0  0  0  0  0
    4.9966    3.7635    0.0000 H   0  0  0  0  0  0  0  0  0  0  0  0
    4.1996    3.7635    0.0000 H   0  0  0  0  0  0  0  0  0  0  0  0
    3.1215    1.8962    0.0000 H   0  0  0  0  0  0  0  0  0  0  0  0
    3.5200    1.2059    0.0000 H   0  0  0  0  0  0  0  0  0  0  0  0
    6.0747    2.6809    0.0000 H   0  0  0  0  0  0  0  0  0  0  0  0
    5.6762    3.3711    0.0000 H   0  0  0  0  0  0  0  0  0  0  0  0
    5.6762    1.2059    0.0000 H   0  0  0  0  0  0  0  0  0  0  0  0
    6.0747    1.8962    0.0000 H   0  0  0  0  0  0  0  0  0  0  0  0
    5.1079   -1.6209    0.0000 H   0  0  0  0  0  0  0  0  0  0  0  0
    6.5066    0.8017    0.0000 H   0  0  0  0  0  0  0  0  0  0  0  0
    5.7491   -3.0717    0.0000 H   0  0  0  0  0  0  0  0  0  0  0  0
    8.3125   -1.9304    0.0000 H   0  0  0  0  0  0  0  0  0  0  0  0
    6.4080   -4.5516    0.0000 H   0  0  0  0  0  0  0  0  0  0  0  0
    8.9714   -3.4103    0.0000 H   0  0  0  0  0  0  0  0  0  0  0  0
    8.0192   -4.7210    0.0000 H   0  0  0  0  0  0  0  0  0  0  0  0
  1 13  1  0  0  0  0
  2 13  1  0  0  0  0
  3 13  1  0  0  0  0
  4 14  2  0  0  0  0
  5 10  1  0  0  0  0
  5 12  1  0  0  0  0
  5 14  1  0  0  0  0
  6  7  1  0  0  0  0
  6 15  1  0  0  0  0
  6 34  1  0  0  0  0
  7 17  2  0  0  0  0
  8  9  1  0  0  0  0
  8 10  1  0  0  0  0
  8 13  1  0  0  0  0
  8 24  1  0  0  0  0
  9 11  1  0  0  0  0
  9 25  1  0  0  0  0
  9 26  1  0  0  0  0
 10 27  1  0  0  0  0
 10 28  1  0  0  0  0
 11 12  1  0  0  0  0
 11 29  1  0  0  0  0
 11 30  1  0  0  0  0
 12 31  1  0  0  0  0
 12 32  1  0  0  0  0
 14 15  1  0  0  0  0
 15 16  2  0  0  0  0
 16 17  1  0  0  0  0
 16 33  1  0  0  0  0
 17 18  1  0  0  0  0
 18 19  2  0  0  0  0
 18 20  1  0  0  0  0
 19 21  1  0  0  0  0
 19 35  1  0  0  0  0
 20 22  2  0  0  0  0
 20 36  1  0  0  0  0
 21 23  2  0  0  0  0
 21 37  1  0  0  0  0
 22 23  1  0  0  0  0
 22 38  1  0  0  0  0
 23 39  1  0  0  0  0
M  END
> <PUBCHEM_COMPOUND_CID>
17395443

> <PUBCHEM_COMPOUND_CANONICALIZED>
1

> <PUBCHEM_CACTVS_COMPLEXITY>
423

> <PUBCHEM_CACTVS_HBOND_ACCEPTOR>
5

> <PUBCHEM_CACTVS_HBOND_DONOR>
1

> <PUBCHEM_CACTVS_ROTATABLE_BOND>
2

> <PUBCHEM_CACTVS_SUBSKEYS>
AAADceB7IYAAAAAAAAAAAAAAAAAAAWAAAAA8QAAAAAAAAAABwAAAHwAYAAAADQjBnhQwgJNjAACqAyVyUACSBAAmAgAYuSG4ZNgIYLKA1dGUpQhgngCIyYcciICOAAAAAAAAAAAAAAAAAAAAAAAAAAAAAA==

> <PUBCHEM_IUPAC_OPENEYE_NAME>
(3-phenyl-1H-pyrazol-5-yl)-[3-(trifluoromethyl)-1-piperidyl]methanone

> <PUBCHEM_IUPAC_CAS_NAME>
(3-phenyl-1H-pyrazol-5-yl)-[3-(trifluoromethyl)-1-piperidinyl]methanone

> <PUBCHEM_IUPAC_NAME>
(3-phenyl-1H-pyrazol-5-yl)-[3-(trifluoromethyl)piperidin-1-yl]methanone

> <PUBCHEM_IUPAC_SYSTEMATIC_NAME>
(3-phenyl-1H-pyrazol-5-yl)-[3-(trifluoromethyl)piperidin-1-yl]methanone

> <PUBCHEM_IUPAC_TRADITIONAL_NAME>
(3-phenyl-1H-pyrazol-5-yl)-[3-(trifluoromethyl)piperidino]methanone

> <PUBCHEM_IUPAC_INCHI>
InChI=1S/C16H16F3N3O/c17-16(18,19)12-7-4-8-22(10-12)15(23)14-9-13(20-21-14)11-5-2-1-3-6-11/h1-3,5-6,9,12H,4,7-8,10H2,(H,20,21)

> <PUBCHEM_IUPAC_INCHIKEY>
NUAOPZVNEYTQMY-UHFFFAOYSA-N

> <PUBCHEM_XLOGP3_AA>
3.5

> <PUBCHEM_EXACT_MASS>
323.124547

> <PUBCHEM_MOLECULAR_FORMULA>
C16H16F3N3O

> <PUBCHEM_MOLECULAR_WEIGHT>
323.31295

> <PUBCHEM_OPENEYE_CAN_SMILES>
C1CC(CN(C1)C(=O)C2=CC(=NN2)C3=CC=CC=C3)C(F)(F)F

> <PUBCHEM_OPENEYE_ISO_SMILES>
C1CC(CN(C1)C(=O)C2=CC(=NN2)C3=CC=CC=C3)C(F)(F)F

> <PUBCHEM_CACTVS_TPSA>
49

> <PUBCHEM_MONOISOTOPIC_WEIGHT>
323.124547

> <PUBCHEM_TOTAL_CHARGE>
0

> <PUBCHEM_HEAVY_ATOM_COUNT>
23

> <PUBCHEM_ATOM_DEF_STEREO_COUNT>
0

> <PUBCHEM_ATOM_UDEF_STEREO_COUNT>
1

> <PUBCHEM_BOND_DEF_STEREO_COUNT>
0

> <PUBCHEM_BOND_UDEF_STEREO_COUNT>
0

> <PUBCHEM_ISOTOPIC_ATOM_COUNT>
0

> <PUBCHEM_COMPONENT_COUNT>
1

> <PUBCHEM_CACTVS_TAUTO_COUNT>
4

> <PUBCHEM_COORDINATE_TYPE>
1
5
255

> <PUBCHEM_BONDANNOTATIONS>
15  16  8
16  17  8
18  19  8
18  20  8
19  21  8
20  22  8
21  23  8
22  23  8
6  15  8
6  7  8
7  17  8
8  13  3

$$$$

