854336
  -OEChem-06241222483D

 30 31  0     1  0  0  0  0  0999 V2000
   -1.7507   -0.9210    1.5904 S   0  0  0  0  0  0  0  0  0  0  0  0
   -5.2727    0.0741   -0.2384 O   0  0  0  0  0  0  0  0  0  0  0  0
   -3.7099    1.7287   -0.3638 O   0  0  0  0  0  0  0  0  0  0  0  0
    4.5542    0.2633    0.1753 O   0  0  0  0  0  0  0  0  0  0  0  0
    3.1282   -2.0220   -0.5105 O   0  0  0  0  0  0  0  0  0  0  0  0
   -1.7261   -0.0232   -0.9208 N   0  0  0  0  0  0  0  0  0  0  0  0
   -1.1086    0.2774    0.3761 C   0  0  2  0  0  0  0  0  0  0  0  0
   -3.0618   -0.5775   -0.6990 C   0  0  1  0  0  0  0  0  0  0  0  0
   -2.9868   -1.5837    0.4428 C   0  0  0  0  0  0  0  0  0  0  0  0
    0.4017    0.2703    0.3208 C   0  0  0  0  0  0  0  0  0  0  0  0
   -4.0157    0.5469   -0.4213 C   0  0  0  0  0  0  0  0  0  0  0  0
    1.0832   -0.8832   -0.0731 C   0  0  0  0  0  0  0  0  0  0  0  0
    1.1206    1.4172    0.6645 C   0  0  0  0  0  0  0  0  0  0  0  0
    2.4771   -0.8898   -0.1232 C   0  0  0  0  0  0  0  0  0  0  0  0
    2.5145    1.4106    0.6145 C   0  0  0  0  0  0  0  0  0  0  0  0
    3.1928    0.2570    0.2206 C   0  0  0  0  0  0  0  0  0  0  0  0
    5.1600    0.6549   -1.0551 C   0  0  0  0  0  0  0  0  0  0  0  0
   -1.4483    1.2623    0.7162 H   0  0  0  0  0  0  0  0  0  0  0  0
   -3.4018   -1.0656   -1.6196 H   0  0  0  0  0  0  0  0  0  0  0  0
   -3.9350   -1.7357    0.9651 H   0  0  0  0  0  0  0  0  0  0  0  0
   -2.6250   -2.5519    0.0818 H   0  0  0  0  0  0  0  0  0  0  0  0
   -1.7511    0.8014   -1.5180 H   0  0  0  0  0  0  0  0  0  0  0  0
    0.5399   -1.7838   -0.3495 H   0  0  0  0  0  0  0  0  0  0  0  0
    0.6072    2.3239    0.9735 H   0  0  0  0  0  0  0  0  0  0  0  0
    3.0657    2.3074    0.8844 H   0  0  0  0  0  0  0  0  0  0  0  0
   -5.9120    0.7948   -0.0534 H   0  0  0  0  0  0  0  0  0  0  0  0
    4.0860   -1.8638   -0.4503 H   0  0  0  0  0  0  0  0  0  0  0  0
    4.9115    1.6951   -1.2884 H   0  0  0  0  0  0  0  0  0  0  0  0
    4.8397    0.0006   -1.8721 H   0  0  0  0  0  0  0  0  0  0  0  0
    6.2446    0.5709   -0.9447 H   0  0  0  0  0  0  0  0  0  0  0  0
  1  7  1  0  0  0  0
  1  9  1  0  0  0  0
  2 11  1  0  0  0  0
  2 26  1  0  0  0  0
  3 11  2  0  0  0  0
  4 16  1  0  0  0  0
  4 17  1  0  0  0  0
  5 14  1  0  0  0  0
  5 27  1  0  0  0  0
  6  7  1  0  0  0  0
  6  8  1  0  0  0  0
  6 22  1  0  0  0  0
  7 10  1  0  0  0  0
  7 18  1  0  0  0  0
  8  9  1  0  0  0  0
  8 11  1  0  0  0  0
  8 19  1  0  0  0  0
  9 20  1  0  0  0  0
  9 21  1  0  0  0  0
 10 12  2  0  0  0  0
 10 13  1  0  0  0  0
 12 14  1  0  0  0  0
 12 23  1  0  0  0  0
 13 15  2  0  0  0  0
 13 24  1  0  0  0  0
 14 16  2  0  0  0  0
 15 16  1  0  0  0  0
 15 25  1  0  0  0  0
 17 28  1  0  0  0  0
 17 29  1  0  0  0  0
 17 30  1  0  0  0  0
M  END
> <PUBCHEM_COMPOUND_CID>
854336

> <PUBCHEM_CONFORMER_RMSD>
0.6

> <PUBCHEM_CONFORMER_DIVERSEORDER>
1
7
23
18
22
12
16
28
26
4
31
15
9
13
17
21
24
8
2
19
27
3
30
14
5
29
10
6
11
20
25

> <PUBCHEM_MMFF94_PARTIAL_CHARGES>
23
1 -0.46
10 -0.14
11 0.66
12 -0.15
13 -0.15
14 0.08
15 -0.15
16 0.08
17 0.28
2 -0.65
22 0.36
23 0.15
24 0.15
25 0.15
26 0.5
27 0.45
3 -0.57
4 -0.36
5 -0.53
6 -0.9
7 0.64
8 0.33
9 0.23

> <PUBCHEM_EFFECTIVE_ROTOR_COUNT>
4

> <PUBCHEM_PHARMACOPHORE_FEATURES>
9
1 2 acceptor
1 3 acceptor
1 4 acceptor
1 5 donor
1 6 cation
1 6 donor
3 2 3 11 anion
5 1 6 7 8 9 rings
6 10 12 13 14 15 16 rings

> <PUBCHEM_HEAVY_ATOM_COUNT>
17

> <PUBCHEM_ATOM_DEF_STEREO_COUNT>
2

> <PUBCHEM_ATOM_UDEF_STEREO_COUNT>
0

> <PUBCHEM_BOND_DEF_STEREO_COUNT>
0

> <PUBCHEM_BOND_UDEF_STEREO_COUNT>
0

> <PUBCHEM_ISOTOPIC_ATOM_COUNT>
0

> <PUBCHEM_COMPONENT_COUNT>
1

> <PUBCHEM_CACTVS_TAUTO_COUNT>
3

> <PUBCHEM_CONFORMER_ID>
000D094000000001

> <PUBCHEM_MMFF94_ENERGY>
46.7712

> <PUBCHEM_FEATURE_SELFOVERLAP>
45.725

> <PUBCHEM_SHAPE_FINGERPRINT>
10608611 8 18339368469955269977
11401426 45 18186807959078701176
11471102 20 18334014995268573266
11615757 297 17531525395253616730
12236239 1 16588021299273898339
12500047 106 18343023263632963675
12670543 26 18335974351175857716
12916748 109 17704069625150503449
13760787 19 17775287140802185098
14911166 2 18261107448941451516
14943859 89 16415480454228154049
14993402 34 17530963575187836998
15219456 202 18411983524951846371
15375358 24 18412546500648762594
16752209 62 15791728646104888139
16945 1 18260825969643270058
18186145 218 18130796697749962175
19862831 5 17313105232837049445
200 152 17458346333862788665
20279233 1 18413103957196697938
20645477 56 18273215288029155425
20645477 70 18187927339025196374
20871999 31 17702942522241511034
21119208 17 17603868888042423965
21637258 2 14924216188652197356
221357 26 18334020514476174157
23402539 116 17346607352167000430
23402655 69 18334577966259221548
23557571 272 17631719461760546994
23559900 14 18202002162114106498
25 1 18341620351367896683
2748010 2 17902226711975213104
296302 2 18060416898226244930
3060560 45 17676487242344212382
3545911 37 18409730651501818925
4028521 119 18201169836006536213
4047638 21 16559030497944111964
4072396 5 18337123323705134146
474 4 14404326262669015334
4921388 177 17203318984161593547
5104073 3 18335986458161248819
542803 24 17917992767507883164
69090 78 18409738344194603383
77779 3 18408606959318877861
9709674 26 18411418380312763347

> <PUBCHEM_SHAPE_MULTIPOLES>
325.24
9.77
1.57
1.04
0.69
0.16
-0.18
-1.36
2.64
0
-0.07
-0.11
0.08
0.67

> <PUBCHEM_SHAPE_SELFOVERLAP>
673.162

> <PUBCHEM_SHAPE_VOLUME>
187.9

> <PUBCHEM_COORDINATE_TYPE>
2
5
10

$$$$

