5080
  -OEChem-06261200303D

 23 24  0     0  0  0  0  0  0999 V2000
   -2.6434   -1.3380   -1.1158 O   0  0  0  0  0  0  0  0  0  0  0  0
   -1.7860    1.2472    0.4309 N   0  0  0  0  0  0  0  0  0  0  0  0
   -0.7263   -1.6149    0.1135 N   0  0  0  0  0  0  0  0  0  0  0  0
    0.5372    0.6150   -0.0696 C   0  0  0  0  0  0  0  0  0  0  0  0
   -0.4773    1.5112    0.0668 C   0  0  0  0  0  0  0  0  0  0  0  0
    0.3493   -0.8882    0.1536 C   0  0  0  0  0  0  0  0  0  0  0  0
   -2.3548   -0.0041    0.8410 C   0  0  0  0  0  0  0  0  0  0  0  0
    1.8934    1.0397   -0.4283 C   0  0  0  0  0  0  0  0  0  0  0  0
   -0.2331    2.9959   -0.1626 C   0  0  0  0  0  0  0  0  0  0  0  0
   -1.9372   -1.0421   -0.1562 C   0  0  0  0  0  0  0  0  0  0  0  0
    1.6129   -1.6505    0.4234 C   0  0  0  0  0  0  0  0  0  0  0  0
    2.9528    0.2318   -0.3023 C   0  0  0  0  0  0  0  0  0  0  0  0
    2.8123   -1.1030    0.2057 C   0  0  0  0  0  0  0  0  0  0  0  0
   -3.4479    0.0577    0.8556 H   0  0  0  0  0  0  0  0  0  0  0  0
   -2.0266   -0.2818    1.8485 H   0  0  0  0  0  0  0  0  0  0  0  0
   -2.4061    2.0505    0.4745 H   0  0  0  0  0  0  0  0  0  0  0  0
    2.0633    2.0436   -0.8027 H   0  0  0  0  0  0  0  0  0  0  0  0
    0.6283    3.3528    0.4121 H   0  0  0  0  0  0  0  0  0  0  0  0
   -1.0825    3.6100    0.1579 H   0  0  0  0  0  0  0  0  0  0  0  0
   -0.0737    3.1965   -1.2275 H   0  0  0  0  0  0  0  0  0  0  0  0
    1.5250   -2.6760    0.7669 H   0  0  0  0  0  0  0  0  0  0  0  0
    3.9469    0.5742   -0.5684 H   0  0  0  0  0  0  0  0  0  0  0  0
    3.7175   -1.6728    0.3860 H   0  0  0  0  0  0  0  0  0  0  0  0
  1 10  2  0  0  0  0
  2  5  1  0  0  0  0
  2  7  1  0  0  0  0
  2 16  1  0  0  0  0
  3  6  2  0  0  0  0
  3 10  1  0  0  0  0
  4  5  2  0  0  0  0
  4  6  1  0  0  0  0
  4  8  1  0  0  0  0
  5  9  1  0  0  0  0
  6 11  1  0  0  0  0
  7 10  1  0  0  0  0
  7 14  1  0  0  0  0
  7 15  1  0  0  0  0
  8 12  2  0  0  0  0
  8 17  1  0  0  0  0
  9 18  1  0  0  0  0
  9 19  1  0  0  0  0
  9 20  1  0  0  0  0
 11 13  2  0  0  0  0
 11 21  1  0  0  0  0
 12 13  1  0  0  0  0
 12 22  1  0  0  0  0
 13 23  1  0  0  0  0
M  END
> <PUBCHEM_COMPOUND_CID>
5080

> <PUBCHEM_CONFORMER_RMSD>
0.4

> <PUBCHEM_CONFORMER_DIVERSEORDER>
1
2

> <PUBCHEM_MMFF94_PARTIAL_CHARGES>
18
1 -0.57
10 0.72
11 -0.14
12 -0.15
13 -0.15
16 0.4
17 0.15
2 -0.87
21 0.15
22 0.15
23 0.15
3 -0.66
4 0.01
5 -0.04
6 0.42
7 0.43
8 -0.15
9 0.14

> <PUBCHEM_EFFECTIVE_ROTOR_COUNT>
0.4

> <PUBCHEM_PHARMACOPHORE_FEATURES>
7
1 1 acceptor
1 2 cation
1 2 donor
1 3 acceptor
1 3 donor
6 4 6 8 11 12 13 rings
7 2 3 4 5 6 7 10 rings

> <PUBCHEM_HEAVY_ATOM_COUNT>
13

> <PUBCHEM_ATOM_DEF_STEREO_COUNT>
0

> <PUBCHEM_ATOM_UDEF_STEREO_COUNT>
0

> <PUBCHEM_BOND_DEF_STEREO_COUNT>
0

> <PUBCHEM_BOND_UDEF_STEREO_COUNT>
0

> <PUBCHEM_ISOTOPIC_ATOM_COUNT>
0

> <PUBCHEM_COMPONENT_COUNT>
1

> <PUBCHEM_CACTVS_TAUTO_COUNT>
3

> <PUBCHEM_CONFORMER_ID>
000013D800000001

> <PUBCHEM_MMFF94_ENERGY>
45.654

> <PUBCHEM_FEATURE_SELFOVERLAP>
35.583

> <PUBCHEM_SHAPE_FINGERPRINT>
10967382 1 18195242209406089704
11132069 177 18261396684544199594
11206711 2 18341609339124361148
12202030 40 16515673485769162198
12423570 1 9969555031814327679
12524768 44 18334845156148299534
13380535 76 17404865237874241937
14251711 518 18269838773208236330
15775835 57 18335690680769349016
16945 1 18195805176423166784
17775402 16 18270407070422107140
18185500 45 18411132498440630979
193761 8 17763461020902791179
20511035 2 17334479996610629736
20871998 184 18191862538237557181
21501502 16 18410011078664687018
2334 1 18411416185314917080
23388829 49 18411136905209237772
23419403 2 16975125262932957512
23552423 10 18196367022454052421
241688 4 18410578383250885529
2748010 2 18410572889945379188
2897 32 18342451564952154852
353137 74 18272373074701225802
528886 8 18411698768425020738
66348 1 18194679272237187634

> <PUBCHEM_SHAPE_MULTIPOLES>
251.7
3.91
2.48
0.78
0.9
1.46
-0.05
-1.23
-0.15
-0.46
-0.13
-0.28
-0.12
-0.56

> <PUBCHEM_SHAPE_SELFOVERLAP>
537.107

> <PUBCHEM_SHAPE_VOLUME>
136.3

> <PUBCHEM_COORDINATE_TYPE>
2
5
10

$$$$

