17396332
  -OEChem-06241222563D

 36 37  0     1  0  0  0  0  0999 V2000
   -3.8279    0.8630   -0.6356 S   0  0  0  0  0  0  0  0  0  0  0  0
    5.1978   -1.5181    0.5497 F   0  0  0  0  0  0  0  0  0  0  0  0
    5.0951   -0.7440   -1.4738 F   0  0  0  0  0  0  0  0  0  0  0  0
    5.6260    0.5795    0.1679 F   0  0  0  0  0  0  0  0  0  0  0  0
   -0.9935    2.7514   -0.7828 O   0  0  0  0  0  0  0  0  0  0  0  0
   -0.7001    0.8808    0.6038 N   0  0  0  0  0  0  0  0  0  0  0  0
   -3.3801   -1.8709   -0.7980 N   0  0  0  0  0  0  0  0  0  0  0  0
   -3.1204   -1.0404    1.2453 N   0  0  0  0  0  0  0  0  0  0  0  0
   -2.8683    1.9330    0.4862 C   0  0  1  0  0  0  0  0  0  0  0  0
   -1.4180    1.9169    0.0119 C   0  0  0  0  0  0  0  0  0  0  0  0
    0.6629    0.5535    0.4091 C   0  0  0  0  0  0  0  0  0  0  0  0
   -3.4516    3.3404    0.4725 C   0  0  0  0  0  0  0  0  0  0  0  0
   -3.4176   -0.7586   -0.0038 C   0  0  0  0  0  0  0  0  0  0  0  0
    3.3496   -0.0923    0.0258 C   0  0  0  0  0  0  0  0  0  0  0  0
    1.2243   -0.5271    1.0894 C   0  0  0  0  0  0  0  0  0  0  0  0
    1.4448    1.3113   -0.4627 C   0  0  0  0  0  0  0  0  0  0  0  0
    2.5676   -0.8500    0.8978 C   0  0  0  0  0  0  0  0  0  0  0  0
    2.7882    0.9884   -0.6542 C   0  0  0  0  0  0  0  0  0  0  0  0
   -3.0367   -2.9291   -0.0047 C   0  0  0  0  0  0  0  0  0  0  0  0
   -3.6464   -1.9572   -2.2162 C   0  0  0  0  0  0  0  0  0  0  0  0
   -2.8814   -2.3918    1.2515 C   0  0  0  0  0  0  0  0  0  0  0  0
    4.7856   -0.4386   -0.1789 C   0  0  0  0  0  0  0  0  0  0  0  0
   -2.9343    1.5583    1.5135 H   0  0  0  0  0  0  0  0  0  0  0  0
   -2.8620    4.0013    1.1181 H   0  0  0  0  0  0  0  0  0  0  0  0
   -4.4820    3.3479    0.8448 H   0  0  0  0  0  0  0  0  0  0  0  0
   -3.4449    3.7829   -0.5305 H   0  0  0  0  0  0  0  0  0  0  0  0
   -1.1925    0.2798    1.2604 H   0  0  0  0  0  0  0  0  0  0  0  0
    0.6255   -1.1260    1.7709 H   0  0  0  0  0  0  0  0  0  0  0  0
    1.0829    2.1600   -1.0255 H   0  0  0  0  0  0  0  0  0  0  0  0
    2.9867   -1.6956    1.4362 H   0  0  0  0  0  0  0  0  0  0  0  0
    3.3905    1.5836   -1.3356 H   0  0  0  0  0  0  0  0  0  0  0  0
   -2.9341   -3.9368   -0.3830 H   0  0  0  0  0  0  0  0  0  0  0  0
   -4.6725   -1.6286   -2.3986 H   0  0  0  0  0  0  0  0  0  0  0  0
   -2.9313   -1.3211   -2.7439 H   0  0  0  0  0  0  0  0  0  0  0  0
   -3.5289   -2.9926   -2.5470 H   0  0  0  0  0  0  0  0  0  0  0  0
   -2.6086   -2.9089    2.1598 H   0  0  0  0  0  0  0  0  0  0  0  0
  1  9  1  0  0  0  0
  1 13  1  0  0  0  0
  2 22  1  0  0  0  0
  3 22  1  0  0  0  0
  4 22  1  0  0  0  0
  5 10  2  0  0  0  0
  6 10  1  0  0  0  0
  6 11  1  0  0  0  0
  6 27  1  0  0  0  0
  7 13  1  0  0  0  0
  7 19  1  0  0  0  0
  7 20  1  0  0  0  0
  8 13  2  0  0  0  0
  8 21  1  0  0  0  0
  9 10  1  0  0  0  0
  9 12  1  0  0  0  0
  9 23  1  0  0  0  0
 11 15  2  0  0  0  0
 11 16  1  0  0  0  0
 12 24  1  0  0  0  0
 12 25  1  0  0  0  0
 12 26  1  0  0  0  0
 14 17  2  0  0  0  0
 14 18  1  0  0  0  0
 14 22  1  0  0  0  0
 15 17  1  0  0  0  0
 15 28  1  0  0  0  0
 16 18  2  0  0  0  0
 16 29  1  0  0  0  0
 17 30  1  0  0  0  0
 18 31  1  0  0  0  0
 19 21  2  0  0  0  0
 19 32  1  0  0  0  0
 20 33  1  0  0  0  0
 20 34  1  0  0  0  0
 20 35  1  0  0  0  0
 21 36  1  0  0  0  0
M  END
> <PUBCHEM_COMPOUND_CID>
17396332

> <PUBCHEM_CONFORMER_RMSD>
0.8

> <PUBCHEM_CONFORMER_DIVERSEORDER>
3
21
37
46
71
34
47
61
54
67
43
66
72
30
49
45
15
64
13
35
51
32
52
69
44
27
68
57
40
70
59
18
63
28
26
7
16
17
38
23
65
55
11
5
4
20
31
8
6
42
36
19
9
10
2
50
12
29
39
33
60
25
1
56
48
58
41
24
62
53
14
22

> <PUBCHEM_MMFF94_PARTIAL_CHARGES>
28
1 -0.29
10 0.57
11 0.12
13 0.24
14 -0.14
15 -0.15
16 -0.15
17 -0.15
18 -0.15
19 -0.3
2 -0.34
20 0.26
21 0.08
22 1.16
27 0.37
28 0.15
29 0.15
3 -0.34
30 0.15
31 0.15
32 0.15
36 0.15
4 -0.34
5 -0.57
6 -0.55
7 0.05
8 -0.57
9 0.29

> <PUBCHEM_EFFECTIVE_ROTOR_COUNT>
6

> <PUBCHEM_PHARMACOPHORE_FEATURES>
6
1 12 hydrophobe
1 5 acceptor
1 6 donor
3 7 8 13 cation
5 7 8 13 19 21 rings
6 11 14 15 16 17 18 rings

> <PUBCHEM_HEAVY_ATOM_COUNT>
22

> <PUBCHEM_ATOM_DEF_STEREO_COUNT>
0

> <PUBCHEM_ATOM_UDEF_STEREO_COUNT>
1

> <PUBCHEM_BOND_DEF_STEREO_COUNT>
0

> <PUBCHEM_BOND_UDEF_STEREO_COUNT>
0

> <PUBCHEM_ISOTOPIC_ATOM_COUNT>
0

> <PUBCHEM_COMPONENT_COUNT>
1

> <PUBCHEM_CACTVS_TAUTO_COUNT>
2

> <PUBCHEM_CONFORMER_ID>
0109726C00000003

> <PUBCHEM_MMFF94_ENERGY>
42.8667

> <PUBCHEM_FEATURE_SELFOVERLAP>
30.446

> <PUBCHEM_SHAPE_FINGERPRINT>
10616163 171 18410854382276383147
11370993 144 17240751917384267811
11552529 35 17676490531745867699
11578080 2 17605003511777373825
12553582 1 18341621369533725923
12616971 3 17274815905037526952
12633257 1 16154257300828173403
12757275 245 18411417323750431801
12788726 201 18337401551386135449
13911987 19 16977005178751225501
14251751 93 18408884057302154670
15415430 112 18342177795173264081
16752209 62 18410023129984613371
17349148 13 17418096490625829088
18927931 339 18408597059192582894
200 152 18272653428570243928
20681677 155 18337670935618607073
20775438 99 16676725237786616983
21634736 98 18200592492952930984
221490 88 18269832021751736104
23402539 116 18202565077438367632
23557571 272 18260264178925388848
23559900 14 18337119977008329753
23598288 3 18335691729147934493
23728640 28 18408882962871217969
25122255 55 17823126999428364950
3411729 13 17542778060317069801
469060 322 14332543585229706041
4921388 177 18336823182051559421
5104073 3 18410295835255180864
559249 180 18268432514952558107
574716 61 17488442127467737748
7062679 117 18411697682304618844
7495541 125 17822016385367754608
7970288 3 18120936105663962487

> <PUBCHEM_SHAPE_MULTIPOLES>
413.97
10.81
3.27
1.3
13.94
0.71
-0.39
-3.52
-1.78
-5.13
0.05
-0.78
-0.7
-0.74

> <PUBCHEM_SHAPE_SELFOVERLAP>
861.35

> <PUBCHEM_SHAPE_VOLUME>
240.4

> <PUBCHEM_COORDINATE_TYPE>
2
5
10

$$$$

