13091
  -OEChem-06261207442D

 33 36  0     0  0  0  0  0  0999 V2000
    4.5274   -0.3382    0.0000 C   0  0  0  0  0  0  0  0  0  0  0  0
    5.3364   -0.9260    0.0000 C   0  0  0  0  0  0  0  0  0  0  0  0
    3.7183   -0.9260    0.0000 C   0  0  0  0  0  0  0  0  0  0  0  0
    4.0274   -1.8770    0.0000 C   0  0  0  0  0  0  0  0  0  0  0  0
    5.0274   -1.8770    0.0000 C   0  0  0  0  0  0  0  0  0  0  0  0
    4.5274    0.6618    0.0000 C   0  0  0  0  0  0  0  0  0  0  0  0
    2.7029   -0.6937    0.0000 C   0  0  0  0  0  0  0  0  0  0  0  0
    6.3518   -0.6937    0.0000 C   0  0  0  0  0  0  0  0  0  0  0  0
    3.3424   -2.6618    0.0000 C   0  0  0  0  0  0  0  0  0  0  0  0
    5.7123   -2.6618    0.0000 C   0  0  0  0  0  0  0  0  0  0  0  0
    5.3934    1.1618    0.0000 C   0  0  0  0  0  0  0  0  0  0  0  0
    3.6613    1.1618    0.0000 C   0  0  0  0  0  0  0  0  0  0  0  0
    2.0000   -1.4624    0.0000 C   0  0  0  0  0  0  0  0  0  0  0  0
    7.0547   -1.4624    0.0000 C   0  0  0  0  0  0  0  0  0  0  0  0
    2.3219   -2.4531    0.0000 C   0  0  0  0  0  0  0  0  0  0  0  0
    6.7328   -2.4531    0.0000 C   0  0  0  0  0  0  0  0  0  0  0  0
    5.3934    2.1618    0.0000 C   0  0  0  0  0  0  0  0  0  0  0  0
    3.6613    2.1618    0.0000 C   0  0  0  0  0  0  0  0  0  0  0  0
    4.5274    2.6618    0.0000 C   0  0  0  0  0  0  0  0  0  0  0  0
    5.0798   -0.0567    0.0000 H   0  0  0  0  0  0  0  0  0  0  0  0
    2.5182   -0.1019    0.0000 H   0  0  0  0  0  0  0  0  0  0  0  0
    6.5365   -0.1019    0.0000 H   0  0  0  0  0  0  0  0  0  0  0  0
    3.5408   -3.2492    0.0000 H   0  0  0  0  0  0  0  0  0  0  0  0
    5.5139   -3.2492    0.0000 H   0  0  0  0  0  0  0  0  0  0  0  0
    5.9303    0.8518    0.0000 H   0  0  0  0  0  0  0  0  0  0  0  0
    3.1244    0.8518    0.0000 H   0  0  0  0  0  0  0  0  0  0  0  0
    1.3940   -1.3312    0.0000 H   0  0  0  0  0  0  0  0  0  0  0  0
    7.6607   -1.3312    0.0000 H   0  0  0  0  0  0  0  0  0  0  0  0
    1.9088   -2.9154    0.0000 H   0  0  0  0  0  0  0  0  0  0  0  0
    7.1459   -2.9154    0.0000 H   0  0  0  0  0  0  0  0  0  0  0  0
    5.9303    2.4718    0.0000 H   0  0  0  0  0  0  0  0  0  0  0  0
    3.1244    2.4718    0.0000 H   0  0  0  0  0  0  0  0  0  0  0  0
    4.5274    3.2818    0.0000 H   0  0  0  0  0  0  0  0  0  0  0  0
  1  2  1  0  0  0  0
  1  3  1  0  0  0  0
  1  6  1  0  0  0  0
  1 20  1  0  0  0  0
  2  5  1  0  0  0  0
  2  8  2  0  0  0  0
  3  4  1  0  0  0  0
  3  7  2  0  0  0  0
  4  5  1  0  0  0  0
  4  9  2  0  0  0  0
  5 10  2  0  0  0  0
  6 11  2  0  0  0  0
  6 12  1  0  0  0  0
  7 13  1  0  0  0  0
  7 21  1  0  0  0  0
  8 14  1  0  0  0  0
  8 22  1  0  0  0  0
  9 15  1  0  0  0  0
  9 23  1  0  0  0  0
 10 16  1  0  0  0  0
 10 24  1  0  0  0  0
 11 17  1  0  0  0  0
 11 25  1  0  0  0  0
 12 18  2  0  0  0  0
 12 26  1  0  0  0  0
 13 15  2  0  0  0  0
 13 27  1  0  0  0  0
 14 16  2  0  0  0  0
 14 28  1  0  0  0  0
 15 29  1  0  0  0  0
 16 30  1  0  0  0  0
 17 19  2  0  0  0  0
 17 31  1  0  0  0  0
 18 19  1  0  0  0  0
 18 32  1  0  0  0  0
 19 33  1  0  0  0  0
M  END
> <PUBCHEM_COMPOUND_CID>
13091

> <PUBCHEM_COMPOUND_CANONICALIZED>
1

> <PUBCHEM_CACTVS_COMPLEXITY>
279

> <PUBCHEM_CACTVS_HBOND_ACCEPTOR>
0

> <PUBCHEM_CACTVS_HBOND_DONOR>
0

> <PUBCHEM_CACTVS_ROTATABLE_BOND>
1

> <PUBCHEM_CACTVS_SUBSKEYS>
AAADccB4AAAAAAAAAAAAAAAAAAAAAYAAAAAwYMAAAAAAAGABUAAAGAAAAAAADQCAGAAwAIAAAACAAiBCAAACAAAgAAAIiAAAAIgIICKAERCAIAAggAAIiAcAgMAOgAAAAAAQAAAAAAAAACAAAQAACAAAAA==

> <PUBCHEM_IUPAC_OPENEYE_NAME>
9-phenyl-9H-fluorene

> <PUBCHEM_IUPAC_CAS_NAME>
9-phenyl-9H-fluorene

> <PUBCHEM_IUPAC_NAME>
9-phenyl-9H-fluorene

> <PUBCHEM_IUPAC_SYSTEMATIC_NAME>
9-phenyl-9H-fluorene

> <PUBCHEM_IUPAC_TRADITIONAL_NAME>
9-phenyl-9H-fluorene

> <PUBCHEM_IUPAC_INCHI>
InChI=1S/C19H14/c1-2-8-14(9-3-1)19-17-12-6-4-10-15(17)16-11-5-7-13-18(16)19/h1-13,19H

> <PUBCHEM_IUPAC_INCHIKEY>
ZJQCOVBALALRCC-UHFFFAOYSA-N

> <PUBCHEM_XLOGP3_AA>
5

> <PUBCHEM_EXACT_MASS>
242.10955

> <PUBCHEM_MOLECULAR_FORMULA>
C19H14

> <PUBCHEM_MOLECULAR_WEIGHT>
242.31446

> <PUBCHEM_OPENEYE_CAN_SMILES>
C1=CC=C(C=C1)C2C3=CC=CC=C3C4=CC=CC=C24

> <PUBCHEM_OPENEYE_ISO_SMILES>
C1=CC=C(C=C1)C2C3=CC=CC=C3C4=CC=CC=C24

> <PUBCHEM_CACTVS_TPSA>
0

> <PUBCHEM_MONOISOTOPIC_WEIGHT>
242.10955

> <PUBCHEM_TOTAL_CHARGE>
0

> <PUBCHEM_HEAVY_ATOM_COUNT>
19

> <PUBCHEM_ATOM_DEF_STEREO_COUNT>
0

> <PUBCHEM_ATOM_UDEF_STEREO_COUNT>
0

> <PUBCHEM_BOND_DEF_STEREO_COUNT>
0

> <PUBCHEM_BOND_UDEF_STEREO_COUNT>
0

> <PUBCHEM_ISOTOPIC_ATOM_COUNT>
0

> <PUBCHEM_COMPONENT_COUNT>
1

> <PUBCHEM_CACTVS_TAUTO_COUNT>
1

> <PUBCHEM_COORDINATE_TYPE>
1
5
255

> <PUBCHEM_BONDANNOTATIONS>
10  16  8
11  17  8
12  18  8
13  15  8
14  16  8
17  19  8
18  19  8
2  5  8
2  8  8
3  4  8
3  7  8
4  9  8
5  10  8
6  11  8
6  12  8
7  13  8
8  14  8
9  15  8

$$$$

