3729
  -OEChem-06251223373D

 32 32  0     1  0  0  0  0  0999 V2000
    5.4803    0.6622   -0.8117 I   0  0  0  0  0  0  0  0  0  0  0  0
   -2.8299   -0.1359    0.6169 N   0  0  0  0  0  0  0  0  0  0  0  0
   -1.5188   -0.3303   -0.0094 C   0  0  1  0  0  0  0  0  0  0  0  0
   -0.4610   -0.5852    1.0798 C   0  0  0  0  0  0  0  0  0  0  0  0
   -3.8322    0.1887   -0.3841 C   0  0  0  0  0  0  0  0  0  0  0  0
   -1.6273   -1.4873   -1.0027 C   0  0  0  0  0  0  0  0  0  0  0  0
    0.9505   -0.2885    0.6331 C   0  0  0  0  0  0  0  0  0  0  0  0
   -3.4527    1.4731   -1.1157 C   0  0  0  0  0  0  0  0  0  0  0  0
   -5.1954    0.3229    0.2873 C   0  0  0  0  0  0  0  0  0  0  0  0
    1.7023   -1.2952    0.0490 C   0  0  0  0  0  0  0  0  0  0  0  0
    1.4673    0.9845    0.8137 C   0  0  0  0  0  0  0  0  0  0  0  0
    3.0058   -1.0218   -0.3652 C   0  0  0  0  0  0  0  0  0  0  0  0
    2.7709    1.2579    0.3993 C   0  0  0  0  0  0  0  0  0  0  0  0
    3.5401    0.2548   -0.1903 C   0  0  0  0  0  0  0  0  0  0  0  0
   -1.2002    0.5731   -0.5394 H   0  0  0  0  0  0  0  0  0  0  0  0
   -0.5279   -1.6170    1.4510 H   0  0  0  0  0  0  0  0  0  0  0  0
   -0.6698    0.0458    1.9558 H   0  0  0  0  0  0  0  0  0  0  0  0
   -3.9663   -0.6147   -1.1152 H   0  0  0  0  0  0  0  0  0  0  0  0
   -3.1012   -0.9788    1.1228 H   0  0  0  0  0  0  0  0  0  0  0  0
   -2.1821   -1.2220   -1.9077 H   0  0  0  0  0  0  0  0  0  0  0  0
   -2.0902   -2.3731   -0.5524 H   0  0  0  0  0  0  0  0  0  0  0  0
   -0.6391   -1.7918   -1.3596 H   0  0  0  0  0  0  0  0  0  0  0  0
   -4.3079    1.8489   -1.6901 H   0  0  0  0  0  0  0  0  0  0  0  0
   -3.1610    2.2682   -0.4198 H   0  0  0  0  0  0  0  0  0  0  0  0
   -2.6459    1.3256   -1.8401 H   0  0  0  0  0  0  0  0  0  0  0  0
   -5.4801   -0.6066    0.7931 H   0  0  0  0  0  0  0  0  0  0  0  0
   -5.9728    0.5479   -0.4512 H   0  0  0  0  0  0  0  0  0  0  0  0
   -5.1984    1.1277    1.0313 H   0  0  0  0  0  0  0  0  0  0  0  0
    1.3020   -2.2961   -0.0825 H   0  0  0  0  0  0  0  0  0  0  0  0
    0.8751    1.7731    1.2689 H   0  0  0  0  0  0  0  0  0  0  0  0
    3.5887   -1.8187   -0.8204 H   0  0  0  0  0  0  0  0  0  0  0  0
    3.1672    2.2598    0.5440 H   0  0  0  0  0  0  0  0  0  0  0  0
  1 14  1  0  0  0  0
  2  3  1  0  0  0  0
  2  5  1  0  0  0  0
  2 19  1  0  0  0  0
  3  4  1  0  0  0  0
  3  6  1  0  0  0  0
  3 15  1  0  0  0  0
  4  7  1  0  0  0  0
  4 16  1  0  0  0  0
  4 17  1  0  0  0  0
  5  8  1  0  0  0  0
  5  9  1  0  0  0  0
  5 18  1  0  0  0  0
  6 20  1  0  0  0  0
  6 21  1  0  0  0  0
  6 22  1  0  0  0  0
  7 10  2  0  0  0  0
  7 11  1  0  0  0  0
  8 23  1  0  0  0  0
  8 24  1  0  0  0  0
  8 25  1  0  0  0  0
  9 26  1  0  0  0  0
  9 27  1  0  0  0  0
  9 28  1  0  0  0  0
 10 12  1  0  0  0  0
 10 29  1  0  0  0  0
 11 13  2  0  0  0  0
 11 30  1  0  0  0  0
 12 14  2  0  0  0  0
 12 31  1  0  0  0  0
 13 14  1  0  0  0  0
 13 32  1  0  0  0  0
M  END
> <PUBCHEM_COMPOUND_CID>
3729

> <PUBCHEM_CONFORMER_RMSD>
0.6

> <PUBCHEM_CONFORMER_DIVERSEORDER>
3
10
12
1
2
7
13
14
11
4
5
9
6
15
8
16

> <PUBCHEM_MMFF94_PARTIAL_CHARGES>
16
1 -0.08
10 -0.15
11 -0.15
12 -0.15
13 -0.15
14 0.08
19 0.36
2 -0.9
29 0.15
3 0.27
30 0.15
31 0.15
32 0.15
4 0.14
5 0.27
7 -0.14

> <PUBCHEM_EFFECTIVE_ROTOR_COUNT>
4

> <PUBCHEM_PHARMACOPHORE_FEATURES>
5
1 1 hydrophobe
1 2 cation
1 2 donor
3 5 8 9 hydrophobe
6 7 10 11 12 13 14 rings

> <PUBCHEM_HEAVY_ATOM_COUNT>
14

> <PUBCHEM_ATOM_DEF_STEREO_COUNT>
0

> <PUBCHEM_ATOM_UDEF_STEREO_COUNT>
1

> <PUBCHEM_BOND_DEF_STEREO_COUNT>
0

> <PUBCHEM_BOND_UDEF_STEREO_COUNT>
0

> <PUBCHEM_ISOTOPIC_ATOM_COUNT>
0

> <PUBCHEM_COMPONENT_COUNT>
1

> <PUBCHEM_CACTVS_TAUTO_COUNT>
1

> <PUBCHEM_CONFORMER_ID>
00000E9100000003

> <PUBCHEM_MMFF94_ENERGY>
23.3438

> <PUBCHEM_FEATURE_SELFOVERLAP>
25.371

> <PUBCHEM_SHAPE_FINGERPRINT>
100836 57 17988918960018035932
10498660 4 17631179747971035725
11401426 45 18187082828759551480
11471102 20 18335419080238897842
12670543 26 18336253627187302580
12815109 37 5689596082492309132
12916748 109 17561358500047837732
13081056 2 18344148098588253461
14115302 16 16950283975098680062
14251752 14 16009019648560549905
14252887 29 11815907768806061784
14911166 2 17894627046090573162
14993402 34 17458340840884512038
15048467 5 17774997956728462764
17834072 14 8430312450693772111
17834072 8 18040990735814554876
18186145 218 17821740428880472617
200 152 16370720431368132312
20374829 77 5256404989506935085
20645476 183 18040721333358352559
20645477 56 18343864394417780835
20645477 70 18260823856287920958
20871999 31 18188215295086399167
21119208 17 17894628141249159398
212847 35 18130792278223476376
21637258 2 14635141387533449780
221357 26 18334017219972611429
22485316 2 5256402799089373248
231179 274 18341896298869240956
23402539 116 17989210309282666166
23402655 69 18334576866789752748
23557571 272 17845640448371586522
23559900 14 17168147785438636480
25 1 18411139147219089690
26918003 58 9151172047803477789
2916195 48 17632296744352449652
3060560 45 18040151816900660222
3545911 37 18409164394101780907
4028521 119 18342179985411652957
4047638 21 17346595270998899130
4072396 5 18409457994805175850
42 15 9223232953013296987
465052 167 7853574613144858924
522135 26 18260831526735092315
5374978 207 11312056556407850103
93112 12 18041001700127472506
9882013 296 14405186192272784085

> <PUBCHEM_SHAPE_MULTIPOLES>
295.07
10.85
1.41
1.07
0.66
0
0.07
3.74
2.7
-0.07
0.25
0.06
0.05
0.26

> <PUBCHEM_SHAPE_SELFOVERLAP>
568.444

> <PUBCHEM_SHAPE_VOLUME>
184.5

> <PUBCHEM_COORDINATE_TYPE>
2
5
10

$$$$

