11310
  -OEChem-06261205313D

 33 34  0     0  0  0  0  0  0999 V2000
   -2.7145    0.2809   -0.5419 O   0  0  0  0  0  0  0  0  0  0  0  0
    2.7954    0.6187   -0.6157 O   0  0  0  0  0  0  0  0  0  0  0  0
   -2.6571    0.6318    1.7719 O   0  0  0  0  0  0  0  0  0  0  0  0
    2.7589    0.9662    1.6991 O   0  0  0  0  0  0  0  0  0  0  0  0
   -0.5896   -0.8407   -0.3815 C   0  0  0  0  0  0  0  0  0  0  0  0
    0.8232   -0.7583   -0.3998 C   0  0  0  0  0  0  0  0  0  0  0  0
   -1.3480    0.3285   -0.5555 C   0  0  0  0  0  0  0  0  0  0  0  0
   -0.7225    1.5612   -0.7446 C   0  0  0  0  0  0  0  0  0  0  0  0
    1.4359    0.4907   -0.5914 C   0  0  0  0  0  0  0  0  0  0  0  0
    0.6668    1.6420   -0.7625 C   0  0  0  0  0  0  0  0  0  0  0  0
   -1.2024   -2.0898   -0.1899 C   0  0  0  0  0  0  0  0  0  0  0  0
    1.5815   -1.9275   -0.2258 C   0  0  0  0  0  0  0  0  0  0  0  0
   -1.5253    2.8071   -0.9294 C   0  0  0  0  0  0  0  0  0  0  0  0
   -0.4333   -3.2411   -0.0187 C   0  0  0  0  0  0  0  0  0  0  0  0
    0.9560   -3.1601   -0.0366 C   0  0  0  0  0  0  0  0  0  0  0  0
   -3.2758    0.4535    0.7311 C   0  0  0  0  0  0  0  0  0  0  0  0
    3.3667    0.8636    0.6417 C   0  0  0  0  0  0  0  0  0  0  0  0
   -4.7715    0.3854    0.6403 C   0  0  0  0  0  0  0  0  0  0  0  0
    4.8556    0.9879    0.5094 C   0  0  0  0  0  0  0  0  0  0  0  0
    1.1614    2.5996   -0.9085 H   0  0  0  0  0  0  0  0  0  0  0  0
   -2.2849   -2.1934   -0.1745 H   0  0  0  0  0  0  0  0  0  0  0  0
    2.6688   -1.9034   -0.2382 H   0  0  0  0  0  0  0  0  0  0  0  0
   -1.9836    3.1080    0.0180 H   0  0  0  0  0  0  0  0  0  0  0  0
   -0.9059    3.6394   -1.2812 H   0  0  0  0  0  0  0  0  0  0  0  0
   -2.3103    2.6571   -1.6781 H   0  0  0  0  0  0  0  0  0  0  0  0
   -0.9194   -4.2014    0.1274 H   0  0  0  0  0  0  0  0  0  0  0  0
    1.5539   -4.0571    0.0955 H   0  0  0  0  0  0  0  0  0  0  0  0
   -5.1377    1.1800   -0.0144 H   0  0  0  0  0  0  0  0  0  0  0  0
   -5.2022    0.5264    1.6356 H   0  0  0  0  0  0  0  0  0  0  0  0
   -5.0739   -0.5949    0.2638 H   0  0  0  0  0  0  0  0  0  0  0  0
    5.2695    0.0575    0.1128 H   0  0  0  0  0  0  0  0  0  0  0  0
    5.2932    1.1730    1.4945 H   0  0  0  0  0  0  0  0  0  0  0  0
    5.0991    1.8284   -0.1451 H   0  0  0  0  0  0  0  0  0  0  0  0
  1  7  1  0  0  0  0
  1 16  1  0  0  0  0
  2  9  1  0  0  0  0
  2 17  1  0  0  0  0
  3 16  2  0  0  0  0
  4 17  2  0  0  0  0
  5  6  1  0  0  0  0
  5  7  1  0  0  0  0
  5 11  2  0  0  0  0
  6  9  1  0  0  0  0
  6 12  2  0  0  0  0
  7  8  2  0  0  0  0
  8 10  1  0  0  0  0
  8 13  1  0  0  0  0
  9 10  2  0  0  0  0
 10 20  1  0  0  0  0
 11 14  1  0  0  0  0
 11 21  1  0  0  0  0
 12 15  1  0  0  0  0
 12 22  1  0  0  0  0
 13 23  1  0  0  0  0
 13 24  1  0  0  0  0
 13 25  1  0  0  0  0
 14 15  2  0  0  0  0
 14 26  1  0  0  0  0
 15 27  1  0  0  0  0
 16 18  1  0  0  0  0
 17 19  1  0  0  0  0
 18 28  1  0  0  0  0
 18 29  1  0  0  0  0
 18 30  1  0  0  0  0
 19 31  1  0  0  0  0
 19 32  1  0  0  0  0
 19 33  1  0  0  0  0
M  END
> <PUBCHEM_COMPOUND_CID>
11310

> <PUBCHEM_CONFORMER_RMSD>
0.6

> <PUBCHEM_CONFORMER_DIVERSEORDER>
1
28
19
31
33
20
7
18
16
27
6
5
3
32
25
21
12
14
24
23
30
11
22
8
17
26
2
29
15
10
9
4
13

> <PUBCHEM_MMFF94_PARTIAL_CHARGES>
22
1 -0.23
10 -0.15
11 -0.15
12 -0.15
13 0.14
14 -0.15
15 -0.15
16 0.66
17 0.66
18 0.06
19 0.06
2 -0.23
20 0.15
21 0.15
22 0.15
26 0.15
27 0.15
3 -0.57
4 -0.57
7 0.08
8 -0.14
9 0.08

> <PUBCHEM_EFFECTIVE_ROTOR_COUNT>
4

> <PUBCHEM_PHARMACOPHORE_FEATURES>
4
1 3 acceptor
1 4 acceptor
6 5 6 11 12 14 15 rings
6 5 6 7 8 9 10 rings

> <PUBCHEM_HEAVY_ATOM_COUNT>
19

> <PUBCHEM_ATOM_DEF_STEREO_COUNT>
0

> <PUBCHEM_ATOM_UDEF_STEREO_COUNT>
0

> <PUBCHEM_BOND_DEF_STEREO_COUNT>
0

> <PUBCHEM_BOND_UDEF_STEREO_COUNT>
0

> <PUBCHEM_ISOTOPIC_ATOM_COUNT>
0

> <PUBCHEM_COMPONENT_COUNT>
1

> <PUBCHEM_CACTVS_TAUTO_COUNT>
1

> <PUBCHEM_CONFORMER_ID>
00002C2E00000001

> <PUBCHEM_MMFF94_ENERGY>
61.8685

> <PUBCHEM_FEATURE_SELFOVERLAP>
20.324

> <PUBCHEM_SHAPE_FINGERPRINT>
10382601 240 18340195409830869147
10493431 412 18336825299291062273
10693767 8 10663548028610456665
10967382 1 18412820313451368071
11132069 177 18411133615195457533
11578080 2 17464016614782059545
11680986 33 17908993445086201597
12382932 28 18412543171837916571
12633257 1 18262254226605504696
13140716 1 18196933266684572828
13172582 1 18270679766380241028
14022349 108 18340773757606251202
14178342 30 18339344311175420531
14223421 5 18124874809605858981
14648413 74 17764597907283301004
14787075 74 17677617450018876089
14790565 3 18268971155450243629
15042514 8 18270683043857272458
15209294 21 18113334223680835857
15295992 7 17531538555677126808
15309172 13 18412263925991657940
16945 1 18341894082270685596
19591789 44 18267297815074951246
19784866 170 18342171198014086325
20028762 73 17973154037983257687
20261772 1 18343301427405887728
204376 136 18410571756068738260
20510252 161 17901952941642603090
21524375 3 18259706696391267974
21731228 192 18409168783743201170
22112679 90 17984138163164465004
22182313 1 18199752629267453597
22224240 67 18335704910159602505
2334 1 17836644128253149644
23402539 116 18117853096328189671
23419403 2 17342961534797577407
23559900 14 17842833601512836941
23598294 1 18055345834777295366
2748010 2 18126850636016449869
3250762 1 17765718305595701749
33824 294 18340762736899277067
350125 39 18195240238116256324
392239 28 17823403921517825803
427121 178 18187069659651499835
4340502 62 18261103068148734339
465052 167 17560508509378063337
495365 180 17976562798600704141
5104073 3 18195232533609748241
568465 68 18267284487643576553
7364860 26 17976268150827090134
81228 2 17977678510797550262
90316 7 18129119839375559444

> <PUBCHEM_SHAPE_MULTIPOLES>
367.53
6.36
3.2
1.12
0.63
2.47
-0.39
-3.4
-2.9
0.16
0.61
-0.12
-0.47
0.42

> <PUBCHEM_SHAPE_SELFOVERLAP>
793.242

> <PUBCHEM_SHAPE_VOLUME>
200.3

> <PUBCHEM_COORDINATE_TYPE>
2
5
10

$$$$

