17395825
  -OEChem-06241222522D

 54 57  0     1  0  0  0  0  0999 V2000
    4.9889    1.7110    0.0000 O   0  0  0  0  0  0  0  0  0  0  0  0
    4.9889   -1.7995    0.0000 O   0  0  0  0  0  0  0  0  0  0  0  0
   10.4329    1.9578    0.0000 O   0  0  0  0  0  0  0  0  0  0  0  0
    5.2619   -0.0443    0.0000 N   0  0  0  0  0  0  0  0  0  0  0  0
    6.7619   -0.9103    0.0000 N   0  0  3  0  0  0  0  0  0  0  0  0
    3.7320    0.4557    0.0000 C   0  0  3  0  0  0  0  0  0  0  0  0
    3.7320   -0.5443    0.0000 C   0  0  3  0  0  0  0  0  0  0  0  0
    2.8660   -1.0443    0.0000 C   0  0  0  0  0  0  0  0  0  0  0  0
    2.8660    0.9557    0.0000 C   0  0  0  0  0  0  0  0  0  0  0  0
    2.0000    0.4557    0.0000 C   0  0  0  0  0  0  0  0  0  0  0  0
    2.0000   -0.5443    0.0000 C   0  0  0  0  0  0  0  0  0  0  0  0
    4.6783    0.7605    0.0000 C   0  0  0  0  0  0  0  0  0  0  0  0
    4.6783   -0.8490    0.0000 C   0  0  0  0  0  0  0  0  0  0  0  0
    6.2619   -0.0443    0.0000 C   0  0  0  0  0  0  0  0  0  0  0  0
    7.7564   -1.0148    0.0000 C   0  0  3  0  0  0  0  0  0  0  0  0
    6.3551   -1.8238    0.0000 C   0  0  0  0  0  0  0  0  0  0  0  0
    7.9643   -1.9930    0.0000 C   0  0  0  0  0  0  0  0  0  0  0  0
    7.0983   -2.4930    0.0000 C   0  0  0  0  0  0  0  0  0  0  0  0
    8.4255   -0.2717    0.0000 C   0  0  0  0  0  0  0  0  0  0  0  0
    8.1165    0.6794    0.0000 C   0  0  0  0  0  0  0  0  0  0  0  0
    9.4037   -0.4796    0.0000 C   0  0  0  0  0  0  0  0  0  0  0  0
    8.7856    1.4225    0.0000 C   0  0  0  0  0  0  0  0  0  0  0  0
   10.0728    0.2635    0.0000 C   0  0  0  0  0  0  0  0  0  0  0  0
    9.7638    1.2146    0.0000 C   0  0  0  0  0  0  0  0  0  0  0  0
   11.4111    1.7498    0.0000 C   0  0  0  0  0  0  0  0  0  0  0  0
   12.0802    2.4930    0.0000 C   0  0  0  0  0  0  0  0  0  0  0  0
    3.7977    1.0722    0.0000 H   0  0  0  0  0  0  0  0  0  0  0  0
    3.7977   -1.1608    0.0000 H   0  0  0  0  0  0  0  0  0  0  0  0
    3.2646    1.4307    0.0000 H   0  0  0  0  0  0  0  0  0  0  0  0
    2.4675    1.4307    0.0000 H   0  0  0  0  0  0  0  0  0  0  0  0
    2.4675   -1.5192    0.0000 H   0  0  0  0  0  0  0  0  0  0  0  0
    3.2646   -1.5192    0.0000 H   0  0  0  0  0  0  0  0  0  0  0  0
    1.7880    1.0383    0.0000 H   0  0  0  0  0  0  0  0  0  0  0  0
    1.3894    0.3481    0.0000 H   0  0  0  0  0  0  0  0  0  0  0  0
    1.3894   -0.4366    0.0000 H   0  0  0  0  0  0  0  0  0  0  0  0
    1.7880   -1.1269    0.0000 H   0  0  0  0  0  0  0  0  0  0  0  0
    6.8445    0.1678    0.0000 H   0  0  0  0  0  0  0  0  0  0  0  0
    6.1542    0.5663    0.0000 H   0  0  0  0  0  0  0  0  0  0  0  0
    7.5342   -0.4360    0.0000 H   0  0  0  0  0  0  0  0  0  0  0  0
    5.8182   -1.5138    0.0000 H   0  0  0  0  0  0  0  0  0  0  0  0
    5.9907   -2.3254    0.0000 H   0  0  0  0  0  0  0  0  0  0  0  0
    8.2165   -2.5594    0.0000 H   0  0  0  0  0  0  0  0  0  0  0  0
    8.5540   -1.8014    0.0000 H   0  0  0  0  0  0  0  0  0  0  0  0
    6.6375   -2.9078    0.0000 H   0  0  0  0  0  0  0  0  0  0  0  0
    7.4627   -2.9946    0.0000 H   0  0  0  0  0  0  0  0  0  0  0  0
    7.5101    0.8083    0.0000 H   0  0  0  0  0  0  0  0  0  0  0  0
    9.5953   -1.0692    0.0000 H   0  0  0  0  0  0  0  0  0  0  0  0
    8.5941    2.0122    0.0000 H   0  0  0  0  0  0  0  0  0  0  0  0
   10.6793    0.1346    0.0000 H   0  0  0  0  0  0  0  0  0  0  0  0
   11.1788    1.1750    0.0000 H   0  0  0  0  0  0  0  0  0  0  0  0
   11.9369    1.4213    0.0000 H   0  0  0  0  0  0  0  0  0  0  0  0
   12.5410    2.0781    0.0000 H   0  0  0  0  0  0  0  0  0  0  0  0
   12.4951    2.9537    0.0000 H   0  0  0  0  0  0  0  0  0  0  0  0
   11.6195    2.9078    0.0000 H   0  0  0  0  0  0  0  0  0  0  0  0
  1 12  2  0  0  0  0
  2 13  2  0  0  0  0
  3 24  1  0  0  0  0
  3 25  1  0  0  0  0
  4 12  1  0  0  0  0
  4 13  1  0  0  0  0
  4 14  1  0  0  0  0
  5 14  1  0  0  0  0
  5 15  1  0  0  0  0
  5 16  1  0  0  0  0
  6  7  1  0  0  0  0
  6  9  1  0  0  0  0
  6 12  1  0  0  0  0
  6 27  1  0  0  0  0
  7  8  1  0  0  0  0
  7 13  1  0  0  0  0
  7 28  1  0  0  0  0
  8 11  1  0  0  0  0
  8 31  1  0  0  0  0
  8 32  1  0  0  0  0
  9 10  1  0  0  0  0
  9 29  1  0  0  0  0
  9 30  1  0  0  0  0
 10 11  1  0  0  0  0
 10 33  1  0  0  0  0
 10 34  1  0  0  0  0
 11 35  1  0  0  0  0
 11 36  1  0  0  0  0
 14 37  1  0  0  0  0
 14 38  1  0  0  0  0
 15 17  1  0  0  0  0
 15 19  1  0  0  0  0
 15 39  1  0  0  0  0
 16 18  1  0  0  0  0
 16 40  1  0  0  0  0
 16 41  1  0  0  0  0
 17 18  1  0  0  0  0
 17 42  1  0  0  0  0
 17 43  1  0  0  0  0
 18 44  1  0  0  0  0
 18 45  1  0  0  0  0
 19 20  2  0  0  0  0
 19 21  1  0  0  0  0
 20 22  1  0  0  0  0
 20 46  1  0  0  0  0
 21 23  2  0  0  0  0
 21 47  1  0  0  0  0
 22 24  2  0  0  0  0
 22 48  1  0  0  0  0
 23 24  1  0  0  0  0
 23 49  1  0  0  0  0
 25 26  1  0  0  0  0
 25 50  1  0  0  0  0
 25 51  1  0  0  0  0
 26 52  1  0  0  0  0
 26 53  1  0  0  0  0
 26 54  1  0  0  0  0
M  END
> <PUBCHEM_COMPOUND_CID>
17395825

> <PUBCHEM_COMPOUND_CANONICALIZED>
1

> <PUBCHEM_CACTVS_COMPLEXITY>
505

> <PUBCHEM_CACTVS_HBOND_ACCEPTOR>
4

> <PUBCHEM_CACTVS_HBOND_DONOR>
0

> <PUBCHEM_CACTVS_ROTATABLE_BOND>
5

> <PUBCHEM_CACTVS_SUBSKEYS>
AAADceB7MAAAAAAAAAAAAAAAAAAAAWLAAAAwYAAAAAAAAFgBAAAAHgAAAAAADSzhmAYzBoMABACIAiFSEACCCAAgIAAIiAEODIiMJjKEsRuGOCjsxzOIqAed2KOOoAAAAAAAAABAAAAAACAAAAAAAAAAAA==

> <PUBCHEM_IUPAC_OPENEYE_NAME>
2-[[2-(4-ethoxyphenyl)pyrrolidin-1-yl]methyl]-3a,4,5,6,7,7a-hexahydroisoindole-1,3-dione

> <PUBCHEM_IUPAC_CAS_NAME>
2-[[2-(4-ethoxyphenyl)-1-pyrrolidinyl]methyl]-3a,4,5,6,7,7a-hexahydroisoindole-1,3-dione

> <PUBCHEM_IUPAC_NAME>
2-[[2-(4-ethoxyphenyl)pyrrolidin-1-yl]methyl]-3a,4,5,6,7,7a-hexahydroisoindole-1,3-dione

> <PUBCHEM_IUPAC_SYSTEMATIC_NAME>
2-[[2-(4-ethoxyphenyl)pyrrolidin-1-yl]methyl]-3a,4,5,6,7,7a-hexahydroisoindole-1,3-dione

> <PUBCHEM_IUPAC_TRADITIONAL_NAME>
2-[(2-p-phenetylpyrrolidino)methyl]-3a,4,5,6,7,7a-hexahydroisoindole-1,3-quinone

> <PUBCHEM_IUPAC_INCHI>
InChI=1S/C21H28N2O3/c1-2-26-16-11-9-15(10-12-16)19-8-5-13-22(19)14-23-20(24)17-6-3-4-7-18(17)21(23)25/h9-12,17-19H,2-8,13-14H2,1H3

> <PUBCHEM_IUPAC_INCHIKEY>
RJIRJPQNPOTIBY-UHFFFAOYSA-N

> <PUBCHEM_XLOGP3_AA>
3.3

> <PUBCHEM_EXACT_MASS>
356.209993

> <PUBCHEM_MOLECULAR_FORMULA>
C21H28N2O3

> <PUBCHEM_MOLECULAR_WEIGHT>
356.45862

> <PUBCHEM_OPENEYE_CAN_SMILES>
CCOC1=CC=C(C=C1)C2CCCN2CN3C(=O)C4CCCCC4C3=O

> <PUBCHEM_OPENEYE_ISO_SMILES>
CCOC1=CC=C(C=C1)C2CCCN2CN3C(=O)C4CCCCC4C3=O

> <PUBCHEM_CACTVS_TPSA>
49.8

> <PUBCHEM_MONOISOTOPIC_WEIGHT>
356.209993

> <PUBCHEM_TOTAL_CHARGE>
0

> <PUBCHEM_HEAVY_ATOM_COUNT>
26

> <PUBCHEM_ATOM_DEF_STEREO_COUNT>
0

> <PUBCHEM_ATOM_UDEF_STEREO_COUNT>
3

> <PUBCHEM_BOND_DEF_STEREO_COUNT>
0

> <PUBCHEM_BOND_UDEF_STEREO_COUNT>
0

> <PUBCHEM_ISOTOPIC_ATOM_COUNT>
0

> <PUBCHEM_COMPONENT_COUNT>
1

> <PUBCHEM_CACTVS_TAUTO_COUNT>
3

> <PUBCHEM_COORDINATE_TYPE>
1
5
255

> <PUBCHEM_BONDANNOTATIONS>
15  19  3
19  20  8
19  21  8
20  22  8
21  23  8
22  24  8
23  24  8
6  9  3
7  8  3

$$$$

