47205121
  -OEChem-06241222582D

 27 28  0     0  0  0  0  0  0999 V2000
    2.0000   -0.5000    0.0000 Br  0  0  0  0  0  0  0  0  0  0  0  0
    3.7320    0.5000    0.0000 S   0  0  0  0  0  0  0  0  0  0  0  0
    3.7320   -3.5000    0.0000 F   0  0  0  0  0  0  0  0  0  0  0  0
    3.7320    1.5000    0.0000 O   0  0  0  0  0  0  0  0  0  0  0  0
    4.7320    0.5000    0.0000 O   0  0  0  0  0  0  0  0  0  0  0  0
    2.7320    0.5000    0.0000 O   0  0  0  0  0  0  0  0  0  0  0  0
    5.4641   -0.5000    0.0000 N   0  0  0  0  0  0  0  0  0  0  0  0
    3.7320   -0.5000    0.0000 C   0  0  0  0  0  0  0  0  0  0  0  0
    2.8660   -1.0000    0.0000 C   0  0  0  0  0  0  0  0  0  0  0  0
    4.5981   -1.0000    0.0000 C   0  0  0  0  0  0  0  0  0  0  0  0
    4.5981    2.0000    0.0000 C   0  0  0  0  0  0  0  0  0  0  0  0
    2.8660   -2.0000    0.0000 C   0  0  0  0  0  0  0  0  0  0  0  0
    4.5981   -2.0000    0.0000 C   0  0  0  0  0  0  0  0  0  0  0  0
    5.4641    1.5000    0.0000 C   0  0  0  0  0  0  0  0  0  0  0  0
    3.7320   -2.5000    0.0000 C   0  0  0  0  0  0  0  0  0  0  0  0
    4.5981    3.0000    0.0000 C   0  0  0  0  0  0  0  0  0  0  0  0
    6.3301    2.0000    0.0000 C   0  0  0  0  0  0  0  0  0  0  0  0
    5.4641    3.5000    0.0000 C   0  0  0  0  0  0  0  0  0  0  0  0
    6.3301    3.0000    0.0000 C   0  0  0  0  0  0  0  0  0  0  0  0
    5.4641    0.5000    0.0000 C   0  0  0  0  0  0  0  0  0  0  0  0
    5.1350   -0.6900    0.0000 H   0  0  0  0  0  0  0  0  0  0  0  0
    2.3291   -2.3100    0.0000 H   0  0  0  0  0  0  0  0  0  0  0  0
    5.1350   -2.3100    0.0000 H   0  0  0  0  0  0  0  0  0  0  0  0
    4.0611    3.3100    0.0000 H   0  0  0  0  0  0  0  0  0  0  0  0
    6.8671    1.6900    0.0000 H   0  0  0  0  0  0  0  0  0  0  0  0
    5.4641    4.1200    0.0000 H   0  0  0  0  0  0  0  0  0  0  0  0
    6.8671    3.3100    0.0000 H   0  0  0  0  0  0  0  0  0  0  0  0
  1  9  1  0  0  0  0
  2  4  1  0  0  0  0
  2  5  2  0  0  0  0
  2  6  2  0  0  0  0
  2  8  1  0  0  0  0
  3 15  1  0  0  0  0
  4 11  1  0  0  0  0
  7 20  3  0  0  0  0
  8  9  2  0  0  0  0
  8 10  1  0  0  0  0
  9 12  1  0  0  0  0
 10 13  2  0  0  0  0
 10 21  1  0  0  0  0
 11 14  1  0  0  0  0
 11 16  2  0  0  0  0
 12 15  2  0  0  0  0
 12 22  1  0  0  0  0
 13 15  1  0  0  0  0
 13 23  1  0  0  0  0
 14 17  2  0  0  0  0
 14 20  1  0  0  0  0
 16 18  1  0  0  0  0
 16 24  1  0  0  0  0
 17 19  1  0  0  0  0
 17 25  1  0  0  0  0
 18 19  2  0  0  0  0
 18 26  1  0  0  0  0
 19 27  1  0  0  0  0
M  END
> <PUBCHEM_COMPOUND_CID>
47205121

> <PUBCHEM_COMPOUND_CANONICALIZED>
1

> <PUBCHEM_CACTVS_COMPLEXITY>
484

> <PUBCHEM_CACTVS_HBOND_ACCEPTOR>
5

> <PUBCHEM_CACTVS_HBOND_DONOR>
0

> <PUBCHEM_CACTVS_ROTATABLE_BOND>
3

> <PUBCHEM_CACTVS_SUBSKEYS>
AAADcYByMQBAEAAAAAAAAAAAAAAAAAAAAAAwYAAAAAAAAAABQAAAHwRAAAABrASB2AgwB4AAAAKQBiBCAHBiAEAgIAQIiBgGCKgIpiKAERKAMAAkwBEIih+AwCAOAAAAAAAIAEAAAAAAABAAgAAAAAAAAA==

> <PUBCHEM_IUPAC_OPENEYE_NAME>
(2-cyanophenyl) 2-bromo-4-fluoro-benzenesulfonate

> <PUBCHEM_IUPAC_CAS_NAME>
2-bromo-4-fluorobenzenesulfonic acid (2-cyanophenyl) ester

> <PUBCHEM_IUPAC_NAME>
(2-cyanophenyl) 2-bromo-4-fluorobenzenesulfonate

> <PUBCHEM_IUPAC_SYSTEMATIC_NAME>
(2-cyanophenyl) 2-bromanyl-4-fluoranyl-benzenesulfonate

> <PUBCHEM_IUPAC_TRADITIONAL_NAME>
2-bromo-4-fluoro-benzenesulfonic acid (2-cyanophenyl) ester

> <PUBCHEM_IUPAC_INCHI>
InChI=1S/C13H7BrFNO3S/c14-11-7-10(15)5-6-13(11)20(17,18)19-12-4-2-1-3-9(12)8-16/h1-7H

> <PUBCHEM_IUPAC_INCHIKEY>
RMHJMEFSBRMNNP-UHFFFAOYSA-N

> <PUBCHEM_XLOGP3_AA>
3.5

> <PUBCHEM_EXACT_MASS>
354.931404

> <PUBCHEM_MOLECULAR_FORMULA>
C13H7BrFNO3S

> <PUBCHEM_MOLECULAR_WEIGHT>
356.166983

> <PUBCHEM_OPENEYE_CAN_SMILES>
C1=CC=C(C(=C1)C#N)OS(=O)(=O)C2=C(C=C(C=C2)F)Br

> <PUBCHEM_OPENEYE_ISO_SMILES>
C1=CC=C(C(=C1)C#N)OS(=O)(=O)C2=C(C=C(C=C2)F)Br

> <PUBCHEM_CACTVS_TPSA>
75.5

> <PUBCHEM_MONOISOTOPIC_WEIGHT>
354.931404

> <PUBCHEM_TOTAL_CHARGE>
0

> <PUBCHEM_HEAVY_ATOM_COUNT>
20

> <PUBCHEM_ATOM_DEF_STEREO_COUNT>
0

> <PUBCHEM_ATOM_UDEF_STEREO_COUNT>
0

> <PUBCHEM_BOND_DEF_STEREO_COUNT>
0

> <PUBCHEM_BOND_UDEF_STEREO_COUNT>
0

> <PUBCHEM_ISOTOPIC_ATOM_COUNT>
0

> <PUBCHEM_COMPONENT_COUNT>
1

> <PUBCHEM_CACTVS_TAUTO_COUNT>
1

> <PUBCHEM_COORDINATE_TYPE>
1
5
255

> <PUBCHEM_BONDANNOTATIONS>
10  13  8
11  14  8
11  16  8
12  15  8
13  15  8
14  17  8
16  18  8
17  19  8
18  19  8
8  10  8
8  9  8
9  12  8

$$$$

