7493
  -OEChem-06261202063D

 17 17  0     0  0  0  0  0  0999 V2000
    3.3094    1.2606   -0.0009 O   0  0  0  0  0  0  0  0  0  0  0  0
   -3.2868    1.2481    0.0011 O   0  0  0  0  0  0  0  0  0  0  0  0
    3.5786   -0.9964    0.0007 O   0  0  0  0  0  0  0  0  0  0  0  0
   -3.5527   -1.0093   -0.0004 O   0  0  0  0  0  0  0  0  0  0  0  0
   -0.7281    1.1287   -0.0002 N   0  0  0  0  0  0  0  0  0  0  0  0
    1.3766   -0.0609    0.0000 C   0  0  0  0  0  0  0  0  0  0  0  0
    0.6988   -1.2749    0.0000 C   0  0  0  0  0  0  0  0  0  0  0  0
   -1.3521   -0.0706   -0.0001 C   0  0  0  0  0  0  0  0  0  0  0  0
   -0.6916   -1.2886   -0.0002 C   0  0  0  0  0  0  0  0  0  0  0  0
    0.6236    1.1023    0.0000 C   0  0  0  0  0  0  0  0  0  0  0  0
    2.8282   -0.0136    0.0004 C   0  0  0  0  0  0  0  0  0  0  0  0
   -2.8041   -0.0253   -0.0003 C   0  0  0  0  0  0  0  0  0  0  0  0
    1.2368   -2.2190    0.0000 H   0  0  0  0  0  0  0  0  0  0  0  0
   -1.2236   -2.2340   -0.0003 H   0  0  0  0  0  0  0  0  0  0  0  0
    1.0705    2.0913    0.0001 H   0  0  0  0  0  0  0  0  0  0  0  0
    4.2903    1.2800   -0.0012 H   0  0  0  0  0  0  0  0  0  0  0  0
   -4.2677    1.2663    0.0015 H   0  0  0  0  0  0  0  0  0  0  0  0
  1 11  1  0  0  0  0
  1 16  1  0  0  0  0
  2 12  1  0  0  0  0
  2 17  1  0  0  0  0
  3 11  2  0  0  0  0
  4 12  2  0  0  0  0
  5  8  2  0  0  0  0
  5 10  1  0  0  0  0
  6  7  1  0  0  0  0
  6 10  2  0  0  0  0
  6 11  1  0  0  0  0
  7  9  2  0  0  0  0
  7 13  1  0  0  0  0
  8  9  1  0  0  0  0
  8 12  1  0  0  0  0
  9 14  1  0  0  0  0
 10 15  1  0  0  0  0
M  END
> <PUBCHEM_COMPOUND_CID>
7493

> <PUBCHEM_CONFORMER_RMSD>
0.6

> <PUBCHEM_CONFORMER_DIVERSEORDER>
1
4
2
3

> <PUBCHEM_MMFF94_PARTIAL_CHARGES>
17
1 -0.65
10 0.16
11 0.63
12 0.63
13 0.15
14 0.15
15 0.15
16 0.5
17 0.5
2 -0.65
3 -0.57
4 -0.57
5 -0.62
6 0.09
7 -0.15
8 0.4
9 -0.15

> <PUBCHEM_EFFECTIVE_ROTOR_COUNT>
2

> <PUBCHEM_PHARMACOPHORE_FEATURES>
8
1 1 acceptor
1 2 acceptor
1 3 acceptor
1 4 acceptor
1 5 acceptor
3 1 3 11 anion
3 2 4 12 anion
6 5 6 7 8 9 10 rings

> <PUBCHEM_HEAVY_ATOM_COUNT>
12

> <PUBCHEM_ATOM_DEF_STEREO_COUNT>
0

> <PUBCHEM_ATOM_UDEF_STEREO_COUNT>
0

> <PUBCHEM_BOND_DEF_STEREO_COUNT>
0

> <PUBCHEM_BOND_UDEF_STEREO_COUNT>
0

> <PUBCHEM_ISOTOPIC_ATOM_COUNT>
0

> <PUBCHEM_COMPONENT_COUNT>
1

> <PUBCHEM_CACTVS_TAUTO_COUNT>
1

> <PUBCHEM_CONFORMER_ID>
00001D4500000001

> <PUBCHEM_MMFF94_ENERGY>
33.274

> <PUBCHEM_FEATURE_SELFOVERLAP>
40.725

> <PUBCHEM_SHAPE_FINGERPRINT>
10219947 1 18411134727491695318
10608611 8 18410578383208901504
12032990 46 18410849962575628962
14144814 61 18411419505303518488
14325111 11 18410856555355430240
14993402 34 18342175540062083230
16945 1 18410855460138802246
18186145 218 18342458170527499212
193761 8 17545883088656211398
20645476 183 17916285174695566238
23235685 24 18410860961981274476
23402539 116 18187938295454561150
23402655 69 18192165982837443093
23463225 33 18341051908198834874
2748010 2 18122624942258412046
528886 8 18409454704058334579

> <PUBCHEM_SHAPE_MULTIPOLES>
218.5
5.76
1.44
0.58
0.04
0.02
0
0.22
0
0
0
-0.01
-0.01
0

> <PUBCHEM_SHAPE_SELFOVERLAP>
464.293

> <PUBCHEM_SHAPE_VOLUME>
120.2

> <PUBCHEM_COORDINATE_TYPE>
2
5
10

$$$$

