585984
  -OEChem-06241222452D

 49 52  0     1  0  0  0  0  0999 V2000
    6.2461   -0.7309    0.0000 O   0  0  0  0  0  0  0  0  0  0  0  0
    7.1121   -0.2309    0.0000 O   0  0  0  0  0  0  0  0  0  0  0  0
    9.7762    1.2449    0.0000 O   0  0  0  0  0  0  0  0  0  0  0  0
    3.9659   -1.7306    0.0000 N   0  0  3  0  0  0  0  0  0  0  0  0
    6.2461    3.2691    0.0000 N   0  0  0  0  0  0  0  0  0  0  0  0
    3.9659   -0.7306    0.0000 C   0  0  3  0  0  0  0  0  0  0  0  0
    5.3800   -0.2309    0.0000 C   0  0  3  0  0  0  0  0  0  0  0  0
    4.6729    0.4762    0.0000 C   0  0  0  0  0  0  0  0  0  0  0  0
    6.0872   -2.4377    0.0000 C   0  0  3  0  0  0  0  0  0  0  0  0
    2.0000   -0.9894    0.0000 C   0  0  0  0  0  0  0  0  0  0  0  0
    5.3801   -3.1448    0.0000 C   0  0  0  0  0  0  0  0  0  0  0  0
    2.0000   -1.9894    0.0000 C   0  0  0  0  0  0  0  0  0  0  0  0
    6.2461    0.2691    0.0000 C   0  0  3  0  0  0  0  0  0  0  0  0
    7.0872   -2.4377    0.0000 C   0  0  0  0  0  0  0  0  0  0  0  0
    6.2461    1.2691    0.0000 C   0  0  0  0  0  0  0  0  0  0  0  0
    7.1121    1.7691    0.0000 C   0  0  0  0  0  0  0  0  0  0  0  0
    7.5872   -3.3037    0.0000 C   0  0  0  0  0  0  0  0  0  0  0  0
    5.3800    1.7691    0.0000 C   0  0  0  0  0  0  0  0  0  0  0  0
    7.1121    2.7691    0.0000 C   0  0  0  0  0  0  0  0  0  0  0  0
    8.0060    1.2344    0.0000 C   0  0  0  0  0  0  0  0  0  0  0  0
    5.3800    2.7691    0.0000 C   0  0  0  0  0  0  0  0  0  0  0  0
    8.0060    3.3037    0.0000 C   0  0  0  0  0  0  0  0  0  0  0  0
    8.9121    1.7482    0.0000 C   0  0  0  0  0  0  0  0  0  0  0  0
    8.9121    2.7899    0.0000 C   0  0  0  0  0  0  0  0  0  0  0  0
   10.6441    1.7416    0.0000 C   0  0  0  0  0  0  0  0  0  0  0  0
    3.7364   -1.5490    0.0000 H   0  0  0  0  0  0  0  0  0  0  0  0
    5.0725    0.9503    0.0000 H   0  0  0  0  0  0  0  0  0  0  0  0
    4.1666    0.8339    0.0000 H   0  0  0  0  0  0  0  0  0  0  0  0
    6.3698   -1.6360    0.0000 H   0  0  0  0  0  0  0  0  0  0  0  0
    1.9460   -0.3718    0.0000 H   0  0  0  0  0  0  0  0  0  0  0  0
    1.3806   -1.0165    0.0000 H   0  0  0  0  0  0  0  0  0  0  0  0
    4.9417   -3.5832    0.0000 H   0  0  0  0  0  0  0  0  0  0  0  0
    5.8186   -3.5832    0.0000 H   0  0  0  0  0  0  0  0  0  0  0  0
    1.3806   -2.0165    0.0000 H   0  0  0  0  0  0  0  0  0  0  0  0
    2.0540   -2.6071    0.0000 H   0  0  0  0  0  0  0  0  0  0  0  0
    6.2461   -0.5809    0.0000 H   0  0  0  0  0  0  0  0  0  0  0  0
    7.3972   -1.9008    0.0000 H   0  0  0  0  0  0  0  0  0  0  0  0
    6.2461   -1.3509    0.0000 H   0  0  0  0  0  0  0  0  0  0  0  0
    7.6490    0.0791    0.0000 H   0  0  0  0  0  0  0  0  0  0  0  0
    7.2772   -3.8407    0.0000 H   0  0  0  0  0  0  0  0  0  0  0  0
    8.2072   -3.3037    0.0000 H   0  0  0  0  0  0  0  0  0  0  0  0
    4.8431    1.4591    0.0000 H   0  0  0  0  0  0  0  0  0  0  0  0
    7.9989    0.6144    0.0000 H   0  0  0  0  0  0  0  0  0  0  0  0
    4.8431    3.0791    0.0000 H   0  0  0  0  0  0  0  0  0  0  0  0
    7.9989    3.9237    0.0000 H   0  0  0  0  0  0  0  0  0  0  0  0
    9.4478    3.1020    0.0000 H   0  0  0  0  0  0  0  0  0  0  0  0
   10.9521    1.2034    0.0000 H   0  0  0  0  0  0  0  0  0  0  0  0
   11.1823    2.0495    0.0000 H   0  0  0  0  0  0  0  0  0  0  0  0
   10.3362    2.2797    0.0000 H   0  0  0  0  0  0  0  0  0  0  0  0
  1  7  1  0  0  0  0
  1 38  1  0  0  0  0
  2 13  1  0  0  0  0
  2 39  1  0  0  0  0
  3 23  1  0  0  0  0
  3 25  1  0  0  0  0
  4  7  1  0  0  0  0
  4 11  1  0  0  0  0
  4 12  1  0  0  0  0
  5 19  2  0  0  0  0
  5 21  1  0  0  0  0
  6  8  1  0  0  0  0
  6  9  1  0  0  0  0
  6 10  1  0  0  0  0
  6 26  1  0  0  0  0
  7  8  1  0  0  0  0
  7 13  1  0  0  0  0
  8 27  1  0  0  0  0
  8 28  1  0  0  0  0
  9 11  1  0  0  0  0
  9 14  1  0  0  0  0
  9 29  1  0  0  0  0
 10 12  1  0  0  0  0
 10 30  1  0  0  0  0
 10 31  1  0  0  0  0
 11 32  1  0  0  0  0
 11 33  1  0  0  0  0
 12 34  1  0  0  0  0
 12 35  1  0  0  0  0
 13 15  1  0  0  0  0
 13 36  1  0  0  0  0
 14 17  2  0  0  0  0
 14 37  1  0  0  0  0
 15 16  2  0  0  0  0
 15 18  1  0  0  0  0
 16 19  1  0  0  0  0
 16 20  1  0  0  0  0
 17 40  1  0  0  0  0
 17 41  1  0  0  0  0
 18 21  2  0  0  0  0
 18 42  1  0  0  0  0
 19 22  1  0  0  0  0
 20 23  2  0  0  0  0
 20 43  1  0  0  0  0
 21 44  1  0  0  0  0
 22 24  2  0  0  0  0
 22 45  1  0  0  0  0
 23 24  1  0  0  0  0
 24 46  1  0  0  0  0
 25 47  1  0  0  0  0
 25 48  1  0  0  0  0
 25 49  1  0  0  0  0
M  END
> <PUBCHEM_COMPOUND_CID>
585984

> <PUBCHEM_COMPOUND_CANONICALIZED>
1

> <PUBCHEM_CACTVS_COMPLEXITY>
501

> <PUBCHEM_CACTVS_HBOND_ACCEPTOR>
5

> <PUBCHEM_CACTVS_HBOND_DONOR>
2

> <PUBCHEM_CACTVS_ROTATABLE_BOND>
4

> <PUBCHEM_CACTVS_SUBSKEYS>
AAADceB7MAAAAAAAAAAAAAAAAAAAAAAAAAA8WLFiAAAAAACx8AAAHgAACAAADRzhngY+xvMIFgCgAzRnRACCiCAxIiAI2CA+bJgPNuLEsZuEcChkwBHZ+Aew8P8OgEABAAACAAAAgAIAAAQAAAAAAAAAAA==

> <PUBCHEM_IUPAC_OPENEYE_NAME>
2-[hydroxy-(6-methoxy-4-quinolyl)methyl]-5-vinyl-quinuclidin-2-ol

> <PUBCHEM_IUPAC_CAS_NAME>
5-ethenyl-2-[hydroxy-(6-methoxy-4-quinolinyl)methyl]-1-azabicyclo[2.2.2]octan-2-ol

> <PUBCHEM_IUPAC_NAME>
5-ethenyl-2-[hydroxy-(6-methoxyquinolin-4-yl)methyl]-1-azabicyclo[2.2.2]octan-2-ol

> <PUBCHEM_IUPAC_SYSTEMATIC_NAME>
5-ethenyl-2-[(6-methoxyquinolin-4-yl)-oxidanyl-methyl]-1-azabicyclo[2.2.2]octan-2-ol

> <PUBCHEM_IUPAC_TRADITIONAL_NAME>
2-[hydroxy-(6-methoxy-4-quinolyl)methyl]-5-vinyl-quinuclidin-2-ol

> <PUBCHEM_IUPAC_INCHI>
InChI=1S/C20H24N2O3/c1-3-13-12-22-9-7-14(13)11-20(22,24)19(23)16-6-8-21-18-5-4-15(25-2)10-17(16)18/h3-6,8,10,13-14,19,23-24H,1,7,9,11-12H2,2H3

> <PUBCHEM_IUPAC_INCHIKEY>
LYNGOVKONQWWAP-UHFFFAOYSA-N

> <PUBCHEM_XLOGP3>
2.1

> <PUBCHEM_EXACT_MASS>
340.178693

> <PUBCHEM_MOLECULAR_FORMULA>
C20H24N2O3

> <PUBCHEM_MOLECULAR_WEIGHT>
340.41616

> <PUBCHEM_OPENEYE_CAN_SMILES>
COC1=CC2=C(C=CN=C2C=C1)C(C3(CC4CCN3CC4C=C)O)O

> <PUBCHEM_OPENEYE_ISO_SMILES>
COC1=CC2=C(C=CN=C2C=C1)C(C3(CC4CCN3CC4C=C)O)O

> <PUBCHEM_CACTVS_TPSA>
65.8

> <PUBCHEM_MONOISOTOPIC_WEIGHT>
340.178693

> <PUBCHEM_TOTAL_CHARGE>
0

> <PUBCHEM_HEAVY_ATOM_COUNT>
25

> <PUBCHEM_ATOM_DEF_STEREO_COUNT>
0

> <PUBCHEM_ATOM_UDEF_STEREO_COUNT>
4

> <PUBCHEM_BOND_DEF_STEREO_COUNT>
0

> <PUBCHEM_BOND_UDEF_STEREO_COUNT>
0

> <PUBCHEM_ISOTOPIC_ATOM_COUNT>
0

> <PUBCHEM_COMPONENT_COUNT>
1

> <PUBCHEM_CACTVS_TAUTO_COUNT>
1

> <PUBCHEM_COORDINATE_TYPE>
1
5
255

> <PUBCHEM_BONDANNOTATIONS>
7  1  3
13  36  3
15  16  8
15  18  8
16  19  8
16  20  8
18  21  8
19  22  8
20  23  8
22  24  8
23  24  8
5  19  8
5  21  8
6  26  3
9  29  3

$$$$

