13639
  -OEChem-06241222392D

 21 22  0     0  0  0  0  0  0999 V2000
    2.5896    1.3184    0.0000 N   0  0  0  0  0  0  0  0  0  0  0  0
    4.2077    1.3184    0.0000 N   0  0  0  0  0  0  0  0  0  0  0  0
    2.8987    2.2694    0.0000 C   0  0  0  0  0  0  0  0  0  0  0  0
    3.8987    2.2694    0.0000 C   0  0  0  0  0  0  0  0  0  0  0  0
    3.3987    0.7306    0.0000 C   0  0  0  0  0  0  0  0  0  0  0  0
    3.3987   -0.2694    0.0000 C   0  0  0  0  0  0  0  0  0  0  0  0
    2.5326   -0.7694    0.0000 C   0  0  0  0  0  0  0  0  0  0  0  0
    4.2647   -0.7694    0.0000 C   0  0  0  0  0  0  0  0  0  0  0  0
    2.5326   -1.7694    0.0000 C   0  0  0  0  0  0  0  0  0  0  0  0
    4.2647   -1.7694    0.0000 C   0  0  0  0  0  0  0  0  0  0  0  0
    3.3987   -2.2694    0.0000 C   0  0  0  0  0  0  0  0  0  0  0  0
    2.9635    2.8860    0.0000 H   0  0  0  0  0  0  0  0  0  0  0  0
    2.2922    2.3983    0.0000 H   0  0  0  0  0  0  0  0  0  0  0  0
    4.5051    2.3983    0.0000 H   0  0  0  0  0  0  0  0  0  0  0  0
    3.8339    2.8860    0.0000 H   0  0  0  0  0  0  0  0  0  0  0  0
    2.0000    1.1268    0.0000 H   0  0  0  0  0  0  0  0  0  0  0  0
    1.9957   -0.4594    0.0000 H   0  0  0  0  0  0  0  0  0  0  0  0
    4.8016   -0.4594    0.0000 H   0  0  0  0  0  0  0  0  0  0  0  0
    1.9957   -2.0794    0.0000 H   0  0  0  0  0  0  0  0  0  0  0  0
    4.8016   -2.0794    0.0000 H   0  0  0  0  0  0  0  0  0  0  0  0
    3.3987   -2.8894    0.0000 H   0  0  0  0  0  0  0  0  0  0  0  0
  1  3  1  0  0  0  0
  1  5  1  0  0  0  0
  1 16  1  0  0  0  0
  2  4  1  0  0  0  0
  2  5  2  0  0  0  0
  3  4  1  0  0  0  0
  3 12  1  0  0  0  0
  3 13  1  0  0  0  0
  4 14  1  0  0  0  0
  4 15  1  0  0  0  0
  5  6  1  0  0  0  0
  6  7  2  0  0  0  0
  6  8  1  0  0  0  0
  7  9  1  0  0  0  0
  7 17  1  0  0  0  0
  8 10  2  0  0  0  0
  8 18  1  0  0  0  0
  9 11  2  0  0  0  0
  9 19  1  0  0  0  0
 10 11  1  0  0  0  0
 10 20  1  0  0  0  0
 11 21  1  0  0  0  0
M  END
> <PUBCHEM_COMPOUND_CID>
13639

> <PUBCHEM_COMPOUND_CANONICALIZED>
1

> <PUBCHEM_CACTVS_COMPLEXITY>
157

> <PUBCHEM_CACTVS_HBOND_ACCEPTOR>
1

> <PUBCHEM_CACTVS_HBOND_DONOR>
1

> <PUBCHEM_CACTVS_ROTATABLE_BOND>
1

> <PUBCHEM_CACTVS_SUBSKEYS>
AAADccBzAAAAAAAAAAAAAAAAAAAAAQAAAAAwAAAAAAAAAAABAAAAHAAQAAAADADBGAQxAILAAACgAiJiJACCAAEgAAAJiIAoBJgIYKKAmRGUIAhgkACIiAcQgAAOAAAAAAAAAAAAAAAAAAAAAAAAAAAAAA==

> <PUBCHEM_IUPAC_OPENEYE_NAME>
2-phenyl-4,5-dihydro-1H-imidazole

> <PUBCHEM_IUPAC_CAS_NAME>
2-phenyl-4,5-dihydro-1H-imidazole

> <PUBCHEM_IUPAC_NAME>
2-phenyl-4,5-dihydro-1H-imidazole

> <PUBCHEM_IUPAC_SYSTEMATIC_NAME>
2-phenyl-4,5-dihydro-1H-imidazole

> <PUBCHEM_IUPAC_TRADITIONAL_NAME>
2-phenyl-2-imidazoline

> <PUBCHEM_IUPAC_INCHI>
InChI=1S/C9H10N2/c1-2-4-8(5-3-1)9-10-6-7-11-9/h1-5H,6-7H2,(H,10,11)

> <PUBCHEM_IUPAC_INCHIKEY>
BKCCAYLNRIRKDJ-UHFFFAOYSA-N

> <PUBCHEM_XLOGP3_AA>
0.9

> <PUBCHEM_EXACT_MASS>
146.084398

> <PUBCHEM_MOLECULAR_FORMULA>
C9H10N2

> <PUBCHEM_MOLECULAR_WEIGHT>
146.1891

> <PUBCHEM_OPENEYE_CAN_SMILES>
C1CN=C(N1)C2=CC=CC=C2

> <PUBCHEM_OPENEYE_ISO_SMILES>
C1CN=C(N1)C2=CC=CC=C2

> <PUBCHEM_CACTVS_TPSA>
24.4

> <PUBCHEM_MONOISOTOPIC_WEIGHT>
146.084398

> <PUBCHEM_TOTAL_CHARGE>
0

> <PUBCHEM_HEAVY_ATOM_COUNT>
11

> <PUBCHEM_ATOM_DEF_STEREO_COUNT>
0

> <PUBCHEM_ATOM_UDEF_STEREO_COUNT>
0

> <PUBCHEM_BOND_DEF_STEREO_COUNT>
0

> <PUBCHEM_BOND_UDEF_STEREO_COUNT>
0

> <PUBCHEM_ISOTOPIC_ATOM_COUNT>
0

> <PUBCHEM_COMPONENT_COUNT>
1

> <PUBCHEM_CACTVS_TAUTO_COUNT>
1

> <PUBCHEM_COORDINATE_TYPE>
1
5
255

> <PUBCHEM_BONDANNOTATIONS>
10  11  8
6  7  8
6  8  8
7  9  8
8  10  8
9  11  8

$$$$

