4954
  -OEChem-06261200263D

 56 56  0     1  0  0  0  0  0999 V2000
    1.4159   -4.4739    0.7012 O   0  0  0  0  0  0  0  0  0  0  0  0
   -3.6709    0.9628   -2.1743 O   0  0  0  0  0  0  0  0  0  0  0  0
    8.4595    3.0433   -0.9460 O   0  0  0  0  0  0  0  0  0  0  0  0
    7.6240    2.9262    1.1617 O   0  0  0  0  0  0  0  0  0  0  0  0
    0.2295   -2.4218    0.4615 C   0  0  0  0  0  0  0  0  0  0  0  0
    1.2614   -1.5504    1.0722 C   0  0  0  0  0  0  0  0  0  0  0  0
   -0.9776   -2.1667   -0.0595 C   0  0  0  0  0  0  0  0  0  0  0  0
    2.2763   -1.0436    0.0409 C   0  0  0  0  0  0  0  0  0  0  0  0
   -1.7076   -3.3699   -0.5798 C   0  0  0  0  0  0  0  0  0  0  0  0
   -0.7672   -4.5388   -0.3212 C   0  0  0  0  0  0  0  0  0  0  0  0
    3.3137   -0.1196    0.6835 C   0  0  0  0  0  0  0  0  0  0  0  0
    0.4147   -3.8811    0.3267 C   0  0  0  0  0  0  0  0  0  0  0  0
    4.3454    0.4240   -0.3098 C   0  0  0  0  0  0  0  0  0  0  0  0
   -1.6083   -0.8813   -0.1570 C   0  0  0  0  0  0  0  0  0  0  0  0
   -4.8366    0.6654   -0.0675 C   0  0  0  0  0  0  0  0  0  0  0  0
   -3.4851    0.6536   -0.7940 C   0  0  1  0  0  0  0  0  0  0  0  0
    5.4221    1.2939    0.3484 C   0  0  0  0  0  0  0  0  0  0  0  0
   -5.5342    2.0262   -0.1729 C   0  0  0  0  0  0  0  0  0  0  0  0
   -2.8231   -0.6927   -0.6916 C   0  0  0  0  0  0  0  0  0  0  0  0
   -6.8944    2.0087    0.5278 C   0  0  0  0  0  0  0  0  0  0  0  0
    6.4779    1.7701   -0.6511 C   0  0  0  0  0  0  0  0  0  0  0  0
   -7.5778    3.3736    0.4489 C   0  0  0  0  0  0  0  0  0  0  0  0
   -8.9146    3.3697    1.1729 C   0  0  0  0  0  0  0  0  0  0  0  0
    7.5571    2.6224   -0.0211 C   0  0  0  0  0  0  0  0  0  0  0  0
    0.7830   -0.6940    1.5628 H   0  0  0  0  0  0  0  0  0  0  0  0
    1.7819   -2.0930    1.8711 H   0  0  0  0  0  0  0  0  0  0  0  0
    1.7561   -0.5016   -0.7589 H   0  0  0  0  0  0  0  0  0  0  0  0
    2.7868   -1.8940   -0.4283 H   0  0  0  0  0  0  0  0  0  0  0  0
   -2.6553   -3.5328   -0.0535 H   0  0  0  0  0  0  0  0  0  0  0  0
   -1.9139   -3.2907   -1.6535 H   0  0  0  0  0  0  0  0  0  0  0  0
   -0.4625   -5.0241   -1.2527 H   0  0  0  0  0  0  0  0  0  0  0  0
   -1.2110   -5.2692    0.3611 H   0  0  0  0  0  0  0  0  0  0  0  0
    3.8358   -0.6663    1.4786 H   0  0  0  0  0  0  0  0  0  0  0  0
    2.8022    0.7242    1.1630 H   0  0  0  0  0  0  0  0  0  0  0  0
    3.8305    1.0073   -1.0831 H   0  0  0  0  0  0  0  0  0  0  0  0
    4.8287   -0.4196   -0.8181 H   0  0  0  0  0  0  0  0  0  0  0  0
   -1.0618   -0.0241    0.2261 H   0  0  0  0  0  0  0  0  0  0  0  0
   -5.4973   -0.0954   -0.5040 H   0  0  0  0  0  0  0  0  0  0  0  0
   -4.6938    0.4057    0.9889 H   0  0  0  0  0  0  0  0  0  0  0  0
   -2.8408    1.4354   -0.3755 H   0  0  0  0  0  0  0  0  0  0  0  0
    5.9113    0.7254    1.1492 H   0  0  0  0  0  0  0  0  0  0  0  0
    4.9496    2.1612    0.8261 H   0  0  0  0  0  0  0  0  0  0  0  0
   -4.8969    2.7977    0.2761 H   0  0  0  0  0  0  0  0  0  0  0  0
   -5.6768    2.2964   -1.2258 H   0  0  0  0  0  0  0  0  0  0  0  0
   -3.4007   -1.5212   -1.0928 H   0  0  0  0  0  0  0  0  0  0  0  0
   -6.7608    1.7258    1.5791 H   0  0  0  0  0  0  0  0  0  0  0  0
   -7.5368    1.2481    0.0676 H   0  0  0  0  0  0  0  0  0  0  0  0
    6.9630    0.9026   -1.1125 H   0  0  0  0  0  0  0  0  0  0  0  0
    5.9951    2.3635   -1.4357 H   0  0  0  0  0  0  0  0  0  0  0  0
   -7.7361    3.6507   -0.5999 H   0  0  0  0  0  0  0  0  0  0  0  0
   -6.9322    4.1401    0.8932 H   0  0  0  0  0  0  0  0  0  0  0  0
   -4.3028    0.3229   -2.5449 H   0  0  0  0  0  0  0  0  0  0  0  0
   -8.7861    3.1293    2.2331 H   0  0  0  0  0  0  0  0  0  0  0  0
   -9.5963    2.6345    0.7337 H   0  0  0  0  0  0  0  0  0  0  0  0
   -9.3864    4.3548    1.1029 H   0  0  0  0  0  0  0  0  0  0  0  0
    9.1576    3.6047   -0.5461 H   0  0  0  0  0  0  0  0  0  0  0  0
  1 12  2  0  0  0  0
  2 16  1  0  0  0  0
  2 52  1  0  0  0  0
  3 24  1  0  0  0  0
  3 56  1  0  0  0  0
  4 24  2  0  0  0  0
  5  6  1  0  0  0  0
  5  7  2  0  0  0  0
  5 12  1  0  0  0  0
  6  8  1  0  0  0  0
  6 25  1  0  0  0  0
  6 26  1  0  0  0  0
  7  9  1  0  0  0  0
  7 14  1  0  0  0  0
  8 11  1  0  0  0  0
  8 27  1  0  0  0  0
  8 28  1  0  0  0  0
  9 10  1  0  0  0  0
  9 29  1  0  0  0  0
  9 30  1  0  0  0  0
 10 12  1  0  0  0  0
 10 31  1  0  0  0  0
 10 32  1  0  0  0  0
 11 13  1  0  0  0  0
 11 33  1  0  0  0  0
 11 34  1  0  0  0  0
 13 17  1  0  0  0  0
 13 35  1  0  0  0  0
 13 36  1  0  0  0  0
 14 19  2  0  0  0  0
 14 37  1  0  0  0  0
 15 16  1  0  0  0  0
 15 18  1  0  0  0  0
 15 38  1  0  0  0  0
 15 39  1  0  0  0  0
 16 19  1  0  0  0  0
 16 40  1  0  0  0  0
 17 21  1  0  0  0  0
 17 41  1  0  0  0  0
 17 42  1  0  0  0  0
 18 20  1  0  0  0  0
 18 43  1  0  0  0  0
 18 44  1  0  0  0  0
 19 45  1  0  0  0  0
 20 22  1  0  0  0  0
 20 46  1  0  0  0  0
 20 47  1  0  0  0  0
 21 24  1  0  0  0  0
 21 48  1  0  0  0  0
 21 49  1  0  0  0  0
 22 23  1  0  0  0  0
 22 50  1  0  0  0  0
 22 51  1  0  0  0  0
 23 53  1  0  0  0  0
 23 54  1  0  0  0  0
 23 55  1  0  0  0  0
M  END
> <PUBCHEM_COMPOUND_CID>
4954

> <PUBCHEM_CONFORMER_RMSD>
1.4

> <PUBCHEM_CONFORMER_DIVERSEORDER>
1
41
2
8
49
69
22
4
47
61
46
48
64
14
9
36
60
70
12
24
44
52
59
57
13
55
32
37
50
58
26
38
10
21
15
30
20
16
71
39
42
17
29
40
68
7
35
62
25
3
33
63
5
27
65
51
18
34
23
28
54
72
31
66
45
11
6
19
56
53
43
67

> <PUBCHEM_MMFF94_PARTIAL_CHARGES>
19
1 -0.57
10 0.06
12 0.49
14 -0.15
16 0.42
19 -0.29
2 -0.68
21 0.06
24 0.66
3 -0.65
37 0.15
4 -0.57
45 0.15
5 -0.12
52 0.4
56 0.5
6 0.14
7 -0.14
9 0.14

> <PUBCHEM_EFFECTIVE_ROTOR_COUNT>
13.4

> <PUBCHEM_PHARMACOPHORE_FEATURES>
11
1 1 acceptor
1 2 acceptor
1 2 donor
1 23 hydrophobe
1 3 acceptor
1 4 acceptor
3 13 17 21 hydrophobe
3 3 4 24 anion
3 6 8 11 hydrophobe
4 15 18 20 22 hydrophobe
5 5 7 9 10 12 rings

> <PUBCHEM_HEAVY_ATOM_COUNT>
24

> <PUBCHEM_ATOM_DEF_STEREO_COUNT>
0

> <PUBCHEM_ATOM_UDEF_STEREO_COUNT>
1

> <PUBCHEM_BOND_DEF_STEREO_COUNT>
0

> <PUBCHEM_BOND_UDEF_STEREO_COUNT>
1

> <PUBCHEM_ISOTOPIC_ATOM_COUNT>
0

> <PUBCHEM_COMPONENT_COUNT>
1

> <PUBCHEM_CACTVS_TAUTO_COUNT>
7

> <PUBCHEM_CONFORMER_ID>
0000135A00000001

> <PUBCHEM_MMFF94_ENERGY>
12.934

> <PUBCHEM_FEATURE_SELFOVERLAP>
55.876

> <PUBCHEM_SHAPE_FINGERPRINT>
10411042 1 17332525670591552490
10904742 90 18410292523344842801
11135609 149 9726767416201225667
11273773 42 18334303059047279293
1200032 147 18272370884494966832
12107183 9 18200331995688751690
12760667 363 7925636630503008951
12895836 83 18411704253182569354
12895837 130 18129095611849930828
13540713 5 18268170728423658338
13955234 65 17982170321125289619
14026016 13 18335419089029916673
14251764 75 18411420630585014922
14565420 104 18270398412090142707
15131766 46 18336275634537073005
15152005 290 18410012126125017260
15152005 77 11959735954029876409
15685185 35 18408601435875826265
15803439 3 16805605845791467566
16126227 98 18411418371537933109
16992828 155 17631473197516651756
16993427 108 9223232927259804685
1768 23 17345744193454804276
19304671 126 18040989683437012124
20691028 202 18338237068296061120
20771845 35 10159693565228054558
21307412 95 5545187342783562701
21365058 113 17177703937054028375
23522609 53 17532932934549220809
23523787 8 15791737420570243709
23523788 1 13182748082217080440
23569914 152 17606379194492518558
25242607 90 10519982643112957237
270888 7 18410576192791151465
3014063 24 9727630605110094249
5718773 13 9439401328485789129
6327066 14 18411138030326814188
636775 72 18122350069623154632
7808743 9 18341902840115242034
7970288 3 9079112267358787868

> <PUBCHEM_SHAPE_MULTIPOLES>
470.43
23.98
6.43
1.1
2.47
5.04
0.22
-51.52
-2.94
0.85
-0.87
-0.43
-0.34
-2.37

> <PUBCHEM_SHAPE_SELFOVERLAP>
921.577

> <PUBCHEM_SHAPE_VOLUME>
283.5

> <PUBCHEM_COORDINATE_TYPE>
2
5
10

$$$$

