11911
  -OEChem-06261206163D

 19 20  0     0  0  0  0  0  0999 V2000
   -1.6602   -1.2885    0.0000 N   0  0  0  0  0  0  0  0  0  0  0  0
    1.7378    2.2031   -0.0001 N   0  0  0  0  0  0  0  0  0  0  0  0
   -0.0107    0.4684    0.0000 C   0  0  0  0  0  0  0  0  0  0  0  0
   -0.3724   -0.8951   -0.0001 C   0  0  0  0  0  0  0  0  0  0  0  0
    1.3436    0.8433    0.0001 C   0  0  0  0  0  0  0  0  0  0  0  0
   -1.0365    1.4231    0.0000 C   0  0  0  0  0  0  0  0  0  0  0  0
    0.6470   -1.8431    0.0000 C   0  0  0  0  0  0  0  0  0  0  0  0
    2.3427   -0.1259    0.0001 C   0  0  0  0  0  0  0  0  0  0  0  0
    1.9935   -1.4706    0.0000 C   0  0  0  0  0  0  0  0  0  0  0  0
   -2.3644    1.0208    0.0000 C   0  0  0  0  0  0  0  0  0  0  0  0
   -2.6202   -0.3354    0.0000 C   0  0  0  0  0  0  0  0  0  0  0  0
   -0.8460    2.4915    0.0000 H   0  0  0  0  0  0  0  0  0  0  0  0
    0.3999   -2.9032    0.0000 H   0  0  0  0  0  0  0  0  0  0  0  0
    3.3933    0.1520    0.0001 H   0  0  0  0  0  0  0  0  0  0  0  0
    2.7663   -2.2337   -0.0001 H   0  0  0  0  0  0  0  0  0  0  0  0
   -3.1705    1.7450    0.0001 H   0  0  0  0  0  0  0  0  0  0  0  0
   -3.6389   -0.7090    0.0000 H   0  0  0  0  0  0  0  0  0  0  0  0
    2.7242    2.4298   -0.0002 H   0  0  0  0  0  0  0  0  0  0  0  0
    1.0688    2.9577   -0.0008 H   0  0  0  0  0  0  0  0  0  0  0  0
  1  4  1  0  0  0  0
  1 11  2  0  0  0  0
  2  5  1  0  0  0  0
  2 18  1  0  0  0  0
  2 19  1  0  0  0  0
  3  4  1  0  0  0  0
  3  5  2  0  0  0  0
  3  6  1  0  0  0  0
  4  7  2  0  0  0  0
  5  8  1  0  0  0  0
  6 10  2  0  0  0  0
  6 12  1  0  0  0  0
  7  9  1  0  0  0  0
  7 13  1  0  0  0  0
  8  9  2  0  0  0  0
  8 14  1  0  0  0  0
  9 15  1  0  0  0  0
 10 11  1  0  0  0  0
 10 16  1  0  0  0  0
 11 17  1  0  0  0  0
M  END
> <PUBCHEM_COMPOUND_CID>
11911

> <PUBCHEM_CONFORMER_RMSD>
0.4

> <PUBCHEM_CONFORMER_DIVERSEORDER>
1

> <PUBCHEM_MMFF94_PARTIAL_CHARGES>
18
1 -0.62
10 -0.15
11 0.16
12 0.15
13 0.15
14 0.15
15 0.15
16 0.15
17 0.15
18 0.4
19 0.4
2 -0.9
4 0.31
5 0.1
6 -0.15
7 -0.15
8 -0.15
9 -0.15

> <PUBCHEM_EFFECTIVE_ROTOR_COUNT>
0

> <PUBCHEM_PHARMACOPHORE_FEATURES>
5
1 1 acceptor
1 2 cation
1 2 donor
6 1 3 4 6 10 11 rings
6 3 4 5 7 8 9 rings

> <PUBCHEM_HEAVY_ATOM_COUNT>
11

> <PUBCHEM_ATOM_DEF_STEREO_COUNT>
0

> <PUBCHEM_ATOM_UDEF_STEREO_COUNT>
0

> <PUBCHEM_BOND_DEF_STEREO_COUNT>
0

> <PUBCHEM_BOND_UDEF_STEREO_COUNT>
0

> <PUBCHEM_ISOTOPIC_ATOM_COUNT>
0

> <PUBCHEM_COMPONENT_COUNT>
1

> <PUBCHEM_CACTVS_TAUTO_COUNT>
2

> <PUBCHEM_CONFORMER_ID>
00002E8700000001

> <PUBCHEM_MMFF94_ENERGY>
44.826

> <PUBCHEM_FEATURE_SELFOVERLAP>
25.403

> <PUBCHEM_SHAPE_FINGERPRINT>
11206711 2 18340485659441297541
12423570 1 7221486122669604890
12524768 44 18341612607473134173
12897270 3 18411419483976420525
13380535 76 18266746775023169248
16945 1 18410855494572406631
17990270 104 18337953492736918538
18185500 45 18194965377109710442
193761 8 15528269828608196711
19973954 147 18410572898677732065
21040471 1 18122624959659827264
23402655 69 18120952839283251045
23552423 10 18341894073743943711
23559900 14 17974566103440297710
241688 4 17833829756574871434
2748010 2 18267302019435996471
5084963 1 18187365432468765659
528886 8 18337959011738037674
66348 1 18411417271920556949
7364860 26 18333449829096358828

> <PUBCHEM_SHAPE_MULTIPOLES>
216.41
3.44
2.05
0.6
0.81
0.35
0
-0.02
0
-0.62
0
0
-0.01
0

> <PUBCHEM_SHAPE_SELFOVERLAP>
477.423

> <PUBCHEM_SHAPE_VOLUME>
114.9

> <PUBCHEM_COORDINATE_TYPE>
2
5
10

$$$$

