9131
  -OEChem-06261203263D

 34 39  0     0  0  0  0  0  0999 V2000
   -0.3992    0.3615    0.0005 C   0  0  0  0  0  0  0  0  0  0  0  0
    0.9385    0.7276    0.0005 C   0  0  0  0  0  0  0  0  0  0  0  0
   -0.8517   -0.9459    0.0006 C   0  0  0  0  0  0  0  0  0  0  0  0
   -1.4541    1.2567    0.0004 C   0  0  0  0  0  0  0  0  0  0  0  0
    1.8920   -0.3025    0.0003 C   0  0  0  0  0  0  0  0  0  0  0  0
   -2.3079   -0.9005    0.0003 C   0  0  0  0  0  0  0  0  0  0  0  0
   -2.6846    0.4773    0.0002 C   0  0  0  0  0  0  0  0  0  0  0  0
    1.2514    2.0940    0.0002 C   0  0  0  0  0  0  0  0  0  0  0  0
    1.4631   -1.6647    0.0002 C   0  0  0  0  0  0  0  0  0  0  0  0
    0.0763   -1.9764    0.0004 C   0  0  0  0  0  0  0  0  0  0  0  0
    3.2533    0.0543   -0.0002 C   0  0  0  0  0  0  0  0  0  0  0  0
   -1.1756    2.6121    0.0002 C   0  0  0  0  0  0  0  0  0  0  0  0
    0.1752    3.0278    0.0001 C   0  0  0  0  0  0  0  0  0  0  0  0
    2.6149    2.4277   -0.0005 C   0  0  0  0  0  0  0  0  0  0  0  0
    3.5987    1.4232   -0.0005 C   0  0  0  0  0  0  0  0  0  0  0  0
   -3.2599   -1.9013   -0.0001 C   0  0  0  0  0  0  0  0  0  0  0  0
   -4.0133    0.8549   -0.0006 C   0  0  0  0  0  0  0  0  0  0  0  0
    2.4508   -2.6580    0.0000 C   0  0  0  0  0  0  0  0  0  0  0  0
    4.2058   -0.9752   -0.0004 C   0  0  0  0  0  0  0  0  0  0  0  0
    3.8067   -2.3153   -0.0004 C   0  0  0  0  0  0  0  0  0  0  0  0
   -4.6043   -1.5180   -0.0004 C   0  0  0  0  0  0  0  0  0  0  0  0
   -4.9759   -0.1589   -0.0006 C   0  0  0  0  0  0  0  0  0  0  0  0
   -0.2547   -3.0118    0.0003 H   0  0  0  0  0  0  0  0  0  0  0  0
   -1.9695    3.3519    0.0000 H   0  0  0  0  0  0  0  0  0  0  0  0
    0.3905    4.0951   -0.0002 H   0  0  0  0  0  0  0  0  0  0  0  0
    2.9253    3.4700   -0.0008 H   0  0  0  0  0  0  0  0  0  0  0  0
    4.6456    1.7212   -0.0009 H   0  0  0  0  0  0  0  0  0  0  0  0
   -2.9862   -2.9505   -0.0001 H   0  0  0  0  0  0  0  0  0  0  0  0
   -4.3111    1.8975   -0.0009 H   0  0  0  0  0  0  0  0  0  0  0  0
    2.1759   -3.7106    0.0000 H   0  0  0  0  0  0  0  0  0  0  0  0
    5.2686   -0.7433   -0.0008 H   0  0  0  0  0  0  0  0  0  0  0  0
    4.5588   -3.0997   -0.0005 H   0  0  0  0  0  0  0  0  0  0  0  0
   -5.3789   -2.2809   -0.0006 H   0  0  0  0  0  0  0  0  0  0  0  0
   -6.0308    0.1038   -0.0010 H   0  0  0  0  0  0  0  0  0  0  0  0
  1  2  1  0  0  0  0
  1  3  1  0  0  0  0
  1  4  2  0  0  0  0
  2  5  1  0  0  0  0
  2  8  2  0  0  0  0
  3  6  1  0  0  0  0
  3 10  2  0  0  0  0
  4  7  1  0  0  0  0
  4 12  1  0  0  0  0
  5  9  1  0  0  0  0
  5 11  2  0  0  0  0
  6  7  1  0  0  0  0
  6 16  2  0  0  0  0
  7 17  2  0  0  0  0
  8 13  1  0  0  0  0
  8 14  1  0  0  0  0
  9 10  1  0  0  0  0
  9 18  2  0  0  0  0
 10 23  1  0  0  0  0
 11 15  1  0  0  0  0
 11 19  1  0  0  0  0
 12 13  2  0  0  0  0
 12 24  1  0  0  0  0
 13 25  1  0  0  0  0
 14 15  2  0  0  0  0
 14 26  1  0  0  0  0
 15 27  1  0  0  0  0
 16 21  1  0  0  0  0
 16 28  1  0  0  0  0
 17 22  1  0  0  0  0
 17 29  1  0  0  0  0
 18 20  1  0  0  0  0
 18 30  1  0  0  0  0
 19 20  2  0  0  0  0
 19 31  1  0  0  0  0
 20 32  1  0  0  0  0
 21 22  2  0  0  0  0
 21 33  1  0  0  0  0
 22 34  1  0  0  0  0
M  END
> <PUBCHEM_COMPOUND_CID>
9131

> <PUBCHEM_CONFORMER_RMSD>
0.6

> <PUBCHEM_CONFORMER_DIVERSEORDER>
1

> <PUBCHEM_MMFF94_PARTIAL_CHARGES>
24
10 -0.15
12 -0.15
13 -0.15
14 -0.15
15 -0.15
16 -0.15
17 -0.15
18 -0.15
19 -0.15
20 -0.15
21 -0.15
22 -0.15
23 0.15
24 0.15
25 0.15
26 0.15
27 0.15
28 0.15
29 0.15
30 0.15
31 0.15
32 0.15
33 0.15
34 0.15

> <PUBCHEM_EFFECTIVE_ROTOR_COUNT>
0

> <PUBCHEM_PHARMACOPHORE_FEATURES>
6
5 1 3 4 6 7 rings
6 1 2 3 5 9 10 rings
6 1 2 4 8 12 13 rings
6 2 5 8 11 14 15 rings
6 5 9 11 18 19 20 rings
6 6 7 16 17 21 22 rings

> <PUBCHEM_HEAVY_ATOM_COUNT>
22

> <PUBCHEM_ATOM_DEF_STEREO_COUNT>
0

> <PUBCHEM_ATOM_UDEF_STEREO_COUNT>
0

> <PUBCHEM_BOND_DEF_STEREO_COUNT>
0

> <PUBCHEM_BOND_UDEF_STEREO_COUNT>
0

> <PUBCHEM_ISOTOPIC_ATOM_COUNT>
0

> <PUBCHEM_COMPONENT_COUNT>
1

> <PUBCHEM_CACTVS_TAUTO_COUNT>
1

> <PUBCHEM_CONFORMER_ID>
000023AB00000001

> <PUBCHEM_MMFF94_ENERGY>
97.8451

> <PUBCHEM_FEATURE_SELFOVERLAP>
30.857

> <PUBCHEM_SHAPE_FINGERPRINT>
10319926 262 17761238878867843450
10411042 1 18266458891908429730
10616163 171 18408601491461695111
10863032 1 18336826398950357017
10906281 52 18199173023879530152
10967382 1 18338516318162389188
1100329 8 17043454709182889491
11471102 20 18411140203606639829
11578080 2 17273714232529317198
116883 192 18265049309231662796
11963148 33 17837777725048465635
12236239 1 17822008693044312715
12403259 226 18339366387022647388
12553582 1 18338243750890237510
12838862 33 18265634099426743132
13140716 1 18337389451829876552
138480 1 18410855443196732132
14178342 30 18122075449039072224
14223421 5 18410859905635779420
14790565 3 17907852908100372660
14866123 147 17615685571545136723
15042514 8 17690847078762031306
15196674 1 18410573976809475361
15230672 131 13874909760677108251
15442244 35 18337106868973318281
15536298 74 18335138669918171874
15927050 60 17903357001433525788
16087824 20 18051129491591466269
16945 1 18266459995482331584
17492 89 18337673010162144455
1813 80 17489304196065719789
19591789 44 18338516335379454527
200 152 18186524293705638119
20645477 70 18341900645281361283
20691752 17 17775004591698417905
20739085 24 18268406045496848641
20905425 154 18335979865381232556
21267235 1 18410283735630862511
21279426 13 18340774861734482941
21421861 104 18129949008280728090
221490 88 18341607067055435035
22182313 1 18269294454918176468
23184049 29 18266457788043182414
2334 1 18338516339610877900
23366157 5 18131350774195552356
23559900 14 18410017658359444696
2748010 2 18410864277970639004
335352 9 18266458887755393981
34934 24 18336552624744422191
350125 39 18410574007285956424
3886686 26 16757505816134454218
46194498 28 17631740348893428781
484985 159 15328760781359545586
5104073 3 18410291406816623715
6443956 14 18412543206245472196
7364860 26 18409167671135369482
9709674 26 18341610357100720979
9981440 41 17474114202310040969

> <PUBCHEM_SHAPE_MULTIPOLES>
452.75
8.18
3.31
0.62
4.6
0.85
0
-3.19
0
-1.7
0
0
0
0

> <PUBCHEM_SHAPE_SELFOVERLAP>
1089.082

> <PUBCHEM_SHAPE_VOLUME>
203.6

> <PUBCHEM_COORDINATE_TYPE>
2
5
10

$$$$

