9021
  -OEChem-06261203202D

 30 28  0     0  0  0  0  0  0999 V2000
    2.8850    0.0000    0.0000 Br  0  5  0  0  0  0  0  0  0  0  0  0
    1.4030    3.9030    0.0000 N   0  3  0  0  0  0  0  0  0  0  0  0
    2.2690    4.4030    0.0000 C   0  0  0  0  0  0  0  0  0  0  0  0
    3.1350    3.9030    0.0000 C   0  0  0  0  0  0  0  0  0  0  0  0
    0.5369    3.4030    0.0000 C   0  0  0  0  0  0  0  0  0  0  0  0
    0.9030    4.7690    0.0000 C   0  0  0  0  0  0  0  0  0  0  0  0
    1.9030    3.0369    0.0000 C   0  0  0  0  0  0  0  0  0  0  0  0
    4.0010    4.4030    0.0000 C   0  0  0  0  0  0  0  0  0  0  0  0
    4.8671    3.9030    0.0000 C   0  0  0  0  0  0  0  0  0  0  0  0
    5.7331    4.4030    0.0000 C   0  0  0  0  0  0  0  0  0  0  0  0
    2.6675    4.8779    0.0000 H   0  0  0  0  0  0  0  0  0  0  0  0
    1.8705    4.8779    0.0000 H   0  0  0  0  0  0  0  0  0  0  0  0
    2.7365    3.4280    0.0000 H   0  0  0  0  0  0  0  0  0  0  0  0
    3.5335    3.4280    0.0000 H   0  0  0  0  0  0  0  0  0  0  0  0
    1.3660    2.7269    0.0000 H   0  0  0  0  0  0  0  0  0  0  0  0
    2.2130    2.5000    0.0000 H   0  0  0  0  0  0  0  0  0  0  0  0
    2.4399    3.3469    0.0000 H   0  0  0  0  0  0  0  0  0  0  0  0
    1.4399    5.0790    0.0000 H   0  0  0  0  0  0  0  0  0  0  0  0
    0.5930    5.3059    0.0000 H   0  0  0  0  0  0  0  0  0  0  0  0
    0.3660    4.4590    0.0000 H   0  0  0  0  0  0  0  0  0  0  0  0
    0.2269    3.9399    0.0000 H   0  0  0  0  0  0  0  0  0  0  0  0
    0.0000    3.0930    0.0000 H   0  0  0  0  0  0  0  0  0  0  0  0
    0.8469    2.8660    0.0000 H   0  0  0  0  0  0  0  0  0  0  0  0
    4.3996    4.8779    0.0000 H   0  0  0  0  0  0  0  0  0  0  0  0
    3.6025    4.8779    0.0000 H   0  0  0  0  0  0  0  0  0  0  0  0
    4.4685    3.4280    0.0000 H   0  0  0  0  0  0  0  0  0  0  0  0
    5.2656    3.4280    0.0000 H   0  0  0  0  0  0  0  0  0  0  0  0
    6.0431    3.8660    0.0000 H   0  0  0  0  0  0  0  0  0  0  0  0
    6.2700    4.7130    0.0000 H   0  0  0  0  0  0  0  0  0  0  0  0
    5.4231    4.9399    0.0000 H   0  0  0  0  0  0  0  0  0  0  0  0
  2  3  1  0  0  0  0
  2  5  1  0  0  0  0
  2  6  1  0  0  0  0
  2  7  1  0  0  0  0
  3  4  1  0  0  0  0
  3 11  1  0  0  0  0
  3 12  1  0  0  0  0
  4  8  1  0  0  0  0
  4 13  1  0  0  0  0
  4 14  1  0  0  0  0
  5 21  1  0  0  0  0
  5 22  1  0  0  0  0
  5 23  1  0  0  0  0
  6 18  1  0  0  0  0
  6 19  1  0  0  0  0
  6 20  1  0  0  0  0
  7 15  1  0  0  0  0
  7 16  1  0  0  0  0
  7 17  1  0  0  0  0
  8  9  1  0  0  0  0
  8 24  1  0  0  0  0
  8 25  1  0  0  0  0
  9 10  1  0  0  0  0
  9 26  1  0  0  0  0
  9 27  1  0  0  0  0
 10 28  1  0  0  0  0
 10 29  1  0  0  0  0
 10 30  1  0  0  0  0
M  CHG  2   1  -1   2   1
M  END
> <PUBCHEM_COMPOUND_CID>
9021

> <PUBCHEM_COMPOUND_CANONICALIZED>
1

> <PUBCHEM_CACTVS_COMPLEXITY>
61.5

> <PUBCHEM_CACTVS_HBOND_ACCEPTOR>
1

> <PUBCHEM_CACTVS_HBOND_DONOR>
0

> <PUBCHEM_CACTVS_ROTATABLE_BOND>
4

> <PUBCHEM_CACTVS_SUBSKEYS>
AAADceByAAAAEAAAAAAAAAAAAAAAAAAAAAAAAAAAAAAAAAAAAAAAHAAAAAAACADBAAQCAAMAAAAAAAAAAAAAAAAAAAAAAAAIAAAAAAIAgAAEAAAAAAAAAAAQAAAAAAAAAAAAAAAAAAAAAAAAAAAAAAAAAA==

> <PUBCHEM_IUPAC_OPENEYE_NAME>
trimethyl(pentyl)ammonium bromide

> <PUBCHEM_IUPAC_CAS_NAME>
trimethyl(pentyl)ammonium bromide

> <PUBCHEM_IUPAC_NAME>
trimethyl(pentyl)azanium bromide

> <PUBCHEM_IUPAC_SYSTEMATIC_NAME>
trimethyl(pentyl)azanium bromide

> <PUBCHEM_IUPAC_TRADITIONAL_NAME>
amyl(trimethyl)ammonium bromide

> <PUBCHEM_IUPAC_INCHI>
InChI=1S/C8H20N.BrH/c1-5-6-7-8-9(2,3)4;/h5-8H2,1-4H3;1H/q+1;/p-1

> <PUBCHEM_IUPAC_INCHIKEY>
DFEBZUPHJOVJKO-UHFFFAOYSA-M

> <PUBCHEM_EXACT_MASS>
209.077912

> <PUBCHEM_MOLECULAR_FORMULA>
C8H20BrN

> <PUBCHEM_MOLECULAR_WEIGHT>
210.1551

> <PUBCHEM_OPENEYE_CAN_SMILES>
CCCCC[N+](C)(C)C.[Br-]

> <PUBCHEM_OPENEYE_ISO_SMILES>
CCCCC[N+](C)(C)C.[Br-]

> <PUBCHEM_CACTVS_TPSA>
0

> <PUBCHEM_MONOISOTOPIC_WEIGHT>
209.077912

> <PUBCHEM_TOTAL_CHARGE>
0

> <PUBCHEM_HEAVY_ATOM_COUNT>
10

> <PUBCHEM_ATOM_DEF_STEREO_COUNT>
0

> <PUBCHEM_ATOM_UDEF_STEREO_COUNT>
0

> <PUBCHEM_BOND_DEF_STEREO_COUNT>
0

> <PUBCHEM_BOND_UDEF_STEREO_COUNT>
0

> <PUBCHEM_ISOTOPIC_ATOM_COUNT>
0

> <PUBCHEM_COMPONENT_COUNT>
2

> <PUBCHEM_CACTVS_TAUTO_COUNT>
1

> <PUBCHEM_COORDINATE_TYPE>
1
5
255

$$$$

