17395485
  -OEChem-06241222502D

 43 45  0     0  0  0  0  0  0999 V2000
    4.5744    2.3551    0.0000 S   0  0  0  0  0  0  0  0  0  0  0  0
    3.3669    1.9333    0.0000 F   0  0  0  0  0  0  0  0  0  0  0  0
    5.6622   -3.9928    0.0000 O   0  0  0  0  0  0  0  0  0  0  0  0
    4.8001    4.9912    0.0000 O   0  0  0  0  0  0  0  0  0  0  0  0
    4.8532    0.5950    0.0000 N   0  0  0  0  0  0  0  0  0  0  0  0
    6.4712    0.5950    0.0000 N   0  0  0  0  0  0  0  0  0  0  0  0
    6.1622    1.5461    0.0000 N   0  0  0  0  0  0  0  0  0  0  0  0
    5.6622    0.0072    0.0000 C   0  0  0  0  0  0  0  0  0  0  0  0
    5.6622   -0.9928    0.0000 C   0  0  0  0  0  0  0  0  0  0  0  0
    3.9021    0.2860    0.0000 C   0  0  0  0  0  0  0  0  0  0  0  0
    5.1622    1.5461    0.0000 C   0  0  0  0  0  0  0  0  0  0  0  0
    4.7962   -1.4928    0.0000 C   0  0  0  0  0  0  0  0  0  0  0  0
    6.5282   -1.4928    0.0000 C   0  0  0  0  0  0  0  0  0  0  0  0
    3.1590    0.9551    0.0000 C   0  0  0  0  0  0  0  0  0  0  0  0
    3.6942   -0.6922    0.0000 C   0  0  0  0  0  0  0  0  0  0  0  0
    5.6622   -2.9928    0.0000 C   0  0  0  0  0  0  0  0  0  0  0  0
    4.7962   -2.4928    0.0000 C   0  0  0  0  0  0  0  0  0  0  0  0
    6.5282   -2.4928    0.0000 C   0  0  0  0  0  0  0  0  0  0  0  0
    4.9811    3.2686    0.0000 C   0  0  0  0  0  0  0  0  0  0  0  0
    2.2079    0.6461    0.0000 C   0  0  0  0  0  0  0  0  0  0  0  0
    2.7431   -1.0012    0.0000 C   0  0  0  0  0  0  0  0  0  0  0  0
    2.0000   -0.3320    0.0000 C   0  0  0  0  0  0  0  0  0  0  0  0
    4.3934    4.0776    0.0000 C   0  0  0  0  0  0  0  0  0  0  0  0
    6.5282   -4.4928    0.0000 C   0  0  0  0  0  0  0  0  0  0  0  0
    6.5282   -5.4928    0.0000 C   0  0  0  0  0  0  0  0  0  0  0  0
    4.2592   -1.1828    0.0000 H   0  0  0  0  0  0  0  0  0  0  0  0
    7.0652   -1.1828    0.0000 H   0  0  0  0  0  0  0  0  0  0  0  0
    4.1550   -1.1070    0.0000 H   0  0  0  0  0  0  0  0  0  0  0  0
    4.2592   -2.8028    0.0000 H   0  0  0  0  0  0  0  0  0  0  0  0
    7.0652   -2.8028    0.0000 H   0  0  0  0  0  0  0  0  0  0  0  0
    5.4951    2.9219    0.0000 H   0  0  0  0  0  0  0  0  0  0  0  0
    5.4118    3.7146    0.0000 H   0  0  0  0  0  0  0  0  0  0  0  0
    1.7472    1.0610    0.0000 H   0  0  0  0  0  0  0  0  0  0  0  0
    2.6142   -1.6076    0.0000 H   0  0  0  0  0  0  0  0  0  0  0  0
    1.4103   -0.5236    0.0000 H   0  0  0  0  0  0  0  0  0  0  0  0
    3.8794    4.4243    0.0000 H   0  0  0  0  0  0  0  0  0  0  0  0
    3.9627    3.6316    0.0000 H   0  0  0  0  0  0  0  0  0  0  0  0
    7.1388   -4.6004    0.0000 H   0  0  0  0  0  0  0  0  0  0  0  0
    6.7403   -3.9102    0.0000 H   0  0  0  0  0  0  0  0  0  0  0  0
    5.9082   -5.4928    0.0000 H   0  0  0  0  0  0  0  0  0  0  0  0
    6.5282   -6.1128    0.0000 H   0  0  0  0  0  0  0  0  0  0  0  0
    7.1482   -5.4928    0.0000 H   0  0  0  0  0  0  0  0  0  0  0  0
    4.4357    5.4928    0.0000 H   0  0  0  0  0  0  0  0  0  0  0  0
  1 11  1  0  0  0  0
  1 19  1  0  0  0  0
  2 14  1  0  0  0  0
  3 16  1  0  0  0  0
  3 24  1  0  0  0  0
  4 23  1  0  0  0  0
  4 43  1  0  0  0  0
  5  8  1  0  0  0  0
  5 10  1  0  0  0  0
  5 11  1  0  0  0  0
  6  7  1  0  0  0  0
  6  8  2  0  0  0  0
  7 11  2  0  0  0  0
  8  9  1  0  0  0  0
  9 12  2  0  0  0  0
  9 13  1  0  0  0  0
 10 14  1  0  0  0  0
 10 15  2  0  0  0  0
 12 17  1  0  0  0  0
 12 26  1  0  0  0  0
 13 18  2  0  0  0  0
 13 27  1  0  0  0  0
 14 20  2  0  0  0  0
 15 21  1  0  0  0  0
 15 28  1  0  0  0  0
 16 17  2  0  0  0  0
 16 18  1  0  0  0  0
 17 29  1  0  0  0  0
 18 30  1  0  0  0  0
 19 23  1  0  0  0  0
 19 31  1  0  0  0  0
 19 32  1  0  0  0  0
 20 22  1  0  0  0  0
 20 33  1  0  0  0  0
 21 22  2  0  0  0  0
 21 34  1  0  0  0  0
 22 35  1  0  0  0  0
 23 36  1  0  0  0  0
 23 37  1  0  0  0  0
 24 25  1  0  0  0  0
 24 38  1  0  0  0  0
 24 39  1  0  0  0  0
 25 40  1  0  0  0  0
 25 41  1  0  0  0  0
 25 42  1  0  0  0  0
M  END
> <PUBCHEM_COMPOUND_CID>
17395485

> <PUBCHEM_COMPOUND_CANONICALIZED>
1

> <PUBCHEM_CACTVS_COMPLEXITY>
399

> <PUBCHEM_CACTVS_HBOND_ACCEPTOR>
6

> <PUBCHEM_CACTVS_HBOND_DONOR>
1

> <PUBCHEM_CACTVS_ROTATABLE_BOND>
7

> <PUBCHEM_CACTVS_SUBSKEYS>
AAADceB7MQBAAAAAAAAAAAAAAAAAAWAAAAAwYAAAAAAAAAAB0AAAHwQICAAADAyl2wqz1ocMFgiiAiZiZACS2CthIrAdiCAmbJiMPqLEuZuGOCjkyBPI6CeQ0AIOIAAAAAAAAABAAAAAAAAAAAAAAAAAAA==

> <PUBCHEM_IUPAC_OPENEYE_NAME>
2-[[5-(4-ethoxyphenyl)-4-(2-fluorophenyl)-1,2,4-triazol-3-yl]sulfanyl]ethanol

> <PUBCHEM_IUPAC_CAS_NAME>
2-[[5-(4-ethoxyphenyl)-4-(2-fluorophenyl)-1,2,4-triazol-3-yl]thio]ethanol

> <PUBCHEM_IUPAC_NAME>
2-[[5-(4-ethoxyphenyl)-4-(2-fluorophenyl)-1,2,4-triazol-3-yl]sulfanyl]ethanol

> <PUBCHEM_IUPAC_SYSTEMATIC_NAME>
2-[[5-(4-ethoxyphenyl)-4-(2-fluorophenyl)-1,2,4-triazol-3-yl]sulfanyl]ethanol

> <PUBCHEM_IUPAC_TRADITIONAL_NAME>
2-[[4-(2-fluorophenyl)-5-p-phenetyl-1,2,4-triazol-3-yl]thio]ethanol

> <PUBCHEM_IUPAC_INCHI>
InChI=1S/C18H18FN3O2S/c1-2-24-14-9-7-13(8-10-14)17-20-21-18(25-12-11-23)22(17)16-6-4-3-5-15(16)19/h3-10,23H,2,11-12H2,1H3

> <PUBCHEM_IUPAC_INCHIKEY>
FWRSVXPEJVYCLZ-UHFFFAOYSA-N

> <PUBCHEM_XLOGP3_AA>
3.3

> <PUBCHEM_EXACT_MASS>
359.110376

> <PUBCHEM_MOLECULAR_FORMULA>
C18H18FN3O2S

> <PUBCHEM_MOLECULAR_WEIGHT>
359.417823

> <PUBCHEM_OPENEYE_CAN_SMILES>
CCOC1=CC=C(C=C1)C2=NN=C(N2C3=CC=CC=C3F)SCCO

> <PUBCHEM_OPENEYE_ISO_SMILES>
CCOC1=CC=C(C=C1)C2=NN=C(N2C3=CC=CC=C3F)SCCO

> <PUBCHEM_CACTVS_TPSA>
85.5

> <PUBCHEM_MONOISOTOPIC_WEIGHT>
359.110376

> <PUBCHEM_TOTAL_CHARGE>
0

> <PUBCHEM_HEAVY_ATOM_COUNT>
25

> <PUBCHEM_ATOM_DEF_STEREO_COUNT>
0

> <PUBCHEM_ATOM_UDEF_STEREO_COUNT>
0

> <PUBCHEM_BOND_DEF_STEREO_COUNT>
0

> <PUBCHEM_BOND_UDEF_STEREO_COUNT>
0

> <PUBCHEM_ISOTOPIC_ATOM_COUNT>
0

> <PUBCHEM_COMPONENT_COUNT>
1

> <PUBCHEM_CACTVS_TAUTO_COUNT>
1

> <PUBCHEM_COORDINATE_TYPE>
1
5
255

> <PUBCHEM_BONDANNOTATIONS>
10  14  8
10  15  8
12  17  8
13  18  8
14  20  8
15  21  8
16  17  8
16  18  8
20  22  8
21  22  8
5  11  8
5  8  8
6  7  8
6  8  8
7  11  8
9  12  8
9  13  8

$$$$

