586347
  -OEChem-06241222463D

 28 29  0     0  0  0  0  0  0999 V2000
   -0.8259   -0.5522   -0.0186 N   0  0  0  0  0  0  0  0  0  0  0  0
    0.6128    2.5464    0.0557 N   0  0  0  0  0  0  0  0  0  0  0  0
    0.5538   -0.0891   -0.0045 C   0  0  0  0  0  0  0  0  0  0  0  0
    1.3360   -0.6321   -1.2044 C   0  0  0  0  0  0  0  0  0  0  0  0
    1.3295   -0.6865    1.1733 C   0  0  0  0  0  0  0  0  0  0  0  0
    2.8027   -0.5648   -0.7746 C   0  0  0  0  0  0  0  0  0  0  0  0
    2.7986   -0.5986    0.7550 C   0  0  0  0  0  0  0  0  0  0  0  0
   -1.5733   -0.1158    1.1605 C   0  0  0  0  0  0  0  0  0  0  0  0
   -1.5782   -0.0308   -1.1594 C   0  0  0  0  0  0  0  0  0  0  0  0
   -3.0202   -0.3578    0.7562 C   0  0  0  0  0  0  0  0  0  0  0  0
   -3.0228   -0.3054   -0.7685 C   0  0  0  0  0  0  0  0  0  0  0  0
    0.5869    1.3868    0.0292 C   0  0  0  0  0  0  0  0  0  0  0  0
    1.1699   -0.0756   -2.1339 H   0  0  0  0  0  0  0  0  0  0  0  0
    1.0776   -1.6825   -1.3963 H   0  0  0  0  0  0  0  0  0  0  0  0
    1.0715   -1.7450    1.3151 H   0  0  0  0  0  0  0  0  0  0  0  0
    1.1588   -0.1735    2.1267 H   0  0  0  0  0  0  0  0  0  0  0  0
    3.2645    0.3651   -1.1259 H   0  0  0  0  0  0  0  0  0  0  0  0
    3.3779   -1.3949   -1.1973 H   0  0  0  0  0  0  0  0  0  0  0  0
    3.3728   -1.4457    1.1439 H   0  0  0  0  0  0  0  0  0  0  0  0
    3.2570    0.3157    1.1495 H   0  0  0  0  0  0  0  0  0  0  0  0
   -1.4560    0.9467    1.4030 H   0  0  0  0  0  0  0  0  0  0  0  0
   -1.3214   -0.6991    2.0524 H   0  0  0  0  0  0  0  0  0  0  0  0
   -1.3278   -0.5458   -2.0927 H   0  0  0  0  0  0  0  0  0  0  0  0
   -1.4669    1.0470   -1.3240 H   0  0  0  0  0  0  0  0  0  0  0  0
   -3.6896    0.3935    1.1875 H   0  0  0  0  0  0  0  0  0  0  0  0
   -3.3604   -1.3439    1.0939 H   0  0  0  0  0  0  0  0  0  0  0  0
   -3.3597   -1.2677   -1.1718 H   0  0  0  0  0  0  0  0  0  0  0  0
   -3.6968    0.4706   -1.1455 H   0  0  0  0  0  0  0  0  0  0  0  0
  1  3  1  0  0  0  0
  1  8  1  0  0  0  0
  1  9  1  0  0  0  0
  2 12  3  0  0  0  0
  3  4  1  0  0  0  0
  3  5  1  0  0  0  0
  3 12  1  0  0  0  0
  4  6  1  0  0  0  0
  4 13  1  0  0  0  0
  4 14  1  0  0  0  0
  5  7  1  0  0  0  0
  5 15  1  0  0  0  0
  5 16  1  0  0  0  0
  6  7  1  0  0  0  0
  6 17  1  0  0  0  0
  6 18  1  0  0  0  0
  7 19  1  0  0  0  0
  7 20  1  0  0  0  0
  8 10  1  0  0  0  0
  8 21  1  0  0  0  0
  8 22  1  0  0  0  0
  9 11  1  0  0  0  0
  9 23  1  0  0  0  0
  9 24  1  0  0  0  0
 10 11  1  0  0  0  0
 10 25  1  0  0  0  0
 10 26  1  0  0  0  0
 11 27  1  0  0  0  0
 11 28  1  0  0  0  0
M  END
> <PUBCHEM_COMPOUND_CID>
586347

> <PUBCHEM_CONFORMER_RMSD>
0.6

> <PUBCHEM_CONFORMER_DIVERSEORDER>
1
4
2
3

> <PUBCHEM_MMFF94_PARTIAL_CHARGES>
6
1 -0.81
12 0.36
2 -0.56
3 0.47
8 0.27
9 0.27

> <PUBCHEM_EFFECTIVE_ROTOR_COUNT>
3

> <PUBCHEM_PHARMACOPHORE_FEATURES>
4
1 1 cation
1 2 acceptor
5 1 8 9 10 11 rings
5 3 4 5 6 7 rings

> <PUBCHEM_HEAVY_ATOM_COUNT>
12

> <PUBCHEM_ATOM_DEF_STEREO_COUNT>
0

> <PUBCHEM_ATOM_UDEF_STEREO_COUNT>
0

> <PUBCHEM_BOND_DEF_STEREO_COUNT>
0

> <PUBCHEM_BOND_UDEF_STEREO_COUNT>
0

> <PUBCHEM_ISOTOPIC_ATOM_COUNT>
0

> <PUBCHEM_COMPONENT_COUNT>
1

> <PUBCHEM_CACTVS_TAUTO_COUNT>
1

> <PUBCHEM_CONFORMER_ID>
0008F26B00000001

> <PUBCHEM_MMFF94_ENERGY>
20.4145

> <PUBCHEM_FEATURE_SELFOVERLAP>
20.297

> <PUBCHEM_SHAPE_FINGERPRINT>
10219947 1 18187651301360615302
10353120 184 18340755039753341284
12326174 3 18339081488740587576
12423570 1 4875117343827991424
12897270 3 15913319191392101743
12932764 1 17988362577175183091
14325111 11 15697996344693701743
14993402 34 18187365406862453406
15501101 241 17240764012360287238
16945 1 18410575080394621798
20361792 2 18408044034671121263
20653091 64 18264490589668060307
20711985 327 18259708895435446952
20711985 344 18049718817533862128
207724 885 18187075165752139199
21524375 3 17473265375054254088
29004967 10 18409444808321900162
3248919 1 17967813804326734679
5084963 1 17676200273729848119
81228 2 18122624126378669520

> <PUBCHEM_SHAPE_MULTIPOLES>
236.99
4.42
1.37
1.28
1.22
1.28
0.04
-1.36
0.08
-0.49
-0.11
0.06
-0.25
0.04

> <PUBCHEM_SHAPE_SELFOVERLAP>
489.656

> <PUBCHEM_SHAPE_VOLUME>
137.9

> <PUBCHEM_COORDINATE_TYPE>
2
5
10

$$$$

