51090938
  -OEChem-06241223003D

 41 42  0     1  0  0  0  0  0999 V2000
   -5.8486   -2.6019   -0.2300 F   0  0  0  0  0  0  0  0  0  0  0  0
   -4.7753   -1.8642    1.5179 F   0  0  0  0  0  0  0  0  0  0  0  0
   -6.1038   -0.5320    0.4042 F   0  0  0  0  0  0  0  0  0  0  0  0
    1.5803    2.4554    1.0859 O   0  0  0  0  0  0  0  0  0  0  0  0
    6.2339   -1.7106    0.0690 O   0  0  0  0  0  0  0  0  0  0  0  0
   -3.3422    0.0118   -0.0623 N   0  0  1  0  0  0  0  0  0  0  0  0
    0.7292    1.3873   -0.7897 N   0  0  0  0  0  0  0  0  0  0  0  0
   -1.6090    1.5408   -0.1129 C   0  0  1  0  0  0  0  0  0  0  0  0
   -2.9157    2.3337   -0.1947 C   0  0  0  0  0  0  0  0  0  0  0  0
   -1.9921    0.1513   -0.6091 C   0  0  0  0  0  0  0  0  0  0  0  0
   -4.0111    1.2814   -0.3548 C   0  0  0  0  0  0  0  0  0  0  0  0
   -0.4706    2.1650   -0.9025 C   0  0  0  0  0  0  0  0  0  0  0  0
   -4.0520   -1.1321   -0.6147 C   0  0  0  0  0  0  0  0  0  0  0  0
   -5.2027   -1.5299    0.2816 C   0  0  0  0  0  0  0  0  0  0  0  0
    1.6731    1.5983    0.2110 C   0  0  0  0  0  0  0  0  0  0  0  0
    2.8749    0.7256    0.1745 C   0  0  0  0  0  0  0  0  0  0  0  0
    4.0801    1.1756    0.7137 C   0  0  0  0  0  0  0  0  0  0  0  0
    2.7984   -0.5432   -0.3999 C   0  0  0  0  0  0  0  0  0  0  0  0
    5.2088    0.3569    0.6782 C   0  0  0  0  0  0  0  0  0  0  0  0
    3.9270   -1.3618   -0.4355 C   0  0  0  0  0  0  0  0  0  0  0  0
    5.1322   -0.9118    0.1035 C   0  0  0  0  0  0  0  0  0  0  0  0
    6.0852   -2.9954   -0.5333 C   0  0  0  0  0  0  0  0  0  0  0  0
   -1.3172    1.4671    0.9451 H   0  0  0  0  0  0  0  0  0  0  0  0
   -3.0582    2.9191    0.7207 H   0  0  0  0  0  0  0  0  0  0  0  0
   -2.9280    3.0282   -1.0421 H   0  0  0  0  0  0  0  0  0  0  0  0
   -1.3159   -0.6172   -0.2202 H   0  0  0  0  0  0  0  0  0  0  0  0
   -1.9925    0.1034   -1.7060 H   0  0  0  0  0  0  0  0  0  0  0  0
   -4.8390    1.4796    0.3325 H   0  0  0  0  0  0  0  0  0  0  0  0
   -4.3968    1.3195   -1.3815 H   0  0  0  0  0  0  0  0  0  0  0  0
   -0.7187    2.2289   -1.9678 H   0  0  0  0  0  0  0  0  0  0  0  0
   -0.2764    3.1823   -0.5446 H   0  0  0  0  0  0  0  0  0  0  0  0
   -3.3758   -1.9949   -0.6656 H   0  0  0  0  0  0  0  0  0  0  0  0
   -4.4023   -0.9501   -1.6379 H   0  0  0  0  0  0  0  0  0  0  0  0
    0.8943    0.6992   -1.5163 H   0  0  0  0  0  0  0  0  0  0  0  0
    4.1612    2.1625    1.1614 H   0  0  0  0  0  0  0  0  0  0  0  0
    1.8720   -0.9431   -0.8017 H   0  0  0  0  0  0  0  0  0  0  0  0
    6.1453    0.7131    1.0987 H   0  0  0  0  0  0  0  0  0  0  0  0
    3.7963   -2.3380   -0.8901 H   0  0  0  0  0  0  0  0  0  0  0  0
    7.0583   -3.4940   -0.4755 H   0  0  0  0  0  0  0  0  0  0  0  0
    5.8298   -2.9151   -1.5954 H   0  0  0  0  0  0  0  0  0  0  0  0
    5.3736   -3.6187    0.0189 H   0  0  0  0  0  0  0  0  0  0  0  0
  1 14  1  0  0  0  0
  2 14  1  0  0  0  0
  3 14  1  0  0  0  0
  4 15  2  0  0  0  0
  5 21  1  0  0  0  0
  5 22  1  0  0  0  0
  6 10  1  0  0  0  0
  6 11  1  0  0  0  0
  6 13  1  0  0  0  0
  7 12  1  0  0  0  0
  7 15  1  0  0  0  0
  7 34  1  0  0  0  0
  8  9  1  0  0  0  0
  8 10  1  0  0  0  0
  8 12  1  0  0  0  0
  8 23  1  0  0  0  0
  9 11  1  0  0  0  0
  9 24  1  0  0  0  0
  9 25  1  0  0  0  0
 10 26  1  0  0  0  0
 10 27  1  0  0  0  0
 11 28  1  0  0  0  0
 11 29  1  0  0  0  0
 12 30  1  0  0  0  0
 12 31  1  0  0  0  0
 13 14  1  0  0  0  0
 13 32  1  0  0  0  0
 13 33  1  0  0  0  0
 15 16  1  0  0  0  0
 16 17  2  0  0  0  0
 16 18  1  0  0  0  0
 17 19  1  0  0  0  0
 17 35  1  0  0  0  0
 18 20  2  0  0  0  0
 18 36  1  0  0  0  0
 19 21  2  0  0  0  0
 19 37  1  0  0  0  0
 20 21  1  0  0  0  0
 20 38  1  0  0  0  0
 22 39  1  0  0  0  0
 22 40  1  0  0  0  0
 22 41  1  0  0  0  0
M  END
> <PUBCHEM_COMPOUND_CID>
51090938

> <PUBCHEM_CONFORMER_RMSD>
0.8

> <PUBCHEM_CONFORMER_DIVERSEORDER>
1
90
119
28
83
19
140
87
49
95
31
150
35
50
79
131
21
74
34
92
122
46
100
147
66
33
78
29
84
101
123
115
8
99
53
116
139
134
103
135
52
77
57
117
20
94
155
153
22
126
68
38
43
158
149
13
132
64
104
148
11
27
137
144
154
112
37
5
128
7
97
146
42
121
47
82
127
59
45
44
16
130
10
71
56
48
156
39
125
9
51
106
118
98
109
18
54
93
73
32
23
67
75
110
129
76
138
12
36
14
85
151
96
30
141
25
120
3
145
81
124
55
152
40
4
80
142
58
69
26
89
108
91
133
105
157
111
72
6
70
107
61
113
2
136
114
24
86
41
63
65
143
15
88
60
17
62
102

> <PUBCHEM_MMFF94_PARTIAL_CHARGES>
25
1 -0.34
10 0.27
11 0.27
12 0.3
13 0.27
14 1.02
15 0.54
16 0.09
17 -0.15
18 -0.15
19 -0.15
2 -0.34
20 -0.15
21 0.08
22 0.28
3 -0.34
34 0.37
35 0.15
36 0.15
37 0.15
38 0.15
4 -0.57
5 -0.36
6 -0.81
7 -0.73

> <PUBCHEM_EFFECTIVE_ROTOR_COUNT>
8

> <PUBCHEM_PHARMACOPHORE_FEATURES>
6
1 4 acceptor
1 5 acceptor
1 6 cation
1 7 donor
5 6 8 9 10 11 rings
6 16 17 18 19 20 21 rings

> <PUBCHEM_HEAVY_ATOM_COUNT>
22

> <PUBCHEM_ATOM_DEF_STEREO_COUNT>
0

> <PUBCHEM_ATOM_UDEF_STEREO_COUNT>
1

> <PUBCHEM_BOND_DEF_STEREO_COUNT>
0

> <PUBCHEM_BOND_UDEF_STEREO_COUNT>
0

> <PUBCHEM_ISOTOPIC_ATOM_COUNT>
0

> <PUBCHEM_COMPONENT_COUNT>
1

> <PUBCHEM_CACTVS_TAUTO_COUNT>
2

> <PUBCHEM_CONFORMER_ID>
030B95FA00000001

> <PUBCHEM_MMFF94_ENERGY>
55.3603

> <PUBCHEM_FEATURE_SELFOVERLAP>
30.446

> <PUBCHEM_SHAPE_FINGERPRINT>
11036077 4 18188481493471021689
11197282 1 18411134736188001910
11796584 16 18126010601212793836
11809386 21 18059583554095576096
12596602 18 16660925470005015867
12633257 1 16660647306463888597
12760667 363 18410577271677106567
13103583 49 17894900862924629609
13402501 40 18411981364430783170
13533116 47 18338234847507409465
13551218 46 18335421240512768679
13955234 65 18044100051445422856
14123256 34 18409442622621636950
1420 369 18341332206375482085
14216079 64 18411702063466952223
14251751 18 18408885122696429155
14251764 30 18410292536335096826
14341114 176 18333450928275839632
14420673 8 18264767838428671631
14528608 73 10807937054751402937
14950920 106 17095526141429491171
15042514 8 18412261766404466597
15196674 1 18409732880642716628
15352361 1 18412826867502727293
15537594 2 17774156945458574193
15880784 105 18408321099001431184
17492 89 18410856521249302357
17780758 139 18040714813824616553
1813 80 17775570814296106725
193927 3 18059571343941468217
20281389 69 7781518117953537316
20398071 356 18409444825628740182
20403669 9 18411415103146961727
20621476 21 18411132550075560778
20645477 56 8502381053028701077
21095086 4 18410282640731206934
21623969 137 18040716987315334590
21682296 61 18411416181743175435
23402655 69 11095885973264716972
23424784 1240 18188202230102073870
23522609 53 18122028044874018468
23559900 14 18410867538104543861
25122255 55 18412821391361610503
270888 7 8862943870400942310
2748736 6 9151172021939300022
3004659 81 17775286049458453140
3014063 24 18261681351088293559
3089732 80 18412542106797381698
314194 84 18259993643272157004
316301 35 18411705374501531314
3421961 26 18335986354892700560
3472631 163 9007064564936056185
4073 2 18338800116985809224
465052 167 18114180874305815046
5104073 3 18114467846376772544
543368 44 9655580704197090623
54583773 228 18339634634724342662
5486654 36 18336823186441771289
559249 180 18342177808664885837
56633871 153 18262799562850929271
5718773 13 18410016498908776615
636775 8 18117267263992126726
7062679 13 18341053003579103674
7970288 3 18268432339360753847
8863177 126 18408604760237742870

> <PUBCHEM_SHAPE_MULTIPOLES>
409.23
16.43
3.03
0.91
0.02
0.76
0.1
14.59
1.74
0.42
-0.02
0.18
-0.02
1.71

> <PUBCHEM_SHAPE_SELFOVERLAP>
853.326

> <PUBCHEM_SHAPE_VOLUME>
235.7

> <PUBCHEM_COORDINATE_TYPE>
2
5
10

$$$$

