12751
  -OEChem-06261207192D

 14 14  0     1  0  0  0  0  0999 V2000
    2.0000   -0.0093    0.0000 Cl  0  0  0  0  0  0  0  0  0  0  0  0
    3.7601    1.2694    0.0000 O   0  0  0  0  0  0  0  0  0  0  0  0
    3.2601   -1.2694    0.0000 C   0  0  0  0  0  0  0  0  0  0  0  0
    4.2601   -1.2694    0.0000 C   0  0  0  0  0  0  0  0  0  0  0  0
    2.9511   -0.3184    0.0000 C   0  0  3  0  0  0  0  0  0  0  0  0
    4.5691   -0.3184    0.0000 C   0  0  0  0  0  0  0  0  0  0  0  0
    3.7601    0.2694    0.0000 C   0  0  0  0  0  0  0  0  0  0  0  0
    2.6536   -1.3983    0.0000 H   0  0  0  0  0  0  0  0  0  0  0  0
    3.3249   -1.8860    0.0000 H   0  0  0  0  0  0  0  0  0  0  0  0
    4.1953   -1.8860    0.0000 H   0  0  0  0  0  0  0  0  0  0  0  0
    4.8665   -1.3983    0.0000 H   0  0  0  0  0  0  0  0  0  0  0  0
    2.5126   -0.7568    0.0000 H   0  0  0  0  0  0  0  0  0  0  0  0
    5.1355   -0.5705    0.0000 H   0  0  0  0  0  0  0  0  0  0  0  0
    4.8791    0.2186    0.0000 H   0  0  0  0  0  0  0  0  0  0  0  0
  1  5  1  0  0  0  0
  2  7  2  0  0  0  0
  3  4  1  0  0  0  0
  3  5  1  0  0  0  0
  3  8  1  0  0  0  0
  3  9  1  0  0  0  0
  4  6  1  0  0  0  0
  4 10  1  0  0  0  0
  4 11  1  0  0  0  0
  5  7  1  0  0  0  0
  5 12  1  0  0  0  0
  6  7  1  0  0  0  0
  6 13  1  0  0  0  0
  6 14  1  0  0  0  0
M  END
> <PUBCHEM_COMPOUND_CID>
12751

> <PUBCHEM_COMPOUND_CANONICALIZED>
1

> <PUBCHEM_CACTVS_COMPLEXITY>
90.1

> <PUBCHEM_CACTVS_HBOND_ACCEPTOR>
1

> <PUBCHEM_CACTVS_HBOND_DONOR>
0

> <PUBCHEM_CACTVS_ROTATABLE_BOND>
0

> <PUBCHEM_CACTVS_SUBSKEYS>
AAADcYBgIAAEAAAAAAAAAAAAAAAAAYAAAAAAAAAAAAAAAAAAAAAAGgIAAAAACAeAgEAAAAAAAAAIAIAQAAAAAAAAAAAAAAEAAgBAABIBAAAAAAAAAAAAAAAIAAAAAAAAAAAAAAAAAAAAAAAAAAAAAAAAAA==

> <PUBCHEM_IUPAC_OPENEYE_NAME>
2-chlorocyclopentanone

> <PUBCHEM_IUPAC_CAS_NAME>
2-chloro-1-cyclopentanone

> <PUBCHEM_IUPAC_NAME>
2-chlorocyclopentan-1-one

> <PUBCHEM_IUPAC_SYSTEMATIC_NAME>
2-chloranylcyclopentan-1-one

> <PUBCHEM_IUPAC_TRADITIONAL_NAME>
2-chlorocyclopentanone

> <PUBCHEM_IUPAC_INCHI>
InChI=1S/C5H7ClO/c6-4-2-1-3-5(4)7/h4H,1-3H2

> <PUBCHEM_IUPAC_INCHIKEY>
AXDZFGRFZOQVBV-UHFFFAOYSA-N

> <PUBCHEM_XLOGP3_AA>
1.1

> <PUBCHEM_EXACT_MASS>
118.018543

> <PUBCHEM_MOLECULAR_FORMULA>
C5H7ClO

> <PUBCHEM_MOLECULAR_WEIGHT>
118.56148

> <PUBCHEM_OPENEYE_CAN_SMILES>
C1CC(C(=O)C1)Cl

> <PUBCHEM_OPENEYE_ISO_SMILES>
C1CC(C(=O)C1)Cl

> <PUBCHEM_CACTVS_TPSA>
17.1

> <PUBCHEM_MONOISOTOPIC_WEIGHT>
118.018543

> <PUBCHEM_TOTAL_CHARGE>
0

> <PUBCHEM_HEAVY_ATOM_COUNT>
7

> <PUBCHEM_ATOM_DEF_STEREO_COUNT>
0

> <PUBCHEM_ATOM_UDEF_STEREO_COUNT>
1

> <PUBCHEM_BOND_DEF_STEREO_COUNT>
0

> <PUBCHEM_BOND_UDEF_STEREO_COUNT>
0

> <PUBCHEM_ISOTOPIC_ATOM_COUNT>
0

> <PUBCHEM_COMPONENT_COUNT>
1

> <PUBCHEM_CACTVS_TAUTO_COUNT>
3

> <PUBCHEM_COORDINATE_TYPE>
1
5
255

> <PUBCHEM_BONDANNOTATIONS>
5  1  3

$$$$

