582758
  -OEChem-06241222443D

 31 33  0     0  0  0  0  0  0999 V2000
   -1.9933   -2.7079   -0.1085 O   0  0  0  0  0  0  0  0  0  0  0  0
    0.5822   -1.6071    0.1205 N   0  0  0  0  0  0  0  0  0  0  0  0
   -0.9114    1.6343   -0.8246 C   0  0  0  0  0  0  0  0  0  0  0  0
   -0.1044    0.4371   -0.4210 C   0  0  0  0  0  0  0  0  0  0  0  0
   -1.6854    2.2624    0.3332 C   0  0  0  0  0  0  0  0  0  0  0  0
   -3.1338    1.7902    0.4645 C   0  0  0  0  0  0  0  0  0  0  0  0
   -3.3134    0.3121    0.8071 C   0  0  0  0  0  0  0  0  0  0  0  0
   -0.5388   -0.8643   -0.1880 C   0  0  0  0  0  0  0  0  0  0  0  0
   -3.0859   -0.6250   -0.3768 C   0  0  0  0  0  0  0  0  0  0  0  0
    1.3204    0.4568   -0.2052 C   0  0  0  0  0  0  0  0  0  0  0  0
   -1.8516   -1.4874   -0.2154 C   0  0  0  0  0  0  0  0  0  0  0  0
    1.7129   -0.8348    0.1299 C   0  0  0  0  0  0  0  0  0  0  0  0
    2.3137    1.4598   -0.2668 C   0  0  0  0  0  0  0  0  0  0  0  0
    3.0400   -1.1835    0.4064 C   0  0  0  0  0  0  0  0  0  0  0  0
    3.6465    1.1307    0.0065 C   0  0  0  0  0  0  0  0  0  0  0  0
    4.0023   -0.1735    0.3381 C   0  0  0  0  0  0  0  0  0  0  0  0
   -0.2239    2.3955   -1.2154 H   0  0  0  0  0  0  0  0  0  0  0  0
   -1.5649    1.3973   -1.6700 H   0  0  0  0  0  0  0  0  0  0  0  0
   -1.1586    2.1190    1.2849 H   0  0  0  0  0  0  0  0  0  0  0  0
   -1.7214    3.3466    0.1637 H   0  0  0  0  0  0  0  0  0  0  0  0
   -3.5989    2.3790    1.2658 H   0  0  0  0  0  0  0  0  0  0  0  0
   -3.6887    2.0329   -0.4502 H   0  0  0  0  0  0  0  0  0  0  0  0
   -4.3538    0.1852    1.1344 H   0  0  0  0  0  0  0  0  0  0  0  0
   -2.6890    0.0444    1.6678 H   0  0  0  0  0  0  0  0  0  0  0  0
   -3.0658   -0.1177   -1.3449 H   0  0  0  0  0  0  0  0  0  0  0  0
   -3.9390   -1.3153   -0.4313 H   0  0  0  0  0  0  0  0  0  0  0  0
    0.5653   -2.5948    0.3330 H   0  0  0  0  0  0  0  0  0  0  0  0
    2.0575    2.4842   -0.5219 H   0  0  0  0  0  0  0  0  0  0  0  0
    3.3157   -2.2004    0.6647 H   0  0  0  0  0  0  0  0  0  0  0  0
    4.4098    1.9027   -0.0408 H   0  0  0  0  0  0  0  0  0  0  0  0
    5.0423   -0.4105    0.5471 H   0  0  0  0  0  0  0  0  0  0  0  0
  1 11  2  0  0  0  0
  2  8  1  0  0  0  0
  2 12  1  0  0  0  0
  2 27  1  0  0  0  0
  3  4  1  0  0  0  0
  3  5  1  0  0  0  0
  3 17  1  0  0  0  0
  3 18  1  0  0  0  0
  4  8  2  0  0  0  0
  4 10  1  0  0  0  0
  5  6  1  0  0  0  0
  5 19  1  0  0  0  0
  5 20  1  0  0  0  0
  6  7  1  0  0  0  0
  6 21  1  0  0  0  0
  6 22  1  0  0  0  0
  7  9  1  0  0  0  0
  7 23  1  0  0  0  0
  7 24  1  0  0  0  0
  8 11  1  0  0  0  0
  9 11  1  0  0  0  0
  9 25  1  0  0  0  0
  9 26  1  0  0  0  0
 10 12  1  0  0  0  0
 10 13  2  0  0  0  0
 12 14  2  0  0  0  0
 13 15  1  0  0  0  0
 13 28  1  0  0  0  0
 14 16  1  0  0  0  0
 14 29  1  0  0  0  0
 15 16  2  0  0  0  0
 15 30  1  0  0  0  0
 16 31  1  0  0  0  0
M  END
> <PUBCHEM_COMPOUND_CID>
582758

> <PUBCHEM_CONFORMER_RMSD>
0.6

> <PUBCHEM_CONFORMER_DIVERSEORDER>
1
2

> <PUBCHEM_MMFF94_PARTIAL_CHARGES>
17
1 -0.57
11 0.59
12 -0.15
13 -0.15
14 -0.15
15 -0.15
16 -0.15
2 0.03
27 0.27
28 0.15
29 0.15
3 0.18
30 0.15
31 0.15
4 -0.18
8 -0.24
9 0.06

> <PUBCHEM_EFFECTIVE_ROTOR_COUNT>
1

> <PUBCHEM_PHARMACOPHORE_FEATURES>
5
1 1 acceptor
1 2 cation
1 2 donor
5 2 4 8 10 12 rings
6 10 12 13 14 15 16 rings

> <PUBCHEM_HEAVY_ATOM_COUNT>
16

> <PUBCHEM_ATOM_DEF_STEREO_COUNT>
0

> <PUBCHEM_ATOM_UDEF_STEREO_COUNT>
0

> <PUBCHEM_BOND_DEF_STEREO_COUNT>
0

> <PUBCHEM_BOND_UDEF_STEREO_COUNT>
0

> <PUBCHEM_ISOTOPIC_ATOM_COUNT>
0

> <PUBCHEM_COMPONENT_COUNT>
1

> <PUBCHEM_CACTVS_TAUTO_COUNT>
10

> <PUBCHEM_CONFORMER_ID>
0008E46600000001

> <PUBCHEM_MMFF94_ENERGY>
29.9948

> <PUBCHEM_FEATURE_SELFOVERLAP>
25.46

> <PUBCHEM_SHAPE_FINGERPRINT>
10608611 8 18335424569049093392
10967382 1 18411138068997337662
11132069 177 18410298007896643648
12251169 10 18411698807137696472
12382932 28 18409443683177443307
12491281 212 18412256225099257768
13140716 1 18340768126539934442
13221675 6 18342176686976723490
13380535 21 18409442622447134814
13380535 76 18334860570938899287
14144814 61 18411983576412202562
15196674 1 18411136956753964153
15219456 202 18041273387185108254
15309172 13 18267018534678478313
15442244 35 18339365287574375186
15775835 57 18408879663550636897
16945 1 18410855490203586494
17804303 29 18337387248996956662
19591789 44 17907292509473075910
200 152 18335155188905828637
20261772 1 18338502093563047129
20510252 161 18260545666844809497
20525323 117 18335426759197292079
21267235 1 18411973637726426478
21501502 16 18411421704701307316
21731228 192 18264759042794546545
22445834 79 18201161043675549386
2334 1 18124314900236322526
23388829 49 18197496212311216205
23402539 116 18187655665606759007
23463225 33 18342458144894910332
23557571 272 18188480264445535142
23559900 14 18187645856180828086
2748010 2 17764313142435462326
335352 9 18194683898043650806
5104073 3 18411703179746675112
69090 78 18410577331305625081
6992083 37 18272647939633759861
7097593 13 18128268972152765458
7364860 26 18118400885094405014
7471813 234 17465392915403094767
9709674 26 18334292076220005494

> <PUBCHEM_SHAPE_MULTIPOLES>
318.42
6.39
2.38
0.77
2.49
0.24
0
-0.8
-1.12
-1.35
0.03
-0.19
-0.12
-0.51

> <PUBCHEM_SHAPE_SELFOVERLAP>
693.676

> <PUBCHEM_SHAPE_VOLUME>
173.4

> <PUBCHEM_COORDINATE_TYPE>
2
5
10

$$$$

