854143
  -OEChem-06241222472D

 17 17  0     1  0  0  0  0  0999 V2000
    2.0000   -2.2339    0.0000 O   0  0  0  0  0  0  0  0  0  0  0  0
    3.9538    1.6139    0.0000 O   0  0  0  0  0  0  0  0  0  0  0  0
    2.2218    1.6139    0.0000 O   0  0  0  0  0  0  0  0  0  0  0  0
    3.0878    0.1139    0.0000 C   0  0  1  0  0  0  0  0  0  0  0  0
    3.8968   -0.4739    0.0000 C   0  0  0  0  0  0  0  0  0  0  0  0
    2.2788   -0.4739    0.0000 C   0  0  0  0  0  0  0  0  0  0  0  0
    3.5878   -1.4249    0.0000 C   0  0  0  0  0  0  0  0  0  0  0  0
    2.5878   -1.4249    0.0000 C   0  0  0  0  0  0  0  0  0  0  0  0
    3.0878    1.1139    0.0000 C   0  0  0  0  0  0  0  0  0  0  0  0
    3.6402    0.3954    0.0000 H   0  0  0  0  0  0  0  0  0  0  0  0
    4.4632   -0.7260    0.0000 H   0  0  0  0  0  0  0  0  0  0  0  0
    4.2068    0.0631    0.0000 H   0  0  0  0  0  0  0  0  0  0  0  0
    1.9688    0.0631    0.0000 H   0  0  0  0  0  0  0  0  0  0  0  0
    1.7124   -0.7260    0.0000 H   0  0  0  0  0  0  0  0  0  0  0  0
    3.5230   -2.0415    0.0000 H   0  0  0  0  0  0  0  0  0  0  0  0
    4.1942   -1.5538    0.0000 H   0  0  0  0  0  0  0  0  0  0  0  0
    3.9538    2.2339    0.0000 H   0  0  0  0  0  0  0  0  0  0  0  0
  1  8  2  0  0  0  0
  2  9  1  0  0  0  0
  2 17  1  0  0  0  0
  3  9  2  0  0  0  0
  4  5  1  0  0  0  0
  4  6  1  0  0  0  0
  4  9  1  1  0  0  0
  4 10  1  0  0  0  0
  5  7  1  0  0  0  0
  5 11  1  0  0  0  0
  5 12  1  0  0  0  0
  6  8  1  0  0  0  0
  6 13  1  0  0  0  0
  6 14  1  0  0  0  0
  7  8  1  0  0  0  0
  7 15  1  0  0  0  0
  7 16  1  0  0  0  0
M  END
> <PUBCHEM_COMPOUND_CID>
854143

> <PUBCHEM_COMPOUND_CANONICALIZED>
1

> <PUBCHEM_CACTVS_COMPLEXITY>
150

> <PUBCHEM_CACTVS_HBOND_ACCEPTOR>
3

> <PUBCHEM_CACTVS_HBOND_DONOR>
1

> <PUBCHEM_CACTVS_ROTATABLE_BOND>
1

> <PUBCHEM_CACTVS_SUBSKEYS>
AAADccBgMAAAAAAAAAAAAAAAAAAAAYAAAAAAAAAAAAAAAAAAAAAAGgAACAAADQSAgAAACAAAAgAIAICQCAAAAAAAAAAAAAEAAAAAABIAAAAAQAAEAAAAAAGLTgAuAAAAAAAAAAAAAAAAAAAAAAAAAAAAAA==

> <PUBCHEM_IUPAC_OPENEYE_NAME>
(1S)-3-oxocyclopentanecarboxylic acid

> <PUBCHEM_IUPAC_CAS_NAME>
(1S)-3-oxo-1-cyclopentanecarboxylic acid

> <PUBCHEM_IUPAC_NAME>
(1S)-3-oxocyclopentane-1-carboxylic acid

> <PUBCHEM_IUPAC_SYSTEMATIC_NAME>
(1S)-3-oxidanylidenecyclopentane-1-carboxylic acid

> <PUBCHEM_IUPAC_TRADITIONAL_NAME>
(1S)-3-ketocyclopentanecarboxylic acid

> <PUBCHEM_IUPAC_INCHI>
InChI=1S/C6H8O3/c7-5-2-1-4(3-5)6(8)9/h4H,1-3H2,(H,8,9)/t4-/m0/s1

> <PUBCHEM_IUPAC_INCHIKEY>
RDSNBKRWKBMPOP-BYPYZUCNSA-N

> <PUBCHEM_XLOGP3_AA>
-0.4

> <PUBCHEM_EXACT_MASS>
128.047344

> <PUBCHEM_MOLECULAR_FORMULA>
C6H8O3

> <PUBCHEM_MOLECULAR_WEIGHT>
128.12592

> <PUBCHEM_OPENEYE_CAN_SMILES>
C1CC(=O)CC1C(=O)O

> <PUBCHEM_OPENEYE_ISO_SMILES>
C1CC(=O)C[C@H]1C(=O)O

> <PUBCHEM_CACTVS_TPSA>
54.4

> <PUBCHEM_MONOISOTOPIC_WEIGHT>
128.047344

> <PUBCHEM_TOTAL_CHARGE>
0

> <PUBCHEM_HEAVY_ATOM_COUNT>
9

> <PUBCHEM_ATOM_DEF_STEREO_COUNT>
1

> <PUBCHEM_ATOM_UDEF_STEREO_COUNT>
0

> <PUBCHEM_BOND_DEF_STEREO_COUNT>
0

> <PUBCHEM_BOND_UDEF_STEREO_COUNT>
0

> <PUBCHEM_ISOTOPIC_ATOM_COUNT>
0

> <PUBCHEM_COMPONENT_COUNT>
1

> <PUBCHEM_CACTVS_TAUTO_COUNT>
3

> <PUBCHEM_COORDINATE_TYPE>
1
5
255

> <PUBCHEM_BONDANNOTATIONS>
4  9  5

$$$$

