582704
  -OEChem-06241222433D

 39 40  0     1  0  0  0  0  0999 V2000
    6.8831    1.2202    1.0894 I   0  0  0  0  0  0  0  0  0  0  0  0
    0.8673   -0.7877   -0.7833 S   0  0  0  0  0  0  0  0  0  0  0  0
   -3.2554    1.7795    0.5378 O   0  0  0  0  0  0  0  0  0  0  0  0
   -2.3393   -1.8429    0.5560 O   0  0  0  0  0  0  0  0  0  0  0  0
    0.8183   -0.7971   -2.2388 O   0  0  0  0  0  0  0  0  0  0  0  0
    0.5300   -1.9943   -0.0407 O   0  0  0  0  0  0  0  0  0  0  0  0
   -2.0523    2.1007   -1.4109 O   0  0  0  0  0  0  0  0  0  0  0  0
   -2.1577   -1.2547   -1.6733 O   0  0  0  0  0  0  0  0  0  0  0  0
   -0.0995    0.4982   -0.2077 N   0  0  1  0  0  0  0  0  0  0  0  0
   -1.5356    0.2841   -0.0034 C   0  0  0  0  0  0  0  0  0  0  0  0
   -0.5931    0.3192    1.1612 C   0  0  0  0  0  0  0  0  0  0  0  0
   -2.2973    1.4855   -0.3831 C   0  0  0  0  0  0  0  0  0  0  0  0
   -2.0414   -1.0124   -0.4805 C   0  0  0  0  0  0  0  0  0  0  0  0
    2.4552   -0.2575   -0.2887 C   0  0  0  0  0  0  0  0  0  0  0  0
    3.2259    0.5291   -1.1449 C   0  0  0  0  0  0  0  0  0  0  0  0
    2.9532   -0.6201    0.9626 C   0  0  0  0  0  0  0  0  0  0  0  0
   -4.0482    2.9361    0.2512 C   0  0  0  0  0  0  0  0  0  0  0  0
   -2.8403   -3.1313    0.1859 C   0  0  0  0  0  0  0  0  0  0  0  0
    4.4945    0.9531   -0.7496 C   0  0  0  0  0  0  0  0  0  0  0  0
    4.2220   -0.1959    1.3579 C   0  0  0  0  0  0  0  0  0  0  0  0
    4.9927    0.5907    0.5017 C   0  0  0  0  0  0  0  0  0  0  0  0
   -5.0603    3.1274    1.3606 C   0  0  0  0  0  0  0  0  0  0  0  0
   -3.1218   -3.9300    1.4407 C   0  0  0  0  0  0  0  0  0  0  0  0
   -0.3129   -0.5851    1.6774 H   0  0  0  0  0  0  0  0  0  0  0  0
   -0.5109    1.2289    1.7409 H   0  0  0  0  0  0  0  0  0  0  0  0
    2.8551    0.8288   -2.1211 H   0  0  0  0  0  0  0  0  0  0  0  0
    2.3687   -1.2276    1.6477 H   0  0  0  0  0  0  0  0  0  0  0  0
   -4.5673    2.7954   -0.7034 H   0  0  0  0  0  0  0  0  0  0  0  0
   -3.3991    3.8164    0.1860 H   0  0  0  0  0  0  0  0  0  0  0  0
   -2.0944   -3.6517   -0.4250 H   0  0  0  0  0  0  0  0  0  0  0  0
   -3.7637   -3.0116   -0.3917 H   0  0  0  0  0  0  0  0  0  0  0  0
    5.0779    1.5666   -1.4316 H   0  0  0  0  0  0  0  0  0  0  0  0
    4.5906   -0.4888    2.3377 H   0  0  0  0  0  0  0  0  0  0  0  0
   -4.5561    3.2513    2.3248 H   0  0  0  0  0  0  0  0  0  0  0  0
   -5.7051    2.2470    1.4500 H   0  0  0  0  0  0  0  0  0  0  0  0
   -5.6849    4.0053    1.1732 H   0  0  0  0  0  0  0  0  0  0  0  0
   -3.8532   -3.4129    2.0706 H   0  0  0  0  0  0  0  0  0  0  0  0
   -2.2108   -4.0420    2.0380 H   0  0  0  0  0  0  0  0  0  0  0  0
   -3.5070   -4.9232    1.1941 H   0  0  0  0  0  0  0  0  0  0  0  0
  1 21  1  0  0  0  0
  2  5  2  0  0  0  0
  2  6  2  0  0  0  0
  2  9  1  0  0  0  0
  2 14  1  0  0  0  0
  3 12  1  0  0  0  0
  3 17  1  0  0  0  0
  4 13  1  0  0  0  0
  4 18  1  0  0  0  0
  7 12  2  0  0  0  0
  8 13  2  0  0  0  0
  9 10  1  0  0  0  0
  9 11  1  0  0  0  0
 10 11  1  0  0  0  0
 10 12  1  0  0  0  0
 10 13  1  0  0  0  0
 11 24  1  0  0  0  0
 11 25  1  0  0  0  0
 14 15  2  0  0  0  0
 14 16  1  0  0  0  0
 15 19  1  0  0  0  0
 15 26  1  0  0  0  0
 16 20  2  0  0  0  0
 16 27  1  0  0  0  0
 17 22  1  0  0  0  0
 17 28  1  0  0  0  0
 17 29  1  0  0  0  0
 18 23  1  0  0  0  0
 18 30  1  0  0  0  0
 18 31  1  0  0  0  0
 19 21  2  0  0  0  0
 19 32  1  0  0  0  0
 20 21  1  0  0  0  0
 20 33  1  0  0  0  0
 22 34  1  0  0  0  0
 22 35  1  0  0  0  0
 22 36  1  0  0  0  0
 23 37  1  0  0  0  0
 23 38  1  0  0  0  0
 23 39  1  0  0  0  0
M  END
> <PUBCHEM_COMPOUND_CID>
582704

> <PUBCHEM_CONFORMER_RMSD>
0.8

> <PUBCHEM_CONFORMER_DIVERSEORDER>
1
58
10
29
51
52
35
47
57
37
25
3
17
45
46
26
14
54
53
34
43
50
36
56
5
30
18
32
22
7
13
42
6
40
33
31
11
16
24
49
39
28
41
48
23
20
19
8
27
44
9
12
15
21
38
55
4
2

> <PUBCHEM_MMFF94_PARTIAL_CHARGES>
27
1 -0.08
10 0.23
11 0.03
12 0.72
13 0.72
14 -0.01
15 -0.15
16 -0.15
17 0.28
18 0.28
19 -0.15
2 1.45
20 -0.15
21 0.08
24 0.1
25 0.1
26 0.15
27 0.15
3 -0.43
32 0.15
33 0.15
4 -0.43
5 -0.65
6 -0.65
7 -0.57
8 -0.57
9 -0.6

> <PUBCHEM_EFFECTIVE_ROTOR_COUNT>
8.6

> <PUBCHEM_PHARMACOPHORE_FEATURES>
6
1 1 hydrophobe
1 5 acceptor
1 6 acceptor
1 7 acceptor
1 8 acceptor
6 14 15 16 19 20 21 rings

> <PUBCHEM_HEAVY_ATOM_COUNT>
23

> <PUBCHEM_ATOM_DEF_STEREO_COUNT>
0

> <PUBCHEM_ATOM_UDEF_STEREO_COUNT>
0

> <PUBCHEM_BOND_DEF_STEREO_COUNT>
0

> <PUBCHEM_BOND_UDEF_STEREO_COUNT>
0

> <PUBCHEM_ISOTOPIC_ATOM_COUNT>
0

> <PUBCHEM_COMPONENT_COUNT>
1

> <PUBCHEM_CACTVS_TAUTO_COUNT>
1

> <PUBCHEM_CONFORMER_ID>
0008E43000000001

> <PUBCHEM_MMFF94_ENERGY>
38.9585

> <PUBCHEM_FEATURE_SELFOVERLAP>
30.465

> <PUBCHEM_SHAPE_FINGERPRINT>
10074138 170 18343302548666561691
10493431 412 18337669827722753273
10498660 4 17676206879685293080
11315181 36 18059866004910765784
12107183 9 18125733524467471250
12403259 118 18337395938059174984
12403259 415 17895185589913957740
12532896 13 18265328589997205839
12616971 3 17489586771287462796
12633257 1 18060138747776365476
12788726 201 18055055589066351483
12892183 10 16772955972732958152
12930653 34 18410573981031271734
13140716 1 18410012100551178392
13540713 4 18041823100128815094
13583140 156 18188221918363572450
13955234 65 17476346680030881097
14178342 30 18272364274192456262
14565420 104 17975966881037592441
15778101 99 18408603673896107192
15806764 133 17531516586840474440
15842332 3 17559938957690649670
17980427 23 18341335518033125556
200 152 17345486894511541106
21033648 29 18127128803932315196
21401589 2 18261954154256943281
22182313 1 17750494278476380574
22224240 67 18264762324788494505
23557571 272 18261376854464065748
23558518 356 18127965304647577673
23559900 14 17986409792868353860
3472631 163 18186805798663373436
394222 165 17612311162481577945
4340502 62 18264198296428646177
5104073 3 18341345439786822402
5969126 39 18042979679187272671
7808743 9 18408325510038709376
7970288 3 10807632498795595728
9981440 41 17895768394673539342

> <PUBCHEM_SHAPE_MULTIPOLES>
448.92
12.19
3.56
1.55
16.58
0.93
0.28
-7.36
-5.28
-8.74
-1.52
0.09
0.17
0.06

> <PUBCHEM_SHAPE_SELFOVERLAP>
899.498

> <PUBCHEM_SHAPE_VOLUME>
269.5

> <PUBCHEM_COORDINATE_TYPE>
2
5
10

$$$$

