6075
  -OEChem-06261201053D

 44 47  0     1  0  0  0  0  0999 V2000
    2.5093   -0.5576   -1.5859 S   0  0  0  0  0  0  0  0  0  0  0  0
   -3.1682    0.6013   -1.3642 N   0  0  1  0  0  0  0  0  0  0  0  0
    0.5278   -0.0274    0.7501 N   0  0  0  0  0  0  0  0  0  0  0  0
   -1.9476    0.0479    0.7259 C   0  0  1  0  0  0  0  0  0  0  0  0
   -3.1880    0.4045    1.5525 C   0  0  0  0  0  0  0  0  0  0  0  0
   -1.9352    0.8329   -0.5968 C   0  0  0  0  0  0  0  0  0  0  0  0
   -4.4526    0.2386    0.7166 C   0  0  0  0  0  0  0  0  0  0  0  0
   -0.6729    0.3121    1.5249 C   0  0  0  0  0  0  0  0  0  0  0  0
   -4.3544    1.0097   -0.5997 C   0  0  0  0  0  0  0  0  0  0  0  0
   -3.1157    1.3096   -2.6433 C   0  0  0  0  0  0  0  0  0  0  0  0
    1.4410    1.0201    0.4687 C   0  0  0  0  0  0  0  0  0  0  0  0
    0.7153   -1.3885    0.3997 C   0  0  0  0  0  0  0  0  0  0  0  0
    2.4039    0.8894   -0.5515 C   0  0  0  0  0  0  0  0  0  0  0  0
    1.6061   -1.7577   -0.6277 C   0  0  0  0  0  0  0  0  0  0  0  0
    1.4549    2.2201    1.2128 C   0  0  0  0  0  0  0  0  0  0  0  0
    0.0530   -2.4339    1.0798 C   0  0  0  0  0  0  0  0  0  0  0  0
    3.3123    1.9283   -0.8214 C   0  0  0  0  0  0  0  0  0  0  0  0
    1.7939   -3.1096   -0.9663 C   0  0  0  0  0  0  0  0  0  0  0  0
    2.3632    3.2477    0.9436 C   0  0  0  0  0  0  0  0  0  0  0  0
    0.2471   -3.7762    0.7426 C   0  0  0  0  0  0  0  0  0  0  0  0
    3.2909    3.1028   -0.0767 C   0  0  0  0  0  0  0  0  0  0  0  0
    1.1160   -4.1142   -0.2838 C   0  0  0  0  0  0  0  0  0  0  0  0
   -2.0322   -1.0152    0.4728 H   0  0  0  0  0  0  0  0  0  0  0  0
   -3.1237    1.4419    1.9045 H   0  0  0  0  0  0  0  0  0  0  0  0
   -3.2479   -0.2332    2.4422 H   0  0  0  0  0  0  0  0  0  0  0  0
   -1.7995    1.9050   -0.3988 H   0  0  0  0  0  0  0  0  0  0  0  0
   -1.0880    0.5051   -1.2098 H   0  0  0  0  0  0  0  0  0  0  0  0
   -4.6169   -0.8263    0.5084 H   0  0  0  0  0  0  0  0  0  0  0  0
   -5.3202    0.5895    1.2867 H   0  0  0  0  0  0  0  0  0  0  0  0
   -0.6780   -0.2223    2.4832 H   0  0  0  0  0  0  0  0  0  0  0  0
   -0.7390    1.3622    1.8133 H   0  0  0  0  0  0  0  0  0  0  0  0
   -5.2605    0.8055   -1.1830 H   0  0  0  0  0  0  0  0  0  0  0  0
   -4.3351    2.0882   -0.3942 H   0  0  0  0  0  0  0  0  0  0  0  0
   -2.2609    0.9683   -3.2378 H   0  0  0  0  0  0  0  0  0  0  0  0
   -3.0344    2.3948   -2.5129 H   0  0  0  0  0  0  0  0  0  0  0  0
   -4.0127    1.0995   -3.2365 H   0  0  0  0  0  0  0  0  0  0  0  0
    0.8132    2.3914    2.0706 H   0  0  0  0  0  0  0  0  0  0  0  0
   -0.6213   -2.2430    1.9098 H   0  0  0  0  0  0  0  0  0  0  0  0
    4.0491    1.8324   -1.6166 H   0  0  0  0  0  0  0  0  0  0  0  0
    2.4729   -3.3948   -1.7674 H   0  0  0  0  0  0  0  0  0  0  0  0
    2.3514    4.1530    1.5437 H   0  0  0  0  0  0  0  0  0  0  0  0
   -0.2794   -4.5537    1.2885 H   0  0  0  0  0  0  0  0  0  0  0  0
    3.9996    3.8973   -0.2889 H   0  0  0  0  0  0  0  0  0  0  0  0
    1.2696   -5.1553   -0.5504 H   0  0  0  0  0  0  0  0  0  0  0  0
  1 13  1  0  0  0  0
  1 14  1  0  0  0  0
  2  6  1  0  0  0  0
  2  9  1  0  0  0  0
  2 10  1  0  0  0  0
  3  8  1  0  0  0  0
  3 11  1  0  0  0  0
  3 12  1  0  0  0  0
  4  5  1  0  0  0  0
  4  6  1  0  0  0  0
  4  8  1  0  0  0  0
  4 23  1  0  0  0  0
  5  7  1  0  0  0  0
  5 24  1  0  0  0  0
  5 25  1  0  0  0  0
  6 26  1  0  0  0  0
  6 27  1  0  0  0  0
  7  9  1  0  0  0  0
  7 28  1  0  0  0  0
  7 29  1  0  0  0  0
  8 30  1  0  0  0  0
  8 31  1  0  0  0  0
  9 32  1  0  0  0  0
  9 33  1  0  0  0  0
 10 34  1  0  0  0  0
 10 35  1  0  0  0  0
 10 36  1  0  0  0  0
 11 13  1  0  0  0  0
 11 15  2  0  0  0  0
 12 14  1  0  0  0  0
 12 16  2  0  0  0  0
 13 17  2  0  0  0  0
 14 18  2  0  0  0  0
 15 19  1  0  0  0  0
 15 37  1  0  0  0  0
 16 20  1  0  0  0  0
 16 38  1  0  0  0  0
 17 21  1  0  0  0  0
 17 39  1  0  0  0  0
 18 22  1  0  0  0  0
 18 40  1  0  0  0  0
 19 21  2  0  0  0  0
 19 41  1  0  0  0  0
 20 22  2  0  0  0  0
 20 42  1  0  0  0  0
 21 43  1  0  0  0  0
 22 44  1  0  0  0  0
M  END
> <PUBCHEM_COMPOUND_CID>
6075

> <PUBCHEM_CONFORMER_RMSD>
0.6

> <PUBCHEM_CONFORMER_DIVERSEORDER>
3
6
11
9
12
8
4
10
1
5
7
2

> <PUBCHEM_MMFF94_PARTIAL_CHARGES>
27
1 -0.2
10 0.27
11 0.1
12 0.1
13 0.1
14 0.1
15 -0.15
16 -0.15
17 -0.15
18 -0.15
19 -0.15
2 -0.81
20 -0.15
21 -0.15
22 -0.15
3 -0.57
37 0.15
38 0.15
39 0.15
40 0.15
41 0.15
42 0.15
43 0.15
44 0.15
6 0.27
8 0.37
9 0.27

> <PUBCHEM_EFFECTIVE_ROTOR_COUNT>
3.6

> <PUBCHEM_PHARMACOPHORE_FEATURES>
6
1 2 cation
1 3 cation
6 1 3 11 12 13 14 rings
6 11 13 15 17 19 21 rings
6 12 14 16 18 20 22 rings
6 2 4 5 6 7 9 rings

> <PUBCHEM_HEAVY_ATOM_COUNT>
22

> <PUBCHEM_ATOM_DEF_STEREO_COUNT>
0

> <PUBCHEM_ATOM_UDEF_STEREO_COUNT>
1

> <PUBCHEM_BOND_DEF_STEREO_COUNT>
0

> <PUBCHEM_BOND_UDEF_STEREO_COUNT>
0

> <PUBCHEM_ISOTOPIC_ATOM_COUNT>
0

> <PUBCHEM_COMPONENT_COUNT>
1

> <PUBCHEM_CACTVS_TAUTO_COUNT>
1

> <PUBCHEM_CONFORMER_ID>
000017BB00000003

> <PUBCHEM_MMFF94_ENERGY>
70.9631

> <PUBCHEM_FEATURE_SELFOVERLAP>
30.477

> <PUBCHEM_SHAPE_FINGERPRINT>
10165383 225 18054474016139801708
105312 117 18195238911230552556
10764073 3 16336438917202967688
10871710 139 16400818157339859292
11101153 10 17762606692797258382
11725454 13 17988361472914732416
121448 382 17899998039927602189
12160290 23 17688328788621453306
12539773 59 6162033328161072462
12553582 1 17760635267651570827
12643181 29 18264199224817205084
12730499 353 18340193129872849193
12788726 201 17259918316817815562
13004483 165 17329444246277799491
13134695 92 18051706734367204750
13149001 5 18118373238679882982
13533116 47 18336545028044657913
13681431 1 18122636216668896530
13911987 19 18053352639440677350
15131766 46 14604656409077062742
15502722 9 18410575123597352945
1813 80 17535461853103315039
18915476 22 18412548738637940645
21304303 282 17184244531793749604
21524375 3 18270683035071776186
22112679 90 17465084338559864194
2255824 54 18261672670368323275
22907989 373 17473257674341208804
23114952 82 18199751504339533853
23419403 2 17337250547033201170
23557571 272 17346015828545141265
23598291 2 17678157494642981489
238 59 18340219569285360887
25 1 18334847286652752824
2748010 2 17903040410530097626
4409770 3 17541671508551222370
495365 180 18270415969984994261
621550 34 18272647940240414497
633830 44 18114167615009023193
6442390 28 18194956353710579739
7399639 24 18272650113398953161
7471813 234 17976540842569611870
81228 2 17405427698164039954
90316 7 16895676464160292810

> <PUBCHEM_SHAPE_MULTIPOLES>
446.64
6.46
4.61
1.77
6.97
4.01
-0.73
-5.1
-1.76
-5
0.49
1.17
-0.5
1.33

> <PUBCHEM_SHAPE_SELFOVERLAP>
950.515

> <PUBCHEM_SHAPE_VOLUME>
248.5

> <PUBCHEM_COORDINATE_TYPE>
2
5
10

$$$$

