582927
  -OEChem-06241222442D

 25 26  0     1  0  0  0  0  0999 V2000
    3.8660    0.9524    0.0000 C   0  0  3  0  0  0  0  0  0  0  0  0
    2.8660    0.9524    0.0000 C   0  0  3  0  0  0  0  0  0  0  0  0
    3.3660    0.0864    0.0000 C   0  0  0  0  0  0  0  0  0  0  0  0
    4.7320    1.4524    0.0000 C   0  0  0  0  0  0  0  0  0  0  0  0
    2.0000    1.4524    0.0000 C   0  0  0  0  0  0  0  0  0  0  0  0
    3.3660   -0.9136    0.0000 C   0  0  0  0  0  0  0  0  0  0  0  0
    4.7320    2.4524    0.0000 C   0  0  0  0  0  0  0  0  0  0  0  0
    2.5570   -1.5014    0.0000 C   0  0  0  0  0  0  0  0  0  0  0  0
    4.1750   -1.5014    0.0000 C   0  0  0  0  0  0  0  0  0  0  0  0
    2.8660   -2.4524    0.0000 C   0  0  0  0  0  0  0  0  0  0  0  0
    3.8660   -2.4524    0.0000 C   0  0  0  0  0  0  0  0  0  0  0  0
    3.7056    1.5513    0.0000 H   0  0  0  0  0  0  0  0  0  0  0  0
    3.0265    1.5513    0.0000 H   0  0  0  0  0  0  0  0  0  0  0  0
    4.9441    0.8698    0.0000 H   0  0  0  0  0  0  0  0  0  0  0  0
    5.3426    1.5601    0.0000 H   0  0  0  0  0  0  0  0  0  0  0  0
    2.3100    1.9894    0.0000 H   0  0  0  0  0  0  0  0  0  0  0  0
    1.4631    1.7624    0.0000 H   0  0  0  0  0  0  0  0  0  0  0  0
    1.6900    0.9155    0.0000 H   0  0  0  0  0  0  0  0  0  0  0  0
    5.3520    2.4524    0.0000 H   0  0  0  0  0  0  0  0  0  0  0  0
    4.7320    3.0724    0.0000 H   0  0  0  0  0  0  0  0  0  0  0  0
    4.1120    2.4524    0.0000 H   0  0  0  0  0  0  0  0  0  0  0  0
    1.9674   -1.3098    0.0000 H   0  0  0  0  0  0  0  0  0  0  0  0
    4.7647   -1.3098    0.0000 H   0  0  0  0  0  0  0  0  0  0  0  0
    4.2304   -2.9540    0.0000 H   0  0  0  0  0  0  0  0  0  0  0  0
    2.5016   -2.9540    0.0000 H   0  0  0  0  0  0  0  0  0  0  0  0
  1  2  1  0  0  0  0
  1  3  1  0  0  0  0
  1  4  1  0  0  0  0
  1 12  1  0  0  0  0
  2  3  1  0  0  0  0
  2  5  1  0  0  0  0
  2 13  1  0  0  0  0
  3  6  2  0  0  0  0
  4  7  1  0  0  0  0
  4 14  1  0  0  0  0
  4 15  1  0  0  0  0
  5 16  1  0  0  0  0
  5 17  1  0  0  0  0
  5 18  1  0  0  0  0
  6  8  1  0  0  0  0
  6  9  1  0  0  0  0
  7 19  1  0  0  0  0
  7 20  1  0  0  0  0
  7 21  1  0  0  0  0
  8 10  2  0  0  0  0
  8 22  1  0  0  0  0
  9 11  2  0  0  0  0
  9 23  1  0  0  0  0
 10 11  1  0  0  0  0
 10 25  1  0  0  0  0
 11 24  1  0  0  0  0
M  END
> <PUBCHEM_COMPOUND_CID>
582927

> <PUBCHEM_COMPOUND_CANONICALIZED>
1

> <PUBCHEM_CACTVS_COMPLEXITY>
239

> <PUBCHEM_CACTVS_HBOND_ACCEPTOR>
0

> <PUBCHEM_CACTVS_HBOND_DONOR>
0

> <PUBCHEM_CACTVS_ROTATABLE_BOND>
1

> <PUBCHEM_CACTVS_SUBSKEYS>
AAADccBwAAAAAAAAAAAAAAAAGAAAAQAAAAAAAAAAAAAAAAAAAAAAGAAAAAAADQCAAAACAAAAAACAAiBCAAAAAAAgAAAICAAAAAgIAAIAAQAAAAAAgAAIgAMAAAAOAAAAAAAAAAAAAAAAAAAAAAAAAAAAAA==

> <PUBCHEM_IUPAC_OPENEYE_NAME>
5-(2-ethyl-3-methyl-cyclopropylidene)cyclopenta-1,3-diene

> <PUBCHEM_IUPAC_CAS_NAME>
5-(2-ethyl-3-methylcyclopropylidene)cyclopenta-1,3-diene

> <PUBCHEM_IUPAC_NAME>
5-(2-ethyl-3-methylcyclopropylidene)cyclopenta-1,3-diene

> <PUBCHEM_IUPAC_SYSTEMATIC_NAME>
5-(2-ethyl-3-methyl-cyclopropylidene)cyclopenta-1,3-diene

> <PUBCHEM_IUPAC_TRADITIONAL_NAME>
5-(2-ethyl-3-methyl-cyclopropylidene)cyclopenta-1,3-diene

> <PUBCHEM_IUPAC_INCHI>
InChI=1S/C11H14/c1-3-10-8(2)11(10)9-6-4-5-7-9/h4-8,10H,3H2,1-2H3

> <PUBCHEM_IUPAC_INCHIKEY>
UVNGQRKYMLXQPA-UHFFFAOYSA-N

> <PUBCHEM_XLOGP3_AA>
3

> <PUBCHEM_EXACT_MASS>
146.10955

> <PUBCHEM_MOLECULAR_FORMULA>
C11H14

> <PUBCHEM_MOLECULAR_WEIGHT>
146.22886

> <PUBCHEM_OPENEYE_CAN_SMILES>
CCC1C(C1=C2C=CC=C2)C

> <PUBCHEM_OPENEYE_ISO_SMILES>
CCC1C(C1=C2C=CC=C2)C

> <PUBCHEM_CACTVS_TPSA>
0

> <PUBCHEM_MONOISOTOPIC_WEIGHT>
146.10955

> <PUBCHEM_TOTAL_CHARGE>
0

> <PUBCHEM_HEAVY_ATOM_COUNT>
11

> <PUBCHEM_ATOM_DEF_STEREO_COUNT>
0

> <PUBCHEM_ATOM_UDEF_STEREO_COUNT>
2

> <PUBCHEM_BOND_DEF_STEREO_COUNT>
0

> <PUBCHEM_BOND_UDEF_STEREO_COUNT>
0

> <PUBCHEM_ISOTOPIC_ATOM_COUNT>
0

> <PUBCHEM_COMPONENT_COUNT>
1

> <PUBCHEM_CACTVS_TAUTO_COUNT>
1

> <PUBCHEM_COORDINATE_TYPE>
1
5
255

> <PUBCHEM_BONDANNOTATIONS>
1  4  3
2  5  3

$$$$

