586285
  -OEChem-06241222463D

 26 27  0     0  0  0  0  0  0999 V2000
   -2.1889    2.7152   -0.4574 Cl  0  0  0  0  0  0  0  0  0  0  0  0
   -2.2154   -2.7232   -0.4134 Cl  0  0  0  0  0  0  0  0  0  0  0  0
    4.8806    0.0494    1.3857 S   0  0  0  0  0  0  0  0  0  0  0  0
   -1.0190   -0.0124   -0.7714 O   0  0  0  0  0  0  0  0  0  0  0  0
   -0.4164    0.0031    1.4889 O   0  0  0  0  0  0  0  0  0  0  0  0
   -2.3323   -0.0031   -0.3979 C   0  0  0  0  0  0  0  0  0  0  0  0
   -2.9973    1.2097   -0.2170 C   0  0  0  0  0  0  0  0  0  0  0  0
   -3.0091   -1.2062   -0.1974 C   0  0  0  0  0  0  0  0  0  0  0  0
    3.7095   -0.0028    0.1782 C   0  0  0  0  0  0  0  0  0  0  0  0
   -4.3391    1.2192    0.1642 C   0  0  0  0  0  0  0  0  0  0  0  0
   -4.3508   -1.1965    0.1839 C   0  0  0  0  0  0  0  0  0  0  0  0
   -5.0159    0.0163    0.3646 C   0  0  0  0  0  0  0  0  0  0  0  0
    2.2972   -0.0043    0.5982 C   0  0  0  0  0  0  0  0  0  0  0  0
    4.1666   -0.0385   -1.0807 C   0  0  0  0  0  0  0  0  0  0  0  0
    1.2535   -0.0190   -0.2429 C   0  0  0  0  0  0  0  0  0  0  0  0
   -0.1239   -0.0079    0.3032 C   0  0  0  0  0  0  0  0  0  0  0  0
    5.5913   -0.0231   -1.0820 C   0  0  0  0  0  0  0  0  0  0  0  0
    6.1095    0.0240    0.1935 C   0  0  0  0  0  0  0  0  0  0  0  0
   -4.8715    2.1558    0.3092 H   0  0  0  0  0  0  0  0  0  0  0  0
   -4.8923   -2.1253    0.3440 H   0  0  0  0  0  0  0  0  0  0  0  0
   -6.0606    0.0238    0.6614 H   0  0  0  0  0  0  0  0  0  0  0  0
    2.1113    0.0131    1.6708 H   0  0  0  0  0  0  0  0  0  0  0  0
    3.5709   -0.0748   -1.9834 H   0  0  0  0  0  0  0  0  0  0  0  0
    1.3645   -0.0337   -1.3210 H   0  0  0  0  0  0  0  0  0  0  0  0
    6.2052   -0.0455   -1.9731 H   0  0  0  0  0  0  0  0  0  0  0  0
    7.1510    0.0447    0.4821 H   0  0  0  0  0  0  0  0  0  0  0  0
  1  7  1  0  0  0  0
  2  8  1  0  0  0  0
  3  9  1  0  0  0  0
  3 18  1  0  0  0  0
  4  6  1  0  0  0  0
  4 16  1  0  0  0  0
  5 16  2  0  0  0  0
  6  7  2  0  0  0  0
  6  8  1  0  0  0  0
  7 10  1  0  0  0  0
  8 11  2  0  0  0  0
  9 13  1  0  0  0  0
  9 14  2  0  0  0  0
 10 12  2  0  0  0  0
 10 19  1  0  0  0  0
 11 12  1  0  0  0  0
 11 20  1  0  0  0  0
 12 21  1  0  0  0  0
 13 15  2  0  0  0  0
 13 22  1  0  0  0  0
 14 17  1  0  0  0  0
 14 23  1  0  0  0  0
 15 16  1  0  0  0  0
 15 24  1  0  0  0  0
 17 18  2  0  0  0  0
 17 25  1  0  0  0  0
 18 26  1  0  0  0  0
M  END
> <PUBCHEM_COMPOUND_CID>
586285

> <PUBCHEM_CONFORMER_RMSD>
0.6

> <PUBCHEM_CONFORMER_DIVERSEORDER>
1
42
34
40
35
5
37
6
24
4
39
2
41
16
25
7
45
23
12
8
26
18
38
9
33
10
30
13
32
31
3
28
29
44
27
20
43
14
19
17
48
15
11
46
36
21
47
22

> <PUBCHEM_MMFF94_PARTIAL_CHARGES>
26
1 -0.18
10 -0.15
11 -0.15
12 -0.15
13 -0.11
14 -0.15
15 -0.14
16 0.71
17 -0.15
18 -0.11
19 0.15
2 -0.18
20 0.15
21 0.15
22 0.15
23 0.15
24 0.15
25 0.15
26 0.15
3 -0.08
4 -0.23
5 -0.57
6 0.08
7 0.18
8 0.18
9 -0.01

> <PUBCHEM_EFFECTIVE_ROTOR_COUNT>
4

> <PUBCHEM_PHARMACOPHORE_FEATURES>
3
1 5 acceptor
5 3 9 14 17 18 rings
6 6 7 8 10 11 12 rings

> <PUBCHEM_HEAVY_ATOM_COUNT>
18

> <PUBCHEM_ATOM_DEF_STEREO_COUNT>
0

> <PUBCHEM_ATOM_UDEF_STEREO_COUNT>
0

> <PUBCHEM_BOND_DEF_STEREO_COUNT>
0

> <PUBCHEM_BOND_UDEF_STEREO_COUNT>
1

> <PUBCHEM_ISOTOPIC_ATOM_COUNT>
0

> <PUBCHEM_COMPONENT_COUNT>
1

> <PUBCHEM_CACTVS_TAUTO_COUNT>
1

> <PUBCHEM_CONFORMER_ID>
0008F22D00000001

> <PUBCHEM_MMFF94_ENERGY>
46.9673

> <PUBCHEM_FEATURE_SELFOVERLAP>
15.223

> <PUBCHEM_SHAPE_FINGERPRINT>
10680689 15 18410009922907105818
10912923 1 17704074006085730328
11128504 68 17632293446012368372
11287383 113 18187366498237853056
11315181 36 18131632261793414340
12236239 1 17632577158213398420
12390115 104 18116706512281004753
12616971 3 17417817227641665126
12916748 109 18341891913776411360
13167823 11 18202006551296369978
13288520 33 18411417293891298111
13533116 47 17346606305059994568
13675066 3 17676211234544299330
13897977 58 18272367598686839613
14386348 63 17458621203406865830
15042514 8 18265893554480816551
15242439 84 17749107798888088578
15788980 27 17385446509886819468
16988056 13 15245973211748855436
17349148 13 16988846085910794880
17834072 33 17989486308139242084
17844677 252 18335136480081372384
19489759 90 18334013899624657930
200 152 15698004032864236789
20325693 3 18409167714580966711
20645477 56 18408324410268124733
20645477 70 16371001949626851910
21033648 144 16557903404210629910
21033648 29 17240780509256026704
21033650 10 18055892515721978708
21267235 1 18341888551138784979
2297311 6 18335975419947662757
23175994 123 17095240306997691097
23402539 116 18131636681314645109
23536379 177 18413388761353025866
23557571 272 18187918517188679084
23559900 14 18040436581975189722
26918003 58 17385723578248358858
3004659 81 18338513149468879902
34797466 226 18187071824895545188
3545911 37 18260546744949944894
4214541 1 18408886239303627548
542803 24 17918272052430931510
6327066 14 17842848991041087829

> <PUBCHEM_SHAPE_MULTIPOLES>
366.28
13.69
1.85
1.07
14.73
0
-0.14
-0.05
-0.15
-3.24
0.38
1.13
-0.01
0.06

> <PUBCHEM_SHAPE_SELFOVERLAP>
754.284

> <PUBCHEM_SHAPE_VOLUME>
211.8

> <PUBCHEM_COORDINATE_TYPE>
2
5
10

$$$$

