13905
  -OEChem-06241222403D

 29 29  0     0  0  0  0  0  0999 V2000
   -3.0897    1.9283   -0.4772 S   0  0  0  0  0  0  0  0  0  0  0  0
    1.8917    1.6709    0.0153 N   0  0  0  0  0  0  0  0  0  0  0  0
   -0.5151   -2.3539   -0.0792 N   0  0  0  0  0  0  0  0  0  0  0  0
    0.7157   -0.3578   -0.0280 N   0  0  0  0  0  0  0  0  0  0  0  0
   -1.6723   -0.3227   -0.2610 N   0  0  0  0  0  0  0  0  0  0  0  0
   -0.4411    1.7364   -0.2127 N   0  0  0  0  0  0  0  0  0  0  0  0
    3.1753    0.9963    0.1627 C   0  0  0  0  0  0  0  0  0  0  0  0
    0.6657   -3.1467    0.0623 C   0  0  0  0  0  0  0  0  0  0  0  0
    0.6918    0.9994   -0.0772 C   0  0  0  0  0  0  0  0  0  0  0  0
   -0.4891   -0.9428   -0.1248 C   0  0  0  0  0  0  0  0  0  0  0  0
    4.3191    1.9954    0.2035 C   0  0  0  0  0  0  0  0  0  0  0  0
    0.3298   -4.6274    0.1154 C   0  0  0  0  0  0  0  0  0  0  0  0
   -1.5710    1.0158   -0.2976 C   0  0  0  0  0  0  0  0  0  0  0  0
   -4.0107    1.4089    0.9985 C   0  0  0  0  0  0  0  0  0  0  0  0
    3.1802    0.4079    1.0875 H   0  0  0  0  0  0  0  0  0  0  0  0
    3.3326    0.3099   -0.6773 H   0  0  0  0  0  0  0  0  0  0  0  0
    1.1973   -2.8759    0.9823 H   0  0  0  0  0  0  0  0  0  0  0  0
    1.3445   -2.9691   -0.7800 H   0  0  0  0  0  0  0  0  0  0  0  0
    1.8639    2.6832   -0.0200 H   0  0  0  0  0  0  0  0  0  0  0  0
   -1.4254   -2.7930   -0.1552 H   0  0  0  0  0  0  0  0  0  0  0  0
    4.3528    2.5890   -0.7162 H   0  0  0  0  0  0  0  0  0  0  0  0
    4.2039    2.6875    1.0441 H   0  0  0  0  0  0  0  0  0  0  0  0
    5.2765    1.4770    0.3136 H   0  0  0  0  0  0  0  0  0  0  0  0
   -0.3290   -4.8499    0.9616 H   0  0  0  0  0  0  0  0  0  0  0  0
   -0.1812   -4.9464   -0.7993 H   0  0  0  0  0  0  0  0  0  0  0  0
    1.2414   -5.2230    0.2245 H   0  0  0  0  0  0  0  0  0  0  0  0
   -4.2109    0.3347    0.9651 H   0  0  0  0  0  0  0  0  0  0  0  0
   -4.9642    1.9421    1.0345 H   0  0  0  0  0  0  0  0  0  0  0  0
   -3.4415    1.6440    1.9018 H   0  0  0  0  0  0  0  0  0  0  0  0
  1 13  1  0  0  0  0
  1 14  1  0  0  0  0
  2  7  1  0  0  0  0
  2  9  1  0  0  0  0
  2 19  1  0  0  0  0
  3  8  1  0  0  0  0
  3 10  1  0  0  0  0
  3 20  1  0  0  0  0
  4  9  2  0  0  0  0
  4 10  1  0  0  0  0
  5 10  2  0  0  0  0
  5 13  1  0  0  0  0
  6  9  1  0  0  0  0
  6 13  2  0  0  0  0
  7 11  1  0  0  0  0
  7 15  1  0  0  0  0
  7 16  1  0  0  0  0
  8 12  1  0  0  0  0
  8 17  1  0  0  0  0
  8 18  1  0  0  0  0
 11 21  1  0  0  0  0
 11 22  1  0  0  0  0
 11 23  1  0  0  0  0
 12 24  1  0  0  0  0
 12 25  1  0  0  0  0
 12 26  1  0  0  0  0
 14 27  1  0  0  0  0
 14 28  1  0  0  0  0
 14 29  1  0  0  0  0
M  END
> <PUBCHEM_COMPOUND_CID>
13905

> <PUBCHEM_CONFORMER_RMSD>
0.6

> <PUBCHEM_CONFORMER_DIVERSEORDER>
1
10
38
39
22
40
30
34
41
17
28
32
6
4
24
7
37
21
13
15
20
33
14
23
31
29
8
3
27
5
19
35
26
42
36
18
2
25
9
16
11
12

> <PUBCHEM_MMFF94_PARTIAL_CHARGES>
14
1 -0.33
10 0.72
13 0.72
14 0.23
19 0.4
2 -0.87
20 0.4
3 -0.87
4 -0.62
5 -0.62
6 -0.62
7 0.37
8 0.37
9 0.72

> <PUBCHEM_EFFECTIVE_ROTOR_COUNT>
5

> <PUBCHEM_PHARMACOPHORE_FEATURES>
6
1 14 hydrophobe
1 2 donor
1 3 donor
4 2 4 6 9 cation
4 3 4 5 10 cation
6 4 5 6 9 10 13 rings

> <PUBCHEM_HEAVY_ATOM_COUNT>
14

> <PUBCHEM_ATOM_DEF_STEREO_COUNT>
0

> <PUBCHEM_ATOM_UDEF_STEREO_COUNT>
0

> <PUBCHEM_BOND_DEF_STEREO_COUNT>
0

> <PUBCHEM_BOND_UDEF_STEREO_COUNT>
0

> <PUBCHEM_ISOTOPIC_ATOM_COUNT>
0

> <PUBCHEM_COMPONENT_COUNT>
1

> <PUBCHEM_CACTVS_TAUTO_COUNT>
5

> <PUBCHEM_CONFORMER_ID>
0000365100000001

> <PUBCHEM_MMFF94_ENERGY>
30.1068

> <PUBCHEM_FEATURE_SELFOVERLAP>
30.488

> <PUBCHEM_SHAPE_FINGERPRINT>
12500047 106 18337680698532957760
12532896 13 18335980891683166004
136203 1 17977947886550376715
15042514 8 17980480057661284618
16945 1 18122351443268163189
19021347 4 18338517443412334634
19591789 44 18410851066435095039
204376 136 18411135831536303849
20510252 161 18189616051214313729
20645476 183 18129930192519750924
20645477 56 18339362968361178708
20645477 70 18126577953697818789
20871998 22 16897932657588241538
21426921 1 17979073782911688844
21524375 3 18259988158551817389
21665056 4 18339368470102787630
23402539 116 18046072562293429303
23557571 272 17972303020336036636
23598294 1 18269284456323605720
257057 1 17185882688060014670
2748010 2 18340758299649226479
3071541 12 17977668932804202429
3071541 250 17689428712560912263
3091708 16 9120350546174726082
43471831 8 18411421738913359107
458136 41 18338505460638422577
54173680 148 17834961866898967726
7364860 26 18121784095046535207
81228 2 17833003649701459601
81539 233 18271246135407373725

> <PUBCHEM_SHAPE_MULTIPOLES>
267.06
5.66
4.76
0.71
2.17
7.16
0.07
-6.14
1.11
-4.96
0.19
0.42
-0.1
0.16

> <PUBCHEM_SHAPE_SELFOVERLAP>
510.349

> <PUBCHEM_SHAPE_VOLUME>
164.6

> <PUBCHEM_COORDINATE_TYPE>
2
5
10

$$$$

