11216
  -OEChem-06261205243D

 24 23  0     0  0  0  0  0  0999 V2000
    0.3214   -0.5271   -0.0765 C   0  0  0  0  0  0  0  0  0  0  0  0
    1.4163    0.4598   -0.5823 C   0  0  0  0  0  0  0  0  0  0  0  0
   -1.0424    0.1770    0.1036 C   0  0  0  0  0  0  0  0  0  0  0  0
    0.8353   -1.2110    1.2158 C   0  0  0  0  0  0  0  0  0  0  0  0
    0.1712   -1.6514   -1.1296 C   0  0  0  0  0  0  0  0  0  0  0  0
    1.6668    1.6714    0.3101 C   0  0  0  0  0  0  0  0  0  0  0  0
   -1.6358    0.8750   -1.0992 C   0  0  0  0  0  0  0  0  0  0  0  0
   -1.7328    0.2063    1.2580 C   0  0  0  0  0  0  0  0  0  0  0  0
    2.3659   -0.0798   -0.6979 H   0  0  0  0  0  0  0  0  0  0  0  0
    1.1620    0.8208   -1.5871 H   0  0  0  0  0  0  0  0  0  0  0  0
    1.8155   -1.6749    1.0527 H   0  0  0  0  0  0  0  0  0  0  0  0
    0.1555   -2.0059    1.5451 H   0  0  0  0  0  0  0  0  0  0  0  0
    0.9472   -0.5026    2.0433 H   0  0  0  0  0  0  0  0  0  0  0  0
    1.0977   -2.2303   -1.2240 H   0  0  0  0  0  0  0  0  0  0  0  0
   -0.0570   -1.2546   -2.1248 H   0  0  0  0  0  0  0  0  0  0  0  0
   -0.6286   -2.3493   -0.8551 H   0  0  0  0  0  0  0  0  0  0  0  0
    2.0208    1.3759    1.3016 H   0  0  0  0  0  0  0  0  0  0  0  0
    0.7672    2.2819    0.4297 H   0  0  0  0  0  0  0  0  0  0  0  0
    2.4386    2.3064   -0.1375 H   0  0  0  0  0  0  0  0  0  0  0  0
   -2.5961    1.3499   -0.8681 H   0  0  0  0  0  0  0  0  0  0  0  0
   -0.9723    1.6646   -1.4629 H   0  0  0  0  0  0  0  0  0  0  0  0
   -1.8203    0.1667   -1.9119 H   0  0  0  0  0  0  0  0  0  0  0  0
   -1.3829   -0.2687    2.1663 H   0  0  0  0  0  0  0  0  0  0  0  0
   -2.6887    0.7163    1.3286 H   0  0  0  0  0  0  0  0  0  0  0  0
  1  2  1  0  0  0  0
  1  3  1  0  0  0  0
  1  4  1  0  0  0  0
  1  5  1  0  0  0  0
  2  6  1  0  0  0  0
  2  9  1  0  0  0  0
  2 10  1  0  0  0  0
  3  7  1  0  0  0  0
  3  8  2  0  0  0  0
  4 11  1  0  0  0  0
  4 12  1  0  0  0  0
  4 13  1  0  0  0  0
  5 14  1  0  0  0  0
  5 15  1  0  0  0  0
  5 16  1  0  0  0  0
  6 17  1  0  0  0  0
  6 18  1  0  0  0  0
  6 19  1  0  0  0  0
  7 20  1  0  0  0  0
  7 21  1  0  0  0  0
  7 22  1  0  0  0  0
  8 23  1  0  0  0  0
  8 24  1  0  0  0  0
M  END
> <PUBCHEM_COMPOUND_CID>
11216

> <PUBCHEM_CONFORMER_RMSD>
0.4

> <PUBCHEM_CONFORMER_DIVERSEORDER>
1
4
6
3
8
7
5
2
9

> <PUBCHEM_MMFF94_PARTIAL_CHARGES>
6
1 0.14
23 0.15
24 0.15
3 -0.28
7 0.14
8 -0.3

> <PUBCHEM_EFFECTIVE_ROTOR_COUNT>
2

> <PUBCHEM_PHARMACOPHORE_FEATURES>
2
1 6 hydrophobe
3 1 4 5 hydrophobe

> <PUBCHEM_HEAVY_ATOM_COUNT>
8

> <PUBCHEM_ATOM_DEF_STEREO_COUNT>
0

> <PUBCHEM_ATOM_UDEF_STEREO_COUNT>
0

> <PUBCHEM_BOND_DEF_STEREO_COUNT>
0

> <PUBCHEM_BOND_UDEF_STEREO_COUNT>
0

> <PUBCHEM_ISOTOPIC_ATOM_COUNT>
0

> <PUBCHEM_COMPONENT_COUNT>
1

> <PUBCHEM_CACTVS_TAUTO_COUNT>
1

> <PUBCHEM_CONFORMER_ID>
00002BD000000001

> <PUBCHEM_MMFF94_ENERGY>
16.5226

> <PUBCHEM_FEATURE_SELFOVERLAP>
10.149

> <PUBCHEM_SHAPE_FINGERPRINT>
12423570 1 16092318876971675639
13024252 1 16698107555979414700
137420 1 15325131198501171806
21040471 1 18042388145836021336
24536 1 18044092573658563123
29004967 10 17685466016767221366
5084963 1 18199455597993010252
54338 74 17048541616972091076
5943 1 6257818001016799370

> <PUBCHEM_SHAPE_MULTIPOLES>
164.64
2.16
1.66
1.37
0.33
0.12
0.11
-0.97
0.18
-0.67
-0.17
0.33
0.27
0.09

> <PUBCHEM_SHAPE_SELFOVERLAP>
299.963

> <PUBCHEM_SHAPE_VOLUME>
109

> <PUBCHEM_COORDINATE_TYPE>
2
5
10

$$$$

