11076
  -OEChem-06261205183D

 39 43  0     0  0  0  0  0  0999 V2000
   -4.6694   -2.2430    0.0665 O   0  0  0  0  0  0  0  0  0  0  0  0
   -5.8724   -0.1612    0.2170 O   0  0  0  0  0  0  0  0  0  0  0  0
    4.9252   -0.4621    1.7429 O   0  0  0  0  0  0  0  0  0  0  0  0
    5.9601   -0.1830   -0.4155 O   0  0  0  0  0  0  0  0  0  0  0  0
    0.3384    1.2302   -0.1394 N   0  0  0  0  0  0  0  0  0  0  0  0
   -1.7677    0.0187   -0.0439 C   0  0  0  0  0  0  0  0  0  0  0  0
   -0.3766    0.0825   -0.1325 C   0  0  0  0  0  0  0  0  0  0  0  0
    0.4524   -1.1591   -0.2285 C   0  0  0  0  0  0  0  0  0  0  0  0
   -2.4736    1.2490    0.0448 C   0  0  0  0  0  0  0  0  0  0  0  0
    1.9401   -0.8941   -0.3167 C   0  0  0  0  0  0  0  0  0  0  0  0
   -2.4642   -1.2030   -0.0409 C   0  0  0  0  0  0  0  0  0  0  0  0
   -3.8403   -1.1638    0.0501 C   0  0  0  0  0  0  0  0  0  0  0  0
   -4.5262    0.0237    0.1359 C   0  0  0  0  0  0  0  0  0  0  0  0
   -3.8766    1.2421    0.1359 C   0  0  0  0  0  0  0  0  0  0  0  0
   -1.7478    2.4445    0.0392 C   0  0  0  0  0  0  0  0  0  0  0  0
   -0.3657    2.3792   -0.0533 C   0  0  0  0  0  0  0  0  0  0  0  0
    2.6796   -0.8174    0.8536 C   0  0  0  0  0  0  0  0  0  0  0  0
    4.0314   -0.5743    0.7226 C   0  0  0  0  0  0  0  0  0  0  0  0
    2.5229   -0.7349   -1.5746 C   0  0  0  0  0  0  0  0  0  0  0  0
    4.6224   -0.4148   -0.5099 C   0  0  0  0  0  0  0  0  0  0  0  0
    3.8941   -0.4897   -1.6793 C   0  0  0  0  0  0  0  0  0  0  0  0
   -5.9558   -1.6002    0.1729 C   0  0  0  0  0  0  0  0  0  0  0  0
    0.4247    3.6456   -0.0611 C   0  0  0  0  0  0  0  0  0  0  0  0
    6.1450   -0.2148    1.0143 C   0  0  0  0  0  0  0  0  0  0  0  0
    0.1508   -1.7384   -1.1112 H   0  0  0  0  0  0  0  0  0  0  0  0
    0.2656   -1.7972    0.6453 H   0  0  0  0  0  0  0  0  0  0  0  0
   -1.9661   -2.1642   -0.1068 H   0  0  0  0  0  0  0  0  0  0  0  0
   -4.4428    2.1662    0.2049 H   0  0  0  0  0  0  0  0  0  0  0  0
   -2.2520    3.4047    0.1055 H   0  0  0  0  0  0  0  0  0  0  0  0
    2.2261   -0.9392    1.8308 H   0  0  0  0  0  0  0  0  0  0  0  0
    1.9240   -0.7968   -2.4792 H   0  0  0  0  0  0  0  0  0  0  0  0
    4.3633   -0.3625   -2.6483 H   0  0  0  0  0  0  0  0  0  0  0  0
   -6.4493   -1.9514    1.0864 H   0  0  0  0  0  0  0  0  0  0  0  0
   -6.5656   -1.8902   -0.6904 H   0  0  0  0  0  0  0  0  0  0  0  0
    1.4974    3.4390   -0.1377 H   0  0  0  0  0  0  0  0  0  0  0  0
    0.1390    4.2674   -0.9155 H   0  0  0  0  0  0  0  0  0  0  0  0
    0.2543    4.2065    0.8634 H   0  0  0  0  0  0  0  0  0  0  0  0
    6.8652   -1.0045    1.2576 H   0  0  0  0  0  0  0  0  0  0  0  0
    6.5569    0.7485    1.3363 H   0  0  0  0  0  0  0  0  0  0  0  0
  1 12  1  0  0  0  0
  1 22  1  0  0  0  0
  2 13  1  0  0  0  0
  2 22  1  0  0  0  0
  3 18  1  0  0  0  0
  3 24  1  0  0  0  0
  4 20  1  0  0  0  0
  4 24  1  0  0  0  0
  5  7  2  0  0  0  0
  5 16  1  0  0  0  0
  6  7  1  0  0  0  0
  6  9  1  0  0  0  0
  6 11  2  0  0  0  0
  7  8  1  0  0  0  0
  8 10  1  0  0  0  0
  8 25  1  0  0  0  0
  8 26  1  0  0  0  0
  9 14  2  0  0  0  0
  9 15  1  0  0  0  0
 10 17  2  0  0  0  0
 10 19  1  0  0  0  0
 11 12  1  0  0  0  0
 11 27  1  0  0  0  0
 12 13  2  0  0  0  0
 13 14  1  0  0  0  0
 14 28  1  0  0  0  0
 15 16  2  0  0  0  0
 15 29  1  0  0  0  0
 16 23  1  0  0  0  0
 17 18  1  0  0  0  0
 17 30  1  0  0  0  0
 18 20  2  0  0  0  0
 19 21  2  0  0  0  0
 19 31  1  0  0  0  0
 20 21  1  0  0  0  0
 21 32  1  0  0  0  0
 22 33  1  0  0  0  0
 22 34  1  0  0  0  0
 23 35  1  0  0  0  0
 23 36  1  0  0  0  0
 23 37  1  0  0  0  0
 24 38  1  0  0  0  0
 24 39  1  0  0  0  0
M  END
> <PUBCHEM_COMPOUND_CID>
11076

> <PUBCHEM_CONFORMER_RMSD>
0.6

> <PUBCHEM_CONFORMER_DIVERSEORDER>
2
6
16
3
21
15
20
1
4
18
12
19
22
11
17
5
8
10
7
13
14
9

> <PUBCHEM_MMFF94_PARTIAL_CHARGES>
28
1 -0.36
10 -0.14
11 -0.15
12 0.08
13 0.08
14 -0.15
15 -0.15
16 0.17
17 -0.15
18 0.08
19 -0.15
2 -0.36
20 0.08
21 -0.15
22 0.56
23 0.14
24 0.56
27 0.15
28 0.15
29 0.15
3 -0.36
30 0.15
31 0.15
32 0.15
4 -0.36
5 -0.62
7 0.17
8 0.29

> <PUBCHEM_EFFECTIVE_ROTOR_COUNT>
3.2

> <PUBCHEM_PHARMACOPHORE_FEATURES>
10
1 1 acceptor
1 2 acceptor
1 3 acceptor
1 4 acceptor
1 5 acceptor
5 1 2 12 13 22 rings
5 3 4 18 20 24 rings
6 10 17 18 19 20 21 rings
6 5 6 7 9 15 16 rings
6 6 9 11 12 13 14 rings

> <PUBCHEM_HEAVY_ATOM_COUNT>
24

> <PUBCHEM_ATOM_DEF_STEREO_COUNT>
0

> <PUBCHEM_ATOM_UDEF_STEREO_COUNT>
0

> <PUBCHEM_BOND_DEF_STEREO_COUNT>
0

> <PUBCHEM_BOND_UDEF_STEREO_COUNT>
0

> <PUBCHEM_ISOTOPIC_ATOM_COUNT>
0

> <PUBCHEM_COMPONENT_COUNT>
1

> <PUBCHEM_CACTVS_TAUTO_COUNT>
1

> <PUBCHEM_CONFORMER_ID>
00002B4400000002

> <PUBCHEM_MMFF94_ENERGY>
69.6579

> <PUBCHEM_FEATURE_SELFOVERLAP>
51.083

> <PUBCHEM_SHAPE_FINGERPRINT>
10 15 18113912529118052970
10319926 262 18119544369267264426
10369192 42 17096097896656998720
10906281 52 18267845294634890619
1100329 8 18268711606233521139
11578080 2 5544102051734014113
11963148 33 17259059594069337475
12107183 9 17336197429979441746
12166972 35 17632576046302315372
12236239 1 17775284984670573358
12516196 113 18407759227132085059
12553582 1 18409735049696393655
12596602 18 17989212564430692656
12730499 353 17168141252683070686
12788726 201 18272089456541311185
13140716 1 18193556675619586339
13533116 47 17704077326359409114
13862211 1 18412265013035297067
14787075 74 18131632274947237866
15183329 4 9367354755903174296
15927050 60 17615686233313361884
15961568 22 18410290282079341980
17138139 8 17488468464160484195
17349148 13 17632290216086328194
17492 89 18125162877553353546
1813 80 18408034109128521565
18222031 100 18334853900965438839
18785283 64 17750528269190816408
19141452 34 17676207940373397375
200 152 16559032709419739902
20028762 73 18114744811786216991
20511986 3 17632028510411369470
20567600 70 18341331080972776915
21033648 29 17168155571681834731
21033650 10 17984677155711051644
21267235 1 18410847742684042515
2260408 40 17242700218420791243
2297311 6 18334848450715074940
23366157 5 17985542248045553973
23402539 116 18411986866188658158
23536379 177 16128659660852909903
23557571 272 18188482583843815524
23559900 14 18337678512484047633
23622692 118 17970356915046237935
23845131 108 17252008928242474721
25147074 1 18268973359211200845
3004659 81 18201147793627393644
3009799 131 18338529616204226773
314173 85 18333723624713579923
335352 9 18411702089595251061
3411729 13 18193278481971867032
34797466 226 17822280259289015292
34934 24 18268152135857139537
38695281 34 12175627278151282193
4015057 19 14907885051380069685
439807 62 16987988381385623803
469060 322 18338222860222031985
5104073 3 18191855748743387707
5486654 2 18341891883590645802
621550 34 17676487289409595382
7399639 24 17894914078997714350
7495541 125 18130219351071595315
8863177 126 17771610262698704555

> <PUBCHEM_SHAPE_MULTIPOLES>
465.45
13.67
2.47
1.06
3
2.59
-0.1
-6.66
2.34
-2.24
-0.05
1.78
-0.23
0.11

> <PUBCHEM_SHAPE_SELFOVERLAP>
1064.078

> <PUBCHEM_SHAPE_VOLUME>
241.4

> <PUBCHEM_COORDINATE_TYPE>
2
5
10

$$$$

