9712
  -OEChem-06261203582D

 15 15  0     0  0  0  0  0  0999 V2000
    3.0000    1.0000    0.0000 Si  0  0  0  0  0  0  0  0  0  0  0  0
    3.0000    2.0000    0.0000 F   0  0  0  0  0  0  0  0  0  0  0  0
    4.0000    1.0000    0.0000 F   0  0  0  0  0  0  0  0  0  0  0  0
    2.0000    1.0000    0.0000 F   0  0  0  0  0  0  0  0  0  0  0  0
    3.0000    0.0000    0.0000 C   0  0  0  0  0  0  0  0  0  0  0  0
    2.1340   -0.5000    0.0000 C   0  0  0  0  0  0  0  0  0  0  0  0
    3.8660   -0.5000    0.0000 C   0  0  0  0  0  0  0  0  0  0  0  0
    2.1340   -1.5000    0.0000 C   0  0  0  0  0  0  0  0  0  0  0  0
    3.8660   -1.5000    0.0000 C   0  0  0  0  0  0  0  0  0  0  0  0
    3.0000   -2.0000    0.0000 C   0  0  0  0  0  0  0  0  0  0  0  0
    1.5970   -0.1900    0.0000 H   0  0  0  0  0  0  0  0  0  0  0  0
    4.4030   -0.1900    0.0000 H   0  0  0  0  0  0  0  0  0  0  0  0
    1.5970   -1.8100    0.0000 H   0  0  0  0  0  0  0  0  0  0  0  0
    4.4030   -1.8100    0.0000 H   0  0  0  0  0  0  0  0  0  0  0  0
    3.0000   -2.6200    0.0000 H   0  0  0  0  0  0  0  0  0  0  0  0
  1  2  1  0  0  0  0
  1  3  1  0  0  0  0
  1  4  1  0  0  0  0
  1  5  1  0  0  0  0
  5  6  2  0  0  0  0
  5  7  1  0  0  0  0
  6  8  1  0  0  0  0
  6 11  1  0  0  0  0
  7  9  2  0  0  0  0
  7 12  1  0  0  0  0
  8 10  2  0  0  0  0
  8 13  1  0  0  0  0
  9 10  1  0  0  0  0
  9 14  1  0  0  0  0
 10 15  1  0  0  0  0
M  END
> <PUBCHEM_COMPOUND_CID>
9712

> <PUBCHEM_COMPOUND_CANONICALIZED>
1

> <PUBCHEM_CACTVS_COMPLEXITY>
104

> <PUBCHEM_CACTVS_HBOND_ACCEPTOR>
3

> <PUBCHEM_CACTVS_HBOND_DONOR>
0

> <PUBCHEM_CACTVS_ROTATABLE_BOND>
0

> <PUBCHEM_CACTVS_SUBSKEYS>
AAADcYBgAYgAAAAAAAAAAAAAAAAAAAAAAAAwAAAAAAAAAAABAAAAGBAAAAAACACAMAAwAIAAAACAACBCAAACAAAgAAAIiAAAAIgIICKAERCAIAAggAAIiAcAAAAAAAAAAAAAAAAAAAAAAAAAAAAAAAAAAA==

> <PUBCHEM_IUPAC_OPENEYE_NAME>
trifluoro(phenyl)silane

> <PUBCHEM_IUPAC_CAS_NAME>
trifluoro(phenyl)silane

> <PUBCHEM_IUPAC_NAME>
trifluoro(phenyl)silane

> <PUBCHEM_IUPAC_SYSTEMATIC_NAME>
tris(fluoranyl)-phenyl-silane

> <PUBCHEM_IUPAC_TRADITIONAL_NAME>
trifluoro(phenyl)silane

> <PUBCHEM_IUPAC_INCHI>
InChI=1S/C6H5F3Si/c7-10(8,9)6-4-2-1-3-5-6/h1-5H

> <PUBCHEM_IUPAC_INCHIKEY>
KGWNTHHPMKEAIK-UHFFFAOYSA-N

> <PUBCHEM_EXACT_MASS>
162.011261

> <PUBCHEM_MOLECULAR_FORMULA>
C6H5F3Si

> <PUBCHEM_MOLECULAR_WEIGHT>
162.18461

> <PUBCHEM_OPENEYE_CAN_SMILES>
C1=CC=C(C=C1)[Si](F)(F)F

> <PUBCHEM_OPENEYE_ISO_SMILES>
C1=CC=C(C=C1)[Si](F)(F)F

> <PUBCHEM_CACTVS_TPSA>
0

> <PUBCHEM_MONOISOTOPIC_WEIGHT>
162.011261

> <PUBCHEM_TOTAL_CHARGE>
0

> <PUBCHEM_HEAVY_ATOM_COUNT>
10

> <PUBCHEM_ATOM_DEF_STEREO_COUNT>
0

> <PUBCHEM_ATOM_UDEF_STEREO_COUNT>
0

> <PUBCHEM_BOND_DEF_STEREO_COUNT>
0

> <PUBCHEM_BOND_UDEF_STEREO_COUNT>
0

> <PUBCHEM_ISOTOPIC_ATOM_COUNT>
0

> <PUBCHEM_COMPONENT_COUNT>
1

> <PUBCHEM_CACTVS_TAUTO_COUNT>
1

> <PUBCHEM_COORDINATE_TYPE>
1
5
255

> <PUBCHEM_BONDANNOTATIONS>
5  6  8
5  7  8
6  8  8
7  9  8
8  10  8
9  10  8

$$$$

