14430
  -OEChem-06241222433D

 43 45  0     0  0  0  0  0  0999 V2000
   -4.1751   -3.0488    0.0644 F   0  0  0  0  0  0  0  0  0  0  0  0
   -3.6938   -1.9564    1.8752 F   0  0  0  0  0  0  0  0  0  0  0  0
   -4.4538   -0.8934    0.1370 F   0  0  0  0  0  0  0  0  0  0  0  0
    2.2070    2.4732    0.3467 O   0  0  0  0  0  0  0  0  0  0  0  0
    0.4415    0.9686    0.3054 N   0  0  0  0  0  0  0  0  0  0  0  0
    1.7686   -1.2452   -1.2817 N   0  0  0  0  0  0  0  0  0  0  0  0
   -1.9680    3.7684   -0.2553 N   0  0  0  0  0  0  0  0  0  0  0  0
   -0.4754    2.0626    0.6682 C   0  0  0  0  0  0  0  0  0  0  0  0
   -0.1665   -0.2975   -0.0245 C   0  0  0  0  0  0  0  0  0  0  0  0
   -1.0364    2.7006   -0.5962 C   0  0  0  0  0  0  0  0  0  0  0  0
    0.4334   -1.2628   -0.8504 C   0  0  0  0  0  0  0  0  0  0  0  0
    1.8045    1.3054    0.2834 C   0  0  0  0  0  0  0  0  0  0  0  0
    2.8759    0.2915    0.2809 C   0  0  0  0  0  0  0  0  0  0  0  0
    2.8833   -0.8136   -0.5612 C   0  0  0  0  0  0  0  0  0  0  0  0
   -1.4971   -0.5443    0.3997 C   0  0  0  0  0  0  0  0  0  0  0  0
   -2.2134   -1.6804    0.0169 C   0  0  0  0  0  0  0  0  0  0  0  0
   -0.3170   -2.4019   -1.2408 C   0  0  0  0  0  0  0  0  0  0  0  0
   -1.6243   -2.6100   -0.8168 C   0  0  0  0  0  0  0  0  0  0  0  0
    4.0101    0.5805    1.0669 C   0  0  0  0  0  0  0  0  0  0  0  0
    4.0468   -1.6106   -0.6117 C   0  0  0  0  0  0  0  0  0  0  0  0
   -3.0647    3.2535    0.5668 C   0  0  0  0  0  0  0  0  0  0  0  0
   -2.4953    4.3996   -1.4667 C   0  0  0  0  0  0  0  0  0  0  0  0
   -3.6033   -1.8924    0.5137 C   0  0  0  0  0  0  0  0  0  0  0  0
    5.1454   -0.2256    1.0148 C   0  0  0  0  0  0  0  0  0  0  0  0
    5.1676   -1.3209    0.1651 C   0  0  0  0  0  0  0  0  0  0  0  0
   -1.1878    1.7355    1.4214 H   0  0  0  0  0  0  0  0  0  0  0  0
    0.0942    2.8349    1.2043 H   0  0  0  0  0  0  0  0  0  0  0  0
   -0.2065    3.1095   -1.1870 H   0  0  0  0  0  0  0  0  0  0  0  0
   -1.5258    1.9463   -1.2262 H   0  0  0  0  0  0  0  0  0  0  0  0
   -2.0364    0.1245    1.0605 H   0  0  0  0  0  0  0  0  0  0  0  0
    1.9803   -1.9013   -2.0275 H   0  0  0  0  0  0  0  0  0  0  0  0
    0.1404   -3.1584   -1.8778 H   0  0  0  0  0  0  0  0  0  0  0  0
   -2.1510   -3.5040   -1.1359 H   0  0  0  0  0  0  0  0  0  0  0  0
    4.0267    1.4469    1.7251 H   0  0  0  0  0  0  0  0  0  0  0  0
    4.0748   -2.4902   -1.2529 H   0  0  0  0  0  0  0  0  0  0  0  0
   -2.7489    3.0506    1.5941 H   0  0  0  0  0  0  0  0  0  0  0  0
   -3.5236    2.3538    0.1407 H   0  0  0  0  0  0  0  0  0  0  0  0
   -3.8538    4.0096    0.6653 H   0  0  0  0  0  0  0  0  0  0  0  0
   -1.6798    4.8084   -2.0737 H   0  0  0  0  0  0  0  0  0  0  0  0
   -3.1460    5.2431   -1.2103 H   0  0  0  0  0  0  0  0  0  0  0  0
   -3.0667    3.6968   -2.0840 H   0  0  0  0  0  0  0  0  0  0  0  0
    6.0105    0.0102    1.6268 H   0  0  0  0  0  0  0  0  0  0  0  0
    6.0470   -1.9553    0.1116 H   0  0  0  0  0  0  0  0  0  0  0  0
  1 23  1  0  0  0  0
  2 23  1  0  0  0  0
  3 23  1  0  0  0  0
  4 12  2  0  0  0  0
  5  8  1  0  0  0  0
  5  9  1  0  0  0  0
  5 12  1  0  0  0  0
  6 11  1  0  0  0  0
  6 14  1  0  0  0  0
  6 31  1  0  0  0  0
  7 10  1  0  0  0  0
  7 21  1  0  0  0  0
  7 22  1  0  0  0  0
  8 10  1  0  0  0  0
  8 26  1  0  0  0  0
  8 27  1  0  0  0  0
  9 11  2  0  0  0  0
  9 15  1  0  0  0  0
 10 28  1  0  0  0  0
 10 29  1  0  0  0  0
 11 17  1  0  0  0  0
 12 13  1  0  0  0  0
 13 14  1  0  0  0  0
 13 19  2  0  0  0  0
 14 20  2  0  0  0  0
 15 16  2  0  0  0  0
 15 30  1  0  0  0  0
 16 18  1  0  0  0  0
 16 23  1  0  0  0  0
 17 18  2  0  0  0  0
 17 32  1  0  0  0  0
 18 33  1  0  0  0  0
 19 24  1  0  0  0  0
 19 34  1  0  0  0  0
 20 25  1  0  0  0  0
 20 35  1  0  0  0  0
 21 36  1  0  0  0  0
 21 37  1  0  0  0  0
 21 38  1  0  0  0  0
 22 39  1  0  0  0  0
 22 40  1  0  0  0  0
 22 41  1  0  0  0  0
 24 25  2  0  0  0  0
 24 42  1  0  0  0  0
 25 43  1  0  0  0  0
M  END
> <PUBCHEM_COMPOUND_CID>
14430

> <PUBCHEM_CONFORMER_RMSD>
0.8

> <PUBCHEM_CONFORMER_DIVERSEORDER>
4
3
8
1
7
2
5
6

> <PUBCHEM_MMFF94_PARTIAL_CHARGES>
33
1 -0.34
10 0.27
11 0.1
12 0.54
13 0.09
14 0.1
15 -0.15
16 -0.14
17 -0.15
18 -0.15
19 -0.15
2 -0.34
20 -0.15
21 0.27
22 0.27
23 1.16
24 -0.15
25 -0.15
3 -0.34
30 0.15
31 0.4
32 0.15
33 0.15
34 0.15
35 0.15
4 -0.57
42 0.15
43 0.15
5 -0.48
6 -0.6
7 -0.81
8 0.3
9 0.12

> <PUBCHEM_EFFECTIVE_ROTOR_COUNT>
4.4

> <PUBCHEM_PHARMACOPHORE_FEATURES>
7
1 4 acceptor
1 6 cation
1 6 donor
1 7 cation
6 13 14 19 20 24 25 rings
6 9 11 15 16 17 18 rings
7 5 6 9 11 12 13 14 rings

> <PUBCHEM_HEAVY_ATOM_COUNT>
25

> <PUBCHEM_ATOM_DEF_STEREO_COUNT>
0

> <PUBCHEM_ATOM_UDEF_STEREO_COUNT>
0

> <PUBCHEM_BOND_DEF_STEREO_COUNT>
0

> <PUBCHEM_BOND_UDEF_STEREO_COUNT>
0

> <PUBCHEM_ISOTOPIC_ATOM_COUNT>
0

> <PUBCHEM_COMPONENT_COUNT>
1

> <PUBCHEM_CACTVS_TAUTO_COUNT>
2

> <PUBCHEM_CONFORMER_ID>
0000385E00000004

> <PUBCHEM_MMFF94_ENERGY>
102.8738

> <PUBCHEM_FEATURE_SELFOVERLAP>
35.536

> <PUBCHEM_SHAPE_FINGERPRINT>
10688039 33 18341612573123990797
108634 29 18191023606459743133
1100329 8 17475801325725437074
116883 192 18410011018113398604
12293681 25 17244689406516474686
12293681 4 18200026236017416090
12403259 226 18334296435516325995
12422481 6 18190434200040444339
12553582 1 18192153703098253238
12643181 29 17976822305674660246
12730499 353 17619063275951976725
12788726 201 18343579612632776648
13052359 8 18196658607799835972
13134695 92 18053667971474971445
13140716 1 17973732376782641098
13402501 40 18335140946921154485
13540713 4 18187368783455853502
13965767 371 17753577377942929891
14790565 3 17329149066250799688
15042514 8 18266462186448357216
15885798 251 18339360760293794858
1813 80 18267859497717309094
20739085 24 18048569583185771163
21033648 29 17749690570310818962
21041028 32 18340770325552412949
21285901 2 18260256447920693151
22182313 1 17968653943053494542
2255824 54 17258217367670941213
23184049 59 18114738222688666582
23366157 5 17476079029878799183
23419403 2 14927935693826530022
23558518 356 18272086093640394856
23559900 14 17972881638704303734
2748010 2 18042956774063223494
3380486 145 18050025297799465237
350125 39 18334574604012238752
352729 6 18044656640467225960
4409770 3 18340217379005085557
5104073 3 18043241332563410611
5283268 108 18338790122327509320
5312544 6 16679224388929418199
7097593 13 17760649170223233383
7164475 11 18341892970306951732
79837 15 18048313637157629792
9862522 239 18261675981962064979

> <PUBCHEM_SHAPE_MULTIPOLES>
471.85
8.77
4.73
1.17
6.57
3.28
-0.02
-1.92
2.16
-7.6
-1.06
-0.28
-0.07
1.85

> <PUBCHEM_SHAPE_SELFOVERLAP>
1020.588

> <PUBCHEM_SHAPE_VOLUME>
259.4

> <PUBCHEM_COORDINATE_TYPE>
2
5
10

$$$$

