6924
  -OEChem-06261201352D

 20 20  0     0  0  0  0  0  0999 V2000
    3.7320    0.8450    0.0000 S   0  0  0  0  0  0  0  0  0  0  0  0
    4.7320    0.8450    0.0000 O   0  0  0  0  0  0  0  0  0  0  0  0
    2.7320    0.8450    0.0000 O   0  0  0  0  0  0  0  0  0  0  0  0
    3.7320    1.8450    0.0000 N   0  0  0  0  0  0  0  0  0  0  0  0
    3.7320   -0.1550    0.0000 C   0  0  0  0  0  0  0  0  0  0  0  0
    2.8660   -0.6550    0.0000 C   0  0  0  0  0  0  0  0  0  0  0  0
    4.5981   -0.6550    0.0000 C   0  0  0  0  0  0  0  0  0  0  0  0
    2.8660   -1.6550    0.0000 C   0  0  0  0  0  0  0  0  0  0  0  0
    2.0000   -0.1550    0.0000 C   0  0  0  0  0  0  0  0  0  0  0  0
    4.5981   -1.6550    0.0000 C   0  0  0  0  0  0  0  0  0  0  0  0
    3.7320   -2.1550    0.0000 C   0  0  0  0  0  0  0  0  0  0  0  0
    5.1350   -0.3450    0.0000 H   0  0  0  0  0  0  0  0  0  0  0  0
    2.3291   -1.9650    0.0000 H   0  0  0  0  0  0  0  0  0  0  0  0
    2.3100    0.3819    0.0000 H   0  0  0  0  0  0  0  0  0  0  0  0
    1.4631    0.1550    0.0000 H   0  0  0  0  0  0  0  0  0  0  0  0
    1.6900   -0.6919    0.0000 H   0  0  0  0  0  0  0  0  0  0  0  0
    5.1350   -1.9650    0.0000 H   0  0  0  0  0  0  0  0  0  0  0  0
    3.7320   -2.7750    0.0000 H   0  0  0  0  0  0  0  0  0  0  0  0
    4.2690    2.1550    0.0000 H   0  0  0  0  0  0  0  0  0  0  0  0
    3.1951    2.1550    0.0000 H   0  0  0  0  0  0  0  0  0  0  0  0
  1  2  2  0  0  0  0
  1  3  2  0  0  0  0
  1  4  1  0  0  0  0
  1  5  1  0  0  0  0
  4 19  1  0  0  0  0
  4 20  1  0  0  0  0
  5  6  1  0  0  0  0
  5  7  2  0  0  0  0
  6  8  2  0  0  0  0
  6  9  1  0  0  0  0
  7 10  1  0  0  0  0
  7 12  1  0  0  0  0
  8 11  1  0  0  0  0
  8 13  1  0  0  0  0
  9 14  1  0  0  0  0
  9 15  1  0  0  0  0
  9 16  1  0  0  0  0
 10 11  2  0  0  0  0
 10 17  1  0  0  0  0
 11 18  1  0  0  0  0
M  END
> <PUBCHEM_COMPOUND_CID>
6924

> <PUBCHEM_COMPOUND_CANONICALIZED>
1

> <PUBCHEM_CACTVS_COMPLEXITY>
217

> <PUBCHEM_CACTVS_HBOND_ACCEPTOR>
3

> <PUBCHEM_CACTVS_HBOND_DONOR>
1

> <PUBCHEM_CACTVS_ROTATABLE_BOND>
1

> <PUBCHEM_CACTVS_SUBSKEYS>
AAADccBiMABAAAAAAAAAAAAAAAAAAAAAAAAwAAAAAAAAAAABAAAAGAQQQAAADACAWAAyAYAAAAKAAiBCAHBCABAgAAAIiBgAAIgIICKAERCAIAAggAAIiAcAgAAOAAAAAAAEAAAAAAAAAAgAAAAAAAAAAA==

> <PUBCHEM_IUPAC_OPENEYE_NAME>
2-methylbenzenesulfonamide

> <PUBCHEM_IUPAC_CAS_NAME>
2-methylbenzenesulfonamide

> <PUBCHEM_IUPAC_NAME>
2-methylbenzenesulfonamide

> <PUBCHEM_IUPAC_SYSTEMATIC_NAME>
2-methylbenzenesulfonamide

> <PUBCHEM_IUPAC_TRADITIONAL_NAME>
2-methylbenzenesulfonamide

> <PUBCHEM_IUPAC_INCHI>
InChI=1S/C7H9NO2S/c1-6-4-2-3-5-7(6)11(8,9)10/h2-5H,1H3,(H2,8,9,10)

> <PUBCHEM_IUPAC_INCHIKEY>
YCMLQMDWSXFTIF-UHFFFAOYSA-N

> <PUBCHEM_XLOGP3>
0.8

> <PUBCHEM_EXACT_MASS>
171.0354

> <PUBCHEM_MOLECULAR_FORMULA>
C7H9NO2S

> <PUBCHEM_MOLECULAR_WEIGHT>
171.21686

> <PUBCHEM_OPENEYE_CAN_SMILES>
CC1=CC=CC=C1S(=O)(=O)N

> <PUBCHEM_OPENEYE_ISO_SMILES>
CC1=CC=CC=C1S(=O)(=O)N

> <PUBCHEM_CACTVS_TPSA>
68.5

> <PUBCHEM_MONOISOTOPIC_WEIGHT>
171.0354

> <PUBCHEM_TOTAL_CHARGE>
0

> <PUBCHEM_HEAVY_ATOM_COUNT>
11

> <PUBCHEM_ATOM_DEF_STEREO_COUNT>
0

> <PUBCHEM_ATOM_UDEF_STEREO_COUNT>
0

> <PUBCHEM_BOND_DEF_STEREO_COUNT>
0

> <PUBCHEM_BOND_UDEF_STEREO_COUNT>
0

> <PUBCHEM_ISOTOPIC_ATOM_COUNT>
0

> <PUBCHEM_COMPONENT_COUNT>
1

> <PUBCHEM_CACTVS_TAUTO_COUNT>
1

> <PUBCHEM_COORDINATE_TYPE>
1
5
255

> <PUBCHEM_BONDANNOTATIONS>
10  11  8
5  6  8
5  7  8
6  8  8
7  10  8
8  11  8

$$$$

