4445
  -OEChem-06261200072D

 42 44  0     1  0  0  0  0  0999 V2000
    7.9939    1.0350    0.0000 S   0  0  3  0  0  0  0  0  0  0  0  0
    8.4939    1.9010    0.0000 O   0  0  0  0  0  0  0  0  0  0  0  0
    2.8660    2.0350    0.0000 O   0  0  0  0  0  0  0  0  0  0  0  0
    6.4103    1.8398    0.0000 N   0  0  0  0  0  0  0  0  0  0  0  0
    9.4939   -1.5630    0.0000 N   0  0  0  0  0  0  0  0  0  0  0  0
    6.4103    0.2303    0.0000 N   0  0  0  0  0  0  0  0  0  0  0  0
    9.4939    0.1690    0.0000 C   0  0  0  0  0  0  0  0  0  0  0  0
    8.4939    0.1690    0.0000 C   0  0  0  0  0  0  0  0  0  0  0  0
    9.9939   -0.6970    0.0000 C   0  0  0  0  0  0  0  0  0  0  0  0
    6.9939    1.0350    0.0000 C   0  0  0  0  0  0  0  0  0  0  0  0
    5.4641    1.5350    0.0000 C   0  0  0  0  0  0  0  0  0  0  0  0
    5.4641    0.5350    0.0000 C   0  0  0  0  0  0  0  0  0  0  0  0
    9.9939    1.0350    0.0000 C   0  0  0  0  0  0  0  0  0  0  0  0
   10.9939   -0.6970    0.0000 C   0  0  0  0  0  0  0  0  0  0  0  0
    4.5981    2.0350    0.0000 C   0  0  0  0  0  0  0  0  0  0  0  0
    4.5981    0.0350    0.0000 C   0  0  0  0  0  0  0  0  0  0  0  0
   10.9939    1.0350    0.0000 C   0  0  0  0  0  0  0  0  0  0  0  0
   11.4939    0.1690    0.0000 C   0  0  0  0  0  0  0  0  0  0  0  0
    3.7320    1.5350    0.0000 C   0  0  0  0  0  0  0  0  0  0  0  0
    9.9939   -2.4291    0.0000 C   0  0  0  0  0  0  0  0  0  0  0  0
    8.4939   -1.5630    0.0000 C   0  0  0  0  0  0  0  0  0  0  0  0
    3.7320    0.5350    0.0000 C   0  0  0  0  0  0  0  0  0  0  0  0
    2.0000    1.5350    0.0000 C   0  0  0  0  0  0  0  0  0  0  0  0
    7.9113   -0.0431    0.0000 H   0  0  0  0  0  0  0  0  0  0  0  0
    8.6016   -0.4416    0.0000 H   0  0  0  0  0  0  0  0  0  0  0  0
    6.6029    2.4291    0.0000 H   0  0  0  0  0  0  0  0  0  0  0  0
    9.6839    1.5720    0.0000 H   0  0  0  0  0  0  0  0  0  0  0  0
   11.3039   -1.2340    0.0000 H   0  0  0  0  0  0  0  0  0  0  0  0
    4.5981    2.6550    0.0000 H   0  0  0  0  0  0  0  0  0  0  0  0
    4.5981   -0.5850    0.0000 H   0  0  0  0  0  0  0  0  0  0  0  0
   11.3039    1.5720    0.0000 H   0  0  0  0  0  0  0  0  0  0  0  0
   12.1139    0.1690    0.0000 H   0  0  0  0  0  0  0  0  0  0  0  0
    8.4939   -0.9431    0.0000 H   0  0  0  0  0  0  0  0  0  0  0  0
    9.4570   -2.7391    0.0000 H   0  0  0  0  0  0  0  0  0  0  0  0
   10.3039   -2.9660    0.0000 H   0  0  0  0  0  0  0  0  0  0  0  0
   10.5309   -2.1191    0.0000 H   0  0  0  0  0  0  0  0  0  0  0  0
    7.8739   -1.5630    0.0000 H   0  0  0  0  0  0  0  0  0  0  0  0
    8.4939   -2.1830    0.0000 H   0  0  0  0  0  0  0  0  0  0  0  0
    3.1951    0.2250    0.0000 H   0  0  0  0  0  0  0  0  0  0  0  0
    1.6900    2.0720    0.0000 H   0  0  0  0  0  0  0  0  0  0  0  0
    1.4631    1.2250    0.0000 H   0  0  0  0  0  0  0  0  0  0  0  0
    2.3100    0.9981    0.0000 H   0  0  0  0  0  0  0  0  0  0  0  0
  1  2  2  0  0  0  0
  1  8  1  0  0  0  0
  1 10  1  0  0  0  0
  3 19  1  0  0  0  0
  3 23  1  0  0  0  0
  4 10  1  0  0  0  0
  4 11  1  0  0  0  0
  4 26  1  0  0  0  0
  5  9  1  0  0  0  0
  5 20  1  0  0  0  0
  5 21  1  0  0  0  0
  6 10  2  0  0  0  0
  6 12  1  0  0  0  0
  7  8  1  0  0  0  0
  7  9  1  0  0  0  0
  7 13  2  0  0  0  0
  8 24  1  0  0  0  0
  8 25  1  0  0  0  0
  9 14  2  0  0  0  0
 11 12  2  0  0  0  0
 11 15  1  0  0  0  0
 12 16  1  0  0  0  0
 13 17  1  0  0  0  0
 13 27  1  0  0  0  0
 14 18  1  0  0  0  0
 14 28  1  0  0  0  0
 15 19  2  0  0  0  0
 15 29  1  0  0  0  0
 16 22  2  0  0  0  0
 16 30  1  0  0  0  0
 17 18  2  0  0  0  0
 17 31  1  0  0  0  0
 18 32  1  0  0  0  0
 19 22  1  0  0  0  0
 20 34  1  0  0  0  0
 20 35  1  0  0  0  0
 20 36  1  0  0  0  0
 21 33  1  0  0  0  0
 21 37  1  0  0  0  0
 21 38  1  0  0  0  0
 22 39  1  0  0  0  0
 23 40  1  0  0  0  0
 23 41  1  0  0  0  0
 23 42  1  0  0  0  0
M  END
> <PUBCHEM_COMPOUND_CID>
4445

> <PUBCHEM_COMPOUND_CANONICALIZED>
1

> <PUBCHEM_CACTVS_COMPLEXITY>
421

> <PUBCHEM_CACTVS_HBOND_ACCEPTOR>
5

> <PUBCHEM_CACTVS_HBOND_DONOR>
1

> <PUBCHEM_CACTVS_ROTATABLE_BOND>
5

> <PUBCHEM_CACTVS_SUBSKEYS>
AAADceB7MABAAAAAAAAAAAAAAAAAAWAAAAAwYAAAAAAAAFgB9AAAHgQQAAAADAyF3gaz1rfJlAqgAyRiZEDK2i3hMrAJmSA+fJiMbqLkuZuUMChu0BtI6Cew0AMOAEAAAgACACAAgAAEAAQAQAAAAAAAAA==

> <PUBCHEM_IUPAC_OPENEYE_NAME>
2-[(6-methoxy-1H-benzimidazol-2-yl)sulfinylmethyl]-N,N-dimethyl-aniline

> <PUBCHEM_IUPAC_CAS_NAME>
2-[(6-methoxy-1H-benzimidazol-2-yl)sulfinylmethyl]-N,N-dimethylaniline

> <PUBCHEM_IUPAC_NAME>
2-[(6-methoxy-1H-benzimidazol-2-yl)sulfinylmethyl]-N,N-dimethylaniline

> <PUBCHEM_IUPAC_SYSTEMATIC_NAME>
2-[(6-methoxy-1H-benzimidazol-2-yl)sulfinylmethyl]-N,N-dimethyl-aniline

> <PUBCHEM_IUPAC_TRADITIONAL_NAME>
[2-[(6-methoxy-1H-benzimidazol-2-yl)sulfinylmethyl]phenyl]-dimethyl-amine

> <PUBCHEM_IUPAC_INCHI>
InChI=1S/C17H19N3O2S/c1-20(2)16-7-5-4-6-12(16)11-23(21)17-18-14-9-8-13(22-3)10-15(14)19-17/h4-10H,11H2,1-3H3,(H,18,19)

> <PUBCHEM_IUPAC_INCHIKEY>
XEACPNJGCWYTPJ-UHFFFAOYSA-N

> <PUBCHEM_XLOGP3_AA>
2.6

> <PUBCHEM_EXACT_MASS>
329.119798

> <PUBCHEM_MOLECULAR_FORMULA>
C17H19N3O2S

> <PUBCHEM_MOLECULAR_WEIGHT>
329.41666

> <PUBCHEM_OPENEYE_CAN_SMILES>
CN(C)C1=CC=CC=C1CS(=O)C2=NC3=C(N2)C=C(C=C3)OC

> <PUBCHEM_OPENEYE_ISO_SMILES>
CN(C)C1=CC=CC=C1CS(=O)C2=NC3=C(N2)C=C(C=C3)OC

> <PUBCHEM_CACTVS_TPSA>
77.4

> <PUBCHEM_MONOISOTOPIC_WEIGHT>
329.119798

> <PUBCHEM_TOTAL_CHARGE>
0

> <PUBCHEM_HEAVY_ATOM_COUNT>
23

> <PUBCHEM_ATOM_DEF_STEREO_COUNT>
0

> <PUBCHEM_ATOM_UDEF_STEREO_COUNT>
1

> <PUBCHEM_BOND_DEF_STEREO_COUNT>
0

> <PUBCHEM_BOND_UDEF_STEREO_COUNT>
0

> <PUBCHEM_ISOTOPIC_ATOM_COUNT>
0

> <PUBCHEM_COMPONENT_COUNT>
1

> <PUBCHEM_CACTVS_TAUTO_COUNT>
2

> <PUBCHEM_COORDINATE_TYPE>
1
5
255

> <PUBCHEM_BONDANNOTATIONS>
1  8  3
11  12  8
11  15  8
12  16  8
13  17  8
14  18  8
15  19  8
16  22  8
17  18  8
19  22  8
4  10  8
4  11  8
6  10  8
6  12  8
7  13  8
7  9  8
9  14  8

$$$$

