47204993
  -OEChem-06241222573D

 33 34  0     1  0  0  0  0  0999 V2000
   -3.2842   -2.9967    0.4151 Br  0  0  0  0  0  0  0  0  0  0  0  0
   -6.5333    1.4188   -0.3170 Cl  0  0  0  0  0  0  0  0  0  0  0  0
   -1.1217   -0.7442    0.4828 O   0  0  0  0  0  0  0  0  0  0  0  0
    5.9293   -0.2435    1.0014 O   0  0  0  0  0  0  0  0  0  0  0  0
    1.0169    0.6569    1.2390 O   0  0  0  0  0  0  0  0  0  0  0  0
    1.9099    0.7029   -0.9038 N   0  0  0  0  0  0  0  0  0  0  0  0
   -0.1759   -0.4665   -0.5363 C   0  0  1  0  0  0  0  0  0  0  0  0
    3.0771    1.4950   -0.5930 C   0  0  0  0  0  0  0  0  0  0  0  0
    0.9688    0.3476    0.0503 C   0  0  0  0  0  0  0  0  0  0  0  0
    4.2471    0.6409   -0.1988 C   0  0  0  0  0  0  0  0  0  0  0  0
    0.3226   -1.7894   -1.0956 C   0  0  0  0  0  0  0  0  0  0  0  0
   -2.3940   -0.2644    0.2975 C   0  0  0  0  0  0  0  0  0  0  0  0
    4.8725   -0.3609   -0.9788 C   0  0  0  0  0  0  0  0  0  0  0  0
    4.9265    0.6738    0.9968 C   0  0  0  0  0  0  0  0  0  0  0  0
   -3.4932   -1.1211    0.2393 C   0  0  0  0  0  0  0  0  0  0  0  0
   -2.5749    1.1124    0.1652 C   0  0  0  0  0  0  0  0  0  0  0  0
    5.8894   -0.8688   -0.2043 C   0  0  0  0  0  0  0  0  0  0  0  0
   -4.7733   -0.6011    0.0488 C   0  0  0  0  0  0  0  0  0  0  0  0
   -3.8552    1.6324   -0.0252 C   0  0  0  0  0  0  0  0  0  0  0  0
   -4.9544    0.7756   -0.0834 C   0  0  0  0  0  0  0  0  0  0  0  0
   -0.6160    0.1118   -1.3604 H   0  0  0  0  0  0  0  0  0  0  0  0
    2.8302    2.2020    0.2070 H   0  0  0  0  0  0  0  0  0  0  0  0
    3.3292    2.0725   -1.4890 H   0  0  0  0  0  0  0  0  0  0  0  0
    1.7784    0.4183   -1.8697 H   0  0  0  0  0  0  0  0  0  0  0  0
   -0.5147   -2.3907   -1.4651 H   0  0  0  0  0  0  0  0  0  0  0  0
    1.0320   -1.6554   -1.9175 H   0  0  0  0  0  0  0  0  0  0  0  0
    0.8170   -2.3797   -0.3155 H   0  0  0  0  0  0  0  0  0  0  0  0
    4.6168   -0.6764   -1.9803 H   0  0  0  0  0  0  0  0  0  0  0  0
    4.8268    1.2593    1.8993 H   0  0  0  0  0  0  0  0  0  0  0  0
   -1.7314    1.7952    0.2189 H   0  0  0  0  0  0  0  0  0  0  0  0
    6.6340   -1.6362   -0.3576 H   0  0  0  0  0  0  0  0  0  0  0  0
   -5.6331   -1.2661    0.0030 H   0  0  0  0  0  0  0  0  0  0  0  0
   -3.9815    2.7075   -0.1241 H   0  0  0  0  0  0  0  0  0  0  0  0
  1 15  1  0  0  0  0
  2 20  1  0  0  0  0
  3  7  1  0  0  0  0
  3 12  1  0  0  0  0
  4 14  1  0  0  0  0
  4 17  1  0  0  0  0
  5  9  2  0  0  0  0
  6  8  1  0  0  0  0
  6  9  1  0  0  0  0
  6 24  1  0  0  0  0
  7  9  1  0  0  0  0
  7 11  1  0  0  0  0
  7 21  1  0  0  0  0
  8 10  1  0  0  0  0
  8 22  1  0  0  0  0
  8 23  1  0  0  0  0
 10 13  1  0  0  0  0
 10 14  2  0  0  0  0
 11 25  1  0  0  0  0
 11 26  1  0  0  0  0
 11 27  1  0  0  0  0
 12 15  2  0  0  0  0
 12 16  1  0  0  0  0
 13 17  2  0  0  0  0
 13 28  1  0  0  0  0
 14 29  1  0  0  0  0
 15 18  1  0  0  0  0
 16 19  2  0  0  0  0
 16 30  1  0  0  0  0
 17 31  1  0  0  0  0
 18 20  2  0  0  0  0
 18 32  1  0  0  0  0
 19 20  1  0  0  0  0
 19 33  1  0  0  0  0
M  END
> <PUBCHEM_COMPOUND_CID>
47204993

> <PUBCHEM_CONFORMER_RMSD>
0.8

> <PUBCHEM_CONFORMER_DIVERSEORDER>
1
40
372
58
10
351
134
109
259
91
51
42
89
275
265
141
285
386
175
391
53
143
34
343
144
390
155
2
404
192
101
324
150
335
362
349
190
173
138
223
278
252
382
215
171
381
355
387
392
87
17
151
78
248
334
260
371
159
21
200
311
385
149
127
136
233
341
83
323
336
191
333
312
389
315
196
328
291
45
212
329
316
9
115
81
32
317
124
347
205
55
85
86
281
97
197
271
16
264
406
129
394
227
379
11
118
319
22
305
306
181
208
194
327
279
79
338
66
145
396
249
5
148
137
33
219
19
44
67
388
314
168
398
13
157
48
269
172
6
61
257
241
261
263
167
30
209
217
112
47
243
307
367
272
113
96
140
7
70
331
267
289
35
80
224
195
298
384
246
20
111
174
299
186
369
88
232
313
3
36
308
188
231
206
52
357
94
226
403
116
28
332
180
59
253
342
256
399
330
262
12
161
49
64
302
203
75
107
38
84
318
229
104
397
71
98
114
133
283
354
230
380
402
56
245
62
108
153
123
125
364
363
221
213
352
297
54
339
166
401
139
277
201
220
18
268
407
162
207
27
193
142
103
337
121
198
14
320
250
65
102
152
373
183
280
235
375
15
266
74
350
258
132
110
130
26
365
165
340
77
122
400
31
326
68
293
23
344
92
184
361
295
76
169
356
378
147
204
163
296
303
360
240
182
126
8
95
222
93
176
120
156
270
106
301
185
287
322
244
135
199
177
383
251
211
228
41
146
214
345
325
254
46
99
160
238
393
309
359
294
128
57
242
353
24
239
178
60
117
82
119
310
348
90
346
187
50
63
300
358
255
225
274
154
37
105
72
377
202
237
284
368
179
286
43
25
282
29
405
273
234
321
131
164
158
73
210
39
376
370
170
395
218
236
304
288
4
290
366
100
292
69
189
216
247
374
276

> <PUBCHEM_MMFF94_PARTIAL_CHARGES>
26
1 -0.11
10 -0.18
12 0.08
13 -0.15
14 -0.01
15 0.11
16 -0.15
17 -0.01
18 -0.15
19 -0.15
2 -0.18
20 0.18
24 0.37
28 0.15
29 0.15
3 -0.36
30 0.15
31 0.15
32 0.15
33 0.15
4 -0.28
5 -0.57
6 -0.73
7 0.34
8 0.48
9 0.57

> <PUBCHEM_EFFECTIVE_ROTOR_COUNT>
6

> <PUBCHEM_PHARMACOPHORE_FEATURES>
7
1 1 hydrophobe
1 3 acceptor
1 4 acceptor
1 5 acceptor
1 6 donor
5 4 10 13 14 17 rings
6 12 15 16 18 19 20 rings

> <PUBCHEM_HEAVY_ATOM_COUNT>
20

> <PUBCHEM_ATOM_DEF_STEREO_COUNT>
0

> <PUBCHEM_ATOM_UDEF_STEREO_COUNT>
1

> <PUBCHEM_BOND_DEF_STEREO_COUNT>
0

> <PUBCHEM_BOND_UDEF_STEREO_COUNT>
0

> <PUBCHEM_ISOTOPIC_ATOM_COUNT>
0

> <PUBCHEM_COMPONENT_COUNT>
1

> <PUBCHEM_CACTVS_TAUTO_COUNT>
2

> <PUBCHEM_CONFORMER_ID>
02D04A8100000001

> <PUBCHEM_MMFF94_ENERGY>
38.7666

> <PUBCHEM_FEATURE_SELFOVERLAP>
35.528

> <PUBCHEM_SHAPE_FINGERPRINT>
11315181 36 17748824107423566329
11405975 8 18343016645140952216
11796584 16 18409728448352778146
12236239 1 17632294558066175341
12516196 113 11527943452507885325
12596602 18 18341054017418083536
12616971 3 17346313769793468685
13167823 11 18200312117741179234
13583140 156 17894634708212249290
13675066 3 18114461176371390166
14123256 10 7348883382590046004
14251732 16 8358250449787276933
14251751 93 18410576154205387870
14251758 9 18408880750551623262
14251764 18 18131350787391716748
14617045 38 9727631713428058061
15183329 4 18342453772549683132
15348495 7 18261959540050571168
15788980 27 18342452625671881458
17349148 13 15864059954303475024
17834072 8 18408317809362274972
17844677 252 18341323388633719016
1813 80 16558747936414704534
19489759 90 18407760343718113089
20197701 30 18113901563391761054
20281389 69 17989487424762648245
21033648 29 17822306660178430664
21315764 268 18410581669038835260
21682296 61 17459737306651783310
23035841 295 10303815388790498532
23402539 116 18411704266399761149
23536379 177 18343301466034271544
23559900 14 18336270050319835777
2838139 119 18411989078888412029
3004659 81 18343577448412487940
3009799 131 17022625294808206841
345986 75 17130730408065859760
351380 180 18334012778654407644
3545911 37 18412542132904275837
4073 2 17988075583434464418
4214541 1 18413387618348380063
5104073 3 18339073774889861776
5385378 56 18264481965717050115
542803 24 16487255465013819877
559249 180 18342740714914500539
56616090 46 18342735243358222039
573450 72 18272373031598721594
633830 44 17060053684224585228
9965369 4 18342178907390289810
9981440 41 18411131459776542187

> <PUBCHEM_SHAPE_MULTIPOLES>
396.81
15.51
2.09
0.97
7.77
1.36
-0.02
-2.89
-0.62
-2.81
0.02
0.83
0.06
0.58

> <PUBCHEM_SHAPE_SELFOVERLAP>
812.773

> <PUBCHEM_SHAPE_VOLUME>
235.3

> <PUBCHEM_COORDINATE_TYPE>
2
5
10

$$$$

