9659
  -OEChem-06261203553D

 21 20  0     0  0  0  0  0  0999 V2000
   -1.2143   -1.5313   -0.6474 F   0  0  0  0  0  0  0  0  0  0  0  0
   -1.3147   -0.5832    1.3254 F   0  0  0  0  0  0  0  0  0  0  0  0
   -2.4178    1.6595    0.2085 F   0  0  0  0  0  0  0  0  0  0  0  0
   -3.5442   -0.1659   -0.1636 F   0  0  0  0  0  0  0  0  0  0  0  0
   -0.0007    0.3420   -0.2758 O   0  0  0  0  0  0  0  0  0  0  0  0
    2.3912    0.4089   -0.1891 C   0  0  0  0  0  0  0  0  0  0  0  0
    1.1410   -0.3938    0.1414 C   0  0  0  0  0  0  0  0  0  0  0  0
    3.6611   -0.3323    0.2193 C   0  0  0  0  0  0  0  0  0  0  0  0
   -1.2181   -0.3394   -0.0029 C   0  0  0  0  0  0  0  0  0  0  0  0
    4.9086    0.4535   -0.1517 C   0  0  0  0  0  0  0  0  0  0  0  0
   -2.3922    0.4821   -0.4638 C   0  0  0  0  0  0  0  0  0  0  0  0
    2.3421    1.3838    0.3120 H   0  0  0  0  0  0  0  0  0  0  0  0
    2.4076    0.6257   -1.2647 H   0  0  0  0  0  0  0  0  0  0  0  0
    1.1679   -1.3582   -0.3786 H   0  0  0  0  0  0  0  0  0  0  0  0
    1.0890   -0.5759    1.2210 H   0  0  0  0  0  0  0  0  0  0  0  0
    3.6960   -1.3115   -0.2724 H   0  0  0  0  0  0  0  0  0  0  0  0
    3.6558   -0.5122    1.3005 H   0  0  0  0  0  0  0  0  0  0  0  0
    4.9608    0.6198   -1.2324 H   0  0  0  0  0  0  0  0  0  0  0  0
    4.9211    1.4278    0.3472 H   0  0  0  0  0  0  0  0  0  0  0  0
    5.8061   -0.0949    0.1511 H   0  0  0  0  0  0  0  0  0  0  0  0
   -2.3673    0.6895   -1.5371 H   0  0  0  0  0  0  0  0  0  0  0  0
  1  9  1  0  0  0  0
  2  9  1  0  0  0  0
  3 11  1  0  0  0  0
  4 11  1  0  0  0  0
  5  7  1  0  0  0  0
  5  9  1  0  0  0  0
  6  7  1  0  0  0  0
  6  8  1  0  0  0  0
  6 12  1  0  0  0  0
  6 13  1  0  0  0  0
  7 14  1  0  0  0  0
  7 15  1  0  0  0  0
  8 10  1  0  0  0  0
  8 16  1  0  0  0  0
  8 17  1  0  0  0  0
  9 11  1  0  0  0  0
 10 18  1  0  0  0  0
 10 19  1  0  0  0  0
 10 20  1  0  0  0  0
 11 21  1  0  0  0  0
M  END
> <PUBCHEM_COMPOUND_CID>
9659

> <PUBCHEM_CONFORMER_RMSD>
0.6

> <PUBCHEM_CONFORMER_DIVERSEORDER>
1
30
16
40
50
33
42
25
5
51
36
32
9
26
37
2
48
21
45
46
49
18
24
15
8
43
44
31
3
41
47
38
13
10
7
4
19
6
35
34
20
11
17
39
27
14
22
12
23
29
28

> <PUBCHEM_MMFF94_PARTIAL_CHARGES>
8
1 -0.34
11 0.68
2 -0.34
3 -0.34
4 -0.34
5 -0.56
7 0.28
9 0.96

> <PUBCHEM_EFFECTIVE_ROTOR_COUNT>
5

> <PUBCHEM_PHARMACOPHORE_FEATURES>
2
1 10 hydrophobe
1 5 acceptor

> <PUBCHEM_HEAVY_ATOM_COUNT>
11

> <PUBCHEM_ATOM_DEF_STEREO_COUNT>
0

> <PUBCHEM_ATOM_UDEF_STEREO_COUNT>
0

> <PUBCHEM_BOND_DEF_STEREO_COUNT>
0

> <PUBCHEM_BOND_UDEF_STEREO_COUNT>
0

> <PUBCHEM_ISOTOPIC_ATOM_COUNT>
0

> <PUBCHEM_COMPONENT_COUNT>
1

> <PUBCHEM_CACTVS_TAUTO_COUNT>
1

> <PUBCHEM_CONFORMER_ID>
000025BB00000001

> <PUBCHEM_MMFF94_ENERGY>
1.7131

> <PUBCHEM_FEATURE_SELFOVERLAP>
10.148

> <PUBCHEM_SHAPE_FINGERPRINT>
11062470 55 18412546509549738532
12932764 1 17749401359834328322
13024252 1 16702304542413129999
14325111 11 18411139151835563382
187816 3 16805326595739371783
190213 19 17561080315469600564
20279233 1 18186514411144191326
20645464 45 17632854243670358986
20645477 70 18261672688271197758
21293036 1 17458065962697928172
23402539 116 18261120668581822109
3248919 1 17703790293446824054

> <PUBCHEM_SHAPE_MULTIPOLES>
191.41
7.52
1.06
0.76
7.16
0.08
0.11
1.32
-0.28
-0.61
-0.02
-0.19
-0.11
-0.14

> <PUBCHEM_SHAPE_SELFOVERLAP>
360.447

> <PUBCHEM_SHAPE_VOLUME>
119.2

> <PUBCHEM_COORDINATE_TYPE>
2
5
10

$$$$

