17395908
  -OEChem-06241222532D

 42 43  0     0  0  0  0  0  0999 V2000
    5.4071   -0.0587    0.0000 S   0  0  0  0  0  0  0  0  0  0  0  0
    4.9116    2.7194    0.0000 O   0  0  0  0  0  0  0  0  0  0  0  0
    2.8660   -3.6465    0.0000 O   0  0  0  0  0  0  0  0  0  0  0  0
    4.5981   -4.6465    0.0000 O   0  0  0  0  0  0  0  0  0  0  0  0
    3.3292    3.4239    0.0000 N   0  0  0  0  0  0  0  0  0  0  0  0
    3.7891   -0.0587    0.0000 N   0  0  0  0  0  0  0  0  0  0  0  0
    3.7360    4.3375    0.0000 C   0  0  0  0  0  0  0  0  0  0  0  0
    3.5103    1.7014    0.0000 C   0  0  0  0  0  0  0  0  0  0  0  0
    4.0981    0.8924    0.0000 C   0  0  0  0  0  0  0  0  0  0  0  0
    3.9170    2.6149    0.0000 C   0  0  0  0  0  0  0  0  0  0  0  0
    3.1482    5.1465    0.0000 C   0  0  0  0  0  0  0  0  0  0  0  0
    4.7305    4.4420    0.0000 C   0  0  0  0  0  0  0  0  0  0  0  0
    4.5981   -1.6465    0.0000 C   0  0  0  0  0  0  0  0  0  0  0  0
    4.5981   -0.6465    0.0000 C   0  0  0  0  0  0  0  0  0  0  0  0
    5.0981    0.8924    0.0000 C   0  0  0  0  0  0  0  0  0  0  0  0
    3.7320   -2.1465    0.0000 C   0  0  0  0  0  0  0  0  0  0  0  0
    5.4641   -2.1465    0.0000 C   0  0  0  0  0  0  0  0  0  0  0  0
    3.7320   -3.1465    0.0000 C   0  0  0  0  0  0  0  0  0  0  0  0
    4.5981   -3.6465    0.0000 C   0  0  0  0  0  0  0  0  0  0  0  0
    5.4641   -3.1465    0.0000 C   0  0  0  0  0  0  0  0  0  0  0  0
    2.0000   -3.1465    0.0000 C   0  0  0  0  0  0  0  0  0  0  0  0
    5.4641   -5.1465    0.0000 C   0  0  0  0  0  0  0  0  0  0  0  0
    3.1194    4.2727    0.0000 H   0  0  0  0  0  0  0  0  0  0  0  0
    2.9963    2.0481    0.0000 H   0  0  0  0  0  0  0  0  0  0  0  0
    3.0796    1.2554    0.0000 H   0  0  0  0  0  0  0  0  0  0  0  0
    2.7126    3.3591    0.0000 H   0  0  0  0  0  0  0  0  0  0  0  0
    4.7953    3.8254    0.0000 H   0  0  0  0  0  0  0  0  0  0  0  0
    3.6498    5.5109    0.0000 H   0  0  0  0  0  0  0  0  0  0  0  0
    2.7838    5.6481    0.0000 H   0  0  0  0  0  0  0  0  0  0  0  0
    2.6466    4.7821    0.0000 H   0  0  0  0  0  0  0  0  0  0  0  0
    5.3471    4.5068    0.0000 H   0  0  0  0  0  0  0  0  0  0  0  0
    4.6657    5.0586    0.0000 H   0  0  0  0  0  0  0  0  0  0  0  0
    5.4625    1.3939    0.0000 H   0  0  0  0  0  0  0  0  0  0  0  0
    3.1951   -1.8365    0.0000 H   0  0  0  0  0  0  0  0  0  0  0  0
    6.0010   -1.8365    0.0000 H   0  0  0  0  0  0  0  0  0  0  0  0
    6.0010   -3.4565    0.0000 H   0  0  0  0  0  0  0  0  0  0  0  0
    2.3100   -2.6096    0.0000 H   0  0  0  0  0  0  0  0  0  0  0  0
    1.4631   -2.8365    0.0000 H   0  0  0  0  0  0  0  0  0  0  0  0
    1.6900   -3.6834    0.0000 H   0  0  0  0  0  0  0  0  0  0  0  0
    5.1541   -5.6834    0.0000 H   0  0  0  0  0  0  0  0  0  0  0  0
    6.0010   -5.4565    0.0000 H   0  0  0  0  0  0  0  0  0  0  0  0
    5.7741   -4.6096    0.0000 H   0  0  0  0  0  0  0  0  0  0  0  0
  1 14  1  0  0  0  0
  1 15  1  0  0  0  0
  2 10  2  0  0  0  0
  3 18  1  0  0  0  0
  3 21  1  0  0  0  0
  4 19  1  0  0  0  0
  4 22  1  0  0  0  0
  5  7  1  0  0  0  0
  5 10  1  0  0  0  0
  5 26  1  0  0  0  0
  6  9  1  0  0  0  0
  6 14  2  0  0  0  0
  7 11  1  0  0  0  0
  7 12  1  0  0  0  0
  7 23  1  0  0  0  0
  8  9  1  0  0  0  0
  8 10  1  0  0  0  0
  8 24  1  0  0  0  0
  8 25  1  0  0  0  0
  9 15  2  0  0  0  0
 11 28  1  0  0  0  0
 11 29  1  0  0  0  0
 11 30  1  0  0  0  0
 12 27  1  0  0  0  0
 12 31  1  0  0  0  0
 12 32  1  0  0  0  0
 13 14  1  0  0  0  0
 13 16  2  0  0  0  0
 13 17  1  0  0  0  0
 15 33  1  0  0  0  0
 16 18  1  0  0  0  0
 16 34  1  0  0  0  0
 17 20  2  0  0  0  0
 17 35  1  0  0  0  0
 18 19  2  0  0  0  0
 19 20  1  0  0  0  0
 20 36  1  0  0  0  0
 21 37  1  0  0  0  0
 21 38  1  0  0  0  0
 21 39  1  0  0  0  0
 22 40  1  0  0  0  0
 22 41  1  0  0  0  0
 22 42  1  0  0  0  0
M  END
> <PUBCHEM_COMPOUND_CID>
17395908

> <PUBCHEM_COMPOUND_CANONICALIZED>
1

> <PUBCHEM_CACTVS_COMPLEXITY>
367

> <PUBCHEM_CACTVS_HBOND_ACCEPTOR>
5

> <PUBCHEM_CACTVS_HBOND_DONOR>
1

> <PUBCHEM_CACTVS_ROTATABLE_BOND>
6

> <PUBCHEM_CACTVS_SUBSKEYS>
AAADceB7MABAAAAAAAAAAAAAAAAAAWAAAAAwAAAAAAAAAAABwAAAHgQQAAAADCzF3gayh5LIFAisAyVyVACC+KBhKjgIiLU+rJgNJrqk9RuEMCpk1hGqqAew0BIOIAABAAAAQABAAAIAAACAAAAAAAAAAA==

> <PUBCHEM_IUPAC_OPENEYE_NAME>
2-[2-(3,4-dimethoxyphenyl)thiazol-4-yl]-N-isopropyl-acetamide

> <PUBCHEM_IUPAC_CAS_NAME>
2-[2-(3,4-dimethoxyphenyl)-4-thiazolyl]-N-propan-2-ylacetamide

> <PUBCHEM_IUPAC_NAME>
2-[2-(3,4-dimethoxyphenyl)-1,3-thiazol-4-yl]-N-propan-2-ylacetamide

> <PUBCHEM_IUPAC_SYSTEMATIC_NAME>
2-[2-(3,4-dimethoxyphenyl)-1,3-thiazol-4-yl]-N-propan-2-yl-ethanamide

> <PUBCHEM_IUPAC_TRADITIONAL_NAME>
2-[2-(3,4-dimethoxyphenyl)thiazol-4-yl]-N-isopropyl-acetamide

> <PUBCHEM_IUPAC_INCHI>
InChI=1S/C16H20N2O3S/c1-10(2)17-15(19)8-12-9-22-16(18-12)11-5-6-13(20-3)14(7-11)21-4/h5-7,9-10H,8H2,1-4H3,(H,17,19)

> <PUBCHEM_IUPAC_INCHIKEY>
OVGZHWOIVBFXRK-UHFFFAOYSA-N

> <PUBCHEM_XLOGP3_AA>
2.6

> <PUBCHEM_EXACT_MASS>
320.119464

> <PUBCHEM_MOLECULAR_FORMULA>
C16H20N2O3S

> <PUBCHEM_MOLECULAR_WEIGHT>
320.4066

> <PUBCHEM_OPENEYE_CAN_SMILES>
CC(C)NC(=O)CC1=CSC(=N1)C2=CC(=C(C=C2)OC)OC

> <PUBCHEM_OPENEYE_ISO_SMILES>
CC(C)NC(=O)CC1=CSC(=N1)C2=CC(=C(C=C2)OC)OC

> <PUBCHEM_CACTVS_TPSA>
88.7

> <PUBCHEM_MONOISOTOPIC_WEIGHT>
320.119464

> <PUBCHEM_TOTAL_CHARGE>
0

> <PUBCHEM_HEAVY_ATOM_COUNT>
22

> <PUBCHEM_ATOM_DEF_STEREO_COUNT>
0

> <PUBCHEM_ATOM_UDEF_STEREO_COUNT>
0

> <PUBCHEM_BOND_DEF_STEREO_COUNT>
0

> <PUBCHEM_BOND_UDEF_STEREO_COUNT>
0

> <PUBCHEM_ISOTOPIC_ATOM_COUNT>
0

> <PUBCHEM_COMPONENT_COUNT>
1

> <PUBCHEM_CACTVS_TAUTO_COUNT>
2

> <PUBCHEM_COORDINATE_TYPE>
1
5
255

> <PUBCHEM_BONDANNOTATIONS>
1  14  8
1  15  8
13  16  8
13  17  8
16  18  8
17  20  8
18  19  8
19  20  8
6  14  8
6  9  8
9  15  8

$$$$

