47205010
  -OEChem-06241222573D

 34 35  0     0  0  0  0  0  0999 V2000
   -3.5209    1.8859   -0.1787 S   0  0  0  0  0  0  0  0  0  0  0  0
   -3.9770    3.1211    0.4311 O   0  0  0  0  0  0  0  0  0  0  0  0
   -2.4971    1.9048   -1.2045 O   0  0  0  0  0  0  0  0  0  0  0  0
    1.7330   -2.4404   -0.3063 O   0  0  0  0  0  0  0  0  0  0  0  0
   -3.1156    0.7771    1.0754 N   0  0  0  0  0  0  0  0  0  0  0  0
    1.4121   -0.2654   -1.0434 N   0  0  0  0  0  0  0  0  0  0  0  0
    3.6291    1.7541   -0.0303 N   0  0  0  0  0  0  0  0  0  0  0  0
    4.5220    2.0329    0.9347 N   0  0  0  0  0  0  0  0  0  0  0  0
   -2.4202   -0.4181    0.7201 C   0  0  0  0  0  0  0  0  0  0  0  0
   -0.4079   -1.5244   -0.0313 C   0  0  0  0  0  0  0  0  0  0  0  0
    2.7549   -0.0550   -1.5348 C   0  0  0  0  0  0  0  0  0  0  0  0
   -1.0869   -0.3560    0.3145 C   0  0  0  0  0  0  0  0  0  0  0  0
    0.9824   -1.4596   -0.4534 C   0  0  0  0  0  0  0  0  0  0  0  0
    3.6710    0.4613   -0.4632 C   0  0  0  0  0  0  0  0  0  0  0  0
   -3.0743   -1.6488    0.7798 C   0  0  0  0  0  0  0  0  0  0  0  0
   -1.0621   -2.7550    0.0284 C   0  0  0  0  0  0  0  0  0  0  0  0
   -2.3951   -2.8172    0.4342 C   0  0  0  0  0  0  0  0  0  0  0  0
   -4.9570    1.0835   -0.8552 C   0  0  0  0  0  0  0  0  0  0  0  0
    4.6604   -0.1479    0.2693 C   0  0  0  0  0  0  0  0  0  0  0  0
    5.1490    0.8672    1.1136 C   0  0  0  0  0  0  0  0  0  0  0  0
    2.6962    0.6634   -2.3596 H   0  0  0  0  0  0  0  0  0  0  0  0
    3.1418   -0.9982   -1.9360 H   0  0  0  0  0  0  0  0  0  0  0  0
   -0.5892    0.6099    0.3217 H   0  0  0  0  0  0  0  0  0  0  0  0
   -3.8446    0.6391    1.7882 H   0  0  0  0  0  0  0  0  0  0  0  0
    0.7564    0.4935   -1.1948 H   0  0  0  0  0  0  0  0  0  0  0  0
   -4.1134   -1.7093    1.0931 H   0  0  0  0  0  0  0  0  0  0  0  0
   -0.5524   -3.6765   -0.2410 H   0  0  0  0  0  0  0  0  0  0  0  0
   -2.9050   -3.7751    0.4796 H   0  0  0  0  0  0  0  0  0  0  0  0
   -5.6965    0.9497   -0.0634 H   0  0  0  0  0  0  0  0  0  0  0  0
   -4.6655    0.1256   -1.2888 H   0  0  0  0  0  0  0  0  0  0  0  0
   -5.3656    1.7297   -1.6356 H   0  0  0  0  0  0  0  0  0  0  0  0
    4.9813   -1.1773    0.2037 H   0  0  0  0  0  0  0  0  0  0  0  0
    3.0184    2.4972   -0.3466 H   0  0  0  0  0  0  0  0  0  0  0  0
    5.9357    0.8057    1.8517 H   0  0  0  0  0  0  0  0  0  0  0  0
  1  2  2  0  0  0  0
  1  3  2  0  0  0  0
  1  5  1  0  0  0  0
  1 18  1  0  0  0  0
  4 13  2  0  0  0  0
  5  9  1  0  0  0  0
  5 24  1  0  0  0  0
  6 11  1  0  0  0  0
  6 13  1  0  0  0  0
  6 25  1  0  0  0  0
  7  8  1  0  0  0  0
  7 14  1  0  0  0  0
  7 33  1  0  0  0  0
  8 20  2  0  0  0  0
  9 12  1  0  0  0  0
  9 15  2  0  0  0  0
 10 12  2  0  0  0  0
 10 13  1  0  0  0  0
 10 16  1  0  0  0  0
 11 14  1  0  0  0  0
 11 21  1  0  0  0  0
 11 22  1  0  0  0  0
 12 23  1  0  0  0  0
 14 19  2  0  0  0  0
 15 17  1  0  0  0  0
 15 26  1  0  0  0  0
 16 17  2  0  0  0  0
 16 27  1  0  0  0  0
 17 28  1  0  0  0  0
 18 29  1  0  0  0  0
 18 30  1  0  0  0  0
 18 31  1  0  0  0  0
 19 20  1  0  0  0  0
 19 32  1  0  0  0  0
 20 34  1  0  0  0  0
M  END
> <PUBCHEM_COMPOUND_CID>
47205010

> <PUBCHEM_CONFORMER_RMSD>
1

> <PUBCHEM_CONFORMER_DIVERSEORDER>
1
61
55
106
71
58
81
5
66
69
7
60
57
45
19
103
3
95
88
30
59
32
39
23
94
99
100
102
78
63
9
74
77
17
92
34
105
20
80
72
97
46
104
56
15
84
52
25
41
91
12
13
87
83
90
50
24
89
101
38
93
51
70
21
43
82
65
96
18
16
68
48
22
47
108
8
54
37
35
40
36
14
79
11
53
67
6
73
42
62
76
75
26
44
107
86
49
33
27
31
10
4
2
28
64
98
85
29

> <PUBCHEM_MMFF94_PARTIAL_CHARGES>
29
1 1.33
10 0.09
11 0.48
12 -0.15
13 0.54
14 -0.33
15 -0.15
16 -0.15
17 -0.15
18 0.11
19 -0.15
2 -0.65
20 0.14
23 0.15
24 0.42
25 0.37
26 0.15
27 0.15
28 0.15
3 -0.65
32 0.15
33 0.27
34 0.15
4 -0.57
5 -0.76
6 -0.73
7 0.3
8 -0.71
9 0.2

> <PUBCHEM_EFFECTIVE_ROTOR_COUNT>
6

> <PUBCHEM_PHARMACOPHORE_FEATURES>
9
1 2 acceptor
1 3 acceptor
1 4 acceptor
1 5 donor
1 6 donor
1 7 donor
1 8 acceptor
5 7 8 14 19 20 rings
6 9 10 12 15 16 17 rings

> <PUBCHEM_HEAVY_ATOM_COUNT>
20

> <PUBCHEM_ATOM_DEF_STEREO_COUNT>
0

> <PUBCHEM_ATOM_UDEF_STEREO_COUNT>
0

> <PUBCHEM_BOND_DEF_STEREO_COUNT>
0

> <PUBCHEM_BOND_UDEF_STEREO_COUNT>
0

> <PUBCHEM_ISOTOPIC_ATOM_COUNT>
0

> <PUBCHEM_COMPONENT_COUNT>
1

> <PUBCHEM_CACTVS_TAUTO_COUNT>
4

> <PUBCHEM_CONFORMER_ID>
02D04A9200000001

> <PUBCHEM_MMFF94_ENERGY>
39.9959

> <PUBCHEM_FEATURE_SELFOVERLAP>
45.687

> <PUBCHEM_SHAPE_FINGERPRINT>
10319926 262 18410300186246916458
10646746 165 18410005521008674070
10670039 82 18125138469501656644
11370993 70 18410011065268082164
11725454 13 17967544475374872174
12107183 9 18198915880224607938
12173636 292 18411692214827387447
12403259 415 18262224561155263518
12596602 18 16987718974739051896
12633257 1 17704070698591920580
12892183 10 18199753536201982354
13103583 49 13901618701346649733
13965767 371 17915742178716719844
14123255 352 18408605838306247664
14178342 30 18201993296663609170
14251751 93 18340773645704583928
14251764 38 18335703801926775180
14957384 54 18341906177362879632
173720 79 17703794721642560779
1741750 31 18411412951479018643
17834072 32 18410293644088460825
18186145 218 17969199227669452374
20645477 56 18336529573882129227
20871999 31 8142093069684679404
21065199 12 18337670794417267226
21095088 737 18187649124165682553
21315764 268 18336550396010038040
22182937 141 18336258003105148049
22950370 63 9583229578391418749
23227448 37 18336546019311535453
23557571 272 18265031609550272958
23559900 14 18115299111727984774
3117164 225 18270973448377070690
341906 21 18340201899964134076
4371632 12 15360822149140039768
5104073 3 18199457947951863305
6328613 192 18271796918530705740
633830 44 16154804939196778174
7064713 232 18272080638931624717
90316 7 17561087981701543924
9862522 239 18343588451306336607
9981440 41 18271805757183225315

> <PUBCHEM_SHAPE_MULTIPOLES>
377.91
10.68
3.26
1.13
7.6
0.3
0.13
-7.84
-1.63
-3.2
-0.26
0.33
-0.24
1.25

> <PUBCHEM_SHAPE_SELFOVERLAP>
783.666

> <PUBCHEM_SHAPE_VOLUME>
217.1

> <PUBCHEM_COORDINATE_TYPE>
2
5
10

$$$$

