9383
  -OEChem-06261203392D

 49 48  0     0  0  0  0  0  0999 V2000
    3.7320   -0.3170    0.0000 N   0  3  0  0  0  0  0  0  0  0  0  0
    8.9282   -0.3170    0.0000 N   0  3  0  0  0  0  0  0  0  0  0  0
    6.3301    0.1830    0.0000 N   0  0  0  0  0  0  0  0  0  0  0  0
    4.5981    0.1830    0.0000 C   0  0  0  0  0  0  0  0  0  0  0  0
    8.0622    0.1830    0.0000 C   0  0  0  0  0  0  0  0  0  0  0  0
    5.4641   -0.3170    0.0000 C   0  0  0  0  0  0  0  0  0  0  0  0
    7.1962   -0.3170    0.0000 C   0  0  0  0  0  0  0  0  0  0  0  0
    2.8660   -0.8170    0.0000 C   0  0  0  0  0  0  0  0  0  0  0  0
    9.7942   -0.8170    0.0000 C   0  0  0  0  0  0  0  0  0  0  0  0
    3.2320    0.5490    0.0000 C   0  0  0  0  0  0  0  0  0  0  0  0
    4.2320   -1.1830    0.0000 C   0  0  0  0  0  0  0  0  0  0  0  0
    9.4282    0.5490    0.0000 C   0  0  0  0  0  0  0  0  0  0  0  0
    8.4282   -1.1830    0.0000 C   0  0  0  0  0  0  0  0  0  0  0  0
    6.3301    1.1830    0.0000 C   0  0  0  0  0  0  0  0  0  0  0  0
    2.0000   -0.3170    0.0000 C   0  0  0  0  0  0  0  0  0  0  0  0
   10.6603   -0.3170    0.0000 C   0  0  0  0  0  0  0  0  0  0  0  0
    4.9966    0.6580    0.0000 H   0  0  0  0  0  0  0  0  0  0  0  0
    4.1996    0.6580    0.0000 H   0  0  0  0  0  0  0  0  0  0  0  0
    8.4607    0.6580    0.0000 H   0  0  0  0  0  0  0  0  0  0  0  0
    7.6636    0.6580    0.0000 H   0  0  0  0  0  0  0  0  0  0  0  0
    6.7976   -0.7919    0.0000 H   0  0  0  0  0  0  0  0  0  0  0  0
    7.5947   -0.7919    0.0000 H   0  0  0  0  0  0  0  0  0  0  0  0
    5.0656   -0.7919    0.0000 H   0  0  0  0  0  0  0  0  0  0  0  0
    5.8626   -0.7919    0.0000 H   0  0  0  0  0  0  0  0  0  0  0  0
    9.3957   -1.2919    0.0000 H   0  0  0  0  0  0  0  0  0  0  0  0
   10.1928   -1.2919    0.0000 H   0  0  0  0  0  0  0  0  0  0  0  0
    2.4675   -1.2919    0.0000 H   0  0  0  0  0  0  0  0  0  0  0  0
    3.2646   -1.2919    0.0000 H   0  0  0  0  0  0  0  0  0  0  0  0
    3.7690    0.8590    0.0000 H   0  0  0  0  0  0  0  0  0  0  0  0
    2.9220    1.0860    0.0000 H   0  0  0  0  0  0  0  0  0  0  0  0
    2.6951    0.2390    0.0000 H   0  0  0  0  0  0  0  0  0  0  0  0
    3.6951   -1.4930    0.0000 H   0  0  0  0  0  0  0  0  0  0  0  0
    4.5420   -1.7200    0.0000 H   0  0  0  0  0  0  0  0  0  0  0  0
    4.7690   -0.8730    0.0000 H   0  0  0  0  0  0  0  0  0  0  0  0
    9.9651    0.2390    0.0000 H   0  0  0  0  0  0  0  0  0  0  0  0
    9.7382    1.0860    0.0000 H   0  0  0  0  0  0  0  0  0  0  0  0
    8.8913    0.8590    0.0000 H   0  0  0  0  0  0  0  0  0  0  0  0
    7.8913   -0.8730    0.0000 H   0  0  0  0  0  0  0  0  0  0  0  0
    8.1182   -1.7200    0.0000 H   0  0  0  0  0  0  0  0  0  0  0  0
    8.9651   -1.4930    0.0000 H   0  0  0  0  0  0  0  0  0  0  0  0
    6.9501    1.1830    0.0000 H   0  0  0  0  0  0  0  0  0  0  0  0
    6.3301    1.8030    0.0000 H   0  0  0  0  0  0  0  0  0  0  0  0
    5.7101    1.1830    0.0000 H   0  0  0  0  0  0  0  0  0  0  0  0
    2.3100    0.2199    0.0000 H   0  0  0  0  0  0  0  0  0  0  0  0
    1.4631   -0.0070    0.0000 H   0  0  0  0  0  0  0  0  0  0  0  0
    1.6900   -0.8539    0.0000 H   0  0  0  0  0  0  0  0  0  0  0  0
   10.9703   -0.8539    0.0000 H   0  0  0  0  0  0  0  0  0  0  0  0
   11.1972   -0.0070    0.0000 H   0  0  0  0  0  0  0  0  0  0  0  0
   10.3503    0.2199    0.0000 H   0  0  0  0  0  0  0  0  0  0  0  0
  1  4  1  0  0  0  0
  1  8  1  0  0  0  0
  1 10  1  0  0  0  0
  1 11  1  0  0  0  0
  2  5  1  0  0  0  0
  2  9  1  0  0  0  0
  2 12  1  0  0  0  0
  2 13  1  0  0  0  0
  3  6  1  0  0  0  0
  3  7  1  0  0  0  0
  3 14  1  0  0  0  0
  4  6  1  0  0  0  0
  4 17  1  0  0  0  0
  4 18  1  0  0  0  0
  5  7  1  0  0  0  0
  5 19  1  0  0  0  0
  5 20  1  0  0  0  0
  6 23  1  0  0  0  0
  6 24  1  0  0  0  0
  7 21  1  0  0  0  0
  7 22  1  0  0  0  0
  8 15  1  0  0  0  0
  8 27  1  0  0  0  0
  8 28  1  0  0  0  0
  9 16  1  0  0  0  0
  9 25  1  0  0  0  0
  9 26  1  0  0  0  0
 10 29  1  0  0  0  0
 10 30  1  0  0  0  0
 10 31  1  0  0  0  0
 11 32  1  0  0  0  0
 11 33  1  0  0  0  0
 11 34  1  0  0  0  0
 12 35  1  0  0  0  0
 12 36  1  0  0  0  0
 12 37  1  0  0  0  0
 13 38  1  0  0  0  0
 13 39  1  0  0  0  0
 13 40  1  0  0  0  0
 14 41  1  0  0  0  0
 14 42  1  0  0  0  0
 14 43  1  0  0  0  0
 15 44  1  0  0  0  0
 15 45  1  0  0  0  0
 15 46  1  0  0  0  0
 16 47  1  0  0  0  0
 16 48  1  0  0  0  0
 16 49  1  0  0  0  0
M  CHG  2   1   1   2   1
M  END
> <PUBCHEM_COMPOUND_CID>
9383

> <PUBCHEM_COMPOUND_CANONICALIZED>
1

> <PUBCHEM_CACTVS_COMPLEXITY>
168

> <PUBCHEM_CACTVS_HBOND_ACCEPTOR>
1

> <PUBCHEM_CACTVS_HBOND_DONOR>
0

> <PUBCHEM_CACTVS_ROTATABLE_BOND>
8

> <PUBCHEM_CACTVS_SUBSKEYS>
AAADcfBzAAAAAAAAAAAAAAAAAAAAAAAAAAAAAAAAAAAAAAAAAAAAHAAAAAAAAADBAAQCAAMAAAAAAAAAAAAAAAAAAAAAAAAIAAAAQAAAAAAQAAAAAACAAAAAAAAAAAAAAAAAAAAAAAAAAAAAAAAAAAAAAA==

> <PUBCHEM_IUPAC_OPENEYE_NAME>
ethyl-[2-[2-[ethyl(dimethyl)ammonio]ethyl-methyl-amino]ethyl]-dimethyl-ammonium

> <PUBCHEM_IUPAC_CAS_NAME>
ethyl-[2-[2-[ethyl(dimethyl)ammonio]ethyl-methylamino]ethyl]-dimethylammonium

> <PUBCHEM_IUPAC_NAME>
ethyl-[2-[2-[ethyl(dimethyl)azaniumyl]ethyl-methylamino]ethyl]-dimethylazanium

> <PUBCHEM_IUPAC_SYSTEMATIC_NAME>
ethyl-[2-[2-[ethyl(dimethyl)azaniumyl]ethyl-methyl-amino]ethyl]-dimethyl-azanium

> <PUBCHEM_IUPAC_TRADITIONAL_NAME>
ethyl-[2-[2-[ethyl(dimethyl)ammonio]ethyl-methyl-amino]ethyl]-dimethyl-ammonium

> <PUBCHEM_IUPAC_INCHI>
InChI=1S/C13H33N3/c1-8-15(4,5)12-10-14(3)11-13-16(6,7)9-2/h8-13H2,1-7H3/q+2

> <PUBCHEM_IUPAC_INCHIKEY>
NHWGPUVJQFTOQX-UHFFFAOYSA-N

> <PUBCHEM_XLOGP3_AA>
1.1

> <PUBCHEM_EXACT_MASS>
231.267448

> <PUBCHEM_MOLECULAR_FORMULA>
C13H33N3+2

> <PUBCHEM_MOLECULAR_WEIGHT>
231.42122

> <PUBCHEM_OPENEYE_CAN_SMILES>
CC[N+](C)(C)CCN(C)CC[N+](C)(C)CC

> <PUBCHEM_OPENEYE_ISO_SMILES>
CC[N+](C)(C)CCN(C)CC[N+](C)(C)CC

> <PUBCHEM_CACTVS_TPSA>
3.2

> <PUBCHEM_MONOISOTOPIC_WEIGHT>
231.267448

> <PUBCHEM_TOTAL_CHARGE>
2

> <PUBCHEM_HEAVY_ATOM_COUNT>
16

> <PUBCHEM_ATOM_DEF_STEREO_COUNT>
0

> <PUBCHEM_ATOM_UDEF_STEREO_COUNT>
0

> <PUBCHEM_BOND_DEF_STEREO_COUNT>
0

> <PUBCHEM_BOND_UDEF_STEREO_COUNT>
0

> <PUBCHEM_ISOTOPIC_ATOM_COUNT>
0

> <PUBCHEM_COMPONENT_COUNT>
1

> <PUBCHEM_CACTVS_TAUTO_COUNT>
1

> <PUBCHEM_COORDINATE_TYPE>
1
5
255

$$$$

