6208
  -OEChem-06261201112D

 15 15  0     0  0  0  0  0  0999 V2000
    4.5032   -0.6056    0.0000 O   0  0  0  0  0  0  0  0  0  0  0  0
    2.7431   -0.3268    0.0000 O   0  0  0  0  0  0  0  0  0  0  0  0
    7.0064    0.3423    0.0000 O   0  0  0  0  0  0  0  0  0  0  0  0
    3.6942   -0.0178    0.0000 C   0  0  0  0  0  0  0  0  0  0  0  0
    5.3122   -0.0178    0.0000 C   0  0  0  0  0  0  0  0  0  0  0  0
    4.0032    0.9333    0.0000 C   0  0  0  0  0  0  0  0  0  0  0  0
    5.0032    0.9333    0.0000 C   0  0  0  0  0  0  0  0  0  0  0  0
    2.0000    0.3423    0.0000 C   0  0  0  0  0  0  0  0  0  0  0  0
    6.2633   -0.3268    0.0000 C   0  0  0  0  0  0  0  0  0  0  0  0
    3.6388    1.4348    0.0000 H   0  0  0  0  0  0  0  0  0  0  0  0
    5.3676    1.4348    0.0000 H   0  0  0  0  0  0  0  0  0  0  0  0
    2.4149    0.8031    0.0000 H   0  0  0  0  0  0  0  0  0  0  0  0
    1.5392    0.7572    0.0000 H   0  0  0  0  0  0  0  0  0  0  0  0
    1.5851   -0.1184    0.0000 H   0  0  0  0  0  0  0  0  0  0  0  0
    6.3922   -0.9333    0.0000 H   0  0  0  0  0  0  0  0  0  0  0  0
  1  4  1  0  0  0  0
  1  5  1  0  0  0  0
  2  4  1  0  0  0  0
  2  8  1  0  0  0  0
  3  9  2  0  0  0  0
  4  6  2  0  0  0  0
  5  7  2  0  0  0  0
  5  9  1  0  0  0  0
  6  7  1  0  0  0  0
  6 10  1  0  0  0  0
  7 11  1  0  0  0  0
  8 12  1  0  0  0  0
  8 13  1  0  0  0  0
  8 14  1  0  0  0  0
  9 15  1  0  0  0  0
M  END
> <PUBCHEM_COMPOUND_CID>
6208

> <PUBCHEM_COMPOUND_CANONICALIZED>
1

> <PUBCHEM_CACTVS_COMPLEXITY>
103

> <PUBCHEM_CACTVS_HBOND_ACCEPTOR>
3

> <PUBCHEM_CACTVS_HBOND_DONOR>
0

> <PUBCHEM_CACTVS_ROTATABLE_BOND>
2

> <PUBCHEM_CACTVS_SUBSKEYS>
AAADcYBgMAAAAAAAAAAAAAAAAAAAASAAAAAAAAAAAAAAAAABgAAAGgAAAAAACASgkAIyDIAABECIAKjSiAICCAAkIAAIiAFGCMgcJjKENR6iGSCkwBEMqYbKBgAAAAAAAAAAAAAAAAAAAAAAAAAAAAAAAA==

> <PUBCHEM_IUPAC_OPENEYE_NAME>
5-methoxyfuran-2-carbaldehyde

> <PUBCHEM_IUPAC_CAS_NAME>
5-methoxy-2-furancarboxaldehyde

> <PUBCHEM_IUPAC_NAME>
5-methoxyfuran-2-carbaldehyde

> <PUBCHEM_IUPAC_SYSTEMATIC_NAME>
5-methoxyfuran-2-carbaldehyde

> <PUBCHEM_IUPAC_TRADITIONAL_NAME>
5-methoxyfurfural

> <PUBCHEM_IUPAC_INCHI>
InChI=1S/C6H6O3/c1-8-6-3-2-5(4-7)9-6/h2-4H,1H3

> <PUBCHEM_IUPAC_INCHIKEY>
RJGBSYZFOCAGQY-UHFFFAOYSA-N

> <PUBCHEM_XLOGP3_AA>
1.1

> <PUBCHEM_EXACT_MASS>
126.031694

> <PUBCHEM_MOLECULAR_FORMULA>
C6H6O3

> <PUBCHEM_MOLECULAR_WEIGHT>
126.11004

> <PUBCHEM_OPENEYE_CAN_SMILES>
COC1=CC=C(O1)C=O

> <PUBCHEM_OPENEYE_ISO_SMILES>
COC1=CC=C(O1)C=O

> <PUBCHEM_CACTVS_TPSA>
39.4

> <PUBCHEM_MONOISOTOPIC_WEIGHT>
126.031694

> <PUBCHEM_TOTAL_CHARGE>
0

> <PUBCHEM_HEAVY_ATOM_COUNT>
9

> <PUBCHEM_ATOM_DEF_STEREO_COUNT>
0

> <PUBCHEM_ATOM_UDEF_STEREO_COUNT>
0

> <PUBCHEM_BOND_DEF_STEREO_COUNT>
0

> <PUBCHEM_BOND_UDEF_STEREO_COUNT>
0

> <PUBCHEM_ISOTOPIC_ATOM_COUNT>
0

> <PUBCHEM_COMPONENT_COUNT>
1

> <PUBCHEM_CACTVS_TAUTO_COUNT>
1

> <PUBCHEM_COORDINATE_TYPE>
1
5
255

> <PUBCHEM_BONDANNOTATIONS>
1  4  8
1  5  8
4  6  8
5  7  8
6  7  8

$$$$

