17395274
  -OEChem-06241222493D

 37 38  0     1  0  0  0  0  0999 V2000
    2.4508   -1.9206   -0.6180 S   0  0  0  0  0  0  0  0  0  0  0  0
    2.9904    1.0837   -1.3960 O   0  0  0  0  0  0  0  0  0  0  0  0
   -0.1562   -1.0140   -0.5178 N   0  0  0  0  0  0  0  0  0  0  0  0
    2.7169    1.4237    0.8832 N   0  0  0  0  0  0  0  0  0  0  0  0
    0.7028   -1.4089    1.4555 N   0  0  0  0  0  0  0  0  0  0  0  0
   -0.5929   -0.9637    1.6256 N   0  0  0  0  0  0  0  0  0  0  0  0
   -4.9958    0.6818   -0.4122 N   0  0  0  0  0  0  0  0  0  0  0  0
    3.5873   -0.7021    0.1216 C   0  0  2  0  0  0  0  0  0  0  0  0
    0.9457   -1.4324    0.1644 C   0  0  0  0  0  0  0  0  0  0  0  0
   -1.0908   -0.7323    0.4319 C   0  0  0  0  0  0  0  0  0  0  0  0
    3.0783    0.6867   -0.2358 C   0  0  0  0  0  0  0  0  0  0  0  0
    5.0001   -0.9351   -0.3978 C   0  0  0  0  0  0  0  0  0  0  0  0
   -2.4199   -0.2516    0.1424 C   0  0  0  0  0  0  0  0  0  0  0  0
   -0.3156   -0.8891   -1.9491 C   0  0  0  0  0  0  0  0  0  0  0  0
    2.1878    2.7648    0.7955 C   0  0  0  0  0  0  0  0  0  0  0  0
   -3.5302   -0.9859    0.5446 C   0  0  0  0  0  0  0  0  0  0  0  0
   -2.5962    0.9490   -0.5366 C   0  0  0  0  0  0  0  0  0  0  0  0
    0.7154    2.7583    0.4399 C   0  0  0  0  0  0  0  0  0  0  0  0
   -4.7851   -0.4802    0.2457 C   0  0  0  0  0  0  0  0  0  0  0  0
   -3.8929    1.3680   -0.7872 C   0  0  0  0  0  0  0  0  0  0  0  0
    3.5884   -0.8509    1.2069 H   0  0  0  0  0  0  0  0  0  0  0  0
    5.3662   -1.9326   -0.1315 H   0  0  0  0  0  0  0  0  0  0  0  0
    5.6877   -0.2016    0.0384 H   0  0  0  0  0  0  0  0  0  0  0  0
    5.0616   -0.8214   -1.4864 H   0  0  0  0  0  0  0  0  0  0  0  0
    0.0140    0.1103   -2.2437 H   0  0  0  0  0  0  0  0  0  0  0  0
    0.2812   -1.6503   -2.4565 H   0  0  0  0  0  0  0  0  0  0  0  0
   -1.3607   -1.0480   -2.2245 H   0  0  0  0  0  0  0  0  0  0  0  0
    2.8092    1.0146    1.8080 H   0  0  0  0  0  0  0  0  0  0  0  0
    2.3427    3.2434    1.7674 H   0  0  0  0  0  0  0  0  0  0  0  0
    2.7549    3.3208    0.0415 H   0  0  0  0  0  0  0  0  0  0  0  0
   -3.4335   -1.9273    1.0759 H   0  0  0  0  0  0  0  0  0  0  0  0
   -1.7610    1.5567   -0.8660 H   0  0  0  0  0  0  0  0  0  0  0  0
    0.5490    2.2982   -0.5389 H   0  0  0  0  0  0  0  0  0  0  0  0
    0.1368    2.1955    1.1795 H   0  0  0  0  0  0  0  0  0  0  0  0
    0.3260    3.7802    0.4059 H   0  0  0  0  0  0  0  0  0  0  0  0
   -5.6832   -1.0148    0.5372 H   0  0  0  0  0  0  0  0  0  0  0  0
   -4.0844    2.2979   -1.3124 H   0  0  0  0  0  0  0  0  0  0  0  0
  1  8  1  0  0  0  0
  1  9  1  0  0  0  0
  2 11  2  0  0  0  0
  3  9  1  0  0  0  0
  3 10  1  0  0  0  0
  3 14  1  0  0  0  0
  4 11  1  0  0  0  0
  4 15  1  0  0  0  0
  4 28  1  0  0  0  0
  5  6  1  0  0  0  0
  5  9  2  0  0  0  0
  6 10  2  0  0  0  0
  7 19  2  0  0  0  0
  7 20  1  0  0  0  0
  8 11  1  0  0  0  0
  8 12  1  0  0  0  0
  8 21  1  0  0  0  0
 10 13  1  0  0  0  0
 12 22  1  0  0  0  0
 12 23  1  0  0  0  0
 12 24  1  0  0  0  0
 13 16  2  0  0  0  0
 13 17  1  0  0  0  0
 14 25  1  0  0  0  0
 14 26  1  0  0  0  0
 14 27  1  0  0  0  0
 15 18  1  0  0  0  0
 15 29  1  0  0  0  0
 15 30  1  0  0  0  0
 16 19  1  0  0  0  0
 16 31  1  0  0  0  0
 17 20  2  0  0  0  0
 17 32  1  0  0  0  0
 18 33  1  0  0  0  0
 18 34  1  0  0  0  0
 18 35  1  0  0  0  0
 19 36  1  0  0  0  0
 20 37  1  0  0  0  0
M  END
> <PUBCHEM_COMPOUND_CID>
17395274

> <PUBCHEM_CONFORMER_RMSD>
0.8

> <PUBCHEM_CONFORMER_DIVERSEORDER>
1
33
98
61
43
100
16
89
63
36
65
70
4
92
42
64
22
77
17
28
66
102
101
3
83
86
94
81
18
78
15
97
10
82
7
99
35
88
72
76
59
38
68
52
74
40
44
73
57
87
2
32
24
56
93
53
49
11
48
58
96
95
51
14
103
80
9
21
71
6
26
25
91
37
67
50
45
84
8
19
69
47
23
34
31
75
27
54
85
46
20
79
62
39
30
60
29
13
5
90
41
55
12

> <PUBCHEM_MMFF94_PARTIAL_CHARGES>
23
1 -0.29
10 0.13
11 0.57
13 0.05
14 0.26
15 0.3
16 -0.15
17 -0.15
19 0.16
2 -0.57
20 0.16
28 0.37
3 0.05
31 0.15
32 0.15
36 0.15
37 0.15
4 -0.73
5 -0.34
6 -0.34
7 -0.62
8 0.29
9 0.24

> <PUBCHEM_EFFECTIVE_ROTOR_COUNT>
6

> <PUBCHEM_PHARMACOPHORE_FEATURES>
8
1 12 hydrophobe
1 2 acceptor
1 4 donor
1 7 acceptor
3 3 5 9 cation
3 3 6 10 cation
5 3 5 6 9 10 rings
6 7 13 16 17 19 20 rings

> <PUBCHEM_HEAVY_ATOM_COUNT>
20

> <PUBCHEM_ATOM_DEF_STEREO_COUNT>
0

> <PUBCHEM_ATOM_UDEF_STEREO_COUNT>
1

> <PUBCHEM_BOND_DEF_STEREO_COUNT>
0

> <PUBCHEM_BOND_UDEF_STEREO_COUNT>
0

> <PUBCHEM_ISOTOPIC_ATOM_COUNT>
0

> <PUBCHEM_COMPONENT_COUNT>
1

> <PUBCHEM_CACTVS_TAUTO_COUNT>
2

> <PUBCHEM_CONFORMER_ID>
01096E4A00000001

> <PUBCHEM_MMFF94_ENERGY>
36.7137

> <PUBCHEM_FEATURE_SELFOVERLAP>
43.097

> <PUBCHEM_SHAPE_FINGERPRINT>
10366900 7 17989488524257958091
104564 63 18118960528350185184
10646746 165 18131350834235443239
11595378 159 14548464708014131453
11615757 297 18259981578798693299
12507557 5 18334295370343337755
12507560 18 17988924522275036674
13134695 92 18262808479128409508
13583140 156 18410288099586888007
1813 80 13912599429673619035
18186145 218 17967807206766227658
192875 21 17312814979332366480
20645476 183 17749399152105510087
20905425 154 18266743678025182140
21475661 188 18271538523896256373
221357 26 18410014377025815453
22289505 5 18339083808123089516
23227448 37 18262805038506541375
23402539 116 18187933914313956902
23559900 14 18131350851241615875
3060560 45 17894629266715584526
3286 77 18342460313800653862
3323516 105 18412263917681285361
351380 180 18412546517628015727
3524813 1 18201164329151678532
474 4 17846775191800480479
5281201 14 18335697299387961055
633830 44 18202289069596380759
7495541 125 18409442553611990395
7832392 63 18188219697474862990

> <PUBCHEM_SHAPE_MULTIPOLES>
384.67
8.98
2.45
1.27
4.28
1.87
0.14
0.09
1.11
-1.81
-0.32
-0.06
-0.22
0.84

> <PUBCHEM_SHAPE_SELFOVERLAP>
787.961

> <PUBCHEM_SHAPE_VOLUME>
225.5

> <PUBCHEM_COORDINATE_TYPE>
2
5
10

$$$$

