47205020
  -OEChem-06241222573D

 30 31  0     0  0  0  0  0  0999 V2000
   -6.2673   -0.7016    0.5190 F   0  0  0  0  0  0  0  0  0  0  0  0
   -4.9308   -2.1481   -0.4035 F   0  0  0  0  0  0  0  0  0  0  0  0
   -4.4079    0.0538   -0.4839 O   0  0  0  0  0  0  0  0  0  0  0  0
    1.5583    2.1618   -0.4063 O   0  0  0  0  0  0  0  0  0  0  0  0
    1.7492    0.3979    1.0868 N   0  0  0  0  0  0  0  0  0  0  0  0
    4.2031   -1.5090    0.4855 N   0  0  0  0  0  0  0  0  0  0  0  0
    5.0288   -1.9953   -0.4569 N   0  0  0  0  0  0  0  0  0  0  0  0
    3.1506    0.5836    1.3875 C   0  0  0  0  0  0  0  0  0  0  0  0
    4.0345   -0.1567    0.4259 C   0  0  0  0  0  0  0  0  0  0  0  0
   -0.3774    0.9091    0.0201 C   0  0  0  0  0  0  0  0  0  0  0  0
    1.0343    1.2092    0.1980 C   0  0  0  0  0  0  0  0  0  0  0  0
   -1.2637    1.9197   -0.3528 C   0  0  0  0  0  0  0  0  0  0  0  0
   -0.8457   -0.3890    0.2235 C   0  0  0  0  0  0  0  0  0  0  0  0
    4.8038    0.2714   -0.6284 C   0  0  0  0  0  0  0  0  0  0  0  0
   -3.0862    0.3341   -0.3186 C   0  0  0  0  0  0  0  0  0  0  0  0
   -2.6180    1.6323   -0.5221 C   0  0  0  0  0  0  0  0  0  0  0  0
   -2.2000   -0.6766    0.0542 C   0  0  0  0  0  0  0  0  0  0  0  0
    5.3924   -0.9031   -1.1343 C   0  0  0  0  0  0  0  0  0  0  0  0
   -4.9581   -0.9934    0.3065 C   0  0  0  0  0  0  0  0  0  0  0  0
    3.3199    0.2251    2.4086 H   0  0  0  0  0  0  0  0  0  0  0  0
    3.3838    1.6538    1.3629 H   0  0  0  0  0  0  0  0  0  0  0  0
    1.2749   -0.3374    1.5998 H   0  0  0  0  0  0  0  0  0  0  0  0
   -0.9200    2.9385   -0.5117 H   0  0  0  0  0  0  0  0  0  0  0  0
   -0.1849   -1.2127    0.4772 H   0  0  0  0  0  0  0  0  0  0  0  0
    4.9211    1.2855   -0.9814 H   0  0  0  0  0  0  0  0  0  0  0  0
    3.7865   -2.1603    1.1393 H   0  0  0  0  0  0  0  0  0  0  0  0
   -3.3040    2.4238   -0.8115 H   0  0  0  0  0  0  0  0  0  0  0  0
   -2.5195   -1.7056    0.1896 H   0  0  0  0  0  0  0  0  0  0  0  0
    6.0710   -1.0084   -1.9685 H   0  0  0  0  0  0  0  0  0  0  0  0
   -4.4820   -1.1261    1.2844 H   0  0  0  0  0  0  0  0  0  0  0  0
  1 19  1  0  0  0  0
  2 19  1  0  0  0  0
  3 15  1  0  0  0  0
  3 19  1  0  0  0  0
  4 11  2  0  0  0  0
  5  8  1  0  0  0  0
  5 11  1  0  0  0  0
  5 22  1  0  0  0  0
  6  7  1  0  0  0  0
  6  9  1  0  0  0  0
  6 26  1  0  0  0  0
  7 18  2  0  0  0  0
  8  9  1  0  0  0  0
  8 20  1  0  0  0  0
  8 21  1  0  0  0  0
  9 14  2  0  0  0  0
 10 11  1  0  0  0  0
 10 12  2  0  0  0  0
 10 13  1  0  0  0  0
 12 16  1  0  0  0  0
 12 23  1  0  0  0  0
 13 17  2  0  0  0  0
 13 24  1  0  0  0  0
 14 18  1  0  0  0  0
 14 25  1  0  0  0  0
 15 16  2  0  0  0  0
 15 17  1  0  0  0  0
 16 27  1  0  0  0  0
 17 28  1  0  0  0  0
 18 29  1  0  0  0  0
 19 30  1  0  0  0  0
M  END
> <PUBCHEM_COMPOUND_CID>
47205020

> <PUBCHEM_CONFORMER_RMSD>
0.8

> <PUBCHEM_CONFORMER_DIVERSEORDER>
1
26
23
51
12
40
17
46
43
49
52
13
39
3
48
50
30
7
53
42
45
20
21
44
27
47
41
32
25
34
36
2
14
4
10
11
5
38
31
29
33
18
8
6
28
16
24
35
37
9
19
22
15

> <PUBCHEM_MMFF94_PARTIAL_CHARGES>
27
1 -0.34
10 0.09
11 0.54
12 -0.15
13 -0.15
14 -0.15
15 0.08
16 -0.15
17 -0.15
18 0.14
19 0.96
2 -0.34
22 0.37
23 0.15
24 0.15
25 0.15
26 0.27
27 0.15
28 0.15
29 0.15
3 -0.36
4 -0.57
5 -0.73
6 0.3
7 -0.71
8 0.48
9 -0.33

> <PUBCHEM_EFFECTIVE_ROTOR_COUNT>
6

> <PUBCHEM_PHARMACOPHORE_FEATURES>
7
1 3 acceptor
1 4 acceptor
1 5 donor
1 6 donor
1 7 acceptor
5 6 7 9 14 18 rings
6 10 12 13 15 16 17 rings

> <PUBCHEM_HEAVY_ATOM_COUNT>
19

> <PUBCHEM_ATOM_DEF_STEREO_COUNT>
0

> <PUBCHEM_ATOM_UDEF_STEREO_COUNT>
0

> <PUBCHEM_BOND_DEF_STEREO_COUNT>
0

> <PUBCHEM_BOND_UDEF_STEREO_COUNT>
0

> <PUBCHEM_ISOTOPIC_ATOM_COUNT>
0

> <PUBCHEM_COMPONENT_COUNT>
1

> <PUBCHEM_CACTVS_TAUTO_COUNT>
4

> <PUBCHEM_CONFORMER_ID>
02D04A9C00000001

> <PUBCHEM_MMFF94_ENERGY>
40.8954

> <PUBCHEM_FEATURE_SELFOVERLAP>
35.52

> <PUBCHEM_SHAPE_FINGERPRINT>
11089746 13 9727640488056384008
11128504 68 17346876754359803150
117890 112 9727637202227021855
12032990 46 18410298012096821313
12596602 18 16370728084726158059
12633257 1 15285647577213449612
12969540 114 12463576145060801523
13288520 33 18410291428175531757
13533116 47 18040716922421398320
13551218 46 18259703410815308631
13685833 64 18259984881734110274
13955234 65 17896047555422436008
14251718 22 17918274238268760844
14251732 14 18342448253780211790
14251757 5 17130690700391601883
14455015 7 18113900472232118918
14528608 73 15554446297189016070
14617045 38 18335414673497489910
15342816 4 18201442532111979762
17804303 29 18408045121335127553
17834072 33 17988924457322908764
17844677 252 18408037416169274848
17959699 21 10879999068210601134
1813 80 17918000451088519973
18222031 100 18342746191097815233
19141452 34 17968381152295207239
193927 3 18272086072191360689
19784866 240 18261103084558437489
20388580 30 18342734105392446252
20645477 70 18341614785396359492
20871999 31 18131347553128452776
21150785 3 12967129372881230883
21267235 1 18412538816735803723
21475661 188 10591746659404389686
2215653 11 18408895048466044871
22765269 38 13110670624208342398
22950370 63 18410289224593584232
2297311 6 18412539925212100885
23016692 55 18411693292309913941
23503953 91 4823205130820474232
23522609 53 18120622869140172065
23559900 14 18340774740890043601
2767999 5 8502656995686445611
3004659 81 18131351955923670402
312425 54 17676489406823587275
33382 64 18187642526874428434
34797466 226 14261344782386880099
351380 3 18335422369830717622
4072396 5 6050449197442838248
465052 167 17967810553157772302
5104073 3 18115033008174957016
53917941 68 8574427587599812153

> <PUBCHEM_SHAPE_MULTIPOLES>
349.78
13.47
1.93
0.95
1.74
0.03
-0.11
-8.49
1.55
0.32
0.29
-0.87
0.03
0.66

> <PUBCHEM_SHAPE_SELFOVERLAP>
744.336

> <PUBCHEM_SHAPE_VOLUME>
195.5

> <PUBCHEM_COORDINATE_TYPE>
2
5
10

$$$$

