17395680
  -OEChem-06241222512D

 39 42  0     0  0  0  0  0  0999 V2000
    4.6783   -1.6329    0.0000 S   0  0  0  0  0  0  0  0  0  0  0  0
    6.7619    0.0378    0.0000 O   0  0  0  0  0  0  0  0  0  0  0  0
    8.3497   -0.8852    0.0000 N   0  0  0  0  0  0  0  0  0  0  0  0
    6.7619   -1.6942    0.0000 N   0  0  0  0  0  0  0  0  0  0  0  0
    9.3007   -1.1942    0.0000 N   0  0  0  0  0  0  0  0  0  0  0  0
    8.0406    0.0659    0.0000 C   0  0  0  0  0  0  0  0  0  0  0  0
    7.7619   -1.6942    0.0000 C   0  0  0  0  0  0  0  0  0  0  0  0
    8.7098    0.8090    0.0000 C   0  0  0  0  0  0  0  0  0  0  0  0
    3.7320   -0.3282    0.0000 C   0  0  0  0  0  0  0  0  0  0  0  0
    5.2619   -0.8282    0.0000 C   0  0  0  0  0  0  0  0  0  0  0  0
    3.7320   -1.3282    0.0000 C   0  0  0  0  0  0  0  0  0  0  0  0
    4.6783   -0.0234    0.0000 C   0  0  0  0  0  0  0  0  0  0  0  0
    8.3497   -2.5032    0.0000 C   0  0  0  0  0  0  0  0  0  0  0  0
    6.2619   -0.8282    0.0000 C   0  0  0  0  0  0  0  0  0  0  0  0
    9.6879    0.6011    0.0000 C   0  0  0  0  0  0  0  0  0  0  0  0
    8.4008    1.7601    0.0000 C   0  0  0  0  0  0  0  0  0  0  0  0
    9.3007   -2.1942    0.0000 C   0  0  0  0  0  0  0  0  0  0  0  0
    2.8660    0.1718    0.0000 C   0  0  0  0  0  0  0  0  0  0  0  0
    2.8660   -1.8282    0.0000 C   0  0  0  0  0  0  0  0  0  0  0  0
    2.0000   -0.3282    0.0000 C   0  0  0  0  0  0  0  0  0  0  0  0
    2.0000   -1.3282    0.0000 C   0  0  0  0  0  0  0  0  0  0  0  0
   10.3571    1.3442    0.0000 C   0  0  0  0  0  0  0  0  0  0  0  0
    9.0699    2.5032    0.0000 C   0  0  0  0  0  0  0  0  0  0  0  0
   10.0480    2.2953    0.0000 C   0  0  0  0  0  0  0  0  0  0  0  0
    7.6589    0.5544    0.0000 H   0  0  0  0  0  0  0  0  0  0  0  0
    7.4932   -0.2252    0.0000 H   0  0  0  0  0  0  0  0  0  0  0  0
    6.4519   -2.2311    0.0000 H   0  0  0  0  0  0  0  0  0  0  0  0
    4.8709    0.5659    0.0000 H   0  0  0  0  0  0  0  0  0  0  0  0
    8.1581   -3.0929    0.0000 H   0  0  0  0  0  0  0  0  0  0  0  0
    9.8795    0.0115    0.0000 H   0  0  0  0  0  0  0  0  0  0  0  0
    7.7943    1.8890    0.0000 H   0  0  0  0  0  0  0  0  0  0  0  0
    9.8023   -2.5586    0.0000 H   0  0  0  0  0  0  0  0  0  0  0  0
    2.8660    0.7918    0.0000 H   0  0  0  0  0  0  0  0  0  0  0  0
    2.8660   -2.4482    0.0000 H   0  0  0  0  0  0  0  0  0  0  0  0
    1.4631   -0.0182    0.0000 H   0  0  0  0  0  0  0  0  0  0  0  0
    1.4631   -1.6382    0.0000 H   0  0  0  0  0  0  0  0  0  0  0  0
   10.9635    1.2153    0.0000 H   0  0  0  0  0  0  0  0  0  0  0  0
    8.8783    3.0929    0.0000 H   0  0  0  0  0  0  0  0  0  0  0  0
   10.4629    2.7561    0.0000 H   0  0  0  0  0  0  0  0  0  0  0  0
  1 10  1  0  0  0  0
  1 11  1  0  0  0  0
  2 14  2  0  0  0  0
  3  5  1  0  0  0  0
  3  6  1  0  0  0  0
  3  7  1  0  0  0  0
  4  7  1  0  0  0  0
  4 14  1  0  0  0  0
  4 27  1  0  0  0  0
  5 17  2  0  0  0  0
  6  8  1  0  0  0  0
  6 25  1  0  0  0  0
  6 26  1  0  0  0  0
  7 13  2  0  0  0  0
  8 15  2  0  0  0  0
  8 16  1  0  0  0  0
  9 11  1  0  0  0  0
  9 12  1  0  0  0  0
  9 18  2  0  0  0  0
 10 12  2  0  0  0  0
 10 14  1  0  0  0  0
 11 19  2  0  0  0  0
 12 28  1  0  0  0  0
 13 17  1  0  0  0  0
 13 29  1  0  0  0  0
 15 22  1  0  0  0  0
 15 30  1  0  0  0  0
 16 23  2  0  0  0  0
 16 31  1  0  0  0  0
 17 32  1  0  0  0  0
 18 20  1  0  0  0  0
 18 33  1  0  0  0  0
 19 21  1  0  0  0  0
 19 34  1  0  0  0  0
 20 21  2  0  0  0  0
 20 35  1  0  0  0  0
 21 36  1  0  0  0  0
 22 24  2  0  0  0  0
 22 37  1  0  0  0  0
 23 24  1  0  0  0  0
 23 38  1  0  0  0  0
 24 39  1  0  0  0  0
M  END
> <PUBCHEM_COMPOUND_CID>
17395680

> <PUBCHEM_COMPOUND_CANONICALIZED>
1

> <PUBCHEM_CACTVS_COMPLEXITY>
440

> <PUBCHEM_CACTVS_HBOND_ACCEPTOR>
3

> <PUBCHEM_CACTVS_HBOND_DONOR>
1

> <PUBCHEM_CACTVS_ROTATABLE_BOND>
4

> <PUBCHEM_CACTVS_SUBSKEYS>
AAADccB7IABAAAAAAAAAAAAAAAAAAWJAAAAwYAAAAAAAAEgB/AAAHgQYAAAADADB2gQ9sdLIAAiuAjN3dACTBIMlihBd2Dk4ZNiIILLg3VGEpQh4nQLoiYcYiICOAAAAAAAEAAAAAAAAAAgAAAAAAAAAAA==

> <PUBCHEM_IUPAC_OPENEYE_NAME>
N-(2-benzylpyrazol-3-yl)benzothiophene-2-carboxamide

> <PUBCHEM_IUPAC_CAS_NAME>
N-[2-(phenylmethyl)-3-pyrazolyl]-1-benzothiophene-2-carboxamide

> <PUBCHEM_IUPAC_NAME>
N-(2-benzylpyrazol-3-yl)-1-benzothiophene-2-carboxamide

> <PUBCHEM_IUPAC_SYSTEMATIC_NAME>
N-[2-(phenylmethyl)pyrazol-3-yl]-1-benzothiophene-2-carboxamide

> <PUBCHEM_IUPAC_TRADITIONAL_NAME>
N-(2-benzylpyrazol-3-yl)benzothiophene-2-carboxamide

> <PUBCHEM_IUPAC_INCHI>
InChI=1S/C19H15N3OS/c23-19(17-12-15-8-4-5-9-16(15)24-17)21-18-10-11-20-22(18)13-14-6-2-1-3-7-14/h1-12H,13H2,(H,21,23)

> <PUBCHEM_IUPAC_INCHIKEY>
CTSOPQHWCJHNIS-UHFFFAOYSA-N

> <PUBCHEM_XLOGP3_AA>
4.3

> <PUBCHEM_EXACT_MASS>
333.093583

> <PUBCHEM_MOLECULAR_FORMULA>
C19H15N3OS

> <PUBCHEM_MOLECULAR_WEIGHT>
333.4069

> <PUBCHEM_OPENEYE_CAN_SMILES>
C1=CC=C(C=C1)CN2C(=CC=N2)NC(=O)C3=CC4=CC=CC=C4S3

> <PUBCHEM_OPENEYE_ISO_SMILES>
C1=CC=C(C=C1)CN2C(=CC=N2)NC(=O)C3=CC4=CC=CC=C4S3

> <PUBCHEM_CACTVS_TPSA>
75.2

> <PUBCHEM_MONOISOTOPIC_WEIGHT>
333.093583

> <PUBCHEM_TOTAL_CHARGE>
0

> <PUBCHEM_HEAVY_ATOM_COUNT>
24

> <PUBCHEM_ATOM_DEF_STEREO_COUNT>
0

> <PUBCHEM_ATOM_UDEF_STEREO_COUNT>
0

> <PUBCHEM_BOND_DEF_STEREO_COUNT>
0

> <PUBCHEM_BOND_UDEF_STEREO_COUNT>
0

> <PUBCHEM_ISOTOPIC_ATOM_COUNT>
0

> <PUBCHEM_COMPONENT_COUNT>
1

> <PUBCHEM_CACTVS_TAUTO_COUNT>
4

> <PUBCHEM_COORDINATE_TYPE>
1
5
255

> <PUBCHEM_BONDANNOTATIONS>
1  10  8
1  11  8
10  12  8
11  19  8
13  17  8
15  22  8
16  23  8
18  20  8
19  21  8
20  21  8
22  24  8
23  24  8
3  5  8
3  7  8
5  17  8
7  13  8
8  15  8
8  16  8
9  11  8
9  12  8
9  18  8

$$$$

