4024
  -OEChem-06251223493D

 61 63  0     1  0  0  0  0  0999 V2000
    1.3743    2.1134    0.3957 N   0  0  0  0  0  0  0  0  0  0  0  0
   -0.2072    1.0079    1.6780 N   0  0  0  0  0  0  0  0  0  0  0  0
    2.1867    0.0980   -0.7385 C   0  0  1  0  0  0  0  0  0  0  0  0
    2.3308    1.0282    0.4921 C   0  0  1  0  0  0  0  0  0  0  0  0
    3.5642    0.1077   -1.4234 C   0  0  0  0  0  0  0  0  0  0  0  0
    3.7575    1.5833    0.4313 C   0  0  0  0  0  0  0  0  0  0  0  0
    4.1619    1.4483   -1.0290 C   0  0  0  0  0  0  0  0  0  0  0  0
    1.7066   -1.2978   -0.4040 C   0  0  0  0  0  0  0  0  0  0  0  0
    0.1314    2.0464    0.9827 C   0  0  0  0  0  0  0  0  0  0  0  0
   -0.7570    3.2700    0.7600 C   0  0  0  0  0  0  0  0  0  0  0  0
    0.9495   -2.0148   -1.3302 C   0  0  0  0  0  0  0  0  0  0  0  0
    2.0218   -1.8663    0.8298 C   0  0  0  0  0  0  0  0  0  0  0  0
   -1.1387    3.5042   -0.7086 C   0  0  0  0  0  0  0  0  0  0  0  0
   -2.3102    2.6601   -1.2261 C   0  0  0  0  0  0  0  0  0  0  0  0
   -1.9549    1.1923   -1.4524 C   0  0  0  0  0  0  0  0  0  0  0  0
   -3.1262    0.3935   -2.0328 C   0  0  0  0  0  0  0  0  0  0  0  0
   -2.9503   -1.1188   -1.8305 C   0  0  0  0  0  0  0  0  0  0  0  0
   -3.7486   -1.6936   -0.6496 C   0  0  0  0  0  0  0  0  0  0  0  0
   -1.5029    0.8943    2.3334 C   0  0  0  0  0  0  0  0  0  0  0  0
   -3.4878   -1.0567    0.7185 C   0  0  0  0  0  0  0  0  0  0  0  0
   -1.8021   -0.5909    2.5783 C   0  0  0  0  0  0  0  0  0  0  0  0
   -2.1072   -1.3842    1.2978 C   0  0  0  0  0  0  0  0  0  0  0  0
    0.5071   -3.3014   -1.0221 C   0  0  0  0  0  0  0  0  0  0  0  0
    1.5794   -3.1529    1.1377 C   0  0  0  0  0  0  0  0  0  0  0  0
    0.8220   -3.8703    0.2117 C   0  0  0  0  0  0  0  0  0  0  0  0
    1.4599    0.5420   -1.4346 H   0  0  0  0  0  0  0  0  0  0  0  0
    2.2140    0.5647    1.4727 H   0  0  0  0  0  0  0  0  0  0  0  0
    3.4835   -0.0041   -2.5095 H   0  0  0  0  0  0  0  0  0  0  0  0
    4.1998   -0.7064   -1.0525 H   0  0  0  0  0  0  0  0  0  0  0  0
    4.4195    0.9592    1.0448 H   0  0  0  0  0  0  0  0  0  0  0  0
    3.8449    2.6150    0.7869 H   0  0  0  0  0  0  0  0  0  0  0  0
    5.2469    1.4745   -1.1634 H   0  0  0  0  0  0  0  0  0  0  0  0
    3.7201    2.2548   -1.6258 H   0  0  0  0  0  0  0  0  0  0  0  0
    1.6307    2.9192   -0.1681 H   0  0  0  0  0  0  0  0  0  0  0  0
   -1.6454    3.2665    1.3939 H   0  0  0  0  0  0  0  0  0  0  0  0
   -0.1630    4.1324    1.0930 H   0  0  0  0  0  0  0  0  0  0  0  0
    0.6994   -1.5831   -2.2956 H   0  0  0  0  0  0  0  0  0  0  0  0
    2.6556   -1.3757    1.5601 H   0  0  0  0  0  0  0  0  0  0  0  0
   -1.4349    4.5572   -0.8017 H   0  0  0  0  0  0  0  0  0  0  0  0
   -0.2734    3.3703   -1.3677 H   0  0  0  0  0  0  0  0  0  0  0  0
   -3.1540    2.7385   -0.5300 H   0  0  0  0  0  0  0  0  0  0  0  0
   -2.6465    3.0887   -2.1785 H   0  0  0  0  0  0  0  0  0  0  0  0
   -1.0958    1.1145   -2.1298 H   0  0  0  0  0  0  0  0  0  0  0  0
   -1.6476    0.7486   -0.5101 H   0  0  0  0  0  0  0  0  0  0  0  0
   -4.0804    0.7253   -1.6075 H   0  0  0  0  0  0  0  0  0  0  0  0
   -3.1773    0.6049   -3.1083 H   0  0  0  0  0  0  0  0  0  0  0  0
   -3.3085   -1.6264   -2.7354 H   0  0  0  0  0  0  0  0  0  0  0  0
   -1.8921   -1.3785   -1.7386 H   0  0  0  0  0  0  0  0  0  0  0  0
   -4.8169   -1.5812   -0.8757 H   0  0  0  0  0  0  0  0  0  0  0  0
   -3.5612   -2.7728   -0.5898 H   0  0  0  0  0  0  0  0  0  0  0  0
   -2.3164    1.3396    1.7573 H   0  0  0  0  0  0  0  0  0  0  0  0
   -1.4551    1.4064    3.3010 H   0  0  0  0  0  0  0  0  0  0  0  0
   -3.6495    0.0226    0.6565 H   0  0  0  0  0  0  0  0  0  0  0  0
   -4.2465   -1.4310    1.4181 H   0  0  0  0  0  0  0  0  0  0  0  0
   -2.0763   -2.4547    1.5351 H   0  0  0  0  0  0  0  0  0  0  0  0
   -1.3216   -1.2074    0.5600 H   0  0  0  0  0  0  0  0  0  0  0  0
   -2.6503   -0.6779    3.2677 H   0  0  0  0  0  0  0  0  0  0  0  0
   -0.9394   -1.0522    3.0754 H   0  0  0  0  0  0  0  0  0  0  0  0
   -0.0834   -3.8595   -1.7428 H   0  0  0  0  0  0  0  0  0  0  0  0
    1.8347   -3.6016    2.0933 H   0  0  0  0  0  0  0  0  0  0  0  0
    0.4791   -4.8726    0.4508 H   0  0  0  0  0  0  0  0  0  0  0  0
  1  4  1  0  0  0  0
  1  9  1  0  0  0  0
  1 34  1  0  0  0  0
  2  9  2  0  0  0  0
  2 19  1  0  0  0  0
  3  4  1  0  0  0  0
  3  5  1  0  0  0  0
  3  8  1  0  0  0  0
  3 26  1  0  0  0  0
  4  6  1  0  0  0  0
  4 27  1  0  0  0  0
  5  7  1  0  0  0  0
  5 28  1  0  0  0  0
  5 29  1  0  0  0  0
  6  7  1  0  0  0  0
  6 30  1  0  0  0  0
  6 31  1  0  0  0  0
  7 32  1  0  0  0  0
  7 33  1  0  0  0  0
  8 11  2  0  0  0  0
  8 12  1  0  0  0  0
  9 10  1  0  0  0  0
 10 13  1  0  0  0  0
 10 35  1  0  0  0  0
 10 36  1  0  0  0  0
 11 23  1  0  0  0  0
 11 37  1  0  0  0  0
 12 24  2  0  0  0  0
 12 38  1  0  0  0  0
 13 14  1  0  0  0  0
 13 39  1  0  0  0  0
 13 40  1  0  0  0  0
 14 15  1  0  0  0  0
 14 41  1  0  0  0  0
 14 42  1  0  0  0  0
 15 16  1  0  0  0  0
 15 43  1  0  0  0  0
 15 44  1  0  0  0  0
 16 17  1  0  0  0  0
 16 45  1  0  0  0  0
 16 46  1  0  0  0  0
 17 18  1  0  0  0  0
 17 47  1  0  0  0  0
 17 48  1  0  0  0  0
 18 20  1  0  0  0  0
 18 49  1  0  0  0  0
 18 50  1  0  0  0  0
 19 21  1  0  0  0  0
 19 51  1  0  0  0  0
 19 52  1  0  0  0  0
 20 22  1  0  0  0  0
 20 53  1  0  0  0  0
 20 54  1  0  0  0  0
 21 22  1  0  0  0  0
 21 57  1  0  0  0  0
 21 58  1  0  0  0  0
 22 55  1  0  0  0  0
 22 56  1  0  0  0  0
 23 25  2  0  0  0  0
 23 59  1  0  0  0  0
 24 25  1  0  0  0  0
 24 60  1  0  0  0  0
 25 61  1  0  0  0  0
M  END
> <PUBCHEM_COMPOUND_CID>
4024

> <PUBCHEM_CONFORMER_RMSD>
1

> <PUBCHEM_CONFORMER_DIVERSEORDER>
1
959
321
307
616
750
824
668
69
449
212
297
342
1128
28
516
653
727
740
1084
952
843
859
553
356
982
502
816
91
916
1043
341
752
421
79
64
31
56
268
943
528
1130
75
328
214
358
648
394
1029
761
646
485
1050
439
1027
367
1109
301
543
971
168
630
24
770
280
544
953
25
512
769
654
602
295
33
772
912
240
651
314
54
235
291
111
400
852
284
66
335
477
93
130
62
576
657
808
303
435
458
220
121
230
417
409
1026
218
660
1024
155
101
254
189
491
775
290
55
184
360
563
132
50
133
593
282
1141
788
479
128
211
530
974
535
305
44
884
276
488
327
127
80
57
219
12
251
591
191
227
882
271
103
407
2
506
138
412
275
197
149
964
48
934
625
14
178
174
533
82
247
401
67
618
609
440
781
153
237
117
6
43
203
467
38
17
481
1134
380
817
317
22
208
1036
395
571
922
32
382
682
248
658
11
92
236
146
294
720
41
455
204
45
487
978
46
15
812
129
26
13
172
656
51
256
993
183
494
4
521
1083
855
365
161
613
232
374
792
5
450
257
21
37
363
369
1099
318
162
70
944
1055
1094
231
3
858
308
8
403
828
505
198
68
562
352
540

> <PUBCHEM_MMFF94_PARTIAL_CHARGES>
19
1 -0.82
10 0.06
11 -0.15
12 -0.15
19 0.25
2 -0.7
23 -0.15
24 -0.15
25 -0.15
3 0.14
34 0.4
37 0.15
38 0.15
4 0.37
59 0.15
60 0.15
61 0.15
8 -0.14
9 0.44

> <PUBCHEM_EFFECTIVE_ROTOR_COUNT>
6.2

> <PUBCHEM_PHARMACOPHORE_FEATURES>
4
1 1 donor
3 1 2 9 cation
5 3 4 5 6 7 rings
6 8 11 12 23 24 25 rings

> <PUBCHEM_HEAVY_ATOM_COUNT>
25

> <PUBCHEM_ATOM_DEF_STEREO_COUNT>
0

> <PUBCHEM_ATOM_UDEF_STEREO_COUNT>
2

> <PUBCHEM_BOND_DEF_STEREO_COUNT>
0

> <PUBCHEM_BOND_UDEF_STEREO_COUNT>
0

> <PUBCHEM_ISOTOPIC_ATOM_COUNT>
0

> <PUBCHEM_COMPONENT_COUNT>
1

> <PUBCHEM_CACTVS_TAUTO_COUNT>
2

> <PUBCHEM_CONFORMER_ID>
00000FB800000001

> <PUBCHEM_MMFF94_ENERGY>
53.684

> <PUBCHEM_FEATURE_SELFOVERLAP>
20.297

> <PUBCHEM_SHAPE_FINGERPRINT>
11578080 2 16555338449525187166
121448 382 18333732412438635988
12156800 1 14959759253948401591
12596599 1 17386280987340443631
12788726 201 17387977723109517489
13149001 5 17758111506165593368
13911987 19 18055620734122490900
17357779 13 18338794498920802549
17492 54 18195253217291348623
17980427 23 17982477054677359858
18981168 100 14835255831512551609
22907989 373 17986933216291180284
238 59 18193866793479779023
2818148 4 17534876844113419998
35225 105 17330520634297110479
3524813 1 17977668610855955855
469060 322 18340197493037693837
5283178 26 17982153540407683515
7226269 152 18265062332337531560
9981440 41 18270697436271511272

> <PUBCHEM_SHAPE_MULTIPOLES>
504.53
6.03
4.65
2.21
1.07
0.8
-0.55
-0.59
2.16
0.37
0.07
-1.56
0.03
0.13

> <PUBCHEM_SHAPE_SELFOVERLAP>
1022.499

> <PUBCHEM_SHAPE_VOLUME>
292.4

> <PUBCHEM_COORDINATE_TYPE>
2
5
10

$$$$

