17395488
  -OEChem-06241222503D

 48 50  0     1  0  0  0  0  0999 V2000
   -2.1951    3.3239   -1.3854 S   0  0  0  0  0  0  0  0  0  0  0  0
    2.2854   -1.5129    1.9698 O   0  0  0  0  0  0  0  0  0  0  0  0
    4.6587   -0.7801   -1.7566 O   0  0  0  0  0  0  0  0  0  0  0  0
   -0.1559   -0.4734    1.1893 N   0  0  3  0  0  0  0  0  0  0  0  0
    0.9359    1.6278    1.1868 N   0  0  0  0  0  0  0  0  0  0  0  0
    0.0742    3.5532   -0.0085 N   0  0  0  0  0  0  0  0  0  0  0  0
    2.6621   -2.1658   -0.2287 N   0  0  0  0  0  0  0  0  0  0  0  0
   -1.0947    1.4133   -0.0425 C   0  0  0  0  0  0  0  0  0  0  0  0
   -0.1012    0.8668    0.7765 C   0  0  0  0  0  0  0  0  0  0  0  0
   -2.2844    0.8727   -0.6242 C   0  0  0  0  0  0  0  0  0  0  0  0
    0.4407   -1.5272    0.4087 C   0  0  0  0  0  0  0  0  0  0  0  0
   -0.9380    2.7493   -0.3884 C   0  0  0  0  0  0  0  0  0  0  0  0
   -2.8025   -0.4673   -0.5087 C   0  0  0  0  0  0  0  0  0  0  0  0
   -2.9729    1.8004   -1.3753 C   0  0  0  0  0  0  0  0  0  0  0  0
   -0.8445   -0.8243    2.4342 C   0  0  0  0  0  0  0  0  0  0  0  0
    1.8800   -1.7269    0.8302 C   0  0  0  0  0  0  0  0  0  0  0  0
    0.9596    2.9100    0.7736 C   0  0  0  0  0  0  0  0  0  0  0  0
   -2.4257   -1.4428   -1.4318 C   0  0  0  0  0  0  0  0  0  0  0  0
   -3.6809   -0.7888    0.5263 C   0  0  0  0  0  0  0  0  0  0  0  0
    4.0784   -2.4287   -0.1123 C   0  0  0  0  0  0  0  0  0  0  0  0
    2.1196    3.7223    1.2455 C   0  0  0  0  0  0  0  0  0  0  0  0
    4.9023   -1.1911   -0.4176 C   0  0  0  0  0  0  0  0  0  0  0  0
   -2.9273   -2.7396   -1.3204 C   0  0  0  0  0  0  0  0  0  0  0  0
   -4.1823   -2.0856    0.6378 C   0  0  0  0  0  0  0  0  0  0  0  0
   -3.8055   -3.0610   -0.2856 C   0  0  0  0  0  0  0  0  0  0  0  0
    5.4140    0.3758   -2.0927 C   0  0  0  0  0  0  0  0  0  0  0  0
   -0.0818   -2.4804    0.5500 H   0  0  0  0  0  0  0  0  0  0  0  0
    0.3938   -1.2872   -0.6597 H   0  0  0  0  0  0  0  0  0  0  0  0
   -3.8967    1.6676   -1.9229 H   0  0  0  0  0  0  0  0  0  0  0  0
   -0.1503   -0.7387    3.2764 H   0  0  0  0  0  0  0  0  0  0  0  0
   -1.6902   -0.1556    2.6255 H   0  0  0  0  0  0  0  0  0  0  0  0
   -1.2250   -1.8503    2.4065 H   0  0  0  0  0  0  0  0  0  0  0  0
   -1.7429   -1.2090   -2.2453 H   0  0  0  0  0  0  0  0  0  0  0  0
   -3.9860   -0.0403    1.2538 H   0  0  0  0  0  0  0  0  0  0  0  0
    2.2340   -2.3138   -1.1379 H   0  0  0  0  0  0  0  0  0  0  0  0
    4.2967   -2.7902    0.8976 H   0  0  0  0  0  0  0  0  0  0  0  0
    4.3065   -3.2245   -0.8289 H   0  0  0  0  0  0  0  0  0  0  0  0
    3.0579    3.2083    1.0150 H   0  0  0  0  0  0  0  0  0  0  0  0
    2.1413    4.7049    0.7636 H   0  0  0  0  0  0  0  0  0  0  0  0
    2.0543    3.8694    2.3278 H   0  0  0  0  0  0  0  0  0  0  0  0
    4.6355   -0.3778    0.2680 H   0  0  0  0  0  0  0  0  0  0  0  0
    5.9665   -1.4222   -0.2941 H   0  0  0  0  0  0  0  0  0  0  0  0
   -2.6335   -3.4991   -2.0389 H   0  0  0  0  0  0  0  0  0  0  0  0
   -4.8658   -2.3361    1.4438 H   0  0  0  0  0  0  0  0  0  0  0  0
   -4.1956   -4.0707   -0.1984 H   0  0  0  0  0  0  0  0  0  0  0  0
    5.1377    1.2152   -1.4473 H   0  0  0  0  0  0  0  0  0  0  0  0
    6.4859    0.1719   -2.0089 H   0  0  0  0  0  0  0  0  0  0  0  0
    5.1898    0.6441   -3.1285 H   0  0  0  0  0  0  0  0  0  0  0  0
  1 12  1  0  0  0  0
  1 14  1  0  0  0  0
  2 16  2  0  0  0  0
  3 22  1  0  0  0  0
  3 26  1  0  0  0  0
  4  9  1  0  0  0  0
  4 11  1  0  0  0  0
  4 15  1  0  0  0  0
  5  9  1  0  0  0  0
  5 17  2  0  0  0  0
  6 12  2  0  0  0  0
  6 17  1  0  0  0  0
  7 16  1  0  0  0  0
  7 20  1  0  0  0  0
  7 35  1  0  0  0  0
  8  9  2  0  0  0  0
  8 10  1  0  0  0  0
  8 12  1  0  0  0  0
 10 13  1  0  0  0  0
 10 14  2  0  0  0  0
 11 16  1  0  0  0  0
 11 27  1  0  0  0  0
 11 28  1  0  0  0  0
 13 18  2  0  0  0  0
 13 19  1  0  0  0  0
 14 29  1  0  0  0  0
 15 30  1  0  0  0  0
 15 31  1  0  0  0  0
 15 32  1  0  0  0  0
 17 21  1  0  0  0  0
 18 23  1  0  0  0  0
 18 33  1  0  0  0  0
 19 24  2  0  0  0  0
 19 34  1  0  0  0  0
 20 22  1  0  0  0  0
 20 36  1  0  0  0  0
 20 37  1  0  0  0  0
 21 38  1  0  0  0  0
 21 39  1  0  0  0  0
 21 40  1  0  0  0  0
 22 41  1  0  0  0  0
 22 42  1  0  0  0  0
 23 25  2  0  0  0  0
 23 43  1  0  0  0  0
 24 25  1  0  0  0  0
 24 44  1  0  0  0  0
 25 45  1  0  0  0  0
 26 46  1  0  0  0  0
 26 47  1  0  0  0  0
 26 48  1  0  0  0  0
M  END
> <PUBCHEM_COMPOUND_CID>
17395488

> <PUBCHEM_CONFORMER_RMSD>
0.8

> <PUBCHEM_CONFORMER_DIVERSEORDER>
1
71
33
22
103
74
13
73
30
82
93
114
50
69
27
95
51
108
88
102
40
48
32
23
119
43
19
98
117
115
111
77
112
91
65
18
105
96
109
79
84
99
113
16
104
100
57
80
17
21
106
101
72
110
47
49
11
107
8
86
10
28
14
66
39
29
36
20
81
62
68
42
70
116
2
92
38
75
90
87
56
35
4
26
59
118
78
97
89
94
64
52
76
54
34
61
83
31
58
41
63
67
5
46
44
55
60
45
9
85
6
3
15
25
12
37
7
53
24

> <PUBCHEM_MMFF94_PARTIAL_CHARGES>
32
1 -0.08
10 -0.05
11 0.43
12 0.3
13 0.05
14 -0.11
15 0.37
16 0.57
17 0.48
18 -0.15
19 -0.15
2 -0.57
20 0.3
21 0.14
22 0.28
23 -0.15
24 -0.15
25 -0.15
26 0.28
29 0.15
3 -0.56
33 0.15
34 0.15
35 0.37
4 -0.84
43 0.15
44 0.15
45 0.15
5 -0.62
6 -0.57
7 -0.73
9 0.41

> <PUBCHEM_EFFECTIVE_ROTOR_COUNT>
8

> <PUBCHEM_PHARMACOPHORE_FEATURES>
9
1 2 acceptor
1 3 acceptor
1 4 cation
1 6 acceptor
1 7 donor
3 5 6 17 cation
5 1 8 10 12 14 rings
6 13 18 19 23 24 25 rings
6 5 6 8 9 12 17 rings

> <PUBCHEM_HEAVY_ATOM_COUNT>
26

> <PUBCHEM_ATOM_DEF_STEREO_COUNT>
0

> <PUBCHEM_ATOM_UDEF_STEREO_COUNT>
0

> <PUBCHEM_BOND_DEF_STEREO_COUNT>
0

> <PUBCHEM_BOND_UDEF_STEREO_COUNT>
0

> <PUBCHEM_ISOTOPIC_ATOM_COUNT>
0

> <PUBCHEM_COMPONENT_COUNT>
1

> <PUBCHEM_CACTVS_TAUTO_COUNT>
2

> <PUBCHEM_CONFORMER_ID>
01096F2000000001

> <PUBCHEM_MMFF94_ENERGY>
78.5411

> <PUBCHEM_FEATURE_SELFOVERLAP>
45.75

> <PUBCHEM_SHAPE_FINGERPRINT>
10673678 19 17121706921884156973
11725454 13 13614518550160065066
12054548 360 18410863182548120195
12166972 35 18131632284365503422
12553582 1 18339092544266567067
12788726 201 18199752608009219571
13140716 1 18198087866169581769
13149001 5 17979672161733836997
13383661 66 16242955753996819926
14251757 5 18267026248423813869
14790565 3 17759804045256182569
1813 80 18261398814521554338
19319366 153 17629764728113936155
20028762 73 16750721236005190935
20101258 96 18412256242474604555
20642791 35 18411421717634046001
21095088 737 18272071804737251916
22182313 1 18263668232322307768
22907989 373 18119245314155551702
23352939 185 18334566928425444683
23557571 272 18046654418724471346
23566358 27 18193552268940728251
4280585 95 18264794119555680034
6287921 2 17972893457562713459
6669772 16 17830172407756127092

> <PUBCHEM_SHAPE_MULTIPOLES>
507.25
8.49
4.85
1.85
9.15
3.41
0.14
-6.71
-4.54
-0.83
-0.12
0.91
-0.02
0.98

> <PUBCHEM_SHAPE_SELFOVERLAP>
1069.435

> <PUBCHEM_SHAPE_VOLUME>
288.4

> <PUBCHEM_COORDINATE_TYPE>
2
5
10

$$$$

