12074
  -OEChem-06261206282D

 15 15  0     0  0  0  0  0  0999 V2000
    2.0000   -1.0950    0.0000 Cl  0  0  0  0  0  0  0  0  0  0  0  0
    3.7320   -2.0950    0.0000 O   0  0  0  0  0  0  0  0  0  0  0  0
    4.5981    2.4050    0.0000 O   0  5  0  0  0  0  0  0  0  0  0  0
    2.8660    2.4050    0.0000 O   0  0  0  0  0  0  0  0  0  0  0  0
    3.7320    1.9050    0.0000 N   0  3  0  0  0  0  0  0  0  0  0  0
    3.7320    0.9050    0.0000 C   0  0  0  0  0  0  0  0  0  0  0  0
    2.8660    0.4050    0.0000 C   0  0  0  0  0  0  0  0  0  0  0  0
    4.5981    0.4050    0.0000 C   0  0  0  0  0  0  0  0  0  0  0  0
    3.7320   -1.0950    0.0000 C   0  0  0  0  0  0  0  0  0  0  0  0
    2.8660   -0.5950    0.0000 C   0  0  0  0  0  0  0  0  0  0  0  0
    4.5981   -0.5950    0.0000 C   0  0  0  0  0  0  0  0  0  0  0  0
    2.3291    0.7150    0.0000 H   0  0  0  0  0  0  0  0  0  0  0  0
    5.1350    0.7150    0.0000 H   0  0  0  0  0  0  0  0  0  0  0  0
    5.1350   -0.9050    0.0000 H   0  0  0  0  0  0  0  0  0  0  0  0
    4.2690   -2.4050    0.0000 H   0  0  0  0  0  0  0  0  0  0  0  0
  1 10  1  0  0  0  0
  2  9  1  0  0  0  0
  2 15  1  0  0  0  0
  3  5  1  0  0  0  0
  4  5  2  0  0  0  0
  5  6  1  0  0  0  0
  6  7  2  0  0  0  0
  6  8  1  0  0  0  0
  7 10  1  0  0  0  0
  7 12  1  0  0  0  0
  8 11  2  0  0  0  0
  8 13  1  0  0  0  0
  9 10  2  0  0  0  0
  9 11  1  0  0  0  0
 11 14  1  0  0  0  0
M  CHG  2   3  -1   5   1
M  END
> <PUBCHEM_COMPOUND_CID>
12074

> <PUBCHEM_COMPOUND_CANONICALIZED>
1

> <PUBCHEM_CACTVS_COMPLEXITY>
158

> <PUBCHEM_CACTVS_HBOND_ACCEPTOR>
3

> <PUBCHEM_CACTVS_HBOND_DONOR>
1

> <PUBCHEM_CACTVS_ROTATABLE_BOND>
0

> <PUBCHEM_CACTVS_SUBSKEYS>
AAADcYBiMAAEAAAAAAAAAAAAAAAAAAAAAAAwAAAAAAAAAAABAAAAHgIECAAACA6BkCAwxoAQQgCBACRCQwCCAAAgJ0AoiAAGb4oIJiKDk5OAcABkwBEI2AewQAAAAEAAAAIACAAAgAAABAAQAAAAAAAAAA==

> <PUBCHEM_IUPAC_OPENEYE_NAME>
2-chloro-4-nitro-phenol

> <PUBCHEM_IUPAC_CAS_NAME>
2-chloro-4-nitrophenol

> <PUBCHEM_IUPAC_NAME>
2-chloro-4-nitrophenol

> <PUBCHEM_IUPAC_SYSTEMATIC_NAME>
2-chloranyl-4-nitro-phenol

> <PUBCHEM_IUPAC_TRADITIONAL_NAME>
2-chloro-4-nitro-phenol

> <PUBCHEM_IUPAC_INCHI>
InChI=1S/C6H4ClNO3/c7-5-3-4(8(10)11)1-2-6(5)9/h1-3,9H

> <PUBCHEM_IUPAC_INCHIKEY>
BOFRXDMCQRTGII-UHFFFAOYSA-N

> <PUBCHEM_XLOGP3>
2.3

> <PUBCHEM_EXACT_MASS>
172.987971

> <PUBCHEM_MOLECULAR_FORMULA>
C6H4ClNO3

> <PUBCHEM_MOLECULAR_WEIGHT>
173.55386

> <PUBCHEM_OPENEYE_CAN_SMILES>
C1=CC(=C(C=C1[N+](=O)[O-])Cl)O

> <PUBCHEM_OPENEYE_ISO_SMILES>
C1=CC(=C(C=C1[N+](=O)[O-])Cl)O

> <PUBCHEM_CACTVS_TPSA>
66

> <PUBCHEM_MONOISOTOPIC_WEIGHT>
172.987971

> <PUBCHEM_TOTAL_CHARGE>
0

> <PUBCHEM_HEAVY_ATOM_COUNT>
11

> <PUBCHEM_ATOM_DEF_STEREO_COUNT>
0

> <PUBCHEM_ATOM_UDEF_STEREO_COUNT>
0

> <PUBCHEM_BOND_DEF_STEREO_COUNT>
0

> <PUBCHEM_BOND_UDEF_STEREO_COUNT>
0

> <PUBCHEM_ISOTOPIC_ATOM_COUNT>
0

> <PUBCHEM_COMPONENT_COUNT>
1

> <PUBCHEM_CACTVS_TAUTO_COUNT>
3

> <PUBCHEM_COORDINATE_TYPE>
1
5
255

> <PUBCHEM_BONDANNOTATIONS>
6  7  8
6  8  8
7  10  8
8  11  8
9  10  8
9  11  8

$$$$

