583397
  -OEChem-06241222452D

 35 37  0     0  0  0  0  0  0999 V2000
    5.4641   -0.5173    0.0000 O   0  0  0  0  0  0  0  0  0  0  0  0
    4.5981   -3.0173    0.0000 O   0  5  0  0  0  0  0  0  0  0  0  0
    5.4641   -1.5173    0.0000 O   0  0  0  0  0  0  0  0  0  0  0  0
    4.5981    0.9827    0.0000 N   0  0  0  0  0  0  0  0  0  0  0  0
    4.5981   -2.0173    0.0000 N   0  3  0  0  0  0  0  0  0  0  0  0
    3.7320    2.4827    0.0000 C   0  0  0  0  0  0  0  0  0  0  0  0
    3.7320    1.4827    0.0000 C   0  0  0  0  0  0  0  0  0  0  0  0
    4.5981    2.9827    0.0000 C   0  0  0  0  0  0  0  0  0  0  0  0
    5.4641    2.4827    0.0000 C   0  0  0  0  0  0  0  0  0  0  0  0
    5.4641    1.4827    0.0000 C   0  0  0  0  0  0  0  0  0  0  0  0
    4.5981   -0.0173    0.0000 C   0  0  0  0  0  0  0  0  0  0  0  0
    6.3580    3.0173    0.0000 C   0  0  0  0  0  0  0  0  0  0  0  0
    6.3580    0.9480    0.0000 C   0  0  0  0  0  0  0  0  0  0  0  0
    3.7320   -0.5173    0.0000 C   0  0  0  0  0  0  0  0  0  0  0  0
    7.2641    2.5035    0.0000 C   0  0  0  0  0  0  0  0  0  0  0  0
    7.2641    1.4619    0.0000 C   0  0  0  0  0  0  0  0  0  0  0  0
    3.7320   -1.5173    0.0000 C   0  0  0  0  0  0  0  0  0  0  0  0
    2.8660   -0.0173    0.0000 C   0  0  0  0  0  0  0  0  0  0  0  0
    2.8660   -2.0173    0.0000 C   0  0  0  0  0  0  0  0  0  0  0  0
    2.0000   -0.5173    0.0000 C   0  0  0  0  0  0  0  0  0  0  0  0
    2.0000   -1.5173    0.0000 C   0  0  0  0  0  0  0  0  0  0  0  0
    3.5200    3.0653    0.0000 H   0  0  0  0  0  0  0  0  0  0  0  0
    3.1215    2.3750    0.0000 H   0  0  0  0  0  0  0  0  0  0  0  0
    3.1215    1.5903    0.0000 H   0  0  0  0  0  0  0  0  0  0  0  0
    3.5200    0.9001    0.0000 H   0  0  0  0  0  0  0  0  0  0  0  0
    4.9966    3.4576    0.0000 H   0  0  0  0  0  0  0  0  0  0  0  0
    4.1996    3.4576    0.0000 H   0  0  0  0  0  0  0  0  0  0  0  0
    6.3509    3.6373    0.0000 H   0  0  0  0  0  0  0  0  0  0  0  0
    6.3509    0.3280    0.0000 H   0  0  0  0  0  0  0  0  0  0  0  0
    7.7998    2.8156    0.0000 H   0  0  0  0  0  0  0  0  0  0  0  0
    7.7998    1.1498    0.0000 H   0  0  0  0  0  0  0  0  0  0  0  0
    2.8660    0.6027    0.0000 H   0  0  0  0  0  0  0  0  0  0  0  0
    2.8660   -2.6373    0.0000 H   0  0  0  0  0  0  0  0  0  0  0  0
    1.4631   -0.2073    0.0000 H   0  0  0  0  0  0  0  0  0  0  0  0
    1.4631   -1.8273    0.0000 H   0  0  0  0  0  0  0  0  0  0  0  0
  1 11  2  0  0  0  0
  2  5  1  0  0  0  0
  3  5  2  0  0  0  0
  4  7  1  0  0  0  0
  4 10  1  0  0  0  0
  4 11  1  0  0  0  0
  5 17  1  0  0  0  0
  6  7  1  0  0  0  0
  6  8  1  0  0  0  0
  6 22  1  0  0  0  0
  6 23  1  0  0  0  0
  7 24  1  0  0  0  0
  7 25  1  0  0  0  0
  8  9  1  0  0  0  0
  8 26  1  0  0  0  0
  8 27  1  0  0  0  0
  9 10  1  0  0  0  0
  9 12  2  0  0  0  0
 10 13  2  0  0  0  0
 11 14  1  0  0  0  0
 12 15  1  0  0  0  0
 12 28  1  0  0  0  0
 13 16  1  0  0  0  0
 13 29  1  0  0  0  0
 14 17  1  0  0  0  0
 14 18  2  0  0  0  0
 15 16  2  0  0  0  0
 15 30  1  0  0  0  0
 16 31  1  0  0  0  0
 17 19  2  0  0  0  0
 18 20  1  0  0  0  0
 18 32  1  0  0  0  0
 19 21  1  0  0  0  0
 19 33  1  0  0  0  0
 20 21  2  0  0  0  0
 20 34  1  0  0  0  0
 21 35  1  0  0  0  0
M  CHG  2   2  -1   5   1
M  END
> <PUBCHEM_COMPOUND_CID>
583397

> <PUBCHEM_COMPOUND_CANONICALIZED>
1

> <PUBCHEM_CACTVS_COMPLEXITY>
407

> <PUBCHEM_CACTVS_HBOND_ACCEPTOR>
3

> <PUBCHEM_CACTVS_HBOND_DONOR>
0

> <PUBCHEM_CACTVS_ROTATABLE_BOND>
1

> <PUBCHEM_CACTVS_SUBSKEYS>
AAADccB7MAAAAAAAAAAAAAAAAAAAAAAAAAA8YIAAAAAAAACxQAAAHgAEAAAADAjBmAQwwIMQQACJAiVSUwCCAAAlAgAoiAEIZMoIIDrA1ZGEIYhghgDIyccYiICOAAAAAAACAAAAAAAAAAQAAAAAAAAAAA==

> <PUBCHEM_IUPAC_OPENEYE_NAME>
3,4-dihydro-2H-quinolin-1-yl-(2-nitrophenyl)methanone

> <PUBCHEM_IUPAC_CAS_NAME>
3,4-dihydro-2H-quinolin-1-yl-(2-nitrophenyl)methanone

> <PUBCHEM_IUPAC_NAME>
3,4-dihydro-2H-quinolin-1-yl-(2-nitrophenyl)methanone

> <PUBCHEM_IUPAC_SYSTEMATIC_NAME>
3,4-dihydro-2H-quinolin-1-yl-(2-nitrophenyl)methanone

> <PUBCHEM_IUPAC_TRADITIONAL_NAME>
3,4-dihydro-2H-quinolin-1-yl-(2-nitrophenyl)methanone

> <PUBCHEM_IUPAC_INCHI>
InChI=1S/C16H14N2O3/c19-16(13-8-2-4-10-15(13)18(20)21)17-11-5-7-12-6-1-3-9-14(12)17/h1-4,6,8-10H,5,7,11H2

> <PUBCHEM_IUPAC_INCHIKEY>
SKQUFIITEPNXCM-UHFFFAOYSA-N

> <PUBCHEM_XLOGP3_AA>
3.2

> <PUBCHEM_EXACT_MASS>
282.100442

> <PUBCHEM_MOLECULAR_FORMULA>
C16H14N2O3

> <PUBCHEM_MOLECULAR_WEIGHT>
282.29396

> <PUBCHEM_OPENEYE_CAN_SMILES>
C1CC2=CC=CC=C2N(C1)C(=O)C3=CC=CC=C3[N+](=O)[O-]

> <PUBCHEM_OPENEYE_ISO_SMILES>
C1CC2=CC=CC=C2N(C1)C(=O)C3=CC=CC=C3[N+](=O)[O-]

> <PUBCHEM_CACTVS_TPSA>
66.1

> <PUBCHEM_MONOISOTOPIC_WEIGHT>
282.100442

> <PUBCHEM_TOTAL_CHARGE>
0

> <PUBCHEM_HEAVY_ATOM_COUNT>
21

> <PUBCHEM_ATOM_DEF_STEREO_COUNT>
0

> <PUBCHEM_ATOM_UDEF_STEREO_COUNT>
0

> <PUBCHEM_BOND_DEF_STEREO_COUNT>
0

> <PUBCHEM_BOND_UDEF_STEREO_COUNT>
0

> <PUBCHEM_ISOTOPIC_ATOM_COUNT>
0

> <PUBCHEM_COMPONENT_COUNT>
1

> <PUBCHEM_CACTVS_TAUTO_COUNT>
1

> <PUBCHEM_COORDINATE_TYPE>
1
5
255

> <PUBCHEM_BONDANNOTATIONS>
10  13  8
12  15  8
13  16  8
14  17  8
14  18  8
15  16  8
17  19  8
18  20  8
19  21  8
20  21  8
9  10  8
9  12  8

$$$$

