11530
  -OEChem-06261205473D

 20 19  0     0  0  0  0  0  0999 V2000
   -4.2602    0.1822   -0.0283 Cl  0  0  0  0  0  0  0  0  0  0  0  0
   -0.3570    0.4609    0.0124 O   0  0  0  0  0  0  0  0  0  0  0  0
   -1.7823   -1.3503   -0.0013 O   0  0  0  0  0  0  0  0  0  0  0  0
    2.0371    0.4200    0.0198 C   0  0  0  0  0  0  0  0  0  0  0  0
    3.2850   -0.4582    0.0033 C   0  0  0  0  0  0  0  0  0  0  0  0
    0.7633   -0.4131    0.0115 C   0  0  0  0  0  0  0  0  0  0  0  0
    4.5542    0.3777   -0.0320 C   0  0  0  0  0  0  0  0  0  0  0  0
   -1.5892   -0.1425    0.0054 C   0  0  0  0  0  0  0  0  0  0  0  0
   -2.6510    0.9233    0.0092 C   0  0  0  0  0  0  0  0  0  0  0  0
    2.0417    1.0709    0.9031 H   0  0  0  0  0  0  0  0  0  0  0  0
    2.0347    1.0924   -0.8473 H   0  0  0  0  0  0  0  0  0  0  0  0
    3.2660   -1.1167   -0.8729 H   0  0  0  0  0  0  0  0  0  0  0  0
    3.3000   -1.1005    0.8915 H   0  0  0  0  0  0  0  0  0  0  0  0
    0.7328   -1.0431   -0.8852 H   0  0  0  0  0  0  0  0  0  0  0  0
    0.7282   -1.0531    0.9010 H   0  0  0  0  0  0  0  0  0  0  0  0
    4.5854    1.0064   -0.9276 H   0  0  0  0  0  0  0  0  0  0  0  0
    4.6205    1.0273    0.8467 H   0  0  0  0  0  0  0  0  0  0  0  0
    5.4355   -0.2713   -0.0418 H   0  0  0  0  0  0  0  0  0  0  0  0
   -2.5480    1.5532   -0.8778 H   0  0  0  0  0  0  0  0  0  0  0  0
   -2.5734    1.5210    0.9206 H   0  0  0  0  0  0  0  0  0  0  0  0
  1  9  1  0  0  0  0
  2  6  1  0  0  0  0
  2  8  1  0  0  0  0
  3  8  2  0  0  0  0
  4  5  1  0  0  0  0
  4  6  1  0  0  0  0
  4 10  1  0  0  0  0
  4 11  1  0  0  0  0
  5  7  1  0  0  0  0
  5 12  1  0  0  0  0
  5 13  1  0  0  0  0
  6 14  1  0  0  0  0
  6 15  1  0  0  0  0
  7 16  1  0  0  0  0
  7 17  1  0  0  0  0
  7 18  1  0  0  0  0
  8  9  1  0  0  0  0
  9 19  1  0  0  0  0
  9 20  1  0  0  0  0
M  END
> <PUBCHEM_COMPOUND_CID>
11530

> <PUBCHEM_CONFORMER_RMSD>
0.6

> <PUBCHEM_CONFORMER_DIVERSEORDER>
1
39
119
102
89
91
49
92
13
103
118
74
55
122
53
111
108
97
2
105
104
87
82
81
23
21
123
58
95
59
116
77
27
78
60
76
88
57
98
15
6
75
56
113
44
106
24
101
34
93
100
38
117
50
22
26
85
35
69
84
9
32
63
86
20
47
99
114
121
94
28
107
37
120
90
110
112
68
14
109
46
42
83
43
80
51
25
33
96
5
12
19
48
7
65
45
79
41
115
3
10
29
17
40
4
36
11
30
8
31
72
16
52
71
66
62
54
70
73
67
61
18
64

> <PUBCHEM_MMFF94_PARTIAL_CHARGES>
6
1 -0.29
2 -0.43
3 -0.57
6 0.28
8 0.66
9 0.35

> <PUBCHEM_EFFECTIVE_ROTOR_COUNT>
5

> <PUBCHEM_PHARMACOPHORE_FEATURES>
2
1 3 acceptor
1 7 hydrophobe

> <PUBCHEM_HEAVY_ATOM_COUNT>
9

> <PUBCHEM_ATOM_DEF_STEREO_COUNT>
0

> <PUBCHEM_ATOM_UDEF_STEREO_COUNT>
0

> <PUBCHEM_BOND_DEF_STEREO_COUNT>
0

> <PUBCHEM_BOND_UDEF_STEREO_COUNT>
0

> <PUBCHEM_ISOTOPIC_ATOM_COUNT>
0

> <PUBCHEM_COMPONENT_COUNT>
1

> <PUBCHEM_CACTVS_TAUTO_COUNT>
1

> <PUBCHEM_CONFORMER_ID>
00002D0A00000001

> <PUBCHEM_MMFF94_ENERGY>
3.0554

> <PUBCHEM_FEATURE_SELFOVERLAP>
10.148

> <PUBCHEM_SHAPE_FINGERPRINT>
11062470 55 18113337522336758868
12932764 1 17131848537922513652
14123238 8 18411418405791936053
14325111 11 18410573981357708714
17834076 25 17749106695018248416
190213 19 17346876766880772968
20211469 26 7925912573361265098
20279233 1 17894623756235470894
20645477 70 17895751919801387246
20719005 15 18410856563955862378
21293036 1 16443348680045552797
23402539 116 18187373146747189005
366044 4 18410293623188773459
42788 4 18410575097732759533

> <PUBCHEM_SHAPE_MULTIPOLES>
175.35
8.58
0.96
0.6
2.6
0.12
0
-1.1
0.11
-0.33
0
0
-0.01
-0.01

> <PUBCHEM_SHAPE_SELFOVERLAP>
309.524

> <PUBCHEM_SHAPE_VOLUME>
115.1

> <PUBCHEM_COORDINATE_TYPE>
2
5
10

$$$$

