12244
  -OEChem-06261206423D

 15 14  0     0  0  0  0  0  0999 V2000
    2.5713   -0.1887   -0.1652 N   0  0  0  0  0  0  0  0  0  0  0  0
   -0.9653   -0.0166   -0.3034 C   0  0  0  0  0  0  0  0  0  0  0  0
    0.1814    0.7982    0.3194 C   0  0  0  0  0  0  0  0  0  0  0  0
   -0.9721   -1.4702    0.1745 C   0  0  0  0  0  0  0  0  0  0  0  0
   -2.3315    0.6329   -0.0733 C   0  0  0  0  0  0  0  0  0  0  0  0
    1.5162    0.2445    0.0480 C   0  0  0  0  0  0  0  0  0  0  0  0
   -0.8035   -0.0412   -1.3902 H   0  0  0  0  0  0  0  0  0  0  0  0
    0.1415    1.8258   -0.0624 H   0  0  0  0  0  0  0  0  0  0  0  0
    0.0350    0.8641    1.4046 H   0  0  0  0  0  0  0  0  0  0  0  0
   -1.0809   -1.5257    1.2629 H   0  0  0  0  0  0  0  0  0  0  0  0
   -1.8050   -2.0217   -0.2752 H   0  0  0  0  0  0  0  0  0  0  0  0
   -0.0509   -1.9919   -0.1034 H   0  0  0  0  0  0  0  0  0  0  0  0
   -2.5707    0.6777    0.9945 H   0  0  0  0  0  0  0  0  0  0  0  0
   -3.1231    0.0677   -0.5763 H   0  0  0  0  0  0  0  0  0  0  0  0
   -2.3462    1.6543   -0.4677 H   0  0  0  0  0  0  0  0  0  0  0  0
  1  6  3  0  0  0  0
  2  3  1  0  0  0  0
  2  4  1  0  0  0  0
  2  5  1  0  0  0  0
  2  7  1  0  0  0  0
  3  6  1  0  0  0  0
  3  8  1  0  0  0  0
  3  9  1  0  0  0  0
  4 10  1  0  0  0  0
  4 11  1  0  0  0  0
  4 12  1  0  0  0  0
  5 13  1  0  0  0  0
  5 14  1  0  0  0  0
  5 15  1  0  0  0  0
M  END
> <PUBCHEM_COMPOUND_CID>
12244

> <PUBCHEM_CONFORMER_RMSD>
0.4

> <PUBCHEM_CONFORMER_DIVERSEORDER>
1

> <PUBCHEM_MMFF94_PARTIAL_CHARGES>
3
1 -0.56
3 0.2
6 0.36

> <PUBCHEM_EFFECTIVE_ROTOR_COUNT>
1

> <PUBCHEM_PHARMACOPHORE_FEATURES>
2
1 1 acceptor
3 2 4 5 hydrophobe

> <PUBCHEM_HEAVY_ATOM_COUNT>
6

> <PUBCHEM_ATOM_DEF_STEREO_COUNT>
0

> <PUBCHEM_ATOM_UDEF_STEREO_COUNT>
0

> <PUBCHEM_BOND_DEF_STEREO_COUNT>
0

> <PUBCHEM_BOND_UDEF_STEREO_COUNT>
0

> <PUBCHEM_ISOTOPIC_ATOM_COUNT>
0

> <PUBCHEM_COMPONENT_COUNT>
1

> <PUBCHEM_CACTVS_TAUTO_COUNT>
1

> <PUBCHEM_CONFORMER_ID>
00002FD400000001

> <PUBCHEM_MMFF94_ENERGY>
3.0654

> <PUBCHEM_FEATURE_SELFOVERLAP>
10.148

> <PUBCHEM_SHAPE_FINGERPRINT>
139733 1 10231769880726880640
16714656 1 18272652367692281293
20096714 4 18341618113558040545
21040471 1 18411989091123875801
24536 1 18123206618258824308
29004967 10 17531242829618924362
5460574 1 9727632812685997348

> <PUBCHEM_SHAPE_MULTIPOLES>
118.5
3.14
1.17
0.65
1.04
0.41
-0.01
-0.26
0.23
-0.46
-0.09
-0.04
-0.01
0.08

> <PUBCHEM_SHAPE_SELFOVERLAP>
208.105

> <PUBCHEM_SHAPE_VOLUME>
76.8

> <PUBCHEM_COORDINATE_TYPE>
2
5
10

$$$$

