47205570
  -OEChem-06241222593D

 38 39  0     1  0  0  0  0  0999 V2000
   -4.5591   -0.7240   -0.9246 F   0  0  0  0  0  0  0  0  0  0  0  0
   -2.7342   -1.8165   -0.4322 F   0  0  0  0  0  0  0  0  0  0  0  0
   -4.1246   -1.2441    1.1505 F   0  0  0  0  0  0  0  0  0  0  0  0
    2.4139    2.4560    0.7437 O   0  0  0  0  0  0  0  0  0  0  0  0
    0.7300    1.3265   -0.3888 N   0  0  0  0  0  0  0  0  0  0  0  0
    2.6627   -0.8709   -0.2386 N   0  0  0  0  0  0  0  0  0  0  0  0
    2.0514   -2.9965   -0.4389 N   0  0  0  0  0  0  0  0  0  0  0  0
   -2.8377    0.4584    0.1596 C   0  0  0  0  0  0  0  0  0  0  0  0
   -0.3785    2.1378    0.0602 C   0  0  0  0  0  0  0  0  0  0  0  0
   -2.2469    0.9282   -1.1755 C   0  0  0  0  0  0  0  0  0  0  0  0
   -1.7438    0.3260    1.2266 C   0  0  0  0  0  0  0  0  0  0  0  0
   -0.9455    1.6209    1.3855 C   0  0  0  0  0  0  0  0  0  0  0  0
   -1.4609    2.2302   -1.0181 C   0  0  0  0  0  0  0  0  0  0  0  0
   -3.5820   -0.8639   -0.0161 C   0  0  0  0  0  0  0  0  0  0  0  0
    2.0436    1.5553   -0.0064 C   0  0  0  0  0  0  0  0  0  0  0  0
    3.0119    0.5522   -0.6343 C   0  0  1  0  0  0  0  0  0  0  0  0
    4.4639    0.8778   -0.2755 C   0  0  0  0  0  0  0  0  0  0  0  0
    2.6637   -1.3817    1.0289 C   0  0  0  0  0  0  0  0  0  0  0  0
    2.2888   -1.8770   -1.0856 C   0  0  0  0  0  0  0  0  0  0  0  0
    2.2834   -2.6946    0.8797 C   0  0  0  0  0  0  0  0  0  0  0  0
   -3.5628    1.2095    0.5000 H   0  0  0  0  0  0  0  0  0  0  0  0
    0.0141    3.1478    0.2330 H   0  0  0  0  0  0  0  0  0  0  0  0
   -1.0165    2.5053   -1.9823 H   0  0  0  0  0  0  0  0  0  0  0  0
   -2.1611    3.0323   -0.7515 H   0  0  0  0  0  0  0  0  0  0  0  0
   -1.6074    2.3874    1.8088 H   0  0  0  0  0  0  0  0  0  0  0  0
   -0.1409    1.4631    2.1137 H   0  0  0  0  0  0  0  0  0  0  0  0
   -2.1918    0.0618    2.1919 H   0  0  0  0  0  0  0  0  0  0  0  0
   -1.0591   -0.4903    0.9637 H   0  0  0  0  0  0  0  0  0  0  0  0
   -1.5969    0.1511   -1.5959 H   0  0  0  0  0  0  0  0  0  0  0  0
   -3.0522    1.0866   -1.9030 H   0  0  0  0  0  0  0  0  0  0  0  0
    0.5259    0.5284   -0.9824 H   0  0  0  0  0  0  0  0  0  0  0  0
    2.8888    0.5859   -1.7242 H   0  0  0  0  0  0  0  0  0  0  0  0
    4.7368    1.8758   -0.6348 H   0  0  0  0  0  0  0  0  0  0  0  0
    5.1484    0.1534   -0.7300 H   0  0  0  0  0  0  0  0  0  0  0  0
    4.6285    0.8582    0.8075 H   0  0  0  0  0  0  0  0  0  0  0  0
    2.9219   -0.7912    1.8967 H   0  0  0  0  0  0  0  0  0  0  0  0
    2.2064   -1.7373   -2.1546 H   0  0  0  0  0  0  0  0  0  0  0  0
    2.1637   -3.4373    1.6548 H   0  0  0  0  0  0  0  0  0  0  0  0
  1 14  1  0  0  0  0
  2 14  1  0  0  0  0
  3 14  1  0  0  0  0
  4 15  2  0  0  0  0
  5  9  1  0  0  0  0
  5 15  1  0  0  0  0
  5 31  1  0  0  0  0
  6 16  1  0  0  0  0
  6 18  1  0  0  0  0
  6 19  1  0  0  0  0
  7 19  2  0  0  0  0
  7 20  1  0  0  0  0
  8 10  1  0  0  0  0
  8 11  1  0  0  0  0
  8 14  1  0  0  0  0
  8 21  1  0  0  0  0
  9 12  1  0  0  0  0
  9 13  1  0  0  0  0
  9 22  1  0  0  0  0
 10 13  1  0  0  0  0
 10 29  1  0  0  0  0
 10 30  1  0  0  0  0
 11 12  1  0  0  0  0
 11 27  1  0  0  0  0
 11 28  1  0  0  0  0
 12 25  1  0  0  0  0
 12 26  1  0  0  0  0
 13 23  1  0  0  0  0
 13 24  1  0  0  0  0
 15 16  1  0  0  0  0
 16 17  1  0  0  0  0
 16 32  1  0  0  0  0
 17 33  1  0  0  0  0
 17 34  1  0  0  0  0
 17 35  1  0  0  0  0
 18 20  2  0  0  0  0
 18 36  1  0  0  0  0
 19 37  1  0  0  0  0
 20 38  1  0  0  0  0
M  END
> <PUBCHEM_COMPOUND_CID>
47205570

> <PUBCHEM_CONFORMER_RMSD>
0.8

> <PUBCHEM_CONFORMER_DIVERSEORDER>
1
49
45
3
48
28
8
20
38
22
47
2
23
34
7
18
10
29
21
15
25
36
40
5
44
9
42
27
4
30
24
41
19
31
50
14
35
43
26
13
37
46
11
17
32
6
39
33
12
16

> <PUBCHEM_MMFF94_PARTIAL_CHARGES>
18
1 -0.34
14 1.02
15 0.57
16 0.32
18 -0.3
19 0.04
2 -0.34
20 0.08
3 -0.34
31 0.37
36 0.15
37 0.15
38 0.15
4 -0.57
5 -0.73
6 0.05
7 -0.57
9 0.3

> <PUBCHEM_EFFECTIVE_ROTOR_COUNT>
6.2

> <PUBCHEM_PHARMACOPHORE_FEATURES>
5
1 4 acceptor
1 5 donor
3 6 7 19 cation
5 6 7 18 19 20 rings
6 8 9 10 11 12 13 rings

> <PUBCHEM_HEAVY_ATOM_COUNT>
20

> <PUBCHEM_ATOM_DEF_STEREO_COUNT>
0

> <PUBCHEM_ATOM_UDEF_STEREO_COUNT>
1

> <PUBCHEM_BOND_DEF_STEREO_COUNT>
0

> <PUBCHEM_BOND_UDEF_STEREO_COUNT>
0

> <PUBCHEM_ISOTOPIC_ATOM_COUNT>
0

> <PUBCHEM_COMPONENT_COUNT>
1

> <PUBCHEM_CACTVS_TAUTO_COUNT>
2

> <PUBCHEM_CONFORMER_ID>
02D04CC200000001

> <PUBCHEM_MMFF94_ENERGY>
24.4513

> <PUBCHEM_FEATURE_SELFOVERLAP>
25.371

> <PUBCHEM_SHAPE_FINGERPRINT>
10616163 171 18410853269737117061
10764073 3 16688472952572251297
11725454 13 14401471956501474254
12506688 2 18408324384466717889
12553582 1 18408882940678995521
12596599 1 17971458839659435922
12596602 18 17096914781887531403
12633257 1 18048029963304699939
12788726 201 17677608851278754113
14178342 30 18262802990255820240
14251705 54 18337954600928171254
14251757 17 17844550953198161597
14787075 74 17824827737457481848
14916288 52 17977662344424675214
15183329 4 18187939378709687653
15375462 189 18260825969126513025
15635459 17 18412546504854097919
17134984 74 17974876994357803919
19433438 38 18131636685773434996
20291156 8 18336259158198051923
20442098 301 18187924044563240174
20645477 70 18336553733194131469
21285901 2 17988375810132673749
23184049 29 18268148849743031900
23559900 14 18342187690847037908
238 59 18130774625913028232
2871803 45 18412261722921244716
33824 294 18338238154748031480
3797600 57 17821728304198345360
463206 1 18048037368266681519
474229 33 18340485561438004924
9709674 26 18271805777977150332

> <PUBCHEM_SHAPE_MULTIPOLES>
368.96
7.57
3.17
1.23
2.39
0.88
0.14
2.75
-0.6
-1.61
0.07
0.33
0
0.11

> <PUBCHEM_SHAPE_SELFOVERLAP>
763.173

> <PUBCHEM_SHAPE_VOLUME>
211.7

> <PUBCHEM_COORDINATE_TYPE>
2
5
10

$$$$

