17396072
  -OEChem-06241222543D

 40 43  0     0  0  0  0  0  0999 V2000
    2.3815   -0.2290    2.0552 S   0  0  0  0  0  0  0  0  0  0  0  0
    1.3558    3.3454   -1.4460 S   0  0  0  0  0  0  0  0  0  0  0  0
   -3.3463   -2.6439    0.1385 O   0  0  0  0  0  0  0  0  0  0  0  0
    2.0608   -1.5557   -0.3124 N   0  0  0  0  0  0  0  0  0  0  0  0
   -1.0602    2.3419   -0.9662 N   0  0  0  0  0  0  0  0  0  0  0  0
    0.6932    1.8169    0.5305 N   0  0  0  0  0  0  0  0  0  0  0  0
    2.7553   -1.9521   -1.3880 N   0  0  0  0  0  0  0  0  0  0  0  0
    4.0897   -0.8741    0.0361 N   0  0  0  0  0  0  0  0  0  0  0  0
    3.9955   -1.5320   -1.1694 N   0  0  0  0  0  0  0  0  0  0  0  0
    0.7096   -1.8283   -0.1998 C   0  0  0  0  0  0  0  0  0  0  0  0
    2.7808    1.5276    1.8178 C   0  0  0  0  0  0  0  0  0  0  0  0
    2.0377    2.1067    0.6588 C   0  0  0  0  0  0  0  0  0  0  0  0
    2.8813   -0.9000    0.5492 C   0  0  0  0  0  0  0  0  0  0  0  0
    0.2300    2.4165   -0.5436 C   0  0  0  0  0  0  0  0  0  0  0  0
   -2.1654    1.6510   -0.4054 C   0  0  0  0  0  0  0  0  0  0  0  0
    0.1362   -2.0041    1.0596 C   0  0  0  0  0  0  0  0  0  0  0  0
   -0.0799   -1.9265   -1.3455 C   0  0  0  0  0  0  0  0  0  0  0  0
    2.5746    2.9202   -0.3170 C   0  0  0  0  0  0  0  0  0  0  0  0
   -1.2266   -2.2782    1.1733 C   0  0  0  0  0  0  0  0  0  0  0  0
   -1.4428   -2.2007   -1.2318 C   0  0  0  0  0  0  0  0  0  0  0  0
   -2.0162   -2.3766    0.0275 C   0  0  0  0  0  0  0  0  0  0  0  0
   -3.2485    1.2980   -1.2103 C   0  0  0  0  0  0  0  0  0  0  0  0
   -2.1686    1.3240    0.9506 C   0  0  0  0  0  0  0  0  0  0  0  0
   -4.3348    0.6182   -0.6595 C   0  0  0  0  0  0  0  0  0  0  0  0
   -3.2547    0.6439    1.5015 C   0  0  0  0  0  0  0  0  0  0  0  0
   -4.3378    0.2910    0.6964 C   0  0  0  0  0  0  0  0  0  0  0  0
    2.5051    2.0683    2.7290 H   0  0  0  0  0  0  0  0  0  0  0  0
    3.8628    1.6332    1.6847 H   0  0  0  0  0  0  0  0  0  0  0  0
    0.6993   -2.0831    1.9800 H   0  0  0  0  0  0  0  0  0  0  0  0
    0.3350   -1.7827   -2.3402 H   0  0  0  0  0  0  0  0  0  0  0  0
   -1.2782    2.7661   -1.8648 H   0  0  0  0  0  0  0  0  0  0  0  0
    3.5903    3.2747   -0.4208 H   0  0  0  0  0  0  0  0  0  0  0  0
   -1.6633   -2.4434    2.1547 H   0  0  0  0  0  0  0  0  0  0  0  0
   -2.0483   -2.2708   -2.1316 H   0  0  0  0  0  0  0  0  0  0  0  0
   -3.2576    1.5449   -2.2688 H   0  0  0  0  0  0  0  0  0  0  0  0
   -1.3705    1.6088    1.6268 H   0  0  0  0  0  0  0  0  0  0  0  0
   -5.1775    0.3421   -1.2864 H   0  0  0  0  0  0  0  0  0  0  0  0
   -3.2613    0.3956    2.5589 H   0  0  0  0  0  0  0  0  0  0  0  0
   -5.1841   -0.2373    1.1257 H   0  0  0  0  0  0  0  0  0  0  0  0
   -3.7377   -2.6692   -0.7515 H   0  0  0  0  0  0  0  0  0  0  0  0
  1 11  1  0  0  0  0
  1 13  1  0  0  0  0
  2 14  1  0  0  0  0
  2 18  1  0  0  0  0
  3 21  1  0  0  0  0
  3 40  1  0  0  0  0
  4  7  1  0  0  0  0
  4 10  1  0  0  0  0
  4 13  1  0  0  0  0
  5 14  1  0  0  0  0
  5 15  1  0  0  0  0
  5 31  1  0  0  0  0
  6 12  1  0  0  0  0
  6 14  2  0  0  0  0
  7  9  2  0  0  0  0
  8  9  1  0  0  0  0
  8 13  2  0  0  0  0
 10 16  2  0  0  0  0
 10 17  1  0  0  0  0
 11 12  1  0  0  0  0
 11 27  1  0  0  0  0
 11 28  1  0  0  0  0
 12 18  2  0  0  0  0
 15 22  2  0  0  0  0
 15 23  1  0  0  0  0
 16 19  1  0  0  0  0
 16 29  1  0  0  0  0
 17 20  2  0  0  0  0
 17 30  1  0  0  0  0
 18 32  1  0  0  0  0
 19 21  2  0  0  0  0
 19 33  1  0  0  0  0
 20 21  1  0  0  0  0
 20 34  1  0  0  0  0
 22 24  1  0  0  0  0
 22 35  1  0  0  0  0
 23 25  2  0  0  0  0
 23 36  1  0  0  0  0
 24 26  2  0  0  0  0
 24 37  1  0  0  0  0
 25 26  1  0  0  0  0
 25 38  1  0  0  0  0
 26 39  1  0  0  0  0
M  END
> <PUBCHEM_COMPOUND_CID>
17396072

> <PUBCHEM_CONFORMER_RMSD>
1.2

> <PUBCHEM_CONFORMER_DIVERSEORDER>
4
60
58
48
77
26
54
32
35
2
62
38
7
57
63
43
40
73
59
76
11
22
3
39
6
69
14
31
27
29
53
1
5
36
78
19
67
47
46
56
20
55
9
50
45
64
12
34
21
8
41
25
79
71
51
28
49
70
23
52
66
10
42
44
81
75
61
24
13
68
16
65
37
72
80
74
17
18
15
33
30

> <PUBCHEM_MMFF94_PARTIAL_CHARGES>
37
1 -0.29
10 -0.02
11 0.41
12 0.05
13 0.24
14 0.46
15 0.1
16 -0.15
17 -0.15
18 -0.11
19 -0.15
2 -0.08
20 -0.15
21 0.08
22 -0.15
23 -0.15
24 -0.15
25 -0.15
26 -0.15
29 0.15
3 -0.53
30 0.15
31 0.4
32 0.15
33 0.15
34 0.15
35 0.15
36 0.15
37 0.15
38 0.15
39 0.15
4 0.59
40 0.45
5 -0.58
6 -0.57
7 -0.42
8 -0.34

> <PUBCHEM_EFFECTIVE_ROTOR_COUNT>
6

> <PUBCHEM_PHARMACOPHORE_FEATURES>
8
1 3 donor
1 5 donor
3 4 8 13 cation
3 5 6 14 cation
5 2 6 12 14 18 rings
5 4 7 8 9 13 rings
6 10 16 17 19 20 21 rings
6 15 22 23 24 25 26 rings

> <PUBCHEM_HEAVY_ATOM_COUNT>
26

> <PUBCHEM_ATOM_DEF_STEREO_COUNT>
0

> <PUBCHEM_ATOM_UDEF_STEREO_COUNT>
0

> <PUBCHEM_BOND_DEF_STEREO_COUNT>
0

> <PUBCHEM_BOND_UDEF_STEREO_COUNT>
0

> <PUBCHEM_ISOTOPIC_ATOM_COUNT>
0

> <PUBCHEM_COMPONENT_COUNT>
1

> <PUBCHEM_CACTVS_TAUTO_COUNT>
4

> <PUBCHEM_CONFORMER_ID>
0109716800000004

> <PUBCHEM_MMFF94_ENERGY>
73.4361

> <PUBCHEM_FEATURE_SELFOVERLAP>
40.594

> <PUBCHEM_SHAPE_FINGERPRINT>
104564 63 17906739098335791097
10616163 171 18052821338631312909
11513181 2 18115864092530810614
11578080 2 17169284632594897634
12011746 2 18338517568098105935
12035758 1 18261962937533460202
12156800 1 15184238335398550225
12422481 6 18265919990056914504
12596599 1 17532390835680261261
13122387 1 18339082721248553913
13140716 1 18410016502712548955
13402501 40 18336828713890178998
13583140 156 17632588162436614955
17357779 13 18264773344661348908
17492 54 18199729484089725940
20600515 1 18045197565865043204
20691752 17 17917434177088718083
20905425 154 18121491354645154335
23227448 37 18412266103909420071
23419403 2 14959304825039156501
238 59 17833304134251025517
2818148 4 18196063600194621831
3027735 51 17832703478974715703
3052486 1 18272379659160494930
35225 105 17630346343530767773
3524813 1 18261679293144493130
484985 159 15684294317056742314
5283178 26 18116422829089047870
6287921 2 17968090967193171143
6443956 14 18191589863765601753

> <PUBCHEM_SHAPE_MULTIPOLES>
507.01
6.9
4.16
1.69
2.2
0.82
-0.31
0.06
-0.45
-0.98
1.29
-0.55
-0.01
0.46

> <PUBCHEM_SHAPE_SELFOVERLAP>
1085.446

> <PUBCHEM_SHAPE_VOLUME>
282.7

> <PUBCHEM_COORDINATE_TYPE>
2
5
10

$$$$

