11967
  -OEChem-06261206203D

 24 24  0     0  0  0  0  0  0999 V2000
    4.9666   -0.1622   -0.7641 F   0  0  0  0  0  0  0  0  0  0  0  0
    0.9002    0.1581    0.1237 O   0  0  0  0  0  0  0  0  0  0  0  0
    0.2066   -2.0369    0.1234 O   0  0  0  0  0  0  0  0  0  0  0  0
    3.1607    0.9678    0.2192 C   0  0  0  0  0  0  0  0  0  0  0  0
    2.2664   -0.2637    0.1949 C   0  0  0  0  0  0  0  0  0  0  0  0
    4.6289    0.5984    0.3108 C   0  0  0  0  0  0  0  0  0  0  0  0
   -1.3923   -0.2712    0.0198 C   0  0  0  0  0  0  0  0  0  0  0  0
   -0.0501   -0.8259    0.0932 C   0  0  0  0  0  0  0  0  0  0  0  0
   -2.4972   -1.1217   -0.0215 C   0  0  0  0  0  0  0  0  0  0  0  0
   -1.5751    1.1114   -0.0088 C   0  0  0  0  0  0  0  0  0  0  0  0
   -3.7847   -0.5898   -0.0917 C   0  0  0  0  0  0  0  0  0  0  0  0
   -2.8627    1.6432   -0.0788 C   0  0  0  0  0  0  0  0  0  0  0  0
   -3.9675    0.7926   -0.1202 C   0  0  0  0  0  0  0  0  0  0  0  0
    2.8810    1.6146    1.0587 H   0  0  0  0  0  0  0  0  0  0  0  0
    2.9831    1.5500   -0.6931 H   0  0  0  0  0  0  0  0  0  0  0  0
    2.4127   -0.8546    1.1065 H   0  0  0  0  0  0  0  0  0  0  0  0
    2.4968   -0.8844   -0.6786 H   0  0  0  0  0  0  0  0  0  0  0  0
    4.8446    0.0227    1.2156 H   0  0  0  0  0  0  0  0  0  0  0  0
    5.2584    1.4927    0.3025 H   0  0  0  0  0  0  0  0  0  0  0  0
   -2.3771   -2.2018   -0.0001 H   0  0  0  0  0  0  0  0  0  0  0  0
   -0.7452    1.8118    0.0216 H   0  0  0  0  0  0  0  0  0  0  0  0
   -4.6451   -1.2518   -0.1239 H   0  0  0  0  0  0  0  0  0  0  0  0
   -3.0059    2.7197   -0.1011 H   0  0  0  0  0  0  0  0  0  0  0  0
   -4.9700    1.2068   -0.1747 H   0  0  0  0  0  0  0  0  0  0  0  0
  1  6  1  0  0  0  0
  2  5  1  0  0  0  0
  2  8  1  0  0  0  0
  3  8  2  0  0  0  0
  4  5  1  0  0  0  0
  4  6  1  0  0  0  0
  4 14  1  0  0  0  0
  4 15  1  0  0  0  0
  5 16  1  0  0  0  0
  5 17  1  0  0  0  0
  6 18  1  0  0  0  0
  6 19  1  0  0  0  0
  7  8  1  0  0  0  0
  7  9  2  0  0  0  0
  7 10  1  0  0  0  0
  9 11  1  0  0  0  0
  9 20  1  0  0  0  0
 10 12  2  0  0  0  0
 10 21  1  0  0  0  0
 11 13  2  0  0  0  0
 11 22  1  0  0  0  0
 12 13  1  0  0  0  0
 12 23  1  0  0  0  0
 13 24  1  0  0  0  0
M  END
> <PUBCHEM_COMPOUND_CID>
11967

> <PUBCHEM_CONFORMER_RMSD>
0.6

> <PUBCHEM_CONFORMER_DIVERSEORDER>
1
58
75
76
35
81
73
6
31
72
49
82
78
56
39
7
20
80
71
84
38
57
47
77
23
74
51
25
68
22
2
69
64
29
83
42
48
53
60
43
62
59
37
65
63
16
70
54
30
24
44
4
15
61
17
3
79
32
50
11
52
66
21
45
46
55
9
67
36
14
26
41
5
18
34
40
27
19
33
28
13
12
8
10

> <PUBCHEM_MMFF94_PARTIAL_CHARGES>
17
1 -0.34
10 -0.15
11 -0.15
12 -0.15
13 -0.15
2 -0.43
20 0.15
21 0.15
22 0.15
23 0.15
24 0.15
3 -0.57
5 0.28
6 0.34
7 0.09
8 0.63
9 -0.15

> <PUBCHEM_EFFECTIVE_ROTOR_COUNT>
5

> <PUBCHEM_PHARMACOPHORE_FEATURES>
2
1 3 acceptor
6 7 9 10 11 12 13 rings

> <PUBCHEM_HEAVY_ATOM_COUNT>
13

> <PUBCHEM_ATOM_DEF_STEREO_COUNT>
0

> <PUBCHEM_ATOM_UDEF_STEREO_COUNT>
0

> <PUBCHEM_BOND_DEF_STEREO_COUNT>
0

> <PUBCHEM_BOND_UDEF_STEREO_COUNT>
0

> <PUBCHEM_ISOTOPIC_ATOM_COUNT>
0

> <PUBCHEM_COMPONENT_COUNT>
1

> <PUBCHEM_CACTVS_TAUTO_COUNT>
1

> <PUBCHEM_CONFORMER_ID>
00002EBF00000001

> <PUBCHEM_MMFF94_ENERGY>
27.2092

> <PUBCHEM_FEATURE_SELFOVERLAP>
10.148

> <PUBCHEM_SHAPE_FINGERPRINT>
10922049 32 18335419067090531214
11132069 177 18343022194217664565
12346645 44 18413110588699913075
13081056 2 18334576819766808104
13214271 11 18343302561656996887
14325111 11 18411140250830200538
15775835 57 18342177786345920128
18186145 218 17967253087582019960
1986462 14 18408038511612190900
200 152 16660362580064844944
20300324 65 18187087226299790269
20645477 56 18262805056145262024
20645477 70 17167850986029293334
21524375 3 18412827984136292962
23402539 116 18334865991140024292
23557571 272 18114174216483968391
23559900 14 18186803565764987784
366044 4 18411983546331951586
4990 188 18113613504419602342
6430166 295 18411986871032024184
7364860 26 18192151718254169791

> <PUBCHEM_SHAPE_MULTIPOLES>
248.52
9.01
1.53
0.64
9.14
0.14
0.01
-2.16
0.73
-0.85
-0.03
0.17
-0.01
0.16

> <PUBCHEM_SHAPE_SELFOVERLAP>
506.368

> <PUBCHEM_SHAPE_VOLUME>
144.3

> <PUBCHEM_COORDINATE_TYPE>
2
5
10

$$$$

