8618
  -OEChem-06261202572D

 14 13  0     0  0  0  0  0  0999 V2000
    4.2690   -1.2500    0.0000 O   0  0  0  0  0  0  0  0  0  0  0  0
    2.5369   -0.2500    0.0000 O   0  0  0  0  0  0  0  0  0  0  0  0
    3.4030    1.2500    0.0000 O   0  0  0  0  0  0  0  0  0  0  0  0
    5.1350    1.2500    0.0000 O   0  0  0  0  0  0  0  0  0  0  0  0
    6.8671    0.2500    0.0000 O   0  0  0  0  0  0  0  0  0  0  0  0
    6.0010   -1.2500    0.0000 O   0  0  0  0  0  0  0  0  0  0  0  0
    4.2690   -0.2500    0.0000 C   0  0  0  0  0  0  0  0  0  0  0  0
    5.1350    0.2500    0.0000 C   0  0  0  0  0  0  0  0  0  0  0  0
    3.4030    0.2500    0.0000 C   0  0  0  0  0  0  0  0  0  0  0  0
    6.0010   -0.2500    0.0000 C   0  0  0  0  0  0  0  0  0  0  0  0
    3.7320   -1.5600    0.0000 H   0  0  0  0  0  0  0  0  0  0  0  0
    2.0000    0.0600    0.0000 H   0  0  0  0  0  0  0  0  0  0  0  0
    2.8660    1.5600    0.0000 H   0  0  0  0  0  0  0  0  0  0  0  0
    7.4040   -0.0600    0.0000 H   0  0  0  0  0  0  0  0  0  0  0  0
  1  7  1  0  0  0  0
  1 11  1  0  0  0  0
  2  9  1  0  0  0  0
  2 12  1  0  0  0  0
  3  9  1  0  0  0  0
  3 13  1  0  0  0  0
  4  8  2  0  0  0  0
  5 10  1  0  0  0  0
  5 14  1  0  0  0  0
  6 10  2  0  0  0  0
  7  8  1  0  0  0  0
  7  9  2  0  0  0  0
  8 10  1  0  0  0  0
M  END
> <PUBCHEM_COMPOUND_CID>
8618

> <PUBCHEM_COMPOUND_CANONICALIZED>
1

> <PUBCHEM_CACTVS_COMPLEXITY>
198

> <PUBCHEM_CACTVS_HBOND_ACCEPTOR>
6

> <PUBCHEM_CACTVS_HBOND_DONOR>
4

> <PUBCHEM_CACTVS_ROTATABLE_BOND>
2

> <PUBCHEM_CACTVS_SUBSKEYS>
AAADcYBgOAAAAAAAAAAAAAAAAAAAAAAAAAAAAAAAAAAAAAAAAAAACgAACAAACAQAgAAACAAAAgCIAIDQCAIAAAAgIAAAAAFAAEgAAAQAAAAAQAABYAAAAAAAAAAAAAAAAAAAAAAAAAAAAAAAAAAAAAAAAA==

> <PUBCHEM_IUPAC_OPENEYE_NAME>
3,4,4-trihydroxy-2-oxo-but-3-enoic acid

> <PUBCHEM_IUPAC_CAS_NAME>
3,4,4-trihydroxy-2-oxo-3-butenoic acid

> <PUBCHEM_IUPAC_NAME>
3,4,4-trihydroxy-2-oxobut-3-enoic acid

> <PUBCHEM_IUPAC_SYSTEMATIC_NAME>
3,4,4-tris(oxidanyl)-2-oxidanylidene-but-3-enoic acid

> <PUBCHEM_IUPAC_TRADITIONAL_NAME>
3,4,4-trihydroxy-2-keto-but-3-enoic acid

> <PUBCHEM_IUPAC_INCHI>
InChI=1S/C4H4O6/c5-1(3(7)8)2(6)4(9)10/h5,7-8H,(H,9,10)

> <PUBCHEM_IUPAC_INCHIKEY>
KAPRQAPANAEVOD-UHFFFAOYSA-N

> <PUBCHEM_XLOGP3_AA>
0.4

> <PUBCHEM_EXACT_MASS>
148.000788

> <PUBCHEM_MOLECULAR_FORMULA>
C4H4O6

> <PUBCHEM_MOLECULAR_WEIGHT>
148.07096

> <PUBCHEM_OPENEYE_CAN_SMILES>
C(=C(O)O)(C(=O)C(=O)O)O

> <PUBCHEM_OPENEYE_ISO_SMILES>
C(=C(O)O)(C(=O)C(=O)O)O

> <PUBCHEM_CACTVS_TPSA>
115

> <PUBCHEM_MONOISOTOPIC_WEIGHT>
148.000788

> <PUBCHEM_TOTAL_CHARGE>
0

> <PUBCHEM_HEAVY_ATOM_COUNT>
10

> <PUBCHEM_ATOM_DEF_STEREO_COUNT>
0

> <PUBCHEM_ATOM_UDEF_STEREO_COUNT>
0

> <PUBCHEM_BOND_DEF_STEREO_COUNT>
0

> <PUBCHEM_BOND_UDEF_STEREO_COUNT>
0

> <PUBCHEM_ISOTOPIC_ATOM_COUNT>
0

> <PUBCHEM_COMPONENT_COUNT>
1

> <PUBCHEM_CACTVS_TAUTO_COUNT>
4

> <PUBCHEM_COORDINATE_TYPE>
1
5
255

$$$$

