11351
  -OEChem-06261205343D

 35 36  0     0  0  0  0  0  0999 V2000
   -1.1907    2.7000   -0.0002 O   0  0  0  0  0  0  0  0  0  0  0  0
    3.1484   -0.9101    0.0000 C   0  0  0  0  0  0  0  0  0  0  0  0
    1.9608    0.0666    0.0002 C   0  0  0  0  0  0  0  0  0  0  0  0
    4.0115   -0.6785    1.2592 C   0  0  0  0  0  0  0  0  0  0  0  0
    4.0128   -0.6771   -1.2580 C   0  0  0  0  0  0  0  0  0  0  0  0
    2.7333   -2.3989   -0.0012 C   0  0  0  0  0  0  0  0  0  0  0  0
    0.6903   -0.4520    0.0000 C   0  0  0  0  0  0  0  0  0  0  0  0
    2.2262    1.4130    0.0001 C   0  0  0  0  0  0  0  0  0  0  0  0
   -0.3865    0.4346    0.0000 C   0  0  0  0  0  0  0  0  0  0  0  0
   -0.1570    1.8105   -0.0001 C   0  0  0  0  0  0  0  0  0  0  0  0
    1.1493    2.2996    0.0000 C   0  0  0  0  0  0  0  0  0  0  0  0
   -1.7359   -0.0937    0.0000 C   0  0  0  0  0  0  0  0  0  0  0  0
   -2.3833   -0.3469    1.2080 C   0  0  0  0  0  0  0  0  0  0  0  0
   -2.3832   -0.3470   -1.2080 C   0  0  0  0  0  0  0  0  0  0  0  0
   -3.6823   -0.8553    1.2080 C   0  0  0  0  0  0  0  0  0  0  0  0
   -3.6821   -0.8554   -1.2080 C   0  0  0  0  0  0  0  0  0  0  0  0
   -4.3316   -1.1095    0.0001 C   0  0  0  0  0  0  0  0  0  0  0  0
    4.8420   -1.3928    1.3049 H   0  0  0  0  0  0  0  0  0  0  0  0
    4.4531    0.3237    1.2851 H   0  0  0  0  0  0  0  0  0  0  0  0
    3.4173   -0.8004    2.1728 H   0  0  0  0  0  0  0  0  0  0  0  0
    4.4548    0.3249   -1.2823 H   0  0  0  0  0  0  0  0  0  0  0  0
    4.8432   -1.3916   -1.3038 H   0  0  0  0  0  0  0  0  0  0  0  0
    3.4195   -0.7976   -2.1723 H   0  0  0  0  0  0  0  0  0  0  0  0
    3.6178   -3.0484   -0.0015 H   0  0  0  0  0  0  0  0  0  0  0  0
    2.1526   -2.6645    0.8901 H   0  0  0  0  0  0  0  0  0  0  0  0
    2.1529   -2.6631   -0.8931 H   0  0  0  0  0  0  0  0  0  0  0  0
    0.4733   -1.5136    0.0001 H   0  0  0  0  0  0  0  0  0  0  0  0
    3.2331    1.8161    0.0002 H   0  0  0  0  0  0  0  0  0  0  0  0
    1.3434    3.3690    0.0000 H   0  0  0  0  0  0  0  0  0  0  0  0
   -1.8912   -0.1540    2.1583 H   0  0  0  0  0  0  0  0  0  0  0  0
   -1.8911   -0.1543   -2.1584 H   0  0  0  0  0  0  0  0  0  0  0  0
   -4.1881   -1.0531    2.1485 H   0  0  0  0  0  0  0  0  0  0  0  0
   -4.1879   -1.0533   -2.1485 H   0  0  0  0  0  0  0  0  0  0  0  0
   -0.8331    3.6045   -0.0003 H   0  0  0  0  0  0  0  0  0  0  0  0
   -5.3430   -1.5053    0.0001 H   0  0  0  0  0  0  0  0  0  0  0  0
  1 10  1  0  0  0  0
  1 34  1  0  0  0  0
  2  3  1  0  0  0  0
  2  4  1  0  0  0  0
  2  5  1  0  0  0  0
  2  6  1  0  0  0  0
  3  7  2  0  0  0  0
  3  8  1  0  0  0  0
  4 18  1  0  0  0  0
  4 19  1  0  0  0  0
  4 20  1  0  0  0  0
  5 21  1  0  0  0  0
  5 22  1  0  0  0  0
  5 23  1  0  0  0  0
  6 24  1  0  0  0  0
  6 25  1  0  0  0  0
  6 26  1  0  0  0  0
  7  9  1  0  0  0  0
  7 27  1  0  0  0  0
  8 11  2  0  0  0  0
  8 28  1  0  0  0  0
  9 10  2  0  0  0  0
  9 12  1  0  0  0  0
 10 11  1  0  0  0  0
 11 29  1  0  0  0  0
 12 13  2  0  0  0  0
 12 14  1  0  0  0  0
 13 15  1  0  0  0  0
 13 30  1  0  0  0  0
 14 16  2  0  0  0  0
 14 31  1  0  0  0  0
 15 17  2  0  0  0  0
 15 32  1  0  0  0  0
 16 17  1  0  0  0  0
 16 33  1  0  0  0  0
 17 35  1  0  0  0  0
M  END
> <PUBCHEM_COMPOUND_CID>
11351

> <PUBCHEM_CONFORMER_RMSD>
0.6

> <PUBCHEM_CONFORMER_DIVERSEORDER>
1
3
2

> <PUBCHEM_MMFF94_PARTIAL_CHARGES>
21
1 -0.53
10 0.08
11 -0.15
13 -0.15
14 -0.15
15 -0.15
16 -0.15
17 -0.15
2 0.14
27 0.15
28 0.15
29 0.15
3 -0.14
30 0.15
31 0.15
32 0.15
33 0.15
34 0.45
35 0.15
7 -0.15
8 -0.15

> <PUBCHEM_EFFECTIVE_ROTOR_COUNT>
2

> <PUBCHEM_PHARMACOPHORE_FEATURES>
4
1 1 donor
4 2 4 5 6 hydrophobe
6 12 13 14 15 16 17 rings
6 3 7 8 9 10 11 rings

> <PUBCHEM_HEAVY_ATOM_COUNT>
17

> <PUBCHEM_ATOM_DEF_STEREO_COUNT>
0

> <PUBCHEM_ATOM_UDEF_STEREO_COUNT>
0

> <PUBCHEM_BOND_DEF_STEREO_COUNT>
0

> <PUBCHEM_BOND_UDEF_STEREO_COUNT>
0

> <PUBCHEM_ISOTOPIC_ATOM_COUNT>
0

> <PUBCHEM_COMPONENT_COUNT>
1

> <PUBCHEM_CACTVS_TAUTO_COUNT>
3

> <PUBCHEM_CONFORMER_ID>
00002C5700000001

> <PUBCHEM_MMFF94_ENERGY>
62.9097

> <PUBCHEM_FEATURE_SELFOVERLAP>
20.297

> <PUBCHEM_SHAPE_FINGERPRINT>
10618630 7 18410855481808726646
11543360 7 15769769135234288390
11578080 2 17460061576672263689
11796584 16 16845304859800106666
12236239 1 17676482809837858915
12363563 72 18341894116852034698
12553582 1 18409725170949748838
12707595 3 18272090478606318658
12892183 10 15936410035139818494
13140716 1 18193843643743333314
13296908 3 18202006486660434937
13296909 8 17022618710834241305
13583140 156 14129345142854435927
13675066 3 17530959185742024371
13705890 14 17203610380649654070
14178342 30 18121509204856082912
14252887 29 18186519912865571298
14289901 80 15068632560460553590
15848700 24 18409450284521097734
16945 1 18410856542829243972
17357779 13 18341060678305808437
1813 80 18188192273987475940
18186145 218 17561091289153330805
18222031 100 18187085044103164670
200 152 18272938236394278882
20281475 54 18339918315926378898
20361792 2 18407761426018171333
20645477 70 18340776931470720023
20671657 53 18202286909106634840
20871998 22 18334853961205672750
21296965 67 18410013247138037193
21501925 9 18409456873085384424
22112679 90 17531238418798547529
2255824 54 18264485092426555908
23402539 116 18341336686158416002
23559900 14 17132123424593498098
23598291 2 17968937474992368951
2748010 2 18337685195078912572
3082319 5 14548742806608366203
3091708 16 9570679739745578896
314173 85 18333731338089858144
4990 188 12679184946339335746
6049 1 17703794665665639349
7364860 26 18189053097377394464
77492 1 17604703353507794917
7970288 3 18410011061116767534
81228 2 18197783412622166368
83771 10 18335698355917994316
90316 7 16733252509158903425

> <PUBCHEM_SHAPE_MULTIPOLES>
343.98
7.89
2.2
1.15
1.37
1.17
0
-4.68
0
-0.96
0
0.31
-0.33
0

> <PUBCHEM_SHAPE_SELFOVERLAP>
740.138

> <PUBCHEM_SHAPE_VOLUME>
191.6

> <PUBCHEM_COORDINATE_TYPE>
2
5
10

$$$$

