11432
  -OEChem-06261205402D

 10 10  0     0  0  0  0  0  0999 V2000
    2.8090    0.1144    0.0000 N   0  0  0  0  0  0  0  0  0  0  0  0
    2.8090    1.1144    0.0000 N   0  0  0  0  0  0  0  0  0  0  0  0
    2.3090   -1.4244    0.0000 N   0  0  0  0  0  0  0  0  0  0  0  0
    3.3090   -1.4244    0.0000 N   0  0  0  0  0  0  0  0  0  0  0  0
    2.0000   -0.4734    0.0000 C   0  0  0  0  0  0  0  0  0  0  0  0
    3.6180   -0.4734    0.0000 C   0  0  0  0  0  0  0  0  0  0  0  0
    1.4103   -0.2818    0.0000 H   0  0  0  0  0  0  0  0  0  0  0  0
    4.2077   -0.2818    0.0000 H   0  0  0  0  0  0  0  0  0  0  0  0
    3.3460    1.4244    0.0000 H   0  0  0  0  0  0  0  0  0  0  0  0
    2.2721    1.4244    0.0000 H   0  0  0  0  0  0  0  0  0  0  0  0
  1  2  1  0  0  0  0
  1  5  1  0  0  0  0
  1  6  1  0  0  0  0
  2  9  1  0  0  0  0
  2 10  1  0  0  0  0
  3  4  1  0  0  0  0
  3  5  2  0  0  0  0
  4  6  2  0  0  0  0
  5  7  1  0  0  0  0
  6  8  1  0  0  0  0
M  END
> <PUBCHEM_COMPOUND_CID>
11432

> <PUBCHEM_COMPOUND_CANONICALIZED>
1

> <PUBCHEM_CACTVS_COMPLEXITY>
38.8

> <PUBCHEM_CACTVS_HBOND_ACCEPTOR>
3

> <PUBCHEM_CACTVS_HBOND_DONOR>
1

> <PUBCHEM_CACTVS_ROTATABLE_BOND>
0

> <PUBCHEM_CACTVS_SUBSKEYS>
AAADcYBDgAAAAAAAAAAAAAAAAAAAAWAAAAAAAAAAAAAAAAABgAAAFAAYAAAAAAAAAAQFEAYKEAAiAAABJAAQAAsQgIAFYAAIAACACAAAAAAAAAAAAAAAAAAAAAAAAAAAAAAAAAAAAAAAAAAAAAAAAAAAAA==

> <PUBCHEM_IUPAC_OPENEYE_NAME>
1,2,4-triazol-4-amine

> <PUBCHEM_IUPAC_CAS_NAME>
1,2,4-triazol-4-amine

> <PUBCHEM_IUPAC_NAME>
1,2,4-triazol-4-amine

> <PUBCHEM_IUPAC_SYSTEMATIC_NAME>
1,2,4-triazol-4-amine

> <PUBCHEM_IUPAC_TRADITIONAL_NAME>
1,2,4-triazol-4-ylamine

> <PUBCHEM_IUPAC_INCHI>
InChI=1S/C2H4N4/c3-6-1-4-5-2-6/h1-2H,3H2

> <PUBCHEM_IUPAC_INCHIKEY>
FMCUPJKTGNBGEC-UHFFFAOYSA-N

> <PUBCHEM_XLOGP3_AA>
-0.8

> <PUBCHEM_EXACT_MASS>
84.043596

> <PUBCHEM_MOLECULAR_FORMULA>
C2H4N4

> <PUBCHEM_MOLECULAR_WEIGHT>
84.07996

> <PUBCHEM_OPENEYE_CAN_SMILES>
C1=NN=CN1N

> <PUBCHEM_OPENEYE_ISO_SMILES>
C1=NN=CN1N

> <PUBCHEM_CACTVS_TPSA>
56.7

> <PUBCHEM_MONOISOTOPIC_WEIGHT>
84.043596

> <PUBCHEM_TOTAL_CHARGE>
0

> <PUBCHEM_HEAVY_ATOM_COUNT>
6

> <PUBCHEM_ATOM_DEF_STEREO_COUNT>
0

> <PUBCHEM_ATOM_UDEF_STEREO_COUNT>
0

> <PUBCHEM_BOND_DEF_STEREO_COUNT>
0

> <PUBCHEM_BOND_UDEF_STEREO_COUNT>
0

> <PUBCHEM_ISOTOPIC_ATOM_COUNT>
0

> <PUBCHEM_COMPONENT_COUNT>
1

> <PUBCHEM_CACTVS_TAUTO_COUNT>
1

> <PUBCHEM_COORDINATE_TYPE>
1
5
255

> <PUBCHEM_BONDANNOTATIONS>
1  5  8
1  6  8
3  4  8
3  5  8
4  6  8

$$$$

