12902
  -OEChem-06261207313D

 49 49  0     0  0  0  0  0  0999 V2000
    2.6161    0.0153    0.0012 O   0  0  0  0  0  0  0  0  0  0  0  0
    1.2957   -2.5025    0.0025 C   0  0  0  0  0  0  0  0  0  0  0  0
    1.2716    2.5201   -0.0010 C   0  0  0  0  0  0  0  0  0  0  0  0
   -3.0289   -0.0117    0.0010 C   0  0  0  0  0  0  0  0  0  0  0  0
    0.5607   -1.2026    0.0011 C   0  0  0  0  0  0  0  0  0  0  0  0
    0.5490    1.2131   -0.0005 C   0  0  0  0  0  0  0  0  0  0  0  0
   -1.4912   -0.0048    0.0011 C   0  0  0  0  0  0  0  0  0  0  0  0
    1.2523    0.0087    0.0000 C   0  0  0  0  0  0  0  0  0  0  0  0
   -0.8342   -1.2095    0.0016 C   0  0  0  0  0  0  0  0  0  0  0  0
   -0.8459    1.2065    0.0000 C   0  0  0  0  0  0  0  0  0  0  0  0
    0.4768   -3.6140   -0.7228 C   0  0  0  0  0  0  0  0  0  0  0  0
    1.5716   -2.9929    1.4571 C   0  0  0  0  0  0  0  0  0  0  0  0
    2.6912   -2.4834   -0.7036 C   0  0  0  0  0  0  0  0  0  0  0  0
    2.2155    2.7636    1.2220 C   0  0  0  0  0  0  0  0  0  0  0  0
    2.1783    2.6627   -1.2619 C   0  0  0  0  0  0  0  0  0  0  0  0
    0.2719    3.7170   -0.0008 C   0  0  0  0  0  0  0  0  0  0  0  0
   -3.5450   -0.7405    1.2605 C   0  0  0  0  0  0  0  0  0  0  0  0
   -3.5452   -0.7438   -1.2567 C   0  0  0  0  0  0  0  0  0  0  0  0
   -3.6603    1.3990   -0.0009 C   0  0  0  0  0  0  0  0  0  0  0  0
   -1.4001   -2.1306    0.0287 H   0  0  0  0  0  0  0  0  0  0  0  0
   -1.4102    2.1218    0.0014 H   0  0  0  0  0  0  0  0  0  0  0  0
    0.1672   -3.2950   -1.7251 H   0  0  0  0  0  0  0  0  0  0  0  0
   -0.4112   -3.9210   -0.1599 H   0  0  0  0  0  0  0  0  0  0  0  0
    1.0714   -4.5284   -0.8419 H   0  0  0  0  0  0  0  0  0  0  0  0
    2.1834   -2.2723    2.0116 H   0  0  0  0  0  0  0  0  0  0  0  0
    2.0954   -3.9556    1.4602 H   0  0  0  0  0  0  0  0  0  0  0  0
    0.6346   -3.1198    2.0119 H   0  0  0  0  0  0  0  0  0  0  0  0
    3.4935   -2.0734   -0.0833 H   0  0  0  0  0  0  0  0  0  0  0  0
    2.6524   -1.9511   -1.6610 H   0  0  0  0  0  0  0  0  0  0  0  0
    3.0238   -3.5053   -0.9285 H   0  0  0  0  0  0  0  0  0  0  0  0
    2.6463    3.7714    1.1992 H   0  0  0  0  0  0  0  0  0  0  0  0
    1.6589    2.6569    2.1605 H   0  0  0  0  0  0  0  0  0  0  0  0
    3.0513    2.0592    1.2571 H   0  0  0  0  0  0  0  0  0  0  0  0
    1.6021    2.4776   -2.1764 H   0  0  0  0  0  0  0  0  0  0  0  0
    2.5899    3.6767   -1.3339 H   0  0  0  0  0  0  0  0  0  0  0  0
    3.0312    1.9786   -1.2638 H   0  0  0  0  0  0  0  0  0  0  0  0
    0.8193    4.6688   -0.0138 H   0  0  0  0  0  0  0  0  0  0  0  0
   -0.3629    3.7302   -0.8951 H   0  0  0  0  0  0  0  0  0  0  0  0
   -0.3514    3.7407    0.9013 H   0  0  0  0  0  0  0  0  0  0  0  0
   -4.6400   -0.7159    1.3089 H   0  0  0  0  0  0  0  0  0  0  0  0
   -3.2513   -1.7954    1.2861 H   0  0  0  0  0  0  0  0  0  0  0  0
   -3.1615   -0.2697    2.1736 H   0  0  0  0  0  0  0  0  0  0  0  0
   -3.2463   -1.7973   -1.2812 H   0  0  0  0  0  0  0  0  0  0  0  0
   -4.6405   -0.7237   -1.3027 H   0  0  0  0  0  0  0  0  0  0  0  0
   -3.1653   -0.2726   -2.1710 H   0  0  0  0  0  0  0  0  0  0  0  0
   -4.7557    1.3314   -0.0016 H   0  0  0  0  0  0  0  0  0  0  0  0
   -3.3880    1.9748    0.8916 H   0  0  0  0  0  0  0  0  0  0  0  0
   -3.3868    1.9731   -0.8942 H   0  0  0  0  0  0  0  0  0  0  0  0
    2.8917   -0.3317    0.8682 H   0  0  0  0  0  0  0  0  0  0  0  0
  1  8  1  0  0  0  0
  1 49  1  0  0  0  0
  2  5  1  0  0  0  0
  2 11  1  0  0  0  0
  2 12  1  0  0  0  0
  2 13  1  0  0  0  0
  3  6  1  0  0  0  0
  3 14  1  0  0  0  0
  3 15  1  0  0  0  0
  3 16  1  0  0  0  0
  4  7  1  0  0  0  0
  4 17  1  0  0  0  0
  4 18  1  0  0  0  0
  4 19  1  0  0  0  0
  5  8  2  0  0  0  0
  5  9  1  0  0  0  0
  6  8  1  0  0  0  0
  6 10  2  0  0  0  0
  7  9  2  0  0  0  0
  7 10  1  0  0  0  0
  9 20  1  0  0  0  0
 10 21  1  0  0  0  0
 11 22  1  0  0  0  0
 11 23  1  0  0  0  0
 11 24  1  0  0  0  0
 12 25  1  0  0  0  0
 12 26  1  0  0  0  0
 12 27  1  0  0  0  0
 13 28  1  0  0  0  0
 13 29  1  0  0  0  0
 13 30  1  0  0  0  0
 14 31  1  0  0  0  0
 14 32  1  0  0  0  0
 14 33  1  0  0  0  0
 15 34  1  0  0  0  0
 15 35  1  0  0  0  0
 15 36  1  0  0  0  0
 16 37  1  0  0  0  0
 16 38  1  0  0  0  0
 16 39  1  0  0  0  0
 17 40  1  0  0  0  0
 17 41  1  0  0  0  0
 17 42  1  0  0  0  0
 18 43  1  0  0  0  0
 18 44  1  0  0  0  0
 18 45  1  0  0  0  0
 19 46  1  0  0  0  0
 19 47  1  0  0  0  0
 19 48  1  0  0  0  0
M  END
> <PUBCHEM_COMPOUND_CID>
12902

> <PUBCHEM_CONFORMER_RMSD>
0.6

> <PUBCHEM_CONFORMER_DIVERSEORDER>
1
2

> <PUBCHEM_MMFF94_PARTIAL_CHARGES>
13
1 -0.53
10 -0.15
2 0.14
20 0.15
21 0.15
3 0.14
4 0.14
49 0.45
5 -0.14
6 -0.14
7 -0.14
8 0.08
9 -0.15

> <PUBCHEM_EFFECTIVE_ROTOR_COUNT>
3

> <PUBCHEM_PHARMACOPHORE_FEATURES>
5
1 1 donor
4 2 11 12 13 hydrophobe
4 3 14 15 16 hydrophobe
4 4 17 18 19 hydrophobe
6 5 6 7 8 9 10 rings

> <PUBCHEM_HEAVY_ATOM_COUNT>
19

> <PUBCHEM_ATOM_DEF_STEREO_COUNT>
0

> <PUBCHEM_ATOM_UDEF_STEREO_COUNT>
0

> <PUBCHEM_BOND_DEF_STEREO_COUNT>
0

> <PUBCHEM_BOND_UDEF_STEREO_COUNT>
0

> <PUBCHEM_ISOTOPIC_ATOM_COUNT>
0

> <PUBCHEM_COMPONENT_COUNT>
1

> <PUBCHEM_CACTVS_TAUTO_COUNT>
2

> <PUBCHEM_CONFORMER_ID>
0000326600000001

> <PUBCHEM_MMFF94_ENERGY>
94.0687

> <PUBCHEM_FEATURE_SELFOVERLAP>
25.371

> <PUBCHEM_SHAPE_FINGERPRINT>
104564 63 17688585378536434711
10967382 1 18410292471525335596
11578080 2 16985762101744657180
116883 192 17615692173041882335
12160290 23 17042328809207247515
12553582 1 18122063371338120127
12730499 353 18270122302091788183
12788726 201 17548131585751147539
13140716 1 18267305326555598459
13583140 156 16625773980386528257
13681431 1 18339923834769359211
14022347 108 17619328245374052419
14790565 3 18338503175985470004
15309172 13 18051688846281941489
15420108 30 18116175348841795354
15490181 7 18123183494176099091
15490181 8 17977670814068105502
16752209 62 17257945792883725286
16945 1 18410292484647692263
18186145 218 17972023761156002125
19591789 44 18122892145169743334
20510252 161 17038953304325804032
20645476 183 17768245713418683900
20645477 70 18412270506614850103
20905425 154 18192147320618686932
21041028 32 18123173869534034761
21160774 45 17474954221136223247
21524375 3 18124881148724347739
21731228 192 18050851013625364849
22112679 90 17900521677897507832
2255824 54 18410009918759857551
22907989 373 16973922122149635125
23184049 29 17692256652394234722
2334 1 17978792302895770575
23419403 2 17411384096433552996
23557571 272 17614562974880179430
23558518 356 17907587921755773154
23559900 14 18337400421967790499
23598291 2 18113332029511405061
238 59 18196110866847687343
257057 1 18051147074405918827
2748010 2 18122074353321063006
3060560 45 18196379125825172637
3071541 236 17547026125466883913
3091708 16 9288894696428585648
31174 14 18269535231370060579
34934 24 18122629615372974487
350125 39 17907007383604962306
352729 6 17689718558470963645
458136 41 18124007080220180201
6438718 38 17177166266971570917
7364860 26 18408323297892596601
7832392 63 18263927824941707373
81228 2 17474669932501947835
84936 182 18114467760329934737

> <PUBCHEM_SHAPE_MULTIPOLES>
385.14
4.96
4.79
1.11
5.2
0.28
-0.12
-0.04
0.08
-4.28
0.02
-0.03
-0.18
-0.04

> <PUBCHEM_SHAPE_SELFOVERLAP>
792.264

> <PUBCHEM_SHAPE_VOLUME>
227.8

> <PUBCHEM_COORDINATE_TYPE>
2
5
10

$$$$

