10043
  -OEChem-06261204163D

 18 17  0     0  0  0  0  0  0999 V2000
    0.3982   -0.0004    0.0129 N   0  3  0  0  0  0  0  0  0  0  0  0
    0.4227   -1.2450    0.8790 C   0  0  0  0  0  0  0  0  0  0  0  0
    0.4273    1.2515    0.8692 C   0  0  0  0  0  0  0  0  0  0  0  0
    1.5677   -0.0049   -0.9548 C   0  0  0  0  0  0  0  0  0  0  0  0
   -0.8296   -0.0027   -0.7372 C   0  0  0  0  0  0  0  0  0  0  0  0
   -1.9862    0.0015   -0.0691 C   0  0  0  0  0  0  0  0  0  0  0  0
   -0.3418   -1.1909    1.6601 H   0  0  0  0  0  0  0  0  0  0  0  0
    0.2786   -2.1273    0.2455 H   0  0  0  0  0  0  0  0  0  0  0  0
    1.4065   -1.2972    1.3579 H   0  0  0  0  0  0  0  0  0  0  0  0
    0.2862    2.1289    0.2283 H   0  0  0  0  0  0  0  0  0  0  0  0
   -0.3378    1.2063    1.6502 H   0  0  0  0  0  0  0  0  0  0  0  0
    1.4111    1.3040    1.3478 H   0  0  0  0  0  0  0  0  0  0  0  0
    1.5151   -0.9085   -1.5714 H   0  0  0  0  0  0  0  0  0  0  0  0
    1.5165    0.8939   -1.5785 H   0  0  0  0  0  0  0  0  0  0  0  0
    2.4947   -0.0035   -0.3728 H   0  0  0  0  0  0  0  0  0  0  0  0
   -0.8208   -0.0081   -1.8226 H   0  0  0  0  0  0  0  0  0  0  0  0
   -2.9175   -0.0004   -0.6282 H   0  0  0  0  0  0  0  0  0  0  0  0
   -2.0807    0.0070    1.0098 H   0  0  0  0  0  0  0  0  0  0  0  0
  1  2  1  0  0  0  0
  1  3  1  0  0  0  0
  1  4  1  0  0  0  0
  1  5  1  0  0  0  0
  2  7  1  0  0  0  0
  2  8  1  0  0  0  0
  2  9  1  0  0  0  0
  3 10  1  0  0  0  0
  3 11  1  0  0  0  0
  3 12  1  0  0  0  0
  4 13  1  0  0  0  0
  4 14  1  0  0  0  0
  4 15  1  0  0  0  0
  5  6  2  0  0  0  0
  5 16  1  0  0  0  0
  6 17  1  0  0  0  0
  6 18  1  0  0  0  0
M  CHG  1   1   1
M  END
> <PUBCHEM_COMPOUND_CID>
10043

> <PUBCHEM_CONFORMER_RMSD>
0.4

> <PUBCHEM_CONFORMER_DIVERSEORDER>
1

> <PUBCHEM_MMFF94_PARTIAL_CHARGES>
9
1 -0.87
16 0.15
17 0.15
18 0.15
2 0.5
3 0.5
4 0.5
5 0.21
6 -0.3

> <PUBCHEM_EFFECTIVE_ROTOR_COUNT>
1

> <PUBCHEM_PHARMACOPHORE_FEATURES>
1
1 1 cation

> <PUBCHEM_HEAVY_ATOM_COUNT>
6

> <PUBCHEM_ATOM_DEF_STEREO_COUNT>
0

> <PUBCHEM_ATOM_UDEF_STEREO_COUNT>
0

> <PUBCHEM_BOND_DEF_STEREO_COUNT>
0

> <PUBCHEM_BOND_UDEF_STEREO_COUNT>
0

> <PUBCHEM_ISOTOPIC_ATOM_COUNT>
0

> <PUBCHEM_COMPONENT_COUNT>
1

> <PUBCHEM_CACTVS_TAUTO_COUNT>
1

> <PUBCHEM_CONFORMER_ID>
0000273B00000001

> <PUBCHEM_MMFF94_ENERGY>
23.4919

> <PUBCHEM_FEATURE_SELFOVERLAP>
5.074

> <PUBCHEM_SHAPE_FINGERPRINT>
137420 1 7776216053846571304
139733 1 15482662447017744206
16714656 1 17242152759659519445
20096714 4 17750810834856753537
21040471 1 17917435272131272663
24536 1 17024051297049065397
29004967 10 17604136069468271894
5943 1 15361025657575217010

> <PUBCHEM_SHAPE_MULTIPOLES>
118.5
1.92
1.14
1.12
0.71
0.01
-0.01
0
0.49
-0.23
-0.47
-0.28
0
0

> <PUBCHEM_SHAPE_SELFOVERLAP>
209.114

> <PUBCHEM_SHAPE_VOLUME>
80.7

> <PUBCHEM_COORDINATE_TYPE>
2
5
10

$$$$

