7376
  -OEChem-06261202023D

 16 16  0     0  0  0  0  0  0999 V2000
    2.6228   -0.9268    0.0002 F   0  0  0  0  0  0  0  0  0  0  0  0
    2.2184    0.9076   -1.0839 F   0  0  0  0  0  0  0  0  0  0  0  0
    2.1965    0.9057    1.0905 F   0  0  0  0  0  0  0  0  0  0  0  0
   -2.8587    1.5916   -0.0011 O   0  0  0  0  0  0  0  0  0  0  0  0
    0.3626   -0.1427   -0.0007 C   0  0  0  0  0  0  0  0  0  0  0  0
   -0.5783    0.8871   -0.0017 C   0  0  0  0  0  0  0  0  0  0  0  0
   -0.0587   -1.4724    0.0001 C   0  0  0  0  0  0  0  0  0  0  0  0
    1.8189    0.1777   -0.0006 C   0  0  0  0  0  0  0  0  0  0  0  0
   -1.9405    0.5871   -0.0018 C   0  0  0  0  0  0  0  0  0  0  0  0
   -1.4210   -1.7723    0.0000 C   0  0  0  0  0  0  0  0  0  0  0  0
   -2.3619   -0.7426   -0.0009 C   0  0  0  0  0  0  0  0  0  0  0  0
   -0.2534    1.9247   -0.0021 H   0  0  0  0  0  0  0  0  0  0  0  0
    0.6588   -2.2883    0.0008 H   0  0  0  0  0  0  0  0  0  0  0  0
   -1.7492   -2.8077    0.0006 H   0  0  0  0  0  0  0  0  0  0  0  0
   -3.4202   -0.9896   -0.0007 H   0  0  0  0  0  0  0  0  0  0  0  0
   -3.7506    1.2033   -0.0008 H   0  0  0  0  0  0  0  0  0  0  0  0
  1  8  1  0  0  0  0
  2  8  1  0  0  0  0
  3  8  1  0  0  0  0
  4  9  1  0  0  0  0
  4 16  1  0  0  0  0
  5  6  2  0  0  0  0
  5  7  1  0  0  0  0
  5  8  1  0  0  0  0
  6  9  1  0  0  0  0
  6 12  1  0  0  0  0
  7 10  2  0  0  0  0
  7 13  1  0  0  0  0
  9 11  2  0  0  0  0
 10 11  1  0  0  0  0
 10 14  1  0  0  0  0
 11 15  1  0  0  0  0
M  END
> <PUBCHEM_COMPOUND_CID>
7376

> <PUBCHEM_CONFORMER_RMSD>
0.4

> <PUBCHEM_CONFORMER_DIVERSEORDER>
1

> <PUBCHEM_MMFF94_PARTIAL_CHARGES>
16
1 -0.34
10 -0.15
11 -0.15
12 0.15
13 0.15
14 0.15
15 0.15
16 0.45
2 -0.34
3 -0.34
4 -0.53
5 -0.14
6 -0.15
7 -0.15
8 1.16
9 0.08

> <PUBCHEM_EFFECTIVE_ROTOR_COUNT>
1

> <PUBCHEM_PHARMACOPHORE_FEATURES>
2
1 4 donor
6 5 6 7 9 10 11 rings

> <PUBCHEM_HEAVY_ATOM_COUNT>
11

> <PUBCHEM_ATOM_DEF_STEREO_COUNT>
0

> <PUBCHEM_ATOM_UDEF_STEREO_COUNT>
0

> <PUBCHEM_BOND_DEF_STEREO_COUNT>
0

> <PUBCHEM_BOND_UDEF_STEREO_COUNT>
0

> <PUBCHEM_ISOTOPIC_ATOM_COUNT>
0

> <PUBCHEM_COMPONENT_COUNT>
1

> <PUBCHEM_CACTVS_TAUTO_COUNT>
3

> <PUBCHEM_CONFORMER_ID>
00001CD000000001

> <PUBCHEM_MMFF94_ENERGY>
18.2321

> <PUBCHEM_FEATURE_SELFOVERLAP>
10.148

> <PUBCHEM_SHAPE_FINGERPRINT>
10857977 72 18193283987723651987
12716758 59 18408042909511080371
12932764 1 17968090872239686222
14325111 11 18410574002378871045
15775835 57 18412258471346210336
16945 1 18266459793708649891
19973954 147 18337110059938898808
20645464 45 17895198753324010210
20653085 51 18270666649618560809
20871998 184 18116708522077558575
21028194 46 18335983159573467673
21040471 1 18410575106275104419
23552423 10 18273214183816800698
23559900 14 18187922928932150550
2748010 2 18410570725619686631
3248919 1 17988368069989883762
369184 2 18041001704554438603
5084963 1 18342457062278217594
8030462 33 18339927008782034590

> <PUBCHEM_SHAPE_MULTIPOLES>
198.68
3.83
1.65
0.73
0.72
0.27
0
-0.84
0.01
-0.78
0
0.33
-0.12
0

> <PUBCHEM_SHAPE_SELFOVERLAP>
419.754

> <PUBCHEM_SHAPE_VOLUME>
112.5

> <PUBCHEM_COORDINATE_TYPE>
2
5
10

$$$$

