13459
  -OEChem-06261214263D

 38 39  0     1  0  0  0  0  0999 V2000
   -0.0081   -1.5705   -0.4420 O   0  0  0  0  0  0  0  0  0  0  0  0
    0.7066    2.9088    0.5839 O   0  0  0  0  0  0  0  0  0  0  0  0
   -3.5665    1.3639    0.0165 O   0  0  0  0  0  0  0  0  0  0  0  0
    0.4379    0.6888   -0.0870 N   0  0  0  0  0  0  0  0  0  0  0  0
   -1.4124    2.1252    0.2409 N   0  0  0  0  0  0  0  0  0  0  0  0
    1.8506    0.4410    0.0727 C   0  0  0  0  0  0  0  0  0  0  0  0
    2.1012   -0.5524    1.2104 C   0  0  0  0  0  0  0  0  0  0  0  0
    2.4606   -0.0520   -1.2416 C   0  0  0  0  0  0  0  0  0  0  0  0
    3.5864   -0.8707    1.3615 C   0  0  0  0  0  0  0  0  0  0  0  0
    3.9451   -0.3727   -1.0875 C   0  0  0  0  0  0  0  0  0  0  0  0
    4.1931   -1.3599    0.0495 C   0  0  0  0  0  0  0  0  0  0  0  0
   -1.7808   -0.0014   -0.8675 C   0  0  1  0  0  0  0  0  0  0  0  0
   -0.3826   -0.3974   -0.4294 C   0  0  0  0  0  0  0  0  0  0  0  0
   -0.0275    1.9749    0.2501 C   0  0  0  0  0  0  0  0  0  0  0  0
   -2.7385   -1.1904   -0.8058 C   0  0  0  0  0  0  0  0  0  0  0  0
   -2.3600    1.1936   -0.1475 C   0  0  0  0  0  0  0  0  0  0  0  0
   -3.0369   -1.5646    0.6333 C   0  0  0  0  0  0  0  0  0  0  0  0
   -3.9681   -2.7643    0.6894 C   0  0  0  0  0  0  0  0  0  0  0  0
    2.3686    1.3713    0.3361 H   0  0  0  0  0  0  0  0  0  0  0  0
    1.5846   -1.5063    1.0852 H   0  0  0  0  0  0  0  0  0  0  0  0
    1.7269   -0.1317    2.1525 H   0  0  0  0  0  0  0  0  0  0  0  0
    2.3357    0.7145   -2.0169 H   0  0  0  0  0  0  0  0  0  0  0  0
    1.9620   -0.9494   -1.6223 H   0  0  0  0  0  0  0  0  0  0  0  0
    3.7252   -1.6304    2.1391 H   0  0  0  0  0  0  0  0  0  0  0  0
    4.1194    0.0277    1.6967 H   0  0  0  0  0  0  0  0  0  0  0  0
    4.4998    0.5537   -0.8931 H   0  0  0  0  0  0  0  0  0  0  0  0
    4.3336   -0.7847   -2.0257 H   0  0  0  0  0  0  0  0  0  0  0  0
    5.2706   -1.5137    0.1761 H   0  0  0  0  0  0  0  0  0  0  0  0
    3.7594   -2.3330   -0.2120 H   0  0  0  0  0  0  0  0  0  0  0  0
   -1.6834    0.2982   -1.9207 H   0  0  0  0  0  0  0  0  0  0  0  0
   -2.3195   -2.0503   -1.3430 H   0  0  0  0  0  0  0  0  0  0  0  0
   -3.6757   -0.9342   -1.3169 H   0  0  0  0  0  0  0  0  0  0  0  0
   -1.7687    3.0036    0.6073 H   0  0  0  0  0  0  0  0  0  0  0  0
   -3.5126   -0.7508    1.1877 H   0  0  0  0  0  0  0  0  0  0  0  0
   -2.1167   -1.8177    1.1714 H   0  0  0  0  0  0  0  0  0  0  0  0
   -4.9227   -2.5453    0.2002 H   0  0  0  0  0  0  0  0  0  0  0  0
   -3.5206   -3.6343    0.1980 H   0  0  0  0  0  0  0  0  0  0  0  0
   -4.1757   -3.0346    1.7298 H   0  0  0  0  0  0  0  0  0  0  0  0
  1 13  2  0  0  0  0
  2 14  2  0  0  0  0
  3 16  2  0  0  0  0
  4  6  1  0  0  0  0
  4 13  1  0  0  0  0
  4 14  1  0  0  0  0
  5 14  1  0  0  0  0
  5 16  1  0  0  0  0
  5 33  1  0  0  0  0
  6  7  1  0  0  0  0
  6  8  1  0  0  0  0
  6 19  1  0  0  0  0
  7  9  1  0  0  0  0
  7 20  1  0  0  0  0
  7 21  1  0  0  0  0
  8 10  1  0  0  0  0
  8 22  1  0  0  0  0
  8 23  1  0  0  0  0
  9 11  1  0  0  0  0
  9 24  1  0  0  0  0
  9 25  1  0  0  0  0
 10 11  1  0  0  0  0
 10 26  1  0  0  0  0
 10 27  1  0  0  0  0
 11 28  1  0  0  0  0
 11 29  1  0  0  0  0
 12 13  1  0  0  0  0
 12 15  1  0  0  0  0
 12 16  1  0  0  0  0
 12 30  1  0  0  0  0
 15 17  1  0  0  0  0
 15 31  1  0  0  0  0
 15 32  1  0  0  0  0
 17 18  1  0  0  0  0
 17 34  1  0  0  0  0
 17 35  1  0  0  0  0
 18 36  1  0  0  0  0
 18 37  1  0  0  0  0
 18 38  1  0  0  0  0
M  END
> <PUBCHEM_COMPOUND_CID>
13459

> <PUBCHEM_CONFORMER_RMSD>
0.6

> <PUBCHEM_CONFORMER_DIVERSEORDER>
1
23
22
29
6
13
31
14
27
28
34
21
15
12
25
16
19
5
24
30
7
4
26
18
10
32
20
3
2
33
17
9
8
11

> <PUBCHEM_MMFF94_PARTIAL_CHARGES>
11
1 -0.57
12 0.12
13 0.57
14 0.69
16 0.57
2 -0.57
3 -0.57
33 0.37
4 -0.42
5 -0.49
6 0.3

> <PUBCHEM_EFFECTIVE_ROTOR_COUNT>
4.8

> <PUBCHEM_PHARMACOPHORE_FEATURES>
8
1 1 acceptor
1 12 anion
1 18 hydrophobe
1 2 acceptor
1 3 acceptor
1 5 donor
6 4 5 12 13 14 16 rings
6 6 7 8 9 10 11 rings

> <PUBCHEM_HEAVY_ATOM_COUNT>
18

> <PUBCHEM_ATOM_DEF_STEREO_COUNT>
0

> <PUBCHEM_ATOM_UDEF_STEREO_COUNT>
1

> <PUBCHEM_BOND_DEF_STEREO_COUNT>
0

> <PUBCHEM_BOND_UDEF_STEREO_COUNT>
0

> <PUBCHEM_ISOTOPIC_ATOM_COUNT>
0

> <PUBCHEM_COMPONENT_COUNT>
1

> <PUBCHEM_CACTVS_TAUTO_COUNT>
3

> <PUBCHEM_CONFORMER_ID>
0000349300000001

> <PUBCHEM_MMFF94_ENERGY>
31.0741

> <PUBCHEM_FEATURE_SELFOVERLAP>
40.594

> <PUBCHEM_SHAPE_FINGERPRINT>
11132069 177 18261682578842005408
11543360 7 16415482610117464630
11680986 33 18263094240235204841
12032990 46 18408319964971861134
12236239 1 17988076820263550508
12553582 1 18263363598856018086
12633257 1 18263340565768790619
12824470 246 17917716781346681843
13103583 49 17981852356311778091
13140716 1 18335421249129265537
13296908 3 18333740104302667038
13538477 17 18271526506635245116
13760787 19 17917425462315257350
14115302 16 18201158848973738885
14787075 74 17985265175683900584
15219456 202 17168440332498209392
15375462 189 18131069363379471018
16752209 62 18340781393957863519
16945 1 18264492956264021357
17804303 29 18411416190105750063
18186145 218 17703792539651449078
18222031 100 18115306653526844535
19422 9 18131630088840831326
200 152 16558749074628250216
20281475 54 18059862778631022114
20645477 70 18048332050283411655
21041028 32 18114731643252196753
22802520 49 17823688853579095294
232386 152 18411423929236033828
2334 1 18263933124752353437
23402539 116 17970083320616856660
23557571 272 17969506094788281008
23559900 14 18115870866606209190
2748010 2 18263659376453463421
31174 14 18048315548812915891
474 4 17703216301518029604
5104073 3 18335426781310419698
5902787 121 18411422795396381088
7364860 26 17972320612126123480
77492 1 17988359390377839340
81228 2 17970904690110068800
8809292 202 18412263956341057779

> <PUBCHEM_SHAPE_MULTIPOLES>
342.86
7.33
2.57
1.13
1.37
0.71
0.01
-4.73
0.32
-2.21
0.71
0.71
-0.25
0.17

> <PUBCHEM_SHAPE_SELFOVERLAP>
706.517

> <PUBCHEM_SHAPE_VOLUME>
192.9

> <PUBCHEM_COORDINATE_TYPE>
2
5
10

$$$$

