17395766
  -OEChem-06241222522D

 51 54  0     0  0  0  0  0  0999 V2000
   12.1491    1.5521    0.0000 F   0  0  0  0  0  0  0  0  0  0  0  0
    5.6103    1.0591    0.0000 O   0  0  0  0  0  0  0  0  0  0  0  0
    9.2136    0.9335    0.0000 N   0  0  0  0  0  0  0  0  0  0  0  0
    7.2566    0.5210    0.0000 N   0  0  0  0  0  0  0  0  0  0  0  0
    4.6783   -3.4019    0.0000 N   0  0  0  0  0  0  0  0  0  0  0  0
    8.5458    1.6778    0.0000 C   0  0  0  0  0  0  0  0  0  0  0  0
    8.9030   -0.0171    0.0000 C   0  0  0  0  0  0  0  0  0  0  0  0
    7.9244   -0.2233    0.0000 C   0  0  0  0  0  0  0  0  0  0  0  0
    7.5673    1.4715    0.0000 C   0  0  0  0  0  0  0  0  0  0  0  0
   10.1921    1.1397    0.0000 C   0  0  0  0  0  0  0  0  0  0  0  0
    6.2781    0.3148    0.0000 C   0  0  0  0  0  0  0  0  0  0  0  0
    5.9674   -0.6357    0.0000 C   0  0  0  0  0  0  0  0  0  0  0  0
    4.9889   -0.8419    0.0000 C   0  0  0  0  0  0  0  0  0  0  0  0
   10.5028    2.0902    0.0000 C   0  0  0  0  0  0  0  0  0  0  0  0
    4.6783   -1.7924    0.0000 C   0  0  0  0  0  0  0  0  0  0  0  0
    3.7320   -2.0972    0.0000 C   0  0  0  0  0  0  0  0  0  0  0  0
    3.7320   -3.0972    0.0000 C   0  0  0  0  0  0  0  0  0  0  0  0
    5.2619   -2.5972    0.0000 C   0  0  0  0  0  0  0  0  0  0  0  0
   11.4813    2.2964    0.0000 C   0  0  0  0  0  0  0  0  0  0  0  0
    9.8349    2.8345    0.0000 C   0  0  0  0  0  0  0  0  0  0  0  0
    2.8660   -1.5972    0.0000 C   0  0  0  0  0  0  0  0  0  0  0  0
    2.8660   -3.5972    0.0000 C   0  0  0  0  0  0  0  0  0  0  0  0
   11.7920    3.2469    0.0000 C   0  0  0  0  0  0  0  0  0  0  0  0
   10.1456    3.7850    0.0000 C   0  0  0  0  0  0  0  0  0  0  0  0
    2.0000   -2.0972    0.0000 C   0  0  0  0  0  0  0  0  0  0  0  0
   11.1241    3.9912    0.0000 C   0  0  0  0  0  0  0  0  0  0  0  0
    2.0000   -3.0972    0.0000 C   0  0  0  0  0  0  0  0  0  0  0  0
    8.9235   -0.6367    0.0000 H   0  0  0  0  0  0  0  0  0  0  0  0
    9.5168   -0.1044    0.0000 H   0  0  0  0  0  0  0  0  0  0  0  0
    9.0721    2.0054    0.0000 H   0  0  0  0  0  0  0  0  0  0  0  0
    8.3145    2.2530    0.0000 H   0  0  0  0  0  0  0  0  0  0  0  0
    7.5467    2.0912    0.0000 H   0  0  0  0  0  0  0  0  0  0  0  0
    6.9534    1.5589    0.0000 H   0  0  0  0  0  0  0  0  0  0  0  0
    7.3981   -0.5509    0.0000 H   0  0  0  0  0  0  0  0  0  0  0  0
    8.1557   -0.7985    0.0000 H   0  0  0  0  0  0  0  0  0  0  0  0
   10.2127    0.5200    0.0000 H   0  0  0  0  0  0  0  0  0  0  0  0
   10.8059    1.0523    0.0000 H   0  0  0  0  0  0  0  0  0  0  0  0
    5.9880   -1.2554    0.0000 H   0  0  0  0  0  0  0  0  0  0  0  0
    6.5812   -0.7231    0.0000 H   0  0  0  0  0  0  0  0  0  0  0  0
    4.9684   -0.2223    0.0000 H   0  0  0  0  0  0  0  0  0  0  0  0
    4.3751   -0.7546    0.0000 H   0  0  0  0  0  0  0  0  0  0  0  0
    5.8819   -2.5972    0.0000 H   0  0  0  0  0  0  0  0  0  0  0  0
    9.2283    2.7066    0.0000 H   0  0  0  0  0  0  0  0  0  0  0  0
    4.8709   -3.9912    0.0000 H   0  0  0  0  0  0  0  0  0  0  0  0
    2.8660   -0.9772    0.0000 H   0  0  0  0  0  0  0  0  0  0  0  0
    2.8660   -4.2172    0.0000 H   0  0  0  0  0  0  0  0  0  0  0  0
   12.3986    3.3748    0.0000 H   0  0  0  0  0  0  0  0  0  0  0  0
    9.7315    4.2465    0.0000 H   0  0  0  0  0  0  0  0  0  0  0  0
    1.4631   -1.7872    0.0000 H   0  0  0  0  0  0  0  0  0  0  0  0
    1.4631   -3.4072    0.0000 H   0  0  0  0  0  0  0  0  0  0  0  0
   11.3167    4.5806    0.0000 H   0  0  0  0  0  0  0  0  0  0  0  0
  1 19  1  0  0  0  0
  2 11  2  0  0  0  0
  3  6  1  0  0  0  0
  3  7  1  0  0  0  0
  3 10  1  0  0  0  0
  4  8  1  0  0  0  0
  4  9  1  0  0  0  0
  4 11  1  0  0  0  0
  5 17  1  0  0  0  0
  5 18  1  0  0  0  0
  5 44  1  0  0  0  0
  6  9  1  0  0  0  0
  6 30  1  0  0  0  0
  6 31  1  0  0  0  0
  7  8  1  0  0  0  0
  7 28  1  0  0  0  0
  7 29  1  0  0  0  0
  8 34  1  0  0  0  0
  8 35  1  0  0  0  0
  9 32  1  0  0  0  0
  9 33  1  0  0  0  0
 10 14  1  0  0  0  0
 10 36  1  0  0  0  0
 10 37  1  0  0  0  0
 11 12  1  0  0  0  0
 12 13  1  0  0  0  0
 12 38  1  0  0  0  0
 12 39  1  0  0  0  0
 13 15  1  0  0  0  0
 13 40  1  0  0  0  0
 13 41  1  0  0  0  0
 14 19  1  0  0  0  0
 14 20  2  0  0  0  0
 15 16  1  0  0  0  0
 15 18  2  0  0  0  0
 16 17  1  0  0  0  0
 16 21  2  0  0  0  0
 17 22  2  0  0  0  0
 18 42  1  0  0  0  0
 19 23  2  0  0  0  0
 20 24  1  0  0  0  0
 20 43  1  0  0  0  0
 21 25  1  0  0  0  0
 21 45  1  0  0  0  0
 22 27  1  0  0  0  0
 22 46  1  0  0  0  0
 23 26  1  0  0  0  0
 23 47  1  0  0  0  0
 24 26  2  0  0  0  0
 24 48  1  0  0  0  0
 25 27  2  0  0  0  0
 25 49  1  0  0  0  0
 26 51  1  0  0  0  0
 27 50  1  0  0  0  0
M  END
> <PUBCHEM_COMPOUND_CID>
17395766

> <PUBCHEM_COMPOUND_CANONICALIZED>
1

> <PUBCHEM_CACTVS_COMPLEXITY>
494

> <PUBCHEM_CACTVS_HBOND_ACCEPTOR>
3

> <PUBCHEM_CACTVS_HBOND_DONOR>
1

> <PUBCHEM_CACTVS_ROTATABLE_BOND>
5

> <PUBCHEM_CACTVS_SUBSKEYS>
AAADceB7IQAAAAAAAAAAAAAAAAAAAWAAAAA8YIAAAAAAAFgB9AAAHwAQAAAADAjBngw8wPPJkACoAzV3VACCgCAxAiAI2aE4ZJgIYPLAkZGUIAhglgDIyAcYicCOgAAAAAACAAAAAAAAAAQAAAAAAAAAAA==

> <PUBCHEM_IUPAC_OPENEYE_NAME>
1-[4-[(2-fluorophenyl)methyl]piperazin-1-yl]-3-(1H-indol-3-yl)propan-1-one

> <PUBCHEM_IUPAC_CAS_NAME>
1-[4-[(2-fluorophenyl)methyl]-1-piperazinyl]-3-(1H-indol-3-yl)-1-propanone

> <PUBCHEM_IUPAC_NAME>
1-[4-[(2-fluorophenyl)methyl]piperazin-1-yl]-3-(1H-indol-3-yl)propan-1-one

> <PUBCHEM_IUPAC_SYSTEMATIC_NAME>
1-[4-[(2-fluorophenyl)methyl]piperazin-1-yl]-3-(1H-indol-3-yl)propan-1-one

> <PUBCHEM_IUPAC_TRADITIONAL_NAME>
1-[4-(2-fluorobenzyl)piperazino]-3-(1H-indol-3-yl)propan-1-one

> <PUBCHEM_IUPAC_INCHI>
InChI=1S/C22H24FN3O/c23-20-7-3-1-5-18(20)16-25-11-13-26(14-12-25)22(27)10-9-17-15-24-21-8-4-2-6-19(17)21/h1-8,15,24H,9-14,16H2

> <PUBCHEM_IUPAC_INCHIKEY>
IYWIXZUZFSCXGS-UHFFFAOYSA-N

> <PUBCHEM_XLOGP3_AA>
3.1

> <PUBCHEM_EXACT_MASS>
365.190341

> <PUBCHEM_MOLECULAR_FORMULA>
C22H24FN3O

> <PUBCHEM_MOLECULAR_WEIGHT>
365.443863

> <PUBCHEM_OPENEYE_CAN_SMILES>
C1CN(CCN1CC2=CC=CC=C2F)C(=O)CCC3=CNC4=CC=CC=C43

> <PUBCHEM_OPENEYE_ISO_SMILES>
C1CN(CCN1CC2=CC=CC=C2F)C(=O)CCC3=CNC4=CC=CC=C43

> <PUBCHEM_CACTVS_TPSA>
39.3

> <PUBCHEM_MONOISOTOPIC_WEIGHT>
365.190341

> <PUBCHEM_TOTAL_CHARGE>
0

> <PUBCHEM_HEAVY_ATOM_COUNT>
27

> <PUBCHEM_ATOM_DEF_STEREO_COUNT>
0

> <PUBCHEM_ATOM_UDEF_STEREO_COUNT>
0

> <PUBCHEM_BOND_DEF_STEREO_COUNT>
0

> <PUBCHEM_BOND_UDEF_STEREO_COUNT>
0

> <PUBCHEM_ISOTOPIC_ATOM_COUNT>
0

> <PUBCHEM_COMPONENT_COUNT>
1

> <PUBCHEM_CACTVS_TAUTO_COUNT>
1

> <PUBCHEM_COORDINATE_TYPE>
1
5
255

> <PUBCHEM_BONDANNOTATIONS>
14  19  8
14  20  8
15  16  8
15  18  8
16  17  8
16  21  8
17  22  8
19  23  8
20  24  8
21  25  8
22  27  8
23  26  8
24  26  8
25  27  8
5  17  8
5  18  8

$$$$

