12124
  -OEChem-06261206333D

 20 20  0     0  0  0  0  0  0999 V2000
    3.3956   -1.3109   -0.0012 O   0  0  0  0  0  0  0  0  0  0  0  0
   -2.7897    1.1321   -0.0026 O   0  0  0  0  0  0  0  0  0  0  0  0
   -1.3755   -0.7543    0.0007 N   0  0  0  0  0  0  0  0  0  0  0  0
   -0.0924   -0.2060    0.0010 C   0  0  0  0  0  0  0  0  0  0  0  0
    1.0238   -1.0426    0.0003 C   0  0  0  0  0  0  0  0  0  0  0  0
    0.0741    1.1789    0.0012 C   0  0  0  0  0  0  0  0  0  0  0  0
    2.3063   -0.4943   -0.0004 C   0  0  0  0  0  0  0  0  0  0  0  0
    1.3567    1.7272    0.0007 C   0  0  0  0  0  0  0  0  0  0  0  0
    2.4728    0.8905   -0.0003 C   0  0  0  0  0  0  0  0  0  0  0  0
   -2.6040   -0.0806    0.0005 C   0  0  0  0  0  0  0  0  0  0  0  0
   -3.7677   -1.0399    0.0001 C   0  0  0  0  0  0  0  0  0  0  0  0
    0.9026   -2.1235    0.0000 H   0  0  0  0  0  0  0  0  0  0  0  0
   -0.7402    1.8900    0.0021 H   0  0  0  0  0  0  0  0  0  0  0  0
   -1.4131   -1.7716    0.0007 H   0  0  0  0  0  0  0  0  0  0  0  0
    1.4876    2.8055    0.0009 H   0  0  0  0  0  0  0  0  0  0  0  0
    3.4666    1.3302   -0.0008 H   0  0  0  0  0  0  0  0  0  0  0  0
   -3.7427   -1.6505   -0.9068 H   0  0  0  0  0  0  0  0  0  0  0  0
   -4.7080   -0.4823    0.0277 H   0  0  0  0  0  0  0  0  0  0  0  0
   -3.7146   -1.6883    0.8792 H   0  0  0  0  0  0  0  0  0  0  0  0
    4.1996   -0.7635   -0.0018 H   0  0  0  0  0  0  0  0  0  0  0  0
  1  7  1  0  0  0  0
  1 20  1  0  0  0  0
  2 10  2  0  0  0  0
  3  4  1  0  0  0  0
  3 10  1  0  0  0  0
  3 14  1  0  0  0  0
  4  5  2  0  0  0  0
  4  6  1  0  0  0  0
  5  7  1  0  0  0  0
  5 12  1  0  0  0  0
  6  8  2  0  0  0  0
  6 13  1  0  0  0  0
  7  9  2  0  0  0  0
  8  9  1  0  0  0  0
  8 15  1  0  0  0  0
  9 16  1  0  0  0  0
 10 11  1  0  0  0  0
 11 17  1  0  0  0  0
 11 18  1  0  0  0  0
 11 19  1  0  0  0  0
M  END
> <PUBCHEM_COMPOUND_CID>
12124

> <PUBCHEM_CONFORMER_RMSD>
0.4

> <PUBCHEM_CONFORMER_DIVERSEORDER>
1
3
4
2

> <PUBCHEM_MMFF94_PARTIAL_CHARGES>
17
1 -0.53
10 0.57
11 0.06
12 0.15
13 0.15
14 0.37
15 0.15
16 0.15
2 -0.57
20 0.45
3 -0.55
4 0.12
5 -0.15
6 -0.15
7 0.08
8 -0.15
9 -0.15

> <PUBCHEM_EFFECTIVE_ROTOR_COUNT>
2

> <PUBCHEM_PHARMACOPHORE_FEATURES>
4
1 1 donor
1 2 acceptor
1 3 donor
6 4 5 6 7 8 9 rings

> <PUBCHEM_HEAVY_ATOM_COUNT>
11

> <PUBCHEM_ATOM_DEF_STEREO_COUNT>
0

> <PUBCHEM_ATOM_UDEF_STEREO_COUNT>
0

> <PUBCHEM_BOND_DEF_STEREO_COUNT>
0

> <PUBCHEM_BOND_UDEF_STEREO_COUNT>
0

> <PUBCHEM_ISOTOPIC_ATOM_COUNT>
0

> <PUBCHEM_COMPONENT_COUNT>
1

> <PUBCHEM_CACTVS_TAUTO_COUNT>
13

> <PUBCHEM_CONFORMER_ID>
00002F5C00000001

> <PUBCHEM_MMFF94_ENERGY>
29.3244

> <PUBCHEM_FEATURE_SELFOVERLAP>
20.297

> <PUBCHEM_SHAPE_FINGERPRINT>
10130415 120 18342460382572735306
10219947 1 18260266351930628390
12032990 46 18409725196761698630
12932764 1 17531250500388466317
14144814 61 18409166597625673683
14325111 11 18410856538434114849
16945 1 18194683670289083844
19973954 147 18411980235117868553
20201158 50 18412826910331282323
20645477 70 18410016524683738311
20871998 22 18189329242294351254
21040471 1 18050286973161725988
21501925 9 18410867542082272698
23402655 69 18409174294587025933
23552423 10 18343863303274541493
2748010 2 18411144649019422388
3248919 1 17489304140336483537
7364860 26 18261955129182831512

> <PUBCHEM_SHAPE_MULTIPOLES>
209.66
5.56
1.58
0.59
3.36
0.29
0
-1.48
0
-0.61
0
-0.01
0.01
0

> <PUBCHEM_SHAPE_SELFOVERLAP>
432.729

> <PUBCHEM_SHAPE_VOLUME>
119.9

> <PUBCHEM_COORDINATE_TYPE>
2
5
10

$$$$

