5617
  -OEChem-06261200462D

 60 64  0     0  0  0  0  0  0999 V2000
    8.3035    2.1560    0.0000 O   0  0  0  0  0  0  0  0  0  0  0  0
    5.2163    0.2935    0.0000 N   0  0  0  0  0  0  0  0  0  0  0  0
    6.4410   -0.9313    0.0000 N   0  0  0  0  0  0  0  0  0  0  0  0
    6.8893    0.7418    0.0000 N   0  0  0  0  0  0  0  0  0  0  0  0
    3.6730    0.0692    0.0000 C   0  0  0  0  0  0  0  0  0  0  0  0
    4.5092   -1.3792    0.0000 C   0  0  0  0  0  0  0  0  0  0  0  0
    2.8368   -1.3792    0.0000 C   0  0  0  0  0  0  0  0  0  0  0  0
    2.9819   -1.8143    0.0000 C   0  0  0  0  0  0  0  0  0  0  0  0
    4.5092   -0.4136    0.0000 C   0  0  0  0  0  0  0  0  0  0  0  0
    2.8368   -0.4136    0.0000 C   0  0  0  0  0  0  0  0  0  0  0  0
    2.9819   -0.7690    0.0000 C   0  0  0  0  0  0  0  0  0  0  0  0
    3.6730   -1.6819    0.0000 C   0  0  0  0  0  0  0  0  0  0  0  0
    3.8876   -2.2911    0.0000 C   0  0  0  0  0  0  0  0  0  0  0  0
    2.0000   -1.8619    0.0000 C   0  0  0  0  0  0  0  0  0  0  0  0
    6.1822    0.0347    0.0000 C   0  0  0  0  0  0  0  0  0  0  0  0
    7.4070   -1.1901    0.0000 C   0  0  0  0  0  0  0  0  0  0  0  0
    7.6658   -2.1560    0.0000 C   0  0  0  0  0  0  0  0  0  0  0  0
    8.1141   -0.4830    0.0000 C   0  0  0  0  0  0  0  0  0  0  0  0
    6.6305    1.7077    0.0000 C   0  0  0  0  0  0  0  0  0  0  0  0
    7.8552    0.4830    0.0000 C   0  0  0  0  0  0  0  0  0  0  0  0
    8.6317   -2.4148    0.0000 C   0  0  0  0  0  0  0  0  0  0  0  0
    9.0800   -0.7418    0.0000 C   0  0  0  0  0  0  0  0  0  0  0  0
    9.3388   -1.7077    0.0000 C   0  0  0  0  0  0  0  0  0  0  0  0
    7.3376    2.4148    0.0000 C   0  0  0  0  0  0  0  0  0  0  0  0
    8.5624    1.1901    0.0000 C   0  0  0  0  0  0  0  0  0  0  0  0
    5.1016   -1.5619    0.0000 H   0  0  0  0  0  0  0  0  0  0  0  0
    3.6730    0.6892    0.0000 H   0  0  0  0  0  0  0  0  0  0  0  0
    2.8912   -1.9968    0.0000 H   0  0  0  0  0  0  0  0  0  0  0  0
    2.8478   -2.4196    0.0000 H   0  0  0  0  0  0  0  0  0  0  0  0
    5.0820   -0.6509    0.0000 H   0  0  0  0  0  0  0  0  0  0  0  0
    3.5782   -2.8283    0.0000 H   0  0  0  0  0  0  0  0  0  0  0  0
    4.4127   -2.6206    0.0000 H   0  0  0  0  0  0  0  0  0  0  0  0
    3.3030   -2.1794    0.0000 H   0  0  0  0  0  0  0  0  0  0  0  0
    4.0430   -2.1794    0.0000 H   0  0  0  0  0  0  0  0  0  0  0  0
    2.6383   -0.2529    0.0000 H   0  0  0  0  0  0  0  0  0  0  0  0
    2.6247    0.1690    0.0000 H   0  0  0  0  0  0  0  0  0  0  0  0
    2.2262   -0.5213    0.0000 H   0  0  0  0  0  0  0  0  0  0  0  0
    2.3885   -0.9485    0.0000 H   0  0  0  0  0  0  0  0  0  0  0  0
    1.5188   -1.4710    0.0000 H   0  0  0  0  0  0  0  0  0  0  0  0
    1.8068   -2.4511    0.0000 H   0  0  0  0  0  0  0  0  0  0  0  0
    6.0026   -1.3697    0.0000 H   0  0  0  0  0  0  0  0  0  0  0  0
    7.2465   -0.5912    0.0000 H   0  0  0  0  0  0  0  0  0  0  0  0
    8.3761    0.0789    0.0000 H   0  0  0  0  0  0  0  0  0  0  0  0
    7.6062   -0.1273    0.0000 H   0  0  0  0  0  0  0  0  0  0  0  0
    7.0481   -2.2100    0.0000 H   0  0  0  0  0  0  0  0  0  0  0  0
    7.6117   -2.7736    0.0000 H   0  0  0  0  0  0  0  0  0  0  0  0
    7.5932   -0.0789    0.0000 H   0  0  0  0  0  0  0  0  0  0  0  0
    8.3631    0.1273    0.0000 H   0  0  0  0  0  0  0  0  0  0  0  0
    6.2749    2.2156    0.0000 H   0  0  0  0  0  0  0  0  0  0  0  0
    6.0686    1.4457    0.0000 H   0  0  0  0  0  0  0  0  0  0  0  0
    8.3697   -2.9767    0.0000 H   0  0  0  0  0  0  0  0  0  0  0  0
    9.1396   -2.7704    0.0000 H   0  0  0  0  0  0  0  0  0  0  0  0
    9.6976   -0.6877    0.0000 H   0  0  0  0  0  0  0  0  0  0  0  0
    9.1340   -0.1241    0.0000 H   0  0  0  0  0  0  0  0  0  0  0  0
    9.6944   -2.2156    0.0000 H   0  0  0  0  0  0  0  0  0  0  0  0
    9.9007   -1.4457    0.0000 H   0  0  0  0  0  0  0  0  0  0  0  0
    8.9180    0.6822    0.0000 H   0  0  0  0  0  0  0  0  0  0  0  0
    9.1243    1.4521    0.0000 H   0  0  0  0  0  0  0  0  0  0  0  0
    7.5996    2.9767    0.0000 H   0  0  0  0  0  0  0  0  0  0  0  0
    6.8297    2.7704    0.0000 H   0  0  0  0  0  0  0  0  0  0  0  0
  1 24  1  0  0  0  0
  1 25  1  0  0  0  0
  2  9  1  0  0  0  0
  2 15  2  0  0  0  0
  3 15  1  0  0  0  0
  3 16  1  0  0  0  0
  3 41  1  0  0  0  0
  4 15  1  0  0  0  0
  4 19  1  0  0  0  0
  4 20  1  0  0  0  0
  5  9  1  0  0  0  0
  5 10  1  0  0  0  0
  5 11  1  0  0  0  0
  5 27  1  0  0  0  0
  6  9  1  0  0  0  0
  6 12  1  0  0  0  0
  6 13  1  0  0  0  0
  6 26  1  0  0  0  0
  7 10  1  0  0  0  0
  7 12  1  0  0  0  0
  7 14  1  0  0  0  0
  7 28  1  0  0  0  0
  8 11  1  0  0  0  0
  8 13  1  0  0  0  0
  8 14  1  0  0  0  0
  8 29  1  0  0  0  0
  9 30  1  0  0  0  0
 10 36  1  0  0  0  0
 10 37  1  0  0  0  0
 11 35  1  0  0  0  0
 11 38  1  0  0  0  0
 12 33  1  0  0  0  0
 12 34  1  0  0  0  0
 13 31  1  0  0  0  0
 13 32  1  0  0  0  0
 14 39  1  0  0  0  0
 14 40  1  0  0  0  0
 16 17  1  0  0  0  0
 16 18  1  0  0  0  0
 16 42  1  0  0  0  0
 17 21  1  0  0  0  0
 17 45  1  0  0  0  0
 17 46  1  0  0  0  0
 18 22  1  0  0  0  0
 18 43  1  0  0  0  0
 18 44  1  0  0  0  0
 19 24  1  0  0  0  0
 19 49  1  0  0  0  0
 19 50  1  0  0  0  0
 20 25  1  0  0  0  0
 20 47  1  0  0  0  0
 20 48  1  0  0  0  0
 21 23  1  0  0  0  0
 21 51  1  0  0  0  0
 21 52  1  0  0  0  0
 22 23  1  0  0  0  0
 22 53  1  0  0  0  0
 22 54  1  0  0  0  0
 23 55  1  0  0  0  0
 23 56  1  0  0  0  0
 24 59  1  0  0  0  0
 24 60  1  0  0  0  0
 25 57  1  0  0  0  0
 25 58  1  0  0  0  0
M  END
> <PUBCHEM_COMPOUND_CID>
5617

> <PUBCHEM_COMPOUND_CANONICALIZED>
1

> <PUBCHEM_CACTVS_COMPLEXITY>
465

> <PUBCHEM_CACTVS_HBOND_ACCEPTOR>
2

> <PUBCHEM_CACTVS_HBOND_DONOR>
1

> <PUBCHEM_CACTVS_ROTATABLE_BOND>
4

> <PUBCHEM_CACTVS_SUBSKEYS>
AAADcfB7IAAAAAAAAAAAAAAAAAAAAAAAAAA8YMGDAAAAAAAAAAAAHgAQAAAADSjhgAYBAAPABAAgAAAAJAAAAAEAAAABAIAIAACCAAIAiAAHAAAIEAKQAAEQgMAOAAAAAAAAAAAQAAQAAAQAAAAAAAAAAA==

> <PUBCHEM_IUPAC_OPENEYE_NAME>
N'-(2-adamantyl)-N-cyclohexyl-morpholine-4-carboxamidine

> <PUBCHEM_IUPAC_CAS_NAME>
N'-(2-adamantyl)-N-cyclohexyl-4-morpholinecarboximidamide

> <PUBCHEM_IUPAC_NAME>
N'-(2-adamantyl)-N-cyclohexylmorpholine-4-carboximidamide

> <PUBCHEM_IUPAC_SYSTEMATIC_NAME>
N'-(2-adamantyl)-N-cyclohexyl-morpholine-4-carboximidamide

> <PUBCHEM_IUPAC_TRADITIONAL_NAME>
N'-(2-adamantyl)-N-cyclohexyl-morpholine-4-carboxamidine

> <PUBCHEM_IUPAC_INCHI>
InChI=1S/C21H35N3O/c1-2-4-19(5-3-1)22-21(24-6-8-25-9-7-24)23-20-17-11-15-10-16(13-17)14-18(20)12-15/h15-20H,1-14H2,(H,22,23)

> <PUBCHEM_IUPAC_INCHIKEY>
TYSWNCQHPKKRAE-UHFFFAOYSA-N

> <PUBCHEM_XLOGP3_AA>
3.5

> <PUBCHEM_EXACT_MASS>
345.278013

> <PUBCHEM_MOLECULAR_FORMULA>
C21H35N3O

> <PUBCHEM_MOLECULAR_WEIGHT>
345.5221

> <PUBCHEM_OPENEYE_CAN_SMILES>
C1CCC(CC1)NC(=NC2C3CC4CC(C3)CC2C4)N5CCOCC5

> <PUBCHEM_OPENEYE_ISO_SMILES>
C1CCC(CC1)NC(=NC2C3CC4CC(C3)CC2C4)N5CCOCC5

> <PUBCHEM_CACTVS_TPSA>
36.9

> <PUBCHEM_MONOISOTOPIC_WEIGHT>
345.278013

> <PUBCHEM_TOTAL_CHARGE>
0

> <PUBCHEM_HEAVY_ATOM_COUNT>
25

> <PUBCHEM_ATOM_DEF_STEREO_COUNT>
0

> <PUBCHEM_ATOM_UDEF_STEREO_COUNT>
0

> <PUBCHEM_BOND_DEF_STEREO_COUNT>
0

> <PUBCHEM_BOND_UDEF_STEREO_COUNT>
0

> <PUBCHEM_ISOTOPIC_ATOM_COUNT>
0

> <PUBCHEM_COMPONENT_COUNT>
1

> <PUBCHEM_CACTVS_TAUTO_COUNT>
2

> <PUBCHEM_COORDINATE_TYPE>
1
5
255

$$$$

