14062
  -OEChem-06241222413D

 29 28  0     0  0  0  0  0  0999 V2000
   -2.0000   -0.0151   -0.0004 C   0  0  0  0  0  0  0  0  0  0  0  0
   -0.5918   -0.6667   -0.0418 C   0  0  0  0  0  0  0  0  0  0  0  0
    0.5942    0.3056   -0.0093 C   0  0  0  0  0  0  0  0  0  0  0  0
    1.9255   -0.4518    0.0110 C   0  0  0  0  0  0  0  0  0  0  0  0
   -3.0499   -1.1435    0.0204 C   0  0  0  0  0  0  0  0  0  0  0  0
   -2.2467    0.8571   -1.2424 C   0  0  0  0  0  0  0  0  0  0  0  0
   -2.1806    0.8412    1.2639 C   0  0  0  0  0  0  0  0  0  0  0  0
    3.1129    0.5106    0.0061 C   0  0  0  0  0  0  0  0  0  0  0  0
    4.4364   -0.2375   -0.0075 C   0  0  0  0  0  0  0  0  0  0  0  0
   -0.5106   -1.2879   -0.9440 H   0  0  0  0  0  0  0  0  0  0  0  0
   -0.4968   -1.3540    0.8100 H   0  0  0  0  0  0  0  0  0  0  0  0
    0.5410    0.9433    0.8793 H   0  0  0  0  0  0  0  0  0  0  0  0
    0.5654    0.9606   -0.8868 H   0  0  0  0  0  0  0  0  0  0  0  0
    1.9731   -1.0909    0.9011 H   0  0  0  0  0  0  0  0  0  0  0  0
    1.9849   -1.1107   -0.8639 H   0  0  0  0  0  0  0  0  0  0  0  0
   -4.0682   -0.7393    0.0444 H   0  0  0  0  0  0  0  0  0  0  0  0
   -2.9658   -1.7784   -0.8689 H   0  0  0  0  0  0  0  0  0  0  0  0
   -2.9263   -1.7836    0.9013 H   0  0  0  0  0  0  0  0  0  0  0  0
   -1.5777    1.7234   -1.2682 H   0  0  0  0  0  0  0  0  0  0  0  0
   -3.2736    1.2403   -1.2572 H   0  0  0  0  0  0  0  0  0  0  0  0
   -2.0923    0.2849   -2.1638 H   0  0  0  0  0  0  0  0  0  0  0  0
   -1.5366    1.7264    1.2523 H   0  0  0  0  0  0  0  0  0  0  0  0
   -1.9499    0.2657    2.1673 H   0  0  0  0  0  0  0  0  0  0  0  0
   -3.2134    1.1979    1.3527 H   0  0  0  0  0  0  0  0  0  0  0  0
    3.0611    1.1624   -0.8739 H   0  0  0  0  0  0  0  0  0  0  0  0
    3.0724    1.1564    0.8910 H   0  0  0  0  0  0  0  0  0  0  0  0
    4.5345   -0.8768    0.8757 H   0  0  0  0  0  0  0  0  0  0  0  0
    5.2716    0.4698   -0.0095 H   0  0  0  0  0  0  0  0  0  0  0  0
    4.5222   -0.8669   -0.8989 H   0  0  0  0  0  0  0  0  0  0  0  0
  1  2  1  0  0  0  0
  1  5  1  0  0  0  0
  1  6  1  0  0  0  0
  1  7  1  0  0  0  0
  2  3  1  0  0  0  0
  2 10  1  0  0  0  0
  2 11  1  0  0  0  0
  3  4  1  0  0  0  0
  3 12  1  0  0  0  0
  3 13  1  0  0  0  0
  4  8  1  0  0  0  0
  4 14  1  0  0  0  0
  4 15  1  0  0  0  0
  5 16  1  0  0  0  0
  5 17  1  0  0  0  0
  5 18  1  0  0  0  0
  6 19  1  0  0  0  0
  6 20  1  0  0  0  0
  6 21  1  0  0  0  0
  7 22  1  0  0  0  0
  7 23  1  0  0  0  0
  7 24  1  0  0  0  0
  8  9  1  0  0  0  0
  8 25  1  0  0  0  0
  8 26  1  0  0  0  0
  9 27  1  0  0  0  0
  9 28  1  0  0  0  0
  9 29  1  0  0  0  0
M  END
> <PUBCHEM_COMPOUND_CID>
14062

> <PUBCHEM_CONFORMER_RMSD>
0.6

> <PUBCHEM_CONFORMER_DIVERSEORDER>
1
10
11
3
5
9
4
8
7
6
2

> <PUBCHEM_MMFF94_PARTIAL_CHARGES>
0

> <PUBCHEM_EFFECTIVE_ROTOR_COUNT>
4

> <PUBCHEM_PHARMACOPHORE_FEATURES>
3
1 9 hydrophobe
4 1 5 6 7 hydrophobe
5 1 2 3 4 8 hydrophobe

> <PUBCHEM_HEAVY_ATOM_COUNT>
9

> <PUBCHEM_ATOM_DEF_STEREO_COUNT>
0

> <PUBCHEM_ATOM_UDEF_STEREO_COUNT>
0

> <PUBCHEM_BOND_DEF_STEREO_COUNT>
0

> <PUBCHEM_BOND_UDEF_STEREO_COUNT>
0

> <PUBCHEM_ISOTOPIC_ATOM_COUNT>
0

> <PUBCHEM_COMPONENT_COUNT>
1

> <PUBCHEM_CACTVS_TAUTO_COUNT>
1

> <PUBCHEM_CONFORMER_ID>
000036EE00000001

> <PUBCHEM_MMFF94_ENERGY>
9.7378

> <PUBCHEM_FEATURE_SELFOVERLAP>
15.224

> <PUBCHEM_SHAPE_FINGERPRINT>
11062470 55 9439410124805294290
12932764 1 18131353016226379800
13024252 1 15626224619985038071
14325111 11 18342177769540558182
190213 19 18260831501402917454
1986462 14 18411133649819024550
20279233 1 12463577287527376920
20645464 45 18411974793077670095
2306618 200 18340772636392939921
23380061 127 17894911832181126971
23402539 116 17531254954427749717
3248919 1 18113621213643253318
5084963 1 18342458101887072097

> <PUBCHEM_SHAPE_MULTIPOLES>
185.22
6.94
1.04
0.97
7.39
0.06
-0.01
0.43
0.02
-0.66
0
-0.77
-0.3
0.02

> <PUBCHEM_SHAPE_SELFOVERLAP>
328.818

> <PUBCHEM_SHAPE_VOLUME>
124.1

> <PUBCHEM_COORDINATE_TYPE>
2
5
10

$$$$

