13270
  -OEChem-06261208213D

 35 35  0     1  0  0  0  0  0999 V2000
   -0.7637    3.1870    0.6852 S   0  0  0  0  0  0  0  0  0  0  0  0
    1.7694   -1.0281   -0.2840 N   0  0  0  0  0  0  0  0  0  0  0  0
   -0.5706   -1.1768   -0.2249 N   0  0  0  0  0  0  0  0  0  0  0  0
    0.5372    0.9156    0.1646 N   0  0  0  0  0  0  0  0  0  0  0  0
   -2.9132   -1.2632   -0.1512 N   0  0  0  0  0  0  0  0  0  0  0  0
   -1.8583    0.7955    0.2327 N   0  0  0  0  0  0  0  0  0  0  0  0
    3.0356   -0.3318   -0.1908 C   0  0  1  0  0  0  0  0  0  0  0  0
    4.1725   -1.3293    0.0613 C   0  0  0  0  0  0  0  0  0  0  0  0
    3.2642    0.4394   -1.4867 C   0  0  0  0  0  0  0  0  0  0  0  0
    3.9833   -2.1227    1.3480 C   0  0  0  0  0  0  0  0  0  0  0  0
    0.5432   -0.4121   -0.1099 C   0  0  0  0  0  0  0  0  0  0  0  0
   -1.7229   -0.5117   -0.0428 C   0  0  0  0  0  0  0  0  0  0  0  0
   -4.2110   -0.6883    0.0180 C   0  0  0  0  0  0  0  0  0  0  0  0
   -0.6867    1.4454    0.3217 C   0  0  0  0  0  0  0  0  0  0  0  0
   -5.3019   -1.7253   -0.1888 C   0  0  0  0  0  0  0  0  0  0  0  0
    0.7230    3.8065   -0.1524 C   0  0  0  0  0  0  0  0  0  0  0  0
    3.0209    0.3744    0.6495 H   0  0  0  0  0  0  0  0  0  0  0  0
    5.1258   -0.7897    0.1162 H   0  0  0  0  0  0  0  0  0  0  0  0
    4.2523   -2.0339   -0.7761 H   0  0  0  0  0  0  0  0  0  0  0  0
    4.2282    0.9588   -1.4620 H   0  0  0  0  0  0  0  0  0  0  0  0
    3.2649   -0.2310   -2.3538 H   0  0  0  0  0  0  0  0  0  0  0  0
    2.4896    1.1940   -1.6566 H   0  0  0  0  0  0  0  0  0  0  0  0
    1.7573   -2.0053   -0.5532 H   0  0  0  0  0  0  0  0  0  0  0  0
    3.0969   -2.7628    1.3035 H   0  0  0  0  0  0  0  0  0  0  0  0
    4.8502   -2.7690    1.5200 H   0  0  0  0  0  0  0  0  0  0  0  0
    3.8844   -1.4544    2.2093 H   0  0  0  0  0  0  0  0  0  0  0  0
   -4.3107   -0.2680    1.0256 H   0  0  0  0  0  0  0  0  0  0  0  0
   -4.3626    0.1260   -0.7002 H   0  0  0  0  0  0  0  0  0  0  0  0
   -2.8089   -2.2502   -0.3562 H   0  0  0  0  0  0  0  0  0  0  0  0
   -5.2511   -2.1522   -1.1961 H   0  0  0  0  0  0  0  0  0  0  0  0
   -5.2025   -2.5472    0.5282 H   0  0  0  0  0  0  0  0  0  0  0  0
   -6.2897   -1.2730   -0.0573 H   0  0  0  0  0  0  0  0  0  0  0  0
    0.7473    4.8968   -0.0760 H   0  0  0  0  0  0  0  0  0  0  0  0
    0.7086    3.5316   -1.2106 H   0  0  0  0  0  0  0  0  0  0  0  0
    1.6256    3.4070    0.3179 H   0  0  0  0  0  0  0  0  0  0  0  0
  1 14  1  0  0  0  0
  1 16  1  0  0  0  0
  2  7  1  0  0  0  0
  2 11  1  0  0  0  0
  2 23  1  0  0  0  0
  3 11  1  0  0  0  0
  3 12  2  0  0  0  0
  4 11  2  0  0  0  0
  4 14  1  0  0  0  0
  5 12  1  0  0  0  0
  5 13  1  0  0  0  0
  5 29  1  0  0  0  0
  6 12  1  0  0  0  0
  6 14  2  0  0  0  0
  7  8  1  0  0  0  0
  7  9  1  0  0  0  0
  7 17  1  0  0  0  0
  8 10  1  0  0  0  0
  8 18  1  0  0  0  0
  8 19  1  0  0  0  0
  9 20  1  0  0  0  0
  9 21  1  0  0  0  0
  9 22  1  0  0  0  0
 10 24  1  0  0  0  0
 10 25  1  0  0  0  0
 10 26  1  0  0  0  0
 13 15  1  0  0  0  0
 13 27  1  0  0  0  0
 13 28  1  0  0  0  0
 15 30  1  0  0  0  0
 15 31  1  0  0  0  0
 15 32  1  0  0  0  0
 16 33  1  0  0  0  0
 16 34  1  0  0  0  0
 16 35  1  0  0  0  0
M  END
> <PUBCHEM_COMPOUND_CID>
13270

> <PUBCHEM_CONFORMER_RMSD>
0.8

> <PUBCHEM_CONFORMER_DIVERSEORDER>
1
116
145
107
43
115
110
72
150
73
44
11
105
141
76
49
98
111
32
75
80
65
102
89
139
56
45
51
121
125
147
35
38
126
144
83
112
135
84
90
155
106
108
6
148
34
143
93
124
130
119
17
117
104
81
66
114
50
132
26
133
46
128
136
54
77
103
57
91
134
21
60
137
23
118
63
92
122
4
95
31
113
47
101
2
40
22
153
70
78
120
86
28
55
5
131
25
138
64
29
99
68
88
3
36
129
59
151
154
52
127
53
100
140
7
67
87
39
94
48
149
74
142
14
33
69
12
82
24
146
30
13
71
10
41
19
61
27
20
123
152
8
15
62
96
18
109
9
58
16
85
79
42
97
37

> <PUBCHEM_MMFF94_PARTIAL_CHARGES>
14
1 -0.33
11 0.72
12 0.72
13 0.37
14 0.72
16 0.23
2 -0.87
23 0.4
29 0.4
3 -0.62
4 -0.62
5 -0.87
6 -0.62
7 0.37

> <PUBCHEM_EFFECTIVE_ROTOR_COUNT>
6

> <PUBCHEM_PHARMACOPHORE_FEATURES>
7
1 10 hydrophobe
1 16 hydrophobe
1 2 donor
1 5 donor
4 2 3 4 11 cation
4 3 5 6 12 cation
6 3 4 6 11 12 14 rings

> <PUBCHEM_HEAVY_ATOM_COUNT>
16

> <PUBCHEM_ATOM_DEF_STEREO_COUNT>
0

> <PUBCHEM_ATOM_UDEF_STEREO_COUNT>
1

> <PUBCHEM_BOND_DEF_STEREO_COUNT>
0

> <PUBCHEM_BOND_UDEF_STEREO_COUNT>
0

> <PUBCHEM_ISOTOPIC_ATOM_COUNT>
0

> <PUBCHEM_COMPONENT_COUNT>
1

> <PUBCHEM_CACTVS_TAUTO_COUNT>
9

> <PUBCHEM_CONFORMER_ID>
000033D600000001

> <PUBCHEM_MMFF94_ENERGY>
32.8111

> <PUBCHEM_FEATURE_SELFOVERLAP>
35.562

> <PUBCHEM_SHAPE_FINGERPRINT>
10989021 7 18335417933050418393
11265709 11 18409728469315463321
12553582 1 18261395524618699999
13955234 65 17976538309013369065
14178342 30 17980208805218499994
15042514 8 18193555803366419097
17492 89 18267586995307822034
18222031 100 18113616755546548967
200 152 18272936041571233422
20510252 161 18188491397222098122
20671657 1 17899974937804964689
20671657 53 18409166584946649405
21296965 67 18408041805757219705
21524375 3 17478318095046081344
221490 88 17979069393370872171
2297311 6 18187918526121329614
2306618 200 17843692298619585852
23366157 5 17982176621477575205
23402539 116 18334582381707258551
23557571 272 17824538797610904196
23558518 356 17980470479799766571
23598288 3 17982991625607786832
23598291 2 17986375905967006302
2748010 2 18261971690270886697
3071541 12 18047466725884271665
3071541 250 18263634087527723485
3071541 37 17978507538454639933
3091708 16 9498340670714771777
312423 11 18200013171064257790
5374978 207 18335707134989740946
633830 44 12463568444174552467
68521 5 18337105769467056165
7164475 11 18267581484774331070
7364860 26 18046343037732586157
7615 1 18129652145079864516
81228 2 18190441934759761001
90316 7 18337952423416753664

> <PUBCHEM_SHAPE_MULTIPOLES>
308.22
8.33
3.48
0.93
3.91
4.61
0.02
-8.64
0.09
0.05
-0.7
-0.94
-0.06
-1.24

> <PUBCHEM_SHAPE_SELFOVERLAP>
590.991

> <PUBCHEM_SHAPE_VOLUME>
190

> <PUBCHEM_COORDINATE_TYPE>
2
5
10

$$$$

