8860
  -OEChem-06261203113D

 10 10  0     0  0  0  0  0  0999 V2000
    0.7204   -1.5743    0.0014 S   0  0  0  0  0  0  0  0  0  0  0  0
    2.6896    0.6745   -0.0005 S   0  0  0  0  0  0  0  0  0  0  0  0
   -2.2666    0.8183    0.0007 O   0  0  0  0  0  0  0  0  0  0  0  0
    0.0369    0.9340   -0.0003 N   0  0  0  0  0  0  0  0  0  0  0  0
   -1.0546   -1.2457   -0.0018 C   0  0  0  0  0  0  0  0  0  0  0  0
   -1.1713    0.2638    0.0001 C   0  0  0  0  0  0  0  0  0  0  0  0
    1.0456    0.1294    0.0003 C   0  0  0  0  0  0  0  0  0  0  0  0
   -1.5207   -1.6550    0.8973 H   0  0  0  0  0  0  0  0  0  0  0  0
   -1.5169   -1.6523   -0.9041 H   0  0  0  0  0  0  0  0  0  0  0  0
    2.4290    1.9899   -0.0014 H   0  0  0  0  0  0  0  0  0  0  0  0
  1  5  1  0  0  0  0
  1  7  1  0  0  0  0
  2  7  1  0  0  0  0
  2 10  1  0  0  0  0
  3  6  2  0  0  0  0
  4  6  1  0  0  0  0
  4  7  2  0  0  0  0
  5  6  1  0  0  0  0
  5  8  1  0  0  0  0
  5  9  1  0  0  0  0
M  END
> <PUBCHEM_COMPOUND_CID>
8860

> <PUBCHEM_CONFORMER_RMSD>
0.4

> <PUBCHEM_CONFORMER_DIVERSEORDER>
1

> <PUBCHEM_MMFF94_PARTIAL_CHARGES>
8
1 -0.37
10 0.18
2 -0.32
3 -0.57
4 -0.66
5 0.29
6 0.72
7 0.73

> <PUBCHEM_EFFECTIVE_ROTOR_COUNT>
0.4

> <PUBCHEM_PHARMACOPHORE_FEATURES>
4
1 3 acceptor
1 4 acceptor
1 4 donor
5 1 4 5 6 7 rings

> <PUBCHEM_HEAVY_ATOM_COUNT>
7

> <PUBCHEM_ATOM_DEF_STEREO_COUNT>
0

> <PUBCHEM_ATOM_UDEF_STEREO_COUNT>
0

> <PUBCHEM_BOND_DEF_STEREO_COUNT>
0

> <PUBCHEM_BOND_UDEF_STEREO_COUNT>
0

> <PUBCHEM_ISOTOPIC_ATOM_COUNT>
0

> <PUBCHEM_COMPONENT_COUNT>
1

> <PUBCHEM_CACTVS_TAUTO_COUNT>
3

> <PUBCHEM_CONFORMER_ID>
0000229C00000001

> <PUBCHEM_MMFF94_ENERGY>
4.5192

> <PUBCHEM_FEATURE_SELFOVERLAP>
20.347

> <PUBCHEM_SHAPE_FINGERPRINT>
14390081 3 18260270741545570920
16714656 1 18267019466681002774
20096714 4 18410574023822091506
21040471 1 18410573993841625506
23552423 10 18272087171877301910
29004967 10 17988632042943195385

> <PUBCHEM_SHAPE_MULTIPOLES>
140.91
2.99
1.52
0.62
1.13
0.59
0
-1.07
0
-0.17
0
0.07
0.04
0

> <PUBCHEM_SHAPE_SELFOVERLAP>
261.618

> <PUBCHEM_SHAPE_VOLUME>
90.9

> <PUBCHEM_COORDINATE_TYPE>
2
5
10

$$$$

