7847039
  -OEChem-06241222483D

 46 48  0     1  0  0  0  0  0999 V2000
    2.2958   -3.7883   -1.8642 Cl  0  0  0  0  0  0  0  0  0  0  0  0
   -2.6464   -1.2009   -1.6128 S   0  0  0  0  0  0  0  0  0  0  0  0
   -1.3071    3.4853    0.2996 O   0  0  0  0  0  0  0  0  0  0  0  0
    0.4840    2.0318    1.8264 O   0  0  0  0  0  0  0  0  0  0  0  0
   -1.2101    2.3228   -1.6907 O   0  0  0  0  0  0  0  0  0  0  0  0
    2.1537    2.5433    0.2899 N   0  0  0  0  0  0  0  0  0  0  0  0
   -2.9192   -0.1693    0.7354 N   0  0  0  0  0  0  0  0  0  0  0  0
    3.1314    1.5792    0.7397 C   0  0  1  0  0  0  0  0  0  0  0  0
    2.9205    0.2307    0.0859 C   0  0  0  0  0  0  0  0  0  0  0  0
    4.5424    2.1221    0.5226 C   0  0  0  0  0  0  0  0  0  0  0  0
   -3.8355    1.2253   -1.0857 C   0  0  0  0  0  0  0  0  0  0  0  0
   -3.3041    2.5337   -0.4715 C   0  0  0  0  0  0  0  0  0  0  0  0
   -3.1604    0.0280   -0.5397 C   0  0  0  0  0  0  0  0  0  0  0  0
    2.4583    0.1571   -1.2281 C   0  0  0  0  0  0  0  0  0  0  0  0
    3.1900   -0.9388    0.7967 C   0  0  0  0  0  0  0  0  0  0  0  0
    0.9063    2.6862    0.8769 C   0  0  0  0  0  0  0  0  0  0  0  0
   -2.0368   -2.1009   -0.2743 C   0  0  0  0  0  0  0  0  0  0  0  0
   -2.2750   -1.3863    0.9036 C   0  0  0  0  0  0  0  0  0  0  0  0
    0.0921    3.7703    0.2034 C   0  0  0  0  0  0  0  0  0  0  0  0
   -1.8290    2.7470   -0.7246 C   0  0  0  0  0  0  0  0  0  0  0  0
    2.2655   -1.0856   -1.8313 C   0  0  0  0  0  0  0  0  0  0  0  0
    2.9972   -2.1817    0.1938 C   0  0  0  0  0  0  0  0  0  0  0  0
    2.5350   -2.2551   -1.1203 C   0  0  0  0  0  0  0  0  0  0  0  0
   -1.3939   -3.3492   -0.2672 C   0  0  0  0  0  0  0  0  0  0  0  0
   -1.8540   -1.9433    2.1307 C   0  0  0  0  0  0  0  0  0  0  0  0
   -0.9874   -3.8778    0.9604 C   0  0  0  0  0  0  0  0  0  0  0  0
   -1.2134   -3.1856    2.1450 C   0  0  0  0  0  0  0  0  0  0  0  0
    2.9796    1.4596    1.8207 H   0  0  0  0  0  0  0  0  0  0  0  0
    2.3845    3.1081   -0.5228 H   0  0  0  0  0  0  0  0  0  0  0  0
    4.7494    2.2833   -0.5418 H   0  0  0  0  0  0  0  0  0  0  0  0
    4.6726    3.0825    1.0335 H   0  0  0  0  0  0  0  0  0  0  0  0
    5.2966    1.4271    0.9071 H   0  0  0  0  0  0  0  0  0  0  0  0
   -4.9096    1.1512   -0.8765 H   0  0  0  0  0  0  0  0  0  0  0  0
   -3.7310    1.2822   -2.1763 H   0  0  0  0  0  0  0  0  0  0  0  0
   -3.8442    3.3882   -0.8934 H   0  0  0  0  0  0  0  0  0  0  0  0
   -3.4822    2.5212    0.6110 H   0  0  0  0  0  0  0  0  0  0  0  0
    2.2533    1.0504   -1.8115 H   0  0  0  0  0  0  0  0  0  0  0  0
    3.5521   -0.8951    1.8204 H   0  0  0  0  0  0  0  0  0  0  0  0
    0.3957    3.9304   -0.8372 H   0  0  0  0  0  0  0  0  0  0  0  0
    0.2740    4.7060    0.7428 H   0  0  0  0  0  0  0  0  0  0  0  0
    1.9066   -1.1278   -2.8565 H   0  0  0  0  0  0  0  0  0  0  0  0
    3.2104   -3.0848    0.7600 H   0  0  0  0  0  0  0  0  0  0  0  0
   -1.2135   -3.8949   -1.1883 H   0  0  0  0  0  0  0  0  0  0  0  0
   -2.0248   -1.4108    3.0620 H   0  0  0  0  0  0  0  0  0  0  0  0
   -0.4865   -4.8420    0.9877 H   0  0  0  0  0  0  0  0  0  0  0  0
   -0.8892   -3.6120    3.0904 H   0  0  0  0  0  0  0  0  0  0  0  0
  1 23  1  0  0  0  0
  2 13  1  0  0  0  0
  2 17  1  0  0  0  0
  3 19  1  0  0  0  0
  3 20  1  0  0  0  0
  4 16  2  0  0  0  0
  5 20  2  0  0  0  0
  6  8  1  0  0  0  0
  6 16  1  0  0  0  0
  6 29  1  0  0  0  0
  7 13  2  0  0  0  0
  7 18  1  0  0  0  0
  8  9  1  0  0  0  0
  8 10  1  0  0  0  0
  8 28  1  0  0  0  0
  9 14  2  0  0  0  0
  9 15  1  0  0  0  0
 10 30  1  0  0  0  0
 10 31  1  0  0  0  0
 10 32  1  0  0  0  0
 11 12  1  0  0  0  0
 11 13  1  0  0  0  0
 11 33  1  0  0  0  0
 11 34  1  0  0  0  0
 12 20  1  0  0  0  0
 12 35  1  0  0  0  0
 12 36  1  0  0  0  0
 14 21  1  0  0  0  0
 14 37  1  0  0  0  0
 15 22  2  0  0  0  0
 15 38  1  0  0  0  0
 16 19  1  0  0  0  0
 17 18  1  0  0  0  0
 17 24  2  0  0  0  0
 18 25  2  0  0  0  0
 19 39  1  0  0  0  0
 19 40  1  0  0  0  0
 21 23  2  0  0  0  0
 21 41  1  0  0  0  0
 22 23  1  0  0  0  0
 22 42  1  0  0  0  0
 24 26  1  0  0  0  0
 24 43  1  0  0  0  0
 25 27  1  0  0  0  0
 25 44  1  0  0  0  0
 26 27  2  0  0  0  0
 26 45  1  0  0  0  0
 27 46  1  0  0  0  0
M  END
> <PUBCHEM_COMPOUND_CID>
7847039

> <PUBCHEM_CONFORMER_RMSD>
1.2

> <PUBCHEM_CONFORMER_DIVERSEORDER>
1
53
71
157
22
61
112
219
93
41
8
220
88
65
16
70
44
21
236
14
224
226
151
92
82
153
109
166
138
28
218
165
60
214
221
105
125
15
26
49
2
106
36
130
85
202
32
91
78
136
3
163
141
204
168
143
184
192
104
208
209
199
69
87
183
81
51
206
150
228
145
127
38
59
229
156
211
98
152
31
172
89
118
101
83
96
234
90
160
24
35
116
178
139
132
227
75
142
169
213
225
29
196
137
97
86
162
215
133
238
171
62
40
37
54
198
57
200
102
72
134
11
175
212
58
108
147
110
46
25
7
126
181
13
231
50
68
100
67
120
189
203
48
12
149
158
19
47
122
242
191
99
20
129
148
117
176
42
119
185
167
5
241
140
56
9
39
195
10
222
115
18
154
144
207
170
76
239
193
74
223
52
114
113
155
77
131
79
27
182
23
95
173
63
124
6
201
240
80
33
34
190
128
232
233
73
121
177
197
186
55
180
187
159
103
174
188
135
30
43
237
107
123
161
146
194
230
66
45
235
164
205
17
94
210
216
84
4
179
111
217
64

> <PUBCHEM_MMFF94_PARTIAL_CHARGES>
35
1 -0.18
11 0.18
12 0.06
13 0.2
14 -0.15
15 -0.15
16 0.57
17 0.04
18 0.23
19 0.34
2 -0.08
20 0.66
21 -0.15
22 -0.15
23 0.18
24 -0.15
25 -0.15
26 -0.15
27 -0.15
29 0.37
3 -0.43
37 0.15
38 0.15
4 -0.57
41 0.15
42 0.15
43 0.15
44 0.15
45 0.15
46 0.15
5 -0.57
6 -0.73
7 -0.57
8 0.44
9 -0.14

> <PUBCHEM_EFFECTIVE_ROTOR_COUNT>
9

> <PUBCHEM_PHARMACOPHORE_FEATURES>
7
1 4 acceptor
1 5 acceptor
1 6 donor
1 7 acceptor
5 2 7 13 17 18 rings
6 17 18 24 25 26 27 rings
6 9 14 15 21 22 23 rings

> <PUBCHEM_HEAVY_ATOM_COUNT>
27

> <PUBCHEM_ATOM_DEF_STEREO_COUNT>
1

> <PUBCHEM_ATOM_UDEF_STEREO_COUNT>
0

> <PUBCHEM_BOND_DEF_STEREO_COUNT>
0

> <PUBCHEM_BOND_UDEF_STEREO_COUNT>
0

> <PUBCHEM_ISOTOPIC_ATOM_COUNT>
0

> <PUBCHEM_COMPONENT_COUNT>
1

> <PUBCHEM_CACTVS_TAUTO_COUNT>
4

> <PUBCHEM_CONFORMER_ID>
0077BC7F00000001

> <PUBCHEM_MMFF94_ENERGY>
46.3197

> <PUBCHEM_FEATURE_SELFOVERLAP>
35.591

> <PUBCHEM_SHAPE_FINGERPRINT>
10366900 7 18267030448775216092
10653451 467 17912927180913382899
10675989 125 18122638411403524725
10708813 3 15311531884712144031
12156800 1 12812353709923313604
12539773 59 15732324961881805695
12788726 201 18121494915341763098
13122387 1 18265614462350390977
13402501 40 18338240353692250221
1361 2 17111303922935477655
14117953 113 17758955918201067079
14251757 5 18195785553266796206
14725015 67 18124041384049977465
14931854 50 17689996056234067183
19930381 70 18334867125475867639
20764821 26 18339369646522874016
20765182 5 16538499634909581778
238 59 17829347786281737566
35225 105 17544149077383622319
354706 35 18339377265826486972
5282940 2 16829235772084949267
5309563 4 17691688887951260035
6287921 2 17037499234616499666

> <PUBCHEM_SHAPE_MULTIPOLES>
533.8
6.74
5.99
1.9
2.31
0.07
0.13
1.33
-0.86
-0.4
0.47
-0.28
-1.29
2.61

> <PUBCHEM_SHAPE_SELFOVERLAP>
1115.409

> <PUBCHEM_SHAPE_VOLUME>
303.9

> <PUBCHEM_COORDINATE_TYPE>
2
5
10

$$$$

