17396433
  -OEChem-06241222562D

 38 39  0     0  0  0  0  0  0999 V2000
    3.7320    1.2875    0.0000 S   0  0  0  0  0  0  0  0  0  0  0  0
    2.8660   -4.2125    0.0000 O   0  0  0  0  0  0  0  0  0  0  0  0
    6.1808    2.1239    0.0000 N   0  0  0  0  0  0  0  0  0  0  0  0
    4.7026    2.7820    0.0000 N   0  0  0  0  0  0  0  0  0  0  0  0
    5.5116    1.3808    0.0000 N   0  0  0  0  0  0  0  0  0  0  0  0
    6.0875    3.9035    0.0000 C   0  0  0  0  0  0  0  0  0  0  0  0
    5.6808    2.9899    0.0000 C   0  0  0  0  0  0  0  0  0  0  0  0
    2.8660   -0.2125    0.0000 C   0  0  0  0  0  0  0  0  0  0  0  0
    5.4997    4.7125    0.0000 C   0  0  0  0  0  0  0  0  0  0  0  0
    7.0820    4.0080    0.0000 C   0  0  0  0  0  0  0  0  0  0  0  0
    3.7320    0.2875    0.0000 C   0  0  0  0  0  0  0  0  0  0  0  0
    2.8660   -1.2125    0.0000 C   0  0  0  0  0  0  0  0  0  0  0  0
    4.5981    1.7875    0.0000 C   0  0  0  0  0  0  0  0  0  0  0  0
    2.0000   -1.7125    0.0000 C   0  0  0  0  0  0  0  0  0  0  0  0
    3.7320   -1.7125    0.0000 C   0  0  0  0  0  0  0  0  0  0  0  0
    2.0000   -2.7125    0.0000 C   0  0  0  0  0  0  0  0  0  0  0  0
    3.7320   -2.7125    0.0000 C   0  0  0  0  0  0  0  0  0  0  0  0
    2.8660   -3.2125    0.0000 C   0  0  0  0  0  0  0  0  0  0  0  0
    2.0000   -4.7125    0.0000 C   0  0  0  0  0  0  0  0  0  0  0  0
    6.4519    3.4019    0.0000 H   0  0  0  0  0  0  0  0  0  0  0  0
    2.6540    0.3701    0.0000 H   0  0  0  0  0  0  0  0  0  0  0  0
    2.2554   -0.3202    0.0000 H   0  0  0  0  0  0  0  0  0  0  0  0
    6.0013    5.0769    0.0000 H   0  0  0  0  0  0  0  0  0  0  0  0
    7.1468    3.3914    0.0000 H   0  0  0  0  0  0  0  0  0  0  0  0
    7.6986    4.0728    0.0000 H   0  0  0  0  0  0  0  0  0  0  0  0
    7.0172    4.6246    0.0000 H   0  0  0  0  0  0  0  0  0  0  0  0
    5.1353    5.2141    0.0000 H   0  0  0  0  0  0  0  0  0  0  0  0
    4.9981    4.3481    0.0000 H   0  0  0  0  0  0  0  0  0  0  0  0
    3.9441   -0.2951    0.0000 H   0  0  0  0  0  0  0  0  0  0  0  0
    4.3426    0.3952    0.0000 H   0  0  0  0  0  0  0  0  0  0  0  0
    6.7974    2.0591    0.0000 H   0  0  0  0  0  0  0  0  0  0  0  0
    1.4631   -1.4025    0.0000 H   0  0  0  0  0  0  0  0  0  0  0  0
    4.2690   -1.4025    0.0000 H   0  0  0  0  0  0  0  0  0  0  0  0
    1.4631   -3.0225    0.0000 H   0  0  0  0  0  0  0  0  0  0  0  0
    4.2690   -3.0225    0.0000 H   0  0  0  0  0  0  0  0  0  0  0  0
    1.6900   -4.1756    0.0000 H   0  0  0  0  0  0  0  0  0  0  0  0
    1.4631   -5.0225    0.0000 H   0  0  0  0  0  0  0  0  0  0  0  0
    2.3100   -5.2494    0.0000 H   0  0  0  0  0  0  0  0  0  0  0  0
  1 11  1  0  0  0  0
  1 13  1  0  0  0  0
  2 18  1  0  0  0  0
  2 19  1  0  0  0  0
  3  5  1  0  0  0  0
  3  7  1  0  0  0  0
  3 31  1  0  0  0  0
  4  7  2  0  0  0  0
  4 13  1  0  0  0  0
  5 13  2  0  0  0  0
  6  7  1  0  0  0  0
  6  9  1  0  0  0  0
  6 10  1  0  0  0  0
  6 20  1  0  0  0  0
  8 11  1  0  0  0  0
  8 12  1  0  0  0  0
  8 21  1  0  0  0  0
  8 22  1  0  0  0  0
  9 23  1  0  0  0  0
  9 27  1  0  0  0  0
  9 28  1  0  0  0  0
 10 24  1  0  0  0  0
 10 25  1  0  0  0  0
 10 26  1  0  0  0  0
 11 29  1  0  0  0  0
 11 30  1  0  0  0  0
 12 14  2  0  0  0  0
 12 15  1  0  0  0  0
 14 16  1  0  0  0  0
 14 32  1  0  0  0  0
 15 17  2  0  0  0  0
 15 33  1  0  0  0  0
 16 18  2  0  0  0  0
 16 34  1  0  0  0  0
 17 18  1  0  0  0  0
 17 35  1  0  0  0  0
 19 36  1  0  0  0  0
 19 37  1  0  0  0  0
 19 38  1  0  0  0  0
M  END
> <PUBCHEM_COMPOUND_CID>
17396433

> <PUBCHEM_COMPOUND_CANONICALIZED>
1

> <PUBCHEM_CACTVS_COMPLEXITY>
257

> <PUBCHEM_CACTVS_HBOND_ACCEPTOR>
4

> <PUBCHEM_CACTVS_HBOND_DONOR>
1

> <PUBCHEM_CACTVS_ROTATABLE_BOND>
6

> <PUBCHEM_CACTVS_SUBSKEYS>
AAADceBzIABAAAAAAAAAAAAAAAAAAWAAAAAwAAAAAAAAAAABwAAAHgQYAAAADQSF2wKzFoZrFAiiAiJiJAAS2AvgILAdqAA2CIiMLiKkORqEMCAk2BMIqAeAwIAOIAAAAAAAAABAAAAAAAAAAAAAAAAAAA==

> <PUBCHEM_IUPAC_OPENEYE_NAME>
5-isopropyl-3-[2-(4-methoxyphenyl)ethylsulfanyl]-1H-1,2,4-triazole

> <PUBCHEM_IUPAC_CAS_NAME>
3-[2-(4-methoxyphenyl)ethylthio]-5-propan-2-yl-1H-1,2,4-triazole

> <PUBCHEM_IUPAC_NAME>
3-[2-(4-methoxyphenyl)ethylsulfanyl]-5-propan-2-yl-1H-1,2,4-triazole

> <PUBCHEM_IUPAC_SYSTEMATIC_NAME>
3-[2-(4-methoxyphenyl)ethylsulfanyl]-5-propan-2-yl-1H-1,2,4-triazole

> <PUBCHEM_IUPAC_TRADITIONAL_NAME>
5-isopropyl-3-[2-(4-methoxyphenyl)ethylthio]-1H-1,2,4-triazole

> <PUBCHEM_IUPAC_INCHI>
InChI=1S/C14H19N3OS/c1-10(2)13-15-14(17-16-13)19-9-8-11-4-6-12(18-3)7-5-11/h4-7,10H,8-9H2,1-3H3,(H,15,16,17)

> <PUBCHEM_IUPAC_INCHIKEY>
SDQZPQGRBRVYEG-UHFFFAOYSA-N

> <PUBCHEM_XLOGP3_AA>
3.9

> <PUBCHEM_EXACT_MASS>
277.124883

> <PUBCHEM_MOLECULAR_FORMULA>
C14H19N3OS

> <PUBCHEM_MOLECULAR_WEIGHT>
277.38516

> <PUBCHEM_OPENEYE_CAN_SMILES>
CC(C)C1=NC(=NN1)SCCC2=CC=C(C=C2)OC

> <PUBCHEM_OPENEYE_ISO_SMILES>
CC(C)C1=NC(=NN1)SCCC2=CC=C(C=C2)OC

> <PUBCHEM_CACTVS_TPSA>
76.1

> <PUBCHEM_MONOISOTOPIC_WEIGHT>
277.124883

> <PUBCHEM_TOTAL_CHARGE>
0

> <PUBCHEM_HEAVY_ATOM_COUNT>
19

> <PUBCHEM_ATOM_DEF_STEREO_COUNT>
0

> <PUBCHEM_ATOM_UDEF_STEREO_COUNT>
0

> <PUBCHEM_BOND_DEF_STEREO_COUNT>
0

> <PUBCHEM_BOND_UDEF_STEREO_COUNT>
0

> <PUBCHEM_ISOTOPIC_ATOM_COUNT>
0

> <PUBCHEM_COMPONENT_COUNT>
1

> <PUBCHEM_CACTVS_TAUTO_COUNT>
5

> <PUBCHEM_COORDINATE_TYPE>
1
5
255

> <PUBCHEM_BONDANNOTATIONS>
12  14  8
12  15  8
14  16  8
15  17  8
16  18  8
17  18  8
3  5  8
3  7  8
4  13  8
4  7  8
5  13  8

$$$$

