17395492
  -OEChem-06241222503D

 39 41  0     1  0  0  0  0  0999 V2000
    3.1816    1.6753    0.4172 S   0  0  0  0  0  0  0  0  0  0  0  0
    0.3149    2.2281   -0.5155 S   0  0  0  0  0  0  0  0  0  0  0  0
    5.9138   -0.9750   -0.1078 O   0  0  0  0  0  0  0  0  0  0  0  0
    6.0745    0.8743    1.2350 O   0  0  0  0  0  0  0  0  0  0  0  0
   -2.1606    1.2375   -0.3936 N   0  0  0  0  0  0  0  0  0  0  0  0
    0.9679    0.1954    0.9018 N   0  0  0  0  0  0  0  0  0  0  0  0
   -0.3959    0.0841    0.6944 N   0  0  0  0  0  0  0  0  0  0  0  0
    3.6698   -0.7987   -0.7102 C   0  0  0  0  0  0  0  0  0  0  0  0
    4.8417   -1.7569   -0.6547 C   0  0  1  0  0  0  0  0  0  0  0  0
    3.8944    0.0242    0.5408 C   0  0  1  0  0  0  0  0  0  0  0  0
    5.3962    0.0721    0.6124 C   0  0  0  0  0  0  0  0  0  0  0  0
    5.2408   -2.2967   -2.0150 C   0  0  0  0  0  0  0  0  0  0  0  0
    1.4629    1.2692    0.3241 C   0  0  0  0  0  0  0  0  0  0  0  0
   -3.2941    0.4287   -0.1135 C   0  0  0  0  0  0  0  0  0  0  0  0
   -4.4186    0.4657   -0.9379 C   0  0  0  0  0  0  0  0  0  0  0  0
   -5.5024   -1.1739    0.4671 C   0  0  0  0  0  0  0  0  0  0  0  0
   -0.8625    1.0792   -0.0292 C   0  0  0  0  0  0  0  0  0  0  0  0
   -5.5228   -0.3357   -0.6477 C   0  0  0  0  0  0  0  0  0  0  0  0
   -3.2738   -0.4094    1.0012 C   0  0  0  0  0  0  0  0  0  0  0  0
   -4.3779   -1.2108    1.2916 C   0  0  0  0  0  0  0  0  0  0  0  0
   -4.4674    1.3541   -2.1383 C   0  0  0  0  0  0  0  0  0  0  0  0
   -6.6826   -2.0309    0.7777 C   0  0  0  0  0  0  0  0  0  0  0  0
    2.7109   -1.3257   -0.7248 H   0  0  0  0  0  0  0  0  0  0  0  0
    3.7327   -0.1797   -1.6151 H   0  0  0  0  0  0  0  0  0  0  0  0
    4.6457   -2.5879    0.0337 H   0  0  0  0  0  0  0  0  0  0  0  0
    3.5367   -0.4970    1.4362 H   0  0  0  0  0  0  0  0  0  0  0  0
    5.5256   -1.4858   -2.6944 H   0  0  0  0  0  0  0  0  0  0  0  0
    6.1169   -2.9474   -1.9226 H   0  0  0  0  0  0  0  0  0  0  0  0
    4.4259   -2.8683   -2.4690 H   0  0  0  0  0  0  0  0  0  0  0  0
   -6.4031   -0.3089   -1.2857 H   0  0  0  0  0  0  0  0  0  0  0  0
   -2.3647    2.0176   -1.0116 H   0  0  0  0  0  0  0  0  0  0  0  0
   -2.4438   -0.4449    1.6977 H   0  0  0  0  0  0  0  0  0  0  0  0
   -4.3547   -1.8516    2.1691 H   0  0  0  0  0  0  0  0  0  0  0  0
   -4.4557    2.4066   -1.8365 H   0  0  0  0  0  0  0  0  0  0  0  0
   -3.6203    1.1546   -2.8031 H   0  0  0  0  0  0  0  0  0  0  0  0
   -5.3781    1.1930   -2.7257 H   0  0  0  0  0  0  0  0  0  0  0  0
   -7.3980   -1.4763    1.3931 H   0  0  0  0  0  0  0  0  0  0  0  0
   -7.1851   -2.3564   -0.1395 H   0  0  0  0  0  0  0  0  0  0  0  0
   -6.3848   -2.9361    1.3178 H   0  0  0  0  0  0  0  0  0  0  0  0
  1 10  1  0  0  0  0
  1 13  1  0  0  0  0
  2 13  1  0  0  0  0
  2 17  1  0  0  0  0
  3  9  1  0  0  0  0
  3 11  1  0  0  0  0
  4 11  2  0  0  0  0
  5 14  1  0  0  0  0
  5 17  1  0  0  0  0
  5 31  1  0  0  0  0
  6  7  1  0  0  0  0
  6 13  2  0  0  0  0
  7 17  2  0  0  0  0
  8  9  1  0  0  0  0
  8 10  1  0  0  0  0
  8 23  1  0  0  0  0
  8 24  1  0  0  0  0
  9 12  1  0  0  0  0
  9 25  1  0  0  0  0
 10 11  1  0  0  0  0
 10 26  1  0  0  0  0
 12 27  1  0  0  0  0
 12 28  1  0  0  0  0
 12 29  1  0  0  0  0
 14 15  2  0  0  0  0
 14 19  1  0  0  0  0
 15 18  1  0  0  0  0
 15 21  1  0  0  0  0
 16 18  2  0  0  0  0
 16 20  1  0  0  0  0
 16 22  1  0  0  0  0
 18 30  1  0  0  0  0
 19 20  2  0  0  0  0
 19 32  1  0  0  0  0
 20 33  1  0  0  0  0
 21 34  1  0  0  0  0
 21 35  1  0  0  0  0
 21 36  1  0  0  0  0
 22 37  1  0  0  0  0
 22 38  1  0  0  0  0
 22 39  1  0  0  0  0
M  END
> <PUBCHEM_COMPOUND_CID>
17395492

> <PUBCHEM_CONFORMER_RMSD>
1

> <PUBCHEM_CONFORMER_DIVERSEORDER>
1
116
94
156
70
59
141
67
136
75
44
33
29
162
39
135
19
82
54
76
4
25
74
91
73
148
137
98
13
9
69
68
121
129
144
95
109
145
42
97
64
124
78
153
27
104
81
35
131
161
88
151
50
89
127
65
102
132
93
125
90
45
55
31
96
23
143
99
158
87
152
134
66
46
160
5
61
150
157
86
128
32
56
49
118
130
80
101
40
155
11
63
117
84
17
24
113
28
139
115
107
16
58
6
142
147
119
106
18
103
163
123
126
30
38
138
112
100
108
122
41
48
85
77
15
20
154
105
57
8
60
133
10
146
79
92
149
14
43
114
26
51
7
111
71
36
21
37
140
62
3
12
72
2
53
159
34
83
120
110
52
22
47

> <PUBCHEM_MMFF94_PARTIAL_CHARGES>
24
1 -0.29
10 0.29
11 0.66
13 0.43
14 0.1
15 -0.14
16 -0.14
17 0.46
18 -0.15
19 -0.15
2 -0.08
20 -0.15
21 0.14
22 0.14
3 -0.43
30 0.15
31 0.4
32 0.15
33 0.15
4 -0.57
5 -0.58
6 -0.34
7 -0.34
9 0.28

> <PUBCHEM_EFFECTIVE_ROTOR_COUNT>
4.8

> <PUBCHEM_PHARMACOPHORE_FEATURES>
7
1 4 acceptor
1 5 donor
1 6 acceptor
3 5 7 17 cation
5 2 6 7 13 17 rings
5 3 8 9 10 11 rings
6 14 15 16 18 19 20 rings

> <PUBCHEM_HEAVY_ATOM_COUNT>
22

> <PUBCHEM_ATOM_DEF_STEREO_COUNT>
0

> <PUBCHEM_ATOM_UDEF_STEREO_COUNT>
2

> <PUBCHEM_BOND_DEF_STEREO_COUNT>
0

> <PUBCHEM_BOND_UDEF_STEREO_COUNT>
0

> <PUBCHEM_ISOTOPIC_ATOM_COUNT>
0

> <PUBCHEM_COMPONENT_COUNT>
1

> <PUBCHEM_CACTVS_TAUTO_COUNT>
4

> <PUBCHEM_CONFORMER_ID>
01096F2400000001

> <PUBCHEM_MMFF94_ENERGY>
49.9662

> <PUBCHEM_FEATURE_SELFOVERLAP>
35.52

> <PUBCHEM_SHAPE_FINGERPRINT>
10319926 262 6050445899092818556
10912923 1 15791739576575266216
11089746 13 11815900050522821560
11128504 68 14979954761520713108
11796584 16 18272094910896504193
12236239 1 16443066092714588528
12516196 113 18409168792259360848
12596602 18 15140968339751821898
12616971 3 16660364740808331217
12633257 1 15430037626132528897
13073987 5 17821725061450785608
13402501 40 18411697686046211450
13533116 47 17385722500438330170
13551218 46 18040431096832818255
13668630 136 18408882923810778555
13673619 4 18059570249167912985
13685833 64 18408319973719849979
13914758 101 17240483659061364817
13955234 65 17968665904601133392
14123256 34 18187635942832060238
14251740 57 18335128800689961534
14341114 328 15140679189372836078
14528608 73 12823292377625120522
14556957 393 15051737499739120271
14848160 23 18411703201057973870
15183329 4 15123509220331423010
15510800 12 18262232343942777646
1768 124 18040432149094881895
17844677 252 17846498114881441053
17857418 61 16950290606512406573
17870717 6 17989487425104922135
19377110 9 16660360363909394728
193927 3 18409441501149687384
19489759 90 17346884455252054009
20645477 70 18409728448336628944
21150785 3 16773512192234723702
21267235 1 17703789168692764179
21623969 137 18260547818676204558
21682296 61 18187356683641918159
220451 1 16588026788295032020
22061861 79 18409167718438084263
22393880 68 17988936565152350665
22849339 104 16773501175939548755
2297311 6 17775284950753816749
2303208 19 18413386536174981027
23198884 109 14692573217426131003
23559900 14 18059304162779832073
239999 70 18342178843693949632
25122255 55 18412256225394975043
2838139 119 13039189229517753718
3004659 81 17775283855241841676
3089732 80 18410004446771634054
314194 84 17821736030807704668
33382 64 17967811665364423618
34797466 226 18060133198203644444
3663271 9 15719398317174909286
46194498 28 18343022177618388900
465052 167 18187078464766934390
5104073 3 17968660548697332912
5718773 13 18267587000124970338

> <PUBCHEM_SHAPE_MULTIPOLES>
433.77
17.91
2.17
1.45
0.92
0.22
0.61
10.23
0.5
0.63
0.58
-0.08
0.23
3.6

> <PUBCHEM_SHAPE_SELFOVERLAP>
897.327

> <PUBCHEM_SHAPE_VOLUME>
251.1

> <PUBCHEM_COORDINATE_TYPE>
2
5
10

$$$$

