17396015
  -OEChem-06241222532D

 38 39  0     0  0  0  0  0  0999 V2000
    6.3301    0.9827    0.0000 O   0  0  0  0  0  0  0  0  0  0  0  0
    2.8660   -0.0173    0.0000 O   0  0  0  0  0  0  0  0  0  0  0  0
    3.7320   -1.5173    0.0000 O   0  0  0  0  0  0  0  0  0  0  0  0
    8.9282    1.4827    0.0000 N   0  0  0  0  0  0  0  0  0  0  0  0
    5.4641   -0.5173    0.0000 N   0  0  0  0  0  0  0  0  0  0  0  0
    4.5981   -0.0173    0.0000 N   0  0  0  0  0  0  0  0  0  0  0  0
    8.0622   -0.0173    0.0000 C   0  0  0  0  0  0  0  0  0  0  0  0
    8.9282   -0.5173    0.0000 C   0  0  0  0  0  0  0  0  0  0  0  0
    9.7942   -0.0173    0.0000 C   0  0  0  0  0  0  0  0  0  0  0  0
    8.0622    0.9827    0.0000 C   0  0  0  0  0  0  0  0  0  0  0  0
    7.1962   -0.5173    0.0000 C   0  0  0  0  0  0  0  0  0  0  0  0
    9.7942    0.9827    0.0000 C   0  0  0  0  0  0  0  0  0  0  0  0
    8.9282   -1.5173    0.0000 C   0  0  0  0  0  0  0  0  0  0  0  0
   10.6882   -0.5520    0.0000 C   0  0  0  0  0  0  0  0  0  0  0  0
    7.1962    1.4827    0.0000 C   0  0  0  0  0  0  0  0  0  0  0  0
   10.6882    1.5173    0.0000 C   0  0  0  0  0  0  0  0  0  0  0  0
    6.3301   -0.0173    0.0000 C   0  0  0  0  0  0  0  0  0  0  0  0
   11.5942   -0.0381    0.0000 C   0  0  0  0  0  0  0  0  0  0  0  0
   11.5942    1.0035    0.0000 C   0  0  0  0  0  0  0  0  0  0  0  0
    3.7320   -0.5173    0.0000 C   0  0  0  0  0  0  0  0  0  0  0  0
    2.0000   -0.5173    0.0000 C   0  0  0  0  0  0  0  0  0  0  0  0
    6.7976   -0.9923    0.0000 H   0  0  0  0  0  0  0  0  0  0  0  0
    7.5947   -0.9923    0.0000 H   0  0  0  0  0  0  0  0  0  0  0  0
    8.3082   -1.5173    0.0000 H   0  0  0  0  0  0  0  0  0  0  0  0
    8.9282   -2.1373    0.0000 H   0  0  0  0  0  0  0  0  0  0  0  0
    9.5482   -1.5173    0.0000 H   0  0  0  0  0  0  0  0  0  0  0  0
   10.6810   -1.1720    0.0000 H   0  0  0  0  0  0  0  0  0  0  0  0
    7.5062    2.0196    0.0000 H   0  0  0  0  0  0  0  0  0  0  0  0
    6.6592    1.7927    0.0000 H   0  0  0  0  0  0  0  0  0  0  0  0
    6.8862    0.9457    0.0000 H   0  0  0  0  0  0  0  0  0  0  0  0
   10.6810    2.1373    0.0000 H   0  0  0  0  0  0  0  0  0  0  0  0
   12.1300   -0.3502    0.0000 H   0  0  0  0  0  0  0  0  0  0  0  0
   12.1300    1.3156    0.0000 H   0  0  0  0  0  0  0  0  0  0  0  0
    5.4641   -1.1373    0.0000 H   0  0  0  0  0  0  0  0  0  0  0  0
    4.5981    0.6027    0.0000 H   0  0  0  0  0  0  0  0  0  0  0  0
    1.6900    0.0196    0.0000 H   0  0  0  0  0  0  0  0  0  0  0  0
    1.4631   -0.8273    0.0000 H   0  0  0  0  0  0  0  0  0  0  0  0
    2.3100   -1.0543    0.0000 H   0  0  0  0  0  0  0  0  0  0  0  0
  1 17  2  0  0  0  0
  2 20  1  0  0  0  0
  2 21  1  0  0  0  0
  3 20  2  0  0  0  0
  4 10  2  0  0  0  0
  4 12  1  0  0  0  0
  5  6  1  0  0  0  0
  5 17  1  0  0  0  0
  5 34  1  0  0  0  0
  6 20  1  0  0  0  0
  6 35  1  0  0  0  0
  7  8  2  0  0  0  0
  7 10  1  0  0  0  0
  7 11  1  0  0  0  0
  8  9  1  0  0  0  0
  8 13  1  0  0  0  0
  9 12  1  0  0  0  0
  9 14  2  0  0  0  0
 10 15  1  0  0  0  0
 11 17  1  0  0  0  0
 11 22  1  0  0  0  0
 11 23  1  0  0  0  0
 12 16  2  0  0  0  0
 13 24  1  0  0  0  0
 13 25  1  0  0  0  0
 13 26  1  0  0  0  0
 14 18  1  0  0  0  0
 14 27  1  0  0  0  0
 15 28  1  0  0  0  0
 15 29  1  0  0  0  0
 15 30  1  0  0  0  0
 16 19  1  0  0  0  0
 16 31  1  0  0  0  0
 18 19  2  0  0  0  0
 18 32  1  0  0  0  0
 19 33  1  0  0  0  0
 21 36  1  0  0  0  0
 21 37  1  0  0  0  0
 21 38  1  0  0  0  0
M  END
> <PUBCHEM_COMPOUND_CID>
17396015

> <PUBCHEM_COMPOUND_CANONICALIZED>
1

> <PUBCHEM_CACTVS_COMPLEXITY>
388

> <PUBCHEM_CACTVS_HBOND_ACCEPTOR>
4

> <PUBCHEM_CACTVS_HBOND_DONOR>
2

> <PUBCHEM_CACTVS_ROTATABLE_BOND>
3

> <PUBCHEM_CACTVS_SUBSKEYS>
AAADceBzMAAAAAAAAAAAAAAAAAAAAAAAAAA8QAAAAAAAAACx8AAAHgAYAAAADAiBngIyyPJqFACoAyVyXACCgCAhAiIauCEwZJkIIPLAlZGEIAhgkADIyAcciMCOgAAAAAACAAAAAAAAAAQAAAAAAAAAAA==

> <PUBCHEM_IUPAC_OPENEYE_NAME>
methyl N-[[2-(2,4-dimethyl-3-quinolyl)acetyl]amino]carbamate

> <PUBCHEM_IUPAC_CAS_NAME>
N-[[2-(2,4-dimethyl-3-quinolinyl)-1-oxoethyl]amino]carbamic acid methyl ester

> <PUBCHEM_IUPAC_NAME>
methyl N-[[2-(2,4-dimethylquinolin-3-yl)acetyl]amino]carbamate

> <PUBCHEM_IUPAC_SYSTEMATIC_NAME>
methyl N-[2-(2,4-dimethylquinolin-3-yl)ethanoylamino]carbamate

> <PUBCHEM_IUPAC_TRADITIONAL_NAME>
N-[[2-(2,4-dimethyl-3-quinolyl)acetyl]amino]carbamic acid methyl ester

> <PUBCHEM_IUPAC_INCHI>
InChI=1S/C15H17N3O3/c1-9-11-6-4-5-7-13(11)16-10(2)12(9)8-14(19)17-18-15(20)21-3/h4-7H,8H2,1-3H3,(H,17,19)(H,18,20)

> <PUBCHEM_IUPAC_INCHIKEY>
FICPMFQVZQHPDO-UHFFFAOYSA-N

> <PUBCHEM_XLOGP3_AA>
2.1

> <PUBCHEM_EXACT_MASS>
287.126991

> <PUBCHEM_MOLECULAR_FORMULA>
C15H17N3O3

> <PUBCHEM_MOLECULAR_WEIGHT>
287.31378

> <PUBCHEM_OPENEYE_CAN_SMILES>
CC1=C(C(=NC2=CC=CC=C12)C)CC(=O)NNC(=O)OC

> <PUBCHEM_OPENEYE_ISO_SMILES>
CC1=C(C(=NC2=CC=CC=C12)C)CC(=O)NNC(=O)OC

> <PUBCHEM_CACTVS_TPSA>
80.3

> <PUBCHEM_MONOISOTOPIC_WEIGHT>
287.126991

> <PUBCHEM_TOTAL_CHARGE>
0

> <PUBCHEM_HEAVY_ATOM_COUNT>
21

> <PUBCHEM_ATOM_DEF_STEREO_COUNT>
0

> <PUBCHEM_ATOM_UDEF_STEREO_COUNT>
0

> <PUBCHEM_BOND_DEF_STEREO_COUNT>
0

> <PUBCHEM_BOND_UDEF_STEREO_COUNT>
0

> <PUBCHEM_ISOTOPIC_ATOM_COUNT>
0

> <PUBCHEM_COMPONENT_COUNT>
1

> <PUBCHEM_CACTVS_TAUTO_COUNT>
4

> <PUBCHEM_COORDINATE_TYPE>
1
5
255

> <PUBCHEM_BONDANNOTATIONS>
12  16  8
14  18  8
16  19  8
18  19  8
4  10  8
4  12  8
7  10  8
7  8  8
8  9  8
9  12  8
9  14  8

$$$$

