7832
  -OEChem-06261202222D

 21 22  0     1  0  0  0  0  0999 V2000
    6.3306    0.0000    0.0000 O   0  0  0  0  0  0  0  0  0  0  0  0
    5.4641    0.5000    0.0000 C   0  0  3  0  0  0  0  0  0  0  0  0
    5.4641   -0.5000    0.0000 C   0  0  3  0  0  0  0  0  0  0  0  0
    4.5981    1.0000    0.0000 C   0  0  0  0  0  0  0  0  0  0  0  0
    4.5981   -1.0000    0.0000 C   0  0  0  0  0  0  0  0  0  0  0  0
    3.7320    0.5000    0.0000 C   0  0  3  0  0  0  0  0  0  0  0  0
    3.7320   -0.5000    0.0000 C   0  0  0  0  0  0  0  0  0  0  0  0
    2.8660    1.0000    0.0000 C   0  0  0  0  0  0  0  0  0  0  0  0
    2.0000    0.5000    0.0000 C   0  0  0  0  0  0  0  0  0  0  0  0
    5.8890    1.2362    0.0000 H   0  0  0  0  0  0  0  0  0  0  0  0
    5.8890   -1.2362    0.0000 H   0  0  0  0  0  0  0  0  0  0  0  0
    4.9966    1.4750    0.0000 H   0  0  0  0  0  0  0  0  0  0  0  0
    4.1996    1.4750    0.0000 H   0  0  0  0  0  0  0  0  0  0  0  0
    4.1996   -1.4750    0.0000 H   0  0  0  0  0  0  0  0  0  0  0  0
    4.9966   -1.4750    0.0000 H   0  0  0  0  0  0  0  0  0  0  0  0
    3.7320    1.3500    0.0000 H   0  0  0  0  0  0  0  0  0  0  0  0
    3.1215   -0.3923    0.0000 H   0  0  0  0  0  0  0  0  0  0  0  0
    3.5200   -1.0826    0.0000 H   0  0  0  0  0  0  0  0  0  0  0  0
    2.8660    1.6200    0.0000 H   0  0  0  0  0  0  0  0  0  0  0  0
    1.4631    0.8100    0.0000 H   0  0  0  0  0  0  0  0  0  0  0  0
    2.0000   -0.1200    0.0000 H   0  0  0  0  0  0  0  0  0  0  0  0
  1  2  1  0  0  0  0
  1  3  1  0  0  0  0
  2  3  1  0  0  0  0
  2  4  1  0  0  0  0
  2 10  1  0  0  0  0
  3  5  1  0  0  0  0
  3 11  1  0  0  0  0
  4  6  1  0  0  0  0
  4 12  1  0  0  0  0
  4 13  1  0  0  0  0
  5  7  1  0  0  0  0
  5 14  1  0  0  0  0
  5 15  1  0  0  0  0
  6  7  1  0  0  0  0
  6  8  1  0  0  0  0
  6 16  1  0  0  0  0
  7 17  1  0  0  0  0
  7 18  1  0  0  0  0
  8  9  2  0  0  0  0
  8 19  1  0  0  0  0
  9 20  1  0  0  0  0
  9 21  1  0  0  0  0
M  END
> <PUBCHEM_COMPOUND_CID>
7832

> <PUBCHEM_COMPOUND_CANONICALIZED>
1

> <PUBCHEM_CACTVS_COMPLEXITY>
131

> <PUBCHEM_CACTVS_HBOND_ACCEPTOR>
1

> <PUBCHEM_CACTVS_HBOND_DONOR>
0

> <PUBCHEM_CACTVS_ROTATABLE_BOND>
1

> <PUBCHEM_CACTVS_SUBSKEYS>
AAADccBwIAAAAAAAAAAAAAAAEgAAAAAAAAAwAAAABIAAAAAAAAAAGgAAAAAADRSggAIAAAAABACAACBCAAAAAAAgAAAIAAAAAAgAAAIAAQACAAAEgAAAAAGAwBAOAAAAAAAAAABAAAIAAAAAAAAAAAAAAA==

> <PUBCHEM_IUPAC_OPENEYE_NAME>
4-vinyl-7-oxabicyclo[4.1.0]heptane

> <PUBCHEM_IUPAC_CAS_NAME>
4-ethenyl-7-oxabicyclo[4.1.0]heptane

> <PUBCHEM_IUPAC_NAME>
4-ethenyl-7-oxabicyclo[4.1.0]heptane

> <PUBCHEM_IUPAC_SYSTEMATIC_NAME>
4-ethenyl-7-oxabicyclo[4.1.0]heptane

> <PUBCHEM_IUPAC_TRADITIONAL_NAME>
4-vinyl-7-oxabicyclo[4.1.0]heptane

> <PUBCHEM_IUPAC_INCHI>
InChI=1S/C8H12O/c1-2-6-3-4-7-8(5-6)9-7/h2,6-8H,1,3-5H2

> <PUBCHEM_IUPAC_INCHIKEY>
SLJFKNONPLNAPF-UHFFFAOYSA-N

> <PUBCHEM_XLOGP3_AA>
1.7

> <PUBCHEM_EXACT_MASS>
124.088815

> <PUBCHEM_MOLECULAR_FORMULA>
C8H12O

> <PUBCHEM_MOLECULAR_WEIGHT>
124.18028

> <PUBCHEM_OPENEYE_CAN_SMILES>
C=CC1CCC2C(C1)O2

> <PUBCHEM_OPENEYE_ISO_SMILES>
C=CC1CCC2C(C1)O2

> <PUBCHEM_CACTVS_TPSA>
12.5

> <PUBCHEM_MONOISOTOPIC_WEIGHT>
124.088815

> <PUBCHEM_TOTAL_CHARGE>
0

> <PUBCHEM_HEAVY_ATOM_COUNT>
9

> <PUBCHEM_ATOM_DEF_STEREO_COUNT>
0

> <PUBCHEM_ATOM_UDEF_STEREO_COUNT>
3

> <PUBCHEM_BOND_DEF_STEREO_COUNT>
0

> <PUBCHEM_BOND_UDEF_STEREO_COUNT>
0

> <PUBCHEM_ISOTOPIC_ATOM_COUNT>
0

> <PUBCHEM_COMPONENT_COUNT>
1

> <PUBCHEM_CACTVS_TAUTO_COUNT>
1

> <PUBCHEM_COORDINATE_TYPE>
1
5
255

> <PUBCHEM_BONDANNOTATIONS>
2  10  3
3  11  3
6  16  3

$$$$

