17395963
  -OEChem-06241222533D

 46 49  0     1  0  0  0  0  0999 V2000
   -2.7360   -2.3252    0.2546 S   0  0  0  0  0  0  0  0  0  0  0  0
    2.3933   -2.0220   -0.9568 S   0  0  0  0  0  0  0  0  0  0  0  0
    1.9679    2.5950    0.5570 O   0  0  0  0  0  0  0  0  0  0  0  0
   -0.6793    2.0190   -0.7616 O   0  0  0  0  0  0  0  0  0  0  0  0
    5.0219   -2.6111    0.5251 O   0  0  0  0  0  0  0  0  0  0  0  0
    0.7194    0.1353   -0.8536 N   0  0  0  0  0  0  0  0  0  0  0  0
   -0.1526   -2.0589   -0.3737 N   0  0  0  0  0  0  0  0  0  0  0  0
    2.6249    1.4408    0.0067 C   0  0  2  0  0  0  0  0  0  0  0  0
    4.0538    1.8657   -0.2842 C   0  0  0  0  0  0  0  0  0  0  0  0
    1.8755    0.9580   -1.2200 C   0  0  0  0  0  0  0  0  0  0  0  0
   -2.9804    0.2214   -0.0381 C   0  0  0  0  0  0  0  0  0  0  0  0
   -3.6310    1.5737   -0.0584 C   0  0  0  0  0  0  0  0  0  0  0  0
    4.3091    2.8458    0.8332 C   0  0  0  0  0  0  0  0  0  0  0  0
   -5.1649    1.4799   -0.0595 C   0  0  0  0  0  0  0  0  0  0  0  0
   -3.6902   -0.9188    0.2923 C   0  0  0  0  0  0  0  0  0  0  0  0
   -1.6064   -0.0876   -0.3021 C   0  0  0  0  0  0  0  0  0  0  0  0
   -5.6715    0.4420    0.9500 C   0  0  0  0  0  0  0  0  0  0  0  0
   -5.1499   -0.9639    0.6211 C   0  0  0  0  0  0  0  0  0  0  0  0
    2.9709    3.5443    0.9486 C   0  0  0  0  0  0  0  0  0  0  0  0
   -0.5117    0.8073   -0.6572 C   0  0  0  0  0  0  0  0  0  0  0  0
   -1.3441   -1.4386   -0.1841 C   0  0  0  0  0  0  0  0  0  0  0  0
    0.8255   -1.2658   -0.6980 C   0  0  0  0  0  0  0  0  0  0  0  0
    2.6187   -2.7425    0.6799 C   0  0  0  0  0  0  0  0  0  0  0  0
    3.9370   -3.4940    0.7787 C   0  0  0  0  0  0  0  0  0  0  0  0
    2.6301    0.6765    0.7939 H   0  0  0  0  0  0  0  0  0  0  0  0
    4.1207    2.3827   -1.2494 H   0  0  0  0  0  0  0  0  0  0  0  0
    4.7540    1.0258   -0.2946 H   0  0  0  0  0  0  0  0  0  0  0  0
    2.5343    0.4029   -1.8927 H   0  0  0  0  0  0  0  0  0  0  0  0
    1.5164    1.8212   -1.7943 H   0  0  0  0  0  0  0  0  0  0  0  0
   -3.3113    2.1396   -0.9404 H   0  0  0  0  0  0  0  0  0  0  0  0
   -3.3027    2.1302    0.8282 H   0  0  0  0  0  0  0  0  0  0  0  0
    5.1345    3.5345    0.6354 H   0  0  0  0  0  0  0  0  0  0  0  0
    4.5294    2.3032    1.7602 H   0  0  0  0  0  0  0  0  0  0  0  0
   -5.5144    1.2039   -1.0627 H   0  0  0  0  0  0  0  0  0  0  0  0
   -5.5908    2.4638    0.1678 H   0  0  0  0  0  0  0  0  0  0  0  0
   -6.7672    0.4323    0.9603 H   0  0  0  0  0  0  0  0  0  0  0  0
   -5.3438    0.7308    1.9570 H   0  0  0  0  0  0  0  0  0  0  0  0
   -5.6963   -1.3607   -0.2436 H   0  0  0  0  0  0  0  0  0  0  0  0
   -5.3431   -1.6304    1.4693 H   0  0  0  0  0  0  0  0  0  0  0  0
    2.9079    4.3957    0.2627 H   0  0  0  0  0  0  0  0  0  0  0  0
    2.7677    3.8977    1.9634 H   0  0  0  0  0  0  0  0  0  0  0  0
    1.7958   -3.4275    0.9065 H   0  0  0  0  0  0  0  0  0  0  0  0
    2.6045   -1.9289    1.4130 H   0  0  0  0  0  0  0  0  0  0  0  0
    4.0570   -3.9041    1.7867 H   0  0  0  0  0  0  0  0  0  0  0  0
    3.9794   -4.3217    0.0625 H   0  0  0  0  0  0  0  0  0  0  0  0
    5.8389   -3.1317    0.6093 H   0  0  0  0  0  0  0  0  0  0  0  0
  1 15  1  0  0  0  0
  1 21  1  0  0  0  0
  2 22  1  0  0  0  0
  2 23  1  0  0  0  0
  3  8  1  0  0  0  0
  3 19  1  0  0  0  0
  4 20  2  0  0  0  0
  5 24  1  0  0  0  0
  5 46  1  0  0  0  0
  6 10  1  0  0  0  0
  6 20  1  0  0  0  0
  6 22  1  0  0  0  0
  7 21  1  0  0  0  0
  7 22  2  0  0  0  0
  8  9  1  0  0  0  0
  8 10  1  0  0  0  0
  8 25  1  0  0  0  0
  9 13  1  0  0  0  0
  9 26  1  0  0  0  0
  9 27  1  0  0  0  0
 10 28  1  0  0  0  0
 10 29  1  0  0  0  0
 11 12  1  0  0  0  0
 11 15  2  0  0  0  0
 11 16  1  0  0  0  0
 12 14  1  0  0  0  0
 12 30  1  0  0  0  0
 12 31  1  0  0  0  0
 13 19  1  0  0  0  0
 13 32  1  0  0  0  0
 13 33  1  0  0  0  0
 14 17  1  0  0  0  0
 14 34  1  0  0  0  0
 14 35  1  0  0  0  0
 15 18  1  0  0  0  0
 16 20  1  0  0  0  0
 16 21  2  0  0  0  0
 17 18  1  0  0  0  0
 17 36  1  0  0  0  0
 17 37  1  0  0  0  0
 18 38  1  0  0  0  0
 18 39  1  0  0  0  0
 19 40  1  0  0  0  0
 19 41  1  0  0  0  0
 23 24  1  0  0  0  0
 23 42  1  0  0  0  0
 23 43  1  0  0  0  0
 24 44  1  0  0  0  0
 24 45  1  0  0  0  0
M  END
> <PUBCHEM_COMPOUND_CID>
17395963

> <PUBCHEM_CONFORMER_RMSD>
0.8

> <PUBCHEM_CONFORMER_DIVERSEORDER>
1
32
48
41
36
33
60
21
44
50
46
45
57
39
15
18
42
55
38
51
37
49
14
19
59
22
25
7
24
54
58
23
64
52
61
40
65
63
13
53
6
26
47
20
17
12
56
5
29
66
11
28
35
31
27
34
16
30
62
8
3
43
2
10
9
4

> <PUBCHEM_MMFF94_PARTIAL_CHARGES>
21
1 -0.08
10 0.3
11 -0.18
12 0.18
15 -0.14
16 -0.09
18 0.18
19 0.28
2 -0.37
20 0.72
21 0.17
22 0.65
23 0.23
24 0.28
3 -0.56
4 -0.57
46 0.4
5 -0.68
6 -0.42
7 -0.58
8 0.28

> <PUBCHEM_EFFECTIVE_ROTOR_COUNT>
6.8

> <PUBCHEM_PHARMACOPHORE_FEATURES>
8
1 3 acceptor
1 4 acceptor
1 5 acceptor
1 5 donor
5 1 11 15 16 21 rings
5 3 8 9 13 19 rings
6 11 12 14 15 17 18 rings
6 6 7 16 20 21 22 rings

> <PUBCHEM_HEAVY_ATOM_COUNT>
24

> <PUBCHEM_ATOM_DEF_STEREO_COUNT>
0

> <PUBCHEM_ATOM_UDEF_STEREO_COUNT>
1

> <PUBCHEM_BOND_DEF_STEREO_COUNT>
0

> <PUBCHEM_BOND_UDEF_STEREO_COUNT>
0

> <PUBCHEM_ISOTOPIC_ATOM_COUNT>
0

> <PUBCHEM_COMPONENT_COUNT>
1

> <PUBCHEM_CACTVS_TAUTO_COUNT>
1

> <PUBCHEM_CONFORMER_ID>
010970FB00000001

> <PUBCHEM_MMFF94_ENERGY>
41.1514

> <PUBCHEM_FEATURE_SELFOVERLAP>
40.73

> <PUBCHEM_SHAPE_FINGERPRINT>
10006869 2 18259983812345847417
10675989 125 15532504833988071661
1100329 8 17759797439685840249
12107183 9 18120369019740678297
12422481 6 18198367142091245672
12549972 3 17916565605641614739
12592029 89 18337951182302820680
12633257 1 18192140723459177929
12788726 201 17765422533095407970
12930653 34 18194961833830587787
13140716 1 18412542132873114487
13533116 47 18412544306194897851
13899415 154 18337944714641612118
14178342 30 18054504708160858031
14466204 15 17834394897193943057
14739800 52 17822297850873738448
14790565 3 17909541766819434396
14955137 171 18191302882856907246
15196674 1 18412256255997589007
15420108 30 18114752516772331822
15475509 35 17346595326464716587
15475509 84 18191581063113706152
15927050 60 18192430771808283662
17980427 23 17679303224461146241
18785283 64 18411420609642934820
19784866 170 18341046298655275781
21033648 29 17825390678541550040
21041028 32 18191309488442352460
21304253 13 18191873533717987954
21421861 104 18272657861324594938
21452121 103 18409166601714925521
21792934 111 18272083947074339681
21859007 373 17559411347335165301
22182313 1 17845669130505866725
23366157 5 18201716237097447198
23419403 2 18058188265450590782
23558518 356 17759528764227948118
23559900 14 18113888411837825942
25147074 1 18041011600470689263
283562 15 17615138680374702023
3117164 225 18339082691342084315
335352 9 18198620137292706247
3411729 13 18409728435620337164
3421961 26 18342175609119358266
345986 75 17412757476762540802
350125 39 18340763844642098164
5104073 3 18339065056976500611
5265222 85 17907849614672625748
5895379 119 17098036506484626065
633830 44 18043249037897912404
69474 34 18266746951043365106
7364860 26 18408600366491604014
79837 15 17910112404542574714
9841814 1 18337662139646845478
9981440 41 18122910828166750778

> <PUBCHEM_SHAPE_MULTIPOLES>
474.04
11.03
4.29
1.01
7.06
0.4
-0.03
-1.53
3.56
-7
1.28
-0.44
-0.04
0.29

> <PUBCHEM_SHAPE_SELFOVERLAP>
987.638

> <PUBCHEM_SHAPE_VOLUME>
271.7

> <PUBCHEM_COORDINATE_TYPE>
2
5
10

$$$$

