47205572
  -OEChem-06241222593D

 34 35  0     1  0  0  0  0  0999 V2000
   -4.0649    0.9109    0.6928 S   0  0  0  0  0  0  0  0  0  0  0  0
    1.7452   -2.3883   -0.9210 O   0  0  0  0  0  0  0  0  0  0  0  0
    2.1616    0.6327    0.2359 N   0  0  0  0  0  0  0  0  0  0  0  0
    0.1241   -1.8346    0.6475 N   0  0  0  0  0  0  0  0  0  0  0  0
   -1.8155    0.4458   -0.4933 N   0  0  0  0  0  0  0  0  0  0  0  0
    1.7187    2.8070    0.1493 N   0  0  0  0  0  0  0  0  0  0  0  0
    2.2964   -0.7704    0.7994 C   0  0  1  0  0  0  0  0  0  0  0  0
   -0.9250   -2.6952    0.1502 C   0  0  0  0  0  0  0  0  0  0  0  0
    1.3816   -1.7521    0.0660 C   0  0  0  0  0  0  0  0  0  0  0  0
   -1.8056   -2.0053   -0.8889 C   0  0  0  0  0  0  0  0  0  0  0  0
    3.7546   -1.2341    0.7661 C   0  0  0  0  0  0  0  0  0  0  0  0
   -2.4749   -0.7606   -0.3598 C   0  0  0  0  0  0  0  0  0  0  0  0
    2.4558    1.0239   -1.0400 C   0  0  0  0  0  0  0  0  0  0  0  0
    1.7230    1.7368    0.9124 C   0  0  0  0  0  0  0  0  0  0  0  0
   -3.7070   -0.7089    0.2577 C   0  0  0  0  0  0  0  0  0  0  0  0
    2.1745    2.3694   -1.0691 C   0  0  0  0  0  0  0  0  0  0  0  0
   -2.5599    1.3966    0.0263 C   0  0  0  0  0  0  0  0  0  0  0  0
   -2.1826    2.8265    0.0685 C   0  0  0  0  0  0  0  0  0  0  0  0
    1.9823   -0.6838    1.8473 H   0  0  0  0  0  0  0  0  0  0  0  0
   -1.5210   -3.0031    1.0163 H   0  0  0  0  0  0  0  0  0  0  0  0
   -0.4735   -3.5927   -0.2864 H   0  0  0  0  0  0  0  0  0  0  0  0
   -2.5712   -2.7076   -1.2400 H   0  0  0  0  0  0  0  0  0  0  0  0
   -1.2024   -1.7311   -1.7635 H   0  0  0  0  0  0  0  0  0  0  0  0
   -0.0886   -1.2560    1.4548 H   0  0  0  0  0  0  0  0  0  0  0  0
    4.1367   -1.3043   -0.2583 H   0  0  0  0  0  0  0  0  0  0  0  0
    4.3974   -0.5367    1.3138 H   0  0  0  0  0  0  0  0  0  0  0  0
    3.8535   -2.2241    1.2241 H   0  0  0  0  0  0  0  0  0  0  0  0
    2.8243    0.3399   -1.7915 H   0  0  0  0  0  0  0  0  0  0  0  0
    1.4207    1.7020    1.9501 H   0  0  0  0  0  0  0  0  0  0  0  0
   -4.3934   -1.5166    0.4691 H   0  0  0  0  0  0  0  0  0  0  0  0
    2.2761    3.0452   -1.9057 H   0  0  0  0  0  0  0  0  0  0  0  0
   -2.9706    3.4594   -0.3522 H   0  0  0  0  0  0  0  0  0  0  0  0
   -1.9870    3.1463    1.0970 H   0  0  0  0  0  0  0  0  0  0  0  0
   -1.2727    3.0000   -0.5151 H   0  0  0  0  0  0  0  0  0  0  0  0
  1 15  1  0  0  0  0
  1 17  1  0  0  0  0
  2  9  2  0  0  0  0
  3  7  1  0  0  0  0
  3 13  1  0  0  0  0
  3 14  1  0  0  0  0
  4  8  1  0  0  0  0
  4  9  1  0  0  0  0
  4 24  1  0  0  0  0
  5 12  1  0  0  0  0
  5 17  2  0  0  0  0
  6 14  2  0  0  0  0
  6 16  1  0  0  0  0
  7  9  1  0  0  0  0
  7 11  1  0  0  0  0
  7 19  1  0  0  0  0
  8 10  1  0  0  0  0
  8 20  1  0  0  0  0
  8 21  1  0  0  0  0
 10 12  1  0  0  0  0
 10 22  1  0  0  0  0
 10 23  1  0  0  0  0
 11 25  1  0  0  0  0
 11 26  1  0  0  0  0
 11 27  1  0  0  0  0
 12 15  2  0  0  0  0
 13 16  2  0  0  0  0
 13 28  1  0  0  0  0
 14 29  1  0  0  0  0
 15 30  1  0  0  0  0
 16 31  1  0  0  0  0
 17 18  1  0  0  0  0
 18 32  1  0  0  0  0
 18 33  1  0  0  0  0
 18 34  1  0  0  0  0
M  END
> <PUBCHEM_COMPOUND_CID>
47205572

> <PUBCHEM_CONFORMER_RMSD>
0.8

> <PUBCHEM_CONFORMER_DIVERSEORDER>
1
68
299
218
27
142
160
169
164
23
171
313
290
31
151
99
62
323
152
127
76
320
71
268
81
117
130
289
37
253
57
93
309
177
222
286
15
2
107
26
194
229
302
234
121
231
63
256
12
87
115
198
247
325
74
166
300
162
181
102
17
114
39
321
202
147
28
72
144
263
155
262
318
213
138
236
35
270
65
163
279
77
228
308
145
60
255
116
212
19
125
217
18
112
58
66
154
316
259
44
139
195
317
193
278
211
276
224
298
250
70
153
36
40
280
254
232
73
80
179
184
82
274
188
182
310
105
251
173
243
245
54
56
156
230
98
175
249
95
16
261
83
120
126
133
129
260
197
22
239
257
75
297
7
314
303
322
242
191
199
161
67
192
204
14
100
305
209
282
176
89
88
206
264
24
104
91
103
9
122
79
141
258
246
275
11
296
8
50
196
327
69
271
200
167
111
326
131
113
295
64
216
45
208
5
101
285
269
92
119
30
272
49
159
10
292
6
244
148
324
186
210
284
183
33
132
170
3
301
29
252
124
150
240
86
123
304
201
190
135
233
237
41
34
136
157
43
248
59
25
312
146
319
106
221
21
266
165
185
180
158
110
13
137
94
48
205
220
189
168
140
287
84
307
78
315
90
109
219
172
283
187
227
149
288
226
97
38
203
85
215
265
4
118
281
46
51
20
241
238
96
311
143
207
52
223
108
225
293
32
128
134
235
214
55
273
291
178
174
61
294
306
267
42
53
277
47

> <PUBCHEM_MMFF94_PARTIAL_CHARGES>
22
1 -0.08
10 0.18
12 0.05
13 -0.3
14 0.04
15 -0.11
16 0.08
17 0.2
18 0.18
2 -0.57
24 0.37
28 0.15
29 0.15
3 0.05
30 0.15
31 0.15
4 -0.73
5 -0.57
6 -0.57
7 0.32
8 0.3
9 0.57

> <PUBCHEM_EFFECTIVE_ROTOR_COUNT>
6

> <PUBCHEM_PHARMACOPHORE_FEATURES>
6
1 2 acceptor
1 4 donor
1 5 acceptor
3 3 6 14 cation
5 1 5 12 15 17 rings
5 3 6 13 14 16 rings

> <PUBCHEM_HEAVY_ATOM_COUNT>
18

> <PUBCHEM_ATOM_DEF_STEREO_COUNT>
0

> <PUBCHEM_ATOM_UDEF_STEREO_COUNT>
1

> <PUBCHEM_BOND_DEF_STEREO_COUNT>
0

> <PUBCHEM_BOND_UDEF_STEREO_COUNT>
0

> <PUBCHEM_ISOTOPIC_ATOM_COUNT>
0

> <PUBCHEM_COMPONENT_COUNT>
1

> <PUBCHEM_CACTVS_TAUTO_COUNT>
2

> <PUBCHEM_CONFORMER_ID>
02D04CC400000001

> <PUBCHEM_MMFF94_ENERGY>
13.9954

> <PUBCHEM_FEATURE_SELFOVERLAP>
30.446

> <PUBCHEM_SHAPE_FINGERPRINT>
10498660 4 17979073786699805917
10616163 171 18267017250414542005
11725454 13 16085887340251926880
128993 33 18341324535458597813
13132413 78 18338806714334845282
13140716 1 18340210665602333115
13764800 53 17770213860548827819
14026960 21 18411973685603751387
14250199 8 18409737261493670895
14251757 17 17826194576449817236
14386348 128 18337950095655144801
15442244 35 18412271631637766770
15775835 57 18338229367102519061
17093844 170 17187011328314702348
18219364 16 18127982016739333853
192875 21 18193585348325194039
20304884 271 18338232652831927131
20671657 1 18340767053051038378
21141583 151 17543898023682121732
21501502 16 18338520716167170006
22094290 62 18411705382832983426
23557571 272 16950855712629477311
2748010 2 17905054998693460831
44154327 71 18269549447379266741
5048184 11 18268424651158206613
526903 126 17905046950230748737
5939293 188 18338804527811525680
7097593 13 18200891671764380490
7832392 63 18120658199682826567

> <PUBCHEM_SHAPE_MULTIPOLES>
348.49
6.52
3.62
1.01
2.5
0.59
0.08
0.97
-0.93
-0.65
0.35
-0.4
0.05
-0.76

> <PUBCHEM_SHAPE_SELFOVERLAP>
706.367

> <PUBCHEM_SHAPE_VOLUME>
206.8

> <PUBCHEM_COORDINATE_TYPE>
2
5
10

$$$$

