17396020
  -OEChem-06241222533D

 56 59  0     1  0  0  0  0  0999 V2000
    5.3495    1.0088    0.4079 S   0  0  0  0  0  0  0  0  0  0  0  0
    5.3724    1.5147    1.7647 O   0  0  0  0  0  0  0  0  0  0  0  0
    6.0540    1.6648   -0.6740 O   0  0  0  0  0  0  0  0  0  0  0  0
   -1.0308   -1.8815    2.0319 O   0  0  0  0  0  0  0  0  0  0  0  0
   -3.4284   -2.3471    0.8518 O   0  0  0  0  0  0  0  0  0  0  0  0
   -3.1981    1.9686   -1.2013 O   0  0  0  0  0  0  0  0  0  0  0  0
    2.2114   -1.2336   -0.5925 N   0  0  0  0  0  0  0  0  0  0  0  0
    3.5698   -0.7072   -0.5258 C   0  0  1  0  0  0  0  0  0  0  0  0
    3.6461    0.7591   -0.0793 C   0  0  0  0  0  0  0  0  0  0  0  0
    4.5050   -1.4911    0.4112 C   0  0  0  0  0  0  0  0  0  0  0  0
    5.8179   -0.7157    0.4305 C   0  0  0  0  0  0  0  0  0  0  0  0
    1.3470   -1.3284    0.4667 C   0  0  0  0  0  0  0  0  0  0  0  0
    1.6040   -1.7099   -1.7250 C   0  0  0  0  0  0  0  0  0  0  0  0
    0.1697   -1.8729    0.0030 C   0  0  0  0  0  0  0  0  0  0  0  0
    0.3323   -2.1141   -1.3835 C   0  0  0  0  0  0  0  0  0  0  0  0
    1.7263   -0.8886    1.8270 C   0  0  0  0  0  0  0  0  0  0  0  0
    2.2866   -1.7391   -3.0350 C   0  0  0  0  0  0  0  0  0  0  0  0
   -0.9901   -2.1343    0.8065 C   0  0  0  0  0  0  0  0  0  0  0  0
   -2.2530   -2.7474    0.1743 C   0  0  0  0  0  0  0  0  0  0  0  0
   -4.0497   -1.2064    0.4047 C   0  0  0  0  0  0  0  0  0  0  0  0
   -3.2989   -0.1855   -0.1783 C   0  0  0  0  0  0  0  0  0  0  0  0
   -5.4319   -1.0695    0.5334 C   0  0  0  0  0  0  0  0  0  0  0  0
   -3.9306    0.9723   -0.6326 C   0  0  0  0  0  0  0  0  0  0  0  0
   -6.0633    0.0884    0.0791 C   0  0  0  0  0  0  0  0  0  0  0  0
   -5.3127    1.1093   -0.5038 C   0  0  0  0  0  0  0  0  0  0  0  0
   -2.0204    2.3399   -0.5747 C   0  0  0  0  0  0  0  0  0  0  0  0
   -1.9924    2.5188    0.8084 C   0  0  0  0  0  0  0  0  0  0  0  0
   -0.8619    2.5354   -1.3268 C   0  0  0  0  0  0  0  0  0  0  0  0
   -0.8062    2.8934    1.4395 C   0  0  0  0  0  0  0  0  0  0  0  0
    0.3243    2.9100   -0.6956 C   0  0  0  0  0  0  0  0  0  0  0  0
    0.3521    3.0889    0.6875 C   0  0  0  0  0  0  0  0  0  0  0  0
    4.0049   -0.7641   -1.5299 H   0  0  0  0  0  0  0  0  0  0  0  0
    3.0041    1.0662    0.7432 H   0  0  0  0  0  0  0  0  0  0  0  0
    3.4344    1.4251   -0.9222 H   0  0  0  0  0  0  0  0  0  0  0  0
    4.1443   -1.6088    1.4327 H   0  0  0  0  0  0  0  0  0  0  0  0
    4.6699   -2.5072    0.0336 H   0  0  0  0  0  0  0  0  0  0  0  0
    6.4168   -0.9253    1.3192 H   0  0  0  0  0  0  0  0  0  0  0  0
    6.4047   -0.9150   -0.4711 H   0  0  0  0  0  0  0  0  0  0  0  0
   -0.3856   -2.5382   -2.0718 H   0  0  0  0  0  0  0  0  0  0  0  0
    0.9855   -0.1662    2.1907 H   0  0  0  0  0  0  0  0  0  0  0  0
    2.6877   -0.4167    1.9853 H   0  0  0  0  0  0  0  0  0  0  0  0
    1.6964   -1.7503    2.5047 H   0  0  0  0  0  0  0  0  0  0  0  0
    1.6284   -2.1553   -3.8055 H   0  0  0  0  0  0  0  0  0  0  0  0
    3.1832   -2.3664   -3.0000 H   0  0  0  0  0  0  0  0  0  0  0  0
    2.5670   -0.7310   -3.3571 H   0  0  0  0  0  0  0  0  0  0  0  0
   -2.3259   -2.5493   -0.9002 H   0  0  0  0  0  0  0  0  0  0  0  0
   -2.1620   -3.8339    0.2877 H   0  0  0  0  0  0  0  0  0  0  0  0
   -2.2277   -0.2668   -0.3057 H   0  0  0  0  0  0  0  0  0  0  0  0
   -6.0217   -1.8615    0.9866 H   0  0  0  0  0  0  0  0  0  0  0  0
   -7.1395    0.1951    0.1795 H   0  0  0  0  0  0  0  0  0  0  0  0
   -5.8101    2.0091   -0.8554 H   0  0  0  0  0  0  0  0  0  0  0  0
   -2.8848    2.3940    1.4159 H   0  0  0  0  0  0  0  0  0  0  0  0
   -0.8774    2.3958   -2.4042 H   0  0  0  0  0  0  0  0  0  0  0  0
   -0.7850    3.0363    2.5159 H   0  0  0  0  0  0  0  0  0  0  0  0
    1.2267    3.0607   -1.2808 H   0  0  0  0  0  0  0  0  0  0  0  0
    1.2763    3.3792    1.1787 H   0  0  0  0  0  0  0  0  0  0  0  0
  1  2  2  0  0  0  0
  1  3  2  0  0  0  0
  1  9  1  0  0  0  0
  1 11  1  0  0  0  0
  4 18  2  0  0  0  0
  5 19  1  0  0  0  0
  5 20  1  0  0  0  0
  6 23  1  0  0  0  0
  6 26  1  0  0  0  0
  7  8  1  0  0  0  0
  7 12  1  0  0  0  0
  7 13  1  0  0  0  0
  8  9  1  0  0  0  0
  8 10  1  0  0  0  0
  8 32  1  0  0  0  0
  9 33  1  0  0  0  0
  9 34  1  0  0  0  0
 10 11  1  0  0  0  0
 10 35  1  0  0  0  0
 10 36  1  0  0  0  0
 11 37  1  0  0  0  0
 11 38  1  0  0  0  0
 12 14  2  0  0  0  0
 12 16  1  0  0  0  0
 13 15  2  0  0  0  0
 13 17  1  0  0  0  0
 14 15  1  0  0  0  0
 14 18  1  0  0  0  0
 15 39  1  0  0  0  0
 16 40  1  0  0  0  0
 16 41  1  0  0  0  0
 16 42  1  0  0  0  0
 17 43  1  0  0  0  0
 17 44  1  0  0  0  0
 17 45  1  0  0  0  0
 18 19  1  0  0  0  0
 19 46  1  0  0  0  0
 19 47  1  0  0  0  0
 20 21  2  0  0  0  0
 20 22  1  0  0  0  0
 21 23  1  0  0  0  0
 21 48  1  0  0  0  0
 22 24  2  0  0  0  0
 22 49  1  0  0  0  0
 23 25  2  0  0  0  0
 24 25  1  0  0  0  0
 24 50  1  0  0  0  0
 25 51  1  0  0  0  0
 26 27  2  0  0  0  0
 26 28  1  0  0  0  0
 27 29  1  0  0  0  0
 27 52  1  0  0  0  0
 28 30  2  0  0  0  0
 28 53  1  0  0  0  0
 29 31  2  0  0  0  0
 29 54  1  0  0  0  0
 30 31  1  0  0  0  0
 30 55  1  0  0  0  0
 31 56  1  0  0  0  0
M  END
> <PUBCHEM_COMPOUND_CID>
17396020

> <PUBCHEM_CONFORMER_RMSD>
1.4

> <PUBCHEM_CONFORMER_DIVERSEORDER>
6
5
44
77
27
48
91
41
14
30
115
51
92
99
118
134
87
58
82
76
93
52
114
40
69
66
24
29
117
105
128
11
131
112
36
19
80
57
71
38
94
61
116
15
110
4
68
81
23
56
20
86
10
102
33
126
62
64
120
65
78
101
53
39
60
12
85
119
121
79
107
17
54
74
108
50
106
103
132
37
133
109
22
16
45
3
89
122
88
25
63
135
98
127
104
75
34
8
2
96
26
113
55
49
67
46
97
35
32
130
100
95
83
72
59
1
13
28
111
70
123
7
9
31
90
124
125
84
18
47
42
43
21
73
129

> <PUBCHEM_MMFF94_PARTIAL_CHARGES>
40
1 1.09
11 0.11
12 -0.33
13 -0.33
14 -0.09
15 -0.15
16 0.18
17 0.18
18 0.6
19 0.34
2 -0.65
20 0.08
21 -0.15
22 -0.15
23 0.08
24 -0.15
25 -0.15
26 0.08
27 -0.15
28 -0.15
29 -0.15
3 -0.65
30 -0.15
31 -0.15
39 0.15
4 -0.57
48 0.15
49 0.15
5 -0.36
50 0.15
51 0.15
52 0.15
53 0.15
54 0.15
55 0.15
56 0.15
6 -0.17
7 0.05
8 0.26
9 0.11

> <PUBCHEM_EFFECTIVE_ROTOR_COUNT>
7.8

> <PUBCHEM_PHARMACOPHORE_FEATURES>
10
1 2 acceptor
1 3 acceptor
1 4 acceptor
1 5 acceptor
1 6 acceptor
1 7 cation
5 1 8 9 10 11 rings
5 7 12 13 14 15 rings
6 20 21 22 23 24 25 rings
6 26 27 28 29 30 31 rings

> <PUBCHEM_HEAVY_ATOM_COUNT>
31

> <PUBCHEM_ATOM_DEF_STEREO_COUNT>
0

> <PUBCHEM_ATOM_UDEF_STEREO_COUNT>
1

> <PUBCHEM_BOND_DEF_STEREO_COUNT>
0

> <PUBCHEM_BOND_UDEF_STEREO_COUNT>
0

> <PUBCHEM_ISOTOPIC_ATOM_COUNT>
0

> <PUBCHEM_COMPONENT_COUNT>
1

> <PUBCHEM_CACTVS_TAUTO_COUNT>
2

> <PUBCHEM_CONFORMER_ID>
0109713400000006

> <PUBCHEM_MMFF94_ENERGY>
91.307

> <PUBCHEM_FEATURE_SELFOVERLAP>
50.766

> <PUBCHEM_SHAPE_FINGERPRINT>
10006869 2 18338528545918820506
10290309 65 18342462594624031927
10498660 4 18196931287432389975
108634 29 18338789113226758558
11112241 14 17242759505679789129
11488393 25 17387122281783203678
11646440 116 18410281515680903497
11828532 37 17915172422053219699
12128747 34 18198904898030856202
12156800 1 14184196192204610825
12166972 35 17418368112404224350
12422481 6 18265620887806433344
12467345 10 17846503651215059242
12596602 18 17203331074647265642
13165053 103 16591935724901224542
13402501 40 18409168800896612097
13726171 33 18270119140384727929
13911987 19 17095799915635471306
14787075 74 18409456903039600285
14790565 3 17401486443644539369
14840074 17 17821449040834835229
15927050 60 17539133852916167204
18336668 15 17988923336473731397
18769570 83 18201442445442546410
19311894 1 16388731866382497999
20600515 1 18131061624022743607
20905425 154 17980471270600834487
3493558 16 17844517813204261468
354706 132 18123449838669160356
3680242 22 18272645796592674769
392239 28 18338795718722760561
469060 322 17773571962971725337
5265222 85 17259896321954046324
77296 10 18058456580869201746

> <PUBCHEM_SHAPE_MULTIPOLES>
607.49
12.35
3.89
1.73
3.6
1.79
-0.56
1.05
1.26
-1.02
0.04
1.03
-0.52
1.59

> <PUBCHEM_SHAPE_SELFOVERLAP>
1303.567

> <PUBCHEM_SHAPE_VOLUME>
338

> <PUBCHEM_COORDINATE_TYPE>
2
5
10

$$$$

