11771
  -OEChem-06261206063D

 27 27  0     0  0  0  0  0  0999 V2000
    2.3614   -2.7099   -0.0004 O   0  5  0  0  0  0  0  0  0  0  0  0
    2.9263    2.0870    0.0009 O   0  5  0  0  0  0  0  0  0  0  0  0
   -3.5278   -0.6900    0.0009 O   0  5  0  0  0  0  0  0  0  0  0  0
    0.3452   -3.5781    0.0000 O   0  0  0  0  0  0  0  0  0  0  0  0
    1.1671    3.4000   -0.0003 O   0  0  0  0  0  0  0  0  0  0  0  0
   -3.2713    1.4902    0.0004 O   0  0  0  0  0  0  0  0  0  0  0  0
    1.1150   -2.5905   -0.0003 N   0  3  0  0  0  0  0  0  0  0  0  0
    1.6864    2.2607    0.0003 N   0  3  0  0  0  0  0  0  0  0  0  0
   -2.8012    0.3298    0.0001 N   0  3  0  0  0  0  0  0  0  0  0  0
    1.3851   -0.1631    0.0000 C   0  0  0  0  0  0  0  0  0  0  0  0
   -0.8341   -1.1181   -0.0004 C   0  0  0  0  0  0  0  0  0  0  0  0
   -0.5516    1.2812   -0.0004 C   0  0  0  0  0  0  0  0  0  0  0  0
    0.5513   -1.2813    0.0000 C   0  0  0  0  0  0  0  0  0  0  0  0
    0.8337    1.1182   -0.0002 C   0  0  0  0  0  0  0  0  0  0  0  0
   -1.3855    0.1631   -0.0005 C   0  0  0  0  0  0  0  0  0  0  0  0
    2.8744   -0.3382    0.0005 C   0  0  0  0  0  0  0  0  0  0  0  0
   -1.7303   -2.3198    0.0003 C   0  0  0  0  0  0  0  0  0  0  0  0
   -1.1441    2.6588   -0.0009 C   0  0  0  0  0  0  0  0  0  0  0  0
    3.2806    0.2650    0.8227 H   0  0  0  0  0  0  0  0  0  0  0  0
    3.4267   -1.2113    0.3228 H   0  0  0  0  0  0  0  0  0  0  0  0
    3.2955   -0.0588   -0.9720 H   0  0  0  0  0  0  0  0  0  0  0  0
   -2.7618   -2.3613    0.3251 H   0  0  0  0  0  0  0  0  0  0  0  0
   -1.7006   -2.8235   -0.9727 H   0  0  0  0  0  0  0  0  0  0  0  0
   -1.4099   -2.9744    0.8211 H   0  0  0  0  0  0  0  0  0  0  0  0
   -1.8752    2.7088   -0.8180 H   0  0  0  0  0  0  0  0  0  0  0  0
   -1.5893    2.8889    0.9737 H   0  0  0  0  0  0  0  0  0  0  0  0
   -0.6629    3.5691   -0.3343 H   0  0  0  0  0  0  0  0  0  0  0  0
  1  7  1  0  0  0  0
  2  8  1  0  0  0  0
  3  9  1  0  0  0  0
  4  7  2  0  0  0  0
  5  8  2  0  0  0  0
  6  9  2  0  0  0  0
  7 13  1  0  0  0  0
  8 14  1  0  0  0  0
  9 15  1  0  0  0  0
 10 13  2  0  0  0  0
 10 14  1  0  0  0  0
 10 16  1  0  0  0  0
 11 13  1  0  0  0  0
 11 15  2  0  0  0  0
 11 17  1  0  0  0  0
 12 14  2  0  0  0  0
 12 15  1  0  0  0  0
 12 18  1  0  0  0  0
 16 19  1  0  0  0  0
 16 20  1  0  0  0  0
 16 21  1  0  0  0  0
 17 22  1  0  0  0  0
 17 23  1  0  0  0  0
 17 24  1  0  0  0  0
 18 25  1  0  0  0  0
 18 26  1  0  0  0  0
 18 27  1  0  0  0  0
M  CHG  6   1  -1   2  -1   3  -1   7   1   8   1   9   1
M  END
> <PUBCHEM_COMPOUND_CID>
11771

> <PUBCHEM_CONFORMER_RMSD>
0.6

> <PUBCHEM_CONFORMER_DIVERSEORDER>
1

> <PUBCHEM_MMFF94_PARTIAL_CHARGES>
18
1 -0.52
10 -0.14
11 -0.14
12 -0.14
13 0.13
14 0.13
15 0.13
16 0.14
17 0.14
18 0.14
2 -0.52
3 -0.52
4 -0.52
5 -0.52
6 -0.52
7 0.91
8 0.91
9 0.91

> <PUBCHEM_EFFECTIVE_ROTOR_COUNT>
3

> <PUBCHEM_PHARMACOPHORE_FEATURES>
10
1 1 acceptor
1 1 anion
1 2 acceptor
1 2 anion
1 3 acceptor
1 3 anion
1 4 acceptor
1 5 acceptor
1 6 acceptor
6 10 11 12 13 14 15 rings

> <PUBCHEM_HEAVY_ATOM_COUNT>
18

> <PUBCHEM_ATOM_DEF_STEREO_COUNT>
0

> <PUBCHEM_ATOM_UDEF_STEREO_COUNT>
0

> <PUBCHEM_BOND_DEF_STEREO_COUNT>
0

> <PUBCHEM_BOND_UDEF_STEREO_COUNT>
0

> <PUBCHEM_ISOTOPIC_ATOM_COUNT>
0

> <PUBCHEM_COMPONENT_COUNT>
1

> <PUBCHEM_CACTVS_TAUTO_COUNT>
1

> <PUBCHEM_CONFORMER_ID>
00002DFB00000001

> <PUBCHEM_MMFF94_ENERGY>
161.9627

> <PUBCHEM_FEATURE_SELFOVERLAP>
50.989

> <PUBCHEM_SHAPE_FINGERPRINT>
10411042 1 17978228593245594311
10967382 1 18410855430068671972
12553582 1 17905886229737455343
13140716 1 18338798901177352640
13380535 76 18194688068203635219
14790565 3 18266435733402935500
16945 1 18410575119112494565
193761 8 18410855490235163367
19591789 44 18194956349141273186
20510252 161 17685487654939092041
20645477 70 18342185457927624463
21501502 16 18194404389956161473
2334 1 18122344571072413699
23402539 116 16751863143291406485
23559900 14 17974557006689391996
2748010 2 18195523697040732047
352729 6 17978510823613530128
54173680 148 17186440140624024186
7364860 26 18410011069557774691
81228 2 17329712531303832258

> <PUBCHEM_SHAPE_MULTIPOLES>
320.27
4.11
4.11
0.57
1.44
0.6
0
-0.6
0
-1.44
0
0
0
0

> <PUBCHEM_SHAPE_SELFOVERLAP>
694.697

> <PUBCHEM_SHAPE_VOLUME>
176.7

> <PUBCHEM_COORDINATE_TYPE>
2
5
10

$$$$

