17396346
  -OEChem-06241222563D

 48 50  0     1  0  0  0  0  0999 V2000
   -3.0218    1.6064    1.6578 S   0  0  0  0  0  0  0  0  0  0  0  0
    4.8794    0.9831   -1.9952 O   0  0  0  0  0  0  0  0  0  0  0  0
   -1.2840   -2.5787    0.7324 O   0  0  0  0  0  0  0  0  0  0  0  0
    4.5309    0.0124    0.1577 N   0  0  0  0  0  0  0  0  0  0  0  0
   -5.4211   -0.4765   -0.3786 N   0  0  0  0  0  0  0  0  0  0  0  0
   -1.7451   -0.9468   -0.8490 N   0  0  0  0  0  0  0  0  0  0  0  0
    5.3925   -0.2587    1.2922 C   0  0  0  0  0  0  0  0  0  0  0  0
    6.5635    0.6815    1.0966 C   0  0  0  0  0  0  0  0  0  0  0  0
    6.6746    0.7957   -0.4106 C   0  0  0  0  0  0  0  0  0  0  0  0
   -4.0058   -0.4227    0.0067 C   0  0  1  0  0  0  0  0  0  0  0  0
    5.2450    0.6446   -0.8789 C   0  0  0  0  0  0  0  0  0  0  0  0
    3.1672   -0.4041    0.1206 C   0  0  0  0  0  0  0  0  0  0  0  0
   -3.1553   -1.2345   -0.9806 C   0  0  0  0  0  0  0  0  0  0  0  0
   -3.5396    1.0200    0.1346 C   0  0  0  0  0  0  0  0  0  0  0  0
    2.5960   -1.0211    1.2337 C   0  0  0  0  0  0  0  0  0  0  0  0
    2.4053   -0.1956   -1.0289 C   0  0  0  0  0  0  0  0  0  0  0  0
    0.5008   -1.2209    0.0474 C   0  0  0  0  0  0  0  0  0  0  0  0
   -0.8894   -1.6463    0.0099 C   0  0  0  0  0  0  0  0  0  0  0  0
    1.2628   -1.4294    1.1970 C   0  0  0  0  0  0  0  0  0  0  0  0
    1.0722   -0.6040   -1.0656 C   0  0  0  0  0  0  0  0  0  0  0  0
   -5.8445   -1.8629   -0.5567 C   0  0  0  0  0  0  0  0  0  0  0  0
   -6.2448    0.1889    0.6275 C   0  0  0  0  0  0  0  0  0  0  0  0
   -3.4654    1.9868   -0.8439 C   0  0  0  0  0  0  0  0  0  0  0  0
   -2.9768    3.2252   -0.3365 C   0  0  0  0  0  0  0  0  0  0  0  0
   -2.6964    3.1579    1.0104 C   0  0  0  0  0  0  0  0  0  0  0  0
    5.7061   -1.3075    1.2518 H   0  0  0  0  0  0  0  0  0  0  0  0
    4.9053   -0.0413    2.2466 H   0  0  0  0  0  0  0  0  0  0  0  0
    6.3278    1.6649    1.5225 H   0  0  0  0  0  0  0  0  0  0  0  0
    7.4818    0.3212    1.5684 H   0  0  0  0  0  0  0  0  0  0  0  0
    7.0877    1.7598   -0.7168 H   0  0  0  0  0  0  0  0  0  0  0  0
    7.2706   -0.0192   -0.8336 H   0  0  0  0  0  0  0  0  0  0  0  0
   -3.8819   -0.9070    0.9882 H   0  0  0  0  0  0  0  0  0  0  0  0
   -3.4113   -0.9861   -2.0179 H   0  0  0  0  0  0  0  0  0  0  0  0
   -3.2917   -2.3128   -0.8431 H   0  0  0  0  0  0  0  0  0  0  0  0
   -1.3961   -0.1564   -1.3805 H   0  0  0  0  0  0  0  0  0  0  0  0
    3.1492   -1.2156    2.1464 H   0  0  0  0  0  0  0  0  0  0  0  0
    2.7862    0.2677   -1.9287 H   0  0  0  0  0  0  0  0  0  0  0  0
   -5.6135   -2.4893    0.3130 H   0  0  0  0  0  0  0  0  0  0  0  0
   -6.9286   -1.9118   -0.7177 H   0  0  0  0  0  0  0  0  0  0  0  0
   -5.4110   -2.3152   -1.4544 H   0  0  0  0  0  0  0  0  0  0  0  0
   -7.3072    0.0901    0.3730 H   0  0  0  0  0  0  0  0  0  0  0  0
   -6.0640    1.2676    0.6693 H   0  0  0  0  0  0  0  0  0  0  0  0
   -6.1050   -0.2339    1.6295 H   0  0  0  0  0  0  0  0  0  0  0  0
    0.8353   -1.9063    2.0753 H   0  0  0  0  0  0  0  0  0  0  0  0
    0.5245   -0.4515   -1.9910 H   0  0  0  0  0  0  0  0  0  0  0  0
   -3.7463    1.8193   -1.8760 H   0  0  0  0  0  0  0  0  0  0  0  0
   -2.8380    4.1200   -0.9293 H   0  0  0  0  0  0  0  0  0  0  0  0
   -2.3159    3.9456    1.6453 H   0  0  0  0  0  0  0  0  0  0  0  0
  1 14  1  0  0  0  0
  1 25  1  0  0  0  0
  2 11  2  0  0  0  0
  3 18  2  0  0  0  0
  4  7  1  0  0  0  0
  4 11  1  0  0  0  0
  4 12  1  0  0  0  0
  5 10  1  0  0  0  0
  5 21  1  0  0  0  0
  5 22  1  0  0  0  0
  6 13  1  0  0  0  0
  6 18  1  0  0  0  0
  6 35  1  0  0  0  0
  7  8  1  0  0  0  0
  7 26  1  0  0  0  0
  7 27  1  0  0  0  0
  8  9  1  0  0  0  0
  8 28  1  0  0  0  0
  8 29  1  0  0  0  0
  9 11  1  0  0  0  0
  9 30  1  0  0  0  0
  9 31  1  0  0  0  0
 10 13  1  0  0  0  0
 10 14  1  0  0  0  0
 10 32  1  0  0  0  0
 12 15  2  0  0  0  0
 12 16  1  0  0  0  0
 13 33  1  0  0  0  0
 13 34  1  0  0  0  0
 14 23  2  0  0  0  0
 15 19  1  0  0  0  0
 15 36  1  0  0  0  0
 16 20  2  0  0  0  0
 16 37  1  0  0  0  0
 17 18  1  0  0  0  0
 17 19  2  0  0  0  0
 17 20  1  0  0  0  0
 19 44  1  0  0  0  0
 20 45  1  0  0  0  0
 21 38  1  0  0  0  0
 21 39  1  0  0  0  0
 21 40  1  0  0  0  0
 22 41  1  0  0  0  0
 22 42  1  0  0  0  0
 22 43  1  0  0  0  0
 23 24  1  0  0  0  0
 23 46  1  0  0  0  0
 24 25  2  0  0  0  0
 24 47  1  0  0  0  0
 25 48  1  0  0  0  0
M  END
> <PUBCHEM_COMPOUND_CID>
17396346

> <PUBCHEM_CONFORMER_RMSD>
0.8

> <PUBCHEM_CONFORMER_DIVERSEORDER>
1
34
202
122
78
243
47
144
97
178
195
200
96
140
92
186
222
141
194
36
197
24
218
172
245
153
180
110
225
145
136
160
30
220
173
161
162
111
246
191
211
114
167
45
234
137
151
35
132
38
196
138
176
155
77
106
166
221
187
223
241
123
184
208
219
95
76
86
52
130
41
204
69
237
175
2
226
158
147
40
149
165
216
118
43
105
85
9
104
188
37
217
93
108
98
121
94
56
5
146
83
139
240
80
62
181
58
107
101
154
212
46
174
134
233
70
10
39
135
168
157
31
60
99
53
210
201
113
25
142
117
170
51
244
23
238
143
150
28
116
3
207
185
190
26
8
169
64
88
63
228
127
192
152
54
128
236
22
177
235
156
164
6
13
68
74
44
232
66
103
163
126
129
14
20
133
18
182
213
205
17
73
84
193
131
227
59
71
82
231
15
55
49
239
67
89
242
159
100
199
48
4
120
148
183
21
203
125
61
65
87
19
50
119
81
215
224
229
75
27
90
124
198
12
79
230
7
109
179
42
11
16
32
171
115
209
206
33
189
29
102
91
57
112
72
214

> <PUBCHEM_MMFF94_PARTIAL_CHARGES>
32
1 -0.08
10 0.45
11 0.57
12 0.12
13 0.3
14 -0.14
15 -0.15
16 -0.15
17 0.09
18 0.54
19 -0.15
2 -0.57
20 -0.15
21 0.27
22 0.27
23 -0.15
24 -0.15
25 -0.11
3 -0.57
35 0.37
36 0.15
37 0.15
4 -0.48
44 0.15
45 0.15
46 0.15
47 0.15
48 0.15
5 -0.81
6 -0.73
7 0.3
9 0.06

> <PUBCHEM_EFFECTIVE_ROTOR_COUNT>
7.8

> <PUBCHEM_PHARMACOPHORE_FEATURES>
7
1 2 acceptor
1 3 acceptor
1 5 cation
1 6 donor
5 1 14 23 24 25 rings
5 4 7 8 9 11 rings
6 12 15 16 17 19 20 rings

> <PUBCHEM_HEAVY_ATOM_COUNT>
25

> <PUBCHEM_ATOM_DEF_STEREO_COUNT>
0

> <PUBCHEM_ATOM_UDEF_STEREO_COUNT>
1

> <PUBCHEM_BOND_DEF_STEREO_COUNT>
0

> <PUBCHEM_BOND_UDEF_STEREO_COUNT>
0

> <PUBCHEM_ISOTOPIC_ATOM_COUNT>
0

> <PUBCHEM_COMPONENT_COUNT>
1

> <PUBCHEM_CACTVS_TAUTO_COUNT>
4

> <PUBCHEM_CONFORMER_ID>
0109727A00000001

> <PUBCHEM_MMFF94_ENERGY>
64.9388

> <PUBCHEM_FEATURE_SELFOVERLAP>
35.52

> <PUBCHEM_SHAPE_FINGERPRINT>
10 15 15051735245001900390
10087517 78 18408891719919644412
10165383 225 16660640761508800975
10670039 82 18409163342330873548
10730089 173 18333732420421577697
11045977 3 12967128294248399062
11315181 36 13326854448224244687
12107183 9 17693950991138378946
12166972 35 17846500271086522629
12236239 1 18202006529283482490
12390115 104 18188482592381138929
12596602 18 17418093200158394217
12655364 131 16916247558001148530
12916748 109 18410007749643351334
13726171 33 18115303513700179529
14251764 75 17755290520344409529
14739800 52 18337410270369973096
15183329 4 16950276330394841062
15348495 7 13470400042300972860
15575132 122 18411982503171902397
18603816 31 12463294652677791289
19377110 9 18272932747399480329
20281389 69 18410860958482944448
21033650 10 18190436394721298172
21315764 268 18335148566103662024
249057 3 9295290547320893379
34797466 226 17531523188299991404
392239 28 18129925803268668987
4015057 19 13613947843928536295
4098825 35 17676758881466292574
44062 13 9150875188481214305
46194498 28 17313106294200575448
469060 322 18339067260110171921
6299153 45 18199758119074531858
7808743 9 18262800803737554257
9849439 229 17758393363638227657
9981440 41 18271803562244037987

> <PUBCHEM_SHAPE_MULTIPOLES>
491.66
16.49
2.67
1.42
13.06
1.69
0.04
3.29
-0.11
-4.2
0.27
1
0.24
-1.18

> <PUBCHEM_SHAPE_SELFOVERLAP>
1029.921

> <PUBCHEM_SHAPE_VOLUME>
281.8

> <PUBCHEM_COORDINATE_TYPE>
2
5
10

$$$$

