11562
  -OEChem-06261205503D

 14 14  0     0  0  0  0  0  0999 V2000
    2.9093   -0.9643   -0.0008 Br  0  0  0  0  0  0  0  0  0  0  0  0
   -2.3621   -1.2742   -0.0002 N   0  0  0  0  0  0  0  0  0  0  0  0
   -1.2199   -0.4465    0.0000 C   0  0  0  0  0  0  0  0  0  0  0  0
    0.0542   -1.0143    0.0006 C   0  0  0  0  0  0  0  0  0  0  0  0
   -1.3652    0.9409   -0.0004 C   0  0  0  0  0  0  0  0  0  0  0  0
    1.1830   -0.1947    0.0007 C   0  0  0  0  0  0  0  0  0  0  0  0
   -0.2366    1.7604   -0.0002 C   0  0  0  0  0  0  0  0  0  0  0  0
    1.0374    1.1926    0.0003 C   0  0  0  0  0  0  0  0  0  0  0  0
    0.1633   -2.0967    0.0005 H   0  0  0  0  0  0  0  0  0  0  0  0
   -2.3526    1.3955   -0.0009 H   0  0  0  0  0  0  0  0  0  0  0  0
   -0.3499    2.8406   -0.0006 H   0  0  0  0  0  0  0  0  0  0  0  0
    1.9065    1.8454    0.0001 H   0  0  0  0  0  0  0  0  0  0  0  0
   -3.2857   -0.8622   -0.0011 H   0  0  0  0  0  0  0  0  0  0  0  0
   -2.2584   -2.2801   -0.0003 H   0  0  0  0  0  0  0  0  0  0  0  0
  1  6  1  0  0  0  0
  2  3  1  0  0  0  0
  2 13  1  0  0  0  0
  2 14  1  0  0  0  0
  3  4  2  0  0  0  0
  3  5  1  0  0  0  0
  4  6  1  0  0  0  0
  4  9  1  0  0  0  0
  5  7  2  0  0  0  0
  5 10  1  0  0  0  0
  6  8  2  0  0  0  0
  7  8  1  0  0  0  0
  7 11  1  0  0  0  0
  8 12  1  0  0  0  0
M  END
> <PUBCHEM_COMPOUND_CID>
11562

> <PUBCHEM_CONFORMER_RMSD>
0.4

> <PUBCHEM_CONFORMER_DIVERSEORDER>
1

> <PUBCHEM_MMFF94_PARTIAL_CHARGES>
14
1 -0.11
10 0.15
11 0.15
12 0.15
13 0.4
14 0.4
2 -0.9
3 0.1
4 -0.15
5 -0.15
6 0.11
7 -0.15
8 -0.15
9 0.15

> <PUBCHEM_EFFECTIVE_ROTOR_COUNT>
0

> <PUBCHEM_PHARMACOPHORE_FEATURES>
4
1 1 hydrophobe
1 2 cation
1 2 donor
6 3 4 5 6 7 8 rings

> <PUBCHEM_HEAVY_ATOM_COUNT>
8

> <PUBCHEM_ATOM_DEF_STEREO_COUNT>
0

> <PUBCHEM_ATOM_UDEF_STEREO_COUNT>
0

> <PUBCHEM_BOND_DEF_STEREO_COUNT>
0

> <PUBCHEM_BOND_UDEF_STEREO_COUNT>
0

> <PUBCHEM_ISOTOPIC_ATOM_COUNT>
0

> <PUBCHEM_COMPONENT_COUNT>
1

> <PUBCHEM_CACTVS_TAUTO_COUNT>
1

> <PUBCHEM_CONFORMER_ID>
00002D2A00000001

> <PUBCHEM_MMFF94_ENERGY>
27.0816

> <PUBCHEM_FEATURE_SELFOVERLAP>
20.297

> <PUBCHEM_SHAPE_FINGERPRINT>
10857977 72 18336278902568815890
14128692 85 18411974746112422878
16714656 1 18194680590945173732
16945 1 18194683889327199652
18185500 45 18341613771298573106
20871998 184 18187649153898280942
21040471 1 17834114530107713476
23552423 10 18272928336816226574
241688 4 18412263947429603944
2748010 2 18410863135266602252
29004967 10 18197497311980904593
369184 2 18267307715000532802

> <PUBCHEM_SHAPE_MULTIPOLES>
165.6
3.23
1.73
0.62
1.95
0.35
0
-1.34
0
-0.57
0
0.07
0
0

> <PUBCHEM_SHAPE_SELFOVERLAP>
327.645

> <PUBCHEM_SHAPE_VOLUME>
102.1

> <PUBCHEM_COORDINATE_TYPE>
2
5
10

$$$$

