13380
  -OEChem-06261209313D

 47 46  0     0  0  0  0  0  0999 V2000
   -6.3245   -0.1980    0.1127 P   0  0  0  0  0  0  0  0  0  0  0  0
   -6.3762   -1.1531    1.2574 O   0  0  0  0  0  0  0  0  0  0  0  0
   -0.9398   -0.2143   -0.0135 C   0  0  0  0  0  0  0  0  0  0  0  0
   -2.2130    0.6366    0.0092 C   0  0  0  0  0  0  0  0  0  0  0  0
    0.3441    0.6140   -0.1084 C   0  0  0  0  0  0  0  0  0  0  0  0
   -3.5341   -0.1378    0.0307 C   0  0  0  0  0  0  0  0  0  0  0  0
    1.5843   -0.2807   -0.0355 C   0  0  0  0  0  0  0  0  0  0  0  0
   -4.7802    0.7368    0.0769 C   0  0  0  0  0  0  0  0  0  0  0  0
    2.9016    0.4979   -0.0982 C   0  0  0  0  0  0  0  0  0  0  0  0
    4.1414   -0.3980   -0.0511 C   0  0  0  0  0  0  0  0  0  0  0  0
    5.4257    0.4344   -0.0431 C   0  0  0  0  0  0  0  0  0  0  0  0
    6.6660   -0.4567    0.0423 C   0  0  0  0  0  0  0  0  0  0  0  0
   -7.6038    1.0310    0.1460 C   0  0  0  0  0  0  0  0  0  0  0  0
   -6.4248   -0.9787   -1.4774 C   0  0  0  0  0  0  0  0  0  0  0  0
    7.9493    0.3730    0.0167 C   0  0  0  0  0  0  0  0  0  0  0  0
    9.1838   -0.5065    0.1352 C   0  0  0  0  0  0  0  0  0  0  0  0
   -0.9860   -0.9058   -0.8638 H   0  0  0  0  0  0  0  0  0  0  0  0
   -0.9127   -0.8302    0.8940 H   0  0  0  0  0  0  0  0  0  0  0  0
   -2.2114    1.2935   -0.8700 H   0  0  0  0  0  0  0  0  0  0  0  0
   -2.1778    1.2956    0.8861 H   0  0  0  0  0  0  0  0  0  0  0  0
    0.3498    1.1805   -1.0471 H   0  0  0  0  0  0  0  0  0  0  0  0
    0.3719    1.3426    0.7106 H   0  0  0  0  0  0  0  0  0  0  0  0
   -3.5408   -0.8101    0.8971 H   0  0  0  0  0  0  0  0  0  0  0  0
   -3.5787   -0.7828   -0.8541 H   0  0  0  0  0  0  0  0  0  0  0  0
    1.5586   -0.8614    0.8951 H   0  0  0  0  0  0  0  0  0  0  0  0
    1.5561   -1.0034   -0.8604 H   0  0  0  0  0  0  0  0  0  0  0  0
   -4.7965    1.4047   -0.7917 H   0  0  0  0  0  0  0  0  0  0  0  0
   -4.7494    1.3712    0.9699 H   0  0  0  0  0  0  0  0  0  0  0  0
    2.9232    1.0947   -1.0184 H   0  0  0  0  0  0  0  0  0  0  0  0
    2.9337    1.2063    0.7389 H   0  0  0  0  0  0  0  0  0  0  0  0
    4.1403   -1.0726   -0.9155 H   0  0  0  0  0  0  0  0  0  0  0  0
    4.1045   -1.0240    0.8487 H   0  0  0  0  0  0  0  0  0  0  0  0
    5.4716    1.0446   -0.9533 H   0  0  0  0  0  0  0  0  0  0  0  0
    5.4127    1.1249    0.8090 H   0  0  0  0  0  0  0  0  0  0  0  0
    6.6284   -1.0494    0.9645 H   0  0  0  0  0  0  0  0  0  0  0  0
    6.6703   -1.1638   -0.7962 H   0  0  0  0  0  0  0  0  0  0  0  0
   -7.5503    1.6193    1.0664 H   0  0  0  0  0  0  0  0  0  0  0  0
   -7.5122    1.7164   -0.7015 H   0  0  0  0  0  0  0  0  0  0  0  0
   -8.5902    0.5612    0.0977 H   0  0  0  0  0  0  0  0  0  0  0  0
   -5.6524   -1.7441   -1.5909 H   0  0  0  0  0  0  0  0  0  0  0  0
   -7.3977   -1.4625   -1.6037 H   0  0  0  0  0  0  0  0  0  0  0  0
   -6.3035   -0.2487   -2.2828 H   0  0  0  0  0  0  0  0  0  0  0  0
    8.0034    0.9469   -0.9158 H   0  0  0  0  0  0  0  0  0  0  0  0
    7.9430    1.0947    0.8419 H   0  0  0  0  0  0  0  0  0  0  0  0
    9.1765   -1.0686    1.0745 H   0  0  0  0  0  0  0  0  0  0  0  0
   10.0899    0.1071    0.1137 H   0  0  0  0  0  0  0  0  0  0  0  0
    9.2374   -1.2207   -0.6926 H   0  0  0  0  0  0  0  0  0  0  0  0
  1  2  2  0  0  0  0
  1  8  1  0  0  0  0
  1 13  1  0  0  0  0
  1 14  1  0  0  0  0
  3  4  1  0  0  0  0
  3  5  1  0  0  0  0
  3 17  1  0  0  0  0
  3 18  1  0  0  0  0
  4  6  1  0  0  0  0
  4 19  1  0  0  0  0
  4 20  1  0  0  0  0
  5  7  1  0  0  0  0
  5 21  1  0  0  0  0
  5 22  1  0  0  0  0
  6  8  1  0  0  0  0
  6 23  1  0  0  0  0
  6 24  1  0  0  0  0
  7  9  1  0  0  0  0
  7 25  1  0  0  0  0
  7 26  1  0  0  0  0
  8 27  1  0  0  0  0
  8 28  1  0  0  0  0
  9 10  1  0  0  0  0
  9 29  1  0  0  0  0
  9 30  1  0  0  0  0
 10 11  1  0  0  0  0
 10 31  1  0  0  0  0
 10 32  1  0  0  0  0
 11 12  1  0  0  0  0
 11 33  1  0  0  0  0
 11 34  1  0  0  0  0
 12 15  1  0  0  0  0
 12 35  1  0  0  0  0
 12 36  1  0  0  0  0
 13 37  1  0  0  0  0
 13 38  1  0  0  0  0
 13 39  1  0  0  0  0
 14 40  1  0  0  0  0
 14 41  1  0  0  0  0
 14 42  1  0  0  0  0
 15 16  1  0  0  0  0
 15 43  1  0  0  0  0
 15 44  1  0  0  0  0
 16 45  1  0  0  0  0
 16 46  1  0  0  0  0
 16 47  1  0  0  0  0
M  END
> <PUBCHEM_COMPOUND_CID>
13380

> <PUBCHEM_CONFORMER_RMSD>
1.4

> <PUBCHEM_CONFORMER_DIVERSEORDER>
1
33
7
40
5
14
13
2
45
39
12
25
9
32
21
20
42
29
26
3
4
6
43
15
44
31
10
24
19
11
28
22
16
35
8
34
38
23
36
17
27
41
18
30
37

> <PUBCHEM_MMFF94_PARTIAL_CHARGES>
2
1 0.7
2 -0.7

> <PUBCHEM_EFFECTIVE_ROTOR_COUNT>
11

> <PUBCHEM_PHARMACOPHORE_FEATURES>
2
1 16 hydrophobe
1 2 acceptor

> <PUBCHEM_HEAVY_ATOM_COUNT>
16

> <PUBCHEM_ATOM_DEF_STEREO_COUNT>
0

> <PUBCHEM_ATOM_UDEF_STEREO_COUNT>
0

> <PUBCHEM_BOND_DEF_STEREO_COUNT>
0

> <PUBCHEM_BOND_UDEF_STEREO_COUNT>
0

> <PUBCHEM_ISOTOPIC_ATOM_COUNT>
0

> <PUBCHEM_COMPONENT_COUNT>
1

> <PUBCHEM_CACTVS_TAUTO_COUNT>
1

> <PUBCHEM_CONFORMER_ID>
0000344400000001

> <PUBCHEM_MMFF94_ENERGY>
1.5262

> <PUBCHEM_FEATURE_SELFOVERLAP>
10.148

> <PUBCHEM_SHAPE_FINGERPRINT>
10066227 49 16558479694496074802
11315181 36 18060697287035445097
12091667 2 18334294267354367933
13533116 47 18200883975699489666
13885169 127 18131351937841734149
14123256 10 17632578262289005800
14251764 18 18409731764146326898
14251764 46 18410855468718096384
14729087 3 6555416396710172451
15716309 27 18334857221159612487
17093844 174 17603585236603821921
17834076 25 18334857221054188820
18006028 8 18272370875826124788
21315763 28 18334576850338078744
22224240 67 17603588521916524630
23402539 116 18260551117880832077
23521765 1 18335420175508318720
246663 6 18409164420673340486
33532 11 17775289400445846818
33684 2 18410575097547987296
8209 1 18341894100178372668

> <PUBCHEM_SHAPE_MULTIPOLES>
327.25
29.94
0.98
0.82
26.52
0.04
-0.02
2.49
-1.1
-1.19
0.07
-1.24
0.21
-0.32

> <PUBCHEM_SHAPE_SELFOVERLAP>
571.371

> <PUBCHEM_SHAPE_VOLUME>
216

> <PUBCHEM_COORDINATE_TYPE>
2
5
10

$$$$

