9837
  -OEChem-06261204073D

 18 18  0     0  0  0  0  0  0999 V2000
   -3.7626    0.0091    0.4945 F   0  0  0  0  0  0  0  0  0  0  0  0
    3.9159   -0.0453   -0.1087 O   0  0  0  0  0  0  0  0  0  0  0  0
    2.2598    0.0937    1.4380 O   0  0  0  0  0  0  0  0  0  0  0  0
    0.2329   -0.0167   -0.5469 C   0  0  0  0  0  0  0  0  0  0  0  0
    1.6758   -0.0259   -0.9231 C   0  0  0  0  0  0  0  0  0  0  0  0
   -0.4394   -1.2196   -0.3315 C   0  0  0  0  0  0  0  0  0  0  0  0
   -0.4443    1.1952   -0.4104 C   0  0  0  0  0  0  0  0  0  0  0  0
   -1.7891   -1.2107    0.0205 C   0  0  0  0  0  0  0  0  0  0  0  0
   -1.7941    1.2041   -0.0584 C   0  0  0  0  0  0  0  0  0  0  0  0
   -2.4665    0.0010    0.1571 C   0  0  0  0  0  0  0  0  0  0  0  0
    2.6116    0.0150    0.2690 C   0  0  0  0  0  0  0  0  0  0  0  0
    1.9006    0.8361   -1.5628 H   0  0  0  0  0  0  0  0  0  0  0  0
    1.9016   -0.9283   -1.5043 H   0  0  0  0  0  0  0  0  0  0  0  0
    0.0772   -2.1704   -0.4326 H   0  0  0  0  0  0  0  0  0  0  0  0
    0.0686    2.1394   -0.5736 H   0  0  0  0  0  0  0  0  0  0  0  0
   -2.3130   -2.1470    0.1887 H   0  0  0  0  0  0  0  0  0  0  0  0
   -2.3217    2.1473    0.0484 H   0  0  0  0  0  0  0  0  0  0  0  0
    4.5211   -0.0182    0.6628 H   0  0  0  0  0  0  0  0  0  0  0  0
  1 10  1  0  0  0  0
  2 11  1  0  0  0  0
  2 18  1  0  0  0  0
  3 11  2  0  0  0  0
  4  5  1  0  0  0  0
  4  6  2  0  0  0  0
  4  7  1  0  0  0  0
  5 11  1  0  0  0  0
  5 12  1  0  0  0  0
  5 13  1  0  0  0  0
  6  8  1  0  0  0  0
  6 14  1  0  0  0  0
  7  9  2  0  0  0  0
  7 15  1  0  0  0  0
  8 10  2  0  0  0  0
  8 16  1  0  0  0  0
  9 10  1  0  0  0  0
  9 17  1  0  0  0  0
M  END
> <PUBCHEM_COMPOUND_CID>
9837

> <PUBCHEM_CONFORMER_RMSD>
0.4

> <PUBCHEM_CONFORMER_DIVERSEORDER>
1
7
6
3
5
2
9
4
8

> <PUBCHEM_MMFF94_PARTIAL_CHARGES>
16
1 -0.19
10 0.19
11 0.66
14 0.15
15 0.15
16 0.15
17 0.15
18 0.5
2 -0.65
3 -0.57
4 -0.14
5 0.2
6 -0.15
7 -0.15
8 -0.15
9 -0.15

> <PUBCHEM_EFFECTIVE_ROTOR_COUNT>
2

> <PUBCHEM_PHARMACOPHORE_FEATURES>
4
1 2 acceptor
1 3 acceptor
3 2 3 11 anion
6 4 6 7 8 9 10 rings

> <PUBCHEM_HEAVY_ATOM_COUNT>
11

> <PUBCHEM_ATOM_DEF_STEREO_COUNT>
0

> <PUBCHEM_ATOM_UDEF_STEREO_COUNT>
0

> <PUBCHEM_BOND_DEF_STEREO_COUNT>
0

> <PUBCHEM_BOND_UDEF_STEREO_COUNT>
0

> <PUBCHEM_ISOTOPIC_ATOM_COUNT>
0

> <PUBCHEM_COMPONENT_COUNT>
1

> <PUBCHEM_CACTVS_TAUTO_COUNT>
1

> <PUBCHEM_CONFORMER_ID>
0000266D00000001

> <PUBCHEM_MMFF94_ENERGY>
18.9441

> <PUBCHEM_FEATURE_SELFOVERLAP>
20.356

> <PUBCHEM_SHAPE_FINGERPRINT>
10857977 72 18408886222139589101
11031198 65 16515677841029731548
11062470 55 15339119047901113813
12932764 1 17821738251231924302
13024252 1 15052016779580658277
15310529 11 16271930402186018439
15775835 57 18334857233770513234
16945 1 18411414012425410391
20645464 45 17894346687430871750
20653085 51 14923950015741803848
20871998 184 18189330191171023895
22445834 79 17775292698194350050
23402539 116 18260275148630059029
23552423 10 17627220170228084493
2748010 2 18051962912497796783
369184 2 17531252759372387623
5084963 1 18261382394860964604
6333449 129 17894918403755559159

> <PUBCHEM_SHAPE_MULTIPOLES>
207.36
5.19
1.17
0.9
1.77
0.01
-0.12
0.01
-1.08
-0.64
0.1
0.43
-0.01
0.03

> <PUBCHEM_SHAPE_SELFOVERLAP>
431.321

> <PUBCHEM_SHAPE_VOLUME>
118.5

> <PUBCHEM_COORDINATE_TYPE>
2
5
10

$$$$

