13308
  -OEChem-06261208463D

 47 50  0     1  0  0  0  0  0999 V2000
    5.1132   -1.0758    0.5165 O   0  0  0  0  0  0  0  0  0  0  0  0
   -5.4056    0.0544    1.2588 O   0  0  0  0  0  0  0  0  0  0  0  0
    1.9307    0.7219    0.3739 C   0  0  2  0  0  0  0  0  0  0  0  0
    2.7355   -0.5476    0.0356 C   0  0  2  0  0  0  0  0  0  0  0  0
    0.5889    0.7831   -0.3622 C   0  0  1  0  0  0  0  0  0  0  0  0
   -0.2707   -0.4602    0.0538 C   0  0  2  0  0  0  0  0  0  0  0  0
    1.9240   -1.7624    0.5009 C   0  0  0  0  0  0  0  0  0  0  0  0
    4.0058   -0.2661    0.8611 C   0  0  2  0  0  0  0  0  0  0  0  0
    0.5219   -1.7855   -0.1354 C   0  0  0  0  0  0  0  0  0  0  0  0
    2.9423    1.8478    0.1747 C   0  0  0  0  0  0  0  0  0  0  0  0
   -1.6942   -0.4501   -0.6201 C   0  0  1  0  0  0  0  0  0  0  0  0
   -0.1566    2.0922   -0.0622 C   0  0  0  0  0  0  0  0  0  0  0  0
    4.2791    1.2324    0.6267 C   0  0  0  0  0  0  0  0  0  0  0  0
    3.0846   -0.7079   -1.4661 C   0  0  0  0  0  0  0  0  0  0  0  0
   -1.5267    2.1260   -0.7313 C   0  0  0  0  0  0  0  0  0  0  0  0
   -2.3348    0.9137   -0.3402 C   0  0  0  0  0  0  0  0  0  0  0  0
   -1.6260   -0.6727   -2.1480 C   0  0  0  0  0  0  0  0  0  0  0  0
   -2.5485   -1.5830   -0.0684 C   0  0  0  0  0  0  0  0  0  0  0  0
   -3.5224    1.0680    0.2666 C   0  0  0  0  0  0  0  0  0  0  0  0
   -3.7304   -1.4348    0.5377 C   0  0  0  0  0  0  0  0  0  0  0  0
   -4.3102   -0.0931    0.7277 C   0  0  0  0  0  0  0  0  0  0  0  0
    1.6990    0.7107    1.4523 H   0  0  0  0  0  0  0  0  0  0  0  0
    0.7723    0.7552   -1.4418 H   0  0  0  0  0  0  0  0  0  0  0  0
   -0.4378   -0.3717    1.1404 H   0  0  0  0  0  0  0  0  0  0  0  0
    1.8099   -1.7430    1.5926 H   0  0  0  0  0  0  0  0  0  0  0  0
    2.4507   -2.6945    0.2632 H   0  0  0  0  0  0  0  0  0  0  0  0
    3.8093   -0.4206    1.9301 H   0  0  0  0  0  0  0  0  0  0  0  0
    0.6144   -2.0231   -1.1997 H   0  0  0  0  0  0  0  0  0  0  0  0
   -0.0258   -2.6185    0.3187 H   0  0  0  0  0  0  0  0  0  0  0  0
    2.6922    2.7336    0.7675 H   0  0  0  0  0  0  0  0  0  0  0  0
    2.9993    2.1563   -0.8750 H   0  0  0  0  0  0  0  0  0  0  0  0
    0.4288    2.9491   -0.4157 H   0  0  0  0  0  0  0  0  0  0  0  0
   -0.2745    2.2149    1.0226 H   0  0  0  0  0  0  0  0  0  0  0  0
    5.0574    1.3936   -0.1275 H   0  0  0  0  0  0  0  0  0  0  0  0
    4.6320    1.7003    1.5526 H   0  0  0  0  0  0  0  0  0  0  0  0
    2.2003   -0.7578   -2.1065 H   0  0  0  0  0  0  0  0  0  0  0  0
    3.7018    0.1148   -1.8407 H   0  0  0  0  0  0  0  0  0  0  0  0
    3.6498   -1.6325   -1.6320 H   0  0  0  0  0  0  0  0  0  0  0  0
   -1.4145    2.1609   -1.8211 H   0  0  0  0  0  0  0  0  0  0  0  0
   -2.0354    3.0553   -0.4470 H   0  0  0  0  0  0  0  0  0  0  0  0
   -2.6156   -0.5560   -2.6088 H   0  0  0  0  0  0  0  0  0  0  0  0
   -0.9563    0.0332   -2.6483 H   0  0  0  0  0  0  0  0  0  0  0  0
   -1.2771   -1.6809   -2.3993 H   0  0  0  0  0  0  0  0  0  0  0  0
   -2.1888   -2.6002   -0.2055 H   0  0  0  0  0  0  0  0  0  0  0  0
    4.8478   -2.0025    0.6426 H   0  0  0  0  0  0  0  0  0  0  0  0
   -3.9424    2.0496    0.4597 H   0  0  0  0  0  0  0  0  0  0  0  0
   -4.2947   -2.2902    0.8904 H   0  0  0  0  0  0  0  0  0  0  0  0
  1  8  1  0  0  0  0
  1 45  1  0  0  0  0
  2 21  2  0  0  0  0
  3  4  1  0  0  0  0
  3  5  1  0  0  0  0
  3 10  1  0  0  0  0
  3 22  1  0  0  0  0
  4  7  1  0  0  0  0
  4  8  1  0  0  0  0
  4 14  1  0  0  0  0
  5  6  1  0  0  0  0
  5 12  1  0  0  0  0
  5 23  1  0  0  0  0
  6  9  1  0  0  0  0
  6 11  1  0  0  0  0
  6 24  1  0  0  0  0
  7  9  1  0  0  0  0
  7 25  1  0  0  0  0
  7 26  1  0  0  0  0
  8 13  1  0  0  0  0
  8 27  1  0  0  0  0
  9 28  1  0  0  0  0
  9 29  1  0  0  0  0
 10 13  1  0  0  0  0
 10 30  1  0  0  0  0
 10 31  1  0  0  0  0
 11 16  1  0  0  0  0
 11 17  1  0  0  0  0
 11 18  1  0  0  0  0
 12 15  1  0  0  0  0
 12 32  1  0  0  0  0
 12 33  1  0  0  0  0
 13 34  1  0  0  0  0
 13 35  1  0  0  0  0
 14 36  1  0  0  0  0
 14 37  1  0  0  0  0
 14 38  1  0  0  0  0
 15 16  1  0  0  0  0
 15 39  1  0  0  0  0
 15 40  1  0  0  0  0
 16 19  2  0  0  0  0
 17 41  1  0  0  0  0
 17 42  1  0  0  0  0
 17 43  1  0  0  0  0
 18 20  2  0  0  0  0
 18 44  1  0  0  0  0
 19 21  1  0  0  0  0
 19 46  1  0  0  0  0
 20 21  1  0  0  0  0
 20 47  1  0  0  0  0
M  END
> <PUBCHEM_COMPOUND_CID>
13308

> <PUBCHEM_CONFORMER_RMSD>
0.6

> <PUBCHEM_CONFORMER_DIVERSEORDER>
1

> <PUBCHEM_MMFF94_PARTIAL_CHARGES>
14
1 -0.68
11 0.28
15 0.14
16 -0.28
18 -0.29
19 -0.14
2 -0.57
20 -0.14
21 0.54
44 0.15
45 0.4
46 0.15
47 0.15
8 0.28

> <PUBCHEM_EFFECTIVE_ROTOR_COUNT>
1.4

> <PUBCHEM_PHARMACOPHORE_FEATURES>
7
1 1 acceptor
1 1 donor
1 2 acceptor
5 3 4 8 10 13 rings
6 11 16 18 19 20 21 rings
6 3 4 5 6 7 9 rings
6 5 6 11 12 15 16 rings

> <PUBCHEM_HEAVY_ATOM_COUNT>
21

> <PUBCHEM_ATOM_DEF_STEREO_COUNT>
6

> <PUBCHEM_ATOM_UDEF_STEREO_COUNT>
0

> <PUBCHEM_BOND_DEF_STEREO_COUNT>
0

> <PUBCHEM_BOND_UDEF_STEREO_COUNT>
0

> <PUBCHEM_ISOTOPIC_ATOM_COUNT>
0

> <PUBCHEM_COMPONENT_COUNT>
1

> <PUBCHEM_CACTVS_TAUTO_COUNT>
3

> <PUBCHEM_CONFORMER_ID>
000033FC00000001

> <PUBCHEM_MMFF94_ENERGY>
67.8018

> <PUBCHEM_FEATURE_SELFOVERLAP>
35.624

> <PUBCHEM_SHAPE_FINGERPRINT>
10618630 7 18342739598127830621
10967382 1 18411142454354236108
11132069 177 18411698777315440525
11578080 2 17345775004638076124
12011746 2 18412263961094941677
12236239 1 17967256369280035615
12251169 10 18409163303760290977
12403259 415 18410019836288094176
12403814 3 18334584533691381181
12553582 1 18341618117731565205
12596599 1 18115005442705754307
12633257 1 18341887485675789539
13140716 1 18339079272395005747
13214271 11 18410580586938204463
13221675 6 18409451418155093615
13224815 77 18411705369852869700
13571099 22 9655579621210905536
13583140 156 18199763581486682173
13675066 3 18187368722624678464
14178342 30 18197785607603525896
14223421 5 18269275827512547143
14289901 80 15985111837772050790
14341114 176 18413669123722229880
14787075 74 18340486638752083817
14790565 3 17837200485590910444
15163728 17 14925324509104832305
15196674 1 18411421687183899552
15209289 33 18131069346247373386
15209294 21 18040431075473701521
15309172 13 18410578387762292727
15375462 189 18408892840589240472
15536298 74 18333728009437417172
16945 1 18339086015456769709
17349148 13 16988843899698581994
1813 80 17132109130889499023
18186145 218 18412550903253822734
19050596 39 18412546496137471946
19141452 34 18187364307609671607
19784866 170 18410569587363480859
19862831 5 9367350340080876789
200 152 18262253114256285127
20028762 73 18118960296454600183
20261772 1 18335140873241675994
20739085 24 18342449314373974228
21267235 1 18412819200785819371
21421861 104 18058735847921414690
21637258 2 15769489825706825747
22182313 1 18190742131477731756
22854114 59 18410854356643333313
23184049 59 18260824895532317149
23402539 116 18337121089478277038
23559900 14 18266745868832912786
2748010 2 18338248123304030180
2838139 119 14852719409842312113
296302 2 5039946355923783194
335352 9 18339365278599234564
34934 24 18411427223892583693
350125 39 18411698790559499832
5104073 3 18409451345188162130
6786 2 6896098730431274701
9709674 26 18336833116194870726

> <PUBCHEM_SHAPE_MULTIPOLES>
420.43
9.05
2.09
1.18
0.17
0.42
0.49
-0.64
-3.39
-0.19
0.05
0.34
-0.2
0.21

> <PUBCHEM_SHAPE_SELFOVERLAP>
908.952

> <PUBCHEM_SHAPE_VOLUME>
228.7

> <PUBCHEM_COORDINATE_TYPE>
2
5
10

$$$$

