17395269
  -OEChem-06241222493D

 33 33  0     1  0  0  0  0  0999 V2000
    0.3767    2.0437   -0.3589 S   0  0  0  0  0  0  0  0  0  0  0  0
   -2.6767    0.7480   -1.2142 O   0  0  0  0  0  0  0  0  0  0  0  0
   -1.5969   -0.5728    0.3590 N   0  0  0  0  0  0  0  0  0  0  0  0
    2.3231    0.1035   -0.0720 N   0  0  0  0  0  0  0  0  0  0  0  0
    1.0763    0.3171    1.6895 N   0  0  0  0  0  0  0  0  0  0  0  0
    2.7956   -0.7931    0.8050 N   0  0  0  0  0  0  0  0  0  0  0  0
    2.0294   -0.6577    1.8806 N   0  0  0  0  0  0  0  0  0  0  0  0
   -2.1011   -1.8436   -0.1071 C   0  0  0  0  0  0  0  0  0  0  0  0
   -1.2559    1.8223    0.4216 C   0  0  2  0  0  0  0  0  0  0  0  0
   -1.9323    0.6319   -0.2426 C   0  0  0  0  0  0  0  0  0  0  0  0
   -2.2550   -2.8118    1.0586 C   0  0  0  0  0  0  0  0  0  0  0  0
   -1.1897   -2.4175   -1.1848 C   0  0  0  0  0  0  0  0  0  0  0  0
   -2.0772    3.0956    0.2664 C   0  0  0  0  0  0  0  0  0  0  0  0
    1.2766    0.7749    0.4752 C   0  0  0  0  0  0  0  0  0  0  0  0
    2.9262    0.2363   -1.3740 C   0  0  0  0  0  0  0  0  0  0  0  0
    2.2809   -0.6768   -2.4023 C   0  0  0  0  0  0  0  0  0  0  0  0
   -3.0910   -1.6766   -0.5486 H   0  0  0  0  0  0  0  0  0  0  0  0
   -1.1422    1.6337    1.4950 H   0  0  0  0  0  0  0  0  0  0  0  0
   -0.9456   -0.5770    1.1379 H   0  0  0  0  0  0  0  0  0  0  0  0
   -2.6703   -3.7675    0.7222 H   0  0  0  0  0  0  0  0  0  0  0  0
   -2.9265   -2.3994    1.8195 H   0  0  0  0  0  0  0  0  0  0  0  0
   -1.2915   -3.0095    1.5417 H   0  0  0  0  0  0  0  0  0  0  0  0
   -1.5728   -3.3745   -1.5538 H   0  0  0  0  0  0  0  0  0  0  0  0
   -1.1125   -1.7338   -2.0371 H   0  0  0  0  0  0  0  0  0  0  0  0
   -0.1759   -2.5794   -0.8014 H   0  0  0  0  0  0  0  0  0  0  0  0
   -2.2259    3.3670   -0.7852 H   0  0  0  0  0  0  0  0  0  0  0  0
   -3.0723    2.9612    0.7059 H   0  0  0  0  0  0  0  0  0  0  0  0
   -1.6019    3.9408    0.7762 H   0  0  0  0  0  0  0  0  0  0  0  0
    2.8630    1.2825   -1.6882 H   0  0  0  0  0  0  0  0  0  0  0  0
    3.9909   -0.0039   -1.2730 H   0  0  0  0  0  0  0  0  0  0  0  0
    2.3544   -1.7268   -2.1000 H   0  0  0  0  0  0  0  0  0  0  0  0
    2.7751   -0.5652   -3.3723 H   0  0  0  0  0  0  0  0  0  0  0  0
    1.2196   -0.4409   -2.5315 H   0  0  0  0  0  0  0  0  0  0  0  0
  1  9  1  0  0  0  0
  1 14  1  0  0  0  0
  2 10  2  0  0  0  0
  3  8  1  0  0  0  0
  3 10  1  0  0  0  0
  3 19  1  0  0  0  0
  4  6  1  0  0  0  0
  4 14  1  0  0  0  0
  4 15  1  0  0  0  0
  5  7  1  0  0  0  0
  5 14  2  0  0  0  0
  6  7  2  0  0  0  0
  8 11  1  0  0  0  0
  8 12  1  0  0  0  0
  8 17  1  0  0  0  0
  9 10  1  0  0  0  0
  9 13  1  0  0  0  0
  9 18  1  0  0  0  0
 11 20  1  0  0  0  0
 11 21  1  0  0  0  0
 11 22  1  0  0  0  0
 12 23  1  0  0  0  0
 12 24  1  0  0  0  0
 12 25  1  0  0  0  0
 13 26  1  0  0  0  0
 13 27  1  0  0  0  0
 13 28  1  0  0  0  0
 15 16  1  0  0  0  0
 15 29  1  0  0  0  0
 15 30  1  0  0  0  0
 16 31  1  0  0  0  0
 16 32  1  0  0  0  0
 16 33  1  0  0  0  0
M  END
> <PUBCHEM_COMPOUND_CID>
17395269

> <PUBCHEM_CONFORMER_RMSD>
0.8

> <PUBCHEM_CONFORMER_DIVERSEORDER>
1
123
17
75
26
131
62
129
10
115
125
119
85
47
98
4
7
136
81
79
103
41
60
31
108
118
105
111
25
137
68
133
32
11
97
100
101
76
3
110
71
132
120
54
106
109
78
112
18
15
86
104
116
35
107
99
130
45
44
51
37
66
64
65
83
33
27
20
102
55
127
128
19
34
58
121
113
135
95
59
42
117
43
39
24
77
50
72
74
6
94
73
69
126
13
21
63
93
49
46
22
92
40
23
88
5
53
96
114
90
36
134
52
30
122
38
67
56
82
70
124
16
9
91
48
80
84
12
87
89
28
29
2
61
57
8
14

> <PUBCHEM_MMFF94_PARTIAL_CHARGES>
12
1 -0.29
10 0.57
14 0.24
15 0.26
19 0.37
2 -0.57
3 -0.73
4 0.31
5 -0.34
6 -0.42
8 0.3
9 0.29

> <PUBCHEM_EFFECTIVE_ROTOR_COUNT>
6

> <PUBCHEM_PHARMACOPHORE_FEATURES>
6
1 13 hydrophobe
1 2 acceptor
1 3 donor
3 4 5 14 cation
3 8 11 12 hydrophobe
5 4 5 6 7 14 rings

> <PUBCHEM_HEAVY_ATOM_COUNT>
16

> <PUBCHEM_ATOM_DEF_STEREO_COUNT>
0

> <PUBCHEM_ATOM_UDEF_STEREO_COUNT>
1

> <PUBCHEM_BOND_DEF_STEREO_COUNT>
0

> <PUBCHEM_BOND_UDEF_STEREO_COUNT>
0

> <PUBCHEM_ISOTOPIC_ATOM_COUNT>
0

> <PUBCHEM_COMPONENT_COUNT>
1

> <PUBCHEM_CACTVS_TAUTO_COUNT>
2

> <PUBCHEM_CONFORMER_ID>
01096E4500000001

> <PUBCHEM_MMFF94_ENERGY>
14.863

> <PUBCHEM_FEATURE_SELFOVERLAP>
30.446

> <PUBCHEM_SHAPE_FINGERPRINT>
11140007 195 17533745296799388563
12202030 40 17603578630116121030
14115302 16 18059590108131176004
14251711 518 18269563732044997251
14251745 187 18040990803848158110
14817 1 13819168819649750384
15207287 21 17534096130796247604
15375462 175 18336819909386752001
16752209 62 18340778142978681325
16945 1 18409452513461671729
19766037 51 17912915098315167659
20645476 183 17774719874111062991
20645477 70 17183066839367466799
20711985 344 18410005525066283935
22802520 49 18187630436488612830
232386 152 18270979984989759994
23526113 38 17532079682453239484
23557571 272 18337390431451925288
23559900 14 18044096985434456010
23598291 2 17487609951958542756
2748010 2 18191596237506936309
568465 68 17022907852433069982
576247 118 18047449167772817295
598444 67 17898261022125126167
81228 2 18335146384159814961

> <PUBCHEM_SHAPE_MULTIPOLES>
302.35
4.5
3.18
1.75
1.52
0.61
-0.13
-1.4
-0.72
-3.29
0.01
1.28
-0.75
0.36

> <PUBCHEM_SHAPE_SELFOVERLAP>
579.432

> <PUBCHEM_SHAPE_VOLUME>
187.9

> <PUBCHEM_COORDINATE_TYPE>
2
5
10

$$$$

