8579
  -OEChem-06261202553D

 39 40  0     0  0  0  0  0  0999 V2000
    0.8125   -1.6110    0.0718 O   0  0  0  0  0  0  0  0  0  0  0  0
   -1.7709   -1.8132    0.5024 O   0  0  0  0  0  0  0  0  0  0  0  0
   -3.0037   -0.4005   -0.8636 N   0  0  0  0  0  0  0  0  0  0  0  0
   -5.1762   -0.8806    0.1906 C   0  0  0  0  0  0  0  0  0  0  0  0
   -4.1886   -1.2106   -0.9238 C   0  0  0  0  0  0  0  0  0  0  0  0
   -5.6698    0.5667    0.1293 C   0  0  0  0  0  0  0  0  0  0  0  0
   -0.7404    0.1861   -0.1604 C   0  0  0  0  0  0  0  0  0  0  0  0
    1.6040    0.6451   -0.0697 C   0  0  0  0  0  0  0  0  0  0  0  0
    0.5559   -0.2752   -0.0517 C   0  0  0  0  0  0  0  0  0  0  0  0
   -1.8741   -0.7741   -0.1441 C   0  0  0  0  0  0  0  0  0  0  0  0
    2.9815    0.2085    0.0413 C   0  0  0  0  0  0  0  0  0  0  0  0
   -6.6972    0.8493    1.2144 C   0  0  0  0  0  0  0  0  0  0  0  0
   -1.0327    1.5299   -0.2861 C   0  0  0  0  0  0  0  0  0  0  0  0
    1.3338    2.0077   -0.1956 C   0  0  0  0  0  0  0  0  0  0  0  0
    0.0155    2.4501   -0.3039 C   0  0  0  0  0  0  0  0  0  0  0  0
    3.5762    0.0971    1.2970 C   0  0  0  0  0  0  0  0  0  0  0  0
    3.7081   -0.0996   -1.1075 C   0  0  0  0  0  0  0  0  0  0  0  0
    4.9019   -0.3233    1.4041 C   0  0  0  0  0  0  0  0  0  0  0  0
    5.0337   -0.5203   -1.0002 C   0  0  0  0  0  0  0  0  0  0  0  0
    5.6305   -0.6322    0.2556 C   0  0  0  0  0  0  0  0  0  0  0  0
   -4.7070   -1.0625    1.1655 H   0  0  0  0  0  0  0  0  0  0  0  0
   -6.0322   -1.5618    0.1141 H   0  0  0  0  0  0  0  0  0  0  0  0
   -4.6492   -1.0445   -1.9035 H   0  0  0  0  0  0  0  0  0  0  0  0
   -3.9055   -2.2672   -0.8629 H   0  0  0  0  0  0  0  0  0  0  0  0
   -6.1189    0.7651   -0.8508 H   0  0  0  0  0  0  0  0  0  0  0  0
   -4.8308    1.2612    0.2492 H   0  0  0  0  0  0  0  0  0  0  0  0
   -3.0032    0.4480   -1.4197 H   0  0  0  0  0  0  0  0  0  0  0  0
   -6.2703    0.6895    2.2096 H   0  0  0  0  0  0  0  0  0  0  0  0
   -7.0371    1.8879    1.1532 H   0  0  0  0  0  0  0  0  0  0  0  0
   -7.5712    0.1991    1.1063 H   0  0  0  0  0  0  0  0  0  0  0  0
   -2.0455    1.9164   -0.3381 H   0  0  0  0  0  0  0  0  0  0  0  0
    2.1380    2.7398   -0.2096 H   0  0  0  0  0  0  0  0  0  0  0  0
   -0.1950    3.5119   -0.3940 H   0  0  0  0  0  0  0  0  0  0  0  0
    3.0219    0.3332    2.2022 H   0  0  0  0  0  0  0  0  0  0  0  0
    3.2575   -0.0183   -2.0938 H   0  0  0  0  0  0  0  0  0  0  0  0
    5.3667   -0.4107    2.3818 H   0  0  0  0  0  0  0  0  0  0  0  0
    5.6012   -0.7610   -1.8943 H   0  0  0  0  0  0  0  0  0  0  0  0
    6.6626   -0.9599    0.3390 H   0  0  0  0  0  0  0  0  0  0  0  0
    1.7643   -1.7847    0.1382 H   0  0  0  0  0  0  0  0  0  0  0  0
  1  9  1  0  0  0  0
  1 39  1  0  0  0  0
  2 10  2  0  0  0  0
  3  5  1  0  0  0  0
  3 10  1  0  0  0  0
  3 27  1  0  0  0  0
  4  5  1  0  0  0  0
  4  6  1  0  0  0  0
  4 21  1  0  0  0  0
  4 22  1  0  0  0  0
  5 23  1  0  0  0  0
  5 24  1  0  0  0  0
  6 12  1  0  0  0  0
  6 25  1  0  0  0  0
  6 26  1  0  0  0  0
  7  9  1  0  0  0  0
  7 10  1  0  0  0  0
  7 13  2  0  0  0  0
  8  9  2  0  0  0  0
  8 11  1  0  0  0  0
  8 14  1  0  0  0  0
 11 16  2  0  0  0  0
 11 17  1  0  0  0  0
 12 28  1  0  0  0  0
 12 29  1  0  0  0  0
 12 30  1  0  0  0  0
 13 15  1  0  0  0  0
 13 31  1  0  0  0  0
 14 15  2  0  0  0  0
 14 32  1  0  0  0  0
 15 33  1  0  0  0  0
 16 18  1  0  0  0  0
 16 34  1  0  0  0  0
 17 19  2  0  0  0  0
 17 35  1  0  0  0  0
 18 20  2  0  0  0  0
 18 36  1  0  0  0  0
 19 20  1  0  0  0  0
 19 37  1  0  0  0  0
 20 38  1  0  0  0  0
M  END
> <PUBCHEM_COMPOUND_CID>
8579

> <PUBCHEM_CONFORMER_RMSD>
0.8

> <PUBCHEM_CONFORMER_DIVERSEORDER>
3
21
20
4
2
19
15
22
12
31
5
28
29
1
26
10
7
25
13
24
6
9
23
27
18
8
14
11
30
17
16

> <PUBCHEM_MMFF94_PARTIAL_CHARGES>
25
1 -0.53
10 0.54
13 -0.15
14 -0.15
15 -0.15
16 -0.15
17 -0.15
18 -0.15
19 -0.15
2 -0.57
20 -0.15
27 0.37
3 -0.73
31 0.15
32 0.15
33 0.15
34 0.15
35 0.15
36 0.15
37 0.15
38 0.15
39 0.45
5 0.3
7 0.09
9 0.08

> <PUBCHEM_EFFECTIVE_ROTOR_COUNT>
6

> <PUBCHEM_PHARMACOPHORE_FEATURES>
6
1 1 donor
1 12 hydrophobe
1 2 acceptor
1 3 donor
6 11 16 17 18 19 20 rings
6 7 8 9 13 14 15 rings

> <PUBCHEM_HEAVY_ATOM_COUNT>
20

> <PUBCHEM_ATOM_DEF_STEREO_COUNT>
0

> <PUBCHEM_ATOM_UDEF_STEREO_COUNT>
0

> <PUBCHEM_BOND_DEF_STEREO_COUNT>
0

> <PUBCHEM_BOND_UDEF_STEREO_COUNT>
0

> <PUBCHEM_ISOTOPIC_ATOM_COUNT>
0

> <PUBCHEM_COMPONENT_COUNT>
1

> <PUBCHEM_CACTVS_TAUTO_COUNT>
7

> <PUBCHEM_CONFORMER_ID>
0000218300000003

> <PUBCHEM_MMFF94_ENERGY>
51.6794

> <PUBCHEM_FEATURE_SELFOVERLAP>
30.446

> <PUBCHEM_SHAPE_FINGERPRINT>
10906281 52 18338782451521199982
11089746 13 17313392227574768393
11646440 116 18187637008200123721
12236239 1 18040152894842421011
12670546 56 15936681644555512411
13140716 1 18268714900504598611
13533116 47 15502647243742901942
13590594 115 18343016705682795349
13760787 5 17988647363233809261
13862211 1 18341059552982340863
14115302 16 17703507705910170590
14123256 10 9223228542788824329
14251718 22 12391513083545388139
14251752 14 17775012327150997501
14251758 9 18260264153466411985
14251764 18 18410009893433145821
14251764 30 16702015349675685225
15099037 51 18412263913280907543
15142383 8 17917716846393690189
15183329 4 18413390938774896535
15475509 8 18262779878419264597
15848700 24 18335989683797634604
15885798 251 18411704270352181108
1601671 61 18410012156595931333
16752209 62 18201450202675598632
17980427 23 4823226039074803907
18222031 100 18335706005296992150
18335252 98 14620502424331392328
19141452 34 17894635820355636927
200 152 17775575251487316102
21150785 3 11455881477461098562
21267235 1 18272368707099462874
22182313 1 18116431625282401597
23402539 116 18260836985965534399
23522609 53 17986927753177247445
23536379 177 16732984232537753143
23557571 272 18260822748249188140
23559900 14 18269838632276058276
23845131 108 17251170004917684961
25147074 1 18341315748103866012
3004659 81 18060137635579776174
314173 85 18334575737287291368
33382 64 16056884662530237625
335352 9 18411418397792761189
3411729 13 18191875513914800136
4325135 7 9655576301533586409
4340502 62 15140957331571028527
4463277 17 18411698772862549108
465052 167 18060133228357975802
5104073 3 18338516310173926497
5207 217 8502366729238798853
5385378 56 18042391604065663379
7226269 152 18113616807418596105
7495541 125 17060335184986917525
8863177 126 17701528507903222443
9971528 1 18187367592953606796

> <PUBCHEM_SHAPE_MULTIPOLES>
394.87
14
1.74
1.09
11.06
0.72
-0.17
-2.34
-3.1
0.75
0.15
-0.53
-0.06
-0.53

> <PUBCHEM_SHAPE_SELFOVERLAP>
837.867

> <PUBCHEM_SHAPE_VOLUME>
221.1

> <PUBCHEM_COORDINATE_TYPE>
2
5
10

$$$$

