4607
  -OEChem-06261200143D

 46 49  0     1  0  0  0  0  0999 V2000
    2.8925    2.1770    0.6414 S   0  0  0  0  0  0  0  0  0  0  0  0
    1.6317   -0.5135   -2.5782 O   0  0  0  0  0  0  0  0  0  0  0  0
    3.5756   -0.6942    2.1379 O   0  5  0  0  0  0  0  0  0  0  0  0
    4.5789   -2.2490    0.7922 O   0  0  0  0  0  0  0  0  0  0  0  0
   -1.2348    2.6592    0.5811 O   0  0  0  0  0  0  0  0  0  0  0  0
   -5.1740    1.1748    0.3295 O   0  0  0  0  0  0  0  0  0  0  0  0
    2.2263   -0.1661   -0.3224 N   0  0  0  0  0  0  0  0  0  0  0  0
   -0.7171    0.7833   -0.6548 N   0  0  0  0  0  0  0  0  0  0  0  0
   -4.8089   -0.1641    0.2579 N   0  0  0  0  0  0  0  0  0  0  0  0
    1.5730    0.9317    0.3883 C   0  0  2  0  0  0  0  0  0  0  0  0
    4.2280    1.1182   -0.1082 C   0  0  0  0  0  0  0  0  0  0  0  0
    3.6603   -0.3207   -0.1854 C   0  0  1  0  0  0  0  0  0  0  0  0
    0.6937    1.1244   -0.8587 C   0  0  1  0  0  0  0  0  0  0  0  0
    1.5241   -0.0157   -1.4807 C   0  0  0  0  0  0  0  0  0  0  0  0
    4.5198    1.6721   -1.5135 C   0  0  0  0  0  0  0  0  0  0  0  0
    5.4953    1.2461    0.7449 C   0  0  0  0  0  0  0  0  0  0  0  0
    3.9680   -1.1710    1.0370 C   0  0  0  0  0  0  0  0  0  0  0  0
   -1.5947    1.5997    0.0689 C   0  0  0  0  0  0  0  0  0  0  0  0
   -2.9861    1.1377    0.1603 C   0  0  0  0  0  0  0  0  0  0  0  0
   -3.4768   -0.1542    0.1560 C   0  0  0  0  0  0  0  0  0  0  0  0
   -4.0590    1.9471    0.2689 C   0  0  0  0  0  0  0  0  0  0  0  0
   -2.7468   -1.3913    0.0601 C   0  0  0  0  0  0  0  0  0  0  0  0
   -4.2706    3.3998    0.3327 C   0  0  0  0  0  0  0  0  0  0  0  0
   -2.3031   -2.0264    1.2178 C   0  0  0  0  0  0  0  0  0  0  0  0
   -2.4869   -1.9483   -1.1900 C   0  0  0  0  0  0  0  0  0  0  0  0
   -1.5953   -3.2248    1.1249 C   0  0  0  0  0  0  0  0  0  0  0  0
   -1.7794   -3.1468   -1.2828 C   0  0  0  0  0  0  0  0  0  0  0  0
   -1.3336   -3.7850   -0.1252 C   0  0  0  0  0  0  0  0  0  0  0  0
    1.0674    0.6016    1.3011 H   0  0  0  0  0  0  0  0  0  0  0  0
    4.0396   -0.8275   -1.0821 H   0  0  0  0  0  0  0  0  0  0  0  0
    0.8094    2.0723   -1.3961 H   0  0  0  0  0  0  0  0  0  0  0  0
    5.2962    1.0751   -2.0063 H   0  0  0  0  0  0  0  0  0  0  0  0
    3.6394    1.6581   -2.1641 H   0  0  0  0  0  0  0  0  0  0  0  0
    4.8842    2.7056   -1.4735 H   0  0  0  0  0  0  0  0  0  0  0  0
    5.9144    2.2581    0.6822 H   0  0  0  0  0  0  0  0  0  0  0  0
    5.3302    1.0430    1.8073 H   0  0  0  0  0  0  0  0  0  0  0  0
    6.2704    0.5574    0.3885 H   0  0  0  0  0  0  0  0  0  0  0  0
   -1.0894   -0.0141   -1.1532 H   0  0  0  0  0  0  0  0  0  0  0  0
   -3.9323    3.7938    1.2959 H   0  0  0  0  0  0  0  0  0  0  0  0
   -3.7147    3.9080   -0.4614 H   0  0  0  0  0  0  0  0  0  0  0  0
   -5.3283    3.6558    0.2155 H   0  0  0  0  0  0  0  0  0  0  0  0
   -2.4981   -1.6020    2.1997 H   0  0  0  0  0  0  0  0  0  0  0  0
   -2.8297   -1.4651   -2.1019 H   0  0  0  0  0  0  0  0  0  0  0  0
   -1.2475   -3.7213    2.0260 H   0  0  0  0  0  0  0  0  0  0  0  0
   -1.5752   -3.5831   -2.2562 H   0  0  0  0  0  0  0  0  0  0  0  0
   -0.7821   -4.7178   -0.1976 H   0  0  0  0  0  0  0  0  0  0  0  0
  1 10  1  0  0  0  0
  1 11  1  0  0  0  0
  2 14  2  0  0  0  0
  3 17  1  0  0  0  0
  4 17  2  0  0  0  0
  5 18  2  0  0  0  0
  6  9  1  0  0  0  0
  6 21  1  0  0  0  0
  7 10  1  0  0  0  0
  7 12  1  0  0  0  0
  7 14  1  0  0  0  0
  8 13  1  0  0  0  0
  8 18  1  0  0  0  0
  8 38  1  0  0  0  0
  9 20  2  0  0  0  0
 10 13  1  0  0  0  0
 10 29  1  0  0  0  0
 11 12  1  0  0  0  0
 11 15  1  0  0  0  0
 11 16  1  0  0  0  0
 12 17  1  0  0  0  0
 12 30  1  0  0  0  0
 13 14  1  0  0  0  0
 13 31  1  0  0  0  0
 15 32  1  0  0  0  0
 15 33  1  0  0  0  0
 15 34  1  0  0  0  0
 16 35  1  0  0  0  0
 16 36  1  0  0  0  0
 16 37  1  0  0  0  0
 18 19  1  0  0  0  0
 19 20  1  0  0  0  0
 19 21  2  0  0  0  0
 20 22  1  0  0  0  0
 21 23  1  0  0  0  0
 22 24  2  0  0  0  0
 22 25  1  0  0  0  0
 23 39  1  0  0  0  0
 23 40  1  0  0  0  0
 23 41  1  0  0  0  0
 24 26  1  0  0  0  0
 24 42  1  0  0  0  0
 25 27  2  0  0  0  0
 25 43  1  0  0  0  0
 26 28  2  0  0  0  0
 26 44  1  0  0  0  0
 27 28  1  0  0  0  0
 27 45  1  0  0  0  0
 28 46  1  0  0  0  0
M  CHG  1   3  -1
M  END
> <PUBCHEM_COMPOUND_CID>
4607

> <PUBCHEM_CONFORMER_RMSD>
0.8

> <PUBCHEM_CONFORMER_DIVERSEORDER>
1
125
67
169
172
14
87
98
166
97
127
48
72
3
163
79
53
139
83
17
146
16
153
122
120
81
50
59
164
25
110
41
128
103
144
91
78
28
138
89
123
84
10
65
13
121
21
90
31
77
60
145
94
11
157
51
150
132
104
20
137
106
61
12
142
4
56
115
40
158
85
57
155
117
76
47
143
73
159
95
35
63
68
58
136
82
133
70
7
161
26
129
160
140
114
5
141
34
154
88
112
93
105
2
131
147
30
124
151
49
46
32
9
130
38
39
167
152
111
118
27
24
36
19
55
165
102
99
33
108
37
148
52
29
119
100
42
116
107
66
8
75
101
18
168
54
171
149
86
170
15
71
80
43
23
45
113
62
156
6
64
109
126
134
44
74
135
96
92
22
162
69

> <PUBCHEM_MMFF94_PARTIAL_CHARGES>
32
1 -0.45
10 0.44
11 0.23
12 0.19
13 0.28
14 0.58
17 0.91
18 0.72
19 -0.09
2 -0.57
20 0.23
21 -0.04
22 0.05
23 0.18
24 -0.15
25 -0.15
26 -0.15
27 -0.15
28 -0.15
3 -0.9
38 0.37
4 -0.9
42 0.15
43 0.15
44 0.15
45 0.15
46 0.15
5 -0.57
6 -0.02
7 -0.59
8 -0.65
9 -0.41

> <PUBCHEM_EFFECTIVE_ROTOR_COUNT>
5.8

> <PUBCHEM_PHARMACOPHORE_FEATURES>
12
1 2 acceptor
1 3 acceptor
1 4 acceptor
1 5 acceptor
1 8 donor
1 9 acceptor
3 11 15 16 hydrophobe
3 3 4 17 anion
4 7 10 13 14 rings
5 6 9 19 20 21 rings
6 22 24 25 26 27 28 rings
7 1 7 10 11 12 13 14 rings

> <PUBCHEM_HEAVY_ATOM_COUNT>
28

> <PUBCHEM_ATOM_DEF_STEREO_COUNT>
0

> <PUBCHEM_ATOM_UDEF_STEREO_COUNT>
3

> <PUBCHEM_BOND_DEF_STEREO_COUNT>
0

> <PUBCHEM_BOND_UDEF_STEREO_COUNT>
0

> <PUBCHEM_ISOTOPIC_ATOM_COUNT>
0

> <PUBCHEM_COMPONENT_COUNT>
1

> <PUBCHEM_CACTVS_TAUTO_COUNT>
2

> <PUBCHEM_CONFORMER_ID>
000011FF00000001

> <PUBCHEM_MMFF94_ENERGY>
74.0271

> <PUBCHEM_FEATURE_SELFOVERLAP>
64.918

> <PUBCHEM_SHAPE_FINGERPRINT>
10366900 7 17313099756780342000
10616163 171 18339077065030053574
11370993 70 18335983168237294221
11513181 2 18333450928788348846
11552529 35 18195534687983719366
12107183 9 18124319560560370458
12422481 6 17769942599288975963
12633257 1 18333453161674385232
12788726 201 18337392622006656363
13583140 156 18042127561838727672
13631057 29 18053379903702440110
13726171 33 17903039323397755644
14081887 123 18264498282281626272
14844126 61 18266461997053584811
15250474 111 18340778026919514830
15484559 13 15188305807009300332
1813 80 16558750148285724100
20511986 3 17988092105551516708
20554085 129 18044114555787117897
21133410 171 17109095137283130358
21133410 52 15376005073933975764
23559900 14 18115294709169475524
23728640 28 18410572851855604883
3298306 158 18123191466104691261
338550 245 18269272525031232806
3411729 13 18050561052811720161
3633792 109 18058752276619474303
5104073 3 18410569625913179513
5265222 85 18338504310067170614
5309563 4 17403170400861664395
5364581 5 17900838050054134064
9709674 26 18260257530225856935

> <PUBCHEM_SHAPE_MULTIPOLES>
535.79
10.81
4.01
1.47
5.21
1.76
0.39
-4.1
-2.05
-4.11
-0.49
1.19
0.61
-1.05

> <PUBCHEM_SHAPE_SELFOVERLAP>
1155.707

> <PUBCHEM_SHAPE_VOLUME>
297.8

> <PUBCHEM_COORDINATE_TYPE>
2
5
10

$$$$

