13348
  -OEChem-06261209122D

 32 30  0     1  0  0  0  0  0999 V2000
    9.1972    1.9030    0.0000 Na  0  3  0  0  0  0  0  0  0  0  0  0
    0.5369    0.9030    0.0000 O   0  0  0  0  0  0  0  0  0  0  0  0
    3.1350    0.4030    0.0000 O   0  0  0  0  0  0  0  0  0  0  0  0
    4.0010    2.9030    0.0000 O   0  0  0  0  0  0  0  0  0  0  0  0
    8.3312    1.4030    0.0000 O   0  5  0  0  0  0  0  0  0  0  0  0
    7.4651    2.9030    0.0000 O   0  0  0  0  0  0  0  0  0  0  0  0
    4.8671    1.4030    0.0000 N   0  0  0  0  0  0  0  0  0  0  0  0
    1.4030    1.4030    0.0000 C   0  0  0  0  0  0  0  0  0  0  0  0
    2.2690    1.9030    0.0000 C   0  0  0  0  0  0  0  0  0  0  0  0
    3.1350    1.4030    0.0000 C   0  0  3  0  0  0  0  0  0  0  0  0
    0.9030    2.2690    0.0000 C   0  0  0  0  0  0  0  0  0  0  0  0
    1.9030    0.5369    0.0000 C   0  0  0  0  0  0  0  0  0  0  0  0
    4.0010    1.9030    0.0000 C   0  0  0  0  0  0  0  0  0  0  0  0
    5.7331    1.9030    0.0000 C   0  0  0  0  0  0  0  0  0  0  0  0
    6.5991    1.4030    0.0000 C   0  0  0  0  0  0  0  0  0  0  0  0
    7.4651    1.9030    0.0000 C   0  0  0  0  0  0  0  0  0  0  0  0
    2.6675    2.3779    0.0000 H   0  0  0  0  0  0  0  0  0  0  0  0
    1.8705    2.3779    0.0000 H   0  0  0  0  0  0  0  0  0  0  0  0
    3.6720    1.0930    0.0000 H   0  0  0  0  0  0  0  0  0  0  0  0
    1.4399    2.5790    0.0000 H   0  0  0  0  0  0  0  0  0  0  0  0
    0.5930    2.8059    0.0000 H   0  0  0  0  0  0  0  0  0  0  0  0
    0.3660    1.9590    0.0000 H   0  0  0  0  0  0  0  0  0  0  0  0
    1.3660    0.2269    0.0000 H   0  0  0  0  0  0  0  0  0  0  0  0
    2.2130    0.0000    0.0000 H   0  0  0  0  0  0  0  0  0  0  0  0
    2.4399    0.8469    0.0000 H   0  0  0  0  0  0  0  0  0  0  0  0
    0.0000    1.2130    0.0000 H   0  0  0  0  0  0  0  0  0  0  0  0
    4.8671    0.7830    0.0000 H   0  0  0  0  0  0  0  0  0  0  0  0
    6.1316    2.3779    0.0000 H   0  0  0  0  0  0  0  0  0  0  0  0
    5.3346    2.3779    0.0000 H   0  0  0  0  0  0  0  0  0  0  0  0
    2.5981    0.0930    0.0000 H   0  0  0  0  0  0  0  0  0  0  0  0
    6.2006    0.9280    0.0000 H   0  0  0  0  0  0  0  0  0  0  0  0
    6.9976    0.9280    0.0000 H   0  0  0  0  0  0  0  0  0  0  0  0
  2  8  1  0  0  0  0
  2 26  1  0  0  0  0
  3 10  1  0  0  0  0
  3 30  1  0  0  0  0
  4 13  2  0  0  0  0
  5 16  1  0  0  0  0
  6 16  2  0  0  0  0
  7 13  1  0  0  0  0
  7 14  1  0  0  0  0
  7 27  1  0  0  0  0
  8  9  1  0  0  0  0
  8 11  1  0  0  0  0
  8 12  1  0  0  0  0
  9 10  1  0  0  0  0
  9 17  1  0  0  0  0
  9 18  1  0  0  0  0
 10 13  1  0  0  0  0
 10 19  1  0  0  0  0
 11 20  1  0  0  0  0
 11 21  1  0  0  0  0
 11 22  1  0  0  0  0
 12 23  1  0  0  0  0
 12 24  1  0  0  0  0
 12 25  1  0  0  0  0
 14 15  1  0  0  0  0
 14 28  1  0  0  0  0
 14 29  1  0  0  0  0
 15 16  1  0  0  0  0
 15 31  1  0  0  0  0
 15 32  1  0  0  0  0
M  CHG  2   1   1   5  -1
M  END
> <PUBCHEM_COMPOUND_CID>
13348

> <PUBCHEM_COMPOUND_CANONICALIZED>
1

> <PUBCHEM_CACTVS_COMPLEXITY>
233

> <PUBCHEM_CACTVS_HBOND_ACCEPTOR>
5

> <PUBCHEM_CACTVS_HBOND_DONOR>
3

> <PUBCHEM_CACTVS_ROTATABLE_BOND>
5

> <PUBCHEM_CACTVS_SUBSKEYS>
AAADceByOCAAAAAAAAAAAAAAAAAAAAAAAAAAAAAAAAAAAAAAAAAAHgAQCAAADFThgAYCCALAAgAIAAGQGAIAAAAAAAAAAIFIAAACEBoAgAAEQAAHFgCQAAA6AAAMAAAAAAAAAAAAAAAAAAAAAAAAAAAAAA==

> <PUBCHEM_IUPAC_OPENEYE_NAME>
sodium 3-[(2,4-dihydroxy-4-methyl-pentanoyl)amino]propanoate

> <PUBCHEM_IUPAC_CAS_NAME>
sodium 3-[(2,4-dihydroxy-4-methyl-1-oxopentyl)amino]propanoate

> <PUBCHEM_IUPAC_NAME>
sodium 3-[(2,4-dihydroxy-4-methylpentanoyl)amino]propanoate

> <PUBCHEM_IUPAC_SYSTEMATIC_NAME>
sodium 3-[[4-methyl-2,4-bis(oxidanyl)pentanoyl]amino]propanoate

> <PUBCHEM_IUPAC_TRADITIONAL_NAME>
sodium 3-[(2,4-dihydroxy-4-methyl-pentanoyl)amino]propionate

> <PUBCHEM_IUPAC_INCHI>
InChI=1S/C9H17NO5.Na/c1-9(2,15)5-6(11)8(14)10-4-3-7(12)13;/h6,11,15H,3-5H2,1-2H3,(H,10,14)(H,12,13);/q;+1/p-1

> <PUBCHEM_IUPAC_INCHIKEY>
ROMBWECPDOCQMZ-UHFFFAOYSA-M

> <PUBCHEM_EXACT_MASS>
241.092617

> <PUBCHEM_MOLECULAR_FORMULA>
C9H16NNaO5

> <PUBCHEM_MOLECULAR_WEIGHT>
241.216809

> <PUBCHEM_OPENEYE_CAN_SMILES>
CC(C)(CC(C(=O)NCCC(=O)[O-])O)O.[Na+]

> <PUBCHEM_OPENEYE_ISO_SMILES>
CC(C)(CC(C(=O)NCCC(=O)[O-])O)O.[Na+]

> <PUBCHEM_CACTVS_TPSA>
110

> <PUBCHEM_MONOISOTOPIC_WEIGHT>
241.092617

> <PUBCHEM_TOTAL_CHARGE>
0

> <PUBCHEM_HEAVY_ATOM_COUNT>
16

> <PUBCHEM_ATOM_DEF_STEREO_COUNT>
0

> <PUBCHEM_ATOM_UDEF_STEREO_COUNT>
1

> <PUBCHEM_BOND_DEF_STEREO_COUNT>
0

> <PUBCHEM_BOND_UDEF_STEREO_COUNT>
0

> <PUBCHEM_ISOTOPIC_ATOM_COUNT>
0

> <PUBCHEM_COMPONENT_COUNT>
2

> <PUBCHEM_CACTVS_TAUTO_COUNT>
2

> <PUBCHEM_COORDINATE_TYPE>
1
5
255

> <PUBCHEM_BONDANNOTATIONS>
10  3  3

$$$$

