4967
  -OEChem-06261200263D

 24 24  0     0  0  0  0  0  0999 V2000
   -2.4228    2.4456    0.3516 S   0  0  0  0  0  0  0  0  0  0  0  0
    0.9491   -1.7151   -0.0018 N   0  0  0  0  0  0  0  0  0  0  0  0
   -3.7275    0.2460   -0.2706 N   0  0  0  0  0  0  0  0  0  0  0  0
    2.3363    0.1419   -0.6981 C   0  0  0  0  0  0  0  0  0  0  0  0
    3.0857    0.6948    0.5218 C   0  0  0  0  0  0  0  0  0  0  0  0
    0.9962   -0.4061   -0.3366 C   0  0  0  0  0  0  0  0  0  0  0  0
   -0.1090    0.4295   -0.3569 C   0  0  0  0  0  0  0  0  0  0  0  0
    4.4635    1.2203    0.1516 C   0  0  0  0  0  0  0  0  0  0  0  0
   -1.3416   -0.1132   -0.0114 C   0  0  0  0  0  0  0  0  0  0  0  0
   -1.4303   -1.4559    0.3390 C   0  0  0  0  0  0  0  0  0  0  0  0
   -0.2661   -2.2072    0.3280 C   0  0  0  0  0  0  0  0  0  0  0  0
   -2.5336    0.7194   -0.0167 C   0  0  0  0  0  0  0  0  0  0  0  0
    2.9330   -0.6548   -1.1611 H   0  0  0  0  0  0  0  0  0  0  0  0
    2.2321    0.9223   -1.4625 H   0  0  0  0  0  0  0  0  0  0  0  0
    2.5050    1.5032    0.9828 H   0  0  0  0  0  0  0  0  0  0  0  0
    3.1933   -0.0895    1.2811 H   0  0  0  0  0  0  0  0  0  0  0  0
    0.0081    1.4658   -0.6550 H   0  0  0  0  0  0  0  0  0  0  0  0
    5.0835    0.4263   -0.2769 H   0  0  0  0  0  0  0  0  0  0  0  0
    4.3894    2.0315   -0.5797 H   0  0  0  0  0  0  0  0  0  0  0  0
    4.9730    1.6080    1.0393 H   0  0  0  0  0  0  0  0  0  0  0  0
   -2.3702   -1.9188    0.6202 H   0  0  0  0  0  0  0  0  0  0  0  0
   -0.2811   -3.2588    0.5946 H   0  0  0  0  0  0  0  0  0  0  0  0
   -3.7203    2.7569    0.2255 H   0  0  0  0  0  0  0  0  0  0  0  0
   -4.4142    1.0040   -0.2131 H   0  0  0  0  0  0  0  0  0  0  0  0
  1 12  1  0  0  0  0
  1 23  1  0  0  0  0
  2  6  2  0  0  0  0
  2 11  1  0  0  0  0
  3 12  2  0  0  0  0
  3 24  1  0  0  0  0
  4  5  1  0  0  0  0
  4  6  1  0  0  0  0
  4 13  1  0  0  0  0
  4 14  1  0  0  0  0
  5  8  1  0  0  0  0
  5 15  1  0  0  0  0
  5 16  1  0  0  0  0
  6  7  1  0  0  0  0
  7  9  2  0  0  0  0
  7 17  1  0  0  0  0
  8 18  1  0  0  0  0
  8 19  1  0  0  0  0
  8 20  1  0  0  0  0
  9 10  1  0  0  0  0
  9 12  1  0  0  0  0
 10 11  2  0  0  0  0
 10 21  1  0  0  0  0
 11 22  1  0  0  0  0
M  END
> <PUBCHEM_COMPOUND_CID>
4967

> <PUBCHEM_CONFORMER_RMSD>
0.6

> <PUBCHEM_CONFORMER_DIVERSEORDER>
1
28
14
20
24
15
23
27
25
21
16
13
12
17
22
26
19
11
18
6
8
9
3
10
5
4
7
2

> <PUBCHEM_MMFF94_PARTIAL_CHARGES>
15
1 -0.32
10 -0.15
11 0.16
12 0.5
17 0.15
2 -0.62
21 0.15
22 0.15
23 0.18
24 0.4
3 -0.85
4 0.14
6 0.17
7 -0.15
9 0.09

> <PUBCHEM_EFFECTIVE_ROTOR_COUNT>
3

> <PUBCHEM_PHARMACOPHORE_FEATURES>
6
1 2 acceptor
1 3 acceptor
1 3 donor
1 8 hydrophobe
3 1 3 12 anion
6 2 6 7 9 10 11 rings

> <PUBCHEM_HEAVY_ATOM_COUNT>
12

> <PUBCHEM_ATOM_DEF_STEREO_COUNT>
0

> <PUBCHEM_ATOM_UDEF_STEREO_COUNT>
0

> <PUBCHEM_BOND_DEF_STEREO_COUNT>
0

> <PUBCHEM_BOND_UDEF_STEREO_COUNT>
0

> <PUBCHEM_ISOTOPIC_ATOM_COUNT>
0

> <PUBCHEM_COMPONENT_COUNT>
1

> <PUBCHEM_CACTVS_TAUTO_COUNT>
4

> <PUBCHEM_CONFORMER_ID>
0000136700000001

> <PUBCHEM_MMFF94_ENERGY>
26.2726

> <PUBCHEM_FEATURE_SELFOVERLAP>
30.446

> <PUBCHEM_SHAPE_FINGERPRINT>
10608611 8 18261955133672880200
12251169 10 18131634448322236068
12346645 44 18410856598310494936
13380535 76 18411982455310070494
14128692 85 8646476432029364650
14325111 11 18410854403566278533
14897335 6 18412267237443169686
16945 1 18340754971265992647
17846911 113 18410579465566904024
18186145 218 18188481509833050420
20510252 161 18336821979381459106
20645464 45 18334287631097236702
20645477 56 18338232666138666224
20671657 1 18268429229572199570
21040471 1 18342447171016261151
21524375 3 18409171034274214294
23402539 116 18336557014512215903
23500284 214 18335130990627631128
23559900 14 18335409163824024132
2748010 2 18270100418453043951
305870 269 18270120261080138488
3071541 12 18049438442005638150
3071541 236 18130506327627346171
53812653 166 18408323263443181168
6333272 397 18412261718404945504
6333449 129 18336828584988509903
7364860 26 18047189936310614710

> <PUBCHEM_SHAPE_MULTIPOLES>
240.84
6.12
2.25
0.73
4.24
0.09
0
-4.08
-0.28
-1.01
-0.42
0.12
-0.04
0.08

> <PUBCHEM_SHAPE_SELFOVERLAP>
478.777

> <PUBCHEM_SHAPE_VOLUME>
145.4

> <PUBCHEM_COORDINATE_TYPE>
2
5
10

$$$$

