4330
  -OEChem-06261200032D

 65 64  0     1  0  0  0  0  0999 V2000
    9.4651   -1.6550    0.0000 O   0  0  0  0  0  0  0  0  0  0  0  0
    6.8671    0.8450    0.0000 O   0  0  0  0  0  0  0  0  0  0  0  0
   12.0632    0.8450    0.0000 O   0  0  0  0  0  0  0  0  0  0  0  0
   12.0632    2.8450    0.0000 O   0  0  0  0  0  0  0  0  0  0  0  0
   10.3312    2.8450    0.0000 O   0  0  0  0  0  0  0  0  0  0  0  0
    4.2690    1.3450    0.0000 O   0  0  0  0  0  0  0  0  0  0  0  0
   13.7953   -3.1550    0.0000 O   0  0  0  0  0  0  0  0  0  0  0  0
    2.5369   -0.6550    0.0000 O   0  0  0  0  0  0  0  0  0  0  0  0
   14.6613   -1.6550    0.0000 O   0  0  0  0  0  0  0  0  0  0  0  0
    3.4030    0.8450    0.0000 O   0  0  0  0  0  0  0  0  0  0  0  0
   12.9292    1.3450    0.0000 O   0  0  0  0  0  0  0  0  0  0  0  0
    8.5991   -0.1550    0.0000 N   0  0  0  0  0  0  0  0  0  0  0  0
   11.1972   -0.6550    0.0000 N   0  0  0  0  0  0  0  0  0  0  0  0
    6.0010   -0.6550    0.0000 N   0  0  0  0  0  0  0  0  0  0  0  0
   13.7953   -0.1550    0.0000 N   0  0  0  0  0  0  0  0  0  0  0  0
    7.7331   -0.6550    0.0000 C   0  0  3  0  0  0  0  0  0  0  0  0
    7.7331   -1.6550    0.0000 C   0  0  0  0  0  0  0  0  0  0  0  0
   10.3312   -0.1550    0.0000 C   0  0  3  0  0  0  0  0  0  0  0  0
   10.3312    0.8450    0.0000 C   0  0  0  0  0  0  0  0  0  0  0  0
    9.4651   -0.6550    0.0000 C   0  0  0  0  0  0  0  0  0  0  0  0
    6.8671   -0.1550    0.0000 C   0  0  0  0  0  0  0  0  0  0  0  0
    6.8671   -2.1550    0.0000 C   0  0  0  0  0  0  0  0  0  0  0  0
    8.5991   -2.1550    0.0000 C   0  0  0  0  0  0  0  0  0  0  0  0
   11.1972    1.3450    0.0000 C   0  0  0  0  0  0  0  0  0  0  0  0
   12.9292   -0.6550    0.0000 C   0  0  3  0  0  0  0  0  0  0  0  0
    5.1350   -0.1550    0.0000 C   0  0  3  0  0  0  0  0  0  0  0  0
   12.0632   -0.1550    0.0000 C   0  0  0  0  0  0  0  0  0  0  0  0
   12.9292   -1.6550    0.0000 C   0  0  0  0  0  0  0  0  0  0  0  0
    4.2690   -0.6550    0.0000 C   0  0  0  0  0  0  0  0  0  0  0  0
   11.1972    2.3450    0.0000 C   0  0  0  0  0  0  0  0  0  0  0  0
    5.1350    0.8450    0.0000 C   0  0  0  0  0  0  0  0  0  0  0  0
   13.7953   -2.1550    0.0000 C   0  0  0  0  0  0  0  0  0  0  0  0
    3.4030   -0.1550    0.0000 C   0  0  0  0  0  0  0  0  0  0  0  0
   13.7953    0.8450    0.0000 C   0  0  0  0  0  0  0  0  0  0  0  0
   14.6613    1.3450    0.0000 C   0  0  0  0  0  0  0  0  0  0  0  0
    7.7331   -0.0350    0.0000 H   0  0  0  0  0  0  0  0  0  0  0  0
    7.7331   -2.2750    0.0000 H   0  0  0  0  0  0  0  0  0  0  0  0
   10.8681    0.1550    0.0000 H   0  0  0  0  0  0  0  0  0  0  0  0
    8.5991    0.4650    0.0000 H   0  0  0  0  0  0  0  0  0  0  0  0
   10.1191    1.4276    0.0000 H   0  0  0  0  0  0  0  0  0  0  0  0
    9.7206    0.7373    0.0000 H   0  0  0  0  0  0  0  0  0  0  0  0
    8.2891   -2.6919    0.0000 H   0  0  0  0  0  0  0  0  0  0  0  0
    9.1360   -2.4650    0.0000 H   0  0  0  0  0  0  0  0  0  0  0  0
    8.9091   -1.6181    0.0000 H   0  0  0  0  0  0  0  0  0  0  0  0
    6.5571   -1.6181    0.0000 H   0  0  0  0  0  0  0  0  0  0  0  0
    6.3301   -2.4650    0.0000 H   0  0  0  0  0  0  0  0  0  0  0  0
    7.1771   -2.6919    0.0000 H   0  0  0  0  0  0  0  0  0  0  0  0
   11.1972   -1.2750    0.0000 H   0  0  0  0  0  0  0  0  0  0  0  0
   11.4092    0.7624    0.0000 H   0  0  0  0  0  0  0  0  0  0  0  0
   11.8078    1.4527    0.0000 H   0  0  0  0  0  0  0  0  0  0  0  0
    6.0010   -1.2750    0.0000 H   0  0  0  0  0  0  0  0  0  0  0  0
   12.9292   -0.0350    0.0000 H   0  0  0  0  0  0  0  0  0  0  0  0
    5.1350   -0.7750    0.0000 H   0  0  0  0  0  0  0  0  0  0  0  0
   12.3187   -1.5473    0.0000 H   0  0  0  0  0  0  0  0  0  0  0  0
   12.7172   -2.2376    0.0000 H   0  0  0  0  0  0  0  0  0  0  0  0
    3.8705   -1.1300    0.0000 H   0  0  0  0  0  0  0  0  0  0  0  0
    4.6675   -1.1300    0.0000 H   0  0  0  0  0  0  0  0  0  0  0  0
   14.3322   -0.4650    0.0000 H   0  0  0  0  0  0  0  0  0  0  0  0
    5.6720    1.1550    0.0000 H   0  0  0  0  0  0  0  0  0  0  0  0
   12.0632    3.4650    0.0000 H   0  0  0  0  0  0  0  0  0  0  0  0
   14.9713    0.8081    0.0000 H   0  0  0  0  0  0  0  0  0  0  0  0
   15.1982    1.6550    0.0000 H   0  0  0  0  0  0  0  0  0  0  0  0
   14.3513    1.8819    0.0000 H   0  0  0  0  0  0  0  0  0  0  0  0
   14.3322   -3.4650    0.0000 H   0  0  0  0  0  0  0  0  0  0  0  0
    2.0000   -0.3450    0.0000 H   0  0  0  0  0  0  0  0  0  0  0  0
  1 20  2  0  0  0  0
  2 21  2  0  0  0  0
  3 27  2  0  0  0  0
  4 30  1  0  0  0  0
  4 60  1  0  0  0  0
  5 30  2  0  0  0  0
  6 31  2  0  0  0  0
  7 32  1  0  0  0  0
  7 64  1  0  0  0  0
  8 33  1  0  0  0  0
  8 65  1  0  0  0  0
  9 32  2  0  0  0  0
 10 33  2  0  0  0  0
 11 34  2  0  0  0  0
 12 16  1  0  0  0  0
 12 20  1  0  0  0  0
 12 39  1  0  0  0  0
 13 18  1  0  0  0  0
 13 27  1  0  0  0  0
 13 48  1  0  0  0  0
 14 21  1  0  0  0  0
 14 26  1  0  0  0  0
 14 51  1  0  0  0  0
 15 25  1  0  0  0  0
 15 34  1  0  0  0  0
 15 58  1  0  0  0  0
 16 17  1  0  0  0  0
 16 21  1  0  0  0  0
 16 36  1  0  0  0  0
 17 22  1  0  0  0  0
 17 23  1  0  0  0  0
 17 37  1  0  0  0  0
 18 19  1  0  0  0  0
 18 20  1  0  0  0  0
 18 38  1  0  0  0  0
 19 24  1  0  0  0  0
 19 40  1  0  0  0  0
 19 41  1  0  0  0  0
 22 45  1  0  0  0  0
 22 46  1  0  0  0  0
 22 47  1  0  0  0  0
 23 42  1  0  0  0  0
 23 43  1  0  0  0  0
 23 44  1  0  0  0  0
 24 30  1  0  0  0  0
 24 49  1  0  0  0  0
 24 50  1  0  0  0  0
 25 27  1  0  0  0  0
 25 28  1  0  0  0  0
 25 52  1  0  0  0  0
 26 29  1  0  0  0  0
 26 31  1  0  0  0  0
 26 53  1  0  0  0  0
 28 32  1  0  0  0  0
 28 54  1  0  0  0  0
 28 55  1  0  0  0  0
 29 33  1  0  0  0  0
 29 56  1  0  0  0  0
 29 57  1  0  0  0  0
 31 59  1  0  0  0  0
 34 35  1  0  0  0  0
 35 61  1  0  0  0  0
 35 62  1  0  0  0  0
 35 63  1  0  0  0  0
M  END
> <PUBCHEM_COMPOUND_CID>
4330

> <PUBCHEM_COMPOUND_CANONICALIZED>
1

> <PUBCHEM_CACTVS_COMPLEXITY>
843

> <PUBCHEM_CACTVS_HBOND_ACCEPTOR>
11

> <PUBCHEM_CACTVS_HBOND_DONOR>
7

> <PUBCHEM_CACTVS_ROTATABLE_BOND>
16

> <PUBCHEM_CACTVS_SUBSKEYS>
AAADceB7vAAAAAAAAAAAAAAAAAAAAAAAAAAAAAAAAAAAAAAAAAAAHgAQCAAADSjhgAYCCALAAgAIAAmQmAAAAAAAAAAAAIGIAAAAQBoAgCAUQAAGFgCAAAC/FwIIAAAAAAAAAAAAAAAAAAAAAAAAAAAAAA==

> <PUBCHEM_IUPAC_OPENEYE_NAME>
4-[(2-acetamido-3-carboxy-propanoyl)amino]-5-[[1-[[1-(carboxymethyl)-2-oxo-ethyl]carbamoyl]-2-methyl-propyl]amino]-5-oxo-pentanoic acid

> <PUBCHEM_IUPAC_CAS_NAME>
4-[(2-acetamido-3-carboxy-1-oxopropyl)amino]-5-[[1-[(1-carboxy-3-oxopropan-2-yl)amino]-3-methyl-1-oxobutan-2-yl]amino]-5-oxopentanoic acid

> <PUBCHEM_IUPAC_NAME>
4-[(2-acetamido-3-carboxypropanoyl)amino]-5-[[1-[(1-carboxy-3-oxopropan-2-yl)amino]-3-methyl-1-oxobutan-2-yl]amino]-5-oxopentanoic acid

> <PUBCHEM_IUPAC_SYSTEMATIC_NAME>
4-[(2-acetamido-4-oxidanyl-4-oxidanylidene-butanoyl)amino]-5-[[3-methyl-1-[[4-oxidanyl-1,4-bis(oxidanylidene)butan-2-yl]amino]-1-oxidanylidene-butan-2-yl]amino]-5-oxidanylidene-pentanoic acid

> <PUBCHEM_IUPAC_TRADITIONAL_NAME>
4-[(2-acetamido-3-carboxy-propanoyl)amino]-5-[[1-[[1-(carboxymethyl)-2-keto-ethyl]carbamoyl]-2-methyl-propyl]amino]-5-keto-valeric acid

> <PUBCHEM_IUPAC_INCHI>
InChI=1S/C20H30N4O11/c1-9(2)17(20(35)22-11(8-25)6-15(29)30)24-18(33)12(4-5-14(27)28)23-19(34)13(7-16(31)32)21-10(3)26/h8-9,11-13,17H,4-7H2,1-3H3,(H,21,26)(H,22,35)(H,23,34)(H,24,33)(H,27,28)(H,29,30)(H,31,32)

> <PUBCHEM_IUPAC_INCHIKEY>
UMBVAPCONCILTL-UHFFFAOYSA-N

> <PUBCHEM_XLOGP3_AA>
-2.6

> <PUBCHEM_EXACT_MASS>
502.191108

> <PUBCHEM_MOLECULAR_FORMULA>
C20H30N4O11

> <PUBCHEM_MOLECULAR_WEIGHT>
502.4724

> <PUBCHEM_OPENEYE_CAN_SMILES>
CC(C)C(C(=O)NC(CC(=O)O)C=O)NC(=O)C(CCC(=O)O)NC(=O)C(CC(=O)O)NC(=O)C

> <PUBCHEM_OPENEYE_ISO_SMILES>
CC(C)C(C(=O)NC(CC(=O)O)C=O)NC(=O)C(CCC(=O)O)NC(=O)C(CC(=O)O)NC(=O)C

> <PUBCHEM_CACTVS_TPSA>
245

> <PUBCHEM_MONOISOTOPIC_WEIGHT>
502.191108

> <PUBCHEM_TOTAL_CHARGE>
0

> <PUBCHEM_HEAVY_ATOM_COUNT>
35

> <PUBCHEM_ATOM_DEF_STEREO_COUNT>
0

> <PUBCHEM_ATOM_UDEF_STEREO_COUNT>
4

> <PUBCHEM_BOND_DEF_STEREO_COUNT>
0

> <PUBCHEM_BOND_UDEF_STEREO_COUNT>
0

> <PUBCHEM_ISOTOPIC_ATOM_COUNT>
0

> <PUBCHEM_COMPONENT_COUNT>
1

> <PUBCHEM_CACTVS_TAUTO_COUNT>
32

> <PUBCHEM_COORDINATE_TYPE>
1
5
255

> <PUBCHEM_BONDANNOTATIONS>
16  17  3
18  20  3
25  28  3
26  29  3

$$$$

