10513
  -OEChem-06261204383D

 50 55  0     1  0  0  0  0  0999 V2000
   -2.5317    2.1272   -0.0847 O   0  0  0  0  0  0  0  0  0  0  0  0
   -2.0959    2.2186    2.2553 O   0  0  0  0  0  0  0  0  0  0  0  0
    0.0810    2.8713   -1.6135 O   0  0  0  0  0  0  0  0  0  0  0  0
   -1.2670   -2.6819   -0.7541 N   0  0  2  0  0  0  0  0  0  0  0  0
    1.1641    1.1786   -0.4854 N   0  0  0  0  0  0  0  0  0  0  0  0
    0.5521   -1.1595   -0.4042 C   0  0  2  0  0  0  0  0  0  0  0  0
   -0.2844   -2.2591    0.2746 C   0  0  1  0  0  0  0  0  0  0  0  0
   -0.0411    0.2966   -0.3747 C   0  0  1  0  0  0  0  0  0  0  0  0
   -0.8465    0.5996    0.9380 C   0  0  2  0  0  0  0  0  0  0  0  0
   -1.8077   -0.5725    1.2700 C   0  0  2  0  0  0  0  0  0  0  0  0
   -0.9371   -1.7975    1.5728 C   0  0  0  0  0  0  0  0  0  0  0  0
    0.6113   -1.6904   -1.8410 C   0  0  0  0  0  0  0  0  0  0  0  0
   -0.8024   -2.2068   -2.0660 C   0  0  0  0  0  0  0  0  0  0  0  0
    1.9310   -0.9004    0.1478 C   0  0  0  0  0  0  0  0  0  0  0  0
   -2.7676   -0.8978    0.1323 C   0  0  0  0  0  0  0  0  0  0  0  0
   -2.6508   -2.2901   -0.4513 C   0  0  0  0  0  0  0  0  0  0  0  0
    2.2625    0.4603    0.0461 C   0  0  0  0  0  0  0  0  0  0  0  0
   -1.5642    1.9704    0.9517 C   0  0  1  0  0  0  0  0  0  0  0  0
    2.8431   -1.8258    0.6412 C   0  0  0  0  0  0  0  0  0  0  0  0
   -3.6257    0.0000   -0.3785 C   0  0  0  0  0  0  0  0  0  0  0  0
    1.1144    2.4156   -1.1098 C   0  0  0  0  0  0  0  0  0  0  0  0
    3.5115    0.9053    0.4536 C   0  0  0  0  0  0  0  0  0  0  0  0
   -3.7480    1.4091    0.0954 C   0  0  0  0  0  0  0  0  0  0  0  0
    4.0975   -1.3786    1.0510 C   0  0  0  0  0  0  0  0  0  0  0  0
    4.4280   -0.0225    0.9590 C   0  0  0  0  0  0  0  0  0  0  0  0
    2.3736    3.2302   -1.2254 C   0  0  0  0  0  0  0  0  0  0  0  0
    0.3331   -3.1385    0.4930 H   0  0  0  0  0  0  0  0  0  0  0  0
   -0.6831    0.4880   -1.2425 H   0  0  0  0  0  0  0  0  0  0  0  0
   -0.1270    0.6526    1.7699 H   0  0  0  0  0  0  0  0  0  0  0  0
   -2.3855   -0.3473    2.1750 H   0  0  0  0  0  0  0  0  0  0  0  0
   -0.1727   -1.5580    2.3224 H   0  0  0  0  0  0  0  0  0  0  0  0
   -1.5408   -2.6042    2.0090 H   0  0  0  0  0  0  0  0  0  0  0  0
    1.3282   -2.5180   -1.9262 H   0  0  0  0  0  0  0  0  0  0  0  0
    0.8928   -0.9314   -2.5790 H   0  0  0  0  0  0  0  0  0  0  0  0
   -1.4280   -1.3958   -2.4585 H   0  0  0  0  0  0  0  0  0  0  0  0
   -0.8161   -3.0188   -2.7998 H   0  0  0  0  0  0  0  0  0  0  0  0
   -3.0589   -3.0017    0.2784 H   0  0  0  0  0  0  0  0  0  0  0  0
   -3.2789   -2.4138   -1.3430 H   0  0  0  0  0  0  0  0  0  0  0  0
   -0.8120    2.7479    0.7920 H   0  0  0  0  0  0  0  0  0  0  0  0
    2.6029   -2.8817    0.7000 H   0  0  0  0  0  0  0  0  0  0  0  0
   -4.2761   -0.2919   -1.1994 H   0  0  0  0  0  0  0  0  0  0  0  0
    3.8062    1.9451    0.4358 H   0  0  0  0  0  0  0  0  0  0  0  0
   -4.4967    1.9114   -0.5274 H   0  0  0  0  0  0  0  0  0  0  0  0
   -4.1195    1.4644    1.1244 H   0  0  0  0  0  0  0  0  0  0  0  0
   -2.0893    3.1815    2.3897 H   0  0  0  0  0  0  0  0  0  0  0  0
    4.8240   -2.0858    1.4413 H   0  0  0  0  0  0  0  0  0  0  0  0
    5.4073    0.3144    1.2889 H   0  0  0  0  0  0  0  0  0  0  0  0
    3.1817    2.6422   -1.6656 H   0  0  0  0  0  0  0  0  0  0  0  0
    2.6496    3.6314   -0.2478 H   0  0  0  0  0  0  0  0  0  0  0  0
    2.1905    4.0799   -1.8919 H   0  0  0  0  0  0  0  0  0  0  0  0
  1 18  1  0  0  0  0
  1 23  1  0  0  0  0
  2 18  1  0  0  0  0
  2 45  1  0  0  0  0
  3 21  2  0  0  0  0
  4  7  1  0  0  0  0
  4 13  1  0  0  0  0
  4 16  1  0  0  0  0
  5  8  1  0  0  0  0
  5 17  1  0  0  0  0
  5 21  1  0  0  0  0
  6  7  1  0  0  0  0
  6  8  1  0  0  0  0
  6 12  1  0  0  0  0
  6 14  1  0  0  0  0
  7 11  1  0  0  0  0
  7 27  1  0  0  0  0
  8  9  1  0  0  0  0
  8 28  1  0  0  0  0
  9 10  1  0  0  0  0
  9 18  1  0  0  0  0
  9 29  1  0  0  0  0
 10 11  1  0  0  0  0
 10 15  1  0  0  0  0
 10 30  1  0  0  0  0
 11 31  1  0  0  0  0
 11 32  1  0  0  0  0
 12 13  1  0  0  0  0
 12 33  1  0  0  0  0
 12 34  1  0  0  0  0
 13 35  1  0  0  0  0
 13 36  1  0  0  0  0
 14 17  1  0  0  0  0
 14 19  2  0  0  0  0
 15 16  1  0  0  0  0
 15 20  2  0  0  0  0
 16 37  1  0  0  0  0
 16 38  1  0  0  0  0
 17 22  2  0  0  0  0
 18 39  1  0  0  0  0
 19 24  1  0  0  0  0
 19 40  1  0  0  0  0
 20 23  1  0  0  0  0
 20 41  1  0  0  0  0
 21 26  1  0  0  0  0
 22 25  1  0  0  0  0
 22 42  1  0  0  0  0
 23 43  1  0  0  0  0
 23 44  1  0  0  0  0
 24 25  2  0  0  0  0
 24 46  1  0  0  0  0
 25 47  1  0  0  0  0
 26 48  1  0  0  0  0
 26 49  1  0  0  0  0
 26 50  1  0  0  0  0
M  END
> <PUBCHEM_COMPOUND_CID>
10513

> <PUBCHEM_CONFORMER_RMSD>
0.6

> <PUBCHEM_CONFORMER_DIVERSEORDER>
1
9
6
11
10
4
3
13
7
2
8
12
15
5
14

> <PUBCHEM_MMFF94_PARTIAL_CHARGES>
29
1 -0.56
10 0.14
13 0.27
14 -0.14
15 -0.28
16 0.41
17 0.12
18 0.56
19 -0.15
2 -0.68
20 -0.29
21 0.57
22 -0.15
23 0.42
24 -0.15
25 -0.15
26 0.06
3 -0.57
4 -0.81
40 0.15
41 0.15
42 0.15
45 0.4
46 0.15
47 0.15
5 -0.48
6 0.14
7 0.27
8 0.3

> <PUBCHEM_EFFECTIVE_ROTOR_COUNT>
2.6

> <PUBCHEM_PHARMACOPHORE_FEATURES>
11
1 1 acceptor
1 2 acceptor
1 2 donor
1 3 acceptor
1 4 cation
5 4 6 7 12 13 rings
5 5 6 8 14 17 rings
6 14 17 19 22 24 25 rings
6 4 7 10 11 15 16 rings
6 6 7 8 9 10 11 rings
7 1 9 10 15 18 20 23 rings

> <PUBCHEM_HEAVY_ATOM_COUNT>
26

> <PUBCHEM_ATOM_DEF_STEREO_COUNT>
1

> <PUBCHEM_ATOM_UDEF_STEREO_COUNT>
5

> <PUBCHEM_BOND_DEF_STEREO_COUNT>
0

> <PUBCHEM_BOND_UDEF_STEREO_COUNT>
0

> <PUBCHEM_ISOTOPIC_ATOM_COUNT>
0

> <PUBCHEM_COMPONENT_COUNT>
1

> <PUBCHEM_CACTVS_TAUTO_COUNT>
1

> <PUBCHEM_CONFORMER_ID>
0000291100000001

> <PUBCHEM_MMFF94_ENERGY>
101.8435

> <PUBCHEM_FEATURE_SELFOVERLAP>
57.977

> <PUBCHEM_SHAPE_FINGERPRINT>
10863032 1 18410864273475315675
10948715 1 18189623928405692003
11370993 70 17969794174685857497
11578080 2 17682152917655249545
12011746 2 18339923835165024270
12035758 1 17539398139512789762
12035759 4 18196639706107774140
12422481 6 18264752398685861955
13009979 54 18190743029622106098
13132413 78 18412550885778716790
13140716 1 18048310055159594898
13583140 156 17704069616618455235
13965767 371 17688298410307498880
14142880 1 18265910209635477152
14178342 30 18046050821095377105
14223421 5 17842822335766387050
16945 1 18198892635022974211
17349148 13 18334580165414176967
17492 54 17975134241375933535
17492 89 18340487759818416546
17980427 23 18334859441246806448
192875 21 18412550915985997085
20691752 17 17910090744911269555
20715895 44 18338241595671255805
20905425 154 17976248050369394007
22149856 69 17534310579806055185
23184049 59 18339644550442279920
2334 1 18338505447563246304
23388829 49 18266182721315854872
23419403 2 16462001753303724696
23559900 14 18186809071681050472
2748010 2 18048294924169275695
3380486 145 16175097877949439739
34934 24 18272376390658623632
4340502 62 17971753522309642761
6287921 2 17753029877213159725
6992083 37 18412259575305844800
7471813 234 17683550349837095558
9981440 41 17407682813788033984

> <PUBCHEM_SHAPE_MULTIPOLES>
507.5
6
3.54
1.64
2.75
1.43
-0.16
0.35
1.7
-0.25
-1.06
-0.19
0.03
-1.46

> <PUBCHEM_SHAPE_SELFOVERLAP>
1141.141

> <PUBCHEM_SHAPE_VOLUME>
263.8

> <PUBCHEM_COORDINATE_TYPE>
2
5
10

$$$$

