5846
  -OEChem-06261200553D

 35 36  0     1  0  0  0  0  0999 V2000
   -2.3930    1.0205    0.3886 Si  0  0  0  0  0  0  0  0  0  0  0  0
    1.3044   -1.6200    1.9670 O   0  0  0  0  0  0  0  0  0  0  0  0
    0.0911    0.0527   -2.2476 O   0  0  0  0  0  0  0  0  0  0  0  0
    3.7379    1.7008   -0.0437 O   0  0  0  0  0  0  0  0  0  0  0  0
    2.4649    0.0925    0.9919 N   0  0  0  0  0  0  0  0  0  0  0  0
    1.8179    0.9761   -1.0770 N   0  0  0  0  0  0  0  0  0  0  0  0
    0.1906   -0.4163    0.1537 C   0  0  0  0  0  0  0  0  0  0  0  0
   -0.6522   -1.7350   -0.0633 C   0  0  1  0  0  0  0  0  0  0  0  0
   -0.6006    0.6883    0.9306 C   0  0  0  0  0  0  0  0  0  0  0  0
   -3.0314   -0.7166    0.0282 C   0  0  0  0  0  0  0  0  0  0  0  0
   -2.0328   -1.5724   -0.7533 C   0  0  0  0  0  0  0  0  0  0  0  0
   -2.4666    2.0970   -1.1290 C   0  0  0  0  0  0  0  0  0  0  0  0
   -3.3540    1.8017    1.7858 C   0  0  0  0  0  0  0  0  0  0  0  0
    1.3632   -0.7419    1.1055 C   0  0  0  0  0  0  0  0  0  0  0  0
    0.6775    0.1923   -1.1757 C   0  0  0  0  0  0  0  0  0  0  0  0
    0.1493   -2.8069   -0.8273 C   0  0  0  0  0  0  0  0  0  0  0  0
    2.7337    0.9870   -0.0344 C   0  0  0  0  0  0  0  0  0  0  0  0
   -0.8625   -2.1618    0.9284 H   0  0  0  0  0  0  0  0  0  0  0  0
   -0.6634    0.4079    1.9909 H   0  0  0  0  0  0  0  0  0  0  0  0
   -0.0674    1.6469    0.9032 H   0  0  0  0  0  0  0  0  0  0  0  0
   -3.9730   -0.6490   -0.5276 H   0  0  0  0  0  0  0  0  0  0  0  0
   -3.2570   -1.2089    0.9815 H   0  0  0  0  0  0  0  0  0  0  0  0
   -2.4832   -2.5667   -0.8765 H   0  0  0  0  0  0  0  0  0  0  0  0
   -1.9167   -1.1771   -1.7681 H   0  0  0  0  0  0  0  0  0  0  0  0
   -1.9372    3.0402   -0.9633 H   0  0  0  0  0  0  0  0  0  0  0  0
   -2.0181    1.6049   -1.9954 H   0  0  0  0  0  0  0  0  0  0  0  0
   -3.5042    2.3340   -1.3837 H   0  0  0  0  0  0  0  0  0  0  0  0
   -2.9408    2.7821    2.0411 H   0  0  0  0  0  0  0  0  0  0  0  0
   -4.4034    1.9369    1.5078 H   0  0  0  0  0  0  0  0  0  0  0  0
   -3.3184    1.1746    2.6817 H   0  0  0  0  0  0  0  0  0  0  0  0
   -0.3958   -3.7575   -0.8333 H   0  0  0  0  0  0  0  0  0  0  0  0
    0.3212   -2.5220   -1.8697 H   0  0  0  0  0  0  0  0  0  0  0  0
    1.1215   -2.9968   -0.3631 H   0  0  0  0  0  0  0  0  0  0  0  0
    3.1861   -0.0101    1.7005 H   0  0  0  0  0  0  0  0  0  0  0  0
    2.0692    1.5163   -1.9003 H   0  0  0  0  0  0  0  0  0  0  0  0
  1  9  1  0  0  0  0
  1 10  1  0  0  0  0
  1 12  1  0  0  0  0
  1 13  1  0  0  0  0
  2 14  2  0  0  0  0
  3 15  2  0  0  0  0
  4 17  2  0  0  0  0
  5 14  1  0  0  0  0
  5 17  1  0  0  0  0
  5 34  1  0  0  0  0
  6 15  1  0  0  0  0
  6 17  1  0  0  0  0
  6 35  1  0  0  0  0
  7  8  1  0  0  0  0
  7  9  1  0  0  0  0
  7 14  1  0  0  0  0
  7 15  1  0  0  0  0
  8 11  1  0  0  0  0
  8 16  1  0  0  0  0
  8 18  1  0  0  0  0
  9 19  1  0  0  0  0
  9 20  1  0  0  0  0
 10 11  1  0  0  0  0
 10 21  1  0  0  0  0
 10 22  1  0  0  0  0
 11 23  1  0  0  0  0
 11 24  1  0  0  0  0
 12 25  1  0  0  0  0
 12 26  1  0  0  0  0
 12 27  1  0  0  0  0
 13 28  1  0  0  0  0
 13 29  1  0  0  0  0
 13 30  1  0  0  0  0
 16 31  1  0  0  0  0
 16 32  1  0  0  0  0
 16 33  1  0  0  0  0
M  END
> <PUBCHEM_COMPOUND_CID>
5846

> <PUBCHEM_CONFORMER_RMSD>
0.6

> <PUBCHEM_CONFORMER_DIVERSEORDER>
1
5
4
6
2
3
7

> <PUBCHEM_MMFF94_PARTIAL_CHARGES>
16
1 0.32
10 -0.08
12 -0.08
13 -0.08
14 0.57
15 0.57
17 0.69
2 -0.57
3 -0.57
34 0.37
35 0.37
4 -0.57
5 -0.49
6 -0.49
7 0.12
9 -0.08

> <PUBCHEM_EFFECTIVE_ROTOR_COUNT>
1.4

> <PUBCHEM_PHARMACOPHORE_FEATURES>
7
1 2 acceptor
1 3 acceptor
1 4 acceptor
1 5 donor
1 6 donor
6 1 7 8 9 10 11 rings
6 5 6 7 14 15 17 rings

> <PUBCHEM_HEAVY_ATOM_COUNT>
17

> <PUBCHEM_ATOM_DEF_STEREO_COUNT>
0

> <PUBCHEM_ATOM_UDEF_STEREO_COUNT>
1

> <PUBCHEM_BOND_DEF_STEREO_COUNT>
0

> <PUBCHEM_BOND_UDEF_STEREO_COUNT>
0

> <PUBCHEM_ISOTOPIC_ATOM_COUNT>
0

> <PUBCHEM_COMPONENT_COUNT>
1

> <PUBCHEM_CACTVS_TAUTO_COUNT>
5

> <PUBCHEM_CONFORMER_ID>
000016D600000001

> <PUBCHEM_MMFF94_ENERGY>
43.7704

> <PUBCHEM_FEATURE_SELFOVERLAP>
35.563

> <PUBCHEM_SHAPE_FINGERPRINT>
10863032 1 18114172055872870758
10948715 1 18186790396477425193
11471102 22 16343708694437409664
11640471 11 18413105061156345153
12138202 97 17749387040123102997
12423570 1 6042348889249254099
12491281 212 18337945701808408832
13538477 17 18265912262550749290
13764800 53 18040703797539288577
13839132 238 17967803977256828173
14181834 199 18055359290714772087
14614273 12 18411136944327926933
14817 1 14288919803829956727
15375462 478 17632574925131247221
15775835 57 18413384332777935825
15852999 172 17903388096754272363
16945 1 17703784808272433673
18186145 218 18260820548914936188
18981168 100 18192139611210360813
19786989 88 18265893743121358369
20510252 161 18114739318205429507
20511035 2 17343215530937141725
21524375 3 18341605980381041496
22802520 49 17024005211849713973
23236772 104 18200882746789917387
23402539 116 18043534902352136143
23419403 2 15727841772212981182
23493267 7 17967245399395471984
23557571 272 17827351086060933358
23559900 14 17749382711830127734
25 1 16009573789673060809
2748010 2 18117834624111387175
353137 74 18268999687106803049
53812653 8 18337394833592956643
6442390 28 17751329912315481867
7364860 26 17973148814853696863
77492 1 18272377421018361834
81228 2 18048592625400451435

> <PUBCHEM_SHAPE_MULTIPOLES>
340.49
4.83
2.45
1.67
0.13
1.09
-0.03
-3.31
0.86
0.21
-0.25
0
-0.14
-0.64

> <PUBCHEM_SHAPE_SELFOVERLAP>
685.485

> <PUBCHEM_SHAPE_VOLUME>
201.3

> <PUBCHEM_COORDINATE_TYPE>
2
5
10

$$$$

