7846968
  -OEChem-06241222483D

 44 48  0     0  0  0  0  0  0999 V2000
    2.9172    1.3947   -1.8645 S   0  0  0  0  0  0  0  0  0  0  0  0
   -0.3829    0.9504    0.3000 O   0  0  0  0  0  0  0  0  0  0  0  0
   -0.8863    2.7860    1.6035 O   0  0  0  0  0  0  0  0  0  0  0  0
    2.6539    1.4936    0.6993 N   0  0  0  0  0  0  0  0  0  0  0  0
   -1.3587    0.1346    0.9215 C   0  0  0  0  0  0  0  0  0  0  0  0
   -1.1814   -1.3266    0.5594 C   0  0  0  0  0  0  0  0  0  0  0  0
   -2.7301    0.4352    0.3462 C   0  0  0  0  0  0  0  0  0  0  0  0
   -2.3188   -1.8033   -0.1309 C   0  0  0  0  0  0  0  0  0  0  0  0
   -3.2702   -0.7204   -0.2627 C   0  0  0  0  0  0  0  0  0  0  0  0
   -0.1043   -2.1527    0.8323 C   0  0  0  0  0  0  0  0  0  0  0  0
   -3.4315    1.6287    0.3762 C   0  0  0  0  0  0  0  0  0  0  0  0
   -2.3827   -3.1194   -0.5577 C   0  0  0  0  0  0  0  0  0  0  0  0
   -4.5217   -0.6847   -0.8552 C   0  0  0  0  0  0  0  0  0  0  0  0
   -0.1692   -3.4789    0.4017 C   0  0  0  0  0  0  0  0  0  0  0  0
   -4.6924    1.6645   -0.2218 C   0  0  0  0  0  0  0  0  0  0  0  0
   -1.2970   -3.9575   -0.2864 C   0  0  0  0  0  0  0  0  0  0  0  0
   -5.2319    0.5194   -0.8318 C   0  0  0  0  0  0  0  0  0  0  0  0
    0.0650    3.0748   -0.6163 C   0  0  0  0  0  0  0  0  0  0  0  0
   -0.4604    2.2948    0.5673 C   0  0  0  0  0  0  0  0  0  0  0  0
    1.5624    3.3606   -0.4940 C   0  0  0  0  0  0  0  0  0  0  0  0
    2.3647    2.0869   -0.4170 C   0  0  0  0  0  0  0  0  0  0  0  0
    3.6461    0.1334   -0.9422 C   0  0  0  0  0  0  0  0  0  0  0  0
    3.3975    0.3575    0.4154 C   0  0  0  0  0  0  0  0  0  0  0  0
    4.3846   -0.9747   -1.3878 C   0  0  0  0  0  0  0  0  0  0  0  0
    3.9073   -0.5615    1.3582 C   0  0  0  0  0  0  0  0  0  0  0  0
    4.8777   -1.8686   -0.4341 C   0  0  0  0  0  0  0  0  0  0  0  0
    4.6433   -1.6667    0.9215 C   0  0  0  0  0  0  0  0  0  0  0  0
   -1.3545    0.2454    2.0128 H   0  0  0  0  0  0  0  0  0  0  0  0
    0.7657   -1.7857    1.3651 H   0  0  0  0  0  0  0  0  0  0  0  0
   -3.0732    2.5231    0.8637 H   0  0  0  0  0  0  0  0  0  0  0  0
   -3.2466   -3.5039   -1.0895 H   0  0  0  0  0  0  0  0  0  0  0  0
   -4.9526   -1.5608   -1.3281 H   0  0  0  0  0  0  0  0  0  0  0  0
    0.6616   -4.1507    0.6006 H   0  0  0  0  0  0  0  0  0  0  0  0
   -5.2693    2.5855   -0.2091 H   0  0  0  0  0  0  0  0  0  0  0  0
   -0.1683    2.5290   -1.5386 H   0  0  0  0  0  0  0  0  0  0  0  0
   -0.4953    4.0156   -0.6690 H   0  0  0  0  0  0  0  0  0  0  0  0
   -1.3244   -4.9944   -0.6114 H   0  0  0  0  0  0  0  0  0  0  0  0
   -6.2168    0.5711   -1.2888 H   0  0  0  0  0  0  0  0  0  0  0  0
    1.7512    3.9422    0.4173 H   0  0  0  0  0  0  0  0  0  0  0  0
    1.8910    3.9810   -1.3362 H   0  0  0  0  0  0  0  0  0  0  0  0
    4.5713   -1.1389   -2.4446 H   0  0  0  0  0  0  0  0  0  0  0  0
    3.7291   -0.4138    2.4196 H   0  0  0  0  0  0  0  0  0  0  0  0
    5.4515   -2.7331   -0.7579 H   0  0  0  0  0  0  0  0  0  0  0  0
    5.0341   -2.3731    1.6487 H   0  0  0  0  0  0  0  0  0  0  0  0
  1 21  1  0  0  0  0
  1 22  1  0  0  0  0
  2  5  1  0  0  0  0
  2 19  1  0  0  0  0
  3 19  2  0  0  0  0
  4 21  2  0  0  0  0
  4 23  1  0  0  0  0
  5  6  1  0  0  0  0
  5  7  1  0  0  0  0
  5 28  1  0  0  0  0
  6  8  1  0  0  0  0
  6 10  2  0  0  0  0
  7  9  1  0  0  0  0
  7 11  2  0  0  0  0
  8  9  1  0  0  0  0
  8 12  2  0  0  0  0
  9 13  2  0  0  0  0
 10 14  1  0  0  0  0
 10 29  1  0  0  0  0
 11 15  1  0  0  0  0
 11 30  1  0  0  0  0
 12 16  1  0  0  0  0
 12 31  1  0  0  0  0
 13 17  1  0  0  0  0
 13 32  1  0  0  0  0
 14 16  2  0  0  0  0
 14 33  1  0  0  0  0
 15 17  2  0  0  0  0
 15 34  1  0  0  0  0
 16 37  1  0  0  0  0
 17 38  1  0  0  0  0
 18 19  1  0  0  0  0
 18 20  1  0  0  0  0
 18 35  1  0  0  0  0
 18 36  1  0  0  0  0
 20 21  1  0  0  0  0
 20 39  1  0  0  0  0
 20 40  1  0  0  0  0
 22 23  1  0  0  0  0
 22 24  2  0  0  0  0
 23 25  2  0  0  0  0
 24 26  1  0  0  0  0
 24 41  1  0  0  0  0
 25 27  1  0  0  0  0
 25 42  1  0  0  0  0
 26 27  2  0  0  0  0
 26 43  1  0  0  0  0
 27 44  1  0  0  0  0
M  END
> <PUBCHEM_COMPOUND_CID>
7846968

> <PUBCHEM_CONFORMER_RMSD>
0.8

> <PUBCHEM_CONFORMER_DIVERSEORDER>
1
92
66
104
97
108
64
185
140
181
177
78
39
112
111
159
188
146
133
38
160
182
75
163
176
81
98
3
132
72
179
127
171
86
29
124
107
62
88
69
34
135
130
36
134
21
113
195
142
192
168
126
116
8
49
42
2
155
110
13
63
184
44
131
172
76
41
158
35
43
169
174
136
120
103
148
125
153
90
87
180
105
94
51
15
53
139
7
117
164
55
114
18
121
129
190
99
187
115
186
149
57
45
60
101
118
48
144
24
152
85
138
50
156
22
9
11
84
95
183
89
73
52
91
31
32
189
16
178
54
162
46
59
109
30
157
165
10
147
20
193
23
17
6
123
100
70
19
67
71
150
96
40
175
28
137
33
145
151
25
167
12
128
4
122
14
161
166
170
5
173
191
47
106
79
37
143
194
83
102
93
58
27
141
119
68
26
80
65
61
82
154
77
74
56

> <PUBCHEM_MMFF94_PARTIAL_CHARGES>
37
1 -0.08
10 -0.15
11 -0.15
12 -0.15
13 -0.15
14 -0.15
15 -0.15
16 -0.15
17 -0.15
18 0.06
19 0.66
2 -0.43
20 0.18
21 0.2
22 0.04
23 0.23
24 -0.15
25 -0.15
26 -0.15
27 -0.15
29 0.15
3 -0.57
30 0.15
31 0.15
32 0.15
33 0.15
34 0.15
37 0.15
38 0.15
4 -0.57
41 0.15
42 0.15
43 0.15
44 0.15
5 0.57
6 -0.14
7 -0.14

> <PUBCHEM_EFFECTIVE_ROTOR_COUNT>
5.2

> <PUBCHEM_PHARMACOPHORE_FEATURES>
7
1 3 acceptor
1 4 acceptor
5 1 4 21 22 23 rings
5 5 6 7 8 9 rings
6 22 23 24 25 26 27 rings
6 6 8 10 12 14 16 rings
6 7 9 11 13 15 17 rings

> <PUBCHEM_HEAVY_ATOM_COUNT>
27

> <PUBCHEM_ATOM_DEF_STEREO_COUNT>
0

> <PUBCHEM_ATOM_UDEF_STEREO_COUNT>
0

> <PUBCHEM_BOND_DEF_STEREO_COUNT>
0

> <PUBCHEM_BOND_UDEF_STEREO_COUNT>
0

> <PUBCHEM_ISOTOPIC_ATOM_COUNT>
0

> <PUBCHEM_COMPONENT_COUNT>
1

> <PUBCHEM_CACTVS_TAUTO_COUNT>
2

> <PUBCHEM_CONFORMER_ID>
0077BC3800000001

> <PUBCHEM_MMFF94_ENERGY>
75.6979

> <PUBCHEM_FEATURE_SELFOVERLAP>
35.757

> <PUBCHEM_SHAPE_FINGERPRINT>
10483366 6 18197510734149935053
10693767 8 17680732341065784407
1100329 8 18411140225292745819
12553582 1 18338497682816269568
12788726 201 18261099799230703352
13122387 1 17042039642239853166
13642711 20 18122642801149414711
14117953 113 18195813100616768430
14790565 3 18336258029466010033
14955137 171 18337941355829130417
15403338 16 16771275965830504051
16752209 62 18340768255600014760
17093844 170 18335703879715649718
17349148 13 18113612391727803373
17492 89 18194682562240996670
19319366 153 17560801065534396074
19591789 44 18339361847658843163
20600515 1 18335435546932975728
20775438 99 17105412804258758991
21781051 124 18272644607562369875
21857420 4 16018378455176322911
22113638 7 18412548721183686902
22393880 68 18050556353621730292
22440779 20 16768972209908351787
23559900 14 18261673675770647592
3004659 81 18272087219216667012
3027735 51 18120659286299107021
3178227 256 18339348701075102419
3298306 158 18271533103905537015
338550 245 18197493145905026812
340366 18 18272933804040764261
3680242 22 18341329010703698723
4280585 95 18411974738224446380
437795 70 18044639035533963214
463206 1 18341895199178460170
6138700 20 18267021833102916574
9709674 26 18120933906286142300

> <PUBCHEM_SHAPE_MULTIPOLES>
542.78
9.89
4.49
1.27
1.3
1.27
0.11
1.14
2.13
-0.57
0.1
0.91
-0.25
-0.88

> <PUBCHEM_SHAPE_SELFOVERLAP>
1207.803

> <PUBCHEM_SHAPE_VOLUME>
290.7

> <PUBCHEM_COORDINATE_TYPE>
2
5
10

$$$$

