11854
  -OEChem-06261206123D

 12 12  0     0  0  0  0  0  0999 V2000
    0.0003    3.0409   -0.0002 Br  0  0  0  0  0  0  0  0  0  0  0  0
    2.8874    1.3511   -0.0001 Br  0  0  0  0  0  0  0  0  0  0  0  0
   -2.8870    1.3518    0.0008 Br  0  0  0  0  0  0  0  0  0  0  0  0
   -2.7879   -2.0398   -0.0003 Br  0  0  0  0  0  0  0  0  0  0  0  0
    2.7876   -2.0401    0.0008 Br  0  0  0  0  0  0  0  0  0  0  0  0
    0.0000    1.1176   -0.0001 C   0  0  0  0  0  0  0  0  0  0  0  0
    1.2081    0.4201   -0.0003 C   0  0  0  0  0  0  0  0  0  0  0  0
   -1.2080    0.4201    0.0000 C   0  0  0  0  0  0  0  0  0  0  0  0
   -1.2081   -0.9747    0.0000 C   0  0  0  0  0  0  0  0  0  0  0  0
    1.2079   -0.9748   -0.0004 C   0  0  0  0  0  0  0  0  0  0  0  0
   -0.0002   -1.6722   -0.0003 C   0  0  0  0  0  0  0  0  0  0  0  0
   -0.0003   -2.7605   -0.0001 H   0  0  0  0  0  0  0  0  0  0  0  0
  1  6  1  0  0  0  0
  2  7  1  0  0  0  0
  3  8  1  0  0  0  0
  4  9  1  0  0  0  0
  5 10  1  0  0  0  0
  6  7  2  0  0  0  0
  6  8  1  0  0  0  0
  7 10  1  0  0  0  0
  8  9  2  0  0  0  0
  9 11  1  0  0  0  0
 10 11  2  0  0  0  0
 11 12  1  0  0  0  0
M  END
> <PUBCHEM_COMPOUND_CID>
11854

> <PUBCHEM_CONFORMER_RMSD>
0.4

> <PUBCHEM_CONFORMER_DIVERSEORDER>
1

> <PUBCHEM_MMFF94_PARTIAL_CHARGES>
12
1 -0.11
10 0.11
11 -0.15
12 0.15
2 -0.11
3 -0.11
4 -0.11
5 -0.11
6 0.11
7 0.11
8 0.11
9 0.11

> <PUBCHEM_EFFECTIVE_ROTOR_COUNT>
0

> <PUBCHEM_PHARMACOPHORE_FEATURES>
6
1 1 hydrophobe
1 2 hydrophobe
1 3 hydrophobe
1 4 hydrophobe
1 5 hydrophobe
6 6 7 8 9 10 11 rings

> <PUBCHEM_HEAVY_ATOM_COUNT>
11

> <PUBCHEM_ATOM_DEF_STEREO_COUNT>
0

> <PUBCHEM_ATOM_UDEF_STEREO_COUNT>
0

> <PUBCHEM_BOND_DEF_STEREO_COUNT>
0

> <PUBCHEM_BOND_UDEF_STEREO_COUNT>
0

> <PUBCHEM_ISOTOPIC_ATOM_COUNT>
0

> <PUBCHEM_COMPONENT_COUNT>
1

> <PUBCHEM_CACTVS_TAUTO_COUNT>
1

> <PUBCHEM_CONFORMER_ID>
00002E4E00000001

> <PUBCHEM_MMFF94_ENERGY>
30.4679

> <PUBCHEM_FEATURE_SELFOVERLAP>
30.446

> <PUBCHEM_SHAPE_FINGERPRINT>
10967382 1 18338516451280073061
11206711 2 18267864973943004197
12423570 1 14295931685838399948
13140716 1 18411136982349792466
13380535 21 18410847763546851812
16945 1 18409735027720338509
193761 8 18410856563934834823
21501502 16 18410856559640049415
2334 1 18410573959381874726
23526114 1 18410011022455845158
23552423 10 18343299266979542742
23559900 14 18191306186193211918
241688 4 18411138068976349402
2748010 2 18409449184766935342
53812653 166 18262238819914261240
54173680 148 18339359794031830067

> <PUBCHEM_SHAPE_MULTIPOLES>
256.09
4.48
3.38
0.68
0
1
0
-1.21
0
0
0
0
0.02
0

> <PUBCHEM_SHAPE_SELFOVERLAP>
460.765

> <PUBCHEM_SHAPE_VOLUME>
169.6

> <PUBCHEM_COORDINATE_TYPE>
2
5
10

$$$$

