9423
  -OEChem-06261203423D

 41 43  0     0  0  0  0  0  0999 V2000
   -1.5125    0.1021    0.6203 N   0  0  0  0  0  0  0  0  0  0  0  0
    2.5814   -0.0121   -0.2879 N   0  0  0  0  0  0  0  0  0  0  0  0
    0.5047   -1.1666    0.1572 C   0  0  0  0  0  0  0  0  0  0  0  0
   -0.2881   -2.4403    0.2626 C   0  0  0  0  0  0  0  0  0  0  0  0
    0.5884   -3.6829    0.4150 C   0  0  0  0  0  0  0  0  0  0  0  0
    1.7407   -3.6502   -0.5821 C   0  0  0  0  0  0  0  0  0  0  0  0
    2.6330   -2.4391   -0.3196 C   0  0  0  0  0  0  0  0  0  0  0  0
    1.8610   -1.1559   -0.1593 C   0  0  0  0  0  0  0  0  0  0  0  0
   -0.1267    0.0673    0.3140 C   0  0  0  0  0  0  0  0  0  0  0  0
    0.5940    1.2602    0.1791 C   0  0  0  0  0  0  0  0  0  0  0  0
    1.9649    1.1727   -0.1255 C   0  0  0  0  0  0  0  0  0  0  0  0
   -2.3818   -0.9989    0.3692 C   0  0  0  0  0  0  0  0  0  0  0  0
   -3.8409   -0.5511    0.3851 C   0  0  0  0  0  0  0  0  0  0  0  0
   -0.0193    2.5148    0.3387 C   0  0  0  0  0  0  0  0  0  0  0  0
    2.6841    2.3573   -0.2588 C   0  0  0  0  0  0  0  0  0  0  0  0
   -4.1541    0.4785   -0.7036 C   0  0  0  0  0  0  0  0  0  0  0  0
    0.7223    3.6843    0.1993 C   0  0  0  0  0  0  0  0  0  0  0  0
    2.0764    3.6049   -0.0994 C   0  0  0  0  0  0  0  0  0  0  0  0
   -5.6276    0.8550   -0.7043 C   0  0  0  0  0  0  0  0  0  0  0  0
   -0.8132   -2.4889    1.2126 H   0  0  0  0  0  0  0  0  0  0  0  0
   -0.8711   -2.6331   -0.6387 H   0  0  0  0  0  0  0  0  0  0  0  0
    0.9987   -3.7351    1.4327 H   0  0  0  0  0  0  0  0  0  0  0  0
   -0.0153   -4.5864    0.2702 H   0  0  0  0  0  0  0  0  0  0  0  0
    1.3425   -3.6083   -1.6039 H   0  0  0  0  0  0  0  0  0  0  0  0
    2.3337   -4.5683   -0.5049 H   0  0  0  0  0  0  0  0  0  0  0  0
    3.3527   -2.3357   -1.1399 H   0  0  0  0  0  0  0  0  0  0  0  0
    3.2070   -2.6026    0.6009 H   0  0  0  0  0  0  0  0  0  0  0  0
   -1.8880    0.9253    1.0725 H   0  0  0  0  0  0  0  0  0  0  0  0
   -2.2637   -1.4065   -0.6363 H   0  0  0  0  0  0  0  0  0  0  0  0
   -2.3924   -1.7316    1.1747 H   0  0  0  0  0  0  0  0  0  0  0  0
   -4.0883   -0.1239    1.3656 H   0  0  0  0  0  0  0  0  0  0  0  0
   -4.4848   -1.4294    0.2486 H   0  0  0  0  0  0  0  0  0  0  0  0
   -1.0756    2.6308    0.5605 H   0  0  0  0  0  0  0  0  0  0  0  0
    3.7464    2.3215   -0.4937 H   0  0  0  0  0  0  0  0  0  0  0  0
   -3.8893    0.0735   -1.6873 H   0  0  0  0  0  0  0  0  0  0  0  0
   -3.5600    1.3873   -0.5566 H   0  0  0  0  0  0  0  0  0  0  0  0
    0.2453    4.6521    0.3207 H   0  0  0  0  0  0  0  0  0  0  0  0
    2.6636    4.5118   -0.2106 H   0  0  0  0  0  0  0  0  0  0  0  0
   -5.9208    1.2928    0.2553 H   0  0  0  0  0  0  0  0  0  0  0  0
   -5.8306    1.5902   -1.4893 H   0  0  0  0  0  0  0  0  0  0  0  0
   -6.2568   -0.0215   -0.8894 H   0  0  0  0  0  0  0  0  0  0  0  0
  1  9  1  0  0  0  0
  1 12  1  0  0  0  0
  1 28  1  0  0  0  0
  2  8  2  0  0  0  0
  2 11  1  0  0  0  0
  3  4  1  0  0  0  0
  3  8  1  0  0  0  0
  3  9  2  0  0  0  0
  4  5  1  0  0  0  0
  4 20  1  0  0  0  0
  4 21  1  0  0  0  0
  5  6  1  0  0  0  0
  5 22  1  0  0  0  0
  5 23  1  0  0  0  0
  6  7  1  0  0  0  0
  6 24  1  0  0  0  0
  6 25  1  0  0  0  0
  7  8  1  0  0  0  0
  7 26  1  0  0  0  0
  7 27  1  0  0  0  0
  9 10  1  0  0  0  0
 10 11  1  0  0  0  0
 10 14  2  0  0  0  0
 11 15  2  0  0  0  0
 12 13  1  0  0  0  0
 12 29  1  0  0  0  0
 12 30  1  0  0  0  0
 13 16  1  0  0  0  0
 13 31  1  0  0  0  0
 13 32  1  0  0  0  0
 14 17  1  0  0  0  0
 14 33  1  0  0  0  0
 15 18  1  0  0  0  0
 15 34  1  0  0  0  0
 16 19  1  0  0  0  0
 16 35  1  0  0  0  0
 16 36  1  0  0  0  0
 17 18  2  0  0  0  0
 17 37  1  0  0  0  0
 18 38  1  0  0  0  0
 19 39  1  0  0  0  0
 19 40  1  0  0  0  0
 19 41  1  0  0  0  0
M  END
> <PUBCHEM_COMPOUND_CID>
9423

> <PUBCHEM_CONFORMER_RMSD>
0.6

> <PUBCHEM_CONFORMER_DIVERSEORDER>
1
4
8
12
11
2
3
6
7
10
5
9

> <PUBCHEM_MMFF94_PARTIAL_CHARGES>
18
1 -0.87
11 0.31
12 0.37
14 -0.15
15 -0.15
17 -0.15
18 -0.15
2 -0.62
28 0.4
3 -0.14
33 0.15
34 0.15
37 0.15
38 0.15
4 0.14
7 0.14
8 0.17
9 0.1

> <PUBCHEM_EFFECTIVE_ROTOR_COUNT>
4.8

> <PUBCHEM_PHARMACOPHORE_FEATURES>
7
1 1 cation
1 1 donor
1 19 hydrophobe
1 2 acceptor
6 10 11 14 15 17 18 rings
6 2 3 8 9 10 11 rings
6 3 4 5 6 7 8 rings

> <PUBCHEM_HEAVY_ATOM_COUNT>
19

> <PUBCHEM_ATOM_DEF_STEREO_COUNT>
0

> <PUBCHEM_ATOM_UDEF_STEREO_COUNT>
0

> <PUBCHEM_BOND_DEF_STEREO_COUNT>
0

> <PUBCHEM_BOND_UDEF_STEREO_COUNT>
0

> <PUBCHEM_ISOTOPIC_ATOM_COUNT>
0

> <PUBCHEM_COMPONENT_COUNT>
1

> <PUBCHEM_CACTVS_TAUTO_COUNT>
4

> <PUBCHEM_CONFORMER_ID>
000024CF00000001

> <PUBCHEM_MMFF94_ENERGY>
74.5336

> <PUBCHEM_FEATURE_SELFOVERLAP>
35.576

> <PUBCHEM_SHAPE_FINGERPRINT>
10411042 1 18050285070317790195
10693767 8 18113896095798219054
10967382 1 18410285913389966450
1100329 8 18339081476362282930
11265709 11 18123190378998326626
116883 192 17832144201107595103
12173636 292 17690282603804615141
12553582 1 18122325041951603779
12730499 353 18341327791750423595
12769317 202 18338808831717156349
12788726 201 17694217072884105483
13004483 165 17834129910528558027
13134695 92 18267308805848594199
13140716 1 18122058711556528008
138480 1 18338516468570692547
14178000 15 18265055914986413393
14508225 48 18049161373617816382
14790565 3 18122030240245690048
16087824 20 17329707030153521513
16945 1 18265596728804913912
17134986 127 18267303118963636916
17539 30 17328309550335710343
19591789 44 17978219465975327602
20645477 70 18413111671538099683
21478907 32 17618223244725136139
21524375 3 17910961240202990185
221357 26 18125170578972605845
221490 88 18412537704988737755
22289505 5 18126013891210464637
2334 1 18267008643627102528
23419403 2 17629515070318120846
23559900 14 18410016550284418619
238 59 17981084926843077687
25 1 18340208475337615589
266924 87 18267297823712241668
2748010 2 17977927009210203202
3060560 45 18409450254240029589
3091708 16 9432450215921806659
350125 39 17618492195139180056
352729 6 17903627489251033440
495365 180 18336277734385489401
54173680 148 17402046094360515498
5939293 188 18411706507961616083
6443956 14 18339922743984822807
7164475 11 17618502528841719271
7364860 26 18410856568509331507
7471813 234 18116166630490824429
81228 2 17835238222221830059
8272917 22 18408601461929466181
84936 182 18187928326941560113

> <PUBCHEM_SHAPE_MULTIPOLES>
381.05
6.36
5.21
0.76
12.9
0.11
-0.03
-1.54
-1.76
-5.18
-0.03
0.25
0.07
0.52

> <PUBCHEM_SHAPE_SELFOVERLAP>
816.338

> <PUBCHEM_SHAPE_VOLUME>
209.4

> <PUBCHEM_COORDINATE_TYPE>
2
5
10

$$$$

