11353
  -OEChem-06261205343D

 25 27  0     0  0  0  0  0  0999 V2000
   -0.0451    1.1841   -0.0001 N   0  0  0  0  0  0  0  0  0  0  0  0
    2.4591    2.3907    0.0004 N   0  0  0  0  0  0  0  0  0  0  0  0
    0.9648   -0.9997   -0.0001 C   0  0  0  0  0  0  0  0  0  0  0  0
    1.0521    0.4027   -0.0001 C   0  0  0  0  0  0  0  0  0  0  0  0
   -1.4533   -0.7667    0.0000 C   0  0  0  0  0  0  0  0  0  0  0  0
   -1.2713    0.6265   -0.0001 C   0  0  0  0  0  0  0  0  0  0  0  0
   -0.3107   -1.5732    0.0000 C   0  0  0  0  0  0  0  0  0  0  0  0
    2.3193    0.9797   -0.0001 C   0  0  0  0  0  0  0  0  0  0  0  0
    2.1301   -1.7860    0.0001 C   0  0  0  0  0  0  0  0  0  0  0  0
   -2.7473   -1.3162    0.0001 C   0  0  0  0  0  0  0  0  0  0  0  0
   -2.4051    1.4348   -0.0001 C   0  0  0  0  0  0  0  0  0  0  0  0
    3.4794    0.2014   -0.0001 C   0  0  0  0  0  0  0  0  0  0  0  0
    3.3851   -1.1844    0.0000 C   0  0  0  0  0  0  0  0  0  0  0  0
   -3.8644   -0.4861    0.0001 C   0  0  0  0  0  0  0  0  0  0  0  0
   -3.6925    0.8922    0.0000 C   0  0  0  0  0  0  0  0  0  0  0  0
   -0.4152   -2.6575    0.0001 H   0  0  0  0  0  0  0  0  0  0  0  0
    2.0657   -2.8718    0.0001 H   0  0  0  0  0  0  0  0  0  0  0  0
   -2.8913   -2.3944    0.0002 H   0  0  0  0  0  0  0  0  0  0  0  0
   -2.2966    2.5179   -0.0002 H   0  0  0  0  0  0  0  0  0  0  0  0
    4.4615    0.6676    0.0001 H   0  0  0  0  0  0  0  0  0  0  0  0
    4.2832   -1.7942    0.0001 H   0  0  0  0  0  0  0  0  0  0  0  0
   -4.8625   -0.9131    0.0001 H   0  0  0  0  0  0  0  0  0  0  0  0
   -4.5575    1.5490    0.0000 H   0  0  0  0  0  0  0  0  0  0  0  0
    1.6340    2.9756   -0.0006 H   0  0  0  0  0  0  0  0  0  0  0  0
    3.3795    2.8095   -0.0006 H   0  0  0  0  0  0  0  0  0  0  0  0
  1  4  2  0  0  0  0
  1  6  1  0  0  0  0
  2  8  1  0  0  0  0
  2 24  1  0  0  0  0
  2 25  1  0  0  0  0
  3  4  1  0  0  0  0
  3  7  2  0  0  0  0
  3  9  1  0  0  0  0
  4  8  1  0  0  0  0
  5  6  1  0  0  0  0
  5  7  1  0  0  0  0
  5 10  2  0  0  0  0
  6 11  2  0  0  0  0
  7 16  1  0  0  0  0
  8 12  2  0  0  0  0
  9 13  2  0  0  0  0
  9 17  1  0  0  0  0
 10 14  1  0  0  0  0
 10 18  1  0  0  0  0
 11 15  1  0  0  0  0
 11 19  1  0  0  0  0
 12 13  1  0  0  0  0
 12 20  1  0  0  0  0
 13 21  1  0  0  0  0
 14 15  2  0  0  0  0
 14 22  1  0  0  0  0
 15 23  1  0  0  0  0
M  END
> <PUBCHEM_COMPOUND_CID>
11353

> <PUBCHEM_CONFORMER_RMSD>
0.4

> <PUBCHEM_CONFORMER_DIVERSEORDER>
1

> <PUBCHEM_MMFF94_PARTIAL_CHARGES>
23
1 -0.62
10 -0.15
11 -0.15
12 -0.15
13 -0.15
14 -0.15
15 -0.15
16 0.15
17 0.15
18 0.15
19 0.15
2 -0.9
20 0.15
21 0.15
22 0.15
23 0.15
24 0.4
25 0.4
4 0.31
6 0.31
7 -0.15
8 0.1
9 -0.15

> <PUBCHEM_EFFECTIVE_ROTOR_COUNT>
0

> <PUBCHEM_PHARMACOPHORE_FEATURES>
6
1 1 acceptor
1 2 cation
1 2 donor
6 1 3 4 5 6 7 rings
6 3 4 8 9 12 13 rings
6 5 6 10 11 14 15 rings

> <PUBCHEM_HEAVY_ATOM_COUNT>
15

> <PUBCHEM_ATOM_DEF_STEREO_COUNT>
0

> <PUBCHEM_ATOM_UDEF_STEREO_COUNT>
0

> <PUBCHEM_BOND_DEF_STEREO_COUNT>
0

> <PUBCHEM_BOND_UDEF_STEREO_COUNT>
0

> <PUBCHEM_ISOTOPIC_ATOM_COUNT>
0

> <PUBCHEM_COMPONENT_COUNT>
1

> <PUBCHEM_CACTVS_TAUTO_COUNT>
1

> <PUBCHEM_CONFORMER_ID>
00002C5900000001

> <PUBCHEM_MMFF94_ENERGY>
58.0274

> <PUBCHEM_FEATURE_SELFOVERLAP>
30.507

> <PUBCHEM_SHAPE_FINGERPRINT>
10411042 1 15528269524678225625
10608611 8 18412267241843638461
10967382 1 18410855417194313094
10980938 120 18410292514744163826
11132069 177 18409455794753135499
11471102 20 18410859879712910526
12032990 46 18410568513442523151
12251169 10 18410576214239549282
13140716 1 18410855473076367649
13221675 6 18411138060407656367
13380535 76 18411138030353597234
13897977 150 18410858741652130477
14144814 61 18410293639761714939
14325111 11 18410575080494868065
14790565 3 15378787611467324518
15196674 1 18410856576830273223
15219456 202 18411419505329892131
15442244 35 18265614479678005338
15536298 74 18334295366338481514
15775835 57 18411414016330052340
16945 1 18266459986792209186
17802600 8 18412832403567865813
17804303 29 18339355365830526414
18186145 218 18335416906589878621
19591789 44 15749489395132333963
200 152 18113629988625280255
20201158 50 18410292544571707459
20645477 70 18409171038806877055
21267235 1 18410283722767066127
21501502 16 18410012117661741695
221490 88 18340478989568511770
2255824 54 18131911555464834730
22854114 111 18411418397339222976
2334 1 18410855417189044837
23402539 116 18261122892921161647
23402655 69 18336270132134905621
23463225 33 18411982481026743454
23559900 14 18335425707484354778
2748010 2 18411699872194517015
335352 9 18122344841708127295
5104073 3 18411136943731744291
528886 8 18410298029234278170
53812653 166 18334862705653638024
69090 78 18334863826856522911
7364860 26 18335139769946933216
8809292 202 18272364269907960723
9709674 26 18410006624356956815

> <PUBCHEM_SHAPE_MULTIPOLES>
298.73
6.52
2.01
0.61
1.51
0.34
0
0.19
0
-0.72
0
0.01
-0.02
0

> <PUBCHEM_SHAPE_SELFOVERLAP>
678.348

> <PUBCHEM_SHAPE_VOLUME>
155.4

> <PUBCHEM_COORDINATE_TYPE>
2
5
10

$$$$

