11060
  -OEChem-06261205172D

 50 50  0     0  0  0  0  0  0999 V2000
   10.0021    4.3285    0.0000 Cl  0  0  0  0  0  0  0  0  0  0  0  0
    4.0010    5.1200    0.0000 S   0  0  0  0  0  0  0  0  0  0  0  0
    3.1350    3.6200    0.0000 O   0  0  0  0  0  0  0  0  0  0  0  0
    2.2690    7.1200    0.0000 N   0  0  0  0  0  0  0  0  0  0  0  0
    3.1350    6.6200    0.0000 C   0  0  0  0  0  0  0  0  0  0  0  0
    4.8671    3.6200    0.0000 C   0  0  0  0  0  0  0  0  0  0  0  0
    2.2690    8.1200    0.0000 C   0  0  0  0  0  0  0  0  0  0  0  0
    1.4030    6.6200    0.0000 C   0  0  0  0  0  0  0  0  0  0  0  0
    3.1350    5.6200    0.0000 C   0  0  0  0  0  0  0  0  0  0  0  0
    4.8671    2.6200    0.0000 C   0  0  0  0  0  0  0  0  0  0  0  0
    5.7331    4.1200    0.0000 C   0  0  0  0  0  0  0  0  0  0  0  0
    4.0010    4.1200    0.0000 C   0  0  0  0  0  0  0  0  0  0  0  0
    1.4030    8.6200    0.0000 C   0  0  0  0  0  0  0  0  0  0  0  0
    0.5369    7.1200    0.0000 C   0  0  0  0  0  0  0  0  0  0  0  0
    6.5991    3.6200    0.0000 C   0  0  0  0  0  0  0  0  0  0  0  0
    4.0010    2.1200    0.0000 C   0  0  0  0  0  0  0  0  0  0  0  0
    5.7331    5.1200    0.0000 C   0  0  0  0  0  0  0  0  0  0  0  0
    5.7331    2.1200    0.0000 C   0  0  0  0  0  0  0  0  0  0  0  0
    7.4651    4.1200    0.0000 C   0  0  0  0  0  0  0  0  0  0  0  0
    4.0010    1.1200    0.0000 C   0  0  0  0  0  0  0  0  0  0  0  0
    6.5991    5.6200    0.0000 C   0  0  0  0  0  0  0  0  0  0  0  0
    5.7331    1.1200    0.0000 C   0  0  0  0  0  0  0  0  0  0  0  0
    7.4651    5.1200    0.0000 C   0  0  0  0  0  0  0  0  0  0  0  0
    4.8671    0.6200    0.0000 C   0  0  0  0  0  0  0  0  0  0  0  0
    3.7456    6.5123    0.0000 H   0  0  0  0  0  0  0  0  0  0  0  0
    3.3471    7.2026    0.0000 H   0  0  0  0  0  0  0  0  0  0  0  0
    4.3301    3.3100    0.0000 H   0  0  0  0  0  0  0  0  0  0  0  0
    2.8796    8.0123    0.0000 H   0  0  0  0  0  0  0  0  0  0  0  0
    2.4810    8.7026    0.0000 H   0  0  0  0  0  0  0  0  0  0  0  0
    1.0044    6.1450    0.0000 H   0  0  0  0  0  0  0  0  0  0  0  0
    1.8015    6.1450    0.0000 H   0  0  0  0  0  0  0  0  0  0  0  0
    2.5244    5.7277    0.0000 H   0  0  0  0  0  0  0  0  0  0  0  0
    2.9230    5.0374    0.0000 H   0  0  0  0  0  0  0  0  0  0  0  0
    0.8469    7.6569    0.0000 H   0  0  0  0  0  0  0  0  0  0  0  0
    0.0000    7.4300    0.0000 H   0  0  0  0  0  0  0  0  0  0  0  0
    0.2269    6.5831    0.0000 H   0  0  0  0  0  0  0  0  0  0  0  0
    1.7130    9.1569    0.0000 H   0  0  0  0  0  0  0  0  0  0  0  0
    0.8660    8.9300    0.0000 H   0  0  0  0  0  0  0  0  0  0  0  0
    1.0930    8.0831    0.0000 H   0  0  0  0  0  0  0  0  0  0  0  0
    6.5991    3.0000    0.0000 H   0  0  0  0  0  0  0  0  0  0  0  0
    3.4641    2.4300    0.0000 H   0  0  0  0  0  0  0  0  0  0  0  0
    5.1962    5.4300    0.0000 H   0  0  0  0  0  0  0  0  0  0  0  0
    6.2700    2.4300    0.0000 H   0  0  0  0  0  0  0  0  0  0  0  0
    8.0021    3.8100    0.0000 H   0  0  0  0  0  0  0  0  0  0  0  0
    3.4641    0.8100    0.0000 H   0  0  0  0  0  0  0  0  0  0  0  0
    6.5991    6.2400    0.0000 H   0  0  0  0  0  0  0  0  0  0  0  0
    6.2700    0.8100    0.0000 H   0  0  0  0  0  0  0  0  0  0  0  0
    8.0021    5.4300    0.0000 H   0  0  0  0  0  0  0  0  0  0  0  0
    4.8671    0.0000    0.0000 H   0  0  0  0  0  0  0  0  0  0  0  0
   11.0021    4.3285    0.0000 H   0  0  0  0  0  0  0  0  0  0  0  0
  1 50  1  0  0  0  0
  2  9  1  0  0  0  0
  2 12  1  0  0  0  0
  3 12  2  0  0  0  0
  4  5  1  0  0  0  0
  4  7  1  0  0  0  0
  4  8  1  0  0  0  0
  5  9  1  0  0  0  0
  5 25  1  0  0  0  0
  5 26  1  0  0  0  0
  6 10  1  0  0  0  0
  6 11  1  0  0  0  0
  6 12  1  0  0  0  0
  6 27  1  0  0  0  0
  7 13  1  0  0  0  0
  7 28  1  0  0  0  0
  7 29  1  0  0  0  0
  8 14  1  0  0  0  0
  8 30  1  0  0  0  0
  8 31  1  0  0  0  0
  9 32  1  0  0  0  0
  9 33  1  0  0  0  0
 10 16  2  0  0  0  0
 10 18  1  0  0  0  0
 11 15  2  0  0  0  0
 11 17  1  0  0  0  0
 13 37  1  0  0  0  0
 13 38  1  0  0  0  0
 13 39  1  0  0  0  0
 14 34  1  0  0  0  0
 14 35  1  0  0  0  0
 14 36  1  0  0  0  0
 15 19  1  0  0  0  0
 15 40  1  0  0  0  0
 16 20  1  0  0  0  0
 16 41  1  0  0  0  0
 17 21  2  0  0  0  0
 17 42  1  0  0  0  0
 18 22  2  0  0  0  0
 18 43  1  0  0  0  0
 19 23  2  0  0  0  0
 19 44  1  0  0  0  0
 20 24  2  0  0  0  0
 20 45  1  0  0  0  0
 21 23  1  0  0  0  0
 21 46  1  0  0  0  0
 22 24  1  0  0  0  0
 22 47  1  0  0  0  0
 23 48  1  0  0  0  0
 24 49  1  0  0  0  0
M  END
> <PUBCHEM_COMPOUND_CID>
11060

> <PUBCHEM_COMPOUND_CANONICALIZED>
1

> <PUBCHEM_CACTVS_COMPLEXITY>
313

> <PUBCHEM_CACTVS_HBOND_ACCEPTOR>
3

> <PUBCHEM_CACTVS_HBOND_DONOR>
1

> <PUBCHEM_CACTVS_ROTATABLE_BOND>
9

> <PUBCHEM_CACTVS_SUBSKEYS>
AAADceB6IABEAAAAAAAAAAAAAAAAAAAAAAAwYAAAAAAAAAABQAAAHgQAAAAADQDF2ASyAIMAAAiIAiBSAAACAAAgABAIiAEIAIgIIDKgFRCAIAAggACoiAcIiMCOgAAAAAAAAAAAAAAAAAAAAAAAAAAAAA==

> <PUBCHEM_IUPAC_OPENEYE_NAME>
S-[2-(diethylamino)ethyl] 2,2-diphenylethanethioate hydrochloride

> <PUBCHEM_IUPAC_CAS_NAME>
2,2-diphenylethanethioic acid S-[2-(diethylamino)ethyl] ester hydrochloride

> <PUBCHEM_IUPAC_NAME>
S-[2-(diethylamino)ethyl] 2,2-diphenylethanethioate hydrochloride

> <PUBCHEM_IUPAC_SYSTEMATIC_NAME>
S-[2-(diethylamino)ethyl] 2,2-diphenylethanethioate hydrochloride

> <PUBCHEM_IUPAC_TRADITIONAL_NAME>
2,2-diphenylethanethioic acid S-[2-(diethylamino)ethyl] ester hydrochloride

> <PUBCHEM_IUPAC_INCHI>
InChI=1S/C20H25NOS.ClH/c1-3-21(4-2)15-16-23-20(22)19(17-11-7-5-8-12-17)18-13-9-6-10-14-18;/h5-14,19H,3-4,15-16H2,1-2H3;1H

> <PUBCHEM_IUPAC_INCHIKEY>
MZWKCFGWAWRHDY-UHFFFAOYSA-N

> <PUBCHEM_EXACT_MASS>
363.142363

> <PUBCHEM_MOLECULAR_FORMULA>
C20H26ClNOS

> <PUBCHEM_MOLECULAR_WEIGHT>
363.94454

> <PUBCHEM_OPENEYE_CAN_SMILES>
CCN(CC)CCSC(=O)C(C1=CC=CC=C1)C2=CC=CC=C2.Cl

> <PUBCHEM_OPENEYE_ISO_SMILES>
CCN(CC)CCSC(=O)C(C1=CC=CC=C1)C2=CC=CC=C2.Cl

> <PUBCHEM_CACTVS_TPSA>
45.6

> <PUBCHEM_MONOISOTOPIC_WEIGHT>
363.142363

> <PUBCHEM_TOTAL_CHARGE>
0

> <PUBCHEM_HEAVY_ATOM_COUNT>
24

> <PUBCHEM_ATOM_DEF_STEREO_COUNT>
0

> <PUBCHEM_ATOM_UDEF_STEREO_COUNT>
0

> <PUBCHEM_BOND_DEF_STEREO_COUNT>
0

> <PUBCHEM_BOND_UDEF_STEREO_COUNT>
0

> <PUBCHEM_ISOTOPIC_ATOM_COUNT>
0

> <PUBCHEM_COMPONENT_COUNT>
2

> <PUBCHEM_CACTVS_TAUTO_COUNT>
1

> <PUBCHEM_COORDINATE_TYPE>
1
5
255

> <PUBCHEM_BONDANNOTATIONS>
10  16  8
10  18  8
11  15  8
11  17  8
15  19  8
16  20  8
17  21  8
18  22  8
19  23  8
20  24  8
21  23  8
22  24  8

$$$$

