17395767
  -OEChem-06241222522D

 40 43  0     0  0  0  0  0  0999 V2000
    2.0000    2.2892    0.0000 Cl  0  0  0  0  0  0  0  0  0  0  0  0
    5.5301    3.2651    0.0000 O   0  0  0  0  0  0  0  0  0  0  0  0
   11.5671   -1.3150    0.0000 O   0  0  0  0  0  0  0  0  0  0  0  0
   10.2314   -2.8036    0.0000 O   0  0  0  0  0  0  0  0  0  0  0  0
    6.3961    1.7651    0.0000 N   0  0  0  0  0  0  0  0  0  0  0  0
    5.5301    0.2651    0.0000 N   0  0  0  0  0  0  0  0  0  0  0  0
    7.3424    2.0698    0.0000 C   0  0  0  0  0  0  0  0  0  0  0  0
    7.9260    1.2651    0.0000 C   0  0  0  0  0  0  0  0  0  0  0  0
    7.3424    0.4604    0.0000 C   0  0  0  0  0  0  0  0  0  0  0  0
    6.3961    0.7651    0.0000 C   0  0  0  0  0  0  0  0  0  0  0  0
    5.5301    2.2651    0.0000 C   0  0  0  0  0  0  0  0  0  0  0  0
    4.6641    1.7651    0.0000 C   0  0  0  0  0  0  0  0  0  0  0  0
    7.6530   -0.4902    0.0000 C   0  0  0  0  0  0  0  0  0  0  0  0
    4.6641    0.7651    0.0000 C   0  0  0  0  0  0  0  0  0  0  0  0
    8.6315   -0.6964    0.0000 C   0  0  0  0  0  0  0  0  0  0  0  0
    3.7702    2.2998    0.0000 C   0  0  0  0  0  0  0  0  0  0  0  0
    3.7702    0.2304    0.0000 C   0  0  0  0  0  0  0  0  0  0  0  0
    2.8641    1.7859    0.0000 C   0  0  0  0  0  0  0  0  0  0  0  0
    8.9422   -1.6469    0.0000 C   0  0  0  0  0  0  0  0  0  0  0  0
    2.8641    0.7443    0.0000 C   0  0  0  0  0  0  0  0  0  0  0  0
    9.2994    0.0479    0.0000 C   0  0  0  0  0  0  0  0  0  0  0  0
    9.9207   -1.8531    0.0000 C   0  0  0  0  0  0  0  0  0  0  0  0
   10.2779   -0.1583    0.0000 C   0  0  0  0  0  0  0  0  0  0  0  0
   10.5886   -1.1088    0.0000 C   0  0  0  0  0  0  0  0  0  0  0  0
   12.2349   -0.5707    0.0000 C   0  0  0  0  0  0  0  0  0  0  0  0
    7.8798    2.3791    0.0000 H   0  0  0  0  0  0  0  0  0  0  0  0
    7.0913    2.6367    0.0000 H   0  0  0  0  0  0  0  0  0  0  0  0
    8.3869    0.8504    0.0000 H   0  0  0  0  0  0  0  0  0  0  0  0
    8.3869    1.6798    0.0000 H   0  0  0  0  0  0  0  0  0  0  0  0
    7.2390   -0.9516    0.0000 H   0  0  0  0  0  0  0  0  0  0  0  0
    3.7773    2.9197    0.0000 H   0  0  0  0  0  0  0  0  0  0  0  0
    3.7773   -0.3895    0.0000 H   0  0  0  0  0  0  0  0  0  0  0  0
    8.5281   -2.1084    0.0000 H   0  0  0  0  0  0  0  0  0  0  0  0
    9.1068    0.6373    0.0000 H   0  0  0  0  0  0  0  0  0  0  0  0
    2.3284    0.4322    0.0000 H   0  0  0  0  0  0  0  0  0  0  0  0
   10.6920    0.3032    0.0000 H   0  0  0  0  0  0  0  0  0  0  0  0
    9.8173   -3.2651    0.0000 H   0  0  0  0  0  0  0  0  0  0  0  0
   12.6964   -0.9848    0.0000 H   0  0  0  0  0  0  0  0  0  0  0  0
   12.6490   -0.1093    0.0000 H   0  0  0  0  0  0  0  0  0  0  0  0
   11.7734   -0.1567    0.0000 H   0  0  0  0  0  0  0  0  0  0  0  0
  1 18  1  0  0  0  0
  2 11  2  0  0  0  0
  3 24  1  0  0  0  0
  3 25  1  0  0  0  0
  4 22  1  0  0  0  0
  4 37  1  0  0  0  0
  5  7  1  0  0  0  0
  5 10  1  0  0  0  0
  5 11  1  0  0  0  0
  6 10  2  0  0  0  0
  6 14  1  0  0  0  0
  7  8  1  0  0  0  0
  7 26  1  0  0  0  0
  7 27  1  0  0  0  0
  8  9  1  0  0  0  0
  8 28  1  0  0  0  0
  8 29  1  0  0  0  0
  9 10  1  0  0  0  0
  9 13  2  0  0  0  0
 11 12  1  0  0  0  0
 12 14  2  0  0  0  0
 12 16  1  0  0  0  0
 13 15  1  0  0  0  0
 13 30  1  0  0  0  0
 14 17  1  0  0  0  0
 15 19  2  0  0  0  0
 15 21  1  0  0  0  0
 16 18  2  0  0  0  0
 16 31  1  0  0  0  0
 17 20  2  0  0  0  0
 17 32  1  0  0  0  0
 18 20  1  0  0  0  0
 19 22  1  0  0  0  0
 19 33  1  0  0  0  0
 20 35  1  0  0  0  0
 21 23  2  0  0  0  0
 21 34  1  0  0  0  0
 22 24  2  0  0  0  0
 23 24  1  0  0  0  0
 23 36  1  0  0  0  0
 25 38  1  0  0  0  0
 25 39  1  0  0  0  0
 25 40  1  0  0  0  0
M  END
> <PUBCHEM_COMPOUND_CID>
17395767

> <PUBCHEM_COMPOUND_CANONICALIZED>
1

> <PUBCHEM_CACTVS_COMPLEXITY>
606

> <PUBCHEM_CACTVS_HBOND_ACCEPTOR>
4

> <PUBCHEM_CACTVS_HBOND_DONOR>
1

> <PUBCHEM_CACTVS_ROTATABLE_BOND>
2

> <PUBCHEM_CACTVS_SUBSKEYS>
AAADccB7MAAEAAAAAAAAAAAAAAAAAWAAAAAwYIAAAAAAAECBQAAAHgIACAAADA7BmCYzxoMABgCoAidydACCCAEkJwAJiAEu7tgNJjqH/5uEcatkxhGL+ceYyBCOIABBIAACQABAAIJAAASAAAAAAAAAAA==

> <PUBCHEM_IUPAC_OPENEYE_NAME>
(3E)-7-chloro-3-[(3-hydroxy-4-methoxy-phenyl)methylene]-1,2-dihydropyrrolo[2,1-b]quinazolin-9-one

> <PUBCHEM_IUPAC_CAS_NAME>
(3E)-7-chloro-3-[(3-hydroxy-4-methoxyphenyl)methylidene]-1,2-dihydropyrrolo[2,1-b]quinazolin-9-one

> <PUBCHEM_IUPAC_NAME>
(3E)-7-chloro-3-[(3-hydroxy-4-methoxyphenyl)methylidene]-1,2-dihydropyrrolo[2,1-b]quinazolin-9-one

> <PUBCHEM_IUPAC_SYSTEMATIC_NAME>
(3E)-7-chloranyl-3-[(4-methoxy-3-oxidanyl-phenyl)methylidene]-1,2-dihydropyrrolo[2,1-b]quinazolin-9-one

> <PUBCHEM_IUPAC_TRADITIONAL_NAME>
(3E)-7-chloro-3-(3-hydroxy-4-methoxy-benzylidene)-1,2-dihydropyrrolo[2,1-b]quinazolin-9-one

> <PUBCHEM_IUPAC_INCHI>
InChI=1S/C19H15ClN2O3/c1-25-17-5-2-11(9-16(17)23)8-12-6-7-22-18(12)21-15-4-3-13(20)10-14(15)19(22)24/h2-5,8-10,23H,6-7H2,1H3/b12-8+

> <PUBCHEM_IUPAC_INCHIKEY>
YRTOCLYIGQIQLN-XYOKQWHBSA-N

> <PUBCHEM_XLOGP3_AA>
3.2

> <PUBCHEM_EXACT_MASS>
354.07712

> <PUBCHEM_MOLECULAR_FORMULA>
C19H15ClN2O3

> <PUBCHEM_MOLECULAR_WEIGHT>
354.787

> <PUBCHEM_OPENEYE_CAN_SMILES>
COC1=C(C=C(C=C1)C=C2CCN3C2=NC4=C(C3=O)C=C(C=C4)Cl)O

> <PUBCHEM_OPENEYE_ISO_SMILES>
COC1=C(C=C(C=C1)/C=C/2\CCN3C2=NC4=C(C3=O)C=C(C=C4)Cl)O

> <PUBCHEM_CACTVS_TPSA>
62.1

> <PUBCHEM_MONOISOTOPIC_WEIGHT>
354.07712

> <PUBCHEM_TOTAL_CHARGE>
0

> <PUBCHEM_HEAVY_ATOM_COUNT>
25

> <PUBCHEM_ATOM_DEF_STEREO_COUNT>
0

> <PUBCHEM_ATOM_UDEF_STEREO_COUNT>
0

> <PUBCHEM_BOND_DEF_STEREO_COUNT>
1

> <PUBCHEM_BOND_UDEF_STEREO_COUNT>
0

> <PUBCHEM_ISOTOPIC_ATOM_COUNT>
0

> <PUBCHEM_COMPONENT_COUNT>
1

> <PUBCHEM_CACTVS_TAUTO_COUNT>
13

> <PUBCHEM_COORDINATE_TYPE>
1
5
255

> <PUBCHEM_BONDANNOTATIONS>
11  12  8
12  14  8
12  16  8
14  17  8
15  19  8
15  21  8
16  18  8
17  20  8
18  20  8
19  22  8
21  23  8
22  24  8
23  24  8
5  10  8
5  11  8
6  10  8
6  14  8

$$$$

