11357
  -OEChem-06261205343D

 20 20  0     0  0  0  0  0  0999 V2000
    0.6876   -2.1344    0.1142 N   0  0  0  0  0  0  0  0  0  0  0  0
    0.4721    0.2920    0.2657 C   0  0  0  0  0  0  0  0  0  0  0  0
    1.9341    0.4402    0.5362 C   0  0  0  0  0  0  0  0  0  0  0  0
   -0.1010   -0.9640    0.0660 C   0  0  0  0  0  0  0  0  0  0  0  0
   -0.3226    1.4373    0.2144 C   0  0  0  0  0  0  0  0  0  0  0  0
    2.7522    0.6063   -0.7388 C   0  0  0  0  0  0  0  0  0  0  0  0
   -1.4688   -1.0745   -0.1849 C   0  0  0  0  0  0  0  0  0  0  0  0
   -1.6903    1.3265   -0.0365 C   0  0  0  0  0  0  0  0  0  0  0  0
   -2.2634    0.0707   -0.2362 C   0  0  0  0  0  0  0  0  0  0  0  0
    2.0947    1.3247    1.1674 H   0  0  0  0  0  0  0  0  0  0  0  0
    2.3237   -0.3898    1.1357 H   0  0  0  0  0  0  0  0  0  0  0  0
    0.1098    2.4229    0.3656 H   0  0  0  0  0  0  0  0  0  0  0  0
    2.6570   -0.2692   -1.3896 H   0  0  0  0  0  0  0  0  0  0  0  0
    3.8115    0.7334   -0.4941 H   0  0  0  0  0  0  0  0  0  0  0  0
    2.4278    1.4845   -1.3074 H   0  0  0  0  0  0  0  0  0  0  0  0
   -1.9285   -2.0470   -0.3424 H   0  0  0  0  0  0  0  0  0  0  0  0
   -2.3090    2.2182   -0.0771 H   0  0  0  0  0  0  0  0  0  0  0  0
   -3.3282   -0.0153   -0.4318 H   0  0  0  0  0  0  0  0  0  0  0  0
    1.6934   -2.0918    0.1895 H   0  0  0  0  0  0  0  0  0  0  0  0
    0.2484   -3.0325   -0.0428 H   0  0  0  0  0  0  0  0  0  0  0  0
  1  4  1  0  0  0  0
  1 19  1  0  0  0  0
  1 20  1  0  0  0  0
  2  3  1  0  0  0  0
  2  4  1  0  0  0  0
  2  5  2  0  0  0  0
  3  6  1  0  0  0  0
  3 10  1  0  0  0  0
  3 11  1  0  0  0  0
  4  7  2  0  0  0  0
  5  8  1  0  0  0  0
  5 12  1  0  0  0  0
  6 13  1  0  0  0  0
  6 14  1  0  0  0  0
  6 15  1  0  0  0  0
  7  9  1  0  0  0  0
  7 16  1  0  0  0  0
  8  9  2  0  0  0  0
  8 17  1  0  0  0  0
  9 18  1  0  0  0  0
M  END
> <PUBCHEM_COMPOUND_CID>
11357

> <PUBCHEM_CONFORMER_RMSD>
0.4

> <PUBCHEM_CONFORMER_DIVERSEORDER>
1
2
3

> <PUBCHEM_MMFF94_PARTIAL_CHARGES>
14
1 -0.9
12 0.15
16 0.15
17 0.15
18 0.15
19 0.4
2 -0.14
20 0.4
3 0.14
4 0.1
5 -0.15
7 -0.15
8 -0.15
9 -0.15

> <PUBCHEM_EFFECTIVE_ROTOR_COUNT>
1

> <PUBCHEM_PHARMACOPHORE_FEATURES>
4
1 1 cation
1 1 donor
1 6 hydrophobe
6 2 4 5 7 8 9 rings

> <PUBCHEM_HEAVY_ATOM_COUNT>
9

> <PUBCHEM_ATOM_DEF_STEREO_COUNT>
0

> <PUBCHEM_ATOM_UDEF_STEREO_COUNT>
0

> <PUBCHEM_BOND_DEF_STEREO_COUNT>
0

> <PUBCHEM_BOND_UDEF_STEREO_COUNT>
0

> <PUBCHEM_ISOTOPIC_ATOM_COUNT>
0

> <PUBCHEM_COMPONENT_COUNT>
1

> <PUBCHEM_CACTVS_TAUTO_COUNT>
1

> <PUBCHEM_CONFORMER_ID>
00002C5D00000001

> <PUBCHEM_MMFF94_ENERGY>
30.5815

> <PUBCHEM_FEATURE_SELFOVERLAP>
20.297

> <PUBCHEM_SHAPE_FINGERPRINT>
12423570 1 5977292147606356659
12716758 59 18336824195964385080
12897270 3 18410295808720387852
16714656 1 18338796710759985436
16945 1 18409174298491583297
20645464 45 17896051948814965024
21040471 1 18337680805247321953
23235685 24 18413110558693242085
23552423 10 18269838790314252282
241688 4 15957799213029216787
2748010 2 17906182750116082973
5084963 1 18113897104872328904

> <PUBCHEM_SHAPE_MULTIPOLES>
180.23
3.14
1.75
0.73
1.2
0.56
0.03
-0.68
0.6
-0.24
-0.07
0.22
-0.06
-0.11

> <PUBCHEM_SHAPE_SELFOVERLAP>
367.883

> <PUBCHEM_SHAPE_VOLUME>
105.2

> <PUBCHEM_COORDINATE_TYPE>
2
5
10

$$$$

