11822
  -OEChem-06261206093D

 88 92  0     1  0  0  0  0  0999 V2000
   -2.4193    1.3858    0.8823 O   0  0  0  0  0  0  0  0  0  0  0  0
    2.3672   -1.3472    0.8616 O   0  0  0  0  0  0  0  0  0  0  0  0
   -5.5441   -3.2871    0.0049 O   0  0  0  0  0  0  0  0  0  0  0  0
    5.5966    3.2746   -0.0008 O   0  0  0  0  0  0  0  0  0  0  0  0
   -5.6277   -2.4880   -2.6544 O   0  0  0  0  0  0  0  0  0  0  0  0
    5.7157    2.4523   -2.6516 O   0  0  0  0  0  0  0  0  0  0  0  0
   -5.0404    2.8017    1.0664 N   0  3  0  0  0  0  0  0  0  0  0  0
    4.9933   -2.7979    1.1010 N   0  3  0  0  0  0  0  0  0  0  0  0
   -4.7337    1.3234    1.4711 C   0  0  1  0  0  0  0  0  0  0  0  0
    4.6993   -1.3124    1.4883 C   0  0  1  0  0  0  0  0  0  0  0  0
   -4.4127    3.1063   -0.2964 C   0  0  0  0  0  0  0  0  0  0  0  0
    4.3853   -3.1056   -0.2701 C   0  0  0  0  0  0  0  0  0  0  0  0
   -4.9954    0.3253    0.3564 C   0  0  0  0  0  0  0  0  0  0  0  0
    4.9935   -0.3272    0.3703 C   0  0  0  0  0  0  0  0  0  0  0  0
   -4.9409    2.1771   -1.3837 C   0  0  0  0  0  0  0  0  0  0  0  0
    4.9446   -2.1926   -1.3554 C   0  0  0  0  0  0  0  0  0  0  0  0
   -5.0364    0.7277   -0.9890 C   0  0  0  0  0  0  0  0  0  0  0  0
    5.0526   -0.7412   -0.9709 C   0  0  0  0  0  0  0  0  0  0  0  0
   -4.4946    3.8062    2.0883 C   0  0  0  0  0  0  0  0  0  0  0  0
   -6.5639    3.0170    1.0283 C   0  0  0  0  0  0  0  0  0  0  0  0
    6.5142   -3.0337    1.0913 C   0  0  0  0  0  0  0  0  0  0  0  0
    4.4164   -3.7866    2.1214 C   0  0  0  0  0  0  0  0  0  0  0  0
   -3.2884    1.1566    1.9710 C   0  0  0  0  0  0  0  0  0  0  0  0
    3.2479   -1.1224    1.9616 C   0  0  0  0  0  0  0  0  0  0  0  0
   -5.1711   -1.0326    0.6723 C   0  0  0  0  0  0  0  0  0  0  0  0
    5.1819    1.0309    0.6783 C   0  0  0  0  0  0  0  0  0  0  0  0
   -5.2547   -0.2326   -1.9897 C   0  0  0  0  0  0  0  0  0  0  0  0
    5.3012    0.2077   -1.9754 C   0  0  0  0  0  0  0  0  0  0  0  0
   -5.3802   -1.9776   -0.3313 C   0  0  0  0  0  0  0  0  0  0  0  0
    5.4211    1.9646   -0.3292 C   0  0  0  0  0  0  0  0  0  0  0  0
   -5.4199   -1.5777   -1.6629 C   0  0  0  0  0  0  0  0  0  0  0  0
    5.4785    1.5533   -1.6566 C   0  0  0  0  0  0  0  0  0  0  0  0
   -1.2259    0.7030    0.8774 C   0  0  0  0  0  0  0  0  0  0  0  0
    1.1853   -0.6726    0.8664 C   0  0  0  0  0  0  0  0  0  0  0  0
   -0.6299    0.3588    2.0825 C   0  0  0  0  0  0  0  0  0  0  0  0
    0.5817   -0.3324    2.0771 C   0  0  0  0  0  0  0  0  0  0  0  0
   -0.6344    0.3698   -0.3333 C   0  0  0  0  0  0  0  0  0  0  0  0
    0.5772   -0.3214   -0.3389 C   0  0  0  0  0  0  0  0  0  0  0  0
   -4.3680   -4.0912    0.0735 C   0  0  0  0  0  0  0  0  0  0  0  0
    4.4302    4.0947    0.0407 C   0  0  0  0  0  0  0  0  0  0  0  0
   -6.9802   -2.7364   -3.0336 C   0  0  0  0  0  0  0  0  0  0  0  0
    7.0778    2.6797   -3.0091 C   0  0  0  0  0  0  0  0  0  0  0  0
   -5.4150    1.1153    2.3066 H   0  0  0  0  0  0  0  0  0  0  0  0
    5.3687   -1.1063    2.3339 H   0  0  0  0  0  0  0  0  0  0  0  0
   -4.6703    4.1439   -0.5447 H   0  0  0  0  0  0  0  0  0  0  0  0
   -3.3258    3.0740   -0.2129 H   0  0  0  0  0  0  0  0  0  0  0  0
    4.6309   -4.1491   -0.5052 H   0  0  0  0  0  0  0  0  0  0  0  0
    3.2979   -3.0538   -0.2042 H   0  0  0  0  0  0  0  0  0  0  0  0
   -4.2873    2.2734   -2.2598 H   0  0  0  0  0  0  0  0  0  0  0  0
   -5.9376    2.5113   -1.6980 H   0  0  0  0  0  0  0  0  0  0  0  0
    4.3052   -2.2875   -2.2420 H   0  0  0  0  0  0  0  0  0  0  0  0
    5.9422   -2.5426   -1.6495 H   0  0  0  0  0  0  0  0  0  0  0  0
   -4.8886    4.7970    1.8403 H   0  0  0  0  0  0  0  0  0  0  0  0
   -3.4038    3.8308    2.0241 H   0  0  0  0  0  0  0  0  0  0  0  0
   -4.8295    3.5017    3.0840 H   0  0  0  0  0  0  0  0  0  0  0  0
   -6.7605    4.0243    0.6494 H   0  0  0  0  0  0  0  0  0  0  0  0
   -7.0259    2.2694    0.3801 H   0  0  0  0  0  0  0  0  0  0  0  0
   -6.9480    2.9104    2.0475 H   0  0  0  0  0  0  0  0  0  0  0  0
    6.7038   -4.0467    0.7240 H   0  0  0  0  0  0  0  0  0  0  0  0
    6.8819   -2.9238    2.1162 H   0  0  0  0  0  0  0  0  0  0  0  0
    6.9973   -2.2976    0.4454 H   0  0  0  0  0  0  0  0  0  0  0  0
    3.3266   -3.7969    2.0383 H   0  0  0  0  0  0  0  0  0  0  0  0
    4.7380   -3.4784    3.1203 H   0  0  0  0  0  0  0  0  0  0  0  0
    4.8011   -4.7845    1.8882 H   0  0  0  0  0  0  0  0  0  0  0  0
   -3.0519    1.8302    2.8003 H   0  0  0  0  0  0  0  0  0  0  0  0
   -3.1886    0.1308    2.3530 H   0  0  0  0  0  0  0  0  0  0  0  0
    2.9905   -1.7859    2.7928 H   0  0  0  0  0  0  0  0  0  0  0  0
    3.1525   -0.0917    2.3314 H   0  0  0  0  0  0  0  0  0  0  0  0
   -5.1413   -1.3545    1.7113 H   0  0  0  0  0  0  0  0  0  0  0  0
    5.1384    1.3618    1.7138 H   0  0  0  0  0  0  0  0  0  0  0  0
   -5.3032    0.0754   -3.0321 H   0  0  0  0  0  0  0  0  0  0  0  0
    5.3639   -0.1096   -3.0143 H   0  0  0  0  0  0  0  0  0  0  0  0
   -1.0553    0.6248    3.0451 H   0  0  0  0  0  0  0  0  0  0  0  0
    1.0094   -0.6048    3.0373 H   0  0  0  0  0  0  0  0  0  0  0  0
   -1.1062    0.6418   -1.2732 H   0  0  0  0  0  0  0  0  0  0  0  0
    1.0436   -0.5833   -1.2848 H   0  0  0  0  0  0  0  0  0  0  0  0
   -3.6833   -3.7050    0.8353 H   0  0  0  0  0  0  0  0  0  0  0  0
   -4.6630   -5.1069    0.3505 H   0  0  0  0  0  0  0  0  0  0  0  0
   -3.8673   -4.1250   -0.8993 H   0  0  0  0  0  0  0  0  0  0  0  0
    3.7274    3.7239    0.7935 H   0  0  0  0  0  0  0  0  0  0  0  0
    4.7340    5.1087    0.3145 H   0  0  0  0  0  0  0  0  0  0  0  0
    3.9470    4.1270   -0.9410 H   0  0  0  0  0  0  0  0  0  0  0  0
   -7.4446   -1.8226   -3.4175 H   0  0  0  0  0  0  0  0  0  0  0  0
   -7.5538   -3.1220   -2.1849 H   0  0  0  0  0  0  0  0  0  0  0  0
   -6.9808   -3.4889   -3.8268 H   0  0  0  0  0  0  0  0  0  0  0  0
    7.6417    3.0648   -2.1536 H   0  0  0  0  0  0  0  0  0  0  0  0
    7.5367    1.7566   -3.3773 H   0  0  0  0  0  0  0  0  0  0  0  0
    7.1022    3.4254   -3.8083 H   0  0  0  0  0  0  0  0  0  0  0  0
  1 23  1  0  0  0  0
  1 33  1  0  0  0  0
  2 24  1  0  0  0  0
  2 34  1  0  0  0  0
  3 29  1  0  0  0  0
  3 39  1  0  0  0  0
  4 30  1  0  0  0  0
  4 40  1  0  0  0  0
  5 31  1  0  0  0  0
  5 41  1  0  0  0  0
  6 32  1  0  0  0  0
  6 42  1  0  0  0  0
  7  9  1  0  0  0  0
  7 11  1  0  0  0  0
  7 19  1  0  0  0  0
  7 20  1  0  0  0  0
  8 10  1  0  0  0  0
  8 12  1  0  0  0  0
  8 21  1  0  0  0  0
  8 22  1  0  0  0  0
  9 13  1  0  0  0  0
  9 23  1  0  0  0  0
  9 43  1  0  0  0  0
 10 14  1  0  0  0  0
 10 24  1  0  0  0  0
 10 44  1  0  0  0  0
 11 15  1  0  0  0  0
 11 45  1  0  0  0  0
 11 46  1  0  0  0  0
 12 16  1  0  0  0  0
 12 47  1  0  0  0  0
 12 48  1  0  0  0  0
 13 17  1  0  0  0  0
 13 25  2  0  0  0  0
 14 18  1  0  0  0  0
 14 26  2  0  0  0  0
 15 17  1  0  0  0  0
 15 49  1  0  0  0  0
 15 50  1  0  0  0  0
 16 18  1  0  0  0  0
 16 51  1  0  0  0  0
 16 52  1  0  0  0  0
 17 27  2  0  0  0  0
 18 28  2  0  0  0  0
 19 53  1  0  0  0  0
 19 54  1  0  0  0  0
 19 55  1  0  0  0  0
 20 56  1  0  0  0  0
 20 57  1  0  0  0  0
 20 58  1  0  0  0  0
 21 59  1  0  0  0  0
 21 60  1  0  0  0  0
 21 61  1  0  0  0  0
 22 62  1  0  0  0  0
 22 63  1  0  0  0  0
 22 64  1  0  0  0  0
 23 65  1  0  0  0  0
 23 66  1  0  0  0  0
 24 67  1  0  0  0  0
 24 68  1  0  0  0  0
 25 29  1  0  0  0  0
 25 69  1  0  0  0  0
 26 30  1  0  0  0  0
 26 70  1  0  0  0  0
 27 31  1  0  0  0  0
 27 71  1  0  0  0  0
 28 32  1  0  0  0  0
 28 72  1  0  0  0  0
 29 31  2  0  0  0  0
 30 32  2  0  0  0  0
 33 35  2  0  0  0  0
 33 37  1  0  0  0  0
 34 36  2  0  0  0  0
 34 38  1  0  0  0  0
 35 36  1  0  0  0  0
 35 73  1  0  0  0  0
 36 74  1  0  0  0  0
 37 38  2  0  0  0  0
 37 75  1  0  0  0  0
 38 76  1  0  0  0  0
 39 77  1  0  0  0  0
 39 78  1  0  0  0  0
 39 79  1  0  0  0  0
 40 80  1  0  0  0  0
 40 81  1  0  0  0  0
 40 82  1  0  0  0  0
 41 83  1  0  0  0  0
 41 84  1  0  0  0  0
 41 85  1  0  0  0  0
 42 86  1  0  0  0  0
 42 87  1  0  0  0  0
 42 88  1  0  0  0  0
M  CHG  2   7   1   8   1
M  END
> <PUBCHEM_COMPOUND_CID>
11822

> <PUBCHEM_CONFORMER_RMSD>
1.4

> <PUBCHEM_CONFORMER_DIVERSEORDER>
69
68
111
37
30
118
21
114
102
31
159
132
168
145
125
127
86
130
136
99
108
146
81
57
36
10
25
59
27
105
119
124
5
135
138
58
156
139
155
141
129
93
95
83
62
152
79
110
90
144
72
64
137
4
121
148
107
71
106
160
96
76
104
131
97
89
63
82
166
16
65
70
158
33
3
87
128
75
73
14
85
109
52
84
88
2
29
165
150
167
6
147
163
60
50
98
101
91
46
162
67
77
7
113
149
154
34
142
11
49
161
47
164
20
42
134
112
40
78
103
38
115
66
123
133
48
32
23
122
18
100
74
9
1
92
44
80
54
26
8
157
153
35
15
116
17
61
140
117
39
120
24
94
143
151
45
19
126
28
13
41
56
55
12
53
22
51
43

> <PUBCHEM_MMFF94_PARTIAL_CHARGES>
50
1 -0.36
10 0.65
11 0.5
12 0.5
13 -0.14
14 -0.14
15 0.14
16 0.14
17 -0.14
18 -0.14
19 0.5
2 -0.36
20 0.5
21 0.5
22 0.5
23 0.28
24 0.28
25 -0.15
26 -0.15
27 -0.15
28 -0.15
29 0.08
3 -0.36
30 0.08
31 0.08
32 0.08
33 0.08
34 0.08
35 -0.15
36 -0.15
37 -0.15
38 -0.15
39 0.28
4 -0.36
40 0.28
41 0.28
42 0.28
5 -0.36
6 -0.36
69 0.15
7 -1.01
70 0.15
71 0.15
72 0.15
73 0.15
74 0.15
75 0.15
76 0.15
8 -1.01
9 0.65

> <PUBCHEM_EFFECTIVE_ROTOR_COUNT>
11.6

> <PUBCHEM_PHARMACOPHORE_FEATURES>
13
1 1 acceptor
1 2 acceptor
1 3 acceptor
1 4 acceptor
1 5 acceptor
1 6 acceptor
1 7 cation
1 8 cation
6 13 17 25 27 29 31 rings
6 14 18 26 28 30 32 rings
6 33 34 35 36 37 38 rings
6 7 9 11 13 15 17 rings
6 8 10 12 14 16 18 rings

> <PUBCHEM_HEAVY_ATOM_COUNT>
42

> <PUBCHEM_ATOM_DEF_STEREO_COUNT>
0

> <PUBCHEM_ATOM_UDEF_STEREO_COUNT>
2

> <PUBCHEM_BOND_DEF_STEREO_COUNT>
0

> <PUBCHEM_BOND_UDEF_STEREO_COUNT>
0

> <PUBCHEM_ISOTOPIC_ATOM_COUNT>
0

> <PUBCHEM_COMPONENT_COUNT>
1

> <PUBCHEM_CACTVS_TAUTO_COUNT>
1

> <PUBCHEM_CONFORMER_ID>
00002E2E00000045

> <PUBCHEM_MMFF94_ENERGY>
201.9352

> <PUBCHEM_FEATURE_SELFOVERLAP>
66.016

> <PUBCHEM_SHAPE_FINGERPRINT>
10462674 369 17313395495754750003
12664476 115 15625646336381224482
13782708 43 15791451530219231133
14118638 360 18410856516716536231
14856354 85 18187932819825056341
15082195 135 18342463599624552904
15274700 147 16478776907872378532
15530120 55 18410573985162007446
15684393 108 18343023251323516695
15799311 1 17676482886630669587
16708801 149 18335712666586378007
21599406 157 18342741805862359767
2303208 19 15647052659527094098
23522609 53 18337654417100773945
335507 130 18410289224614729274
3610482 184 18409158940073648249
394071 54 17059759058454231908
4169191 19 17131541739988016308
4197921 191 18342174440951797807
4258327 124 18340201990760535457
44317340 157 17988354978982345696
504579 68 18410575106143190388
50677037 204 17917710163102447685
513532 50 18113610215129034524
6697151 62 16915115142761234506
77296 10 18411415085792941540

> <PUBCHEM_SHAPE_MULTIPOLES>
819.16
22.84
5.28
2.74
0.58
0.04
1.28
-0.33
9.73
-0.08
-0.02
0.01
0.04
-8.45

> <PUBCHEM_SHAPE_SELFOVERLAP>
1742.658

> <PUBCHEM_SHAPE_VOLUME>
458.6

> <PUBCHEM_COORDINATE_TYPE>
2
5
10

$$$$

