12564
  -OEChem-06261207053D

 25 26  0     0  0  0  0  0  0999 V2000
    0.4226    0.2453   -0.0009 C   0  0  0  0  0  0  0  0  0  0  0  0
   -1.0135    0.0682   -0.0006 C   0  0  0  0  0  0  0  0  0  0  0  0
    1.2629   -0.8680   -0.0015 C   0  0  0  0  0  0  0  0  0  0  0  0
    2.6473   -0.6969   -0.0005 C   0  0  0  0  0  0  0  0  0  0  0  0
    0.9666    1.5298    0.0007 C   0  0  0  0  0  0  0  0  0  0  0  0
    3.1912    0.5877    0.0009 C   0  0  0  0  0  0  0  0  0  0  0  0
   -1.7052   -0.0182    1.2078 C   0  0  0  0  0  0  0  0  0  0  0  0
   -1.7065   -0.0154   -1.2083 C   0  0  0  0  0  0  0  0  0  0  0  0
    2.3508    1.7009    0.0016 C   0  0  0  0  0  0  0  0  0  0  0  0
    3.5466   -1.8867   -0.0008 C   0  0  0  0  0  0  0  0  0  0  0  0
   -3.0895   -0.1887    1.2085 C   0  0  0  0  0  0  0  0  0  0  0  0
   -3.0910   -0.1858   -1.2076 C   0  0  0  0  0  0  0  0  0  0  0  0
   -3.7824   -0.2724    0.0008 C   0  0  0  0  0  0  0  0  0  0  0  0
    0.8432   -1.8721   -0.0043 H   0  0  0  0  0  0  0  0  0  0  0  0
    0.3260    2.4086    0.0014 H   0  0  0  0  0  0  0  0  0  0  0  0
    4.2680    0.7346   -0.0002 H   0  0  0  0  0  0  0  0  0  0  0  0
   -1.1805    0.0453    2.1582 H   0  0  0  0  0  0  0  0  0  0  0  0
   -1.1830    0.0502   -2.1593 H   0  0  0  0  0  0  0  0  0  0  0  0
    2.7745    2.7011    0.0025 H   0  0  0  0  0  0  0  0  0  0  0  0
    3.7375   -2.2130   -1.0280 H   0  0  0  0  0  0  0  0  0  0  0  0
    4.5052   -1.6599    0.4782 H   0  0  0  0  0  0  0  0  0  0  0  0
    3.0997   -2.7178    0.5554 H   0  0  0  0  0  0  0  0  0  0  0  0
   -3.6281   -0.2560    2.1492 H   0  0  0  0  0  0  0  0  0  0  0  0
   -3.6308   -0.2509   -2.1478 H   0  0  0  0  0  0  0  0  0  0  0  0
   -4.8603   -0.4051    0.0013 H   0  0  0  0  0  0  0  0  0  0  0  0
  1  2  1  0  0  0  0
  1  3  1  0  0  0  0
  1  5  2  0  0  0  0
  2  7  2  0  0  0  0
  2  8  1  0  0  0  0
  3  4  2  0  0  0  0
  3 14  1  0  0  0  0
  4  6  1  0  0  0  0
  4 10  1  0  0  0  0
  5  9  1  0  0  0  0
  5 15  1  0  0  0  0
  6  9  2  0  0  0  0
  6 16  1  0  0  0  0
  7 11  1  0  0  0  0
  7 17  1  0  0  0  0
  8 12  2  0  0  0  0
  8 18  1  0  0  0  0
  9 19  1  0  0  0  0
 10 20  1  0  0  0  0
 10 21  1  0  0  0  0
 10 22  1  0  0  0  0
 11 13  2  0  0  0  0
 11 23  1  0  0  0  0
 12 13  1  0  0  0  0
 12 24  1  0  0  0  0
 13 25  1  0  0  0  0
M  END
> <PUBCHEM_COMPOUND_CID>
12564

> <PUBCHEM_CONFORMER_RMSD>
0.4

> <PUBCHEM_CONFORMER_DIVERSEORDER>
1
2

> <PUBCHEM_MMFF94_PARTIAL_CHARGES>
20
10 0.14
11 -0.15
12 -0.15
13 -0.15
14 0.15
15 0.15
16 0.15
17 0.15
18 0.15
19 0.15
23 0.15
24 0.15
25 0.15
3 -0.15
4 -0.14
5 -0.15
6 -0.15
7 -0.15
8 -0.15
9 -0.15

> <PUBCHEM_EFFECTIVE_ROTOR_COUNT>
1

> <PUBCHEM_PHARMACOPHORE_FEATURES>
2
6 1 3 4 5 6 9 rings
6 2 7 8 11 12 13 rings

> <PUBCHEM_HEAVY_ATOM_COUNT>
13

> <PUBCHEM_ATOM_DEF_STEREO_COUNT>
0

> <PUBCHEM_ATOM_UDEF_STEREO_COUNT>
0

> <PUBCHEM_BOND_DEF_STEREO_COUNT>
0

> <PUBCHEM_BOND_UDEF_STEREO_COUNT>
0

> <PUBCHEM_ISOTOPIC_ATOM_COUNT>
0

> <PUBCHEM_COMPONENT_COUNT>
1

> <PUBCHEM_CACTVS_TAUTO_COUNT>
1

> <PUBCHEM_CONFORMER_ID>
0000311400000001

> <PUBCHEM_MMFF94_ENERGY>
40.8182

> <PUBCHEM_FEATURE_SELFOVERLAP>
10.149

> <PUBCHEM_SHAPE_FINGERPRINT>
10219947 1 18335138704494272590
10465860 71 15769484404661909142
10608611 8 17917717872437225797
11031198 65 18271239413820394484
11471102 20 18412546500659240556
11578080 2 17388574667465225921
12236239 1 17748543723331514757
12932764 1 17821447941238694225
13296908 3 17989487420045161307
13538477 17 17385729041256680087
14144814 61 17821726122085959637
15219456 202 17988925543817778669
15669948 3 16443350810613186517
15775835 57 17676763184712247713
16945 1 18410572851707619236
17844478 74 17917707998354689981
1813 80 17970612190542711654
18175812 5 17846778481745565527
18186145 218 17703515475315987885
19049666 15 17774453800739473589
19422 9 18040152898868506071
200 152 18260556623448520295
20201158 50 18131351916430038938
20279233 1 17775289339303045091
20281407 28 17418367000081404643
20361792 2 18335704991695246838
204376 136 18122347870304233568
20645464 45 17489314036131128649
20645477 70 18411990181908828503
20671657 53 18270679900004248978
20715346 28 17775002345404148185
20871998 22 18044368560031410814
21639500 275 18264778661783544492
21730867 7 18272369741780210836
2255824 54 18334292037976171622
23402539 116 14346088563556691977
23557571 272 16845570881294412980
23559900 14 16988850505595835170
3248919 1 17240480303836968183
474 4 17680442052162034784
581208 293 18410297969479165344
6049 1 17775564238832752621
77492 1 17676486129356883845

> <PUBCHEM_SHAPE_MULTIPOLES>
267.53
6.64
1.43
1.07
0.96
0.08
0
-1.59
0
-1.89
0
1.08
-0.05
0

> <PUBCHEM_SHAPE_SELFOVERLAP>
578.747

> <PUBCHEM_SHAPE_VOLUME>
138.5

> <PUBCHEM_COORDINATE_TYPE>
2
5
10

$$$$

