47205705
  -OEChem-06241222593D

 35 36  0     0  0  0  0  0  0999 V2000
    0.9601   -1.5571    1.4226 O   0  0  0  0  0  0  0  0  0  0  0  0
   -1.3891    0.1229   -0.7939 O   0  0  0  0  0  0  0  0  0  0  0  0
    2.3103   -1.8565   -0.4424 N   0  0  0  0  0  0  0  0  0  0  0  0
    0.0385   -2.1562   -0.6208 N   0  0  0  0  0  0  0  0  0  0  0  0
   -3.3248   -0.9018    0.0558 N   0  0  0  0  0  0  0  0  0  0  0  0
   -6.1000    1.3234    0.2772 N   0  0  0  0  0  0  0  0  0  0  0  0
   -5.2217    2.2090   -0.2233 N   0  0  0  0  0  0  0  0  0  0  0  0
    3.5720   -1.5596    0.1957 C   0  0  0  0  0  0  0  0  0  0  0  0
    3.9107   -0.0990    0.1184 C   0  0  0  0  0  0  0  0  0  0  0  0
   -1.3362   -2.2051   -0.1814 C   0  0  0  0  0  0  0  0  0  0  0  0
    4.6417    0.3910   -0.9638 C   0  0  0  0  0  0  0  0  0  0  0  0
    3.4945    0.7680    1.1289 C   0  0  0  0  0  0  0  0  0  0  0  0
    1.0916   -1.8312    0.2304 C   0  0  0  0  0  0  0  0  0  0  0  0
   -1.9950   -0.8484   -0.3532 C   0  0  0  0  0  0  0  0  0  0  0  0
   -4.2716    0.1501    0.0519 C   0  0  0  0  0  0  0  0  0  0  0  0
    4.9566    1.7482   -1.0358 C   0  0  0  0  0  0  0  0  0  0  0  0
    3.8094    2.1251    1.0570 C   0  0  0  0  0  0  0  0  0  0  0  0
    4.5401    2.6151   -0.0254 C   0  0  0  0  0  0  0  0  0  0  0  0
   -5.5806    0.0757    0.4609 C   0  0  0  0  0  0  0  0  0  0  0  0
   -4.1065    1.4864   -0.3587 C   0  0  0  0  0  0  0  0  0  0  0  0
    4.3419   -2.1599   -0.3020 H   0  0  0  0  0  0  0  0  0  0  0  0
    3.5386   -1.8886    1.2411 H   0  0  0  0  0  0  0  0  0  0  0  0
   -1.8573   -2.9457   -0.7957 H   0  0  0  0  0  0  0  0  0  0  0  0
   -1.3800   -2.5031    0.8711 H   0  0  0  0  0  0  0  0  0  0  0  0
    2.3132   -2.0725   -1.4345 H   0  0  0  0  0  0  0  0  0  0  0  0
    0.2402   -2.3454   -1.5977 H   0  0  0  0  0  0  0  0  0  0  0  0
    4.9703   -0.2739   -1.7582 H   0  0  0  0  0  0  0  0  0  0  0  0
    2.9274    0.4002    1.9795 H   0  0  0  0  0  0  0  0  0  0  0  0
   -3.6876   -1.7870    0.4026 H   0  0  0  0  0  0  0  0  0  0  0  0
    5.5254    2.1299   -1.8786 H   0  0  0  0  0  0  0  0  0  0  0  0
    3.4859    2.8001    1.8439 H   0  0  0  0  0  0  0  0  0  0  0  0
    4.7851    3.6717   -0.0814 H   0  0  0  0  0  0  0  0  0  0  0  0
   -6.1782   -0.7329    0.8575 H   0  0  0  0  0  0  0  0  0  0  0  0
   -3.2277    1.9764   -0.7520 H   0  0  0  0  0  0  0  0  0  0  0  0
   -7.0421    1.6392    0.4713 H   0  0  0  0  0  0  0  0  0  0  0  0
  1 13  2  0  0  0  0
  2 14  2  0  0  0  0
  3  8  1  0  0  0  0
  3 13  1  0  0  0  0
  3 25  1  0  0  0  0
  4 10  1  0  0  0  0
  4 13  1  0  0  0  0
  4 26  1  0  0  0  0
  5 14  1  0  0  0  0
  5 15  1  0  0  0  0
  5 29  1  0  0  0  0
  6  7  1  0  0  0  0
  6 19  1  0  0  0  0
  6 35  1  0  0  0  0
  7 20  2  0  0  0  0
  8  9  1  0  0  0  0
  8 21  1  0  0  0  0
  8 22  1  0  0  0  0
  9 11  2  0  0  0  0
  9 12  1  0  0  0  0
 10 14  1  0  0  0  0
 10 23  1  0  0  0  0
 10 24  1  0  0  0  0
 11 16  1  0  0  0  0
 11 27  1  0  0  0  0
 12 17  2  0  0  0  0
 12 28  1  0  0  0  0
 15 19  2  0  0  0  0
 15 20  1  0  0  0  0
 16 18  2  0  0  0  0
 16 30  1  0  0  0  0
 17 18  1  0  0  0  0
 17 31  1  0  0  0  0
 18 32  1  0  0  0  0
 19 33  1  0  0  0  0
 20 34  1  0  0  0  0
M  END
> <PUBCHEM_COMPOUND_CID>
47205705

> <PUBCHEM_CONFORMER_RMSD>
0.8

> <PUBCHEM_CONFORMER_DIVERSEORDER>
1
111
28
155
54
82
39
102
131
195
51
124
149
186
161
168
202
36
76
118
164
174
15
197
46
121
173
176
170
132
139
69
103
120
84
42
4
169
148
172
119
89
146
95
144
2
81
72
5
21
105
113
33
107
45
93
67
27
85
83
204
6
90
177
65
136
47
135
185
64
150
142
117
86
43
10
193
158
18
24
74
162
166
127
55
68
203
92
99
151
179
147
52
125
114
13
98
205
199
25
194
137
134
153
77
175
88
20
133
3
140
165
19
26
40
59
79
154
126
41
109
75
96
57
31
171
115
106
100
9
130
141
35
180
181
196
50
189
7
80
23
78
143
178
163
122
29
156
183
201
16
108
22
112
91
138
60
116
73
159
110
187
14
66
184
94
8
97
44
192
128
32
123
87
101
198
157
61
17
11
160
129
71
63
48
56
37
188
58
190
145
152
53
34
104
62
12
191
38
167
49
200
182
70
30

> <PUBCHEM_MMFF94_PARTIAL_CHARGES>
31
1 -0.57
10 0.36
11 -0.15
12 -0.15
13 0.69
14 0.57
15 0.06
16 -0.15
17 -0.15
18 -0.15
19 -0.3
2 -0.57
20 0.14
25 0.37
26 0.37
27 0.15
28 0.15
29 0.37
3 -0.73
30 0.15
31 0.15
32 0.15
33 0.15
34 0.15
35 0.27
4 -0.73
5 -0.49
6 0.3
7 -0.71
8 0.44
9 -0.14

> <PUBCHEM_EFFECTIVE_ROTOR_COUNT>
8

> <PUBCHEM_PHARMACOPHORE_FEATURES>
9
1 1 acceptor
1 2 acceptor
1 3 donor
1 4 donor
1 5 donor
1 6 donor
1 7 acceptor
5 6 7 15 19 20 rings
6 9 11 12 16 17 18 rings

> <PUBCHEM_HEAVY_ATOM_COUNT>
20

> <PUBCHEM_ATOM_DEF_STEREO_COUNT>
0

> <PUBCHEM_ATOM_UDEF_STEREO_COUNT>
0

> <PUBCHEM_BOND_DEF_STEREO_COUNT>
0

> <PUBCHEM_BOND_UDEF_STEREO_COUNT>
0

> <PUBCHEM_ISOTOPIC_ATOM_COUNT>
0

> <PUBCHEM_COMPONENT_COUNT>
1

> <PUBCHEM_CACTVS_TAUTO_COUNT>
6

> <PUBCHEM_CONFORMER_ID>
02D04D4900000001

> <PUBCHEM_MMFF94_ENERGY>
33.3129

> <PUBCHEM_FEATURE_SELFOVERLAP>
45.72

> <PUBCHEM_SHAPE_FINGERPRINT>
10378564 45 17968086547919613734
10447042 23 9583515400149424386
10498660 4 18187923924715606352
11069576 57 14274273957409977212
11070050 100 16988845003325920562
11595378 159 16486981746885443213
11720765 8 17895745306089418724
11796584 16 8574167015458609023
12596602 18 16773794779724424433
12633257 1 15697718104032904832
12892183 10 13757811299554561998
13878862 14 18198647577173979445
13955234 65 18128537256963592139
1420 369 10087645909342632194
14251764 75 18337383829876649560
14341114 328 16988564563409934160
14429114 114 18335143098294270441
14528608 73 18333454231321740975
1454969 45 18261678078729480271
14848178 5 9151180839295603512
14848178 96 18408888433984475632
15142526 21 18130506349017644034
15210252 30 18340204077771847592
15238133 3 18339648846179754928
15342168 16 18410294709346014271
15342816 4 7204504311950344774
1768 23 17315331851990942873
17810953 82 18411698807159068516
17834072 32 18409730629810763182
17868525 174 17983872352097208026
17959699 21 18409167722770052747
18335252 114 18263368138931271006
193927 3 9151177583757885503
20621476 91 16128367135236446843
212847 35 18410293618893682786
21315763 87 12679458651478140773
21734292 116 18409732863220689513
22289505 5 18114175346482334364
22849339 104 15068919516416791725
22956985 138 10431433642465156430
23272321 79 18411136931569826855
23559900 14 18115591598325771447
245318 6 17844229753457663301
270888 7 18340486643611715916
2838139 119 18408328765380657334
316301 35 9582148724941028684
3472631 163 18333730208650616391
34797466 226 17968087643067877807
44062 13 7925370514456267651
5104073 3 18202849833274805650
56616090 13 18410857625034720490
633830 44 18341620295718451310
7808743 9 18339365158292657794
960060 61 5545197259387574170

> <PUBCHEM_SHAPE_MULTIPOLES>
374.95
14.73
2.9
0.99
12.29
0.17
-0.12
11.36
0.32
-1.27
0.01
-0.93
0.11
0.03

> <PUBCHEM_SHAPE_SELFOVERLAP>
785.506

> <PUBCHEM_SHAPE_VOLUME>
211

> <PUBCHEM_COORDINATE_TYPE>
2
5
10

$$$$

