10605
  -OEChem-06261204453D

 49 51  0     1  0  0  0  0  0999 V2000
    0.7402   -1.9977    0.7761 O   0  0  0  0  0  0  0  0  0  0  0  0
    3.4595   -1.7320    0.9532 O   0  0  0  0  0  0  0  0  0  0  0  0
    4.7169    0.4723   -0.1440 O   0  0  0  0  0  0  0  0  0  0  0  0
   -4.7685   -0.7406    1.1152 O   0  0  0  0  0  0  0  0  0  0  0  0
   -4.9957   -1.7573   -1.4289 O   0  0  0  0  0  0  0  0  0  0  0  0
   -0.3431    2.2997    1.6931 N   0  0  0  0  0  0  0  0  0  0  0  0
   -1.1935    2.3431    0.4935 C   0  0  1  0  0  0  0  0  0  0  0  0
   -0.4863    3.0956   -0.6623 C   0  0  0  0  0  0  0  0  0  0  0  0
    0.4145    2.3029   -1.6186 C   0  0  0  0  0  0  0  0  0  0  0  0
   -1.7881    0.9722    0.1343 C   0  0  0  0  0  0  0  0  0  0  0  0
    1.2238    1.2226   -0.9536 C   0  0  0  0  0  0  0  0  0  0  0  0
    0.5783    0.0942   -0.4067 C   0  0  0  0  0  0  0  0  0  0  0  0
   -0.9054   -0.0227   -0.4940 C   0  0  0  0  0  0  0  0  0  0  0  0
    1.3388   -0.8914    0.2420 C   0  0  0  0  0  0  0  0  0  0  0  0
    2.6166    1.3362   -0.8550 C   0  0  0  0  0  0  0  0  0  0  0  0
   -3.0683    0.7492    0.4865 C   0  0  0  0  0  0  0  0  0  0  0  0
   -1.3223   -1.0424   -1.2695 C   0  0  0  0  0  0  0  0  0  0  0  0
    2.7248   -0.7653    0.3319 C   0  0  0  0  0  0  0  0  0  0  0  0
    3.3624    0.3450   -0.2170 C   0  0  0  0  0  0  0  0  0  0  0  0
   -1.1082    1.8390    2.8362 C   0  0  0  0  0  0  0  0  0  0  0  0
   -3.9043   -0.4577    0.2876 C   0  0  0  0  0  0  0  0  0  0  0  0
   -2.6611   -1.4090   -1.6511 C   0  0  0  0  0  0  0  0  0  0  0  0
   -3.8020   -1.2180   -0.9788 C   0  0  0  0  0  0  0  0  0  0  0  0
    0.3103   -1.9073    2.1314 C   0  0  0  0  0  0  0  0  0  0  0  0
    3.3824   -3.0493    0.4140 C   0  0  0  0  0  0  0  0  0  0  0  0
    5.4781   -0.0813   -1.2153 C   0  0  0  0  0  0  0  0  0  0  0  0
   -2.0243    3.0190    0.7505 H   0  0  0  0  0  0  0  0  0  0  0  0
    0.1033    3.9217   -0.2400 H   0  0  0  0  0  0  0  0  0  0  0  0
   -1.2542    3.5885   -1.2752 H   0  0  0  0  0  0  0  0  0  0  0  0
    1.0740    3.0058   -2.1437 H   0  0  0  0  0  0  0  0  0  0  0  0
   -0.1952    1.8480   -2.4107 H   0  0  0  0  0  0  0  0  0  0  0  0
    0.0152    3.2345    1.8872 H   0  0  0  0  0  0  0  0  0  0  0  0
    3.1237    2.2027   -1.2732 H   0  0  0  0  0  0  0  0  0  0  0  0
   -3.6048    1.5260    1.0309 H   0  0  0  0  0  0  0  0  0  0  0  0
   -0.5817   -1.6910   -1.7409 H   0  0  0  0  0  0  0  0  0  0  0  0
   -0.4875    1.9344    3.7339 H   0  0  0  0  0  0  0  0  0  0  0  0
   -1.3786    0.7820    2.7700 H   0  0  0  0  0  0  0  0  0  0  0  0
   -2.0080    2.4399    3.0065 H   0  0  0  0  0  0  0  0  0  0  0  0
   -2.7099   -1.9940   -2.5690 H   0  0  0  0  0  0  0  0  0  0  0  0
    1.0174   -1.3389    2.7448 H   0  0  0  0  0  0  0  0  0  0  0  0
    0.2377   -2.9213    2.5345 H   0  0  0  0  0  0  0  0  0  0  0  0
   -0.6797   -1.4464    2.1773 H   0  0  0  0  0  0  0  0  0  0  0  0
    4.3726   -3.5062    0.5009 H   0  0  0  0  0  0  0  0  0  0  0  0
    3.0990   -3.0516   -0.6445 H   0  0  0  0  0  0  0  0  0  0  0  0
    2.6811   -3.6521    0.9975 H   0  0  0  0  0  0  0  0  0  0  0  0
    6.5376    0.0908   -1.0074 H   0  0  0  0  0  0  0  0  0  0  0  0
    5.2229    0.4091   -2.1601 H   0  0  0  0  0  0  0  0  0  0  0  0
    5.3082   -1.1595   -1.2943 H   0  0  0  0  0  0  0  0  0  0  0  0
   -5.6925   -1.5070   -0.7978 H   0  0  0  0  0  0  0  0  0  0  0  0
  1 14  1  0  0  0  0
  1 24  1  0  0  0  0
  2 18  1  0  0  0  0
  2 25  1  0  0  0  0
  3 19  1  0  0  0  0
  3 26  1  0  0  0  0
  4 21  2  0  0  0  0
  5 23  1  0  0  0  0
  5 49  1  0  0  0  0
  6  7  1  0  0  0  0
  6 20  1  0  0  0  0
  6 32  1  0  0  0  0
  7  8  1  0  0  0  0
  7 10  1  0  0  0  0
  7 27  1  0  0  0  0
  8  9  1  0  0  0  0
  8 28  1  0  0  0  0
  8 29  1  0  0  0  0
  9 11  1  0  0  0  0
  9 30  1  0  0  0  0
  9 31  1  0  0  0  0
 10 13  1  0  0  0  0
 10 16  2  0  0  0  0
 11 12  1  0  0  0  0
 11 15  2  0  0  0  0
 12 13  1  0  0  0  0
 12 14  2  0  0  0  0
 13 17  2  0  0  0  0
 14 18  1  0  0  0  0
 15 19  1  0  0  0  0
 15 33  1  0  0  0  0
 16 21  1  0  0  0  0
 16 34  1  0  0  0  0
 17 22  1  0  0  0  0
 17 35  1  0  0  0  0
 18 19  2  0  0  0  0
 20 36  1  0  0  0  0
 20 37  1  0  0  0  0
 20 38  1  0  0  0  0
 21 23  1  0  0  0  0
 22 23  2  0  0  0  0
 22 39  1  0  0  0  0
 24 40  1  0  0  0  0
 24 41  1  0  0  0  0
 24 42  1  0  0  0  0
 25 43  1  0  0  0  0
 25 44  1  0  0  0  0
 25 45  1  0  0  0  0
 26 46  1  0  0  0  0
 26 47  1  0  0  0  0
 26 48  1  0  0  0  0
M  END
> <PUBCHEM_COMPOUND_CID>
10605

> <PUBCHEM_CONFORMER_RMSD>
0.8

> <PUBCHEM_CONFORMER_DIVERSEORDER>
2
7
14
3
1
6
12
10
15
11
8
9
13
4
5

> <PUBCHEM_MMFF94_PARTIAL_CHARGES>
31
1 -0.36
10 -0.14
11 -0.14
12 0.03
13 -0.03
14 0.08
15 -0.15
16 -0.14
17 -0.15
18 0.08
19 0.08
2 -0.36
20 0.27
21 0.54
22 -0.15
23 0.09
24 0.28
25 0.28
26 0.28
3 -0.36
32 0.36
33 0.15
34 0.15
35 0.15
39 0.15
4 -0.57
49 0.45
5 -0.53
6 -0.9
7 0.41
9 0.14

> <PUBCHEM_EFFECTIVE_ROTOR_COUNT>
4.6

> <PUBCHEM_PHARMACOPHORE_FEATURES>
10
1 1 acceptor
1 2 acceptor
1 3 acceptor
1 4 acceptor
1 5 donor
1 6 cation
1 6 donor
6 11 12 14 15 18 19 rings
7 10 13 16 17 21 22 23 rings
7 7 8 9 10 11 12 13 rings

> <PUBCHEM_HEAVY_ATOM_COUNT>
26

> <PUBCHEM_ATOM_DEF_STEREO_COUNT>
0

> <PUBCHEM_ATOM_UDEF_STEREO_COUNT>
1

> <PUBCHEM_BOND_DEF_STEREO_COUNT>
0

> <PUBCHEM_BOND_UDEF_STEREO_COUNT>
0

> <PUBCHEM_ISOTOPIC_ATOM_COUNT>
0

> <PUBCHEM_COMPONENT_COUNT>
1

> <PUBCHEM_CACTVS_TAUTO_COUNT>
5

> <PUBCHEM_CONFORMER_ID>
0000296D00000002

> <PUBCHEM_MMFF94_ENERGY>
124.9104

> <PUBCHEM_FEATURE_SELFOVERLAP>
50.769

> <PUBCHEM_SHAPE_FINGERPRINT>
11578080 2 18119845514683058885
12236239 1 18335698321494972213
12422481 6 17976236248358966889
12553582 1 18411989039579162646
12596599 1 18047462615547536122
12633257 1 16950566605537703283
12788726 201 18187362155445875930
13004483 165 18268721669668735349
13009979 54 18190465063691711866
13140716 1 17986388876831484968
13544653 18 18413394241298824391
13911987 19 17417798518721900326
13965767 371 17685460510978253881
14251757 17 17346600759666715915
14294032 229 17531235224366506561
14787075 74 18116435834572410408
14955137 171 17969487239628546427
15375462 189 18335135354620241761
16945 1 18340496551526008100
17349148 13 18059857272999490986
17492 54 17917715660549933310
1813 80 18412254030455587076
18222031 100 17386301895631598031
200 152 18272651238068377229
20600515 1 16660914462030209589
20691752 17 18268445533209922745
21033648 29 14779264207471187151
21267235 1 18337100181635450655
22112679 90 18114465574301798493
23402539 116 18335420157969708388
23419403 2 14881268203028775180
23557571 272 17458335351436363973
23598288 3 18042416892057356775
312423 11 18199466743982074846
34934 24 18270963578357484189
392239 28 18041004994842396496
9981440 41 16676702117523526817

> <PUBCHEM_SHAPE_MULTIPOLES>
500.74
8.19
3.04
1.87
1.92
0.53
0.94
-4.38
-2.01
0.26
0.39
-0.89
0.27
-1.86

> <PUBCHEM_SHAPE_SELFOVERLAP>
1075.552

> <PUBCHEM_SHAPE_VOLUME>
273.5

> <PUBCHEM_COORDINATE_TYPE>
2
5
10

$$$$

