6921
  -OEChem-06261201353D

 15 15  0     0  0  0  0  0  0999 V2000
    0.2130   -2.4919    0.0015 Cl  0  0  0  0  0  0  0  0  0  0  0  0
    2.0477    1.5559   -0.0012 F   0  0  0  0  0  0  0  0  0  0  0  0
    2.1182   -0.3210    1.0835 F   0  0  0  0  0  0  0  0  0  0  0  0
    2.0954   -0.3253   -1.0908 F   0  0  0  0  0  0  0  0  0  0  0  0
    0.0573    0.2287    0.0013 C   0  0  0  0  0  0  0  0  0  0  0  0
   -0.6293   -0.9855    0.0019 C   0  0  0  0  0  0  0  0  0  0  0  0
   -0.6509    1.4304    0.0006 C   0  0  0  0  0  0  0  0  0  0  0  0
    1.5507    0.2849    0.0003 C   0  0  0  0  0  0  0  0  0  0  0  0
   -2.0241   -0.9980    0.0016 C   0  0  0  0  0  0  0  0  0  0  0  0
   -2.0457    1.4180    0.0004 C   0  0  0  0  0  0  0  0  0  0  0  0
   -2.7323    0.2038    0.0009 C   0  0  0  0  0  0  0  0  0  0  0  0
   -0.1385    2.3884    0.0000 H   0  0  0  0  0  0  0  0  0  0  0  0
   -2.5743   -1.9356    0.0018 H   0  0  0  0  0  0  0  0  0  0  0  0
   -2.5974    2.3535   -0.0003 H   0  0  0  0  0  0  0  0  0  0  0  0
   -3.8184    0.1943    0.0006 H   0  0  0  0  0  0  0  0  0  0  0  0
  1  6  1  0  0  0  0
  2  8  1  0  0  0  0
  3  8  1  0  0  0  0
  4  8  1  0  0  0  0
  5  6  1  0  0  0  0
  5  7  2  0  0  0  0
  5  8  1  0  0  0  0
  6  9  2  0  0  0  0
  7 10  1  0  0  0  0
  7 12  1  0  0  0  0
  9 11  1  0  0  0  0
  9 13  1  0  0  0  0
 10 11  2  0  0  0  0
 10 14  1  0  0  0  0
 11 15  1  0  0  0  0
M  END
> <PUBCHEM_COMPOUND_CID>
6921

> <PUBCHEM_CONFORMER_RMSD>
0.4

> <PUBCHEM_CONFORMER_DIVERSEORDER>
1

> <PUBCHEM_MMFF94_PARTIAL_CHARGES>
15
1 -0.18
10 -0.15
11 -0.15
12 0.15
13 0.15
14 0.15
15 0.15
2 -0.34
3 -0.34
4 -0.34
5 -0.14
6 0.18
7 -0.15
8 1.16
9 -0.15

> <PUBCHEM_EFFECTIVE_ROTOR_COUNT>
1

> <PUBCHEM_PHARMACOPHORE_FEATURES>
1
6 5 6 7 9 10 11 rings

> <PUBCHEM_HEAVY_ATOM_COUNT>
11

> <PUBCHEM_ATOM_DEF_STEREO_COUNT>
0

> <PUBCHEM_ATOM_UDEF_STEREO_COUNT>
0

> <PUBCHEM_BOND_DEF_STEREO_COUNT>
0

> <PUBCHEM_BOND_UDEF_STEREO_COUNT>
0

> <PUBCHEM_ISOTOPIC_ATOM_COUNT>
0

> <PUBCHEM_COMPONENT_COUNT>
1

> <PUBCHEM_CACTVS_TAUTO_COUNT>
1

> <PUBCHEM_CONFORMER_ID>
00001B0900000001

> <PUBCHEM_MMFF94_ENERGY>
18.7246

> <PUBCHEM_FEATURE_SELFOVERLAP>
5.074

> <PUBCHEM_SHAPE_FINGERPRINT>
12423570 1 5833451764412496579
12524768 44 18191581960835028533
12897270 3 18411135861690213189
16945 1 18338799030390374437
18185500 45 17837776629508784595
20871998 184 17972874752837798895
21040471 1 18338799030216275143
23552423 10 18269269239254514479
23559900 14 18117267259448784654
241688 4 17258497176205486123
2748010 2 18339360747656565869
29004967 10 16370725924167158137
369184 2 18060427893311030201
5084963 1 18113330933709188297

> <PUBCHEM_SHAPE_MULTIPOLES>
206.42
3.29
2.04
0.74
0.21
0.88
0
-0.73
0.01
-0.09
0
-0.29
0.04
0

> <PUBCHEM_SHAPE_SELFOVERLAP>
426.906

> <PUBCHEM_SHAPE_VOLUME>
120

> <PUBCHEM_COORDINATE_TYPE>
2
5
10

$$$$

