17395662
  -OEChem-06241222513D

 53 55  0     1  0  0  0  0  0999 V2000
   -2.5256   -0.7372    1.9564 O   0  0  0  0  0  0  0  0  0  0  0  0
    5.9716    2.4914    0.6369 O   0  0  0  0  0  0  0  0  0  0  0  0
   -0.1652   -1.5859    0.5246 N   0  0  0  0  0  0  0  0  0  0  0  0
    2.4560   -0.6868   -0.1687 N   0  0  0  0  0  0  0  0  0  0  0  0
   -3.2993   -0.6068   -0.2559 N   0  0  0  0  0  0  0  0  0  0  0  0
    0.8636   -2.5474    0.1090 C   0  0  0  0  0  0  0  0  0  0  0  0
    0.0208   -0.3163   -0.1885 C   0  0  0  0  0  0  0  0  0  0  0  0
    2.2661   -2.0190    0.4189 C   0  0  0  0  0  0  0  0  0  0  0  0
    1.3956    0.2865    0.1103 C   0  0  0  0  0  0  0  0  0  0  0  0
   -1.5015   -2.1244    0.2738 C   0  0  1  0  0  0  0  0  0  0  0  0
    3.7658   -0.2436   -0.3838 C   0  0  0  0  0  0  0  0  0  0  0  0
   -1.6637   -3.4560    0.9973 C   0  0  0  0  0  0  0  0  0  0  0  0
   -2.4962   -1.0814    0.7781 C   0  0  0  0  0  0  0  0  0  0  0  0
    4.2204    0.9182    0.2401 C   0  0  0  0  0  0  0  0  0  0  0  0
    4.6175   -0.9655   -1.2198 C   0  0  0  0  0  0  0  0  0  0  0  0
    5.5269    1.3584    0.0275 C   0  0  0  0  0  0  0  0  0  0  0  0
    5.9239   -0.5254   -1.4323 C   0  0  0  0  0  0  0  0  0  0  0  0
   -4.3291    0.3605   -0.1752 C   0  0  0  0  0  0  0  0  0  0  0  0
    6.3786    0.6365   -0.8088 C   0  0  0  0  0  0  0  0  0  0  0  0
   -5.0501    0.7345   -1.3092 C   0  0  0  0  0  0  0  0  0  0  0  0
   -4.6195    0.9421    1.0591 C   0  0  0  0  0  0  0  0  0  0  0  0
   -6.0615    1.6899   -1.2089 C   0  0  0  0  0  0  0  0  0  0  0  0
   -4.7608    0.1283   -2.6442 C   0  0  0  0  0  0  0  0  0  0  0  0
   -5.6310    1.8974    1.1593 C   0  0  0  0  0  0  0  0  0  0  0  0
   -6.3519    2.2713    0.0253 C   0  0  0  0  0  0  0  0  0  0  0  0
    5.0487    3.1808    1.4787 C   0  0  0  0  0  0  0  0  0  0  0  0
    0.7850   -3.4952    0.6502 H   0  0  0  0  0  0  0  0  0  0  0  0
    0.7819   -2.7685   -0.9639 H   0  0  0  0  0  0  0  0  0  0  0  0
   -0.0863   -0.4615   -1.2723 H   0  0  0  0  0  0  0  0  0  0  0  0
   -0.7120    0.4400    0.1121 H   0  0  0  0  0  0  0  0  0  0  0  0
    2.4158   -1.9577    1.5048 H   0  0  0  0  0  0  0  0  0  0  0  0
    2.9953   -2.7408    0.0334 H   0  0  0  0  0  0  0  0  0  0  0  0
    1.4375    0.5950    1.1629 H   0  0  0  0  0  0  0  0  0  0  0  0
    1.5166    1.1814   -0.5131 H   0  0  0  0  0  0  0  0  0  0  0  0
   -1.6505   -2.3059   -0.7987 H   0  0  0  0  0  0  0  0  0  0  0  0
   -1.2916   -3.4147    2.0280 H   0  0  0  0  0  0  0  0  0  0  0  0
   -2.7265   -3.7192    1.0614 H   0  0  0  0  0  0  0  0  0  0  0  0
   -1.1709   -4.2812    0.4731 H   0  0  0  0  0  0  0  0  0  0  0  0
    3.5411    1.4449    0.8994 H   0  0  0  0  0  0  0  0  0  0  0  0
    4.2780   -1.8654   -1.7260 H   0  0  0  0  0  0  0  0  0  0  0  0
   -3.1373   -0.9926   -1.1814 H   0  0  0  0  0  0  0  0  0  0  0  0
    6.5861   -1.0855   -2.0859 H   0  0  0  0  0  0  0  0  0  0  0  0
    7.3972    0.9745   -0.9787 H   0  0  0  0  0  0  0  0  0  0  0  0
   -4.1123    0.7101    1.9840 H   0  0  0  0  0  0  0  0  0  0  0  0
   -6.6333    1.9931   -2.0819 H   0  0  0  0  0  0  0  0  0  0  0  0
   -5.4151    0.5333   -3.4242 H   0  0  0  0  0  0  0  0  0  0  0  0
   -4.9221   -0.9545   -2.6186 H   0  0  0  0  0  0  0  0  0  0  0  0
   -3.7298    0.3386   -2.9475 H   0  0  0  0  0  0  0  0  0  0  0  0
   -5.8585    2.3509    2.1198 H   0  0  0  0  0  0  0  0  0  0  0  0
   -7.1394    3.0151    0.1036 H   0  0  0  0  0  0  0  0  0  0  0  0
    4.1853    3.5496    0.9145 H   0  0  0  0  0  0  0  0  0  0  0  0
    4.7552    2.5705    2.3396 H   0  0  0  0  0  0  0  0  0  0  0  0
    5.5684    4.0595    1.8746 H   0  0  0  0  0  0  0  0  0  0  0  0
  1 13  2  0  0  0  0
  2 16  1  0  0  0  0
  2 26  1  0  0  0  0
  3  6  1  0  0  0  0
  3  7  1  0  0  0  0
  3 10  1  0  0  0  0
  4  8  1  0  0  0  0
  4  9  1  0  0  0  0
  4 11  1  0  0  0  0
  5 13  1  0  0  0  0
  5 18  1  0  0  0  0
  5 41  1  0  0  0  0
  6  8  1  0  0  0  0
  6 27  1  0  0  0  0
  6 28  1  0  0  0  0
  7  9  1  0  0  0  0
  7 29  1  0  0  0  0
  7 30  1  0  0  0  0
  8 31  1  0  0  0  0
  8 32  1  0  0  0  0
  9 33  1  0  0  0  0
  9 34  1  0  0  0  0
 10 12  1  0  0  0  0
 10 13  1  0  0  0  0
 10 35  1  0  0  0  0
 11 14  2  0  0  0  0
 11 15  1  0  0  0  0
 12 36  1  0  0  0  0
 12 37  1  0  0  0  0
 12 38  1  0  0  0  0
 14 16  1  0  0  0  0
 14 39  1  0  0  0  0
 15 17  2  0  0  0  0
 15 40  1  0  0  0  0
 16 19  2  0  0  0  0
 17 19  1  0  0  0  0
 17 42  1  0  0  0  0
 18 20  1  0  0  0  0
 18 21  2  0  0  0  0
 19 43  1  0  0  0  0
 20 22  2  0  0  0  0
 20 23  1  0  0  0  0
 21 24  1  0  0  0  0
 21 44  1  0  0  0  0
 22 25  1  0  0  0  0
 22 45  1  0  0  0  0
 23 46  1  0  0  0  0
 23 47  1  0  0  0  0
 23 48  1  0  0  0  0
 24 25  2  0  0  0  0
 24 49  1  0  0  0  0
 25 50  1  0  0  0  0
 26 51  1  0  0  0  0
 26 52  1  0  0  0  0
 26 53  1  0  0  0  0
M  END
> <PUBCHEM_COMPOUND_CID>
17395662

> <PUBCHEM_CONFORMER_RMSD>
1

> <PUBCHEM_CONFORMER_DIVERSEORDER>
1
96
120
21
56
20
33
95
49
93
88
74
69
116
25
31
76
82
30
90
44
5
117
109
40
55
85
65
100
97
10
53
22
27
24
103
92
62
142
34
143
26
54
36
8
108
91
35
38
137
51
131
86
113
130
15
18
28
6
133
89
111
123
128
16
45
119
43
83
23
112
126
47
134
122
99
72
78
39
9
2
129
141
139
12
127
136
132
63
98
19
32
59
135
71
140
7
101
104
106
48
70
114
77
81
87
94
73
67
17
121
11
64
75
61
46
102
110
29
138
105
42
52
4
124
107
57
58
115
50
125
14
13
80
66
68
79
84
41
60
3
118
37

> <PUBCHEM_MMFF94_PARTIAL_CHARGES>
34
1 -0.57
10 0.33
11 0.1
13 0.57
14 -0.15
15 -0.15
16 0.08
17 -0.15
18 0.12
19 -0.15
2 -0.36
20 -0.14
21 -0.15
22 -0.15
23 0.14
24 -0.15
25 -0.15
26 0.28
3 -0.81
39 0.15
4 -0.84
40 0.15
41 0.37
42 0.15
43 0.15
44 0.15
45 0.15
49 0.15
5 -0.55
50 0.15
6 0.27
7 0.27
8 0.37
9 0.37

> <PUBCHEM_EFFECTIVE_ROTOR_COUNT>
7.2

> <PUBCHEM_PHARMACOPHORE_FEATURES>
8
1 1 acceptor
1 2 acceptor
1 3 cation
1 4 cation
1 5 donor
6 11 14 15 16 17 19 rings
6 18 20 21 22 24 25 rings
6 3 4 6 7 8 9 rings

> <PUBCHEM_HEAVY_ATOM_COUNT>
26

> <PUBCHEM_ATOM_DEF_STEREO_COUNT>
0

> <PUBCHEM_ATOM_UDEF_STEREO_COUNT>
1

> <PUBCHEM_BOND_DEF_STEREO_COUNT>
0

> <PUBCHEM_BOND_UDEF_STEREO_COUNT>
0

> <PUBCHEM_ISOTOPIC_ATOM_COUNT>
0

> <PUBCHEM_COMPONENT_COUNT>
1

> <PUBCHEM_CACTVS_TAUTO_COUNT>
2

> <PUBCHEM_CONFORMER_ID>
01096FCE00000001

> <PUBCHEM_MMFF94_ENERGY>
98.086

> <PUBCHEM_FEATURE_SELFOVERLAP>
40.597

> <PUBCHEM_SHAPE_FINGERPRINT>
10 15 16271917221005298613
10029044 110 16915961746025821661
10319926 262 14979676680053670891
105312 117 18342735213304227911
10835480 77 18261956250459537144
11089746 13 18261112984938031150
11809386 21 6555146990338453318
12293681 160 18186800322547734883
12403259 118 17632007538170738534
12403259 415 18337946805499277770
12422481 6 17060626594286268526
13540713 4 18269252660592003794
13690498 29 17241624831782274623
14123256 34 7637395242213490109
14251764 30 10447930568049300268
14556957 393 16298374764962513897
14950920 106 14189568616202049773
15081414 286 18130499850763565853
15183329 4 17385723637939947485
15530120 55 16951142655020838188
1768 210 18337686221697013021
17780758 139 12175621785451800695
18608769 82 18338513029141178603
18927931 339 6122505718334904789
20281389 69 18060700597695315095
20691028 202 18341607135912367109
20715895 44 18409450267837419288
21033648 144 18130510825106984135
21033648 29 18272650104629521248
21033650 10 15719950358639497075
21279426 13 18334285458133746866
21401589 2 17917709115494528211
21774942 28 17822852108451675152
23198884 109 17967816068001184405
23522609 53 8933871308294193299
23559900 14 18334005074411337530
25122255 55 7132431332875404125
2748736 6 18411146800951284728
2838139 119 18338803415372616213
293599 30 18272646870092132719
312425 54 12247682703256741845
3459 39 17846505811319780308
3663271 9 13398627260007780308
376196 1 18410572864645983490
4015057 19 17749388118270865920
4938544 92 11887686095544123991
50009960 94 7131062342822496892
5104073 3 18060138743033025370
5385378 56 18059289988728255747
7970288 3 9295283932928729001

> <PUBCHEM_SHAPE_MULTIPOLES>
508.39
18.58
3.16
1.59
2.33
0.43
0.53
-16.21
4.39
0.76
-1.55
-1.48
-0.24
1.91

> <PUBCHEM_SHAPE_SELFOVERLAP>
1074.41

> <PUBCHEM_SHAPE_VOLUME>
285.4

> <PUBCHEM_COORDINATE_TYPE>
2
5
10

$$$$

