9401
  -OEChem-06261203403D

 72 75  0     1  0  0  0  0  0999 V2000
    6.8589    1.7124    0.2772 O   0  0  0  0  0  0  0  0  0  0  0  0
   -1.3556   -1.1985   -0.4170 C   0  0  1  0  0  0  0  0  0  0  0  0
   -0.2954   -1.8406    0.4998 C   0  0  2  0  0  0  0  0  0  0  0  0
    1.1427   -1.5501    0.0589 C   0  0  1  0  0  0  0  0  0  0  0  0
    1.3722   -0.0112    0.0160 C   0  0  1  0  0  0  0  0  0  0  0  0
   -2.6351   -1.7355    0.2694 C   0  0  2  0  0  0  0  0  0  0  0  0
   -1.1734    0.3237   -0.3368 C   0  0  0  0  0  0  0  0  0  0  0  0
    2.8343    0.3424   -0.4721 C   0  0  2  0  0  0  0  0  0  0  0  0
   -0.7492   -3.2925    0.6173 C   0  0  0  0  0  0  0  0  0  0  0  0
    0.2488    0.7429   -0.7477 C   0  0  0  0  0  0  0  0  0  0  0  0
   -2.2868   -3.2078    0.5921 C   0  0  0  0  0  0  0  0  0  0  0  0
    2.1483   -2.2082    1.0154 C   0  0  0  0  0  0  0  0  0  0  0  0
   -3.9360   -1.5913   -0.5070 C   0  0  2  0  0  0  0  0  0  0  0  0
   -1.2769   -1.6619   -1.8929 C   0  0  0  0  0  0  0  0  0  0  0  0
    3.8713   -0.5590    0.2126 C   0  0  0  0  0  0  0  0  0  0  0  0
    3.1263    1.8274   -0.1022 C   0  0  0  0  0  0  0  0  0  0  0  0
    3.5398   -1.6787    0.8788 C   0  0  0  0  0  0  0  0  0  0  0  0
    2.9768    0.1579   -2.0021 C   0  0  0  0  0  0  0  0  0  0  0  0
    5.3197   -0.1370    0.1218 C   0  0  0  0  0  0  0  0  0  0  0  0
    4.5886    2.2407   -0.2631 C   0  0  0  0  0  0  0  0  0  0  0  0
   -4.2878   -0.1174   -0.8066 C   0  0  0  0  0  0  0  0  0  0  0  0
    5.5127    1.3215    0.5277 C   0  0  2  0  0  0  0  0  0  0  0  0
   -5.0844   -2.2404    0.2757 C   0  0  0  0  0  0  0  0  0  0  0  0
   -4.4247    0.7871    0.4262 C   0  0  0  0  0  0  0  0  0  0  0  0
   -4.7104    2.2187    0.0670 C   0  0  0  0  0  0  0  0  0  0  0  0
   -4.0322    3.3236    0.4308 C   0  0  0  0  0  0  0  0  0  0  0  0
   -4.4807    4.6804   -0.0453 C   0  0  0  0  0  0  0  0  0  0  0  0
   -2.8117    3.3515    1.3061 C   0  0  0  0  0  0  0  0  0  0  0  0
   -0.4058   -1.4066    1.5082 H   0  0  0  0  0  0  0  0  0  0  0  0
    1.3087   -1.9734   -0.9381 H   0  0  0  0  0  0  0  0  0  0  0  0
    1.2928    0.3322    1.0606 H   0  0  0  0  0  0  0  0  0  0  0  0
   -2.7429   -1.2386    1.2438 H   0  0  0  0  0  0  0  0  0  0  0  0
   -1.3380    0.6676    0.6905 H   0  0  0  0  0  0  0  0  0  0  0  0
   -1.8533    0.8793   -0.9792 H   0  0  0  0  0  0  0  0  0  0  0  0
   -0.3918   -3.7599    1.5405 H   0  0  0  0  0  0  0  0  0  0  0  0
   -0.3858   -3.8959   -0.2220 H   0  0  0  0  0  0  0  0  0  0  0  0
    0.3515    0.5953   -1.8266 H   0  0  0  0  0  0  0  0  0  0  0  0
    0.3464    1.8208   -0.5752 H   0  0  0  0  0  0  0  0  0  0  0  0
   -2.6746   -3.9023   -0.1619 H   0  0  0  0  0  0  0  0  0  0  0  0
   -2.7074   -3.5028    1.5601 H   0  0  0  0  0  0  0  0  0  0  0  0
    2.1636   -3.2890    0.8300 H   0  0  0  0  0  0  0  0  0  0  0  0
    1.8371   -2.0704    2.0585 H   0  0  0  0  0  0  0  0  0  0  0  0
   -3.8717   -2.1195   -1.4662 H   0  0  0  0  0  0  0  0  0  0  0  0
   -1.9988   -1.1237   -2.5160 H   0  0  0  0  0  0  0  0  0  0  0  0
   -0.2940   -1.4852   -2.3379 H   0  0  0  0  0  0  0  0  0  0  0  0
   -1.4837   -2.7308   -2.0068 H   0  0  0  0  0  0  0  0  0  0  0  0
    2.8391    2.0087    0.9426 H   0  0  0  0  0  0  0  0  0  0  0  0
    2.5117    2.5005   -0.7117 H   0  0  0  0  0  0  0  0  0  0  0  0
    4.3175   -2.2654    1.3619 H   0  0  0  0  0  0  0  0  0  0  0  0
    2.3716    0.8833   -2.5553 H   0  0  0  0  0  0  0  0  0  0  0  0
    4.0073    0.3000   -2.3446 H   0  0  0  0  0  0  0  0  0  0  0  0
    2.6744   -0.8450   -2.3207 H   0  0  0  0  0  0  0  0  0  0  0  0
    5.9635   -0.7668    0.7495 H   0  0  0  0  0  0  0  0  0  0  0  0
    5.6860   -0.2921   -0.9009 H   0  0  0  0  0  0  0  0  0  0  0  0
    4.8744    2.2462   -1.3222 H   0  0  0  0  0  0  0  0  0  0  0  0
    4.7210    3.2750    0.0779 H   0  0  0  0  0  0  0  0  0  0  0  0
   -5.2576   -0.1121   -1.3268 H   0  0  0  0  0  0  0  0  0  0  0  0
   -3.6085    0.3035   -1.5490 H   0  0  0  0  0  0  0  0  0  0  0  0
    5.3228    1.4446    1.6010 H   0  0  0  0  0  0  0  0  0  0  0  0
   -5.1407   -1.8717    1.3052 H   0  0  0  0  0  0  0  0  0  0  0  0
   -6.0477   -2.0442   -0.2077 H   0  0  0  0  0  0  0  0  0  0  0  0
   -4.9701   -3.3285    0.3196 H   0  0  0  0  0  0  0  0  0  0  0  0
   -3.5476    0.7157    1.0649 H   0  0  0  0  0  0  0  0  0  0  0  0
   -5.2679    0.4390    1.0348 H   0  0  0  0  0  0  0  0  0  0  0  0
    7.4357    1.1212    0.7904 H   0  0  0  0  0  0  0  0  0  0  0  0
   -5.5898    2.3488   -0.5633 H   0  0  0  0  0  0  0  0  0  0  0  0
   -5.3607    4.6262   -0.6949 H   0  0  0  0  0  0  0  0  0  0  0  0
   -4.7371    5.3166    0.8081 H   0  0  0  0  0  0  0  0  0  0  0  0
   -3.6797    5.1654   -0.6129 H   0  0  0  0  0  0  0  0  0  0  0  0
   -2.9339    4.0987    2.0979 H   0  0  0  0  0  0  0  0  0  0  0  0
   -2.6084    2.4030    1.8057 H   0  0  0  0  0  0  0  0  0  0  0  0
   -1.9306    3.6204    0.7144 H   0  0  0  0  0  0  0  0  0  0  0  0
  1 22  1  0  0  0  0
  1 65  1  0  0  0  0
  2  3  1  0  0  0  0
  2  6  1  0  0  0  0
  2  7  1  0  0  0  0
  2 14  1  0  0  0  0
  3  4  1  0  0  0  0
  3  9  1  0  0  0  0
  3 29  1  0  0  0  0
  4  5  1  0  0  0  0
  4 12  1  0  0  0  0
  4 30  1  0  0  0  0
  5  8  1  0  0  0  0
  5 10  1  0  0  0  0
  5 31  1  0  0  0  0
  6 11  1  0  0  0  0
  6 13  1  0  0  0  0
  6 32  1  0  0  0  0
  7 10  1  0  0  0  0
  7 33  1  0  0  0  0
  7 34  1  0  0  0  0
  8 15  1  0  0  0  0
  8 16  1  0  0  0  0
  8 18  1  0  0  0  0
  9 11  1  0  0  0  0
  9 35  1  0  0  0  0
  9 36  1  0  0  0  0
 10 37  1  0  0  0  0
 10 38  1  0  0  0  0
 11 39  1  0  0  0  0
 11 40  1  0  0  0  0
 12 17  1  0  0  0  0
 12 41  1  0  0  0  0
 12 42  1  0  0  0  0
 13 21  1  0  0  0  0
 13 23  1  0  0  0  0
 13 43  1  0  0  0  0
 14 44  1  0  0  0  0
 14 45  1  0  0  0  0
 14 46  1  0  0  0  0
 15 17  2  0  0  0  0
 15 19  1  0  0  0  0
 16 20  1  0  0  0  0
 16 47  1  0  0  0  0
 16 48  1  0  0  0  0
 17 49  1  0  0  0  0
 18 50  1  0  0  0  0
 18 51  1  0  0  0  0
 18 52  1  0  0  0  0
 19 22  1  0  0  0  0
 19 53  1  0  0  0  0
 19 54  1  0  0  0  0
 20 22  1  0  0  0  0
 20 55  1  0  0  0  0
 20 56  1  0  0  0  0
 21 24  1  0  0  0  0
 21 57  1  0  0  0  0
 21 58  1  0  0  0  0
 22 59  1  0  0  0  0
 23 60  1  0  0  0  0
 23 61  1  0  0  0  0
 23 62  1  0  0  0  0
 24 25  1  0  0  0  0
 24 63  1  0  0  0  0
 24 64  1  0  0  0  0
 25 26  2  0  0  0  0
 25 66  1  0  0  0  0
 26 27  1  0  0  0  0
 26 28  1  0  0  0  0
 27 67  1  0  0  0  0
 27 68  1  0  0  0  0
 27 69  1  0  0  0  0
 28 70  1  0  0  0  0
 28 71  1  0  0  0  0
 28 72  1  0  0  0  0
M  END
> <PUBCHEM_COMPOUND_CID>
9401

> <PUBCHEM_CONFORMER_RMSD>
0.8

> <PUBCHEM_CONFORMER_DIVERSEORDER>
1
18
15
19
2
10
17
7
13
4
16
20
9
6
11
8
14
3
12
5

> <PUBCHEM_MMFF94_PARTIAL_CHARGES>
15
1 -0.68
12 0.14
15 -0.28
17 -0.29
19 0.14
22 0.28
24 0.14
25 -0.29
26 -0.28
27 0.14
28 0.14
49 0.15
65 0.4
66 0.15
8 0.14

> <PUBCHEM_EFFECTIVE_ROTOR_COUNT>
6

> <PUBCHEM_PHARMACOPHORE_FEATURES>
9
1 1 acceptor
1 1 donor
1 23 hydrophobe
3 26 27 28 hydrophobe
4 13 21 24 25 hydrophobe
5 2 3 6 9 11 rings
6 2 3 4 5 7 10 rings
6 4 5 8 12 15 17 rings
6 8 15 16 19 20 22 rings

> <PUBCHEM_HEAVY_ATOM_COUNT>
28

> <PUBCHEM_ATOM_DEF_STEREO_COUNT>
7

> <PUBCHEM_ATOM_UDEF_STEREO_COUNT>
1

> <PUBCHEM_BOND_DEF_STEREO_COUNT>
0

> <PUBCHEM_BOND_UDEF_STEREO_COUNT>
0

> <PUBCHEM_ISOTOPIC_ATOM_COUNT>
0

> <PUBCHEM_COMPONENT_COUNT>
1

> <PUBCHEM_CACTVS_TAUTO_COUNT>
1

> <PUBCHEM_CONFORMER_ID>
000024B900000001

> <PUBCHEM_MMFF94_ENERGY>
81.6409

> <PUBCHEM_FEATURE_SELFOVERLAP>
45.771

> <PUBCHEM_SHAPE_FINGERPRINT>
10411042 1 17762336916841865867
10675989 125 17185031112659318385
10906281 52 17703496711379292790
1100329 8 17978792633603335131
11513181 2 18187646954943948631
11578080 2 15648985644314166451
12107183 9 18053391177649097586
12390115 104 18410284839479402372
12422481 6 17774170144225299308
12788726 201 18267007385048821149
13073987 5 18413390929752763458
13140716 1 17838048204765453515
13965767 371 17843681303582344829
14251764 75 17756698995172211057
14394314 77 18336542807489375401
14466204 15 18410013230195830904
14739800 52 18336561446981912136
14790565 3 18340205283949859930
16112460 7 18200317740053700362
18603816 31 12894247101181495945
19309040 13 17097770434015675037
20739085 24 17772177858898709277
21033648 144 18272098248423898669
21033650 10 18266435690410279006
21236236 1 18409168796664980757
21279426 13 18336261336194844758
21304253 335 18272367594412893670
21421861 104 17774455987605828258
23522609 53 17774985883697122676
23559900 14 18340208480429076870
23569914 2 17100640030267362864
283562 15 18413112741248986347
3117164 225 18125443261238683859
3633792 109 18058468581292715519
3680242 22 18060150838404261410
397830 11 11599717317492052980
4144715 1 18341886415986826818
445580 37 18338506457572118876
44802255 64 17458625567209411172
460360 51 18267847519027257298
469060 322 18267561569580692393
5104073 3 18131636698605745938
5171179 24 17533235076085763433
5283173 99 18334856117184628232
550186 7 18187355528596142981
636775 72 18263370192617631504
6608658 132 18261685779146282775
7226269 152 18338519629576990681
7808743 9 18336548317483250161
9849439 229 18050559944589130389
9981440 41 18270110336154451593

> <PUBCHEM_SHAPE_MULTIPOLES>
570.36
12.84
4.67
1.16
8.04
3.17
-0.4
9.2
1.22
-6.71
1.26
0.14
-0.18
-0.95

> <PUBCHEM_SHAPE_SELFOVERLAP>
1186.507

> <PUBCHEM_SHAPE_VOLUME>
324.4

> <PUBCHEM_COORDINATE_TYPE>
2
5
10

$$$$

