10525
  -OEChem-06261204383D

 80 85  0     1  0  0  0  0  0999 V2000
   -2.0433    2.0002    2.3202 O   0  0  0  0  0  0  0  0  0  0  0  0
    3.1505   -1.2209    0.2327 O   0  0  0  0  0  0  0  0  0  0  0  0
    0.9061   -3.5781    1.1699 O   0  0  0  0  0  0  0  0  0  0  0  0
    4.3673    0.3077   -1.0381 O   0  0  0  0  0  0  0  0  0  0  0  0
   -7.7972    0.9765   -0.1600 O   0  0  0  0  0  0  0  0  0  0  0  0
    5.4356   -1.7894    1.7796 O   0  0  0  0  0  0  0  0  0  0  0  0
    6.8441    0.5670    1.4724 O   0  0  0  0  0  0  0  0  0  0  0  0
    7.9434    1.2390   -1.0203 O   0  0  0  0  0  0  0  0  0  0  0  0
   -9.4000   -0.4824   -0.8455 O   0  0  0  0  0  0  0  0  0  0  0  0
    4.0958    3.0490   -0.7962 O   0  0  0  0  0  0  0  0  0  0  0  0
   -2.0502    1.2098    1.1205 C   0  0  2  0  0  0  0  0  0  0  0  0
   -3.3312    0.2911    1.0654 C   0  0  2  0  0  0  0  0  0  0  0  0
   -0.7118    0.4137    1.1314 C   0  0  1  0  0  0  0  0  0  0  0  0
   -0.6620   -0.6855    0.0415 C   0  0  1  0  0  0  0  0  0  0  0  0
    0.7059   -1.4651    0.0059 C   0  0  2  0  0  0  0  0  0  0  0  0
   -2.9658   -1.2068    1.0983 C   0  0  0  0  0  0  0  0  0  0  0  0
   -4.0051    0.6843   -0.2888 C   0  0  2  0  0  0  0  0  0  0  0  0
   -1.8861   -1.6291    0.1059 C   0  0  0  0  0  0  0  0  0  0  0  0
   -2.1879    2.1901   -0.0708 C   0  0  0  0  0  0  0  0  0  0  0  0
    1.9350   -0.4923   -0.0054 C   0  0  1  0  0  0  0  0  0  0  0  0
    0.5064    1.3537    1.0332 C   0  0  0  0  0  0  0  0  0  0  0  0
   -3.6646    2.1639   -0.4389 C   0  0  0  0  0  0  0  0  0  0  0  0
    1.8213    0.5886    1.0841 C   0  0  0  0  0  0  0  0  0  0  0  0
   -4.2865    0.5429    2.2608 C   0  0  0  0  0  0  0  0  0  0  0  0
    0.8011   -2.3889   -1.2403 C   0  0  0  0  0  0  0  0  0  0  0  0
    0.7875   -2.3588    1.2299 C   0  0  0  0  0  0  0  0  0  0  0  0
   -5.4656    0.4005   -0.4238 C   0  0  0  0  0  0  0  0  0  0  0  0
    2.1385    0.1404   -1.3671 C   0  0  0  0  0  0  0  0  0  0  0  0
    0.8132   -1.6121   -2.5608 C   0  0  0  0  0  0  0  0  0  0  0  0
    1.6283   -0.3572   -2.5023 C   0  0  0  0  0  0  0  0  0  0  0  0
    4.2796   -0.3452    0.2292 C   0  0  2  0  0  0  0  0  0  0  0  0
   -5.8718   -0.8513   -1.0076 C   0  0  0  0  0  0  0  0  0  0  0  0
   -6.4267    1.2435   -0.0325 C   0  0  0  0  0  0  0  0  0  0  0  0
    5.5265   -1.1951    0.4883 C   0  0  1  0  0  0  0  0  0  0  0  0
   -7.1658   -1.1538   -1.1513 C   0  0  0  0  0  0  0  0  0  0  0  0
    6.8007   -0.3571    0.3855 C   0  0  1  0  0  0  0  0  0  0  0  0
    5.5043    1.1600   -1.2090 C   0  0  2  0  0  0  0  0  0  0  0  0
    6.8080    0.3879   -0.9491 C   0  0  1  0  0  0  0  0  0  0  0  0
   -8.2120   -0.2064   -0.7133 C   0  0  0  0  0  0  0  0  0  0  0  0
    5.3345    2.4659   -0.4335 C   0  0  0  0  0  0  0  0  0  0  0  0
   -0.6415   -0.0703    2.1160 H   0  0  0  0  0  0  0  0  0  0  0  0
   -0.7514   -0.1580   -0.9157 H   0  0  0  0  0  0  0  0  0  0  0  0
   -2.6099   -1.4647    2.1056 H   0  0  0  0  0  0  0  0  0  0  0  0
   -3.8567   -1.8259    0.9376 H   0  0  0  0  0  0  0  0  0  0  0  0
   -3.4873    0.1812   -1.1177 H   0  0  0  0  0  0  0  0  0  0  0  0
   -1.5987   -2.6547    0.3604 H   0  0  0  0  0  0  0  0  0  0  0  0
   -2.3199   -1.7056   -0.8991 H   0  0  0  0  0  0  0  0  0  0  0  0
   -1.6150    1.8535   -0.9414 H   0  0  0  0  0  0  0  0  0  0  0  0
   -1.8678    3.2105    0.1642 H   0  0  0  0  0  0  0  0  0  0  0  0
    0.5045    2.0703    1.8620 H   0  0  0  0  0  0  0  0  0  0  0  0
    0.4684    1.9439    0.1108 H   0  0  0  0  0  0  0  0  0  0  0  0
   -4.2120    2.8121    0.2534 H   0  0  0  0  0  0  0  0  0  0  0  0
   -3.8318    2.5325   -1.4565 H   0  0  0  0  0  0  0  0  0  0  0  0
    1.9583    0.1453    2.0786 H   0  0  0  0  0  0  0  0  0  0  0  0
    2.5891    1.3645    0.9962 H   0  0  0  0  0  0  0  0  0  0  0  0
   -4.6377    1.5793    2.2971 H   0  0  0  0  0  0  0  0  0  0  0  0
   -3.7784    0.3386    3.2111 H   0  0  0  0  0  0  0  0  0  0  0  0
   -5.1611   -0.1162    2.2324 H   0  0  0  0  0  0  0  0  0  0  0  0
   -0.0139   -3.1223   -1.2678 H   0  0  0  0  0  0  0  0  0  0  0  0
    1.7248   -2.9836   -1.1888 H   0  0  0  0  0  0  0  0  0  0  0  0
   -1.4344    2.7479    2.2053 H   0  0  0  0  0  0  0  0  0  0  0  0
    0.7424   -1.8601    2.2115 H   0  0  0  0  0  0  0  0  0  0  0  0
    2.4798    1.1713   -1.4386 H   0  0  0  0  0  0  0  0  0  0  0  0
    1.2053   -2.2607   -3.3528 H   0  0  0  0  0  0  0  0  0  0  0  0
   -0.2118   -1.3511   -2.8490 H   0  0  0  0  0  0  0  0  0  0  0  0
    1.7193    0.2187   -3.4191 H   0  0  0  0  0  0  0  0  0  0  0  0
    4.2215    0.3680    1.0543 H   0  0  0  0  0  0  0  0  0  0  0  0
   -5.1126   -1.5538   -1.3347 H   0  0  0  0  0  0  0  0  0  0  0  0
   -6.2980    2.2118    0.4272 H   0  0  0  0  0  0  0  0  0  0  0  0
    5.5643   -2.0093   -0.2465 H   0  0  0  0  0  0  0  0  0  0  0  0
   -7.4795   -2.0938   -1.5903 H   0  0  0  0  0  0  0  0  0  0  0  0
    7.6949   -0.9832    0.4819 H   0  0  0  0  0  0  0  0  0  0  0  0
    5.4981    1.4359   -2.2717 H   0  0  0  0  0  0  0  0  0  0  0  0
    6.9153   -0.3614   -1.7438 H   0  0  0  0  0  0  0  0  0  0  0  0
    6.2371   -2.3237    1.9124 H   0  0  0  0  0  0  0  0  0  0  0  0
    5.3032    2.3138    0.6466 H   0  0  0  0  0  0  0  0  0  0  0  0
    6.1340    3.1788   -0.6565 H   0  0  0  0  0  0  0  0  0  0  0  0
    6.7952    0.0513    2.2954 H   0  0  0  0  0  0  0  0  0  0  0  0
    7.9545    1.7916   -0.2205 H   0  0  0  0  0  0  0  0  0  0  0  0
    4.1233    3.2334   -1.7505 H   0  0  0  0  0  0  0  0  0  0  0  0
  1 11  1  0  0  0  0
  1 61  1  0  0  0  0
  2 20  1  0  0  0  0
  2 31  1  0  0  0  0
  3 26  2  0  0  0  0
  4 31  1  0  0  0  0
  4 37  1  0  0  0  0
  5 33  1  0  0  0  0
  5 39  1  0  0  0  0
  6 34  1  0  0  0  0
  6 75  1  0  0  0  0
  7 36  1  0  0  0  0
  7 78  1  0  0  0  0
  8 38  1  0  0  0  0
  8 79  1  0  0  0  0
  9 39  2  0  0  0  0
 10 40  1  0  0  0  0
 10 80  1  0  0  0  0
 11 12  1  0  0  0  0
 11 13  1  0  0  0  0
 11 19  1  0  0  0  0
 12 16  1  0  0  0  0
 12 17  1  0  0  0  0
 12 24  1  0  0  0  0
 13 14  1  0  0  0  0
 13 21  1  0  0  0  0
 13 41  1  0  0  0  0
 14 15  1  0  0  0  0
 14 18  1  0  0  0  0
 14 42  1  0  0  0  0
 15 20  1  0  0  0  0
 15 25  1  0  0  0  0
 15 26  1  0  0  0  0
 16 18  1  0  0  0  0
 16 43  1  0  0  0  0
 16 44  1  0  0  0  0
 17 22  1  0  0  0  0
 17 27  1  0  0  0  0
 17 45  1  0  0  0  0
 18 46  1  0  0  0  0
 18 47  1  0  0  0  0
 19 22  1  0  0  0  0
 19 48  1  0  0  0  0
 19 49  1  0  0  0  0
 20 23  1  0  0  0  0
 20 28  1  0  0  0  0
 21 23  1  0  0  0  0
 21 50  1  0  0  0  0
 21 51  1  0  0  0  0
 22 52  1  0  0  0  0
 22 53  1  0  0  0  0
 23 54  1  0  0  0  0
 23 55  1  0  0  0  0
 24 56  1  0  0  0  0
 24 57  1  0  0  0  0
 24 58  1  0  0  0  0
 25 29  1  0  0  0  0
 25 59  1  0  0  0  0
 25 60  1  0  0  0  0
 26 62  1  0  0  0  0
 27 32  1  0  0  0  0
 27 33  2  0  0  0  0
 28 30  2  0  0  0  0
 28 63  1  0  0  0  0
 29 30  1  0  0  0  0
 29 64  1  0  0  0  0
 29 65  1  0  0  0  0
 30 66  1  0  0  0  0
 31 34  1  0  0  0  0
 31 67  1  0  0  0  0
 32 35  2  0  0  0  0
 32 68  1  0  0  0  0
 33 69  1  0  0  0  0
 34 36  1  0  0  0  0
 34 70  1  0  0  0  0
 35 39  1  0  0  0  0
 35 71  1  0  0  0  0
 36 38  1  0  0  0  0
 36 72  1  0  0  0  0
 37 38  1  0  0  0  0
 37 40  1  0  0  0  0
 37 73  1  0  0  0  0
 38 74  1  0  0  0  0
 40 76  1  0  0  0  0
 40 77  1  0  0  0  0
M  END
> <PUBCHEM_COMPOUND_CID>
10525

> <PUBCHEM_CONFORMER_RMSD>
1

> <PUBCHEM_CONFORMER_DIVERSEORDER>
1
25
21
17
6
15
18
12
23
26
9
10
20
2
11
3
19
24
8
14
4
27
13
7
22
16
5

> <PUBCHEM_MMFF94_PARTIAL_CHARGES>
40
1 -0.68
10 -0.68
11 0.28
15 0.06
17 0.14
2 -0.56
20 0.42
26 0.45
27 -0.14
28 -0.29
29 0.14
3 -0.57
30 -0.29
31 0.56
32 -0.15
33 -0.07
34 0.28
35 -0.14
36 0.28
37 0.28
38 0.28
39 0.71
4 -0.56
40 0.28
5 -0.23
6 -0.68
61 0.4
62 0.06
63 0.15
66 0.15
68 0.15
69 0.15
7 -0.68
71 0.15
75 0.4
78 0.4
79 0.4
8 -0.68
80 0.4
9 -0.57

> <PUBCHEM_EFFECTIVE_ROTOR_COUNT>
8

> <PUBCHEM_PHARMACOPHORE_FEATURES>
20
1 1 acceptor
1 1 donor
1 10 acceptor
1 10 donor
1 2 acceptor
1 3 acceptor
1 4 acceptor
1 6 acceptor
1 6 donor
1 7 acceptor
1 7 donor
1 8 acceptor
1 8 donor
1 9 acceptor
5 11 12 17 19 22 rings
6 11 12 13 14 16 18 rings
6 13 14 15 20 21 23 rings
6 15 20 25 28 29 30 rings
6 4 31 34 36 37 38 rings
6 5 27 32 33 35 39 rings

> <PUBCHEM_HEAVY_ATOM_COUNT>
40

> <PUBCHEM_ATOM_DEF_STEREO_COUNT>
7

> <PUBCHEM_ATOM_UDEF_STEREO_COUNT>
5

> <PUBCHEM_BOND_DEF_STEREO_COUNT>
0

> <PUBCHEM_BOND_UDEF_STEREO_COUNT>
0

> <PUBCHEM_ISOTOPIC_ATOM_COUNT>
0

> <PUBCHEM_COMPONENT_COUNT>
1

> <PUBCHEM_CACTVS_TAUTO_COUNT>
1

> <PUBCHEM_CONFORMER_ID>
0000291D00000001

> <PUBCHEM_MMFF94_ENERGY>
173.4812

> <PUBCHEM_FEATURE_SELFOVERLAP>
101.848

> <PUBCHEM_SHAPE_FINGERPRINT>
10076449 9 18113617868401663737
10674148 151 9799689303355018342
11421498 54 14418125261898548418
11963148 33 17749118793936789735
12422481 6 16917066707154289438
13150687 139 18342729728757643438
13617811 41 17458061560214570912
13673619 4 13984660369411793251
13782708 43 14996283647470413831
13811026 1 18131068251125372387
13914758 101 17489592298477609221
14068700 675 18187365428681090753
14118638 360 16660638609730055519
14294032 229 17968369160688696001
15082195 135 17822281363153548188
15131766 46 16843024314693313284
15183329 4 18411133632702634104
15461852 350 18413102840790232687
15840311 113 17846777404077909990
15849732 13 15841832257190570803
16728433 281 18053114102054443493
18365409 1 18059569127369987995
18608769 82 16081094749375651095
18681886 176 17385735672986976011
19301679 30 8285939959759494852
19319366 153 18272096028469852547
20105231 36 15140679172762855109
21033648 29 16415195607955706664
21223535 225 16056046882695078887
21344244 181 14273448180905805356
22149856 69 17240753026045129339
23559900 14 18201721700628494841
23569917 315 18187924045070805726
23569943 247 16373511120950734326
23576562 1 18192148200670537373
249057 3 15482665780672014571
2747138 104 16805325478905593475
34797466 226 14562817642313244226
3633792 109 18130508621007811858
4093350 32 15123522431482086304
4098825 35 18200881785593248301
4149490 64 17989484156698867859
4325135 7 18261110772861198941
437795 51 14345801543149591318
54039377 194 7420960759601066292
6081469 158 15554454028520532404
6371009 1 18342452647237057964
77296 10 17917420991481266306

> <PUBCHEM_SHAPE_MULTIPOLES>
764.49
21.19
2.55
1.87
12.89
0.19
-0.06
-4.05
-5.22
-1.17
0.18
-0.56
0.32
-1.78

> <PUBCHEM_SHAPE_SELFOVERLAP>
1663.584

> <PUBCHEM_SHAPE_VOLUME>
407

> <PUBCHEM_COORDINATE_TYPE>
2
5
10

$$$$

