6762
  -OEChem-06261201293D

 58 61  0     0  0  0  0  0  0999 V2000
   -0.3936    3.6897    0.7852 Cl  0  0  0  0  0  0  0  0  0  0  0  0
    5.3566    1.7091   -0.8322 S   0  0  0  0  0  0  0  0  0  0  0  0
   -7.1353    0.2331   -0.6797 O   0  0  0  0  0  0  0  0  0  0  0  0
   -8.1835    0.8582    1.2819 O   0  0  0  0  0  0  0  0  0  0  0  0
   -1.0653   -1.8949    0.2019 N   0  0  0  0  0  0  0  0  0  0  0  0
   -3.8947   -1.4530   -0.1958 N   0  0  0  0  0  0  0  0  0  0  0  0
    2.9321   -0.1443   -0.2394 N   0  0  0  0  0  0  0  0  0  0  0  0
   -1.8220   -0.9766    1.0618 C   0  0  0  0  0  0  0  0  0  0  0  0
   -1.9393   -2.9597   -0.3056 C   0  0  0  0  0  0  0  0  0  0  0  0
   -3.0205   -0.3876    0.3097 C   0  0  0  0  0  0  0  0  0  0  0  0
   -3.1384   -2.3708   -1.0565 C   0  0  0  0  0  0  0  0  0  0  0  0
    0.0755   -2.4582    0.9211 C   0  0  0  0  0  0  0  0  0  0  0  0
    1.2559   -1.4835    0.9759 C   0  0  0  0  0  0  0  0  0  0  0  0
   -5.0368   -0.8905   -0.9137 C   0  0  0  0  0  0  0  0  0  0  0  0
    1.7702   -1.0299   -0.3899 C   0  0  0  0  0  0  0  0  0  0  0  0
   -6.0532   -0.3166    0.0604 C   0  0  0  0  0  0  0  0  0  0  0  0
    2.6827    1.2474   -0.1327 C   0  0  0  0  0  0  0  0  0  0  0  0
    4.2091   -0.7530   -0.1441 C   0  0  0  0  0  0  0  0  0  0  0  0
    3.7082    2.1879   -0.3542 C   0  0  0  0  0  0  0  0  0  0  0  0
    5.3857   -0.0107   -0.3671 C   0  0  0  0  0  0  0  0  0  0  0  0
    1.4165    1.7543    0.2330 C   0  0  0  0  0  0  0  0  0  0  0  0
    4.3656   -2.1107    0.2109 C   0  0  0  0  0  0  0  0  0  0  0  0
    3.4574    3.5668   -0.2388 C   0  0  0  0  0  0  0  0  0  0  0  0
    6.6501   -0.6175   -0.2637 C   0  0  0  0  0  0  0  0  0  0  0  0
    1.1740    3.1257    0.3513 C   0  0  0  0  0  0  0  0  0  0  0  0
    5.6249   -2.7076    0.3173 C   0  0  0  0  0  0  0  0  0  0  0  0
    2.1949    4.0330    0.1122 C   0  0  0  0  0  0  0  0  0  0  0  0
    6.7682   -1.9609    0.0767 C   0  0  0  0  0  0  0  0  0  0  0  0
   -8.1397    0.7927    0.0609 C   0  0  0  0  0  0  0  0  0  0  0  0
   -9.2051    1.3283   -0.8470 C   0  0  0  0  0  0  0  0  0  0  0  0
   -2.1769   -1.4900    1.9661 H   0  0  0  0  0  0  0  0  0  0  0  0
   -1.1933   -0.1434    1.3910 H   0  0  0  0  0  0  0  0  0  0  0  0
   -1.3827   -3.5987   -1.0020 H   0  0  0  0  0  0  0  0  0  0  0  0
   -2.2929   -3.5989    0.5149 H   0  0  0  0  0  0  0  0  0  0  0  0
   -3.5520    0.2605    1.0135 H   0  0  0  0  0  0  0  0  0  0  0  0
   -2.6607    0.2484   -0.5108 H   0  0  0  0  0  0  0  0  0  0  0  0
   -2.7920   -1.8586   -1.9645 H   0  0  0  0  0  0  0  0  0  0  0  0
   -3.7825   -3.1998   -1.3742 H   0  0  0  0  0  0  0  0  0  0  0  0
   -0.2006   -2.7793    1.9338 H   0  0  0  0  0  0  0  0  0  0  0  0
    0.4369   -3.3574    0.4040 H   0  0  0  0  0  0  0  0  0  0  0  0
    0.9819   -0.6245    1.5965 H   0  0  0  0  0  0  0  0  0  0  0  0
    2.0437   -1.9686    1.5602 H   0  0  0  0  0  0  0  0  0  0  0  0
   -5.5488   -1.6728   -1.4906 H   0  0  0  0  0  0  0  0  0  0  0  0
   -4.7328   -0.1353   -1.6507 H   0  0  0  0  0  0  0  0  0  0  0  0
    2.0234   -1.9022   -1.0077 H   0  0  0  0  0  0  0  0  0  0  0  0
    0.9779   -0.5392   -0.9697 H   0  0  0  0  0  0  0  0  0  0  0  0
   -5.6217    0.4824    0.6713 H   0  0  0  0  0  0  0  0  0  0  0  0
   -6.4297   -1.1061    0.7227 H   0  0  0  0  0  0  0  0  0  0  0  0
    0.5757    1.0956    0.4184 H   0  0  0  0  0  0  0  0  0  0  0  0
    3.5234   -2.7709    0.3851 H   0  0  0  0  0  0  0  0  0  0  0  0
    4.2461    4.2941   -0.4214 H   0  0  0  0  0  0  0  0  0  0  0  0
    7.5589   -0.0479   -0.4477 H   0  0  0  0  0  0  0  0  0  0  0  0
    5.7065   -3.7580    0.5812 H   0  0  0  0  0  0  0  0  0  0  0  0
    2.0257    5.1031    0.1957 H   0  0  0  0  0  0  0  0  0  0  0  0
    7.7486   -2.4206    0.1543 H   0  0  0  0  0  0  0  0  0  0  0  0
   -8.7851    2.1017   -1.4949 H   0  0  0  0  0  0  0  0  0  0  0  0
  -10.0040    1.7727   -0.2464 H   0  0  0  0  0  0  0  0  0  0  0  0
   -9.6280    0.5150   -1.4420 H   0  0  0  0  0  0  0  0  0  0  0  0
  1 25  1  0  0  0  0
  2 19  1  0  0  0  0
  2 20  1  0  0  0  0
  3 16  1  0  0  0  0
  3 29  1  0  0  0  0
  4 29  2  0  0  0  0
  5  8  1  0  0  0  0
  5  9  1  0  0  0  0
  5 12  1  0  0  0  0
  6 10  1  0  0  0  0
  6 11  1  0  0  0  0
  6 14  1  0  0  0  0
  7 15  1  0  0  0  0
  7 17  1  0  0  0  0
  7 18  1  0  0  0  0
  8 10  1  0  0  0  0
  8 31  1  0  0  0  0
  8 32  1  0  0  0  0
  9 11  1  0  0  0  0
  9 33  1  0  0  0  0
  9 34  1  0  0  0  0
 10 35  1  0  0  0  0
 10 36  1  0  0  0  0
 11 37  1  0  0  0  0
 11 38  1  0  0  0  0
 12 13  1  0  0  0  0
 12 39  1  0  0  0  0
 12 40  1  0  0  0  0
 13 15  1  0  0  0  0
 13 41  1  0  0  0  0
 13 42  1  0  0  0  0
 14 16  1  0  0  0  0
 14 43  1  0  0  0  0
 14 44  1  0  0  0  0
 15 45  1  0  0  0  0
 15 46  1  0  0  0  0
 16 47  1  0  0  0  0
 16 48  1  0  0  0  0
 17 19  2  0  0  0  0
 17 21  1  0  0  0  0
 18 20  1  0  0  0  0
 18 22  2  0  0  0  0
 19 23  1  0  0  0  0
 20 24  2  0  0  0  0
 21 25  2  0  0  0  0
 21 49  1  0  0  0  0
 22 26  1  0  0  0  0
 22 50  1  0  0  0  0
 23 27  2  0  0  0  0
 23 51  1  0  0  0  0
 24 28  1  0  0  0  0
 24 52  1  0  0  0  0
 25 27  1  0  0  0  0
 26 28  2  0  0  0  0
 26 53  1  0  0  0  0
 27 54  1  0  0  0  0
 28 55  1  0  0  0  0
 29 30  1  0  0  0  0
 30 56  1  0  0  0  0
 30 57  1  0  0  0  0
 30 58  1  0  0  0  0
M  END
> <PUBCHEM_COMPOUND_CID>
6762

> <PUBCHEM_CONFORMER_RMSD>
1

> <PUBCHEM_CONFORMER_DIVERSEORDER>
1
172
6
134
58
68
57
30
183
21
16
115
136
97
43
123
53
120
184
212
171
2
174
73
100
173
165
127
3
164
148
62
26
65
167
198
69
106
149
193
129
66
79
31
145
153
142
101
135
104
39
71
143
83
139
52
124
169
112
197
196
114
177
5
130
96
132
14
61
20
44
48
121
131
206
202
144
204
157
89
10
7
108
199
34
59
150
151
22
163
203
122
175
179
113
111
74
181
160
41
72
76
60
182
168
56
208
105
191
185
170
186
86
133
180
103
32
13
54
126
70
63
50
178
80
8
141
11
84
90
109
28
99
55
158
92
189
147
82
210
117
166
110
176
194
46
192
152
18
159
12
87
33
36
200
23
91
187
207
188
98
155
94
15
140
75
137
116
51
49
118
17
102
162
67
95
24
45
93
85
201
78
35
146
4
9
195
42
47
128
205
161
190
154
156
119
138
27
209
77
64
29
37
19
40
211
81
107
88
25
38
125

> <PUBCHEM_MMFF94_PARTIAL_CHARGES>
36
1 -0.18
10 0.27
11 0.27
12 0.27
14 0.27
15 0.37
16 0.28
17 0.1
18 0.1
19 0.1
2 -0.2
20 0.1
21 -0.15
22 -0.15
23 -0.15
24 -0.15
25 0.18
26 -0.15
27 -0.15
28 -0.15
29 0.66
3 -0.43
30 0.06
4 -0.57
49 0.15
5 -0.81
50 0.15
51 0.15
52 0.15
53 0.15
54 0.15
55 0.15
6 -0.81
7 -0.57
8 0.27
9 0.27

> <PUBCHEM_EFFECTIVE_ROTOR_COUNT>
9.6

> <PUBCHEM_PHARMACOPHORE_FEATURES>
8
1 4 acceptor
1 5 cation
1 6 cation
1 7 cation
6 17 19 21 23 25 27 rings
6 18 20 22 24 26 28 rings
6 2 7 17 18 19 20 rings
6 5 6 8 9 10 11 rings

> <PUBCHEM_HEAVY_ATOM_COUNT>
30

> <PUBCHEM_ATOM_DEF_STEREO_COUNT>
0

> <PUBCHEM_ATOM_UDEF_STEREO_COUNT>
0

> <PUBCHEM_BOND_DEF_STEREO_COUNT>
0

> <PUBCHEM_BOND_UDEF_STEREO_COUNT>
0

> <PUBCHEM_ISOTOPIC_ATOM_COUNT>
0

> <PUBCHEM_COMPONENT_COUNT>
1

> <PUBCHEM_CACTVS_TAUTO_COUNT>
1

> <PUBCHEM_CONFORMER_ID>
00001A6A00000001

> <PUBCHEM_MMFF94_ENERGY>
80.4663

> <PUBCHEM_FEATURE_SELFOVERLAP>
40.628

> <PUBCHEM_SHAPE_FINGERPRINT>
10050765 1 18194684765949499107
10675989 125 18270400469801762524
11421498 54 12103301408056285094
11456790 92 18059860605182125778
11621639 179 18272093807106110772
12107183 9 18334856134522557903
12144600 37 18270957931013742491
12788726 201 18271242837706057586
13627175 23 18260818324912824009
14117953 113 18186797011022805286
14400156 260 18342741798232514600
15183329 4 18114175333434057845
15439362 3 18195810661503222400
15927050 60 17403169800494560146
16087824 20 18410574015554248284
18335252 114 18411145757664186903
19053607 189 17905336125863243368
19301679 30 18051981608750172402
21033648 29 17560520586414785826
21298829 104 18335703784630510800
22122407 14 18411408528300774075
221357 26 18342181072306995110
22956985 138 10138993206109725014
23559900 14 18263370200558115242
24893992 56 18342740702973727507
249057 3 18334296470161420703
2838139 119 18411705392119114287
3103668 31 18126566953864944780
335352 9 18410291414979426215
4144715 1 18056191380599706555
439807 62 18341330067624869317
5911458 16 18041550430673701449

> <PUBCHEM_SHAPE_MULTIPOLES>
596.42
21.6
4.61
0.95
47.19
3.58
-0.05
0.24
3.38
-4.47
-0.44
0.69
-0.06
-0.96

> <PUBCHEM_SHAPE_SELFOVERLAP>
1235.624

> <PUBCHEM_SHAPE_VOLUME>
341.6

> <PUBCHEM_COORDINATE_TYPE>
2
5
10

$$$$

