17395704
  -OEChem-06241222513D

 41 42  0     0  0  0  0  0  0999 V2000
    3.2652   -2.2791   -0.3278 S   0  0  0  0  0  0  0  0  0  0  0  0
    0.3619   -3.0192    0.4447 O   0  0  0  0  0  0  0  0  0  0  0  0
    3.1156    1.1492    1.5772 N   0  0  0  0  0  0  0  0  0  0  0  0
    2.3974    0.3350   -0.4362 N   0  0  0  0  0  0  0  0  0  0  0  0
   -0.2440   -1.2513   -0.9865 N   0  0  0  0  0  0  0  0  0  0  0  0
    3.4406   -0.1433    1.4235 N   0  0  0  0  0  0  0  0  0  0  0  0
    1.9381    2.7364    0.1461 C   0  0  0  0  0  0  0  0  0  0  0  0
    2.4861    1.3908    0.4253 C   0  0  0  0  0  0  0  0  0  0  0  0
    2.5939    3.4158   -1.0783 C   0  0  0  0  0  0  0  0  0  0  0  0
    0.4016    2.7412   -0.0259 C   0  0  0  0  0  0  0  0  0  0  0  0
   -3.3278    0.7210   -0.5130 C   0  0  0  0  0  0  0  0  0  0  0  0
   -3.8665    0.1009    0.6145 C   0  0  0  0  0  0  0  0  0  0  0  0
   -1.4521   -0.8006   -0.4534 C   0  0  0  0  0  0  0  0  0  0  0  0
   -2.1205    0.2702   -1.0468 C   0  0  0  0  0  0  0  0  0  0  0  0
   -3.1980   -0.9697    1.2085 C   0  0  0  0  0  0  0  0  0  0  0  0
   -1.9907   -1.4206    0.6742 C   0  0  0  0  0  0  0  0  0  0  0  0
    3.0100   -0.6198    0.2245 C   0  0  0  0  0  0  0  0  0  0  0  0
   -4.0257    1.8691   -1.1656 C   0  0  0  0  0  0  0  0  0  0  0  0
   -5.1573    0.5665    1.2044 C   0  0  0  0  0  0  0  0  0  0  0  0
    1.8067   -2.4904   -1.3774 C   0  0  0  0  0  0  0  0  0  0  0  0
    0.5655   -2.3022   -0.5317 C   0  0  0  0  0  0  0  0  0  0  0  0
    2.1506    3.3857    1.0074 H   0  0  0  0  0  0  0  0  0  0  0  0
    2.3989    2.8488   -1.9954 H   0  0  0  0  0  0  0  0  0  0  0  0
    3.6799    3.4788   -0.9488 H   0  0  0  0  0  0  0  0  0  0  0  0
    2.2070    4.4311   -1.2135 H   0  0  0  0  0  0  0  0  0  0  0  0
    0.0248    3.7650   -0.1188 H   0  0  0  0  0  0  0  0  0  0  0  0
    0.1131    2.1901   -0.9261 H   0  0  0  0  0  0  0  0  0  0  0  0
   -0.0889    2.2723    0.8339 H   0  0  0  0  0  0  0  0  0  0  0  0
   -1.7007    0.7488   -1.9288 H   0  0  0  0  0  0  0  0  0  0  0  0
    3.3516    1.6835    2.4090 H   0  0  0  0  0  0  0  0  0  0  0  0
   -3.6045   -1.4632    2.0874 H   0  0  0  0  0  0  0  0  0  0  0  0
   -1.5338   -2.2541    1.1888 H   0  0  0  0  0  0  0  0  0  0  0  0
    0.0774   -0.7438   -1.8079 H   0  0  0  0  0  0  0  0  0  0  0  0
   -5.0154    1.5662   -1.5227 H   0  0  0  0  0  0  0  0  0  0  0  0
   -4.1304    2.7047   -0.4661 H   0  0  0  0  0  0  0  0  0  0  0  0
   -3.4695    2.2425   -2.0326 H   0  0  0  0  0  0  0  0  0  0  0  0
   -5.0778    1.6080    1.5325 H   0  0  0  0  0  0  0  0  0  0  0  0
   -5.9698    0.4749    0.4762 H   0  0  0  0  0  0  0  0  0  0  0  0
   -5.4408   -0.0274    2.0804 H   0  0  0  0  0  0  0  0  0  0  0  0
    1.8479   -1.7947   -2.2204 H   0  0  0  0  0  0  0  0  0  0  0  0
    1.7944   -3.5067   -1.7832 H   0  0  0  0  0  0  0  0  0  0  0  0
  1 17  1  0  0  0  0
  1 20  1  0  0  0  0
  2 21  2  0  0  0  0
  3  6  1  0  0  0  0
  3  8  1  0  0  0  0
  3 30  1  0  0  0  0
  4  8  2  0  0  0  0
  4 17  1  0  0  0  0
  5 13  1  0  0  0  0
  5 21  1  0  0  0  0
  5 33  1  0  0  0  0
  6 17  2  0  0  0  0
  7  8  1  0  0  0  0
  7  9  1  0  0  0  0
  7 10  1  0  0  0  0
  7 22  1  0  0  0  0
  9 23  1  0  0  0  0
  9 24  1  0  0  0  0
  9 25  1  0  0  0  0
 10 26  1  0  0  0  0
 10 27  1  0  0  0  0
 10 28  1  0  0  0  0
 11 12  2  0  0  0  0
 11 14  1  0  0  0  0
 11 18  1  0  0  0  0
 12 15  1  0  0  0  0
 12 19  1  0  0  0  0
 13 14  2  0  0  0  0
 13 16  1  0  0  0  0
 14 29  1  0  0  0  0
 15 16  2  0  0  0  0
 15 31  1  0  0  0  0
 16 32  1  0  0  0  0
 18 34  1  0  0  0  0
 18 35  1  0  0  0  0
 18 36  1  0  0  0  0
 19 37  1  0  0  0  0
 19 38  1  0  0  0  0
 19 39  1  0  0  0  0
 20 21  1  0  0  0  0
 20 40  1  0  0  0  0
 20 41  1  0  0  0  0
M  END
> <PUBCHEM_COMPOUND_CID>
17395704

> <PUBCHEM_CONFORMER_RMSD>
1

> <PUBCHEM_CONFORMER_DIVERSEORDER>
2
84
75
46
29
95
67
12
27
60
99
81
62
48
90
94
88
98
23
79
49
15
53
6
22
80
85
96
3
35
24
91
93
64
58
4
30
1
28
32
55
73
87
9
56
52
66
97
76
10
40
16
57
37
82
72
20
63
68
42
59
74
33
17
69
11
71
50
92
21
78
44
5
39
8
7
25
26
83
41
77
61
31
13
38
36
14
45
34
43
51
65
19
54
18
47
70
86
89

> <PUBCHEM_MMFF94_PARTIAL_CHARGES>
24
1 -0.28
11 -0.14
12 -0.14
13 0.12
14 -0.15
15 -0.15
16 -0.15
17 0.57
18 0.14
19 0.14
2 -0.57
20 0.29
21 0.57
29 0.15
3 0.3
30 0.27
31 0.15
32 0.15
33 0.37
4 -0.57
5 -0.55
6 -0.71
7 0.18
8 0.01

> <PUBCHEM_EFFECTIVE_ROTOR_COUNT>
6

> <PUBCHEM_PHARMACOPHORE_FEATURES>
8
1 2 acceptor
1 3 donor
1 5 donor
3 3 4 8 cation
3 4 6 17 cation
3 7 9 10 hydrophobe
5 3 4 6 8 17 rings
6 11 12 13 14 15 16 rings

> <PUBCHEM_HEAVY_ATOM_COUNT>
21

> <PUBCHEM_ATOM_DEF_STEREO_COUNT>
0

> <PUBCHEM_ATOM_UDEF_STEREO_COUNT>
0

> <PUBCHEM_BOND_DEF_STEREO_COUNT>
0

> <PUBCHEM_BOND_UDEF_STEREO_COUNT>
0

> <PUBCHEM_ISOTOPIC_ATOM_COUNT>
0

> <PUBCHEM_COMPONENT_COUNT>
1

> <PUBCHEM_CACTVS_TAUTO_COUNT>
10

> <PUBCHEM_CONFORMER_ID>
01096FF800000002

> <PUBCHEM_MMFF94_ENERGY>
53.5967

> <PUBCHEM_FEATURE_SELFOVERLAP>
43.343

> <PUBCHEM_SHAPE_FINGERPRINT>
10366900 7 18060409236142252339
104564 63 17901380418475954838
11640471 11 17168154411602788574
12403259 327 17703800235716074051
12633257 1 18201722825392559299
128993 33 17904195923872624704
13140716 1 18337113354152389257
13402501 40 18268434705386087052
13583140 156 17560258984494522051
13965767 371 18189077346857206754
14026960 21 18340764819699842355
15081414 286 18334852870542494428
151778 21 18267011774194661209
17093844 170 18122639515388987144
17357779 13 17972317584274114638
18186145 218 18186235130189055967
18219364 16 18341061760880133877
18785283 64 18341880867025742861
20621476 13 18337118941936834021
20681677 76 18413393137772141983
21475661 188 18271534203422718853
21641784 216 17833237064817308750
22749437 52 18260839154596834723
23558518 356 18192159204609455566
23559900 14 17845916503711570911
474 4 18334857208106256307
49207404 50 18268136583422319731
5048184 11 18120650236555165853
5283268 108 18266169715912380640
5939293 188 18411427223808174652

> <PUBCHEM_SHAPE_MULTIPOLES>
410.23
8.25
3.78
1.34
7.06
1.31
-0.1
1.77
-1.92
-3.72
0.94
0.12
0.05
0.96

> <PUBCHEM_SHAPE_SELFOVERLAP>
841.965

> <PUBCHEM_SHAPE_VOLUME>
239.7

> <PUBCHEM_COORDINATE_TYPE>
2
5
10

$$$$

