12825
  -OEChem-06261207253D

 26 26  0     1  0  0  0  0  0999 V2000
   -1.7068    0.3514    0.3650 O   0  0  0  0  0  0  0  0  0  0  0  0
   -3.0806    0.3687   -1.4821 O   0  0  0  0  0  0  0  0  0  0  0  0
   -3.6145    1.5476    0.4186 N   0  0  0  0  0  0  0  0  0  0  0  0
    0.0775   -1.1980    0.9157 C   0  0  0  0  0  0  0  0  0  0  0  0
   -1.1656   -0.9295    0.0464 C   0  0  1  0  0  0  0  0  0  0  0  0
    1.2914   -0.4829    0.4262 C   0  0  0  0  0  0  0  0  0  0  0  0
   -2.2500   -1.9770    0.2647 C   0  0  0  0  0  0  0  0  0  0  0  0
    2.1385   -1.0974   -0.4961 C   0  0  0  0  0  0  0  0  0  0  0  0
    1.5796    0.8007    0.8903 C   0  0  0  0  0  0  0  0  0  0  0  0
    3.2737   -0.4287   -0.9542 C   0  0  0  0  0  0  0  0  0  0  0  0
    2.7148    1.4694    0.4321 C   0  0  0  0  0  0  0  0  0  0  0  0
    3.5618    0.8546   -0.4901 C   0  0  0  0  0  0  0  0  0  0  0  0
   -2.8197    0.7211   -0.3367 C   0  0  0  0  0  0  0  0  0  0  0  0
    0.2936   -2.2741    0.9379 H   0  0  0  0  0  0  0  0  0  0  0  0
   -0.1229   -0.9086    1.9558 H   0  0  0  0  0  0  0  0  0  0  0  0
   -0.8736   -0.9385   -1.0122 H   0  0  0  0  0  0  0  0  0  0  0  0
   -2.6653   -1.9027    1.2762 H   0  0  0  0  0  0  0  0  0  0  0  0
   -3.0871   -1.8740   -0.4314 H   0  0  0  0  0  0  0  0  0  0  0  0
   -1.8475   -2.9868    0.1317 H   0  0  0  0  0  0  0  0  0  0  0  0
    1.9240   -2.0960   -0.8676 H   0  0  0  0  0  0  0  0  0  0  0  0
    0.9275    1.2914    1.6080 H   0  0  0  0  0  0  0  0  0  0  0  0
    3.9328   -0.9069   -1.6728 H   0  0  0  0  0  0  0  0  0  0  0  0
    2.9390    2.4689    0.7931 H   0  0  0  0  0  0  0  0  0  0  0  0
    4.4454    1.3755   -0.8470 H   0  0  0  0  0  0  0  0  0  0  0  0
   -3.3555    1.8105    1.3635 H   0  0  0  0  0  0  0  0  0  0  0  0
   -4.4855    1.9197    0.0554 H   0  0  0  0  0  0  0  0  0  0  0  0
  1  5  1  0  0  0  0
  1 13  1  0  0  0  0
  2 13  2  0  0  0  0
  3 13  1  0  0  0  0
  3 25  1  0  0  0  0
  3 26  1  0  0  0  0
  4  5  1  0  0  0  0
  4  6  1  0  0  0  0
  4 14  1  0  0  0  0
  4 15  1  0  0  0  0
  5  7  1  0  0  0  0
  5 16  1  0  0  0  0
  6  8  2  0  0  0  0
  6  9  1  0  0  0  0
  7 17  1  0  0  0  0
  7 18  1  0  0  0  0
  7 19  1  0  0  0  0
  8 10  1  0  0  0  0
  8 20  1  0  0  0  0
  9 11  2  0  0  0  0
  9 21  1  0  0  0  0
 10 12  2  0  0  0  0
 10 22  1  0  0  0  0
 11 12  1  0  0  0  0
 11 23  1  0  0  0  0
 12 24  1  0  0  0  0
M  END
> <PUBCHEM_COMPOUND_CID>
12825

> <PUBCHEM_CONFORMER_RMSD>
0.6

> <PUBCHEM_CONFORMER_DIVERSEORDER>
1
43
19
37
40
30
15
28
7
35
36
24
29
39
16
31
17
3
4
6
33
27
11
21
14
5
12
2
38
8
23
25
34
18
22
42
9
13
10
32
41
26
20

> <PUBCHEM_MMFF94_PARTIAL_CHARGES>
19
1 -0.43
10 -0.15
11 -0.15
12 -0.15
13 0.78
2 -0.57
20 0.15
21 0.15
22 0.15
23 0.15
24 0.15
25 0.37
26 0.37
3 -0.8
4 0.14
5 0.28
6 -0.14
8 -0.15
9 -0.15

> <PUBCHEM_EFFECTIVE_ROTOR_COUNT>
4

> <PUBCHEM_PHARMACOPHORE_FEATURES>
3
1 2 acceptor
1 3 donor
6 6 8 9 10 11 12 rings

> <PUBCHEM_HEAVY_ATOM_COUNT>
13

> <PUBCHEM_ATOM_DEF_STEREO_COUNT>
0

> <PUBCHEM_ATOM_UDEF_STEREO_COUNT>
1

> <PUBCHEM_BOND_DEF_STEREO_COUNT>
0

> <PUBCHEM_BOND_UDEF_STEREO_COUNT>
0

> <PUBCHEM_ISOTOPIC_ATOM_COUNT>
0

> <PUBCHEM_COMPONENT_COUNT>
1

> <PUBCHEM_CACTVS_TAUTO_COUNT>
2

> <PUBCHEM_CONFORMER_ID>
0000321900000001

> <PUBCHEM_MMFF94_ENERGY>
30.5463

> <PUBCHEM_FEATURE_SELFOVERLAP>
15.223

> <PUBCHEM_SHAPE_FINGERPRINT>
10498660 4 18059866064412846805
10608611 8 18336546006374035376
12251169 10 12391503183313500496
12932764 1 17918277566641633411
13380535 21 18343578564291867963
13764800 53 18059848463673459585
15219456 202 18334289825804386962
15775835 57 18131633404228224329
17834072 14 9150887222905218363
17844478 74 18195794176964923595
18186145 218 18341049700290057260
20201158 50 18259980496498589534
20361792 2 14129056993472128275
20653085 51 18411410704963079923
20671657 1 18270409424017043979
20671657 53 13984670269016141059
20767249 442 17704081702281912061
21524375 3 18202007659065674867
21730867 7 11455888070515284124
22802520 49 18261386741505018168
22926399 65 18272365356850950668
23402539 116 18272656714869149948
23402655 69 18040433338557910992
23557571 272 18265320733879607214
23559900 14 18408881855123323558
23590187 214 11671481371009011680
25 1 18339636840939164250
2748010 2 18263361395753455738
276578 36 17275101764753685242
305870 269 17632588153577914738
3248919 1 18114185237148692186
549884 4 18261399969904257992
6333449 129 18340769256290308831
8030462 33 16950275217729046050
81228 2 17843394086313870691
93112 12 18334010592642394806
9882013 296 11383819459675199916

> <PUBCHEM_SHAPE_MULTIPOLES>
250.81
6.53
1.73
1.04
1.11
0.17
-0.15
-2.35
-1.62
0.73
0.22
0.02
-0.02
0.47

> <PUBCHEM_SHAPE_SELFOVERLAP>
511.094

> <PUBCHEM_SHAPE_VOLUME>
145.1

> <PUBCHEM_COORDINATE_TYPE>
2
5
10

$$$$

