6233
  -OEChem-06261201112D

 18 18  0     0  0  0  0  0  0999 V2000
    3.0000   -3.0000    0.0000 Cl  0  0  0  0  0  0  0  0  0  0  0  0
    2.0000   -2.0000    0.0000 Cl  0  0  0  0  0  0  0  0  0  0  0  0
    4.0000   -2.0000    0.0000 Cl  0  0  0  0  0  0  0  0  0  0  0  0
    3.0000    3.0000    0.0000 Cl  0  0  0  0  0  0  0  0  0  0  0  0
    4.0000    2.0000    0.0000 Cl  0  0  0  0  0  0  0  0  0  0  0  0
    2.0000    2.0000    0.0000 Cl  0  0  0  0  0  0  0  0  0  0  0  0
    3.0000    1.0000    0.0000 C   0  0  0  0  0  0  0  0  0  0  0  0
    3.0000   -1.0000    0.0000 C   0  0  0  0  0  0  0  0  0  0  0  0
    2.1340   -0.5000    0.0000 C   0  0  0  0  0  0  0  0  0  0  0  0
    2.1340    0.5000    0.0000 C   0  0  0  0  0  0  0  0  0  0  0  0
    3.8660   -0.5000    0.0000 C   0  0  0  0  0  0  0  0  0  0  0  0
    3.8660    0.5000    0.0000 C   0  0  0  0  0  0  0  0  0  0  0  0
    3.0000    2.0000    0.0000 C   0  0  0  0  0  0  0  0  0  0  0  0
    3.0000   -2.0000    0.0000 C   0  0  0  0  0  0  0  0  0  0  0  0
    1.5970    0.8100    0.0000 H   0  0  0  0  0  0  0  0  0  0  0  0
    1.5970   -0.8100    0.0000 H   0  0  0  0  0  0  0  0  0  0  0  0
    4.4030    0.8100    0.0000 H   0  0  0  0  0  0  0  0  0  0  0  0
    4.4030   -0.8100    0.0000 H   0  0  0  0  0  0  0  0  0  0  0  0
  1 14  1  0  0  0  0
  2 14  1  0  0  0  0
  3 14  1  0  0  0  0
  4 13  1  0  0  0  0
  5 13  1  0  0  0  0
  6 13  1  0  0  0  0
  7 10  2  0  0  0  0
  7 12  1  0  0  0  0
  7 13  1  0  0  0  0
  8  9  2  0  0  0  0
  8 11  1  0  0  0  0
  8 14  1  0  0  0  0
  9 10  1  0  0  0  0
  9 16  1  0  0  0  0
 10 15  1  0  0  0  0
 11 12  2  0  0  0  0
 11 18  1  0  0  0  0
 12 17  1  0  0  0  0
M  END
> <PUBCHEM_COMPOUND_CID>
6233

> <PUBCHEM_COMPOUND_CANONICALIZED>
1

> <PUBCHEM_CACTVS_COMPLEXITY>
161

> <PUBCHEM_CACTVS_HBOND_ACCEPTOR>
0

> <PUBCHEM_CACTVS_HBOND_DONOR>
0

> <PUBCHEM_CACTVS_ROTATABLE_BOND>
0

> <PUBCHEM_CACTVS_SUBSKEYS>
AAADcYBwAAAHAAAAAAAAAAAAAAAAAAAAAAAwAAAAAAAAAAABAAAAGAIAAAAADAKAGIAwAIAAAACAAiBCAAACAAAgAAAIiAAAAogIICKBERCAIAAggAAIiAcAgAAOQAAAAAAAAACAAAAAAAAAAAAAAAAAAA==

> <PUBCHEM_IUPAC_OPENEYE_NAME>
1,4-bis(trichloromethyl)benzene

> <PUBCHEM_IUPAC_CAS_NAME>
1,4-bis(trichloromethyl)benzene

> <PUBCHEM_IUPAC_NAME>
1,4-bis(trichloromethyl)benzene

> <PUBCHEM_IUPAC_SYSTEMATIC_NAME>
1,4-bis(trichloromethyl)benzene

> <PUBCHEM_IUPAC_TRADITIONAL_NAME>
1,4-bis(trichloromethyl)benzene

> <PUBCHEM_IUPAC_INCHI>
InChI=1S/C8H4Cl6/c9-7(10,11)5-1-2-6(4-3-5)8(12,13)14/h1-4H

> <PUBCHEM_IUPAC_INCHIKEY>
OTEKOJQFKOIXMU-UHFFFAOYSA-N

> <PUBCHEM_XLOGP3>
4.6

> <PUBCHEM_EXACT_MASS>
311.841466

> <PUBCHEM_MOLECULAR_FORMULA>
C8H4Cl6

> <PUBCHEM_MOLECULAR_WEIGHT>
312.83536

> <PUBCHEM_OPENEYE_CAN_SMILES>
C1=CC(=CC=C1C(Cl)(Cl)Cl)C(Cl)(Cl)Cl

> <PUBCHEM_OPENEYE_ISO_SMILES>
C1=CC(=CC=C1C(Cl)(Cl)Cl)C(Cl)(Cl)Cl

> <PUBCHEM_CACTVS_TPSA>
0

> <PUBCHEM_MONOISOTOPIC_WEIGHT>
309.844416

> <PUBCHEM_TOTAL_CHARGE>
0

> <PUBCHEM_HEAVY_ATOM_COUNT>
14

> <PUBCHEM_ATOM_DEF_STEREO_COUNT>
0

> <PUBCHEM_ATOM_UDEF_STEREO_COUNT>
0

> <PUBCHEM_BOND_DEF_STEREO_COUNT>
0

> <PUBCHEM_BOND_UDEF_STEREO_COUNT>
0

> <PUBCHEM_ISOTOPIC_ATOM_COUNT>
0

> <PUBCHEM_COMPONENT_COUNT>
1

> <PUBCHEM_CACTVS_TAUTO_COUNT>
1

> <PUBCHEM_COORDINATE_TYPE>
1
5
255

> <PUBCHEM_BONDANNOTATIONS>
11  12  8
7  10  8
7  12  8
8  11  8
8  9  8
9  10  8

$$$$

