12291
  -OEChem-06261206463D

 20 20  0     0  0  0  0  0  0999 V2000
    1.0053   -0.0001    0.3002 N   0  0  0  0  0  0  0  0  0  0  0  0
   -1.8653    0.0002   -0.2488 C   0  0  0  0  0  0  0  0  0  0  0  0
   -1.1268   -1.2521    0.2097 C   0  0  0  0  0  0  0  0  0  0  0  0
   -1.1263    1.2523    0.2097 C   0  0  0  0  0  0  0  0  0  0  0  0
    0.3452   -1.2125   -0.2039 C   0  0  0  0  0  0  0  0  0  0  0  0
    0.3457    1.2126   -0.2039 C   0  0  0  0  0  0  0  0  0  0  0  0
    2.4222   -0.0003   -0.0630 C   0  0  0  0  0  0  0  0  0  0  0  0
   -1.9417    0.0002   -1.3431 H   0  0  0  0  0  0  0  0  0  0  0  0
   -2.8872    0.0004    0.1459 H   0  0  0  0  0  0  0  0  0  0  0  0
   -1.1996   -1.3404    1.3012 H   0  0  0  0  0  0  0  0  0  0  0  0
   -1.6070   -2.1407   -0.2154 H   0  0  0  0  0  0  0  0  0  0  0  0
   -1.6064    2.1410   -0.2153 H   0  0  0  0  0  0  0  0  0  0  0  0
   -1.1991    1.3405    1.3011 H   0  0  0  0  0  0  0  0  0  0  0  0
    0.8389   -2.1018    0.2065 H   0  0  0  0  0  0  0  0  0  0  0  0
    0.4216   -1.2729   -1.2976 H   0  0  0  0  0  0  0  0  0  0  0  0
    0.4221    1.2731   -1.2976 H   0  0  0  0  0  0  0  0  0  0  0  0
    0.8396    2.1017    0.2068 H   0  0  0  0  0  0  0  0  0  0  0  0
    2.5716   -0.0002   -1.1488 H   0  0  0  0  0  0  0  0  0  0  0  0
    2.9264   -0.8788    0.3547 H   0  0  0  0  0  0  0  0  0  0  0  0
    2.9266    0.8781    0.3547 H   0  0  0  0  0  0  0  0  0  0  0  0
  1  5  1  0  0  0  0
  1  6  1  0  0  0  0
  1  7  1  0  0  0  0
  2  3  1  0  0  0  0
  2  4  1  0  0  0  0
  2  8  1  0  0  0  0
  2  9  1  0  0  0  0
  3  5  1  0  0  0  0
  3 10  1  0  0  0  0
  3 11  1  0  0  0  0
  4  6  1  0  0  0  0
  4 12  1  0  0  0  0
  4 13  1  0  0  0  0
  5 14  1  0  0  0  0
  5 15  1  0  0  0  0
  6 16  1  0  0  0  0
  6 17  1  0  0  0  0
  7 18  1  0  0  0  0
  7 19  1  0  0  0  0
  7 20  1  0  0  0  0
M  END
> <PUBCHEM_COMPOUND_CID>
12291

> <PUBCHEM_CONFORMER_RMSD>
0.4

> <PUBCHEM_CONFORMER_DIVERSEORDER>
2
1

> <PUBCHEM_MMFF94_PARTIAL_CHARGES>
4
1 -0.81
5 0.27
6 0.27
7 0.27

> <PUBCHEM_EFFECTIVE_ROTOR_COUNT>
1.2

> <PUBCHEM_PHARMACOPHORE_FEATURES>
2
1 1 cation
6 1 2 3 4 5 6 rings

> <PUBCHEM_HEAVY_ATOM_COUNT>
7

> <PUBCHEM_ATOM_DEF_STEREO_COUNT>
0

> <PUBCHEM_ATOM_UDEF_STEREO_COUNT>
0

> <PUBCHEM_BOND_DEF_STEREO_COUNT>
0

> <PUBCHEM_BOND_UDEF_STEREO_COUNT>
0

> <PUBCHEM_ISOTOPIC_ATOM_COUNT>
0

> <PUBCHEM_COMPONENT_COUNT>
1

> <PUBCHEM_CACTVS_TAUTO_COUNT>
1

> <PUBCHEM_CONFORMER_ID>
0000300300000002

> <PUBCHEM_MMFF94_ENERGY>
0.6047

> <PUBCHEM_FEATURE_SELFOVERLAP>
10.148

> <PUBCHEM_SHAPE_FINGERPRINT>
16714656 1 18410852161762070612
18185500 45 18341334392186762070
20096714 4 18121498226444887755
21040471 1 18266458895870529008
23552423 10 18272645788119115742
29004967 10 18411131403229297362

> <PUBCHEM_SHAPE_MULTIPOLES>
139.08
2.51
1.5
0.65
1.02
0
-0.01
0
-0.05
-0.35
0.01
-0.03
0
0

> <PUBCHEM_SHAPE_SELFOVERLAP>
261.418

> <PUBCHEM_SHAPE_VOLUME>
84.6

> <PUBCHEM_COORDINATE_TYPE>
2
5
10

$$$$

