13685
  -OEChem-06241222393D

 21 21  0     0  0  0  0  0  0999 V2000
   -1.5119    0.6453    0.0000 O   0  0  0  0  0  0  0  0  0  0  0  0
   -4.8653   -0.3381   -0.0012 O   0  5  0  0  0  0  0  0  0  0  0  0
   -3.9223    1.6489   -0.0004 O   0  0  0  0  0  0  0  0  0  0  0  0
   -3.8276    0.3867   -0.0007 N   0  3  0  0  0  0  0  0  0  0  0  0
    1.9888   -0.1072   -0.0002 N   0  0  0  0  0  0  0  0  0  0  0  0
    3.0684    0.7710    0.0001 N   0  0  0  0  0  0  0  0  0  0  0  0
    5.4016    0.8400    0.0015 N   0  0  0  0  0  0  0  0  0  0  0  0
    4.4068   -1.2176   -0.0026 N   0  0  0  0  0  0  0  0  0  0  0  0
   -0.4150   -0.1337    0.0006 C   0  0  0  0  0  0  0  0  0  0  0  0
   -0.7147   -1.4563    0.0013 C   0  0  0  0  0  0  0  0  0  0  0  0
   -2.5663   -0.2118    0.0005 C   0  0  0  0  0  0  0  0  0  0  0  0
   -2.1287   -1.5159    0.0013 C   0  0  0  0  0  0  0  0  0  0  0  0
    0.8701    0.5432    0.0003 C   0  0  0  0  0  0  0  0  0  0  0  0
    4.2162    0.1457   -0.0004 C   0  0  0  0  0  0  0  0  0  0  0  0
   -0.0246   -2.2879    0.0017 H   0  0  0  0  0  0  0  0  0  0  0  0
   -2.7460   -2.4033    0.0016 H   0  0  0  0  0  0  0  0  0  0  0  0
    0.8461    1.6488    0.0004 H   0  0  0  0  0  0  0  0  0  0  0  0
    6.2958    0.3618    0.0016 H   0  0  0  0  0  0  0  0  0  0  0  0
    5.4150    1.8542    0.0036 H   0  0  0  0  0  0  0  0  0  0  0  0
    5.3366   -1.6223   -0.0022 H   0  0  0  0  0  0  0  0  0  0  0  0
    3.6192   -1.8568   -0.0037 H   0  0  0  0  0  0  0  0  0  0  0  0
  1  9  1  0  0  0  0
  1 11  1  0  0  0  0
  2  4  1  0  0  0  0
  3  4  2  0  0  0  0
  4 11  1  0  0  0  0
  5  6  1  0  0  0  0
  5 13  2  0  0  0  0
  6 14  2  0  0  0  0
  7 14  1  0  0  0  0
  7 18  1  0  0  0  0
  7 19  1  0  0  0  0
  8 14  1  0  0  0  0
  8 20  1  0  0  0  0
  8 21  1  0  0  0  0
  9 10  2  0  0  0  0
  9 13  1  0  0  0  0
 10 12  1  0  0  0  0
 10 15  1  0  0  0  0
 11 12  2  0  0  0  0
 12 16  1  0  0  0  0
 13 17  1  0  0  0  0
M  CHG  2   2  -1   4   1
M  END
> <PUBCHEM_COMPOUND_CID>
13685

> <PUBCHEM_CONFORMER_RMSD>
0.6

> <PUBCHEM_CONFORMER_DIVERSEORDER>
1
2
3
4

> <PUBCHEM_MMFF94_PARTIAL_CHARGES>
21
1 -0.28
10 -0.15
11 0.22
12 -0.15
13 0.47
14 0.55
15 0.15
16 0.15
17 0.06
18 0.4
19 0.4
2 -0.52
20 0.4
21 0.4
3 -0.52
4 0.96
5 -0.45
6 -0.45
7 -0.85
8 -0.85
9 0.05

> <PUBCHEM_EFFECTIVE_ROTOR_COUNT>
3

> <PUBCHEM_PHARMACOPHORE_FEATURES>
9
1 1 acceptor
1 2 acceptor
1 2 anion
1 3 acceptor
1 5 acceptor
1 7 donor
1 8 donor
4 6 7 8 14 cation
5 1 9 10 11 12 rings

> <PUBCHEM_HEAVY_ATOM_COUNT>
14

> <PUBCHEM_ATOM_DEF_STEREO_COUNT>
0

> <PUBCHEM_ATOM_UDEF_STEREO_COUNT>
0

> <PUBCHEM_BOND_DEF_STEREO_COUNT>
0

> <PUBCHEM_BOND_UDEF_STEREO_COUNT>
1

> <PUBCHEM_ISOTOPIC_ATOM_COUNT>
0

> <PUBCHEM_COMPONENT_COUNT>
1

> <PUBCHEM_CACTVS_TAUTO_COUNT>
2

> <PUBCHEM_CONFORMER_ID>
0000357500000001

> <PUBCHEM_MMFF94_ENERGY>
25.9262

> <PUBCHEM_FEATURE_SELFOVERLAP>
45.815

> <PUBCHEM_SHAPE_FINGERPRINT>
10014705 185 18410859828215669732
124424 183 17894910711337061648
12500047 106 18261397706825822910
13675066 3 18201715141674811336
14123238 8 18272369763207613588
14943859 89 18412826880261067739
15242433 33 18412543202556951814
15375358 24 18259701194812377454
15501527 16 18409164446222027041
17834072 33 18334016051682900110
17834076 25 17313100848007626184
18186145 218 16845297090520356260
187816 3 17022619775806762883
200 152 14706924046890738042
20279233 1 17749098977025386358
20645477 56 18411983529120303820
20645477 70 18040992990656938030
22485316 2 18335422344524916438
23402539 116 18187090555115846197
23559900 14 18260268538928604304
300161 21 18410300185988206176
366044 4 18410293605697745883
42 15 18272932739152501618
4214541 1 18410575084805679104
42788 4 18410573981299686436
5104073 3 18411700972159969170
6430166 295 18411983580580738156
69090 78 18333454235316307231
77779 3 18412261714494755730

> <PUBCHEM_SHAPE_MULTIPOLES>
245.6
10.45
1.34
0.56
7.02
0.2
0
-1.91
0
-0.55
0
0
0.02
0

> <PUBCHEM_SHAPE_SELFOVERLAP>
509.991

> <PUBCHEM_SHAPE_VOLUME>
139.7

> <PUBCHEM_COORDINATE_TYPE>
2
5
10

$$$$

