17395432
  -OEChem-06241222503D

 40 42  0     1  0  0  0  0  0999 V2000
   -0.9085   -0.4770   -0.5796 O   0  0  0  0  0  0  0  0  0  0  0  0
    1.5544    0.1093   -1.3877 O   0  0  0  0  0  0  0  0  0  0  0  0
    5.9650    0.1912    0.8747 O   0  0  0  0  0  0  0  0  0  0  0  0
    2.4980   -0.3838    0.7057 N   0  0  0  0  0  0  0  0  0  0  0  0
   -3.5416   -1.2647   -0.4162 N   0  0  0  0  0  0  0  0  0  0  0  0
    4.7743   -0.2125    1.4665 N   0  0  0  0  0  0  0  0  0  0  0  0
    0.1261   -0.6829    0.3771 C   0  0  1  0  0  0  0  0  0  0  0  0
    0.1082   -2.1451    0.8340 C   0  0  0  0  0  0  0  0  0  0  0  0
   -1.8827    0.4241   -0.2516 C   0  0  0  0  0  0  0  0  0  0  0  0
    1.4708   -0.2749   -0.2246 C   0  0  0  0  0  0  0  0  0  0  0  0
   -3.2118    0.0176   -0.1712 C   0  0  0  0  0  0  0  0  0  0  0  0
    0.3748   -3.1409   -0.2894 C   0  0  0  0  0  0  0  0  0  0  0  0
   -4.1815    0.9832    0.1708 C   0  0  0  0  0  0  0  0  0  0  0  0
   -1.5048    1.7461   -0.0038 C   0  0  0  0  0  0  0  0  0  0  0  0
   -3.8017    2.3129    0.4201 C   0  0  0  0  0  0  0  0  0  0  0  0
   -2.4652    2.6919    0.3324 C   0  0  0  0  0  0  0  0  0  0  0  0
    3.8502   -0.0769    0.5112 C   0  0  0  0  0  0  0  0  0  0  0  0
   -5.5195    0.5746    0.2520 C   0  0  0  0  0  0  0  0  0  0  0  0
    4.3936    0.4037   -0.6928 C   0  0  0  0  0  0  0  0  0  0  0  0
   -5.8624   -0.7460    0.0000 C   0  0  0  0  0  0  0  0  0  0  0  0
   -4.8442   -1.6183   -0.3272 C   0  0  0  0  0  0  0  0  0  0  0  0
    5.7255    0.5557   -0.4109 C   0  0  0  0  0  0  0  0  0  0  0  0
    6.8830    1.0130   -1.1897 C   0  0  0  0  0  0  0  0  0  0  0  0
   -0.0303   -0.0615    1.2709 H   0  0  0  0  0  0  0  0  0  0  0  0
    0.8351   -2.3154    1.6356 H   0  0  0  0  0  0  0  0  0  0  0  0
   -0.8815   -2.3706    1.2505 H   0  0  0  0  0  0  0  0  0  0  0  0
    0.3065   -4.1641    0.0941 H   0  0  0  0  0  0  0  0  0  0  0  0
    1.3757   -3.0096   -0.7118 H   0  0  0  0  0  0  0  0  0  0  0  0
   -0.3575   -3.0365   -1.0960 H   0  0  0  0  0  0  0  0  0  0  0  0
   -0.4658    2.0544   -0.0813 H   0  0  0  0  0  0  0  0  0  0  0  0
    2.2811   -0.6999    1.6470 H   0  0  0  0  0  0  0  0  0  0  0  0
   -4.5457    3.0614    0.6834 H   0  0  0  0  0  0  0  0  0  0  0  0
   -2.1761    3.7209    0.5230 H   0  0  0  0  0  0  0  0  0  0  0  0
   -6.3022    1.2835    0.5123 H   0  0  0  0  0  0  0  0  0  0  0  0
    3.9214    0.6183   -1.6391 H   0  0  0  0  0  0  0  0  0  0  0  0
   -6.8918   -1.0791    0.0584 H   0  0  0  0  0  0  0  0  0  0  0  0
   -5.0520   -2.6629   -0.5346 H   0  0  0  0  0  0  0  0  0  0  0  0
    6.5915    1.2835   -2.2093 H   0  0  0  0  0  0  0  0  0  0  0  0
    7.6405    0.2256   -1.2516 H   0  0  0  0  0  0  0  0  0  0  0  0
    7.3379    1.8921   -0.7229 H   0  0  0  0  0  0  0  0  0  0  0  0
  1  7  1  0  0  0  0
  1  9  1  0  0  0  0
  2 10  2  0  0  0  0
  3  6  1  0  0  0  0
  3 22  1  0  0  0  0
  4 10  1  0  0  0  0
  4 17  1  0  0  0  0
  4 31  1  0  0  0  0
  5 11  1  0  0  0  0
  5 21  2  0  0  0  0
  6 17  2  0  0  0  0
  7  8  1  0  0  0  0
  7 10  1  0  0  0  0
  7 24  1  0  0  0  0
  8 12  1  0  0  0  0
  8 25  1  0  0  0  0
  8 26  1  0  0  0  0
  9 11  1  0  0  0  0
  9 14  2  0  0  0  0
 11 13  2  0  0  0  0
 12 27  1  0  0  0  0
 12 28  1  0  0  0  0
 12 29  1  0  0  0  0
 13 15  1  0  0  0  0
 13 18  1  0  0  0  0
 14 16  1  0  0  0  0
 14 30  1  0  0  0  0
 15 16  2  0  0  0  0
 15 32  1  0  0  0  0
 16 33  1  0  0  0  0
 17 19  1  0  0  0  0
 18 20  2  0  0  0  0
 18 34  1  0  0  0  0
 19 22  2  0  0  0  0
 19 35  1  0  0  0  0
 20 21  1  0  0  0  0
 20 36  1  0  0  0  0
 21 37  1  0  0  0  0
 22 23  1  0  0  0  0
 23 38  1  0  0  0  0
 23 39  1  0  0  0  0
 23 40  1  0  0  0  0
M  END
> <PUBCHEM_COMPOUND_CID>
17395432

> <PUBCHEM_CONFORMER_RMSD>
0.8

> <PUBCHEM_CONFORMER_DIVERSEORDER>
1
40
95
80
62
105
70
49
66
69
42
35
19
3
84
73
16
76
24
92
50
81
91
41
51
102
21
78
75
58
97
101
45
52
74
9
57
60
53
55
90
31
83
25
28
88
82
29
89
48
63
20
94
7
85
10
13
86
77
93
2
64
68
12
47
26
103
46
79
65
61
22
54
43
36
100
71
87
59
39
104
17
5
6
33
14
34
38
56
98
18
72
27
99
32
37
4
96
67
107
15
11
23
106
8
44
30

> <PUBCHEM_MMFF94_PARTIAL_CHARGES>
28
1 -0.36
10 0.57
11 0.31
14 -0.15
15 -0.15
16 -0.15
17 0.35
18 -0.15
19 -0.15
2 -0.57
20 -0.15
21 0.16
22 -0.04
23 0.18
3 -0.02
30 0.15
31 0.37
32 0.15
33 0.15
34 0.15
35 0.15
36 0.15
37 0.15
4 -0.49
5 -0.62
6 -0.41
7 0.34
9 0.08

> <PUBCHEM_EFFECTIVE_ROTOR_COUNT>
6

> <PUBCHEM_PHARMACOPHORE_FEATURES>
8
1 1 acceptor
1 12 hydrophobe
1 2 acceptor
1 4 donor
1 5 acceptor
5 3 6 17 19 22 rings
6 5 11 13 18 20 21 rings
6 9 11 13 14 15 16 rings

> <PUBCHEM_HEAVY_ATOM_COUNT>
23

> <PUBCHEM_ATOM_DEF_STEREO_COUNT>
0

> <PUBCHEM_ATOM_UDEF_STEREO_COUNT>
1

> <PUBCHEM_BOND_DEF_STEREO_COUNT>
0

> <PUBCHEM_BOND_UDEF_STEREO_COUNT>
0

> <PUBCHEM_ISOTOPIC_ATOM_COUNT>
0

> <PUBCHEM_COMPONENT_COUNT>
1

> <PUBCHEM_CACTVS_TAUTO_COUNT>
3

> <PUBCHEM_CONFORMER_ID>
01096EE800000001

> <PUBCHEM_MMFF94_ENERGY>
57.5054

> <PUBCHEM_FEATURE_SELFOVERLAP>
40.64

> <PUBCHEM_SHAPE_FINGERPRINT>
10411042 1 17833269723475034431
10670039 82 18340479071737354196
10730089 173 18408038511607013492
11315181 36 17917707972384348033
11488393 25 17387957901424126654
11796584 16 10807931574769291720
12107183 9 17549552146305359368
12166972 35 17775003449147992604
12236239 1 17989209252340922592
12390115 104 18041551550800211913
12403259 415 17531252751209870616
12596602 18 17489869336589651200
12838862 33 18337971047286193525
12916748 109 18408884044860058984
13140716 1 18265330600263297107
13533116 47 17917437549012579386
13631057 29 18335423431463080067
14251752 14 6266907835289114091
14251764 18 18202568376479568824
14341114 328 18341895224747823336
14787075 74 18413672396213087321
15183329 4 15574709223211243116
15575132 122 18131073757142090701
15927050 60 17543628626285166845
17349148 13 17846775221881075549
17980427 23 17917701418543966245
18927931 339 18261393317648659287
200 152 16845296051085666053
21033648 29 16878521114554202376
21065198 48 18272655696418484392
21267235 1 18336262337470824559
2297311 6 18040711463655173185
23366157 5 17983856971455785290
23402539 116 18408890607132400119
23557571 272 18040426707180997733
23559900 14 18336555949761746641
2916195 48 18113909238613986784
335352 9 18409171001048827309
34797466 226 17822565024337476500
34934 24 18338520858813278621
350125 39 18411982442457044477
4325135 7 18411134736171489373
469060 322 18336812161471739065
474229 33 18412545401174252851
5104073 3 18267017456937164787
5486654 2 18410293592939425031
9981440 41 18343578568824420515
9996256 80 18335139825591759874

> <PUBCHEM_SHAPE_MULTIPOLES>
440.78
15.44
2.38
0.97
15.18
0.49
-0.03
-3.74
0.9
-2.34
-0.12
1.16
0.02
-1.05

> <PUBCHEM_SHAPE_SELFOVERLAP>
951.715

> <PUBCHEM_SHAPE_VOLUME>
241.7

> <PUBCHEM_COORDINATE_TYPE>
2
5
10

$$$$

