10418
  -OEChem-06261204323D

 10 10  0     1  0  0  0  0  0999 V2000
   -2.0509    0.1897   -0.1560 F   0  0  0  0  0  0  0  0  0  0  0  0
    1.1801    0.8051    0.1740 O   0  0  0  0  0  0  0  0  0  0  0  0
    0.2315   -0.0805   -0.4299 C   0  0  1  0  0  0  0  0  0  0  0  0
    1.5904   -0.5556   -0.0134 C   0  0  0  0  0  0  0  0  0  0  0  0
   -0.9511   -0.3588    0.4252 C   0  0  0  0  0  0  0  0  0  0  0  0
    0.0139    0.0163   -1.4834 H   0  0  0  0  0  0  0  0  0  0  0  0
    1.6794   -1.1778    0.8677 H   0  0  0  0  0  0  0  0  0  0  0  0
    2.3213   -0.7539   -0.7865 H   0  0  0  0  0  0  0  0  0  0  0  0
   -0.8555    0.0585    1.4322 H   0  0  0  0  0  0  0  0  0  0  0  0
   -1.1244   -1.4358    0.5042 H   0  0  0  0  0  0  0  0  0  0  0  0
  1  5  1  0  0  0  0
  2  3  1  0  0  0  0
  2  4  1  0  0  0  0
  3  4  1  0  0  0  0
  3  5  1  0  0  0  0
  3  6  1  0  0  0  0
  4  7  1  0  0  0  0
  4  8  1  0  0  0  0
  5  9  1  0  0  0  0
  5 10  1  0  0  0  0
M  END
> <PUBCHEM_COMPOUND_CID>
10418

> <PUBCHEM_CONFORMER_RMSD>
0.4

> <PUBCHEM_CONFORMER_DIVERSEORDER>
2
3
1
4

> <PUBCHEM_MMFF94_PARTIAL_CHARGES>
8
1 -0.34
2 -0.3
3 -0.05
4 -0.05
5 0.44
6 0.1
7 0.1
8 0.1

> <PUBCHEM_EFFECTIVE_ROTOR_COUNT>
1.6

> <PUBCHEM_PHARMACOPHORE_FEATURES>
1
1 2 acceptor

> <PUBCHEM_HEAVY_ATOM_COUNT>
5

> <PUBCHEM_ATOM_DEF_STEREO_COUNT>
0

> <PUBCHEM_ATOM_UDEF_STEREO_COUNT>
1

> <PUBCHEM_BOND_DEF_STEREO_COUNT>
0

> <PUBCHEM_BOND_UDEF_STEREO_COUNT>
0

> <PUBCHEM_ISOTOPIC_ATOM_COUNT>
0

> <PUBCHEM_COMPONENT_COUNT>
1

> <PUBCHEM_CACTVS_TAUTO_COUNT>
1

> <PUBCHEM_CONFORMER_ID>
000028B200000002

> <PUBCHEM_MMFF94_ENERGY>
4.8373

> <PUBCHEM_FEATURE_SELFOVERLAP>
5.074

> <PUBCHEM_SHAPE_FINGERPRINT>
139733 1 9006762181926595118
20096714 4 18187644635471164584
21015797 1 8932131730705973654
24536 1 17274257236549230359
29004967 10 18410851096721145962
5460574 1 9079116656777856439
5943 1 5671882297644941406

> <PUBCHEM_SHAPE_MULTIPOLES>
89.75
2.22
0.78
0.66
0.64
0.01
0.01
-0.02
0
-0.19
-0.04
0
-0.02
0.08

> <PUBCHEM_SHAPE_SELFOVERLAP>
164.389

> <PUBCHEM_SHAPE_VOLUME>
58.4

> <PUBCHEM_COORDINATE_TYPE>
2
5
10

$$$$

