13855
  -OEChem-06241222402D

 19 19  0     1  0  0  0  0  0999 V2000
    3.7601   -0.7694    0.0000 O   0  0  0  0  0  0  0  0  0  0  0  0
    3.2601    0.7694    0.0000 C   0  0  0  0  0  0  0  0  0  0  0  0
    4.2601    0.7694    0.0000 C   0  0  0  0  0  0  0  0  0  0  0  0
    4.5691   -0.1816    0.0000 C   0  0  3  0  0  0  0  0  0  0  0  0
    2.9511   -0.1816    0.0000 C   0  0  3  0  0  0  0  0  0  0  0  0
    5.5202   -0.4907    0.0000 C   0  0  0  0  0  0  0  0  0  0  0  0
    2.0000   -0.4907    0.0000 C   0  0  0  0  0  0  0  0  0  0  0  0
    4.8665    0.8983    0.0000 H   0  0  0  0  0  0  0  0  0  0  0  0
    4.1953    1.3860    0.0000 H   0  0  0  0  0  0  0  0  0  0  0  0
    3.3249    1.3860    0.0000 H   0  0  0  0  0  0  0  0  0  0  0  0
    2.6536    0.8983    0.0000 H   0  0  0  0  0  0  0  0  0  0  0  0
    4.7021   -1.0212    0.0000 H   0  0  0  0  0  0  0  0  0  0  0  0
    2.8181   -1.0212    0.0000 H   0  0  0  0  0  0  0  0  0  0  0  0
    5.3286   -1.0803    0.0000 H   0  0  0  0  0  0  0  0  0  0  0  0
    6.1098   -0.6822    0.0000 H   0  0  0  0  0  0  0  0  0  0  0  0
    5.7117    0.0990    0.0000 H   0  0  0  0  0  0  0  0  0  0  0  0
    1.8084    0.0990    0.0000 H   0  0  0  0  0  0  0  0  0  0  0  0
    1.4103   -0.6822    0.0000 H   0  0  0  0  0  0  0  0  0  0  0  0
    2.1916   -1.0803    0.0000 H   0  0  0  0  0  0  0  0  0  0  0  0
  1  4  1  0  0  0  0
  1  5  1  0  0  0  0
  2  3  1  0  0  0  0
  2  5  1  0  0  0  0
  2 10  1  0  0  0  0
  2 11  1  0  0  0  0
  3  4  1  0  0  0  0
  3  8  1  0  0  0  0
  3  9  1  0  0  0  0
  4  6  1  0  0  0  0
  4 12  1  0  0  0  0
  5  7  1  0  0  0  0
  5 13  1  0  0  0  0
  6 14  1  0  0  0  0
  6 15  1  0  0  0  0
  6 16  1  0  0  0  0
  7 17  1  0  0  0  0
  7 18  1  0  0  0  0
  7 19  1  0  0  0  0
M  END
> <PUBCHEM_COMPOUND_CID>
13855

> <PUBCHEM_COMPOUND_CANONICALIZED>
1

> <PUBCHEM_CACTVS_COMPLEXITY>
53.2

> <PUBCHEM_CACTVS_HBOND_ACCEPTOR>
1

> <PUBCHEM_CACTVS_HBOND_DONOR>
0

> <PUBCHEM_CACTVS_ROTATABLE_BOND>
0

> <PUBCHEM_CACTVS_SUBSKEYS>
AAADccBgIAAAAAAAAAAAAAAAAAAAASAAAAAAAAAAAAAAAAAAAAAAGgAAAAAACBSggAICAAAABAAAAAAAAAAAAAAAAAAAAAAAAAAAAAIAAAACAAAEAAAAAAGAAAAAAAAAAAAAAAAAAAAAAAAAAAAAAAAAAA==

> <PUBCHEM_IUPAC_OPENEYE_NAME>
2,5-dimethyltetrahydrofuran

> <PUBCHEM_IUPAC_CAS_NAME>
2,5-dimethyloxolane

> <PUBCHEM_IUPAC_NAME>
2,5-dimethyloxolane

> <PUBCHEM_IUPAC_SYSTEMATIC_NAME>
2,5-dimethyloxolane

> <PUBCHEM_IUPAC_TRADITIONAL_NAME>
2,5-dimethyltetrahydrofuran

> <PUBCHEM_IUPAC_INCHI>
InChI=1S/C6H12O/c1-5-3-4-6(2)7-5/h5-6H,3-4H2,1-2H3

> <PUBCHEM_IUPAC_INCHIKEY>
OXMIDRBAFOEOQT-UHFFFAOYSA-N

> <PUBCHEM_XLOGP3>
1.2

> <PUBCHEM_EXACT_MASS>
100.088815

> <PUBCHEM_MOLECULAR_FORMULA>
C6H12O

> <PUBCHEM_MOLECULAR_WEIGHT>
100.15888

> <PUBCHEM_OPENEYE_CAN_SMILES>
CC1CCC(O1)C

> <PUBCHEM_OPENEYE_ISO_SMILES>
CC1CCC(O1)C

> <PUBCHEM_CACTVS_TPSA>
9.2

> <PUBCHEM_MONOISOTOPIC_WEIGHT>
100.088815

> <PUBCHEM_TOTAL_CHARGE>
0

> <PUBCHEM_HEAVY_ATOM_COUNT>
7

> <PUBCHEM_ATOM_DEF_STEREO_COUNT>
0

> <PUBCHEM_ATOM_UDEF_STEREO_COUNT>
2

> <PUBCHEM_BOND_DEF_STEREO_COUNT>
0

> <PUBCHEM_BOND_UDEF_STEREO_COUNT>
0

> <PUBCHEM_ISOTOPIC_ATOM_COUNT>
0

> <PUBCHEM_COMPONENT_COUNT>
1

> <PUBCHEM_CACTVS_TAUTO_COUNT>
1

> <PUBCHEM_COORDINATE_TYPE>
1
5
255

> <PUBCHEM_BONDANNOTATIONS>
4  12  3
5  13  3

$$$$

