9096
  -OEChem-06261203243D

 27 28  0     0  0  0  0  0  0999 V2000
    1.1275    1.1791   -0.6031 O   0  0  0  0  0  0  0  0  0  0  0  0
    0.4875   -0.3970    1.0772 O   0  0  0  0  0  0  0  0  0  0  0  0
    0.0748    0.3572   -0.0740 C   0  0  0  0  0  0  0  0  0  0  0  0
   -1.0038    1.3396    0.4230 C   0  0  0  0  0  0  0  0  0  0  0  0
   -0.5388   -0.5413   -1.1681 C   0  0  0  0  0  0  0  0  0  0  0  0
   -2.2709    0.6344    0.9046 C   0  0  0  0  0  0  0  0  0  0  0  0
   -1.7977   -1.2635   -0.6898 C   0  0  0  0  0  0  0  0  0  0  0  0
   -2.8433   -0.2821   -0.1711 C   0  0  0  0  0  0  0  0  0  0  0  0
    2.3212    0.4580   -0.8948 C   0  0  0  0  0  0  0  0  0  0  0  0
    1.6585   -1.1789    0.8614 C   0  0  0  0  0  0  0  0  0  0  0  0
    2.7849   -0.3054    0.3346 C   0  0  0  0  0  0  0  0  0  0  0  0
   -1.2581    2.0483   -0.3764 H   0  0  0  0  0  0  0  0  0  0  0  0
   -0.6011    1.9431    1.2469 H   0  0  0  0  0  0  0  0  0  0  0  0
    0.1767   -1.2948   -1.5131 H   0  0  0  0  0  0  0  0  0  0  0  0
   -0.7738    0.0686   -2.0503 H   0  0  0  0  0  0  0  0  0  0  0  0
   -2.0511    0.0494    1.8059 H   0  0  0  0  0  0  0  0  0  0  0  0
   -3.0212    1.3812    1.1881 H   0  0  0  0  0  0  0  0  0  0  0  0
   -2.2215   -1.8466   -1.5154 H   0  0  0  0  0  0  0  0  0  0  0  0
   -1.5376   -1.9768    0.1017 H   0  0  0  0  0  0  0  0  0  0  0  0
   -3.7011   -0.8330    0.2303 H   0  0  0  0  0  0  0  0  0  0  0  0
   -3.2163    0.3254   -1.0049 H   0  0  0  0  0  0  0  0  0  0  0  0
    3.0844    1.1826   -1.1961 H   0  0  0  0  0  0  0  0  0  0  0  0
    2.1560   -0.2107   -1.7460 H   0  0  0  0  0  0  0  0  0  0  0  0
    1.4366   -2.0054    0.1786 H   0  0  0  0  0  0  0  0  0  0  0  0
    1.9454   -1.6220    1.8204 H   0  0  0  0  0  0  0  0  0  0  0  0
    3.6734   -0.9042    0.1121 H   0  0  0  0  0  0  0  0  0  0  0  0
    3.0491    0.4219    1.1122 H   0  0  0  0  0  0  0  0  0  0  0  0
  1  3  1  0  0  0  0
  1  9  1  0  0  0  0
  2  3  1  0  0  0  0
  2 10  1  0  0  0  0
  3  4  1  0  0  0  0
  3  5  1  0  0  0  0
  4  6  1  0  0  0  0
  4 12  1  0  0  0  0
  4 13  1  0  0  0  0
  5  7  1  0  0  0  0
  5 14  1  0  0  0  0
  5 15  1  0  0  0  0
  6  8  1  0  0  0  0
  6 16  1  0  0  0  0
  6 17  1  0  0  0  0
  7  8  1  0  0  0  0
  7 18  1  0  0  0  0
  7 19  1  0  0  0  0
  8 20  1  0  0  0  0
  8 21  1  0  0  0  0
  9 11  1  0  0  0  0
  9 22  1  0  0  0  0
  9 23  1  0  0  0  0
 10 11  1  0  0  0  0
 10 24  1  0  0  0  0
 10 25  1  0  0  0  0
 11 26  1  0  0  0  0
 11 27  1  0  0  0  0
M  END
> <PUBCHEM_COMPOUND_CID>
9096

> <PUBCHEM_CONFORMER_RMSD>
0.4

> <PUBCHEM_CONFORMER_DIVERSEORDER>
1
2
3
4

> <PUBCHEM_MMFF94_PARTIAL_CHARGES>
5
1 -0.56
10 0.28
2 -0.56
3 0.56
9 0.28

> <PUBCHEM_EFFECTIVE_ROTOR_COUNT>
2

> <PUBCHEM_PHARMACOPHORE_FEATURES>
4
1 1 acceptor
1 2 acceptor
6 1 2 3 9 10 11 rings
6 3 4 5 6 7 8 rings

> <PUBCHEM_HEAVY_ATOM_COUNT>
11

> <PUBCHEM_ATOM_DEF_STEREO_COUNT>
0

> <PUBCHEM_ATOM_UDEF_STEREO_COUNT>
0

> <PUBCHEM_BOND_DEF_STEREO_COUNT>
0

> <PUBCHEM_BOND_UDEF_STEREO_COUNT>
0

> <PUBCHEM_ISOTOPIC_ATOM_COUNT>
0

> <PUBCHEM_COMPONENT_COUNT>
1

> <PUBCHEM_CACTVS_TAUTO_COUNT>
1

> <PUBCHEM_CONFORMER_ID>
0000238800000001

> <PUBCHEM_MMFF94_ENERGY>
17.7074

> <PUBCHEM_FEATURE_SELFOVERLAP>
20.334

> <PUBCHEM_SHAPE_FINGERPRINT>
10857977 72 17240206508351440273
12423570 1 8645401075350246589
12716758 59 17386274506145005575
12897270 3 15410901776917187907
12932764 1 18411696595140043604
14128692 85 18340778043613996462
14993402 34 18335421279035378221
15310529 11 17917712400806769277
15775835 57 18410284826489161305
16945 1 18335133206783165861
18185500 45 18411708664019023491
20201158 50 16200157624551400138
20645464 45 16226341373075490098
21040471 1 17677322956642882473
23235685 24 17749383819298719737
23552423 10 18194404385819625333
29004967 10 17132113558647450220
369184 2 18410860966302713009
5084963 1 18410576205712976681

> <PUBCHEM_SHAPE_MULTIPOLES>
214.64
3.93
1.29
1.13
0.23
0.01
0.03
-0.28
0.21
-0.44
-0.04
0.33
-0.1
-0.62

> <PUBCHEM_SHAPE_SELFOVERLAP>
433.802

> <PUBCHEM_SHAPE_VOLUME>
124.1

> <PUBCHEM_COORDINATE_TYPE>
2
5
10

$$$$

