6893
  -OEChem-06261201343D

 20 20  0     0  0  0  0  0  0999 V2000
    2.4172   -0.8529    0.0007 N   0  0  0  0  0  0  0  0  0  0  0  0
   -0.0229   -0.7616   -0.0004 C   0  0  0  0  0  0  0  0  0  0  0  0
   -1.2011   -0.0149    0.0000 C   0  0  0  0  0  0  0  0  0  0  0  0
    1.2128   -0.1147   -0.0006 C   0  0  0  0  0  0  0  0  0  0  0  0
   -1.1435    1.3788    0.0002 C   0  0  0  0  0  0  0  0  0  0  0  0
   -0.0881   -2.2568   -0.0001 C   0  0  0  0  0  0  0  0  0  0  0  0
    1.2704    1.2789   -0.0002 C   0  0  0  0  0  0  0  0  0  0  0  0
   -2.5370   -0.6825    0.0003 C   0  0  0  0  0  0  0  0  0  0  0  0
    0.0923    2.0257    0.0002 C   0  0  0  0  0  0  0  0  0  0  0  0
   -2.0513    1.9765    0.0005 H   0  0  0  0  0  0  0  0  0  0  0  0
   -1.0968   -2.6744   -0.0001 H   0  0  0  0  0  0  0  0  0  0  0  0
    0.4097   -2.6537   -0.8920 H   0  0  0  0  0  0  0  0  0  0  0  0
    0.4095   -2.6532    0.8922 H   0  0  0  0  0  0  0  0  0  0  0  0
    2.2266    1.7960    0.0001 H   0  0  0  0  0  0  0  0  0  0  0  0
   -2.6661   -1.2967   -0.8971 H   0  0  0  0  0  0  0  0  0  0  0  0
   -2.6657   -1.2965    0.8977 H   0  0  0  0  0  0  0  0  0  0  0  0
   -3.3519    0.0505    0.0004 H   0  0  0  0  0  0  0  0  0  0  0  0
    0.1372    3.1109    0.0005 H   0  0  0  0  0  0  0  0  0  0  0  0
    2.4119   -1.8630   -0.0028 H   0  0  0  0  0  0  0  0  0  0  0  0
    3.3024   -0.3631   -0.0020 H   0  0  0  0  0  0  0  0  0  0  0  0
  1  4  1  0  0  0  0
  1 19  1  0  0  0  0
  1 20  1  0  0  0  0
  2  3  2  0  0  0  0
  2  4  1  0  0  0  0
  2  6  1  0  0  0  0
  3  5  1  0  0  0  0
  3  8  1  0  0  0  0
  4  7  2  0  0  0  0
  5  9  2  0  0  0  0
  5 10  1  0  0  0  0
  6 11  1  0  0  0  0
  6 12  1  0  0  0  0
  6 13  1  0  0  0  0
  7  9  1  0  0  0  0
  7 14  1  0  0  0  0
  8 15  1  0  0  0  0
  8 16  1  0  0  0  0
  8 17  1  0  0  0  0
  9 18  1  0  0  0  0
M  END
> <PUBCHEM_COMPOUND_CID>
6893

> <PUBCHEM_CONFORMER_RMSD>
0.4

> <PUBCHEM_CONFORMER_DIVERSEORDER>
1

> <PUBCHEM_MMFF94_PARTIAL_CHARGES>
14
1 -0.9
10 0.15
14 0.15
18 0.15
19 0.4
2 -0.14
20 0.4
3 -0.14
4 0.1
5 -0.15
6 0.14
7 -0.15
8 0.14
9 -0.15

> <PUBCHEM_EFFECTIVE_ROTOR_COUNT>
0

> <PUBCHEM_PHARMACOPHORE_FEATURES>
3
1 1 cation
1 1 donor
6 2 3 4 5 7 9 rings

> <PUBCHEM_HEAVY_ATOM_COUNT>
9

> <PUBCHEM_ATOM_DEF_STEREO_COUNT>
0

> <PUBCHEM_ATOM_UDEF_STEREO_COUNT>
0

> <PUBCHEM_BOND_DEF_STEREO_COUNT>
0

> <PUBCHEM_BOND_UDEF_STEREO_COUNT>
0

> <PUBCHEM_ISOTOPIC_ATOM_COUNT>
0

> <PUBCHEM_COMPONENT_COUNT>
1

> <PUBCHEM_CACTVS_TAUTO_COUNT>
1

> <PUBCHEM_CONFORMER_ID>
00001AED00000001

> <PUBCHEM_MMFF94_ENERGY>
35.7075

> <PUBCHEM_FEATURE_SELFOVERLAP>
15.223

> <PUBCHEM_SHAPE_FINGERPRINT>
12423570 1 9260234607332554739
16945 1 18050286968587203329
18185500 45 18266461095009731663
193761 8 17762056536505867270
21040471 1 17978510836709668933
23552423 10 17910945061298946126
241688 4 18410574032417431105
2748010 2 18411422816744734005
29004967 10 18270116790852181849
5084963 1 18186521007549228659

> <PUBCHEM_SHAPE_MULTIPOLES>
180.23
2.52
2.23
0.61
0.55
0.17
0
0.38
0
-0.26
0
0.02
-0.01
0

> <PUBCHEM_SHAPE_SELFOVERLAP>
372.114

> <PUBCHEM_SHAPE_VOLUME>
105.2

> <PUBCHEM_COORDINATE_TYPE>
2
5
10

$$$$

