12993
  -OEChem-06261207383D

 14 13  0     0  0  0  0  0  0999 V2000
    2.8444    0.3565    0.1702 O   0  0  0  0  0  0  0  0  0  0  0  0
   -1.9406   -0.4859    0.2907 C   0  0  0  0  0  0  0  0  0  0  0  0
   -2.6879    0.7664   -0.1410 C   0  0  0  0  0  0  0  0  0  0  0  0
   -0.5589   -0.5282   -0.2934 C   0  0  0  0  0  0  0  0  0  0  0  0
    0.5125   -0.0052    0.3146 C   0  0  0  0  0  0  0  0  0  0  0  0
    1.8305   -0.1036   -0.3410 C   0  0  0  0  0  0  0  0  0  0  0  0
   -2.4906   -1.3791   -0.0262 H   0  0  0  0  0  0  0  0  0  0  0  0
   -1.8926   -0.5205    1.3858 H   0  0  0  0  0  0  0  0  0  0  0  0
   -2.1784    1.6731    0.2027 H   0  0  0  0  0  0  0  0  0  0  0  0
   -3.6980    0.7671    0.2810 H   0  0  0  0  0  0  0  0  0  0  0  0
   -2.7774    0.8178   -1.2315 H   0  0  0  0  0  0  0  0  0  0  0  0
   -0.4613   -1.0028   -1.2668 H   0  0  0  0  0  0  0  0  0  0  0  0
    0.4537    0.4841    1.2794 H   0  0  0  0  0  0  0  0  0  0  0  0
    1.8536   -0.6132   -1.3188 H   0  0  0  0  0  0  0  0  0  0  0  0
  1  6  2  0  0  0  0
  2  3  1  0  0  0  0
  2  4  1  0  0  0  0
  2  7  1  0  0  0  0
  2  8  1  0  0  0  0
  3  9  1  0  0  0  0
  3 10  1  0  0  0  0
  3 11  1  0  0  0  0
  4  5  2  0  0  0  0
  4 12  1  0  0  0  0
  5  6  1  0  0  0  0
  5 13  1  0  0  0  0
  6 14  1  0  0  0  0
M  END
> <PUBCHEM_COMPOUND_CID>
12993

> <PUBCHEM_CONFORMER_RMSD>
0.4

> <PUBCHEM_CONFORMER_DIVERSEORDER>
1
2

> <PUBCHEM_MMFF94_PARTIAL_CHARGES>
8
1 -0.57
12 0.15
13 0.15
14 0.06
2 0.14
4 -0.29
5 -0.14
6 0.5

> <PUBCHEM_EFFECTIVE_ROTOR_COUNT>
2

> <PUBCHEM_PHARMACOPHORE_FEATURES>
2
1 1 acceptor
1 3 hydrophobe

> <PUBCHEM_HEAVY_ATOM_COUNT>
6

> <PUBCHEM_ATOM_DEF_STEREO_COUNT>
0

> <PUBCHEM_ATOM_UDEF_STEREO_COUNT>
0

> <PUBCHEM_BOND_DEF_STEREO_COUNT>
0

> <PUBCHEM_BOND_UDEF_STEREO_COUNT>
1

> <PUBCHEM_ISOTOPIC_ATOM_COUNT>
0

> <PUBCHEM_COMPONENT_COUNT>
1

> <PUBCHEM_CACTVS_TAUTO_COUNT>
1

> <PUBCHEM_CONFORMER_ID>
000032C100000001

> <PUBCHEM_MMFF94_ENERGY>
0.6521

> <PUBCHEM_FEATURE_SELFOVERLAP>
10.148

> <PUBCHEM_SHAPE_FINGERPRINT>
14390081 3 18407762542678162529
16714656 1 18407759239927316237
20096714 4 18413670192878935997
29004967 10 17676761007295580378
5460574 1 12463575070970888935

> <PUBCHEM_SHAPE_MULTIPOLES>
117.61
4.2
0.81
0.68
0.62
0.02
-0.01
0.98
0.03
-0.33
-0.01
-0.02
-0.02
0.11

> <PUBCHEM_SHAPE_SELFOVERLAP>
208.57

> <PUBCHEM_SHAPE_VOLUME>
76.6

> <PUBCHEM_COORDINATE_TYPE>
2
5
10

$$$$

