5458
  -OEChem-06261200412D

 57 62  0     1  0  0  0  0  0999 V2000
    5.0879    0.7375    0.0000 O   0  0  0  0  0  0  0  0  0  0  0  0
    4.2400    0.1304    0.0000 O   0  0  0  0  0  0  0  0  0  0  0  0
    8.3930   -1.8068    0.0000 O   0  0  0  0  0  0  0  0  0  0  0  0
    6.7226    2.4189    0.0000 N   0  3  0  0  0  0  0  0  0  0  0  0
    4.0443    2.1142    0.0000 N   0  0  0  0  0  0  0  0  0  0  0  0
    8.1874   -3.7962    0.0000 N   0  0  0  0  0  0  0  0  0  0  0  0
    6.0657    0.9471    0.0000 C   0  0  3  0  0  0  0  0  0  0  0  0
    5.8565    1.9189    0.0000 C   0  0  0  0  0  0  0  0  0  0  0  0
    7.0544    0.8440    0.0000 C   0  0  0  0  0  0  0  0  0  0  0  0
    7.4596    1.7518    0.0000 C   0  0  0  0  0  0  0  0  0  0  0  0
    4.9905    2.4189    0.0000 C   0  0  0  0  0  0  0  0  0  0  0  0
    5.9629   -0.0476    0.0000 C   0  0  0  0  0  0  0  0  0  0  0  0
    4.9905    3.4189    0.0000 C   0  0  0  0  0  0  0  0  0  0  0  0
    6.7226    3.4189    0.0000 C   0  0  0  0  0  0  0  0  0  0  0  0
    4.0443    3.7236    0.0000 C   0  0  0  0  0  0  0  0  0  0  0  0
    5.8565    3.9189    0.0000 C   0  0  0  0  0  0  0  0  0  0  0  0
    7.6494   -0.0035    0.0000 C   0  0  0  0  0  0  0  0  0  0  0  0
    3.4607    2.9189    0.0000 C   0  0  0  0  0  0  0  0  0  0  0  0
    8.4877    1.8750    0.0000 C   0  0  0  0  0  0  0  0  0  0  0  0
    6.7730   -0.6340    0.0000 C   0  0  0  0  0  0  0  0  0  0  0  0
    5.0501   -0.4559    0.0000 C   0  0  0  0  0  0  0  0  0  0  0  0
    6.6702   -1.6287    0.0000 C   0  0  0  0  0  0  0  0  0  0  0  0
    8.6800    0.0959    0.0000 C   0  0  0  0  0  0  0  0  0  0  0  0
    9.1020    1.0415    0.0000 C   0  0  0  0  0  0  0  0  0  0  0  0
    3.6369    4.6756    0.0000 C   0  0  0  0  0  0  0  0  0  0  0  0
    4.9473   -1.4506    0.0000 C   0  0  0  0  0  0  0  0  0  0  0  0
    7.4802   -2.2151    0.0000 C   0  0  3  0  0  0  0  0  0  0  0  0
    2.4293    3.0104    0.0000 C   0  0  0  0  0  0  0  0  0  0  0  0
    5.7573   -2.0370    0.0000 C   0  0  0  0  0  0  0  0  0  0  0  0
    2.6079    4.7909    0.0000 C   0  0  0  0  0  0  0  0  0  0  0  0
    2.0000    3.9526    0.0000 C   0  0  0  0  0  0  0  0  0  0  0  0
    7.3774   -3.2098    0.0000 C   0  0  0  0  0  0  0  0  0  0  0  0
    8.0846   -4.7909    0.0000 C   0  0  0  0  0  0  0  0  0  0  0  0
    7.2595    3.7289    0.0000 H   0  0  0  0  0  0  0  0  0  0  0  0
    3.8517    1.5248    0.0000 H   0  0  0  0  0  0  0  0  0  0  0  0
    5.8565    4.5389    0.0000 H   0  0  0  0  0  0  0  0  0  0  0  0
    7.3902   -0.5667    0.0000 H   0  0  0  0  0  0  0  0  0  0  0  0
    8.7338    2.4441    0.0000 H   0  0  0  0  0  0  0  0  0  0  0  0
    7.3389   -0.3809    0.0000 H   0  0  0  0  0  0  0  0  0  0  0  0
    4.6723    1.1975    0.0000 H   0  0  0  0  0  0  0  0  0  0  0  0
    9.0421   -0.4074    0.0000 H   0  0  0  0  0  0  0  0  0  0  0  0
    9.7184    1.1082    0.0000 H   0  0  0  0  0  0  0  0  0  0  0  0
    4.0067    5.1733    0.0000 H   0  0  0  0  0  0  0  0  0  0  0  0
    4.3813   -1.7038    0.0000 H   0  0  0  0  0  0  0  0  0  0  0  0
    7.5439   -1.5984    0.0000 H   0  0  0  0  0  0  0  0  0  0  0  0
    2.0711    2.5043    0.0000 H   0  0  0  0  0  0  0  0  0  0  0  0
    5.6936   -2.6537    0.0000 H   0  0  0  0  0  0  0  0  0  0  0  0
    2.3574    5.3580    0.0000 H   0  0  0  0  0  0  0  0  0  0  0  0
    1.3831    4.0145    0.0000 H   0  0  0  0  0  0  0  0  0  0  0  0
    6.7811   -3.0399    0.0000 H   0  0  0  0  0  0  0  0  0  0  0  0
    7.1066   -3.7675    0.0000 H   0  0  0  0  0  0  0  0  0  0  0  0
    3.6741   -0.1227    0.0000 H   0  0  0  0  0  0  0  0  0  0  0  0
    8.8952   -2.1703    0.0000 H   0  0  0  0  0  0  0  0  0  0  0  0
    8.7534   -3.5430    0.0000 H   0  0  0  0  0  0  0  0  0  0  0  0
    7.4679   -4.7271    0.0000 H   0  0  0  0  0  0  0  0  0  0  0  0
    8.0209   -5.4076    0.0000 H   0  0  0  0  0  0  0  0  0  0  0  0
    8.7013   -4.8546    0.0000 H   0  0  0  0  0  0  0  0  0  0  0  0
  1  7  1  0  0  0  0
  1 40  1  0  0  0  0
  2 21  1  0  0  0  0
  2 52  1  0  0  0  0
  3 27  1  0  0  0  0
  3 53  1  0  0  0  0
  4  8  2  0  0  0  0
  4 10  1  0  0  0  0
  4 14  1  0  0  0  0
  5 11  1  0  0  0  0
  5 18  1  0  0  0  0
  5 35  1  0  0  0  0
  6 32  1  0  0  0  0
  6 33  1  0  0  0  0
  6 54  1  0  0  0  0
  7  8  1  0  0  0  0
  7  9  1  0  0  0  0
  7 12  1  0  0  0  0
  8 11  1  0  0  0  0
  9 10  1  0  0  0  0
  9 17  2  0  0  0  0
 10 19  2  0  0  0  0
 11 13  2  0  0  0  0
 12 20  1  0  0  0  0
 12 21  2  0  0  0  0
 13 15  1  0  0  0  0
 13 16  1  0  0  0  0
 14 16  2  0  0  0  0
 14 34  1  0  0  0  0
 15 18  1  0  0  0  0
 15 25  2  0  0  0  0
 16 36  1  0  0  0  0
 17 23  1  0  0  0  0
 17 37  1  0  0  0  0
 18 28  2  0  0  0  0
 19 24  1  0  0  0  0
 19 38  1  0  0  0  0
 20 22  2  0  0  0  0
 20 39  1  0  0  0  0
 21 26  1  0  0  0  0
 22 27  1  0  0  0  0
 22 29  1  0  0  0  0
 23 24  2  0  0  0  0
 23 41  1  0  0  0  0
 24 42  1  0  0  0  0
 25 30  1  0  0  0  0
 25 43  1  0  0  0  0
 26 29  2  0  0  0  0
 26 44  1  0  0  0  0
 27 32  1  0  0  0  0
 27 45  1  0  0  0  0
 28 31  1  0  0  0  0
 28 46  1  0  0  0  0
 29 47  1  0  0  0  0
 30 31  2  0  0  0  0
 30 48  1  0  0  0  0
 31 49  1  0  0  0  0
 32 50  1  0  0  0  0
 32 51  1  0  0  0  0
 33 55  1  0  0  0  0
 33 56  1  0  0  0  0
 33 57  1  0  0  0  0
M  CHG  1   4   1
M  END
> <PUBCHEM_COMPOUND_CID>
5458

> <PUBCHEM_COMPOUND_CANONICALIZED>
1

> <PUBCHEM_CACTVS_COMPLEXITY>
708

> <PUBCHEM_CACTVS_HBOND_ACCEPTOR>
4

> <PUBCHEM_CACTVS_HBOND_DONOR>
5

> <PUBCHEM_CACTVS_ROTATABLE_BOND>
4

> <PUBCHEM_CACTVS_SUBSKEYS>
AAADceB7MAAAAAAAAAAAAAAAAAAAAWLAAAA8YMEAAAAAAFgB/gAAHgAQCAAADFzhngY+xvPNkgCgAzRnRASCgCQxMiAI2aA+fJgKd+LCkZOUcAhn0BHY2Aew8PcOoAACAAAKAABAAAQAABQAAAAAAAAAAA==

> <PUBCHEM_IUPAC_TRADITIONAL_NAME>
13-[2-hydroxy-5-[1-hydroxy-2-(methylamino)ethyl]phenyl]-12H-indolo[2,1-a]$b-carbolin-5-ium-13-ol

> <PUBCHEM_IUPAC_INCHI>
InChI=1S/C27H23N3O3/c1-28-15-24(32)16-10-11-23(31)20(14-16)27(33)19-7-3-5-9-22(19)30-13-12-18-17-6-2-4-8-21(17)29-25(18)26(27)30/h2-14,24,28,31-33H,15H2,1H3/p+1

> <PUBCHEM_IUPAC_INCHIKEY>
UGMSHHBPWHIIGZ-UHFFFAOYSA-O

> <PUBCHEM_XLOGP3_AA>
2.9

> <PUBCHEM_EXACT_MASS>
438.181767

> <PUBCHEM_MOLECULAR_FORMULA>
C27H24N3O3+

> <PUBCHEM_MOLECULAR_WEIGHT>
438.49776

> <PUBCHEM_OPENEYE_CAN_SMILES>
CNCC(C1=CC(=C(C=C1)O)C2(C3=CC=CC=C3[N+]4=C2C5=C(C=C4)C6=CC=CC=C6N5)O)O

> <PUBCHEM_OPENEYE_ISO_SMILES>
CNCC(C1=CC(=C(C=C1)O)C2(C3=CC=CC=C3[N+]4=C2C5=C(C=C4)C6=CC=CC=C6N5)O)O

> <PUBCHEM_CACTVS_TPSA>
92.4

> <PUBCHEM_MONOISOTOPIC_WEIGHT>
438.181767

> <PUBCHEM_TOTAL_CHARGE>
1

> <PUBCHEM_HEAVY_ATOM_COUNT>
33

> <PUBCHEM_ATOM_DEF_STEREO_COUNT>
0

> <PUBCHEM_ATOM_UDEF_STEREO_COUNT>
2

> <PUBCHEM_BOND_DEF_STEREO_COUNT>
0

> <PUBCHEM_BOND_UDEF_STEREO_COUNT>
0

> <PUBCHEM_ISOTOPIC_ATOM_COUNT>
0

> <PUBCHEM_COMPONENT_COUNT>
1

> <PUBCHEM_CACTVS_TAUTO_COUNT>
3

> <PUBCHEM_COORDINATE_TYPE>
1
5
255

> <PUBCHEM_BONDANNOTATIONS>
7  1  3
10  19  8
11  13  8
12  20  8
12  21  8
13  15  8
13  16  8
14  16  8
15  18  8
15  25  8
17  23  8
18  28  8
19  24  8
20  22  8
21  26  8
22  29  8
23  24  8
25  30  8
26  29  8
28  31  8
27  3  3
30  31  8
4  14  8
4  8  8
5  11  8
5  18  8
8  11  8
9  10  8
9  17  8

$$$$

