583426
  -OEChem-06241222453D

 19 20  0     0  0  0  0  0  0999 V2000
    1.8005    1.9449    0.0010 O   0  0  0  0  0  0  0  0  0  0  0  0
    1.1533    0.7196   -0.0007 N   0  0  0  0  0  0  0  0  0  0  0  0
    0.8697   -1.4848    0.0001 N   0  0  0  0  0  0  0  0  0  0  0  0
   -0.2042    0.5253   -0.0004 C   0  0  0  0  0  0  0  0  0  0  0  0
   -0.3555   -0.8587    0.0000 C   0  0  0  0  0  0  0  0  0  0  0  0
    1.7511   -0.5099   -0.0002 C   0  0  0  0  0  0  0  0  0  0  0  0
   -1.2798    1.4139   -0.0004 C   0  0  0  0  0  0  0  0  0  0  0  0
   -1.6497   -1.4060    0.0003 C   0  0  0  0  0  0  0  0  0  0  0  0
    3.2197   -0.6634    0.0000 C   0  0  0  0  0  0  0  0  0  0  0  0
   -2.5607    0.8519    0.0001 C   0  0  0  0  0  0  0  0  0  0  0  0
   -2.7444   -0.5327    0.0003 C   0  0  0  0  0  0  0  0  0  0  0  0
   -1.1361    2.4884   -0.0006 H   0  0  0  0  0  0  0  0  0  0  0  0
   -1.8032   -2.4804    0.0006 H   0  0  0  0  0  0  0  0  0  0  0  0
    3.4970   -1.7222   -0.0006 H   0  0  0  0  0  0  0  0  0  0  0  0
    3.6591   -0.1993   -0.8885 H   0  0  0  0  0  0  0  0  0  0  0  0
    3.6586   -0.2003    0.8893 H   0  0  0  0  0  0  0  0  0  0  0  0
   -3.4291    1.5060    0.0002 H   0  0  0  0  0  0  0  0  0  0  0  0
   -3.7524   -0.9399    0.0006 H   0  0  0  0  0  0  0  0  0  0  0  0
    1.8762    2.1001    0.9582 H   0  0  0  0  0  0  0  0  0  0  0  0
  1  2  1  0  0  0  0
  1 19  1  0  0  0  0
  2  4  1  0  0  0  0
  2  6  1  0  0  0  0
  3  5  1  0  0  0  0
  3  6  2  0  0  0  0
  4  5  1  0  0  0  0
  4  7  2  0  0  0  0
  5  8  2  0  0  0  0
  6  9  1  0  0  0  0
  7 10  1  0  0  0  0
  7 12  1  0  0  0  0
  8 11  1  0  0  0  0
  8 13  1  0  0  0  0
  9 14  1  0  0  0  0
  9 15  1  0  0  0  0
  9 16  1  0  0  0  0
 10 11  2  0  0  0  0
 10 17  1  0  0  0  0
 11 18  1  0  0  0  0
M  END
> <PUBCHEM_COMPOUND_CID>
583426

> <PUBCHEM_CONFORMER_RMSD>
0.4

> <PUBCHEM_CONFORMER_DIVERSEORDER>
1

> <PUBCHEM_MMFF94_PARTIAL_CHARGES>
16
1 -0.54
10 -0.15
11 -0.15
12 0.15
13 0.15
17 0.15
18 0.15
19 0.4
2 0.44
3 -0.57
4 -0.15
5 0.23
6 0.01
7 -0.15
8 -0.15
9 0.18

> <PUBCHEM_EFFECTIVE_ROTOR_COUNT>
0

> <PUBCHEM_PHARMACOPHORE_FEATURES>
3
3 2 3 6 cation
5 2 3 4 5 6 rings
6 4 5 7 8 10 11 rings

> <PUBCHEM_HEAVY_ATOM_COUNT>
11

> <PUBCHEM_ATOM_DEF_STEREO_COUNT>
0

> <PUBCHEM_ATOM_UDEF_STEREO_COUNT>
0

> <PUBCHEM_BOND_DEF_STEREO_COUNT>
0

> <PUBCHEM_BOND_UDEF_STEREO_COUNT>
0

> <PUBCHEM_ISOTOPIC_ATOM_COUNT>
0

> <PUBCHEM_COMPONENT_COUNT>
1

> <PUBCHEM_CACTVS_TAUTO_COUNT>
1

> <PUBCHEM_CONFORMER_ID>
0008E70200000001

> <PUBCHEM_MMFF94_ENERGY>
15.9088

> <PUBCHEM_FEATURE_SELFOVERLAP>
15.33

> <PUBCHEM_SHAPE_FINGERPRINT>
11206711 2 18341051908035123189
12032990 46 18337102488270492438
12423570 1 6548864316646742851
12897270 3 18411702075723729935
14128692 85 18408039598059516686
14325111 11 18410573976651382208
16945 1 18410855503236194247
193761 8 17906452125785019750
19973954 147 18410854330631059649
20201158 50 18409169947642389087
20871998 184 18187081728721000919
21040471 1 18266740379558370115
21501502 16 18337670815148090621
23402655 69 18049460411539097221
23463225 33 18197782300594752354
23552423 10 18271526394633779559
23559900 14 18262797501820151286
2748010 2 18266741290017583967
369184 2 18409732850414246275
5084963 1 18259705596747544019
528886 8 18337958994726980027
7364860 26 18261955133551606320

> <PUBCHEM_SHAPE_MULTIPOLES>
210.54
4.1
1.71
0.59
1.01
0.35
0
-0.27
0
0.02
0
-0.03
-0.01
0

> <PUBCHEM_SHAPE_SELFOVERLAP>
459.04

> <PUBCHEM_SHAPE_VOLUME>
118.3

> <PUBCHEM_COORDINATE_TYPE>
2
5
10

$$$$

