582690
  -OEChem-06241222432D

 35 37  0     1  0  0  0  0  0999 V2000
    4.6917    2.1558    0.0000 O   0  0  0  0  0  0  0  0  0  0  0  0
    8.0377    1.0622    0.0000 O   0  0  0  0  0  0  0  0  0  0  0  0
    6.2781    1.3440    0.0000 N   0  0  0  0  0  0  0  0  0  0  0  0
    4.6783   -2.3727    0.0000 N   0  0  0  0  0  0  0  0  0  0  0  0
    5.9674    0.3935    0.0000 C   0  0  3  0  0  0  0  0  0  0  0  0
    4.9889    0.1873    0.0000 C   0  0  0  0  0  0  0  0  0  0  0  0
    4.6783   -0.7633    0.0000 C   0  0  0  0  0  0  0  0  0  0  0  0
    7.2314    2.6514    0.0000 C   0  0  0  0  0  0  0  0  0  0  0  0
    6.2809    2.9620    0.0000 C   0  0  0  0  0  0  0  0  0  0  0  0
    7.2297    1.6514    0.0000 C   0  0  0  0  0  0  0  0  0  0  0  0
    5.6917    2.1540    0.0000 C   0  0  0  0  0  0  0  0  0  0  0  0
    6.6353   -0.3508    0.0000 C   0  0  0  0  0  0  0  0  0  0  0  0
    3.7320   -1.0680    0.0000 C   0  0  0  0  0  0  0  0  0  0  0  0
    5.2619   -1.5680    0.0000 C   0  0  0  0  0  0  0  0  0  0  0  0
    3.7320   -2.0680    0.0000 C   0  0  0  0  0  0  0  0  0  0  0  0
    2.8660   -0.5680    0.0000 C   0  0  0  0  0  0  0  0  0  0  0  0
    2.8660   -2.5680    0.0000 C   0  0  0  0  0  0  0  0  0  0  0  0
    2.0000   -1.0680    0.0000 C   0  0  0  0  0  0  0  0  0  0  0  0
    2.0000   -2.0680    0.0000 C   0  0  0  0  0  0  0  0  0  0  0  0
    6.5741    0.5213    0.0000 H   0  0  0  0  0  0  0  0  0  0  0  0
    4.9684    0.8069    0.0000 H   0  0  0  0  0  0  0  0  0  0  0  0
    4.3751    0.2746    0.0000 H   0  0  0  0  0  0  0  0  0  0  0  0
    7.8479    2.5855    0.0000 H   0  0  0  0  0  0  0  0  0  0  0  0
    7.3614    3.2576    0.0000 H   0  0  0  0  0  0  0  0  0  0  0  0
    6.5341    3.5280    0.0000 H   0  0  0  0  0  0  0  0  0  0  0  0
    5.7445    3.2730    0.0000 H   0  0  0  0  0  0  0  0  0  0  0  0
    6.1738   -0.7649    0.0000 H   0  0  0  0  0  0  0  0  0  0  0  0
    7.0494   -0.8123    0.0000 H   0  0  0  0  0  0  0  0  0  0  0  0
    7.0968    0.0632    0.0000 H   0  0  0  0  0  0  0  0  0  0  0  0
    5.8819   -1.5680    0.0000 H   0  0  0  0  0  0  0  0  0  0  0  0
    4.8709   -2.9620    0.0000 H   0  0  0  0  0  0  0  0  0  0  0  0
    2.8660    0.0520    0.0000 H   0  0  0  0  0  0  0  0  0  0  0  0
    2.8660   -3.1880    0.0000 H   0  0  0  0  0  0  0  0  0  0  0  0
    1.4631   -0.7580    0.0000 H   0  0  0  0  0  0  0  0  0  0  0  0
    1.4631   -2.3780    0.0000 H   0  0  0  0  0  0  0  0  0  0  0  0
  1 11  2  0  0  0  0
  2 10  2  0  0  0  0
  3  5  1  0  0  0  0
  3 10  1  0  0  0  0
  3 11  1  0  0  0  0
  4 14  1  0  0  0  0
  4 15  1  0  0  0  0
  4 31  1  0  0  0  0
  5  6  1  0  0  0  0
  5 12  1  0  0  0  0
  5 20  1  0  0  0  0
  6  7  1  0  0  0  0
  6 21  1  0  0  0  0
  6 22  1  0  0  0  0
  7 13  1  0  0  0  0
  7 14  2  0  0  0  0
  8  9  1  0  0  0  0
  8 10  1  0  0  0  0
  8 23  1  0  0  0  0
  8 24  1  0  0  0  0
  9 11  1  0  0  0  0
  9 25  1  0  0  0  0
  9 26  1  0  0  0  0
 12 27  1  0  0  0  0
 12 28  1  0  0  0  0
 12 29  1  0  0  0  0
 13 15  1  0  0  0  0
 13 16  2  0  0  0  0
 14 30  1  0  0  0  0
 15 17  2  0  0  0  0
 16 18  1  0  0  0  0
 16 32  1  0  0  0  0
 17 19  1  0  0  0  0
 17 33  1  0  0  0  0
 18 19  2  0  0  0  0
 18 34  1  0  0  0  0
 19 35  1  0  0  0  0
M  END
> <PUBCHEM_COMPOUND_CID>
582690

> <PUBCHEM_COMPOUND_CANONICALIZED>
1

> <PUBCHEM_CACTVS_COMPLEXITY>
366

> <PUBCHEM_CACTVS_HBOND_ACCEPTOR>
2

> <PUBCHEM_CACTVS_HBOND_DONOR>
1

> <PUBCHEM_CACTVS_ROTATABLE_BOND>
3

> <PUBCHEM_CACTVS_SUBSKEYS>
AAADceBzMAAAAAAAAAAAAAAAAAAAAWLAAAAwAAAAAAAAAFgB8AAAHgAQAAAADCjBngQ+wPPJkACoAzV3VACCgCAxAiAI2aE4ZJgIIPLAkZGEIAhgliDIyAcVgMAOgAAAAAACAAAAAAAAAAQAAAAAAAAAAA==

> <PUBCHEM_IUPAC_OPENEYE_NAME>
1-[2-(1H-indol-3-yl)-1-methyl-ethyl]pyrrolidine-2,5-dione

> <PUBCHEM_IUPAC_CAS_NAME>
1-[1-(1H-indol-3-yl)propan-2-yl]pyrrolidine-2,5-dione

> <PUBCHEM_IUPAC_NAME>
1-[1-(1H-indol-3-yl)propan-2-yl]pyrrolidine-2,5-dione

> <PUBCHEM_IUPAC_SYSTEMATIC_NAME>
1-[1-(1H-indol-3-yl)propan-2-yl]pyrrolidine-2,5-dione

> <PUBCHEM_IUPAC_TRADITIONAL_NAME>
1-[2-(1H-indol-3-yl)-1-methyl-ethyl]pyrrolidine-2,5-quinone

> <PUBCHEM_IUPAC_INCHI>
InChI=1S/C15H16N2O2/c1-10(17-14(18)6-7-15(17)19)8-11-9-16-13-5-3-2-4-12(11)13/h2-5,9-10,16H,6-8H2,1H3

> <PUBCHEM_IUPAC_INCHIKEY>
QZCLCVHNXBRKIE-UHFFFAOYSA-N

> <PUBCHEM_XLOGP3>
1.8

> <PUBCHEM_EXACT_MASS>
256.121178

> <PUBCHEM_MOLECULAR_FORMULA>
C15H16N2O2

> <PUBCHEM_MOLECULAR_WEIGHT>
256.29974

> <PUBCHEM_OPENEYE_CAN_SMILES>
CC(CC1=CNC2=CC=CC=C21)N3C(=O)CCC3=O

> <PUBCHEM_OPENEYE_ISO_SMILES>
CC(CC1=CNC2=CC=CC=C21)N3C(=O)CCC3=O

> <PUBCHEM_CACTVS_TPSA>
53.2

> <PUBCHEM_MONOISOTOPIC_WEIGHT>
256.121178

> <PUBCHEM_TOTAL_CHARGE>
0

> <PUBCHEM_HEAVY_ATOM_COUNT>
19

> <PUBCHEM_ATOM_DEF_STEREO_COUNT>
0

> <PUBCHEM_ATOM_UDEF_STEREO_COUNT>
1

> <PUBCHEM_BOND_DEF_STEREO_COUNT>
0

> <PUBCHEM_BOND_UDEF_STEREO_COUNT>
0

> <PUBCHEM_ISOTOPIC_ATOM_COUNT>
0

> <PUBCHEM_COMPONENT_COUNT>
1

> <PUBCHEM_CACTVS_TAUTO_COUNT>
3

> <PUBCHEM_COORDINATE_TYPE>
1
5
255

> <PUBCHEM_BONDANNOTATIONS>
13  15  8
13  16  8
15  17  8
16  18  8
17  19  8
18  19  8
4  14  8
4  15  8
5  12  3
7  13  8
7  14  8

$$$$

