13898
  -OEChem-06241222403D

 22 24  0     0  0  0  0  0  0999 V2000
   -0.0001   -1.9626   -0.4255 S   0  0  0  0  0  0  0  0  0  0  0  0
    0.0000   -2.7195    0.8700 O   0  0  0  0  0  0  0  0  0  0  0  0
    0.7260    0.6117   -0.0206 C   0  0  0  0  0  0  0  0  0  0  0  0
   -0.7260    0.6118   -0.0207 C   0  0  0  0  0  0  0  0  0  0  0  0
    1.2541   -0.6775   -0.2063 C   0  0  0  0  0  0  0  0  0  0  0  0
   -1.2541   -0.6775   -0.2063 C   0  0  0  0  0  0  0  0  0  0  0  0
    1.5913    1.6876    0.1489 C   0  0  0  0  0  0  0  0  0  0  0  0
   -1.5913    1.6877    0.1487 C   0  0  0  0  0  0  0  0  0  0  0  0
    2.6220   -0.9131   -0.2233 C   0  0  0  0  0  0  0  0  0  0  0  0
   -2.6221   -0.9131   -0.2231 C   0  0  0  0  0  0  0  0  0  0  0  0
    2.9712    1.4618    0.1316 C   0  0  0  0  0  0  0  0  0  0  0  0
   -2.9712    1.4618    0.1314 C   0  0  0  0  0  0  0  0  0  0  0  0
    3.4827    0.1705   -0.0524 C   0  0  0  0  0  0  0  0  0  0  0  0
   -3.4827    0.1705   -0.0522 C   0  0  0  0  0  0  0  0  0  0  0  0
    1.2189    2.6965    0.2969 H   0  0  0  0  0  0  0  0  0  0  0  0
   -1.2189    2.6966    0.2966 H   0  0  0  0  0  0  0  0  0  0  0  0
    3.0221   -1.9112   -0.3677 H   0  0  0  0  0  0  0  0  0  0  0  0
   -3.0222   -1.9113   -0.3674 H   0  0  0  0  0  0  0  0  0  0  0  0
    3.6547    2.2962    0.2637 H   0  0  0  0  0  0  0  0  0  0  0  0
   -3.6547    2.2963    0.2634 H   0  0  0  0  0  0  0  0  0  0  0  0
    4.5577    0.0139   -0.0625 H   0  0  0  0  0  0  0  0  0  0  0  0
   -4.5578    0.0139   -0.0623 H   0  0  0  0  0  0  0  0  0  0  0  0
  1  2  2  0  0  0  0
  1  5  1  0  0  0  0
  1  6  1  0  0  0  0
  3  4  1  0  0  0  0
  3  5  1  0  0  0  0
  3  7  2  0  0  0  0
  4  6  1  0  0  0  0
  4  8  2  0  0  0  0
  5  9  2  0  0  0  0
  6 10  2  0  0  0  0
  7 11  1  0  0  0  0
  7 15  1  0  0  0  0
  8 12  1  0  0  0  0
  8 16  1  0  0  0  0
  9 13  1  0  0  0  0
  9 17  1  0  0  0  0
 10 14  1  0  0  0  0
 10 18  1  0  0  0  0
 11 13  2  0  0  0  0
 11 19  1  0  0  0  0
 12 14  2  0  0  0  0
 12 20  1  0  0  0  0
 13 21  1  0  0  0  0
 14 22  1  0  0  0  0
M  END
> <PUBCHEM_COMPOUND_CID>
13898

> <PUBCHEM_CONFORMER_RMSD>
0.4

> <PUBCHEM_CONFORMER_DIVERSEORDER>
1

> <PUBCHEM_MMFF94_PARTIAL_CHARGES>
20
1 0.37
10 -0.15
11 -0.15
12 -0.15
13 -0.15
14 -0.15
15 0.15
16 0.15
17 0.15
18 0.15
19 0.15
2 -0.5
20 0.15
21 0.15
22 0.15
5 0.06
6 0.06
7 -0.15
8 -0.15
9 -0.15

> <PUBCHEM_EFFECTIVE_ROTOR_COUNT>
0

> <PUBCHEM_PHARMACOPHORE_FEATURES>
4
1 2 acceptor
5 1 3 4 5 6 rings
6 3 5 7 9 11 13 rings
6 4 6 8 10 12 14 rings

> <PUBCHEM_HEAVY_ATOM_COUNT>
14

> <PUBCHEM_ATOM_DEF_STEREO_COUNT>
0

> <PUBCHEM_ATOM_UDEF_STEREO_COUNT>
0

> <PUBCHEM_BOND_DEF_STEREO_COUNT>
0

> <PUBCHEM_BOND_UDEF_STEREO_COUNT>
0

> <PUBCHEM_ISOTOPIC_ATOM_COUNT>
0

> <PUBCHEM_COMPONENT_COUNT>
1

> <PUBCHEM_CACTVS_TAUTO_COUNT>
1

> <PUBCHEM_CONFORMER_ID>
0000364A00000001

> <PUBCHEM_MMFF94_ENERGY>
40.6362

> <PUBCHEM_FEATURE_SELFOVERLAP>
20.419

> <PUBCHEM_SHAPE_FINGERPRINT>
10608611 8 18408045104160649992
10967382 1 18409448098140085957
11132069 177 18334582338604461720
11471102 20 18337396049290208589
13140716 1 18409729607476834161
13380535 76 18336548231267275918
13897977 150 18409731793878749733
14144814 61 18409167714180234904
14325111 11 18408886234813689332
14614273 12 18200603604423768277
15196674 1 18408603660314535093
15309172 13 18410567388287516961
15442244 35 18191585474276551656
15536298 74 18187365458676367286
15775835 57 18408880750166696165
16945 1 18261110776813183735
18186145 218 18335135427334135444
193761 8 17473544028437372188
200 152 17968108520845894277
20510252 161 18261389992858772929
20511035 2 18118403947658846492
20645476 183 17987501642206006486
20645477 70 18262805206521611783
20871998 184 18044649798252144311
21267235 1 18336255795217553783
21501502 16 18336831870907347868
21524375 3 18408888438137070078
2334 1 18409449154697038837
23402539 116 18263657189929513860
23402655 69 18189629396484837085
23463225 33 18340207496127016652
23552423 10 18339081604915597231
23559900 14 18261388975906136846
25 1 18337951289413161252
2748010 2 18410290302635539989
2871803 45 18410582769034986927
305870 269 18271249425104207675
43471831 8 18342181089271151619
5104073 3 18408322189648642849
528886 8 18409172125011265240
53812653 166 18334860545227059256
54173680 148 18124031222089296402
69090 78 18113904831692645887
7364860 26 18119247513173961223
81228 2 17907589020945290395
8809292 202 18339920416212937418
9709674 26 18262514784896246102

> <PUBCHEM_SHAPE_MULTIPOLES>
286.09
5.29
2.29
0.69
0
0.76
-0.02
-1.62
0.1
0
-0.3
0
0.15
0

> <PUBCHEM_SHAPE_SELFOVERLAP>
627.071

> <PUBCHEM_SHAPE_VOLUME>
156.2

> <PUBCHEM_COORDINATE_TYPE>
2
5
10

$$$$

