47205803
  -OEChem-06241223002D

 36 37  0     0  0  0  0  0  0999 V2000
    4.3211    0.3868    0.0000 O   0  0  0  0  0  0  0  0  0  0  0  0
    7.9244    0.2612    0.0000 O   0  0  0  0  0  0  0  0  0  0  0  0
    4.6783   -1.3080    0.0000 N   0  0  0  0  0  0  0  0  0  0  0  0
    6.2781    0.7993    0.0000 N   0  0  0  0  0  0  0  0  0  0  0  0
    5.2619   -2.1127    0.0000 C   0  0  0  0  0  0  0  0  0  0  0  0
    4.6783   -2.9175    0.0000 C   0  0  0  0  0  0  0  0  0  0  0  0
    3.7320   -2.6127    0.0000 C   0  0  0  0  0  0  0  0  0  0  0  0
    3.7320   -1.6127    0.0000 C   0  0  0  0  0  0  0  0  0  0  0  0
    4.9889   -0.3575    0.0000 C   0  0  0  0  0  0  0  0  0  0  0  0
    2.8660   -3.1127    0.0000 C   0  0  0  0  0  0  0  0  0  0  0  0
    2.8660   -1.1127    0.0000 C   0  0  0  0  0  0  0  0  0  0  0  0
    5.9674   -0.1513    0.0000 C   0  0  0  0  0  0  0  0  0  0  0  0
    2.0000   -2.6127    0.0000 C   0  0  0  0  0  0  0  0  0  0  0  0
    2.0000   -1.6127    0.0000 C   0  0  0  0  0  0  0  0  0  0  0  0
    7.5673    1.9560    0.0000 C   0  0  0  0  0  0  0  0  0  0  0  0
    7.2566    1.0055    0.0000 C   0  0  0  0  0  0  0  0  0  0  0  0
    8.5458    2.1622    0.0000 C   0  0  0  0  0  0  0  0  0  0  0  0
    8.8564    3.1127    0.0000 C   0  0  0  0  0  0  0  0  0  0  0  0
    5.7227   -2.5275    0.0000 H   0  0  0  0  0  0  0  0  0  0  0  0
    5.7227   -1.6980    0.0000 H   0  0  0  0  0  0  0  0  0  0  0  0
    4.4272   -3.4844    0.0000 H   0  0  0  0  0  0  0  0  0  0  0  0
    5.2156   -3.2267    0.0000 H   0  0  0  0  0  0  0  0  0  0  0  0
    2.8660   -3.7327    0.0000 H   0  0  0  0  0  0  0  0  0  0  0  0
    2.8660   -0.4927    0.0000 H   0  0  0  0  0  0  0  0  0  0  0  0
    5.9880   -0.7709    0.0000 H   0  0  0  0  0  0  0  0  0  0  0  0
    6.5812   -0.2386    0.0000 H   0  0  0  0  0  0  0  0  0  0  0  0
    1.4631   -2.9227    0.0000 H   0  0  0  0  0  0  0  0  0  0  0  0
    1.4631   -1.3027    0.0000 H   0  0  0  0  0  0  0  0  0  0  0  0
    5.8640    1.2607    0.0000 H   0  0  0  0  0  0  0  0  0  0  0  0
    7.5467    2.5756    0.0000 H   0  0  0  0  0  0  0  0  0  0  0  0
    6.9534    2.0434    0.0000 H   0  0  0  0  0  0  0  0  0  0  0  0
    8.5663    1.5426    0.0000 H   0  0  0  0  0  0  0  0  0  0  0  0
    9.1596    2.0749    0.0000 H   0  0  0  0  0  0  0  0  0  0  0  0
    9.4458    2.9201    0.0000 H   0  0  0  0  0  0  0  0  0  0  0  0
    9.0490    3.7021    0.0000 H   0  0  0  0  0  0  0  0  0  0  0  0
    8.2671    3.3054    0.0000 H   0  0  0  0  0  0  0  0  0  0  0  0
  1  9  2  0  0  0  0
  2 16  2  0  0  0  0
  3  5  1  0  0  0  0
  3  8  1  0  0  0  0
  3  9  1  0  0  0  0
  4 12  1  0  0  0  0
  4 16  1  0  0  0  0
  4 29  1  0  0  0  0
  5  6  1  0  0  0  0
  5 19  1  0  0  0  0
  5 20  1  0  0  0  0
  6  7  1  0  0  0  0
  6 21  1  0  0  0  0
  6 22  1  0  0  0  0
  7  8  1  0  0  0  0
  7 10  2  0  0  0  0
  8 11  2  0  0  0  0
  9 12  1  0  0  0  0
 10 13  1  0  0  0  0
 10 23  1  0  0  0  0
 11 14  1  0  0  0  0
 11 24  1  0  0  0  0
 12 25  1  0  0  0  0
 12 26  1  0  0  0  0
 13 14  2  0  0  0  0
 13 27  1  0  0  0  0
 14 28  1  0  0  0  0
 15 16  1  0  0  0  0
 15 17  1  0  0  0  0
 15 30  1  0  0  0  0
 15 31  1  0  0  0  0
 17 18  1  0  0  0  0
 17 32  1  0  0  0  0
 17 33  1  0  0  0  0
 18 34  1  0  0  0  0
 18 35  1  0  0  0  0
 18 36  1  0  0  0  0
M  END
> <PUBCHEM_COMPOUND_CID>
47205803

> <PUBCHEM_COMPOUND_CANONICALIZED>
1

> <PUBCHEM_CACTVS_COMPLEXITY>
317

> <PUBCHEM_CACTVS_HBOND_ACCEPTOR>
2

> <PUBCHEM_CACTVS_HBOND_DONOR>
1

> <PUBCHEM_CACTVS_ROTATABLE_BOND>
4

> <PUBCHEM_CACTVS_SUBSKEYS>
AAADceBzMAAAAAAAAAAAAAAAAAAAAWAAAAAwAAAAAAAAAFgBAAAAHgAQAAAADAjBmAQywIPAAACIAiVSUACCAAAhAgAIiIGIZIgIYDLAkbGUIAhglgDIyAcQgIAOAAAAAAACAAAAAAAAAAQAAAAAAAAAAA==

> <PUBCHEM_IUPAC_OPENEYE_NAME>
N-(2-indolin-1-yl-2-oxo-ethyl)butanamide

> <PUBCHEM_IUPAC_CAS_NAME>
N-[2-(2,3-dihydroindol-1-yl)-2-oxoethyl]butanamide

> <PUBCHEM_IUPAC_NAME>
N-[2-(2,3-dihydroindol-1-yl)-2-oxoethyl]butanamide

> <PUBCHEM_IUPAC_SYSTEMATIC_NAME>
N-[2-(2,3-dihydroindol-1-yl)-2-oxidanylidene-ethyl]butanamide

> <PUBCHEM_IUPAC_TRADITIONAL_NAME>
N-(2-indolin-1-yl-2-keto-ethyl)butyramide

> <PUBCHEM_IUPAC_INCHI>
InChI=1S/C14H18N2O2/c1-2-5-13(17)15-10-14(18)16-9-8-11-6-3-4-7-12(11)16/h3-4,6-7H,2,5,8-10H2,1H3,(H,15,17)

> <PUBCHEM_IUPAC_INCHIKEY>
SSESNFXULBYILI-UHFFFAOYSA-N

> <PUBCHEM_XLOGP3_AA>
1.5

> <PUBCHEM_EXACT_MASS>
246.136828

> <PUBCHEM_MOLECULAR_FORMULA>
C14H18N2O2

> <PUBCHEM_MOLECULAR_WEIGHT>
246.30492

> <PUBCHEM_OPENEYE_CAN_SMILES>
CCCC(=O)NCC(=O)N1CCC2=CC=CC=C21

> <PUBCHEM_OPENEYE_ISO_SMILES>
CCCC(=O)NCC(=O)N1CCC2=CC=CC=C21

> <PUBCHEM_CACTVS_TPSA>
49.4

> <PUBCHEM_MONOISOTOPIC_WEIGHT>
246.136828

> <PUBCHEM_TOTAL_CHARGE>
0

> <PUBCHEM_HEAVY_ATOM_COUNT>
18

> <PUBCHEM_ATOM_DEF_STEREO_COUNT>
0

> <PUBCHEM_ATOM_UDEF_STEREO_COUNT>
0

> <PUBCHEM_BOND_DEF_STEREO_COUNT>
0

> <PUBCHEM_BOND_UDEF_STEREO_COUNT>
0

> <PUBCHEM_ISOTOPIC_ATOM_COUNT>
0

> <PUBCHEM_COMPONENT_COUNT>
1

> <PUBCHEM_CACTVS_TAUTO_COUNT>
2

> <PUBCHEM_COORDINATE_TYPE>
1
5
255

> <PUBCHEM_BONDANNOTATIONS>
10  13  8
11  14  8
13  14  8
7  10  8
7  8  8
8  11  8

$$$$

