9561
  -OEChem-06261203493D

 11 10  0     1  0  0  0  0  0999 V2000
   -0.7250   -1.8864   -0.0786 Cl  0  0  0  0  0  0  0  0  0  0  0  0
   -3.0659    0.3981    0.1613 Cl  0  0  0  0  0  0  0  0  0  0  0  0
    1.9024   -0.7170    0.6117 F   0  0  0  0  0  0  0  0  0  0  0  0
    1.3790    1.3940    0.4473 F   0  0  0  0  0  0  0  0  0  0  0  0
    1.2394    0.0880   -1.2982 F   0  0  0  0  0  0  0  0  0  0  0  0
   -0.3935   -0.1914    0.3983 C   0  0  1  0  0  0  0  0  0  0  0  0
    1.0408    0.1529    0.0371 C   0  0  0  0  0  0  0  0  0  0  0  0
   -1.3772    0.7618   -0.2790 C   0  0  0  0  0  0  0  0  0  0  0  0
   -0.5115   -0.1438    1.4861 H   0  0  0  0  0  0  0  0  0  0  0  0
   -1.1823    1.7959    0.0219 H   0  0  0  0  0  0  0  0  0  0  0  0
   -1.3048    0.7067   -1.3702 H   0  0  0  0  0  0  0  0  0  0  0  0
  1  6  1  0  0  0  0
  2  8  1  0  0  0  0
  3  7  1  0  0  0  0
  4  7  1  0  0  0  0
  5  7  1  0  0  0  0
  6  7  1  0  0  0  0
  6  8  1  0  0  0  0
  6  9  1  0  0  0  0
  8 10  1  0  0  0  0
  8 11  1  0  0  0  0
M  END
> <PUBCHEM_COMPOUND_CID>
9561

> <PUBCHEM_CONFORMER_RMSD>
0.4

> <PUBCHEM_CONFORMER_DIVERSEORDER>
1
3
6
5
2
4

> <PUBCHEM_MMFF94_PARTIAL_CHARGES>
8
1 -0.29
2 -0.29
3 -0.34
4 -0.34
5 -0.34
6 0.29
7 1.02
8 0.29

> <PUBCHEM_EFFECTIVE_ROTOR_COUNT>
2

> <PUBCHEM_PHARMACOPHORE_FEATURES>
0

> <PUBCHEM_HEAVY_ATOM_COUNT>
8

> <PUBCHEM_ATOM_DEF_STEREO_COUNT>
0

> <PUBCHEM_ATOM_UDEF_STEREO_COUNT>
1

> <PUBCHEM_BOND_DEF_STEREO_COUNT>
0

> <PUBCHEM_BOND_UDEF_STEREO_COUNT>
0

> <PUBCHEM_ISOTOPIC_ATOM_COUNT>
0

> <PUBCHEM_COMPONENT_COUNT>
1

> <PUBCHEM_CACTVS_TAUTO_COUNT>
1

> <PUBCHEM_CONFORMER_ID>
0000255900000001

> <PUBCHEM_MMFF94_ENERGY>
7.6323

> <PUBCHEM_FEATURE_SELFOVERLAP>
0

> <PUBCHEM_SHAPE_FINGERPRINT>
20096714 4 18411421708764283017
21040471 1 18413105039665340075
24536 1 17313932044116798226
29004967 10 15647058161644028739
5084963 1 17703508895521068385

> <PUBCHEM_SHAPE_MULTIPOLES>
146.55
3.11
1.46
0.83
1.91
0.66
-0.16
-0.71
0.22
0.05
0.04
-0.22
-0.02
0

> <PUBCHEM_SHAPE_SELFOVERLAP>
259.299

> <PUBCHEM_SHAPE_VOLUME>
98.9

> <PUBCHEM_COORDINATE_TYPE>
2
5
10

$$$$

