12102
  -OEChem-06261206323D

 18 18  0     0  0  0  0  0  0999 V2000
   -3.1409   -0.6877    0.8408 Cl  0  0  0  0  0  0  0  0  0  0  0  0
   -0.8389    0.0640   -0.3407 C   0  0  0  0  0  0  0  0  0  0  0  0
    1.4718   -0.5395    0.0249 C   0  0  0  0  0  0  0  0  0  0  0  0
    0.1585   -0.9084   -0.2669 C   0  0  0  0  0  0  0  0  0  0  0  0
   -0.5230    1.4051   -0.1228 C   0  0  0  0  0  0  0  0  0  0  0  0
    1.7875    0.8016    0.2428 C   0  0  0  0  0  0  0  0  0  0  0  0
    0.7902    1.7739    0.1689 C   0  0  0  0  0  0  0  0  0  0  0  0
   -2.2435   -0.3299   -0.6519 C   0  0  0  0  0  0  0  0  0  0  0  0
    2.5383   -1.5791    0.1050 C   0  0  0  0  0  0  0  0  0  0  0  0
   -0.0869   -1.9541   -0.4370 H   0  0  0  0  0  0  0  0  0  0  0  0
   -1.2911    2.1721   -0.1761 H   0  0  0  0  0  0  0  0  0  0  0  0
    2.8071    1.1020    0.4692 H   0  0  0  0  0  0  0  0  0  0  0  0
    1.0361    2.8181    0.3385 H   0  0  0  0  0  0  0  0  0  0  0  0
   -2.2756   -1.2196   -1.2896 H   0  0  0  0  0  0  0  0  0  0  0  0
   -2.7722    0.4685   -1.1834 H   0  0  0  0  0  0  0  0  0  0  0  0
    2.1382   -2.5251    0.4856 H   0  0  0  0  0  0  0  0  0  0  0  0
    2.9688   -1.7525   -0.8863 H   0  0  0  0  0  0  0  0  0  0  0  0
    3.3398   -1.2736    0.7861 H   0  0  0  0  0  0  0  0  0  0  0  0
  1  8  1  0  0  0  0
  2  4  1  0  0  0  0
  2  5  2  0  0  0  0
  2  8  1  0  0  0  0
  3  4  2  0  0  0  0
  3  6  1  0  0  0  0
  3  9  1  0  0  0  0
  4 10  1  0  0  0  0
  5  7  1  0  0  0  0
  5 11  1  0  0  0  0
  6  7  2  0  0  0  0
  6 12  1  0  0  0  0
  7 13  1  0  0  0  0
  8 14  1  0  0  0  0
  8 15  1  0  0  0  0
  9 16  1  0  0  0  0
  9 17  1  0  0  0  0
  9 18  1  0  0  0  0
M  END
> <PUBCHEM_COMPOUND_CID>
12102

> <PUBCHEM_CONFORMER_RMSD>
0.4

> <PUBCHEM_CONFORMER_DIVERSEORDER>
1
4
3
2

> <PUBCHEM_MMFF94_PARTIAL_CHARGES>
13
1 -0.29
10 0.15
11 0.15
12 0.15
13 0.15
2 -0.14
3 -0.14
4 -0.15
5 -0.15
6 -0.15
7 -0.15
8 0.43
9 0.14

> <PUBCHEM_EFFECTIVE_ROTOR_COUNT>
1

> <PUBCHEM_PHARMACOPHORE_FEATURES>
1
6 2 3 4 5 6 7 rings

> <PUBCHEM_HEAVY_ATOM_COUNT>
9

> <PUBCHEM_ATOM_DEF_STEREO_COUNT>
0

> <PUBCHEM_ATOM_UDEF_STEREO_COUNT>
0

> <PUBCHEM_BOND_DEF_STEREO_COUNT>
0

> <PUBCHEM_BOND_UDEF_STEREO_COUNT>
0

> <PUBCHEM_ISOTOPIC_ATOM_COUNT>
0

> <PUBCHEM_COMPONENT_COUNT>
1

> <PUBCHEM_CACTVS_TAUTO_COUNT>
1

> <PUBCHEM_CONFORMER_ID>
00002F4600000001

> <PUBCHEM_MMFF94_ENERGY>
19.0296

> <PUBCHEM_FEATURE_SELFOVERLAP>
5.074

> <PUBCHEM_SHAPE_FINGERPRINT>
12423570 1 7827529303736936606
16945 1 18337962164307479316
20653091 64 18411974750091002601
20871998 184 17898861411361370006
20871998 22 18189607409829804294
21040471 1 17617387177548265068
23552423 10 18199750404806631630
241688 4 18266745868627080832
2748010 2 18264784309881660812
29004967 10 18342461404622061721

> <PUBCHEM_SHAPE_MULTIPOLES>
187.09
3.84
1.72
0.79
2.02
0.39
-0.03
-1.75
-0.74
-0.9
-0.1
0.36
-0.06
0.18

> <PUBCHEM_SHAPE_SELFOVERLAP>
372.367

> <PUBCHEM_SHAPE_VOLUME>
109.2

> <PUBCHEM_COORDINATE_TYPE>
2
5
10

$$$$

