47205252
  -OEChem-06241222583D

 37 38  0     0  0  0  0  0  0999 V2000
   -0.1176    0.5583    0.3379 O   0  0  0  0  0  0  0  0  0  0  0  0
   -3.6343    0.8081   -0.5531 O   0  0  0  0  0  0  0  0  0  0  0  0
    5.7856   -1.1383    0.5900 O   0  0  0  0  0  0  0  0  0  0  0  0
    2.1826   -0.2840    1.4546 O   0  0  0  0  0  0  0  0  0  0  0  0
    3.4207    1.3694    0.3862 N   0  0  0  0  0  0  0  0  0  0  0  0
    4.7122    1.0163    0.9284 C   0  0  0  0  0  0  0  0  0  0  0  0
   -1.2687    1.0870   -0.3142 C   0  0  0  0  0  0  0  0  0  0  0  0
   -2.4818    0.2677    0.0818 C   0  0  0  0  0  0  0  0  0  0  0  0
    1.0544    1.2657   -0.0072 C   0  0  0  0  0  0  0  0  0  0  0  0
    5.4520    0.0586    0.0396 C   0  0  0  0  0  0  0  0  0  0  0  0
    2.2588    0.6818    0.7000 C   0  0  0  0  0  0  0  0  0  0  0  0
    5.8845    0.1282   -1.2643 C   0  0  0  0  0  0  0  0  0  0  0  0
   -4.8240    0.1704   -0.3181 C   0  0  0  0  0  0  0  0  0  0  0  0
    6.5250   -1.1052   -1.5324 C   0  0  0  0  0  0  0  0  0  0  0  0
   -4.8626   -0.9515    0.5099 C   0  0  0  0  0  0  0  0  0  0  0  0
   -5.9968    0.6430   -0.9071 C   0  0  0  0  0  0  0  0  0  0  0  0
    6.4382   -1.8405   -0.3730 C   0  0  0  0  0  0  0  0  0  0  0  0
   -6.0739   -1.6008    0.7489 C   0  0  0  0  0  0  0  0  0  0  0  0
   -7.2080   -0.0061   -0.6679 C   0  0  0  0  0  0  0  0  0  0  0  0
   -7.2465   -1.1280    0.1600 C   0  0  0  0  0  0  0  0  0  0  0  0
    5.2894    1.9413    1.0279 H   0  0  0  0  0  0  0  0  0  0  0  0
    4.5808    0.5876    1.9278 H   0  0  0  0  0  0  0  0  0  0  0  0
   -1.4143    2.1356   -0.0277 H   0  0  0  0  0  0  0  0  0  0  0  0
   -1.1351    1.0549   -1.4024 H   0  0  0  0  0  0  0  0  0  0  0  0
   -2.5809    0.3060    1.1744 H   0  0  0  0  0  0  0  0  0  0  0  0
   -2.3066   -0.7693   -0.2329 H   0  0  0  0  0  0  0  0  0  0  0  0
    1.2243    1.2028   -1.0884 H   0  0  0  0  0  0  0  0  0  0  0  0
    0.9557    2.3174    0.2861 H   0  0  0  0  0  0  0  0  0  0  0  0
    3.3768    2.1472   -0.2661 H   0  0  0  0  0  0  0  0  0  0  0  0
    5.7556    0.9623   -1.9392 H   0  0  0  0  0  0  0  0  0  0  0  0
    6.9914   -1.4190   -2.4549 H   0  0  0  0  0  0  0  0  0  0  0  0
   -3.9931   -1.3732    1.0020 H   0  0  0  0  0  0  0  0  0  0  0  0
   -5.9728    1.5164   -1.5530 H   0  0  0  0  0  0  0  0  0  0  0  0
    6.7725   -2.8269   -0.0866 H   0  0  0  0  0  0  0  0  0  0  0  0
   -6.1052   -2.4743    1.3938 H   0  0  0  0  0  0  0  0  0  0  0  0
   -8.1212    0.3620   -1.1264 H   0  0  0  0  0  0  0  0  0  0  0  0
   -8.1896   -1.6334    0.3461 H   0  0  0  0  0  0  0  0  0  0  0  0
  1  7  1  0  0  0  0
  1  9  1  0  0  0  0
  2  8  1  0  0  0  0
  2 13  1  0  0  0  0
  3 10  1  0  0  0  0
  3 17  1  0  0  0  0
  4 11  2  0  0  0  0
  5  6  1  0  0  0  0
  5 11  1  0  0  0  0
  5 29  1  0  0  0  0
  6 10  1  0  0  0  0
  6 21  1  0  0  0  0
  6 22  1  0  0  0  0
  7  8  1  0  0  0  0
  7 23  1  0  0  0  0
  7 24  1  0  0  0  0
  8 25  1  0  0  0  0
  8 26  1  0  0  0  0
  9 11  1  0  0  0  0
  9 27  1  0  0  0  0
  9 28  1  0  0  0  0
 10 12  2  0  0  0  0
 12 14  1  0  0  0  0
 12 30  1  0  0  0  0
 13 15  2  0  0  0  0
 13 16  1  0  0  0  0
 14 17  2  0  0  0  0
 14 31  1  0  0  0  0
 15 18  1  0  0  0  0
 15 32  1  0  0  0  0
 16 19  2  0  0  0  0
 16 33  1  0  0  0  0
 17 34  1  0  0  0  0
 18 20  2  0  0  0  0
 18 35  1  0  0  0  0
 19 20  1  0  0  0  0
 19 36  1  0  0  0  0
 20 37  1  0  0  0  0
M  END
> <PUBCHEM_COMPOUND_CID>
47205252

> <PUBCHEM_CONFORMER_RMSD>
1

> <PUBCHEM_CONFORMER_DIVERSEORDER>
5
92
67
105
53
112
38
56
136
11
108
51
130
88
6
97
125
26
37
16
116
43
66
52
75
31
126
22
14
82
60
98
132
70
85
4
54
99
23
131
137
122
119
102
28
133
33
134
7
77
50
123
115
79
87
94
129
36
90
86
81
118
2
93
46
47
40
69
19
95
141
89
17
100
57
62
138
64
120
142
34
101
59
109
73
3
30
140
10
84
21
61
117
32
48
127
49
74
143
15
124
135
27
111
110
58
1
106
121
96
76
65
104
128
80
12
45
72
8
55
35
24
83
113
107
13
103
29
114
42
78
18
68
25
9
63
41
39
44
71
91
139
20

> <PUBCHEM_MMFF94_PARTIAL_CHARGES>
29
1 -0.56
10 -0.04
11 0.57
12 -0.15
13 0.08
14 -0.15
15 -0.15
16 -0.15
17 -0.01
18 -0.15
19 -0.15
2 -0.36
20 -0.15
29 0.37
3 -0.28
30 0.15
31 0.15
32 0.15
33 0.15
34 0.15
35 0.15
36 0.15
37 0.15
4 -0.57
5 -0.73
6 0.48
7 0.28
8 0.28
9 0.34

> <PUBCHEM_EFFECTIVE_ROTOR_COUNT>
9

> <PUBCHEM_PHARMACOPHORE_FEATURES>
7
1 1 acceptor
1 2 acceptor
1 3 acceptor
1 4 acceptor
1 5 donor
5 3 10 12 14 17 rings
6 13 15 16 18 19 20 rings

> <PUBCHEM_HEAVY_ATOM_COUNT>
20

> <PUBCHEM_ATOM_DEF_STEREO_COUNT>
0

> <PUBCHEM_ATOM_UDEF_STEREO_COUNT>
0

> <PUBCHEM_BOND_DEF_STEREO_COUNT>
0

> <PUBCHEM_BOND_UDEF_STEREO_COUNT>
0

> <PUBCHEM_ISOTOPIC_ATOM_COUNT>
0

> <PUBCHEM_COMPONENT_COUNT>
1

> <PUBCHEM_CACTVS_TAUTO_COUNT>
2

> <PUBCHEM_CONFORMER_ID>
02D04B8400000005

> <PUBCHEM_MMFF94_ENERGY>
38.2291

> <PUBCHEM_FEATURE_SELFOVERLAP>
35.527

> <PUBCHEM_SHAPE_MULTIPOLES>
383.13
24.99
1.52
1.12
6.64
0.38
-0.1
10.95
-4.73
-0.96
0.07
-0.98
0.11
1.8

> <PUBCHEM_SHAPE_SELFOVERLAP>
794.398

> <PUBCHEM_SHAPE_VOLUME>
219.1

> <PUBCHEM_COORDINATE_TYPE>
2
5
10

$$$$

