8070
  -OEChem-06261202342D

 18 17  0     0  0  0  0  0  0999 V2000
    2.8660   -0.2500    0.0000 N   0  0  0  0  0  0  0  0  0  0  0  0
    5.4641    0.2500    0.0000 N   0  0  0  0  0  0  0  0  0  0  0  0
    4.5981   -0.2500    0.0000 C   0  0  0  0  0  0  0  0  0  0  0  0
    3.7320    0.2500    0.0000 C   0  0  0  0  0  0  0  0  0  0  0  0
    6.3301   -0.2500    0.0000 C   0  0  0  0  0  0  0  0  0  0  0  0
    2.0000    0.2500    0.0000 C   0  0  0  0  0  0  0  0  0  0  0  0
    4.1306    0.7249    0.0000 H   0  0  0  0  0  0  0  0  0  0  0  0
    3.3335    0.7249    0.0000 H   0  0  0  0  0  0  0  0  0  0  0  0
    4.1996   -0.7249    0.0000 H   0  0  0  0  0  0  0  0  0  0  0  0
    4.9966   -0.7249    0.0000 H   0  0  0  0  0  0  0  0  0  0  0  0
    2.8660   -0.8700    0.0000 H   0  0  0  0  0  0  0  0  0  0  0  0
    5.4641    0.8700    0.0000 H   0  0  0  0  0  0  0  0  0  0  0  0
    6.0201   -0.7869    0.0000 H   0  0  0  0  0  0  0  0  0  0  0  0
    6.8671   -0.5600    0.0000 H   0  0  0  0  0  0  0  0  0  0  0  0
    6.6401    0.2869    0.0000 H   0  0  0  0  0  0  0  0  0  0  0  0
    2.3100    0.7869    0.0000 H   0  0  0  0  0  0  0  0  0  0  0  0
    1.4631    0.5600    0.0000 H   0  0  0  0  0  0  0  0  0  0  0  0
    1.6900   -0.2869    0.0000 H   0  0  0  0  0  0  0  0  0  0  0  0
  1  4  1  0  0  0  0
  1  6  1  0  0  0  0
  1 11  1  0  0  0  0
  2  3  1  0  0  0  0
  2  5  1  0  0  0  0
  2 12  1  0  0  0  0
  3  4  1  0  0  0  0
  3  9  1  0  0  0  0
  3 10  1  0  0  0  0
  4  7  1  0  0  0  0
  4  8  1  0  0  0  0
  5 13  1  0  0  0  0
  5 14  1  0  0  0  0
  5 15  1  0  0  0  0
  6 16  1  0  0  0  0
  6 17  1  0  0  0  0
  6 18  1  0  0  0  0
M  END
> <PUBCHEM_COMPOUND_CID>
8070

> <PUBCHEM_COMPOUND_CANONICALIZED>
1

> <PUBCHEM_CACTVS_COMPLEXITY>
17.5

> <PUBCHEM_CACTVS_HBOND_ACCEPTOR>
2

> <PUBCHEM_CACTVS_HBOND_DONOR>
2

> <PUBCHEM_CACTVS_ROTATABLE_BOND>
3

> <PUBCHEM_CACTVS_SUBSKEYS>
AAADccBjAAAAAAAAAAAAAAAAAAAAAAAAAAAAAAAAAAAAAAAAAAAAHAAQAAAAAADBAAQCAALAAAAAAAAAAAAAAAAAAAAAAIAIAAAAQAAAAAAQAAAAEAAAAAAAAAAAAAAAAAAAAAAAAAAAAAAAAAAAAAAAAA==

> <PUBCHEM_IUPAC_OPENEYE_NAME>
N,N'-dimethylethane-1,2-diamine

> <PUBCHEM_IUPAC_CAS_NAME>
N,N'-dimethylethane-1,2-diamine

> <PUBCHEM_IUPAC_NAME>
N,N'-dimethylethane-1,2-diamine

> <PUBCHEM_IUPAC_SYSTEMATIC_NAME>
N,N'-dimethylethane-1,2-diamine

> <PUBCHEM_IUPAC_TRADITIONAL_NAME>
methyl-[2-(methylamino)ethyl]amine

> <PUBCHEM_IUPAC_INCHI>
InChI=1S/C4H12N2/c1-5-3-4-6-2/h5-6H,3-4H2,1-2H3

> <PUBCHEM_IUPAC_INCHIKEY>
KVKFRMCSXWQSNT-UHFFFAOYSA-N

> <PUBCHEM_XLOGP3>
-0.6

> <PUBCHEM_EXACT_MASS>
88.100048

> <PUBCHEM_MOLECULAR_FORMULA>
C4H12N2

> <PUBCHEM_MOLECULAR_WEIGHT>
88.15148

> <PUBCHEM_OPENEYE_CAN_SMILES>
CNCCNC

> <PUBCHEM_OPENEYE_ISO_SMILES>
CNCCNC

> <PUBCHEM_CACTVS_TPSA>
24.1

> <PUBCHEM_MONOISOTOPIC_WEIGHT>
88.100048

> <PUBCHEM_TOTAL_CHARGE>
0

> <PUBCHEM_HEAVY_ATOM_COUNT>
6

> <PUBCHEM_ATOM_DEF_STEREO_COUNT>
0

> <PUBCHEM_ATOM_UDEF_STEREO_COUNT>
0

> <PUBCHEM_BOND_DEF_STEREO_COUNT>
0

> <PUBCHEM_BOND_UDEF_STEREO_COUNT>
0

> <PUBCHEM_ISOTOPIC_ATOM_COUNT>
0

> <PUBCHEM_COMPONENT_COUNT>
1

> <PUBCHEM_CACTVS_TAUTO_COUNT>
1

> <PUBCHEM_COORDINATE_TYPE>
1
5
255

$$$$

