854023
  -OEChem-06241222462D

 27 29  0     1  0  0  0  0  0999 V2000
    2.4483   -3.6746    0.0000 Cl  0  0  0  0  0  0  0  0  0  0  0  0
    4.7378    3.1376    0.0000 N   0  0  0  0  0  0  0  0  0  0  0  0
    3.6730   -2.4498    0.0000 N   0  0  0  0  0  0  0  0  0  0  0  0
    5.2156    1.1891    0.0000 C   0  0  1  0  0  0  0  0  0  0  0  0
    5.4744    2.1550    0.0000 C   0  0  2  0  0  0  0  0  0  0  0  0
    3.4836    0.1891    0.0000 C   0  0  2  0  0  0  0  0  0  0  0  0
    2.9836    1.0551    0.0000 C   0  0  0  0  0  0  0  0  0  0  0  0
    7.0476    0.4303    0.0000 C   0  0  0  0  0  0  0  0  0  0  0  0
    7.3064    1.3962    0.0000 C   0  0  0  0  0  0  0  0  0  0  0  0
    3.2247   -0.7768    0.0000 C   0  0  0  0  0  0  0  0  0  0  0  0
    2.2588   -1.0356    0.0000 C   0  0  0  0  0  0  0  0  0  0  0  0
    3.9318   -1.4839    0.0000 C   0  0  0  0  0  0  0  0  0  0  0  0
    2.0000   -2.0016    0.0000 C   0  0  0  0  0  0  0  0  0  0  0  0
    2.7071   -2.7087    0.0000 C   0  0  0  0  0  0  0  0  0  0  0  0
    4.9956    0.3681    0.0000 H   0  0  0  0  0  0  0  0  0  0  0  0
    5.6944    2.9761    0.0000 H   0  0  0  0  0  0  0  0  0  0  0  0
    3.9754   -0.1883    0.0000 H   0  0  0  0  0  0  0  0  0  0  0  0
    2.7129    1.6129    0.0000 H   0  0  0  0  0  0  0  0  0  0  0  0
    2.4358    0.7646    0.0000 H   0  0  0  0  0  0  0  0  0  0  0  0
    6.8355   -0.1523    0.0000 H   0  0  0  0  0  0  0  0  0  0  0  0
    7.6389    0.2439    0.0000 H   0  0  0  0  0  0  0  0  0  0  0  0
    7.8977    1.2098    0.0000 H   0  0  0  0  0  0  0  0  0  0  0  0
    7.5184    1.9788    0.0000 H   0  0  0  0  0  0  0  0  0  0  0  0
    4.4278    3.6746    0.0000 H   0  0  0  0  0  0  0  0  0  0  0  0
    1.8204   -0.5972    0.0000 H   0  0  0  0  0  0  0  0  0  0  0  0
    4.5307   -1.3234    0.0000 H   0  0  0  0  0  0  0  0  0  0  0  0
    1.4011   -2.1620    0.0000 H   0  0  0  0  0  0  0  0  0  0  0  0
  1 14  1  0  0  0  0
  2  4  1  0  0  0  0
  2  5  1  0  0  0  0
  2 24  1  0  0  0  0
  3 12  1  0  0  0  0
  3 14  2  0  0  0  0
  4  6  1  0  0  0  0
  4  8  1  0  0  0  0
  4 15  1  1  0  0  0
  5  7  1  0  0  0  0
  5  9  1  0  0  0  0
  5 16  1  6  0  0  0
  6  7  1  0  0  0  0
  6 10  1  1  0  0  0
  6 17  1  0  0  0  0
  7 18  1  0  0  0  0
  7 19  1  0  0  0  0
  8  9  1  0  0  0  0
  8 20  1  0  0  0  0
  8 21  1  0  0  0  0
  9 22  1  0  0  0  0
  9 23  1  0  0  0  0
 10 11  1  0  0  0  0
 10 12  2  0  0  0  0
 11 13  2  0  0  0  0
 11 25  1  0  0  0  0
 12 26  1  0  0  0  0
 13 14  1  0  0  0  0
 13 27  1  0  0  0  0
M  END
> <PUBCHEM_COMPOUND_CID>
854023

> <PUBCHEM_COMPOUND_CANONICALIZED>
1

> <PUBCHEM_CACTVS_COMPLEXITY>
221

> <PUBCHEM_CACTVS_HBOND_ACCEPTOR>
2

> <PUBCHEM_CACTVS_HBOND_DONOR>
1

> <PUBCHEM_CACTVS_ROTATABLE_BOND>
1

> <PUBCHEM_CACTVS_SUBSKEYS>
AAADccBzAAAEAAAAAAAAAAAAAAAAAWLAAAA8QAAAAAAAAAABgAAAHAIQAAAADSrBGiQ8gJLIEACgAjBnRACCgCAxByAI2KA4ZpgIIOLBk5GEIAhgkADIyAcQgMAOgAAAAAAAAAAAAACAAAQAAAAAAAAAAA==

> <PUBCHEM_IUPAC_OPENEYE_NAME>
(1S,3R,4R)-3-(6-chloro-3-pyridyl)-7-azabicyclo[2.2.1]heptane

> <PUBCHEM_IUPAC_CAS_NAME>
(1S,3R,4R)-3-(6-chloro-3-pyridinyl)-7-azabicyclo[2.2.1]heptane

> <PUBCHEM_IUPAC_NAME>
(1S,3R,4R)-3-(6-chloropyridin-3-yl)-7-azabicyclo[2.2.1]heptane

> <PUBCHEM_IUPAC_SYSTEMATIC_NAME>
(1S,3R,4R)-3-(6-chloranylpyridin-3-yl)-7-azabicyclo[2.2.1]heptane

> <PUBCHEM_IUPAC_TRADITIONAL_NAME>
(1S,3R,4R)-3-(6-chloro-3-pyridyl)-7-azabicyclo[2.2.1]heptane

> <PUBCHEM_IUPAC_INCHI>
InChI=1S/C11H13ClN2/c12-11-4-1-7(6-13-11)9-5-8-2-3-10(9)14-8/h1,4,6,8-10,14H,2-3,5H2/t8-,9+,10+/m0/s1

> <PUBCHEM_IUPAC_INCHIKEY>
NLPRAJRHRHZCQQ-IVZWLZJFSA-N

> <PUBCHEM_XLOGP3_AA>
2.2

> <PUBCHEM_EXACT_MASS>
208.076726

> <PUBCHEM_MOLECULAR_FORMULA>
C11H13ClN2

> <PUBCHEM_MOLECULAR_WEIGHT>
208.68732

> <PUBCHEM_OPENEYE_CAN_SMILES>
C1CC2C(CC1N2)C3=CN=C(C=C3)Cl

> <PUBCHEM_OPENEYE_ISO_SMILES>
C1C[C@@H]2[C@H](C[C@H]1N2)C3=CN=C(C=C3)Cl

> <PUBCHEM_CACTVS_TPSA>
24.9

> <PUBCHEM_MONOISOTOPIC_WEIGHT>
208.076726

> <PUBCHEM_TOTAL_CHARGE>
0

> <PUBCHEM_HEAVY_ATOM_COUNT>
14

> <PUBCHEM_ATOM_DEF_STEREO_COUNT>
3

> <PUBCHEM_ATOM_UDEF_STEREO_COUNT>
0

> <PUBCHEM_BOND_DEF_STEREO_COUNT>
0

> <PUBCHEM_BOND_UDEF_STEREO_COUNT>
0

> <PUBCHEM_ISOTOPIC_ATOM_COUNT>
0

> <PUBCHEM_COMPONENT_COUNT>
1

> <PUBCHEM_CACTVS_TAUTO_COUNT>
1

> <PUBCHEM_COORDINATE_TYPE>
1
5
255

> <PUBCHEM_BONDANNOTATIONS>
10  11  8
10  12  8
11  13  8
13  14  8
3  12  8
3  14  8
4  15  5
5  16  6
6  10  5

$$$$

