5057
  -OEChem-06261200293D

 56 56  0     0  0  0  0  0  0999 V2000
   -7.1116   -0.7606    0.6055 O   0  0  0  0  0  0  0  0  0  0  0  0
   -9.2078   -0.1870   -0.1854 O   0  0  0  0  0  0  0  0  0  0  0  0
    5.7501    0.5037    0.8448 C   0  0  0  0  0  0  0  0  0  0  0  0
    6.8342   -0.5476    1.2086 C   0  0  0  0  0  0  0  0  0  0  0  0
    7.2235   -1.4069    0.0192 C   0  0  0  0  0  0  0  0  0  0  0  0
    4.6242   -0.1144   -0.0171 C   0  0  0  0  0  0  0  0  0  0  0  0
    6.0090   -2.1639   -0.4966 C   0  0  0  0  0  0  0  0  0  0  0  0
    4.7443   -1.3352   -0.5973 C   0  0  0  0  0  0  0  0  0  0  0  0
    6.4156    1.6646    0.0701 C   0  0  0  0  0  0  0  0  0  0  0  0
    5.2187    1.0519    2.1918 C   0  0  0  0  0  0  0  0  0  0  0  0
    3.4382    0.7090   -0.1871 C   0  0  0  0  0  0  0  0  0  0  0  0
    3.6783   -2.0361   -1.4078 C   0  0  0  0  0  0  0  0  0  0  0  0
    2.1921    0.2098   -0.1874 C   0  0  0  0  0  0  0  0  0  0  0  0
    0.9450    0.9651   -0.3505 C   0  0  0  0  0  0  0  0  0  0  0  0
    1.0634    2.4574   -0.5370 C   0  0  0  0  0  0  0  0  0  0  0  0
   -0.2218    0.2853   -0.3232 C   0  0  0  0  0  0  0  0  0  0  0  0
   -1.5641    0.8182   -0.4641 C   0  0  0  0  0  0  0  0  0  0  0  0
   -2.6595    0.0396   -0.4201 C   0  0  0  0  0  0  0  0  0  0  0  0
   -4.0528    0.4772   -0.5515 C   0  0  0  0  0  0  0  0  0  0  0  0
   -5.0285   -0.4528   -0.4812 C   0  0  0  0  0  0  0  0  0  0  0  0
   -4.3041    1.9476   -0.7613 C   0  0  0  0  0  0  0  0  0  0  0  0
   -6.5096   -0.2616   -0.5832 C   0  0  0  0  0  0  0  0  0  0  0  0
   -8.4709   -0.6587    0.6688 C   0  0  0  0  0  0  0  0  0  0  0  0
   -9.0058   -1.2045    1.9422 C   0  0  0  0  0  0  0  0  0  0  0  0
    6.4649   -1.2067    2.0069 H   0  0  0  0  0  0  0  0  0  0  0  0
    7.7284   -0.0543    1.6102 H   0  0  0  0  0  0  0  0  0  0  0  0
    8.0037   -2.1197    0.3105 H   0  0  0  0  0  0  0  0  0  0  0  0
    7.6487   -0.7875   -0.7789 H   0  0  0  0  0  0  0  0  0  0  0  0
    5.8057   -3.0172    0.1632 H   0  0  0  0  0  0  0  0  0  0  0  0
    6.2699   -2.5765   -1.4789 H   0  0  0  0  0  0  0  0  0  0  0  0
    7.2944    2.0423    0.6056 H   0  0  0  0  0  0  0  0  0  0  0  0
    6.7435    1.3530   -0.9277 H   0  0  0  0  0  0  0  0  0  0  0  0
    5.7357    2.5138   -0.0594 H   0  0  0  0  0  0  0  0  0  0  0  0
    6.0408    1.4105    2.8223 H   0  0  0  0  0  0  0  0  0  0  0  0
    4.5330    1.8948    2.0497 H   0  0  0  0  0  0  0  0  0  0  0  0
    4.6818    0.2769    2.7511 H   0  0  0  0  0  0  0  0  0  0  0  0
    3.6094    1.7681   -0.3475 H   0  0  0  0  0  0  0  0  0  0  0  0
    3.0618   -2.6746   -0.7677 H   0  0  0  0  0  0  0  0  0  0  0  0
    3.0527   -1.3543   -1.9892 H   0  0  0  0  0  0  0  0  0  0  0  0
    4.1377   -2.6887   -2.1602 H   0  0  0  0  0  0  0  0  0  0  0  0
    2.0378   -0.8423    0.0386 H   0  0  0  0  0  0  0  0  0  0  0  0
    0.1037    2.9670   -0.6433 H   0  0  0  0  0  0  0  0  0  0  0  0
    1.5638    2.9131    0.3250 H   0  0  0  0  0  0  0  0  0  0  0  0
    1.6403    2.6862   -1.4401 H   0  0  0  0  0  0  0  0  0  0  0  0
   -0.1869   -0.7959   -0.1825 H   0  0  0  0  0  0  0  0  0  0  0  0
   -1.6685    1.8862   -0.6099 H   0  0  0  0  0  0  0  0  0  0  0  0
   -2.5192   -1.0314   -0.2718 H   0  0  0  0  0  0  0  0  0  0  0  0
   -4.7404   -1.4946   -0.3347 H   0  0  0  0  0  0  0  0  0  0  0  0
   -3.8143    2.2935   -1.6785 H   0  0  0  0  0  0  0  0  0  0  0  0
   -5.3600    2.2060   -0.8574 H   0  0  0  0  0  0  0  0  0  0  0  0
   -3.9165    2.5272    0.0841 H   0  0  0  0  0  0  0  0  0  0  0  0
   -6.8015    0.7813   -0.7224 H   0  0  0  0  0  0  0  0  0  0  0  0
   -6.8756   -0.8389   -1.4406 H   0  0  0  0  0  0  0  0  0  0  0  0
   -8.5940   -0.6459    2.7865 H   0  0  0  0  0  0  0  0  0  0  0  0
   -8.7531   -2.2645    2.0260 H   0  0  0  0  0  0  0  0  0  0  0  0
  -10.0951   -1.1055    1.9595 H   0  0  0  0  0  0  0  0  0  0  0  0
  1 22  1  0  0  0  0
  1 23  1  0  0  0  0
  2 23  2  0  0  0  0
  3  4  1  0  0  0  0
  3  6  1  0  0  0  0
  3  9  1  0  0  0  0
  3 10  1  0  0  0  0
  4  5  1  0  0  0  0
  4 25  1  0  0  0  0
  4 26  1  0  0  0  0
  5  7  1  0  0  0  0
  5 27  1  0  0  0  0
  5 28  1  0  0  0  0
  6  8  2  0  0  0  0
  6 11  1  0  0  0  0
  7  8  1  0  0  0  0
  7 29  1  0  0  0  0
  7 30  1  0  0  0  0
  8 12  1  0  0  0  0
  9 31  1  0  0  0  0
  9 32  1  0  0  0  0
  9 33  1  0  0  0  0
 10 34  1  0  0  0  0
 10 35  1  0  0  0  0
 10 36  1  0  0  0  0
 11 13  2  0  0  0  0
 11 37  1  0  0  0  0
 12 38  1  0  0  0  0
 12 39  1  0  0  0  0
 12 40  1  0  0  0  0
 13 14  1  0  0  0  0
 13 41  1  0  0  0  0
 14 15  1  0  0  0  0
 14 16  2  0  0  0  0
 15 42  1  0  0  0  0
 15 43  1  0  0  0  0
 15 44  1  0  0  0  0
 16 17  1  0  0  0  0
 16 45  1  0  0  0  0
 17 18  2  0  0  0  0
 17 46  1  0  0  0  0
 18 19  1  0  0  0  0
 18 47  1  0  0  0  0
 19 20  2  0  0  0  0
 19 21  1  0  0  0  0
 20 22  1  0  0  0  0
 20 48  1  0  0  0  0
 21 49  1  0  0  0  0
 21 50  1  0  0  0  0
 21 51  1  0  0  0  0
 22 52  1  0  0  0  0
 22 53  1  0  0  0  0
 23 24  1  0  0  0  0
 24 54  1  0  0  0  0
 24 55  1  0  0  0  0
 24 56  1  0  0  0  0
M  END
> <PUBCHEM_COMPOUND_CID>
5057

> <PUBCHEM_CONFORMER_RMSD>
0.8

> <PUBCHEM_CONFORMER_DIVERSEORDER>
1
174
27
120
54
202
5
74
136
60
84
102
32
114
77
50
63
58
70
25
190
146
86
19
104
55
29
150
153
198
46
18
72
15
38
73
203
2
119
176
76
106
20
85
26
157
68
31
39
66
80
148
79
16
165
40
48
113
42
184
3
181
82
187
99
22
4
172
90
75
94
138
34
21
35
127
182
36
8
162
97
200
115
28
179
192
199
62
7
116
143
117
118
10
6
45
180
57
196
133
152
129
193
14
111
23
9
44
51
11
52
170
130
30
171
159
17
124
98
41
101
12
158
149
191
65
47
67
13
24
197
135
121
91
37
56
188
168
160
96
64
103
43
100
109
164
132
144
125
194
161
33
186
142
83
155
145
112
175
95
173
71
81
61
128
88
53
110
49
139
140
167
89
177
163
141
189
108
185
169
105
59
147
92
201
183
87
166
78
123
205
156
154
126
122
137
178
107
69
131
93
195
134
204
151

> <PUBCHEM_MMFF94_PARTIAL_CHARGES>
26
1 -0.43
11 -0.15
12 0.14
13 -0.15
14 -0.14
15 0.14
16 -0.15
17 -0.15
18 -0.15
19 -0.14
2 -0.57
20 -0.29
21 0.14
22 0.42
23 0.66
24 0.06
3 0.14
37 0.15
41 0.15
45 0.15
46 0.15
47 0.15
48 0.15
6 -0.14
7 0.14
8 -0.28

> <PUBCHEM_EFFECTIVE_ROTOR_COUNT>
7.8

> <PUBCHEM_PHARMACOPHORE_FEATURES>
5
1 15 hydrophobe
1 2 acceptor
1 21 hydrophobe
3 3 9 10 hydrophobe
6 3 4 5 6 7 8 rings

> <PUBCHEM_HEAVY_ATOM_COUNT>
24

> <PUBCHEM_ATOM_DEF_STEREO_COUNT>
0

> <PUBCHEM_ATOM_UDEF_STEREO_COUNT>
0

> <PUBCHEM_BOND_DEF_STEREO_COUNT>
0

> <PUBCHEM_BOND_UDEF_STEREO_COUNT>
4

> <PUBCHEM_ISOTOPIC_ATOM_COUNT>
0

> <PUBCHEM_COMPONENT_COUNT>
1

> <PUBCHEM_CACTVS_TAUTO_COUNT>
1

> <PUBCHEM_CONFORMER_ID>
000013C100000001

> <PUBCHEM_MMFF94_ENERGY>
52.3673

> <PUBCHEM_FEATURE_SELFOVERLAP>
25.371

> <PUBCHEM_SHAPE_FINGERPRINT>
10066227 49 15051468140548166297
11386260 185 12031782561298698382
11991303 11 14117508814693344305
12516196 113 18408608071515356780
13073987 5 18114742745631841293
13533116 47 17822013133892901302
13668630 136 17775287175019322967
13673619 4 17846780706955694565
13685833 64 18413107264411011221
13885169 127 18342459283773718709
14251757 52 4895262737912265562
14251764 18 17095523989914457109
14729087 3 5328466982598910251
15183329 4 14117518770237676732
15419008 91 18059314096812725109
15510794 2 18343021082891909631
15716309 27 18260832592298250149
1754908 1 17967250859064238275
1754911 235 10735880552574386107
1818759 1 17775280569586670203
18335252 98 18412262840050695404
21150785 3 13830133888858494907
21267235 1 18201717354084362669
21315759 40 15841554085201797461
21623969 137 18187085078895510918
21781051 124 16988551382540613675
21792934 111 18334580136267998897
220451 1 17458632193980165868
22149856 69 18260542355177299240
22224240 67 17385725777566936055
22956985 138 16769881790030778866
23576562 1 10879408579950420379
246663 6 17775565338887510715
3004659 81 17846779624713301220
3178227 256 18410851041224064151
3383291 50 18201718436522013131
4340502 62 17603874394997612894
5104073 3 17968658349046407369
9962374 69 18337679599194877543

> <PUBCHEM_SHAPE_MULTIPOLES>
482.17
29.35
1.97
1.31
55.52
0.14
-0.7
-11.94
-10.74
-2.43
0.4
0.04
-0.14
2.67

> <PUBCHEM_SHAPE_SELFOVERLAP>
961.743

> <PUBCHEM_SHAPE_VOLUME>
284.8

> <PUBCHEM_COORDINATE_TYPE>
2
5
10

$$$$

