5165
  -OEChem-06261200332D

 31 32  0     0  0  0  0  0  0999 V2000
    6.3301    1.3100    0.0000 Br  0  0  0  0  0  0  0  0  0  0  0  0
    2.0000   -0.1900    0.0000 O   0  0  0  0  0  0  0  0  0  0  0  0
    4.5981   -3.6900    0.0000 O   0  0  0  0  0  0  0  0  0  0  0  0
    2.8660   -3.6900    0.0000 O   0  0  0  0  0  0  0  0  0  0  0  0
    5.4641    0.8100    0.0000 O   0  0  0  0  0  0  0  0  0  0  0  0
    4.5981    2.3100    0.0000 N   0  0  0  0  0  0  0  0  0  0  0  0
    3.7321    0.8100    0.0000 N   0  0  0  0  0  0  0  0  0  0  0  0
    3.7321   -3.1900    0.0000 N   0  0  0  0  0  0  0  0  0  0  0  0
    3.7321   -0.1900    0.0000 C   0  0  0  0  0  0  0  0  0  0  0  0
    5.4641    2.8100    0.0000 C   0  0  0  0  0  0  0  0  0  0  0  0
    3.7321   -2.1900    0.0000 C   0  0  0  0  0  0  0  0  0  0  0  0
    2.8660   -0.6900    0.0000 C   0  0  0  0  0  0  0  0  0  0  0  0
    4.5981   -0.6900    0.0000 C   0  0  0  0  0  0  0  0  0  0  0  0
    2.8660   -1.6900    0.0000 C   0  0  0  0  0  0  0  0  0  0  0  0
    4.5981   -1.6900    0.0000 C   0  0  0  0  0  0  0  0  0  0  0  0
    6.3301    2.3100    0.0000 C   0  0  0  0  0  0  0  0  0  0  0  0
    5.4641    3.8100    0.0000 C   0  0  0  0  0  0  0  0  0  0  0  0
    7.1962    2.8100    0.0000 C   0  0  0  0  0  0  0  0  0  0  0  0
    6.3301    4.3100    0.0000 C   0  0  0  0  0  0  0  0  0  0  0  0
    4.5981    1.3100    0.0000 C   0  0  0  0  0  0  0  0  0  0  0  0
    7.1962    3.8100    0.0000 C   0  0  0  0  0  0  0  0  0  0  0  0
    5.1350   -0.3800    0.0000 H   0  0  0  0  0  0  0  0  0  0  0  0
    2.3291   -2.0000    0.0000 H   0  0  0  0  0  0  0  0  0  0  0  0
    5.1350   -2.0000    0.0000 H   0  0  0  0  0  0  0  0  0  0  0  0
    4.9272    4.1200    0.0000 H   0  0  0  0  0  0  0  0  0  0  0  0
    4.0611    2.6200    0.0000 H   0  0  0  0  0  0  0  0  0  0  0  0
    7.7331    2.5000    0.0000 H   0  0  0  0  0  0  0  0  0  0  0  0
    6.3301    4.9300    0.0000 H   0  0  0  0  0  0  0  0  0  0  0  0
    7.7331    4.1200    0.0000 H   0  0  0  0  0  0  0  0  0  0  0  0
    4.5981   -4.3100    0.0000 H   0  0  0  0  0  0  0  0  0  0  0  0
    2.8660   -4.3100    0.0000 H   0  0  0  0  0  0  0  0  0  0  0  0
  1 16  1  0  0  0  0
  2 12  2  0  0  0  0
  3  8  1  0  0  0  0
  3 30  1  0  0  0  0
  4  8  1  0  0  0  0
  4 31  1  0  0  0  0
  5 20  2  0  0  0  0
  6 10  1  0  0  0  0
  6 20  1  0  0  0  0
  6 26  1  0  0  0  0
  7  9  2  3  0  0  0
  7 20  1  0  0  0  0
  8 11  1  0  0  0  0
  9 12  1  0  0  0  0
  9 13  1  0  0  0  0
 10 16  1  0  0  0  0
 10 17  2  0  0  0  0
 11 14  2  0  0  0  0
 11 15  1  0  0  0  0
 12 14  1  0  0  0  0
 13 15  2  0  0  0  0
 13 22  1  0  0  0  0
 14 23  1  0  0  0  0
 15 24  1  0  0  0  0
 16 18  2  0  0  0  0
 17 19  1  0  0  0  0
 17 25  1  0  0  0  0
 18 21  1  0  0  0  0
 18 27  1  0  0  0  0
 19 21  2  0  0  0  0
 19 28  1  0  0  0  0
 21 29  1  0  0  0  0
M  END
> <PUBCHEM_COMPOUND_CID>
5165

> <PUBCHEM_COMPOUND_CANONICALIZED>
1

> <PUBCHEM_CACTVS_COMPLEXITY>
528

> <PUBCHEM_CACTVS_HBOND_ACCEPTOR>
5

> <PUBCHEM_CACTVS_HBOND_DONOR>
3

> <PUBCHEM_CACTVS_ROTATABLE_BOND>
2

> <PUBCHEM_CACTVS_SUBSKEYS>
AAADccBzOAAAEAAAAAAAAAAAAAAAAAAAAAAwQAAAAAAAAAABAAAAHgBUCAABqAyBkAAxwILQQACoAaRyVACCAAAhAgQoiAEwZPiIICLAkZGEIAhglAJIy3cQAAAAAAAAAAAAAAgAAAAAAAAAEAAAAAAAAA==

> <PUBCHEM_IUPAC_OPENEYE_NAME>
1-(2-bromophenyl)-3-[4-(dihydroxyamino)-6-oxo-cyclohexa-2,4-dien-1-ylidene]urea

> <PUBCHEM_IUPAC_CAS_NAME>
1-(2-bromophenyl)-3-[4-(dihydroxyamino)-6-oxo-1-cyclohexa-2,4-dienylidene]urea

> <PUBCHEM_IUPAC_NAME>
1-(2-bromophenyl)-3-[4-(dihydroxyamino)-6-oxocyclohexa-2,4-dien-1-ylidene]urea

> <PUBCHEM_IUPAC_SYSTEMATIC_NAME>
1-[4-[bis(oxidanyl)amino]-6-oxidanylidene-cyclohexa-2,4-dien-1-ylidene]-3-(2-bromophenyl)urea

> <PUBCHEM_IUPAC_TRADITIONAL_NAME>
1-(2-bromophenyl)-3-[4-(dihydroxyamino)-6-keto-cyclohexa-2,4-dien-1-ylidene]urea

> <PUBCHEM_IUPAC_INCHI>
InChI=1S/C13H10BrN3O4/c14-9-3-1-2-4-10(9)15-13(19)16-11-6-5-8(17(20)21)7-12(11)18/h1-7,20-21H,(H,15,19)

> <PUBCHEM_IUPAC_INCHIKEY>
SHBKCNKUOVCUHT-UHFFFAOYSA-N

> <PUBCHEM_XLOGP3_AA>
1.4

> <PUBCHEM_EXACT_MASS>
350.985468

> <PUBCHEM_MOLECULAR_FORMULA>
C13H10BrN3O4

> <PUBCHEM_MOLECULAR_WEIGHT>
352.1402

> <PUBCHEM_OPENEYE_CAN_SMILES>
C1=CC=C(C(=C1)NC(=O)N=C2C=CC(=CC2=O)N(O)O)Br

> <PUBCHEM_OPENEYE_ISO_SMILES>
C1=CC=C(C(=C1)NC(=O)N=C2C=CC(=CC2=O)N(O)O)Br

> <PUBCHEM_CACTVS_TPSA>
102

> <PUBCHEM_MONOISOTOPIC_WEIGHT>
350.985468

> <PUBCHEM_TOTAL_CHARGE>
0

> <PUBCHEM_HEAVY_ATOM_COUNT>
21

> <PUBCHEM_ATOM_DEF_STEREO_COUNT>
0

> <PUBCHEM_ATOM_UDEF_STEREO_COUNT>
0

> <PUBCHEM_BOND_DEF_STEREO_COUNT>
0

> <PUBCHEM_BOND_UDEF_STEREO_COUNT>
1

> <PUBCHEM_ISOTOPIC_ATOM_COUNT>
0

> <PUBCHEM_COMPONENT_COUNT>
1

> <PUBCHEM_CACTVS_TAUTO_COUNT>
2

> <PUBCHEM_COORDINATE_TYPE>
1
5
255

> <PUBCHEM_BONDANNOTATIONS>
10  16  8
10  17  8
16  18  8
17  19  8
18  21  8
19  21  8

$$$$

