10020
  -OEChem-06261204153D

 14 13  0     0  0  0  0  0  0999 V2000
   -1.2801    1.2363    0.5483 O   0  0  0  0  0  0  0  0  0  0  0  0
   -2.8405   -0.3699    0.1833 O   0  0  0  0  0  0  0  0  0  0  0  0
    1.5727   -0.9137    1.0194 O   0  0  0  0  0  0  0  0  0  0  0  0
    0.5952    0.0705   -0.8474 N   0  0  0  0  0  0  0  0  0  0  0  0
    2.7107    0.6741   -0.1865 N   0  0  0  0  0  0  0  0  0  0  0  0
   -0.6628   -0.6388   -0.8068 C   0  0  0  0  0  0  0  0  0  0  0  0
   -1.7092    0.0689    0.0151 C   0  0  0  0  0  0  0  0  0  0  0  0
    1.6139   -0.1275    0.0746 C   0  0  0  0  0  0  0  0  0  0  0  0
   -0.5003   -1.6335   -0.3816 H   0  0  0  0  0  0  0  0  0  0  0  0
   -1.0223   -0.7205   -1.8362 H   0  0  0  0  0  0  0  0  0  0  0  0
    0.7301    0.7662   -1.5746 H   0  0  0  0  0  0  0  0  0  0  0  0
    2.7265    1.3168   -0.9713 H   0  0  0  0  0  0  0  0  0  0  0  0
    3.5364    0.6424    0.4020 H   0  0  0  0  0  0  0  0  0  0  0  0
   -1.9786    1.6772    1.0775 H   0  0  0  0  0  0  0  0  0  0  0  0
  1  7  1  0  0  0  0
  1 14  1  0  0  0  0
  2  7  2  0  0  0  0
  3  8  2  0  0  0  0
  4  6  1  0  0  0  0
  4  8  1  0  0  0  0
  4 11  1  0  0  0  0
  5  8  1  0  0  0  0
  5 12  1  0  0  0  0
  5 13  1  0  0  0  0
  6  7  1  0  0  0  0
  6  9  1  0  0  0  0
  6 10  1  0  0  0  0
M  END
> <PUBCHEM_COMPOUND_CID>
10020

> <PUBCHEM_CONFORMER_RMSD>
0.6

> <PUBCHEM_CONFORMER_DIVERSEORDER>
1
6
2
4
5
3

> <PUBCHEM_MMFF94_PARTIAL_CHARGES>
12
1 -0.65
11 0.37
12 0.37
13 0.37
14 0.5
2 -0.57
3 -0.57
4 -0.73
5 -0.8
6 0.36
7 0.66
8 0.69

> <PUBCHEM_EFFECTIVE_ROTOR_COUNT>
3

> <PUBCHEM_PHARMACOPHORE_FEATURES>
6
1 1 acceptor
1 2 acceptor
1 3 acceptor
1 4 donor
1 5 donor
3 1 2 7 anion

> <PUBCHEM_HEAVY_ATOM_COUNT>
8

> <PUBCHEM_ATOM_DEF_STEREO_COUNT>
0

> <PUBCHEM_ATOM_UDEF_STEREO_COUNT>
0

> <PUBCHEM_BOND_DEF_STEREO_COUNT>
0

> <PUBCHEM_BOND_UDEF_STEREO_COUNT>
0

> <PUBCHEM_ISOTOPIC_ATOM_COUNT>
0

> <PUBCHEM_COMPONENT_COUNT>
1

> <PUBCHEM_CACTVS_TAUTO_COUNT>
3

> <PUBCHEM_CONFORMER_ID>
0000272400000001

> <PUBCHEM_MMFF94_ENERGY>
8.4301

> <PUBCHEM_FEATURE_SELFOVERLAP>
30.556

> <PUBCHEM_SHAPE_FINGERPRINT>
10857977 72 17822295639419059355
11062470 55 15626225693320745303
16714656 1 17676203546178397165
20096714 4 14490199305629149094
21040471 1 17313107483399880294
24536 1 18115876367525651565
29004967 10 16559030497548434204
5084963 1 17240479238500494711
5460574 1 9079121050561003407

> <PUBCHEM_SHAPE_MULTIPOLES>
137.07
3.63
0.94
0.88
0.04
0.17
-0.11
0.34
-0.33
0.19
0
-0.29
-0.14
-0.23

> <PUBCHEM_SHAPE_SELFOVERLAP>
258.275

> <PUBCHEM_SHAPE_VOLUME>
84.3

> <PUBCHEM_COORDINATE_TYPE>
2
5
10

$$$$

