586055
  -OEChem-06241222453D

 20 21  0     0  0  0  0  0  0999 V2000
    1.9543   -0.1787    0.3879 S   0  0  0  0  0  0  0  0  0  0  0  0
   -2.1499    2.3672    0.0844 S   0  0  0  0  0  0  0  0  0  0  0  0
    2.7136   -1.4200    0.4836 O   0  0  0  0  0  0  0  0  0  0  0  0
    2.0307    0.7973    1.4687 O   0  0  0  0  0  0  0  0  0  0  0  0
    2.3216    0.5822   -1.1141 N   0  0  0  0  0  0  0  0  0  0  0  0
   -0.6285    1.7156    0.2203 N   0  0  0  0  0  0  0  0  0  0  0  0
   -3.0579    0.9947   -0.1385 N   0  0  0  0  0  0  0  0  0  0  0  0
    3.6369    0.9970   -1.0373 N   0  0  0  0  0  0  0  0  0  0  0  0
    0.2713   -0.5726    0.1477 C   0  0  0  0  0  0  0  0  0  0  0  0
   -0.7690    0.3861    0.0960 C   0  0  0  0  0  0  0  0  0  0  0  0
   -2.2013   -0.0389   -0.1156 C   0  0  0  0  0  0  0  0  0  0  0  0
   -0.1209   -1.9128   -0.0088 C   0  0  0  0  0  0  0  0  0  0  0  0
   -2.5368   -1.4058   -0.2671 C   0  0  0  0  0  0  0  0  0  0  0  0
   -1.4640   -2.3114   -0.2071 C   0  0  0  0  0  0  0  0  0  0  0  0
    0.6242   -2.7065    0.0174 H   0  0  0  0  0  0  0  0  0  0  0  0
   -3.5556   -1.7422   -0.4204 H   0  0  0  0  0  0  0  0  0  0  0  0
   -1.6761   -3.3738   -0.3194 H   0  0  0  0  0  0  0  0  0  0  0  0
    2.1786    0.0169   -1.9617 H   0  0  0  0  0  0  0  0  0  0  0  0
    3.8093    1.5522   -1.8745 H   0  0  0  0  0  0  0  0  0  0  0  0
    4.2145    0.1618   -1.1315 H   0  0  0  0  0  0  0  0  0  0  0  0
  1  3  2  0  0  0  0
  1  4  2  0  0  0  0
  1  5  1  0  0  0  0
  1  9  1  0  0  0  0
  2  6  1  0  0  0  0
  2  7  1  0  0  0  0
  5  8  1  0  0  0  0
  5 18  1  0  0  0  0
  6 10  2  0  0  0  0
  7 11  2  0  0  0  0
  8 19  1  0  0  0  0
  8 20  1  0  0  0  0
  9 10  1  0  0  0  0
  9 12  2  0  0  0  0
 10 11  1  0  0  0  0
 11 13  1  0  0  0  0
 12 14  1  0  0  0  0
 12 15  1  0  0  0  0
 13 14  2  0  0  0  0
 13 16  1  0  0  0  0
 14 17  1  0  0  0  0
M  END
> <PUBCHEM_COMPOUND_CID>
586055

> <PUBCHEM_CONFORMER_RMSD>
0.6

> <PUBCHEM_CONFORMER_DIVERSEORDER>
1
3
4
2

> <PUBCHEM_MMFF94_PARTIAL_CHARGES>
20
1 1.45
10 0.29
11 0.29
12 -0.15
13 -0.15
14 -0.15
15 0.15
16 0.15
17 0.15
18 0.42
19 0.36
2 0.44
20 0.36
3 -0.65
4 -0.65
5 -0.63
6 -0.51
7 -0.51
8 -0.65
9 -0.01

> <PUBCHEM_EFFECTIVE_ROTOR_COUNT>
2

> <PUBCHEM_PHARMACOPHORE_FEATURES>
7
1 3 acceptor
1 4 acceptor
1 5 donor
1 6 acceptor
1 7 acceptor
5 2 6 7 10 11 rings
6 9 10 11 12 13 14 rings

> <PUBCHEM_HEAVY_ATOM_COUNT>
14

> <PUBCHEM_ATOM_DEF_STEREO_COUNT>
0

> <PUBCHEM_ATOM_UDEF_STEREO_COUNT>
0

> <PUBCHEM_BOND_DEF_STEREO_COUNT>
0

> <PUBCHEM_BOND_UDEF_STEREO_COUNT>
0

> <PUBCHEM_ISOTOPIC_ATOM_COUNT>
0

> <PUBCHEM_COMPONENT_COUNT>
1

> <PUBCHEM_CACTVS_TAUTO_COUNT>
1

> <PUBCHEM_CONFORMER_ID>
0008F14700000001

> <PUBCHEM_MMFF94_ENERGY>
22.6515

> <PUBCHEM_FEATURE_SELFOVERLAP>
35.65

> <PUBCHEM_SHAPE_FINGERPRINT>
11206711 2 18337119964602858719
12716758 59 18335143115357152795
12932764 1 18041279872353778674
13380535 76 18120946267671687379
13538477 17 18272093772788192750
15669948 3 18409732833028856790
15775835 57 18412538842616572120
16945 1 18266466403731935771
17134986 127 18052531372419998917
193761 8 17617667553466723219
20510252 161 18334290946722227713
20645476 183 18201715150222755919
21501502 16 18410294735105320142
21524375 3 18192437596072921111
22802520 49 18113891667549389662
2334 1 18410016537373149259
23463225 33 18198064874613397530
23552423 10 18272657869524658786
23557571 272 17970071045594737866
23559900 14 18042126621921611786
2748010 2 17832437397176611451
3071541 250 17546437887157701287
5084963 1 18058739129170686186
53812653 8 18412537717398301213
7364860 26 17468203687776900335
77492 1 17846788368897268488
8030462 33 18339651039990437470
81228 2 18337400322840580043

> <PUBCHEM_SHAPE_MULTIPOLES>
264.15
4.76
2.46
0.89
2.49
0.14
-0.02
-1.24
0.74
-1.53
0.03
0.69
-0.2
-0.45

> <PUBCHEM_SHAPE_SELFOVERLAP>
537.763

> <PUBCHEM_SHAPE_VOLUME>
154.1

> <PUBCHEM_COORDINATE_TYPE>
2
5
10

$$$$

