17395442
  -OEChem-06241222502D

 45 46  0     0  0  0  0  0  0999 V2000
    4.1701    1.2109    0.0000 O   0  0  0  0  0  0  0  0  0  0  0  0
    7.5604    2.4380    0.0000 O   0  0  0  0  0  0  0  0  0  0  0  0
    3.9890    2.9334    0.0000 N   0  0  0  0  0  0  0  0  0  0  0  0
    6.1591    1.4199    0.0000 N   0  0  0  0  0  0  0  0  0  0  0  0
    8.7414    0.7154    0.0000 N   0  0  0  0  0  0  0  0  0  0  0  0
    9.0505   -0.2356    0.0000 N   0  0  0  0  0  0  0  0  0  0  0  0
    2.9945    2.8289    0.0000 C   0  0  0  0  0  0  0  0  0  0  0  0
    2.0000    2.7244    0.0000 C   0  0  0  0  0  0  0  0  0  0  0  0
    2.8900    3.8234    0.0000 C   0  0  0  0  0  0  0  0  0  0  0  0
    3.0990    1.8344    0.0000 C   0  0  0  0  0  0  0  0  0  0  0  0
    4.5768    2.1244    0.0000 C   0  0  0  0  0  0  0  0  0  0  0  0
    5.5714    2.2289    0.0000 C   0  0  0  0  0  0  0  0  0  0  0  0
    7.1537    1.5244    0.0000 C   0  0  0  0  0  0  0  0  0  0  0  0
    7.7414    0.7154    0.0000 C   0  0  0  0  0  0  0  0  0  0  0  0
    5.7524    0.5064    0.0000 C   0  0  0  0  0  0  0  0  0  0  0  0
    7.4324   -0.2356    0.0000 C   0  0  0  0  0  0  0  0  0  0  0  0
    8.2414   -0.8234    0.0000 C   0  0  0  0  0  0  0  0  0  0  0  0
    8.2414   -1.8234    0.0000 C   0  0  0  0  0  0  0  0  0  0  0  0
    7.3754   -2.3234    0.0000 C   0  0  0  0  0  0  0  0  0  0  0  0
    9.1075   -2.3234    0.0000 C   0  0  0  0  0  0  0  0  0  0  0  0
    7.3754   -3.3234    0.0000 C   0  0  0  0  0  0  0  0  0  0  0  0
    9.1075   -3.3234    0.0000 C   0  0  0  0  0  0  0  0  0  0  0  0
    8.2414   -3.8234    0.0000 C   0  0  0  0  0  0  0  0  0  0  0  0
    4.2412    3.4998    0.0000 H   0  0  0  0  0  0  0  0  0  0  0  0
    2.4824    1.7696    0.0000 H   0  0  0  0  0  0  0  0  0  0  0  0
    1.9352    3.3410    0.0000 H   0  0  0  0  0  0  0  0  0  0  0  0
    1.3834    2.6596    0.0000 H   0  0  0  0  0  0  0  0  0  0  0  0
    2.0648    2.1078    0.0000 H   0  0  0  0  0  0  0  0  0  0  0  0
    3.5066    3.8882    0.0000 H   0  0  0  0  0  0  0  0  0  0  0  0
    2.8252    4.4400    0.0000 H   0  0  0  0  0  0  0  0  0  0  0  0
    2.2734    3.7586    0.0000 H   0  0  0  0  0  0  0  0  0  0  0  0
    3.1639    1.2178    0.0000 H   0  0  0  0  0  0  0  0  0  0  0  0
    3.7156    1.8992    0.0000 H   0  0  0  0  0  0  0  0  0  0  0  0
    6.1286    2.5007    0.0000 H   0  0  0  0  0  0  0  0  0  0  0  0
    5.4005    2.8249    0.0000 H   0  0  0  0  0  0  0  0  0  0  0  0
    5.1860    0.7585    0.0000 H   0  0  0  0  0  0  0  0  0  0  0  0
    5.5002   -0.0600    0.0000 H   0  0  0  0  0  0  0  0  0  0  0  0
    6.3188    0.2542    0.0000 H   0  0  0  0  0  0  0  0  0  0  0  0
    6.8428   -0.4272    0.0000 H   0  0  0  0  0  0  0  0  0  0  0  0
    9.1059    1.2170    0.0000 H   0  0  0  0  0  0  0  0  0  0  0  0
    6.8385   -2.0134    0.0000 H   0  0  0  0  0  0  0  0  0  0  0  0
    9.6444   -2.0134    0.0000 H   0  0  0  0  0  0  0  0  0  0  0  0
    6.8385   -3.6334    0.0000 H   0  0  0  0  0  0  0  0  0  0  0  0
    9.6444   -3.6334    0.0000 H   0  0  0  0  0  0  0  0  0  0  0  0
    8.2414   -4.4434    0.0000 H   0  0  0  0  0  0  0  0  0  0  0  0
  1 11  2  0  0  0  0
  2 13  2  0  0  0  0
  3  7  1  0  0  0  0
  3 11  1  0  0  0  0
  3 24  1  0  0  0  0
  4 12  1  0  0  0  0
  4 13  1  0  0  0  0
  4 15  1  0  0  0  0
  5  6  1  0  0  0  0
  5 14  1  0  0  0  0
  5 40  1  0  0  0  0
  6 17  2  0  0  0  0
  7  8  1  0  0  0  0
  7  9  1  0  0  0  0
  7 10  1  0  0  0  0
  8 26  1  0  0  0  0
  8 27  1  0  0  0  0
  8 28  1  0  0  0  0
  9 29  1  0  0  0  0
  9 30  1  0  0  0  0
  9 31  1  0  0  0  0
 10 25  1  0  0  0  0
 10 32  1  0  0  0  0
 10 33  1  0  0  0  0
 11 12  1  0  0  0  0
 12 34  1  0  0  0  0
 12 35  1  0  0  0  0
 13 14  1  0  0  0  0
 14 16  2  0  0  0  0
 15 36  1  0  0  0  0
 15 37  1  0  0  0  0
 15 38  1  0  0  0  0
 16 17  1  0  0  0  0
 16 39  1  0  0  0  0
 17 18  1  0  0  0  0
 18 19  2  0  0  0  0
 18 20  1  0  0  0  0
 19 21  1  0  0  0  0
 19 41  1  0  0  0  0
 20 22  2  0  0  0  0
 20 42  1  0  0  0  0
 21 23  2  0  0  0  0
 21 43  1  0  0  0  0
 22 23  1  0  0  0  0
 22 44  1  0  0  0  0
 23 45  1  0  0  0  0
M  END
> <PUBCHEM_COMPOUND_CID>
17395442

> <PUBCHEM_COMPOUND_CANONICALIZED>
1

> <PUBCHEM_CACTVS_COMPLEXITY>
427

> <PUBCHEM_CACTVS_HBOND_ACCEPTOR>
3

> <PUBCHEM_CACTVS_HBOND_DONOR>
2

> <PUBCHEM_CACTVS_ROTATABLE_BOND>
5

> <PUBCHEM_CACTVS_SUBSKEYS>
AAADceB7sAAAAAAAAAAAAAAAAAAAAWAAAAAwAAAAAAAAAAABwAAAHgAYAAAADIjBngQygJPjAACqAyVyUACSBAAmAgAYuSG4ZNgIYLKA1fGUpQhgngCIyYcciICOAAAAAAAAAAAAAAAAAAAAAAAAAAAAAA==

> <PUBCHEM_IUPAC_OPENEYE_NAME>
N-[2-(tert-butylamino)-2-oxo-ethyl]-N-methyl-3-phenyl-1H-pyrazole-5-carboxamide

> <PUBCHEM_IUPAC_CAS_NAME>
N-[2-(tert-butylamino)-2-oxoethyl]-N-methyl-3-phenyl-1H-pyrazole-5-carboxamide

> <PUBCHEM_IUPAC_NAME>
N-[2-(tert-butylamino)-2-oxoethyl]-N-methyl-3-phenyl-1H-pyrazole-5-carboxamide

> <PUBCHEM_IUPAC_SYSTEMATIC_NAME>
N-[2-(tert-butylamino)-2-oxidanylidene-ethyl]-N-methyl-3-phenyl-1H-pyrazole-5-carboxamide

> <PUBCHEM_IUPAC_TRADITIONAL_NAME>
N-[2-(tert-butylamino)-2-keto-ethyl]-N-methyl-3-phenyl-1H-pyrazole-5-carboxamide

> <PUBCHEM_IUPAC_INCHI>
InChI=1S/C17H22N4O2/c1-17(2,3)18-15(22)11-21(4)16(23)14-10-13(19-20-14)12-8-6-5-7-9-12/h5-10H,11H2,1-4H3,(H,18,22)(H,19,20)

> <PUBCHEM_IUPAC_INCHIKEY>
NVTFXUGBBWXIMB-UHFFFAOYSA-N

> <PUBCHEM_XLOGP3_AA>
2

> <PUBCHEM_EXACT_MASS>
314.174276

> <PUBCHEM_MOLECULAR_FORMULA>
C17H22N4O2

> <PUBCHEM_MOLECULAR_WEIGHT>
314.38218

> <PUBCHEM_OPENEYE_CAN_SMILES>
CC(C)(C)NC(=O)CN(C)C(=O)C1=CC(=NN1)C2=CC=CC=C2

> <PUBCHEM_OPENEYE_ISO_SMILES>
CC(C)(C)NC(=O)CN(C)C(=O)C1=CC(=NN1)C2=CC=CC=C2

> <PUBCHEM_CACTVS_TPSA>
78.1

> <PUBCHEM_MONOISOTOPIC_WEIGHT>
314.174276

> <PUBCHEM_TOTAL_CHARGE>
0

> <PUBCHEM_HEAVY_ATOM_COUNT>
23

> <PUBCHEM_ATOM_DEF_STEREO_COUNT>
0

> <PUBCHEM_ATOM_UDEF_STEREO_COUNT>
0

> <PUBCHEM_BOND_DEF_STEREO_COUNT>
0

> <PUBCHEM_BOND_UDEF_STEREO_COUNT>
0

> <PUBCHEM_ISOTOPIC_ATOM_COUNT>
0

> <PUBCHEM_COMPONENT_COUNT>
1

> <PUBCHEM_CACTVS_TAUTO_COUNT>
8

> <PUBCHEM_COORDINATE_TYPE>
1
5
255

> <PUBCHEM_BONDANNOTATIONS>
14  16  8
16  17  8
18  19  8
18  20  8
19  21  8
20  22  8
21  23  8
22  23  8
5  14  8
5  6  8
6  17  8

$$$$

