47205010
  -OEChem-06241222572D

 34 35  0     0  0  0  0  0  0999 V2000
    6.8628    3.3364    0.0000 S   0  0  0  0  0  0  0  0  0  0  0  0
    6.3628    4.2024    0.0000 O   0  0  0  0  0  0  0  0  0  0  0  0
    7.3628    2.4704    0.0000 O   0  0  0  0  0  0  0  0  0  0  0  0
    3.3987    0.3364    0.0000 O   0  0  0  0  0  0  0  0  0  0  0  0
    5.9967    2.8364    0.0000 N   0  0  0  0  0  0  0  0  0  0  0  0
    4.2647   -1.1636    0.0000 N   0  0  0  0  0  0  0  0  0  0  0  0
    2.5896   -3.2514    0.0000 N   0  0  0  0  0  0  0  0  0  0  0  0
    2.8987   -4.2024    0.0000 N   0  0  0  0  0  0  0  0  0  0  0  0
    5.9967    1.8364    0.0000 C   0  0  0  0  0  0  0  0  0  0  0  0
    5.1307    0.3364    0.0000 C   0  0  0  0  0  0  0  0  0  0  0  0
    3.3987   -1.6636    0.0000 C   0  0  0  0  0  0  0  0  0  0  0  0
    5.1307    1.3364    0.0000 C   0  0  0  0  0  0  0  0  0  0  0  0
    4.2647   -0.1636    0.0000 C   0  0  0  0  0  0  0  0  0  0  0  0
    3.3987   -2.6636    0.0000 C   0  0  0  0  0  0  0  0  0  0  0  0
    6.8628    1.3364    0.0000 C   0  0  0  0  0  0  0  0  0  0  0  0
    5.9967   -0.1636    0.0000 C   0  0  0  0  0  0  0  0  0  0  0  0
    6.8628    0.3364    0.0000 C   0  0  0  0  0  0  0  0  0  0  0  0
    7.7288    3.8364    0.0000 C   0  0  0  0  0  0  0  0  0  0  0  0
    4.2077   -3.2514    0.0000 C   0  0  0  0  0  0  0  0  0  0  0  0
    3.8987   -4.2024    0.0000 C   0  0  0  0  0  0  0  0  0  0  0  0
    3.1866   -1.0810    0.0000 H   0  0  0  0  0  0  0  0  0  0  0  0
    2.7881   -1.7712    0.0000 H   0  0  0  0  0  0  0  0  0  0  0  0
    4.5938    1.6464    0.0000 H   0  0  0  0  0  0  0  0  0  0  0  0
    5.4598    3.1464    0.0000 H   0  0  0  0  0  0  0  0  0  0  0  0
    4.8016   -1.4736    0.0000 H   0  0  0  0  0  0  0  0  0  0  0  0
    7.3997    1.6464    0.0000 H   0  0  0  0  0  0  0  0  0  0  0  0
    5.9967   -0.7836    0.0000 H   0  0  0  0  0  0  0  0  0  0  0  0
    7.3997    0.0264    0.0000 H   0  0  0  0  0  0  0  0  0  0  0  0
    8.0388    3.2995    0.0000 H   0  0  0  0  0  0  0  0  0  0  0  0
    8.2657    4.1464    0.0000 H   0  0  0  0  0  0  0  0  0  0  0  0
    7.4188    4.3733    0.0000 H   0  0  0  0  0  0  0  0  0  0  0  0
    4.7973   -3.0598    0.0000 H   0  0  0  0  0  0  0  0  0  0  0  0
    2.0000   -3.0598    0.0000 H   0  0  0  0  0  0  0  0  0  0  0  0
    4.2631   -4.7040    0.0000 H   0  0  0  0  0  0  0  0  0  0  0  0
  1  2  2  0  0  0  0
  1  3  2  0  0  0  0
  1  5  1  0  0  0  0
  1 18  1  0  0  0  0
  4 13  2  0  0  0  0
  5  9  1  0  0  0  0
  5 24  1  0  0  0  0
  6 11  1  0  0  0  0
  6 13  1  0  0  0  0
  6 25  1  0  0  0  0
  7  8  1  0  0  0  0
  7 14  1  0  0  0  0
  7 33  1  0  0  0  0
  8 20  2  0  0  0  0
  9 12  1  0  0  0  0
  9 15  2  0  0  0  0
 10 12  2  0  0  0  0
 10 13  1  0  0  0  0
 10 16  1  0  0  0  0
 11 14  1  0  0  0  0
 11 21  1  0  0  0  0
 11 22  1  0  0  0  0
 12 23  1  0  0  0  0
 14 19  2  0  0  0  0
 15 17  1  0  0  0  0
 15 26  1  0  0  0  0
 16 17  2  0  0  0  0
 16 27  1  0  0  0  0
 17 28  1  0  0  0  0
 18 29  1  0  0  0  0
 18 30  1  0  0  0  0
 18 31  1  0  0  0  0
 19 20  1  0  0  0  0
 19 32  1  0  0  0  0
 20 34  1  0  0  0  0
M  END
> <PUBCHEM_COMPOUND_CID>
47205010

> <PUBCHEM_COMPOUND_CANONICALIZED>
1

> <PUBCHEM_CACTVS_COMPLEXITY>
435

> <PUBCHEM_CACTVS_HBOND_ACCEPTOR>
5

> <PUBCHEM_CACTVS_HBOND_DONOR>
3

> <PUBCHEM_CACTVS_ROTATABLE_BOND>
5

> <PUBCHEM_CACTVS_SUBSKEYS>
AAADccBzsABAAAAAAAAAAAAAAAAAAWAAAAAwAAAAAAAAAAABwAAAHgQYQAAADAjBngS+wJLjAAKqAzV3UHCSBAAkggAYuaE4ZNgIYLKA1dGUpQhgngCIyYcciACOAAAAQAAAAAAAAACAAAAAAAAAAAAAAA==

> <PUBCHEM_IUPAC_OPENEYE_NAME>
3-(methanesulfonamido)-N-(1H-pyrazol-5-ylmethyl)benzamide

> <PUBCHEM_IUPAC_CAS_NAME>
3-(methanesulfonamido)-N-(1H-pyrazol-5-ylmethyl)benzamide

> <PUBCHEM_IUPAC_NAME>
3-(methanesulfonamido)-N-(1H-pyrazol-5-ylmethyl)benzamide

> <PUBCHEM_IUPAC_SYSTEMATIC_NAME>
3-(methylsulfonylamino)-N-(1H-pyrazol-5-ylmethyl)benzamide

> <PUBCHEM_IUPAC_TRADITIONAL_NAME>
3-(methanesulfonamido)-N-(1H-pyrazol-5-ylmethyl)benzamide

> <PUBCHEM_IUPAC_INCHI>
InChI=1S/C12H14N4O3S/c1-20(18,19)16-10-4-2-3-9(7-10)12(17)13-8-11-5-6-14-15-11/h2-7,16H,8H2,1H3,(H,13,17)(H,14,15)

> <PUBCHEM_IUPAC_INCHIKEY>
OFTRYHHPSFDJSC-UHFFFAOYSA-N

> <PUBCHEM_XLOGP3_AA>
0

> <PUBCHEM_EXACT_MASS>
294.078661

> <PUBCHEM_MOLECULAR_FORMULA>
C12H14N4O3S

> <PUBCHEM_MOLECULAR_WEIGHT>
294.32956

> <PUBCHEM_OPENEYE_CAN_SMILES>
CS(=O)(=O)NC1=CC=CC(=C1)C(=O)NCC2=CC=NN2

> <PUBCHEM_OPENEYE_ISO_SMILES>
CS(=O)(=O)NC1=CC=CC(=C1)C(=O)NCC2=CC=NN2

> <PUBCHEM_CACTVS_TPSA>
112

> <PUBCHEM_MONOISOTOPIC_WEIGHT>
294.078661

> <PUBCHEM_TOTAL_CHARGE>
0

> <PUBCHEM_HEAVY_ATOM_COUNT>
20

> <PUBCHEM_ATOM_DEF_STEREO_COUNT>
0

> <PUBCHEM_ATOM_UDEF_STEREO_COUNT>
0

> <PUBCHEM_BOND_DEF_STEREO_COUNT>
0

> <PUBCHEM_BOND_UDEF_STEREO_COUNT>
0

> <PUBCHEM_ISOTOPIC_ATOM_COUNT>
0

> <PUBCHEM_COMPONENT_COUNT>
1

> <PUBCHEM_CACTVS_TAUTO_COUNT>
4

> <PUBCHEM_COORDINATE_TYPE>
1
5
255

> <PUBCHEM_BONDANNOTATIONS>
10  12  8
10  16  8
14  19  8
15  17  8
16  17  8
19  20  8
7  14  8
7  8  8
8  20  8
9  12  8
9  15  8

$$$$

