51090963
  -OEChem-06241223012D

 41 43  0     1  0  0  0  0  0999 V2000
    4.6783    2.3951    0.0000 S   0  0  0  0  0  0  0  0  0  0  0  0
   10.7564   -1.1122    0.0000 O   0  0  0  0  0  0  0  0  0  0  0  0
    8.2619    1.5904    0.0000 O   0  0  0  0  0  0  0  0  0  0  0  0
    8.2619   -0.1417    0.0000 N   0  0  0  0  0  0  0  0  0  0  0  0
    4.6783    0.7856    0.0000 N   0  0  0  0  0  0  0  0  0  0  0  0
    9.7619   -1.0077    0.0000 C   0  0  3  0  0  0  0  0  0  0  0  0
    9.3551   -1.9212    0.0000 C   0  0  0  0  0  0  0  0  0  0  0  0
   10.0983   -2.5904    0.0000 C   0  0  0  0  0  0  0  0  0  0  0  0
    9.2619   -0.1417    0.0000 C   0  0  0  0  0  0  0  0  0  0  0  0
   10.9643   -2.0904    0.0000 C   0  0  0  0  0  0  0  0  0  0  0  0
    7.7619    0.7244    0.0000 C   0  0  0  0  0  0  0  0  0  0  0  0
    6.7619    0.7244    0.0000 C   0  0  0  0  0  0  0  0  0  0  0  0
    7.7619   -1.0077    0.0000 C   0  0  0  0  0  0  0  0  0  0  0  0
    6.2619    1.5904    0.0000 C   0  0  0  0  0  0  0  0  0  0  0  0
    5.2619    1.5904    0.0000 C   0  0  0  0  0  0  0  0  0  0  0  0
    3.7320    2.0904    0.0000 C   0  0  0  0  0  0  0  0  0  0  0  0
    3.7320    1.0904    0.0000 C   0  0  0  0  0  0  0  0  0  0  0  0
    2.8660    2.5904    0.0000 C   0  0  0  0  0  0  0  0  0  0  0  0
    2.8660    0.5904    0.0000 C   0  0  0  0  0  0  0  0  0  0  0  0
    2.0000    2.0904    0.0000 C   0  0  0  0  0  0  0  0  0  0  0  0
    2.0000    1.0904    0.0000 C   0  0  0  0  0  0  0  0  0  0  0  0
   10.0996   -0.4877    0.0000 H   0  0  0  0  0  0  0  0  0  0  0  0
    8.8182   -1.6112    0.0000 H   0  0  0  0  0  0  0  0  0  0  0  0
    8.9907   -2.4228    0.0000 H   0  0  0  0  0  0  0  0  0  0  0  0
    9.6375   -3.0052    0.0000 H   0  0  0  0  0  0  0  0  0  0  0  0
   10.4627   -3.0920    0.0000 H   0  0  0  0  0  0  0  0  0  0  0  0
    9.8445    0.0704    0.0000 H   0  0  0  0  0  0  0  0  0  0  0  0
    9.1542    0.4689    0.0000 H   0  0  0  0  0  0  0  0  0  0  0  0
   11.2165   -2.6568    0.0000 H   0  0  0  0  0  0  0  0  0  0  0  0
   11.5540   -1.8988    0.0000 H   0  0  0  0  0  0  0  0  0  0  0  0
    6.1793    0.5123    0.0000 H   0  0  0  0  0  0  0  0  0  0  0  0
    6.8695    0.1138    0.0000 H   0  0  0  0  0  0  0  0  0  0  0  0
    7.2249   -0.6977    0.0000 H   0  0  0  0  0  0  0  0  0  0  0  0
    7.4519   -1.5446    0.0000 H   0  0  0  0  0  0  0  0  0  0  0  0
    8.2988   -1.3177    0.0000 H   0  0  0  0  0  0  0  0  0  0  0  0
    6.8445    1.8024    0.0000 H   0  0  0  0  0  0  0  0  0  0  0  0
    6.1542    2.2010    0.0000 H   0  0  0  0  0  0  0  0  0  0  0  0
    2.8660    3.2104    0.0000 H   0  0  0  0  0  0  0  0  0  0  0  0
    2.8660   -0.0296    0.0000 H   0  0  0  0  0  0  0  0  0  0  0  0
    1.4631    2.4004    0.0000 H   0  0  0  0  0  0  0  0  0  0  0  0
    1.4631    0.7804    0.0000 H   0  0  0  0  0  0  0  0  0  0  0  0
  1 15  1  0  0  0  0
  1 16  1  0  0  0  0
  2  6  1  0  0  0  0
  2 10  1  0  0  0  0
  3 11  2  0  0  0  0
  4  9  1  0  0  0  0
  4 11  1  0  0  0  0
  4 13  1  0  0  0  0
  5 15  2  0  0  0  0
  5 17  1  0  0  0  0
  6  7  1  0  0  0  0
  6  9  1  0  0  0  0
  6 22  1  0  0  0  0
  7  8  1  0  0  0  0
  7 23  1  0  0  0  0
  7 24  1  0  0  0  0
  8 10  1  0  0  0  0
  8 25  1  0  0  0  0
  8 26  1  0  0  0  0
  9 27  1  0  0  0  0
  9 28  1  0  0  0  0
 10 29  1  0  0  0  0
 10 30  1  0  0  0  0
 11 12  1  0  0  0  0
 12 14  1  0  0  0  0
 12 31  1  0  0  0  0
 12 32  1  0  0  0  0
 13 33  1  0  0  0  0
 13 34  1  0  0  0  0
 13 35  1  0  0  0  0
 14 15  1  0  0  0  0
 14 36  1  0  0  0  0
 14 37  1  0  0  0  0
 16 17  1  0  0  0  0
 16 18  2  0  0  0  0
 17 19  2  0  0  0  0
 18 20  1  0  0  0  0
 18 38  1  0  0  0  0
 19 21  1  0  0  0  0
 19 39  1  0  0  0  0
 20 21  2  0  0  0  0
 20 40  1  0  0  0  0
 21 41  1  0  0  0  0
M  END
> <PUBCHEM_COMPOUND_CID>
51090963

> <PUBCHEM_COMPOUND_CANONICALIZED>
1

> <PUBCHEM_CACTVS_COMPLEXITY>
366

> <PUBCHEM_CACTVS_HBOND_ACCEPTOR>
4

> <PUBCHEM_CACTVS_HBOND_DONOR>
0

> <PUBCHEM_CACTVS_ROTATABLE_BOND>
5

> <PUBCHEM_CACTVS_SUBSKEYS>
AAADceB7MABAAAAAAAAAAAAAAAAAAWJAAAAwAAAAAAAAAFgB8AAAHgQAAAAACBzh1gYywbMIFAisASVyVACD8KBhCjhImD04ZJgKILLgkZGHIAhkhgD4yAeUEAIAAAAAAAAAAQAAAAAAAAACAAAAAAAAAA==

> <PUBCHEM_IUPAC_OPENEYE_NAME>
3-(1,3-benzothiazol-2-yl)-N-methyl-N-(tetrahydrofuran-2-ylmethyl)propanamide

> <PUBCHEM_IUPAC_CAS_NAME>
3-(1,3-benzothiazol-2-yl)-N-methyl-N-(2-oxolanylmethyl)propanamide

> <PUBCHEM_IUPAC_NAME>
3-(1,3-benzothiazol-2-yl)-N-methyl-N-(oxolan-2-ylmethyl)propanamide

> <PUBCHEM_IUPAC_SYSTEMATIC_NAME>
3-(1,3-benzothiazol-2-yl)-N-methyl-N-(oxolan-2-ylmethyl)propanamide

> <PUBCHEM_IUPAC_TRADITIONAL_NAME>
3-(1,3-benzothiazol-2-yl)-N-methyl-N-(tetrahydrofurfuryl)propionamide

> <PUBCHEM_IUPAC_INCHI>
InChI=1S/C16H20N2O2S/c1-18(11-12-5-4-10-20-12)16(19)9-8-15-17-13-6-2-3-7-14(13)21-15/h2-3,6-7,12H,4-5,8-11H2,1H3

> <PUBCHEM_IUPAC_INCHIKEY>
VZKDZOBYOXFTEU-UHFFFAOYSA-N

> <PUBCHEM_XLOGP3_AA>
2.5

> <PUBCHEM_EXACT_MASS>
304.124549

> <PUBCHEM_MOLECULAR_FORMULA>
C16H20N2O2S

> <PUBCHEM_MOLECULAR_WEIGHT>
304.4072

> <PUBCHEM_OPENEYE_CAN_SMILES>
CN(CC1CCCO1)C(=O)CCC2=NC3=CC=CC=C3S2

> <PUBCHEM_OPENEYE_ISO_SMILES>
CN(CC1CCCO1)C(=O)CCC2=NC3=CC=CC=C3S2

> <PUBCHEM_CACTVS_TPSA>
70.7

> <PUBCHEM_MONOISOTOPIC_WEIGHT>
304.124549

> <PUBCHEM_TOTAL_CHARGE>
0

> <PUBCHEM_HEAVY_ATOM_COUNT>
21

> <PUBCHEM_ATOM_DEF_STEREO_COUNT>
0

> <PUBCHEM_ATOM_UDEF_STEREO_COUNT>
1

> <PUBCHEM_BOND_DEF_STEREO_COUNT>
0

> <PUBCHEM_BOND_UDEF_STEREO_COUNT>
0

> <PUBCHEM_ISOTOPIC_ATOM_COUNT>
0

> <PUBCHEM_COMPONENT_COUNT>
1

> <PUBCHEM_CACTVS_TAUTO_COUNT>
2

> <PUBCHEM_COORDINATE_TYPE>
1
5
255

> <PUBCHEM_BONDANNOTATIONS>
1  15  8
1  16  8
16  17  8
16  18  8
17  19  8
18  20  8
19  21  8
20  21  8
5  15  8
5  17  8
6  9  3

$$$$

