17395402
  -OEChem-06241222503D

 40 42  0     0  0  0  0  0  0999 V2000
   -1.3043   -1.1626    0.0361 S   0  0  0  0  0  0  0  0  0  0  0  0
   -6.5384   -0.9099   -0.0441 O   0  0  0  0  0  0  0  0  0  0  0  0
    3.8367   -1.5132   -0.0148 O   0  0  0  0  0  0  0  0  0  0  0  0
   -3.8108   -0.2446    0.0791 N   0  0  0  0  0  0  0  0  0  0  0  0
   -2.0171    1.3158    0.0738 N   0  0  0  0  0  0  0  0  0  0  0  0
    3.5628    0.8186   -0.0069 N   0  0  0  0  0  0  0  0  0  0  0  0
   -4.2726   -1.5551    0.5471 C   0  0  0  0  0  0  0  0  0  0  0  0
   -4.8355    0.8066    0.1050 C   0  0  0  0  0  0  0  0  0  0  0  0
   -5.5540   -1.9341   -0.1888 C   0  0  0  0  0  0  0  0  0  0  0  0
   -6.0832    0.3161   -0.6191 C   0  0  0  0  0  0  0  0  0  0  0  0
   -2.4737    0.0852    0.0653 C   0  0  0  0  0  0  0  0  0  0  0  0
   -0.0529    0.0236    0.0330 C   0  0  0  0  0  0  0  0  0  0  0  0
   -0.6300    1.2970    0.0547 C   0  0  0  0  0  0  0  0  0  0  0  0
    1.3391   -0.1594    0.0123 C   0  0  0  0  0  0  0  0  0  0  0  0
    2.1563    0.9740    0.0137 C   0  0  0  0  0  0  0  0  0  0  0  0
    0.2185    2.4255    0.0554 C   0  0  0  0  0  0  0  0  0  0  0  0
    1.6053    2.2506    0.0347 C   0  0  0  0  0  0  0  0  0  0  0  0
    5.7821   -0.0889   -0.0465 C   0  0  0  0  0  0  0  0  0  0  0  0
    6.6491   -1.3457   -0.0716 C   0  0  0  0  0  0  0  0  0  0  0  0
    4.2848   -0.3716   -0.0294 C   0  0  0  0  0  0  0  0  0  0  0  0
    8.1377   -1.0279   -0.0889 C   0  0  0  0  0  0  0  0  0  0  0  0
   -3.5646   -2.3730    0.3908 H   0  0  0  0  0  0  0  0  0  0  0  0
   -4.4708   -1.4877    1.6241 H   0  0  0  0  0  0  0  0  0  0  0  0
   -5.0727    1.0401    1.1500 H   0  0  0  0  0  0  0  0  0  0  0  0
   -4.4869    1.7262   -0.3787 H   0  0  0  0  0  0  0  0  0  0  0  0
   -5.3658   -2.1090   -1.2551 H   0  0  0  0  0  0  0  0  0  0  0  0
   -5.9672   -2.8567    0.2313 H   0  0  0  0  0  0  0  0  0  0  0  0
   -6.8872    1.0522   -0.5206 H   0  0  0  0  0  0  0  0  0  0  0  0
   -5.8946    0.1683   -1.6893 H   0  0  0  0  0  0  0  0  0  0  0  0
    1.7033   -1.1751   -0.0055 H   0  0  0  0  0  0  0  0  0  0  0  0
   -0.2014    3.4272    0.0719 H   0  0  0  0  0  0  0  0  0  0  0  0
    2.2449    3.1302    0.0356 H   0  0  0  0  0  0  0  0  0  0  0  0
    6.0245    0.5065    0.8423 H   0  0  0  0  0  0  0  0  0  0  0  0
    6.0006    0.5253   -0.9289 H   0  0  0  0  0  0  0  0  0  0  0  0
    4.0927    1.6877   -0.0085 H   0  0  0  0  0  0  0  0  0  0  0  0
    6.4002   -1.9478   -0.9538 H   0  0  0  0  0  0  0  0  0  0  0  0
    6.4250   -1.9661    0.8045 H   0  0  0  0  0  0  0  0  0  0  0  0
    8.4260   -0.4587    0.8004 H   0  0  0  0  0  0  0  0  0  0  0  0
    8.7229   -1.9525   -0.1067 H   0  0  0  0  0  0  0  0  0  0  0  0
    8.4014   -0.4404   -0.9741 H   0  0  0  0  0  0  0  0  0  0  0  0
  1 11  1  0  0  0  0
  1 12  1  0  0  0  0
  2  9  1  0  0  0  0
  2 10  1  0  0  0  0
  3 20  2  0  0  0  0
  4  7  1  0  0  0  0
  4  8  1  0  0  0  0
  4 11  1  0  0  0  0
  5 11  2  0  0  0  0
  5 13  1  0  0  0  0
  6 15  1  0  0  0  0
  6 20  1  0  0  0  0
  6 35  1  0  0  0  0
  7  9  1  0  0  0  0
  7 22  1  0  0  0  0
  7 23  1  0  0  0  0
  8 10  1  0  0  0  0
  8 24  1  0  0  0  0
  8 25  1  0  0  0  0
  9 26  1  0  0  0  0
  9 27  1  0  0  0  0
 10 28  1  0  0  0  0
 10 29  1  0  0  0  0
 12 13  2  0  0  0  0
 12 14  1  0  0  0  0
 13 16  1  0  0  0  0
 14 15  2  0  0  0  0
 14 30  1  0  0  0  0
 15 17  1  0  0  0  0
 16 17  2  0  0  0  0
 16 31  1  0  0  0  0
 17 32  1  0  0  0  0
 18 19  1  0  0  0  0
 18 20  1  0  0  0  0
 18 33  1  0  0  0  0
 18 34  1  0  0  0  0
 19 21  1  0  0  0  0
 19 36  1  0  0  0  0
 19 37  1  0  0  0  0
 21 38  1  0  0  0  0
 21 39  1  0  0  0  0
 21 40  1  0  0  0  0
M  END
> <PUBCHEM_COMPOUND_CID>
17395402

> <PUBCHEM_CONFORMER_RMSD>
0.8

> <PUBCHEM_CONFORMER_DIVERSEORDER>
1
17
3
16
7
11
18
6
14
10
9
2
4
15
13
12
8
5

> <PUBCHEM_MMFF94_PARTIAL_CHARGES>
23
1 -0.08
10 0.28
11 0.46
12 0.04
13 0.23
14 -0.15
15 0.12
16 -0.15
17 -0.15
18 0.06
2 -0.56
20 0.57
3 -0.57
30 0.15
31 0.15
32 0.15
35 0.37
4 -0.82
5 -0.57
6 -0.55
7 0.37
8 0.37
9 0.28

> <PUBCHEM_EFFECTIVE_ROTOR_COUNT>
6.2

> <PUBCHEM_PHARMACOPHORE_FEATURES>
8
1 2 acceptor
1 21 hydrophobe
1 3 acceptor
1 6 donor
3 4 5 11 cation
5 1 5 11 12 13 rings
6 12 13 14 15 16 17 rings
6 2 4 7 8 9 10 rings

> <PUBCHEM_HEAVY_ATOM_COUNT>
21

> <PUBCHEM_ATOM_DEF_STEREO_COUNT>
0

> <PUBCHEM_ATOM_UDEF_STEREO_COUNT>
0

> <PUBCHEM_BOND_DEF_STEREO_COUNT>
0

> <PUBCHEM_BOND_UDEF_STEREO_COUNT>
0

> <PUBCHEM_ISOTOPIC_ATOM_COUNT>
0

> <PUBCHEM_COMPONENT_COUNT>
1

> <PUBCHEM_CACTVS_TAUTO_COUNT>
2

> <PUBCHEM_CONFORMER_ID>
01096ECA00000001

> <PUBCHEM_MMFF94_ENERGY>
50.2608

> <PUBCHEM_FEATURE_SELFOVERLAP>
40.666

> <PUBCHEM_SHAPE_FINGERPRINT>
10 15 7420946478264607775
106641 1 14057010403535992822
11315181 36 18260545619726581393
11524674 6 16877663452487716503
11963148 33 18409736166488981526
12166972 35 17846494834095795276
12236239 1 18260265239629005288
12516196 113 18334296466114022480
12760667 363 18408885148323814729
12838862 33 18339099145852392250
13288520 33 18410855473176749933
13533116 47 18187084997249187520
13685833 64 18407759235969907114
13740256 8 18411980239069639250
13862211 1 18409165502250861510
13885169 127 18410856602616193597
13964095 4 17846221085422176493
14251752 14 17775292698067807876
14251764 18 18186800271213887224
15048467 5 9439404627262979662
15183329 4 18202006542589961923
15196674 1 18339079285802374217
15849732 13 18259987067788074798
15927050 60 17684934601276038228
16087824 20 18268148846235133197
17492 89 17979072687616153907
18006028 8 18333733528966466024
19784866 240 18410568483361966840
200 152 18113900438500251561
20028762 73 18186803539167840870
20374829 77 18413952788689260073
21150785 3 14333406727601069427
21236236 1 18336264651973361729
21267235 1 18410006641952914194
21682296 61 18334006216107948767
21709351 56 18343028761871364165
21792934 111 18334023795757426632
22224240 67 16515692143655994814
2297311 6 18261667173627686612
23035841 295 18342457053730533138
23198884 109 15410894084867994844
23402539 116 18334861614710735365
23522609 53 18122873565094657500
23559900 14 18339928091230078145
3004659 81 18131634474260766896
335352 9 18411983572697594693
4214541 1 18411419501942513441
4463277 17 18411700980628693920
465052 167 18261387824058362062
5104073 3 18188765046926839913
559249 180 18409449189779307807
6138700 20 18412825802182364179
636775 8 18340756097196764630
77188 2 18409166584968794344
9709674 26 18126564510434202091

> <PUBCHEM_SHAPE_MULTIPOLES>
409.34
18.4
2.07
0.64
14.39
0.59
0
-11.1
-1.38
-0.26
0.06
-0.18
-0.02
0.19

> <PUBCHEM_SHAPE_SELFOVERLAP>
851.788

> <PUBCHEM_SHAPE_VOLUME>
233.8

> <PUBCHEM_COORDINATE_TYPE>
2
5
10

$$$$

