5450
  -OEChem-06261200412D

 44 46  0     0  0  0  0  0  0999 V2000
    4.5981   -1.5194    0.0000 S   0  0  0  0  0  0  0  0  0  0  0  0
    3.7321   -0.0194    0.0000 N   0  0  0  0  0  0  0  0  0  0  0  0
    2.8660   -1.5194    0.0000 N   0  0  0  0  0  0  0  0  0  0  0  0
    2.9230    3.5684    0.0000 N   0  0  0  0  0  0  0  0  0  0  0  0
    4.2321    4.5194    0.0000 N   0  0  0  0  0  0  0  0  0  0  0  0
    3.7321    1.9806    0.0000 C   0  0  0  0  0  0  0  0  0  0  0  0
    4.5981    1.4806    0.0000 C   0  0  0  0  0  0  0  0  0  0  0  0
    2.8660    1.4806    0.0000 C   0  0  0  0  0  0  0  0  0  0  0  0
    2.8660   -2.5194    0.0000 C   0  0  0  0  0  0  0  0  0  0  0  0
    4.5981    0.4806    0.0000 C   0  0  0  0  0  0  0  0  0  0  0  0
    2.8660    0.4806    0.0000 C   0  0  0  0  0  0  0  0  0  0  0  0
    3.7321   -3.0194    0.0000 C   0  0  0  0  0  0  0  0  0  0  0  0
    2.0000   -3.0194    0.0000 C   0  0  0  0  0  0  0  0  0  0  0  0
    3.7321   -4.0194    0.0000 C   0  0  0  0  0  0  0  0  0  0  0  0
    2.0000   -4.0194    0.0000 C   0  0  0  0  0  0  0  0  0  0  0  0
    2.8660   -4.5194    0.0000 C   0  0  0  0  0  0  0  0  0  0  0  0
    3.7321    2.9806    0.0000 C   0  0  0  0  0  0  0  0  0  0  0  0
    3.7321   -1.0194    0.0000 C   0  0  0  0  0  0  0  0  0  0  0  0
    4.5411    3.5684    0.0000 C   0  0  0  0  0  0  0  0  0  0  0  0
    3.2321    4.5194    0.0000 C   0  0  0  0  0  0  0  0  0  0  0  0
    4.2690    2.2906    0.0000 H   0  0  0  0  0  0  0  0  0  0  0  0
    5.2087    1.3729    0.0000 H   0  0  0  0  0  0  0  0  0  0  0  0
    4.8101    2.0632    0.0000 H   0  0  0  0  0  0  0  0  0  0  0  0
    2.6540    2.0632    0.0000 H   0  0  0  0  0  0  0  0  0  0  0  0
    2.2554    1.3729    0.0000 H   0  0  0  0  0  0  0  0  0  0  0  0
    3.4030   -2.2094    0.0000 H   0  0  0  0  0  0  0  0  0  0  0  0
    4.8101   -0.1020    0.0000 H   0  0  0  0  0  0  0  0  0  0  0  0
    5.2087    0.5882    0.0000 H   0  0  0  0  0  0  0  0  0  0  0  0
    2.2554    0.5882    0.0000 H   0  0  0  0  0  0  0  0  0  0  0  0
    2.6540   -0.1020    0.0000 H   0  0  0  0  0  0  0  0  0  0  0  0
    4.3426   -3.1271    0.0000 H   0  0  0  0  0  0  0  0  0  0  0  0
    3.9441   -2.4368    0.0000 H   0  0  0  0  0  0  0  0  0  0  0  0
    1.7879   -2.4368    0.0000 H   0  0  0  0  0  0  0  0  0  0  0  0
    1.3894   -3.1271    0.0000 H   0  0  0  0  0  0  0  0  0  0  0  0
    3.9441   -4.6020    0.0000 H   0  0  0  0  0  0  0  0  0  0  0  0
    4.3426   -3.9118    0.0000 H   0  0  0  0  0  0  0  0  0  0  0  0
    1.3894   -3.9118    0.0000 H   0  0  0  0  0  0  0  0  0  0  0  0
    1.7879   -4.6020    0.0000 H   0  0  0  0  0  0  0  0  0  0  0  0
    2.4675   -4.9944    0.0000 H   0  0  0  0  0  0  0  0  0  0  0  0
    3.2646   -4.9944    0.0000 H   0  0  0  0  0  0  0  0  0  0  0  0
    2.3334    3.3768    0.0000 H   0  0  0  0  0  0  0  0  0  0  0  0
    5.1307    3.3768    0.0000 H   0  0  0  0  0  0  0  0  0  0  0  0
    5.1350   -1.2094    0.0000 H   0  0  0  0  0  0  0  0  0  0  0  0
    2.8676    5.0210    0.0000 H   0  0  0  0  0  0  0  0  0  0  0  0
  1 18  1  0  0  0  0
  1 43  1  0  0  0  0
  2 10  1  0  0  0  0
  2 11  1  0  0  0  0
  2 18  1  0  0  0  0
  3  9  1  0  0  0  0
  3 18  2  0  0  0  0
  4 17  1  0  0  0  0
  4 20  1  0  0  0  0
  4 41  1  0  0  0  0
  5 19  1  0  0  0  0
  5 20  2  0  0  0  0
  6  7  1  0  0  0  0
  6  8  1  0  0  0  0
  6 17  1  0  0  0  0
  6 21  1  0  0  0  0
  7 10  1  0  0  0  0
  7 22  1  0  0  0  0
  7 23  1  0  0  0  0
  8 11  1  0  0  0  0
  8 24  1  0  0  0  0
  8 25  1  0  0  0  0
  9 12  1  0  0  0  0
  9 13  1  0  0  0  0
  9 26  1  0  0  0  0
 10 27  1  0  0  0  0
 10 28  1  0  0  0  0
 11 29  1  0  0  0  0
 11 30  1  0  0  0  0
 12 14  1  0  0  0  0
 12 31  1  0  0  0  0
 12 32  1  0  0  0  0
 13 15  1  0  0  0  0
 13 33  1  0  0  0  0
 13 34  1  0  0  0  0
 14 16  1  0  0  0  0
 14 35  1  0  0  0  0
 14 36  1  0  0  0  0
 15 16  1  0  0  0  0
 15 37  1  0  0  0  0
 15 38  1  0  0  0  0
 16 39  1  0  0  0  0
 16 40  1  0  0  0  0
 17 19  2  0  0  0  0
 19 42  1  0  0  0  0
 20 44  1  0  0  0  0
M  END
> <PUBCHEM_COMPOUND_CID>
5450

> <PUBCHEM_COMPOUND_CANONICALIZED>
1

> <PUBCHEM_CACTVS_COMPLEXITY>
333

> <PUBCHEM_CACTVS_HBOND_ACCEPTOR>
3

> <PUBCHEM_CACTVS_HBOND_DONOR>
2

> <PUBCHEM_CACTVS_ROTATABLE_BOND>
3

> <PUBCHEM_CACTVS_SUBSKEYS>
AAADceBzgABAAAAAAAAAAAAAAAAAAWAAAAA8QAAAAAAAAAABgAAAHAQQAAAADSjBFgQtkBfJkASgARRnZAAAkC2xEqABUYA4cAiAaAJAmQCUAAAIkALAQCEQAAAKAAAAAAAAAAAAAAAAAAAAAAAAAAAAAA==

> <PUBCHEM_IUPAC_OPENEYE_NAME>
N-cyclohexyl-4-(1H-imidazol-5-yl)piperidine-1-carboximidothioic acid

> <PUBCHEM_IUPAC_CAS_NAME>
N-cyclohexyl-4-(1H-imidazol-5-yl)-1-piperidinecarboximidothioic acid

> <PUBCHEM_IUPAC_NAME>
N-cyclohexyl-4-(1H-imidazol-5-yl)piperidine-1-carboximidothioic acid

> <PUBCHEM_IUPAC_SYSTEMATIC_NAME>
N-cyclohexyl-4-(1H-imidazol-5-yl)piperidine-1-carboximidothioic acid

> <PUBCHEM_IUPAC_TRADITIONAL_NAME>
N-cyclohexyl-4-(1H-imidazol-5-yl)piperidine-1-carboximidothioic acid

> <PUBCHEM_IUPAC_INCHI>
InChI=1S/C15H24N4S/c20-15(18-13-4-2-1-3-5-13)19-8-6-12(7-9-19)14-10-16-11-17-14/h10-13H,1-9H2,(H,16,17)(H,18,20)

> <PUBCHEM_IUPAC_INCHIKEY>
QKDDJDBFONZGBW-UHFFFAOYSA-N

> <PUBCHEM_XLOGP3_AA>
2.6

> <PUBCHEM_EXACT_MASS>
292.172168

> <PUBCHEM_MOLECULAR_FORMULA>
C15H24N4S

> <PUBCHEM_MOLECULAR_WEIGHT>
292.44286

> <PUBCHEM_OPENEYE_CAN_SMILES>
C1CCC(CC1)N=C(N2CCC(CC2)C3=CN=CN3)S

> <PUBCHEM_OPENEYE_ISO_SMILES>
C1CCC(CC1)N=C(N2CCC(CC2)C3=CN=CN3)S

> <PUBCHEM_CACTVS_TPSA>
45.3

> <PUBCHEM_MONOISOTOPIC_WEIGHT>
292.172168

> <PUBCHEM_TOTAL_CHARGE>
0

> <PUBCHEM_HEAVY_ATOM_COUNT>
20

> <PUBCHEM_ATOM_DEF_STEREO_COUNT>
0

> <PUBCHEM_ATOM_UDEF_STEREO_COUNT>
0

> <PUBCHEM_BOND_DEF_STEREO_COUNT>
0

> <PUBCHEM_BOND_UDEF_STEREO_COUNT>
0

> <PUBCHEM_ISOTOPIC_ATOM_COUNT>
0

> <PUBCHEM_COMPONENT_COUNT>
1

> <PUBCHEM_CACTVS_TAUTO_COUNT>
4

> <PUBCHEM_COORDINATE_TYPE>
1
5
255

> <PUBCHEM_BONDANNOTATIONS>
17  19  8
4  17  8
4  20  8
5  19  8
5  20  8

$$$$

