6441
  -OEChem-06261201192D

 12 11  0     0  0  0  0  0  0999 V2000
    3.7690    0.5490    0.0000 F   0  0  0  0  0  0  0  0  0  0  0  0
    4.7690   -1.1830    0.0000 F   0  0  0  0  0  0  0  0  0  0  0  0
    6.0010   -0.3170    0.0000 F   0  0  0  0  0  0  0  0  0  0  0  0
    5.1350    1.1830    0.0000 F   0  0  0  0  0  0  0  0  0  0  0  0
    2.5369   -0.3170    0.0000 O   0  0  0  0  0  0  0  0  0  0  0  0
    4.2690   -0.3170    0.0000 C   0  0  0  0  0  0  0  0  0  0  0  0
    3.4030   -0.8170    0.0000 C   0  0  0  0  0  0  0  0  0  0  0  0
    5.1350    0.1830    0.0000 C   0  0  0  0  0  0  0  0  0  0  0  0
    3.0044   -1.2919    0.0000 H   0  0  0  0  0  0  0  0  0  0  0  0
    3.8015   -1.2919    0.0000 H   0  0  0  0  0  0  0  0  0  0  0  0
    5.1350   -0.4370    0.0000 H   0  0  0  0  0  0  0  0  0  0  0  0
    2.0000   -0.6270    0.0000 H   0  0  0  0  0  0  0  0  0  0  0  0
  1  6  1  0  0  0  0
  2  6  1  0  0  0  0
  3  8  1  0  0  0  0
  4  8  1  0  0  0  0
  5  7  1  0  0  0  0
  5 12  1  0  0  0  0
  6  7  1  0  0  0  0
  6  8  1  0  0  0  0
  7  9  1  0  0  0  0
  7 10  1  0  0  0  0
  8 11  1  0  0  0  0
M  END
> <PUBCHEM_COMPOUND_CID>
6441

> <PUBCHEM_COMPOUND_CANONICALIZED>
1

> <PUBCHEM_CACTVS_COMPLEXITY>
71.7

> <PUBCHEM_CACTVS_HBOND_ACCEPTOR>
5

> <PUBCHEM_CACTVS_HBOND_DONOR>
1

> <PUBCHEM_CACTVS_ROTATABLE_BOND>
2

> <PUBCHEM_CACTVS_SUBSKEYS>
AAADcYBAIcAAAAAAAAAAAAAAAAAAAAAAAAAAAAAAAAAAAAAAAAAAGwAACAAACACggBIAAAAAAgAAAAAAAAAAAAAAAAAAAAAAAAAAEAAAAAAAQAAAAAAAAAAAAAAAAAAAAAAAAAAAAAAAAAAAAAAAAAAAAA==

> <PUBCHEM_IUPAC_OPENEYE_NAME>
2,2,3,3-tetrafluoropropan-1-ol

> <PUBCHEM_IUPAC_CAS_NAME>
2,2,3,3-tetrafluoro-1-propanol

> <PUBCHEM_IUPAC_NAME>
2,2,3,3-tetrafluoropropan-1-ol

> <PUBCHEM_IUPAC_SYSTEMATIC_NAME>
2,2,3,3-tetrakis(fluoranyl)propan-1-ol

> <PUBCHEM_IUPAC_TRADITIONAL_NAME>
2,2,3,3-tetrafluoropropan-1-ol

> <PUBCHEM_IUPAC_INCHI>
InChI=1S/C3H4F4O/c4-2(5)3(6,7)1-8/h2,8H,1H2

> <PUBCHEM_IUPAC_INCHIKEY>
NBUKAOOFKZFCGD-UHFFFAOYSA-N

> <PUBCHEM_XLOGP3_AA>
1.1

> <PUBCHEM_EXACT_MASS>
132.019828

> <PUBCHEM_MOLECULAR_FORMULA>
C3H4F4O

> <PUBCHEM_MOLECULAR_WEIGHT>
132.056873

> <PUBCHEM_OPENEYE_CAN_SMILES>
C(C(C(F)F)(F)F)O

> <PUBCHEM_OPENEYE_ISO_SMILES>
C(C(C(F)F)(F)F)O

> <PUBCHEM_CACTVS_TPSA>
20.2

> <PUBCHEM_MONOISOTOPIC_WEIGHT>
132.019828

> <PUBCHEM_TOTAL_CHARGE>
0

> <PUBCHEM_HEAVY_ATOM_COUNT>
8

> <PUBCHEM_ATOM_DEF_STEREO_COUNT>
0

> <PUBCHEM_ATOM_UDEF_STEREO_COUNT>
0

> <PUBCHEM_BOND_DEF_STEREO_COUNT>
0

> <PUBCHEM_BOND_UDEF_STEREO_COUNT>
0

> <PUBCHEM_ISOTOPIC_ATOM_COUNT>
0

> <PUBCHEM_COMPONENT_COUNT>
1

> <PUBCHEM_CACTVS_TAUTO_COUNT>
1

> <PUBCHEM_COORDINATE_TYPE>
1
5
255

$$$$

