12203
  -OEChem-06261206393D

 31 30  0     0  0  0  0  0  0999 V2000
    1.7280   -1.4705   -0.0065 O   0  0  0  0  0  0  0  0  0  0  0  0
   -2.0966    0.5859   -0.0417 C   0  0  0  0  0  0  0  0  0  0  0  0
   -0.8259   -0.2696   -0.0306 C   0  0  0  0  0  0  0  0  0  0  0  0
   -3.3525   -0.2875   -0.0105 C   0  0  0  0  0  0  0  0  0  0  0  0
    0.4468    0.5759   -0.0334 C   0  0  0  0  0  0  0  0  0  0  0  0
   -4.6215    0.5642    0.0069 C   0  0  0  0  0  0  0  0  0  0  0  0
    1.7312   -0.2409   -0.0161 C   0  0  0  0  0  0  0  0  0  0  0  0
    3.0200    0.5689   -0.0089 C   0  0  0  0  0  0  0  0  0  0  0  0
    4.2869   -0.2831   -0.0041 C   0  0  0  0  0  0  0  0  0  0  0  0
   -5.8712   -0.2993    0.0720 C   0  0  0  0  0  0  0  0  0  0  0  0
    5.5549    0.5560    0.0729 C   0  0  0  0  0  0  0  0  0  0  0  0
   -2.1069    1.2166   -0.9388 H   0  0  0  0  0  0  0  0  0  0  0  0
   -2.0927    1.2563    0.8262 H   0  0  0  0  0  0  0  0  0  0  0  0
   -0.8240   -0.9345   -0.9034 H   0  0  0  0  0  0  0  0  0  0  0  0
   -0.8280   -0.9177    0.8548 H   0  0  0  0  0  0  0  0  0  0  0  0
   -3.3639   -0.9482   -0.8858 H   0  0  0  0  0  0  0  0  0  0  0  0
   -3.3302   -0.9295    0.8787 H   0  0  0  0  0  0  0  0  0  0  0  0
    0.4660    1.2067   -0.9294 H   0  0  0  0  0  0  0  0  0  0  0  0
    0.4559    1.2275    0.8476 H   0  0  0  0  0  0  0  0  0  0  0  0
   -4.6618    1.1903   -0.8920 H   0  0  0  0  0  0  0  0  0  0  0  0
   -4.6065    1.2380    0.8714 H   0  0  0  0  0  0  0  0  0  0  0  0
    3.0033    1.2067    0.8822 H   0  0  0  0  0  0  0  0  0  0  0  0
    3.0154    1.2142   -0.8947 H   0  0  0  0  0  0  0  0  0  0  0  0
    4.3175   -0.9026   -0.9084 H   0  0  0  0  0  0  0  0  0  0  0  0
    4.2649   -0.9738    0.8477 H   0  0  0  0  0  0  0  0  0  0  0  0
   -6.7666    0.3300    0.0820 H   0  0  0  0  0  0  0  0  0  0  0  0
   -5.8773   -0.9132    0.9783 H   0  0  0  0  0  0  0  0  0  0  0  0
   -5.9334   -0.9650   -0.7948 H   0  0  0  0  0  0  0  0  0  0  0  0
    5.5720    1.1553    0.9887 H   0  0  0  0  0  0  0  0  0  0  0  0
    6.4382   -0.0902    0.0719 H   0  0  0  0  0  0  0  0  0  0  0  0
    5.6269    1.2338   -0.7835 H   0  0  0  0  0  0  0  0  0  0  0  0
  1  7  2  0  0  0  0
  2  3  1  0  0  0  0
  2  4  1  0  0  0  0
  2 12  1  0  0  0  0
  2 13  1  0  0  0  0
  3  5  1  0  0  0  0
  3 14  1  0  0  0  0
  3 15  1  0  0  0  0
  4  6  1  0  0  0  0
  4 16  1  0  0  0  0
  4 17  1  0  0  0  0
  5  7  1  0  0  0  0
  5 18  1  0  0  0  0
  5 19  1  0  0  0  0
  6 10  1  0  0  0  0
  6 20  1  0  0  0  0
  6 21  1  0  0  0  0
  7  8  1  0  0  0  0
  8  9  1  0  0  0  0
  8 22  1  0  0  0  0
  8 23  1  0  0  0  0
  9 11  1  0  0  0  0
  9 24  1  0  0  0  0
  9 25  1  0  0  0  0
 10 26  1  0  0  0  0
 10 27  1  0  0  0  0
 10 28  1  0  0  0  0
 11 29  1  0  0  0  0
 11 30  1  0  0  0  0
 11 31  1  0  0  0  0
M  END
> <PUBCHEM_COMPOUND_CID>
12203

> <PUBCHEM_CONFORMER_RMSD>
0.8

> <PUBCHEM_CONFORMER_DIVERSEORDER>
1
155
90
122
183
53
109
164
18
5
184
63
59
185
2
174
115
82
133
40
180
125
20
182
105
9
17
186
181
8
146
178
156
68
112
142
108
187
94
158
32
176
12
39
24
74
48
99
177
3
148
83
35
171
70
81
66
160
75
60
135
28
127
65
4
87
179
79
123
6
117
188
27
114
161
10
11
149
25
47
110
19
150
120
97
175
44
13
139
121
52
15
43
107
67
78
73
96
49
102
172
166
16
36
138
167
137
119
152
162
77
144
124
113
111
71
170
23
147
41
76
136
169
30
14
145
50
104
51
34
64
95
22
132
57
37
86
168
69
157
38
141
26
165
131
33
54
56
129
55
29
159
128
116
89
45
62
80
100
84
106
163
151
31
88
91
93
46
7
103
58
173
85
21
98
140
143
42
61
154
118
134
126
153
101
130
92
72

> <PUBCHEM_MMFF94_PARTIAL_CHARGES>
4
1 -0.57
5 0.06
7 0.45
8 0.06

> <PUBCHEM_EFFECTIVE_ROTOR_COUNT>
7

> <PUBCHEM_PHARMACOPHORE_FEATURES>
4
1 1 acceptor
1 10 hydrophobe
1 11 hydrophobe
5 2 3 4 5 6 hydrophobe

> <PUBCHEM_HEAVY_ATOM_COUNT>
11

> <PUBCHEM_ATOM_DEF_STEREO_COUNT>
0

> <PUBCHEM_ATOM_UDEF_STEREO_COUNT>
0

> <PUBCHEM_BOND_DEF_STEREO_COUNT>
0

> <PUBCHEM_BOND_UDEF_STEREO_COUNT>
0

> <PUBCHEM_ISOTOPIC_ATOM_COUNT>
0

> <PUBCHEM_COMPONENT_COUNT>
1

> <PUBCHEM_CACTVS_TAUTO_COUNT>
3

> <PUBCHEM_CONFORMER_ID>
00002FAB00000001

> <PUBCHEM_MMFF94_ENERGY>
-1.6411

> <PUBCHEM_FEATURE_SELFOVERLAP>
20.297

> <PUBCHEM_SHAPE_FINGERPRINT>
11062470 55 18273495680188830281
114248 4 18411699889696158961
12815109 37 17917712405038439397
14123238 8 18131914862362675885
1420 363 18343014489278288219
14251718 22 18040716952839324055
17834072 33 17894916195994552285
17834076 25 18411136935110166697
187816 3 15213017146191625663
20279233 1 17703500065136925395
20645477 70 18263925595310888286
20719005 15 18411136943715958029
20767249 13 18060137639568697057
20767249 213 18273213071662695316
22485316 2 18202566194029832747
23402539 116 12391513062286849187
23402655 69 18334862757341010005
23557571 272 17203050780427852453
366044 4 18344146986007250643
42788 4 18410293614044801472
8209 1 18412545410080373757

> <PUBCHEM_SHAPE_MULTIPOLES>
220.51
13.28
0.94
0.61
4.05
0.14
0
-0.88
0.4
-0.26
0
0.01
-0.01
0.03

> <PUBCHEM_SHAPE_SELFOVERLAP>
394.664

> <PUBCHEM_SHAPE_VOLUME>
143.1

> <PUBCHEM_COORDINATE_TYPE>
2
5
10

$$$$

