10640
  -OEChem-06261204472D

 18 19  0     0  0  0  0  0  0999 V2000
    3.7320    2.0000    0.0000 O   0  0  0  0  0  0  0  0  0  0  0  0
    3.7320   -2.0000    0.0000 O   0  0  0  0  0  0  0  0  0  0  0  0
    2.0000    1.0000    0.0000 O   0  0  0  0  0  0  0  0  0  0  0  0
    2.8660   -0.5000    0.0000 N   0  0  0  0  0  0  0  0  0  0  0  0
    4.5981    0.5000    0.0000 C   0  0  0  0  0  0  0  0  0  0  0  0
    4.5981   -0.5000    0.0000 C   0  0  0  0  0  0  0  0  0  0  0  0
    3.7320    1.0000    0.0000 C   0  0  0  0  0  0  0  0  0  0  0  0
    3.7320   -1.0000    0.0000 C   0  0  0  0  0  0  0  0  0  0  0  0
    5.4920    1.0347    0.0000 C   0  0  0  0  0  0  0  0  0  0  0  0
    5.4920   -1.0347    0.0000 C   0  0  0  0  0  0  0  0  0  0  0  0
    2.8660    0.5000    0.0000 C   0  0  0  0  0  0  0  0  0  0  0  0
    6.3981    0.5208    0.0000 C   0  0  0  0  0  0  0  0  0  0  0  0
    6.3981   -0.5208    0.0000 C   0  0  0  0  0  0  0  0  0  0  0  0
    5.4848    1.6546    0.0000 H   0  0  0  0  0  0  0  0  0  0  0  0
    5.4848   -1.6546    0.0000 H   0  0  0  0  0  0  0  0  0  0  0  0
    2.3291   -0.8100    0.0000 H   0  0  0  0  0  0  0  0  0  0  0  0
    6.9338    0.8329    0.0000 H   0  0  0  0  0  0  0  0  0  0  0  0
    6.9338   -0.8329    0.0000 H   0  0  0  0  0  0  0  0  0  0  0  0
  1  7  2  0  0  0  0
  2  8  2  0  0  0  0
  3 11  2  0  0  0  0
  4  8  1  0  0  0  0
  4 11  1  0  0  0  0
  4 16  1  0  0  0  0
  5  6  1  0  0  0  0
  5  7  1  0  0  0  0
  5  9  2  0  0  0  0
  6  8  1  0  0  0  0
  6 10  2  0  0  0  0
  7 11  1  0  0  0  0
  9 12  1  0  0  0  0
  9 14  1  0  0  0  0
 10 13  1  0  0  0  0
 10 15  1  0  0  0  0
 12 13  2  0  0  0  0
 12 17  1  0  0  0  0
 13 18  1  0  0  0  0
M  END
> <PUBCHEM_COMPOUND_CID>
10640

> <PUBCHEM_COMPOUND_CANONICALIZED>
1

> <PUBCHEM_CACTVS_COMPLEXITY>
285

> <PUBCHEM_CACTVS_HBOND_ACCEPTOR>
3

> <PUBCHEM_CACTVS_HBOND_DONOR>
1

> <PUBCHEM_CACTVS_ROTATABLE_BOND>
0

> <PUBCHEM_CACTVS_SUBSKEYS>
AAADcYByMAAAAAAAAAAAAAAAAAAAAAAAAAA8QAAAAAAAAACxAAAAHgAQAAAADASBmAAwAILAAACIAqFSEACCAAAkAAAIiAGABMgIIDKAlTGEIQhghCCIiYcdi4COgAAAAAAQAAAAAAAAACAAAAAAAAAAAA==

> <PUBCHEM_IUPAC_OPENEYE_NAME>
isoquinoline-1,3,4-trione

> <PUBCHEM_IUPAC_CAS_NAME>
isoquinoline-1,3,4-trione

> <PUBCHEM_IUPAC_NAME>
isoquinoline-1,3,4-trione

> <PUBCHEM_IUPAC_SYSTEMATIC_NAME>
isoquinoline-1,3,4-trione

> <PUBCHEM_IUPAC_TRADITIONAL_NAME>
isoquinoline-1,3,4-trione

> <PUBCHEM_IUPAC_INCHI>
InChI=1S/C9H5NO3/c11-7-5-3-1-2-4-6(5)8(12)10-9(7)13/h1-4H,(H,10,12,13)

> <PUBCHEM_IUPAC_INCHIKEY>
YIOFGHHAURBGSJ-UHFFFAOYSA-N

> <PUBCHEM_XLOGP3>
1

> <PUBCHEM_EXACT_MASS>
175.026943

> <PUBCHEM_MOLECULAR_FORMULA>
C9H5NO3

> <PUBCHEM_MOLECULAR_WEIGHT>
175.1409

> <PUBCHEM_OPENEYE_CAN_SMILES>
C1=CC=C2C(=C1)C(=O)C(=O)NC2=O

> <PUBCHEM_OPENEYE_ISO_SMILES>
C1=CC=C2C(=C1)C(=O)C(=O)NC2=O

> <PUBCHEM_CACTVS_TPSA>
63.2

> <PUBCHEM_MONOISOTOPIC_WEIGHT>
175.026943

> <PUBCHEM_TOTAL_CHARGE>
0

> <PUBCHEM_HEAVY_ATOM_COUNT>
13

> <PUBCHEM_ATOM_DEF_STEREO_COUNT>
0

> <PUBCHEM_ATOM_UDEF_STEREO_COUNT>
0

> <PUBCHEM_BOND_DEF_STEREO_COUNT>
0

> <PUBCHEM_BOND_UDEF_STEREO_COUNT>
0

> <PUBCHEM_ISOTOPIC_ATOM_COUNT>
0

> <PUBCHEM_COMPONENT_COUNT>
1

> <PUBCHEM_CACTVS_TAUTO_COUNT>
3

> <PUBCHEM_COORDINATE_TYPE>
1
5
255

> <PUBCHEM_BONDANNOTATIONS>
10  13  8
12  13  8
5  6  8
5  9  8
6  10  8
9  12  8

$$$$

