8105
  -OEChem-06261202353D

 19 18  0     0  0  0  0  0  0999 V2000
   -3.6601    0.3736    0.0070 O   0  0  0  0  0  0  0  0  0  0  0  0
    3.6710    0.3673    0.0144 O   0  0  0  0  0  0  0  0  0  0  0  0
   -0.0058   -0.5009   -0.0032 C   0  0  0  0  0  0  0  0  0  0  0  0
   -1.2658    0.3624   -0.0239 C   0  0  0  0  0  0  0  0  0  0  0  0
    1.2593    0.3622    0.0023 C   0  0  0  0  0  0  0  0  0  0  0  0
   -2.5289   -0.4861    0.0136 C   0  0  0  0  0  0  0  0  0  0  0  0
    2.5303   -0.4784   -0.0103 C   0  0  0  0  0  0  0  0  0  0  0  0
    0.0023   -1.1598   -0.8799 H   0  0  0  0  0  0  0  0  0  0  0  0
   -0.0122   -1.1435    0.8855 H   0  0  0  0  0  0  0  0  0  0  0  0
   -1.2750    0.9952   -0.9202 H   0  0  0  0  0  0  0  0  0  0  0  0
   -1.2677    1.0518    0.8297 H   0  0  0  0  0  0  0  0  0  0  0  0
    1.2665    1.0159    0.8835 H   0  0  0  0  0  0  0  0  0  0  0  0
    1.2605    1.0322   -0.8666 H   0  0  0  0  0  0  0  0  0  0  0  0
   -2.5681   -1.0926    0.9236 H   0  0  0  0  0  0  0  0  0  0  0  0
   -2.5912   -1.1539   -0.8515 H   0  0  0  0  0  0  0  0  0  0  0  0
    2.5737   -1.1296    0.8682 H   0  0  0  0  0  0  0  0  0  0  0  0
    2.5825   -1.1066   -0.9053 H   0  0  0  0  0  0  0  0  0  0  0  0
   -3.6339    0.8873   -0.8182 H   0  0  0  0  0  0  0  0  0  0  0  0
    3.6341    0.9325   -0.7760 H   0  0  0  0  0  0  0  0  0  0  0  0
  1  6  1  0  0  0  0
  1 18  1  0  0  0  0
  2  7  1  0  0  0  0
  2 19  1  0  0  0  0
  3  4  1  0  0  0  0
  3  5  1  0  0  0  0
  3  8  1  0  0  0  0
  3  9  1  0  0  0  0
  4  6  1  0  0  0  0
  4 10  1  0  0  0  0
  4 11  1  0  0  0  0
  5  7  1  0  0  0  0
  5 12  1  0  0  0  0
  5 13  1  0  0  0  0
  6 14  1  0  0  0  0
  6 15  1  0  0  0  0
  7 16  1  0  0  0  0
  7 17  1  0  0  0  0
M  END
> <PUBCHEM_COMPOUND_CID>
8105

> <PUBCHEM_CONFORMER_RMSD>
0.6

> <PUBCHEM_CONFORMER_DIVERSEORDER>
1
22
16
11
19
5
20
2
15
17
7
21
4
6
3
9
8
10
12
14
18
13

> <PUBCHEM_MMFF94_PARTIAL_CHARGES>
6
1 -0.68
18 0.4
19 0.4
2 -0.68
6 0.28
7 0.28

> <PUBCHEM_EFFECTIVE_ROTOR_COUNT>
4

> <PUBCHEM_PHARMACOPHORE_FEATURES>
4
1 1 acceptor
1 1 donor
1 2 acceptor
1 2 donor

> <PUBCHEM_HEAVY_ATOM_COUNT>
7

> <PUBCHEM_ATOM_DEF_STEREO_COUNT>
0

> <PUBCHEM_ATOM_UDEF_STEREO_COUNT>
0

> <PUBCHEM_BOND_DEF_STEREO_COUNT>
0

> <PUBCHEM_BOND_UDEF_STEREO_COUNT>
0

> <PUBCHEM_ISOTOPIC_ATOM_COUNT>
0

> <PUBCHEM_COMPONENT_COUNT>
1

> <PUBCHEM_CACTVS_TAUTO_COUNT>
1

> <PUBCHEM_CONFORMER_ID>
00001FA900000001

> <PUBCHEM_MMFF94_ENERGY>
1.2363

> <PUBCHEM_FEATURE_SELFOVERLAP>
20.297

> <PUBCHEM_SHAPE_FINGERPRINT>
11062470 55 18410573985151470625
14325111 11 18410573989451875086
14390081 3 18409169921761679105
5460574 1 9223231845006673606

> <PUBCHEM_SHAPE_MULTIPOLES>
132.32
6.06
0.77
0.59
0.06
0.04
0
-0.5
-0.04
-0.01
0
0
0.01
0.01

> <PUBCHEM_SHAPE_SELFOVERLAP>
227.871

> <PUBCHEM_SHAPE_VOLUME>
88.5

> <PUBCHEM_COORDINATE_TYPE>
2
5
10

$$$$

