5889
  -OEChem-06261200573D

 36 40  0     0  0  0  0  0  0999 V2000
    1.4395   -0.1801   -0.0002 C   0  0  0  0  0  0  0  0  0  0  0  0
   -1.4395    0.1802   -0.0006 C   0  0  0  0  0  0  0  0  0  0  0  0
    0.8652    1.1086   -0.0006 C   0  0  0  0  0  0  0  0  0  0  0  0
   -0.8652   -1.1084   -0.0007 C   0  0  0  0  0  0  0  0  0  0  0  0
    2.8747   -0.3149    0.0001 C   0  0  0  0  0  0  0  0  0  0  0  0
   -2.8747    0.3150   -0.0002 C   0  0  0  0  0  0  0  0  0  0  0  0
    0.5350   -1.2679   -0.0006 C   0  0  0  0  0  0  0  0  0  0  0  0
   -0.5351    1.2681   -0.0008 C   0  0  0  0  0  0  0  0  0  0  0  0
    3.6793    0.8540    0.0002 C   0  0  0  0  0  0  0  0  0  0  0  0
   -3.6792   -0.8539   -0.0001 C   0  0  0  0  0  0  0  0  0  0  0  0
    1.6903    2.2376   -0.0008 C   0  0  0  0  0  0  0  0  0  0  0  0
   -1.6903   -2.2376   -0.0008 C   0  0  0  0  0  0  0  0  0  0  0  0
    3.0756    2.1131   -0.0003 C   0  0  0  0  0  0  0  0  0  0  0  0
   -3.0755   -2.1130   -0.0003 C   0  0  0  0  0  0  0  0  0  0  0  0
    3.5591   -1.5565    0.0006 C   0  0  0  0  0  0  0  0  0  0  0  0
   -3.5591    1.5565    0.0003 C   0  0  0  0  0  0  0  0  0  0  0  0
    5.0815    0.7587    0.0006 C   0  0  0  0  0  0  0  0  0  0  0  0
   -5.0815   -0.7588    0.0006 C   0  0  0  0  0  0  0  0  0  0  0  0
    4.9543   -1.6378    0.0009 C   0  0  0  0  0  0  0  0  0  0  0  0
   -4.9544    1.6377    0.0010 C   0  0  0  0  0  0  0  0  0  0  0  0
    5.7158   -0.4796    0.0008 C   0  0  0  0  0  0  0  0  0  0  0  0
   -5.7158    0.4794    0.0012 C   0  0  0  0  0  0  0  0  0  0  0  0
    0.9217   -2.2862   -0.0005 H   0  0  0  0  0  0  0  0  0  0  0  0
   -0.9217    2.2863   -0.0009 H   0  0  0  0  0  0  0  0  0  0  0  0
    1.2615    3.2383   -0.0012 H   0  0  0  0  0  0  0  0  0  0  0  0
   -1.2615   -3.2381   -0.0009 H   0  0  0  0  0  0  0  0  0  0  0  0
    3.6784    3.0194   -0.0003 H   0  0  0  0  0  0  0  0  0  0  0  0
   -3.6783   -3.0192   -0.0002 H   0  0  0  0  0  0  0  0  0  0  0  0
    3.0156   -2.4979    0.0007 H   0  0  0  0  0  0  0  0  0  0  0  0
   -3.0158    2.4979    0.0003 H   0  0  0  0  0  0  0  0  0  0  0  0
    5.6970    1.6566    0.0006 H   0  0  0  0  0  0  0  0  0  0  0  0
   -5.6969   -1.6568    0.0008 H   0  0  0  0  0  0  0  0  0  0  0  0
    5.4402   -2.6093    0.0012 H   0  0  0  0  0  0  0  0  0  0  0  0
   -5.4404    2.6090    0.0015 H   0  0  0  0  0  0  0  0  0  0  0  0
    6.8000   -0.5375    0.0010 H   0  0  0  0  0  0  0  0  0  0  0  0
   -6.8000    0.5372    0.0019 H   0  0  0  0  0  0  0  0  0  0  0  0
  1  3  2  0  0  0  0
  1  5  1  0  0  0  0
  1  7  1  0  0  0  0
  2  4  1  0  0  0  0
  2  6  1  0  0  0  0
  2  8  2  0  0  0  0
  3  8  1  0  0  0  0
  3 11  1  0  0  0  0
  4  7  2  0  0  0  0
  4 12  1  0  0  0  0
  5  9  1  0  0  0  0
  5 15  2  0  0  0  0
  6 10  1  0  0  0  0
  6 16  2  0  0  0  0
  7 23  1  0  0  0  0
  8 24  1  0  0  0  0
  9 13  1  0  0  0  0
  9 17  2  0  0  0  0
 10 14  1  0  0  0  0
 10 18  2  0  0  0  0
 11 13  2  0  0  0  0
 11 25  1  0  0  0  0
 12 14  2  0  0  0  0
 12 26  1  0  0  0  0
 13 27  1  0  0  0  0
 14 28  1  0  0  0  0
 15 19  1  0  0  0  0
 15 29  1  0  0  0  0
 16 20  1  0  0  0  0
 16 30  1  0  0  0  0
 17 21  1  0  0  0  0
 17 31  1  0  0  0  0
 18 22  1  0  0  0  0
 18 32  1  0  0  0  0
 19 21  2  0  0  0  0
 19 33  1  0  0  0  0
 20 22  2  0  0  0  0
 20 34  1  0  0  0  0
 21 35  1  0  0  0  0
 22 36  1  0  0  0  0
M  END
> <PUBCHEM_COMPOUND_CID>
5889

> <PUBCHEM_CONFORMER_RMSD>
0.6

> <PUBCHEM_CONFORMER_DIVERSEORDER>
1

> <PUBCHEM_MMFF94_PARTIAL_CHARGES>
28
11 -0.15
12 -0.15
13 -0.15
14 -0.15
15 -0.15
16 -0.15
17 -0.15
18 -0.15
19 -0.15
20 -0.15
21 -0.15
22 -0.15
23 0.15
24 0.15
25 0.15
26 0.15
27 0.15
28 0.15
29 0.15
30 0.15
31 0.15
32 0.15
33 0.15
34 0.15
35 0.15
36 0.15
7 -0.15
8 -0.15

> <PUBCHEM_EFFECTIVE_ROTOR_COUNT>
0

> <PUBCHEM_PHARMACOPHORE_FEATURES>
5
6 1 2 3 4 7 8 rings
6 1 3 5 9 11 13 rings
6 2 4 6 10 12 14 rings
6 5 9 15 17 19 21 rings
6 6 10 16 18 20 22 rings

> <PUBCHEM_HEAVY_ATOM_COUNT>
22

> <PUBCHEM_ATOM_DEF_STEREO_COUNT>
0

> <PUBCHEM_ATOM_UDEF_STEREO_COUNT>
0

> <PUBCHEM_BOND_DEF_STEREO_COUNT>
0

> <PUBCHEM_BOND_UDEF_STEREO_COUNT>
0

> <PUBCHEM_ISOTOPIC_ATOM_COUNT>
0

> <PUBCHEM_COMPONENT_COUNT>
1

> <PUBCHEM_CACTVS_TAUTO_COUNT>
1

> <PUBCHEM_CONFORMER_ID>
0000170100000001

> <PUBCHEM_MMFF94_ENERGY>
81.9809

> <PUBCHEM_FEATURE_SELFOVERLAP>
25.466

> <PUBCHEM_SHAPE_FINGERPRINT>
10411042 1 17474106982913555979
10616163 171 18337107839441112182
10906281 52 18262779852744126630
11405975 8 18410855430063391057
11578080 2 17025171630530703930
12107183 9 17762055840673569856
12236239 1 18410573989446418465
12403259 415 18272661155369851749
12788726 201 17821998848294027456
13140716 1 18410856529575018745
13167823 11 18411702058354177459
13402501 40 18410575110432882903
13533116 47 17676205823054701170
13862211 1 18410859884002817258
14341114 176 18410849958333253369
14790565 3 18411977000675230761
14866123 147 17396691455853960386
15042514 8 18196086647928629051
15099037 51 18410855485903246847
15183329 4 18410855481602998285
15196674 1 18410856538164953093
15256400 18 18410292531771201589
15442244 35 18410573981051773120
15536298 74 18336265652504958736
15788980 27 18272086093317998385
1601671 61 18410012152332618998
16087824 20 18267583692314571005
17349148 13 17894909637447602881
17492 89 18196370312589535411
17844677 252 18339353085355820993
1813 80 17060340712694373468
18681886 176 18260835869326732986
19141452 34 18410575071778372119
19591789 44 18268712877548615197
200 152 17967816041798727155
21033648 29 17917165952149893757
21033650 10 16082463683737707872
21065198 57 18338516322394046512
21133410 127 17770512945346413453
21133410 171 17110219924798984254
21236236 1 18408323268535038639
21267235 1 18411410700694726419
21279426 13 18266740366541586903
21421861 104 17917161614575576066
21859007 373 17914922999715936061
221490 88 18269267959470175026
23402539 116 18259991474387506061
23559900 14 18334862684310878232
3004659 81 18343862243351354534
335352 9 18410575114727850429
34797466 226 17385716955472156900
34934 24 18410016516214719946
350125 39 18411980277983288485
3545911 37 18408884027226665064
3680242 22 18271529818250547626
4017518 198 17240479230866142662
404807 14 16669626214585299094
4073 2 18059288756673833818
4214541 1 18410573981120351365
460360 51 18193531532310907619
495365 180 17386017126409650992
5104073 3 18410855434358358937
543358 83 18412543219610168538
559249 180 18411422838224825674
6138700 20 18339640169824096898
6328613 192 18342449319001225228
633830 44 17489309629178158880
7226269 152 17894628205858786089
77779 3 18411699846403588099
9709674 26 18268989778359106811
9981440 41 17333087521175251552
9996256 80 18408884002190435115

> <PUBCHEM_SHAPE_MULTIPOLES>
452.75
12.7
2.35
0.62
0
0
0
0
-0.01
0
0
0
0
0

> <PUBCHEM_SHAPE_SELFOVERLAP>
1052.041

> <PUBCHEM_SHAPE_VOLUME>
208.7

> <PUBCHEM_COORDINATE_TYPE>
2
5
10

$$$$

