11784
  -OEChem-06261206073D

 15 15  0     0  0  0  0  0  0999 V2000
   -3.0298    1.3412    0.0004 Cl  0  0  0  0  0  0  0  0  0  0  0  0
   -0.1154    2.0015    0.0003 O   0  0  0  0  0  0  0  0  0  0  0  0
    2.9160   -0.6948    0.0006 O   0  5  0  0  0  0  0  0  0  0  0  0
    2.2532    1.3981   -0.0005 O   0  0  0  0  0  0  0  0  0  0  0  0
    2.0071    0.1687    0.0001 N   0  3  0  0  0  0  0  0  0  0  0  0
    0.6512   -0.2607   -0.0002 C   0  0  0  0  0  0  0  0  0  0  0  0
   -0.3928    0.6644   -0.0003 C   0  0  0  0  0  0  0  0  0  0  0  0
    0.3722   -1.6274   -0.0001 C   0  0  0  0  0  0  0  0  0  0  0  0
   -1.7160    0.2225   -0.0002 C   0  0  0  0  0  0  0  0  0  0  0  0
   -0.9508   -2.0692    0.0000 C   0  0  0  0  0  0  0  0  0  0  0  0
   -1.9948   -1.1442   -0.0001 C   0  0  0  0  0  0  0  0  0  0  0  0
    1.1572   -2.3794    0.0001 H   0  0  0  0  0  0  0  0  0  0  0  0
   -1.1685   -3.1333    0.0002 H   0  0  0  0  0  0  0  0  0  0  0  0
   -3.0205   -1.5046    0.0001 H   0  0  0  0  0  0  0  0  0  0  0  0
   -0.9568    2.4897    0.0004 H   0  0  0  0  0  0  0  0  0  0  0  0
  1  9  1  0  0  0  0
  2  7  1  0  0  0  0
  2 15  1  0  0  0  0
  3  5  1  0  0  0  0
  4  5  2  0  0  0  0
  5  6  1  0  0  0  0
  6  7  2  0  0  0  0
  6  8  1  0  0  0  0
  7  9  1  0  0  0  0
  8 10  2  0  0  0  0
  8 12  1  0  0  0  0
  9 11  2  0  0  0  0
 10 11  1  0  0  0  0
 10 13  1  0  0  0  0
 11 14  1  0  0  0  0
M  CHG  2   3  -1   5   1
M  END
> <PUBCHEM_COMPOUND_CID>
11784

> <PUBCHEM_CONFORMER_RMSD>
0.4

> <PUBCHEM_CONFORMER_DIVERSEORDER>
1

> <PUBCHEM_MMFF94_PARTIAL_CHARGES>
15
1 -0.18
10 -0.15
11 -0.15
12 0.15
13 0.15
14 0.15
15 0.45
2 -0.53
3 -0.52
4 -0.52
5 0.91
6 0.13
7 0.08
8 -0.15
9 0.18

> <PUBCHEM_EFFECTIVE_ROTOR_COUNT>
1

> <PUBCHEM_PHARMACOPHORE_FEATURES>
5
1 2 donor
1 3 acceptor
1 3 anion
1 4 acceptor
6 6 7 8 9 10 11 rings

> <PUBCHEM_HEAVY_ATOM_COUNT>
11

> <PUBCHEM_ATOM_DEF_STEREO_COUNT>
0

> <PUBCHEM_ATOM_UDEF_STEREO_COUNT>
0

> <PUBCHEM_BOND_DEF_STEREO_COUNT>
0

> <PUBCHEM_BOND_UDEF_STEREO_COUNT>
0

> <PUBCHEM_ISOTOPIC_ATOM_COUNT>
0

> <PUBCHEM_COMPONENT_COUNT>
1

> <PUBCHEM_CACTVS_TAUTO_COUNT>
4

> <PUBCHEM_CONFORMER_ID>
00002E0800000001

> <PUBCHEM_MMFF94_ENERGY>
32.2069

> <PUBCHEM_FEATURE_SELFOVERLAP>
25.453

> <PUBCHEM_SHAPE_FINGERPRINT>
12423570 1 10991982631219827711
13380535 76 18338519763053533023
14325111 11 18410856555365999233
16945 1 18266459991113511271
193761 8 18050568435153262501
19973954 147 18267020553107314036
20871998 184 18116427042605414063
21040471 1 18410856572672488455
23235685 24 18338523057076943853
23402655 69 18049177841435461749
23552423 10 18200593584159467318
23559900 14 18334007312294748124
241688 4 16536515025047764659
2748010 2 18410291376324512463
369184 2 18336265639314251130
5084963 1 18114461141584520339
528886 8 18337960094286009139

> <PUBCHEM_SHAPE_MULTIPOLES>
205.66
3.68
2.12
0.59
0.44
0.26
0
-1.12
0
-0.42
0
-0.08
0.03
0

> <PUBCHEM_SHAPE_SELFOVERLAP>
426.177

> <PUBCHEM_SHAPE_VOLUME>
118.5

> <PUBCHEM_COORDINATE_TYPE>
2
5
10

$$$$

