12957
  -OEChem-06261207353D

 18 17  0     0  0  0  0  0  0999 V2000
    1.5260   -1.1541   -0.0003 O   0  0  0  0  0  0  0  0  0  0  0  0
    1.5759    1.1301    0.0005 N   0  0  0  0  0  0  0  0  0  0  0  0
   -0.6158    0.0122    0.0000 C   0  0  0  0  0  0  0  0  0  0  0  0
   -1.0946    0.7644   -1.2506 C   0  0  0  0  0  0  0  0  0  0  0  0
   -1.2148   -1.4052   -0.0172 C   0  0  0  0  0  0  0  0  0  0  0  0
   -1.0978    0.7349    1.2669 C   0  0  0  0  0  0  0  0  0  0  0  0
    0.9212   -0.0823    0.0007 C   0  0  0  0  0  0  0  0  0  0  0  0
   -0.7008    0.3008   -2.1624 H   0  0  0  0  0  0  0  0  0  0  0  0
   -2.1885    0.7645   -1.3177 H   0  0  0  0  0  0  0  0  0  0  0  0
   -0.7680    1.8099   -1.2503 H   0  0  0  0  0  0  0  0  0  0  0  0
   -0.8950   -1.9606   -0.9065 H   0  0  0  0  0  0  0  0  0  0  0  0
   -0.8984   -1.9811    0.8603 H   0  0  0  0  0  0  0  0  0  0  0  0
   -2.3102   -1.3750   -0.0188 H   0  0  0  0  0  0  0  0  0  0  0  0
   -0.7641    1.7779    1.2947 H   0  0  0  0  0  0  0  0  0  0  0  0
   -0.7114    0.2460    2.1687 H   0  0  0  0  0  0  0  0  0  0  0  0
   -2.1919    0.7397    1.3280 H   0  0  0  0  0  0  0  0  0  0  0  0
    2.5897    1.1709    0.0001 H   0  0  0  0  0  0  0  0  0  0  0  0
    1.0895    2.0202    0.0037 H   0  0  0  0  0  0  0  0  0  0  0  0
  1  7  2  0  0  0  0
  2  7  1  0  0  0  0
  2 17  1  0  0  0  0
  2 18  1  0  0  0  0
  3  4  1  0  0  0  0
  3  5  1  0  0  0  0
  3  6  1  0  0  0  0
  3  7  1  0  0  0  0
  4  8  1  0  0  0  0
  4  9  1  0  0  0  0
  4 10  1  0  0  0  0
  5 11  1  0  0  0  0
  5 12  1  0  0  0  0
  5 13  1  0  0  0  0
  6 14  1  0  0  0  0
  6 15  1  0  0  0  0
  6 16  1  0  0  0  0
M  END
> <PUBCHEM_COMPOUND_CID>
12957

> <PUBCHEM_CONFORMER_RMSD>
0.4

> <PUBCHEM_CONFORMER_DIVERSEORDER>
1
2

> <PUBCHEM_MMFF94_PARTIAL_CHARGES>
6
1 -0.57
17 0.37
18 0.37
2 -0.8
3 0.06
7 0.57

> <PUBCHEM_EFFECTIVE_ROTOR_COUNT>
1

> <PUBCHEM_PHARMACOPHORE_FEATURES>
3
1 1 acceptor
1 2 donor
4 3 4 5 6 hydrophobe

> <PUBCHEM_HEAVY_ATOM_COUNT>
7

> <PUBCHEM_ATOM_DEF_STEREO_COUNT>
0

> <PUBCHEM_ATOM_UDEF_STEREO_COUNT>
0

> <PUBCHEM_BOND_DEF_STEREO_COUNT>
0

> <PUBCHEM_BOND_UDEF_STEREO_COUNT>
0

> <PUBCHEM_ISOTOPIC_ATOM_COUNT>
0

> <PUBCHEM_COMPONENT_COUNT>
1

> <PUBCHEM_CACTVS_TAUTO_COUNT>
2

> <PUBCHEM_CONFORMER_ID>
0000329D00000001

> <PUBCHEM_MMFF94_ENERGY>
16.7058

> <PUBCHEM_FEATURE_SELFOVERLAP>
15.223

> <PUBCHEM_SHAPE_FINGERPRINT>
137420 1 9976163655180276721
20096714 4 18115289185467096472
21040471 1 18339927120377259597
24536 1 18113903783694167146
29004967 10 17558265423784106515
5943 1 15187478854106100325

> <PUBCHEM_SHAPE_MULTIPOLES>
133.21
1.91
1.37
1.08
0.62
0.31
-0.01
0.04
0
-0.05
0.01
-0.51
-0.38
0

> <PUBCHEM_SHAPE_SELFOVERLAP>
246.487

> <PUBCHEM_SHAPE_VOLUME>
85.5

> <PUBCHEM_COORDINATE_TYPE>
2
5
10

$$$$

