12502
  -OEChem-06261207012D

 19 19  0     0  0  0  0  0  0999 V2000
    3.7321    2.0950    0.0000 S   0  0  0  0  0  0  0  0  0  0  0  0
    2.8660    0.5950    0.0000 N   0  0  0  0  0  0  0  0  0  0  0  0
    2.8660   -0.4050    0.0000 C   0  0  0  0  0  0  0  0  0  0  0  0
    3.7321   -0.9050    0.0000 C   0  0  0  0  0  0  0  0  0  0  0  0
    2.0000   -0.9050    0.0000 C   0  0  0  0  0  0  0  0  0  0  0  0
    3.7321   -1.9050    0.0000 C   0  0  0  0  0  0  0  0  0  0  0  0
    2.0000   -1.9050    0.0000 C   0  0  0  0  0  0  0  0  0  0  0  0
    2.8660   -2.4050    0.0000 C   0  0  0  0  0  0  0  0  0  0  0  0
    3.7321    1.0950    0.0000 C   0  0  0  0  0  0  0  0  0  0  0  0
    4.5981    0.5950    0.0000 C   0  0  0  0  0  0  0  0  0  0  0  0
    4.2690   -0.5950    0.0000 H   0  0  0  0  0  0  0  0  0  0  0  0
    1.4631   -0.5950    0.0000 H   0  0  0  0  0  0  0  0  0  0  0  0
    4.2690   -2.2150    0.0000 H   0  0  0  0  0  0  0  0  0  0  0  0
    1.4631   -2.2150    0.0000 H   0  0  0  0  0  0  0  0  0  0  0  0
    2.8660   -3.0250    0.0000 H   0  0  0  0  0  0  0  0  0  0  0  0
    4.2881    0.0581    0.0000 H   0  0  0  0  0  0  0  0  0  0  0  0
    5.1350    0.2850    0.0000 H   0  0  0  0  0  0  0  0  0  0  0  0
    4.9081    1.1319    0.0000 H   0  0  0  0  0  0  0  0  0  0  0  0
    4.2690    2.4050    0.0000 H   0  0  0  0  0  0  0  0  0  0  0  0
  1  9  1  0  0  0  0
  1 19  1  0  0  0  0
  2  3  1  0  0  0  0
  2  9  2  0  0  0  0
  3  4  2  0  0  0  0
  3  5  1  0  0  0  0
  4  6  1  0  0  0  0
  4 11  1  0  0  0  0
  5  7  2  0  0  0  0
  5 12  1  0  0  0  0
  6  8  2  0  0  0  0
  6 13  1  0  0  0  0
  7  8  1  0  0  0  0
  7 14  1  0  0  0  0
  8 15  1  0  0  0  0
  9 10  1  0  0  0  0
 10 16  1  0  0  0  0
 10 17  1  0  0  0  0
 10 18  1  0  0  0  0
M  END
> <PUBCHEM_COMPOUND_CID>
12502

> <PUBCHEM_COMPOUND_CANONICALIZED>
1

> <PUBCHEM_CACTVS_COMPLEXITY>
125

> <PUBCHEM_CACTVS_HBOND_ACCEPTOR>
2

> <PUBCHEM_CACTVS_HBOND_DONOR>
1

> <PUBCHEM_CACTVS_ROTATABLE_BOND>
1

> <PUBCHEM_CACTVS_SUBSKEYS>
AAADccByAABAAAAAAAAAAAAAAAAAAAAAAAAwAAAAAAAAAAABAAAAHAQAAAAACAiBUAAywIIAAASgACRiRACCEAAgAgAIiAAQZIgIICKAkZGAIABggAAIyAcQAAAAAAAAAAAAAAAAAAAAAAAAAAAAAAAAAA==

> <PUBCHEM_IUPAC_OPENEYE_NAME>
N-phenylethanimidothioic acid

> <PUBCHEM_IUPAC_CAS_NAME>
N-phenylethanimidothioic acid

> <PUBCHEM_IUPAC_NAME>
N-phenylethanimidothioic acid

> <PUBCHEM_IUPAC_SYSTEMATIC_NAME>
N-phenylethanimidothioic acid

> <PUBCHEM_IUPAC_TRADITIONAL_NAME>
N-phenylthioacetimidic acid

> <PUBCHEM_IUPAC_INCHI>
InChI=1S/C8H9NS/c1-7(10)9-8-5-3-2-4-6-8/h2-6H,1H3,(H,9,10)

> <PUBCHEM_IUPAC_INCHIKEY>
MWCGLTCRJJFXKR-UHFFFAOYSA-N

> <PUBCHEM_XLOGP3>
2.3

> <PUBCHEM_EXACT_MASS>
151.04557

> <PUBCHEM_MOLECULAR_FORMULA>
C8H9NS

> <PUBCHEM_MOLECULAR_WEIGHT>
151.22876

> <PUBCHEM_OPENEYE_CAN_SMILES>
CC(=NC1=CC=CC=C1)S

> <PUBCHEM_OPENEYE_ISO_SMILES>
CC(=NC1=CC=CC=C1)S

> <PUBCHEM_CACTVS_TPSA>
13.4

> <PUBCHEM_MONOISOTOPIC_WEIGHT>
151.04557

> <PUBCHEM_TOTAL_CHARGE>
0

> <PUBCHEM_HEAVY_ATOM_COUNT>
10

> <PUBCHEM_ATOM_DEF_STEREO_COUNT>
0

> <PUBCHEM_ATOM_UDEF_STEREO_COUNT>
0

> <PUBCHEM_BOND_DEF_STEREO_COUNT>
0

> <PUBCHEM_BOND_UDEF_STEREO_COUNT>
0

> <PUBCHEM_ISOTOPIC_ATOM_COUNT>
0

> <PUBCHEM_COMPONENT_COUNT>
1

> <PUBCHEM_CACTVS_TAUTO_COUNT>
2

> <PUBCHEM_COORDINATE_TYPE>
1
5
255

> <PUBCHEM_BONDANNOTATIONS>
3  4  8
3  5  8
4  6  8
5  7  8
6  8  8
7  8  8

$$$$

