17395661
  -OEChem-06241222513D

 45 48  0     1  0  0  0  0  0999 V2000
   -0.7040   -0.1705    1.8359 O   0  0  0  0  0  0  0  0  0  0  0  0
   -0.0252    3.0410   -1.3967 O   0  0  0  0  0  0  0  0  0  0  0  0
    1.6344   -0.3049   -0.9498 O   0  0  0  0  0  0  0  0  0  0  0  0
    3.5432    0.4985    0.1051 N   0  0  0  0  0  0  0  0  0  0  0  0
   -1.9231    1.8829   -0.6917 N   0  0  0  0  0  0  0  0  0  0  0  0
    0.0207    1.4437    0.3123 N   0  0  0  0  0  0  0  0  0  0  0  0
    5.6112   -0.6960    0.4590 C   0  0  0  0  0  0  0  0  0  0  0  0
    5.3737   -1.6490    1.5934 C   0  0  0  0  0  0  0  0  0  0  0  0
    6.2541   -2.0519    0.4470 C   0  0  0  0  0  0  0  0  0  0  0  0
    4.4945   -0.4055   -0.5006 C   0  0  2  0  0  0  0  0  0  0  0  0
   -2.2637    0.8832    0.2863 C   0  0  1  0  0  0  0  0  0  0  0  0
   -3.3155    1.3710    1.2980 C   0  0  0  0  0  0  0  0  0  0  0  0
   -2.9030   -0.3511   -0.2715 C   0  0  0  0  0  0  0  0  0  0  0  0
   -4.1020    0.1256    1.7433 C   0  0  0  0  0  0  0  0  0  0  0  0
   -3.9547   -0.7710    0.5535 C   0  0  0  0  0  0  0  0  0  0  0  0
   -0.9049    0.6282    0.9301 C   0  0  0  0  0  0  0  0  0  0  0  0
    5.0141    0.1751   -1.8094 C   0  0  0  0  0  0  0  0  0  0  0  0
    1.4294    1.4949    0.6488 C   0  0  0  0  0  0  0  0  0  0  0  0
   -0.5673    2.2176   -0.6710 C   0  0  0  0  0  0  0  0  0  0  0  0
    2.1842    0.4718   -0.1730 C   0  0  0  0  0  0  0  0  0  0  0  0
   -2.5634   -1.0696   -1.4080 C   0  0  0  0  0  0  0  0  0  0  0  0
   -4.6819   -1.9133    0.2618 C   0  0  0  0  0  0  0  0  0  0  0  0
   -3.2994   -2.2158   -1.7159 C   0  0  0  0  0  0  0  0  0  0  0  0
   -4.3512   -2.6347   -0.8869 C   0  0  0  0  0  0  0  0  0  0  0  0
    6.2423    0.1631    0.6549 H   0  0  0  0  0  0  0  0  0  0  0  0
    4.4065   -2.1292    1.6779 H   0  0  0  0  0  0  0  0  0  0  0  0
    5.8491   -1.4316    2.5421 H   0  0  0  0  0  0  0  0  0  0  0  0
    5.8784   -2.8029   -0.2369 H   0  0  0  0  0  0  0  0  0  0  0  0
    7.3212   -2.1044    0.6250 H   0  0  0  0  0  0  0  0  0  0  0  0
    3.9605   -1.3344   -0.7393 H   0  0  0  0  0  0  0  0  0  0  0  0
   -4.0111    2.0690    0.8105 H   0  0  0  0  0  0  0  0  0  0  0  0
   -2.8835    1.8992    2.1553 H   0  0  0  0  0  0  0  0  0  0  0  0
   -3.6419   -0.3379    2.6221 H   0  0  0  0  0  0  0  0  0  0  0  0
   -5.1468    0.3703    1.9546 H   0  0  0  0  0  0  0  0  0  0  0  0
    3.8972    1.2027    0.7469 H   0  0  0  0  0  0  0  0  0  0  0  0
    5.5290    1.1284   -1.6435 H   0  0  0  0  0  0  0  0  0  0  0  0
    5.7253   -0.5086   -2.2850 H   0  0  0  0  0  0  0  0  0  0  0  0
    4.1950    0.3593   -2.5130 H   0  0  0  0  0  0  0  0  0  0  0  0
   -2.5879    2.2946   -1.3395 H   0  0  0  0  0  0  0  0  0  0  0  0
    1.5580    1.2637    1.7111 H   0  0  0  0  0  0  0  0  0  0  0  0
    1.8224    2.4929    0.4298 H   0  0  0  0  0  0  0  0  0  0  0  0
   -1.7442   -0.7575   -2.0472 H   0  0  0  0  0  0  0  0  0  0  0  0
   -5.4876   -2.2458    0.9076 H   0  0  0  0  0  0  0  0  0  0  0  0
   -3.0525   -2.7931   -2.6028 H   0  0  0  0  0  0  0  0  0  0  0  0
   -4.9087   -3.5326   -1.1393 H   0  0  0  0  0  0  0  0  0  0  0  0
  1 16  2  0  0  0  0
  2 19  2  0  0  0  0
  3 20  2  0  0  0  0
  4 10  1  0  0  0  0
  4 20  1  0  0  0  0
  4 35  1  0  0  0  0
  5 11  1  0  0  0  0
  5 19  1  0  0  0  0
  5 39  1  0  0  0  0
  6 16  1  0  0  0  0
  6 18  1  0  0  0  0
  6 19  1  0  0  0  0
  7  8  1  0  0  0  0
  7  9  1  0  0  0  0
  7 10  1  0  0  0  0
  7 25  1  0  0  0  0
  8  9  1  0  0  0  0
  8 26  1  0  0  0  0
  8 27  1  0  0  0  0
  9 28  1  0  0  0  0
  9 29  1  0  0  0  0
 10 17  1  0  0  0  0
 10 30  1  0  0  0  0
 11 12  1  0  0  0  0
 11 13  1  0  0  0  0
 11 16  1  0  0  0  0
 12 14  1  0  0  0  0
 12 31  1  0  0  0  0
 12 32  1  0  0  0  0
 13 15  1  0  0  0  0
 13 21  2  0  0  0  0
 14 15  1  0  0  0  0
 14 33  1  0  0  0  0
 14 34  1  0  0  0  0
 15 22  2  0  0  0  0
 17 36  1  0  0  0  0
 17 37  1  0  0  0  0
 17 38  1  0  0  0  0
 18 20  1  0  0  0  0
 18 40  1  0  0  0  0
 18 41  1  0  0  0  0
 21 23  1  0  0  0  0
 21 42  1  0  0  0  0
 22 24  1  0  0  0  0
 22 43  1  0  0  0  0
 23 24  2  0  0  0  0
 23 44  1  0  0  0  0
 24 45  1  0  0  0  0
M  END
> <PUBCHEM_COMPOUND_CID>
17395661

> <PUBCHEM_CONFORMER_RMSD>
0.8

> <PUBCHEM_CONFORMER_DIVERSEORDER>
2
116
150
128
73
133
25
102
120
19
39
91
151
115
108
62
125
89
124
122
129
7
44
149
66
33
4
47
101
55
53
61
107
134
13
130
8
105
97
22
58
83
29
27
81
99
15
56
94
20
100
82
79
6
14
96
23
98
103
71
37
78
123
50
40
10
17
112
145
136
141
68
113
84
18
11
144
118
12
90
64
143
75
137
48
135
41
43
51
5
148
3
46
80
26
35
139
63
32
85
45
147
121
93
127
34
76
52
21
74
9
1
109
142
126
92
38
69
57
87
104
72
138
146
24
140
70
54
28
16
31
30
119
42
110
49
117
36
95
111
131
86
59
77
60
106
67
65
132
88
114

> <PUBCHEM_MMFF94_PARTIAL_CHARGES>
33
1 -0.57
10 0.4
11 0.5
13 -0.14
14 0.14
15 -0.14
16 0.57
18 0.36
19 0.69
2 -0.57
20 0.57
21 -0.15
22 -0.15
23 -0.15
24 -0.15
25 0.1
26 0.1
27 0.1
28 0.1
29 0.1
3 -0.57
35 0.37
39 0.37
4 -0.73
42 0.15
43 0.15
44 0.15
45 0.15
5 -0.73
6 -0.42
7 -0.19
8 -0.2
9 -0.2

> <PUBCHEM_EFFECTIVE_ROTOR_COUNT>
6.4

> <PUBCHEM_PHARMACOPHORE_FEATURES>
8
1 1 acceptor
1 2 acceptor
1 3 acceptor
1 4 donor
1 5 donor
5 11 12 13 14 15 rings
5 5 6 11 16 19 rings
6 13 15 21 22 23 24 rings

> <PUBCHEM_HEAVY_ATOM_COUNT>
24

> <PUBCHEM_ATOM_DEF_STEREO_COUNT>
0

> <PUBCHEM_ATOM_UDEF_STEREO_COUNT>
2

> <PUBCHEM_BOND_DEF_STEREO_COUNT>
0

> <PUBCHEM_BOND_UDEF_STEREO_COUNT>
0

> <PUBCHEM_ISOTOPIC_ATOM_COUNT>
0

> <PUBCHEM_COMPONENT_COUNT>
1

> <PUBCHEM_CACTVS_TAUTO_COUNT>
4

> <PUBCHEM_CONFORMER_ID>
01096FCD00000002

> <PUBCHEM_MMFF94_ENERGY>
53.9849

> <PUBCHEM_FEATURE_SELFOVERLAP>
40.689

> <PUBCHEM_SHAPE_FINGERPRINT>
10074138 170 16879616305466030320
11112241 14 15068627118652606622
11370993 144 15647043906674057654
12422481 6 17968369147692985318
12596602 18 17967256408209262930
12616971 3 18343014523854174346
12633257 1 15648167466161470315
12839892 36 18260553363637622678
13383661 66 16909454513162142211
13675066 3 15936406767176069504
14251751 18 18260837003309070402
14251764 30 17987513711328469403
15163728 17 12391245957859170091
15348495 7 17022908951992391866
15537594 2 18411125953158703546
16994733 274 4677982610762021915
17349148 13 17775562078991690778
17780758 139 17822013133323020602
17857418 61 18413111671422230762
1813 80 18340476785997068829
18927931 339 18200869690326805162
19141452 34 18261385672475133137
19377110 9 18410014300280776472
200 152 17775845726926337036
20775530 9 17538010160332300151
22061861 79 16487255487116702890
23402539 116 17988641925895162280
235170 7 15626505003729274122
23522609 53 18122871379488969320
23559900 14 17749676194739190241
255183 451 13179315239975961361
3459 110 15069489028605739798
351380 3 18412260640774349218
392239 28 16371011776032600514
4015057 19 17561073680025203252
44062 13 18269279126480181092
46194498 28 14691703465089951782
463206 1 18342457023951209722
484985 159 18336839653747148703
5104073 3 17822009770310828730
559249 180 18408324410858890579
76465 3 18411705374395782760
7970288 3 18271246019248636859

> <PUBCHEM_SHAPE_MULTIPOLES>
461.36
13.2
2.67
1.66
18.67
0.03
0
10.37
-2.01
-1.8
0.82
0
0.11
-2.05

> <PUBCHEM_SHAPE_SELFOVERLAP>
999.003

> <PUBCHEM_SHAPE_VOLUME>
256.7

> <PUBCHEM_COORDINATE_TYPE>
2
5
10

$$$$

