17395450
  -OEChem-06241222503D

 27 29  0     0  0  0  0  0  0999 V2000
   -2.4460    1.5024    0.0013 S   0  0  0  0  0  0  0  0  0  0  0  0
   -0.8806   -2.1010    0.0002 O   0  0  0  0  0  0  0  0  0  0  0  0
    2.5471    1.5006   -0.0178 O   0  0  0  0  0  0  0  0  0  0  0  0
    0.9349   -3.5402   -0.0068 O   0  0  0  0  0  0  0  0  0  0  0  0
    0.1873   -0.1034    0.0022 N   0  0  0  0  0  0  0  0  0  0  0  0
   -2.2466   -0.1982    0.0038 C   0  0  0  0  0  0  0  0  0  0  0  0
   -0.9410   -0.7377    0.0028 C   0  0  0  0  0  0  0  0  0  0  0  0
   -4.1522    1.3567    0.0013 C   0  0  0  0  0  0  0  0  0  0  0  0
    1.1103   -1.1109   -0.0011 C   0  0  0  0  0  0  0  0  0  0  0  0
   -3.4547   -0.8603    0.0044 C   0  0  0  0  0  0  0  0  0  0  0  0
   -4.5586    0.0405    0.0029 C   0  0  0  0  0  0  0  0  0  0  0  0
    2.4375   -0.9777   -0.0033 C   0  0  0  0  0  0  0  0  0  0  0  0
    0.4437   -2.4301   -0.0026 C   0  0  0  0  0  0  0  0  0  0  0  0
    3.1784    0.2975   -0.0020 C   0  0  0  0  0  0  0  0  0  0  0  0
   -4.9868    2.5777   -0.0040 C   0  0  0  0  0  0  0  0  0  0  0  0
    4.5431    0.4682    0.0163 C   0  0  0  0  0  0  0  0  0  0  0  0
    4.7647    1.8661    0.0115 C   0  0  0  0  0  0  0  0  0  0  0  0
    3.5195    2.4499   -0.0093 C   0  0  0  0  0  0  0  0  0  0  0  0
   -3.5563   -1.9384    0.0053 H   0  0  0  0  0  0  0  0  0  0  0  0
   -5.5967   -0.2670    0.0023 H   0  0  0  0  0  0  0  0  0  0  0  0
    3.0574   -1.8720   -0.0045 H   0  0  0  0  0  0  0  0  0  0  0  0
   -4.7894    3.1915    0.8813 H   0  0  0  0  0  0  0  0  0  0  0  0
   -4.7916    3.1821   -0.8963 H   0  0  0  0  0  0  0  0  0  0  0  0
   -6.0529    2.3265   -0.0013 H   0  0  0  0  0  0  0  0  0  0  0  0
    5.2919   -0.3115    0.0317 H   0  0  0  0  0  0  0  0  0  0  0  0
    5.7132    2.3833    0.0220 H   0  0  0  0  0  0  0  0  0  0  0  0
    3.1735    3.4732   -0.0199 H   0  0  0  0  0  0  0  0  0  0  0  0
  1  6  1  0  0  0  0
  1  8  1  0  0  0  0
  2  7  1  0  0  0  0
  2 13  1  0  0  0  0
  3 14  1  0  0  0  0
  3 18  1  0  0  0  0
  4 13  2  0  0  0  0
  5  7  2  0  0  0  0
  5  9  1  0  0  0  0
  6  7  1  0  0  0  0
  6 10  2  0  0  0  0
  8 11  2  0  0  0  0
  8 15  1  0  0  0  0
  9 12  2  0  0  0  0
  9 13  1  0  0  0  0
 10 11  1  0  0  0  0
 10 19  1  0  0  0  0
 11 20  1  0  0  0  0
 12 14  1  0  0  0  0
 12 21  1  0  0  0  0
 14 16  2  0  0  0  0
 15 22  1  0  0  0  0
 15 23  1  0  0  0  0
 15 24  1  0  0  0  0
 16 17  1  0  0  0  0
 16 25  1  0  0  0  0
 17 18  2  0  0  0  0
 17 26  1  0  0  0  0
 18 27  1  0  0  0  0
M  END
> <PUBCHEM_COMPOUND_CID>
17395450

> <PUBCHEM_CONFORMER_RMSD>
0.6

> <PUBCHEM_CONFORMER_DIVERSEORDER>
1
14
12
11
6
10
9
7
4
8
13
5
3
2

> <PUBCHEM_MMFF94_PARTIAL_CHARGES>
24
1 -0.08
10 -0.15
11 -0.15
12 -0.11
13 0.71
14 0.09
15 0.18
16 -0.15
17 -0.15
18 -0.01
19 0.15
2 -0.3
20 0.15
21 0.15
25 0.15
26 0.15
27 0.15
3 -0.28
4 -0.57
5 -0.62
6 -0.05
7 0.69
8 -0.14
9 0.19

> <PUBCHEM_EFFECTIVE_ROTOR_COUNT>
2.2

> <PUBCHEM_PHARMACOPHORE_FEATURES>
5
1 3 acceptor
1 4 acceptor
5 1 6 8 10 11 rings
5 2 5 7 9 13 rings
5 3 14 16 17 18 rings

> <PUBCHEM_HEAVY_ATOM_COUNT>
18

> <PUBCHEM_ATOM_DEF_STEREO_COUNT>
0

> <PUBCHEM_ATOM_UDEF_STEREO_COUNT>
0

> <PUBCHEM_BOND_DEF_STEREO_COUNT>
1

> <PUBCHEM_BOND_UDEF_STEREO_COUNT>
0

> <PUBCHEM_ISOTOPIC_ATOM_COUNT>
0

> <PUBCHEM_COMPONENT_COUNT>
1

> <PUBCHEM_CACTVS_TAUTO_COUNT>
1

> <PUBCHEM_CONFORMER_ID>
01096EFA00000001

> <PUBCHEM_MMFF94_ENERGY>
23.9033

> <PUBCHEM_FEATURE_SELFOVERLAP>
25.371

> <PUBCHEM_SHAPE_FINGERPRINT>
10411042 1 17401767922230259207
10498660 4 18409165536753440377
10608611 8 18269556216384738845
12107183 9 18341909480799132232
12173636 292 18265619771167527934
122479 349 18342736265549661610
12390115 104 18264189379443504313
12769317 202 18336839691879835185
12788726 201 17125057773895511458
13583140 156 16916517951671895467
138480 1 17834113422017051398
13955234 65 18196367241904093123
14123255 52 18410294696313100654
14252887 29 12319742492297076016
14415576 193 18410572924384303855
14528608 73 18408609166974474165
14767858 380 18191039919542261527
14787075 74 18261394382732015499
14848178 96 18408888464097180737
15196674 1 18410575088979496001
15342168 16 18343017778949132141
17834072 32 18410573985215118457
1798214 55 18410012122030815400
18186145 218 18187630423561590590
204376 136 18411134706075127995
20510252 161 18191862314894236738
20645477 56 18265613183014619760
212916 134 18262256425607277882
21524375 3 18334575715949689446
21652331 79 18412263926197587621
22950370 63 9295294962340960656
23227448 37 18262519173999096053
23402539 116 18261117331265638892
23402655 69 18187366540533593125
23558518 356 18056477258181632826
23559900 14 18192715772177736043
245318 6 17701802307161874396
2916195 48 18041851597352784000
3091708 16 9263621279214046146
335352 9 18410856573474270678
350125 39 18341332309813464812
394222 165 18342463672333627018
474 4 18410855490324912321
474229 33 18339641114716889123
5104073 3 18200587133572003889
6138700 20 18265327499376771270
6333272 397 18411418397249597746
633830 44 18334860545047815567
7064713 232 18342739581127803564
7364860 26 18265613380098228006
77188 2 17474389557180140518
7808743 9 18123753050427914984
84936 182 18261675977345325176
9981440 41 18412827962735531139

> <PUBCHEM_SHAPE_MULTIPOLES>
351.69
10.36
3.17
0.6
1.48
1.07
0
-9
0.02
-0.63
-0.01
0.03
-0.03
0

> <PUBCHEM_SHAPE_SELFOVERLAP>
764.769

> <PUBCHEM_SHAPE_VOLUME>
194.7

> <PUBCHEM_COORDINATE_TYPE>
2
5
10

$$$$

