6852
  -OEChem-06261201323D

 35 38  0     0  0  0  0  0  0999 V2000
    5.8821   -2.2103    0.4108 O   0  0  0  0  0  0  0  0  0  0  0  0
   -3.5508    1.2978    0.3689 N   0  0  0  0  0  0  0  0  0  0  0  0
    1.9209    1.6130   -0.3745 N   0  0  0  0  0  0  0  0  0  0  0  0
   -1.5739    0.3783   -0.0988 C   0  0  0  0  0  0  0  0  0  0  0  0
   -2.5776   -0.6408   -0.1480 C   0  0  0  0  0  0  0  0  0  0  0  0
   -2.2118    1.5758    0.2259 C   0  0  0  0  0  0  0  0  0  0  0  0
   -3.7995   -0.0362    0.1478 C   0  0  0  0  0  0  0  0  0  0  0  0
   -0.1778    0.3913   -0.3014 C   0  0  0  0  0  0  0  0  0  0  0  0
    0.5230    1.5957   -0.1724 C   0  0  0  0  0  0  0  0  0  0  0  0
   -1.5247    2.7878    0.3587 C   0  0  0  0  0  0  0  0  0  0  0  0
   -2.5579   -2.0254   -0.4180 C   0  0  0  0  0  0  0  0  0  0  0  0
   -0.1426    2.7751    0.1527 C   0  0  0  0  0  0  0  0  0  0  0  0
   -5.0052   -0.7459    0.1876 C   0  0  0  0  0  0  0  0  0  0  0  0
   -3.7555   -2.7484   -0.3822 C   0  0  0  0  0  0  0  0  0  0  0  0
   -4.9601   -2.1160   -0.0838 C   0  0  0  0  0  0  0  0  0  0  0  0
    2.9234    0.6461   -0.1759 C   0  0  0  0  0  0  0  0  0  0  0  0
    4.0641    0.6432   -0.9814 C   0  0  0  0  0  0  0  0  0  0  0  0
    2.7806   -0.3152    0.8272 C   0  0  0  0  0  0  0  0  0  0  0  0
    5.0573   -0.3162   -0.7849 C   0  0  0  0  0  0  0  0  0  0  0  0
    3.7738   -1.2746    1.0239 C   0  0  0  0  0  0  0  0  0  0  0  0
    4.9124   -1.2752    0.2178 C   0  0  0  0  0  0  0  0  0  0  0  0
   -4.2568    1.9817    0.6044 H   0  0  0  0  0  0  0  0  0  0  0  0
    0.3243   -0.5316   -0.5767 H   0  0  0  0  0  0  0  0  0  0  0  0
   -2.0425    3.7068    0.6124 H   0  0  0  0  0  0  0  0  0  0  0  0
   -1.6263   -2.5328   -0.6524 H   0  0  0  0  0  0  0  0  0  0  0  0
    0.4091    3.7075    0.2523 H   0  0  0  0  0  0  0  0  0  0  0  0
   -5.9439   -0.2540    0.4200 H   0  0  0  0  0  0  0  0  0  0  0  0
    2.2692    2.4965   -0.7361 H   0  0  0  0  0  0  0  0  0  0  0  0
   -3.7438   -3.8150   -0.5898 H   0  0  0  0  0  0  0  0  0  0  0  0
   -5.8794   -2.6955   -0.0611 H   0  0  0  0  0  0  0  0  0  0  0  0
    4.1886    1.3844   -1.7668 H   0  0  0  0  0  0  0  0  0  0  0  0
    1.9157   -0.3258    1.4849 H   0  0  0  0  0  0  0  0  0  0  0  0
    5.9394   -0.3059   -1.4197 H   0  0  0  0  0  0  0  0  0  0  0  0
    3.6577   -2.0160    1.8098 H   0  0  0  0  0  0  0  0  0  0  0  0
    6.5955   -2.0619   -0.2335 H   0  0  0  0  0  0  0  0  0  0  0  0
  1 21  1  0  0  0  0
  1 35  1  0  0  0  0
  2  6  1  0  0  0  0
  2  7  1  0  0  0  0
  2 22  1  0  0  0  0
  3  9  1  0  0  0  0
  3 16  1  0  0  0  0
  3 28  1  0  0  0  0
  4  5  1  0  0  0  0
  4  6  2  0  0  0  0
  4  8  1  0  0  0  0
  5  7  1  0  0  0  0
  5 11  2  0  0  0  0
  6 10  1  0  0  0  0
  7 13  2  0  0  0  0
  8  9  2  0  0  0  0
  8 23  1  0  0  0  0
  9 12  1  0  0  0  0
 10 12  2  0  0  0  0
 10 24  1  0  0  0  0
 11 14  1  0  0  0  0
 11 25  1  0  0  0  0
 12 26  1  0  0  0  0
 13 15  1  0  0  0  0
 13 27  1  0  0  0  0
 14 15  2  0  0  0  0
 14 29  1  0  0  0  0
 15 30  1  0  0  0  0
 16 17  2  0  0  0  0
 16 18  1  0  0  0  0
 17 19  1  0  0  0  0
 17 31  1  0  0  0  0
 18 20  2  0  0  0  0
 18 32  1  0  0  0  0
 19 21  2  0  0  0  0
 19 33  1  0  0  0  0
 20 21  1  0  0  0  0
 20 34  1  0  0  0  0
M  END
> <PUBCHEM_COMPOUND_CID>
6852

> <PUBCHEM_CONFORMER_RMSD>
0.6

> <PUBCHEM_CONFORMER_DIVERSEORDER>
1
3
4
2
7
8
5
6

> <PUBCHEM_MMFF94_PARTIAL_CHARGES>
33
1 -0.53
10 -0.15
11 -0.15
12 -0.15
13 -0.15
14 -0.15
15 -0.15
16 0.1
17 -0.15
18 -0.15
19 -0.15
2 0.03
20 -0.15
21 0.08
22 0.27
23 0.15
24 0.15
25 0.15
26 0.15
27 0.15
28 0.4
29 0.15
3 -0.6
30 0.15
31 0.15
32 0.15
33 0.15
34 0.15
35 0.45
6 -0.15
7 -0.15
8 -0.15
9 0.1

> <PUBCHEM_EFFECTIVE_ROTOR_COUNT>
2

> <PUBCHEM_PHARMACOPHORE_FEATURES>
9
1 1 donor
1 2 cation
1 2 donor
1 3 cation
1 3 donor
5 2 4 5 6 7 rings
6 16 17 18 19 20 21 rings
6 4 6 8 9 10 12 rings
6 5 7 11 13 14 15 rings

> <PUBCHEM_HEAVY_ATOM_COUNT>
21

> <PUBCHEM_ATOM_DEF_STEREO_COUNT>
0

> <PUBCHEM_ATOM_UDEF_STEREO_COUNT>
0

> <PUBCHEM_BOND_DEF_STEREO_COUNT>
0

> <PUBCHEM_BOND_UDEF_STEREO_COUNT>
0

> <PUBCHEM_ISOTOPIC_ATOM_COUNT>
0

> <PUBCHEM_COMPONENT_COUNT>
1

> <PUBCHEM_CACTVS_TAUTO_COUNT>
4

> <PUBCHEM_CONFORMER_ID>
00001AC400000001

> <PUBCHEM_MMFF94_ENERGY>
67.3573

> <PUBCHEM_FEATURE_SELFOVERLAP>
45.849

> <PUBCHEM_SHAPE_FINGERPRINT>
10369192 42 17172676583497442912
10616163 171 18337672022361292710
10622 236 17844266222536767410
11045515 52 18060421313289907613
11046707 91 18409448093924506217
11578080 2 18058753337092333556
12107183 9 18194959879646835816
12174731 88 17552937521449976314
12236239 1 18202841067261916956
12553582 1 18338244777534925855
12555020 224 18410867542731294871
12633257 1 17968083240256926969
12760667 363 18407764741886112551
12788726 201 18337378413817037088
12839892 36 18186519929502336510
12969540 37 17690285911071786317
13167823 11 18342455941497501166
13862211 1 18334859390398009775
13955234 65 17758955918591314217
14251751 18 18334863844258029402
14576447 43 18272367564769907540
14767858 380 18129646497504059828
14866123 147 18336260237136839233
15042514 8 18337106860626321017
15188451 53 16660936465654206423
15196674 1 18411419488128936900
15250474 111 18342178912123626570
15352361 1 18410293583922040646
15537594 2 18342162345927896042
17492 89 18121783816422969175
17804303 29 18260829302000308665
17857418 61 18411140225197767654
1813 80 17846505785476669628
18222031 100 18041847203516369781
19784866 135 18334859419998511889
20281475 54 18412544297299125004
20291156 8 18411702049732548832
20403669 9 18334571326282097183
21033648 29 15647043897904762209
21250096 35 18337955593091756503
21267235 1 18411128113648429763
21857420 4 15656955733279214286
22950370 63 18411415081582200987
2297311 6 18187916296700824724
23366157 5 17979916008586885469
23522609 53 18123434316146032085
23559900 14 18336555914948399065
3004659 81 18131355206717937278
335352 9 18409166598448704181
3421961 26 18263647251386169016
351380 3 18342457032213751986
397830 11 18116454668984952018
4214541 1 18411136973812585516
4409770 3 18126855017532698133
46194498 28 16772956870085335071
463206 1 18341329972787442139
465052 167 18335976472109330767
5104073 3 18186798063031245489
559249 180 18341615970701552283
76465 3 18410576162800259445
7970288 3 18410015390322261711
960060 61 17846496993973507094
9709674 26 18198060270519050755

> <PUBCHEM_SHAPE_MULTIPOLES>
416.34
12.23
3.02
0.82
7.7
0.41
0.01
-9.73
0
-1.66
0.15
0.6
-0.08
-1.15

> <PUBCHEM_SHAPE_SELFOVERLAP>
940.809

> <PUBCHEM_SHAPE_VOLUME>
219.6

> <PUBCHEM_COORDINATE_TYPE>
2
5
10

$$$$

