47205516
  -OEChem-06241222593D

 30 31  0     0  0  0  0  0  0999 V2000
   -3.3157    1.3420   -0.4499 S   0  0  0  0  0  0  0  0  0  0  0  0
    5.2096    1.0142    0.9487 O   0  0  0  0  0  0  0  0  0  0  0  0
    1.4558   -1.1776   -1.5784 O   0  0  0  0  0  0  0  0  0  0  0  0
   -0.3877   -2.2209    0.5761 O   0  0  0  0  0  0  0  0  0  0  0  0
    1.9268   -0.2223    0.5376 N   0  0  0  0  0  0  0  0  0  0  0  0
   -1.0893   -0.1165   -0.2556 N   0  0  0  0  0  0  0  0  0  0  0  0
   -4.5371   -0.5821    0.7212 N   0  0  0  0  0  0  0  0  0  0  0  0
   -3.2169   -0.9841    0.6206 N   0  0  0  0  0  0  0  0  0  0  0  0
    3.9322    0.7807    1.4435 N   0  0  0  0  0  0  0  0  0  0  0  0
   -6.0163    1.3259    0.1500 C   0  0  0  0  0  0  0  0  0  0  0  0
   -4.7247    0.6124    0.2018 C   0  0  0  0  0  0  0  0  0  0  0  0
   -6.9461    0.7957   -0.9467 C   0  0  0  0  0  0  0  0  0  0  0  0
    3.2770    0.1864    0.4424 C   0  0  0  0  0  0  0  0  0  0  0  0
   -2.4735   -0.0733    0.0296 C   0  0  0  0  0  0  0  0  0  0  0  0
    5.2863    0.5570   -0.3273 C   0  0  0  0  0  0  0  0  0  0  0  0
    4.0819    0.0201   -0.6979 C   0  0  0  0  0  0  0  0  0  0  0  0
    1.1762   -0.8394   -0.4405 C   0  0  0  0  0  0  0  0  0  0  0  0
   -0.2149   -1.1427    0.0326 C   0  0  0  0  0  0  0  0  0  0  0  0
    6.5765    0.7245   -1.0077 C   0  0  0  0  0  0  0  0  0  0  0  0
   -6.5199    1.2134    1.1179 H   0  0  0  0  0  0  0  0  0  0  0  0
   -5.8741    2.4034    0.0040 H   0  0  0  0  0  0  0  0  0  0  0  0
   -6.4937    0.9168   -1.9367 H   0  0  0  0  0  0  0  0  0  0  0  0
   -7.8953    1.3404   -0.9339 H   0  0  0  0  0  0  0  0  0  0  0  0
   -7.1593   -0.2686   -0.8007 H   0  0  0  0  0  0  0  0  0  0  0  0
    3.8491   -0.4189   -1.6562 H   0  0  0  0  0  0  0  0  0  0  0  0
    1.4968   -0.0263    1.4381 H   0  0  0  0  0  0  0  0  0  0  0  0
   -0.7337    0.7123   -0.7257 H   0  0  0  0  0  0  0  0  0  0  0  0
    6.8459    1.7835   -1.0664 H   0  0  0  0  0  0  0  0  0  0  0  0
    7.3682    0.1974   -0.4666 H   0  0  0  0  0  0  0  0  0  0  0  0
    6.5403    0.3272   -2.0269 H   0  0  0  0  0  0  0  0  0  0  0  0
  1 11  1  0  0  0  0
  1 14  1  0  0  0  0
  2  9  1  0  0  0  0
  2 15  1  0  0  0  0
  3 17  2  0  0  0  0
  4 18  2  0  0  0  0
  5 13  1  0  0  0  0
  5 17  1  0  0  0  0
  5 26  1  0  0  0  0
  6 14  1  0  0  0  0
  6 18  1  0  0  0  0
  6 27  1  0  0  0  0
  7  8  1  0  0  0  0
  7 11  2  0  0  0  0
  8 14  2  0  0  0  0
  9 13  2  0  0  0  0
 10 11  1  0  0  0  0
 10 12  1  0  0  0  0
 10 20  1  0  0  0  0
 10 21  1  0  0  0  0
 12 22  1  0  0  0  0
 12 23  1  0  0  0  0
 12 24  1  0  0  0  0
 13 16  1  0  0  0  0
 15 16  2  0  0  0  0
 15 19  1  0  0  0  0
 16 25  1  0  0  0  0
 17 18  1  0  0  0  0
 19 28  1  0  0  0  0
 19 29  1  0  0  0  0
 19 30  1  0  0  0  0
M  END
> <PUBCHEM_COMPOUND_CID>
47205516

> <PUBCHEM_CONFORMER_RMSD>
0.8

> <PUBCHEM_CONFORMER_DIVERSEORDER>
1
14
12
9
13
2
5
3
11
15
4
8
6
7
10

> <PUBCHEM_MMFF94_PARTIAL_CHARGES>
21
1 -0.08
10 0.18
11 0.2
13 0.35
14 0.44
15 -0.04
16 -0.15
17 0.63
18 0.63
19 0.18
2 -0.02
25 0.15
26 0.37
27 0.37
3 -0.57
4 -0.57
5 -0.49
6 -0.49
7 -0.34
8 -0.34
9 -0.41

> <PUBCHEM_EFFECTIVE_ROTOR_COUNT>
6

> <PUBCHEM_PHARMACOPHORE_FEATURES>
8
1 12 hydrophobe
1 3 acceptor
1 4 acceptor
1 5 donor
1 6 donor
1 7 acceptor
5 1 7 8 11 14 rings
5 2 9 13 15 16 rings

> <PUBCHEM_HEAVY_ATOM_COUNT>
19

> <PUBCHEM_ATOM_DEF_STEREO_COUNT>
0

> <PUBCHEM_ATOM_UDEF_STEREO_COUNT>
0

> <PUBCHEM_BOND_DEF_STEREO_COUNT>
0

> <PUBCHEM_BOND_UDEF_STEREO_COUNT>
0

> <PUBCHEM_ISOTOPIC_ATOM_COUNT>
0

> <PUBCHEM_COMPONENT_COUNT>
1

> <PUBCHEM_CACTVS_TAUTO_COUNT>
24

> <PUBCHEM_CONFORMER_ID>
02D04C8C00000001

> <PUBCHEM_MMFF94_ENERGY>
18.2855

> <PUBCHEM_FEATURE_SELFOVERLAP>
40.596

> <PUBCHEM_SHAPE_FINGERPRINT>
10 15 17418087728918925145
10354089 29 16773794793025843300
106641 1 15841543046640214961
10670039 82 18187920737861123784
10693767 8 15430861263943059044
10803635 8 6122505670742390777
11128504 68 14707213205548117265
12236239 1 17060337401163642458
12596602 18 16702581614616287816
12730499 353 17967808357833722711
13288520 33 7709456118117881667
13403585 85 15195291945463461157
13533116 47 18339364192094282642
13668630 136 13767920235035173852
13685833 64 9295282850770562941
13862211 1 8214138547620229109
13968360 50 16660641899411358662
1420 363 11383834870228978032
14251752 14 5833717842416676435
14251764 18 16056875815245591327
14341114 328 17346882255938921240
14528608 73 17312828177698177997
14848160 23 10087645879631405936
15003188 100 17676496007687089777
15048467 5 17847058866106564068
15183329 4 16515678962105691212
15527383 91 13686292474302941046
17834072 8 17313100848229341292
17980427 23 17632571613827786575
200 152 13912315781643831570
20281389 69 18272655657943490312
20374829 77 8574713489990965619
20645477 56 18407758127335789743
21150785 3 16153714206524145253
21521239 73 15936405663210979238
21623969 137 12535629375480905272
21637258 2 8214139629735450161
221357 26 17095242544565174888
22224240 67 14764344908291975568
23198884 109 16081087082785193377
23402539 116 18410296882514940015
23559900 14 18270383009968427047
246663 6 5978100268143507653
26918003 58 13542458770162969253
2767999 5 18341899601773197997
2916195 48 18334860493513397985
29717793 49 14201389491809386848
300161 21 17775569754019010451
3014965 18 18041836333260566590
314173 85 10735881694133587030
351380 3 8142083152536965477
3545911 37 18259701203180596903
4325135 7 18186524289721725815
465052 167 10231752305826402136
5104073 3 18058160812625945457
6025842 7 17531808072790061583
8863177 126 6770993312695021981

> <PUBCHEM_SHAPE_MULTIPOLES>
352.35
17.27
1.43
1.07
2.69
0.4
-0.06
-9.13
-1.51
0.69
0.03
-0.83
-0.05
0.61

> <PUBCHEM_SHAPE_SELFOVERLAP>
722.396

> <PUBCHEM_SHAPE_VOLUME>
204.6

> <PUBCHEM_COORDINATE_TYPE>
2
5
10

$$$$

