47205042
  -OEChem-06241222572D

 33 35  0     0  0  0  0  0  0999 V2000
    3.6750    2.7094    0.0000 O   0  0  0  0  0  0  0  0  0  0  0  0
    2.8090    1.2094    0.0000 O   0  0  0  0  0  0  0  0  0  0  0  0
    3.6750   -0.2906    0.0000 N   0  0  0  0  0  0  0  0  0  0  0  0
    3.6180   -2.3784    0.0000 N   0  0  0  0  0  0  0  0  0  0  0  0
    3.3090   -3.3294    0.0000 N   0  0  0  0  0  0  0  0  0  0  0  0
    6.2731    1.2094    0.0000 C   0  0  0  0  0  0  0  0  0  0  0  0
    6.2731    2.2094    0.0000 C   0  0  0  0  0  0  0  0  0  0  0  0
    4.5411    1.2094    0.0000 C   0  0  0  0  0  0  0  0  0  0  0  0
    5.4071    0.7094    0.0000 C   0  0  0  0  0  0  0  0  0  0  0  0
    4.5411    2.2094    0.0000 C   0  0  0  0  0  0  0  0  0  0  0  0
    5.4071    2.7094    0.0000 C   0  0  0  0  0  0  0  0  0  0  0  0
    2.8090   -0.7906    0.0000 C   0  0  0  0  0  0  0  0  0  0  0  0
    3.6750    0.7094    0.0000 C   0  0  0  0  0  0  0  0  0  0  0  0
    7.1671    0.6748    0.0000 C   0  0  0  0  0  0  0  0  0  0  0  0
    2.8090   -1.7906    0.0000 C   0  0  0  0  0  0  0  0  0  0  0  0
    7.1671    2.7441    0.0000 C   0  0  0  0  0  0  0  0  0  0  0  0
    8.0731    1.1886    0.0000 C   0  0  0  0  0  0  0  0  0  0  0  0
    8.0731    2.2302    0.0000 C   0  0  0  0  0  0  0  0  0  0  0  0
    2.0000   -2.3784    0.0000 C   0  0  0  0  0  0  0  0  0  0  0  0
    2.3090   -3.3294    0.0000 C   0  0  0  0  0  0  0  0  0  0  0  0
    5.4071    0.0894    0.0000 H   0  0  0  0  0  0  0  0  0  0  0  0
    5.4071    3.3294    0.0000 H   0  0  0  0  0  0  0  0  0  0  0  0
    2.5970   -0.2080    0.0000 H   0  0  0  0  0  0  0  0  0  0  0  0
    2.1984   -0.8982    0.0000 H   0  0  0  0  0  0  0  0  0  0  0  0
    4.2120   -0.6006    0.0000 H   0  0  0  0  0  0  0  0  0  0  0  0
    7.1599    0.0548    0.0000 H   0  0  0  0  0  0  0  0  0  0  0  0
    7.1599    3.3640    0.0000 H   0  0  0  0  0  0  0  0  0  0  0  0
    8.6089    0.8765    0.0000 H   0  0  0  0  0  0  0  0  0  0  0  0
    8.6089    2.5423    0.0000 H   0  0  0  0  0  0  0  0  0  0  0  0
    1.4103   -2.1868    0.0000 H   0  0  0  0  0  0  0  0  0  0  0  0
    4.2077   -2.1868    0.0000 H   0  0  0  0  0  0  0  0  0  0  0  0
    1.9446   -3.8310    0.0000 H   0  0  0  0  0  0  0  0  0  0  0  0
    3.6750    3.3294    0.0000 H   0  0  0  0  0  0  0  0  0  0  0  0
  1 10  1  0  0  0  0
  1 33  1  0  0  0  0
  2 13  2  0  0  0  0
  3 12  1  0  0  0  0
  3 13  1  0  0  0  0
  3 25  1  0  0  0  0
  4  5  1  0  0  0  0
  4 15  1  0  0  0  0
  4 31  1  0  0  0  0
  5 20  2  0  0  0  0
  6  7  1  0  0  0  0
  6  9  1  0  0  0  0
  6 14  2  0  0  0  0
  7 11  1  0  0  0  0
  7 16  2  0  0  0  0
  8  9  2  0  0  0  0
  8 10  1  0  0  0  0
  8 13  1  0  0  0  0
  9 21  1  0  0  0  0
 10 11  2  0  0  0  0
 11 22  1  0  0  0  0
 12 15  1  0  0  0  0
 12 23  1  0  0  0  0
 12 24  1  0  0  0  0
 14 17  1  0  0  0  0
 14 26  1  0  0  0  0
 15 19  2  0  0  0  0
 16 18  1  0  0  0  0
 16 27  1  0  0  0  0
 17 18  2  0  0  0  0
 17 28  1  0  0  0  0
 18 29  1  0  0  0  0
 19 20  1  0  0  0  0
 19 30  1  0  0  0  0
 20 32  1  0  0  0  0
M  END
> <PUBCHEM_COMPOUND_CID>
47205042

> <PUBCHEM_COMPOUND_CANONICALIZED>
1

> <PUBCHEM_CACTVS_COMPLEXITY>
350

> <PUBCHEM_CACTVS_HBOND_ACCEPTOR>
3

> <PUBCHEM_CACTVS_HBOND_DONOR>
3

> <PUBCHEM_CACTVS_ROTATABLE_BOND>
3

> <PUBCHEM_CACTVS_SUBSKEYS>
AAADccBzMAAAAAAAAAAAAAAAAAAAAWAAAAAwYAAAAAAAAADB1AAAHgAYCAAADAzBngQ8htLjAgCqAzV3UACSBAAkogAYuaE+bNgIZraC1dOU9Uhm/hGI2YeYyPCO4AADAAAYAADAAAYAADAAAAAAAAAAAA==

> <PUBCHEM_IUPAC_OPENEYE_NAME>
3-hydroxy-N-(1H-pyrazol-5-ylmethyl)naphthalene-2-carboxamide

> <PUBCHEM_IUPAC_CAS_NAME>
3-hydroxy-N-(1H-pyrazol-5-ylmethyl)-2-naphthalenecarboxamide

> <PUBCHEM_IUPAC_NAME>
3-hydroxy-N-(1H-pyrazol-5-ylmethyl)naphthalene-2-carboxamide

> <PUBCHEM_IUPAC_SYSTEMATIC_NAME>
3-oxidanyl-N-(1H-pyrazol-5-ylmethyl)naphthalene-2-carboxamide

> <PUBCHEM_IUPAC_TRADITIONAL_NAME>
3-hydroxy-N-(1H-pyrazol-5-ylmethyl)-2-naphthamide

> <PUBCHEM_IUPAC_INCHI>
InChI=1S/C15H13N3O2/c19-14-8-11-4-2-1-3-10(11)7-13(14)15(20)16-9-12-5-6-17-18-12/h1-8,19H,9H2,(H,16,20)(H,17,18)

> <PUBCHEM_IUPAC_INCHIKEY>
CKJOMGWHEPWSKV-UHFFFAOYSA-N

> <PUBCHEM_XLOGP3_AA>
2.5

> <PUBCHEM_EXACT_MASS>
267.100777

> <PUBCHEM_MOLECULAR_FORMULA>
C15H13N3O2

> <PUBCHEM_MOLECULAR_WEIGHT>
267.28262

> <PUBCHEM_OPENEYE_CAN_SMILES>
C1=CC=C2C=C(C(=CC2=C1)C(=O)NCC3=CC=NN3)O

> <PUBCHEM_OPENEYE_ISO_SMILES>
C1=CC=C2C=C(C(=CC2=C1)C(=O)NCC3=CC=NN3)O

> <PUBCHEM_CACTVS_TPSA>
78

> <PUBCHEM_MONOISOTOPIC_WEIGHT>
267.100777

> <PUBCHEM_TOTAL_CHARGE>
0

> <PUBCHEM_HEAVY_ATOM_COUNT>
20

> <PUBCHEM_ATOM_DEF_STEREO_COUNT>
0

> <PUBCHEM_ATOM_UDEF_STEREO_COUNT>
0

> <PUBCHEM_BOND_DEF_STEREO_COUNT>
0

> <PUBCHEM_BOND_UDEF_STEREO_COUNT>
0

> <PUBCHEM_ISOTOPIC_ATOM_COUNT>
0

> <PUBCHEM_COMPONENT_COUNT>
1

> <PUBCHEM_CACTVS_TAUTO_COUNT>
18

> <PUBCHEM_COORDINATE_TYPE>
1
5
255

> <PUBCHEM_BONDANNOTATIONS>
10  11  8
14  17  8
15  19  8
16  18  8
17  18  8
19  20  8
4  15  8
4  5  8
5  20  8
6  14  8
6  7  8
6  9  8
7  11  8
7  16  8
8  10  8
8  9  8

$$$$

