8810
  -OEChem-06261203082D

 62 61  0     0  0  0  0  0  0999 V2000
    7.0749    7.2360    0.0000 S   0  0  0  0  0  0  0  0  0  0  0  0
    7.0749    3.3951    0.0000 S   0  0  0  0  0  0  0  0  0  0  0  0
    6.2089    6.7360    0.0000 O   0  0  0  0  0  0  0  0  0  0  0  0
    6.2089    2.8951    0.0000 O   0  0  0  0  0  0  0  0  0  0  0  0
    9.6730    7.7360    0.0000 O   0  0  0  0  0  0  0  0  0  0  0  0
    9.6730    3.8951    0.0000 O   0  0  0  0  0  0  0  0  0  0  0  0
    7.5749    6.3700    0.0000 O   0  0  0  0  0  0  0  0  0  0  0  0
    6.5749    8.1021    0.0000 O   0  0  0  0  0  0  0  0  0  0  0  0
    7.5749    2.5290    0.0000 O   0  0  0  0  0  0  0  0  0  0  0  0
    6.5749    4.2611    0.0000 O   0  0  0  0  0  0  0  0  0  0  0  0
    0.5369    0.6200    0.0000 N   0  0  0  0  0  0  0  0  0  0  0  0
    3.1350   10.1200    0.0000 N   0  0  0  0  0  0  0  0  0  0  0  0
    2.2690    0.6200    0.0000 N   0  0  0  0  0  0  0  0  0  0  0  0
    1.4030   10.1200    0.0000 N   0  0  0  0  0  0  0  0  0  0  0  0
    1.4030    4.1200    0.0000 C   0  0  0  0  0  0  0  0  0  0  0  0
    2.2690    6.6200    0.0000 C   0  0  0  0  0  0  0  0  0  0  0  0
    1.4030    5.1200    0.0000 C   0  0  0  0  0  0  0  0  0  0  0  0
    2.2690    5.6200    0.0000 C   0  0  0  0  0  0  0  0  0  0  0  0
    1.4030    2.1200    0.0000 C   0  0  0  0  0  0  0  0  0  0  0  0
    2.2690    8.6200    0.0000 C   0  0  0  0  0  0  0  0  0  0  0  0
    2.2690    3.6200    0.0000 C   0  0  0  0  0  0  0  0  0  0  0  0
    1.4030    7.1200    0.0000 C   0  0  0  0  0  0  0  0  0  0  0  0
    0.5369    3.6200    0.0000 C   0  0  0  0  0  0  0  0  0  0  0  0
    3.1350    7.1200    0.0000 C   0  0  0  0  0  0  0  0  0  0  0  0
    2.2690    2.6200    0.0000 C   0  0  0  0  0  0  0  0  0  0  0  0
    1.4030    8.1200    0.0000 C   0  0  0  0  0  0  0  0  0  0  0  0
    0.5369    2.6200    0.0000 C   0  0  0  0  0  0  0  0  0  0  0  0
    3.1350    8.1200    0.0000 C   0  0  0  0  0  0  0  0  0  0  0  0
    7.9409    7.7360    0.0000 C   0  0  0  0  0  0  0  0  0  0  0  0
    7.9409    3.8951    0.0000 C   0  0  0  0  0  0  0  0  0  0  0  0
    1.4030    1.1200    0.0000 C   0  0  0  0  0  0  0  0  0  0  0  0
    2.2690    9.6200    0.0000 C   0  0  0  0  0  0  0  0  0  0  0  0
    8.8070    7.2360    0.0000 C   0  0  0  0  0  0  0  0  0  0  0  0
    8.8070    3.3951    0.0000 C   0  0  0  0  0  0  0  0  0  0  0  0
    0.8660    5.4300    0.0000 H   0  0  0  0  0  0  0  0  0  0  0  0
    2.8059    5.3100    0.0000 H   0  0  0  0  0  0  0  0  0  0  0  0
    2.8059    3.9300    0.0000 H   0  0  0  0  0  0  0  0  0  0  0  0
    0.8660    6.8100    0.0000 H   0  0  0  0  0  0  0  0  0  0  0  0
    0.0000    3.9300    0.0000 H   0  0  0  0  0  0  0  0  0  0  0  0
    3.6719    6.8100    0.0000 H   0  0  0  0  0  0  0  0  0  0  0  0
    2.8059    2.3100    0.0000 H   0  0  0  0  0  0  0  0  0  0  0  0
    0.8660    8.4300    0.0000 H   0  0  0  0  0  0  0  0  0  0  0  0
    0.0000    2.3100    0.0000 H   0  0  0  0  0  0  0  0  0  0  0  0
    3.6719    8.4300    0.0000 H   0  0  0  0  0  0  0  0  0  0  0  0
    7.5424    8.2110    0.0000 H   0  0  0  0  0  0  0  0  0  0  0  0
    8.3395    8.2110    0.0000 H   0  0  0  0  0  0  0  0  0  0  0  0
    7.5424    4.3700    0.0000 H   0  0  0  0  0  0  0  0  0  0  0  0
    8.3395    4.3700    0.0000 H   0  0  0  0  0  0  0  0  0  0  0  0
    9.2055    6.7611    0.0000 H   0  0  0  0  0  0  0  0  0  0  0  0
    8.4084    6.7611    0.0000 H   0  0  0  0  0  0  0  0  0  0  0  0
    9.2055    2.9201    0.0000 H   0  0  0  0  0  0  0  0  0  0  0  0
    8.4084    2.9201    0.0000 H   0  0  0  0  0  0  0  0  0  0  0  0
    0.0000    0.9300    0.0000 H   0  0  0  0  0  0  0  0  0  0  0  0
    0.5369    0.0000    0.0000 H   0  0  0  0  0  0  0  0  0  0  0  0
    3.6719    9.8100    0.0000 H   0  0  0  0  0  0  0  0  0  0  0  0
    3.1350   10.7400    0.0000 H   0  0  0  0  0  0  0  0  0  0  0  0
    2.2690    0.0000    0.0000 H   0  0  0  0  0  0  0  0  0  0  0  0
    1.4030   10.7400    0.0000 H   0  0  0  0  0  0  0  0  0  0  0  0
    5.6719    7.0460    0.0000 H   0  0  0  0  0  0  0  0  0  0  0  0
    5.6719    3.2051    0.0000 H   0  0  0  0  0  0  0  0  0  0  0  0
   10.2099    7.4260    0.0000 H   0  0  0  0  0  0  0  0  0  0  0  0
   10.2099    3.5851    0.0000 H   0  0  0  0  0  0  0  0  0  0  0  0
  1  3  1  0  0  0  0
  1  7  2  0  0  0  0
  1  8  2  0  0  0  0
  1 29  1  0  0  0  0
  2  4  1  0  0  0  0
  2  9  2  0  0  0  0
  2 10  2  0  0  0  0
  2 30  1  0  0  0  0
  3 59  1  0  0  0  0
  4 60  1  0  0  0  0
  5 33  1  0  0  0  0
  5 61  1  0  0  0  0
  6 34  1  0  0  0  0
  6 62  1  0  0  0  0
 11 31  1  0  0  0  0
 11 53  1  0  0  0  0
 11 54  1  0  0  0  0
 12 32  1  0  0  0  0
 12 55  1  0  0  0  0
 12 56  1  0  0  0  0
 13 31  2  3  0  0  0
 13 57  1  0  0  0  0
 14 32  2  3  0  0  0
 14 58  1  0  0  0  0
 15 17  1  0  0  0  0
 15 21  2  0  0  0  0
 15 23  1  0  0  0  0
 16 18  1  0  0  0  0
 16 22  2  0  0  0  0
 16 24  1  0  0  0  0
 17 18  2  3  0  0  0
 17 35  1  0  0  0  0
 18 36  1  0  0  0  0
 19 25  2  0  0  0  0
 19 27  1  0  0  0  0
 19 31  1  0  0  0  0
 20 26  2  0  0  0  0
 20 28  1  0  0  0  0
 20 32  1  0  0  0  0
 21 25  1  0  0  0  0
 21 37  1  0  0  0  0
 22 26  1  0  0  0  0
 22 38  1  0  0  0  0
 23 27  2  0  0  0  0
 23 39  1  0  0  0  0
 24 28  2  0  0  0  0
 24 40  1  0  0  0  0
 25 41  1  0  0  0  0
 26 42  1  0  0  0  0
 27 43  1  0  0  0  0
 28 44  1  0  0  0  0
 29 33  1  0  0  0  0
 29 45  1  0  0  0  0
 29 46  1  0  0  0  0
 30 34  1  0  0  0  0
 30 47  1  0  0  0  0
 30 48  1  0  0  0  0
 33 49  1  0  0  0  0
 33 50  1  0  0  0  0
 34 51  1  0  0  0  0
 34 52  1  0  0  0  0
M  END
> <PUBCHEM_COMPOUND_CID>
8810

> <PUBCHEM_COMPOUND_CANONICALIZED>
1

> <PUBCHEM_CACTVS_COMPLEXITY>
453

> <PUBCHEM_CACTVS_HBOND_ACCEPTOR>
10

> <PUBCHEM_CACTVS_HBOND_DONOR>
8

> <PUBCHEM_CACTVS_ROTATABLE_BOND>
8

> <PUBCHEM_CACTVS_SUBSKEYS>
AAADceB7vABgAAAAAAAAAAAAAAAAAAAAAAAwYAAAAAAAAAABQAAAHgQQCAAADACl2AKxAIBAAoKgAiJiIHDCAACgAAAIiAAgBJgIMKKAkRGAIABggAAIiAcQgAAOQAAAAAAAAACAAAAAAAAAAAAAAAAAAA==

> <PUBCHEM_IUPAC_OPENEYE_NAME>
4-[2-(4-carbamimidoylphenyl)vinyl]benzamidine; 2-hydroxyethanesulfonic acid

> <PUBCHEM_IUPAC_CAS_NAME>
4-[2-(4-carbamimidoylphenyl)ethenyl]benzenecarboximidamide; 2-hydroxyethanesulfonic acid

> <PUBCHEM_IUPAC_NAME>
4-[2-(4-carbamimidoylphenyl)ethenyl]benzenecarboximidamide; 2-hydroxyethanesulfonic acid

> <PUBCHEM_IUPAC_SYSTEMATIC_NAME>
4-[2-(4-carbamimidoylphenyl)ethenyl]benzenecarboximidamide; 2-oxidanylethanesulfonic acid

> <PUBCHEM_IUPAC_TRADITIONAL_NAME>
4-[2-(4-amidinophenyl)vinyl]benzamidine; 2-hydroxyethanesulfonic acid

> <PUBCHEM_IUPAC_INCHI>
InChI=1S/C16H16N4.2C2H6O4S/c17-15(18)13-7-3-11(4-8-13)1-2-12-5-9-14(10-6-12)16(19)20;2*3-1-2-7(4,5)6/h1-10H,(H3,17,18)(H3,19,20);2*3H,1-2H2,(H,4,5,6)

> <PUBCHEM_IUPAC_INCHIKEY>
DXBSRDIXJYTKNV-UHFFFAOYSA-N

> <PUBCHEM_XLOGP3_AA>
0.57

> <PUBCHEM_EXACT_MASS>
516.134856

> <PUBCHEM_MOLECULAR_FORMULA>
C20H28N4O8S2

> <PUBCHEM_MOLECULAR_WEIGHT>
516.58832

> <PUBCHEM_OPENEYE_CAN_SMILES>
C1=CC(=CC=C1C=CC2=CC=C(C=C2)C(=N)N)C(=N)N.C(CS(=O)(=O)O)O.C(CS(=O)(=O)O)O

> <PUBCHEM_OPENEYE_ISO_SMILES>
C1=CC(=CC=C1C=CC2=CC=C(C=C2)C(=N)N)C(=N)N.C(CS(=O)(=O)O)O.C(CS(=O)(=O)O)O

> <PUBCHEM_CACTVS_TPSA>
266

> <PUBCHEM_MONOISOTOPIC_WEIGHT>
516.134856

> <PUBCHEM_TOTAL_CHARGE>
0

> <PUBCHEM_HEAVY_ATOM_COUNT>
34

> <PUBCHEM_ATOM_DEF_STEREO_COUNT>
0

> <PUBCHEM_ATOM_UDEF_STEREO_COUNT>
0

> <PUBCHEM_BOND_DEF_STEREO_COUNT>
0

> <PUBCHEM_BOND_UDEF_STEREO_COUNT>
1

> <PUBCHEM_ISOTOPIC_ATOM_COUNT>
0

> <PUBCHEM_COMPONENT_COUNT>
3

> <PUBCHEM_CACTVS_TAUTO_COUNT>
1

> <PUBCHEM_COORDINATE_TYPE>
1
5
255

> <PUBCHEM_BONDANNOTATIONS>
13  31  1
14  32  1
15  21  8
15  23  8
16  22  8
16  24  8
17  18  1
19  25  8
19  27  8
20  26  8
20  28  8
21  25  8
22  26  8
23  27  8
24  28  8

$$$$

