3866
  -OEChem-06251223442D

 20 20  0     1  0  0  0  0  0999 V2000
    4.2690    2.0950    0.0000 O   0  0  0  0  0  0  0  0  0  0  0  0
    5.1350    0.5950    0.0000 O   0  0  0  0  0  0  0  0  0  0  0  0
    2.5369    1.0950    0.0000 N   0  0  0  0  0  0  0  0  0  0  0  0
    3.4030    0.5950    0.0000 C   0  0  3  0  0  0  0  0  0  0  0  0
    3.4030   -0.4050    0.0000 C   0  0  0  0  0  0  0  0  0  0  0  0
    2.5369   -0.9050    0.0000 C   0  0  0  0  0  0  0  0  0  0  0  0
    4.2690   -0.9050    0.0000 C   0  0  0  0  0  0  0  0  0  0  0  0
    4.2690    1.0950    0.0000 C   0  0  0  0  0  0  0  0  0  0  0  0
    2.5369   -1.9050    0.0000 C   0  0  0  0  0  0  0  0  0  0  0  0
    4.2690   -1.9050    0.0000 C   0  0  0  0  0  0  0  0  0  0  0  0
    3.4030   -2.4050    0.0000 C   0  0  0  0  0  0  0  0  0  0  0  0
    3.4030    1.4450    0.0000 H   0  0  0  0  0  0  0  0  0  0  0  0
    2.0000   -0.5950    0.0000 H   0  0  0  0  0  0  0  0  0  0  0  0
    4.8059   -0.5950    0.0000 H   0  0  0  0  0  0  0  0  0  0  0  0
    2.0000   -2.2150    0.0000 H   0  0  0  0  0  0  0  0  0  0  0  0
    4.8059   -2.2150    0.0000 H   0  0  0  0  0  0  0  0  0  0  0  0
    2.5369    1.7150    0.0000 H   0  0  0  0  0  0  0  0  0  0  0  0
    2.0000    0.7850    0.0000 H   0  0  0  0  0  0  0  0  0  0  0  0
    3.4030   -3.0250    0.0000 H   0  0  0  0  0  0  0  0  0  0  0  0
    4.8059    2.4050    0.0000 H   0  0  0  0  0  0  0  0  0  0  0  0
  1  8  1  0  0  0  0
  1 20  1  0  0  0  0
  2  8  2  0  0  0  0
  3  4  1  0  0  0  0
  3 17  1  0  0  0  0
  3 18  1  0  0  0  0
  4  5  1  0  0  0  0
  4  8  1  0  0  0  0
  4 12  1  0  0  0  0
  5  6  2  0  0  0  0
  5  7  1  0  0  0  0
  6  9  1  0  0  0  0
  6 13  1  0  0  0  0
  7 10  2  0  0  0  0
  7 14  1  0  0  0  0
  9 11  2  0  0  0  0
  9 15  1  0  0  0  0
 10 11  1  0  0  0  0
 10 16  1  0  0  0  0
 11 19  1  0  0  0  0
M  END
> <PUBCHEM_COMPOUND_CID>
3866

> <PUBCHEM_COMPOUND_CANONICALIZED>
1

> <PUBCHEM_CACTVS_COMPLEXITY>
141

> <PUBCHEM_CACTVS_HBOND_ACCEPTOR>
3

> <PUBCHEM_CACTVS_HBOND_DONOR>
2

> <PUBCHEM_CACTVS_ROTATABLE_BOND>
2

> <PUBCHEM_CACTVS_SUBSKEYS>
AAADccByMAAAAAAAAAAAAAAAAAAAAAAAAAAwAAAAAAAAAAABAAAAHgAQCAAADCjBmAQwCIBAAgCIAiDSCACCAAAgAAAIiIGABIgKIDKAlRGAYABkwAEIiAeYyKCOAAAAAAAAAAAAAAAAAAAAAAAAAAAAAA==

> <PUBCHEM_IUPAC_OPENEYE_NAME>
2-amino-2-phenyl-acetic acid

> <PUBCHEM_IUPAC_CAS_NAME>
2-amino-2-phenylacetic acid

> <PUBCHEM_IUPAC_NAME>
2-amino-2-phenylacetic acid

> <PUBCHEM_IUPAC_SYSTEMATIC_NAME>
2-azanyl-2-phenyl-ethanoic acid

> <PUBCHEM_IUPAC_TRADITIONAL_NAME>
2-amino-2-phenyl-acetic acid

> <PUBCHEM_IUPAC_INCHI>
InChI=1S/C8H9NO2/c9-7(8(10)11)6-4-2-1-3-5-6/h1-5,7H,9H2,(H,10,11)

> <PUBCHEM_IUPAC_INCHIKEY>
ZGUNAGUHMKGQNY-UHFFFAOYSA-N

> <PUBCHEM_XLOGP3>
-1.7

> <PUBCHEM_EXACT_MASS>
151.063329

> <PUBCHEM_MOLECULAR_FORMULA>
C8H9NO2

> <PUBCHEM_MOLECULAR_WEIGHT>
151.16256

> <PUBCHEM_OPENEYE_CAN_SMILES>
C1=CC=C(C=C1)C(C(=O)O)N

> <PUBCHEM_OPENEYE_ISO_SMILES>
C1=CC=C(C=C1)C(C(=O)O)N

> <PUBCHEM_CACTVS_TPSA>
63.3

> <PUBCHEM_MONOISOTOPIC_WEIGHT>
151.063329

> <PUBCHEM_TOTAL_CHARGE>
0

> <PUBCHEM_HEAVY_ATOM_COUNT>
11

> <PUBCHEM_ATOM_DEF_STEREO_COUNT>
0

> <PUBCHEM_ATOM_UDEF_STEREO_COUNT>
1

> <PUBCHEM_BOND_DEF_STEREO_COUNT>
0

> <PUBCHEM_BOND_UDEF_STEREO_COUNT>
0

> <PUBCHEM_ISOTOPIC_ATOM_COUNT>
0

> <PUBCHEM_COMPONENT_COUNT>
1

> <PUBCHEM_CACTVS_TAUTO_COUNT>
1

> <PUBCHEM_COORDINATE_TYPE>
1
5
255

> <PUBCHEM_BONDANNOTATIONS>
10  11  8
4  12  3
5  6  8
5  7  8
6  9  8
7  10  8
9  11  8

$$$$

