7846980
  -OEChem-06241222483D

 43 44  0     1  0  0  0  0  0999 V2000
    2.2111   -2.3982   -1.0468 S   0  0  0  0  0  0  0  0  0  0  0  0
   -1.4668   -1.2548   -0.2441 O   0  0  0  0  0  0  0  0  0  0  0  0
   -0.4250    0.9969   -1.2579 O   0  0  0  0  0  0  0  0  0  0  0  0
   -2.4988   -2.3429    1.5090 O   0  0  0  0  0  0  0  0  0  0  0  0
    0.3739    3.5544   -0.3912 O   0  0  0  0  0  0  0  0  0  0  0  0
   -1.2256    2.1661    0.5933 N   0  0  0  0  0  0  0  0  0  0  0  0
    1.2782   -1.3563    1.1202 N   0  0  0  0  0  0  0  0  0  0  0  0
   -0.7451    4.2276    1.4991 N   0  0  0  0  0  0  0  0  0  0  0  0
   -3.4597    0.0606   -0.6302 C   0  0  0  0  0  0  0  0  0  0  0  0
   -2.1169   -0.0406    0.1190 C   0  0  2  0  0  0  0  0  0  0  0  0
   -4.1861    1.3656   -0.2810 C   0  0  0  0  0  0  0  0  0  0  0  0
   -3.2857   -0.0323   -2.1480 C   0  0  0  0  0  0  0  0  0  0  0  0
   -1.1626    1.0786   -0.2780 C   0  0  0  0  0  0  0  0  0  0  0  0
   -0.9871   -3.5382    0.0251 C   0  0  0  0  0  0  0  0  0  0  0  0
    0.4038   -3.6460    0.6519 C   0  0  0  0  0  0  0  0  0  0  0  0
   -1.7490   -2.3393    0.5425 C   0  0  0  0  0  0  0  0  0  0  0  0
    1.2387   -2.4256    0.3600 C   0  0  0  0  0  0  0  0  0  0  0  0
    2.7519   -0.8149   -0.6302 C   0  0  0  0  0  0  0  0  0  0  0  0
    2.1420   -0.4234    0.5654 C   0  0  0  0  0  0  0  0  0  0  0  0
    3.6513    0.0205   -1.3123 C   0  0  0  0  0  0  0  0  0  0  0  0
    2.4445    0.8499    1.0949 C   0  0  0  0  0  0  0  0  0  0  0  0
    3.9332    1.2753   -0.7666 C   0  0  0  0  0  0  0  0  0  0  0  0
    3.3389    1.6867    0.4212 C   0  0  0  0  0  0  0  0  0  0  0  0
   -0.4590    3.3301    0.4848 C   0  0  0  0  0  0  0  0  0  0  0  0
   -4.0908   -0.7823   -0.3210 H   0  0  0  0  0  0  0  0  0  0  0  0
   -2.2753    0.0052    1.2042 H   0  0  0  0  0  0  0  0  0  0  0  0
   -3.6742    2.2462   -0.6817 H   0  0  0  0  0  0  0  0  0  0  0  0
   -4.2832    1.4813    0.8035 H   0  0  0  0  0  0  0  0  0  0  0  0
   -5.1974    1.3586   -0.7029 H   0  0  0  0  0  0  0  0  0  0  0  0
   -2.7640   -0.9500   -2.4372 H   0  0  0  0  0  0  0  0  0  0  0  0
   -4.2650   -0.0474   -2.6397 H   0  0  0  0  0  0  0  0  0  0  0  0
   -2.7331    0.8205   -2.5545 H   0  0  0  0  0  0  0  0  0  0  0  0
   -1.5752   -4.4332    0.2589 H   0  0  0  0  0  0  0  0  0  0  0  0
   -0.9344   -3.4845   -1.0691 H   0  0  0  0  0  0  0  0  0  0  0  0
    0.3090   -3.7448    1.7406 H   0  0  0  0  0  0  0  0  0  0  0  0
    0.9025   -4.5543    0.2940 H   0  0  0  0  0  0  0  0  0  0  0  0
   -1.8761    2.1225    1.3730 H   0  0  0  0  0  0  0  0  0  0  0  0
    4.1188   -0.2939   -2.2403 H   0  0  0  0  0  0  0  0  0  0  0  0
    1.9840    1.1822    2.0209 H   0  0  0  0  0  0  0  0  0  0  0  0
    4.6260    1.9378   -1.2790 H   0  0  0  0  0  0  0  0  0  0  0  0
    3.5687    2.6668    0.8298 H   0  0  0  0  0  0  0  0  0  0  0  0
   -0.2691    5.1215    1.5584 H   0  0  0  0  0  0  0  0  0  0  0  0
   -1.4363    4.0239    2.2131 H   0  0  0  0  0  0  0  0  0  0  0  0
  1 17  1  0  0  0  0
  1 18  1  0  0  0  0
  2 10  1  0  0  0  0
  2 16  1  0  0  0  0
  3 13  2  0  0  0  0
  4 16  2  0  0  0  0
  5 24  2  0  0  0  0
  6 13  1  0  0  0  0
  6 24  1  0  0  0  0
  6 37  1  0  0  0  0
  7 17  2  0  0  0  0
  7 19  1  0  0  0  0
  8 24  1  0  0  0  0
  8 42  1  0  0  0  0
  8 43  1  0  0  0  0
  9 10  1  0  0  0  0
  9 11  1  0  0  0  0
  9 12  1  0  0  0  0
  9 25  1  0  0  0  0
 10 13  1  0  0  0  0
 10 26  1  0  0  0  0
 11 27  1  0  0  0  0
 11 28  1  0  0  0  0
 11 29  1  0  0  0  0
 12 30  1  0  0  0  0
 12 31  1  0  0  0  0
 12 32  1  0  0  0  0
 14 15  1  0  0  0  0
 14 16  1  0  0  0  0
 14 33  1  0  0  0  0
 14 34  1  0  0  0  0
 15 17  1  0  0  0  0
 15 35  1  0  0  0  0
 15 36  1  0  0  0  0
 18 19  1  0  0  0  0
 18 20  2  0  0  0  0
 19 21  2  0  0  0  0
 20 22  1  0  0  0  0
 20 38  1  0  0  0  0
 21 23  1  0  0  0  0
 21 39  1  0  0  0  0
 22 23  2  0  0  0  0
 22 40  1  0  0  0  0
 23 41  1  0  0  0  0
M  END
> <PUBCHEM_COMPOUND_CID>
7846980

> <PUBCHEM_CONFORMER_RMSD>
1

> <PUBCHEM_CONFORMER_DIVERSEORDER>
2
263
211
36
150
20
99
97
167
191
12
83
249
137
131
71
141
172
161
23
224
186
123
160
238
107
241
6
25
259
92
87
54
116
27
113
214
197
154
162
225
11
29
222
168
221
17
243
210
115
86
37
28
207
215
5
187
256
16
62
136
264
101
104
9
130
132
155
228
48
163
268
76
270
183
213
147
80
142
251
49
45
185
91
189
242
110
129
72
94
158
75
127
70
219
60
200
257
266
13
118
4
39
122
103
55
194
196
166
165
46
26
40
15
267
184
134
192
74
247
201
3
209
121
145
252
223
188
212
81
19
31
248
146
67
124
32
59
177
237
217
63
181
57
149
85
156
138
61
139
82
68
98
58
153
100
21
96
35
246
204
42
199
8
79
114
84
117
30
120
220
143
133
245
190
148
53
240
69
244
140
78
235
229
33
66
73
65
34
38
178
180
234
254
151
182
125
90
108
43
106
126
179
111
95
52
171
193
51
50
227
230
157
144
7
119
47
135
112
176
93
159
56
231
233
164
175
195
170
236
253
18
173
24
77
10
64
250
105
269
109
1
261
262
232
216
22
203
226
152
174
206
128
14
102
41
258
265
255
169
44
205
89
88
208
260
198
218
239
202

> <PUBCHEM_MMFF94_PARTIAL_CHARGES>
28
1 -0.08
10 0.34
13 0.57
14 0.06
15 0.18
16 0.66
17 0.2
18 0.04
19 0.23
2 -0.43
20 -0.15
21 -0.15
22 -0.15
23 -0.15
24 0.69
3 -0.57
37 0.37
38 0.15
39 0.15
4 -0.57
40 0.15
41 0.15
42 0.37
43 0.37
5 -0.57
6 -0.49
7 -0.57
8 -0.8

> <PUBCHEM_EFFECTIVE_ROTOR_COUNT>
9

> <PUBCHEM_PHARMACOPHORE_FEATURES>
9
1 3 acceptor
1 4 acceptor
1 5 acceptor
1 6 donor
1 7 acceptor
1 8 donor
3 9 11 12 hydrophobe
5 1 7 17 18 19 rings
6 18 19 20 21 22 23 rings

> <PUBCHEM_HEAVY_ATOM_COUNT>
24

> <PUBCHEM_ATOM_DEF_STEREO_COUNT>
1

> <PUBCHEM_ATOM_UDEF_STEREO_COUNT>
0

> <PUBCHEM_BOND_DEF_STEREO_COUNT>
0

> <PUBCHEM_BOND_UDEF_STEREO_COUNT>
0

> <PUBCHEM_ISOTOPIC_ATOM_COUNT>
0

> <PUBCHEM_COMPONENT_COUNT>
1

> <PUBCHEM_CACTVS_TAUTO_COUNT>
10

> <PUBCHEM_CONFORMER_ID>
0077BC4400000002

> <PUBCHEM_MMFF94_ENERGY>
39.5376

> <PUBCHEM_FEATURE_SELFOVERLAP>
45.794

> <PUBCHEM_SHAPE_FINGERPRINT>
10498660 4 18412543189091788334
10675989 125 18124056755828653237
12553582 1 18408889533433163681
12788726 201 18189616218744652377
13122387 1 17114100526090659668
13140716 1 18342179993986127427
13544592 271 18338809896309551907
14790565 3 18339347635217305121
192875 21 18053405454062438130
19930381 70 18339365266162673339
20465049 17 17326021436520659772
20600515 1 18339095795414411272
20715895 44 17412215374653908917
20775438 99 17106820161414180799
21141583 151 18265889160280080744
23419403 2 17045177115933743998
23557571 272 18195232340061867158
23558518 356 18048034365561912197
23559900 14 18409727327919721124
238 59 18195806499331597027
2748010 2 16973082090918720867
350125 39 17979916338865992972
5312544 6 17906730650599791745
56638632 10 18189598476904549313
81228 2 18335987587458617889

> <PUBCHEM_SHAPE_MULTIPOLES>
459.34
6.19
4.95
1.39
0.35
0.82
0.29
1.58
2.11
0.62
-1.85
0.26
0.03
0.2

> <PUBCHEM_SHAPE_SELFOVERLAP>
949.189

> <PUBCHEM_SHAPE_VOLUME>
263.7

> <PUBCHEM_COORDINATE_TYPE>
2
5
10

$$$$

