4206
  -OEChem-06251223573D

 62 62  0     1  0  0  0  0  0999 V2000
    4.0636    3.7951    1.2533 O   0  0  0  0  0  0  0  0  0  0  0  0
    0.9154    3.6479   -1.4950 O   0  0  0  0  0  0  0  0  0  0  0  0
    3.2043   -3.5055    1.3500 O   0  0  0  0  0  0  0  0  0  0  0  0
   -8.2948    0.6869    0.1509 O   0  0  0  0  0  0  0  0  0  0  0  0
   -6.9225   -1.0863   -0.2083 O   0  0  0  0  0  0  0  0  0  0  0  0
    1.5854    2.2735    0.3920 C   0  0  2  0  0  0  0  0  0  0  0  0
    2.9997    1.6977    0.6274 C   0  0  2  0  0  0  0  0  0  0  0  0
    3.9345    2.8415    0.2007 C   0  0  1  0  0  0  0  0  0  0  0  0
    3.2745    3.4865   -1.0193 C   0  0  0  0  0  0  0  0  0  0  0  0
    0.4756    1.2618    0.1671 C   0  0  0  0  0  0  0  0  0  0  0  0
    1.8106    3.1886   -0.7963 C   0  0  0  0  0  0  0  0  0  0  0  0
    3.3143    0.4487   -0.1420 C   0  0  0  0  0  0  0  0  0  0  0  0
   -0.9063    1.8948    0.3416 C   0  0  0  0  0  0  0  0  0  0  0  0
   -2.0185    0.8616    0.1511 C   0  0  0  0  0  0  0  0  0  0  0  0
    3.6714   -0.7103    0.4301 C   0  0  0  0  0  0  0  0  0  0  0  0
    3.0682   -3.1650   -0.0330 C   0  0  2  0  0  0  0  0  0  0  0  0
    3.9934   -1.9611   -0.3435 C   0  0  0  0  0  0  0  0  0  0  0  0
   -3.4261    1.4448    0.3078 C   0  0  0  0  0  0  0  0  0  0  0  0
    1.6004   -2.7427   -0.2914 C   0  0  0  0  0  0  0  0  0  0  0  0
    3.4520   -4.4012   -0.8535 C   0  0  0  0  0  0  0  0  0  0  0  0
    0.5574   -3.8344   -0.0170 C   0  0  0  0  0  0  0  0  0  0  0  0
   -4.5817    0.4605    0.1054 C   0  0  0  0  0  0  0  0  0  0  0  0
   -0.8500   -3.3555   -0.3801 C   0  0  0  0  0  0  0  0  0  0  0  0
   -5.9605    1.1095    0.2188 C   0  0  0  0  0  0  0  0  0  0  0  0
   -1.8869   -4.4419   -0.1426 C   0  0  0  0  0  0  0  0  0  0  0  0
   -7.0735    0.1045    0.0258 C   0  0  0  0  0  0  0  0  0  0  0  0
    1.3395    2.9245    1.2421 H   0  0  0  0  0  0  0  0  0  0  0  0
    3.1136    1.5041    1.7024 H   0  0  0  0  0  0  0  0  0  0  0  0
    4.9458    2.4919   -0.0354 H   0  0  0  0  0  0  0  0  0  0  0  0
    3.4360    4.5659   -1.0689 H   0  0  0  0  0  0  0  0  0  0  0  0
    3.5843    2.9957   -1.9463 H   0  0  0  0  0  0  0  0  0  0  0  0
    0.5465    0.8198   -0.8345 H   0  0  0  0  0  0  0  0  0  0  0  0
    0.5735    0.4466    0.8944 H   0  0  0  0  0  0  0  0  0  0  0  0
    3.2403    0.4968   -1.2261 H   0  0  0  0  0  0  0  0  0  0  0  0
   -1.0564    2.7090   -0.3738 H   0  0  0  0  0  0  0  0  0  0  0  0
   -0.9887    2.3305    1.3450 H   0  0  0  0  0  0  0  0  0  0  0  0
   -1.9292    0.4126   -0.8459 H   0  0  0  0  0  0  0  0  0  0  0  0
   -1.8887    0.0489    0.8763 H   0  0  0  0  0  0  0  0  0  0  0  0
    3.7524   -0.7691    1.5125 H   0  0  0  0  0  0  0  0  0  0  0  0
    5.0280   -2.2309   -0.0936 H   0  0  0  0  0  0  0  0  0  0  0  0
    3.9750   -1.7578   -1.4221 H   0  0  0  0  0  0  0  0  0  0  0  0
    4.6342    4.5123    0.9285 H   0  0  0  0  0  0  0  0  0  0  0  0
   -3.5422    2.2698   -0.4067 H   0  0  0  0  0  0  0  0  0  0  0  0
   -3.5141    1.8883    1.3078 H   0  0  0  0  0  0  0  0  0  0  0  0
    1.4990   -2.4022   -1.3301 H   0  0  0  0  0  0  0  0  0  0  0  0
    1.3367   -1.8976    0.3555 H   0  0  0  0  0  0  0  0  0  0  0  0
    4.5207   -4.6180   -0.7395 H   0  0  0  0  0  0  0  0  0  0  0  0
    3.2474   -4.2558   -1.9189 H   0  0  0  0  0  0  0  0  0  0  0  0
    2.9291   -5.2984   -0.5067 H   0  0  0  0  0  0  0  0  0  0  0  0
    0.5899   -4.1254    1.0394 H   0  0  0  0  0  0  0  0  0  0  0  0
    0.7789   -4.7282   -0.6095 H   0  0  0  0  0  0  0  0  0  0  0  0
   -4.4944   -0.3485    0.8417 H   0  0  0  0  0  0  0  0  0  0  0  0
   -4.4819   -0.0095   -0.8813 H   0  0  0  0  0  0  0  0  0  0  0  0
    4.1328   -3.7477    1.5081 H   0  0  0  0  0  0  0  0  0  0  0  0
   -1.1082   -2.4737    0.2179 H   0  0  0  0  0  0  0  0  0  0  0  0
   -0.8822   -3.0538   -1.4335 H   0  0  0  0  0  0  0  0  0  0  0  0
   -6.0673    1.8889   -0.5434 H   0  0  0  0  0  0  0  0  0  0  0  0
   -6.0754    1.5605    1.2105 H   0  0  0  0  0  0  0  0  0  0  0  0
   -1.6771   -5.3254   -0.7539 H   0  0  0  0  0  0  0  0  0  0  0  0
   -1.9019   -4.7464    0.9088 H   0  0  0  0  0  0  0  0  0  0  0  0
   -2.8848   -4.0765   -0.4047 H   0  0  0  0  0  0  0  0  0  0  0  0
   -9.0222    0.0400    0.0295 H   0  0  0  0  0  0  0  0  0  0  0  0
  1  8  1  0  0  0  0
  1 42  1  0  0  0  0
  2 11  2  0  0  0  0
  3 16  1  0  0  0  0
  3 54  1  0  0  0  0
  4 26  1  0  0  0  0
  4 62  1  0  0  0  0
  5 26  2  0  0  0  0
  6  7  1  0  0  0  0
  6 10  1  0  0  0  0
  6 11  1  0  0  0  0
  6 27  1  0  0  0  0
  7  8  1  0  0  0  0
  7 12  1  0  0  0  0
  7 28  1  0  0  0  0
  8  9  1  0  0  0  0
  8 29  1  0  0  0  0
  9 11  1  0  0  0  0
  9 30  1  0  0  0  0
  9 31  1  0  0  0  0
 10 13  1  0  0  0  0
 10 32  1  0  0  0  0
 10 33  1  0  0  0  0
 12 15  2  0  0  0  0
 12 34  1  0  0  0  0
 13 14  1  0  0  0  0
 13 35  1  0  0  0  0
 13 36  1  0  0  0  0
 14 18  1  0  0  0  0
 14 37  1  0  0  0  0
 14 38  1  0  0  0  0
 15 17  1  0  0  0  0
 15 39  1  0  0  0  0
 16 17  1  0  0  0  0
 16 19  1  0  0  0  0
 16 20  1  0  0  0  0
 17 40  1  0  0  0  0
 17 41  1  0  0  0  0
 18 22  1  0  0  0  0
 18 43  1  0  0  0  0
 18 44  1  0  0  0  0
 19 21  1  0  0  0  0
 19 45  1  0  0  0  0
 19 46  1  0  0  0  0
 20 47  1  0  0  0  0
 20 48  1  0  0  0  0
 20 49  1  0  0  0  0
 21 23  1  0  0  0  0
 21 50  1  0  0  0  0
 21 51  1  0  0  0  0
 22 24  1  0  0  0  0
 22 52  1  0  0  0  0
 22 53  1  0  0  0  0
 23 25  1  0  0  0  0
 23 55  1  0  0  0  0
 23 56  1  0  0  0  0
 24 26  1  0  0  0  0
 24 57  1  0  0  0  0
 24 58  1  0  0  0  0
 25 59  1  0  0  0  0
 25 60  1  0  0  0  0
 25 61  1  0  0  0  0
M  END
> <PUBCHEM_COMPOUND_CID>
4206

> <PUBCHEM_CONFORMER_RMSD>
1.6

> <PUBCHEM_CONFORMER_DIVERSEORDER>
1
79
103
88
50
21
85
115
56
12
33
90
47
16
23
65
77
22
93
34
80
99
117
24
84
63
109
95
13
76
78
8
116
18
86
114
57
71
36
87
42
96
48
51
83
60
43
31
46
4
37
107
98
54
81
75
89
35
104
2
82
66
68
53
6
110
3
70
19
112
29
32
52
102
7
41
25
106
105
39
14
101
92
28
49
97
64
40
59
72
20
11
94
9
55
62
10
26
108
74
17
113
69
15
27
58
45
111
38
91
73
30
61
100
5
67
44

> <PUBCHEM_MMFF94_PARTIAL_CHARGES>
21
1 -0.68
11 0.45
12 -0.29
15 -0.29
16 0.28
17 0.14
2 -0.57
24 0.06
26 0.66
3 -0.68
34 0.15
39 0.15
4 -0.65
42 0.4
5 -0.57
54 0.4
6 0.06
62 0.5
7 0.14
8 0.28
9 0.06

> <PUBCHEM_EFFECTIVE_ROTOR_COUNT>
13.8

> <PUBCHEM_PHARMACOPHORE_FEATURES>
12
1 1 acceptor
1 1 donor
1 2 acceptor
1 25 hydrophobe
1 3 acceptor
1 3 donor
1 4 acceptor
1 5 acceptor
3 10 13 14 hydrophobe
3 18 22 24 hydrophobe
3 4 5 26 anion
5 6 7 8 9 11 rings

> <PUBCHEM_HEAVY_ATOM_COUNT>
26

> <PUBCHEM_ATOM_DEF_STEREO_COUNT>
0

> <PUBCHEM_ATOM_UDEF_STEREO_COUNT>
4

> <PUBCHEM_BOND_DEF_STEREO_COUNT>
0

> <PUBCHEM_BOND_UDEF_STEREO_COUNT>
1

> <PUBCHEM_ISOTOPIC_ATOM_COUNT>
0

> <PUBCHEM_COMPONENT_COUNT>
1

> <PUBCHEM_CACTVS_TAUTO_COUNT>
3

> <PUBCHEM_CONFORMER_ID>
0000106E00000001

> <PUBCHEM_MMFF94_ENERGY>
30.6311

> <PUBCHEM_FEATURE_SELFOVERLAP>
60.95

> <PUBCHEM_SHAPE_FINGERPRINT>
10316853 100 18411697707753117555
1100329 8 18409449185526765874
13140716 1 18337402526638889712
13383661 66 17318160993925114566
13533116 47 18334574651045986521
1361 2 18412261731606066393
13785724 45 17973715071942304053
15420108 30 17623573043147402196
15483637 11 18194683653589990123
15876981 60 9835141397597974541
15927050 60 18263363590651133887
16067689 302 18264206921399080415
19427546 62 18122626059330665720
20028762 73 18114744953361635087
20645477 70 18343022202718253273
21197605 99 18337388224081919379
338550 245 18339080380955640479
3421961 26 18339080501056832800
46194498 28 18060419127351838525
5047190 2 18261126157956858199
5309563 4 18051129486430510630
53794403 172 18411976940630026511
6025842 7 18411978040342458412
653340 110 17686911514133779304

> <PUBCHEM_SHAPE_MULTIPOLES>
505.72
14.29
7.3
0.92
41.44
5.18
-0.04
-2.21
0.78
-9.66
-1
-0.78
-0.37
-0.12

> <PUBCHEM_SHAPE_SELFOVERLAP>
988.054

> <PUBCHEM_SHAPE_VOLUME>
305

> <PUBCHEM_COORDINATE_TYPE>
2
5
10

$$$$

