3921
  -OEChem-06251223462D

 25 25  0     0  0  0  0  0  0999 V2000
    2.0000   -1.0000    0.0000 Br  0  0  0  0  0  0  0  0  0  0  0  0
    5.4641   -3.0000    0.0000 Br  0  0  0  0  0  0  0  0  0  0  0  0
    5.4641    0.0000    0.0000 O   0  0  0  0  0  0  0  0  0  0  0  0
    6.3301    1.5000    0.0000 O   0  0  0  0  0  0  0  0  0  0  0  0
    3.7320    0.0000    0.0000 N   0  0  0  0  0  0  0  0  0  0  0  0
    2.8660    2.5000    0.0000 N   0  0  0  0  0  0  0  0  0  0  0  0
    3.7320   -1.0000    0.0000 C   0  0  0  0  0  0  0  0  0  0  0  0
    2.8660   -1.5000    0.0000 C   0  0  0  0  0  0  0  0  0  0  0  0
    4.5981   -1.5000    0.0000 C   0  0  0  0  0  0  0  0  0  0  0  0
    4.5981    0.5000    0.0000 C   0  0  0  0  0  0  0  0  0  0  0  0
    4.5981   -2.5000    0.0000 C   0  0  0  0  0  0  0  0  0  0  0  0
    2.8660   -2.5000    0.0000 C   0  0  0  0  0  0  0  0  0  0  0  0
    3.7320   -3.0000    0.0000 C   0  0  0  0  0  0  0  0  0  0  0  0
    4.5981    1.5000    0.0000 C   0  0  0  0  0  0  0  0  0  0  0  0
    5.4641    2.0000    0.0000 C   0  0  0  0  0  0  0  0  0  0  0  0
    5.4641    3.0000    0.0000 C   0  0  0  0  0  0  0  0  0  0  0  0
    3.7320    2.0000    0.0000 C   0  0  0  0  0  0  0  0  0  0  0  0
    3.1951    0.3100    0.0000 H   0  0  0  0  0  0  0  0  0  0  0  0
    5.1350   -1.1900    0.0000 H   0  0  0  0  0  0  0  0  0  0  0  0
    2.3291   -2.8100    0.0000 H   0  0  0  0  0  0  0  0  0  0  0  0
    3.7320   -3.6200    0.0000 H   0  0  0  0  0  0  0  0  0  0  0  0
    6.0841    3.0000    0.0000 H   0  0  0  0  0  0  0  0  0  0  0  0
    5.4641    3.6200    0.0000 H   0  0  0  0  0  0  0  0  0  0  0  0
    4.8441    3.0000    0.0000 H   0  0  0  0  0  0  0  0  0  0  0  0
    6.0010    0.3100    0.0000 H   0  0  0  0  0  0  0  0  0  0  0  0
  1  8  1  0  0  0  0
  2 11  1  0  0  0  0
  3 10  1  0  0  0  0
  3 25  1  0  0  0  0
  4 15  2  0  0  0  0
  5  7  1  0  0  0  0
  5 10  1  0  0  0  0
  5 18  1  0  0  0  0
  6 17  3  0  0  0  0
  7  8  2  0  0  0  0
  7  9  1  0  0  0  0
  8 12  1  0  0  0  0
  9 11  2  0  0  0  0
  9 19  1  0  0  0  0
 10 14  2  3  0  0  0
 11 13  1  0  0  0  0
 12 13  2  0  0  0  0
 12 20  1  0  0  0  0
 13 21  1  0  0  0  0
 14 15  1  0  0  0  0
 14 17  1  0  0  0  0
 15 16  1  0  0  0  0
 16 22  1  0  0  0  0
 16 23  1  0  0  0  0
 16 24  1  0  0  0  0
M  END
> <PUBCHEM_COMPOUND_CID>
3921

> <PUBCHEM_COMPOUND_CANONICALIZED>
1

> <PUBCHEM_CACTVS_COMPLEXITY>
386

> <PUBCHEM_CACTVS_HBOND_ACCEPTOR>
4

> <PUBCHEM_CACTVS_HBOND_DONOR>
2

> <PUBCHEM_CACTVS_ROTATABLE_BOND>
3

> <PUBCHEM_CACTVS_SUBSKEYS>
AAADccBzMAAAGAAAAAAAAAAAAAAAAAAAAAAwAAAAAAAAAAABAAAAHgBQCAABrAyBkAAywILAAgCYBqRSQACiAAAhIgQIiAEAZOkIoCLAkZGEIAhgkABIyl8QAAAAAAAEAAEAAAgAAAgAAgAAEAAAAAAAAA==

> <PUBCHEM_IUPAC_OPENEYE_NAME>
2-[(2,5-dibromoanilino)-hydroxy-methylene]-3-oxo-butanenitrile

> <PUBCHEM_IUPAC_CAS_NAME>
2-[(2,5-dibromoanilino)-hydroxymethylidene]-3-oxobutanenitrile

> <PUBCHEM_IUPAC_NAME>
2-[(2,5-dibromoanilino)-hydroxymethylidene]-3-oxobutanenitrile

> <PUBCHEM_IUPAC_SYSTEMATIC_NAME>
2-[[[2,5-bis(bromanyl)phenyl]amino]-oxidanyl-methylidene]-3-oxidanylidene-butanenitrile

> <PUBCHEM_IUPAC_TRADITIONAL_NAME>
2-acetyl-3-(2,5-dibromoanilino)-3-hydroxy-acrylonitrile

> <PUBCHEM_IUPAC_INCHI>
InChI=1S/C11H8Br2N2O2/c1-6(16)8(5-14)11(17)15-10-4-7(12)2-3-9(10)13/h2-4,15,17H,1H3

> <PUBCHEM_IUPAC_INCHIKEY>
OMBMLIOEEPBTNU-UHFFFAOYSA-N

> <PUBCHEM_XLOGP3_AA>
4

> <PUBCHEM_EXACT_MASS>
359.893205

> <PUBCHEM_MOLECULAR_FORMULA>
C11H8Br2N2O2

> <PUBCHEM_MOLECULAR_WEIGHT>
360.00142

> <PUBCHEM_OPENEYE_CAN_SMILES>
CC(=O)C(=C(NC1=C(C=CC(=C1)Br)Br)O)C#N

> <PUBCHEM_OPENEYE_ISO_SMILES>
CC(=O)C(=C(NC1=C(C=CC(=C1)Br)Br)O)C#N

> <PUBCHEM_CACTVS_TPSA>
73.1

> <PUBCHEM_MONOISOTOPIC_WEIGHT>
357.895252

> <PUBCHEM_TOTAL_CHARGE>
0

> <PUBCHEM_HEAVY_ATOM_COUNT>
17

> <PUBCHEM_ATOM_DEF_STEREO_COUNT>
0

> <PUBCHEM_ATOM_UDEF_STEREO_COUNT>
0

> <PUBCHEM_BOND_DEF_STEREO_COUNT>
0

> <PUBCHEM_BOND_UDEF_STEREO_COUNT>
1

> <PUBCHEM_ISOTOPIC_ATOM_COUNT>
0

> <PUBCHEM_COMPONENT_COUNT>
1

> <PUBCHEM_CACTVS_TAUTO_COUNT>
8

> <PUBCHEM_COORDINATE_TYPE>
1
5
255

> <PUBCHEM_BONDANNOTATIONS>
10  14  1
11  13  8
12  13  8
7  8  8
7  9  8
8  12  8
9  11  8

$$$$

