17395758
  -OEChem-06241222523D

 54 55  0     1  0  0  0  0  0999 V2000
   -1.6294    3.6579   -0.2686 S   0  0  0  0  0  0  0  0  0  0  0  0
    1.2621    3.1343    0.5999 S   0  0  0  0  0  0  0  0  0  0  0  0
   -5.4394   -2.4254   -0.0574 O   0  0  0  0  0  0  0  0  0  0  0  0
   -4.7107   -1.3330   -1.9538 O   0  0  0  0  0  0  0  0  0  0  0  0
   -4.2487    2.1279    0.5395 O   0  0  0  0  0  0  0  0  0  0  0  0
   -3.2210    0.3314   -0.5197 N   0  0  0  0  0  0  0  0  0  0  0  0
    3.2073    1.3143    0.4336 N   0  0  0  0  0  0  0  0  0  0  0  0
   -0.1142    1.4773   -0.7884 N   0  0  0  0  0  0  0  0  0  0  0  0
    1.1209    0.8793   -0.6086 N   0  0  0  0  0  0  0  0  0  0  0  0
   -1.6576   -0.9075    1.6098 C   0  0  0  0  0  0  0  0  0  0  0  0
   -2.8242   -1.6400    0.9169 C   0  0  0  0  0  0  0  0  0  0  0  0
   -3.8443   -0.7223    0.2380 C   0  0  2  0  0  0  0  0  0  0  0  0
   -0.6428   -1.8750    2.2207 C   0  0  0  0  0  0  0  0  0  0  0  0
   -2.2041    0.0211    2.6977 C   0  0  0  0  0  0  0  0  0  0  0  0
   -4.6850   -1.5157   -0.7435 C   0  0  0  0  0  0  0  0  0  0  0  0
   -3.4760    1.6791   -0.3056 C   0  0  0  0  0  0  0  0  0  0  0  0
   -2.7111    2.5841   -1.2426 C   0  0  0  0  0  0  0  0  0  0  0  0
    5.3302    0.2359   -0.1331 C   0  0  0  0  0  0  0  0  0  0  0  0
    3.9643    0.1500    0.1359 C   0  0  0  0  0  0  0  0  0  0  0  0
   -6.3265   -3.2170   -0.8540 C   0  0  0  0  0  0  0  0  0  0  0  0
    5.4193   -2.1580   -0.4458 C   0  0  0  0  0  0  0  0  0  0  0  0
    6.0577   -0.9180   -0.4239 C   0  0  0  0  0  0  0  0  0  0  0  0
    3.3257   -1.0900    0.1141 C   0  0  0  0  0  0  0  0  0  0  0  0
    4.0533   -2.2439   -0.1768 C   0  0  0  0  0  0  0  0  0  0  0  0
    6.0393    1.5510   -0.1164 C   0  0  0  0  0  0  0  0  0  0  0  0
   -0.1737    2.6571   -0.2084 C   0  0  0  0  0  0  0  0  0  0  0  0
    1.9322    1.6373    0.0977 C   0  0  0  0  0  0  0  0  0  0  0  0
    6.1966   -3.3921   -0.7570 C   0  0  0  0  0  0  0  0  0  0  0  0
   -1.1188   -0.3037    0.8743 H   0  0  0  0  0  0  0  0  0  0  0  0
   -2.3939   -2.3163    0.1648 H   0  0  0  0  0  0  0  0  0  0  0  0
   -3.3390   -2.2890    1.6378 H   0  0  0  0  0  0  0  0  0  0  0  0
   -4.5220   -0.2817    0.9779 H   0  0  0  0  0  0  0  0  0  0  0  0
   -1.1064   -2.5047    2.9875 H   0  0  0  0  0  0  0  0  0  0  0  0
    0.1875   -1.3303    2.6825 H   0  0  0  0  0  0  0  0  0  0  0  0
   -0.2247   -2.5314    1.4504 H   0  0  0  0  0  0  0  0  0  0  0  0
   -2.7886   -0.5374    3.4371 H   0  0  0  0  0  0  0  0  0  0  0  0
   -2.8372    0.8128    2.2957 H   0  0  0  0  0  0  0  0  0  0  0  0
   -1.3810    0.5133    3.2279 H   0  0  0  0  0  0  0  0  0  0  0  0
   -2.5885    0.0614   -1.2677 H   0  0  0  0  0  0  0  0  0  0  0  0
   -2.1768    2.0381   -2.0248 H   0  0  0  0  0  0  0  0  0  0  0  0
   -3.4485    3.2140   -1.7522 H   0  0  0  0  0  0  0  0  0  0  0  0
   -7.0517   -2.5757   -1.3640 H   0  0  0  0  0  0  0  0  0  0  0  0
   -5.7585   -3.8102   -1.5770 H   0  0  0  0  0  0  0  0  0  0  0  0
   -6.8657   -3.8967   -0.1889 H   0  0  0  0  0  0  0  0  0  0  0  0
    7.1227   -0.8564   -0.6353 H   0  0  0  0  0  0  0  0  0  0  0  0
    2.2691   -1.1942    0.3436 H   0  0  0  0  0  0  0  0  0  0  0  0
    3.5451   -3.2046   -0.1872 H   0  0  0  0  0  0  0  0  0  0  0  0
    3.7573    2.0393    0.8865 H   0  0  0  0  0  0  0  0  0  0  0  0
    5.5421    2.2683   -0.7780 H   0  0  0  0  0  0  0  0  0  0  0  0
    6.0709    1.9550    0.9008 H   0  0  0  0  0  0  0  0  0  0  0  0
    7.0737    1.4594   -0.4660 H   0  0  0  0  0  0  0  0  0  0  0  0
    6.2284   -3.5530   -1.8392 H   0  0  0  0  0  0  0  0  0  0  0  0
    7.2229   -3.3158   -0.3819 H   0  0  0  0  0  0  0  0  0  0  0  0
    5.7483   -4.2732   -0.2856 H   0  0  0  0  0  0  0  0  0  0  0  0
  1 17  1  0  0  0  0
  1 26  1  0  0  0  0
  2 26  1  0  0  0  0
  2 27  1  0  0  0  0
  3 15  1  0  0  0  0
  3 20  1  0  0  0  0
  4 15  2  0  0  0  0
  5 16  2  0  0  0  0
  6 12  1  0  0  0  0
  6 16  1  0  0  0  0
  6 39  1  0  0  0  0
  7 19  1  0  0  0  0
  7 27  1  0  0  0  0
  7 48  1  0  0  0  0
  8  9  1  0  0  0  0
  8 26  2  0  0  0  0
  9 27  2  0  0  0  0
 10 11  1  0  0  0  0
 10 13  1  0  0  0  0
 10 14  1  0  0  0  0
 10 29  1  0  0  0  0
 11 12  1  0  0  0  0
 11 30  1  0  0  0  0
 11 31  1  0  0  0  0
 12 15  1  0  0  0  0
 12 32  1  0  0  0  0
 13 33  1  0  0  0  0
 13 34  1  0  0  0  0
 13 35  1  0  0  0  0
 14 36  1  0  0  0  0
 14 37  1  0  0  0  0
 14 38  1  0  0  0  0
 16 17  1  0  0  0  0
 17 40  1  0  0  0  0
 17 41  1  0  0  0  0
 18 19  2  0  0  0  0
 18 22  1  0  0  0  0
 18 25  1  0  0  0  0
 19 23  1  0  0  0  0
 20 42  1  0  0  0  0
 20 43  1  0  0  0  0
 20 44  1  0  0  0  0
 21 22  2  0  0  0  0
 21 24  1  0  0  0  0
 21 28  1  0  0  0  0
 22 45  1  0  0  0  0
 23 24  2  0  0  0  0
 23 46  1  0  0  0  0
 24 47  1  0  0  0  0
 25 49  1  0  0  0  0
 25 50  1  0  0  0  0
 25 51  1  0  0  0  0
 28 52  1  0  0  0  0
 28 53  1  0  0  0  0
 28 54  1  0  0  0  0
M  END
> <PUBCHEM_COMPOUND_CID>
17395758

> <PUBCHEM_CONFORMER_RMSD>
1.4

> <PUBCHEM_CONFORMER_DIVERSEORDER>
2
40
58
28
21
29
8
81
87
16
51
55
27
24
79
60
67
65
64
15
33
19
36
78
44
69
49
38
77
74
11
7
41
30
47
3
76
50
72
61
53
85
66
31
32
62
10
71
14
57
54
34
68
70
48
56
1
4
75
59
88
13
42
46
23
9
26
22
86
20
12
35
43
80
63
17
25
18
5
82
73
83
37
45
39
89
52
6
84

> <PUBCHEM_MMFF94_PARTIAL_CHARGES>
29
1 -0.29
12 0.36
15 0.66
16 0.57
17 0.29
18 -0.14
19 0.1
2 -0.08
20 0.28
21 -0.14
22 -0.15
23 -0.15
24 -0.15
25 0.14
26 0.43
27 0.46
28 0.14
3 -0.43
39 0.37
4 -0.57
45 0.15
46 0.15
47 0.15
48 0.4
5 -0.57
6 -0.73
7 -0.58
8 -0.34
9 -0.34

> <PUBCHEM_EFFECTIVE_ROTOR_COUNT>
11

> <PUBCHEM_PHARMACOPHORE_FEATURES>
9
1 4 acceptor
1 5 acceptor
1 6 donor
1 7 donor
1 8 acceptor
3 10 13 14 hydrophobe
3 7 9 27 cation
5 2 8 9 26 27 rings
6 18 19 21 22 23 24 rings

> <PUBCHEM_HEAVY_ATOM_COUNT>
28

> <PUBCHEM_ATOM_DEF_STEREO_COUNT>
0

> <PUBCHEM_ATOM_UDEF_STEREO_COUNT>
1

> <PUBCHEM_BOND_DEF_STEREO_COUNT>
0

> <PUBCHEM_BOND_UDEF_STEREO_COUNT>
0

> <PUBCHEM_ISOTOPIC_ATOM_COUNT>
0

> <PUBCHEM_COMPONENT_COUNT>
1

> <PUBCHEM_CACTVS_TAUTO_COUNT>
4

> <PUBCHEM_CONFORMER_ID>
0109702E00000002

> <PUBCHEM_MMFF94_ENERGY>
62.5483

> <PUBCHEM_FEATURE_SELFOVERLAP>
45.669

> <PUBCHEM_SHAPE_FINGERPRINT>
10693767 8 18047485430984148639
11186622 123 18200037377447216842
12166972 35 17968375641398355978
12596602 18 17022901208076341904
13402501 40 18341327876942861776
13533116 47 18192150404405042713
13989917 61 17907298750256242423
14251740 79 18199462349813780544
14681490 219 18342742909811411915
14931854 50 17989216940485720679
14950920 106 16805326548415610681
15082195 135 17988062441198769700
15322534 239 17986104326115138314
15361156 5 18199451307779773716
15880784 105 18259701224892803818
15927050 60 18125729130721227477
17627616 140 17700701923818871091
19315092 285 17460316543026011041
20775438 99 17617118909944694935
221357 26 18341615893028423571
23559900 14 18199193897173013045
4073 2 18272363222763966000
508706 21 18131628993349780163
513532 50 18268445537731412706
5283173 99 18201999988702405392
6431902 208 18411421700105887358
7970288 3 18193280693911484775
9709674 26 18343015606149386528

> <PUBCHEM_SHAPE_MULTIPOLES>
546.39
15.65
4.55
1.51
9.65
0.86
0.89
-14.01
-5.2
-1.77
-0.87
-1.83
-0.61
0.42

> <PUBCHEM_SHAPE_SELFOVERLAP>
1095.846

> <PUBCHEM_SHAPE_VOLUME>
323.6

> <PUBCHEM_COORDINATE_TYPE>
2
5
10

$$$$

