13690
  -OEChem-06241222403D

 37 37  0     0  0  0  0  0  0999 V2000
    2.1962   -0.7878   -1.4568 O   0  0  0  0  0  0  0  0  0  0  0  0
    1.5049   -1.3717    0.6835 N   0  0  0  0  0  0  0  0  0  0  0  0
   -2.8297    1.4899   -0.3318 C   0  0  0  0  0  0  0  0  0  0  0  0
   -2.8422    0.0455   -0.8503 C   0  0  0  0  0  0  0  0  0  0  0  0
   -1.6096    1.9387    0.4739 C   0  0  0  0  0  0  0  0  0  0  0  0
   -2.8854   -1.0504    0.2236 C   0  0  0  0  0  0  0  0  0  0  0  0
   -0.2829    1.7780   -0.2718 C   0  0  0  0  0  0  0  0  0  0  0  0
   -1.5350   -1.5071    0.7871 C   0  0  0  0  0  0  0  0  0  0  0  0
    0.8964    2.2480    0.5848 C   0  0  0  0  0  0  0  0  0  0  0  0
   -0.6394   -2.2034   -0.2448 C   0  0  0  0  0  0  0  0  0  0  0  0
    2.2599    1.9478   -0.0519 C   0  0  0  0  0  0  0  0  0  0  0  0
    0.7386   -2.5527    0.3205 C   0  0  0  0  0  0  0  0  0  0  0  0
    2.8628    0.6086    0.3790 C   0  0  0  0  0  0  0  0  0  0  0  0
    2.1654   -0.5835   -0.2450 C   0  0  0  0  0  0  0  0  0  0  0  0
   -3.7258    1.6523    0.2805 H   0  0  0  0  0  0  0  0  0  0  0  0
   -2.9324    2.1572   -1.1975 H   0  0  0  0  0  0  0  0  0  0  0  0
   -3.7607   -0.0571   -1.4444 H   0  0  0  0  0  0  0  0  0  0  0  0
   -2.0254   -0.1130   -1.5592 H   0  0  0  0  0  0  0  0  0  0  0  0
   -1.5800    1.4037    1.4286 H   0  0  0  0  0  0  0  0  0  0  0  0
   -1.7435    2.9975    0.7307 H   0  0  0  0  0  0  0  0  0  0  0  0
   -3.5236   -0.7203    1.0523 H   0  0  0  0  0  0  0  0  0  0  0  0
   -3.3799   -1.9300   -0.2088 H   0  0  0  0  0  0  0  0  0  0  0  0
   -0.3118    2.3585   -1.2019 H   0  0  0  0  0  0  0  0  0  0  0  0
   -0.1401    0.7359   -0.5569 H   0  0  0  0  0  0  0  0  0  0  0  0
   -1.0110   -0.6645    1.2415 H   0  0  0  0  0  0  0  0  0  0  0  0
   -1.7298   -2.2137    1.6043 H   0  0  0  0  0  0  0  0  0  0  0  0
    0.8431    1.8076    1.5876 H   0  0  0  0  0  0  0  0  0  0  0  0
    0.8064    3.3340    0.7151 H   0  0  0  0  0  0  0  0  0  0  0  0
   -1.1294   -3.1263   -0.5775 H   0  0  0  0  0  0  0  0  0  0  0  0
   -0.5099   -1.5772   -1.1323 H   0  0  0  0  0  0  0  0  0  0  0  0
    2.9570    2.7323    0.2694 H   0  0  0  0  0  0  0  0  0  0  0  0
    2.1967    2.0131   -1.1445 H   0  0  0  0  0  0  0  0  0  0  0  0
    0.6457   -3.1735    1.2175 H   0  0  0  0  0  0  0  0  0  0  0  0
    1.3100   -3.1137   -0.4272 H   0  0  0  0  0  0  0  0  0  0  0  0
    2.8763    0.5315    1.4719 H   0  0  0  0  0  0  0  0  0  0  0  0
    3.9094    0.5633    0.0533 H   0  0  0  0  0  0  0  0  0  0  0  0
    1.5267   -1.1135    1.6654 H   0  0  0  0  0  0  0  0  0  0  0  0
  1 14  2  0  0  0  0
  2 12  1  0  0  0  0
  2 14  1  0  0  0  0
  2 37  1  0  0  0  0
  3  4  1  0  0  0  0
  3  5  1  0  0  0  0
  3 15  1  0  0  0  0
  3 16  1  0  0  0  0
  4  6  1  0  0  0  0
  4 17  1  0  0  0  0
  4 18  1  0  0  0  0
  5  7  1  0  0  0  0
  5 19  1  0  0  0  0
  5 20  1  0  0  0  0
  6  8  1  0  0  0  0
  6 21  1  0  0  0  0
  6 22  1  0  0  0  0
  7  9  1  0  0  0  0
  7 23  1  0  0  0  0
  7 24  1  0  0  0  0
  8 10  1  0  0  0  0
  8 25  1  0  0  0  0
  8 26  1  0  0  0  0
  9 11  1  0  0  0  0
  9 27  1  0  0  0  0
  9 28  1  0  0  0  0
 10 12  1  0  0  0  0
 10 29  1  0  0  0  0
 10 30  1  0  0  0  0
 11 13  1  0  0  0  0
 11 31  1  0  0  0  0
 11 32  1  0  0  0  0
 12 33  1  0  0  0  0
 12 34  1  0  0  0  0
 13 14  1  0  0  0  0
 13 35  1  0  0  0  0
 13 36  1  0  0  0  0
M  END
> <PUBCHEM_COMPOUND_CID>
13690

> <PUBCHEM_CONFORMER_RMSD>
0.6

> <PUBCHEM_CONFORMER_DIVERSEORDER>
1
31
33
34
28
2
13
24
23
37
32
26
3
14
11
7
36
15
30
8
19
16
6
9
21
38
12
29
27
18
25
17
22
20
5
35
10
4

> <PUBCHEM_MMFF94_PARTIAL_CHARGES>
6
1 -0.57
12 0.3
13 0.06
14 0.57
2 -0.73
37 0.37

> <PUBCHEM_EFFECTIVE_ROTOR_COUNT>
2.4

> <PUBCHEM_PHARMACOPHORE_FEATURES>
2
1 1 acceptor
1 2 donor

> <PUBCHEM_HEAVY_ATOM_COUNT>
14

> <PUBCHEM_ATOM_DEF_STEREO_COUNT>
0

> <PUBCHEM_ATOM_UDEF_STEREO_COUNT>
0

> <PUBCHEM_BOND_DEF_STEREO_COUNT>
0

> <PUBCHEM_BOND_UDEF_STEREO_COUNT>
0

> <PUBCHEM_ISOTOPIC_ATOM_COUNT>
0

> <PUBCHEM_COMPONENT_COUNT>
1

> <PUBCHEM_CACTVS_TAUTO_COUNT>
2

> <PUBCHEM_CONFORMER_ID>
0000357A00000001

> <PUBCHEM_MMFF94_ENERGY>
11.42

> <PUBCHEM_FEATURE_SELFOVERLAP>
10.148

> <PUBCHEM_SHAPE_FINGERPRINT>
10759866 29 17845374341431529772
11987891 36 18410858720029789288
12382932 28 18049159960462643625
13618510 140 18340210674107592076
13897977 150 18340493356439611245
1420 336 17689436404952671923
14251711 518 18337399248745633295
14251717 144 18193281797760050111
14251745 187 18335428941067344640
15775835 57 18200871906339909045
16945 1 18267021850340522209
19930374 2 17911838744982389320
20201158 50 18410580552293752685
21249577 43 18339923697551912897
22721475 48 18339075965423428305
22802520 49 17971175169843797246
2334 1 18410572855628105209
23590187 152 17905055754713330024
2748010 2 18339921515571499889
2897 32 18411982489722380973
44154327 71 17694493750502996381
5262128 65 17895182359249361748
66348 1 18411419548363980657
8199 65 18410863173916007053

> <PUBCHEM_SHAPE_MULTIPOLES>
277.26
4.64
3.22
0.93
0.66
0.25
-0.14
-0.8
-0.47
-0.06
0.38
-0.07
0.12
0.36

> <PUBCHEM_SHAPE_SELFOVERLAP>
523.091

> <PUBCHEM_SHAPE_VOLUME>
169.9

> <PUBCHEM_COORDINATE_TYPE>
2
5
10

$$$$

