8408
  -OEChem-06261202483D

 24 25  0     0  0  0  0  0  0999 V2000
   -3.1764   -0.0966    0.0812 S   0  0  0  0  0  0  0  0  0  0  0  0
   -3.6290   -0.1614   -1.4885 O   0  0  0  0  0  0  0  0  0  0  0  0
   -3.4430   -1.4079    0.6543 O   0  0  0  0  0  0  0  0  0  0  0  0
   -3.7556    1.1013    0.6690 O   0  0  0  0  0  0  0  0  0  0  0  0
    3.3189    1.9739   -0.0343 N   0  0  0  0  0  0  0  0  0  0  0  0
    1.3365    0.5138    0.0044 C   0  0  0  0  0  0  0  0  0  0  0  0
    0.8005   -0.7959    0.0194 C   0  0  0  0  0  0  0  0  0  0  0  0
   -1.4463    0.1369    0.0503 C   0  0  0  0  0  0  0  0  0  0  0  0
   -0.5933   -0.9671    0.0422 C   0  0  0  0  0  0  0  0  0  0  0  0
    2.7302    0.6853   -0.0187 C   0  0  0  0  0  0  0  0  0  0  0  0
    0.4631    1.6136    0.0123 C   0  0  0  0  0  0  0  0  0  0  0  0
   -0.9192    1.4249    0.0351 C   0  0  0  0  0  0  0  0  0  0  0  0
    1.6740   -1.8955    0.0111 C   0  0  0  0  0  0  0  0  0  0  0  0
    3.5833   -0.4186   -0.0263 C   0  0  0  0  0  0  0  0  0  0  0  0
    3.0562   -1.7066   -0.0115 C   0  0  0  0  0  0  0  0  0  0  0  0
   -1.0049   -1.9745    0.0463 H   0  0  0  0  0  0  0  0  0  0  0  0
    0.8139    2.6409   -0.0003 H   0  0  0  0  0  0  0  0  0  0  0  0
   -1.5641    2.2992    0.0330 H   0  0  0  0  0  0  0  0  0  0  0  0
    1.2845   -2.9114    0.0224 H   0  0  0  0  0  0  0  0  0  0  0  0
    4.6625   -0.2887   -0.0439 H   0  0  0  0  0  0  0  0  0  0  0  0
    3.7206   -2.5658   -0.0176 H   0  0  0  0  0  0  0  0  0  0  0  0
    2.7682    2.8186   -0.0308 H   0  0  0  0  0  0  0  0  0  0  0  0
    4.3278    2.0535   -0.0513 H   0  0  0  0  0  0  0  0  0  0  0  0
   -3.2404   -0.9026   -2.0102 H   0  0  0  0  0  0  0  0  0  0  0  0
  1  2  1  0  0  0  0
  1  3  2  0  0  0  0
  1  4  2  0  0  0  0
  1  8  1  0  0  0  0
  2 24  1  0  0  0  0
  5 10  1  0  0  0  0
  5 22  1  0  0  0  0
  5 23  1  0  0  0  0
  6  7  2  0  0  0  0
  6 10  1  0  0  0  0
  6 11  1  0  0  0  0
  7  9  1  0  0  0  0
  7 13  1  0  0  0  0
  8  9  2  0  0  0  0
  8 12  1  0  0  0  0
  9 16  1  0  0  0  0
 10 14  2  0  0  0  0
 11 12  2  0  0  0  0
 11 17  1  0  0  0  0
 12 18  1  0  0  0  0
 13 15  2  0  0  0  0
 13 19  1  0  0  0  0
 14 15  1  0  0  0  0
 14 20  1  0  0  0  0
 15 21  1  0  0  0  0
M  END
> <PUBCHEM_COMPOUND_CID>
8408

> <PUBCHEM_CONFORMER_RMSD>
0.4

> <PUBCHEM_CONFORMER_DIVERSEORDER>
1
2

> <PUBCHEM_MMFF94_PARTIAL_CHARGES>
22
1 1.49
10 0.1
11 -0.15
12 -0.15
13 -0.15
14 -0.15
15 -0.15
16 0.15
17 0.15
18 0.15
19 0.15
2 -0.68
20 0.15
21 0.15
22 0.4
23 0.4
24 0.5
3 -0.65
4 -0.65
5 -0.9
8 -0.01
9 -0.15

> <PUBCHEM_EFFECTIVE_ROTOR_COUNT>
1

> <PUBCHEM_PHARMACOPHORE_FEATURES>
8
1 2 acceptor
1 3 acceptor
1 4 acceptor
1 5 cation
1 5 donor
4 1 2 3 4 anion
6 6 7 10 13 14 15 rings
6 6 7 8 9 11 12 rings

> <PUBCHEM_HEAVY_ATOM_COUNT>
15

> <PUBCHEM_ATOM_DEF_STEREO_COUNT>
0

> <PUBCHEM_ATOM_UDEF_STEREO_COUNT>
0

> <PUBCHEM_BOND_DEF_STEREO_COUNT>
0

> <PUBCHEM_BOND_UDEF_STEREO_COUNT>
0

> <PUBCHEM_ISOTOPIC_ATOM_COUNT>
0

> <PUBCHEM_COMPONENT_COUNT>
1

> <PUBCHEM_CACTVS_TAUTO_COUNT>
1

> <PUBCHEM_CONFORMER_ID>
000020D800000001

> <PUBCHEM_MMFF94_ENERGY>
46.2554

> <PUBCHEM_FEATURE_SELFOVERLAP>
40.678

> <PUBCHEM_SHAPE_FINGERPRINT>
10608611 8 18341897410928504781
10967382 1 18338796706765614056
10980938 120 18409166589056825010
11132069 177 18410017640942153338
11471102 20 18411422821202945788
11806522 49 18266742389967386367
12032990 46 18411694400469719186
12932764 1 17275107262348825027
13221675 6 18409448111262579062
13296908 3 18342736317020736363
13380535 76 18340488859651018010
13897977 150 18339643334892805448
14144814 61 18409446990191523995
14251717 144 18408611352648571518
14325111 11 18410571773317283217
14576447 43 17970927574012106039
15196674 1 18410853252515004235
15219456 202 18343582919393662355
15375462 189 18113617867868887761
15442244 35 18192709179318008120
15501101 241 18342736325610709980
15536298 74 18333730226046704296
16945 1 18411701027936403850
17844478 74 17988639726824310741
18186145 218 17917710227289651219
19107657 46 18411134736213901471
19422 9 18113900472311279343
200 152 18186812399853254679
20201158 50 18342176695387446523
20279233 1 17917998282467495687
20281475 54 18410011048257160963
20645477 70 18408327708929823367
21267235 1 18409438198330587643
21501502 16 18336825419666321008
21501925 9 18339371858942780066
221490 88 18340759408072918906
2334 1 18338234967829634768
23402539 116 18260838132621562542
23402655 69 18335704995826956709
23463225 33 18410571820693662280
23559900 14 18341335586842129610
2748010 2 18195519295184712646
449060 62 18408880720476451992
5104073 3 18411134736176576459
581208 293 18408329869398313792
7364860 26 18334574655593582900
77492 1 17748827418948729263
8809292 202 18201710777999030123
9709674 26 18409725200851184447

> <PUBCHEM_SHAPE_MULTIPOLES>
289.95
6.74
1.94
0.76
3
0.1
0.14
-0.44
0.13
-1.12
-0.1
0.56
-0.04
-0.04

> <PUBCHEM_SHAPE_SELFOVERLAP>
621.457

> <PUBCHEM_SHAPE_VOLUME>
161.1

> <PUBCHEM_COORDINATE_TYPE>
2
5
10

$$$$

