17395395
  -OEChem-06241222502D

 51 51  0     0  0  0  0  0  0999 V2000
    3.5823    2.3863    0.0000 O   0  0  0  0  0  0  0  0  0  0  0  0
    8.0484   -2.5127    0.0000 O   0  0  0  0  0  0  0  0  0  0  0  0
    8.1678    1.0909    0.0000 O   0  0  0  0  0  0  0  0  0  0  0  0
    4.9836    3.4044    0.0000 O   0  0  0  0  0  0  0  0  0  0  0  0
    9.7426   -2.1526    0.0000 N   0  0  0  0  0  0  0  0  0  0  0  0
    5.6646    0.1430    0.0000 N   0  0  0  0  0  0  0  0  0  0  0  0
    7.6326   -0.5564    0.0000 N   0  0  0  0  0  0  0  0  0  0  0  0
    9.9505   -3.1307    0.0000 C   0  0  0  0  0  0  0  0  0  0  0  0
   10.1584   -4.1089    0.0000 C   0  0  0  0  0  0  0  0  0  0  0  0
   10.9287   -2.9228    0.0000 C   0  0  0  0  0  0  0  0  0  0  0  0
    8.9724   -3.3386    0.0000 C   0  0  0  0  0  0  0  0  0  0  0  0
    6.1646    1.6818    0.0000 C   0  0  0  0  0  0  0  0  0  0  0  0
    6.4736    0.7308    0.0000 C   0  0  0  0  0  0  0  0  0  0  0  0
    5.1646    1.6818    0.0000 C   0  0  0  0  0  0  0  0  0  0  0  0
    4.8556    0.7308    0.0000 C   0  0  0  0  0  0  0  0  0  0  0  0
    8.7916   -1.8436    0.0000 C   0  0  0  0  0  0  0  0  0  0  0  0
    8.5837   -0.8654    0.0000 C   0  0  0  0  0  0  0  0  0  0  0  0
    7.4247    0.4218    0.0000 C   0  0  0  0  0  0  0  0  0  0  0  0
    6.7524    2.4908    0.0000 C   0  0  0  0  0  0  0  0  0  0  0  0
    4.5768    2.4908    0.0000 C   0  0  0  0  0  0  0  0  0  0  0  0
    3.9045    0.4218    0.0000 C   0  0  0  0  0  0  0  0  0  0  0  0
    2.9945    3.1953    0.0000 C   0  0  0  0  0  0  0  0  0  0  0  0
    2.0000    3.0908    0.0000 C   0  0  0  0  0  0  0  0  0  0  0  0
    3.4013    4.1089    0.0000 C   0  0  0  0  0  0  0  0  0  0  0  0
   10.2034   -1.7377    0.0000 H   0  0  0  0  0  0  0  0  0  0  0  0
    8.8435   -2.7322    0.0000 H   0  0  0  0  0  0  0  0  0  0  0  0
    8.3659   -3.4675    0.0000 H   0  0  0  0  0  0  0  0  0  0  0  0
    9.1013   -3.9451    0.0000 H   0  0  0  0  0  0  0  0  0  0  0  0
   11.0576   -3.5293    0.0000 H   0  0  0  0  0  0  0  0  0  0  0  0
   11.5351   -2.7939    0.0000 H   0  0  0  0  0  0  0  0  0  0  0  0
   10.7998   -2.3164    0.0000 H   0  0  0  0  0  0  0  0  0  0  0  0
    9.5520   -4.2378    0.0000 H   0  0  0  0  0  0  0  0  0  0  0  0
   10.2874   -4.7153    0.0000 H   0  0  0  0  0  0  0  0  0  0  0  0
   10.7649   -3.9800    0.0000 H   0  0  0  0  0  0  0  0  0  0  0  0
    5.6646   -0.4770    0.0000 H   0  0  0  0  0  0  0  0  0  0  0  0
    9.2033   -0.8438    0.0000 H   0  0  0  0  0  0  0  0  0  0  0  0
    8.6699   -0.2514    0.0000 H   0  0  0  0  0  0  0  0  0  0  0  0
    7.1718   -0.9713    0.0000 H   0  0  0  0  0  0  0  0  0  0  0  0
    7.2540    2.1264    0.0000 H   0  0  0  0  0  0  0  0  0  0  0  0
    7.1168    2.9924    0.0000 H   0  0  0  0  0  0  0  0  0  0  0  0
    6.2508    2.8553    0.0000 H   0  0  0  0  0  0  0  0  0  0  0  0
    3.7130    1.0114    0.0000 H   0  0  0  0  0  0  0  0  0  0  0  0
    3.3149    0.2302    0.0000 H   0  0  0  0  0  0  0  0  0  0  0  0
    4.0961   -0.1679    0.0000 H   0  0  0  0  0  0  0  0  0  0  0  0
    2.7424    2.6289    0.0000 H   0  0  0  0  0  0  0  0  0  0  0  0
    3.9677    3.8567    0.0000 H   0  0  0  0  0  0  0  0  0  0  0  0
    3.6534    4.6753    0.0000 H   0  0  0  0  0  0  0  0  0  0  0  0
    2.8349    4.3610    0.0000 H   0  0  0  0  0  0  0  0  0  0  0  0
    1.9352    3.7074    0.0000 H   0  0  0  0  0  0  0  0  0  0  0  0
    1.3834    3.0260    0.0000 H   0  0  0  0  0  0  0  0  0  0  0  0
    2.0648    2.4742    0.0000 H   0  0  0  0  0  0  0  0  0  0  0  0
  1 20  1  0  0  0  0
  1 22  1  0  0  0  0
  2 16  2  0  0  0  0
  3 18  2  0  0  0  0
  4 20  2  0  0  0  0
  5  8  1  0  0  0  0
  5 16  1  0  0  0  0
  5 25  1  0  0  0  0
  6 13  1  0  0  0  0
  6 15  1  0  0  0  0
  6 35  1  0  0  0  0
  7 17  1  0  0  0  0
  7 18  1  0  0  0  0
  7 38  1  0  0  0  0
  8  9  1  0  0  0  0
  8 10  1  0  0  0  0
  8 11  1  0  0  0  0
  9 32  1  0  0  0  0
  9 33  1  0  0  0  0
  9 34  1  0  0  0  0
 10 29  1  0  0  0  0
 10 30  1  0  0  0  0
 10 31  1  0  0  0  0
 11 26  1  0  0  0  0
 11 27  1  0  0  0  0
 11 28  1  0  0  0  0
 12 13  2  0  0  0  0
 12 14  1  0  0  0  0
 12 19  1  0  0  0  0
 13 18  1  0  0  0  0
 14 15  2  0  0  0  0
 14 20  1  0  0  0  0
 15 21  1  0  0  0  0
 16 17  1  0  0  0  0
 17 36  1  0  0  0  0
 17 37  1  0  0  0  0
 19 39  1  0  0  0  0
 19 40  1  0  0  0  0
 19 41  1  0  0  0  0
 21 42  1  0  0  0  0
 21 43  1  0  0  0  0
 21 44  1  0  0  0  0
 22 23  1  0  0  0  0
 22 24  1  0  0  0  0
 22 45  1  0  0  0  0
 23 49  1  0  0  0  0
 23 50  1  0  0  0  0
 23 51  1  0  0  0  0
 24 46  1  0  0  0  0
 24 47  1  0  0  0  0
 24 48  1  0  0  0  0
M  END
> <PUBCHEM_COMPOUND_CID>
17395395

> <PUBCHEM_COMPOUND_CANONICALIZED>
1

> <PUBCHEM_CACTVS_COMPLEXITY>
485

> <PUBCHEM_CACTVS_HBOND_ACCEPTOR>
4

> <PUBCHEM_CACTVS_HBOND_DONOR>
3

> <PUBCHEM_CACTVS_ROTATABLE_BOND>
7

> <PUBCHEM_CACTVS_SUBSKEYS>
AAADceB7OAAAAAAAAAAAAAAAAAAAAWAAAAAAAAAAAAAAAAABgAAAHgAQAAAADJzhngYCiJLJlACoAwXwXACCgCAnACAAmaG4TNgIZnrAtLmWEYhm1gHI6Ue8HwIegAAAAAAAAAAAAAAAAAAAAAAAAAAAAA==

> <PUBCHEM_IUPAC_OPENEYE_NAME>
isopropyl 5-[[2-(tert-butylamino)-2-oxo-ethyl]carbamoyl]-2,4-dimethyl-1H-pyrrole-3-carboxylate

> <PUBCHEM_IUPAC_CAS_NAME>
5-[[[2-(tert-butylamino)-2-oxoethyl]amino]-oxomethyl]-2,4-dimethyl-1H-pyrrole-3-carboxylic acid propan-2-yl ester

> <PUBCHEM_IUPAC_NAME>
propan-2-yl 5-[[2-(tert-butylamino)-2-oxoethyl]carbamoyl]-2,4-dimethyl-1H-pyrrole-3-carboxylate

> <PUBCHEM_IUPAC_SYSTEMATIC_NAME>
propan-2-yl 5-[[2-(tert-butylamino)-2-oxidanylidene-ethyl]carbamoyl]-2,4-dimethyl-1H-pyrrole-3-carboxylate

> <PUBCHEM_IUPAC_TRADITIONAL_NAME>
5-[[2-(tert-butylamino)-2-keto-ethyl]carbamoyl]-2,4-dimethyl-1H-pyrrole-3-carboxylic acid isopropyl ester

> <PUBCHEM_IUPAC_INCHI>
InChI=1S/C17H27N3O4/c1-9(2)24-16(23)13-10(3)14(19-11(13)4)15(22)18-8-12(21)20-17(5,6)7/h9,19H,8H2,1-7H3,(H,18,22)(H,20,21)

> <PUBCHEM_IUPAC_INCHIKEY>
KVVPHYFRCWHASD-UHFFFAOYSA-N

> <PUBCHEM_XLOGP3_AA>
2.1

> <PUBCHEM_EXACT_MASS>
337.200156

> <PUBCHEM_MOLECULAR_FORMULA>
C17H27N3O4

> <PUBCHEM_MOLECULAR_WEIGHT>
337.41398

> <PUBCHEM_OPENEYE_CAN_SMILES>
CC1=C(NC(=C1C(=O)OC(C)C)C)C(=O)NCC(=O)NC(C)(C)C

> <PUBCHEM_OPENEYE_ISO_SMILES>
CC1=C(NC(=C1C(=O)OC(C)C)C)C(=O)NCC(=O)NC(C)(C)C

> <PUBCHEM_CACTVS_TPSA>
100

> <PUBCHEM_MONOISOTOPIC_WEIGHT>
337.200156

> <PUBCHEM_TOTAL_CHARGE>
0

> <PUBCHEM_HEAVY_ATOM_COUNT>
24

> <PUBCHEM_ATOM_DEF_STEREO_COUNT>
0

> <PUBCHEM_ATOM_UDEF_STEREO_COUNT>
0

> <PUBCHEM_BOND_DEF_STEREO_COUNT>
0

> <PUBCHEM_BOND_UDEF_STEREO_COUNT>
0

> <PUBCHEM_ISOTOPIC_ATOM_COUNT>
0

> <PUBCHEM_COMPONENT_COUNT>
1

> <PUBCHEM_CACTVS_TAUTO_COUNT>
36

> <PUBCHEM_COORDINATE_TYPE>
1
5
255

> <PUBCHEM_BONDANNOTATIONS>
12  13  8
12  14  8
14  15  8
6  13  8
6  15  8

$$$$

