11334
  -OEChem-06261205333D

 13 13  0     0  0  0  0  0  0999 V2000
    0.3194   -2.4447    0.0003 Cl  0  0  0  0  0  0  0  0  0  0  0  0
    2.8050   -0.3994    0.0003 Cl  0  0  0  0  0  0  0  0  0  0  0  0
   -2.3018   -1.0585    0.0001 O   0  0  0  0  0  0  0  0  0  0  0  0
   -1.2204   -0.2281   -0.0002 C   0  0  0  0  0  0  0  0  0  0  0  0
    0.0822   -0.7272   -0.0005 C   0  0  0  0  0  0  0  0  0  0  0  0
   -1.4398    1.1493    0.0001 C   0  0  0  0  0  0  0  0  0  0  0  0
    1.1656    0.1515   -0.0004 C   0  0  0  0  0  0  0  0  0  0  0  0
    0.9462    1.5291    0.0000 C   0  0  0  0  0  0  0  0  0  0  0  0
   -0.3564    2.0279    0.0003 C   0  0  0  0  0  0  0  0  0  0  0  0
   -2.4486    1.5534    0.0005 H   0  0  0  0  0  0  0  0  0  0  0  0
    1.7784    2.2287    0.0002 H   0  0  0  0  0  0  0  0  0  0  0  0
   -0.5272    3.1006    0.0006 H   0  0  0  0  0  0  0  0  0  0  0  0
   -3.1152   -0.5252    0.0004 H   0  0  0  0  0  0  0  0  0  0  0  0
  1  5  1  0  0  0  0
  2  7  1  0  0  0  0
  3  4  1  0  0  0  0
  3 13  1  0  0  0  0
  4  5  2  0  0  0  0
  4  6  1  0  0  0  0
  5  7  1  0  0  0  0
  6  9  2  0  0  0  0
  6 10  1  0  0  0  0
  7  8  2  0  0  0  0
  8  9  1  0  0  0  0
  8 11  1  0  0  0  0
  9 12  1  0  0  0  0
M  END
> <PUBCHEM_COMPOUND_CID>
11334

> <PUBCHEM_CONFORMER_RMSD>
0.4

> <PUBCHEM_CONFORMER_DIVERSEORDER>
1

> <PUBCHEM_MMFF94_PARTIAL_CHARGES>
13
1 -0.18
10 0.15
11 0.15
12 0.15
13 0.45
2 -0.18
3 -0.53
4 0.08
5 0.18
6 -0.15
7 0.18
8 -0.15
9 -0.15

> <PUBCHEM_EFFECTIVE_ROTOR_COUNT>
0

> <PUBCHEM_PHARMACOPHORE_FEATURES>
2
1 3 donor
6 4 5 6 7 8 9 rings

> <PUBCHEM_HEAVY_ATOM_COUNT>
9

> <PUBCHEM_ATOM_DEF_STEREO_COUNT>
0

> <PUBCHEM_ATOM_UDEF_STEREO_COUNT>
0

> <PUBCHEM_BOND_DEF_STEREO_COUNT>
0

> <PUBCHEM_BOND_UDEF_STEREO_COUNT>
0

> <PUBCHEM_ISOTOPIC_ATOM_COUNT>
0

> <PUBCHEM_COMPONENT_COUNT>
1

> <PUBCHEM_CACTVS_TAUTO_COUNT>
3

> <PUBCHEM_CONFORMER_ID>
00002C4600000001

> <PUBCHEM_MMFF94_ENERGY>
19.5383

> <PUBCHEM_FEATURE_SELFOVERLAP>
10.148

> <PUBCHEM_SHAPE_FINGERPRINT>
12423570 1 8330804590811550368
16945 1 18194683897896152164
18185500 45 18338800129585484623
193761 8 17906453586121288711
21040471 1 17762056536706405285
23552423 10 18054780943435599662
241688 4 18410293596828087329
2748010 2 18339366274984349565
5084963 1 18186518774182020018
66348 1 18410859896961409818

> <PUBCHEM_SHAPE_MULTIPOLES>
183.09
2.71
2.37
0.62
1.1
0.65
0
-0.02
0
-0.15
0
0.04
-0.01
0

> <PUBCHEM_SHAPE_SELFOVERLAP>
364.423

> <PUBCHEM_SHAPE_VOLUME>
110.3

> <PUBCHEM_COORDINATE_TYPE>
2
5
10

$$$$

