3418
  -OEChem-06251223242D

 21 21  0     0  0  0  0  0  0999 V2000
    6.0010    1.0485    0.0000 P   0  0  0  0  0  0  0  0  0  0  0  0
    5.1350    0.5485    0.0000 O   0  0  0  0  0  0  0  0  0  0  0  0
    6.8671    1.5485    0.0000 O   0  0  0  0  0  0  0  0  0  0  0  0
    5.5010    1.9145    0.0000 O   0  0  0  0  0  0  0  0  0  0  0  0
    2.5369   -0.9515    0.0000 O   0  0  0  0  0  0  0  0  0  0  0  0
    6.5010    0.1825    0.0000 O   0  0  0  0  0  0  0  0  0  0  0  0
    3.4030    0.5485    0.0000 O   0  0  0  0  0  0  0  0  0  0  0  0
    5.1350   -0.4515    0.0000 C   0  0  0  0  0  0  0  0  0  0  0  0
    4.2690   -0.9515    0.0000 C   0  0  0  0  0  0  0  0  0  0  0  0
    6.0010   -0.9515    0.0000 C   0  0  0  0  0  0  0  0  0  0  0  0
    4.2690   -1.9515    0.0000 C   0  0  0  0  0  0  0  0  0  0  0  0
    6.0010   -1.9515    0.0000 C   0  0  0  0  0  0  0  0  0  0  0  0
    5.1350   -2.4515    0.0000 C   0  0  0  0  0  0  0  0  0  0  0  0
    3.4030   -0.4515    0.0000 C   0  0  0  0  0  0  0  0  0  0  0  0
    6.5380   -0.6415    0.0000 H   0  0  0  0  0  0  0  0  0  0  0  0
    3.7320   -2.2615    0.0000 H   0  0  0  0  0  0  0  0  0  0  0  0
    6.5380   -2.2615    0.0000 H   0  0  0  0  0  0  0  0  0  0  0  0
    5.1350   -3.0715    0.0000 H   0  0  0  0  0  0  0  0  0  0  0  0
    6.8671    2.1685    0.0000 H   0  0  0  0  0  0  0  0  0  0  0  0
    5.8110    2.4515    0.0000 H   0  0  0  0  0  0  0  0  0  0  0  0
    2.0000   -0.6415    0.0000 H   0  0  0  0  0  0  0  0  0  0  0  0
  1  2  1  0  0  0  0
  1  3  1  0  0  0  0
  1  4  1  0  0  0  0
  1  6  2  0  0  0  0
  2  8  1  0  0  0  0
  3 19  1  0  0  0  0
  4 20  1  0  0  0  0
  5 14  1  0  0  0  0
  5 21  1  0  0  0  0
  7 14  2  0  0  0  0
  8  9  1  0  0  0  0
  8 10  2  0  0  0  0
  9 11  2  0  0  0  0
  9 14  1  0  0  0  0
 10 12  1  0  0  0  0
 10 15  1  0  0  0  0
 11 13  1  0  0  0  0
 11 16  1  0  0  0  0
 12 13  2  0  0  0  0
 12 17  1  0  0  0  0
 13 18  1  0  0  0  0
M  END
> <PUBCHEM_COMPOUND_CID>
3418

> <PUBCHEM_COMPOUND_CANONICALIZED>
1

> <PUBCHEM_CACTVS_COMPLEXITY>
259

> <PUBCHEM_CACTVS_HBOND_ACCEPTOR>
6

> <PUBCHEM_CACTVS_HBOND_DONOR>
3

> <PUBCHEM_CACTVS_ROTATABLE_BOND>
3

> <PUBCHEM_CACTVS_SUBSKEYS>
AAADcYBgOAIAAAAAAAAAAAAAAAAAAAAAAAAwAAAAAAAAAAABAAAAGgAACCAADASAmAAwDoAAAxCIQiDSCIACAAAkIAAIiAEGCMgIJzaAFRKAcUAl4BEImYeIyCCOAAAAAAAIAAAAAAAAABAAAAAAAAAAAA==

> <PUBCHEM_IUPAC_OPENEYE_NAME>
2-phosphonooxybenzoic acid

> <PUBCHEM_IUPAC_CAS_NAME>
2-phosphonooxybenzoic acid

> <PUBCHEM_IUPAC_NAME>
2-phosphonooxybenzoic acid

> <PUBCHEM_IUPAC_SYSTEMATIC_NAME>
2-phosphonooxybenzoic acid

> <PUBCHEM_IUPAC_TRADITIONAL_NAME>
2-phosphonooxybenzoic acid

> <PUBCHEM_IUPAC_INCHI>
InChI=1S/C7H7O6P/c8-7(9)5-3-1-2-4-6(5)13-14(10,11)12/h1-4H,(H,8,9)(H2,10,11,12)

> <PUBCHEM_IUPAC_INCHIKEY>
FFKUDWZICMJVPA-UHFFFAOYSA-N

> <PUBCHEM_XLOGP3>
0

> <PUBCHEM_EXACT_MASS>
217.998025

> <PUBCHEM_MOLECULAR_FORMULA>
C7H7O6P

> <PUBCHEM_MOLECULAR_WEIGHT>
218.100642

> <PUBCHEM_OPENEYE_CAN_SMILES>
C1=CC=C(C(=C1)C(=O)O)OP(=O)(O)O

> <PUBCHEM_OPENEYE_ISO_SMILES>
C1=CC=C(C(=C1)C(=O)O)OP(=O)(O)O

> <PUBCHEM_CACTVS_TPSA>
104

> <PUBCHEM_MONOISOTOPIC_WEIGHT>
217.998025

> <PUBCHEM_TOTAL_CHARGE>
0

> <PUBCHEM_HEAVY_ATOM_COUNT>
14

> <PUBCHEM_ATOM_DEF_STEREO_COUNT>
0

> <PUBCHEM_ATOM_UDEF_STEREO_COUNT>
0

> <PUBCHEM_BOND_DEF_STEREO_COUNT>
0

> <PUBCHEM_BOND_UDEF_STEREO_COUNT>
0

> <PUBCHEM_ISOTOPIC_ATOM_COUNT>
0

> <PUBCHEM_COMPONENT_COUNT>
1

> <PUBCHEM_CACTVS_TAUTO_COUNT>
1

> <PUBCHEM_COORDINATE_TYPE>
1
5
255

> <PUBCHEM_BONDANNOTATIONS>
10  12  8
11  13  8
12  13  8
8  10  8
8  9  8
9  11  8

$$$$

