12479
  -OEChem-06261206593D

 24 24  0     0  0  0  0  0  0999 V2000
   -1.1603   -0.6990    0.7661 O   0  0  0  0  0  0  0  0  0  0  0  0
    1.1587   -0.7019   -0.7664 O   0  0  0  0  0  0  0  0  0  0  0  0
   -2.4351   -0.6614   -1.1968 O   0  0  0  0  0  0  0  0  0  0  0  0
    2.4327   -0.6676    1.1971 O   0  0  0  0  0  0  0  0  0  0  0  0
   -0.5816    0.4733    0.3841 C   0  0  0  0  0  0  0  0  0  0  0  0
    0.5826    0.4718   -0.3845 C   0  0  0  0  0  0  0  0  0  0  0  0
   -1.1619    1.6821    0.7685 C   0  0  0  0  0  0  0  0  0  0  0  0
    1.1662    1.6792   -0.7685 C   0  0  0  0  0  0  0  0  0  0  0  0
   -0.5780    2.8894    0.3844 C   0  0  0  0  0  0  0  0  0  0  0  0
    0.5860    2.8879   -0.3841 C   0  0  0  0  0  0  0  0  0  0  0  0
   -2.1109   -1.1916   -0.1425 C   0  0  0  0  0  0  0  0  0  0  0  0
    2.1076   -1.1969    0.1425 C   0  0  0  0  0  0  0  0  0  0  0  0
   -2.6874   -2.4793    0.3665 C   0  0  0  0  0  0  0  0  0  0  0  0
    2.6814   -2.4859   -0.3663 C   0  0  0  0  0  0  0  0  0  0  0  0
   -2.0681    1.6911    1.3680 H   0  0  0  0  0  0  0  0  0  0  0  0
    2.0727    1.6857   -1.3679 H   0  0  0  0  0  0  0  0  0  0  0  0
   -1.0297    3.8305    0.6839 H   0  0  0  0  0  0  0  0  0  0  0  0
    1.0404    3.8280   -0.6831 H   0  0  0  0  0  0  0  0  0  0  0  0
   -1.8924   -3.2208    0.4771 H   0  0  0  0  0  0  0  0  0  0  0  0
   -3.4206   -2.8576   -0.3516 H   0  0  0  0  0  0  0  0  0  0  0  0
   -3.1896   -2.3068    1.3215 H   0  0  0  0  0  0  0  0  0  0  0  0
    1.8846   -3.2254   -0.4778 H   0  0  0  0  0  0  0  0  0  0  0  0
    3.4131   -2.8662    0.3522 H   0  0  0  0  0  0  0  0  0  0  0  0
    3.1848   -2.3143   -1.3208 H   0  0  0  0  0  0  0  0  0  0  0  0
  1  5  1  0  0  0  0
  1 11  1  0  0  0  0
  2  6  1  0  0  0  0
  2 12  1  0  0  0  0
  3 11  2  0  0  0  0
  4 12  2  0  0  0  0
  5  6  1  0  0  0  0
  5  7  2  0  0  0  0
  6  8  2  0  0  0  0
  7  9  1  0  0  0  0
  7 15  1  0  0  0  0
  8 10  1  0  0  0  0
  8 16  1  0  0  0  0
  9 10  2  0  0  0  0
  9 17  1  0  0  0  0
 10 18  1  0  0  0  0
 11 13  1  0  0  0  0
 12 14  1  0  0  0  0
 13 19  1  0  0  0  0
 13 20  1  0  0  0  0
 13 21  1  0  0  0  0
 14 22  1  0  0  0  0
 14 23  1  0  0  0  0
 14 24  1  0  0  0  0
M  END
> <PUBCHEM_COMPOUND_CID>
12479

> <PUBCHEM_CONFORMER_RMSD>
0.6

> <PUBCHEM_CONFORMER_DIVERSEORDER>
1
41
9
3
22
17
28
23
47
42
40
26
43
5
49
46
24
2
14
20
27
38
37
39
44
45
19
21
32
15
51
33
6
10
8
16
36
50
30
18
35
29
4
52
31
25
12
7
11
34
13
48

> <PUBCHEM_MMFF94_PARTIAL_CHARGES>
18
1 -0.23
10 -0.15
11 0.66
12 0.66
13 0.06
14 0.06
15 0.15
16 0.15
17 0.15
18 0.15
2 -0.23
3 -0.57
4 -0.57
5 0.08
6 0.08
7 -0.15
8 -0.15
9 -0.15

> <PUBCHEM_EFFECTIVE_ROTOR_COUNT>
4

> <PUBCHEM_PHARMACOPHORE_FEATURES>
3
1 3 acceptor
1 4 acceptor
6 5 6 7 8 9 10 rings

> <PUBCHEM_HEAVY_ATOM_COUNT>
14

> <PUBCHEM_ATOM_DEF_STEREO_COUNT>
0

> <PUBCHEM_ATOM_UDEF_STEREO_COUNT>
0

> <PUBCHEM_BOND_DEF_STEREO_COUNT>
0

> <PUBCHEM_BOND_UDEF_STEREO_COUNT>
0

> <PUBCHEM_ISOTOPIC_ATOM_COUNT>
0

> <PUBCHEM_COMPONENT_COUNT>
1

> <PUBCHEM_CACTVS_TAUTO_COUNT>
1

> <PUBCHEM_CONFORMER_ID>
000030BF00000001

> <PUBCHEM_MMFF94_ENERGY>
41.418

> <PUBCHEM_FEATURE_SELFOVERLAP>
15.223

> <PUBCHEM_SHAPE_FINGERPRINT>
1 1 17691691078030964853
12423570 1 14684744913067910997
15001771 113 18412537712976798295
15490181 7 17185043202289447596
16945 1 18051412868525681541
20524608 308 17758399960427529094
20645476 183 16976696688340292118
20645477 70 17979923709621541695
20711985 344 18122355836808970306
20871998 184 17834940250360221944
23388829 49 18263369096698616388
23419403 2 17403519173632988828
23530152 11 17185308742911473703
23557571 272 18043521936288877150
257057 1 18410863161009999655
2748010 2 18408608075598957222
2871803 45 16749311666699486591
3060560 45 17402617346701803335
54338 74 18269844279276973960
6338986 31 18408611361312443599
7364860 26 18122624946664350531
81228 2 18266187320793318995

> <PUBCHEM_SHAPE_MULTIPOLES>
264.64
3.64
3.53
0.97
1.29
0.02
0
-0.01
0
-3.76
0
0
0
0.3

> <PUBCHEM_SHAPE_SELFOVERLAP>
547.795

> <PUBCHEM_SHAPE_VOLUME>
148.4

> <PUBCHEM_COORDINATE_TYPE>
2
5
10

$$$$

