12703
  -OEChem-06261207163D

 21 20  0     0  0  0  0  0  0999 V2000
   -0.3845    2.0457    0.4988 O   0  0  0  0  0  0  0  0  0  0  0  0
    0.1714   -0.1583    0.0132 N   0  0  0  0  0  0  0  0  0  0  0  0
    1.5326   -0.0970    0.5302 C   0  0  0  0  0  0  0  0  0  0  0  0
   -0.2302   -1.4502   -0.5375 C   0  0  0  0  0  0  0  0  0  0  0  0
   -0.6882    0.9404    0.0423 C   0  0  0  0  0  0  0  0  0  0  0  0
    2.5155    0.3234   -0.5430 C   0  0  0  0  0  0  0  0  0  0  0  0
   -0.8474   -2.3380    0.5233 C   0  0  0  0  0  0  0  0  0  0  0  0
   -2.0693    0.7340   -0.5275 C   0  0  0  0  0  0  0  0  0  0  0  0
    1.5624    0.6386    1.3421 H   0  0  0  0  0  0  0  0  0  0  0  0
    1.8100   -1.0665    0.9576 H   0  0  0  0  0  0  0  0  0  0  0  0
   -0.9398   -1.3144   -1.3578 H   0  0  0  0  0  0  0  0  0  0  0  0
    0.6479   -1.9409   -0.9730 H   0  0  0  0  0  0  0  0  0  0  0  0
    2.5280   -0.3907   -1.3727 H   0  0  0  0  0  0  0  0  0  0  0  0
    2.2557    1.3048   -0.9536 H   0  0  0  0  0  0  0  0  0  0  0  0
    3.5274    0.3836   -0.1306 H   0  0  0  0  0  0  0  0  0  0  0  0
   -0.1277   -2.5581    1.3188 H   0  0  0  0  0  0  0  0  0  0  0  0
   -1.7196   -1.8754    0.9933 H   0  0  0  0  0  0  0  0  0  0  0  0
   -1.1628   -3.2896    0.0841 H   0  0  0  0  0  0  0  0  0  0  0  0
   -2.6668    1.6340   -0.3488 H   0  0  0  0  0  0  0  0  0  0  0  0
   -2.0125    0.5808   -1.6082 H   0  0  0  0  0  0  0  0  0  0  0  0
   -2.5821   -0.1001   -0.0469 H   0  0  0  0  0  0  0  0  0  0  0  0
  1  5  2  0  0  0  0
  2  3  1  0  0  0  0
  2  4  1  0  0  0  0
  2  5  1  0  0  0  0
  3  6  1  0  0  0  0
  3  9  1  0  0  0  0
  3 10  1  0  0  0  0
  4  7  1  0  0  0  0
  4 11  1  0  0  0  0
  4 12  1  0  0  0  0
  5  8  1  0  0  0  0
  6 13  1  0  0  0  0
  6 14  1  0  0  0  0
  6 15  1  0  0  0  0
  7 16  1  0  0  0  0
  7 17  1  0  0  0  0
  7 18  1  0  0  0  0
  8 19  1  0  0  0  0
  8 20  1  0  0  0  0
  8 21  1  0  0  0  0
M  END
> <PUBCHEM_COMPOUND_CID>
12703

> <PUBCHEM_CONFORMER_RMSD>
0.6

> <PUBCHEM_CONFORMER_DIVERSEORDER>
2
1
3
4

> <PUBCHEM_MMFF94_PARTIAL_CHARGES>
6
1 -0.57
2 -0.66
3 0.3
4 0.3
5 0.57
8 0.06

> <PUBCHEM_EFFECTIVE_ROTOR_COUNT>
3

> <PUBCHEM_PHARMACOPHORE_FEATURES>
1
1 1 acceptor

> <PUBCHEM_HEAVY_ATOM_COUNT>
8

> <PUBCHEM_ATOM_DEF_STEREO_COUNT>
0

> <PUBCHEM_ATOM_UDEF_STEREO_COUNT>
0

> <PUBCHEM_BOND_DEF_STEREO_COUNT>
0

> <PUBCHEM_BOND_UDEF_STEREO_COUNT>
0

> <PUBCHEM_ISOTOPIC_ATOM_COUNT>
0

> <PUBCHEM_COMPONENT_COUNT>
1

> <PUBCHEM_CACTVS_TAUTO_COUNT>
1

> <PUBCHEM_CONFORMER_ID>
0000319F00000002

> <PUBCHEM_MMFF94_ENERGY>
9.0162

> <PUBCHEM_FEATURE_SELFOVERLAP>
5.074

> <PUBCHEM_SHAPE_FINGERPRINT>
161256 15 17545879330638974741
16714656 1 18408882932067994428
21040471 1 18338525234635814992
23552423 10 17762340618802091805
23552449 1 18265330616915749316
29004967 10 6915388837011068078
5084963 1 18045508766020252224

> <PUBCHEM_SHAPE_MULTIPOLES>
153.79
2.52
2.21
0.81
1.39
0.53
0.02
-0.28
0.47
-1.21
-0.37
0.04
0.05
0.17

> <PUBCHEM_SHAPE_SELFOVERLAP>
276.709

> <PUBCHEM_SHAPE_VOLUME>
100.4

> <PUBCHEM_COORDINATE_TYPE>
2
5
10

$$$$

