13442
  -OEChem-06261214172D

 31 31  0     1  0  0  0  0  0999 V2000
    7.2193    3.1503    0.0000 Cl  0  5  0  0  0  0  0  0  0  0  0  0
    4.2177    5.8224    0.0000 S   0  0  0  0  0  0  0  0  0  0  0  0
    5.0837    6.3224    0.0000 O   0  0  0  0  0  0  0  0  0  0  0  0
    4.0098    6.8006    0.0000 O   0  0  0  0  0  0  0  0  0  0  0  0
    2.2690    4.1200    0.0000 N   0  3  0  0  0  0  0  0  0  0  0  0
    1.4030    3.6200    0.0000 N   0  0  0  0  0  0  0  0  0  0  0  0
    3.1350    4.6200    0.0000 C   0  0  3  0  0  0  0  0  0  0  0  0
    3.2395    5.6145    0.0000 C   0  0  0  0  0  0  0  0  0  0  0  0
    4.0486    4.2133    0.0000 C   0  0  0  0  0  0  0  0  0  0  0  0
    4.7177    4.9564    0.0000 C   0  0  0  0  0  0  0  0  0  0  0  0
    1.4030    2.6200    0.0000 C   0  0  0  0  0  0  0  0  0  0  0  0
    0.5369    2.1200    0.0000 C   0  0  0  0  0  0  0  0  0  0  0  0
    2.2690    2.1200    0.0000 C   0  0  0  0  0  0  0  0  0  0  0  0
    0.5369    1.1200    0.0000 C   0  0  0  0  0  0  0  0  0  0  0  0
    2.2690    1.1200    0.0000 C   0  0  0  0  0  0  0  0  0  0  0  0
    1.4030    0.6200    0.0000 C   0  0  0  0  0  0  0  0  0  0  0  0
    2.6150    4.9577    0.0000 H   0  0  0  0  0  0  0  0  0  0  0  0
    3.1747    6.2311    0.0000 H   0  0  0  0  0  0  0  0  0  0  0  0
    2.6195    5.6145    0.0000 H   0  0  0  0  0  0  0  0  0  0  0  0
    3.7386    3.6763    0.0000 H   0  0  0  0  0  0  0  0  0  0  0  0
    4.5502    3.8488    0.0000 H   0  0  0  0  0  0  0  0  0  0  0  0
    5.1326    4.4957    0.0000 H   0  0  0  0  0  0  0  0  0  0  0  0
    5.2193    5.3208    0.0000 H   0  0  0  0  0  0  0  0  0  0  0  0
    1.9590    4.6569    0.0000 H   0  0  0  0  0  0  0  0  0  0  0  0
    2.5790    3.5831    0.0000 H   0  0  0  0  0  0  0  0  0  0  0  0
    0.8660    3.9300    0.0000 H   0  0  0  0  0  0  0  0  0  0  0  0
    0.0000    2.4300    0.0000 H   0  0  0  0  0  0  0  0  0  0  0  0
    2.8059    2.4300    0.0000 H   0  0  0  0  0  0  0  0  0  0  0  0
    0.0000    0.8100    0.0000 H   0  0  0  0  0  0  0  0  0  0  0  0
    2.8059    0.8100    0.0000 H   0  0  0  0  0  0  0  0  0  0  0  0
    1.4030    0.0000    0.0000 H   0  0  0  0  0  0  0  0  0  0  0  0
  2  3  2  0  0  0  0
  2  4  2  0  0  0  0
  2  8  1  0  0  0  0
  2 10  1  0  0  0  0
  5  6  1  0  0  0  0
  5  7  1  0  0  0  0
  5 24  1  0  0  0  0
  5 25  1  0  0  0  0
  6 11  1  0  0  0  0
  6 26  1  0  0  0  0
  7  8  1  0  0  0  0
  7  9  1  0  0  0  0
  7 17  1  0  0  0  0
  8 18  1  0  0  0  0
  8 19  1  0  0  0  0
  9 10  1  0  0  0  0
  9 20  1  0  0  0  0
  9 21  1  0  0  0  0
 10 22  1  0  0  0  0
 10 23  1  0  0  0  0
 11 12  2  0  0  0  0
 11 13  1  0  0  0  0
 12 14  1  0  0  0  0
 12 27  1  0  0  0  0
 13 15  2  0  0  0  0
 13 28  1  0  0  0  0
 14 16  2  0  0  0  0
 14 29  1  0  0  0  0
 15 16  1  0  0  0  0
 15 30  1  0  0  0  0
 16 31  1  0  0  0  0
M  CHG  2   1  -1   5   1
M  END
> <PUBCHEM_COMPOUND_CID>
13442

> <PUBCHEM_COMPOUND_CANONICALIZED>
1

> <PUBCHEM_CACTVS_COMPLEXITY>
291

> <PUBCHEM_CACTVS_HBOND_ACCEPTOR>
4

> <PUBCHEM_CACTVS_HBOND_DONOR>
2

> <PUBCHEM_CACTVS_ROTATABLE_BOND>
3

> <PUBCHEM_CACTVS_SUBSKEYS>
AAADccBzMABEAAAAAAAAAAAAAAAAASAAAAAwAAAAAAAAAAABAAAAHAQYAAAACCjFUASwwIBiAAqAACRCQHDCBAAgAhIYqIAAZIgIICKgkZGAIABgkAAoyAcQAAAAAAAAAAAAAAAAAAAAAAAAAAAAAAAAAA==

> <PUBCHEM_IUPAC_OPENEYE_NAME>
anilino-(1,1-dioxothiolan-3-yl)ammonium chloride

> <PUBCHEM_IUPAC_CAS_NAME>
anilino-(1,1-dioxo-3-thiolanyl)ammonium chloride

> <PUBCHEM_IUPAC_NAME>
anilino-(1,1-dioxothiolan-3-yl)azanium chloride

> <PUBCHEM_IUPAC_SYSTEMATIC_NAME>
[1,1-bis(oxidanylidene)thiolan-3-yl]-phenylazanyl-azanium chloride

> <PUBCHEM_IUPAC_TRADITIONAL_NAME>
anilino-(1,1-diketothiolan-3-yl)ammonium chloride

> <PUBCHEM_IUPAC_INCHI>
InChI=1S/C10H14N2O2S.ClH/c13-15(14)7-6-10(8-15)12-11-9-4-2-1-3-5-9;/h1-5,10-12H,6-8H2;1H

> <PUBCHEM_IUPAC_INCHIKEY>
QKYCDCVONGTBME-UHFFFAOYSA-N

> <PUBCHEM_EXACT_MASS>
262.054276

> <PUBCHEM_MOLECULAR_FORMULA>
C10H15ClN2O2S

> <PUBCHEM_MOLECULAR_WEIGHT>
262.7563

> <PUBCHEM_OPENEYE_CAN_SMILES>
C1CS(=O)(=O)CC1[NH2+]NC2=CC=CC=C2.[Cl-]

> <PUBCHEM_OPENEYE_ISO_SMILES>
C1CS(=O)(=O)CC1[NH2+]NC2=CC=CC=C2.[Cl-]

> <PUBCHEM_CACTVS_TPSA>
71.2

> <PUBCHEM_MONOISOTOPIC_WEIGHT>
262.054276

> <PUBCHEM_TOTAL_CHARGE>
0

> <PUBCHEM_HEAVY_ATOM_COUNT>
16

> <PUBCHEM_ATOM_DEF_STEREO_COUNT>
0

> <PUBCHEM_ATOM_UDEF_STEREO_COUNT>
1

> <PUBCHEM_BOND_DEF_STEREO_COUNT>
0

> <PUBCHEM_BOND_UDEF_STEREO_COUNT>
0

> <PUBCHEM_ISOTOPIC_ATOM_COUNT>
0

> <PUBCHEM_COMPONENT_COUNT>
2

> <PUBCHEM_CACTVS_TAUTO_COUNT>
1

> <PUBCHEM_COORDINATE_TYPE>
1
5
255

> <PUBCHEM_BONDANNOTATIONS>
11  12  8
11  13  8
12  14  8
13  15  8
14  16  8
15  16  8
7  5  3

$$$$

