4471
  -OEChem-06261200092D

 30 29  0     1  0  0  0  0  0999 V2000
    9.4651    0.3450    0.0000 O   0  0  0  0  0  0  0  0  0  0  0  0
    8.5991   -1.1550    0.0000 O   0  0  0  0  0  0  0  0  0  0  0  0
    4.2690    0.3450    0.0000 N   0  0  0  0  0  0  0  0  0  0  0  0
    7.7331    1.3450    0.0000 N   0  0  0  0  0  0  0  0  0  0  0  0
    3.4030   -1.1550    0.0000 N   0  3  0  0  0  0  0  0  0  0  0  0
    2.5369    0.3450    0.0000 N   0  0  0  0  0  0  0  0  0  0  0  0
    6.8671   -0.1550    0.0000 C   0  0  0  0  0  0  0  0  0  0  0  0
    6.0010    0.3450    0.0000 C   0  0  0  0  0  0  0  0  0  0  0  0
    7.7331    0.3450    0.0000 C   0  0  3  0  0  0  0  0  0  0  0  0
    5.1350   -0.1550    0.0000 C   0  0  0  0  0  0  0  0  0  0  0  0
    8.5991   -0.1550    0.0000 C   0  0  0  0  0  0  0  0  0  0  0  0
    3.4030   -0.1550    0.0000 C   0  0  0  0  0  0  0  0  0  0  0  0
    2.5369   -1.6550    0.0000 C   0  0  0  0  0  0  0  0  0  0  0  0
    6.4685   -0.6299    0.0000 H   0  0  0  0  0  0  0  0  0  0  0  0
    7.2656   -0.6299    0.0000 H   0  0  0  0  0  0  0  0  0  0  0  0
    6.3996    0.8199    0.0000 H   0  0  0  0  0  0  0  0  0  0  0  0
    5.6025    0.8199    0.0000 H   0  0  0  0  0  0  0  0  0  0  0  0
    8.2700    0.6550    0.0000 H   0  0  0  0  0  0  0  0  0  0  0  0
    4.7365   -0.6299    0.0000 H   0  0  0  0  0  0  0  0  0  0  0  0
    5.5335   -0.6299    0.0000 H   0  0  0  0  0  0  0  0  0  0  0  0
    4.2690    0.9650    0.0000 H   0  0  0  0  0  0  0  0  0  0  0  0
    8.2700    1.6550    0.0000 H   0  0  0  0  0  0  0  0  0  0  0  0
    7.1962    1.6550    0.0000 H   0  0  0  0  0  0  0  0  0  0  0  0
    3.9399   -1.4650    0.0000 H   0  0  0  0  0  0  0  0  0  0  0  0
    2.5369    0.9650    0.0000 H   0  0  0  0  0  0  0  0  0  0  0  0
    2.0000    0.0350    0.0000 H   0  0  0  0  0  0  0  0  0  0  0  0
   10.0021    0.0350    0.0000 H   0  0  0  0  0  0  0  0  0  0  0  0
    2.2269   -1.1181    0.0000 H   0  0  0  0  0  0  0  0  0  0  0  0
    2.0000   -1.9650    0.0000 H   0  0  0  0  0  0  0  0  0  0  0  0
    2.8469   -2.1919    0.0000 H   0  0  0  0  0  0  0  0  0  0  0  0
  1 11  1  0  0  0  0
  1 27  1  0  0  0  0
  2 11  2  0  0  0  0
  3 10  1  0  0  0  0
  3 12  1  0  0  0  0
  3 21  1  0  0  0  0
  4  9  1  0  0  0  0
  4 22  1  0  0  0  0
  4 23  1  0  0  0  0
  5 12  2  0  0  0  0
  5 13  1  0  0  0  0
  5 24  1  0  0  0  0
  6 12  1  0  0  0  0
  6 25  1  0  0  0  0
  6 26  1  0  0  0  0
  7  8  1  0  0  0  0
  7  9  1  0  0  0  0
  7 14  1  0  0  0  0
  7 15  1  0  0  0  0
  8 10  1  0  0  0  0
  8 16  1  0  0  0  0
  8 17  1  0  0  0  0
  9 11  1  0  0  0  0
  9 18  1  0  0  0  0
 10 19  1  0  0  0  0
 10 20  1  0  0  0  0
 13 28  1  0  0  0  0
 13 29  1  0  0  0  0
 13 30  1  0  0  0  0
M  CHG  1   5   1
M  END
> <PUBCHEM_COMPOUND_CID>
4471

> <PUBCHEM_COMPOUND_CANONICALIZED>
1

> <PUBCHEM_CACTVS_COMPLEXITY>
193

> <PUBCHEM_CACTVS_HBOND_ACCEPTOR>
3

> <PUBCHEM_CACTVS_HBOND_DONOR>
5

> <PUBCHEM_CACTVS_ROTATABLE_BOND>
6

> <PUBCHEM_CACTVS_SUBSKEYS>
AAADceBjsAAAAAAAAAAAAAAAAAAAAAAAAAAAAAAAAAAAAAAAAAAAHgAQCAAACCjBgAQDCALAAgAoAACQLAAAAAGAAAABAIGIAACCABIAiAAEQAAEEAIAAACYEQIAAAAAAAAAAAAAAAAAAAAAAAAAAAAAAA==

> <PUBCHEM_IUPAC_OPENEYE_NAME>
[amino-[(4-amino-4-carboxy-butyl)amino]methylene]-methyl-ammonium

> <PUBCHEM_IUPAC_CAS_NAME>
[amino-[(4-amino-4-carboxybutyl)amino]methylidene]-methylammonium

> <PUBCHEM_IUPAC_NAME>
[amino-[(4-amino-4-carboxybutyl)amino]methylidene]-methylazanium

> <PUBCHEM_IUPAC_SYSTEMATIC_NAME>
[azanyl-[(4-azanyl-5-oxidanyl-5-oxidanylidene-pentyl)amino]methylidene]-methyl-azanium

> <PUBCHEM_IUPAC_TRADITIONAL_NAME>
[amino-[(4-amino-4-carboxy-butyl)amino]methylene]-methyl-ammonium

> <PUBCHEM_IUPAC_INCHI>
InChI=1S/C7H16N4O2/c1-10-7(9)11-4-2-3-5(8)6(12)13/h5H,2-4,8H2,1H3,(H,12,13)(H3,9,10,11)/p+1

> <PUBCHEM_IUPAC_INCHIKEY>
NTNWOCRCBQPEKQ-UHFFFAOYSA-O

> <PUBCHEM_XLOGP3>
-4.1

> <PUBCHEM_EXACT_MASS>
189.135151

> <PUBCHEM_MOLECULAR_FORMULA>
C7H17N4O2+

> <PUBCHEM_MOLECULAR_WEIGHT>
189.23548

> <PUBCHEM_OPENEYE_CAN_SMILES>
C[NH+]=C(N)NCCCC(C(=O)O)N

> <PUBCHEM_OPENEYE_ISO_SMILES>
C[NH+]=C(N)NCCCC(C(=O)O)N

> <PUBCHEM_CACTVS_TPSA>
115

> <PUBCHEM_MONOISOTOPIC_WEIGHT>
189.135151

> <PUBCHEM_TOTAL_CHARGE>
1

> <PUBCHEM_HEAVY_ATOM_COUNT>
13

> <PUBCHEM_ATOM_DEF_STEREO_COUNT>
0

> <PUBCHEM_ATOM_UDEF_STEREO_COUNT>
1

> <PUBCHEM_BOND_DEF_STEREO_COUNT>
0

> <PUBCHEM_BOND_UDEF_STEREO_COUNT>
0

> <PUBCHEM_ISOTOPIC_ATOM_COUNT>
0

> <PUBCHEM_COMPONENT_COUNT>
1

> <PUBCHEM_CACTVS_TAUTO_COUNT>
3

> <PUBCHEM_COORDINATE_TYPE>
1
5
255

> <PUBCHEM_BONDANNOTATIONS>
9  4  3

$$$$

