8831
  -OEChem-06261203093D

 44 43  0     0  0  0  0  0  0999 V2000
    2.9098   -0.5748   -0.1422 O   0  0  0  0  0  0  0  0  0  0  0  0
   -2.8851   -0.0393    0.5496 O   0  0  0  0  0  0  0  0  0  0  0  0
    0.8867    0.3979   -0.6731 O   0  0  0  0  0  0  0  0  0  0  0  0
   -3.9745   -1.7641   -0.5310 O   0  0  0  0  0  0  0  0  0  0  0  0
   -0.3328   -2.2329   -0.5622 C   0  0  0  0  0  0  0  0  0  0  0  0
   -0.7750   -1.9599    0.8809 C   0  0  0  0  0  0  0  0  0  0  0  0
    1.1676   -2.0167   -0.7615 C   0  0  0  0  0  0  0  0  0  0  0  0
   -2.2591   -2.2436    1.0976 C   0  0  0  0  0  0  0  0  0  0  0  0
    4.9393    0.5839    0.5090 C   0  0  0  0  0  0  0  0  0  0  0  0
   -3.2745    2.3347    0.2383 C   0  0  0  0  0  0  0  0  0  0  0  0
    3.4722    0.7201    0.0924 C   0  0  0  0  0  0  0  0  0  0  0  0
   -3.6698    0.9141   -0.1737 C   0  0  0  0  0  0  0  0  0  0  0  0
    1.5977   -0.5862   -0.5222 C   0  0  0  0  0  0  0  0  0  0  0  0
   -3.1459   -1.3478    0.2684 C   0  0  0  0  0  0  0  0  0  0  0  0
    5.7652   -0.1086   -0.5772 C   0  0  0  0  0  0  0  0  0  0  0  0
    5.5306    1.9541    0.8327 C   0  0  0  0  0  0  0  0  0  0  0  0
   -1.7976    2.6089   -0.0529 C   0  0  0  0  0  0  0  0  0  0  0  0
   -4.1549    3.3601   -0.4728 C   0  0  0  0  0  0  0  0  0  0  0  0
   -0.8861   -1.5850   -1.2524 H   0  0  0  0  0  0  0  0  0  0  0  0
   -0.5770   -3.2684   -0.8284 H   0  0  0  0  0  0  0  0  0  0  0  0
   -0.5507   -0.9247    1.1604 H   0  0  0  0  0  0  0  0  0  0  0  0
   -0.1978   -2.5998    1.5597 H   0  0  0  0  0  0  0  0  0  0  0  0
    1.4488   -2.2807   -1.7866 H   0  0  0  0  0  0  0  0  0  0  0  0
    1.7156   -2.6749   -0.0770 H   0  0  0  0  0  0  0  0  0  0  0  0
   -2.5274   -2.1065    2.1510 H   0  0  0  0  0  0  0  0  0  0  0  0
   -2.4845   -3.2852    0.8410 H   0  0  0  0  0  0  0  0  0  0  0  0
    4.9890   -0.0435    1.4080 H   0  0  0  0  0  0  0  0  0  0  0  0
   -3.4191    2.4366    1.3214 H   0  0  0  0  0  0  0  0  0  0  0  0
    2.9045    1.2134    0.8907 H   0  0  0  0  0  0  0  0  0  0  0  0
    3.3906    1.3199   -0.8226 H   0  0  0  0  0  0  0  0  0  0  0  0
   -4.7297    0.7444    0.0512 H   0  0  0  0  0  0  0  0  0  0  0  0
   -3.5088    0.7713   -1.2495 H   0  0  0  0  0  0  0  0  0  0  0  0
    6.8130   -0.1959   -0.2704 H   0  0  0  0  0  0  0  0  0  0  0  0
    5.3938   -1.1197   -0.7733 H   0  0  0  0  0  0  0  0  0  0  0  0
    5.7338    0.4526   -1.5174 H   0  0  0  0  0  0  0  0  0  0  0  0
    4.9678    2.4403    1.6366 H   0  0  0  0  0  0  0  0  0  0  0  0
    6.5707    1.8609    1.1628 H   0  0  0  0  0  0  0  0  0  0  0  0
    5.5107    2.6132   -0.0420 H   0  0  0  0  0  0  0  0  0  0  0  0
   -1.5313    3.6346    0.2239 H   0  0  0  0  0  0  0  0  0  0  0  0
   -1.1526    1.9360    0.5209 H   0  0  0  0  0  0  0  0  0  0  0  0
   -1.5702    2.4751   -1.1159 H   0  0  0  0  0  0  0  0  0  0  0  0
   -5.2118    3.1936   -0.2394 H   0  0  0  0  0  0  0  0  0  0  0  0
   -3.9000    4.3774   -0.1573 H   0  0  0  0  0  0  0  0  0  0  0  0
   -4.0343    3.3025   -1.5600 H   0  0  0  0  0  0  0  0  0  0  0  0
  1 11  1  0  0  0  0
  1 13  1  0  0  0  0
  2 12  1  0  0  0  0
  2 14  1  0  0  0  0
  3 13  2  0  0  0  0
  4 14  2  0  0  0  0
  5  6  1  0  0  0  0
  5  7  1  0  0  0  0
  5 19  1  0  0  0  0
  5 20  1  0  0  0  0
  6  8  1  0  0  0  0
  6 21  1  0  0  0  0
  6 22  1  0  0  0  0
  7 13  1  0  0  0  0
  7 23  1  0  0  0  0
  7 24  1  0  0  0  0
  8 14  1  0  0  0  0
  8 25  1  0  0  0  0
  8 26  1  0  0  0  0
  9 11  1  0  0  0  0
  9 15  1  0  0  0  0
  9 16  1  0  0  0  0
  9 27  1  0  0  0  0
 10 12  1  0  0  0  0
 10 17  1  0  0  0  0
 10 18  1  0  0  0  0
 10 28  1  0  0  0  0
 11 29  1  0  0  0  0
 11 30  1  0  0  0  0
 12 31  1  0  0  0  0
 12 32  1  0  0  0  0
 15 33  1  0  0  0  0
 15 34  1  0  0  0  0
 15 35  1  0  0  0  0
 16 36  1  0  0  0  0
 16 37  1  0  0  0  0
 16 38  1  0  0  0  0
 17 39  1  0  0  0  0
 17 40  1  0  0  0  0
 17 41  1  0  0  0  0
 18 42  1  0  0  0  0
 18 43  1  0  0  0  0
 18 44  1  0  0  0  0
M  END
> <PUBCHEM_COMPOUND_CID>
8831

> <PUBCHEM_CONFORMER_RMSD>
1.2

> <PUBCHEM_CONFORMER_DIVERSEORDER>
1
8
28
12
30
2
17
31
33
19
27
29
25
21
10
3
24
23
15
22
13
36
40
14
18
20
39
35
7
38
9
37
6
5
34
26
4
11
16
32

> <PUBCHEM_MMFF94_PARTIAL_CHARGES>
10
1 -0.43
11 0.28
12 0.28
13 0.66
14 0.66
2 -0.43
3 -0.57
4 -0.57
7 0.06
8 0.06

> <PUBCHEM_EFFECTIVE_ROTOR_COUNT>
11

> <PUBCHEM_PHARMACOPHORE_FEATURES>
5
1 3 acceptor
1 4 acceptor
3 10 17 18 hydrophobe
3 9 15 16 hydrophobe
4 5 6 7 8 hydrophobe

> <PUBCHEM_HEAVY_ATOM_COUNT>
18

> <PUBCHEM_ATOM_DEF_STEREO_COUNT>
0

> <PUBCHEM_ATOM_UDEF_STEREO_COUNT>
0

> <PUBCHEM_BOND_DEF_STEREO_COUNT>
0

> <PUBCHEM_BOND_UDEF_STEREO_COUNT>
0

> <PUBCHEM_ISOTOPIC_ATOM_COUNT>
0

> <PUBCHEM_COMPONENT_COUNT>
1

> <PUBCHEM_CACTVS_TAUTO_COUNT>
1

> <PUBCHEM_CONFORMER_ID>
0000227F00000001

> <PUBCHEM_MMFF94_ENERGY>
14.6201

> <PUBCHEM_FEATURE_SELFOVERLAP>
25.371

> <PUBCHEM_SHAPE_FINGERPRINT>
10670039 82 18269254808586491348
11370993 70 18268149940744262149
12107183 9 17983870144584290650
12596602 18 17060059173161070072
12892183 10 18201999902518431170
13402501 40 18334295340321212993
14123250 116 17679291129770236617
14123255 352 18410013264418087672
14251732 17 18337389439509723734
14251764 30 6770994420596468565
14251764 38 18340204090297799796
14251764 75 17901662993065501361
14466204 15 18409736149466094744
15256400 18 18411415099273766764
17834072 32 18339078306038322785
20765182 40 18334584564014855944
21033648 29 18041289781418240184
21279426 13 18262790908739448958
21315764 268 18262523585416156360
21401589 2 18339634642264127489
23402539 116 18264492793493386967
23559900 14 18117559754789414690
351380 180 18336829680289670434
3524813 1 18114466651927172377
526903 126 18266175209639905713
5939293 188 16682884195102178917
7064713 232 18271802458205483588
90127 26 18337665326997531546
9981440 41 18343300383755748299

> <PUBCHEM_SHAPE_MULTIPOLES>
346.95
11.77
3.66
0.93
14.63
1.47
0.08
7.6
0.68
-4.72
0.06
0.15
-0.25
1.4

> <PUBCHEM_SHAPE_SELFOVERLAP>
652.377

> <PUBCHEM_SHAPE_VOLUME>
216

> <PUBCHEM_COORDINATE_TYPE>
2
5
10

$$$$

