14155
  -OEChem-06241222423D

 30 31  0     0  0  0  0  0  0999 V2000
    5.7252   -1.0638   -1.1809 O   0  0  0  0  0  0  0  0  0  0  0  0
    5.7266   -1.0542    1.1847 O   0  0  0  0  0  0  0  0  0  0  0  0
   -2.4879    2.3269   -0.0008 O   0  0  0  0  0  0  0  0  0  0  0  0
    5.0617   -0.7665    0.0012 N   0  0  0  0  0  0  0  0  0  0  0  0
   -0.0488    1.5201   -0.0018 N   0  0  0  0  0  0  0  0  0  0  0  0
   -0.9130    0.6179   -0.0016 N   0  0  0  0  0  0  0  0  0  0  0  0
    3.7742   -0.1906    0.0001 C   0  0  0  0  0  0  0  0  0  0  0  0
    1.2338    0.9460   -0.0018 C   0  0  0  0  0  0  0  0  0  0  0  0
    3.1380    0.0936   -1.2083 C   0  0  0  0  0  0  0  0  0  0  0  0
    3.1370    0.0949    1.2078 C   0  0  0  0  0  0  0  0  0  0  0  0
    1.8648    0.6634   -1.2092 C   0  0  0  0  0  0  0  0  0  0  0  0
    1.8636    0.6646    1.2068 C   0  0  0  0  0  0  0  0  0  0  0  0
   -3.2861    0.1211   -0.0001 C   0  0  0  0  0  0  0  0  0  0  0  0
   -2.9767   -1.2390   -0.0010 C   0  0  0  0  0  0  0  0  0  0  0  0
   -4.6188    0.5333    0.0017 C   0  0  0  0  0  0  0  0  0  0  0  0
   -3.9998   -2.1871   -0.0004 C   0  0  0  0  0  0  0  0  0  0  0  0
   -5.6419   -0.4149    0.0024 C   0  0  0  0  0  0  0  0  0  0  0  0
   -2.2194    1.1093   -0.0003 C   0  0  0  0  0  0  0  0  0  0  0  0
   -5.3323   -1.7751    0.0013 C   0  0  0  0  0  0  0  0  0  0  0  0
    3.6115   -0.1185   -2.1630 H   0  0  0  0  0  0  0  0  0  0  0  0
    3.6094   -0.1163    2.1633 H   0  0  0  0  0  0  0  0  0  0  0  0
    1.3766    0.8823   -2.1551 H   0  0  0  0  0  0  0  0  0  0  0  0
    1.3744    0.8845    2.1519 H   0  0  0  0  0  0  0  0  0  0  0  0
   -1.9522   -1.6005   -0.0022 H   0  0  0  0  0  0  0  0  0  0  0  0
   -4.8868    1.5865    0.0027 H   0  0  0  0  0  0  0  0  0  0  0  0
   -3.7595   -3.2463   -0.0012 H   0  0  0  0  0  0  0  0  0  0  0  0
   -6.6797   -0.0946    0.0037 H   0  0  0  0  0  0  0  0  0  0  0  0
   -6.1290   -2.5133    0.0018 H   0  0  0  0  0  0  0  0  0  0  0  0
    5.7642   -2.0345   -1.1443 H   0  0  0  0  0  0  0  0  0  0  0  0
    5.7689   -2.0249    1.1540 H   0  0  0  0  0  0  0  0  0  0  0  0
  1  4  1  0  0  0  0
  1 29  1  0  0  0  0
  2  4  1  0  0  0  0
  2 30  1  0  0  0  0
  3 18  2  0  0  0  0
  4  7  1  0  0  0  0
  5  6  2  0  0  0  0
  5  8  1  0  0  0  0
  6 18  1  0  0  0  0
  7  9  2  0  0  0  0
  7 10  1  0  0  0  0
  8 11  2  0  0  0  0
  8 12  1  0  0  0  0
  9 11  1  0  0  0  0
  9 20  1  0  0  0  0
 10 12  2  0  0  0  0
 10 21  1  0  0  0  0
 11 22  1  0  0  0  0
 12 23  1  0  0  0  0
 13 14  2  0  0  0  0
 13 15  1  0  0  0  0
 13 18  1  0  0  0  0
 14 16  1  0  0  0  0
 14 24  1  0  0  0  0
 15 17  2  0  0  0  0
 15 25  1  0  0  0  0
 16 19  2  0  0  0  0
 16 26  1  0  0  0  0
 17 19  1  0  0  0  0
 17 27  1  0  0  0  0
 19 28  1  0  0  0  0
M  END
> <PUBCHEM_COMPOUND_CID>
14155

> <PUBCHEM_CONFORMER_RMSD>
0.6

> <PUBCHEM_CONFORMER_DIVERSEORDER>
1
5
17
12
7
9
8
15
3
6
10
21
14
18
4
13
16
19
11
20
2

> <PUBCHEM_MMFF94_PARTIAL_CHARGES>
30
1 -0.38
10 -0.15
11 -0.15
12 -0.15
13 0.09
14 -0.15
15 -0.15
16 -0.15
17 -0.15
18 0.69
19 -0.15
2 -0.38
20 0.15
21 0.15
22 0.15
23 0.15
24 0.15
25 0.15
26 0.15
27 0.15
28 0.15
29 0.4
3 -0.57
30 0.4
4 -0.14
5 -0.18
6 -0.21
7 0.1
8 0.18
9 -0.15

> <PUBCHEM_EFFECTIVE_ROTOR_COUNT>
4

> <PUBCHEM_PHARMACOPHORE_FEATURES>
8
1 1 acceptor
1 1 anion
1 2 acceptor
1 2 anion
1 3 acceptor
1 6 donor
6 13 14 15 16 17 19 rings
6 7 8 9 10 11 12 rings

> <PUBCHEM_HEAVY_ATOM_COUNT>
19

> <PUBCHEM_ATOM_DEF_STEREO_COUNT>
0

> <PUBCHEM_ATOM_UDEF_STEREO_COUNT>
0

> <PUBCHEM_BOND_DEF_STEREO_COUNT>
0

> <PUBCHEM_BOND_UDEF_STEREO_COUNT>
0

> <PUBCHEM_ISOTOPIC_ATOM_COUNT>
0

> <PUBCHEM_COMPONENT_COUNT>
1

> <PUBCHEM_CACTVS_TAUTO_COUNT>
1

> <PUBCHEM_CONFORMER_ID>
0000374B00000001

> <PUBCHEM_MMFF94_ENERGY>
51.0631

> <PUBCHEM_FEATURE_SELFOVERLAP>
40.67

> <PUBCHEM_SHAPE_FINGERPRINT>
10803635 8 18060427932266371031
11046707 91 18413389839015510985
11128504 68 17346876723962722740
11796584 16 18410294756558953666
12236239 1 17846778524515935828
12507557 5 5473137445152410019
12555020 224 18339934719182287031
12633257 1 16226332521015913863
13167823 11 18202283576496654861
13288520 33 18410855464908536253
13402501 40 18186794794503435471
13862211 1 18336829681202442935
14251751 18 18334577923325502826
14251752 14 17774730839537135821
14252887 29 16298659568955180812
14341114 176 17530965769974271216
14386348 63 17894908537951741087
14576447 43 17846782914441777018
15209294 21 7204772583728017680
15537594 2 18060420239832361563
15880784 105 17168430350878558639
17834072 33 18131911555338273420
17857418 61 18342460347965291306
18222031 100 17917716798879959356
18915474 69 18059009488845809909
193927 3 18340197518786262275
200 152 17060339634420289277
20374829 77 18410573968520208183
20403669 9 18334290946854349735
20645477 56 10303812090487548261
21150785 3 18060128835392149486
21267235 1 18341888559860692451
21637258 2 18201730565271779266
22289505 5 13110971920174365214
22646028 1 18202284684571947413
2297311 6 18408598171721033061
23198884 109 15051735309199549781
23402539 116 18343024402120907749
23402655 69 13901914409675784021
23557571 272 18114742741036544497
23559900 14 18338524032377911777
25122255 55 18188759647905405390
26918003 58 17458062664331882593
2916195 48 10447922854398832478
29717793 49 17918274272586171484
3004659 81 18131070407167312989
351380 3 18059859458684424067
4028521 119 11671791463848492967
4214541 1 18410574007143681025
4325135 7 18342175523758258092
5104073 3 18188482468227904153
559249 180 18343025514849649091
5718773 13 18116157675869855671
5924683 9 16443919241541113359
602551 16 18408323285129105082
7062679 6 8214140772133635794
7471813 234 17704349979120151940
7495541 125 18186522077497498744
7970288 3 18341051805231149811

> <PUBCHEM_SHAPE_MULTIPOLES>
358.46
14.1
1.78
1.04
2.74
0.08
0
7.8
-0.01
-1.74
0
1.52
0.04
0

> <PUBCHEM_SHAPE_SELFOVERLAP>
768.231

> <PUBCHEM_SHAPE_VOLUME>
196.5

> <PUBCHEM_COORDINATE_TYPE>
2
5
10

$$$$

