9842
  -OEChem-06261204073D

 15 14  0     0  0  0  0  0  0999 V2000
   -3.3157   -0.3277   -0.1368 F   0  0  0  0  0  0  0  0  0  0  0  0
    0.2046   -0.3858    0.1633 O   0  0  0  0  0  0  0  0  0  0  0  0
   -1.2530    1.3880   -0.0911 O   0  0  0  0  0  0  0  0  0  0  0  0
    1.3110    0.5215    0.2002 C   0  0  0  0  0  0  0  0  0  0  0  0
   -1.0216    0.1910    0.0126 C   0  0  0  0  0  0  0  0  0  0  0  0
   -2.0758   -0.8739   -0.0092 C   0  0  0  0  0  0  0  0  0  0  0  0
    2.5696   -0.2633    0.3682 C   0  0  0  0  0  0  0  0  0  0  0  0
    3.5808   -0.2498   -0.5072 C   0  0  0  0  0  0  0  0  0  0  0  0
    1.3283    1.1110   -0.7241 H   0  0  0  0  0  0  0  0  0  0  0  0
    1.1958    1.1994    1.0538 H   0  0  0  0  0  0  0  0  0  0  0  0
   -2.0553   -1.4361    0.9277 H   0  0  0  0  0  0  0  0  0  0  0  0
   -1.9147   -1.5382   -0.8618 H   0  0  0  0  0  0  0  0  0  0  0  0
    2.6612   -0.8760    1.2611 H   0  0  0  0  0  0  0  0  0  0  0  0
    4.4714   -0.8419   -0.3264 H   0  0  0  0  0  0  0  0  0  0  0  0
    3.5405    0.3458   -1.4123 H   0  0  0  0  0  0  0  0  0  0  0  0
  1  6  1  0  0  0  0
  2  4  1  0  0  0  0
  2  5  1  0  0  0  0
  3  5  2  0  0  0  0
  4  7  1  0  0  0  0
  4  9  1  0  0  0  0
  4 10  1  0  0  0  0
  5  6  1  0  0  0  0
  6 11  1  0  0  0  0
  6 12  1  0  0  0  0
  7  8  2  0  0  0  0
  7 13  1  0  0  0  0
  8 14  1  0  0  0  0
  8 15  1  0  0  0  0
M  END
> <PUBCHEM_COMPOUND_CID>
9842

> <PUBCHEM_CONFORMER_RMSD>
0.6

> <PUBCHEM_CONFORMER_DIVERSEORDER>
1
30
5
3
25
10
14
28
18
29
27
23
11
2
12
13
15
6
22
7
26
19
24
9
16
4
17
21
8
20

> <PUBCHEM_MMFF94_PARTIAL_CHARGES>
11
1 -0.34
13 0.15
14 0.15
15 0.15
2 -0.43
3 -0.57
4 0.42
5 0.66
6 0.4
7 -0.29
8 -0.3

> <PUBCHEM_EFFECTIVE_ROTOR_COUNT>
4

> <PUBCHEM_PHARMACOPHORE_FEATURES>
2
1 3 acceptor
1 8 hydrophobe

> <PUBCHEM_HEAVY_ATOM_COUNT>
8

> <PUBCHEM_ATOM_DEF_STEREO_COUNT>
0

> <PUBCHEM_ATOM_UDEF_STEREO_COUNT>
0

> <PUBCHEM_BOND_DEF_STEREO_COUNT>
0

> <PUBCHEM_BOND_UDEF_STEREO_COUNT>
0

> <PUBCHEM_ISOTOPIC_ATOM_COUNT>
0

> <PUBCHEM_COMPONENT_COUNT>
1

> <PUBCHEM_CACTVS_TAUTO_COUNT>
1

> <PUBCHEM_CONFORMER_ID>
0000267200000001

> <PUBCHEM_MMFF94_ENERGY>
3.6519

> <PUBCHEM_FEATURE_SELFOVERLAP>
10.148

> <PUBCHEM_SHAPE_FINGERPRINT>
11062470 55 14189577433437683070
12897270 3 18343586226544840994
12932764 1 17095535010547292062
14325111 11 18411138065076890722
21293036 1 16773794770997021262
23552423 10 18200878353096304746
29004967 10 16732700554131848474
3248919 1 16988838406546219016
5460574 1 8718828691215461002

> <PUBCHEM_SHAPE_MULTIPOLES>
145.62
5.45
0.97
0.64
1.42
0.19
0
-1.11
-0.66
-0.39
-0.02
0.23
-0.02
0.05

> <PUBCHEM_SHAPE_SELFOVERLAP>
268.532

> <PUBCHEM_SHAPE_VOLUME>
91.5

> <PUBCHEM_COORDINATE_TYPE>
2
5
10

$$$$

