853875
  -OEChem-06241222453D

 38 41  0     1  0  0  0  0  0999 V2000
   -1.9736   -2.9563   -0.3732 O   0  0  0  0  0  0  0  0  0  0  0  0
   -0.3193    0.7154    0.1270 N   0  0  3  0  0  0  0  0  0  0  0  0
    0.5079   -0.4720    0.4458 C   0  0  1  0  0  0  0  0  0  0  0  0
   -1.7190    0.5684    0.0926 C   0  0  0  0  0  0  0  0  0  0  0  0
    0.0193   -1.6382   -0.4192 C   0  0  0  0  0  0  0  0  0  0  0  0
   -2.3276   -0.6283   -0.0674 C   0  0  0  0  0  0  0  0  0  0  0  0
    0.3588    2.0152    0.1179 C   0  0  0  0  0  0  0  0  0  0  0  0
   -2.5690    1.8142    0.2820 C   0  0  0  0  0  0  0  0  0  0  0  0
    2.0039   -0.2721    0.2689 C   0  0  0  0  0  0  0  0  0  0  0  0
   -3.8173   -0.8391   -0.0994 C   0  0  0  0  0  0  0  0  0  0  0  0
    1.5798    1.9602   -0.7930 C   0  0  0  0  0  0  0  0  0  0  0  0
   -4.0330    1.5427    0.6348 C   0  0  0  0  0  0  0  0  0  0  0  0
   -1.4717   -1.8380   -0.2706 C   0  0  0  0  0  0  0  0  0  0  0  0
   -4.6090    0.4558   -0.2572 C   0  0  0  0  0  0  0  0  0  0  0  0
    2.5199    0.8861   -0.3326 C   0  0  0  0  0  0  0  0  0  0  0  0
    2.8988   -1.2586    0.7154 C   0  0  0  0  0  0  0  0  0  0  0  0
    3.9015    1.0235   -0.5232 C   0  0  0  0  0  0  0  0  0  0  0  0
    4.2745   -1.1085    0.5382 C   0  0  0  0  0  0  0  0  0  0  0  0
    4.7752    0.0295   -0.0867 C   0  0  0  0  0  0  0  0  0  0  0  0
    0.3355   -0.7026    1.5070 H   0  0  0  0  0  0  0  0  0  0  0  0
    0.5138   -2.5709   -0.1240 H   0  0  0  0  0  0  0  0  0  0  0  0
    0.2298   -1.4663   -1.4823 H   0  0  0  0  0  0  0  0  0  0  0  0
    0.6428    2.2824    1.1437 H   0  0  0  0  0  0  0  0  0  0  0  0
   -0.2894    2.8131   -0.2586 H   0  0  0  0  0  0  0  0  0  0  0  0
   -2.1523    2.4364    1.0834 H   0  0  0  0  0  0  0  0  0  0  0  0
   -2.5330    2.4017   -0.6443 H   0  0  0  0  0  0  0  0  0  0  0  0
   -4.0906   -1.5102   -0.9224 H   0  0  0  0  0  0  0  0  0  0  0  0
   -4.1160   -1.3347    0.8328 H   0  0  0  0  0  0  0  0  0  0  0  0
    2.0782    2.9364   -0.7776 H   0  0  0  0  0  0  0  0  0  0  0  0
    1.2805    1.7491   -1.8269 H   0  0  0  0  0  0  0  0  0  0  0  0
   -4.1095    1.2362    1.6858 H   0  0  0  0  0  0  0  0  0  0  0  0
   -4.6145    2.4655    0.5287 H   0  0  0  0  0  0  0  0  0  0  0  0
   -4.5777    0.7844   -1.3039 H   0  0  0  0  0  0  0  0  0  0  0  0
   -5.6617    0.2795   -0.0094 H   0  0  0  0  0  0  0  0  0  0  0  0
    2.5270   -2.1565    1.2032 H   0  0  0  0  0  0  0  0  0  0  0  0
    4.3042    1.9106   -1.0054 H   0  0  0  0  0  0  0  0  0  0  0  0
    4.9538   -1.8820    0.8844 H   0  0  0  0  0  0  0  0  0  0  0  0
    5.8454    0.1449   -0.2307 H   0  0  0  0  0  0  0  0  0  0  0  0
  1 13  2  0  0  0  0
  2  3  1  0  0  0  0
  2  4  1  0  0  0  0
  2  7  1  0  0  0  0
  3  5  1  0  0  0  0
  3  9  1  0  0  0  0
  3 20  1  0  0  0  0
  4  6  2  0  0  0  0
  4  8  1  0  0  0  0
  5 13  1  0  0  0  0
  5 21  1  0  0  0  0
  5 22  1  0  0  0  0
  6 10  1  0  0  0  0
  6 13  1  0  0  0  0
  7 11  1  0  0  0  0
  7 23  1  0  0  0  0
  7 24  1  0  0  0  0
  8 12  1  0  0  0  0
  8 25  1  0  0  0  0
  8 26  1  0  0  0  0
  9 15  1  0  0  0  0
  9 16  2  0  0  0  0
 10 14  1  0  0  0  0
 10 27  1  0  0  0  0
 10 28  1  0  0  0  0
 11 15  1  0  0  0  0
 11 29  1  0  0  0  0
 11 30  1  0  0  0  0
 12 14  1  0  0  0  0
 12 31  1  0  0  0  0
 12 32  1  0  0  0  0
 14 33  1  0  0  0  0
 14 34  1  0  0  0  0
 15 17  2  0  0  0  0
 16 18  1  0  0  0  0
 16 35  1  0  0  0  0
 17 19  1  0  0  0  0
 17 36  1  0  0  0  0
 18 19  2  0  0  0  0
 18 37  1  0  0  0  0
 19 38  1  0  0  0  0
M  END
> <PUBCHEM_COMPOUND_CID>
853875

> <PUBCHEM_CONFORMER_RMSD>
0.6

> <PUBCHEM_CONFORMER_DIVERSEORDER>
1
2
3

> <PUBCHEM_MMFF94_PARTIAL_CHARGES>
21
1 -0.57
10 0.14
11 0.14
13 0.49
15 -0.14
16 -0.15
17 -0.15
18 -0.15
19 -0.15
2 -0.84
3 0.51
35 0.15
36 0.15
37 0.15
38 0.15
4 -0.04
5 0.06
6 -0.12
7 0.37
8 0.14
9 -0.14

> <PUBCHEM_EFFECTIVE_ROTOR_COUNT>
1.4

> <PUBCHEM_PHARMACOPHORE_FEATURES>
6
1 1 acceptor
1 2 cation
6 2 3 4 5 6 13 rings
6 2 3 7 9 11 15 rings
6 4 6 8 10 12 14 rings
6 9 15 16 17 18 19 rings

> <PUBCHEM_HEAVY_ATOM_COUNT>
19

> <PUBCHEM_ATOM_DEF_STEREO_COUNT>
1

> <PUBCHEM_ATOM_UDEF_STEREO_COUNT>
0

> <PUBCHEM_BOND_DEF_STEREO_COUNT>
0

> <PUBCHEM_BOND_UDEF_STEREO_COUNT>
0

> <PUBCHEM_ISOTOPIC_ATOM_COUNT>
0

> <PUBCHEM_COMPONENT_COUNT>
1

> <PUBCHEM_CACTVS_TAUTO_COUNT>
5

> <PUBCHEM_CONFORMER_ID>
000D077300000001

> <PUBCHEM_MMFF94_ENERGY>
39.4199

> <PUBCHEM_FEATURE_SELFOVERLAP>
30.517

> <PUBCHEM_SHAPE_FINGERPRINT>
10062212 137 18410296899752837711
10616163 171 18337106770062911710
10967382 1 18410292553129694702
11132069 177 18409452513472078328
11578080 2 17315362418682117243
12236239 1 18273215300966811346
12251169 10 18412545422395504910
12403814 3 17917996100550347573
12592029 89 18339916125577642779
12788726 201 17968646211490564680
13140716 1 18191864531429553899
13221675 6 18342739606807306050
13380535 76 18334574672388655215
13583140 156 17489867150857212785
14115302 16 18408881819708641292
14178342 30 18194702379509608050
14790565 3 18337945804846211753
15042514 8 18337668599694571827
15099037 51 18411140246872811007
15196674 1 18411136926520251600
15375462 189 18059861705052332448
15442244 35 18411702071470934534
15536298 74 18336548227172905096
16752209 62 18334588936027688659
16945 1 18337677408023019379
17349148 13 18187087256206241005
17492 89 18339641127396426434
17804303 29 18333450928212386873
1813 80 17345750936490356262
18186145 218 17418380181568150978
19591789 44 18267304424702305526
200 152 18335145289027374917
20261772 1 18411411830234026881
20510252 161 18114179795388387049
21267235 1 18412536622392903674
21501502 16 18268147565347343982
221490 88 18127684924918624034
23184049 59 18342736359833174684
23402539 116 18187936096405126717
23402655 69 18342454820901323220
23463225 33 18412545435280413292
23557571 272 17821722823540552862
23559900 14 18186519891717782600
2748010 2 17546729716915115917
335352 9 18410856602589469484
34934 24 18412830157822241896
350125 39 18410291411496965377
4214541 1 18410856555344835272
474 4 17559951018381192948
5104073 3 18411981338618275624
69090 78 18410857680657941377
7064713 232 18189620612453673520
7364860 26 18191870029040660952
74978 22 18337674105172245057
7832392 63 18411139091526770588
90525 40 18335417958999395023
9709674 26 18261386745826846686
9981440 41 17333931954874672656

> <PUBCHEM_SHAPE_MULTIPOLES>
380.16
8.73
2.38
0.77
1.13
0.5
-0.01
-0.61
-0.36
-0.91
0.23
0.14
-0.03
-0.99

> <PUBCHEM_SHAPE_SELFOVERLAP>
832.153

> <PUBCHEM_SHAPE_VOLUME>
203.2

> <PUBCHEM_COORDINATE_TYPE>
2
5
10

$$$$

