7912
  -OEChem-06261202273D

 22 21  0     0  0  0  0  0  0999 V2000
   -0.0044    0.7083    0.0056 N   0  0  0  0  0  0  0  0  0  0  0  0
    1.1809   -0.1197   -0.2128 C   0  0  0  0  0  0  0  0  0  0  0  0
   -1.1811   -0.1212    0.2135 C   0  0  0  0  0  0  0  0  0  0  0  0
    1.4367   -1.0081    1.0014 C   0  0  0  0  0  0  0  0  0  0  0  0
    2.3813    0.7773   -0.4981 C   0  0  0  0  0  0  0  0  0  0  0  0
   -1.4267   -1.0060   -1.0055 C   0  0  0  0  0  0  0  0  0  0  0  0
   -2.3868    0.7695    0.4959 C   0  0  0  0  0  0  0  0  0  0  0  0
    1.0782   -0.7454   -1.1052 H   0  0  0  0  0  0  0  0  0  0  0  0
   -1.0819   -0.7547    1.1015 H   0  0  0  0  0  0  0  0  0  0  0  0
    0.1394    1.3140    0.8135 H   0  0  0  0  0  0  0  0  0  0  0  0
    2.4307   -1.4659    0.9324 H   0  0  0  0  0  0  0  0  0  0  0  0
    1.4106   -0.4386    1.9376 H   0  0  0  0  0  0  0  0  0  0  0  0
    0.7267   -1.8374    1.0757 H   0  0  0  0  0  0  0  0  0  0  0  0
    2.2004    1.4083   -1.3756 H   0  0  0  0  0  0  0  0  0  0  0  0
    3.2756    0.1778   -0.7003 H   0  0  0  0  0  0  0  0  0  0  0  0
    2.6037    1.4339    0.3507 H   0  0  0  0  0  0  0  0  0  0  0  0
   -2.4234   -1.4597   -0.9498 H   0  0  0  0  0  0  0  0  0  0  0  0
   -1.3868   -0.4333   -1.9393 H   0  0  0  0  0  0  0  0  0  0  0  0
   -0.7198   -1.8386   -1.0736 H   0  0  0  0  0  0  0  0  0  0  0  0
   -2.2211    1.3887    1.3848 H   0  0  0  0  0  0  0  0  0  0  0  0
   -3.2828    0.1657    0.6770 H   0  0  0  0  0  0  0  0  0  0  0  0
   -2.5983    1.4373   -0.3470 H   0  0  0  0  0  0  0  0  0  0  0  0
  1  2  1  0  0  0  0
  1  3  1  0  0  0  0
  1 10  1  0  0  0  0
  2  4  1  0  0  0  0
  2  5  1  0  0  0  0
  2  8  1  0  0  0  0
  3  6  1  0  0  0  0
  3  7  1  0  0  0  0
  3  9  1  0  0  0  0
  4 11  1  0  0  0  0
  4 12  1  0  0  0  0
  4 13  1  0  0  0  0
  5 14  1  0  0  0  0
  5 15  1  0  0  0  0
  5 16  1  0  0  0  0
  6 17  1  0  0  0  0
  6 18  1  0  0  0  0
  6 19  1  0  0  0  0
  7 20  1  0  0  0  0
  7 21  1  0  0  0  0
  7 22  1  0  0  0  0
M  END
> <PUBCHEM_COMPOUND_CID>
7912

> <PUBCHEM_CONFORMER_RMSD>
0.4

> <PUBCHEM_CONFORMER_DIVERSEORDER>
1
2

> <PUBCHEM_MMFF94_PARTIAL_CHARGES>
4
1 -0.9
10 0.36
2 0.27
3 0.27

> <PUBCHEM_EFFECTIVE_ROTOR_COUNT>
2

> <PUBCHEM_PHARMACOPHORE_FEATURES>
4
1 1 cation
1 1 donor
3 2 4 5 hydrophobe
3 3 6 7 hydrophobe

> <PUBCHEM_HEAVY_ATOM_COUNT>
7

> <PUBCHEM_ATOM_DEF_STEREO_COUNT>
0

> <PUBCHEM_ATOM_UDEF_STEREO_COUNT>
0

> <PUBCHEM_BOND_DEF_STEREO_COUNT>
0

> <PUBCHEM_BOND_UDEF_STEREO_COUNT>
0

> <PUBCHEM_ISOTOPIC_ATOM_COUNT>
0

> <PUBCHEM_COMPONENT_COUNT>
1

> <PUBCHEM_CACTVS_TAUTO_COUNT>
1

> <PUBCHEM_CONFORMER_ID>
00001EE800000001

> <PUBCHEM_MMFF94_ENERGY>
-0.7489

> <PUBCHEM_FEATURE_SELFOVERLAP>
20.297

> <PUBCHEM_SHAPE_FINGERPRINT>
12932741 1 15647059239401173701
14390081 3 18334854987434207944
16714656 1 17968085430621571781
18185500 45 18411429392344750402
20096714 4 18411131433320467976
20711978 78 17703231848339336962
21040471 1 17677331739798157839
23552423 10 18336547208801633870
24536 1 18411147934516344866
29004967 10 16917063373610729888
5460574 1 8790887350231354425

> <PUBCHEM_SHAPE_MULTIPOLES>
139.08
3.31
1.14
0.99
0.01
0.11
0
-0.7
0
-0.01
0
0
0.24
-0.69

> <PUBCHEM_SHAPE_SELFOVERLAP>
243.273

> <PUBCHEM_SHAPE_VOLUME>
94

> <PUBCHEM_COORDINATE_TYPE>
2
5
10

$$$$

