13956
  -OEChem-06241222413D

 43 45  0     0  0  0  0  0  0999 V2000
   -0.0785   -0.0148    1.4567 P   0  0  0  0  0  0  0  0  0  0  0  0
   -1.7209   -0.1361    0.6819 C   0  0  0  0  0  0  0  0  0  0  0  0
    0.7007    1.4551    0.7011 C   0  0  0  0  0  0  0  0  0  0  0  0
    0.9150   -1.3395    0.6840 C   0  0  0  0  0  0  0  0  0  0  0  0
   -1.8870   -0.8771   -0.4881 C   0  0  0  0  0  0  0  0  0  0  0  0
    0.0054    2.1911   -0.2531 C   0  0  0  0  0  0  0  0  0  0  0  0
    1.6412   -1.0725   -0.4721 C   0  0  0  0  0  0  0  0  0  0  0  0
   -2.8135    0.5117    1.2583 C   0  0  0  0  0  0  0  0  0  0  0  0
    1.9845    1.8297    1.0844 C   0  0  0  0  0  0  0  0  0  0  0  0
    0.9393   -2.6072    1.2566 C   0  0  0  0  0  0  0  0  0  0  0  0
   -4.2383   -0.3224   -0.5057 C   0  0  0  0  0  0  0  0  0  0  0  0
    1.8871    3.6936   -0.4495 C   0  0  0  0  0  0  0  0  0  0  0  0
    2.4280   -3.3566   -0.4924 C   0  0  0  0  0  0  0  0  0  0  0  0
   -3.1458   -0.9702   -1.0820 C   0  0  0  0  0  0  0  0  0  0  0  0
    0.6001    3.3133   -0.8300 C   0  0  0  0  0  0  0  0  0  0  0  0
    2.3998   -2.0837   -1.0620 C   0  0  0  0  0  0  0  0  0  0  0  0
   -4.0722    0.4186    0.6645 C   0  0  0  0  0  0  0  0  0  0  0  0
    2.5793    2.9518    0.5077 C   0  0  0  0  0  0  0  0  0  0  0  0
    1.6978   -3.6184    0.6670 C   0  0  0  0  0  0  0  0  0  0  0  0
   -5.5844   -0.4224   -1.1397 C   0  0  0  0  0  0  0  0  0  0  0  0
    2.5229    4.8937   -1.0654 C   0  0  0  0  0  0  0  0  0  0  0  0
    3.2394   -4.4377   -1.1222 C   0  0  0  0  0  0  0  0  0  0  0  0
   -1.0744   -1.3943   -0.9853 H   0  0  0  0  0  0  0  0  0  0  0  0
   -0.9949    1.9454   -0.5902 H   0  0  0  0  0  0  0  0  0  0  0  0
    1.6326   -0.1202   -0.9892 H   0  0  0  0  0  0  0  0  0  0  0  0
   -2.7066    1.0945    2.1700 H   0  0  0  0  0  0  0  0  0  0  0  0
    2.5415    1.2679    1.8303 H   0  0  0  0  0  0  0  0  0  0  0  0
    0.3766   -2.8320    2.1594 H   0  0  0  0  0  0  0  0  0  0  0  0
   -3.2632   -1.5503   -1.9936 H   0  0  0  0  0  0  0  0  0  0  0  0
    0.0521    3.8825   -1.5762 H   0  0  0  0  0  0  0  0  0  0  0  0
    2.9566   -1.8711   -1.9708 H   0  0  0  0  0  0  0  0  0  0  0  0
   -4.9162    0.9262    1.1239 H   0  0  0  0  0  0  0  0  0  0  0  0
    3.5830    3.2374    0.8114 H   0  0  0  0  0  0  0  0  0  0  0  0
    1.7105   -4.6066    1.1190 H   0  0  0  0  0  0  0  0  0  0  0  0
   -6.1762    0.4806   -0.9552 H   0  0  0  0  0  0  0  0  0  0  0  0
   -5.5021   -0.5344   -2.2262 H   0  0  0  0  0  0  0  0  0  0  0  0
   -6.1257   -1.2847   -0.7381 H   0  0  0  0  0  0  0  0  0  0  0  0
    1.7713    5.6400   -1.3445 H   0  0  0  0  0  0  0  0  0  0  0  0
    3.2114    5.3792   -0.3654 H   0  0  0  0  0  0  0  0  0  0  0  0
    3.0801    4.6049   -1.9622 H   0  0  0  0  0  0  0  0  0  0  0  0
    4.1165   -4.0267   -1.6336 H   0  0  0  0  0  0  0  0  0  0  0  0
    3.6089   -5.1434   -0.3704 H   0  0  0  0  0  0  0  0  0  0  0  0
    2.6338   -4.9861   -1.8505 H   0  0  0  0  0  0  0  0  0  0  0  0
  1  2  1  0  0  0  0
  1  3  1  0  0  0  0
  1  4  1  0  0  0  0
  2  5  2  0  0  0  0
  2  8  1  0  0  0  0
  3  6  2  0  0  0  0
  3  9  1  0  0  0  0
  4  7  2  0  0  0  0
  4 10  1  0  0  0  0
  5 14  1  0  0  0  0
  5 23  1  0  0  0  0
  6 15  1  0  0  0  0
  6 24  1  0  0  0  0
  7 16  1  0  0  0  0
  7 25  1  0  0  0  0
  8 17  2  0  0  0  0
  8 26  1  0  0  0  0
  9 18  2  0  0  0  0
  9 27  1  0  0  0  0
 10 19  2  0  0  0  0
 10 28  1  0  0  0  0
 11 14  2  0  0  0  0
 11 17  1  0  0  0  0
 11 20  1  0  0  0  0
 12 15  2  0  0  0  0
 12 18  1  0  0  0  0
 12 21  1  0  0  0  0
 13 16  2  0  0  0  0
 13 19  1  0  0  0  0
 13 22  1  0  0  0  0
 14 29  1  0  0  0  0
 15 30  1  0  0  0  0
 16 31  1  0  0  0  0
 17 32  1  0  0  0  0
 18 33  1  0  0  0  0
 19 34  1  0  0  0  0
 20 35  1  0  0  0  0
 20 36  1  0  0  0  0
 20 37  1  0  0  0  0
 21 38  1  0  0  0  0
 21 39  1  0  0  0  0
 21 40  1  0  0  0  0
 22 41  1  0  0  0  0
 22 42  1  0  0  0  0
 22 43  1  0  0  0  0
M  END
> <PUBCHEM_COMPOUND_CID>
13956

> <PUBCHEM_CONFORMER_RMSD>
0.6

> <PUBCHEM_CONFORMER_DIVERSEORDER>
1
2

> <PUBCHEM_MMFF94_PARTIAL_CHARGES>
34
1 -0.04
10 -0.15
11 -0.14
12 -0.14
13 -0.14
14 -0.15
15 -0.15
16 -0.15
17 -0.15
18 -0.15
19 -0.15
2 0.01
20 0.14
21 0.14
22 0.14
23 0.15
24 0.15
25 0.15
26 0.15
27 0.15
28 0.15
29 0.15
3 0.01
30 0.15
31 0.15
32 0.15
33 0.15
34 0.15
4 0.01
5 -0.15
6 -0.15
7 -0.15
8 -0.15
9 -0.15

> <PUBCHEM_EFFECTIVE_ROTOR_COUNT>
3

> <PUBCHEM_PHARMACOPHORE_FEATURES>
3
6 2 5 8 11 14 17 rings
6 3 6 9 12 15 18 rings
6 4 7 10 13 16 19 rings

> <PUBCHEM_HEAVY_ATOM_COUNT>
22

> <PUBCHEM_ATOM_DEF_STEREO_COUNT>
0

> <PUBCHEM_ATOM_UDEF_STEREO_COUNT>
0

> <PUBCHEM_BOND_DEF_STEREO_COUNT>
0

> <PUBCHEM_BOND_UDEF_STEREO_COUNT>
0

> <PUBCHEM_ISOTOPIC_ATOM_COUNT>
0

> <PUBCHEM_COMPONENT_COUNT>
1

> <PUBCHEM_CACTVS_TAUTO_COUNT>
1

> <PUBCHEM_CONFORMER_ID>
0000368400000001

> <PUBCHEM_MMFF94_ENERGY>
74.5413

> <PUBCHEM_FEATURE_SELFOVERLAP>
15.223

> <PUBCHEM_SHAPE_FINGERPRINT>
105312 117 17766268783006703204
11045515 52 18122338253281263186
11069576 57 17825982289101784447
11477941 20 17903898296231056446
121448 382 17538003559077692225
12553582 1 18123185977068552011
12643181 29 17979340977666194036
12788726 201 17334773570700351635
13009979 54 17749665324466984427
13257819 37 17693088565941981575
133893 2 18335125497686076529
13681431 1 18410294752152983035
13690498 29 17252282702379844230
13899415 180 18194700377717555887
13911987 19 18057297622778754646
14251757 5 17474669932443919173
14556957 393 17838022134773124718
15439362 3 18338796719339877333
15475509 35 7420107671885403285
15878777 1 12704003496326520394
17539 30 17618224352546961334
1813 80 18191028004744130747
18915476 22 18267851801589660715
20600515 1 17317317650851149016
20602899 9 17685476664085970680
20775438 99 17547340938307184413
21033648 29 14115033809893265229
21304303 282 17035326608155784197
21524375 3 17767699256086814737
2255824 54 18409451366879541891
22907989 373 17400915800796854126
23366157 5 18411700980681285659
23419403 2 17271207311911592602
23559900 14 18261688029873182171
23566358 27 18337099082677976987
23598288 3 17045974781143941851
26353 1 18193838377654180638
3057174 1 18194682553523636980
3060560 45 18339652118185412768
3091708 16 9287775372142968984
352729 6 18122623842783688736
4017518 198 18115871786040524564
4280585 95 18265905824553476370
4394409 98 17984673690395553420
4409770 3 17185314781782834215
46194498 28 18270978885921153349
474 4 18268718212272718793
6786 2 17979911614555260286
7164475 11 17834667580568316942

> <PUBCHEM_SHAPE_MULTIPOLES>
456.6
6.97
6.4
1.4
11.78
2.02
-0.12
-1.94
2.47
-11.26
2.22
0.1
-0.18
-0.06

> <PUBCHEM_SHAPE_SELFOVERLAP>
965.337

> <PUBCHEM_SHAPE_VOLUME>
257.8

> <PUBCHEM_COORDINATE_TYPE>
2
5
10

$$$$

