11091
  -OEChem-06261205182D

 16 15  0     0  0  0  0  0  0999 V2000
    0.5369    2.6200    0.0000 O   0  0  0  0  0  0  0  0  0  0  0  0
    3.1350    4.1200    0.0000 O   0  5  0  0  0  0  0  0  0  0  0  0
    1.4030    4.1200    0.0000 O   0  0  0  0  0  0  0  0  0  0  0  0
    2.2690    2.6200    0.0000 C   0  0  0  0  0  0  0  0  0  0  0  0
    1.4030    2.1200    0.0000 C   0  0  0  0  0  0  0  0  0  0  0  0
    3.1350    2.1200    0.0000 C   0  0  0  0  0  0  0  0  0  0  0  0
    1.4030    1.1200    0.0000 C   0  0  0  0  0  0  0  0  0  0  0  0
    3.1350    1.1200    0.0000 C   0  0  0  0  0  0  0  0  0  0  0  0
    2.2690    0.6200    0.0000 C   0  0  0  0  0  0  0  0  0  0  0  0
    2.2690    3.6200    0.0000 C   0  0  0  0  0  0  0  0  0  0  0  0
    3.1350    5.1200    0.0000 Li  0  3  0  0  0  0  0  0  0  0  0  0
    3.6719    2.4300    0.0000 H   0  0  0  0  0  0  0  0  0  0  0  0
    0.8660    0.8100    0.0000 H   0  0  0  0  0  0  0  0  0  0  0  0
    3.6719    0.8100    0.0000 H   0  0  0  0  0  0  0  0  0  0  0  0
    2.2690    0.0000    0.0000 H   0  0  0  0  0  0  0  0  0  0  0  0
    0.0000    2.3100    0.0000 H   0  0  0  0  0  0  0  0  0  0  0  0
  1  5  1  0  0  0  0
  1 16  1  0  0  0  0
  2 10  1  0  0  0  0
  3 10  2  0  0  0  0
  4  5  1  0  0  0  0
  4  6  2  0  0  0  0
  4 10  1  0  0  0  0
  5  7  2  0  0  0  0
  6  8  1  0  0  0  0
  6 12  1  0  0  0  0
  7  9  1  0  0  0  0
  7 13  1  0  0  0  0
  8  9  2  0  0  0  0
  8 14  1  0  0  0  0
  9 15  1  0  0  0  0
M  CHG  2   2  -1  11   1
M  END
> <PUBCHEM_COMPOUND_CID>
11091

> <PUBCHEM_COMPOUND_CANONICALIZED>
1

> <PUBCHEM_CACTVS_COMPLEXITY>
127

> <PUBCHEM_CACTVS_HBOND_ACCEPTOR>
3

> <PUBCHEM_CACTVS_HBOND_DONOR>
1

> <PUBCHEM_CACTVS_ROTATABLE_BOND>
0

> <PUBCHEM_CACTVS_SUBSKEYS>
AAADcYhgMAAAAAAAAAAAAAAAAAAAAAAAAAAwAAAAAAAAAAABAAAAGgAACAAADASAmAAwDoAAAgCIAiDSCAACAAAkIAAIiAEGCMgIJzaCFRKAcUAl4BEImYeIyCCOAAAAAAAIAAAAAAAAABAAAAAAAAAAAA==

> <PUBCHEM_IUPAC_OPENEYE_NAME>
lithium 2-hydroxybenzoate

> <PUBCHEM_IUPAC_CAS_NAME>
lithium 2-hydroxybenzoate

> <PUBCHEM_IUPAC_NAME>
lithium 2-hydroxybenzoate

> <PUBCHEM_IUPAC_SYSTEMATIC_NAME>
lithium 2-oxidanylbenzoate

> <PUBCHEM_IUPAC_TRADITIONAL_NAME>
lithium salicylate

> <PUBCHEM_IUPAC_INCHI>
InChI=1S/C7H6O3.Li/c8-6-4-2-1-3-5(6)7(9)10;/h1-4,8H,(H,9,10);/q;+1/p-1

> <PUBCHEM_IUPAC_INCHIKEY>
PSBOOKLOXQFNPZ-UHFFFAOYSA-M

> <PUBCHEM_EXACT_MASS>
144.039874

> <PUBCHEM_MOLECULAR_FORMULA>
C7H5LiO3

> <PUBCHEM_MOLECULAR_WEIGHT>
144.0538

> <PUBCHEM_OPENEYE_CAN_SMILES>
[Li+].C1=CC=C(C(=C1)C(=O)[O-])O

> <PUBCHEM_OPENEYE_ISO_SMILES>
[Li+].C1=CC=C(C(=C1)C(=O)[O-])O

> <PUBCHEM_CACTVS_TPSA>
60.4

> <PUBCHEM_MONOISOTOPIC_WEIGHT>
144.039874

> <PUBCHEM_TOTAL_CHARGE>
0

> <PUBCHEM_HEAVY_ATOM_COUNT>
11

> <PUBCHEM_ATOM_DEF_STEREO_COUNT>
0

> <PUBCHEM_ATOM_UDEF_STEREO_COUNT>
0

> <PUBCHEM_BOND_DEF_STEREO_COUNT>
0

> <PUBCHEM_BOND_UDEF_STEREO_COUNT>
0

> <PUBCHEM_ISOTOPIC_ATOM_COUNT>
0

> <PUBCHEM_COMPONENT_COUNT>
2

> <PUBCHEM_CACTVS_TAUTO_COUNT>
4

> <PUBCHEM_COORDINATE_TYPE>
1
5
255

> <PUBCHEM_BONDANNOTATIONS>
4  5  8
4  6  8
5  7  8
6  8  8
7  9  8
8  9  8

$$$$

