3437
  -OEChem-06251223253D

 30 32  0     0  0  0  0  0  0999 V2000
   -2.9589   -0.8681    0.5829 O   0  0  0  0  0  0  0  0  0  0  0  0
   -5.1895    1.8420   -0.1327 O   0  0  0  0  0  0  0  0  0  0  0  0
   -5.6076   -0.0193    1.0858 O   0  0  0  0  0  0  0  0  0  0  0  0
    4.8118   -0.2407    1.2938 N   0  0  0  0  0  0  0  0  0  0  0  0
    0.8695   -0.8140   -0.8735 C   0  0  0  0  0  0  0  0  0  0  0  0
    2.2543   -0.7447   -1.4278 C   0  0  0  0  0  0  0  0  0  0  0  0
   -1.3288    0.1491   -0.6052 C   0  0  0  0  0  0  0  0  0  0  0  0
   -0.0292    0.2293   -1.1354 C   0  0  0  0  0  0  0  0  0  0  0  0
   -1.6681   -0.9642    0.1568 C   0  0  0  0  0  0  0  0  0  0  0  0
    0.4899   -1.9157   -0.1025 C   0  0  0  0  0  0  0  0  0  0  0  0
   -0.7972   -2.0165    0.4339 C   0  0  0  0  0  0  0  0  0  0  0  0
    3.2325   -0.0572   -0.4937 C   0  0  0  0  0  0  0  0  0  0  0  0
   -2.4914    0.9635   -0.6375 C   0  0  0  0  0  0  0  0  0  0  0  0
   -3.4485    0.3025    0.0969 C   0  0  0  0  0  0  0  0  0  0  0  0
    3.4206    1.3027   -0.5761 C   0  0  0  0  0  0  0  0  0  0  0  0
    3.9271   -0.7910    0.4321 C   0  0  0  0  0  0  0  0  0  0  0  0
    4.3227    1.9053    0.2937 C   0  0  0  0  0  0  0  0  0  0  0  0
   -4.7958    0.6404    0.4064 C   0  0  0  0  0  0  0  0  0  0  0  0
    4.9868    1.0967    1.2019 C   0  0  0  0  0  0  0  0  0  0  0  0
    2.6194   -1.7540   -1.6632 H   0  0  0  0  0  0  0  0  0  0  0  0
    2.2486   -0.2286   -2.3978 H   0  0  0  0  0  0  0  0  0  0  0  0
    0.2658    1.0854   -1.7354 H   0  0  0  0  0  0  0  0  0  0  0  0
    1.1976   -2.7186    0.0922 H   0  0  0  0  0  0  0  0  0  0  0  0
   -1.0991   -2.8676    1.0326 H   0  0  0  0  0  0  0  0  0  0  0  0
   -2.6063    1.9151   -1.1382 H   0  0  0  0  0  0  0  0  0  0  0  0
    2.8847    1.9088   -1.2998 H   0  0  0  0  0  0  0  0  0  0  0  0
    3.8072   -1.8648    0.5274 H   0  0  0  0  0  0  0  0  0  0  0  0
    4.5003    2.9742    0.2617 H   0  0  0  0  0  0  0  0  0  0  0  0
    5.7006    1.5180    1.9021 H   0  0  0  0  0  0  0  0  0  0  0  0
   -6.1205    2.0516    0.0949 H   0  0  0  0  0  0  0  0  0  0  0  0
  1  9  1  0  0  0  0
  1 14  1  0  0  0  0
  2 18  1  0  0  0  0
  2 30  1  0  0  0  0
  3 18  2  0  0  0  0
  4 16  1  0  0  0  0
  4 19  2  0  0  0  0
  5  6  1  0  0  0  0
  5  8  2  0  0  0  0
  5 10  1  0  0  0  0
  6 12  1  0  0  0  0
  6 20  1  0  0  0  0
  6 21  1  0  0  0  0
  7  8  1  0  0  0  0
  7  9  2  0  0  0  0
  7 13  1  0  0  0  0
  8 22  1  0  0  0  0
  9 11  1  0  0  0  0
 10 11  2  0  0  0  0
 10 23  1  0  0  0  0
 11 24  1  0  0  0  0
 12 15  1  0  0  0  0
 12 16  2  0  0  0  0
 13 14  2  0  0  0  0
 13 25  1  0  0  0  0
 14 18  1  0  0  0  0
 15 17  2  0  0  0  0
 15 26  1  0  0  0  0
 16 27  1  0  0  0  0
 17 19  1  0  0  0  0
 17 28  1  0  0  0  0
 19 29  1  0  0  0  0
M  END
> <PUBCHEM_COMPOUND_CID>
3437

> <PUBCHEM_CONFORMER_RMSD>
0.6

> <PUBCHEM_CONFORMER_DIVERSEORDER>
1
14
5
23
22
16
13
6
17
15
8
24
10
21
18
7
11
25
4
26
3
2
12
20
9
19

> <PUBCHEM_MMFF94_PARTIAL_CHARGES>
27
1 -0.28
10 -0.15
11 -0.15
12 -0.14
13 -0.15
14 0.05
15 -0.15
16 0.16
17 -0.15
18 0.81
19 0.16
2 -0.65
22 0.15
23 0.15
24 0.15
25 0.15
26 0.15
27 0.15
28 0.15
29 0.15
3 -0.57
30 0.5
4 -0.62
5 -0.14
6 0.29
8 -0.15
9 0.14

> <PUBCHEM_EFFECTIVE_ROTOR_COUNT>
3

> <PUBCHEM_PHARMACOPHORE_FEATURES>
8
1 1 acceptor
1 2 acceptor
1 3 acceptor
1 4 acceptor
3 2 3 18 anion
5 1 7 9 13 14 rings
6 4 12 15 16 17 19 rings
6 5 7 8 9 10 11 rings

> <PUBCHEM_HEAVY_ATOM_COUNT>
19

> <PUBCHEM_ATOM_DEF_STEREO_COUNT>
0

> <PUBCHEM_ATOM_UDEF_STEREO_COUNT>
0

> <PUBCHEM_BOND_DEF_STEREO_COUNT>
0

> <PUBCHEM_BOND_UDEF_STEREO_COUNT>
0

> <PUBCHEM_ISOTOPIC_ATOM_COUNT>
0

> <PUBCHEM_COMPONENT_COUNT>
1

> <PUBCHEM_CACTVS_TAUTO_COUNT>
1

> <PUBCHEM_CONFORMER_ID>
00000D6D00000001

> <PUBCHEM_MMFF94_ENERGY>
39.6356

> <PUBCHEM_FEATURE_SELFOVERLAP>
40.76

> <PUBCHEM_SHAPE_FINGERPRINT>
10498660 4 16153708661921605432
10554248 39 14925900730692392057
10692045 39 18261402208294817802
11128504 68 5112008343708097184
11132069 177 18343015592910875143
11796584 16 13254790244442573281
12251169 10 18130792226921122374
12403259 415 18272370922790917724
12596602 18 16988561281876176200
12633257 1 18272097046038776876
12670543 26 8069756156944174707
12670546 177 5761648187588374288
12788726 201 17340383949098834818
12839892 36 17704348858207488571
13583140 156 16486431935094178701
13675066 3 17203613691742417830
13914758 101 14908190750979962847
13955234 65 17969491796188596871
14178000 29 9871457717007769579
14251764 75 17973159522445517648
14341114 176 18273217508727863536
14366163 111 14779265323550390794
14528608 73 14923946755919817249
15188451 53 16702018613682110107
15209294 21 18412825793829455615
15238133 3 18411137992643267080
17349148 13 15410886379865438323
1813 80 14620796033144913918
18222031 100 11455886936490969619
193927 3 12823299030577136000
19784866 240 12319461021325026168
20281475 54 10303547116680003350
20374829 77 9007064543176331116
204376 136 18260266343446364415
20871999 31 7204782496365012622
21150785 3 17531259383362367557
212916 134 18412830174437803770
21452121 103 18339081613141833727
21618674 25 18259983777484624462
21637258 2 13686304556125072184
22079108 93 18334854996430038567
22182313 1 17488188295127890943
22854114 59 18411134753435559573
22950370 63 9727636128595863863
23402539 116 18411707577803702743
23503953 91 18272375231028074456
23559900 14 18339623621299041670
270888 7 17605001317123061568
2838139 119 17313110769171571080
2916195 48 18334014995316267081
3004659 81 7132444501704212396
3472631 163 16226339110013068040
34797466 226 16226042258974218885
351380 180 18335706052494237396
351380 3 13686300184006659664
3680242 22 18340200894477829977
4072396 5 17561081432245643103
42 15 17132113554389373798
4259306 186 10159704577096166528
4340502 62 18412819210040470139
4463277 69 11672063047109364994
465052 167 12679455404603807776
474 4 18113334206690623632
495365 180 17894345601405922630
5104073 3 18271804596850705611
5374978 207 18273211997741510332
56616090 284 7781521425242054636
5924683 9 18270684139079448283
633830 44 18333452045194060630
7097593 13 17988094296675537866
7970288 3 13829865642344750808
90316 7 17275390906036159476
960060 61 8862940580719581912

> <PUBCHEM_SHAPE_MULTIPOLES>
368.42
11.69
1.8
1.15
3.75
0.08
-0.04
-6.21
4.6
-0.3
0.11
-0.67
0.03
0.52

> <PUBCHEM_SHAPE_SELFOVERLAP>
818.823

> <PUBCHEM_SHAPE_VOLUME>
197.2

> <PUBCHEM_COORDINATE_TYPE>
2
5
10

$$$$

