6605
  -OEChem-06261201242D

 58 61  0     1  0  0  0  0  0999 V2000
    5.0182    0.3722    0.0000 Cl  0  0  0  0  0  0  0  0  0  0  0  0
    4.7950    1.1062    0.0000 Cl  0  0  0  0  0  0  0  0  0  0  0  0
    8.0319    1.8625    0.0000 O   0  0  0  0  0  0  0  0  0  0  0  0
    9.0465    2.4920    0.0000 O   0  0  0  0  0  0  0  0  0  0  0  0
   10.8722    1.6754    0.0000 O   0  0  0  0  0  0  0  0  0  0  0  0
    2.0000   -2.4462    0.0000 O   0  0  0  0  0  0  0  0  0  0  0  0
   11.8879    0.2723    0.0000 O   0  0  0  0  0  0  0  0  0  0  0  0
    7.3931    0.6062    0.0000 C   0  0  3  0  0  0  0  0  0  0  0  0
    7.3931   -0.3938    0.0000 C   0  0  3  0  0  0  0  0  0  0  0  0
    6.5271   -0.8938    0.0000 C   0  0  3  0  0  0  0  0  0  0  0  0
    5.6610   -0.3938    0.0000 C   0  0  1  0  0  0  0  0  0  0  0  0
    8.3393    0.9109    0.0000 C   0  0  1  0  0  0  0  0  0  0  0  0
    6.5271    1.1062    0.0000 C   0  0  0  0  0  0  0  0  0  0  0  0
    8.3393   -0.6986    0.0000 C   0  0  0  0  0  0  0  0  0  0  0  0
    5.6610    0.6062    0.0000 C   0  0  3  0  0  0  0  0  0  0  0  0
    4.7510   -0.9007    0.0000 C   0  0  3  0  0  0  0  0  0  0  0  0
    8.9229    0.1062    0.0000 C   0  0  0  0  0  0  0  0  0  0  0  0
    6.5431   -1.9353    0.0000 C   0  0  0  0  0  0  0  0  0  0  0  0
    7.3931    1.6062    0.0000 C   0  0  0  0  0  0  0  0  0  0  0  0
    5.6451   -2.4631    0.0000 C   0  0  0  0  0  0  0  0  0  0  0  0
    4.7430   -1.9423    0.0000 C   0  0  0  0  0  0  0  0  0  0  0  0
    9.1493    1.4973    0.0000 C   0  0  0  0  0  0  0  0  0  0  0  0
    4.4163    0.0416    0.0000 C   0  0  0  0  0  0  0  0  0  0  0  0
    3.8242   -0.3366    0.0000 C   0  0  0  0  0  0  0  0  0  0  0  0
    3.8076   -2.4920    0.0000 C   0  0  0  0  0  0  0  0  0  0  0  0
   10.0622    1.0890    0.0000 C   0  0  0  0  0  0  0  0  0  0  0  0
    2.8763   -0.8645    0.0000 C   0  0  0  0  0  0  0  0  0  0  0  0
    2.8680   -1.9495    0.0000 C   0  0  0  0  0  0  0  0  0  0  0  0
   11.7851    1.2670    0.0000 C   0  0  0  0  0  0  0  0  0  0  0  0
   12.5951    1.8534    0.0000 C   0  0  0  0  0  0  0  0  0  0  0  0
    7.4830   -1.2390    0.0000 H   0  0  0  0  0  0  0  0  0  0  0  0
    7.2664   -1.3131    0.0000 H   0  0  0  0  0  0  0  0  0  0  0  0
    6.9256    1.5811    0.0000 H   0  0  0  0  0  0  0  0  0  0  0  0
    6.1285    1.5811    0.0000 H   0  0  0  0  0  0  0  0  0  0  0  0
    8.0883   -1.2655    0.0000 H   0  0  0  0  0  0  0  0  0  0  0  0
    8.8767   -1.0078    0.0000 H   0  0  0  0  0  0  0  0  0  0  0  0
    5.6610    1.4562    0.0000 H   0  0  0  0  0  0  0  0  0  0  0  0
    9.3838   -0.3086    0.0000 H   0  0  0  0  0  0  0  0  0  0  0  0
    9.3838    0.5209    0.0000 H   0  0  0  0  0  0  0  0  0  0  0  0
    6.7612   -2.5157    0.0000 H   0  0  0  0  0  0  0  0  0  0  0  0
    7.1523   -1.8198    0.0000 H   0  0  0  0  0  0  0  0  0  0  0  0
    8.0131    1.6062    0.0000 H   0  0  0  0  0  0  0  0  0  0  0  0
    7.3931    2.2262    0.0000 H   0  0  0  0  0  0  0  0  0  0  0  0
    6.7731    1.6062    0.0000 H   0  0  0  0  0  0  0  0  0  0  0  0
    5.2478   -2.9390    0.0000 H   0  0  0  0  0  0  0  0  0  0  0  0
    6.0460   -2.9360    0.0000 H   0  0  0  0  0  0  0  0  0  0  0  0
    5.0005    0.2492    0.0000 H   0  0  0  0  0  0  0  0  0  0  0  0
    4.2087    0.6259    0.0000 H   0  0  0  0  0  0  0  0  0  0  0  0
    3.8320   -0.1659    0.0000 H   0  0  0  0  0  0  0  0  0  0  0  0
    3.8361    0.2833    0.0000 H   0  0  0  0  0  0  0  0  0  0  0  0
    8.4476    2.3225    0.0000 H   0  0  0  0  0  0  0  0  0  0  0  0
    3.8100   -3.1120    0.0000 H   0  0  0  0  0  0  0  0  0  0  0  0
    9.7146    0.5756    0.0000 H   0  0  0  0  0  0  0  0  0  0  0  0
   10.5074    0.6575    0.0000 H   0  0  0  0  0  0  0  0  0  0  0  0
    2.3430   -0.5483    0.0000 H   0  0  0  0  0  0  0  0  0  0  0  0
   12.9586    1.3512    0.0000 H   0  0  0  0  0  0  0  0  0  0  0  0
   13.0973    2.2170    0.0000 H   0  0  0  0  0  0  0  0  0  0  0  0
   12.2315    2.3556    0.0000 H   0  0  0  0  0  0  0  0  0  0  0  0
 11  1  1  6  0  0  0
  2 15  1  0  0  0  0
 12  3  1  6  0  0  0
  3 51  1  0  0  0  0
  4 22  2  0  0  0  0
  5 26  1  0  0  0  0
  5 29  1  0  0  0  0
  6 28  2  0  0  0  0
  7 29  2  0  0  0  0
  8  9  1  0  0  0  0
  8 12  1  0  0  0  0
  8 13  1  0  0  0  0
  8 19  1  0  0  0  0
  9 10  1  0  0  0  0
  9 14  1  0  0  0  0
  9 31  1  0  0  0  0
 10 11  1  0  0  0  0
 10 18  1  0  0  0  0
 10 32  1  0  0  0  0
 11 15  1  0  0  0  0
 11 16  1  0  0  0  0
 12 17  1  0  0  0  0
 12 22  1  0  0  0  0
 13 15  1  0  0  0  0
 13 33  1  0  0  0  0
 13 34  1  0  0  0  0
 14 17  1  0  0  0  0
 14 35  1  0  0  0  0
 14 36  1  0  0  0  0
 15 37  1  0  0  0  0
 16 21  1  0  0  0  0
 16 23  1  0  0  0  0
 16 24  1  0  0  0  0
 17 38  1  0  0  0  0
 17 39  1  0  0  0  0
 18 20  1  0  0  0  0
 18 40  1  0  0  0  0
 18 41  1  0  0  0  0
 19 42  1  0  0  0  0
 19 43  1  0  0  0  0
 19 44  1  0  0  0  0
 20 21  1  0  0  0  0
 20 45  1  0  0  0  0
 20 46  1  0  0  0  0
 21 25  2  0  0  0  0
 22 26  1  0  0  0  0
 23 47  1  0  0  0  0
 23 48  1  0  0  0  0
 23 49  1  0  0  0  0
 24 27  2  0  0  0  0
 24 50  1  0  0  0  0
 25 28  1  0  0  0  0
 25 52  1  0  0  0  0
 26 53  1  0  0  0  0
 26 54  1  0  0  0  0
 27 28  1  0  0  0  0
 27 55  1  0  0  0  0
 29 30  1  0  0  0  0
 30 56  1  0  0  0  0
 30 57  1  0  0  0  0
 30 58  1  0  0  0  0
M  END
> <PUBCHEM_COMPOUND_CID>
6605

> <PUBCHEM_COMPOUND_CANONICALIZED>
1

> <PUBCHEM_CACTVS_COMPLEXITY>
881

> <PUBCHEM_CACTVS_HBOND_ACCEPTOR>
5

> <PUBCHEM_CACTVS_HBOND_DONOR>
1

> <PUBCHEM_CACTVS_ROTATABLE_BOND>
4

> <PUBCHEM_CACTVS_SUBSKEYS>
AAADceB4OAAGAAAAAAAAAAAAAAAAAYAAAAAwYIAAAAAAAGDAAAAAGgIACAAAD0eggEICCAAABgCIAqDSCAIAAAAgAAAICEFAAkgAABIBAQQCQAAFgAAIAYOIyPCPgAAAAAAAAACIAARAACIACYAADAAAAA==

> <PUBCHEM_IUPAC_OPENEYE_NAME>
[2-[(9R,17R)-9,11-dichloro-17-hydroxy-10,13-dimethyl-3-oxo-6,7,8,11,12,14,15,16-octahydrocyclopenta[a]phenanthren-17-yl]-2-oxo-ethyl] acetate

> <PUBCHEM_IUPAC_CAS_NAME>
acetic acid [2-[(9R,17R)-9,11-dichloro-17-hydroxy-10,13-dimethyl-3-oxo-6,7,8,11,12,14,15,16-octahydrocyclopenta[a]phenanthren-17-yl]-2-oxoethyl] ester

> <PUBCHEM_IUPAC_NAME>
[2-[(9R,17R)-9,11-dichloro-17-hydroxy-10,13-dimethyl-3-oxo-6,7,8,11,12,14,15,16-octahydrocyclopenta[a]phenanthren-17-yl]-2-oxoethyl] acetate

> <PUBCHEM_IUPAC_SYSTEMATIC_NAME>
[2-[(9R,17R)-9,11-bis(chloranyl)-10,13-dimethyl-17-oxidanyl-3-oxidanylidene-6,7,8,11,12,14,15,16-octahydrocyclopenta[a]phenanthren-17-yl]-2-oxidanylidene-ethyl] ethanoate

> <PUBCHEM_IUPAC_TRADITIONAL_NAME>
acetic acid [2-[(9R,17R)-9,11-dichloro-17-hydroxy-3-keto-10,13-dimethyl-6,7,8,11,12,14,15,16-octahydrocyclopenta[a]phenanthren-17-yl]-2-keto-ethyl] ester

> <PUBCHEM_IUPAC_INCHI>
InChI=1S/C23H28Cl2O5/c1-13(26)30-12-19(28)22(29)9-7-16-17-5-4-14-10-15(27)6-8-20(14,2)23(17,25)18(24)11-21(16,22)3/h6,8,10,16-18,29H,4-5,7,9,11-12H2,1-3H3/t16?,17?,18?,20?,21?,22-,23-/m0/s1

> <PUBCHEM_IUPAC_INCHIKEY>
YNNURTVKPVJVEI-KTPJVQSHSA-N

> <PUBCHEM_XLOGP3>
3.1

> <PUBCHEM_EXACT_MASS>
454.131379

> <PUBCHEM_MOLECULAR_FORMULA>
C23H28Cl2O5

> <PUBCHEM_MOLECULAR_WEIGHT>
455.37142

> <PUBCHEM_OPENEYE_CAN_SMILES>
CC(=O)OCC(=O)C1(CCC2C1(CC(C3(C2CCC4=CC(=O)C=CC43C)Cl)Cl)C)O

> <PUBCHEM_OPENEYE_ISO_SMILES>
CC(=O)OCC(=O)[C@]1(CCC2C1(CC([C@]3(C2CCC4=CC(=O)C=CC43C)Cl)Cl)C)O

> <PUBCHEM_CACTVS_TPSA>
80.7

> <PUBCHEM_MONOISOTOPIC_WEIGHT>
454.131379

> <PUBCHEM_TOTAL_CHARGE>
0

> <PUBCHEM_HEAVY_ATOM_COUNT>
30

> <PUBCHEM_ATOM_DEF_STEREO_COUNT>
2

> <PUBCHEM_ATOM_UDEF_STEREO_COUNT>
5

> <PUBCHEM_BOND_DEF_STEREO_COUNT>
0

> <PUBCHEM_BOND_UDEF_STEREO_COUNT>
0

> <PUBCHEM_ISOTOPIC_ATOM_COUNT>
0

> <PUBCHEM_COMPONENT_COUNT>
1

> <PUBCHEM_CACTVS_TAUTO_COUNT>
6

> <PUBCHEM_COORDINATE_TYPE>
1
5
255

> <PUBCHEM_BONDANNOTATIONS>
11  1  6
10  32  3
15  37  3
16  23  3
12  3  6
8  19  3
9  31  3

$$$$

