7718
  -OEChem-06261202163D

 48 48  0     0  0  0  0  0  0999 V2000
   -5.0750    0.3284    0.1563 N   0  3  0  0  0  0  0  0  0  0  0  0
    2.4379   -0.0940   -0.1911 C   0  0  0  0  0  0  0  0  0  0  0  0
    1.2476    0.7713    0.2314 C   0  0  0  0  0  0  0  0  0  0  0  0
    3.7949    0.5580    0.0898 C   0  0  0  0  0  0  0  0  0  0  0  0
   -0.0784    0.0602   -0.0528 C   0  0  0  0  0  0  0  0  0  0  0  0
    4.9854   -0.3365   -0.2637 C   0  0  0  0  0  0  0  0  0  0  0  0
   -1.3086    0.9074    0.2846 C   0  0  0  0  0  0  0  0  0  0  0  0
    6.3109    0.3356    0.1049 C   0  0  0  0  0  0  0  0  0  0  0  0
   -2.6324    0.1878    0.0242 C   0  0  0  0  0  0  0  0  0  0  0  0
    7.5007   -0.5729   -0.2133 C   0  0  0  0  0  0  0  0  0  0  0  0
   -3.8182    1.0645    0.4131 C   0  0  0  0  0  0  0  0  0  0  0  0
    8.8502    0.0409    0.1654 C   0  0  0  0  0  0  0  0  0  0  0  0
   10.0341   -0.8683   -0.1252 C   0  0  0  0  0  0  0  0  0  0  0  0
   -5.5903   -0.4306    1.1329 C   0  0  0  0  0  0  0  0  0  0  0  0
   -5.6577    0.4447   -1.0449 C   0  0  0  0  0  0  0  0  0  0  0  0
   -6.7686   -1.1321    0.9204 C   0  0  0  0  0  0  0  0  0  0  0  0
   -6.8373   -0.2345   -1.3141 C   0  0  0  0  0  0  0  0  0  0  0  0
   -7.3954   -1.0299   -0.3178 C   0  0  0  0  0  0  0  0  0  0  0  0
    2.3643   -0.3179   -1.2625 H   0  0  0  0  0  0  0  0  0  0  0  0
    2.3878   -1.0545    0.3370 H   0  0  0  0  0  0  0  0  0  0  0  0
    1.2786    1.7243   -0.3100 H   0  0  0  0  0  0  0  0  0  0  0  0
    1.3181    1.0027    1.3008 H   0  0  0  0  0  0  0  0  0  0  0  0
    3.8661    1.4976   -0.4718 H   0  0  0  0  0  0  0  0  0  0  0  0
    3.8472    0.8209    1.1538 H   0  0  0  0  0  0  0  0  0  0  0  0
   -0.1166   -0.8739    0.5212 H   0  0  0  0  0  0  0  0  0  0  0  0
   -0.1208   -0.2183   -1.1132 H   0  0  0  0  0  0  0  0  0  0  0  0
    4.8963   -1.2899    0.2709 H   0  0  0  0  0  0  0  0  0  0  0  0
    4.9686   -0.5633   -1.3364 H   0  0  0  0  0  0  0  0  0  0  0  0
   -1.2589    1.2006    1.3408 H   0  0  0  0  0  0  0  0  0  0  0  0
   -1.2785    1.8337   -0.3026 H   0  0  0  0  0  0  0  0  0  0  0  0
    6.4125    1.2796   -0.4437 H   0  0  0  0  0  0  0  0  0  0  0  0
    6.3156    0.5800    1.1740 H   0  0  0  0  0  0  0  0  0  0  0  0
   -2.6602   -0.7492    0.5933 H   0  0  0  0  0  0  0  0  0  0  0  0
   -2.7009   -0.0867   -1.0353 H   0  0  0  0  0  0  0  0  0  0  0  0
    7.3807   -1.5248    0.3190 H   0  0  0  0  0  0  0  0  0  0  0  0
    7.5011   -0.8078   -1.2849 H   0  0  0  0  0  0  0  0  0  0  0  0
   -3.8422    1.9952   -0.1653 H   0  0  0  0  0  0  0  0  0  0  0  0
   -3.7923    1.3359    1.4748 H   0  0  0  0  0  0  0  0  0  0  0  0
    8.9851    0.9836   -0.3782 H   0  0  0  0  0  0  0  0  0  0  0  0
    8.8495    0.2879    1.2338 H   0  0  0  0  0  0  0  0  0  0  0  0
   10.0892   -1.1076   -1.1919 H   0  0  0  0  0  0  0  0  0  0  0  0
    9.9523   -1.8060    0.4334 H   0  0  0  0  0  0  0  0  0  0  0  0
   10.9696   -0.3792    0.1638 H   0  0  0  0  0  0  0  0  0  0  0  0
   -5.0529   -0.4723    2.0725 H   0  0  0  0  0  0  0  0  0  0  0  0
   -5.1719    1.0758   -1.7792 H   0  0  0  0  0  0  0  0  0  0  0  0
   -7.1926   -1.7499    1.7047 H   0  0  0  0  0  0  0  0  0  0  0  0
   -7.3154   -0.1478   -2.2838 H   0  0  0  0  0  0  0  0  0  0  0  0
   -8.3179   -1.5707   -0.5067 H   0  0  0  0  0  0  0  0  0  0  0  0
  1 11  1  0  0  0  0
  1 14  2  0  0  0  0
  1 15  1  0  0  0  0
  2  3  1  0  0  0  0
  2  4  1  0  0  0  0
  2 19  1  0  0  0  0
  2 20  1  0  0  0  0
  3  5  1  0  0  0  0
  3 21  1  0  0  0  0
  3 22  1  0  0  0  0
  4  6  1  0  0  0  0
  4 23  1  0  0  0  0
  4 24  1  0  0  0  0
  5  7  1  0  0  0  0
  5 25  1  0  0  0  0
  5 26  1  0  0  0  0
  6  8  1  0  0  0  0
  6 27  1  0  0  0  0
  6 28  1  0  0  0  0
  7  9  1  0  0  0  0
  7 29  1  0  0  0  0
  7 30  1  0  0  0  0
  8 10  1  0  0  0  0
  8 31  1  0  0  0  0
  8 32  1  0  0  0  0
  9 11  1  0  0  0  0
  9 33  1  0  0  0  0
  9 34  1  0  0  0  0
 10 12  1  0  0  0  0
 10 35  1  0  0  0  0
 10 36  1  0  0  0  0
 11 37  1  0  0  0  0
 11 38  1  0  0  0  0
 12 13  1  0  0  0  0
 12 39  1  0  0  0  0
 12 40  1  0  0  0  0
 13 41  1  0  0  0  0
 13 42  1  0  0  0  0
 13 43  1  0  0  0  0
 14 16  1  0  0  0  0
 14 44  1  0  0  0  0
 15 17  2  0  0  0  0
 15 45  1  0  0  0  0
 16 18  2  0  0  0  0
 16 46  1  0  0  0  0
 17 18  1  0  0  0  0
 17 47  1  0  0  0  0
 18 48  1  0  0  0  0
M  CHG  1   1   1
M  END
> <PUBCHEM_COMPOUND_CID>
7718

> <PUBCHEM_CONFORMER_RMSD>
1.2

> <PUBCHEM_CONFORMER_DIVERSEORDER>
1
20
19
63
7
87
2
41
43
24
56
9
39
70
28
32
46
78
10
73
13
86
66
37
48
40
5
33
26
18
22
53
35
47
8
51
29
80
44
82
55
25
45
65
34
3
61
74
57
81
23
50
85
49
30
72
17
15
38
76
6
69
84
79
16
36
14
27
59
83
54
67
12
58
68
11
52
42
31
75
21
60
71
4
77
62
64

> <PUBCHEM_MMFF94_PARTIAL_CHARGES>
12
1 -0.21
11 0.49
14 0.21
15 0.21
16 -0.15
17 -0.15
18 -0.15
44 0.15
45 0.15
46 0.15
47 0.15
48 0.15

> <PUBCHEM_EFFECTIVE_ROTOR_COUNT>
11

> <PUBCHEM_PHARMACOPHORE_FEATURES>
2
1 13 hydrophobe
6 1 14 15 16 17 18 rings

> <PUBCHEM_HEAVY_ATOM_COUNT>
18

> <PUBCHEM_ATOM_DEF_STEREO_COUNT>
0

> <PUBCHEM_ATOM_UDEF_STEREO_COUNT>
0

> <PUBCHEM_BOND_DEF_STEREO_COUNT>
0

> <PUBCHEM_BOND_UDEF_STEREO_COUNT>
0

> <PUBCHEM_ISOTOPIC_ATOM_COUNT>
0

> <PUBCHEM_COMPONENT_COUNT>
1

> <PUBCHEM_CACTVS_TAUTO_COUNT>
1

> <PUBCHEM_CONFORMER_ID>
00001E2600000001

> <PUBCHEM_MMFF94_ENERGY>
15.4336

> <PUBCHEM_FEATURE_SELFOVERLAP>
10.148

> <PUBCHEM_SHAPE_FINGERPRINT>
10066227 49 18130509751381328866
10299344 5 16660363675513594654
11315181 36 17846495933654960097
11638347 137 16805601500286701014
12091667 2 18040715879414251489
13885169 127 17489309710903882908
14123256 10 18411138038980182222
14202775 3 18336260233233184358
14251764 18 17530683212860805126
14251764 46 18410856563934763366
14428016 248 4750872672440941402
14617042 71 7853271157254184090
14729087 3 9223235135115243683
15461852 350 16702296836841127850
155225 1 10735886071491427191
15690457 1 18408042918834289830
15716309 27 17385723582738361937
16120349 18 18131067096950873164
17093844 174 5978106843585118861
1754911 235 14549014382635116102
18006028 8 18410575089417482364
195137 175 13254796854254667606
20621476 8 10087643706557282856
21095086 128 18335421283989864626
21095123 145 6338947897582178821
21150785 3 17275105033070822716
21315763 28 18408322199035538392
21360442 43 15195274288884647449
21360443 89 5544900392224411197
21362267 20 17458070348419942478
22224240 67 17312824875332596878
232437 2 17603302675269631678
23521765 1 18335420175729877800
23528940 14 15936701372179087279
23559900 14 17774442664818112193
246663 6 18113898265104218988
28498 318 12823300109394486864
33684 2 18410856568229730661
5758199 1 14562529587646979308
636775 8 15841261555733791419
67123 10 18343018888026334756
8209 1 13973965407329624084

> <PUBCHEM_SHAPE_MULTIPOLES>
365.45
32.99
1.01
0.93
50.01
0.04
0.06
10.94
2.21
-0.66
-0.08
-1.74
0.07
0.51

> <PUBCHEM_SHAPE_SELFOVERLAP>
698.245

> <PUBCHEM_SHAPE_VOLUME>
223.5

> <PUBCHEM_COORDINATE_TYPE>
2
5
10

$$$$

