11846
  -OEChem-06261206113D

 14 14  0     0  0  0  0  0  0999 V2000
   -2.7296   -0.8674    0.0000 Cl  0  0  0  0  0  0  0  0  0  0  0  0
    2.7298   -0.8671    0.0001 Cl  0  0  0  0  0  0  0  0  0  0  0  0
    0.0002   -2.1617    0.0001 N   0  0  0  0  0  0  0  0  0  0  0  0
    0.0000   -0.7456    0.0000 C   0  0  0  0  0  0  0  0  0  0  0  0
   -1.2080   -0.0482    0.0000 C   0  0  0  0  0  0  0  0  0  0  0  0
    1.2080   -0.0480   -0.0001 C   0  0  0  0  0  0  0  0  0  0  0  0
   -1.2080    1.3468    0.0001 C   0  0  0  0  0  0  0  0  0  0  0  0
    1.2078    1.3469   -0.0001 C   0  0  0  0  0  0  0  0  0  0  0  0
   -0.0002    2.0443    0.0001 C   0  0  0  0  0  0  0  0  0  0  0  0
   -2.1405    1.9057    0.0001 H   0  0  0  0  0  0  0  0  0  0  0  0
    2.1401    1.9060   -0.0001 H   0  0  0  0  0  0  0  0  0  0  0  0
   -0.0002    3.1304    0.0002 H   0  0  0  0  0  0  0  0  0  0  0  0
   -0.8767   -2.6654   -0.0006 H   0  0  0  0  0  0  0  0  0  0  0  0
    0.8772   -2.6652   -0.0006 H   0  0  0  0  0  0  0  0  0  0  0  0
  1  5  1  0  0  0  0
  2  6  1  0  0  0  0
  3  4  1  0  0  0  0
  3 13  1  0  0  0  0
  3 14  1  0  0  0  0
  4  5  2  0  0  0  0
  4  6  1  0  0  0  0
  5  7  1  0  0  0  0
  6  8  2  0  0  0  0
  7  9  2  0  0  0  0
  7 10  1  0  0  0  0
  8  9  1  0  0  0  0
  8 11  1  0  0  0  0
  9 12  1  0  0  0  0
M  END
> <PUBCHEM_COMPOUND_CID>
11846

> <PUBCHEM_CONFORMER_RMSD>
0.4

> <PUBCHEM_CONFORMER_DIVERSEORDER>
1

> <PUBCHEM_MMFF94_PARTIAL_CHARGES>
14
1 -0.18
10 0.15
11 0.15
12 0.15
13 0.4
14 0.4
2 -0.18
3 -0.9
4 0.1
5 0.18
6 0.18
7 -0.15
8 -0.15
9 -0.15

> <PUBCHEM_EFFECTIVE_ROTOR_COUNT>
0

> <PUBCHEM_PHARMACOPHORE_FEATURES>
3
1 3 cation
1 3 donor
6 4 5 6 7 8 9 rings

> <PUBCHEM_HEAVY_ATOM_COUNT>
9

> <PUBCHEM_ATOM_DEF_STEREO_COUNT>
0

> <PUBCHEM_ATOM_UDEF_STEREO_COUNT>
0

> <PUBCHEM_BOND_DEF_STEREO_COUNT>
0

> <PUBCHEM_BOND_UDEF_STEREO_COUNT>
0

> <PUBCHEM_ISOTOPIC_ATOM_COUNT>
0

> <PUBCHEM_COMPONENT_COUNT>
1

> <PUBCHEM_CACTVS_TAUTO_COUNT>
1

> <PUBCHEM_CONFORMER_ID>
00002E4600000001

> <PUBCHEM_MMFF94_ENERGY>
30.0944

> <PUBCHEM_FEATURE_SELFOVERLAP>
15.223

> <PUBCHEM_SHAPE_FINGERPRINT>
12423570 1 6403899206093061689
16945 1 18410856563934808839
18185500 45 18266742569960062061
21040471 1 17834113044122914565
23552423 10 18055906847653292270
241688 4 18410856593999814113
2748010 2 18411144631691905573
29004967 10 18269836406844637129
5084963 1 18187082857938242226

> <PUBCHEM_SHAPE_MULTIPOLES>
183.97
3.09
2.13
0.62
0
0.29
0
-1.24
0
0
0
0
0.01
0

> <PUBCHEM_SHAPE_SELFOVERLAP>
364.954

> <PUBCHEM_SHAPE_VOLUME>
109.4

> <PUBCHEM_COORDINATE_TYPE>
2
5
10

$$$$

