51090943
  -OEChem-06241223013D

 50 52  0     1  0  0  0  0  0999 V2000
   -2.5152    2.6240   -1.8739 F   0  0  0  0  0  0  0  0  0  0  0  0
    0.9918    1.7833   -1.4127 O   0  0  0  0  0  0  0  0  0  0  0  0
    0.7307   -2.2474    1.0604 O   0  0  0  0  0  0  0  0  0  0  0  0
   -2.5758   -1.5104    1.7402 O   0  0  0  0  0  0  0  0  0  0  0  0
    2.6760    0.4973   -0.4467 N   0  0  0  0  0  0  0  0  0  0  0  0
   -0.0303   -1.9350   -1.1174 N   0  0  0  0  0  0  0  0  0  0  0  0
    2.0997    2.7441    0.4066 C   0  0  0  0  0  0  0  0  0  0  0  0
    1.4218    2.6906    1.7442 C   0  0  0  0  0  0  0  0  0  0  0  0
    0.9758    3.6889    0.7165 C   0  0  0  0  0  0  0  0  0  0  0  0
    1.8708    1.6342   -0.5679 C   0  0  0  0  0  0  0  0  0  0  0  0
    2.3284   -1.9497   -0.6912 C   0  0  1  0  0  0  0  0  0  0  0  0
    2.5268   -0.6072   -1.3979 C   0  0  0  0  0  0  0  0  0  0  0  0
    3.7267    0.3126    0.5589 C   0  0  0  0  0  0  0  0  0  0  0  0
    3.3563   -2.1789    0.4210 C   0  0  0  0  0  0  0  0  0  0  0  0
    3.4913   -0.9703    1.3490 C   0  0  0  0  0  0  0  0  0  0  0  0
    0.9376   -2.0556   -0.1349 C   0  0  0  0  0  0  0  0  0  0  0  0
   -1.4471   -2.0232   -0.8464 C   0  0  1  0  0  0  0  0  0  0  0  0
   -2.0183   -0.6821   -0.4393 C   0  0  0  0  0  0  0  0  0  0  0  0
   -2.1743   -2.6307   -2.0443 C   0  0  0  0  0  0  0  0  0  0  0  0
   -2.5538   -0.4925    0.8348 C   0  0  0  0  0  0  0  0  0  0  0  0
   -2.0061    0.3706   -1.3543 C   0  0  0  0  0  0  0  0  0  0  0  0
   -3.0771    0.7498    1.1936 C   0  0  0  0  0  0  0  0  0  0  0  0
   -2.5292    1.6129   -0.9954 C   0  0  0  0  0  0  0  0  0  0  0  0
   -3.0646    1.8026    0.2785 C   0  0  0  0  0  0  0  0  0  0  0  0
   -3.1417   -1.2280    3.0186 C   0  0  0  0  0  0  0  0  0  0  0  0
    3.0870    3.1945    0.3605 H   0  0  0  0  0  0  0  0  0  0  0  0
    1.2245    4.7299    0.8858 H   0  0  0  0  0  0  0  0  0  0  0  0
    0.0050    3.5349    0.2624 H   0  0  0  0  0  0  0  0  0  0  0  0
    0.7613    1.8589    1.9578 H   0  0  0  0  0  0  0  0  0  0  0  0
    1.9707    3.0587    2.6022 H   0  0  0  0  0  0  0  0  0  0  0  0
    2.4330   -2.7566   -1.4288 H   0  0  0  0  0  0  0  0  0  0  0  0
    1.7379   -0.3805   -2.1198 H   0  0  0  0  0  0  0  0  0  0  0  0
    3.4610   -0.6410   -1.9733 H   0  0  0  0  0  0  0  0  0  0  0  0
    4.6833    0.2648    0.0253 H   0  0  0  0  0  0  0  0  0  0  0  0
    3.7827    1.1583    1.2468 H   0  0  0  0  0  0  0  0  0  0  0  0
    4.3330   -2.3671   -0.0440 H   0  0  0  0  0  0  0  0  0  0  0  0
    3.1195   -3.0737    1.0091 H   0  0  0  0  0  0  0  0  0  0  0  0
    2.5922   -0.8574    1.9647 H   0  0  0  0  0  0  0  0  0  0  0  0
    4.3263   -1.1333    2.0400 H   0  0  0  0  0  0  0  0  0  0  0  0
    0.2501   -1.7898   -2.0822 H   0  0  0  0  0  0  0  0  0  0  0  0
   -1.5606   -2.7382   -0.0231 H   0  0  0  0  0  0  0  0  0  0  0  0
   -3.2488   -2.7182   -1.8493 H   0  0  0  0  0  0  0  0  0  0  0  0
   -1.7872   -3.6330   -2.2605 H   0  0  0  0  0  0  0  0  0  0  0  0
   -2.0449   -2.0341   -2.9542 H   0  0  0  0  0  0  0  0  0  0  0  0
   -1.5872    0.2464   -2.3490 H   0  0  0  0  0  0  0  0  0  0  0  0
   -3.5087    0.9715    2.1634 H   0  0  0  0  0  0  0  0  0  0  0  0
   -3.4703    2.7708    0.5567 H   0  0  0  0  0  0  0  0  0  0  0  0
   -2.5676   -0.4647    3.5547 H   0  0  0  0  0  0  0  0  0  0  0  0
   -4.2049   -0.9754    2.9429 H   0  0  0  0  0  0  0  0  0  0  0  0
   -3.0756   -2.1475    3.6097 H   0  0  0  0  0  0  0  0  0  0  0  0
  1 23  1  0  0  0  0
  2 10  2  0  0  0  0
  3 16  2  0  0  0  0
  4 20  1  0  0  0  0
  4 25  1  0  0  0  0
  5 10  1  0  0  0  0
  5 12  1  0  0  0  0
  5 13  1  0  0  0  0
  6 16  1  0  0  0  0
  6 17  1  0  0  0  0
  6 40  1  0  0  0  0
  7  8  1  0  0  0  0
  7  9  1  0  0  0  0
  7 10  1  0  0  0  0
  7 26  1  0  0  0  0
  8  9  1  0  0  0  0
  8 29  1  0  0  0  0
  8 30  1  0  0  0  0
  9 27  1  0  0  0  0
  9 28  1  0  0  0  0
 11 12  1  0  0  0  0
 11 14  1  0  0  0  0
 11 16  1  0  0  0  0
 11 31  1  0  0  0  0
 12 32  1  0  0  0  0
 12 33  1  0  0  0  0
 13 15  1  0  0  0  0
 13 34  1  0  0  0  0
 13 35  1  0  0  0  0
 14 15  1  0  0  0  0
 14 36  1  0  0  0  0
 14 37  1  0  0  0  0
 15 38  1  0  0  0  0
 15 39  1  0  0  0  0
 17 18  1  0  0  0  0
 17 19  1  0  0  0  0
 17 41  1  0  0  0  0
 18 20  2  0  0  0  0
 18 21  1  0  0  0  0
 19 42  1  0  0  0  0
 19 43  1  0  0  0  0
 19 44  1  0  0  0  0
 20 22  1  0  0  0  0
 21 23  2  0  0  0  0
 21 45  1  0  0  0  0
 22 24  2  0  0  0  0
 22 46  1  0  0  0  0
 23 24  1  0  0  0  0
 24 47  1  0  0  0  0
 25 48  1  0  0  0  0
 25 49  1  0  0  0  0
 25 50  1  0  0  0  0
M  END
> <PUBCHEM_COMPOUND_CID>
51090943

> <PUBCHEM_CONFORMER_RMSD>
1.2

> <PUBCHEM_CONFORMER_DIVERSEORDER>
1
103
139
82
8
158
97
87
134
71
148
18
176
52
59
114
23
131
75
92
159
21
140
4
77
43
133
147
107
180
162
129
66
101
55
163
126
36
141
106
95
74
64
72
32
118
68
81
179
174
146
47
29
9
57
27
113
160
145
88
26
76
138
90
136
67
144
78
171
165
153
41
54
96
115
20
119
167
60
105
48
79
38
100
6
2
91
10
169
99
7
80
143
161
70
44
56
86
168
181
172
69
154
19
122
120
137
84
37
102
151
45
150
157
16
11
39
49
63
31
34
35
135
132
94
123
152
33
128
51
46
109
149
14
125
98
42
93
116
104
130
40
124
164
61
173
58
108
85
25
175
166
142
178
156
127
28
3
12
111
177
5
62
50
121
15
155
112
89
117
73
83
30
110
65
17
170
13
53
24
22

> <PUBCHEM_MMFF94_PARTIAL_CHARGES>
31
1 -0.19
10 0.63
11 0.06
12 0.3
13 0.3
16 0.57
17 0.44
18 -0.14
2 -0.57
20 0.08
21 -0.15
22 -0.15
23 0.19
24 -0.15
25 0.28
26 0.1
27 0.1
28 0.1
29 0.1
3 -0.57
30 0.1
4 -0.36
40 0.37
45 0.15
46 0.15
47 0.15
5 -0.66
6 -0.73
7 -0.1
8 -0.2
9 -0.2

> <PUBCHEM_EFFECTIVE_ROTOR_COUNT>
8.8

> <PUBCHEM_PHARMACOPHORE_FEATURES>
6
1 2 acceptor
1 3 acceptor
1 4 acceptor
1 6 donor
6 18 20 21 22 23 24 rings
6 5 11 12 13 14 15 rings

> <PUBCHEM_HEAVY_ATOM_COUNT>
25

> <PUBCHEM_ATOM_DEF_STEREO_COUNT>
0

> <PUBCHEM_ATOM_UDEF_STEREO_COUNT>
2

> <PUBCHEM_BOND_DEF_STEREO_COUNT>
0

> <PUBCHEM_BOND_UDEF_STEREO_COUNT>
0

> <PUBCHEM_ISOTOPIC_ATOM_COUNT>
0

> <PUBCHEM_COMPONENT_COUNT>
1

> <PUBCHEM_CACTVS_TAUTO_COUNT>
2

> <PUBCHEM_CONFORMER_ID>
030B95FF00000001

> <PUBCHEM_MMFF94_ENERGY>
60.0874

> <PUBCHEM_FEATURE_SELFOVERLAP>
30.446

> <PUBCHEM_SHAPE_FINGERPRINT>
10366900 7 18059563694357112515
104564 63 17686048805564570396
10675989 125 17187022319500679180
12156800 1 5751725301411978400
12633257 1 17969489425234143721
128993 33 18191855743446489577
13122387 1 18335423516645059744
13140716 1 18338241590975543590
14223421 5 18201428143412654787
14713325 29 16834841650111463972
18219364 16 18408040736315559861
18981168 100 17822001017136278439
238 59 18192174640641984301
35225 105 15520887819324575209
3524813 1 18122881175838996352
3797600 57 17841393065123714902
469060 322 17406276525562218259
539174 4 18117262662968335049
6438718 38 17030215429538203624
7226269 152 18409161118112710468
7832392 63 18260268572697927918
81228 2 16751841634306262396

> <PUBCHEM_SHAPE_MULTIPOLES>
479.64
6.29
4.04
2.12
0.62
2.01
0.85
-0.44
1.7
1.01
-0.29
-1.87
-0.41
0.46

> <PUBCHEM_SHAPE_SELFOVERLAP>
1004.228

> <PUBCHEM_SHAPE_VOLUME>
272.8

> <PUBCHEM_COORDINATE_TYPE>
2
5
10

$$$$

