12828
  -OEChem-06261207253D

 19 19  0     0  0  0  0  0  0999 V2000
   -0.7602    0.2554   -0.0142 O   0  0  0  0  0  0  0  0  0  0  0  0
   -4.2466    0.4945    0.0114 O   0  5  0  0  0  0  0  0  0  0  0  0
   -2.6739    2.0317   -0.0211 O   0  0  0  0  0  0  0  0  0  0  0  0
    4.2703   -0.6519   -0.0278 O   0  0  0  0  0  0  0  0  0  0  0  0
   -3.0221    0.8149   -0.0030 N   0  3  0  0  0  0  0  0  0  0  0  0
    4.1393    1.6436    0.0401 N   0  0  0  0  0  0  0  0  0  0  0  0
    0.0086   -0.8526   -0.0058 C   0  0  0  0  0  0  0  0  0  0  0  0
   -0.7402   -1.9920    0.0148 C   0  0  0  0  0  0  0  0  0  0  0  0
   -2.0461   -0.1833    0.0018 C   0  0  0  0  0  0  0  0  0  0  0  0
   -2.0873   -1.5581    0.0201 C   0  0  0  0  0  0  0  0  0  0  0  0
    1.4399   -0.7690   -0.0188 C   0  0  0  0  0  0  0  0  0  0  0  0
    2.1149    0.3901    0.0002 C   0  0  0  0  0  0  0  0  0  0  0  0
    3.6035    0.3767    0.0023 C   0  0  0  0  0  0  0  0  0  0  0  0
   -0.3828   -3.0123    0.0252 H   0  0  0  0  0  0  0  0  0  0  0  0
   -2.9736   -2.1765    0.0353 H   0  0  0  0  0  0  0  0  0  0  0  0
    1.9803   -1.7123   -0.0355 H   0  0  0  0  0  0  0  0  0  0  0  0
    1.6093    1.3501    0.0217 H   0  0  0  0  0  0  0  0  0  0  0  0
    3.5701    2.4839    0.0642 H   0  0  0  0  0  0  0  0  0  0  0  0
    5.1448    1.7808    0.0453 H   0  0  0  0  0  0  0  0  0  0  0  0
  1  7  1  0  0  0  0
  1  9  1  0  0  0  0
  2  5  1  0  0  0  0
  3  5  2  0  0  0  0
  4 13  2  0  0  0  0
  5  9  1  0  0  0  0
  6 13  1  0  0  0  0
  6 18  1  0  0  0  0
  6 19  1  0  0  0  0
  7  8  2  0  0  0  0
  7 11  1  0  0  0  0
  8 10  1  0  0  0  0
  8 14  1  0  0  0  0
  9 10  2  0  0  0  0
 10 15  1  0  0  0  0
 11 12  2  0  0  0  0
 11 16  1  0  0  0  0
 12 13  1  0  0  0  0
 12 17  1  0  0  0  0
M  CHG  2   2  -1   5   1
M  END
> <PUBCHEM_COMPOUND_CID>
12828

> <PUBCHEM_CONFORMER_RMSD>
0.6

> <PUBCHEM_CONFORMER_DIVERSEORDER>
1
2
3
5
4

> <PUBCHEM_MMFF94_PARTIAL_CHARGES>
19
1 -0.28
10 -0.15
11 -0.11
12 -0.14
13 0.62
14 0.15
15 0.15
16 0.15
17 0.15
18 0.37
19 0.37
2 -0.52
3 -0.52
4 -0.57
5 0.96
6 -0.8
7 0.09
8 -0.15
9 0.22

> <PUBCHEM_EFFECTIVE_ROTOR_COUNT>
3

> <PUBCHEM_PHARMACOPHORE_FEATURES>
7
1 1 acceptor
1 2 acceptor
1 2 anion
1 3 acceptor
1 4 acceptor
1 6 donor
5 1 7 8 9 10 rings

> <PUBCHEM_HEAVY_ATOM_COUNT>
13

> <PUBCHEM_ATOM_DEF_STEREO_COUNT>
0

> <PUBCHEM_ATOM_UDEF_STEREO_COUNT>
0

> <PUBCHEM_BOND_DEF_STEREO_COUNT>
0

> <PUBCHEM_BOND_UDEF_STEREO_COUNT>
1

> <PUBCHEM_ISOTOPIC_ATOM_COUNT>
0

> <PUBCHEM_COMPONENT_COUNT>
1

> <PUBCHEM_CACTVS_TAUTO_COUNT>
2

> <PUBCHEM_CONFORMER_ID>
0000321C00000001

> <PUBCHEM_MMFF94_ENERGY>
22.0207

> <PUBCHEM_FEATURE_SELFOVERLAP>
35.611

> <PUBCHEM_SHAPE_FINGERPRINT>
10608611 8 18335703793599889624
122479 349 18413666911386771898
12346645 44 18341897410928381411
12932764 1 17459472152566399954
13081056 2 18409165528047168948
13380535 76 18409166636127911719
14325111 11 18410575050809918118
14897335 6 18410295834490360422
15775835 57 18343021098947977250
17834072 32 18340771558446111845
18186145 218 17968645056729137986
20510252 161 18336260137503427819
20645477 56 18410011001149631832
20645477 70 17095793413234249366
20711983 171 18409728422619442990
21524375 3 18410013277371678255
23402539 116 18335992991091472127
23402655 69 18188219818230040429
23500284 214 18409160017683048385
23559900 14 18187365437766104690
366044 4 18410856577236740995
6333449 129 18408605833916308887
6430166 295 18411422851563050928
69090 78 18334017189707062159
7364860 26 18193275410832834278

> <PUBCHEM_SHAPE_MULTIPOLES>
234.09
7.6
1.79
0.57
4.43
0.08
0
3.3
0.03
-0.82
0.01
0.02
-0.04
0.04

> <PUBCHEM_SHAPE_SELFOVERLAP>
489.981

> <PUBCHEM_SHAPE_VOLUME>
133.1

> <PUBCHEM_COORDINATE_TYPE>
2
5
10

$$$$

