13086
  -OEChem-06261207443D

 34 35  0     0  0  0  0  0  0999 V2000
    0.0486    0.4663   -1.8931 O   0  0  0  0  0  0  0  0  0  0  0  0
   -0.5799   -0.0515    0.3074 N   0  0  0  0  0  0  0  0  0  0  0  0
    5.7960   -0.2124    0.7242 N   0  0  0  0  0  0  0  0  0  0  0  0
   -1.9949   -0.0453    0.2401 C   0  0  0  0  0  0  0  0  0  0  0  0
   -2.6821    1.1340    0.4823 C   0  0  0  0  0  0  0  0  0  0  0  0
   -2.6664   -1.2187   -0.0662 C   0  0  0  0  0  0  0  0  0  0  0  0
   -4.0754    1.1402    0.4166 C   0  0  0  0  0  0  0  0  0  0  0  0
   -4.0596   -1.2126   -0.1321 C   0  0  0  0  0  0  0  0  0  0  0  0
   -4.7641   -0.0331    0.1094 C   0  0  0  0  0  0  0  0  0  0  0  0
   -1.9727    2.4070    0.8137 C   0  0  0  0  0  0  0  0  0  0  0  0
   -1.9400   -2.4978   -0.3302 C   0  0  0  0  0  0  0  0  0  0  0  0
    1.7462    0.0886   -0.3480 C   0  0  0  0  0  0  0  0  0  0  0  0
    0.3436    0.1940   -0.7182 C   0  0  0  0  0  0  0  0  0  0  0  0
    2.7082    0.8185   -1.0458 C   0  0  0  0  0  0  0  0  0  0  0  0
    2.1290   -0.7417    0.7054 C   0  0  0  0  0  0  0  0  0  0  0  0
    4.4361   -0.1120    0.3634 C   0  0  0  0  0  0  0  0  0  0  0  0
    4.0534    0.7183   -0.6901 C   0  0  0  0  0  0  0  0  0  0  0  0
    3.4740   -0.8419    1.0611 C   0  0  0  0  0  0  0  0  0  0  0  0
   -0.2310   -0.0556    1.2632 H   0  0  0  0  0  0  0  0  0  0  0  0
   -4.6403    2.0501    0.6011 H   0  0  0  0  0  0  0  0  0  0  0  0
   -4.6124   -2.1174   -0.3709 H   0  0  0  0  0  0  0  0  0  0  0  0
   -5.8490   -0.0284    0.0578 H   0  0  0  0  0  0  0  0  0  0  0  0
   -1.3330    2.2741    1.6924 H   0  0  0  0  0  0  0  0  0  0  0  0
   -1.3612    2.7350   -0.0333 H   0  0  0  0  0  0  0  0  0  0  0  0
   -2.6738    3.2163    1.0452 H   0  0  0  0  0  0  0  0  0  0  0  0
   -1.3413   -2.4149   -1.2431 H   0  0  0  0  0  0  0  0  0  0  0  0
   -1.2848   -2.7497    0.5105 H   0  0  0  0  0  0  0  0  0  0  0  0
   -2.6296   -3.3385   -0.4636 H   0  0  0  0  0  0  0  0  0  0  0  0
    2.4307    1.4755   -1.8661 H   0  0  0  0  0  0  0  0  0  0  0  0
    1.4158   -1.3500    1.2547 H   0  0  0  0  0  0  0  0  0  0  0  0
    4.7937    1.2933   -1.2405 H   0  0  0  0  0  0  0  0  0  0  0  0
    3.7609   -1.4970    1.8798 H   0  0  0  0  0  0  0  0  0  0  0  0
    6.0742   -0.8158    1.4866 H   0  0  0  0  0  0  0  0  0  0  0  0
    6.4945    0.3149    0.2173 H   0  0  0  0  0  0  0  0  0  0  0  0
  1 13  2  0  0  0  0
  2  4  1  0  0  0  0
  2 13  1  0  0  0  0
  2 19  1  0  0  0  0
  3 16  1  0  0  0  0
  3 33  1  0  0  0  0
  3 34  1  0  0  0  0
  4  5  2  0  0  0  0
  4  6  1  0  0  0  0
  5  7  1  0  0  0  0
  5 10  1  0  0  0  0
  6  8  2  0  0  0  0
  6 11  1  0  0  0  0
  7  9  2  0  0  0  0
  7 20  1  0  0  0  0
  8  9  1  0  0  0  0
  8 21  1  0  0  0  0
  9 22  1  0  0  0  0
 10 23  1  0  0  0  0
 10 24  1  0  0  0  0
 10 25  1  0  0  0  0
 11 26  1  0  0  0  0
 11 27  1  0  0  0  0
 11 28  1  0  0  0  0
 12 13  1  0  0  0  0
 12 14  2  0  0  0  0
 12 15  1  0  0  0  0
 14 17  1  0  0  0  0
 14 29  1  0  0  0  0
 15 18  2  0  0  0  0
 15 30  1  0  0  0  0
 16 17  2  0  0  0  0
 16 18  1  0  0  0  0
 17 31  1  0  0  0  0
 18 32  1  0  0  0  0
M  END
> <PUBCHEM_COMPOUND_CID>
13086

> <PUBCHEM_CONFORMER_RMSD>
0.6

> <PUBCHEM_CONFORMER_DIVERSEORDER>
1
2

> <PUBCHEM_MMFF94_PARTIAL_CHARGES>
28
1 -0.57
10 0.14
11 0.14
12 0.09
13 0.54
14 -0.15
15 -0.15
16 0.1
17 -0.15
18 -0.15
19 0.37
2 -0.55
20 0.15
21 0.15
22 0.15
29 0.15
3 -0.9
30 0.15
31 0.15
32 0.15
33 0.4
34 0.4
4 0.12
5 -0.14
6 -0.14
7 -0.15
8 -0.15
9 -0.15

> <PUBCHEM_EFFECTIVE_ROTOR_COUNT>
3

> <PUBCHEM_PHARMACOPHORE_FEATURES>
6
1 1 acceptor
1 2 donor
1 3 cation
1 3 donor
6 12 14 15 16 17 18 rings
6 4 5 6 7 8 9 rings

> <PUBCHEM_HEAVY_ATOM_COUNT>
18

> <PUBCHEM_ATOM_DEF_STEREO_COUNT>
0

> <PUBCHEM_ATOM_UDEF_STEREO_COUNT>
0

> <PUBCHEM_BOND_DEF_STEREO_COUNT>
0

> <PUBCHEM_BOND_UDEF_STEREO_COUNT>
0

> <PUBCHEM_ISOTOPIC_ATOM_COUNT>
0

> <PUBCHEM_COMPONENT_COUNT>
1

> <PUBCHEM_CACTVS_TAUTO_COUNT>
5

> <PUBCHEM_CONFORMER_ID>
0000331E00000001

> <PUBCHEM_MMFF94_ENERGY>
85.6419

> <PUBCHEM_FEATURE_SELFOVERLAP>
30.446

> <PUBCHEM_SHAPE_FINGERPRINT>
10366900 7 17749115486536832635
10616163 171 18410571747495426954
11315181 36 18342739598491671592
11578080 2 17986418631753677733
12107183 9 17691971883272229440
12236239 1 18202562869266014747
12251169 10 18341895203473225948
12500047 106 18260833704267823455
12633257 1 18187356640924289001
12670546 56 18411704270352031660
13167823 11 18344145877910780970
13583140 156 17530693104054748498
13760787 5 16917063348410547710
14341114 176 18334855022268329872
14386348 63 16732979816978926994
14739800 52 18191025600116748856
17834072 33 18343017770722966612
1813 80 17203038694854345446
18186145 218 12967129393612229844
19050596 39 18342737403652587520
19489759 90 18113338621790312491
200 152 18060423503669700885
20279233 1 16950277399419432014
20510252 161 18041835229205830745
20645477 70 15985111829567271106
21033648 29 16226058833147110440
21267235 1 18271798016987402155
22646028 1 18201719539700262308
2297311 6 18113605785835948020
23402539 116 18259991470361616109
23557571 272 17677035932326176657
23559900 14 17969488463409220950
26918003 58 16559029393800056384
34797466 226 17750500811554426916
351380 180 17967254203983541633
4214541 1 18411419522483400536
474 4 17558821789721916732
5104073 3 18341045212049474088
573450 72 18411704287531764603
77492 1 18130500877540252399
9709674 26 18334003999847029303

> <PUBCHEM_SHAPE_MULTIPOLES>
354.6
10.5
1.78
1.08
6.4
0.1
0.25
0.24
-1.87
-1.99
-0.18
0.68
-0.14
-1.06

> <PUBCHEM_SHAPE_SELFOVERLAP>
761.082

> <PUBCHEM_SHAPE_VOLUME>
197

> <PUBCHEM_COORDINATE_TYPE>
2
5
10

$$$$

