583351
  -OEChem-06241222453D

 39 42  0     1  0  0  0  0  0999 V2000
    0.6256    0.0465   -0.4306 O   0  0  0  0  0  0  0  0  0  0  0  0
    0.2971   -1.9731    0.6052 O   0  0  0  0  0  0  0  0  0  0  0  0
   -6.4950   -0.4950   -0.2027 O   0  5  0  0  0  0  0  0  0  0  0  0
   -5.9736    1.6337   -0.0772 O   0  0  0  0  0  0  0  0  0  0  0  0
   -5.6444    0.4233   -0.1138 N   0  3  0  0  0  0  0  0  0  0  0  0
    2.6140   -0.2142    0.9999 C   0  0  1  0  0  0  0  0  0  0  0  0
    2.8022    1.0393   -0.9702 C   0  0  2  0  0  0  0  0  0  0  0  0
    2.0309   -0.1859   -0.4302 C   0  0  0  0  0  0  0  0  0  0  0  0
    4.1695   -0.4968    0.9629 C   0  0  2  0  0  0  0  0  0  0  0  0
    4.3567    0.7514   -0.9992 C   0  0  1  0  0  0  0  0  0  0  0  0
    4.9239    0.7289    0.4275 C   0  0  0  0  0  0  0  0  0  0  0  0
    2.3097    1.2450    1.4323 C   0  0  0  0  0  0  0  0  0  0  0  0
    2.4340    2.0782    0.1224 C   0  0  0  0  0  0  0  0  0  0  0  0
    4.5455   -1.4258   -0.1774 C   0  0  0  0  0  0  0  0  0  0  0  0
    4.6534   -0.7043   -1.3117 C   0  0  0  0  0  0  0  0  0  0  0  0
   -0.1517   -0.9375    0.1248 C   0  0  0  0  0  0  0  0  0  0  0  0
   -1.5712   -0.5855    0.0648 C   0  0  0  0  0  0  0  0  0  0  0  0
   -2.5255   -1.5916   -0.0323 C   0  0  0  0  0  0  0  0  0  0  0  0
   -1.9513    0.7512    0.1038 C   0  0  0  0  0  0  0  0  0  0  0  0
   -3.8783   -1.2565   -0.0911 C   0  0  0  0  0  0  0  0  0  0  0  0
   -3.3041    1.0862    0.0452 C   0  0  0  0  0  0  0  0  0  0  0  0
   -4.2675    0.0824   -0.0523 C   0  0  0  0  0  0  0  0  0  0  0  0
    2.1314   -0.9238    1.6754 H   0  0  0  0  0  0  0  0  0  0  0  0
    2.4414    1.3507   -1.9556 H   0  0  0  0  0  0  0  0  0  0  0  0
    2.2000   -1.0926   -1.0185 H   0  0  0  0  0  0  0  0  0  0  0  0
    4.5639   -0.8125    1.9321 H   0  0  0  0  0  0  0  0  0  0  0  0
    4.9033    1.4549   -1.6323 H   0  0  0  0  0  0  0  0  0  0  0  0
    4.7817    1.6479    0.9982 H   0  0  0  0  0  0  0  0  0  0  0  0
    6.0129    0.5612    0.4247 H   0  0  0  0  0  0  0  0  0  0  0  0
    2.9719    1.6026    2.2267 H   0  0  0  0  0  0  0  0  0  0  0  0
    1.2850    1.3251    1.8153 H   0  0  0  0  0  0  0  0  0  0  0  0
    1.4657    2.5415   -0.1035 H   0  0  0  0  0  0  0  0  0  0  0  0
    3.1618    2.8913    0.2027 H   0  0  0  0  0  0  0  0  0  0  0  0
    4.6467   -2.4972   -0.1007 H   0  0  0  0  0  0  0  0  0  0  0  0
    4.8556   -1.1021   -2.2941 H   0  0  0  0  0  0  0  0  0  0  0  0
   -2.2368   -2.6387   -0.0666 H   0  0  0  0  0  0  0  0  0  0  0  0
   -1.2231    1.5528    0.1924 H   0  0  0  0  0  0  0  0  0  0  0  0
   -4.6010   -2.0649   -0.1678 H   0  0  0  0  0  0  0  0  0  0  0  0
   -3.5707    2.1395    0.0804 H   0  0  0  0  0  0  0  0  0  0  0  0
  1  8  1  0  0  0  0
  1 16  1  0  0  0  0
  2 16  2  0  0  0  0
  3  5  1  0  0  0  0
  4  5  2  0  0  0  0
  5 22  1  0  0  0  0
  6  8  1  0  0  0  0
  6  9  1  0  0  0  0
  6 12  1  0  0  0  0
  6 23  1  0  0  0  0
  7  8  1  0  0  0  0
  7 10  1  0  0  0  0
  7 13  1  0  0  0  0
  7 24  1  0  0  0  0
  8 25  1  0  0  0  0
  9 11  1  0  0  0  0
  9 14  1  0  0  0  0
  9 26  1  0  0  0  0
 10 11  1  0  0  0  0
 10 15  1  0  0  0  0
 10 27  1  0  0  0  0
 11 28  1  0  0  0  0
 11 29  1  0  0  0  0
 12 13  1  0  0  0  0
 12 30  1  0  0  0  0
 12 31  1  0  0  0  0
 13 32  1  0  0  0  0
 13 33  1  0  0  0  0
 14 15  2  0  0  0  0
 14 34  1  0  0  0  0
 15 35  1  0  0  0  0
 16 17  1  0  0  0  0
 17 18  2  0  0  0  0
 17 19  1  0  0  0  0
 18 20  1  0  0  0  0
 18 36  1  0  0  0  0
 19 21  2  0  0  0  0
 19 37  1  0  0  0  0
 20 22  2  0  0  0  0
 20 38  1  0  0  0  0
 21 22  1  0  0  0  0
 21 39  1  0  0  0  0
M  CHG  2   3  -1   5   1
M  END
> <PUBCHEM_COMPOUND_CID>
583351

> <PUBCHEM_CONFORMER_RMSD>
0.8

> <PUBCHEM_CONFORMER_DIVERSEORDER>
1
9
10
2
7
8
4
5
6
3
11

> <PUBCHEM_MMFF94_PARTIAL_CHARGES>
23
1 -0.43
10 0.14
14 -0.29
15 -0.29
16 0.63
17 0.09
18 -0.15
19 -0.15
2 -0.57
20 -0.15
21 -0.15
22 0.13
3 -0.52
34 0.15
35 0.15
36 0.15
37 0.15
38 0.15
39 0.15
4 -0.52
5 0.91
8 0.28
9 0.14

> <PUBCHEM_EFFECTIVE_ROTOR_COUNT>
4.8

> <PUBCHEM_PHARMACOPHORE_FEATURES>
6
1 2 acceptor
1 3 acceptor
1 3 anion
1 4 acceptor
10 6 7 8 9 10 11 12 13 14 15 rings
6 17 18 19 20 21 22 rings

> <PUBCHEM_HEAVY_ATOM_COUNT>
22

> <PUBCHEM_ATOM_DEF_STEREO_COUNT>
0

> <PUBCHEM_ATOM_UDEF_STEREO_COUNT>
4

> <PUBCHEM_BOND_DEF_STEREO_COUNT>
0

> <PUBCHEM_BOND_UDEF_STEREO_COUNT>
0

> <PUBCHEM_ISOTOPIC_ATOM_COUNT>
0

> <PUBCHEM_COMPONENT_COUNT>
1

> <PUBCHEM_CACTVS_TAUTO_COUNT>
1

> <PUBCHEM_CONFORMER_ID>
0008E6B700000001

> <PUBCHEM_MMFF94_ENERGY>
100.316

> <PUBCHEM_FEATURE_SELFOVERLAP>
30.528

> <PUBCHEM_SHAPE_FINGERPRINT>
10354089 29 17346597473694727157
10447042 23 7276831242765055696
11089746 13 18334023787151108741
11405975 8 18187926140723682099
11796584 16 18333728009854772366
12107183 9 17552933131633826473
12166972 35 18342172242181912205
12236239 1 17989488519830985179
12403259 415 18261391092312157481
12596602 18 13326850046125450461
12616971 3 16271933679409861682
128620 24 8286203846502094170
12916748 109 18411698789989482392
13134695 92 16950567688349691744
13533116 47 5328472462402356020
13955234 65 14405193863469932184
14251764 18 18343587339336996610
14341114 176 18408600366132673857
14528608 73 18412267220764213575
15183329 4 18040710407282849713
15196674 1 18339080393671704561
15375358 24 9367347037256333428
15788980 27 16732704947630178287
17349148 13 14056712440053342750
17834072 33 8790881882864528675
17844677 252 18341043004842218307
18186145 218 18271535212201592871
200 152 16081085987368046915
20645477 70 16950274144403895318
21267235 1 18411130334352224139
212847 35 18413671309697169936
21285901 2 18263071266728997564
21503847 285 17561079181440355956
221357 26 18187082870828763057
2215653 11 18040997358020999175
22224240 67 11887665131660590940
23402539 116 18259992561082790799
23557571 272 8790616917747632298
23559900 14 18334858273247446744
3004659 81 18413105091774789766
34797466 226 17531522092540044549
351380 180 18260831488196385637
3545911 37 18410572894646690807
4073 2 18059288756346955050
4214541 1 18410855447612609527
4340502 62 12535345688574807968
474 4 17846777399513975219
495365 180 17676777474669587954
5104073 3 18341894043937597305
522135 26 17775567542121356994
542803 24 17275102834290199341
633830 44 18341057315330630159
7495541 125 16588312627058826595
8272917 22 18060421352165931690
8509985 295 18409733975875045456
8988823 20 14779553391718664882
9996256 80 18409728431478883347

> <PUBCHEM_SHAPE_MULTIPOLES>
424.29
13.64
1.71
1.01
15.35
0.08
-0.04
1.25
1.58
-0.01
-0.1
-1.3
0.08
0.17

> <PUBCHEM_SHAPE_SELFOVERLAP>
945.504

> <PUBCHEM_SHAPE_VOLUME>
225.7

> <PUBCHEM_COORDINATE_TYPE>
2
5
10

$$$$

