583367
  -OEChem-06241222453D

 18 17  0     0  0  0  0  0  0999 V2000
   -4.0838    0.6845   -0.0239 N   0  0  0  0  0  0  0  0  0  0  0  0
    4.0838    0.6844    0.0239 N   0  0  0  0  0  0  0  0  0  0  0  0
   -0.7294   -0.3786    0.0653 C   0  0  0  0  0  0  0  0  0  0  0  0
    0.7294   -0.3786   -0.0649 C   0  0  0  0  0  0  0  0  0  0  0  0
   -1.3222   -1.6554    0.5979 C   0  0  0  0  0  0  0  0  0  0  0  0
    1.3221   -1.6552   -0.5981 C   0  0  0  0  0  0  0  0  0  0  0  0
   -1.5102    0.6724   -0.2492 C   0  0  0  0  0  0  0  0  0  0  0  0
    1.5102    0.6724    0.2492 C   0  0  0  0  0  0  0  0  0  0  0  0
   -2.9278    0.6771   -0.1244 C   0  0  0  0  0  0  0  0  0  0  0  0
    2.9278    0.6771    0.1243 C   0  0  0  0  0  0  0  0  0  0  0  0
   -1.3051   -2.4418   -0.1644 H   0  0  0  0  0  0  0  0  0  0  0  0
   -0.7608   -2.0064    1.4719 H   0  0  0  0  0  0  0  0  0  0  0  0
   -2.3590   -1.5543    0.9327 H   0  0  0  0  0  0  0  0  0  0  0  0
    0.7605   -2.0059   -1.4723 H   0  0  0  0  0  0  0  0  0  0  0  0
    1.3050   -2.4419    0.1639 H   0  0  0  0  0  0  0  0  0  0  0  0
    2.3588   -1.5541   -0.9331 H   0  0  0  0  0  0  0  0  0  0  0  0
   -1.0652    1.5843   -0.6380 H   0  0  0  0  0  0  0  0  0  0  0  0
    1.0654    1.5842    0.6379 H   0  0  0  0  0  0  0  0  0  0  0  0
  1  9  3  0  0  0  0
  2 10  3  0  0  0  0
  3  4  1  0  0  0  0
  3  5  1  0  0  0  0
  3  7  2  0  0  0  0
  4  6  1  0  0  0  0
  4  8  2  0  0  0  0
  5 11  1  0  0  0  0
  5 12  1  0  0  0  0
  5 13  1  0  0  0  0
  6 14  1  0  0  0  0
  6 15  1  0  0  0  0
  6 16  1  0  0  0  0
  7  9  1  0  0  0  0
  7 17  1  0  0  0  0
  8 10  1  0  0  0  0
  8 18  1  0  0  0  0
M  END
> <PUBCHEM_COMPOUND_CID>
583367

> <PUBCHEM_CONFORMER_RMSD>
0.4

> <PUBCHEM_CONFORMER_DIVERSEORDER>
1
2

> <PUBCHEM_MMFF94_PARTIAL_CHARGES>
12
1 -0.56
10 0.49
17 0.15
18 0.15
2 -0.56
3 -0.14
4 -0.14
5 0.14
6 0.14
7 -0.09
8 -0.09
9 0.49

> <PUBCHEM_EFFECTIVE_ROTOR_COUNT>
1

> <PUBCHEM_PHARMACOPHORE_FEATURES>
4
1 1 acceptor
1 2 acceptor
1 5 hydrophobe
1 6 hydrophobe

> <PUBCHEM_HEAVY_ATOM_COUNT>
10

> <PUBCHEM_ATOM_DEF_STEREO_COUNT>
0

> <PUBCHEM_ATOM_UDEF_STEREO_COUNT>
0

> <PUBCHEM_BOND_DEF_STEREO_COUNT>
0

> <PUBCHEM_BOND_UDEF_STEREO_COUNT>
2

> <PUBCHEM_ISOTOPIC_ATOM_COUNT>
0

> <PUBCHEM_COMPONENT_COUNT>
1

> <PUBCHEM_CACTVS_TAUTO_COUNT>
1

> <PUBCHEM_CONFORMER_ID>
0008E6C700000001

> <PUBCHEM_MMFF94_ENERGY>
18.244

> <PUBCHEM_FEATURE_SELFOVERLAP>
20.299

> <PUBCHEM_SHAPE_FINGERPRINT>
11031198 65 18187080667583997092
11062470 55 4751155228905475616
12932764 1 16516265027499363225
13380535 76 18410857659151800614
14325111 11 18411701027978575885
14897335 6 18409171016909858726
15219456 202 18409439297747243899
170605 34 18412828009758234803
20281407 28 8718827604277726212
20588541 1 18410854364927572436
20645464 45 18343016696738477995
20645477 70 18117001185781445327
20711983 171 18201152140624939836
21119208 17 15646772288399598656
21293036 1 16153710911846333732
23235685 24 18410863161004750884
23402539 116 18340781385299052069
23402655 69 18187090602413396333
6333449 129 18338800018312194663

> <PUBCHEM_SHAPE_MULTIPOLES>
195.83
6.02
1.47
0.69
0
0.73
0
-2.89
0
0
0
0
0.12
0.4

> <PUBCHEM_SHAPE_SELFOVERLAP>
379.618

> <PUBCHEM_SHAPE_VOLUME>
114.3

> <PUBCHEM_COORDINATE_TYPE>
2
5
10

$$$$

