5527
  -OEChem-06261200432D

 41 42  0     0  0  0  0  0  0999 V2000
    4.5981    4.1550    0.0000 O   0  0  0  0  0  0  0  0  0  0  0  0
    2.8660    3.1550    0.0000 O   0  0  0  0  0  0  0  0  0  0  0  0
    8.0622    0.1550    0.0000 O   0  0  0  0  0  0  0  0  0  0  0  0
    7.1962   -4.3450    0.0000 O   0  0  0  0  0  0  0  0  0  0  0  0
    6.3301   -2.8450    0.0000 O   0  0  0  0  0  0  0  0  0  0  0  0
    7.1962   -1.3450    0.0000 N   0  0  0  0  0  0  0  0  0  0  0  0
    5.4641    1.6550    0.0000 C   0  0  0  0  0  0  0  0  0  0  0  0
    8.0622   -1.8450    0.0000 C   0  0  0  0  0  0  0  0  0  0  0  0
    4.5981    3.1550    0.0000 C   0  0  0  0  0  0  0  0  0  0  0  0
    5.4641    2.6550    0.0000 C   0  0  0  0  0  0  0  0  0  0  0  0
    3.7320    2.6550    0.0000 C   0  0  0  0  0  0  0  0  0  0  0  0
    4.5981    1.1550    0.0000 C   0  0  0  0  0  0  0  0  0  0  0  0
    8.0622   -2.8450    0.0000 C   0  0  0  0  0  0  0  0  0  0  0  0
    3.7320    1.6550    0.0000 C   0  0  0  0  0  0  0  0  0  0  0  0
    6.3301    1.1550    0.0000 C   0  0  0  0  0  0  0  0  0  0  0  0
    8.9282   -1.3450    0.0000 C   0  0  0  0  0  0  0  0  0  0  0  0
    6.3301    0.1550    0.0000 C   0  0  0  0  0  0  0  0  0  0  0  0
    8.9282   -3.3450    0.0000 C   0  0  0  0  0  0  0  0  0  0  0  0
    7.1962   -0.3450    0.0000 C   0  0  0  0  0  0  0  0  0  0  0  0
    9.7942   -1.8450    0.0000 C   0  0  0  0  0  0  0  0  0  0  0  0
    9.7942   -2.8450    0.0000 C   0  0  0  0  0  0  0  0  0  0  0  0
    7.1962   -3.3450    0.0000 C   0  0  0  0  0  0  0  0  0  0  0  0
    5.4641    4.6550    0.0000 C   0  0  0  0  0  0  0  0  0  0  0  0
    2.0000    2.6550    0.0000 C   0  0  0  0  0  0  0  0  0  0  0  0
    6.0010    2.9650    0.0000 H   0  0  0  0  0  0  0  0  0  0  0  0
    4.5981    0.5350    0.0000 H   0  0  0  0  0  0  0  0  0  0  0  0
    3.1951    1.3450    0.0000 H   0  0  0  0  0  0  0  0  0  0  0  0
    6.8671    1.4650    0.0000 H   0  0  0  0  0  0  0  0  0  0  0  0
    6.6592   -1.6550    0.0000 H   0  0  0  0  0  0  0  0  0  0  0  0
    8.9282   -0.7250    0.0000 H   0  0  0  0  0  0  0  0  0  0  0  0
    5.7932   -0.1550    0.0000 H   0  0  0  0  0  0  0  0  0  0  0  0
    8.9282   -3.9650    0.0000 H   0  0  0  0  0  0  0  0  0  0  0  0
   10.3312   -1.5350    0.0000 H   0  0  0  0  0  0  0  0  0  0  0  0
   10.3312   -3.1550    0.0000 H   0  0  0  0  0  0  0  0  0  0  0  0
    5.7741    4.1181    0.0000 H   0  0  0  0  0  0  0  0  0  0  0  0
    6.0010    4.9650    0.0000 H   0  0  0  0  0  0  0  0  0  0  0  0
    5.1541    5.1919    0.0000 H   0  0  0  0  0  0  0  0  0  0  0  0
    1.6900    3.1919    0.0000 H   0  0  0  0  0  0  0  0  0  0  0  0
    1.4631    2.3450    0.0000 H   0  0  0  0  0  0  0  0  0  0  0  0
    2.3100    2.1181    0.0000 H   0  0  0  0  0  0  0  0  0  0  0  0
    6.6592   -4.6550    0.0000 H   0  0  0  0  0  0  0  0  0  0  0  0
  1  9  1  0  0  0  0
  1 23  1  0  0  0  0
  2 11  1  0  0  0  0
  2 24  1  0  0  0  0
  3 19  2  0  0  0  0
  4 22  1  0  0  0  0
  4 41  1  0  0  0  0
  5 22  2  0  0  0  0
  6  8  1  0  0  0  0
  6 19  1  0  0  0  0
  6 29  1  0  0  0  0
  7 10  2  0  0  0  0
  7 12  1  0  0  0  0
  7 15  1  0  0  0  0
  8 13  1  0  0  0  0
  8 16  2  0  0  0  0
  9 10  1  0  0  0  0
  9 11  2  0  0  0  0
 10 25  1  0  0  0  0
 11 14  1  0  0  0  0
 12 14  2  0  0  0  0
 12 26  1  0  0  0  0
 13 18  2  0  0  0  0
 13 22  1  0  0  0  0
 14 27  1  0  0  0  0
 15 17  2  3  0  0  0
 15 28  1  0  0  0  0
 16 20  1  0  0  0  0
 16 30  1  0  0  0  0
 17 19  1  0  0  0  0
 17 31  1  0  0  0  0
 18 21  1  0  0  0  0
 18 32  1  0  0  0  0
 20 21  2  0  0  0  0
 20 33  1  0  0  0  0
 21 34  1  0  0  0  0
 23 35  1  0  0  0  0
 23 36  1  0  0  0  0
 23 37  1  0  0  0  0
 24 38  1  0  0  0  0
 24 39  1  0  0  0  0
 24 40  1  0  0  0  0
M  END
> <PUBCHEM_COMPOUND_CID>
5527

> <PUBCHEM_COMPOUND_CANONICALIZED>
1

> <PUBCHEM_CACTVS_COMPLEXITY>
464

> <PUBCHEM_CACTVS_HBOND_ACCEPTOR>
5

> <PUBCHEM_CACTVS_HBOND_DONOR>
2

> <PUBCHEM_CACTVS_ROTATABLE_BOND>
6

> <PUBCHEM_CACTVS_SUBSKEYS>
AAADceB6OAAAAAAAAAAAAAAAAAAAAAAAAAAwYAAAAAAAAAABQAAAHgAQCAAADAyBmAIyzoLABgCIAiXSWACCCAAlIgAIiAEG7MgNJjrEtZuEcapm1BHK+ceYyDCOIAABAAACQABAAAIAAASAAAAAAAAAAA==

> <PUBCHEM_IUPAC_OPENEYE_NAME>
2-[3-(3,4-dimethoxyphenyl)prop-2-enoylamino]benzoic acid

> <PUBCHEM_IUPAC_CAS_NAME>
2-[[3-(3,4-dimethoxyphenyl)-1-oxoprop-2-enyl]amino]benzoic acid

> <PUBCHEM_IUPAC_NAME>
2-[3-(3,4-dimethoxyphenyl)prop-2-enoylamino]benzoic acid

> <PUBCHEM_IUPAC_SYSTEMATIC_NAME>
2-[3-(3,4-dimethoxyphenyl)prop-2-enoylamino]benzoic acid

> <PUBCHEM_IUPAC_TRADITIONAL_NAME>
2-[[3-(3,4-dimethoxyphenyl)acryloyl]amino]benzoic acid

> <PUBCHEM_IUPAC_INCHI>
InChI=1S/C18H17NO5/c1-23-15-9-7-12(11-16(15)24-2)8-10-17(20)19-14-6-4-3-5-13(14)18(21)22/h3-11H,1-2H3,(H,19,20)(H,21,22)

> <PUBCHEM_IUPAC_INCHIKEY>
NZHGWWWHIYHZNX-UHFFFAOYSA-N

> <PUBCHEM_XLOGP3_AA>
3.2

> <PUBCHEM_EXACT_MASS>
327.110673

> <PUBCHEM_MOLECULAR_FORMULA>
C18H17NO5

> <PUBCHEM_MOLECULAR_WEIGHT>
327.33128

> <PUBCHEM_OPENEYE_CAN_SMILES>
COC1=C(C=C(C=C1)C=CC(=O)NC2=CC=CC=C2C(=O)O)OC

> <PUBCHEM_OPENEYE_ISO_SMILES>
COC1=C(C=C(C=C1)C=CC(=O)NC2=CC=CC=C2C(=O)O)OC

> <PUBCHEM_CACTVS_TPSA>
84.9

> <PUBCHEM_MONOISOTOPIC_WEIGHT>
327.110673

> <PUBCHEM_TOTAL_CHARGE>
0

> <PUBCHEM_HEAVY_ATOM_COUNT>
24

> <PUBCHEM_ATOM_DEF_STEREO_COUNT>
0

> <PUBCHEM_ATOM_UDEF_STEREO_COUNT>
0

> <PUBCHEM_BOND_DEF_STEREO_COUNT>
0

> <PUBCHEM_BOND_UDEF_STEREO_COUNT>
1

> <PUBCHEM_ISOTOPIC_ATOM_COUNT>
0

> <PUBCHEM_COMPONENT_COUNT>
1

> <PUBCHEM_CACTVS_TAUTO_COUNT>
5

> <PUBCHEM_COORDINATE_TYPE>
1
5
255

> <PUBCHEM_BONDANNOTATIONS>
11  14  8
12  14  8
13  18  8
15  17  1
16  20  8
18  21  8
20  21  8
7  10  8
7  12  8
8  13  8
8  16  8
9  10  8
9  11  8

$$$$

