3545
  -OEChem-06251223293D

 34 36  0     0  0  0  0  0  0999 V2000
   -0.7477   -1.0835    0.3600 S   0  0  0  0  0  0  0  0  0  0  0  0
   -0.5096   -1.8880   -0.8201 O   0  0  0  0  0  0  0  0  0  0  0  0
   -0.6588   -1.6350    1.6953 O   0  0  0  0  0  0  0  0  0  0  0  0
   -2.2536   -0.2876    0.1807 N   0  0  0  0  0  0  0  0  0  0  0  0
   -4.8610    0.5297   -0.7092 N   0  0  0  0  0  0  0  0  0  0  0  0
    4.5536   -0.6805   -0.5331 N   0  0  0  0  0  0  0  0  0  0  0  0
   -2.4218    0.4909   -1.0804 C   0  0  0  0  0  0  0  0  0  0  0  0
   -3.4571   -1.1185    0.4741 C   0  0  0  0  0  0  0  0  0  0  0  0
   -3.6798    1.3493   -0.9845 C   0  0  0  0  0  0  0  0  0  0  0  0
   -4.6912   -0.2232    0.5345 C   0  0  0  0  0  0  0  0  0  0  0  0
    0.5288    0.1696    0.3250 C   0  0  0  0  0  0  0  0  0  0  0  0
    1.8488   -0.1465    0.0380 C   0  0  0  0  0  0  0  0  0  0  0  0
    0.1086    1.4564    0.6020 C   0  0  0  0  0  0  0  0  0  0  0  0
    2.7939    0.9002    0.0316 C   0  0  0  0  0  0  0  0  0  0  0  0
    1.0451    2.4877    0.5948 C   0  0  0  0  0  0  0  0  0  0  0  0
    2.2783   -1.4486   -0.2432 C   0  0  0  0  0  0  0  0  0  0  0  0
    2.3830    2.2141    0.3112 C   0  0  0  0  0  0  0  0  0  0  0  0
    4.1191    0.5701   -0.2588 C   0  0  0  0  0  0  0  0  0  0  0  0
    3.6213   -1.6568   -0.5181 C   0  0  0  0  0  0  0  0  0  0  0  0
   -2.5133   -0.2078   -1.9221 H   0  0  0  0  0  0  0  0  0  0  0  0
   -1.5704    1.1385   -1.2929 H   0  0  0  0  0  0  0  0  0  0  0  0
   -3.3357   -1.6160    1.4420 H   0  0  0  0  0  0  0  0  0  0  0  0
   -3.5722   -1.8875   -0.2990 H   0  0  0  0  0  0  0  0  0  0  0  0
   -3.5626    2.1106   -0.2032 H   0  0  0  0  0  0  0  0  0  0  0  0
   -3.8293    1.8780   -1.9321 H   0  0  0  0  0  0  0  0  0  0  0  0
   -5.5793   -0.8426    0.6999 H   0  0  0  0  0  0  0  0  0  0  0  0
   -4.6173    0.4700    1.3818 H   0  0  0  0  0  0  0  0  0  0  0  0
   -5.6789    1.1332   -0.6291 H   0  0  0  0  0  0  0  0  0  0  0  0
   -0.9095    1.7064    0.8779 H   0  0  0  0  0  0  0  0  0  0  0  0
    0.7360    3.5039    0.8217 H   0  0  0  0  0  0  0  0  0  0  0  0
    1.6472   -2.3258   -0.2114 H   0  0  0  0  0  0  0  0  0  0  0  0
    3.1014    3.0306    0.3123 H   0  0  0  0  0  0  0  0  0  0  0  0
    4.8969    1.3286   -0.2801 H   0  0  0  0  0  0  0  0  0  0  0  0
    3.9957   -2.6536   -0.7282 H   0  0  0  0  0  0  0  0  0  0  0  0
  1  2  2  0  0  0  0
  1  3  2  0  0  0  0
  1  4  1  0  0  0  0
  1 11  1  0  0  0  0
  4  7  1  0  0  0  0
  4  8  1  0  0  0  0
  5  9  1  0  0  0  0
  5 10  1  0  0  0  0
  5 28  1  0  0  0  0
  6 18  2  0  0  0  0
  6 19  1  0  0  0  0
  7  9  1  0  0  0  0
  7 20  1  0  0  0  0
  7 21  1  0  0  0  0
  8 10  1  0  0  0  0
  8 22  1  0  0  0  0
  8 23  1  0  0  0  0
  9 24  1  0  0  0  0
  9 25  1  0  0  0  0
 10 26  1  0  0  0  0
 10 27  1  0  0  0  0
 11 12  1  0  0  0  0
 11 13  2  0  0  0  0
 12 14  2  0  0  0  0
 12 16  1  0  0  0  0
 13 15  1  0  0  0  0
 13 29  1  0  0  0  0
 14 17  1  0  0  0  0
 14 18  1  0  0  0  0
 15 17  2  0  0  0  0
 15 30  1  0  0  0  0
 16 19  2  0  0  0  0
 16 31  1  0  0  0  0
 17 32  1  0  0  0  0
 18 33  1  0  0  0  0
 19 34  1  0  0  0  0
M  END
> <PUBCHEM_COMPOUND_CID>
3545

> <PUBCHEM_CONFORMER_RMSD>
0.6

> <PUBCHEM_CONFORMER_DIVERSEORDER>
1
21
14
18
19
10
17
25
15
8
16
3
23
7
6
22
9
12
24
5
2
4
20
13
11

> <PUBCHEM_MMFF94_PARTIAL_CHARGES>
24
1 1.45
10 0.27
11 -0.01
13 -0.15
15 -0.15
16 -0.15
17 -0.15
18 0.16
19 0.16
2 -0.65
28 0.36
29 0.15
3 -0.65
30 0.15
31 0.15
32 0.15
33 0.15
34 0.15
4 -0.85
5 -0.9
6 -0.62
7 0.36
8 0.36
9 0.27

> <PUBCHEM_EFFECTIVE_ROTOR_COUNT>
3.2

> <PUBCHEM_PHARMACOPHORE_FEATURES>
8
1 2 acceptor
1 3 acceptor
1 5 cation
1 5 donor
1 6 acceptor
6 11 12 13 14 15 17 rings
6 4 5 7 8 9 10 rings
6 6 12 14 16 18 19 rings

> <PUBCHEM_HEAVY_ATOM_COUNT>
19

> <PUBCHEM_ATOM_DEF_STEREO_COUNT>
0

> <PUBCHEM_ATOM_UDEF_STEREO_COUNT>
0

> <PUBCHEM_BOND_DEF_STEREO_COUNT>
0

> <PUBCHEM_BOND_UDEF_STEREO_COUNT>
0

> <PUBCHEM_ISOTOPIC_ATOM_COUNT>
0

> <PUBCHEM_COMPONENT_COUNT>
1

> <PUBCHEM_CACTVS_TAUTO_COUNT>
1

> <PUBCHEM_CONFORMER_ID>
00000DD900000001

> <PUBCHEM_MMFF94_ENERGY>
44.4436

> <PUBCHEM_FEATURE_SELFOVERLAP>
40.638

> <PUBCHEM_SHAPE_FINGERPRINT>
10366900 7 17775287162561650403
10498660 4 17346331426720852269
10608611 8 18269276772547965409
10906281 52 18263906839910827832
10922523 26 18341615862868609453
11471102 20 18407760326548767324
116883 192 18188765192813289436
12236239 1 16877940542740049683
12623949 98 17901919986665353487
12654215 9 18410014308453973208
13134695 92 17748832907854137144
13140716 1 18118693115032910184
13464514 151 18124881411218759637
14115302 16 17988348304972432886
14251757 17 18340490074762726785
14341114 328 13254793572904954277
15099037 51 18408321094542874782
15196674 1 18409729530182980357
15219456 202 18339925922139367281
15848700 24 18187367661968281300
16945 1 18261680285566859288
18186145 218 18343869922088247985
18785283 64 18125438614237322776
19049666 15 18272088279488085267
200 152 17748826336437596752
20233049 118 18343866632159169052
20645477 70 18187076244031569302
21267235 1 18334846251998066670
21279426 13 18196654218327117215
21285901 2 18336542832535642020
21637258 2 15502641768234482644
221357 26 18409455812577031261
221490 88 18338793395087548011
22289505 5 18410579525770383932
23175994 123 18335975458407007710
23402539 116 17894910784288227976
23402655 69 18334858315949148053
23526113 38 18342168994759225946
23559900 14 18412826906801063210
25 1 18342463663706287527
2748010 2 18048312250515708224
3004659 81 18059008506090089958
3323516 105 18413389834651738145
34934 24 18262244326842653434
3524813 1 18272660064426819253
4072396 5 18337686260741823136
495365 180 18041570122312555440
4990 188 18341895207599582983
5104073 3 18337671906117225059
5281201 14 18342736308283167421
633830 44 18272379659118212343
69090 78 18335986376499093943
9709674 26 18269272353021440627
9981440 41 17177457182054550217

> <PUBCHEM_SHAPE_MULTIPOLES>
368.18
8.73
2.22
1
4.5
0.58
-0.07
-0.31
1.78
-1.19
-0.22
0.54
-0.1
1.06

> <PUBCHEM_SHAPE_SELFOVERLAP>
781.527

> <PUBCHEM_SHAPE_VOLUME>
205.4

> <PUBCHEM_COORDINATE_TYPE>
2
5
10

$$$$

