7846967
  -OEChem-06241222483D

 46 48  0     1  0  0  0  0  0999 V2000
   -4.8481    0.6304   -0.0294 S   0  0  0  0  0  0  0  0  0  0  0  0
    4.0783    1.1982    0.5052 S   0  0  0  0  0  0  0  0  0  0  0  0
   -4.8732    1.8649    0.7271 O   0  0  0  0  0  0  0  0  0  0  0  0
   -6.0580   -0.0386   -0.4602 O   0  0  0  0  0  0  0  0  0  0  0  0
    0.0684   -0.4707    1.3303 O   0  0  0  0  0  0  0  0  0  0  0  0
    1.7628   -2.5288    1.0977 O   0  0  0  0  0  0  0  0  0  0  0  0
    1.7158   -2.9656   -1.1671 O   0  0  0  0  0  0  0  0  0  0  0  0
   -1.6727   -1.6638    0.3605 N   0  0  0  0  0  0  0  0  0  0  0  0
    2.2218    0.4484   -1.1206 N   0  0  0  0  0  0  0  0  0  0  0  0
   -2.4640   -0.4895    0.1207 C   0  0  2  0  0  0  0  0  0  0  0  0
   -3.8170   -0.5508    0.8284 C   0  0  0  0  0  0  0  0  0  0  0  0
   -2.7741   -0.2976   -1.3660 C   0  0  0  0  0  0  0  0  0  0  0  0
   -3.7762    0.8485   -1.4421 C   0  0  0  0  0  0  0  0  0  0  0  0
   -2.2638   -2.9300   -0.0863 C   0  0  0  0  0  0  0  0  0  0  0  0
   -0.4162   -1.5488    0.9731 C   0  0  0  0  0  0  0  0  0  0  0  0
    0.3840   -2.8149    1.1955 C   0  0  0  0  0  0  0  0  0  0  0  0
    3.7914   -2.3013   -0.0870 C   0  0  0  0  0  0  0  0  0  0  0  0
    2.3198   -2.6415   -0.1540 C   0  0  0  0  0  0  0  0  0  0  0  0
    4.1503   -1.1311   -1.0042 C   0  0  0  0  0  0  0  0  0  0  0  0
    3.3937    0.1177   -0.6303 C   0  0  0  0  0  0  0  0  0  0  0  0
    2.6986    2.2205    0.3496 C   0  0  0  0  0  0  0  0  0  0  0  0
    1.8099    1.6523   -0.5681 C   0  0  0  0  0  0  0  0  0  0  0  0
    2.4227    3.4376    0.9931 C   0  0  0  0  0  0  0  0  0  0  0  0
    0.6028    2.3282   -0.8498 C   0  0  0  0  0  0  0  0  0  0  0  0
    1.2212    4.0860    0.6965 C   0  0  0  0  0  0  0  0  0  0  0  0
    0.3217    3.5402   -0.2127 C   0  0  0  0  0  0  0  0  0  0  0  0
   -1.9333    0.4043    0.4725 H   0  0  0  0  0  0  0  0  0  0  0  0
   -3.7352   -0.2570    1.8787 H   0  0  0  0  0  0  0  0  0  0  0  0
   -4.3265   -1.5148    0.7781 H   0  0  0  0  0  0  0  0  0  0  0  0
   -1.8712   -0.0732   -1.9440 H   0  0  0  0  0  0  0  0  0  0  0  0
   -3.2258   -1.1893   -1.8145 H   0  0  0  0  0  0  0  0  0  0  0  0
   -4.3654    0.8313   -2.3611 H   0  0  0  0  0  0  0  0  0  0  0  0
   -3.2746    1.8150   -1.3361 H   0  0  0  0  0  0  0  0  0  0  0  0
   -2.1870   -3.6613    0.7239 H   0  0  0  0  0  0  0  0  0  0  0  0
   -1.6804   -3.2916   -0.9389 H   0  0  0  0  0  0  0  0  0  0  0  0
   -3.3086   -2.8537   -0.3885 H   0  0  0  0  0  0  0  0  0  0  0  0
    0.1056   -3.6258    0.5185 H   0  0  0  0  0  0  0  0  0  0  0  0
    0.1802   -3.1596    2.2147 H   0  0  0  0  0  0  0  0  0  0  0  0
    4.3519   -3.1982   -0.3727 H   0  0  0  0  0  0  0  0  0  0  0  0
    4.0699   -2.0709    0.9485 H   0  0  0  0  0  0  0  0  0  0  0  0
    5.2318   -0.9544   -0.9716 H   0  0  0  0  0  0  0  0  0  0  0  0
    3.9042   -1.3852   -2.0429 H   0  0  0  0  0  0  0  0  0  0  0  0
    3.1202    3.8695    1.7041 H   0  0  0  0  0  0  0  0  0  0  0  0
   -0.1075    1.9105   -1.5574 H   0  0  0  0  0  0  0  0  0  0  0  0
    0.9880    5.0290    1.1838 H   0  0  0  0  0  0  0  0  0  0  0  0
   -0.6085    4.0579   -0.4303 H   0  0  0  0  0  0  0  0  0  0  0  0
  1  3  2  0  0  0  0
  1  4  2  0  0  0  0
  1 11  1  0  0  0  0
  1 13  1  0  0  0  0
  2 20  1  0  0  0  0
  2 21  1  0  0  0  0
  5 15  2  0  0  0  0
  6 16  1  0  0  0  0
  6 18  1  0  0  0  0
  7 18  2  0  0  0  0
  8 10  1  0  0  0  0
  8 14  1  0  0  0  0
  8 15  1  0  0  0  0
  9 20  2  0  0  0  0
  9 22  1  0  0  0  0
 10 11  1  0  0  0  0
 10 12  1  0  0  0  0
 10 27  1  0  0  0  0
 11 28  1  0  0  0  0
 11 29  1  0  0  0  0
 12 13  1  0  0  0  0
 12 30  1  0  0  0  0
 12 31  1  0  0  0  0
 13 32  1  0  0  0  0
 13 33  1  0  0  0  0
 14 34  1  0  0  0  0
 14 35  1  0  0  0  0
 14 36  1  0  0  0  0
 15 16  1  0  0  0  0
 16 37  1  0  0  0  0
 16 38  1  0  0  0  0
 17 18  1  0  0  0  0
 17 19  1  0  0  0  0
 17 39  1  0  0  0  0
 17 40  1  0  0  0  0
 19 20  1  0  0  0  0
 19 41  1  0  0  0  0
 19 42  1  0  0  0  0
 21 22  1  0  0  0  0
 21 23  2  0  0  0  0
 22 24  2  0  0  0  0
 23 25  1  0  0  0  0
 23 43  1  0  0  0  0
 24 26  1  0  0  0  0
 24 44  1  0  0  0  0
 25 26  2  0  0  0  0
 25 45  1  0  0  0  0
 26 46  1  0  0  0  0
M  END
> <PUBCHEM_COMPOUND_CID>
7846967

> <PUBCHEM_CONFORMER_RMSD>
1.2

> <PUBCHEM_CONFORMER_DIVERSEORDER>
24
28
21
149
221
62
27
212
131
70
115
181
187
208
247
68
23
163
74
100
153
281
39
282
46
231
54
154
228
122
50
268
142
165
271
20
252
1
71
35
147
152
109
107
141
246
244
232
272
75
69
87
241
135
243
158
127
278
229
99
204
42
86
49
151
101
179
222
129
267
55
78
138
112
275
2
227
116
256
31
81
191
261
117
190
45
264
91
80
52
84
257
145
234
92
126
85
124
185
189
215
95
96
40
254
22
90
248
111
102
19
207
249
218
198
216
29
36
276
56
197
47
167
38
58
171
266
103
209
219
121
240
238
10
279
30
277
175
120
132
180
73
269
150
137
202
118
57
94
16
15
242
245
159
134
233
156
210
51
160
200
41
168
67
9
34
108
44
12
4
172
201
169
274
79
177
273
270
48
205
235
110
60
17
255
64
26
3
176
59
65
206
224
76
182
72
66
237
43
139
13
123
230
214
88
253
6
196
170
61
37
7
125
211
128
280
89
262
220
166
164
63
184
32
113
133
144
162
178
140
259
93
146
265
97
183
119
251
250
223
130
258
157
186
161
173
260
188
217
199
25
226
53
236
5
11
203
106
105
14
193
18
98
155
225
104
8
148
77
143
114
194
195
263
192
33
239
136
174
82
83
213

> <PUBCHEM_MMFF94_PARTIAL_CHARGES>
29
1 1.09
10 0.3
11 0.11
13 0.11
14 0.3
15 0.57
16 0.34
17 0.06
18 0.66
19 0.18
2 -0.08
20 0.2
21 0.04
22 0.23
23 -0.15
24 -0.15
25 -0.15
26 -0.15
3 -0.65
4 -0.65
43 0.15
44 0.15
45 0.15
46 0.15
5 -0.57
6 -0.43
7 -0.57
8 -0.66
9 -0.57

> <PUBCHEM_EFFECTIVE_ROTOR_COUNT>
8.8

> <PUBCHEM_PHARMACOPHORE_FEATURES>
8
1 3 acceptor
1 4 acceptor
1 5 acceptor
1 7 acceptor
1 9 acceptor
5 1 10 11 12 13 rings
5 2 9 20 21 22 rings
6 21 22 23 24 25 26 rings

> <PUBCHEM_HEAVY_ATOM_COUNT>
26

> <PUBCHEM_ATOM_DEF_STEREO_COUNT>
1

> <PUBCHEM_ATOM_UDEF_STEREO_COUNT>
0

> <PUBCHEM_BOND_DEF_STEREO_COUNT>
0

> <PUBCHEM_BOND_UDEF_STEREO_COUNT>
0

> <PUBCHEM_ISOTOPIC_ATOM_COUNT>
0

> <PUBCHEM_COMPONENT_COUNT>
1

> <PUBCHEM_CACTVS_TAUTO_COUNT>
2

> <PUBCHEM_CONFORMER_ID>
0077BC3700000018

> <PUBCHEM_MMFF94_ENERGY>
48.5295

> <PUBCHEM_FEATURE_SELFOVERLAP>
40.682

> <PUBCHEM_SHAPE_FINGERPRINT>
10906281 52 18339634535122592160
11370993 70 17760089514841647856
11646440 116 18340200894825827042
12156800 1 15452629054971533940
12403260 363 17907591228748481890
12553582 1 18337112383832561372
12633257 1 18198641950983586168
12788726 201 18050565445998514430
12925494 130 18340484569554020929
13140716 1 18196658401651987768
13402501 40 18272370866945663044
13533116 47 18335420119916681621
14251757 17 17916871364447701917
14251764 38 18050010991063006624
14466204 15 18267594515963680480
14681490 219 18337952406178888132
14931854 50 18270674406582822758
15210252 30 17917130742303225204
17093844 170 18412546501049910056
17980427 23 18047788994392009386
19930381 70 18049721819831858347
20567600 299 18334857178030721488
20621476 13 18410855438838201536
21344244 78 17769116844313545066
21860390 5 18334569157524001654
22122407 14 18119791742351643665
23227448 37 18339080393751430199
23558518 356 17839746954520118419
23559900 14 18262800649350911592
238 59 18049465650586516142
25265897 201 17751610248519263375
3014063 31 18267865158579228636
3524813 1 17917432076591462375
508706 21 17988641831395631283
574716 61 18115605776571127975
5939293 188 18410858733505450474
6443956 14 18410849984540959028
7399639 24 17546157502680509035
9981440 41 17614293164570376080

> <PUBCHEM_SHAPE_MULTIPOLES>
503.46
9.43
4.91
1.26
10.92
1.56
0.08
1.15
1.11
-3.87
-0.94
0.09
-0.12
0.9

> <PUBCHEM_SHAPE_SELFOVERLAP>
1037.865

> <PUBCHEM_SHAPE_VOLUME>
290.5

> <PUBCHEM_COORDINATE_TYPE>
2
5
10

$$$$

