11770
  -OEChem-06261206063D

 15 15  0     0  0  0  0  0  0999 V2000
   -0.9115    2.3361   -0.1025 F   0  0  0  0  0  0  0  0  0  0  0  0
   -0.7973   -2.4091    0.0767 F   0  0  0  0  0  0  0  0  0  0  0  0
    1.9262   -2.3361    0.0904 F   0  0  0  0  0  0  0  0  0  0  0  0
    1.8123    2.3950   -0.0886 F   0  0  0  0  0  0  0  0  0  0  0  0
    3.2359    0.0626    0.0076 F   0  0  0  0  0  0  0  0  0  0  0  0
   -2.8962    1.0260    0.5655 O   0  0  0  0  0  0  0  0  0  0  0  0
   -3.0377   -0.9799   -0.4943 O   0  0  0  0  0  0  0  0  0  0  0  0
   -0.8920   -0.0374   -0.0129 C   0  0  0  0  0  0  0  0  0  0  0  0
   -0.2239    1.1863   -0.0549 C   0  0  0  0  0  0  0  0  0  0  0  0
   -0.1658   -1.2274    0.0362 C   0  0  0  0  0  0  0  0  0  0  0  0
    1.2287   -1.1936    0.0434 C   0  0  0  0  0  0  0  0  0  0  0  0
    1.1705    1.2200   -0.0478 C   0  0  0  0  0  0  0  0  0  0  0  0
    1.8969    0.0302    0.0014 C   0  0  0  0  0  0  0  0  0  0  0  0
   -2.3461   -0.0727   -0.0204 C   0  0  0  0  0  0  0  0  0  0  0  0
   -3.8766    0.9925    0.5558 H   0  0  0  0  0  0  0  0  0  0  0  0
  1  9  1  0  0  0  0
  2 10  1  0  0  0  0
  3 11  1  0  0  0  0
  4 12  1  0  0  0  0
  5 13  1  0  0  0  0
  6 14  1  0  0  0  0
  6 15  1  0  0  0  0
  7 14  2  0  0  0  0
  8  9  2  0  0  0  0
  8 10  1  0  0  0  0
  8 14  1  0  0  0  0
  9 12  1  0  0  0  0
 10 11  2  0  0  0  0
 11 13  1  0  0  0  0
 12 13  2  0  0  0  0
M  END
> <PUBCHEM_COMPOUND_CID>
11770

> <PUBCHEM_CONFORMER_RMSD>
0.4

> <PUBCHEM_CONFORMER_DIVERSEORDER>
1
2
3

> <PUBCHEM_MMFF94_PARTIAL_CHARGES>
15
1 -0.19
10 0.19
11 0.19
12 0.19
13 0.19
14 0.63
15 0.5
2 -0.19
3 -0.19
4 -0.19
5 -0.19
6 -0.65
7 -0.57
8 0.09
9 0.19

> <PUBCHEM_EFFECTIVE_ROTOR_COUNT>
1

> <PUBCHEM_PHARMACOPHORE_FEATURES>
4
1 6 acceptor
1 7 acceptor
3 6 7 14 anion
6 8 9 10 11 12 13 rings

> <PUBCHEM_HEAVY_ATOM_COUNT>
14

> <PUBCHEM_ATOM_DEF_STEREO_COUNT>
0

> <PUBCHEM_ATOM_UDEF_STEREO_COUNT>
0

> <PUBCHEM_BOND_DEF_STEREO_COUNT>
0

> <PUBCHEM_BOND_UDEF_STEREO_COUNT>
0

> <PUBCHEM_ISOTOPIC_ATOM_COUNT>
0

> <PUBCHEM_COMPONENT_COUNT>
1

> <PUBCHEM_CACTVS_TAUTO_COUNT>
1

> <PUBCHEM_CONFORMER_ID>
00002DFA00000001

> <PUBCHEM_MMFF94_ENERGY>
25.7891

> <PUBCHEM_FEATURE_SELFOVERLAP>
20.355

> <PUBCHEM_SHAPE_FINGERPRINT>
10967382 1 18410855464428410337
11206711 2 18341328984907540836
11471102 20 18268152135794141493
11471102 22 18198599134585935883
12423570 1 7832864379152846408
12524768 44 18342175531477416635
13140716 1 18267585693710250144
13380535 76 18195252117885079106
16945 1 18411981355898292674
193761 8 18339081613426449516
21040471 1 18266739069472213920
2334 1 17907296550962896174
23552423 10 18411698777152007757
23559900 14 18263349340793404988
241688 4 17979073009284338666
2748010 2 18122911098997343332
5084963 1 18186803582048058121
528886 8 18410296934270623913
53812653 166 18334581269384491024
66348 1 18266458698333577955

> <PUBCHEM_SHAPE_MULTIPOLES>
240.01
3.79
2.43
0.6
0.82
0
0
0.03
0.01
-0.54
0
0.1
-0.01
-0.23

> <PUBCHEM_SHAPE_SELFOVERLAP>
523.326

> <PUBCHEM_SHAPE_VOLUME>
130.2

> <PUBCHEM_COORDINATE_TYPE>
2
5
10

$$$$

