13860
  -OEChem-06241222403D

 23 23  0     0  0  0  0  0  0999 V2000
   -3.2588    0.5644    0.0646 O   0  0  0  0  0  0  0  0  0  0  0  0
   -1.0271   -0.2683    0.2468 C   0  0  0  0  0  0  0  0  0  0  0  0
   -0.4328    1.0879   -0.1690 C   0  0  0  0  0  0  0  0  0  0  0  0
   -0.0811   -1.4194   -0.1350 C   0  0  0  0  0  0  0  0  0  0  0  0
    0.9687    1.2964    0.4080 C   0  0  0  0  0  0  0  0  0  0  0  0
    1.3221   -1.2190    0.4415 C   0  0  0  0  0  0  0  0  0  0  0  0
    1.8642    0.1350    0.0680 C   0  0  0  0  0  0  0  0  0  0  0  0
   -2.4034   -0.4702   -0.3840 C   0  0  0  0  0  0  0  0  0  0  0  0
    3.0481    0.2932   -0.5410 C   0  0  0  0  0  0  0  0  0  0  0  0
   -1.1433   -0.2580    1.3395 H   0  0  0  0  0  0  0  0  0  0  0  0
   -1.0757    1.9084    0.1709 H   0  0  0  0  0  0  0  0  0  0  0  0
   -0.3879    1.1535   -1.2642 H   0  0  0  0  0  0  0  0  0  0  0  0
   -0.0170   -1.4998   -1.2282 H   0  0  0  0  0  0  0  0  0  0  0  0
   -0.4870   -2.3708    0.2293 H   0  0  0  0  0  0  0  0  0  0  0  0
    0.9077    1.3902    1.4994 H   0  0  0  0  0  0  0  0  0  0  0  0
    1.3771    2.2414    0.0307 H   0  0  0  0  0  0  0  0  0  0  0  0
    1.9759   -2.0246    0.0873 H   0  0  0  0  0  0  0  0  0  0  0  0
    1.2854   -1.2974    1.5352 H   0  0  0  0  0  0  0  0  0  0  0  0
   -2.8387   -1.4326   -0.0957 H   0  0  0  0  0  0  0  0  0  0  0  0
   -2.3551   -0.4297   -1.4770 H   0  0  0  0  0  0  0  0  0  0  0  0
    3.6749   -0.5581   -0.7844 H   0  0  0  0  0  0  0  0  0  0  0  0
    3.4172    1.2775   -0.8090 H   0  0  0  0  0  0  0  0  0  0  0  0
   -3.3320    0.4902    1.0314 H   0  0  0  0  0  0  0  0  0  0  0  0
  1  8  1  0  0  0  0
  1 23  1  0  0  0  0
  2  3  1  0  0  0  0
  2  4  1  0  0  0  0
  2  8  1  0  0  0  0
  2 10  1  0  0  0  0
  3  5  1  0  0  0  0
  3 11  1  0  0  0  0
  3 12  1  0  0  0  0
  4  6  1  0  0  0  0
  4 13  1  0  0  0  0
  4 14  1  0  0  0  0
  5  7  1  0  0  0  0
  5 15  1  0  0  0  0
  5 16  1  0  0  0  0
  6  7  1  0  0  0  0
  6 17  1  0  0  0  0
  6 18  1  0  0  0  0
  7  9  2  0  0  0  0
  8 19  1  0  0  0  0
  8 20  1  0  0  0  0
  9 21  1  0  0  0  0
  9 22  1  0  0  0  0
M  END
> <PUBCHEM_COMPOUND_CID>
13860

> <PUBCHEM_CONFORMER_RMSD>
0.4

> <PUBCHEM_CONFORMER_DIVERSEORDER>
1
11
10
12
8
5
2
7
6
4
9
3

> <PUBCHEM_MMFF94_PARTIAL_CHARGES>
9
1 -0.68
21 0.15
22 0.15
23 0.4
5 0.14
6 0.14
7 -0.28
8 0.28
9 -0.3

> <PUBCHEM_EFFECTIVE_ROTOR_COUNT>
2

> <PUBCHEM_PHARMACOPHORE_FEATURES>
3
1 1 acceptor
1 1 donor
6 2 3 4 5 6 7 rings

> <PUBCHEM_HEAVY_ATOM_COUNT>
9

> <PUBCHEM_ATOM_DEF_STEREO_COUNT>
0

> <PUBCHEM_ATOM_UDEF_STEREO_COUNT>
0

> <PUBCHEM_BOND_DEF_STEREO_COUNT>
0

> <PUBCHEM_BOND_UDEF_STEREO_COUNT>
0

> <PUBCHEM_ISOTOPIC_ATOM_COUNT>
0

> <PUBCHEM_COMPONENT_COUNT>
1

> <PUBCHEM_CACTVS_TAUTO_COUNT>
1

> <PUBCHEM_CONFORMER_ID>
0000362400000001

> <PUBCHEM_MMFF94_ENERGY>
8.6245

> <PUBCHEM_FEATURE_SELFOVERLAP>
15.223

> <PUBCHEM_SHAPE_FINGERPRINT>
12897270 3 18411982459604687076
14325111 11 18410856533880541813
15310529 11 16917078766873622100
16945 1 18411707568770610616
193761 8 17689716789049796314
21040471 1 18267590113073439234
21293036 1 18410569548666525412
23235685 24 18343867697121056876
23402655 69 18264786505253651093
23552333 60 18341334504093217586
23552423 10 18197783206336570375
2748010 2 18050569538743449832
29004967 10 18059852870025068457
5084963 1 18114461154374210315
528886 8 18410578374666108555

> <PUBCHEM_SHAPE_MULTIPOLES>
179.35
4.05
1.41
0.71
1.17
0.12
-0.01
-0.51
-0.59
-0.14
0.09
-0.13
0.01
-0.11

> <PUBCHEM_SHAPE_SELFOVERLAP>
347.971

> <PUBCHEM_SHAPE_VOLUME>
107.8

> <PUBCHEM_COORDINATE_TYPE>
2
5
10

$$$$

