17396286
  -OEChem-06241222552D

 36 38  0     1  0  0  0  0  0999 V2000
    5.4641    0.7500    0.0000 S   0  0  0  0  0  0  0  0  0  0  0  0
    9.0084    0.9453    0.0000 S   0  0  0  0  0  0  0  0  0  0  0  0
    3.7320   -0.2500    0.0000 O   0  0  0  0  0  0  0  0  0  0  0  0
    7.1962    3.7500    0.0000 O   0  0  0  0  0  0  0  0  0  0  0  0
    4.5981   -1.7500    0.0000 N   0  0  0  0  0  0  0  0  0  0  0  0
    6.3301    2.2500    0.0000 N   0  0  0  0  0  0  0  0  0  0  0  0
    7.1962    0.7500    0.0000 N   0  0  0  0  0  0  0  0  0  0  0  0
    2.8660    0.2500    0.0000 N   0  0  0  0  0  0  0  0  0  0  0  0
    5.4641   -0.2500    0.0000 C   0  0  3  0  0  0  0  0  0  0  0  0
    4.5981   -0.7500    0.0000 C   0  0  0  0  0  0  0  0  0  0  0  0
    8.0622    2.2500    0.0000 C   0  0  0  0  0  0  0  0  0  0  0  0
    6.3301    1.2500    0.0000 C   0  0  0  0  0  0  0  0  0  0  0  0
    6.3301   -0.7500    0.0000 C   0  0  0  0  0  0  0  0  0  0  0  0
    8.0622    1.2500    0.0000 C   0  0  0  0  0  0  0  0  0  0  0  0
    7.1962    2.7500    0.0000 C   0  0  0  0  0  0  0  0  0  0  0  0
    3.7320   -2.2500    0.0000 C   0  0  0  0  0  0  0  0  0  0  0  0
    9.0084    2.5547    0.0000 C   0  0  0  0  0  0  0  0  0  0  0  0
    2.8660   -1.7500    0.0000 C   0  0  0  0  0  0  0  0  0  0  0  0
    9.5920    1.7500    0.0000 C   0  0  0  0  0  0  0  0  0  0  0  0
    3.7320   -3.2500    0.0000 C   0  0  0  0  0  0  0  0  0  0  0  0
    2.0000   -2.2500    0.0000 C   0  0  0  0  0  0  0  0  0  0  0  0
    2.8660   -3.7500    0.0000 C   0  0  0  0  0  0  0  0  0  0  0  0
    2.0000   -3.2500    0.0000 C   0  0  0  0  0  0  0  0  0  0  0  0
    2.8660   -0.7500    0.0000 C   0  0  0  0  0  0  0  0  0  0  0  0
    6.0010    0.0600    0.0000 H   0  0  0  0  0  0  0  0  0  0  0  0
    6.0201   -1.2869    0.0000 H   0  0  0  0  0  0  0  0  0  0  0  0
    6.8671   -1.0600    0.0000 H   0  0  0  0  0  0  0  0  0  0  0  0
    6.6401   -0.2131    0.0000 H   0  0  0  0  0  0  0  0  0  0  0  0
    5.1350   -2.0600    0.0000 H   0  0  0  0  0  0  0  0  0  0  0  0
    5.7932    2.5600    0.0000 H   0  0  0  0  0  0  0  0  0  0  0  0
    9.2010    3.1440    0.0000 H   0  0  0  0  0  0  0  0  0  0  0  0
   10.2120    1.7500    0.0000 H   0  0  0  0  0  0  0  0  0  0  0  0
    4.2690   -3.5600    0.0000 H   0  0  0  0  0  0  0  0  0  0  0  0
    1.4631   -1.9400    0.0000 H   0  0  0  0  0  0  0  0  0  0  0  0
    2.8660   -4.3700    0.0000 H   0  0  0  0  0  0  0  0  0  0  0  0
    1.4631   -3.5600    0.0000 H   0  0  0  0  0  0  0  0  0  0  0  0
  1  9  1  0  0  0  0
  1 12  1  0  0  0  0
  2 14  1  0  0  0  0
  2 19  1  0  0  0  0
  3 10  2  0  0  0  0
  4 15  2  0  0  0  0
  5 10  1  0  0  0  0
  5 16  1  0  0  0  0
  5 29  1  0  0  0  0
  6 12  1  0  0  0  0
  6 15  1  0  0  0  0
  6 30  1  0  0  0  0
  7 12  2  0  0  0  0
  7 14  1  0  0  0  0
  8 24  3  0  0  0  0
  9 10  1  0  0  0  0
  9 13  1  0  0  0  0
  9 25  1  0  0  0  0
 11 14  2  0  0  0  0
 11 15  1  0  0  0  0
 11 17  1  0  0  0  0
 13 26  1  0  0  0  0
 13 27  1  0  0  0  0
 13 28  1  0  0  0  0
 16 18  1  0  0  0  0
 16 20  2  0  0  0  0
 17 19  2  0  0  0  0
 17 31  1  0  0  0  0
 18 21  2  0  0  0  0
 18 24  1  0  0  0  0
 19 32  1  0  0  0  0
 20 22  1  0  0  0  0
 20 33  1  0  0  0  0
 21 23  1  0  0  0  0
 21 34  1  0  0  0  0
 22 23  2  0  0  0  0
 22 35  1  0  0  0  0
 23 36  1  0  0  0  0
M  END
> <PUBCHEM_COMPOUND_CID>
17396286

> <PUBCHEM_COMPOUND_CANONICALIZED>
1

> <PUBCHEM_CACTVS_COMPLEXITY>
600

> <PUBCHEM_CACTVS_HBOND_ACCEPTOR>
6

> <PUBCHEM_CACTVS_HBOND_DONOR>
2

> <PUBCHEM_CACTVS_ROTATABLE_BOND>
4

> <PUBCHEM_CACTVS_SUBSKEYS>
AAADccB7sABgAAAAAAAAAAAAAAAAASAAAAAwQAAAAAAAAEABwAAAHgQQAAAADAiF2ACzwYLAAAi8BiVSdACjEIFlChBJiBkAZMgIoDrg3ZGEIYhglADoyc8QgAAOAAAAAAACAAAAAAAAAAQAAAAAAAAAAA==

> <PUBCHEM_IUPAC_OPENEYE_NAME>
N-(2-cyanophenyl)-2-[(4-oxo-3H-thieno[2,3-d]pyrimidin-2-yl)sulfanyl]propanamide

> <PUBCHEM_IUPAC_CAS_NAME>
N-(2-cyanophenyl)-2-[(4-oxo-3H-thieno[2,3-d]pyrimidin-2-yl)thio]propanamide

> <PUBCHEM_IUPAC_NAME>
N-(2-cyanophenyl)-2-[(4-oxo-3H-thieno[2,3-d]pyrimidin-2-yl)sulfanyl]propanamide

> <PUBCHEM_IUPAC_SYSTEMATIC_NAME>
N-(2-cyanophenyl)-2-[(4-oxidanylidene-3H-thieno[2,3-d]pyrimidin-2-yl)sulfanyl]propanamide

> <PUBCHEM_IUPAC_TRADITIONAL_NAME>
N-(2-cyanophenyl)-2-[(4-keto-3H-thieno[2,3-d]pyrimidin-2-yl)thio]propionamide

> <PUBCHEM_IUPAC_INCHI>
InChI=1S/C16H12N4O2S2/c1-9(13(21)18-12-5-3-2-4-10(12)8-17)24-16-19-14(22)11-6-7-23-15(11)20-16/h2-7,9H,1H3,(H,18,21)(H,19,20,22)

> <PUBCHEM_IUPAC_INCHIKEY>
ZSAKTLVSEOCELV-UHFFFAOYSA-N

> <PUBCHEM_XLOGP3_AA>
3.2

> <PUBCHEM_EXACT_MASS>
356.040168

> <PUBCHEM_MOLECULAR_FORMULA>
C16H12N4O2S2

> <PUBCHEM_MOLECULAR_WEIGHT>
356.42208

> <PUBCHEM_OPENEYE_CAN_SMILES>
CC(C(=O)NC1=CC=CC=C1C#N)SC2=NC3=C(C=CS3)C(=O)N2

> <PUBCHEM_OPENEYE_ISO_SMILES>
CC(C(=O)NC1=CC=CC=C1C#N)SC2=NC3=C(C=CS3)C(=O)N2

> <PUBCHEM_CACTVS_TPSA>
148

> <PUBCHEM_MONOISOTOPIC_WEIGHT>
356.040168

> <PUBCHEM_TOTAL_CHARGE>
0

> <PUBCHEM_HEAVY_ATOM_COUNT>
24

> <PUBCHEM_ATOM_DEF_STEREO_COUNT>
0

> <PUBCHEM_ATOM_UDEF_STEREO_COUNT>
1

> <PUBCHEM_BOND_DEF_STEREO_COUNT>
0

> <PUBCHEM_BOND_UDEF_STEREO_COUNT>
0

> <PUBCHEM_ISOTOPIC_ATOM_COUNT>
0

> <PUBCHEM_COMPONENT_COUNT>
1

> <PUBCHEM_CACTVS_TAUTO_COUNT>
12

> <PUBCHEM_COORDINATE_TYPE>
1
5
255

> <PUBCHEM_BONDANNOTATIONS>
11  14  8
11  15  8
11  17  8
16  18  8
16  20  8
17  19  8
18  21  8
2  14  8
2  19  8
20  22  8
21  23  8
22  23  8
6  12  8
6  15  8
7  12  8
7  14  8
9  13  3

$$$$

