10709
  -OEChem-06261204523D

 19 19  0     0  0  0  0  0  0999 V2000
   -3.9790    0.9512   -0.0010 O   0  0  0  0  0  0  0  0  0  0  0  0
    1.8651   -2.0939   -1.0976 O   0  5  0  0  0  0  0  0  0  0  0  0
    1.8649   -2.0946    1.0976 O   0  0  0  0  0  0  0  0  0  0  0  0
    2.9148    1.2471    1.0962 O   0  5  0  0  0  0  0  0  0  0  0  0
    2.9124    1.2485   -1.0990 O   0  0  0  0  0  0  0  0  0  0  0  0
   -3.6766   -1.3016   -0.0017 O   0  0  0  0  0  0  0  0  0  0  0  0
    1.4665   -1.6404    0.0001 N   0  3  0  0  0  0  0  0  0  0  0  0
    2.3271    1.1029   -0.0009 N   0  3  0  0  0  0  0  0  0  0  0  0
    0.5274   -0.5699    0.0003 C   0  0  0  0  0  0  0  0  0  0  0  0
    0.9449    0.7610    0.0005 C   0  0  0  0  0  0  0  0  0  0  0  0
   -1.7776    0.1536    0.0013 C   0  0  0  0  0  0  0  0  0  0  0  0
   -0.8340   -0.8736    0.0013 C   0  0  0  0  0  0  0  0  0  0  0  0
    0.0012    1.7882    0.0019 C   0  0  0  0  0  0  0  0  0  0  0  0
   -1.3602    1.4846    0.0019 C   0  0  0  0  0  0  0  0  0  0  0  0
   -3.1970   -0.1631   -0.0010 C   0  0  0  0  0  0  0  0  0  0  0  0
   -1.1548   -1.9134    0.0009 H   0  0  0  0  0  0  0  0  0  0  0  0
    0.3118    2.8304    0.0022 H   0  0  0  0  0  0  0  0  0  0  0  0
   -2.0608    2.3149    0.0021 H   0  0  0  0  0  0  0  0  0  0  0  0
   -4.9341    0.7267   -0.0019 H   0  0  0  0  0  0  0  0  0  0  0  0
  1 15  1  0  0  0  0
  1 19  1  0  0  0  0
  2  7  1  0  0  0  0
  3  7  2  0  0  0  0
  4  8  1  0  0  0  0
  5  8  2  0  0  0  0
  6 15  2  0  0  0  0
  7  9  1  0  0  0  0
  8 10  1  0  0  0  0
  9 10  2  0  0  0  0
  9 12  1  0  0  0  0
 10 13  1  0  0  0  0
 11 12  2  0  0  0  0
 11 14  1  0  0  0  0
 11 15  1  0  0  0  0
 12 16  1  0  0  0  0
 13 14  2  0  0  0  0
 13 17  1  0  0  0  0
 14 18  1  0  0  0  0
M  CHG  4   2  -1   4  -1   7   1   8   1
M  END
> <PUBCHEM_COMPOUND_CID>
10709

> <PUBCHEM_CONFORMER_RMSD>
0.6

> <PUBCHEM_CONFORMER_DIVERSEORDER>
1
2
3

> <PUBCHEM_MMFF94_PARTIAL_CHARGES>
19
1 -0.65
10 0.13
11 0.09
12 -0.15
13 -0.15
14 -0.15
15 0.63
16 0.15
17 0.15
18 0.15
19 0.5
2 -0.52
3 -0.52
4 -0.52
5 -0.52
6 -0.57
7 0.91
8 0.91
9 0.13

> <PUBCHEM_EFFECTIVE_ROTOR_COUNT>
3

> <PUBCHEM_PHARMACOPHORE_FEATURES>
10
1 1 acceptor
1 2 acceptor
1 2 anion
1 3 acceptor
1 4 acceptor
1 4 anion
1 5 acceptor
1 6 acceptor
3 1 6 15 anion
6 9 10 11 12 13 14 rings

> <PUBCHEM_HEAVY_ATOM_COUNT>
15

> <PUBCHEM_ATOM_DEF_STEREO_COUNT>
0

> <PUBCHEM_ATOM_UDEF_STEREO_COUNT>
0

> <PUBCHEM_BOND_DEF_STEREO_COUNT>
0

> <PUBCHEM_BOND_UDEF_STEREO_COUNT>
0

> <PUBCHEM_ISOTOPIC_ATOM_COUNT>
0

> <PUBCHEM_COMPONENT_COUNT>
1

> <PUBCHEM_CACTVS_TAUTO_COUNT>
1

> <PUBCHEM_CONFORMER_ID>
000029D500000001

> <PUBCHEM_MMFF94_ENERGY>
52.7652

> <PUBCHEM_FEATURE_SELFOVERLAP>
50.965

> <PUBCHEM_SHAPE_FINGERPRINT>
10980938 120 18408884023190108655
12932764 1 17531252734061545613
13140716 1 17978229349053811153
13296908 3 18272083929287555443
13380535 21 18410281511180285287
13380535 76 18340771429401478859
14576447 43 18043829584775320759
15219456 202 18270409398611067973
15536298 74 18333449871597515458
161256 15 18337669831753573772
16945 1 18338516331253259749
18186145 218 18201718522230811223
19021347 11 18341050722487037899
193761 8 18194683906422958625
20588541 1 18341046307503335201
20645476 183 17486201224344933820
20645477 70 18409452522721629951
20871998 22 18118966042634649046
21501502 16 18338513174420739689
2334 1 18411136974118488609
23402655 69 18336278916145054869
23463225 33 18343309153930824800
23552423 10 18271802488116643101
23557571 272 17465936473637378758
2748010 2 18340208617103197965
528862 383 18412269440671591734
53812653 166 18261398801831584585
7364860 26 18187648054513052014
81539 233 18272091565280367974

> <PUBCHEM_SHAPE_MULTIPOLES>
263.52
5.31
2.16
0.83
3.53
0.59
0
-0.23
0
-1.18
0
-0.63
0.11
0

> <PUBCHEM_SHAPE_SELFOVERLAP>
561.098

> <PUBCHEM_SHAPE_VOLUME>
146.7

> <PUBCHEM_COORDINATE_TYPE>
2
5
10

$$$$

