12257
  -OEChem-06261206433D

 14 13  0     0  0  0  0  0  0999 V2000
   -0.1625    0.8003    0.3694 O   0  0  0  0  0  0  0  0  0  0  0  0
   -2.0140   -0.2693   -0.5181 O   0  0  0  0  0  0  0  0  0  0  0  0
    0.7640   -0.0476   -0.3025 C   0  0  0  0  0  0  0  0  0  0  0  0
    2.1540    0.5645   -0.2195 C   0  0  0  0  0  0  0  0  0  0  0  0
    0.7172   -1.4342    0.3212 C   0  0  0  0  0  0  0  0  0  0  0  0
   -1.4587    0.3863    0.3495 C   0  0  0  0  0  0  0  0  0  0  0  0
    0.4853   -0.1089   -1.3621 H   0  0  0  0  0  0  0  0  0  0  0  0
    2.8929   -0.0490   -0.7438 H   0  0  0  0  0  0  0  0  0  0  0  0
    2.1558    1.5674   -0.6601 H   0  0  0  0  0  0  0  0  0  0  0  0
    2.4687    0.6792    0.8237 H   0  0  0  0  0  0  0  0  0  0  0  0
    1.4997   -2.0760   -0.0973 H   0  0  0  0  0  0  0  0  0  0  0  0
   -0.2389   -1.9379    0.1507 H   0  0  0  0  0  0  0  0  0  0  0  0
    0.8592   -1.3801    1.4065 H   0  0  0  0  0  0  0  0  0  0  0  0
   -1.9850    0.8522    1.1969 H   0  0  0  0  0  0  0  0  0  0  0  0
  1  3  1  0  0  0  0
  1  6  1  0  0  0  0
  2  6  2  0  0  0  0
  3  4  1  0  0  0  0
  3  5  1  0  0  0  0
  3  7  1  0  0  0  0
  4  8  1  0  0  0  0
  4  9  1  0  0  0  0
  4 10  1  0  0  0  0
  5 11  1  0  0  0  0
  5 12  1  0  0  0  0
  5 13  1  0  0  0  0
  6 14  1  0  0  0  0
M  END
> <PUBCHEM_COMPOUND_CID>
12257

> <PUBCHEM_CONFORMER_RMSD>
0.4

> <PUBCHEM_CONFORMER_DIVERSEORDER>
1
2
3

> <PUBCHEM_MMFF94_PARTIAL_CHARGES>
5
1 -0.43
14 0.06
2 -0.57
3 0.28
6 0.66

> <PUBCHEM_EFFECTIVE_ROTOR_COUNT>
2

> <PUBCHEM_PHARMACOPHORE_FEATURES>
2
1 2 acceptor
3 3 4 5 hydrophobe

> <PUBCHEM_HEAVY_ATOM_COUNT>
6

> <PUBCHEM_ATOM_DEF_STEREO_COUNT>
0

> <PUBCHEM_ATOM_UDEF_STEREO_COUNT>
0

> <PUBCHEM_BOND_DEF_STEREO_COUNT>
0

> <PUBCHEM_BOND_UDEF_STEREO_COUNT>
0

> <PUBCHEM_ISOTOPIC_ATOM_COUNT>
0

> <PUBCHEM_COMPONENT_COUNT>
1

> <PUBCHEM_CACTVS_TAUTO_COUNT>
1

> <PUBCHEM_CONFORMER_ID>
00002FE100000001

> <PUBCHEM_MMFF94_ENERGY>
10.031

> <PUBCHEM_FEATURE_SELFOVERLAP>
10.148

> <PUBCHEM_SHAPE_FINGERPRINT>
139733 1 11167933675924137105
16714656 1 17458340818945471589
20096714 4 18410004442644886976
21040471 1 18341045220918709866
23552449 11 17630622312533673386
24536 1 16987697147345858237
29004967 10 18060126665647817529
5460574 1 10519992551549098788
5943 1 4892221582916909250

> <PUBCHEM_SHAPE_MULTIPOLES>
111.74
2.56
1.14
0.7
0.21
0.43
-0.01
-0.42
-0.31
-0.33
0.13
0.07
0.01
-0.16

> <PUBCHEM_SHAPE_SELFOVERLAP>
198.679

> <PUBCHEM_SHAPE_VOLUME>
72.9

> <PUBCHEM_COORDINATE_TYPE>
2
5
10

$$$$

