7846958
  -OEChem-06241222483D

 49 51  0     1  0  0  0  0  0999 V2000
   -3.6858   -1.0493   -1.4450 S   0  0  0  0  0  0  0  0  0  0  0  0
   -1.1824    2.5036    0.4299 O   0  0  0  0  0  0  0  0  0  0  0  0
    1.7496    2.2341    1.5235 O   0  0  0  0  0  0  0  0  0  0  0  0
   -2.1739    2.8559   -1.6231 O   0  0  0  0  0  0  0  0  0  0  0  0
    1.1745    0.4033    0.2265 N   0  0  0  0  0  0  0  0  0  0  0  0
   -2.9662   -0.3997    0.9451 N   0  0  0  0  0  0  0  0  0  0  0  0
    0.1057    2.6329   -0.1630 C   0  0  2  0  0  0  0  0  0  0  0  0
    2.0711   -0.5415    0.8885 C   0  0  0  0  0  0  0  0  0  0  0  0
    1.0829    1.7457    0.6047 C   0  0  0  0  0  0  0  0  0  0  0  0
   -4.3818    1.3212   -0.1781 C   0  0  0  0  0  0  0  0  0  0  0  0
   -3.5303    2.4726    0.3591 C   0  0  0  0  0  0  0  0  0  0  0  0
    3.4390   -0.5461    0.2695 C   0  0  0  0  0  0  0  0  0  0  0  0
   -3.6483    0.0069   -0.1001 C   0  0  0  0  0  0  0  0  0  0  0  0
    0.5185    4.0967   -0.1085 C   0  0  0  0  0  0  0  0  0  0  0  0
   -2.2463    2.6383   -0.4216 C   0  0  0  0  0  0  0  0  0  0  0  0
    0.3827   -0.1627   -0.8596 C   0  0  0  0  0  0  0  0  0  0  0  0
   -2.7031   -2.1707   -0.5791 C   0  0  0  0  0  0  0  0  0  0  0  0
   -2.4180   -1.6473    0.6856 C   0  0  0  0  0  0  0  0  0  0  0  0
    3.7251   -1.4151   -0.7834 C   0  0  0  0  0  0  0  0  0  0  0  0
    4.4236    0.3190    0.7471 C   0  0  0  0  0  0  0  0  0  0  0  0
   -2.2193   -3.4234   -0.9896 C   0  0  0  0  0  0  0  0  0  0  0  0
   -1.6203   -2.4066    1.5689 C   0  0  0  0  0  0  0  0  0  0  0  0
    4.9958   -1.4194   -1.3587 C   0  0  0  0  0  0  0  0  0  0  0  0
    5.6942    0.3148    0.1717 C   0  0  0  0  0  0  0  0  0  0  0  0
    5.9803   -0.5544   -0.8812 C   0  0  0  0  0  0  0  0  0  0  0  0
   -1.4321   -4.1543   -0.0962 C   0  0  0  0  0  0  0  0  0  0  0  0
   -1.1353   -3.6544    1.1669 C   0  0  0  0  0  0  0  0  0  0  0  0
    0.1111    2.3306   -1.2162 H   0  0  0  0  0  0  0  0  0  0  0  0
    1.6332   -1.5467    0.8955 H   0  0  0  0  0  0  0  0  0  0  0  0
    2.1575   -0.2506    1.9432 H   0  0  0  0  0  0  0  0  0  0  0  0
   -4.6788    1.5421   -1.2105 H   0  0  0  0  0  0  0  0  0  0  0  0
   -5.3013    1.2439    0.4138 H   0  0  0  0  0  0  0  0  0  0  0  0
   -3.3015    2.3116    1.4199 H   0  0  0  0  0  0  0  0  0  0  0  0
   -4.0811    3.4178    0.2977 H   0  0  0  0  0  0  0  0  0  0  0  0
    0.4676    4.4857    0.9149 H   0  0  0  0  0  0  0  0  0  0  0  0
   -0.1568    4.7137   -0.7108 H   0  0  0  0  0  0  0  0  0  0  0  0
    1.5390    4.2363   -0.4796 H   0  0  0  0  0  0  0  0  0  0  0  0
    0.2842   -1.2451   -0.7511 H   0  0  0  0  0  0  0  0  0  0  0  0
   -0.6143    0.2745   -0.8933 H   0  0  0  0  0  0  0  0  0  0  0  0
    0.8958    0.0523   -1.8019 H   0  0  0  0  0  0  0  0  0  0  0  0
    2.9665   -2.0938   -1.1641 H   0  0  0  0  0  0  0  0  0  0  0  0
    4.2187    0.9986    1.5695 H   0  0  0  0  0  0  0  0  0  0  0  0
   -2.4465   -3.8198   -1.9745 H   0  0  0  0  0  0  0  0  0  0  0  0
   -1.3804   -2.0245    2.5572 H   0  0  0  0  0  0  0  0  0  0  0  0
    5.2185   -2.0961   -2.1784 H   0  0  0  0  0  0  0  0  0  0  0  0
    6.4614    0.9874    0.5440 H   0  0  0  0  0  0  0  0  0  0  0  0
    6.9698   -0.5578   -1.3290 H   0  0  0  0  0  0  0  0  0  0  0  0
   -1.0468   -5.1259   -0.3944 H   0  0  0  0  0  0  0  0  0  0  0  0
   -0.5202   -4.2363    1.8478 H   0  0  0  0  0  0  0  0  0  0  0  0
  1 13  1  0  0  0  0
  1 17  1  0  0  0  0
  2  7  1  0  0  0  0
  2 15  1  0  0  0  0
  3  9  2  0  0  0  0
  4 15  2  0  0  0  0
  5  8  1  0  0  0  0
  5  9  1  0  0  0  0
  5 16  1  0  0  0  0
  6 13  2  0  0  0  0
  6 18  1  0  0  0  0
  7  9  1  0  0  0  0
  7 14  1  0  0  0  0
  7 28  1  0  0  0  0
  8 12  1  0  0  0  0
  8 29  1  0  0  0  0
  8 30  1  0  0  0  0
 10 11  1  0  0  0  0
 10 13  1  0  0  0  0
 10 31  1  0  0  0  0
 10 32  1  0  0  0  0
 11 15  1  0  0  0  0
 11 33  1  0  0  0  0
 11 34  1  0  0  0  0
 12 19  2  0  0  0  0
 12 20  1  0  0  0  0
 14 35  1  0  0  0  0
 14 36  1  0  0  0  0
 14 37  1  0  0  0  0
 16 38  1  0  0  0  0
 16 39  1  0  0  0  0
 16 40  1  0  0  0  0
 17 18  1  0  0  0  0
 17 21  2  0  0  0  0
 18 22  2  0  0  0  0
 19 23  1  0  0  0  0
 19 41  1  0  0  0  0
 20 24  2  0  0  0  0
 20 42  1  0  0  0  0
 21 26  1  0  0  0  0
 21 43  1  0  0  0  0
 22 27  1  0  0  0  0
 22 44  1  0  0  0  0
 23 25  2  0  0  0  0
 23 45  1  0  0  0  0
 24 25  1  0  0  0  0
 24 46  1  0  0  0  0
 25 47  1  0  0  0  0
 26 27  2  0  0  0  0
 26 48  1  0  0  0  0
 27 49  1  0  0  0  0
M  END
> <PUBCHEM_COMPOUND_CID>
7846958

> <PUBCHEM_CONFORMER_RMSD>
1.2

> <PUBCHEM_CONFORMER_DIVERSEORDER>
2
48
231
188
111
293
46
91
184
215
166
191
196
84
69
174
149
145
11
170
131
192
23
122
44
218
291
296
195
285
265
83
298
118
34
183
274
5
28
226
81
120
76
198
169
35
236
150
18
167
185
47
242
197
163
107
148
12
176
248
146
62
63
96
224
71
130
201
241
156
15
112
270
237
50
155
153
223
210
115
16
33
117
67
59
258
73
217
25
55
179
56
177
26
182
168
65
75
289
14
128
24
134
42
113
249
86
124
245
57
181
60
97
92
261
239
290
68
80
283
1
259
72
220
282
194
157
244
43
29
45
257
279
7
119
187
263
121
147
253
99
284
36
235
58
219
95
204
264
102
160
162
116
275
268
193
189
199
246
202
186
295
49
208
205
178
152
89
256
251
64
238
87
158
272
93
281
267
255
39
234
159
104
20
27
13
173
126
10
140
222
144
4
292
137
273
98
221
278
142
106
22
280
276
227
250
247
82
19
139
103
172
262
297
31
252
206
40
212
269
171
200
143
74
216
161
165
151
85
90
54
38
228
254
79
70
211
66
52
240
77
271
203
277
190
51
32
30
287
78
136
213
61
133
266
288
154
94
260
214
17
53
109
225
286
294
123
6
141
207
232
138
101
132
37
8
229
180
129
105
233
88
209
164
127
41
114
175
100
3
230
9
21
125
110
108
135
243

> <PUBCHEM_MMFF94_PARTIAL_CHARGES>
35
1 -0.08
10 0.18
11 0.06
12 -0.14
13 0.2
15 0.66
16 0.3
17 0.04
18 0.23
19 -0.15
2 -0.43
20 -0.15
21 -0.15
22 -0.15
23 -0.15
24 -0.15
25 -0.15
26 -0.15
27 -0.15
3 -0.57
4 -0.57
41 0.15
42 0.15
43 0.15
44 0.15
45 0.15
46 0.15
47 0.15
48 0.15
49 0.15
5 -0.66
6 -0.57
7 0.34
8 0.44
9 0.57

> <PUBCHEM_EFFECTIVE_ROTOR_COUNT>
9

> <PUBCHEM_PHARMACOPHORE_FEATURES>
6
1 3 acceptor
1 4 acceptor
1 6 acceptor
5 1 6 13 17 18 rings
6 12 19 20 23 24 25 rings
6 17 18 21 22 26 27 rings

> <PUBCHEM_HEAVY_ATOM_COUNT>
27

> <PUBCHEM_ATOM_DEF_STEREO_COUNT>
1

> <PUBCHEM_ATOM_UDEF_STEREO_COUNT>
0

> <PUBCHEM_BOND_DEF_STEREO_COUNT>
0

> <PUBCHEM_BOND_UDEF_STEREO_COUNT>
0

> <PUBCHEM_ISOTOPIC_ATOM_COUNT>
0

> <PUBCHEM_COMPONENT_COUNT>
1

> <PUBCHEM_CACTVS_TAUTO_COUNT>
2

> <PUBCHEM_CONFORMER_ID>
0077BC2E00000002

> <PUBCHEM_MMFF94_ENERGY>
55.9474

> <PUBCHEM_FEATURE_SELFOVERLAP>
30.517

> <PUBCHEM_SHAPE_FINGERPRINT>
10838868 158 17338995236295614688
11014199 57 18050004389704151526
11135609 12 18126563410305370281
11513181 2 17973723576162303236
12147406 95 17830728760165126311
12166972 35 5977230510916353089
12553582 1 18412831261233497274
12788726 201 18341334500056823546
13034934 17 17825125722514858016
13402501 40 18334011726339629207
14114211 80 18117549837640928083
14251740 79 18190452964489075498
14251757 5 18341041973965905126
14659021 117 18337688407318206826
14765038 42 18116980264468524793
14790565 3 18121212344684967521
15927050 60 17975417138113945429
17349148 13 5184064859994180810
17627616 140 18053669354096458931
19319366 153 17632581599215221946
19958102 18 18270963582699937774
23557571 272 18335134315670711956
23559900 14 18047484330770335475
2818148 4 17625226768737556683
3178227 256 18340473557257887073
3298306 158 17908715269029450517
3383291 50 18412263900818492763
338550 245 17983861361423986866
4280585 95 18340216193857998904
445580 42 18131348570703523099
508706 21 18335988596881264934
5265222 85 18341602767593108213
9709674 26 18122070801588883107

> <PUBCHEM_SHAPE_MULTIPOLES>
531.93
10.23
5.15
1.32
14.72
0.08
-0.04
-1.76
-2.41
-4.67
0.09
-0.09
-0.43
1.02

> <PUBCHEM_SHAPE_SELFOVERLAP>
1117.277

> <PUBCHEM_SHAPE_VOLUME>
301.9

> <PUBCHEM_COORDINATE_TYPE>
2
5
10

$$$$

