13431
  -OEChem-06261214103D

 29 31  0     1  0  0  0  0  0999 V2000
    2.0472    2.1429    0.4880 F   0  0  0  0  0  0  0  0  0  0  0  0
   -2.7596    1.1233   -0.8282 O   0  0  0  0  0  0  0  0  0  0  0  0
   -3.1433   -0.3607    0.8588 O   0  0  0  0  0  0  0  0  0  0  0  0
   -0.8997   -0.0476    0.0079 C   0  0  0  0  0  0  0  0  0  0  0  0
    1.3784    0.9917    0.2306 C   0  0  0  0  0  0  0  0  0  0  0  0
    0.9991   -0.8157   -1.4722 C   0  0  1  0  0  0  0  0  0  0  0  0
    1.0124   -1.3748    0.9909 C   0  0  2  0  0  0  0  0  0  0  0  0
   -0.1311    1.2554    0.2992 C   0  0  0  0  0  0  0  0  0  0  0  0
   -0.5166   -0.5554   -1.3976 C   0  0  0  0  0  0  0  0  0  0  0  0
   -0.5034   -1.1106    1.0528 C   0  0  0  0  0  0  0  0  0  0  0  0
    1.7507    0.4912   -1.1707 C   0  0  0  0  0  0  0  0  0  0  0  0
    1.7643   -0.0638    1.2747 C   0  0  0  0  0  0  0  0  0  0  0  0
    1.3808   -1.8722   -0.4191 C   0  0  0  0  0  0  0  0  0  0  0  0
   -2.3793    0.1964    0.0848 C   0  0  0  0  0  0  0  0  0  0  0  0
    1.2653   -1.1756   -2.4721 H   0  0  0  0  0  0  0  0  0  0  0  0
    1.2885   -2.1301    1.7349 H   0  0  0  0  0  0  0  0  0  0  0  0
   -0.3941    2.0473   -0.4142 H   0  0  0  0  0  0  0  0  0  0  0  0
   -0.3977    1.6543    1.2870 H   0  0  0  0  0  0  0  0  0  0  0  0
   -0.7957    0.1739   -2.1691 H   0  0  0  0  0  0  0  0  0  0  0  0
   -1.0665   -1.4761   -1.6330 H   0  0  0  0  0  0  0  0  0  0  0  0
   -1.0467   -2.0484    0.8755 H   0  0  0  0  0  0  0  0  0  0  0  0
   -0.7767   -0.7797    2.0636 H   0  0  0  0  0  0  0  0  0  0  0  0
    2.8346    0.3356   -1.2372 H   0  0  0  0  0  0  0  0  0  0  0  0
    1.5079    1.2560   -1.9187 H   0  0  0  0  0  0  0  0  0  0  0  0
    1.5315    0.3028    2.2821 H   0  0  0  0  0  0  0  0  0  0  0  0
    2.8484   -0.2306    1.2559 H   0  0  0  0  0  0  0  0  0  0  0  0
    0.8621   -2.8154   -0.6303 H   0  0  0  0  0  0  0  0  0  0  0  0
    2.4564   -2.0810   -0.4723 H   0  0  0  0  0  0  0  0  0  0  0  0
   -3.7245    1.2963   -0.7945 H   0  0  0  0  0  0  0  0  0  0  0  0
  1  5  1  0  0  0  0
  2 14  1  0  0  0  0
  2 29  1  0  0  0  0
  3 14  2  0  0  0  0
  4  8  1  0  0  0  0
  4  9  1  0  0  0  0
  4 10  1  0  0  0  0
  4 14  1  0  0  0  0
  5  8  1  0  0  0  0
  5 11  1  0  0  0  0
  5 12  1  0  0  0  0
  6  9  1  0  0  0  0
  6 11  1  0  0  0  0
  6 13  1  0  0  0  0
  6 15  1  0  0  0  0
  7 10  1  0  0  0  0
  7 12  1  0  0  0  0
  7 13  1  0  0  0  0
  7 16  1  0  0  0  0
  8 17  1  0  0  0  0
  8 18  1  0  0  0  0
  9 19  1  0  0  0  0
  9 20  1  0  0  0  0
 10 21  1  0  0  0  0
 10 22  1  0  0  0  0
 11 23  1  0  0  0  0
 11 24  1  0  0  0  0
 12 25  1  0  0  0  0
 12 26  1  0  0  0  0
 13 27  1  0  0  0  0
 13 28  1  0  0  0  0
M  END
> <PUBCHEM_COMPOUND_CID>
13431

> <PUBCHEM_CONFORMER_RMSD>
0.6

> <PUBCHEM_CONFORMER_DIVERSEORDER>
1

> <PUBCHEM_MMFF94_PARTIAL_CHARGES>
7
1 -0.34
14 0.66
2 -0.65
29 0.5
3 -0.57
4 0.06
5 0.34

> <PUBCHEM_EFFECTIVE_ROTOR_COUNT>
2.2

> <PUBCHEM_PHARMACOPHORE_FEATURES>
7
1 2 acceptor
1 3 acceptor
3 2 3 14 anion
6 4 5 6 8 9 11 rings
6 4 5 7 8 10 12 rings
6 4 6 7 9 10 13 rings
6 5 6 7 11 12 13 rings

> <PUBCHEM_HEAVY_ATOM_COUNT>
14

> <PUBCHEM_ATOM_DEF_STEREO_COUNT>
0

> <PUBCHEM_ATOM_UDEF_STEREO_COUNT>
2

> <PUBCHEM_BOND_DEF_STEREO_COUNT>
0

> <PUBCHEM_BOND_UDEF_STEREO_COUNT>
0

> <PUBCHEM_ISOTOPIC_ATOM_COUNT>
0

> <PUBCHEM_COMPONENT_COUNT>
1

> <PUBCHEM_CACTVS_TAUTO_COUNT>
1

> <PUBCHEM_CONFORMER_ID>
0000347700000001

> <PUBCHEM_MMFF94_ENERGY>
37.5878

> <PUBCHEM_FEATURE_SELFOVERLAP>
48.143

> <PUBCHEM_SHAPE_FINGERPRINT>
10702982 57 17972618605604596102
12326174 3 18187361064597892702
12423570 1 10120660257895360518
12725867 57 17972888239161351470
13024252 1 16763699948858390144
14817 1 14518791126636813038
15557651 10 18267861692429805692
16945 1 18333733545702983230
21524375 3 17974013851295245072
23419403 2 17255058638547627150
241688 4 17685484751625167080
2748010 2 18120364372321955412
430814 3 17970069950225252368
5084963 1 17489015063299385523
528886 8 17458613493518426796
5337951 7 18339339925344053954

> <PUBCHEM_SHAPE_MULTIPOLES>
269.1
3.21
1.69
1.41
2.74
0.22
0.23
0.54
-0.2
-0.85
-0.17
-0.33
-0.27
0.33

> <PUBCHEM_SHAPE_SELFOVERLAP>
594.146

> <PUBCHEM_SHAPE_VOLUME>
147.9

> <PUBCHEM_COORDINATE_TYPE>
2
5
10

$$$$

