14178
  -OEChem-06241222422D

 51 54  0     1  0  0  0  0  0999 V2000
    9.4940    2.1128    0.0000 O   0  0  0  0  0  0  0  0  0  0  0  0
    2.0000    0.4068    0.0000 N   0  0  0  0  0  0  0  0  0  0  0  0
    7.3711   -0.6425    0.0000 C   0  0  2  0  0  0  0  0  0  0  0  0
    6.5051   -0.1425    0.0000 C   0  0  1  0  0  0  0  0  0  0  0  0
    8.2372   -0.1425    0.0000 C   0  0  1  0  0  0  0  0  0  0  0  0
    8.2372    0.8575    0.0000 C   0  0  2  0  0  0  0  0  0  0  0  0
    5.5951   -0.6493    0.0000 C   0  0  2  0  0  0  0  0  0  0  0  0
    6.5051    0.8575    0.0000 C   0  0  0  0  0  0  0  0  0  0  0  0
    5.5871   -1.6909    0.0000 C   0  0  1  0  0  0  0  0  0  0  0  0
    7.3711    1.3575    0.0000 C   0  0  0  0  0  0  0  0  0  0  0  0
    7.3872   -1.6840    0.0000 C   0  0  0  0  0  0  0  0  0  0  0  0
    9.1834   -0.4472    0.0000 C   0  0  0  0  0  0  0  0  0  0  0  0
    9.1834    1.1623    0.0000 C   0  0  2  0  0  0  0  0  0  0  0  0
    6.4891   -2.2117    0.0000 C   0  0  0  0  0  0  0  0  0  0  0  0
    9.7670    0.3575    0.0000 C   0  0  0  0  0  0  0  0  0  0  0  0
    4.6683   -0.0852    0.0000 C   0  0  0  0  0  0  0  0  0  0  0  0
    8.2372    1.8575    0.0000 C   0  0  0  0  0  0  0  0  0  0  0  0
    5.6028    0.3507    0.0000 C   0  0  0  0  0  0  0  0  0  0  0  0
    4.6516   -2.2406    0.0000 C   0  0  0  0  0  0  0  0  0  0  0  0
    3.7204   -0.6132    0.0000 C   0  0  0  0  0  0  0  0  0  0  0  0
    3.7120   -1.6981    0.0000 C   0  0  0  0  0  0  0  0  0  0  0  0
    2.8602   -0.1032    0.0000 C   0  0  0  0  0  0  0  0  0  0  0  0
    8.1105   -1.0618    0.0000 H   0  0  0  0  0  0  0  0  0  0  0  0
    7.2412    0.2825    0.0000 H   0  0  0  0  0  0  0  0  0  0  0  0
    8.3271   -0.9877    0.0000 H   0  0  0  0  0  0  0  0  0  0  0  0
    6.2930    1.4401    0.0000 H   0  0  0  0  0  0  0  0  0  0  0  0
    5.8945    0.7499    0.0000 H   0  0  0  0  0  0  0  0  0  0  0  0
    5.5903   -2.5409    0.0000 H   0  0  0  0  0  0  0  0  0  0  0  0
    7.7696    1.8325    0.0000 H   0  0  0  0  0  0  0  0  0  0  0  0
    6.9726    1.8325    0.0000 H   0  0  0  0  0  0  0  0  0  0  0  0
    7.6052   -2.2644    0.0000 H   0  0  0  0  0  0  0  0  0  0  0  0
    7.9963   -1.5685    0.0000 H   0  0  0  0  0  0  0  0  0  0  0  0
    8.9323   -1.0141    0.0000 H   0  0  0  0  0  0  0  0  0  0  0  0
    9.7208   -0.7564    0.0000 H   0  0  0  0  0  0  0  0  0  0  0  0
    9.7959    1.2585    0.0000 H   0  0  0  0  0  0  0  0  0  0  0  0
    6.0918   -2.6877    0.0000 H   0  0  0  0  0  0  0  0  0  0  0  0
    6.8901   -2.6846    0.0000 H   0  0  0  0  0  0  0  0  0  0  0  0
   10.2278   -0.0572    0.0000 H   0  0  0  0  0  0  0  0  0  0  0  0
   10.2278    0.7723    0.0000 H   0  0  0  0  0  0  0  0  0  0  0  0
    5.0765    0.3814    0.0000 H   0  0  0  0  0  0  0  0  0  0  0  0
    4.2783    0.3968    0.0000 H   0  0  0  0  0  0  0  0  0  0  0  0
    8.8572    1.8575    0.0000 H   0  0  0  0  0  0  0  0  0  0  0  0
    8.2372    2.4775    0.0000 H   0  0  0  0  0  0  0  0  0  0  0  0
    7.6172    1.8575    0.0000 H   0  0  0  0  0  0  0  0  0  0  0  0
    6.2228    0.3459    0.0000 H   0  0  0  0  0  0  0  0  0  0  0  0
    5.6076    0.9706    0.0000 H   0  0  0  0  0  0  0  0  0  0  0  0
    4.9828    0.3554    0.0000 H   0  0  0  0  0  0  0  0  0  0  0  0
    4.2543   -2.7166    0.0000 H   0  0  0  0  0  0  0  0  0  0  0  0
    5.0526   -2.7135    0.0000 H   0  0  0  0  0  0  0  0  0  0  0  0
    3.1739   -2.0061    0.0000 H   0  0  0  0  0  0  0  0  0  0  0  0
   10.1007    2.2406    0.0000 H   0  0  0  0  0  0  0  0  0  0  0  0
 13  1  1  1  0  0  0
  1 51  1  0  0  0  0
  2 22  3  0  0  0  0
  3  4  1  0  0  0  0
  3  5  1  0  0  0  0
  3 11  1  0  0  0  0
  3 23  1  1  0  0  0
  4  7  1  0  0  0  0
  4  8  1  0  0  0  0
  4 24  1  6  0  0  0
  5  6  1  0  0  0  0
  5 12  1  0  0  0  0
  5 25  1  6  0  0  0
  6 10  1  0  0  0  0
  6 13  1  0  0  0  0
  6 17  1  1  0  0  0
  7  9  1  0  0  0  0
  7 16  1  0  0  0  0
  7 18  1  1  0  0  0
  8 10  1  0  0  0  0
  8 26  1  0  0  0  0
  8 27  1  0  0  0  0
  9 14  1  0  0  0  0
  9 19  1  0  0  0  0
  9 28  1  6  0  0  0
 10 29  1  0  0  0  0
 10 30  1  0  0  0  0
 11 14  1  0  0  0  0
 11 31  1  0  0  0  0
 11 32  1  0  0  0  0
 12 15  1  0  0  0  0
 12 33  1  0  0  0  0
 12 34  1  0  0  0  0
 13 15  1  0  0  0  0
 13 35  1  0  0  0  0
 14 36  1  0  0  0  0
 14 37  1  0  0  0  0
 15 38  1  0  0  0  0
 15 39  1  0  0  0  0
 16 20  1  0  0  0  0
 16 40  1  0  0  0  0
 16 41  1  0  0  0  0
 17 42  1  0  0  0  0
 17 43  1  0  0  0  0
 17 44  1  0  0  0  0
 18 45  1  0  0  0  0
 18 46  1  0  0  0  0
 18 47  1  0  0  0  0
 19 21  1  0  0  0  0
 19 48  1  0  0  0  0
 19 49  1  0  0  0  0
 20 21  2  0  0  0  0
 20 22  1  0  0  0  0
 21 50  1  0  0  0  0
M  END
> <PUBCHEM_COMPOUND_CID>
14178

> <PUBCHEM_COMPOUND_CANONICALIZED>
1

> <PUBCHEM_CACTVS_COMPLEXITY>
557

> <PUBCHEM_CACTVS_HBOND_ACCEPTOR>
2

> <PUBCHEM_CACTVS_HBOND_DONOR>
1

> <PUBCHEM_CACTVS_ROTATABLE_BOND>
0

> <PUBCHEM_CACTVS_SUBSKEYS>
AAADceB6IAAAAAAAAAAAAAAAAAAAAYAAAAAwYIAAAAAAAGDAAAAAHgAACAAADxShgAICAAAAAgCQBiBCAAAgAAAgAAAACAAAAAgAkAIAAQAAQAAEgAAIAAuAwPAPgAAAAAAAAACAAAQAACAAAIAADAAAAA==

> <PUBCHEM_IUPAC_OPENEYE_NAME>
(5S,8R,9S,10S,13S,14S,17S)-17-hydroxy-10,13-dimethyl-4,5,6,7,8,9,11,12,14,15,16,17-dodecahydro-1H-cyclopenta[a]phenanthrene-2-carbonitrile

> <PUBCHEM_IUPAC_CAS_NAME>
(5S,8R,9S,10S,13S,14S,17S)-17-hydroxy-10,13-dimethyl-4,5,6,7,8,9,11,12,14,15,16,17-dodecahydro-1H-cyclopenta[a]phenanthrene-2-carbonitrile

> <PUBCHEM_IUPAC_NAME>
(5S,8R,9S,10S,13S,14S,17S)-17-hydroxy-10,13-dimethyl-4,5,6,7,8,9,11,12,14,15,16,17-dodecahydro-1H-cyclopenta[a]phenanthrene-2-carbonitrile

> <PUBCHEM_IUPAC_SYSTEMATIC_NAME>
(5S,8R,9S,10S,13S,14S,17S)-10,13-dimethyl-17-oxidanyl-4,5,6,7,8,9,11,12,14,15,16,17-dodecahydro-1H-cyclopenta[a]phenanthrene-2-carbonitrile

> <PUBCHEM_IUPAC_TRADITIONAL_NAME>
(5S,8R,9S,10S,13S,14S,17S)-17-hydroxy-10,13-dimethyl-4,5,6,7,8,9,11,12,14,15,16,17-dodecahydro-1H-cyclopenta[a]phenanthrene-2-carbonitrile

> <PUBCHEM_IUPAC_INCHI>
InChI=1S/C20H29NO/c1-19-10-9-17-15(16(19)7-8-18(19)22)6-5-14-4-3-13(12-21)11-20(14,17)2/h3,14-18,22H,4-11H2,1-2H3/t14-,15+,16+,17+,18+,19+,20+/m1/s1

> <PUBCHEM_IUPAC_INCHIKEY>
WAYOXMHWDMAJDN-WDCLZLQXSA-N

> <PUBCHEM_XLOGP3>
4.5

> <PUBCHEM_EXACT_MASS>
299.224915

> <PUBCHEM_MOLECULAR_FORMULA>
C20H29NO

> <PUBCHEM_MOLECULAR_WEIGHT>
299.45036

> <PUBCHEM_OPENEYE_CAN_SMILES>
CC12CCC3C(C1CCC2O)CCC4C3(CC(=CC4)C#N)C

> <PUBCHEM_OPENEYE_ISO_SMILES>
C[C@]12CC[C@H]3[C@H]([C@@H]1CC[C@@H]2O)CC[C@@H]4[C@@]3(CC(=CC4)C#N)C

> <PUBCHEM_CACTVS_TPSA>
44

> <PUBCHEM_MONOISOTOPIC_WEIGHT>
299.224915

> <PUBCHEM_TOTAL_CHARGE>
0

> <PUBCHEM_HEAVY_ATOM_COUNT>
22

> <PUBCHEM_ATOM_DEF_STEREO_COUNT>
7

> <PUBCHEM_ATOM_UDEF_STEREO_COUNT>
0

> <PUBCHEM_BOND_DEF_STEREO_COUNT>
0

> <PUBCHEM_BOND_UDEF_STEREO_COUNT>
0

> <PUBCHEM_ISOTOPIC_ATOM_COUNT>
0

> <PUBCHEM_COMPONENT_COUNT>
1

> <PUBCHEM_CACTVS_TAUTO_COUNT>
1

> <PUBCHEM_COORDINATE_TYPE>
1
5
255

> <PUBCHEM_BONDANNOTATIONS>
13  1  5
3  23  5
4  24  6
5  25  6
6  17  5
7  18  5
9  28  6

$$$$

