3747
  -OEChem-06251223382D

 37 39  0     0  0  0  0  0  0999 V2000
    8.9942    1.7568    0.0000 O   0  0  0  0  0  0  0  0  0  0  0  0
    5.4641    1.7327    0.0000 O   0  0  0  0  0  0  0  0  0  0  0  0
    5.4641   -1.2673    0.0000 O   0  0  0  0  0  0  0  0  0  0  0  0
    6.3301    0.2327    0.0000 C   0  0  0  0  0  0  0  0  0  0  0  0
    6.3301    1.2327    0.0000 C   0  0  0  0  0  0  0  0  0  0  0  0
    4.5981    0.2327    0.0000 C   0  0  0  0  0  0  0  0  0  0  0  0
    9.8622    1.2602    0.0000 C   0  0  0  0  0  0  0  0  0  0  0  0
    8.1301    1.2535    0.0000 C   0  0  0  0  0  0  0  0  0  0  0  0
    5.4641   -0.2673    0.0000 C   0  0  0  0  0  0  0  0  0  0  0  0
    7.2241    1.7673    0.0000 C   0  0  0  0  0  0  0  0  0  0  0  0
    7.2241   -0.3020    0.0000 C   0  0  0  0  0  0  0  0  0  0  0  0
    8.1301    0.2119    0.0000 C   0  0  0  0  0  0  0  0  0  0  0  0
    3.7320   -0.2673    0.0000 C   0  0  0  0  0  0  0  0  0  0  0  0
    4.5981    1.2327    0.0000 C   0  0  0  0  0  0  0  0  0  0  0  0
   10.7263    1.7635    0.0000 C   0  0  0  0  0  0  0  0  0  0  0  0
    9.8660    0.2602    0.0000 C   0  0  0  0  0  0  0  0  0  0  0  0
    2.8660    0.2327    0.0000 C   0  0  0  0  0  0  0  0  0  0  0  0
    3.7320   -1.2673    0.0000 C   0  0  0  0  0  0  0  0  0  0  0  0
    2.0000   -0.2673    0.0000 C   0  0  0  0  0  0  0  0  0  0  0  0
    2.8660   -1.7673    0.0000 C   0  0  0  0  0  0  0  0  0  0  0  0
    2.0000   -1.2673    0.0000 C   0  0  0  0  0  0  0  0  0  0  0  0
    9.8598    1.8802    0.0000 H   0  0  0  0  0  0  0  0  0  0  0  0
    7.2169    2.3873    0.0000 H   0  0  0  0  0  0  0  0  0  0  0  0
    7.2169   -0.9220    0.0000 H   0  0  0  0  0  0  0  0  0  0  0  0
    8.6659   -0.1002    0.0000 H   0  0  0  0  0  0  0  0  0  0  0  0
    4.0611    1.5427    0.0000 H   0  0  0  0  0  0  0  0  0  0  0  0
    9.2460    0.2578    0.0000 H   0  0  0  0  0  0  0  0  0  0  0  0
    9.8684   -0.3598    0.0000 H   0  0  0  0  0  0  0  0  0  0  0  0
   10.4860    0.2626    0.0000 H   0  0  0  0  0  0  0  0  0  0  0  0
   11.0383    1.2278    0.0000 H   0  0  0  0  0  0  0  0  0  0  0  0
   11.2620    2.0756    0.0000 H   0  0  0  0  0  0  0  0  0  0  0  0
   10.4142    2.2992    0.0000 H   0  0  0  0  0  0  0  0  0  0  0  0
    2.8660    0.8527    0.0000 H   0  0  0  0  0  0  0  0  0  0  0  0
    4.2690   -1.5773    0.0000 H   0  0  0  0  0  0  0  0  0  0  0  0
    1.4631    0.0427    0.0000 H   0  0  0  0  0  0  0  0  0  0  0  0
    2.8660   -2.3873    0.0000 H   0  0  0  0  0  0  0  0  0  0  0  0
    1.4631   -1.5773    0.0000 H   0  0  0  0  0  0  0  0  0  0  0  0
  1  7  1  0  0  0  0
  1  8  1  0  0  0  0
  2  5  1  0  0  0  0
  2 14  1  0  0  0  0
  3  9  2  0  0  0  0
  4  5  2  0  0  0  0
  4  9  1  0  0  0  0
  4 11  1  0  0  0  0
  5 10  1  0  0  0  0
  6  9  1  0  0  0  0
  6 13  1  0  0  0  0
  6 14  2  0  0  0  0
  7 15  1  0  0  0  0
  7 16  1  0  0  0  0
  7 22  1  0  0  0  0
  8 10  2  0  0  0  0
  8 12  1  0  0  0  0
 10 23  1  0  0  0  0
 11 12  2  0  0  0  0
 11 24  1  0  0  0  0
 12 25  1  0  0  0  0
 13 17  2  0  0  0  0
 13 18  1  0  0  0  0
 14 26  1  0  0  0  0
 15 30  1  0  0  0  0
 15 31  1  0  0  0  0
 15 32  1  0  0  0  0
 16 27  1  0  0  0  0
 16 28  1  0  0  0  0
 16 29  1  0  0  0  0
 17 19  1  0  0  0  0
 17 33  1  0  0  0  0
 18 20  2  0  0  0  0
 18 34  1  0  0  0  0
 19 21  2  0  0  0  0
 19 35  1  0  0  0  0
 20 21  1  0  0  0  0
 20 36  1  0  0  0  0
 21 37  1  0  0  0  0
M  END
> <PUBCHEM_COMPOUND_CID>
3747

> <PUBCHEM_COMPOUND_CANONICALIZED>
1

> <PUBCHEM_CACTVS_COMPLEXITY>
407

> <PUBCHEM_CACTVS_HBOND_ACCEPTOR>
3

> <PUBCHEM_CACTVS_HBOND_DONOR>
0

> <PUBCHEM_CACTVS_ROTATABLE_BOND>
3

> <PUBCHEM_CACTVS_SUBSKEYS>
AAADceB4MAAAAAAAAAAAAAAAAAAAAAAAAAAwYIAAAAAAAACBQAAAGgAAAAAADBSgmAIyBoAABACIAqBSAAACCAAkIAAIiAEGCMgMJzaENRqCOWCl4BUIqYeI7PzOIAAACAAIAABAAAAQABAAAAAAAAAAAA==

> <PUBCHEM_IUPAC_OPENEYE_NAME>
7-isopropoxy-3-phenyl-chromen-4-one

> <PUBCHEM_IUPAC_CAS_NAME>
3-phenyl-7-propan-2-yloxy-1-benzopyran-4-one

> <PUBCHEM_IUPAC_NAME>
3-phenyl-7-propan-2-yloxychromen-4-one

> <PUBCHEM_IUPAC_SYSTEMATIC_NAME>
3-phenyl-7-propan-2-yloxy-chromen-4-one

> <PUBCHEM_IUPAC_TRADITIONAL_NAME>
7-isopropoxy-3-phenyl-chromone

> <PUBCHEM_IUPAC_INCHI>
InChI=1S/C18H16O3/c1-12(2)21-14-8-9-15-17(10-14)20-11-16(18(15)19)13-6-4-3-5-7-13/h3-12H,1-2H3

> <PUBCHEM_IUPAC_INCHIKEY>
SFBODOKJTYAUCM-UHFFFAOYSA-N

> <PUBCHEM_XLOGP3_AA>
4

> <PUBCHEM_EXACT_MASS>
280.109944

> <PUBCHEM_MOLECULAR_FORMULA>
C18H16O3

> <PUBCHEM_MOLECULAR_WEIGHT>
280.31784

> <PUBCHEM_OPENEYE_CAN_SMILES>
CC(C)OC1=CC2=C(C=C1)C(=O)C(=CO2)C3=CC=CC=C3

> <PUBCHEM_OPENEYE_ISO_SMILES>
CC(C)OC1=CC2=C(C=C1)C(=O)C(=CO2)C3=CC=CC=C3

> <PUBCHEM_CACTVS_TPSA>
35.5

> <PUBCHEM_MONOISOTOPIC_WEIGHT>
280.109944

> <PUBCHEM_TOTAL_CHARGE>
0

> <PUBCHEM_HEAVY_ATOM_COUNT>
21

> <PUBCHEM_ATOM_DEF_STEREO_COUNT>
0

> <PUBCHEM_ATOM_UDEF_STEREO_COUNT>
0

> <PUBCHEM_BOND_DEF_STEREO_COUNT>
0

> <PUBCHEM_BOND_UDEF_STEREO_COUNT>
0

> <PUBCHEM_ISOTOPIC_ATOM_COUNT>
0

> <PUBCHEM_COMPONENT_COUNT>
1

> <PUBCHEM_CACTVS_TAUTO_COUNT>
1

> <PUBCHEM_COORDINATE_TYPE>
1
5
255

> <PUBCHEM_BONDANNOTATIONS>
11  12  8
13  17  8
13  18  8
17  19  8
18  20  8
19  21  8
2  14  8
2  5  8
20  21  8
4  11  8
4  5  8
4  9  8
5  10  8
6  14  8
6  9  8
8  10  8
8  12  8

$$$$

