14094
  -OEChem-06241222423D

 17 17  0     0  0  0  0  0  0999 V2000
    3.8731    0.0014   -0.2994 S   0  0  0  0  0  0  0  0  0  0  0  0
    1.6922   -0.0055    1.7125 S   0  0  0  0  0  0  0  0  0  0  0  0
    1.1978    0.0023   -0.8705 N   0  0  0  0  0  0  0  0  0  0  0  0
   -0.1454    0.0011   -0.4817 C   0  0  0  0  0  0  0  0  0  0  0  0
   -0.8153    1.2087   -0.2848 C   0  0  0  0  0  0  0  0  0  0  0  0
   -0.8154   -1.2074   -0.2901 C   0  0  0  0  0  0  0  0  0  0  0  0
   -2.1550    1.2078    0.1038 C   0  0  0  0  0  0  0  0  0  0  0  0
   -2.1551   -1.2081    0.0984 C   0  0  0  0  0  0  0  0  0  0  0  0
   -2.8248   -0.0005    0.2953 C   0  0  0  0  0  0  0  0  0  0  0  0
    2.1479    0.0003    0.0165 C   0  0  0  0  0  0  0  0  0  0  0  0
   -0.3031    2.1558   -0.4332 H   0  0  0  0  0  0  0  0  0  0  0  0
   -0.3032   -2.1539   -0.4427 H   0  0  0  0  0  0  0  0  0  0  0  0
   -2.6766    2.1481    0.2568 H   0  0  0  0  0  0  0  0  0  0  0  0
   -2.6768   -2.1489    0.2473 H   0  0  0  0  0  0  0  0  0  0  0  0
   -3.8680   -0.0011    0.5977 H   0  0  0  0  0  0  0  0  0  0  0  0
    4.2966    0.2394    0.9491 H   0  0  0  0  0  0  0  0  0  0  0  0
    2.9013   -0.2504    2.2347 H   0  0  0  0  0  0  0  0  0  0  0  0
  1 10  1  0  0  0  0
  1 16  1  0  0  0  0
  2 10  1  0  0  0  0
  2 17  1  0  0  0  0
  3  4  1  0  0  0  0
  3 10  2  0  0  0  0
  4  5  2  0  0  0  0
  4  6  1  0  0  0  0
  5  7  1  0  0  0  0
  5 11  1  0  0  0  0
  6  8  2  0  0  0  0
  6 12  1  0  0  0  0
  7  9  2  0  0  0  0
  7 13  1  0  0  0  0
  8  9  1  0  0  0  0
  8 14  1  0  0  0  0
  9 15  1  0  0  0  0
M  END
> <PUBCHEM_COMPOUND_CID>
14094

> <PUBCHEM_CONFORMER_RMSD>
0.4

> <PUBCHEM_CONFORMER_DIVERSEORDER>
1

> <PUBCHEM_MMFF94_PARTIAL_CHARGES>
17
1 -0.32
10 0.73
11 0.15
12 0.15
13 0.15
14 0.15
15 0.15
16 0.18
17 0.18
2 -0.32
3 -0.63
4 0.18
5 -0.15
6 -0.15
7 -0.15
8 -0.15
9 -0.15

> <PUBCHEM_EFFECTIVE_ROTOR_COUNT>
1

> <PUBCHEM_PHARMACOPHORE_FEATURES>
3
1 3 acceptor
3 1 2 10 anion
6 4 5 6 7 8 9 rings

> <PUBCHEM_HEAVY_ATOM_COUNT>
10

> <PUBCHEM_ATOM_DEF_STEREO_COUNT>
0

> <PUBCHEM_ATOM_UDEF_STEREO_COUNT>
0

> <PUBCHEM_BOND_DEF_STEREO_COUNT>
0

> <PUBCHEM_BOND_UDEF_STEREO_COUNT>
0

> <PUBCHEM_ISOTOPIC_ATOM_COUNT>
0

> <PUBCHEM_COMPONENT_COUNT>
1

> <PUBCHEM_CACTVS_TAUTO_COUNT>
2

> <PUBCHEM_CONFORMER_ID>
0000370E00000001

> <PUBCHEM_MMFF94_ENERGY>
30.5222

> <PUBCHEM_FEATURE_SELFOVERLAP>
15.223

> <PUBCHEM_SHAPE_FINGERPRINT>
10857977 72 18334862679904835625
11062470 55 13110964219018129630
124424 183 17531249504172272994
12932764 1 17632304479509220508
13024252 1 15123790686818127109
14325111 11 18410007775639618724
15775835 57 18201437029504766104
16945 1 18410581686339023243
19422 9 17989203767973764250
20201158 50 17458340866432808766
20645464 45 17821725043933149959
20871998 184 18261104119878009015
21040471 1 18266170819961588253
23235685 24 18334859462763529221
23236772 104 17775282755218530560
23402539 116 18259991474703913373
23552423 10 17844244017259771725
369184 2 18410300211246268045
5084963 1 17967532350392077451

> <PUBCHEM_SHAPE_MULTIPOLES>
208.51
5.11
1.2
1.08
3.29
0
0.49
0
0.02
-0.86
-0.05
0.65
0
-0.01

> <PUBCHEM_SHAPE_SELFOVERLAP>
409.142

> <PUBCHEM_SHAPE_VOLUME>
126.5

> <PUBCHEM_COORDINATE_TYPE>
2
5
10

$$$$

