17395619
  -OEChem-06241222513D

 57 60  0     1  0  0  0  0  0999 V2000
    7.4321   -0.0140    0.2823 S   0  0  0  0  0  0  0  0  0  0  0  0
    7.9132    1.3517    0.2683 O   0  0  0  0  0  0  0  0  0  0  0  0
    8.1248   -1.0720    0.9881 O   0  0  0  0  0  0  0  0  0  0  0  0
    3.1305    1.6560    0.3623 O   0  0  0  0  0  0  0  0  0  0  0  0
    1.2844    0.2481    0.4328 N   0  0  0  0  0  0  0  0  0  0  0  0
   -1.5525   -0.0613    0.1787 N   0  0  0  0  0  0  0  0  0  0  0  0
    4.9133   -0.1066   -0.5109 C   0  0  1  0  0  0  0  0  0  0  0  0
    5.7176   -0.0168    0.7891 C   0  0  0  0  0  0  0  0  0  0  0  0
    5.7107   -1.0446   -1.4266 C   0  0  0  0  0  0  0  0  0  0  0  0
    7.1477   -0.5360   -1.4020 C   0  0  0  0  0  0  0  0  0  0  0  0
    3.4937   -0.5978   -0.2747 C   0  0  0  0  0  0  0  0  0  0  0  0
    2.6278    0.5408    0.2028 C   0  0  0  0  0  0  0  0  0  0  0  0
    0.3783    1.2995    0.8926 C   0  0  0  0  0  0  0  0  0  0  0  0
    0.6870   -1.0895    0.3807 C   0  0  0  0  0  0  0  0  0  0  0  0
   -0.9395    1.2736    0.1189 C   0  0  0  0  0  0  0  0  0  0  0  0
   -0.6408   -1.0712   -0.3787 C   0  0  0  0  0  0  0  0  0  0  0  0
   -2.8292   -0.0726   -0.5344 C   0  0  0  0  0  0  0  0  0  0  0  0
   -3.6364    1.1955   -0.2988 C   0  0  0  0  0  0  0  0  0  0  0  0
   -3.6437   -1.3246   -0.2446 C   0  0  0  0  0  0  0  0  0  0  0  0
   -4.5355    1.2622    0.7657 C   0  0  0  0  0  0  0  0  0  0  0  0
   -4.5107   -1.8321   -1.2124 C   0  0  0  0  0  0  0  0  0  0  0  0
   -3.4770    2.2916   -1.1467 C   0  0  0  0  0  0  0  0  0  0  0  0
   -3.5232   -1.9654    0.9886 C   0  0  0  0  0  0  0  0  0  0  0  0
   -5.2755    2.4247    0.9820 C   0  0  0  0  0  0  0  0  0  0  0  0
   -5.2573   -2.9800   -0.9470 C   0  0  0  0  0  0  0  0  0  0  0  0
   -4.2169    3.4541   -0.9302 C   0  0  0  0  0  0  0  0  0  0  0  0
   -4.2698   -3.1134    1.2539 C   0  0  0  0  0  0  0  0  0  0  0  0
   -5.1161    3.5206    0.1341 C   0  0  0  0  0  0  0  0  0  0  0  0
   -5.1368   -3.6207    0.2861 C   0  0  0  0  0  0  0  0  0  0  0  0
    4.9121    0.8782   -0.9990 H   0  0  0  0  0  0  0  0  0  0  0  0
    5.5108    0.8930    1.3567 H   0  0  0  0  0  0  0  0  0  0  0  0
    5.5670   -0.8939    1.4261 H   0  0  0  0  0  0  0  0  0  0  0  0
    5.6731   -2.0708   -1.0397 H   0  0  0  0  0  0  0  0  0  0  0  0
    5.3152   -1.0580   -2.4473 H   0  0  0  0  0  0  0  0  0  0  0  0
    7.8698   -1.3069   -1.6783 H   0  0  0  0  0  0  0  0  0  0  0  0
    7.2659    0.3384   -2.0486 H   0  0  0  0  0  0  0  0  0  0  0  0
    3.4773   -1.4128    0.4564 H   0  0  0  0  0  0  0  0  0  0  0  0
    3.0732   -0.9611   -1.2200 H   0  0  0  0  0  0  0  0  0  0  0  0
    0.8474    2.2839    0.7929 H   0  0  0  0  0  0  0  0  0  0  0  0
    0.2020    1.1284    1.9620 H   0  0  0  0  0  0  0  0  0  0  0  0
    0.5299   -1.4101    1.4181 H   0  0  0  0  0  0  0  0  0  0  0  0
    1.3551   -1.8173   -0.0834 H   0  0  0  0  0  0  0  0  0  0  0  0
   -0.7433    1.5750   -0.9183 H   0  0  0  0  0  0  0  0  0  0  0  0
   -1.5495    2.0378    0.6105 H   0  0  0  0  0  0  0  0  0  0  0  0
   -1.0648   -2.0794   -0.3221 H   0  0  0  0  0  0  0  0  0  0  0  0
   -0.4402   -0.8643   -1.4390 H   0  0  0  0  0  0  0  0  0  0  0  0
   -2.6142   -0.0964   -1.6149 H   0  0  0  0  0  0  0  0  0  0  0  0
   -4.6753    0.4434    1.4630 H   0  0  0  0  0  0  0  0  0  0  0  0
   -4.6151   -1.3421   -2.1768 H   0  0  0  0  0  0  0  0  0  0  0  0
   -2.7922    2.2538   -1.9895 H   0  0  0  0  0  0  0  0  0  0  0  0
   -2.8707   -1.5884    1.7711 H   0  0  0  0  0  0  0  0  0  0  0  0
   -5.9720    2.4789    1.8136 H   0  0  0  0  0  0  0  0  0  0  0  0
   -5.9329   -3.3747   -1.7002 H   0  0  0  0  0  0  0  0  0  0  0  0
   -4.0952    4.3066   -1.5920 H   0  0  0  0  0  0  0  0  0  0  0  0
   -4.1792   -3.6103    2.2154 H   0  0  0  0  0  0  0  0  0  0  0  0
   -5.6918    4.4260    0.3029 H   0  0  0  0  0  0  0  0  0  0  0  0
   -5.7190   -4.5138    0.4931 H   0  0  0  0  0  0  0  0  0  0  0  0
  1  2  2  0  0  0  0
  1  3  2  0  0  0  0
  1  8  1  0  0  0  0
  1 10  1  0  0  0  0
  4 12  2  0  0  0  0
  5 12  1  0  0  0  0
  5 13  1  0  0  0  0
  5 14  1  0  0  0  0
  6 15  1  0  0  0  0
  6 16  1  0  0  0  0
  6 17  1  0  0  0  0
  7  8  1  0  0  0  0
  7  9  1  0  0  0  0
  7 11  1  0  0  0  0
  7 30  1  0  0  0  0
  8 31  1  0  0  0  0
  8 32  1  0  0  0  0
  9 10  1  0  0  0  0
  9 33  1  0  0  0  0
  9 34  1  0  0  0  0
 10 35  1  0  0  0  0
 10 36  1  0  0  0  0
 11 12  1  0  0  0  0
 11 37  1  0  0  0  0
 11 38  1  0  0  0  0
 13 15  1  0  0  0  0
 13 39  1  0  0  0  0
 13 40  1  0  0  0  0
 14 16  1  0  0  0  0
 14 41  1  0  0  0  0
 14 42  1  0  0  0  0
 15 43  1  0  0  0  0
 15 44  1  0  0  0  0
 16 45  1  0  0  0  0
 16 46  1  0  0  0  0
 17 18  1  0  0  0  0
 17 19  1  0  0  0  0
 17 47  1  0  0  0  0
 18 20  2  0  0  0  0
 18 22  1  0  0  0  0
 19 21  2  0  0  0  0
 19 23  1  0  0  0  0
 20 24  1  0  0  0  0
 20 48  1  0  0  0  0
 21 25  1  0  0  0  0
 21 49  1  0  0  0  0
 22 26  2  0  0  0  0
 22 50  1  0  0  0  0
 23 27  2  0  0  0  0
 23 51  1  0  0  0  0
 24 28  2  0  0  0  0
 24 52  1  0  0  0  0
 25 29  2  0  0  0  0
 25 53  1  0  0  0  0
 26 28  1  0  0  0  0
 26 54  1  0  0  0  0
 27 29  1  0  0  0  0
 27 55  1  0  0  0  0
 28 56  1  0  0  0  0
 29 57  1  0  0  0  0
M  END
> <PUBCHEM_COMPOUND_CID>
17395619

> <PUBCHEM_CONFORMER_RMSD>
1

> <PUBCHEM_CONFORMER_DIVERSEORDER>
1
114
115
77
93
148
117
28
27
40
82
127
171
118
72
97
34
139
112
57
166
150
42
159
169
3
162
60
73
15
6
149
59
172
120
63
47
69
125
145
123
98
155
37
146
79
55
167
78
20
54
96
51
94
116
103
144
156
158
88
75
36
121
83
74
168
85
136
95
119
29
154
61
161
133
102
122
66
135
140
110
80
91
67
16
92
13
71
21
26
134
111
70
137
45
68
41
106
143
62
165
124
131
65
43
7
151
89
105
19
48
107
104
160
101
49
100
31
22
58
53
128
153
76
35
108
24
32
130
5
11
56
44
109
46
14
84
2
52
170
87
113
99
23
90
157
39
10
147
138
33
86
141
164
152
142
17
50
9
129
163
81
12
38
132
64
4
126
18
25
30
8

> <PUBCHEM_MMFF94_PARTIAL_CHARGES>
37
1 1.09
10 0.11
11 0.06
12 0.57
13 0.3
14 0.3
15 0.27
16 0.27
17 0.56
18 -0.14
19 -0.14
2 -0.65
20 -0.15
21 -0.15
22 -0.15
23 -0.15
24 -0.15
25 -0.15
26 -0.15
27 -0.15
28 -0.15
29 -0.15
3 -0.65
4 -0.57
48 0.15
49 0.15
5 -0.66
50 0.15
51 0.15
52 0.15
53 0.15
54 0.15
55 0.15
56 0.15
57 0.15
6 -0.81
8 0.11

> <PUBCHEM_EFFECTIVE_ROTOR_COUNT>
8

> <PUBCHEM_PHARMACOPHORE_FEATURES>
8
1 2 acceptor
1 3 acceptor
1 4 acceptor
1 6 cation
5 1 7 8 9 10 rings
6 18 20 22 24 26 28 rings
6 19 21 23 25 27 29 rings
6 5 6 13 14 15 16 rings

> <PUBCHEM_HEAVY_ATOM_COUNT>
29

> <PUBCHEM_ATOM_DEF_STEREO_COUNT>
0

> <PUBCHEM_ATOM_UDEF_STEREO_COUNT>
1

> <PUBCHEM_BOND_DEF_STEREO_COUNT>
0

> <PUBCHEM_BOND_UDEF_STEREO_COUNT>
0

> <PUBCHEM_ISOTOPIC_ATOM_COUNT>
0

> <PUBCHEM_COMPONENT_COUNT>
1

> <PUBCHEM_CACTVS_TAUTO_COUNT>
1

> <PUBCHEM_CONFORMER_ID>
01096FA300000001

> <PUBCHEM_MMFF94_ENERGY>
79.3751

> <PUBCHEM_FEATURE_SELFOVERLAP>
40.611

> <PUBCHEM_SHAPE_FINGERPRINT>
10165383 225 18263640827175728809
10319926 262 18336559247842586064
10411042 1 18195526979467202907
10816530 145 18335693992480207553
10835480 77 18186806898570458272
11007060 377 18271802364105924234
11101153 10 18198618822437056349
11135926 11 18199759196863655990
11315181 36 18130790018770141135
11545043 162 18187087234652322440
11809386 21 18342463629542046611
12082328 90 18411139130682643150
12236239 1 18202566186014716234
12616971 3 17131822184087679492
12788726 201 18340503205527757963
13540713 4 18115042800648059809
13673619 4 18261951826373956715
13690498 29 18408886200881095839
13782708 43 18261673671412350802
14856354 85 18202275897005777559
15021287 119 17132105857850606636
15131766 46 15120650396116127103
15183329 4 17203330009965134206
15230672 131 18197494241365053350
15419008 42 18042684095210982900
15439362 3 17902791096247576005
1577012 14 18060411422886709116
15778101 99 18410011078322068449
15876981 60 18202559566726828733
15927050 60 18266177421880853107
16087824 20 18412829119516491797
16989713 51 17823423707889235870
16990350 14 17185599559622278321
17093844 174 18260552237928351632
17844677 252 18337388245250248536
18927931 339 18340203003881947263
19427546 20 18342178873515893725
20101258 96 18341887443100708281
21130935 74 18411986867291432466
21236236 1 18410292497764722235
21756936 100 17489303135615265305
21927370 108 18200585888364303723
220451 1 18060418053983904506
2303208 19 17894904127653616822
23081809 10 17847059987451620390
23522609 53 17774418574114506132
23559900 14 17968105235111861272
24771293 8 18059855027233457284
249057 25 17775279427141025302
25269216 80 18198883878086039022
32027 91 17607509521994419142
3610482 184 17774139293258837390
397830 11 18114190675205088784
4073 2 18409445903950101722
44062 13 18408881850015882205
5104073 3 18336271162916663616
513202 73 18336261237621931127
5969126 39 18335427812208461687
6009941 240 18261393394652244964
6698420 124 17897993884182149753
7226269 152 18188491396785014801
9831232 110 18115296904716045750

> <PUBCHEM_SHAPE_MULTIPOLES>
573.09
21.17
3.87
1.19
46.81
0
-0.15
-1.82
-0.43
-11.56
-0.01
0.01
-0.21
0.67

> <PUBCHEM_SHAPE_SELFOVERLAP>
1210.239

> <PUBCHEM_SHAPE_VOLUME>
321.4

> <PUBCHEM_COORDINATE_TYPE>
2
5
10

$$$$

