12717
  -OEChem-06261207173D

 13 12  0     0  0  0  0  0  0999 V2000
   -1.0476    1.8855    0.0934 O   0  0  0  0  0  0  0  0  0  0  0  0
    1.1557   -0.0434    1.3113 O   0  0  0  0  0  0  0  0  0  0  0  0
    2.5826   -0.3989   -0.4166 O   0  0  0  0  0  0  0  0  0  0  0  0
   -1.7510   -1.6291   -0.0450 O   0  0  0  0  0  0  0  0  0  0  0  0
   -0.8960    0.5200   -0.1969 N   0  0  0  0  0  0  0  0  0  0  0  0
    0.3050    0.2010   -0.9136 C   0  0  0  0  0  0  0  0  0  0  0  0
    1.4656   -0.1107   -0.0044 C   0  0  0  0  0  0  0  0  0  0  0  0
   -1.8143   -0.4244    0.1719 C   0  0  0  0  0  0  0  0  0  0  0  0
    0.5715    1.0469   -1.5549 H   0  0  0  0  0  0  0  0  0  0  0  0
    0.1281   -0.6887   -1.5271 H   0  0  0  0  0  0  0  0  0  0  0  0
   -2.6641    0.0224    0.7134 H   0  0  0  0  0  0  0  0  0  0  0  0
   -0.5274    1.9494    0.9124 H   0  0  0  0  0  0  0  0  0  0  0  0
    1.9265   -0.2508    1.8814 H   0  0  0  0  0  0  0  0  0  0  0  0
  1  5  1  0  0  0  0
  1 12  1  0  0  0  0
  2  7  1  0  0  0  0
  2 13  1  0  0  0  0
  3  7  2  0  0  0  0
  4  8  2  0  0  0  0
  5  6  1  0  0  0  0
  5  8  1  0  0  0  0
  6  7  1  0  0  0  0
  6  9  1  0  0  0  0
  6 10  1  0  0  0  0
  8 11  1  0  0  0  0
M  END
> <PUBCHEM_COMPOUND_CID>
12717

> <PUBCHEM_CONFORMER_RMSD>
0.6

> <PUBCHEM_CONFORMER_DIVERSEORDER>
1
7
9
12
5
3
11
10
2
8
6
4

> <PUBCHEM_MMFF94_PARTIAL_CHARGES>
11
1 -0.44
11 0.06
12 0.4
13 0.5
2 -0.65
3 -0.57
4 -0.57
5 -0.32
6 0.36
7 0.66
8 0.57

> <PUBCHEM_EFFECTIVE_ROTOR_COUNT>
3

> <PUBCHEM_PHARMACOPHORE_FEATURES>
4
1 2 acceptor
1 3 acceptor
1 4 acceptor
3 2 3 7 anion

> <PUBCHEM_HEAVY_ATOM_COUNT>
8

> <PUBCHEM_ATOM_DEF_STEREO_COUNT>
0

> <PUBCHEM_ATOM_UDEF_STEREO_COUNT>
0

> <PUBCHEM_BOND_DEF_STEREO_COUNT>
0

> <PUBCHEM_BOND_UDEF_STEREO_COUNT>
0

> <PUBCHEM_ISOTOPIC_ATOM_COUNT>
0

> <PUBCHEM_COMPONENT_COUNT>
1

> <PUBCHEM_CACTVS_TAUTO_COUNT>
1

> <PUBCHEM_CONFORMER_ID>
000031AD00000001

> <PUBCHEM_MMFF94_ENERGY>
10.555

> <PUBCHEM_FEATURE_SELFOVERLAP>
20.356

> <PUBCHEM_SHAPE_FINGERPRINT>
16714656 1 18411693305300388591
18185500 45 17775290451715509339
21040471 1 18050854617150469981
23552333 60 17346611763061405697
23552449 11 17836665027959598563
24536 1 18338252551499474356
29004967 10 18262798441336307386
5084963 1 5689325628512469311
5943 1 10986240307168324813

> <PUBCHEM_SHAPE_MULTIPOLES>
136.18
2.79
1.31
0.89
0.82
0.31
0.13
-0.83
-0.02
-0.9
0.02
0.29
0
-0.02

> <PUBCHEM_SHAPE_SELFOVERLAP>
255.649

> <PUBCHEM_SHAPE_VOLUME>
84.2

> <PUBCHEM_COORDINATE_TYPE>
2
5
10

$$$$

