13045
  -OEChem-06261207413D

 18 18  0     0  0  0  0  0  0999 V2000
    1.7136    0.1660   -1.3784 F   0  0  0  0  0  0  0  0  0  0  0  0
    1.7221    1.7640    0.1034 F   0  0  0  0  0  0  0  0  0  0  0  0
    2.2285   -0.2748    0.6920 F   0  0  0  0  0  0  0  0  0  0  0  0
    0.3405   -2.0908    0.7815 F   0  0  0  0  0  0  0  0  0  0  0  0
   -0.1769   -1.6623   -1.2916 F   0  0  0  0  0  0  0  0  0  0  0  0
   -1.7006   -1.5308    0.2638 F   0  0  0  0  0  0  0  0  0  0  0  0
   -0.2817    0.4717    1.5871 O   0  0  0  0  0  0  0  0  0  0  0  0
   -0.8915    1.0230   -0.6429 N   0  0  0  0  0  0  0  0  0  0  0  0
   -0.0536    0.1812    0.2093 C   0  0  0  0  0  0  0  0  0  0  0  0
   -2.2997    0.7760   -0.3760 C   0  0  0  0  0  0  0  0  0  0  0  0
   -1.6133    1.9987    0.1587 C   0  0  0  0  0  0  0  0  0  0  0  0
    1.4123    0.4634   -0.0941 C   0  0  0  0  0  0  0  0  0  0  0  0
   -0.3997   -1.2852   -0.0130 C   0  0  0  0  0  0  0  0  0  0  0  0
   -2.7206    0.1832    0.4258 H   0  0  0  0  0  0  0  0  0  0  0  0
   -2.9618    0.9021   -1.2241 H   0  0  0  0  0  0  0  0  0  0  0  0
   -1.8160    2.9392   -0.3451 H   0  0  0  0  0  0  0  0  0  0  0  0
   -1.5729    2.1227    1.2315 H   0  0  0  0  0  0  0  0  0  0  0  0
    0.2869    1.2188    1.8414 H   0  0  0  0  0  0  0  0  0  0  0  0
  1 12  1  0  0  0  0
  2 12  1  0  0  0  0
  3 12  1  0  0  0  0
  4 13  1  0  0  0  0
  5 13  1  0  0  0  0
  6 13  1  0  0  0  0
  7  9  1  0  0  0  0
  7 18  1  0  0  0  0
  8  9  1  0  0  0  0
  8 10  1  0  0  0  0
  8 11  1  0  0  0  0
  9 12  1  0  0  0  0
  9 13  1  0  0  0  0
 10 11  1  0  0  0  0
 10 14  1  0  0  0  0
 10 15  1  0  0  0  0
 11 16  1  0  0  0  0
 11 17  1  0  0  0  0
M  END
> <PUBCHEM_COMPOUND_CID>
13045

> <PUBCHEM_CONFORMER_RMSD>
0.6

> <PUBCHEM_CONFORMER_DIVERSEORDER>
1
3
2

> <PUBCHEM_MMFF94_PARTIAL_CHARGES>
18
1 -0.34
10 -0.04
11 -0.04
12 1.02
13 1.02
14 0.1
15 0.1
16 0.1
17 0.1
18 0.4
2 -0.34
3 -0.34
4 -0.34
5 -0.34
6 -0.34
7 -0.68
8 -0.59
9 0.55

> <PUBCHEM_EFFECTIVE_ROTOR_COUNT>
3.6

> <PUBCHEM_PHARMACOPHORE_FEATURES>
3
1 7 acceptor
1 7 donor
1 8 cation

> <PUBCHEM_HEAVY_ATOM_COUNT>
13

> <PUBCHEM_ATOM_DEF_STEREO_COUNT>
0

> <PUBCHEM_ATOM_UDEF_STEREO_COUNT>
0

> <PUBCHEM_BOND_DEF_STEREO_COUNT>
0

> <PUBCHEM_BOND_UDEF_STEREO_COUNT>
0

> <PUBCHEM_ISOTOPIC_ATOM_COUNT>
0

> <PUBCHEM_COMPONENT_COUNT>
1

> <PUBCHEM_CACTVS_TAUTO_COUNT>
1

> <PUBCHEM_CONFORMER_ID>
000032F500000001

> <PUBCHEM_MMFF94_ENERGY>
36.2732

> <PUBCHEM_FEATURE_SELFOVERLAP>
15.223

> <PUBCHEM_SHAPE_FINGERPRINT>
12423570 1 17539960680968745501
12524768 44 17829879949914595942
13024252 1 17130147490286667736
137420 1 16767550584364942269
14128692 85 17685505642393736391
16945 1 18341335590625023561
18185500 45 17546723751268936086
21040471 1 18339922739526454957
21922407 69 15768910386466937380
241688 4 16242648560781793675
2748010 2 18267305339678006757
29004967 10 15647347328701581125
5084963 1 18336259132438700208

> <PUBCHEM_SHAPE_MULTIPOLES>
213.04
2.47
2.01
1.06
0.67
0.52
0
-0.89
-0.13
-0.15
0.03
-0.2
0.08
-0.09

> <PUBCHEM_SHAPE_SELFOVERLAP>
445.344

> <PUBCHEM_SHAPE_VOLUME>
122

> <PUBCHEM_COORDINATE_TYPE>
2
5
10

$$$$

