17395700
  -OEChem-06241222513D

 42 43  0     1  0  0  0  0  0999 V2000
    1.1049   -2.8557    0.4075 S   0  0  0  0  0  0  0  0  0  0  0  0
   -1.6637   -2.6484   -0.9300 O   0  0  0  0  0  0  0  0  0  0  0  0
    3.3566    0.0213   -1.0209 N   0  0  0  0  0  0  0  0  0  0  0  0
    1.8300   -0.2110    0.6666 N   0  0  0  0  0  0  0  0  0  0  0  0
    2.8678   -1.2268   -0.9662 N   0  0  0  0  0  0  0  0  0  0  0  0
    2.9261    2.0219    0.3077 C   0  0  0  0  0  0  0  0  0  0  0  0
   -0.4480   -2.1657    1.0659 C   0  0  1  0  0  0  0  0  0  0  0  0
   -1.7538   -0.3724   -0.2795 C   0  0  0  0  0  0  0  0  0  0  0  0
    2.6974    0.5958   -0.0125 C   0  0  0  0  0  0  0  0  0  0  0  0
   -1.3350   -1.7589   -0.1243 C   0  0  0  0  0  0  0  0  0  0  0  0
   -1.4141    0.3603   -1.4167 C   0  0  0  0  0  0  0  0  0  0  0  0
    3.5101    2.2391    1.7228 C   0  0  0  0  0  0  0  0  0  0  0  0
    1.6597    2.8924    0.1360 C   0  0  0  0  0  0  0  0  0  0  0  0
   -2.5068    0.2211    0.7334 C   0  0  0  0  0  0  0  0  0  0  0  0
   -2.9204    1.5475    0.6092 C   0  0  0  0  0  0  0  0  0  0  0  0
   -1.1295   -3.2029    1.9552 C   0  0  0  0  0  0  0  0  0  0  0  0
    1.9614   -1.3568    0.0395 C   0  0  0  0  0  0  0  0  0  0  0  0
   -1.8277    1.6867   -1.5410 C   0  0  0  0  0  0  0  0  0  0  0  0
   -2.5808    2.2804   -0.5281 C   0  0  0  0  0  0  0  0  0  0  0  0
   -0.6085   -0.2505   -2.5163 C   0  0  0  0  0  0  0  0  0  0  0  0
   -3.7256    2.1825    1.6918 C   0  0  0  0  0  0  0  0  0  0  0  0
    3.6704    2.4240   -0.3946 H   0  0  0  0  0  0  0  0  0  0  0  0
   -0.2313   -1.2884    1.6841 H   0  0  0  0  0  0  0  0  0  0  0  0
    2.8097    1.9006    2.4943 H   0  0  0  0  0  0  0  0  0  0  0  0
    3.7266    3.2983    1.8964 H   0  0  0  0  0  0  0  0  0  0  0  0
    4.4416    1.6759    1.8463 H   0  0  0  0  0  0  0  0  0  0  0  0
    0.8690    2.5790    0.8267 H   0  0  0  0  0  0  0  0  0  0  0  0
    1.2676    2.8043   -0.8831 H   0  0  0  0  0  0  0  0  0  0  0  0
    1.8830    3.9475    0.3249 H   0  0  0  0  0  0  0  0  0  0  0  0
   -2.7792   -0.3482    1.6191 H   0  0  0  0  0  0  0  0  0  0  0  0
   -1.3741   -4.1184    1.4045 H   0  0  0  0  0  0  0  0  0  0  0  0
   -0.5017   -3.4695    2.8124 H   0  0  0  0  0  0  0  0  0  0  0  0
   -2.0730   -2.8052    2.3454 H   0  0  0  0  0  0  0  0  0  0  0  0
   -1.5724    2.2706   -2.4213 H   0  0  0  0  0  0  0  0  0  0  0  0
    4.0464    0.3153   -1.7070 H   0  0  0  0  0  0  0  0  0  0  0  0
   -2.8983    3.3139   -0.6375 H   0  0  0  0  0  0  0  0  0  0  0  0
    0.2297   -0.8352   -2.1350 H   0  0  0  0  0  0  0  0  0  0  0  0
   -1.2429   -0.8962   -3.1322 H   0  0  0  0  0  0  0  0  0  0  0  0
   -0.1785    0.5174   -3.1691 H   0  0  0  0  0  0  0  0  0  0  0  0
   -4.7913    1.9965    1.5257 H   0  0  0  0  0  0  0  0  0  0  0  0
   -3.4477    1.7850    2.6740 H   0  0  0  0  0  0  0  0  0  0  0  0
   -3.5603    3.2648    1.7264 H   0  0  0  0  0  0  0  0  0  0  0  0
  1  7  1  0  0  0  0
  1 17  1  0  0  0  0
  2 10  2  0  0  0  0
  3  5  1  0  0  0  0
  3  9  1  0  0  0  0
  3 35  1  0  0  0  0
  4  9  2  0  0  0  0
  4 17  1  0  0  0  0
  5 17  2  0  0  0  0
  6  9  1  0  0  0  0
  6 12  1  0  0  0  0
  6 13  1  0  0  0  0
  6 22  1  0  0  0  0
  7 10  1  0  0  0  0
  7 16  1  0  0  0  0
  7 23  1  0  0  0  0
  8 10  1  0  0  0  0
  8 11  2  0  0  0  0
  8 14  1  0  0  0  0
 11 18  1  0  0  0  0
 11 20  1  0  0  0  0
 12 24  1  0  0  0  0
 12 25  1  0  0  0  0
 12 26  1  0  0  0  0
 13 27  1  0  0  0  0
 13 28  1  0  0  0  0
 13 29  1  0  0  0  0
 14 15  2  0  0  0  0
 14 30  1  0  0  0  0
 15 19  1  0  0  0  0
 15 21  1  0  0  0  0
 16 31  1  0  0  0  0
 16 32  1  0  0  0  0
 16 33  1  0  0  0  0
 18 19  2  0  0  0  0
 18 34  1  0  0  0  0
 19 36  1  0  0  0  0
 20 37  1  0  0  0  0
 20 38  1  0  0  0  0
 20 39  1  0  0  0  0
 21 40  1  0  0  0  0
 21 41  1  0  0  0  0
 21 42  1  0  0  0  0
M  END
> <PUBCHEM_COMPOUND_CID>
17395700

> <PUBCHEM_CONFORMER_RMSD>
0.8

> <PUBCHEM_CONFORMER_DIVERSEORDER>
1
112
48
67
84
348
247
70
69
44
229
45
266
133
158
98
32
254
336
317
171
19
39
58
184
200
337
11
144
248
91
35
219
223
305
192
161
359
330
75
31
318
80
89
323
38
95
194
97
49
306
345
252
351
339
241
179
315
82
235
213
193
303
341
125
236
277
155
334
148
329
33
343
363
163
287
20
250
4
110
233
309
99
12
26
18
283
28
55
3
328
234
170
349
151
265
333
281
107
332
150
362
165
52
206
293
36
335
314
50
225
145
227
280
181
240
104
226
188
270
22
353
187
77
214
242
139
105
267
14
355
153
201
2
189
340
176
41
79
274
217
195
285
278
63
164
322
152
361
65
29
216
42
149
258
128
307
78
6
123
5
46
120
100
169
60
137
131
228
103
259
173
304
119
167
256
282
61
40
319
71
7
358
175
10
53
212
115
203
117
231
239
109
196
255
37
140
338
291
273
25
301
126
294
331
356
111
51
209
178
74
15
272
174
96
185
324
118
108
157
321
238
215
162
27
284
132
302
191
8
146
246
102
168
114
300
136
156
183
143
129
320
94
190
354
90
13
72
327
166
220
230
9
218
172
57
243
346
182
308
141
113
249
23
88
299
186
279
47
313
180
221
257
16
93
262
269
21
295
17
202
85
286
86
208
138
210
54
124
62
142
275
311
59
43
34
64
76
312
344
298
357
101
205
134
116
347
222
342
83
289
73
135
253
122
251
87
352
130
177
121
271
261
197
30
24
232
68
159
297
81
224
106
276
316
211
92
237
204
260
198
244
207
296
160
268
127
263
56
326
264
325
360
290
288
147
350
66
199
154
245
310
292

> <PUBCHEM_MMFF94_PARTIAL_CHARGES>
22
1 -0.28
10 0.42
11 -0.14
14 -0.15
15 -0.14
17 0.57
18 -0.15
19 -0.15
2 -0.57
20 0.14
21 0.14
3 0.3
30 0.15
34 0.15
35 0.27
36 0.15
4 -0.57
5 -0.71
6 0.18
7 0.29
8 0.09
9 0.01

> <PUBCHEM_EFFECTIVE_ROTOR_COUNT>
5

> <PUBCHEM_PHARMACOPHORE_FEATURES>
8
1 16 hydrophobe
1 2 acceptor
1 3 donor
3 3 4 9 cation
3 4 5 17 cation
3 6 12 13 hydrophobe
5 3 4 5 9 17 rings
6 8 11 14 15 18 19 rings

> <PUBCHEM_HEAVY_ATOM_COUNT>
21

> <PUBCHEM_ATOM_DEF_STEREO_COUNT>
0

> <PUBCHEM_ATOM_UDEF_STEREO_COUNT>
1

> <PUBCHEM_BOND_DEF_STEREO_COUNT>
0

> <PUBCHEM_BOND_UDEF_STEREO_COUNT>
0

> <PUBCHEM_ISOTOPIC_ATOM_COUNT>
0

> <PUBCHEM_COMPONENT_COUNT>
1

> <PUBCHEM_CACTVS_TAUTO_COUNT>
10

> <PUBCHEM_CONFORMER_ID>
01096FF400000001

> <PUBCHEM_MMFF94_ENERGY>
55.6533

> <PUBCHEM_FEATURE_SELFOVERLAP>
43.343

> <PUBCHEM_SHAPE_FINGERPRINT>
10064457 181 18127948953643239208
10165383 225 18056735814827002716
11221954 11 18334858269057903152
11578080 2 14354722873608818355
12156800 1 16242566870498717992
12633257 1 18341891939166309872
128993 33 18271526489265621364
14123250 116 18113909238371549257
14142880 1 18267594498308920977
14178342 30 18263372412413707000
14386348 128 18271803583301785132
14787075 74 18193567662362031991
14955137 171 17909837874427969538
15664445 248 15799107279929591237
18219364 16 18128825316082390845
18981168 100 18339377330245779416
19930381 70 18340207509197009393
21041028 32 17330834037575753522
21524375 3 18341612684820066499
22182937 141 18337103484338609833
23419403 2 17106156352848929887
23557571 272 17910951340657352850
23558518 356 18337671919271131847
238 59 17911550849287580085
25 1 18266452294796036390
35225 105 17831255525055754721
3524813 1 17556287698544537575
495365 180 17699028480243453645
81228 2 18057884645453845483
9981440 41 17681021533654964440

> <PUBCHEM_SHAPE_MULTIPOLES>
415.21
5.7
4.03
1.87
1.66
1.34
0.32
-4.45
-1.51
0.06
-1.69
-0.67
-0.03
0.58

> <PUBCHEM_SHAPE_SELFOVERLAP>
853.212

> <PUBCHEM_SHAPE_VOLUME>
243.8

> <PUBCHEM_COORDINATE_TYPE>
2
5
10

$$$$

