47205534
  -OEChem-06241222592D

 36 36  0     0  0  0  0  0  0999 V2000
    2.0000   -2.7500    0.0000 Br  0  0  0  0  0  0  0  0  0  0  0  0
    5.4641    3.2500    0.0000 O   0  0  0  0  0  0  0  0  0  0  0  0
    6.3301   -0.2500    0.0000 O   0  0  0  0  0  0  0  0  0  0  0  0
    2.8660   -1.2500    0.0000 O   0  0  0  0  0  0  0  0  0  0  0  0
    6.3301    1.7500    0.0000 N   0  0  0  0  0  0  0  0  0  0  0  0
    4.5981   -0.2500    0.0000 N   0  0  0  0  0  0  0  0  0  0  0  0
    4.5981   -1.2500    0.0000 N   0  0  0  0  0  0  0  0  0  0  0  0
    7.1962    3.2500    0.0000 C   0  0  0  0  0  0  0  0  0  0  0  0
    7.1962    4.2500    0.0000 C   0  0  0  0  0  0  0  0  0  0  0  0
    6.3301    2.7500    0.0000 C   0  0  0  0  0  0  0  0  0  0  0  0
    5.4641    1.2500    0.0000 C   0  0  0  0  0  0  0  0  0  0  0  0
    8.0622    4.7500    0.0000 C   0  0  0  0  0  0  0  0  0  0  0  0
    5.4641    0.2500    0.0000 C   0  0  0  0  0  0  0  0  0  0  0  0
    3.7320   -2.7500    0.0000 C   0  0  0  0  0  0  0  0  0  0  0  0
    3.7320   -1.7500    0.0000 C   0  0  0  0  0  0  0  0  0  0  0  0
    2.8660   -3.2500    0.0000 C   0  0  0  0  0  0  0  0  0  0  0  0
    4.5981   -3.2500    0.0000 C   0  0  0  0  0  0  0  0  0  0  0  0
    2.8660   -4.2500    0.0000 C   0  0  0  0  0  0  0  0  0  0  0  0
    4.5981   -4.2500    0.0000 C   0  0  0  0  0  0  0  0  0  0  0  0
    3.7320   -4.7500    0.0000 C   0  0  0  0  0  0  0  0  0  0  0  0
    7.4082    2.6674    0.0000 H   0  0  0  0  0  0  0  0  0  0  0  0
    7.8067    3.3577    0.0000 H   0  0  0  0  0  0  0  0  0  0  0  0
    6.9841    4.8326    0.0000 H   0  0  0  0  0  0  0  0  0  0  0  0
    6.5856    4.1423    0.0000 H   0  0  0  0  0  0  0  0  0  0  0  0
    5.2520    1.8326    0.0000 H   0  0  0  0  0  0  0  0  0  0  0  0
    4.8535    1.1423    0.0000 H   0  0  0  0  0  0  0  0  0  0  0  0
    6.8671    1.4400    0.0000 H   0  0  0  0  0  0  0  0  0  0  0  0
    8.3722    4.2131    0.0000 H   0  0  0  0  0  0  0  0  0  0  0  0
    8.5991    5.0600    0.0000 H   0  0  0  0  0  0  0  0  0  0  0  0
    7.7522    5.2869    0.0000 H   0  0  0  0  0  0  0  0  0  0  0  0
    4.0611    0.0600    0.0000 H   0  0  0  0  0  0  0  0  0  0  0  0
    5.1350   -1.5600    0.0000 H   0  0  0  0  0  0  0  0  0  0  0  0
    5.1350   -2.9400    0.0000 H   0  0  0  0  0  0  0  0  0  0  0  0
    2.3291   -4.5600    0.0000 H   0  0  0  0  0  0  0  0  0  0  0  0
    5.1350   -4.5600    0.0000 H   0  0  0  0  0  0  0  0  0  0  0  0
    3.7320   -5.3700    0.0000 H   0  0  0  0  0  0  0  0  0  0  0  0
  1 16  1  0  0  0  0
  2 10  2  0  0  0  0
  3 13  2  0  0  0  0
  4 15  2  0  0  0  0
  5 10  1  0  0  0  0
  5 11  1  0  0  0  0
  5 27  1  0  0  0  0
  6  7  1  0  0  0  0
  6 13  1  0  0  0  0
  6 31  1  0  0  0  0
  7 15  1  0  0  0  0
  7 32  1  0  0  0  0
  8  9  1  0  0  0  0
  8 10  1  0  0  0  0
  8 21  1  0  0  0  0
  8 22  1  0  0  0  0
  9 12  1  0  0  0  0
  9 23  1  0  0  0  0
  9 24  1  0  0  0  0
 11 13  1  0  0  0  0
 11 25  1  0  0  0  0
 11 26  1  0  0  0  0
 12 28  1  0  0  0  0
 12 29  1  0  0  0  0
 12 30  1  0  0  0  0
 14 15  1  0  0  0  0
 14 16  1  0  0  0  0
 14 17  2  0  0  0  0
 16 18  2  0  0  0  0
 17 19  1  0  0  0  0
 17 33  1  0  0  0  0
 18 20  1  0  0  0  0
 18 34  1  0  0  0  0
 19 20  2  0  0  0  0
 19 35  1  0  0  0  0
 20 36  1  0  0  0  0
M  END
> <PUBCHEM_COMPOUND_CID>
47205534

> <PUBCHEM_COMPOUND_CANONICALIZED>
1

> <PUBCHEM_CACTVS_COMPLEXITY>
363

> <PUBCHEM_CACTVS_HBOND_ACCEPTOR>
3

> <PUBCHEM_CACTVS_HBOND_DONOR>
3

> <PUBCHEM_CACTVS_ROTATABLE_BOND>
5

> <PUBCHEM_CACTVS_SUBSKEYS>
AAADceBzMAAAEAAAAAAAAAAAAAAAAAAAAAAwAAAAAAAAAAABAAAAHgBYAAABrADBmAQyAILiAACIAiFSEACCAAAkAAYaqIGIBOgIYDKAlTGUIQBglgCIi5cYiACOAAAAAAAAgAAAAAAAAAEAAAAAAAAAAA==

> <PUBCHEM_IUPAC_OPENEYE_NAME>
N-[2-[2-(2-bromobenzoyl)hydrazino]-2-oxo-ethyl]butanamide

> <PUBCHEM_IUPAC_CAS_NAME>
N-[2-[[(2-bromophenyl)-oxomethyl]hydrazo]-2-oxoethyl]butanamide

> <PUBCHEM_IUPAC_NAME>
N-[2-[2-(2-bromobenzoyl)hydrazinyl]-2-oxoethyl]butanamide

> <PUBCHEM_IUPAC_SYSTEMATIC_NAME>
N-[2-[2-(2-bromophenyl)carbonylhydrazinyl]-2-oxidanylidene-ethyl]butanamide

> <PUBCHEM_IUPAC_TRADITIONAL_NAME>
N-[2-[N'-(2-bromobenzoyl)hydrazino]-2-keto-ethyl]butyramide

> <PUBCHEM_IUPAC_INCHI>
InChI=1S/C13H16BrN3O3/c1-2-5-11(18)15-8-12(19)16-17-13(20)9-6-3-4-7-10(9)14/h3-4,6-7H,2,5,8H2,1H3,(H,15,18)(H,16,19)(H,17,20)

> <PUBCHEM_IUPAC_INCHIKEY>
GRGLEEJKRAGYJZ-UHFFFAOYSA-N

> <PUBCHEM_XLOGP3_AA>
1.6

> <PUBCHEM_EXACT_MASS>
341.037503

> <PUBCHEM_MOLECULAR_FORMULA>
C13H16BrN3O3

> <PUBCHEM_MOLECULAR_WEIGHT>
342.18844

> <PUBCHEM_OPENEYE_CAN_SMILES>
CCCC(=O)NCC(=O)NNC(=O)C1=CC=CC=C1Br

> <PUBCHEM_OPENEYE_ISO_SMILES>
CCCC(=O)NCC(=O)NNC(=O)C1=CC=CC=C1Br

> <PUBCHEM_CACTVS_TPSA>
87.3

> <PUBCHEM_MONOISOTOPIC_WEIGHT>
341.037503

> <PUBCHEM_TOTAL_CHARGE>
0

> <PUBCHEM_HEAVY_ATOM_COUNT>
20

> <PUBCHEM_ATOM_DEF_STEREO_COUNT>
0

> <PUBCHEM_ATOM_UDEF_STEREO_COUNT>
0

> <PUBCHEM_BOND_DEF_STEREO_COUNT>
0

> <PUBCHEM_BOND_UDEF_STEREO_COUNT>
0

> <PUBCHEM_ISOTOPIC_ATOM_COUNT>
0

> <PUBCHEM_COMPONENT_COUNT>
1

> <PUBCHEM_CACTVS_TAUTO_COUNT>
8

> <PUBCHEM_COORDINATE_TYPE>
1
5
255

> <PUBCHEM_BONDANNOTATIONS>
14  16  8
14  17  8
16  18  8
17  19  8
18  20  8
19  20  8

$$$$

