3679
  -OEChem-06251223353D

 50 53  0     1  0  0  0  0  0999 V2000
   -0.4299   -0.0005   -2.5714 S   0  0  0  0  0  0  0  0  0  0  0  0
   -4.7792    0.8689    0.1792 S   0  0  0  0  0  0  0  0  0  0  0  0
    0.6550   -2.7110    1.0486 O   0  0  0  0  0  0  0  0  0  0  0  0
    3.3096    1.0186   -1.6679 O   0  0  0  0  0  0  0  0  0  0  0  0
    4.7998    2.4716    0.1399 O   0  0  0  0  0  0  0  0  0  0  0  0
   -2.7118   -3.2754    0.5193 O   0  5  0  0  0  0  0  0  0  0  0  0
   -2.7890   -1.5731    2.0456 O   0  0  0  0  0  0  0  0  0  0  0  0
    3.1419    3.1693    1.5975 O   0  0  0  0  0  0  0  0  0  0  0  0
   -0.5524   -1.0843   -0.1538 N   0  0  0  0  0  0  0  0  0  0  0  0
    2.5715   -0.3147    0.0835 N   0  0  0  0  0  0  0  0  0  0  0  0
   -7.4456    1.4254    0.6652 N   0  0  0  0  0  0  0  0  0  0  0  0
   -7.1656   -0.2245   -0.7140 N   0  0  0  0  0  0  0  0  0  0  0  0
   -8.6823    1.0245    0.3394 N   0  0  0  0  0  0  0  0  0  0  0  0
   -8.5048    0.0156   -0.5047 N   0  0  0  0  0  0  0  0  0  0  0  0
    0.1789   -0.0580   -0.8710 C   0  0  1  0  0  0  0  0  0  0  0  0
    1.4384   -0.9171   -0.6175 C   0  0  2  0  0  0  0  0  0  0  0  0
    0.5161   -1.7714    0.3011 C   0  0  0  0  0  0  0  0  0  0  0  0
   -1.9063   -1.1563   -0.0890 C   0  0  0  0  0  0  0  0  0  0  0  0
   -2.6851   -0.4376   -0.9300 C   0  0  0  0  0  0  0  0  0  0  0  0
   -2.1326    0.4215   -2.0648 C   0  0  0  0  0  0  0  0  0  0  0  0
   -4.1959   -0.4356   -0.9156 C   0  0  0  0  0  0  0  0  0  0  0  0
    3.4227    0.6159   -0.5120 C   0  0  0  0  0  0  0  0  0  0  0  0
   -2.5342   -2.0995    0.9311 C   0  0  0  0  0  0  0  0  0  0  0  0
    4.5122    1.1113    0.4287 C   0  0  1  0  0  0  0  0  0  0  0  0
    5.7809    0.3037    0.2871 C   0  0  0  0  0  0  0  0  0  0  0  0
   -6.5285    0.6593    0.0191 C   0  0  0  0  0  0  0  0  0  0  0  0
    5.9766   -0.8313    1.0740 C   0  0  0  0  0  0  0  0  0  0  0  0
    6.7566    0.6925   -0.6310 C   0  0  0  0  0  0  0  0  0  0  0  0
    7.1479   -1.5773    0.9432 C   0  0  0  0  0  0  0  0  0  0  0  0
    7.9279   -0.0536   -0.7617 C   0  0  0  0  0  0  0  0  0  0  0  0
    4.0365    3.3899    0.7964 C   0  0  0  0  0  0  0  0  0  0  0  0
    8.1235   -1.1885    0.0254 C   0  0  0  0  0  0  0  0  0  0  0  0
   -7.2529    2.5217    1.5803 C   0  0  0  0  0  0  0  0  0  0  0  0
    0.1733    0.9060   -0.3475 H   0  0  0  0  0  0  0  0  0  0  0  0
    1.7903   -1.5028   -1.4776 H   0  0  0  0  0  0  0  0  0  0  0  0
   -2.7440    0.3029   -2.9652 H   0  0  0  0  0  0  0  0  0  0  0  0
   -2.1644    1.4775   -1.7758 H   0  0  0  0  0  0  0  0  0  0  0  0
    2.7622   -0.5827    1.0462 H   0  0  0  0  0  0  0  0  0  0  0  0
   -4.5830   -1.3986   -0.5658 H   0  0  0  0  0  0  0  0  0  0  0  0
   -4.6006   -0.2942   -1.9238 H   0  0  0  0  0  0  0  0  0  0  0  0
    4.1765    1.0217    1.4707 H   0  0  0  0  0  0  0  0  0  0  0  0
    5.2243   -1.1462    1.7923 H   0  0  0  0  0  0  0  0  0  0  0  0
    6.6244    1.5642   -1.2659 H   0  0  0  0  0  0  0  0  0  0  0  0
    7.3000   -2.4613    1.5556 H   0  0  0  0  0  0  0  0  0  0  0  0
    8.6864    0.2469   -1.4787 H   0  0  0  0  0  0  0  0  0  0  0  0
    4.3566    4.3963    0.4857 H   0  0  0  0  0  0  0  0  0  0  0  0
    9.0350   -1.7700   -0.0771 H   0  0  0  0  0  0  0  0  0  0  0  0
   -6.6909    2.1589    2.4443 H   0  0  0  0  0  0  0  0  0  0  0  0
   -8.2251    2.9006    1.9064 H   0  0  0  0  0  0  0  0  0  0  0  0
   -6.7039    3.3131    1.0642 H   0  0  0  0  0  0  0  0  0  0  0  0
  1 15  1  0  0  0  0
  1 20  1  0  0  0  0
  2 21  1  0  0  0  0
  2 26  1  0  0  0  0
  3 17  2  0  0  0  0
  4 22  2  0  0  0  0
  5 24  1  0  0  0  0
  5 31  1  0  0  0  0
  6 23  1  0  0  0  0
  7 23  2  0  0  0  0
  8 31  2  0  0  0  0
  9 15  1  0  0  0  0
  9 17  1  0  0  0  0
  9 18  1  0  0  0  0
 10 16  1  0  0  0  0
 10 22  1  0  0  0  0
 10 38  1  0  0  0  0
 11 13  1  0  0  0  0
 11 26  1  0  0  0  0
 11 33  1  0  0  0  0
 12 14  1  0  0  0  0
 12 26  2  0  0  0  0
 13 14  2  0  0  0  0
 15 16  1  0  0  0  0
 15 34  1  0  0  0  0
 16 17  1  0  0  0  0
 16 35  1  0  0  0  0
 18 19  2  0  0  0  0
 18 23  1  0  0  0  0
 19 20  1  0  0  0  0
 19 21  1  0  0  0  0
 20 36  1  0  0  0  0
 20 37  1  0  0  0  0
 21 39  1  0  0  0  0
 21 40  1  0  0  0  0
 22 24  1  0  0  0  0
 24 25  1  0  0  0  0
 24 41  1  0  0  0  0
 25 27  2  0  0  0  0
 25 28  1  0  0  0  0
 27 29  1  0  0  0  0
 27 42  1  0  0  0  0
 28 30  2  0  0  0  0
 28 43  1  0  0  0  0
 29 32  2  0  0  0  0
 29 44  1  0  0  0  0
 30 32  1  0  0  0  0
 30 45  1  0  0  0  0
 31 46  1  0  0  0  0
 32 47  1  0  0  0  0
 33 48  1  0  0  0  0
 33 49  1  0  0  0  0
 33 50  1  0  0  0  0
M  CHG  1   6  -1
M  END
> <PUBCHEM_COMPOUND_CID>
3679

> <PUBCHEM_CONFORMER_RMSD>
1.2

> <PUBCHEM_CONFORMER_DIVERSEORDER>
1
116
16
254
189
196
181
222
112
187
40
228
2
245
238
46
253
90
53
163
210
74
109
247
153
38
98
43
36
164
198
139
249
140
137
101
45
255
183
234
250
132
108
256
87
225
227
57
158
22
215
155
123
166
134
142
235
141
237
66
239
64
118
169
27
89
151
150
212
34
178
231
128
131
51
71
157
113
203
26
126
114
246
145
180
3
149
201
119
168
186
124
191
190
226
241
28
219
102
205
170
213
211
220
229
105
69
96
110
160
156
257
92
77
88
135
56
11
192
207
221
72
50
63
82
97
173
218
233
182
9
240
146
29
206
49
193
138
52
129
70
21
143
61
172
217
79
95
6
75
236
197
144
32
165
167
214
4
248
24
25
176
17
111
68
122
48
20
33
230
184
41
125
224
242
54
59
99
44
174
188
115
14
251
195
30
204
81
58
133
67
107
80
154
232
103
106
73
185
199
148
12
162
223
244
15
136
202
18
60
175
76
23
152
100
94
161
42
216
130
121
171
55
117
84
194
5
37
8
86
243
93
177
13
47
10
39
120
91
208
252
159
7
19
127
179
104
35
209
85
78
65
31
62
147
200
83

> <PUBCHEM_MMFF94_PARTIAL_CHARGES>
39
1 -0.45
10 -0.65
11 0.31
12 -0.34
13 -0.42
15 0.44
16 0.28
17 0.58
18 -0.14
19 -0.28
2 -0.29
20 0.37
21 0.37
22 0.57
23 1.05
24 0.48
25 -0.14
26 0.24
27 -0.15
28 -0.15
29 -0.15
3 -0.57
30 -0.15
31 0.66
32 -0.15
33 0.26
38 0.37
4 -0.57
42 0.15
43 0.15
44 0.15
45 0.15
46 0.06
47 0.15
5 -0.43
6 -0.9
7 -0.9
8 -0.57
9 -0.39

> <PUBCHEM_EFFECTIVE_ROTOR_COUNT>
10.6

> <PUBCHEM_PHARMACOPHORE_FEATURES>
12
1 10 donor
1 3 acceptor
1 4 acceptor
1 6 acceptor
1 7 acceptor
1 8 acceptor
3 11 12 26 cation
3 6 7 23 anion
4 9 15 16 17 rings
5 11 12 13 14 26 rings
6 1 9 15 18 19 20 rings
6 25 27 28 29 30 32 rings

> <PUBCHEM_HEAVY_ATOM_COUNT>
33

> <PUBCHEM_ATOM_DEF_STEREO_COUNT>
0

> <PUBCHEM_ATOM_UDEF_STEREO_COUNT>
3

> <PUBCHEM_BOND_DEF_STEREO_COUNT>
0

> <PUBCHEM_BOND_UDEF_STEREO_COUNT>
0

> <PUBCHEM_ISOTOPIC_ATOM_COUNT>
0

> <PUBCHEM_COMPONENT_COUNT>
1

> <PUBCHEM_CACTVS_TAUTO_COUNT>
2

> <PUBCHEM_CONFORMER_ID>
00000E5F00000001

> <PUBCHEM_MMFF94_ENERGY>
73.3379

> <PUBCHEM_FEATURE_SELFOVERLAP>
61.209

> <PUBCHEM_SHAPE_FINGERPRINT>
10 15 17275384317698809831
10165383 225 18272651255163869854
11456790 92 18411139160103979232
13914758 101 17967250914123014862
14118638 360 7060388028489003950
15131766 46 17536326829974723656
15301273 46 16773799224825314543
15357212 105 17558534821730110548
15419008 145 18262805197478899600
20105231 36 16486970722078862898
21033648 29 18198635341482351432
21150785 3 8718825388116585239
21585482 111 18267020747305060797
22122407 14 18186794751822482737
23559900 14 18059582326520744070
24893992 56 18335140869859306105
2838139 119 18113340804225036253
3633792 109 15792002433000449254
4093350 32 17968096486058004334
5104073 3 18058458616725501826
5385378 56 18272653497453835770
6004065 56 9223220867328968534
9663363 56 18186239538360214254

> <PUBCHEM_SHAPE_MULTIPOLES>
621.72
25.33
2.79
1.63
12.34
1.06
0.52
7.9
-4.45
-0.82
-1.75
0.63
0.11
-0.82

> <PUBCHEM_SHAPE_SELFOVERLAP>
1303.134

> <PUBCHEM_SHAPE_VOLUME>
352.2

> <PUBCHEM_COORDINATE_TYPE>
2
5
10

$$$$

