12653
  -OEChem-06261207123D

 26 26  0     0  0  0  0  0  0999 V2000
    4.0625   -0.0007    0.5724 Cl  0  0  0  0  0  0  0  0  0  0  0  0
   -1.6161    0.0008   -0.9622 O   0  0  0  0  0  0  0  0  0  0  0  0
   -2.1803   -0.0023    1.2935 O   0  0  0  0  0  0  0  0  0  0  0  0
   -3.8252    0.0006   -0.3425 N   0  0  0  0  0  0  0  0  0  0  0  0
    1.7172    1.2080   -0.0591 C   0  0  0  0  0  0  0  0  0  0  0  0
    1.7172   -1.2078   -0.0609 C   0  0  0  0  0  0  0  0  0  0  0  0
    2.3904   -0.0001    0.1220 C   0  0  0  0  0  0  0  0  0  0  0  0
   -0.3025    0.0006   -0.6061 C   0  0  0  0  0  0  0  0  0  0  0  0
    0.3707    1.2084   -0.4231 C   0  0  0  0  0  0  0  0  0  0  0  0
    0.3707   -1.2076   -0.4250 C   0  0  0  0  0  0  0  0  0  0  0  0
    2.3993    2.5258    0.1241 C   0  0  0  0  0  0  0  0  0  0  0  0
    2.3974   -2.5264    0.1238 C   0  0  0  0  0  0  0  0  0  0  0  0
   -2.5236    0.0004    0.1149 C   0  0  0  0  0  0  0  0  0  0  0  0
   -4.9777    0.0003    0.5282 C   0  0  0  0  0  0  0  0  0  0  0  0
   -0.1646    2.1437   -0.5683 H   0  0  0  0  0  0  0  0  0  0  0  0
   -0.1649   -2.1426   -0.5711 H   0  0  0  0  0  0  0  0  0  0  0  0
    2.7703    2.6286    1.1492 H   0  0  0  0  0  0  0  0  0  0  0  0
    3.2322    2.6297   -0.5791 H   0  0  0  0  0  0  0  0  0  0  0  0
    1.7196    3.3659   -0.0568 H   0  0  0  0  0  0  0  0  0  0  0  0
    3.2329   -2.6304   -0.5764 H   0  0  0  0  0  0  0  0  0  0  0  0
    2.7647   -2.6301    1.1502 H   0  0  0  0  0  0  0  0  0  0  0  0
    1.7178   -3.3659   -0.0603 H   0  0  0  0  0  0  0  0  0  0  0  0
   -3.9816    0.0016   -1.3457 H   0  0  0  0  0  0  0  0  0  0  0  0
   -4.6830    0.0005    1.5802 H   0  0  0  0  0  0  0  0  0  0  0  0
   -5.5702   -0.8912    0.3090 H   0  0  0  0  0  0  0  0  0  0  0  0
   -5.5709    0.8913    0.3088 H   0  0  0  0  0  0  0  0  0  0  0  0
  1  7  1  0  0  0  0
  2  8  1  0  0  0  0
  2 13  1  0  0  0  0
  3 13  2  0  0  0  0
  4 13  1  0  0  0  0
  4 14  1  0  0  0  0
  4 23  1  0  0  0  0
  5  7  2  0  0  0  0
  5  9  1  0  0  0  0
  5 11  1  0  0  0  0
  6  7  1  0  0  0  0
  6 10  2  0  0  0  0
  6 12  1  0  0  0  0
  8  9  2  0  0  0  0
  8 10  1  0  0  0  0
  9 15  1  0  0  0  0
 10 16  1  0  0  0  0
 11 17  1  0  0  0  0
 11 18  1  0  0  0  0
 11 19  1  0  0  0  0
 12 20  1  0  0  0  0
 12 21  1  0  0  0  0
 12 22  1  0  0  0  0
 14 24  1  0  0  0  0
 14 25  1  0  0  0  0
 14 26  1  0  0  0  0
M  END
> <PUBCHEM_COMPOUND_CID>
12653

> <PUBCHEM_CONFORMER_RMSD>
0.6

> <PUBCHEM_CONFORMER_DIVERSEORDER>
1
9
10
8
4
12
5
6
11
7
2
14
3
13

> <PUBCHEM_MMFF94_PARTIAL_CHARGES>
17
1 -0.18
10 -0.15
11 0.14
12 0.14
13 0.78
14 0.3
15 0.15
16 0.15
2 -0.23
23 0.37
3 -0.57
4 -0.73
5 -0.14
6 -0.14
7 0.18
8 0.08
9 -0.15

> <PUBCHEM_EFFECTIVE_ROTOR_COUNT>
3

> <PUBCHEM_PHARMACOPHORE_FEATURES>
3
1 3 acceptor
1 4 donor
6 5 6 7 8 9 10 rings

> <PUBCHEM_HEAVY_ATOM_COUNT>
14

> <PUBCHEM_ATOM_DEF_STEREO_COUNT>
0

> <PUBCHEM_ATOM_UDEF_STEREO_COUNT>
0

> <PUBCHEM_BOND_DEF_STEREO_COUNT>
0

> <PUBCHEM_BOND_UDEF_STEREO_COUNT>
0

> <PUBCHEM_ISOTOPIC_ATOM_COUNT>
0

> <PUBCHEM_COMPONENT_COUNT>
1

> <PUBCHEM_CACTVS_TAUTO_COUNT>
2

> <PUBCHEM_CONFORMER_ID>
0000316D00000001

> <PUBCHEM_MMFF94_ENERGY>
36.2098

> <PUBCHEM_FEATURE_SELFOVERLAP>
15.223

> <PUBCHEM_SHAPE_FINGERPRINT>
10219947 1 18411140238393633006
10980938 120 18407759248390604854
11471102 20 18411422808413015476
11471102 22 18341888606187187992
12251169 10 18408605859511967879
12346645 6 18261110785614192950
13140716 1 18267031548735158570
13380536 305 18339077086910922724
14251717 144 18410857667804934839
14252887 29 18271804661312254786
15219456 202 18200322125009503085
15501101 241 18272089413327796468
15775835 57 18114742612282211261
16945 1 18410584985095446382
19049666 15 17844540000678180285
20201158 50 18202282523881696323
20279233 1 17846493742730918467
20559304 39 18333446564604826272
20645477 70 18340214076354972879
20871998 22 18191868044660190822
21041028 32 18191873537917756208
21501502 16 18195815055001227302
22854114 111 18335421218805803897
2334 1 17907023881001432398
23557571 272 16702307892150011598
2748010 2 18049177849644847396
31174 14 18341898514708420943
7364860 26 18335137596593118422
77492 1 17676496029535985445
81228 2 17257102987288184700
8272917 22 18336258024600888575

> <PUBCHEM_SHAPE_MULTIPOLES>
273.26
7.27
2
0.85
8.48
0
0.07
0
1.84
-2.58
0
0.28
0
0

> <PUBCHEM_SHAPE_SELFOVERLAP>
554.212

> <PUBCHEM_SHAPE_VOLUME>
161.7

> <PUBCHEM_COORDINATE_TYPE>
2
5
10

$$$$

