7846942
  -OEChem-06241222483D

 43 45  0     1  0  0  0  0  0999 V2000
    3.9791    0.5172    0.6625 S   0  0  0  0  0  0  0  0  0  0  0  0
   -3.4406    1.5160   -1.0621 S   0  0  0  0  0  0  0  0  0  0  0  0
    5.1310    1.3525    0.3924 O   0  0  0  0  0  0  0  0  0  0  0  0
    3.0043    0.8500    1.6805 O   0  0  0  0  0  0  0  0  0  0  0  0
   -1.7350   -2.0126   -0.3497 O   0  0  0  0  0  0  0  0  0  0  0  0
    0.3584   -1.6803   -2.1120 O   0  0  0  0  0  0  0  0  0  0  0  0
   -2.6752   -3.1604    1.4169 O   0  0  0  0  0  0  0  0  0  0  0  0
    1.8292   -1.7990   -0.3135 N   0  0  0  0  0  0  0  0  0  0  0  0
   -2.2798    0.7029    1.0928 N   0  0  0  0  0  0  0  0  0  0  0  0
    3.0050   -1.3095   -0.9925 C   0  0  1  0  0  0  0  0  0  0  0  0
    3.1223    0.2102   -0.8781 C   0  0  0  0  0  0  0  0  0  0  0  0
    4.2910   -1.8841   -0.3890 C   0  0  0  0  0  0  0  0  0  0  0  0
    4.5341   -1.1584    0.9319 C   0  0  0  0  0  0  0  0  0  0  0  0
    0.5984   -1.9432   -0.9367 C   0  0  0  0  0  0  0  0  0  0  0  0
   -0.4522   -2.4766    0.0137 C   0  0  0  0  0  0  0  0  0  0  0  0
   -4.0735   -1.8472   -0.0783 C   0  0  0  0  0  0  0  0  0  0  0  0
   -4.4016   -0.5062    0.5800 C   0  0  0  0  0  0  0  0  0  0  0  0
   -2.7789   -2.4303    0.4410 C   0  0  0  0  0  0  0  0  0  0  0  0
   -3.3247    0.5160    0.3208 C   0  0  0  0  0  0  0  0  0  0  0  0
   -1.9645    2.2872   -0.6158 C   0  0  0  0  0  0  0  0  0  0  0  0
   -1.4900    1.7158    0.5687 C   0  0  0  0  0  0  0  0  0  0  0  0
   -1.2760    3.3234   -1.2670 C   0  0  0  0  0  0  0  0  0  0  0  0
   -0.2835    2.2004    1.1190 C   0  0  0  0  0  0  0  0  0  0  0  0
   -0.0845    3.7845   -0.7014 C   0  0  0  0  0  0  0  0  0  0  0  0
    0.4071    3.2317    0.4759 C   0  0  0  0  0  0  0  0  0  0  0  0
    2.9226   -1.5941   -2.0475 H   0  0  0  0  0  0  0  0  0  0  0  0
    2.1610    0.7292   -0.8705 H   0  0  0  0  0  0  0  0  0  0  0  0
    3.7535    0.6083   -1.6787 H   0  0  0  0  0  0  0  0  0  0  0  0
    4.2376   -2.9674   -0.2391 H   0  0  0  0  0  0  0  0  0  0  0  0
    5.1282   -1.6823   -1.0689 H   0  0  0  0  0  0  0  0  0  0  0  0
    5.5886   -1.1564    1.2161 H   0  0  0  0  0  0  0  0  0  0  0  0
    3.9339   -1.5876    1.7390 H   0  0  0  0  0  0  0  0  0  0  0  0
    1.9043   -2.0073    0.6778 H   0  0  0  0  0  0  0  0  0  0  0  0
   -0.2286   -2.1523    1.0367 H   0  0  0  0  0  0  0  0  0  0  0  0
   -0.4195   -3.5710   -0.0365 H   0  0  0  0  0  0  0  0  0  0  0  0
   -4.8703   -2.5719    0.1254 H   0  0  0  0  0  0  0  0  0  0  0  0
   -4.0143   -1.7567   -1.1696 H   0  0  0  0  0  0  0  0  0  0  0  0
   -5.3739   -0.1465    0.2237 H   0  0  0  0  0  0  0  0  0  0  0  0
   -4.4924   -0.6420    1.6650 H   0  0  0  0  0  0  0  0  0  0  0  0
   -1.6536    3.7596   -2.1866 H   0  0  0  0  0  0  0  0  0  0  0  0
    0.1091    1.7753    2.0382 H   0  0  0  0  0  0  0  0  0  0  0  0
    0.4645    4.5852   -1.1899 H   0  0  0  0  0  0  0  0  0  0  0  0
    1.3363    3.6019    0.9003 H   0  0  0  0  0  0  0  0  0  0  0  0
  1  3  2  0  0  0  0
  1  4  2  0  0  0  0
  1 11  1  0  0  0  0
  1 13  1  0  0  0  0
  2 19  1  0  0  0  0
  2 20  1  0  0  0  0
  5 15  1  0  0  0  0
  5 18  1  0  0  0  0
  6 14  2  0  0  0  0
  7 18  2  0  0  0  0
  8 10  1  0  0  0  0
  8 14  1  0  0  0  0
  8 33  1  0  0  0  0
  9 19  2  0  0  0  0
  9 21  1  0  0  0  0
 10 11  1  0  0  0  0
 10 12  1  0  0  0  0
 10 26  1  0  0  0  0
 11 27  1  0  0  0  0
 11 28  1  0  0  0  0
 12 13  1  0  0  0  0
 12 29  1  0  0  0  0
 12 30  1  0  0  0  0
 13 31  1  0  0  0  0
 13 32  1  0  0  0  0
 14 15  1  0  0  0  0
 15 34  1  0  0  0  0
 15 35  1  0  0  0  0
 16 17  1  0  0  0  0
 16 18  1  0  0  0  0
 16 36  1  0  0  0  0
 16 37  1  0  0  0  0
 17 19  1  0  0  0  0
 17 38  1  0  0  0  0
 17 39  1  0  0  0  0
 20 21  1  0  0  0  0
 20 22  2  0  0  0  0
 21 23  2  0  0  0  0
 22 24  1  0  0  0  0
 22 40  1  0  0  0  0
 23 25  1  0  0  0  0
 23 41  1  0  0  0  0
 24 25  2  0  0  0  0
 24 42  1  0  0  0  0
 25 43  1  0  0  0  0
M  END
> <PUBCHEM_COMPOUND_CID>
7846942

> <PUBCHEM_CONFORMER_RMSD>
1.2

> <PUBCHEM_CONFORMER_DIVERSEORDER>
1
51
23
16
35
72
132
126
82
140
54
151
104
163
98
141
103
139
144
20
80
2
36
60
5
109
155
40
9
105
62
69
110
152
47
78
25
49
173
85
17
134
56
94
129
22
153
15
112
118
157
146
21
44
91
136
26
120
124
11
90
43
135
79
123
99
7
77
84
53
19
142
168
59
167
115
83
58
116
122
160
121
100
71
154
170
92
34
174
117
10
95
8
63
164
37
172
169
31
149
65
86
107
74
161
52
133
93
119
61
147
64
138
97
75
145
111
30
127
143
27
45
24
166
165
125
12
3
128
14
57
81
148
29
32
108
39
89
137
159
55
50
87
101
66
156
76
67
96
158
41
70
13
28
33
4
130
171
18
162
68
88
150
73
102
131
48
46
6
106
114
113
38
42

> <PUBCHEM_MMFF94_PARTIAL_CHARGES>
29
1 1.09
10 0.3
11 0.11
13 0.11
14 0.57
15 0.34
16 0.06
17 0.18
18 0.66
19 0.2
2 -0.08
20 0.04
21 0.23
22 -0.15
23 -0.15
24 -0.15
25 -0.15
3 -0.65
33 0.37
4 -0.65
40 0.15
41 0.15
42 0.15
43 0.15
5 -0.43
6 -0.57
7 -0.57
8 -0.73
9 -0.57

> <PUBCHEM_EFFECTIVE_ROTOR_COUNT>
8.8

> <PUBCHEM_PHARMACOPHORE_FEATURES>
9
1 3 acceptor
1 4 acceptor
1 6 acceptor
1 7 acceptor
1 8 donor
1 9 acceptor
5 1 10 11 12 13 rings
5 2 9 19 20 21 rings
6 20 21 22 23 24 25 rings

> <PUBCHEM_HEAVY_ATOM_COUNT>
25

> <PUBCHEM_ATOM_DEF_STEREO_COUNT>
1

> <PUBCHEM_ATOM_UDEF_STEREO_COUNT>
0

> <PUBCHEM_BOND_DEF_STEREO_COUNT>
0

> <PUBCHEM_BOND_UDEF_STEREO_COUNT>
0

> <PUBCHEM_ISOTOPIC_ATOM_COUNT>
0

> <PUBCHEM_COMPONENT_COUNT>
1

> <PUBCHEM_CACTVS_TAUTO_COUNT>
4

> <PUBCHEM_CONFORMER_ID>
0077BC1E00000001

> <PUBCHEM_MMFF94_ENERGY>
34.3028

> <PUBCHEM_FEATURE_SELFOVERLAP>
45.757

> <PUBCHEM_SHAPE_FINGERPRINT>
10498660 4 18410855490393490462
10670039 82 18339345389544593100
108634 29 18190743231438083614
11112241 14 16879656798554963505
11370993 70 17981331410389255660
11595378 159 18131078151225774714
12035758 1 18341600539390739937
12156800 1 14251480707154846528
12403259 226 18189614015742576526
12422481 6 18264749018620647963
12633257 1 18117832433298076554
12645989 146 18187083987826852502
13122387 1 18410290311294234684
13402501 40 18334016111511722890
14081887 123 18267583683396809383
14363568 33 17690829069504970216
20715895 44 17841439442566180125
21623110 236 18261386733041807825
23559900 14 18336545031738232022
238 59 17613459034819049836
3187 122 18268160772424546322
3524813 1 17967536722980184002
3680242 22 18340756122470150747
508706 21 18121215647804072214
9925002 15 16882175668136065175
9981440 41 17696192891289459801

> <PUBCHEM_SHAPE_MULTIPOLES>
482.88
8.83
4.63
1.37
6.89
1.67
-0.13
-2.84
1.39
-2.54
-0.34
0.2
0.03
1.53

> <PUBCHEM_SHAPE_SELFOVERLAP>
995.259

> <PUBCHEM_SHAPE_VOLUME>
277.2

> <PUBCHEM_COORDINATE_TYPE>
2
5
10

$$$$

