3488
  -OEChem-06251223273D

 61 63  0     0  0  0  0  0  0999 V2000
    3.1470    0.0558   -4.0837 Cl  0  0  0  0  0  0  0  0  0  0  0  0
   -4.0776    1.3631   -0.3981 S   0  0  0  0  0  0  0  0  0  0  0  0
   -2.4784   -0.9169   -1.7731 O   0  0  0  0  0  0  0  0  0  0  0  0
   -4.2743    1.3435   -1.8347 O   0  0  0  0  0  0  0  0  0  0  0  0
   -5.1090    1.8834    0.4784 O   0  0  0  0  0  0  0  0  0  0  0  0
    1.9730    0.8376    1.9591 O   0  0  0  0  0  0  0  0  0  0  0  0
    3.5342   -1.2547    1.6291 O   0  0  0  0  0  0  0  0  0  0  0  0
   -2.6516   -2.3243    0.0526 N   0  0  0  0  0  0  0  0  0  0  0  0
   -3.6209   -0.1965    0.1324 N   0  0  0  0  0  0  0  0  0  0  0  0
    2.4795    2.5797    0.5136 N   0  0  0  0  0  0  0  0  0  0  0  0
   -1.9155   -3.4350   -0.5090 C   0  0  0  0  0  0  0  0  0  0  0  0
   -2.4497   -4.7719    0.0160 C   0  0  0  0  0  0  0  0  0  0  0  0
   -0.4136   -3.2928   -0.2400 C   0  0  0  0  0  0  0  0  0  0  0  0
   -2.0895   -5.0103    1.4824 C   0  0  0  0  0  0  0  0  0  0  0  0
   -0.0567   -3.5336    1.2268 C   0  0  0  0  0  0  0  0  0  0  0  0
   -0.5891   -4.8746    1.7230 C   0  0  0  0  0  0  0  0  0  0  0  0
   -2.8734   -1.1463   -0.6339 C   0  0  0  0  0  0  0  0  0  0  0  0
   -2.6061    2.2808   -0.0567 C   0  0  0  0  0  0  0  0  0  0  0  0
   -0.3015    3.7187    0.4775 C   0  0  0  0  0  0  0  0  0  0  0  0
    0.9398    4.4938    0.7652 C   0  0  0  0  0  0  0  0  0  0  0  0
   -1.6285    2.3773   -1.0318 C   0  0  0  0  0  0  0  0  0  0  0  0
   -2.4586    2.8861    1.1794 C   0  0  0  0  0  0  0  0  0  0  0  0
   -0.4671    3.1019   -0.7626 C   0  0  0  0  0  0  0  0  0  0  0  0
   -1.2973    3.6104    1.4486 C   0  0  0  0  0  0  0  0  0  0  0  0
    2.0617    3.6484    1.3808 C   0  0  0  0  0  0  0  0  0  0  0  0
    2.3992    1.2418    0.8804 C   0  0  0  0  0  0  0  0  0  0  0  0
    2.8958    0.2599   -0.1178 C   0  0  0  0  0  0  0  0  0  0  0  0
    3.4369   -0.9365    0.3074 C   0  0  0  0  0  0  0  0  0  0  0  0
    2.7965    0.5865   -1.4558 C   0  0  0  0  0  0  0  0  0  0  0  0
    3.8978   -1.8454   -0.6453 C   0  0  0  0  0  0  0  0  0  0  0  0
    3.2576   -0.3223   -2.4083 C   0  0  0  0  0  0  0  0  0  0  0  0
    3.8080   -1.5383   -2.0031 C   0  0  0  0  0  0  0  0  0  0  0  0
    4.7312   -0.8695    2.3015 C   0  0  0  0  0  0  0  0  0  0  0  0
   -2.0694   -3.4107   -1.5951 H   0  0  0  0  0  0  0  0  0  0  0  0
   -3.5388   -4.8198   -0.1030 H   0  0  0  0  0  0  0  0  0  0  0  0
   -2.0276   -5.5860   -0.5871 H   0  0  0  0  0  0  0  0  0  0  0  0
    0.1289   -4.0202   -0.8574 H   0  0  0  0  0  0  0  0  0  0  0  0
   -0.0600   -2.2989   -0.5401 H   0  0  0  0  0  0  0  0  0  0  0  0
   -2.4172   -6.0133    1.7791 H   0  0  0  0  0  0  0  0  0  0  0  0
   -2.6295   -4.3028    2.1227 H   0  0  0  0  0  0  0  0  0  0  0  0
   -0.4660   -2.7251    1.8447 H   0  0  0  0  0  0  0  0  0  0  0  0
    1.0321   -3.5034    1.3480 H   0  0  0  0  0  0  0  0  0  0  0  0
   -0.0628   -5.6878    1.2081 H   0  0  0  0  0  0  0  0  0  0  0  0
   -0.3755   -4.9835    2.7922 H   0  0  0  0  0  0  0  0  0  0  0  0
   -2.9825   -2.3880    1.0102 H   0  0  0  0  0  0  0  0  0  0  0  0
   -3.9469   -0.4850    1.0634 H   0  0  0  0  0  0  0  0  0  0  0  0
    1.3000    4.9599   -0.1617 H   0  0  0  0  0  0  0  0  0  0  0  0
    0.7081    5.3277    1.4401 H   0  0  0  0  0  0  0  0  0  0  0  0
   -1.7369    1.9020   -2.0016 H   0  0  0  0  0  0  0  0  0  0  0  0
   -3.2174    2.8070    1.9515 H   0  0  0  0  0  0  0  0  0  0  0  0
    0.2986    3.1800   -1.5298 H   0  0  0  0  0  0  0  0  0  0  0  0
   -1.1782    4.0829    2.4201 H   0  0  0  0  0  0  0  0  0  0  0  0
    1.7471    3.2489    2.3511 H   0  0  0  0  0  0  0  0  0  0  0  0
    2.9397    4.2803    1.5527 H   0  0  0  0  0  0  0  0  0  0  0  0
    2.9273    2.8498   -0.3557 H   0  0  0  0  0  0  0  0  0  0  0  0
    2.3423    1.5115   -1.7979 H   0  0  0  0  0  0  0  0  0  0  0  0
    4.3266   -2.7952   -0.3371 H   0  0  0  0  0  0  0  0  0  0  0  0
    4.1707   -2.2564   -2.7342 H   0  0  0  0  0  0  0  0  0  0  0  0
    4.8904    0.2111    2.2298 H   0  0  0  0  0  0  0  0  0  0  0  0
    4.6328   -1.1387    3.3566 H   0  0  0  0  0  0  0  0  0  0  0  0
    5.5906   -1.4029    1.8831 H   0  0  0  0  0  0  0  0  0  0  0  0
  1 31  1  0  0  0  0
  2  4  2  0  0  0  0
  2  5  2  0  0  0  0
  2  9  1  0  0  0  0
  2 18  1  0  0  0  0
  3 17  2  0  0  0  0
  6 26  2  0  0  0  0
  7 28  1  0  0  0  0
  7 33  1  0  0  0  0
  8 11  1  0  0  0  0
  8 17  1  0  0  0  0
  8 45  1  0  0  0  0
  9 17  1  0  0  0  0
  9 46  1  0  0  0  0
 10 25  1  0  0  0  0
 10 26  1  0  0  0  0
 10 55  1  0  0  0  0
 11 12  1  0  0  0  0
 11 13  1  0  0  0  0
 11 34  1  0  0  0  0
 12 14  1  0  0  0  0
 12 35  1  0  0  0  0
 12 36  1  0  0  0  0
 13 15  1  0  0  0  0
 13 37  1  0  0  0  0
 13 38  1  0  0  0  0
 14 16  1  0  0  0  0
 14 39  1  0  0  0  0
 14 40  1  0  0  0  0
 15 16  1  0  0  0  0
 15 41  1  0  0  0  0
 15 42  1  0  0  0  0
 16 43  1  0  0  0  0
 16 44  1  0  0  0  0
 18 21  2  0  0  0  0
 18 22  1  0  0  0  0
 19 20  1  0  0  0  0
 19 23  2  0  0  0  0
 19 24  1  0  0  0  0
 20 25  1  0  0  0  0
 20 47  1  0  0  0  0
 20 48  1  0  0  0  0
 21 23  1  0  0  0  0
 21 49  1  0  0  0  0
 22 24  2  0  0  0  0
 22 50  1  0  0  0  0
 23 51  1  0  0  0  0
 24 52  1  0  0  0  0
 25 53  1  0  0  0  0
 25 54  1  0  0  0  0
 26 27  1  0  0  0  0
 27 28  2  0  0  0  0
 27 29  1  0  0  0  0
 28 30  1  0  0  0  0
 29 31  2  0  0  0  0
 29 56  1  0  0  0  0
 30 32  2  0  0  0  0
 30 57  1  0  0  0  0
 31 32  1  0  0  0  0
 32 58  1  0  0  0  0
 33 59  1  0  0  0  0
 33 60  1  0  0  0  0
 33 61  1  0  0  0  0
M  END
> <PUBCHEM_COMPOUND_CID>
3488

> <PUBCHEM_CONFORMER_RMSD>
1.2

> <PUBCHEM_CONFORMER_DIVERSEORDER>
1
20
262
30
173
259
111
165
106
132
100
134
144
160
243
80
177
244
226
163
228
246
77
158
145
97
251
25
47
195
213
86
62
15
50
254
99
52
250
185
184
209
182
152
109
211
56
113
234
205
214
258
5
180
74
153
221
203
240
55
224
197
157
206
151
255
146
191
37
83
38
117
223
198
179
32
170
28
22
35
21
190
196
161
245
155
140
148
156
96
229
14
33
137
115
238
107
82
183
122
81
167
218
116
178
51
252
19
200
90
242
93
119
110
45
46
189
88
260
18
23
131
133
263
207
147
34
193
257
11
59
17
129
87
53
208
222
164
70
91
166
174
101
118
172
256
249
187
58
192
44
89
60
94
57
142
149
175
201
169
219
104
139
85
71
210
75
48
215
123
39
61
98
42
253
159
171
150
124
241
176
73
67
186
41
181
217
108
63
247
92
235
49
188
261
65
29
162
143
68
220
40
233
112
26
64
230
31
79
36
199
128
3
12
27
194
212
120
168
138
248
225
237
69
16
43
13
95
231
141
114
6
126
127
76
125
105
202
136
130
232
239
154
2
66
204
10
236
8
84
121
135
102
78
54
9
227
72
7
103
216
4
24

> <PUBCHEM_MMFF94_PARTIAL_CHARGES>
38
1 -0.18
10 -0.73
11 0.3
17 0.87
18 -0.01
19 -0.14
2 1.45
20 0.14
21 -0.15
22 -0.15
23 -0.15
24 -0.15
25 0.3
26 0.54
27 0.09
28 0.08
29 -0.15
3 -0.57
30 -0.15
31 0.18
32 -0.15
33 0.28
4 -0.65
45 0.37
46 0.42
49 0.15
5 -0.65
50 0.15
51 0.15
52 0.15
55 0.37
56 0.15
57 0.15
58 0.15
6 -0.57
7 -0.36
8 -0.73
9 -0.79

> <PUBCHEM_EFFECTIVE_ROTOR_COUNT>
12.2

> <PUBCHEM_PHARMACOPHORE_FEATURES>
11
1 10 donor
1 3 acceptor
1 4 acceptor
1 5 acceptor
1 6 acceptor
1 7 acceptor
1 8 donor
1 9 donor
6 11 12 13 14 15 16 rings
6 18 19 21 22 23 24 rings
6 27 28 29 30 31 32 rings

> <PUBCHEM_HEAVY_ATOM_COUNT>
33

> <PUBCHEM_ATOM_DEF_STEREO_COUNT>
0

> <PUBCHEM_ATOM_UDEF_STEREO_COUNT>
0

> <PUBCHEM_BOND_DEF_STEREO_COUNT>
0

> <PUBCHEM_BOND_UDEF_STEREO_COUNT>
0

> <PUBCHEM_ISOTOPIC_ATOM_COUNT>
0

> <PUBCHEM_COMPONENT_COUNT>
1

> <PUBCHEM_CACTVS_TAUTO_COUNT>
6

> <PUBCHEM_CONFORMER_ID>
00000DA000000001

> <PUBCHEM_MMFF94_ENERGY>
56.3205

> <PUBCHEM_FEATURE_SELFOVERLAP>
55.89

> <PUBCHEM_SHAPE_FINGERPRINT>
12788726 201 18056744443438399703
13122387 1 16895682554149371315
14251757 5 18265594607223218166
144659 178 18339933709627329202
14725015 67 18265070170220505537
161222 619 15966791392578459938
17627616 140 17402604646293845127
20764821 26 18410293631166479498
394071 54 17113803099854378099
42626532 9 18190153781926888102
4394409 98 17984164796251568253
445580 102 17617388277154773357
474144 1 16538456740796298910
5081480 168 17322625775410677534
5309563 4 17113544710436684619
6287921 2 16748997231974642190

> <PUBCHEM_SHAPE_MULTIPOLES>
640.55
8.32
7.8
2.58
0.5
4.38
1.78
0.71
1.73
-6.02
-4.34
3.33
0.41
1.08

> <PUBCHEM_SHAPE_SELFOVERLAP>
1324.833

> <PUBCHEM_SHAPE_VOLUME>
365.7

> <PUBCHEM_COORDINATE_TYPE>
2
5
10

$$$$

