13198
  -OEChem-06261207533D

 17 17  0     1  0  0  0  0  0999 V2000
    2.3141   -0.0035    0.3090 O   0  0  0  0  0  0  0  0  0  0  0  0
    0.2929   -1.2763    0.1617 C   0  0  0  0  0  0  0  0  0  0  0  0
   -1.1753   -1.2191   -0.2449 C   0  0  0  0  0  0  0  0  0  0  0  0
    1.0669   -0.0690   -0.3776 C   0  0  1  0  0  0  0  0  0  0  0  0
   -1.8395    0.0623    0.2653 C   0  0  0  0  0  0  0  0  0  0  0  0
    0.3230    1.2245   -0.2074 C   0  0  0  0  0  0  0  0  0  0  0  0
   -0.9820    1.2811    0.0940 C   0  0  0  0  0  0  0  0  0  0  0  0
    0.3745   -1.3206    1.2562 H   0  0  0  0  0  0  0  0  0  0  0  0
    0.7535   -2.2008   -0.2071 H   0  0  0  0  0  0  0  0  0  0  0  0
   -1.7100   -2.0927    0.1447 H   0  0  0  0  0  0  0  0  0  0  0  0
   -1.2509   -1.2616   -1.3390 H   0  0  0  0  0  0  0  0  0  0  0  0
    1.2815   -0.2153   -1.4428 H   0  0  0  0  0  0  0  0  0  0  0  0
   -2.0790   -0.0442    1.3301 H   0  0  0  0  0  0  0  0  0  0  0  0
   -2.7882    0.2070   -0.2641 H   0  0  0  0  0  0  0  0  0  0  0  0
    0.8725    2.1518   -0.3435 H   0  0  0  0  0  0  0  0  0  0  0  0
   -1.4560    2.2504    0.2187 H   0  0  0  0  0  0  0  0  0  0  0  0
    2.8231    0.7337   -0.0695 H   0  0  0  0  0  0  0  0  0  0  0  0
  1  4  1  0  0  0  0
  1 17  1  0  0  0  0
  2  3  1  0  0  0  0
  2  4  1  0  0  0  0
  2  8  1  0  0  0  0
  2  9  1  0  0  0  0
  3  5  1  0  0  0  0
  3 10  1  0  0  0  0
  3 11  1  0  0  0  0
  4  6  1  0  0  0  0
  4 12  1  0  0  0  0
  5  7  1  0  0  0  0
  5 13  1  0  0  0  0
  5 14  1  0  0  0  0
  6  7  2  0  0  0  0
  6 15  1  0  0  0  0
  7 16  1  0  0  0  0
M  END
> <PUBCHEM_COMPOUND_CID>
13198

> <PUBCHEM_CONFORMER_RMSD>
0.4

> <PUBCHEM_CONFORMER_DIVERSEORDER>
1

> <PUBCHEM_MMFF94_PARTIAL_CHARGES>
8
1 -0.68
15 0.15
16 0.15
17 0.4
4 0.42
5 0.14
6 -0.29
7 -0.29

> <PUBCHEM_EFFECTIVE_ROTOR_COUNT>
0.8

> <PUBCHEM_PHARMACOPHORE_FEATURES>
3
1 1 acceptor
1 1 donor
6 2 3 4 5 6 7 rings

> <PUBCHEM_HEAVY_ATOM_COUNT>
7

> <PUBCHEM_ATOM_DEF_STEREO_COUNT>
0

> <PUBCHEM_ATOM_UDEF_STEREO_COUNT>
1

> <PUBCHEM_BOND_DEF_STEREO_COUNT>
0

> <PUBCHEM_BOND_UDEF_STEREO_COUNT>
0

> <PUBCHEM_ISOTOPIC_ATOM_COUNT>
0

> <PUBCHEM_COMPONENT_COUNT>
1

> <PUBCHEM_CACTVS_TAUTO_COUNT>
1

> <PUBCHEM_CONFORMER_ID>
0000338E00000001

> <PUBCHEM_MMFF94_ENERGY>
0.6031

> <PUBCHEM_FEATURE_SELFOVERLAP>
15.223

> <PUBCHEM_SHAPE_FINGERPRINT>
16714656 1 18410284826647059614
18185500 45 18340207397121378687
20096714 4 18121494923567590323
21040471 1 18194394713389718317
23552423 10 18272643589074761254
29004967 10 17917419939045278641

> <PUBCHEM_SHAPE_MULTIPOLES>
138.19
2.22
1.54
0.66
0.57
0.01
-0.02
-0.04
0.23
-0.3
-0.04
0
-0.01
-0.09

> <PUBCHEM_SHAPE_SELFOVERLAP>
268.389

> <PUBCHEM_SHAPE_VOLUME>
83

> <PUBCHEM_COORDINATE_TYPE>
2
5
10

$$$$

