14073
  -OEChem-06241222413D

 11 11  0     0  0  0  0  0  0999 V2000
    0.2177    0.0006   -0.5357 N   0  0  0  0  0  0  0  0  0  0  0  0
   -0.8306    0.7501    0.1446 C   0  0  0  0  0  0  0  0  0  0  0  0
   -0.8298   -0.7506    0.1441 C   0  0  0  0  0  0  0  0  0  0  0  0
    1.4428    0.0000    0.2470 C   0  0  0  0  0  0  0  0  0  0  0  0
   -1.5377    1.2552   -0.5004 H   0  0  0  0  0  0  0  0  0  0  0  0
   -0.5909    1.2696    1.0632 H   0  0  0  0  0  0  0  0  0  0  0  0
   -0.5898   -1.2705    1.0624 H   0  0  0  0  0  0  0  0  0  0  0  0
   -1.5363   -1.2560   -0.5013 H   0  0  0  0  0  0  0  0  0  0  0  0
    2.0405    0.8816   -0.0090 H   0  0  0  0  0  0  0  0  0  0  0  0
    2.0397   -0.8822   -0.0088 H   0  0  0  0  0  0  0  0  0  0  0  0
    1.3070    0.0002    1.3364 H   0  0  0  0  0  0  0  0  0  0  0  0
  1  2  1  0  0  0  0
  1  3  1  0  0  0  0
  1  4  1  0  0  0  0
  2  3  1  0  0  0  0
  2  5  1  0  0  0  0
  2  6  1  0  0  0  0
  3  7  1  0  0  0  0
  3  8  1  0  0  0  0
  4  9  1  0  0  0  0
  4 10  1  0  0  0  0
  4 11  1  0  0  0  0
M  END
> <PUBCHEM_COMPOUND_CID>
14073

> <PUBCHEM_CONFORMER_RMSD>
0.4

> <PUBCHEM_CONFORMER_DIVERSEORDER>
1

> <PUBCHEM_MMFF94_PARTIAL_CHARGES>
8
1 -0.59
2 -0.04
3 -0.04
4 0.27
5 0.1
6 0.1
7 0.1
8 0.1

> <PUBCHEM_EFFECTIVE_ROTOR_COUNT>
0.6

> <PUBCHEM_PHARMACOPHORE_FEATURES>
1
1 1 cation

> <PUBCHEM_HEAVY_ATOM_COUNT>
4

> <PUBCHEM_ATOM_DEF_STEREO_COUNT>
0

> <PUBCHEM_ATOM_UDEF_STEREO_COUNT>
0

> <PUBCHEM_BOND_DEF_STEREO_COUNT>
0

> <PUBCHEM_BOND_UDEF_STEREO_COUNT>
0

> <PUBCHEM_ISOTOPIC_ATOM_COUNT>
0

> <PUBCHEM_COMPONENT_COUNT>
1

> <PUBCHEM_CACTVS_TAUTO_COUNT>
1

> <PUBCHEM_CONFORMER_ID>
000036F900000001

> <PUBCHEM_MMFF94_ENERGY>
9.8018

> <PUBCHEM_FEATURE_SELFOVERLAP>
5.074

> <PUBCHEM_SHAPE_FINGERPRINT>
139733 1 8213606396470956107
20096714 4 18188491409801246032
21015797 1 9075796084512232765
5943 1 5830355363580158541

> <PUBCHEM_SHAPE_MULTIPOLES>
77.34
1.53
0.9
0.68
0.53
0
0
0
-0.16
-0.25
-0.05
0.02
0
0

> <PUBCHEM_SHAPE_SELFOVERLAP>
137.122

> <PUBCHEM_SHAPE_VOLUME>
53

> <PUBCHEM_COORDINATE_TYPE>
2
5
10

$$$$

