17396386
  -OEChem-06241222563D

 40 42  0     0  0  0  0  0  0999 V2000
    1.1374    0.3081   -2.0398 O   0  0  0  0  0  0  0  0  0  0  0  0
   -4.0101    1.3341    2.1576 O   0  0  0  0  0  0  0  0  0  0  0  0
    0.4892    1.8912   -0.4280 N   0  0  0  0  0  0  0  0  0  0  0  0
    4.6819   -0.7258   -0.0322 N   0  0  0  0  0  0  0  0  0  0  0  0
   -2.0115    0.1837   -1.1214 N   0  0  0  0  0  0  0  0  0  0  0  0
   -2.4074    1.7988    0.5863 N   0  0  0  0  0  0  0  0  0  0  0  0
    6.7691   -0.5747    0.7114 N   0  0  0  0  0  0  0  0  0  0  0  0
   -0.7261    2.2732   -1.0681 C   0  0  0  0  0  0  0  0  0  0  0  0
    2.6060    0.6202   -0.1720 C   0  0  0  0  0  0  0  0  0  0  0  0
    3.4884   -0.4446   -0.8221 C   0  0  0  0  0  0  0  0  0  0  0  0
    1.3502    0.9083   -0.9830 C   0  0  0  0  0  0  0  0  0  0  0  0
   -1.7893    1.3793   -0.4795 C   0  0  0  0  0  0  0  0  0  0  0  0
   -2.9805   -0.6869   -0.6190 C   0  0  0  0  0  0  0  0  0  0  0  0
   -3.6972   -0.3132    0.5261 C   0  0  0  0  0  0  0  0  0  0  0  0
    0.8032    2.5714    0.8405 C   0  0  0  0  0  0  0  0  0  0  0  0
   -3.3862    1.0020    1.1544 C   0  0  0  0  0  0  0  0  0  0  0  0
   -3.2537   -1.9148   -1.2274 C   0  0  0  0  0  0  0  0  0  0  0  0
    4.7979   -1.6673    0.9514 C   0  0  0  0  0  0  0  0  0  0  0  0
   -4.6760   -1.1554    1.0606 C   0  0  0  0  0  0  0  0  0  0  0  0
    5.8903   -0.0954   -0.1405 C   0  0  0  0  0  0  0  0  0  0  0  0
   -4.2308   -2.7580   -0.6955 C   0  0  0  0  0  0  0  0  0  0  0  0
   -4.9394   -2.3791    0.4452 C   0  0  0  0  0  0  0  0  0  0  0  0
    6.0947   -1.5553    1.3948 C   0  0  0  0  0  0  0  0  0  0  0  0
   -0.9512    3.3303   -0.8966 H   0  0  0  0  0  0  0  0  0  0  0  0
   -0.6601    2.1023   -2.1477 H   0  0  0  0  0  0  0  0  0  0  0  0
    3.1817    1.5465   -0.0683 H   0  0  0  0  0  0  0  0  0  0  0  0
    2.3112    0.2842    0.8285 H   0  0  0  0  0  0  0  0  0  0  0  0
    3.8232   -0.1291   -1.8173 H   0  0  0  0  0  0  0  0  0  0  0  0
    2.9469   -1.3906   -0.9405 H   0  0  0  0  0  0  0  0  0  0  0  0
   -1.4921   -0.0916   -1.9464 H   0  0  0  0  0  0  0  0  0  0  0  0
    1.7747    3.0649    0.7553 H   0  0  0  0  0  0  0  0  0  0  0  0
    0.8383    1.8289    1.6424 H   0  0  0  0  0  0  0  0  0  0  0  0
    0.0467    3.3231    1.0828 H   0  0  0  0  0  0  0  0  0  0  0  0
   -2.7098   -2.2233   -2.1164 H   0  0  0  0  0  0  0  0  0  0  0  0
    3.9794   -2.3111    1.2418 H   0  0  0  0  0  0  0  0  0  0  0  0
   -5.2387   -0.8788    1.9475 H   0  0  0  0  0  0  0  0  0  0  0  0
    6.0697    0.7001   -0.8509 H   0  0  0  0  0  0  0  0  0  0  0  0
   -4.4400   -3.7119   -1.1710 H   0  0  0  0  0  0  0  0  0  0  0  0
   -5.6986   -3.0391    0.8549 H   0  0  0  0  0  0  0  0  0  0  0  0
    6.5765   -2.1303    2.1720 H   0  0  0  0  0  0  0  0  0  0  0  0
  1 11  2  0  0  0  0
  2 16  2  0  0  0  0
  3  8  1  0  0  0  0
  3 11  1  0  0  0  0
  3 15  1  0  0  0  0
  4 10  1  0  0  0  0
  4 18  1  0  0  0  0
  4 20  1  0  0  0  0
  5 12  1  0  0  0  0
  5 13  1  0  0  0  0
  5 30  1  0  0  0  0
  6 12  2  0  0  0  0
  6 16  1  0  0  0  0
  7 20  2  0  0  0  0
  7 23  1  0  0  0  0
  8 12  1  0  0  0  0
  8 24  1  0  0  0  0
  8 25  1  0  0  0  0
  9 10  1  0  0  0  0
  9 11  1  0  0  0  0
  9 26  1  0  0  0  0
  9 27  1  0  0  0  0
 10 28  1  0  0  0  0
 10 29  1  0  0  0  0
 13 14  1  0  0  0  0
 13 17  2  0  0  0  0
 14 16  1  0  0  0  0
 14 19  2  0  0  0  0
 15 31  1  0  0  0  0
 15 32  1  0  0  0  0
 15 33  1  0  0  0  0
 17 21  1  0  0  0  0
 17 34  1  0  0  0  0
 18 23  2  0  0  0  0
 18 35  1  0  0  0  0
 19 22  1  0  0  0  0
 19 36  1  0  0  0  0
 20 37  1  0  0  0  0
 21 22  2  0  0  0  0
 21 38  1  0  0  0  0
 22 39  1  0  0  0  0
 23 40  1  0  0  0  0
M  END
> <PUBCHEM_COMPOUND_CID>
17396386

> <PUBCHEM_CONFORMER_RMSD>
1

> <PUBCHEM_CONFORMER_DIVERSEORDER>
1
233
120
32
122
216
210
6
145
113
186
153
193
106
246
51
236
228
98
24
56
180
44
218
163
171
83
19
136
85
201
187
170
188
89
165
103
206
109
129
168
79
3
217
234
189
80
74
41
127
69
172
31
139
143
50
184
212
202
107
155
160
47
34
221
190
183
222
46
198
213
150
164
238
204
211
84
105
203
21
73
126
224
123
7
36
169
148
78
100
243
207
244
49
138
18
231
158
39
33
200
185
125
72
55
159
137
104
102
20
205
14
70
97
226
52
37
173
17
199
90
194
5
178
225
247
237
167
176
219
40
63
239
241
245
15
4
91
182
162
141
65
30
43
61
135
62
77
195
54
140
197
134
101
119
60
192
232
13
174
209
29
124
12
96
67
240
82
66
166
128
146
10
35
58
156
71
147
25
181
117
152
53
196
223
64
132
11
48
142
95
151
2
118
112
242
93
144
38
99
57
76
215
16
68
87
8
191
110
133
230
214
75
27
45
23
235
94
149
28
154
220
208
157
81
131
114
88
229
116
59
121
130
111
22
177
175
92
9
86
161
179
26
108
115
227
42

> <PUBCHEM_MMFF94_PARTIAL_CHARGES>
31
1 -0.57
10 0.26
11 0.57
12 0.44
13 0.1
14 0.09
15 0.3
16 0.69
17 -0.15
18 -0.3
19 -0.15
2 -0.57
20 0.04
21 -0.15
22 -0.15
23 0.08
3 -0.66
30 0.4
34 0.15
35 0.15
36 0.15
37 0.15
38 0.15
39 0.15
4 0.05
40 0.15
5 -0.55
6 -0.66
7 -0.57
8 0.36
9 0.06

> <PUBCHEM_EFFECTIVE_ROTOR_COUNT>
6

> <PUBCHEM_PHARMACOPHORE_FEATURES>
8
1 1 acceptor
1 2 acceptor
1 5 donor
1 6 donor
3 4 7 20 cation
5 4 7 18 20 23 rings
6 13 14 17 19 21 22 rings
6 5 6 12 13 14 16 rings

> <PUBCHEM_HEAVY_ATOM_COUNT>
23

> <PUBCHEM_ATOM_DEF_STEREO_COUNT>
0

> <PUBCHEM_ATOM_UDEF_STEREO_COUNT>
0

> <PUBCHEM_BOND_DEF_STEREO_COUNT>
0

> <PUBCHEM_BOND_UDEF_STEREO_COUNT>
0

> <PUBCHEM_ISOTOPIC_ATOM_COUNT>
0

> <PUBCHEM_COMPONENT_COUNT>
1

> <PUBCHEM_CACTVS_TAUTO_COUNT>
3

> <PUBCHEM_CONFORMER_ID>
010972A200000001

> <PUBCHEM_MMFF94_ENERGY>
55.5142

> <PUBCHEM_FEATURE_SELFOVERLAP>
40.655

> <PUBCHEM_SHAPE_FINGERPRINT>
10319926 262 17531513347833545045
10591671 39 9151165459471540001
11370993 144 17023459888668734150
12523318 42 18113896091529111689
12596602 18 18187083958209506242
12633257 1 17095799911076512779
12892183 10 16805590525384411853
13103583 49 18334287686583684608
13383661 66 16338327521866124515
13994607 96 8358257068748644327
14178342 30 18114166571463384517
14251764 75 10374222646220189223
14347329 18 8790882974076639070
14844126 61 18410015468021095481
14848178 5 17989213637740129522
14950920 106 18040440983958095912
15163728 17 9583525342798501336
15183329 4 7709460516338712888
15415430 10 18412826871686808022
16110190 28 18260546680425241246
17349148 13 17560794477122673770
17780758 139 18259704510199985009
17857418 61 18272370871504523590
17870717 6 14046022992387422183
17913733 40 15502371253576623958
1813 80 18059841896684340700
19377110 9 18411134698223879764
19841028 212 18122066395407111771
20621476 91 18338248102361625370
21033648 29 15864334875033712225
21315759 148 17603862321813115886
22393880 68 13182735905799912324
23522609 53 18125407952930299948
270888 7 7637133541187400667
2838139 119 8214140755365255554
312425 54 18041554870947198570
314194 84 17918268758344106668
339767 52 18410298020950467655
3459 110 16516263828839510426
351380 3 18202283602245671554
3737641 26 18266458887877362634
4015057 19 15984807247904294228
4409770 3 18127417963112096013
445580 182 17967807280160395937
46194498 28 13757484722888795022
484985 159 18271536368217962191
4938544 92 18187643660519370233
5104073 3 18186795838301606489
5486654 36 18409443666087388121
559249 180 18342739637626321121
6431902 208 17917712422419217394
7288768 16 6338966593695637855
76465 3 18343584023210923980
7808743 9 8286206041336014087
7970288 3 18201438017543020899

> <PUBCHEM_SHAPE_MULTIPOLES>
436.69
14.74
2.81
1.53
20.4
0.04
0.12
-11.66
5.38
-2.3
0.17
-0.61
0.15
-1.86

> <PUBCHEM_SHAPE_SELFOVERLAP>
937.738

> <PUBCHEM_SHAPE_VOLUME>
241.7

> <PUBCHEM_COORDINATE_TYPE>
2
5
10

$$$$

