10602
  -OEChem-06261204443D

 11 10  0     0  0  0  0  0  0999 V2000
   -2.1160   -0.8943   -0.9295 O   0  5  0  0  0  0  0  0  0  0  0  0
    1.8327   -1.3850   -0.9294 O   0  5  0  0  0  0  0  0  0  0  0  0
    0.2833    2.2791   -0.9296 O   0  5  0  0  0  0  0  0  0  0  0  0
   -1.5083   -0.6272    1.1656 O   0  0  0  0  0  0  0  0  0  0  0  0
    1.2978   -0.9917    1.1653 O   0  0  0  0  0  0  0  0  0  0  0  0
    0.2108    1.6196    1.1652 O   0  0  0  0  0  0  0  0  0  0  0  0
   -1.3085   -0.5531   -0.0549 N   0  3  0  0  0  0  0  0  0  0  0  0
    1.1332   -0.8564   -0.0550 N   0  3  0  0  0  0  0  0  0  0  0  0
    0.1751    1.4093   -0.0551 N   0  3  0  0  0  0  0  0  0  0  0  0
   -0.0002   -0.0002   -0.5426 C   0  0  0  0  0  0  0  0  0  0  0  0
   -0.0002   -0.0003   -1.6376 H   0  0  0  0  0  0  0  0  0  0  0  0
  1  7  1  0  0  0  0
  2  8  1  0  0  0  0
  3  9  1  0  0  0  0
  4  7  2  0  0  0  0
  5  8  2  0  0  0  0
  6  9  2  0  0  0  0
  7 10  1  0  0  0  0
  8 10  1  0  0  0  0
  9 10  1  0  0  0  0
 10 11  1  0  0  0  0
M  CHG  6   1  -1   2  -1   3  -1   7   1   8   1   9   1
M  END
> <PUBCHEM_COMPOUND_CID>
10602

> <PUBCHEM_CONFORMER_RMSD>
0.6

> <PUBCHEM_CONFORMER_DIVERSEORDER>
1
4
3
2

> <PUBCHEM_MMFF94_PARTIAL_CHARGES>
10
1 -0.52
10 0.72
2 -0.52
3 -0.52
4 -0.52
5 -0.52
6 -0.52
7 0.8
8 0.8
9 0.8

> <PUBCHEM_EFFECTIVE_ROTOR_COUNT>
3

> <PUBCHEM_PHARMACOPHORE_FEATURES>
9
1 1 acceptor
1 1 anion
1 2 acceptor
1 2 anion
1 3 acceptor
1 3 anion
1 4 acceptor
1 5 acceptor
1 6 acceptor

> <PUBCHEM_HEAVY_ATOM_COUNT>
10

> <PUBCHEM_ATOM_DEF_STEREO_COUNT>
0

> <PUBCHEM_ATOM_UDEF_STEREO_COUNT>
0

> <PUBCHEM_BOND_DEF_STEREO_COUNT>
0

> <PUBCHEM_BOND_UDEF_STEREO_COUNT>
0

> <PUBCHEM_ISOTOPIC_ATOM_COUNT>
0

> <PUBCHEM_COMPONENT_COUNT>
1

> <PUBCHEM_CACTVS_TAUTO_COUNT>
2

> <PUBCHEM_CONFORMER_ID>
0000296A00000001

> <PUBCHEM_MMFF94_ENERGY>
19.9279

> <PUBCHEM_FEATURE_SELFOVERLAP>
45.923

> <PUBCHEM_SHAPE_FINGERPRINT>
12423570 1 14510352361649819814
137420 1 15675299160473468994
20653091 64 18340764828326648515
21040471 1 17184478616016978493
23552449 11 18194427531498759495
29004967 10 18340757183005468506
5084963 1 17404023626015287305

> <PUBCHEM_SHAPE_MULTIPOLES>
155.64
1.95
1.94
1.18
0.56
1.26
-0.22
-1.26
0.25
-0.56
0.25
0
0
0

> <PUBCHEM_SHAPE_SELFOVERLAP>
300.148

> <PUBCHEM_SHAPE_VOLUME>
92.1

> <PUBCHEM_COORDINATE_TYPE>
2
5
10

$$$$

