17395423
  -OEChem-06241222503D

 32 33  0     0  0  0  0  0  0999 V2000
    4.8099   -1.7459   -1.2892 Br  0  0  0  0  0  0  0  0  0  0  0  0
    5.0814    1.1328   -0.1153 O   0  0  0  0  0  0  0  0  0  0  0  0
   -0.4088   -1.9562    0.1694 O   0  0  0  0  0  0  0  0  0  0  0  0
   -1.1871    0.2614    0.1125 N   0  0  0  0  0  0  0  0  0  0  0  0
   -3.3597    0.9875   -0.4705 N   0  0  0  0  0  0  0  0  0  0  0  0
    1.1724   -0.2576    0.0609 C   0  0  0  0  0  0  0  0  0  0  0  0
   -0.2003   -0.7331    0.1280 C   0  0  0  0  0  0  0  0  0  0  0  0
   -2.5725    0.0736    0.1401 C   0  0  0  0  0  0  0  0  0  0  0  0
    2.1674   -1.0709   -0.4816 C   0  0  0  0  0  0  0  0  0  0  0  0
    1.4938    1.0127    0.5394 C   0  0  0  0  0  0  0  0  0  0  0  0
    3.8050    0.6565   -0.0673 C   0  0  0  0  0  0  0  0  0  0  0  0
    3.4838   -0.6139   -0.5457 C   0  0  0  0  0  0  0  0  0  0  0  0
    2.8101    1.4697    0.4753 C   0  0  0  0  0  0  0  0  0  0  0  0
   -4.6918    0.7634   -0.4180 C   0  0  0  0  0  0  0  0  0  0  0  0
   -3.0523   -1.0481    0.7971 C   0  0  0  0  0  0  0  0  0  0  0  0
   -5.2709   -0.3259    0.2129 C   0  0  0  0  0  0  0  0  0  0  0  0
   -4.4285   -1.2443    0.8296 C   0  0  0  0  0  0  0  0  0  0  0  0
   -5.5655    1.7696   -1.0899 C   0  0  0  0  0  0  0  0  0  0  0  0
    5.9135    0.8687    1.0120 C   0  0  0  0  0  0  0  0  0  0  0  0
    1.9199   -2.0600   -0.8608 H   0  0  0  0  0  0  0  0  0  0  0  0
    0.7565    1.6660    0.9971 H   0  0  0  0  0  0  0  0  0  0  0  0
   -0.9136    1.1982   -0.1725 H   0  0  0  0  0  0  0  0  0  0  0  0
    3.0539    2.4581    0.8554 H   0  0  0  0  0  0  0  0  0  0  0  0
   -2.4247   -1.7543    1.3265 H   0  0  0  0  0  0  0  0  0  0  0  0
   -6.3462   -0.4669    0.2338 H   0  0  0  0  0  0  0  0  0  0  0  0
   -4.8450   -2.1052    1.3440 H   0  0  0  0  0  0  0  0  0  0  0  0
   -6.2471    2.2262   -0.3653 H   0  0  0  0  0  0  0  0  0  0  0  0
   -4.9691    2.5687   -1.5425 H   0  0  0  0  0  0  0  0  0  0  0  0
   -6.1516    1.2954   -1.8834 H   0  0  0  0  0  0  0  0  0  0  0  0
    6.9319    1.1822    0.7667 H   0  0  0  0  0  0  0  0  0  0  0  0
    5.9261   -0.1971    1.2599 H   0  0  0  0  0  0  0  0  0  0  0  0
    5.5695    1.4463    1.8758 H   0  0  0  0  0  0  0  0  0  0  0  0
  1 12  1  0  0  0  0
  2 11  1  0  0  0  0
  2 19  1  0  0  0  0
  3  7  2  0  0  0  0
  4  7  1  0  0  0  0
  4  8  1  0  0  0  0
  4 22  1  0  0  0  0
  5  8  1  0  0  0  0
  5 14  2  0  0  0  0
  6  7  1  0  0  0  0
  6  9  2  0  0  0  0
  6 10  1  0  0  0  0
  8 15  2  0  0  0  0
  9 12  1  0  0  0  0
  9 20  1  0  0  0  0
 10 13  2  0  0  0  0
 10 21  1  0  0  0  0
 11 12  2  0  0  0  0
 11 13  1  0  0  0  0
 13 23  1  0  0  0  0
 14 16  1  0  0  0  0
 14 18  1  0  0  0  0
 15 17  1  0  0  0  0
 15 24  1  0  0  0  0
 16 17  2  0  0  0  0
 16 25  1  0  0  0  0
 17 26  1  0  0  0  0
 18 27  1  0  0  0  0
 18 28  1  0  0  0  0
 18 29  1  0  0  0  0
 19 30  1  0  0  0  0
 19 31  1  0  0  0  0
 19 32  1  0  0  0  0
M  END
> <PUBCHEM_COMPOUND_CID>
17395423

> <PUBCHEM_CONFORMER_RMSD>
0.6

> <PUBCHEM_CONFORMER_DIVERSEORDER>
1
8
11
3
2
10
4
9
5
6
7

> <PUBCHEM_MMFF94_PARTIAL_CHARGES>
26
1 -0.11
10 -0.15
11 0.08
12 0.11
13 -0.15
14 0.17
15 -0.15
16 -0.15
17 -0.15
18 0.14
19 0.28
2 -0.36
20 0.15
21 0.15
22 0.37
23 0.15
24 0.15
25 0.15
26 0.15
3 -0.57
4 -0.55
5 -0.62
6 0.09
7 0.54
8 0.43
9 -0.15

> <PUBCHEM_EFFECTIVE_ROTOR_COUNT>
4

> <PUBCHEM_PHARMACOPHORE_FEATURES>
7
1 1 hydrophobe
1 2 acceptor
1 3 acceptor
1 4 donor
1 5 acceptor
6 5 8 14 15 16 17 rings
6 6 9 10 11 12 13 rings

> <PUBCHEM_HEAVY_ATOM_COUNT>
19

> <PUBCHEM_ATOM_DEF_STEREO_COUNT>
0

> <PUBCHEM_ATOM_UDEF_STEREO_COUNT>
0

> <PUBCHEM_BOND_DEF_STEREO_COUNT>
0

> <PUBCHEM_BOND_UDEF_STEREO_COUNT>
0

> <PUBCHEM_ISOTOPIC_ATOM_COUNT>
0

> <PUBCHEM_COMPONENT_COUNT>
1

> <PUBCHEM_CACTVS_TAUTO_COUNT>
3

> <PUBCHEM_CONFORMER_ID>
01096EDF00000001

> <PUBCHEM_MMFF94_ENERGY>
69.7864

> <PUBCHEM_FEATURE_SELFOVERLAP>
35.52

> <PUBCHEM_SHAPE_FINGERPRINT>
10 15 18268155271394802048
10912923 1 15357694197388435642
11128504 68 15140961725465035672
11471102 20 18187362138687746414
12236239 1 16081082684237502891
12403259 415 18341887511318764975
12596602 18 13326563077906784133
12616971 3 14476960077587257326
12916748 109 18412821391240109384
13073987 5 17967806171684391018
13533116 47 17095518535469943790
13760787 5 17313098674385104223
14573314 32 18413384354057203871
15081414 286 18260820489096844816
15196674 1 18409727378399051323
15238133 3 16702302377602212540
15242439 84 18341045306686388543
16079462 125 18337121106605548064
17844677 252 18334847346718874349
18186145 218 18335693962203555859
19489759 90 17632298952234262355
200 152 17385441033792883259
20645477 56 18337674118141406594
20645477 70 18040989679020868366
21033648 29 18410302384616232497
21065201 7 18059856151659807043
21279426 13 18338232794428249815
220451 1 5328471392733686431
221357 26 18260269693695110269
22289505 5 18334295383703402404
23402539 116 18340212903227143836
23402655 69 18113900467895057653
23557571 272 18201438056329114237
23559900 14 18412544340053235811
2916195 48 18339367370353990992
29717793 49 17096082605713179092
300161 21 17822017492962816974
3004659 81 18342451582807536694
34934 24 18114187393939666862
351380 180 18411700980370023265
3545911 37 18260261915730402562
4072396 5 18260840302276275466
4214541 1 18343301466282145769
42630746 31 18040433296499456894
5104073 3 18059854030288627355
5281201 14 18410848858768936780
542803 24 15769771364454002007
633830 44 18202286879057772631
90127 26 18059846251549154065

> <PUBCHEM_SHAPE_MULTIPOLES>
375.25
14.43
1.78
1
2.94
0.19
-0.11
-2.85
-1.48
-0.69
-0.18
-0.01
0.04
2.42

> <PUBCHEM_SHAPE_SELFOVERLAP>
786.676

> <PUBCHEM_SHAPE_VOLUME>
217.7

> <PUBCHEM_COORDINATE_TYPE>
2
5
10

$$$$

