17395893
  -OEChem-06241222533D

 43 44  0     1  0  0  0  0  0999 V2000
   -5.3694   -0.1508    0.5880 S   0  0  0  0  0  0  0  0  0  0  0  0
    6.6024    0.5556    0.8276 F   0  0  0  0  0  0  0  0  0  0  0  0
    5.6859    1.8590   -0.6522 F   0  0  0  0  0  0  0  0  0  0  0  0
   -6.3570   -0.7430   -0.2900 O   0  0  0  0  0  0  0  0  0  0  0  0
   -5.4816   -0.2087    2.0305 O   0  0  0  0  0  0  0  0  0  0  0  0
   -1.3998    0.4834    1.4813 O   0  0  0  0  0  0  0  0  0  0  0  0
    3.0991   -2.3491    0.2804 O   0  0  0  0  0  0  0  0  0  0  0  0
    4.6449   -0.0663   -0.0729 O   0  0  0  0  0  0  0  0  0  0  0  0
   -1.7209    0.2800   -0.8263 N   0  0  0  0  0  0  0  0  0  0  0  0
   -3.1519    0.3690   -0.7433 C   0  0  1  0  0  0  0  0  0  0  0  0
   -3.7502   -0.7430    0.1173 C   0  0  0  0  0  0  0  0  0  0  0  0
   -3.6118    1.6851   -0.1112 C   0  0  0  0  0  0  0  0  0  0  0  0
   -5.1154    1.5484    0.0977 C   0  0  0  0  0  0  0  0  0  0  0  0
   -1.1607    0.1203   -2.1725 C   0  0  0  0  0  0  0  0  0  0  0  0
   -0.9477    0.3487    0.3449 C   0  0  0  0  0  0  0  0  0  0  0  0
   -1.0269   -1.3410   -2.5481 C   0  0  0  0  0  0  0  0  0  0  0  0
    0.5155    0.2365    0.2354 C   0  0  0  0  0  0  0  0  0  0  0  0
    1.1267   -1.0151    0.3094 C   0  0  0  0  0  0  0  0  0  0  0  0
    1.2913    1.3822    0.0587 C   0  0  0  0  0  0  0  0  0  0  0  0
    2.5138   -1.1212    0.2064 C   0  0  0  0  0  0  0  0  0  0  0  0
    2.6784    1.2761   -0.0439 C   0  0  0  0  0  0  0  0  0  0  0  0
    3.2896    0.0244    0.0299 C   0  0  0  0  0  0  0  0  0  0  0  0
    2.2350   -3.4692    0.4617 C   0  0  0  0  0  0  0  0  0  0  0  0
    5.4105    1.0386    0.3912 C   0  0  0  0  0  0  0  0  0  0  0  0
   -3.5886    0.2983   -1.7486 H   0  0  0  0  0  0  0  0  0  0  0  0
   -3.2073   -0.9584    1.0391 H   0  0  0  0  0  0  0  0  0  0  0  0
   -3.8600   -1.6740   -0.4458 H   0  0  0  0  0  0  0  0  0  0  0  0
   -3.1462    1.8832    0.8582 H   0  0  0  0  0  0  0  0  0  0  0  0
   -3.3807    2.5425   -0.7527 H   0  0  0  0  0  0  0  0  0  0  0  0
   -5.6578    1.7115   -0.8382 H   0  0  0  0  0  0  0  0  0  0  0  0
   -5.4952    2.2185    0.8717 H   0  0  0  0  0  0  0  0  0  0  0  0
   -1.7906    0.6523   -2.8944 H   0  0  0  0  0  0  0  0  0  0  0  0
   -0.1753    0.5918   -2.2214 H   0  0  0  0  0  0  0  0  0  0  0  0
   -0.3880   -1.8920   -1.8549 H   0  0  0  0  0  0  0  0  0  0  0  0
   -2.0052   -1.8331   -2.5532 H   0  0  0  0  0  0  0  0  0  0  0  0
   -0.5974   -1.4358   -3.5504 H   0  0  0  0  0  0  0  0  0  0  0  0
    0.4718   -1.8677    0.4565 H   0  0  0  0  0  0  0  0  0  0  0  0
    0.8238    2.3613   -0.0064 H   0  0  0  0  0  0  0  0  0  0  0  0
    3.2415    2.1897   -0.2091 H   0  0  0  0  0  0  0  0  0  0  0  0
    1.7050   -3.4194    1.4190 H   0  0  0  0  0  0  0  0  0  0  0  0
    1.5539   -3.5954   -0.3869 H   0  0  0  0  0  0  0  0  0  0  0  0
    2.8681   -4.3621    0.4958 H   0  0  0  0  0  0  0  0  0  0  0  0
    4.9550    1.5968    1.2169 H   0  0  0  0  0  0  0  0  0  0  0  0
  1  4  2  0  0  0  0
  1  5  2  0  0  0  0
  1 11  1  0  0  0  0
  1 13  1  0  0  0  0
  2 24  1  0  0  0  0
  3 24  1  0  0  0  0
  6 15  2  0  0  0  0
  7 20  1  0  0  0  0
  7 23  1  0  0  0  0
  8 22  1  0  0  0  0
  8 24  1  0  0  0  0
  9 10  1  0  0  0  0
  9 14  1  0  0  0  0
  9 15  1  0  0  0  0
 10 11  1  0  0  0  0
 10 12  1  0  0  0  0
 10 25  1  0  0  0  0
 11 26  1  0  0  0  0
 11 27  1  0  0  0  0
 12 13  1  0  0  0  0
 12 28  1  0  0  0  0
 12 29  1  0  0  0  0
 13 30  1  0  0  0  0
 13 31  1  0  0  0  0
 14 16  1  0  0  0  0
 14 32  1  0  0  0  0
 14 33  1  0  0  0  0
 15 17  1  0  0  0  0
 16 34  1  0  0  0  0
 16 35  1  0  0  0  0
 16 36  1  0  0  0  0
 17 18  2  0  0  0  0
 17 19  1  0  0  0  0
 18 20  1  0  0  0  0
 18 37  1  0  0  0  0
 19 21  2  0  0  0  0
 19 38  1  0  0  0  0
 20 22  2  0  0  0  0
 21 22  1  0  0  0  0
 21 39  1  0  0  0  0
 23 40  1  0  0  0  0
 23 41  1  0  0  0  0
 23 42  1  0  0  0  0
 24 43  1  0  0  0  0
M  END
> <PUBCHEM_COMPOUND_CID>
17395893

> <PUBCHEM_CONFORMER_RMSD>
0.8

> <PUBCHEM_CONFORMER_DIVERSEORDER>
3
263
224
24
127
217
146
309
85
128
266
161
105
300
337
235
178
125
211
307
254
325
208
152
286
221
252
281
319
344
339
304
330
329
130
167
171
173
276
289
214
301
303
251
113
202
69
249
234
209
277
287
273
296
203
264
244
237
194
200
336
242
279
231
121
259
232
156
220
87
212
149
155
340
197
142
283
262
162
163
174
341
239
323
236
63
192
145
183
267
88
274
190
193
182
332
314
111
107
137
278
184
154
291
227
247
31
248
316
101
334
147
169
94
269
241
189
103
326
256
275
210
138
257
122
222
268
61
135
108
216
186
56
89
206
104
80
150
253
187
158
114
68
131
168
73
151
215
238
50
272
298
219
48
245
97
179
91
315
38
181
177
265
45
134
118
328
258
338
320
191
58
16
228
308
164
310
292
102
72
106
324
17
261
270
345
207
123
47
226
54
133
280
285
141
165
86
195
180
148
282
223
317
199
20
140
109
170
39
92
230
313
327
14
27
243
23
98
59
90
229
120
126
60
185
233
333
294
116
311
35
70
66
288
96
78
41
255
312
124
40
318
46
26
331
205
198
260
37
166
246
159
22
55
240
82
284
297
119
81
172
160
201
293
44
225
132
33
143
62
271
204
321
153
34
302
95
49
175
64
57
305
136
290
213
157
4
93
343
299
53
115
25
11
28
30
295
306
43
176
112
83
18
335
9
13
52
144
75
15
250
188
84
42
100
129
79
36
218
1
322
342
71
5
32
51
67
19
196
2
77
74
29
139
65
117
6
21
8
12
76
99
7
10
110

> <PUBCHEM_MMFF94_PARTIAL_CHARGES>
25
1 1.09
10 0.3
11 0.11
13 0.11
14 0.3
15 0.54
17 0.09
18 -0.15
19 -0.15
2 -0.34
20 0.08
21 -0.15
22 0.08
23 0.28
24 0.96
3 -0.34
37 0.15
38 0.15
39 0.15
4 -0.65
5 -0.65
6 -0.57
7 -0.36
8 -0.36
9 -0.66

> <PUBCHEM_EFFECTIVE_ROTOR_COUNT>
7.8

> <PUBCHEM_PHARMACOPHORE_FEATURES>
7
1 4 acceptor
1 5 acceptor
1 6 acceptor
1 7 acceptor
1 8 acceptor
5 1 10 11 12 13 rings
6 17 18 19 20 21 22 rings

> <PUBCHEM_HEAVY_ATOM_COUNT>
24

> <PUBCHEM_ATOM_DEF_STEREO_COUNT>
0

> <PUBCHEM_ATOM_UDEF_STEREO_COUNT>
1

> <PUBCHEM_BOND_DEF_STEREO_COUNT>
0

> <PUBCHEM_BOND_UDEF_STEREO_COUNT>
0

> <PUBCHEM_ISOTOPIC_ATOM_COUNT>
0

> <PUBCHEM_COMPONENT_COUNT>
1

> <PUBCHEM_CACTVS_TAUTO_COUNT>
1

> <PUBCHEM_CONFORMER_ID>
010970B500000003

> <PUBCHEM_MMFF94_ENERGY>
76.7298

> <PUBCHEM_FEATURE_SELFOVERLAP>
35.541

> <PUBCHEM_SHAPE_FINGERPRINT>
10369192 42 18201716211760238612
12107183 9 17688588686130914009
12236239 1 17967249814553280481
12596602 18 17894908542542283227
12616971 3 18262534662384550590
12730499 353 18342731923459109794
12788726 201 17168422774170932617
12892183 10 18340764952970390349
13073987 5 18338795727782226233
13583140 156 18410581690950813821
13782708 43 17274824722315677674
14251764 18 18040150713452624577
14341114 176 18338791312529296409
15537594 2 18113623377995592798
17844677 252 18338792446195168073
18785283 64 17774149090264622460
19489759 90 12391520780300888557
20600515 1 16056583374922118149
20645477 70 18337672039372441262
20681677 155 17022907817820124254
21623969 137 18272083902911311338
22079108 93 18340772550735790864
22224240 67 18411706444185453162
23402539 116 15123513592660572547
23557571 272 16773802527554919068
23559900 14 18269839868556603251
314173 85 16558746849919658869
34797466 226 15864349109014637576
34934 24 18186527609325282782
4073 2 18131625695395048291
42630746 31 18410573998753953158
4325135 7 18272654527976376631
4340502 62 18342171167970355882
5104073 3 18200873014774002369
542803 24 17313101960188118617
621550 34 17989211477345173742
6913067 236 16128379276407560587
7226269 152 15213295331376109017
7495541 125 16845286108015083156
7970288 3 17692535932459067499
8272917 22 18339078302064823062

> <PUBCHEM_SHAPE_MULTIPOLES>
448.88
13.77
2.14
1.45
0.43
1.6
0.75
-3.66
-3.65
2.14
-0.13
-1.3
0.39
-0.4

> <PUBCHEM_SHAPE_SELFOVERLAP>
925.477

> <PUBCHEM_SHAPE_VOLUME>
261

> <PUBCHEM_COORDINATE_TYPE>
2
5
10

$$$$

