12265
  -OEChem-06261206442D

 16 16  0     0  0  0  0  0  0999 V2000
    3.7601   -0.4594    0.0000 N   0  0  0  0  0  0  0  0  0  0  0  0
    4.5691    0.1284    0.0000 C   0  0  0  0  0  0  0  0  0  0  0  0
    2.9511    0.1284    0.0000 C   0  0  0  0  0  0  0  0  0  0  0  0
    4.2601    1.0794    0.0000 C   0  0  0  0  0  0  0  0  0  0  0  0
    3.2601    1.0794    0.0000 C   0  0  0  0  0  0  0  0  0  0  0  0
    5.5202   -0.1807    0.0000 C   0  0  0  0  0  0  0  0  0  0  0  0
    2.0000   -0.1807    0.0000 C   0  0  0  0  0  0  0  0  0  0  0  0
    3.7601   -1.0794    0.0000 H   0  0  0  0  0  0  0  0  0  0  0  0
    4.6245    1.5810    0.0000 H   0  0  0  0  0  0  0  0  0  0  0  0
    2.8956    1.5810    0.0000 H   0  0  0  0  0  0  0  0  0  0  0  0
    5.3286   -0.7703    0.0000 H   0  0  0  0  0  0  0  0  0  0  0  0
    6.1098   -0.3722    0.0000 H   0  0  0  0  0  0  0  0  0  0  0  0
    5.7117    0.4090    0.0000 H   0  0  0  0  0  0  0  0  0  0  0  0
    1.8084    0.4090    0.0000 H   0  0  0  0  0  0  0  0  0  0  0  0
    1.4103   -0.3722    0.0000 H   0  0  0  0  0  0  0  0  0  0  0  0
    2.1916   -0.7703    0.0000 H   0  0  0  0  0  0  0  0  0  0  0  0
  1  2  1  0  0  0  0
  1  3  1  0  0  0  0
  1  8  1  0  0  0  0
  2  4  2  0  0  0  0
  2  6  1  0  0  0  0
  3  5  2  0  0  0  0
  3  7  1  0  0  0  0
  4  5  1  0  0  0  0
  4  9  1  0  0  0  0
  5 10  1  0  0  0  0
  6 11  1  0  0  0  0
  6 12  1  0  0  0  0
  6 13  1  0  0  0  0
  7 14  1  0  0  0  0
  7 15  1  0  0  0  0
  7 16  1  0  0  0  0
M  END
> <PUBCHEM_COMPOUND_CID>
12265

> <PUBCHEM_COMPOUND_CANONICALIZED>
1

> <PUBCHEM_CACTVS_COMPLEXITY>
53.2

> <PUBCHEM_CACTVS_HBOND_ACCEPTOR>
0

> <PUBCHEM_CACTVS_HBOND_DONOR>
1

> <PUBCHEM_CACTVS_ROTATABLE_BOND>
0

> <PUBCHEM_CACTVS_SUBSKEYS>
AAADccBiAAAAAAAAAAAAAAAAAAAAAWAAAAAAAAAAAAAAAAABgAAAHAAQAAAACAiBFgAygJLJkACgASRiRACCgCAhAiAImSAwZJgIIOLAkZGEAAhgkADIyAcQAAAAAAAAAAAAAAAAAAAAAAAAAAAAAAAAAA==

> <PUBCHEM_IUPAC_OPENEYE_NAME>
2,5-dimethyl-1H-pyrrole

> <PUBCHEM_IUPAC_CAS_NAME>
2,5-dimethyl-1H-pyrrole

> <PUBCHEM_IUPAC_NAME>
2,5-dimethyl-1H-pyrrole

> <PUBCHEM_IUPAC_SYSTEMATIC_NAME>
2,5-dimethyl-1H-pyrrole

> <PUBCHEM_IUPAC_TRADITIONAL_NAME>
2,5-dimethyl-1H-pyrrole

> <PUBCHEM_IUPAC_INCHI>
InChI=1S/C6H9N/c1-5-3-4-6(2)7-5/h3-4,7H,1-2H3

> <PUBCHEM_IUPAC_INCHIKEY>
PAPNRQCYSFBWDI-UHFFFAOYSA-N

> <PUBCHEM_XLOGP3>
1.5

> <PUBCHEM_EXACT_MASS>
95.073499

> <PUBCHEM_MOLECULAR_FORMULA>
C6H9N

> <PUBCHEM_MOLECULAR_WEIGHT>
95.14236

> <PUBCHEM_OPENEYE_CAN_SMILES>
CC1=CC=C(N1)C

> <PUBCHEM_OPENEYE_ISO_SMILES>
CC1=CC=C(N1)C

> <PUBCHEM_CACTVS_TPSA>
15.8

> <PUBCHEM_MONOISOTOPIC_WEIGHT>
95.073499

> <PUBCHEM_TOTAL_CHARGE>
0

> <PUBCHEM_HEAVY_ATOM_COUNT>
7

> <PUBCHEM_ATOM_DEF_STEREO_COUNT>
0

> <PUBCHEM_ATOM_UDEF_STEREO_COUNT>
0

> <PUBCHEM_BOND_DEF_STEREO_COUNT>
0

> <PUBCHEM_BOND_UDEF_STEREO_COUNT>
0

> <PUBCHEM_ISOTOPIC_ATOM_COUNT>
0

> <PUBCHEM_COMPONENT_COUNT>
1

> <PUBCHEM_CACTVS_TAUTO_COUNT>
1

> <PUBCHEM_COORDINATE_TYPE>
1
5
255

> <PUBCHEM_BONDANNOTATIONS>
1  2  8
1  3  8
2  4  8
3  5  8
4  5  8

$$$$

