17396080
  -OEChem-06241222543D

 40 42  0     0  0  0  0  0  0999 V2000
   -0.7459    2.9108   -0.0590 O   0  0  0  0  0  0  0  0  0  0  0  0
   -1.4458    0.7496    0.4061 N   0  0  0  0  0  0  0  0  0  0  0  0
    1.0888   -0.0805    0.2019 N   0  0  0  0  0  0  0  0  0  0  0  0
   -4.4318   -1.3362   -0.3125 C   0  0  0  0  0  0  0  0  0  0  0  0
   -2.8546    1.0506    0.5208 C   0  0  0  0  0  0  0  0  0  0  0  0
   -3.7154   -1.2932    1.0431 C   0  0  0  0  0  0  0  0  0  0  0  0
   -3.7086   -0.4596   -1.3426 C   0  0  0  0  0  0  0  0  0  0  0  0
   -3.5364    0.1401    1.5460 C   0  0  0  0  0  0  0  0  0  0  0  0
   -3.5428    0.9767   -0.8445 C   0  0  0  0  0  0  0  0  0  0  0  0
   -4.5481   -2.7739   -0.8155 C   0  0  0  0  0  0  0  0  0  0  0  0
   -0.4994    1.7212    0.1218 C   0  0  0  0  0  0  0  0  0  0  0  0
    0.9039    1.2458    0.0110 C   0  0  0  0  0  0  0  0  0  0  0  0
    1.9200    2.1366   -0.2695 C   0  0  0  0  0  0  0  0  0  0  0  0
    2.3410   -0.5679    0.1136 C   0  0  0  0  0  0  0  0  0  0  0  0
    3.4450    0.2634   -0.1690 C   0  0  0  0  0  0  0  0  0  0  0  0
    3.2091    1.6315   -0.3598 C   0  0  0  0  0  0  0  0  0  0  0  0
    2.5760   -1.9270    0.3029 C   0  0  0  0  0  0  0  0  0  0  0  0
    4.7385   -0.2792   -0.2538 C   0  0  0  0  0  0  0  0  0  0  0  0
    3.8618   -2.4667    0.2189 C   0  0  0  0  0  0  0  0  0  0  0  0
    4.9446   -1.6421   -0.0599 C   0  0  0  0  0  0  0  0  0  0  0  0
   -5.4486   -0.9435   -0.1780 H   0  0  0  0  0  0  0  0  0  0  0  0
   -2.9350    2.0832    0.8833 H   0  0  0  0  0  0  0  0  0  0  0  0
   -2.7359   -1.7812    0.9650 H   0  0  0  0  0  0  0  0  0  0  0  0
   -4.2890   -1.8630    1.7843 H   0  0  0  0  0  0  0  0  0  0  0  0
   -4.2718   -0.4496   -2.2836 H   0  0  0  0  0  0  0  0  0  0  0  0
   -2.7225   -0.8838   -1.5704 H   0  0  0  0  0  0  0  0  0  0  0  0
   -4.5259    0.5522    1.7824 H   0  0  0  0  0  0  0  0  0  0  0  0
   -2.9668    0.1277    2.4831 H   0  0  0  0  0  0  0  0  0  0  0  0
   -2.9862    1.5568   -1.5903 H   0  0  0  0  0  0  0  0  0  0  0  0
   -4.5365    1.4361   -0.7659 H   0  0  0  0  0  0  0  0  0  0  0  0
   -3.5611   -3.2231   -0.9706 H   0  0  0  0  0  0  0  0  0  0  0  0
   -5.0931   -3.3939   -0.0960 H   0  0  0  0  0  0  0  0  0  0  0  0
   -5.0897   -2.8099   -1.7666 H   0  0  0  0  0  0  0  0  0  0  0  0
   -1.1466   -0.2181    0.4861 H   0  0  0  0  0  0  0  0  0  0  0  0
    1.7442    3.1963   -0.4179 H   0  0  0  0  0  0  0  0  0  0  0  0
    4.0293    2.3111   -0.5797 H   0  0  0  0  0  0  0  0  0  0  0  0
    1.7442   -2.5941    0.5225 H   0  0  0  0  0  0  0  0  0  0  0  0
    5.5931    0.3575   -0.4714 H   0  0  0  0  0  0  0  0  0  0  0  0
    4.0134   -3.5313    0.3716 H   0  0  0  0  0  0  0  0  0  0  0  0
    5.9454   -2.0578   -0.1261 H   0  0  0  0  0  0  0  0  0  0  0  0
  1 11  2  0  0  0  0
  2  5  1  0  0  0  0
  2 11  1  0  0  0  0
  2 34  1  0  0  0  0
  3 12  2  0  0  0  0
  3 14  1  0  0  0  0
  4  6  1  0  0  0  0
  4  7  1  0  0  0  0
  4 10  1  0  0  0  0
  4 21  1  0  0  0  0
  5  8  1  0  0  0  0
  5  9  1  0  0  0  0
  5 22  1  0  0  0  0
  6  8  1  0  0  0  0
  6 23  1  0  0  0  0
  6 24  1  0  0  0  0
  7  9  1  0  0  0  0
  7 25  1  0  0  0  0
  7 26  1  0  0  0  0
  8 27  1  0  0  0  0
  8 28  1  0  0  0  0
  9 29  1  0  0  0  0
  9 30  1  0  0  0  0
 10 31  1  0  0  0  0
 10 32  1  0  0  0  0
 10 33  1  0  0  0  0
 11 12  1  0  0  0  0
 12 13  1  0  0  0  0
 13 16  2  0  0  0  0
 13 35  1  0  0  0  0
 14 15  1  0  0  0  0
 14 17  2  0  0  0  0
 15 16  1  0  0  0  0
 15 18  2  0  0  0  0
 16 36  1  0  0  0  0
 17 19  1  0  0  0  0
 17 37  1  0  0  0  0
 18 20  1  0  0  0  0
 18 38  1  0  0  0  0
 19 20  2  0  0  0  0
 19 39  1  0  0  0  0
 20 40  1  0  0  0  0
M  END
> <PUBCHEM_COMPOUND_CID>
17396080

> <PUBCHEM_CONFORMER_RMSD>
0.6

> <PUBCHEM_CONFORMER_DIVERSEORDER>
1
28
14
22
5
25
15
7
13
8
12
35
17
2
32
27
23
31
26
4
24
19
21
6
10
29
33
18
34
11
20
30
9
16
3

> <PUBCHEM_MMFF94_PARTIAL_CHARGES>
20
1 -0.57
11 0.54
12 0.4
13 -0.15
14 0.31
16 -0.15
17 -0.15
18 -0.15
19 -0.15
2 -0.73
20 -0.15
3 -0.62
34 0.37
35 0.15
36 0.15
37 0.15
38 0.15
39 0.15
40 0.15
5 0.3

> <PUBCHEM_EFFECTIVE_ROTOR_COUNT>
4.2

> <PUBCHEM_PHARMACOPHORE_FEATURES>
6
1 1 acceptor
1 2 donor
1 3 acceptor
6 14 15 17 18 19 20 rings
6 3 12 13 14 15 16 rings
6 4 5 6 7 8 9 rings

> <PUBCHEM_HEAVY_ATOM_COUNT>
20

> <PUBCHEM_ATOM_DEF_STEREO_COUNT>
0

> <PUBCHEM_ATOM_UDEF_STEREO_COUNT>
0

> <PUBCHEM_BOND_DEF_STEREO_COUNT>
0

> <PUBCHEM_BOND_UDEF_STEREO_COUNT>
0

> <PUBCHEM_ISOTOPIC_ATOM_COUNT>
0

> <PUBCHEM_COMPONENT_COUNT>
1

> <PUBCHEM_CACTVS_TAUTO_COUNT>
2

> <PUBCHEM_CONFORMER_ID>
0109717000000001

> <PUBCHEM_MMFF94_ENERGY>
40.9705

> <PUBCHEM_FEATURE_SELFOVERLAP>
30.477

> <PUBCHEM_SHAPE_FINGERPRINT>
10616163 171 18335419122845939367
11046707 91 18259987097525765273
11806522 49 18341330072093311944
12553582 1 18340483464765815050
12596599 1 18041262361956644703
12596602 18 17313100813547889010
13103583 49 17895461588416963027
13167823 11 18334293162693250103
13544653 18 18342171163585613757
13911987 19 17624397693594260581
14576447 43 18410292476221190702
14767858 380 18271226246131050020
15196674 1 18410855460133436544
15352361 1 18410576180091034831
15375462 189 18186796959192988353
15537594 2 18337375085238260639
15880784 105 17894628145586507098
17857418 61 18409451379490072219
18186145 218 17132112450651694961
18915474 69 18409731750718002222
19141452 34 18264765639732918441
200 152 18408887355815932393
20028762 73 18333735715174184366
20261772 1 17967819344628993974
20281475 54 18408601469992334809
20291156 8 18408042896810651821
20645477 70 18201160957702382712
21673915 165 18335703810595402258
221357 26 18271813402135217423
221490 88 18342734113771052720
22393880 68 17988656206677167839
22646028 28 18334013887008794351
23379529 103 18261385689428695190
23402539 116 18271243919335753970
235170 7 16630525128632364847
23559900 14 18341058475072371024
27216 239 8070023389893760277
2871803 45 18202004321669915730
3004659 81 18273221901835809615
314194 84 18265607693787874883
339767 52 18263097624452876910
4283 87 18413112779049305810
46194498 28 17345196597650529557
463206 1 18267864991292171843
4921388 177 16486964095044207489
5104073 3 18260550038984347760
602551 16 15936415502812249198
9709674 26 18201152170193806249

> <PUBCHEM_SHAPE_MULTIPOLES>
395.76
11.25
2.92
1
0.64
0.3
0.07
7.41
-1.05
-0.23
-0.25
1.28
0.13
-0.78

> <PUBCHEM_SHAPE_SELFOVERLAP>
848.779

> <PUBCHEM_SHAPE_VOLUME>
216.3

> <PUBCHEM_COORDINATE_TYPE>
2
5
10

$$$$

