11533
  -OEChem-06261205473D

  9  8  0     0  0  0  0  0  0999 V2000
   -2.2065   -0.1231   -0.0001 Br  0  0  0  0  0  0  0  0  0  0  0  0
    2.0309    0.0781   -0.0001 C   0  0  0  0  0  0  0  0  0  0  0  0
    0.6136   -0.3906    0.0001 C   0  0  0  0  0  0  0  0  0  0  0  0
   -0.4380    0.4355    0.0001 C   0  0  0  0  0  0  0  0  0  0  0  0
    2.5485   -0.2996    0.8870 H   0  0  0  0  0  0  0  0  0  0  0  0
    2.1067    1.1702   -0.0003 H   0  0  0  0  0  0  0  0  0  0  0  0
    2.5482   -0.2999   -0.8873 H   0  0  0  0  0  0  0  0  0  0  0  0
    0.4588   -1.4664    0.0002 H   0  0  0  0  0  0  0  0  0  0  0  0
   -0.3290    1.5133    0.0000 H   0  0  0  0  0  0  0  0  0  0  0  0
  1  4  1  0  0  0  0
  2  3  1  0  0  0  0
  2  5  1  0  0  0  0
  2  6  1  0  0  0  0
  2  7  1  0  0  0  0
  3  4  2  0  0  0  0
  3  8  1  0  0  0  0
  4  9  1  0  0  0  0
M  END
> <PUBCHEM_COMPOUND_CID>
11533

> <PUBCHEM_CONFORMER_RMSD>
0.4

> <PUBCHEM_CONFORMER_DIVERSEORDER>
1

> <PUBCHEM_MMFF94_PARTIAL_CHARGES>
6
1 -0.11
2 0.14
3 -0.29
4 -0.04
8 0.15
9 0.15

> <PUBCHEM_EFFECTIVE_ROTOR_COUNT>
0

> <PUBCHEM_PHARMACOPHORE_FEATURES>
2
1 1 hydrophobe
1 2 hydrophobe

> <PUBCHEM_HEAVY_ATOM_COUNT>
4

> <PUBCHEM_ATOM_DEF_STEREO_COUNT>
0

> <PUBCHEM_ATOM_UDEF_STEREO_COUNT>
0

> <PUBCHEM_BOND_DEF_STEREO_COUNT>
0

> <PUBCHEM_BOND_UDEF_STEREO_COUNT>
1

> <PUBCHEM_ISOTOPIC_ATOM_COUNT>
0

> <PUBCHEM_COMPONENT_COUNT>
1

> <PUBCHEM_CACTVS_TAUTO_COUNT>
1

> <PUBCHEM_CONFORMER_ID>
00002D0D00000001

> <PUBCHEM_MMFF94_ENERGY>
-0.4551

> <PUBCHEM_FEATURE_SELFOVERLAP>
10.149

> <PUBCHEM_SHAPE_FINGERPRINT>
139733 1 9295288343901761601
16714656 1 18187363220666057807
20096714 4 18334014956381966920
29004967 10 18411976962136225539
5460574 1 9223234048324844483

> <PUBCHEM_SHAPE_MULTIPOLES>
88.26
3.19
0.74
0.65
0.32
0
0
0.1
0
0.06
0
0.07
0
0

> <PUBCHEM_SHAPE_SELFOVERLAP>
136.991

> <PUBCHEM_SHAPE_VOLUME>
63.6

> <PUBCHEM_COORDINATE_TYPE>
2
5
10

$$$$

