11360
  -OEChem-06261205352D

 18 19  0     0  0  0  0  0  0999 V2000
    4.6144    1.8273    0.0000 O   0  0  0  0  0  0  0  0  0  0  0  0
    2.8660   -1.2073    0.0000 N   0  0  0  0  0  0  0  0  0  0  0  0
    3.7320    0.2927    0.0000 C   0  0  0  0  0  0  0  0  0  0  0  0
    3.7320   -0.7073    0.0000 C   0  0  0  0  0  0  0  0  0  0  0  0
    4.6260    0.8274    0.0000 C   0  0  0  0  0  0  0  0  0  0  0  0
    4.6260   -1.2420    0.0000 C   0  0  0  0  0  0  0  0  0  0  0  0
    2.8660    0.7927    0.0000 C   0  0  0  0  0  0  0  0  0  0  0  0
    5.5321    0.3135    0.0000 C   0  0  0  0  0  0  0  0  0  0  0  0
    5.5321   -0.7281    0.0000 C   0  0  0  0  0  0  0  0  0  0  0  0
    2.0000    0.2927    0.0000 C   0  0  0  0  0  0  0  0  0  0  0  0
    2.0000   -0.7073    0.0000 C   0  0  0  0  0  0  0  0  0  0  0  0
    2.8660    1.4127    0.0000 H   0  0  0  0  0  0  0  0  0  0  0  0
    4.6188   -1.8619    0.0000 H   0  0  0  0  0  0  0  0  0  0  0  0
    2.8660   -1.8273    0.0000 H   0  0  0  0  0  0  0  0  0  0  0  0
    6.0678    0.6256    0.0000 H   0  0  0  0  0  0  0  0  0  0  0  0
    6.0678   -1.0402    0.0000 H   0  0  0  0  0  0  0  0  0  0  0  0
    1.4631    0.6027    0.0000 H   0  0  0  0  0  0  0  0  0  0  0  0
    1.4631   -1.0173    0.0000 H   0  0  0  0  0  0  0  0  0  0  0  0
  1  5  2  0  0  0  0
  2  4  1  0  0  0  0
  2 11  1  0  0  0  0
  2 14  1  0  0  0  0
  3  4  1  0  0  0  0
  3  5  1  0  0  0  0
  3  7  2  0  0  0  0
  4  6  2  0  0  0  0
  5  8  1  0  0  0  0
  6  9  1  0  0  0  0
  6 13  1  0  0  0  0
  7 10  1  0  0  0  0
  7 12  1  0  0  0  0
  8  9  2  0  0  0  0
  8 15  1  0  0  0  0
  9 16  1  0  0  0  0
 10 11  2  0  0  0  0
 10 17  1  0  0  0  0
 11 18  1  0  0  0  0
M  END
> <PUBCHEM_COMPOUND_CID>
11360

> <PUBCHEM_COMPOUND_CANONICALIZED>
1

> <PUBCHEM_CACTVS_COMPLEXITY>
319

> <PUBCHEM_CACTVS_HBOND_ACCEPTOR>
2

> <PUBCHEM_CACTVS_HBOND_DONOR>
1

> <PUBCHEM_CACTVS_ROTATABLE_BOND>
0

> <PUBCHEM_CACTVS_SUBSKEYS>
AAADcYByIAAAAAAAAAAAAAAAAAAAAAAAAAAgQAAAAAAAAACAAAAAHgAQAAAADAzBgAQAAALAAACIAqRWQACAAAAgAgAICIEIAEgIAAgAgQAEAAAAgAAIgYIAAAAAAAAAAAAAAAAAAAAAAAAAAAAAAAAAAA==

> <PUBCHEM_IUPAC_OPENEYE_NAME>
1H-quinolin-5-one

> <PUBCHEM_IUPAC_CAS_NAME>
1H-quinolin-5-one

> <PUBCHEM_IUPAC_NAME>
1H-quinolin-5-one

> <PUBCHEM_IUPAC_SYSTEMATIC_NAME>
1H-quinolin-5-one

> <PUBCHEM_IUPAC_TRADITIONAL_NAME>
1H-quinolin-5-one

> <PUBCHEM_IUPAC_INCHI>
InChI=1S/C9H7NO/c11-9-5-1-4-8-7(9)3-2-6-10-8/h1-6,10H

> <PUBCHEM_IUPAC_INCHIKEY>
GVNQVWJYDXOLST-UHFFFAOYSA-N

> <PUBCHEM_XLOGP3_AA>
1.4

> <PUBCHEM_EXACT_MASS>
145.052764

> <PUBCHEM_MOLECULAR_FORMULA>
C9H7NO

> <PUBCHEM_MOLECULAR_WEIGHT>
145.15798

> <PUBCHEM_OPENEYE_CAN_SMILES>
C1=CC(=O)C2=CC=CNC2=C1

> <PUBCHEM_OPENEYE_ISO_SMILES>
C1=CC(=O)C2=CC=CNC2=C1

> <PUBCHEM_CACTVS_TPSA>
29.1

> <PUBCHEM_MONOISOTOPIC_WEIGHT>
145.052764

> <PUBCHEM_TOTAL_CHARGE>
0

> <PUBCHEM_HEAVY_ATOM_COUNT>
11

> <PUBCHEM_ATOM_DEF_STEREO_COUNT>
0

> <PUBCHEM_ATOM_UDEF_STEREO_COUNT>
0

> <PUBCHEM_BOND_DEF_STEREO_COUNT>
0

> <PUBCHEM_BOND_UDEF_STEREO_COUNT>
0

> <PUBCHEM_ISOTOPIC_ATOM_COUNT>
0

> <PUBCHEM_COMPONENT_COUNT>
1

> <PUBCHEM_CACTVS_TAUTO_COUNT>
3

> <PUBCHEM_COORDINATE_TYPE>
1
5
255

> <PUBCHEM_BONDANNOTATIONS>
10  11  8
2  11  8
2  4  8
3  5  8
3  7  8
4  6  8
5  8  8
6  9  8
7  10  8
8  9  8

$$$$

