17396409
  -OEChem-06241222562D

 35 37  0     0  0  0  0  0  0999 V2000
    6.0875    1.8137    0.0000 S   0  0  0  0  0  0  0  0  0  0  0  0
    4.7026    0.6922    0.0000 S   0  0  0  0  0  0  0  0  0  0  0  0
    2.0000   -3.8023    0.0000 F   0  0  0  0  0  0  0  0  0  0  0  0
    8.9445    1.2150    0.0000 O   0  0  0  0  0  0  0  0  0  0  0  0
    6.9010    3.6408    0.0000 O   0  0  0  0  0  0  0  0  0  0  0  0
    8.4833    2.9363    0.0000 N   0  0  0  0  0  0  0  0  0  0  0  0
   10.0659    2.5999    0.0000 N   0  0  0  0  0  0  0  0  0  0  0  0
    3.7320   -0.8023    0.0000 N   0  0  0  0  0  0  0  0  0  0  0  0
    6.1808    0.0341    0.0000 N   0  0  0  0  0  0  0  0  0  0  0  0
    5.5116   -0.7090    0.0000 N   0  0  0  0  0  0  0  0  0  0  0  0
    8.9833    3.8023    0.0000 C   0  0  0  0  0  0  0  0  0  0  0  0
    9.9614    3.5944    0.0000 C   0  0  0  0  0  0  0  0  0  0  0  0
    9.1524    2.1931    0.0000 C   0  0  0  0  0  0  0  0  0  0  0  0
    7.4888    2.8318    0.0000 C   0  0  0  0  0  0  0  0  0  0  0  0
    7.0820    1.9182    0.0000 C   0  0  0  0  0  0  0  0  0  0  0  0
    3.7320   -1.8023    0.0000 C   0  0  0  0  0  0  0  0  0  0  0  0
    5.6808    0.9001    0.0000 C   0  0  0  0  0  0  0  0  0  0  0  0
    4.5981   -0.3023    0.0000 C   0  0  0  0  0  0  0  0  0  0  0  0
    2.8660   -2.3023    0.0000 C   0  0  0  0  0  0  0  0  0  0  0  0
    4.5981   -2.3023    0.0000 C   0  0  0  0  0  0  0  0  0  0  0  0
    2.8660   -3.3023    0.0000 C   0  0  0  0  0  0  0  0  0  0  0  0
    4.5981   -3.3023    0.0000 C   0  0  0  0  0  0  0  0  0  0  0  0
    3.7320   -3.8023    0.0000 C   0  0  0  0  0  0  0  0  0  0  0  0
    9.1749    4.3920    0.0000 H   0  0  0  0  0  0  0  0  0  0  0  0
    8.4169    4.0545    0.0000 H   0  0  0  0  0  0  0  0  0  0  0  0
   10.5814    3.5944    0.0000 H   0  0  0  0  0  0  0  0  0  0  0  0
   10.0262    4.2110    0.0000 H   0  0  0  0  0  0  0  0  0  0  0  0
   10.6029    2.2899    0.0000 H   0  0  0  0  0  0  0  0  0  0  0  0
    7.0388    1.2997    0.0000 H   0  0  0  0  0  0  0  0  0  0  0  0
    7.6836    1.7682    0.0000 H   0  0  0  0  0  0  0  0  0  0  0  0
    3.1951   -0.4923    0.0000 H   0  0  0  0  0  0  0  0  0  0  0  0
    2.3291   -1.9923    0.0000 H   0  0  0  0  0  0  0  0  0  0  0  0
    5.1350   -1.9923    0.0000 H   0  0  0  0  0  0  0  0  0  0  0  0
    5.1350   -3.6123    0.0000 H   0  0  0  0  0  0  0  0  0  0  0  0
    3.7320   -4.4223    0.0000 H   0  0  0  0  0  0  0  0  0  0  0  0
  1 15  1  0  0  0  0
  1 17  1  0  0  0  0
  2 17  1  0  0  0  0
  2 18  1  0  0  0  0
  3 21  1  0  0  0  0
  4 13  2  0  0  0  0
  5 14  2  0  0  0  0
  6 11  1  0  0  0  0
  6 13  1  0  0  0  0
  6 14  1  0  0  0  0
  7 12  1  0  0  0  0
  7 13  1  0  0  0  0
  7 28  1  0  0  0  0
  8 16  1  0  0  0  0
  8 18  1  0  0  0  0
  8 31  1  0  0  0  0
  9 10  1  0  0  0  0
  9 17  2  0  0  0  0
 10 18  2  0  0  0  0
 11 12  1  0  0  0  0
 11 24  1  0  0  0  0
 11 25  1  0  0  0  0
 12 26  1  0  0  0  0
 12 27  1  0  0  0  0
 14 15  1  0  0  0  0
 15 29  1  0  0  0  0
 15 30  1  0  0  0  0
 16 19  2  0  0  0  0
 16 20  1  0  0  0  0
 19 21  1  0  0  0  0
 19 32  1  0  0  0  0
 20 22  2  0  0  0  0
 20 33  1  0  0  0  0
 21 23  2  0  0  0  0
 22 23  1  0  0  0  0
 22 34  1  0  0  0  0
 23 35  1  0  0  0  0
M  END
> <PUBCHEM_COMPOUND_CID>
17396409

> <PUBCHEM_COMPOUND_CANONICALIZED>
1

> <PUBCHEM_CACTVS_COMPLEXITY>
458

> <PUBCHEM_CACTVS_HBOND_ACCEPTOR>
8

> <PUBCHEM_CACTVS_HBOND_DONOR>
2

> <PUBCHEM_CACTVS_ROTATABLE_BOND>
5

> <PUBCHEM_CACTVS_SUBSKEYS>
AAADccBzsQBgAAAAAAAAAAAAAAAAAWLAAAAwAAAAAAAAAAABwAAAHwQYAAAACAjF0Ayx0IPAAAiuACVScACSAQJhAhkNiIAIZIiIYCLAmZGUIAh4lyLIyCcQAAAAAAAAAAAAAAAAAAAAAAAAAAAAAAAAAA==

> <PUBCHEM_IUPAC_OPENEYE_NAME>
1-[2-[[5-(3-fluoroanilino)-1,3,4-thiadiazol-2-yl]sulfanyl]acetyl]imidazolidin-2-one

> <PUBCHEM_IUPAC_CAS_NAME>
1-[2-[[5-(3-fluoroanilino)-1,3,4-thiadiazol-2-yl]thio]-1-oxoethyl]-2-imidazolidinone

> <PUBCHEM_IUPAC_NAME>
1-[2-[[5-(3-fluoroanilino)-1,3,4-thiadiazol-2-yl]sulfanyl]acetyl]imidazolidin-2-one

> <PUBCHEM_IUPAC_SYSTEMATIC_NAME>
1-[2-[[5-[(3-fluorophenyl)amino]-1,3,4-thiadiazol-2-yl]sulfanyl]ethanoyl]imidazolidin-2-one

> <PUBCHEM_IUPAC_TRADITIONAL_NAME>
1-[2-[[5-(3-fluoroanilino)-1,3,4-thiadiazol-2-yl]thio]acetyl]-2-imidazolidinone

> <PUBCHEM_IUPAC_INCHI>
InChI=1S/C13H12FN5O2S2/c14-8-2-1-3-9(6-8)16-11-17-18-13(23-11)22-7-10(20)19-5-4-15-12(19)21/h1-3,6H,4-5,7H2,(H,15,21)(H,16,17)

> <PUBCHEM_IUPAC_INCHIKEY>
DFELZMZEACMHRB-UHFFFAOYSA-N

> <PUBCHEM_XLOGP3_AA>
2.1

> <PUBCHEM_EXACT_MASS>
353.041645

> <PUBCHEM_MOLECULAR_FORMULA>
C13H12FN5O2S2

> <PUBCHEM_MOLECULAR_WEIGHT>
353.395083

> <PUBCHEM_OPENEYE_CAN_SMILES>
C1CN(C(=O)N1)C(=O)CSC2=NN=C(S2)NC3=CC(=CC=C3)F

> <PUBCHEM_OPENEYE_ISO_SMILES>
C1CN(C(=O)N1)C(=O)CSC2=NN=C(S2)NC3=CC(=CC=C3)F

> <PUBCHEM_CACTVS_TPSA>
141

> <PUBCHEM_MONOISOTOPIC_WEIGHT>
353.041645

> <PUBCHEM_TOTAL_CHARGE>
0

> <PUBCHEM_HEAVY_ATOM_COUNT>
23

> <PUBCHEM_ATOM_DEF_STEREO_COUNT>
0

> <PUBCHEM_ATOM_UDEF_STEREO_COUNT>
0

> <PUBCHEM_BOND_DEF_STEREO_COUNT>
0

> <PUBCHEM_BOND_UDEF_STEREO_COUNT>
0

> <PUBCHEM_ISOTOPIC_ATOM_COUNT>
0

> <PUBCHEM_COMPONENT_COUNT>
1

> <PUBCHEM_CACTVS_TAUTO_COUNT>
4

> <PUBCHEM_COORDINATE_TYPE>
1
5
255

> <PUBCHEM_BONDANNOTATIONS>
10  18  8
16  19  8
16  20  8
19  21  8
2  17  8
2  18  8
20  22  8
21  23  8
22  23  8
9  10  8
9  17  8

$$$$

