9153
  -OEChem-06261203272D

 32 36  0     0  0  0  0  0  0999 V2000
    5.2455   -0.8234    0.0000 C   0  0  0  0  0  0  0  0  0  0  0  0
    4.3795   -0.3234    0.0000 C   0  0  0  0  0  0  0  0  0  0  0  0
    5.0363   -1.7953    0.0000 C   0  0  0  0  0  0  0  0  0  0  0  0
    6.1115   -0.3234    0.0000 C   0  0  0  0  0  0  0  0  0  0  0  0
    3.6425   -0.9905    0.0000 C   0  0  0  0  0  0  0  0  0  0  0  0
    4.0476   -1.8983    0.0000 C   0  0  0  0  0  0  0  0  0  0  0  0
    6.1115    0.6766    0.0000 C   0  0  0  0  0  0  0  0  0  0  0  0
    4.3795    0.6766    0.0000 C   0  0  0  0  0  0  0  0  0  0  0  0
    5.2455    1.1766    0.0000 C   0  0  0  0  0  0  0  0  0  0  0  0
    5.8614   -2.3388    0.0000 C   0  0  0  0  0  0  0  0  0  0  0  0
    6.8802   -0.9442    0.0000 C   0  0  0  0  0  0  0  0  0  0  0  0
    2.6144   -0.8673    0.0000 C   0  0  0  0  0  0  0  0  0  0  0  0
    3.4527   -2.7458    0.0000 C   0  0  0  0  0  0  0  0  0  0  0  0
    6.7585   -1.9247    0.0000 C   0  0  0  0  0  0  0  0  0  0  0  0
    7.0215    1.1834    0.0000 C   0  0  0  0  0  0  0  0  0  0  0  0
    5.2294    2.2181    0.0000 C   0  0  0  0  0  0  0  0  0  0  0  0
    2.0000   -1.7008    0.0000 C   0  0  0  0  0  0  0  0  0  0  0  0
    2.4220   -2.6464    0.0000 C   0  0  0  0  0  0  0  0  0  0  0  0
    7.0296    2.2250    0.0000 C   0  0  0  0  0  0  0  0  0  0  0  0
    6.1275    2.7458    0.0000 C   0  0  0  0  0  0  0  0  0  0  0  0
    3.8425    0.9866    0.0000 H   0  0  0  0  0  0  0  0  0  0  0  0
    5.8149   -2.9570    0.0000 H   0  0  0  0  0  0  0  0  0  0  0  0
    7.4550   -0.7120    0.0000 H   0  0  0  0  0  0  0  0  0  0  0  0
    2.3683   -0.2983    0.0000 H   0  0  0  0  0  0  0  0  0  0  0  0
    3.7119   -3.3090    0.0000 H   0  0  0  0  0  0  0  0  0  0  0  0
    7.2591   -2.2905    0.0000 H   0  0  0  0  0  0  0  0  0  0  0  0
    7.5548    0.8672    0.0000 H   0  0  0  0  0  0  0  0  0  0  0  0
    4.6890    2.5218    0.0000 H   0  0  0  0  0  0  0  0  0  0  0  0
    1.3836   -1.6342    0.0000 H   0  0  0  0  0  0  0  0  0  0  0  0
    2.0599   -3.1497    0.0000 H   0  0  0  0  0  0  0  0  0  0  0  0
    7.5677    2.5329    0.0000 H   0  0  0  0  0  0  0  0  0  0  0  0
    6.1251    3.3658    0.0000 H   0  0  0  0  0  0  0  0  0  0  0  0
  1  2  1  0  0  0  0
  1  3  1  0  0  0  0
  1  4  2  0  0  0  0
  2  5  1  0  0  0  0
  2  8  2  0  0  0  0
  3  6  1  0  0  0  0
  3 10  2  0  0  0  0
  4  7  1  0  0  0  0
  4 11  1  0  0  0  0
  5  6  1  0  0  0  0
  5 12  2  0  0  0  0
  6 13  2  0  0  0  0
  7  9  1  0  0  0  0
  7 15  2  0  0  0  0
  8  9  1  0  0  0  0
  8 21  1  0  0  0  0
  9 16  2  0  0  0  0
 10 14  1  0  0  0  0
 10 22  1  0  0  0  0
 11 14  2  0  0  0  0
 11 23  1  0  0  0  0
 12 17  1  0  0  0  0
 12 24  1  0  0  0  0
 13 18  1  0  0  0  0
 13 25  1  0  0  0  0
 14 26  1  0  0  0  0
 15 19  1  0  0  0  0
 15 27  1  0  0  0  0
 16 20  1  0  0  0  0
 16 28  1  0  0  0  0
 17 18  2  0  0  0  0
 17 29  1  0  0  0  0
 18 30  1  0  0  0  0
 19 20  2  0  0  0  0
 19 31  1  0  0  0  0
 20 32  1  0  0  0  0
M  END
> <PUBCHEM_COMPOUND_CID>
9153

> <PUBCHEM_COMPOUND_CANONICALIZED>
1

> <PUBCHEM_CACTVS_COMPLEXITY>
372

> <PUBCHEM_CACTVS_HBOND_ACCEPTOR>
0

> <PUBCHEM_CACTVS_HBOND_DONOR>
0

> <PUBCHEM_CACTVS_ROTATABLE_BOND>
0

> <PUBCHEM_CACTVS_SUBSKEYS>
AAADccB4AAAAAAAAAAAAAAAAAAAAAYAAAAAwYMGAAAAAAGDBVAAAGAAAAAAADACAGAAwAMAAAACAAiBCAAACAAAgAAAIiAAAAIgIICKAERCAIAAggAAIiAcAgMAOwAACAAAQAACAAAQAACAAAQAACAAAAA==

> <PUBCHEM_IUPAC_INCHI>
InChI=1S/C20H12/c1-2-7-14-13(6-1)12-19-16-9-4-3-8-15(16)18-11-5-10-17(14)20(18)19/h1-12H

> <PUBCHEM_IUPAC_INCHIKEY>
FTOVXSOBNPWTSH-UHFFFAOYSA-N

> <PUBCHEM_XLOGP3>
6.4

> <PUBCHEM_EXACT_MASS>
252.0939

> <PUBCHEM_MOLECULAR_FORMULA>
C20H12

> <PUBCHEM_MOLECULAR_WEIGHT>
252.30928

> <PUBCHEM_OPENEYE_CAN_SMILES>
C1=CC=C2C3=C4C(=CC=C3)C5=CC=CC=C5C4=CC2=C1

> <PUBCHEM_OPENEYE_ISO_SMILES>
C1=CC=C2C3=C4C(=CC=C3)C5=CC=CC=C5C4=CC2=C1

> <PUBCHEM_CACTVS_TPSA>
0

> <PUBCHEM_MONOISOTOPIC_WEIGHT>
252.0939

> <PUBCHEM_TOTAL_CHARGE>
0

> <PUBCHEM_HEAVY_ATOM_COUNT>
20

> <PUBCHEM_ATOM_DEF_STEREO_COUNT>
0

> <PUBCHEM_ATOM_UDEF_STEREO_COUNT>
0

> <PUBCHEM_BOND_DEF_STEREO_COUNT>
0

> <PUBCHEM_BOND_UDEF_STEREO_COUNT>
0

> <PUBCHEM_ISOTOPIC_ATOM_COUNT>
0

> <PUBCHEM_COMPONENT_COUNT>
1

> <PUBCHEM_CACTVS_TAUTO_COUNT>
1

> <PUBCHEM_COORDINATE_TYPE>
1
5
255

> <PUBCHEM_BONDANNOTATIONS>
1  2  8
1  3  8
1  4  8
10  14  8
11  14  8
12  17  8
13  18  8
15  19  8
16  20  8
17  18  8
19  20  8
2  8  8
3  10  8
4  11  8
4  7  8
5  12  8
5  6  8
6  13  8
7  15  8
7  9  8
8  9  8
9  16  8

$$$$

