5758
  -OEChem-06261200523D

 15 15  0     0  0  0  0  0  0999 V2000
    0.3483    2.7304    0.0274 Cl  0  0  0  0  0  0  0  0  0  0  0  0
    0.3505   -2.7299    0.0278 Cl  0  0  0  0  0  0  0  0  0  0  0  0
    2.2215   -0.0001   -1.2034 O   0  0  0  0  0  0  0  0  0  0  0  0
    2.3844    0.0009    1.0638 O   0  0  0  0  0  0  0  0  0  0  0  0
    0.2288    0.0002    0.0259 C   0  0  0  0  0  0  0  0  0  0  0  0
   -0.4690    1.2079    0.0161 C   0  0  0  0  0  0  0  0  0  0  0  0
   -0.4680   -1.2080    0.0161 C   0  0  0  0  0  0  0  0  0  0  0  0
   -1.8638    1.2074   -0.0035 C   0  0  0  0  0  0  0  0  0  0  0  0
   -1.8627   -1.2087   -0.0036 C   0  0  0  0  0  0  0  0  0  0  0  0
   -2.5606   -0.0010   -0.0134 C   0  0  0  0  0  0  0  0  0  0  0  0
    1.6906    0.0009    0.0470 C   0  0  0  0  0  0  0  0  0  0  0  0
   -2.4232    2.1395   -0.0114 H   0  0  0  0  0  0  0  0  0  0  0  0
   -2.4213   -2.1412   -0.0114 H   0  0  0  0  0  0  0  0  0  0  0  0
   -3.6466   -0.0014   -0.0286 H   0  0  0  0  0  0  0  0  0  0  0  0
    3.2024   -0.0003   -1.1843 H   0  0  0  0  0  0  0  0  0  0  0  0
  1  6  1  0  0  0  0
  2  7  1  0  0  0  0
  3 11  1  0  0  0  0
  3 15  1  0  0  0  0
  4 11  2  0  0  0  0
  5  6  2  0  0  0  0
  5  7  1  0  0  0  0
  5 11  1  0  0  0  0
  6  8  1  0  0  0  0
  7  9  2  0  0  0  0
  8 10  2  0  0  0  0
  8 12  1  0  0  0  0
  9 10  1  0  0  0  0
  9 13  1  0  0  0  0
 10 14  1  0  0  0  0
M  END
> <PUBCHEM_COMPOUND_CID>
5758

> <PUBCHEM_CONFORMER_RMSD>
0.4

> <PUBCHEM_CONFORMER_DIVERSEORDER>
1

> <PUBCHEM_MMFF94_PARTIAL_CHARGES>
15
1 -0.18
10 -0.15
11 0.63
12 0.15
13 0.15
14 0.15
15 0.5
2 -0.18
3 -0.65
4 -0.57
5 0.09
6 0.18
7 0.18
8 -0.15
9 -0.15

> <PUBCHEM_EFFECTIVE_ROTOR_COUNT>
1

> <PUBCHEM_PHARMACOPHORE_FEATURES>
4
1 3 acceptor
1 4 acceptor
3 3 4 11 anion
6 5 6 7 8 9 10 rings

> <PUBCHEM_HEAVY_ATOM_COUNT>
11

> <PUBCHEM_ATOM_DEF_STEREO_COUNT>
0

> <PUBCHEM_ATOM_UDEF_STEREO_COUNT>
0

> <PUBCHEM_BOND_DEF_STEREO_COUNT>
0

> <PUBCHEM_BOND_UDEF_STEREO_COUNT>
0

> <PUBCHEM_ISOTOPIC_ATOM_COUNT>
0

> <PUBCHEM_COMPONENT_COUNT>
1

> <PUBCHEM_CACTVS_TAUTO_COUNT>
1

> <PUBCHEM_CONFORMER_ID>
0000167E00000001

> <PUBCHEM_MMFF94_ENERGY>
31.1707

> <PUBCHEM_FEATURE_SELFOVERLAP>
20.355

> <PUBCHEM_SHAPE_FINGERPRINT>
12423570 1 13218245140888816877
12524768 44 17904757782788145911
161256 15 17975408332707756327
16945 1 18410855464866208267
18185500 45 18411984688861499147
193761 8 17617942868990794041
21040471 1 18266740362367964417
23552423 10 18055063526297659767
23559900 14 18189328130551832670
241688 4 18050278473194464251
2748010 2 18409731763550091591
4369600 1 18410564081099356564
5084963 1 17968648324777367467
66348 1 18264488571207491319

> <PUBCHEM_SHAPE_MULTIPOLES>
218.38
2.92
2.69
0.78
0.01
0
-0.04
0
0.01
0.1
0.04
0.38
0
0

> <PUBCHEM_SHAPE_SELFOVERLAP>
442.844

> <PUBCHEM_SHAPE_VOLUME>
129.1

> <PUBCHEM_COORDINATE_TYPE>
2
5
10

$$$$

