11377
  -OEChem-06261205363D

 19 20  0     0  0  0  0  0  0999 V2000
    1.2980    1.4874    0.0000 N   0  0  0  0  0  0  0  0  0  0  0  0
   -3.4491    0.7534    0.0004 N   0  0  0  0  0  0  0  0  0  0  0  0
    0.4629   -0.7731    0.0000 C   0  0  0  0  0  0  0  0  0  0  0  0
    0.2651    0.6236   -0.0002 C   0  0  0  0  0  0  0  0  0  0  0  0
   -1.0431    1.0997   -0.0002 C   0  0  0  0  0  0  0  0  0  0  0  0
   -0.6384   -1.6459    0.0000 C   0  0  0  0  0  0  0  0  0  0  0  0
   -2.1382    0.2322   -0.0002 C   0  0  0  0  0  0  0  0  0  0  0  0
   -1.9360   -1.1424   -0.0001 C   0  0  0  0  0  0  0  0  0  0  0  0
    1.7796   -1.2530    0.0001 C   0  0  0  0  0  0  0  0  0  0  0  0
    2.8460   -0.3653    0.0001 C   0  0  0  0  0  0  0  0  0  0  0  0
    2.5533    0.9835    0.0001 C   0  0  0  0  0  0  0  0  0  0  0  0
   -1.2147    2.1756    0.0000 H   0  0  0  0  0  0  0  0  0  0  0  0
   -0.4909   -2.7236    0.0001 H   0  0  0  0  0  0  0  0  0  0  0  0
   -2.7769   -1.8307    0.0001 H   0  0  0  0  0  0  0  0  0  0  0  0
    1.9814   -2.3217    0.0001 H   0  0  0  0  0  0  0  0  0  0  0  0
    3.8702   -0.7191    0.0002 H   0  0  0  0  0  0  0  0  0  0  0  0
    3.3460    1.7244    0.0001 H   0  0  0  0  0  0  0  0  0  0  0  0
   -4.2429    0.1267   -0.0008 H   0  0  0  0  0  0  0  0  0  0  0  0
   -3.5963    1.7540   -0.0008 H   0  0  0  0  0  0  0  0  0  0  0  0
  1  4  1  0  0  0  0
  1 11  2  0  0  0  0
  2  7  1  0  0  0  0
  2 18  1  0  0  0  0
  2 19  1  0  0  0  0
  3  4  2  0  0  0  0
  3  6  1  0  0  0  0
  3  9  1  0  0  0  0
  4  5  1  0  0  0  0
  5  7  2  0  0  0  0
  5 12  1  0  0  0  0
  6  8  2  0  0  0  0
  6 13  1  0  0  0  0
  7  8  1  0  0  0  0
  8 14  1  0  0  0  0
  9 10  2  0  0  0  0
  9 15  1  0  0  0  0
 10 11  1  0  0  0  0
 10 16  1  0  0  0  0
 11 17  1  0  0  0  0
M  END
> <PUBCHEM_COMPOUND_CID>
11377

> <PUBCHEM_CONFORMER_RMSD>
0.4

> <PUBCHEM_CONFORMER_DIVERSEORDER>
1

> <PUBCHEM_MMFF94_PARTIAL_CHARGES>
18
1 -0.62
10 -0.15
11 0.16
12 0.15
13 0.15
14 0.15
15 0.15
16 0.15
17 0.15
18 0.4
19 0.4
2 -0.9
4 0.31
5 -0.15
6 -0.15
7 0.1
8 -0.15
9 -0.15

> <PUBCHEM_EFFECTIVE_ROTOR_COUNT>
0

> <PUBCHEM_PHARMACOPHORE_FEATURES>
5
1 1 acceptor
1 2 cation
1 2 donor
6 1 3 4 9 10 11 rings
6 3 4 5 6 7 8 rings

> <PUBCHEM_HEAVY_ATOM_COUNT>
11

> <PUBCHEM_ATOM_DEF_STEREO_COUNT>
0

> <PUBCHEM_ATOM_UDEF_STEREO_COUNT>
0

> <PUBCHEM_BOND_DEF_STEREO_COUNT>
0

> <PUBCHEM_BOND_UDEF_STEREO_COUNT>
0

> <PUBCHEM_ISOTOPIC_ATOM_COUNT>
0

> <PUBCHEM_COMPONENT_COUNT>
1

> <PUBCHEM_CACTVS_TAUTO_COUNT>
2

> <PUBCHEM_CONFORMER_ID>
00002C7100000001

> <PUBCHEM_MMFF94_ENERGY>
41.7724

> <PUBCHEM_FEATURE_SELFOVERLAP>
25.403

> <PUBCHEM_SHAPE_FINGERPRINT>
12524768 44 18409162250934387678
12897270 3 18410292497426995244
12932764 1 17418384596520192046
13380535 76 18410015428971068935
14325111 11 18410573968114175653
15775835 57 18341607114099322812
16945 1 18410855485977177798
17844478 74 17988633108517077801
193761 8 17834394514741133541
19973954 147 18339358548353683394
20201158 50 18408323319335986014
21040471 1 18338797810424470562
21501502 16 18339082575230221902
23235685 24 18409173224580954153
23402655 69 18335714883548560605
23463225 33 18341897445604663338
23552423 10 18199749159076263630
23559900 14 18334849516784803900
241688 4 17327450836017697034
2748010 2 18338516313809445214
369184 2 18411139112674501011
5084963 1 18187367674415255450
528886 8 18410016537061731146
53812653 166 18334582317361753536

> <PUBCHEM_SHAPE_MULTIPOLES>
216.41
4.23
1.65
0.6
0.7
0.18
0
-0.68
0
-0.06
0
-0.02
0.02
0

> <PUBCHEM_SHAPE_SELFOVERLAP>
476.701

> <PUBCHEM_SHAPE_VOLUME>
116.1

> <PUBCHEM_COORDINATE_TYPE>
2
5
10

$$$$

