4193
  -OEChem-06251223562D

132134  0     1  0  0  0  0  0999 V2000
   12.2334    2.2173    0.0000 O   0  0  0  0  0  0  0  0  0  0  0  0
   10.5013    0.2173    0.0000 O   0  0  0  0  0  0  0  0  0  0  0  0
   12.5994    0.8513    0.0000 O   0  0  0  0  0  0  0  0  0  0  0  0
    7.9033    0.7173    0.0000 O   0  0  0  0  0  0  0  0  0  0  0  0
    8.7693    2.2173    0.0000 O   0  0  0  0  0  0  0  0  0  0  0  0
   15.4654    0.3513    0.0000 O   0  0  0  0  0  0  0  0  0  0  0  0
   14.5994   -0.8808    0.0000 O   0  0  0  0  0  0  0  0  0  0  0  0
    6.7884   -2.5528    0.0000 O   0  0  0  0  0  0  0  0  0  0  0  0
    5.3052    2.2173    0.0000 O   0  0  0  0  0  0  0  0  0  0  0  0
    7.9033    1.7173    0.0000 O   0  0  0  0  0  0  0  0  0  0  0  0
   13.0994   -1.7468    0.0000 O   0  0  0  0  0  0  0  0  0  0  0  0
    3.7247   -2.0806    0.0000 O   0  0  0  0  0  0  0  0  0  0  0  0
    4.9495   -3.3053    0.0000 O   0  0  0  0  0  0  0  0  0  0  0  0
    8.3828   -1.8762    0.0000 O   0  0  0  0  0  0  0  0  0  0  0  0
   10.5013    3.2173    0.0000 N   0  0  0  0  0  0  0  0  0  0  0  0
   11.3674    1.7173    0.0000 C   0  0  3  0  0  0  0  0  0  0  0  0
   10.5013    2.2173    0.0000 C   0  0  3  0  0  0  0  0  0  0  0  0
   13.0994    1.7173    0.0000 C   0  0  3  0  0  0  0  0  0  0  0  0
    9.6353    1.7173    0.0000 C   0  0  3  0  0  0  0  0  0  0  0  0
   11.3674    0.7173    0.0000 C   0  0  3  0  0  0  0  0  0  0  0  0
    9.6353    0.7173    0.0000 C   0  0  3  0  0  0  0  0  0  0  0  0
   14.5994    0.8513    0.0000 C   0  0  3  0  0  0  0  0  0  0  0  0
   14.0994    1.7173    0.0000 C   0  0  0  0  0  0  0  0  0  0  0  0
   14.0994   -0.0148    0.0000 C   0  0  3  0  0  0  0  0  0  0  0  0
   13.0994   -0.0148    0.0000 C   0  0  3  0  0  0  0  0  0  0  0  0
    7.0372    0.2173    0.0000 C   0  0  3  0  0  0  0  0  0  0  0  0
    8.7693    0.2173    0.0000 C   0  0  0  0  0  0  0  0  0  0  0  0
    6.1712    0.7173    0.0000 C   0  0  3  0  0  0  0  0  0  0  0  0
   13.0994    2.7173    0.0000 C   0  0  0  0  0  0  0  0  0  0  0  0
    7.0372   -0.7827    0.0000 C   0  0  3  0  0  0  0  0  0  0  0  0
   12.2334    0.2173    0.0000 C   0  0  0  0  0  0  0  0  0  0  0  0
   15.4654    1.3513    0.0000 C   0  0  0  0  0  0  0  0  0  0  0  0
    5.3052    0.2173    0.0000 C   0  0  0  0  0  0  0  0  0  0  0  0
   12.5994   -0.8808    0.0000 C   0  0  0  0  0  0  0  0  0  0  0  0
    6.3978   -1.6323    0.0000 C   0  0  3  0  0  0  0  0  0  0  0  0
    6.1712    1.7173    0.0000 C   0  0  0  0  0  0  0  0  0  0  0  0
    4.4392    0.7173    0.0000 C   0  0  3  0  0  0  0  0  0  0  0  0
   11.3674    3.7173    0.0000 C   0  0  0  0  0  0  0  0  0  0  0  0
    9.6353    3.7173    0.0000 C   0  0  0  0  0  0  0  0  0  0  0  0
    8.0107   -1.0117    0.0000 C   0  0  0  0  0  0  0  0  0  0  0  0
    5.3978   -1.6323    0.0000 C   0  0  0  0  0  0  0  0  0  0  0  0
    4.4392    1.7173    0.0000 C   0  0  3  0  0  0  0  0  0  0  0  0
    3.5731    0.2173    0.0000 C   0  0  0  0  0  0  0  0  0  0  0  0
    7.0372    2.2173    0.0000 C   0  0  0  0  0  0  0  0  0  0  0  0
   14.0994   -1.7468    0.0000 C   0  0  0  0  0  0  0  0  0  0  0  0
    4.6907   -2.3394    0.0000 C   0  0  0  0  0  0  0  0  0  0  0  0
    3.5731    2.2173    0.0000 C   0  0  0  0  0  0  0  0  0  0  0  0
   14.5994   -2.6128    0.0000 C   0  0  0  0  0  0  0  0  0  0  0  0
    7.0372    3.2173    0.0000 C   0  0  0  0  0  0  0  0  0  0  0  0
    7.7810   -2.6748    0.0000 C   0  0  0  0  0  0  0  0  0  0  0  0
   14.0994   -3.4789    0.0000 C   0  0  0  0  0  0  0  0  0  0  0  0
    2.7071    1.7173    0.0000 C   0  0  0  0  0  0  0  0  0  0  0  0
    8.1716   -3.5953    0.0000 C   0  0  0  0  0  0  0  0  0  0  0  0
    3.2247   -1.2146    0.0000 C   0  0  3  0  0  0  0  0  0  0  0  0
    2.2588   -0.9557    0.0000 C   0  0  0  0  0  0  0  0  0  0  0  0
    2.7071    0.7173    0.0000 C   0  0  0  0  0  0  0  0  0  0  0  0
    9.1642   -3.7173    0.0000 C   0  0  0  0  0  0  0  0  0  0  0  0
    2.0000    0.0102    0.0000 C   0  0  0  0  0  0  0  0  0  0  0  0
    3.8335   -0.4212    0.0000 C   0  0  0  0  0  0  0  0  0  0  0  0
   11.3674    2.5673    0.0000 H   0  0  0  0  0  0  0  0  0  0  0  0
    9.7652    2.6423    0.0000 H   0  0  0  0  0  0  0  0  0  0  0  0
    9.6353    2.5673    0.0000 H   0  0  0  0  0  0  0  0  0  0  0  0
   11.3674   -0.1327    0.0000 H   0  0  0  0  0  0  0  0  0  0  0  0
    9.6353   -0.1327    0.0000 H   0  0  0  0  0  0  0  0  0  0  0  0
   14.6820    1.9293    0.0000 H   0  0  0  0  0  0  0  0  0  0  0  0
   13.9917    2.3279    0.0000 H   0  0  0  0  0  0  0  0  0  0  0  0
   14.9494   -0.0148    0.0000 H   0  0  0  0  0  0  0  0  0  0  0  0
   12.2494   -0.0148    0.0000 H   0  0  0  0  0  0  0  0  0  0  0  0
    7.0372    1.0673    0.0000 H   0  0  0  0  0  0  0  0  0  0  0  0
    8.3708   -0.2577    0.0000 H   0  0  0  0  0  0  0  0  0  0  0  0
    9.1678   -0.2577    0.0000 H   0  0  0  0  0  0  0  0  0  0  0  0
    6.9073    1.1423    0.0000 H   0  0  0  0  0  0  0  0  0  0  0  0
   13.7194    2.7173    0.0000 H   0  0  0  0  0  0  0  0  0  0  0  0
   13.0994    3.3373    0.0000 H   0  0  0  0  0  0  0  0  0  0  0  0
   12.4794    2.7173    0.0000 H   0  0  0  0  0  0  0  0  0  0  0  0
    7.3265   -1.5820    0.0000 H   0  0  0  0  0  0  0  0  0  0  0  0
   11.9234   -0.3196    0.0000 H   0  0  0  0  0  0  0  0  0  0  0  0
   12.7703   -0.0927    0.0000 H   0  0  0  0  0  0  0  0  0  0  0  0
   12.5434    0.7542    0.0000 H   0  0  0  0  0  0  0  0  0  0  0  0
   15.7754    0.8143    0.0000 H   0  0  0  0  0  0  0  0  0  0  0  0
   16.0024    1.6613    0.0000 H   0  0  0  0  0  0  0  0  0  0  0  0
   15.1554    1.8882    0.0000 H   0  0  0  0  0  0  0  0  0  0  0  0
    4.9066   -0.2577    0.0000 H   0  0  0  0  0  0  0  0  0  0  0  0
    5.7037   -0.2577    0.0000 H   0  0  0  0  0  0  0  0  0  0  0  0
   12.0625   -0.5708    0.0000 H   0  0  0  0  0  0  0  0  0  0  0  0
   12.2894   -1.4177    0.0000 H   0  0  0  0  0  0  0  0  0  0  0  0
   13.1363   -1.1908    0.0000 H   0  0  0  0  0  0  0  0  0  0  0  0
    8.7693    2.8373    0.0000 H   0  0  0  0  0  0  0  0  0  0  0  0
    7.2415   -1.7357    0.0000 H   0  0  0  0  0  0  0  0  0  0  0  0
    5.9592    2.2999    0.0000 H   0  0  0  0  0  0  0  0  0  0  0  0
    5.5606    1.6096    0.0000 H   0  0  0  0  0  0  0  0  0  0  0  0
    3.7030    1.1423    0.0000 H   0  0  0  0  0  0  0  0  0  0  0  0
   16.0024    0.6613    0.0000 H   0  0  0  0  0  0  0  0  0  0  0  0
   11.6774    3.1803    0.0000 H   0  0  0  0  0  0  0  0  0  0  0  0
   11.9043    4.0273    0.0000 H   0  0  0  0  0  0  0  0  0  0  0  0
   11.0574    4.2542    0.0000 H   0  0  0  0  0  0  0  0  0  0  0  0
    9.9453    4.2542    0.0000 H   0  0  0  0  0  0  0  0  0  0  0  0
    9.0984    4.0273    0.0000 H   0  0  0  0  0  0  0  0  0  0  0  0
    9.3253    3.1803    0.0000 H   0  0  0  0  0  0  0  0  0  0  0  0
    7.8687   -1.6152    0.0000 H   0  0  0  0  0  0  0  0  0  0  0  0
    8.6142   -1.1536    0.0000 H   0  0  0  0  0  0  0  0  0  0  0  0
    8.1526   -0.4082    0.0000 H   0  0  0  0  0  0  0  0  0  0  0  0
    5.5582   -1.0334    0.0000 H   0  0  0  0  0  0  0  0  0  0  0  0
    4.8608   -1.3223    0.0000 H   0  0  0  0  0  0  0  0  0  0  0  0
    4.4392    2.5673    0.0000 H   0  0  0  0  0  0  0  0  0  0  0  0
    3.2631    0.7542    0.0000 H   0  0  0  0  0  0  0  0  0  0  0  0
    3.0362   -0.0927    0.0000 H   0  0  0  0  0  0  0  0  0  0  0  0
    3.8831   -0.3196    0.0000 H   0  0  0  0  0  0  0  0  0  0  0  0
    3.5731    2.8373    0.0000 H   0  0  0  0  0  0  0  0  0  0  0  0
   15.0744   -3.0114    0.0000 H   0  0  0  0  0  0  0  0  0  0  0  0
   15.0744   -2.2143    0.0000 H   0  0  0  0  0  0  0  0  0  0  0  0
    7.6572    3.2173    0.0000 H   0  0  0  0  0  0  0  0  0  0  0  0
    7.0372    3.8373    0.0000 H   0  0  0  0  0  0  0  0  0  0  0  0
    6.4172    3.2173    0.0000 H   0  0  0  0  0  0  0  0  0  0  0  0
    5.3052    2.8373    0.0000 H   0  0  0  0  0  0  0  0  0  0  0  0
   13.5625   -3.1689    0.0000 H   0  0  0  0  0  0  0  0  0  0  0  0
   13.7894   -4.0158    0.0000 H   0  0  0  0  0  0  0  0  0  0  0  0
   14.6363   -3.7889    0.0000 H   0  0  0  0  0  0  0  0  0  0  0  0
    2.1702    2.0273    0.0000 H   0  0  0  0  0  0  0  0  0  0  0  0
    7.5675   -3.7348    0.0000 H   0  0  0  0  0  0  0  0  0  0  0  0
    8.2040   -4.2145    0.0000 H   0  0  0  0  0  0  0  0  0  0  0  0
    4.0729   -1.2702    0.0000 H   0  0  0  0  0  0  0  0  0  0  0  0
    1.6412   -1.0098    0.0000 H   0  0  0  0  0  0  0  0  0  0  0  0
    2.2048   -1.5734    0.0000 H   0  0  0  0  0  0  0  0  0  0  0  0
    3.2799    0.4800    0.0000 H   0  0  0  0  0  0  0  0  0  0  0  0
    9.0885   -4.3327    0.0000 H   0  0  0  0  0  0  0  0  0  0  0  0
    9.7795   -3.7929    0.0000 H   0  0  0  0  0  0  0  0  0  0  0  0
    9.2398   -3.1019    0.0000 H   0  0  0  0  0  0  0  0  0  0  0  0
    1.4011    0.1706    0.0000 H   0  0  0  0  0  0  0  0  0  0  0  0
    4.3254   -0.7986    0.0000 H   0  0  0  0  0  0  0  0  0  0  0  0
    4.2109    0.0707    0.0000 H   0  0  0  0  0  0  0  0  0  0  0  0
    3.3416   -0.0438    0.0000 H   0  0  0  0  0  0  0  0  0  0  0  0
  1 16  1  0  0  0  0
  1 18  1  0  0  0  0
  2 20  1  0  0  0  0
  2 21  1  0  0  0  0
  3 18  1  0  0  0  0
  3 25  1  0  0  0  0
  4 26  1  0  0  0  0
  4 27  1  0  0  0  0
  5 19  1  0  0  0  0
  5 88  1  0  0  0  0
  6 22  1  0  0  0  0
  6 93  1  0  0  0  0
  7 24  1  0  0  0  0
  7 45  1  0  0  0  0
  8 35  1  0  0  0  0
  8 50  1  0  0  0  0
  9 42  1  0  0  0  0
  9115  1  0  0  0  0
 10 44  2  0  0  0  0
 11 45  2  0  0  0  0
 12 46  1  0  0  0  0
 12 54  1  0  0  0  0
 13 46  2  0  0  0  0
 14 50  2  0  0  0  0
 15 17  1  0  0  0  0
 15 38  1  0  0  0  0
 15 39  1  0  0  0  0
 16 17  1  0  0  0  0
 16 20  1  0  0  0  0
 16 60  1  0  0  0  0
 17 19  1  0  0  0  0
 17 61  1  0  0  0  0
 18 23  1  0  0  0  0
 18 29  1  0  0  0  0
 19 21  1  0  0  0  0
 19 62  1  0  0  0  0
 20 31  1  0  0  0  0
 20 63  1  0  0  0  0
 21 27  1  0  0  0  0
 21 64  1  0  0  0  0
 22 23  1  0  0  0  0
 22 24  1  0  0  0  0
 22 32  1  0  0  0  0
 23 65  1  0  0  0  0
 23 66  1  0  0  0  0
 24 25  1  0  0  0  0
 24 67  1  0  0  0  0
 25 34  1  0  0  0  0
 25 68  1  0  0  0  0
 26 28  1  0  0  0  0
 26 30  1  0  0  0  0
 26 69  1  0  0  0  0
 27 70  1  0  0  0  0
 27 71  1  0  0  0  0
 28 33  1  0  0  0  0
 28 36  1  0  0  0  0
 28 72  1  0  0  0  0
 29 73  1  0  0  0  0
 29 74  1  0  0  0  0
 29 75  1  0  0  0  0
 30 35  1  0  0  0  0
 30 40  1  0  0  0  0
 30 76  1  0  0  0  0
 31 77  1  0  0  0  0
 31 78  1  0  0  0  0
 31 79  1  0  0  0  0
 32 80  1  0  0  0  0
 32 81  1  0  0  0  0
 32 82  1  0  0  0  0
 33 37  1  0  0  0  0
 33 83  1  0  0  0  0
 33 84  1  0  0  0  0
 34 85  1  0  0  0  0
 34 86  1  0  0  0  0
 34 87  1  0  0  0  0
 35 41  1  0  0  0  0
 35 89  1  0  0  0  0
 36 44  1  0  0  0  0
 36 90  1  0  0  0  0
 36 91  1  0  0  0  0
 37 42  1  0  0  0  0
 37 43  1  0  0  0  0
 37 92  1  0  0  0  0
 38 94  1  0  0  0  0
 38 95  1  0  0  0  0
 38 96  1  0  0  0  0
 39 97  1  0  0  0  0
 39 98  1  0  0  0  0
 39 99  1  0  0  0  0
 40100  1  0  0  0  0
 40101  1  0  0  0  0
 40102  1  0  0  0  0
 41 46  1  0  0  0  0
 41103  1  0  0  0  0
 41104  1  0  0  0  0
 42 47  1  0  0  0  0
 42105  1  0  0  0  0
 43106  1  0  0  0  0
 43107  1  0  0  0  0
 43108  1  0  0  0  0
 44 49  1  0  0  0  0
 45 48  1  0  0  0  0
 47 52  2  3  0  0  0
 47109  1  0  0  0  0
 48 51  1  0  0  0  0
 48110  1  0  0  0  0
 48111  1  0  0  0  0
 49112  1  0  0  0  0
 49113  1  0  0  0  0
 49114  1  0  0  0  0
 50 53  1  0  0  0  0
 51116  1  0  0  0  0
 51117  1  0  0  0  0
 51118  1  0  0  0  0
 52 56  1  0  0  0  0
 52119  1  0  0  0  0
 53 57  1  0  0  0  0
 53120  1  0  0  0  0
 53121  1  0  0  0  0
 54 55  1  0  0  0  0
 54 59  1  0  0  0  0
 54122  1  0  0  0  0
 55 58  1  0  0  0  0
 55123  1  0  0  0  0
 55124  1  0  0  0  0
 56 58  2  3  0  0  0
 56125  1  0  0  0  0
 57126  1  0  0  0  0
 57127  1  0  0  0  0
 57128  1  0  0  0  0
 58129  1  0  0  0  0
 59130  1  0  0  0  0
 59131  1  0  0  0  0
 59132  1  0  0  0  0
M  END
> <PUBCHEM_COMPOUND_CID>
4193

> <PUBCHEM_COMPOUND_CANONICALIZED>
1

> <PUBCHEM_CACTVS_COMPLEXITY>
1450

> <PUBCHEM_CACTVS_HBOND_ACCEPTOR>
15

> <PUBCHEM_CACTVS_HBOND_DONOR>
3

> <PUBCHEM_CACTVS_ROTATABLE_BOND>
14

> <PUBCHEM_CACTVS_SUBSKEYS>
AAADcfB+PAAAAAAAAAAAAAAAAAAAAAAAAAAkSAAAAAAAAAAAAAAAHgAACAAADXzhgAYCCAMABgCIAKDSCAAAAAAgAAAICAEIAAgbFBYAgQAnUAAH4AAfkAPq7OzOAAAAAAAAAAAAAAAAAAAAAAAAAAAAAA==

> <PUBCHEM_IUPAC_OPENEYE_NAME>
[7-acetonyl-6-[[4-(dimethylamino)-3-hydroxy-5-(4-hydroxy-2,4,6-trimethyl-5-propanoyloxy-tetrahydropyran-2-yl)oxy-6-methyl-tetrahydropyran-2-yl]methoxy]-10-hydroxy-5,9,16-trimethyl-2-oxo-1-oxacyclohexadeca-11,13-dien-4-yl] propanoate

> <PUBCHEM_IUPAC_CAS_NAME>
propanoic acid [6-[[4-(dimethylamino)-3-hydroxy-5-[[4-hydroxy-2,4,6-trimethyl-5-(1-oxopropoxy)-2-oxanyl]oxy]-6-methyl-2-oxanyl]methoxy]-10-hydroxy-5,9,16-trimethyl-2-oxo-7-(2-oxopropyl)-1-oxacyclohexadeca-11,13-dien-4-yl] ester

> <PUBCHEM_IUPAC_NAME>
[6-[[4-(dimethylamino)-3-hydroxy-5-(4-hydroxy-2,4,6-trimethyl-5-propanoyloxyoxan-2-yl)oxy-6-methyloxan-2-yl]methoxy]-10-hydroxy-5,9,16-trimethyl-2-oxo-7-(2-oxopropyl)-1-oxacyclohexadeca-11,13-dien-4-yl] propanoate

> <PUBCHEM_IUPAC_SYSTEMATIC_NAME>
[6-[[4-(dimethylamino)-6-methyl-3-oxidanyl-5-(2,4,6-trimethyl-4-oxidanyl-5-propanoyloxy-oxan-2-yl)oxy-oxan-2-yl]methoxy]-5,9,16-trimethyl-10-oxidanyl-2-oxidanylidene-7-(2-oxidanylidenepropyl)-1-oxacyclohexadeca-11,13-dien-4-yl] propanoate

> <PUBCHEM_IUPAC_TRADITIONAL_NAME>
propionic acid [7-acetonyl-6-[[4-(dimethylamino)-3-hydroxy-5-(4-hydroxy-2,4,6-trimethyl-5-propionyloxy-tetrahydropyran-2-yl)oxy-6-methyl-tetrahydropyran-2-yl]methoxy]-10-hydroxy-2-keto-5,9,16-trimethyl-1-oxacyclohexadeca-11,13-dien-4-yl] ester

> <PUBCHEM_IUPAC_INCHI>
InChI=1S/C44H73NO14/c1-13-35(48)56-33-22-37(50)54-27(5)18-16-15-17-19-32(47)25(3)20-31(21-26(4)46)40(28(33)6)53-23-34-39(51)38(45(11)12)41(29(7)55-34)59-44(10)24-43(9,52)42(30(8)58-44)57-36(49)14-2/h15-17,19,25,27-34,38-42,47,51-52H,13-14,18,20-24H2,1-12H3

> <PUBCHEM_IUPAC_INCHIKEY>
DXFLHMDZDAXRFK-UHFFFAOYSA-N

> <PUBCHEM_XLOGP3_AA>
3.8

> <PUBCHEM_EXACT_MASS>
839.503106

> <PUBCHEM_MOLECULAR_FORMULA>
C44H73NO14

> <PUBCHEM_MOLECULAR_WEIGHT>
840.04872

> <PUBCHEM_OPENEYE_CAN_SMILES>
CCC(=O)OC1CC(=O)OC(CC=CC=CC(C(CC(C(C1C)OCC2C(C(C(C(O2)C)OC3(CC(C(C(O3)C)OC(=O)CC)(C)O)C)N(C)C)O)CC(=O)C)C)O)C

> <PUBCHEM_OPENEYE_ISO_SMILES>
CCC(=O)OC1CC(=O)OC(CC=CC=CC(C(CC(C(C1C)OCC2C(C(C(C(O2)C)OC3(CC(C(C(O3)C)OC(=O)CC)(C)O)C)N(C)C)O)CC(=O)C)C)O)C

> <PUBCHEM_CACTVS_TPSA>
197

> <PUBCHEM_MONOISOTOPIC_WEIGHT>
839.503106

> <PUBCHEM_TOTAL_CHARGE>
0

> <PUBCHEM_HEAVY_ATOM_COUNT>
59

> <PUBCHEM_ATOM_DEF_STEREO_COUNT>
0

> <PUBCHEM_ATOM_UDEF_STEREO_COUNT>
16

> <PUBCHEM_BOND_DEF_STEREO_COUNT>
0

> <PUBCHEM_BOND_UDEF_STEREO_COUNT>
2

> <PUBCHEM_ISOTOPIC_ATOM_COUNT>
0

> <PUBCHEM_COMPONENT_COUNT>
1

> <PUBCHEM_CACTVS_TAUTO_COUNT>
6

> <PUBCHEM_COORDINATE_TYPE>
1
5
255

> <PUBCHEM_BONDANNOTATIONS>
16  60  3
17  61  3
18  29  3
19  62  3
20  63  3
21  64  3
22  32  3
24  67  3
25  68  3
26  69  3
28  72  3
30  76  3
35  89  3
37  92  3
42  105  3
47  52  1
54  122  3
56  58  1

$$$$

