5632
  -OEChem-06261200472D

 42 43  0     0  0  0  0  0  0999 V2000
    2.0000   -4.5670    0.0000 F   0  0  0  0  0  0  0  0  0  0  0  0
    3.3660   -4.9330    0.0000 F   0  0  0  0  0  0  0  0  0  0  0  0
    2.3660   -3.2010    0.0000 F   0  0  0  0  0  0  0  0  0  0  0  0
    4.5981    1.9330    0.0000 O   0  0  0  0  0  0  0  0  0  0  0  0
    3.7320    0.4330    0.0000 O   0  0  0  0  0  0  0  0  0  0  0  0
    4.5981   -1.0670    0.0000 N   0  0  0  0  0  0  0  0  0  0  0  0
    5.4641    3.4330    0.0000 C   0  0  0  0  0  0  0  0  0  0  0  0
    6.3301    3.9330    0.0000 C   0  0  0  0  0  0  0  0  0  0  0  0
    5.4641    2.4330    0.0000 C   0  0  0  0  0  0  0  0  0  0  0  0
    5.4641   -0.5670    0.0000 C   0  0  0  0  0  0  0  0  0  0  0  0
    5.4641    0.4330    0.0000 C   0  0  0  0  0  0  0  0  0  0  0  0
    4.5981   -2.0670    0.0000 C   0  0  0  0  0  0  0  0  0  0  0  0
    3.7320   -2.5670    0.0000 C   0  0  0  0  0  0  0  0  0  0  0  0
    4.5981    0.9330    0.0000 C   0  0  0  0  0  0  0  0  0  0  0  0
    3.7320   -3.5670    0.0000 C   0  0  0  0  0  0  0  0  0  0  0  0
    6.3301    4.9330    0.0000 C   0  0  0  0  0  0  0  0  0  0  0  0
    6.3301   -1.0670    0.0000 C   0  0  0  0  0  0  0  0  0  0  0  0
    6.3301    0.9330    0.0000 C   0  0  0  0  0  0  0  0  0  0  0  0
    5.4641   -2.5670    0.0000 C   0  0  0  0  0  0  0  0  0  0  0  0
    4.5981   -4.0670    0.0000 C   0  0  0  0  0  0  0  0  0  0  0  0
    7.1962   -0.5670    0.0000 C   0  0  0  0  0  0  0  0  0  0  0  0
    7.1962    0.4330    0.0000 C   0  0  0  0  0  0  0  0  0  0  0  0
    5.4641   -3.5670    0.0000 C   0  0  0  0  0  0  0  0  0  0  0  0
    2.8660   -4.0670    0.0000 C   0  0  0  0  0  0  0  0  0  0  0  0
    5.2520    4.0156    0.0000 H   0  0  0  0  0  0  0  0  0  0  0  0
    4.8535    3.3254    0.0000 H   0  0  0  0  0  0  0  0  0  0  0  0
    6.5422    3.3504    0.0000 H   0  0  0  0  0  0  0  0  0  0  0  0
    6.9407    4.0407    0.0000 H   0  0  0  0  0  0  0  0  0  0  0  0
    5.6762    1.8504    0.0000 H   0  0  0  0  0  0  0  0  0  0  0  0
    6.0747    2.5407    0.0000 H   0  0  0  0  0  0  0  0  0  0  0  0
    4.0611   -0.7570    0.0000 H   0  0  0  0  0  0  0  0  0  0  0  0
    3.1951   -2.2570    0.0000 H   0  0  0  0  0  0  0  0  0  0  0  0
    6.9501    4.9330    0.0000 H   0  0  0  0  0  0  0  0  0  0  0  0
    6.3301    5.5530    0.0000 H   0  0  0  0  0  0  0  0  0  0  0  0
    5.7101    4.9330    0.0000 H   0  0  0  0  0  0  0  0  0  0  0  0
    6.3301   -1.6870    0.0000 H   0  0  0  0  0  0  0  0  0  0  0  0
    6.3301    1.5530    0.0000 H   0  0  0  0  0  0  0  0  0  0  0  0
    6.0010   -2.2570    0.0000 H   0  0  0  0  0  0  0  0  0  0  0  0
    4.5981   -4.6870    0.0000 H   0  0  0  0  0  0  0  0  0  0  0  0
    7.7331   -0.8770    0.0000 H   0  0  0  0  0  0  0  0  0  0  0  0
    6.0010   -3.8770    0.0000 H   0  0  0  0  0  0  0  0  0  0  0  0
    7.7331    0.7430    0.0000 H   0  0  0  0  0  0  0  0  0  0  0  0
  1 24  1  0  0  0  0
  2 24  1  0  0  0  0
  3 24  1  0  0  0  0
  4  9  1  0  0  0  0
  4 14  1  0  0  0  0
  5 14  2  0  0  0  0
  6 10  1  0  0  0  0
  6 12  1  0  0  0  0
  6 31  1  0  0  0  0
  7  8  1  0  0  0  0
  7  9  1  0  0  0  0
  7 25  1  0  0  0  0
  7 26  1  0  0  0  0
  8 16  1  0  0  0  0
  8 27  1  0  0  0  0
  8 28  1  0  0  0  0
  9 29  1  0  0  0  0
  9 30  1  0  0  0  0
 10 11  1  0  0  0  0
 10 17  2  0  0  0  0
 11 14  1  0  0  0  0
 11 18  2  0  0  0  0
 12 13  1  0  0  0  0
 12 19  2  0  0  0  0
 13 15  2  0  0  0  0
 13 32  1  0  0  0  0
 15 20  1  0  0  0  0
 15 24  1  0  0  0  0
 16 33  1  0  0  0  0
 16 34  1  0  0  0  0
 16 35  1  0  0  0  0
 17 21  1  0  0  0  0
 17 36  1  0  0  0  0
 18 22  1  0  0  0  0
 18 37  1  0  0  0  0
 19 23  1  0  0  0  0
 19 38  1  0  0  0  0
 20 23  2  0  0  0  0
 20 39  1  0  0  0  0
 21 22  2  0  0  0  0
 21 40  1  0  0  0  0
 22 42  1  0  0  0  0
 23 41  1  0  0  0  0
M  END
> <PUBCHEM_COMPOUND_CID>
5632

> <PUBCHEM_COMPOUND_CANONICALIZED>
1

> <PUBCHEM_CACTVS_COMPLEXITY>
400

> <PUBCHEM_CACTVS_HBOND_ACCEPTOR>
6

> <PUBCHEM_CACTVS_HBOND_DONOR>
1

> <PUBCHEM_CACTVS_ROTATABLE_BOND>
7

> <PUBCHEM_CACTVS_SUBSKEYS>
AAADceB6MYAAAAAAAAAAAAAAAAAAAAAAAAAwYAAAAAAAAAABQAAAHwAQAAAADAihmBIyyILABACIAiTSSACCAAAlAgAIiAEAbMgIJnrAtZmGMYhm0AHI6ceYyCCOAAAAQAACAAAAAACAAAQAAAAAAAAAAA==

> <PUBCHEM_IUPAC_OPENEYE_NAME>
butyl 2-[3-(trifluoromethyl)anilino]benzoate

> <PUBCHEM_IUPAC_CAS_NAME>
2-[3-(trifluoromethyl)anilino]benzoic acid butyl ester

> <PUBCHEM_IUPAC_NAME>
butyl 2-[3-(trifluoromethyl)anilino]benzoate

> <PUBCHEM_IUPAC_SYSTEMATIC_NAME>
butyl 2-[[3-(trifluoromethyl)phenyl]amino]benzoate

> <PUBCHEM_IUPAC_TRADITIONAL_NAME>
2-[3-(trifluoromethyl)anilino]benzoic acid butyl ester

> <PUBCHEM_IUPAC_INCHI>
InChI=1S/C18H18F3NO2/c1-2-3-11-24-17(23)15-9-4-5-10-16(15)22-14-8-6-7-13(12-14)18(19,20)21/h4-10,12,22H,2-3,11H2,1H3

> <PUBCHEM_IUPAC_INCHIKEY>
JDLSRXWHEBFHNC-UHFFFAOYSA-N

> <PUBCHEM_XLOGP3>
6.8

> <PUBCHEM_EXACT_MASS>
337.128963

> <PUBCHEM_MOLECULAR_FORMULA>
C18H18F3NO2

> <PUBCHEM_MOLECULAR_WEIGHT>
337.33623

> <PUBCHEM_OPENEYE_CAN_SMILES>
CCCCOC(=O)C1=CC=CC=C1NC2=CC=CC(=C2)C(F)(F)F

> <PUBCHEM_OPENEYE_ISO_SMILES>
CCCCOC(=O)C1=CC=CC=C1NC2=CC=CC(=C2)C(F)(F)F

> <PUBCHEM_CACTVS_TPSA>
38.3

> <PUBCHEM_MONOISOTOPIC_WEIGHT>
337.128963

> <PUBCHEM_TOTAL_CHARGE>
0

> <PUBCHEM_HEAVY_ATOM_COUNT>
24

> <PUBCHEM_ATOM_DEF_STEREO_COUNT>
0

> <PUBCHEM_ATOM_UDEF_STEREO_COUNT>
0

> <PUBCHEM_BOND_DEF_STEREO_COUNT>
0

> <PUBCHEM_BOND_UDEF_STEREO_COUNT>
0

> <PUBCHEM_ISOTOPIC_ATOM_COUNT>
0

> <PUBCHEM_COMPONENT_COUNT>
1

> <PUBCHEM_CACTVS_TAUTO_COUNT>
4

> <PUBCHEM_COORDINATE_TYPE>
1
5
255

> <PUBCHEM_BONDANNOTATIONS>
10  11  8
10  17  8
11  18  8
12  13  8
12  19  8
13  15  8
15  20  8
17  21  8
18  22  8
19  23  8
20  23  8
21  22  8

$$$$

