17396563
  -OEChem-06241222573D

 36 38  0     1  0  0  0  0  0999 V2000
   -2.9332   -1.7524   -0.4603 S   0  0  0  0  0  0  0  0  0  0  0  0
    0.4622   -0.0529    0.6645 O   0  0  0  0  0  0  0  0  0  0  0  0
    2.1630    1.9579    0.7158 O   0  0  0  0  0  0  0  0  0  0  0  0
    4.1169   -1.7757   -0.2661 O   0  0  0  0  0  0  0  0  0  0  0  0
    0.0017   -2.1918   -0.0202 O   0  0  0  0  0  0  0  0  0  0  0  0
    3.8628    0.6017   -0.1135 N   0  0  0  0  0  0  0  0  0  0  0  0
    5.7436   -0.2944   -1.0484 N   0  0  0  0  0  0  0  0  0  0  0  0
    4.7547    1.7131   -0.4068 C   0  0  0  0  0  0  0  0  0  0  0  0
    5.8817    1.1228   -1.2275 C   0  0  0  0  0  0  0  0  0  0  0  0
    1.8232   -0.3967    0.8299 C   0  0  1  0  0  0  0  0  0  0  0  0
    2.6127    0.8359    0.4771 C   0  0  0  0  0  0  0  0  0  0  0  0
    4.5171   -0.6339   -0.4509 C   0  0  0  0  0  0  0  0  0  0  0  0
    2.1035   -0.8289    2.2513 C   0  0  0  0  0  0  0  0  0  0  0  0
   -3.7361    0.6506    0.0555 C   0  0  0  0  0  0  0  0  0  0  0  0
   -1.7722   -0.6256    0.0763 C   0  0  0  0  0  0  0  0  0  0  0  0
   -4.2061   -0.5920   -0.3810 C   0  0  0  0  0  0  0  0  0  0  0  0
   -0.3780   -1.0513    0.2249 C   0  0  0  0  0  0  0  0  0  0  0  0
   -2.3249    0.6102    0.3148 C   0  0  0  0  0  0  0  0  0  0  0  0
   -4.6642    1.7133    0.1738 C   0  0  0  0  0  0  0  0  0  0  0  0
   -5.5635   -0.7960   -0.6981 C   0  0  0  0  0  0  0  0  0  0  0  0
   -6.0113    1.5142   -0.1400 C   0  0  0  0  0  0  0  0  0  0  0  0
   -6.4538    0.2718   -0.5713 C   0  0  0  0  0  0  0  0  0  0  0  0
    5.1177    2.1098    0.5483 H   0  0  0  0  0  0  0  0  0  0  0  0
    4.2218    2.5149   -0.9277 H   0  0  0  0  0  0  0  0  0  0  0  0
    5.7639    1.3397   -2.2935 H   0  0  0  0  0  0  0  0  0  0  0  0
    6.8703    1.4508   -0.8966 H   0  0  0  0  0  0  0  0  0  0  0  0
    2.0579   -1.1960    0.1311 H   0  0  0  0  0  0  0  0  0  0  0  0
    6.4052   -0.9806   -1.3974 H   0  0  0  0  0  0  0  0  0  0  0  0
    1.8237   -0.0430    2.9623 H   0  0  0  0  0  0  0  0  0  0  0  0
    3.1624   -1.0601    2.4028 H   0  0  0  0  0  0  0  0  0  0  0  0
    1.5122   -1.7129    2.5122 H   0  0  0  0  0  0  0  0  0  0  0  0
   -1.7552    1.4640    0.6620 H   0  0  0  0  0  0  0  0  0  0  0  0
   -4.3324    2.6925    0.5104 H   0  0  0  0  0  0  0  0  0  0  0  0
   -5.9190   -1.7652   -1.0363 H   0  0  0  0  0  0  0  0  0  0  0  0
   -6.7136    2.3375   -0.0453 H   0  0  0  0  0  0  0  0  0  0  0  0
   -7.5033    0.1265   -0.8130 H   0  0  0  0  0  0  0  0  0  0  0  0
  1 15  1  0  0  0  0
  1 16  1  0  0  0  0
  2 10  1  0  0  0  0
  2 17  1  0  0  0  0
  3 11  2  0  0  0  0
  4 12  2  0  0  0  0
  5 17  2  0  0  0  0
  6  8  1  0  0  0  0
  6 11  1  0  0  0  0
  6 12  1  0  0  0  0
  7  9  1  0  0  0  0
  7 12  1  0  0  0  0
  7 28  1  0  0  0  0
  8  9  1  0  0  0  0
  8 23  1  0  0  0  0
  8 24  1  0  0  0  0
  9 25  1  0  0  0  0
  9 26  1  0  0  0  0
 10 11  1  0  0  0  0
 10 13  1  0  0  0  0
 10 27  1  0  0  0  0
 13 29  1  0  0  0  0
 13 30  1  0  0  0  0
 13 31  1  0  0  0  0
 14 16  1  0  0  0  0
 14 18  1  0  0  0  0
 14 19  2  0  0  0  0
 15 17  1  0  0  0  0
 15 18  2  0  0  0  0
 16 20  2  0  0  0  0
 18 32  1  0  0  0  0
 19 21  1  0  0  0  0
 19 33  1  0  0  0  0
 20 22  1  0  0  0  0
 20 34  1  0  0  0  0
 21 22  2  0  0  0  0
 21 35  1  0  0  0  0
 22 36  1  0  0  0  0
M  END
> <PUBCHEM_COMPOUND_CID>
17396563

> <PUBCHEM_CONFORMER_RMSD>
0.8

> <PUBCHEM_CONFORMER_DIVERSEORDER>
1
194
164
93
195
244
11
142
163
247
86
183
141
212
20
84
185
149
124
50
251
129
60
139
68
90
211
153
241
8
103
116
174
152
248
22
215
34
243
70
37
128
224
217
231
89
51
172
82
4
117
77
115
190
48
24
197
76
171
240
205
178
230
87
125
187
123
55
138
162
13
176
137
207
144
179
143
112
40
127
36
165
15
42
100
223
18
177
196
175
71
246
106
233
218
210
161
65
140
126
121
79
66
166
2
229
111
198
118
17
57
250
236
255
52
81
173
64
148
209
67
44
216
252
26
169
47
253
180
80
14
245
200
188
184
6
249
220
88
136
53
97
134
119
30
154
75
85
104
56
7
219
9
203
182
38
73
10
208
228
32
19
107
193
150
49
192
61
227
225
54
95
39
204
201
69
206
12
25
159
186
78
238
83
101
131
23
59
167
202
94
108
158
226
254
156
113
5
239
16
63
222
133
27
135
35
109
237
98
46
120
147
3
145
189
221
28
96
105
191
214
160
72
170
110
146
99
155
232
58
132
235
130
102
41
74
45
168
199
62
92
213
242
122
33
157
21
151
181
29
31
234
91
43
114

> <PUBCHEM_MMFF94_PARTIAL_CHARGES>
26
1 -0.08
10 0.34
11 0.57
12 0.69
15 -0.05
16 0.04
17 0.81
18 -0.15
19 -0.15
2 -0.43
20 -0.15
21 -0.15
22 -0.15
28 0.37
3 -0.57
32 0.15
33 0.15
34 0.15
35 0.15
36 0.15
4 -0.57
5 -0.57
6 -0.42
7 -0.73
8 0.3
9 0.3

> <PUBCHEM_EFFECTIVE_ROTOR_COUNT>
5.8

> <PUBCHEM_PHARMACOPHORE_FEATURES>
7
1 3 acceptor
1 4 acceptor
1 5 acceptor
1 7 donor
5 1 14 15 16 18 rings
5 6 7 8 9 12 rings
6 14 16 19 20 21 22 rings

> <PUBCHEM_HEAVY_ATOM_COUNT>
22

> <PUBCHEM_ATOM_DEF_STEREO_COUNT>
0

> <PUBCHEM_ATOM_UDEF_STEREO_COUNT>
1

> <PUBCHEM_BOND_DEF_STEREO_COUNT>
0

> <PUBCHEM_BOND_UDEF_STEREO_COUNT>
0

> <PUBCHEM_ISOTOPIC_ATOM_COUNT>
0

> <PUBCHEM_COMPONENT_COUNT>
1

> <PUBCHEM_CACTVS_TAUTO_COUNT>
2

> <PUBCHEM_CONFORMER_ID>
0109735300000001

> <PUBCHEM_MMFF94_ENERGY>
49.1451

> <PUBCHEM_FEATURE_SELFOVERLAP>
35.58

> <PUBCHEM_SHAPE_FINGERPRINT>
10 15 13110957605042800678
10554248 39 17984726625640635575
10670039 82 18334858363489720105
11796584 16 17022902328846827398
12166972 35 18113899330240940665
12236239 1 18202567280656441615
12596602 18 13686301300877822925
12670543 26 18113897173691934967
12954195 1 17241035613333986873
13631057 29 17130701666318704315
13668630 136 15791727486221093133
13782708 43 15575008204575042135
13955234 65 16343435002495334914
14251752 14 18334293188974854382
14528608 73 18413674599657813013
14840074 17 17632294566824831349
14848160 23 7060378102392223901
14933364 13 18411415107837340461
15183329 4 18259980500445481564
15188451 53 7709462692911088572
15575132 122 17988648536171864341
15788980 27 5039950741333370971
17349148 13 6699810907857334434
17834072 8 17894909633353004828
18222031 100 5184072544033441640
18681886 176 18261399905574733153
19784866 240 5545201635695608505
20369508 70 16226053288545050850
21150785 3 18201721722044997287
21267235 1 18334294224679125071
21285901 2 17968368069851126236
21792934 111 9223234053569897695
22061861 79 16298386855363613661
221357 26 18333170569880096577
2215653 11 17675925399764339863
22224240 67 14549016550580770593
2297311 6 17894630340884494153
23402655 69 18410856547087307530
23559900 14 17894919477265372145
29717793 49 17603860118341691532
3004659 81 18409447016657796310
32948 21 18260266347878169704
3472631 163 18059286566166367540
34797466 226 17749944462738834172
351380 3 5978393806675822996
3545911 37 18409167714855162727
4073 2 18059287661515364322
4340502 62 14908181962506301784
44062 13 16950853492394928823
474 4 17704072859018245297
542803 24 18202285809937677539
543368 44 18202283568012410405
633830 44 18130792226451981074

> <PUBCHEM_SHAPE_MULTIPOLES>
423.16
16.36
1.92
1.12
1.54
0
-0.41
5.43
5.97
-0.02
0.05
-1.15
-0.15
-0.77

> <PUBCHEM_SHAPE_SELFOVERLAP>
901.216

> <PUBCHEM_SHAPE_VOLUME>
237.3

> <PUBCHEM_COORDINATE_TYPE>
2
5
10

$$$$

