47205094
  -OEChem-06241222583D

 36 38  0     1  0  0  0  0  0999 V2000
   -0.2108   -0.6414   -1.5053 O   0  0  0  0  0  0  0  0  0  0  0  0
   -1.3751   -1.5319    0.2980 N   0  0  0  0  0  0  0  0  0  0  0  0
   -4.0125    0.0508    1.0445 N   0  0  0  0  0  0  0  0  0  0  0  0
   -4.6426    1.2376    1.0175 N   0  0  0  0  0  0  0  0  0  0  0  0
    2.3878    0.8937   -0.1291 C   0  0  1  0  0  0  0  0  0  0  0  0
    4.2711    0.2013    0.8371 C   0  0  1  0  0  0  0  0  0  0  0  0
    2.2400   -0.6467   -0.1554 C   0  0  1  0  0  0  0  0  0  0  0  0
    3.1212    1.1424    1.1907 C   0  0  0  0  0  0  0  0  0  0  0  0
    3.5237   -1.1164    0.5623 C   0  0  0  0  0  0  0  0  0  0  0  0
    3.4687    1.2925   -1.1511 C   0  0  0  0  0  0  0  0  0  0  0  0
    4.7639    0.7901   -0.4957 C   0  0  0  0  0  0  0  0  0  0  0  0
    0.9756   -1.1319    0.5450 C   0  0  0  0  0  0  0  0  0  0  0  0
   -0.2432   -1.0633   -0.3525 C   0  0  0  0  0  0  0  0  0  0  0  0
   -2.6792   -1.5785   -0.3223 C   0  0  0  0  0  0  0  0  0  0  0  0
   -3.4336   -0.2930   -0.1418 C   0  0  0  0  0  0  0  0  0  0  0  0
   -3.7043    0.7405   -1.0049 C   0  0  0  0  0  0  0  0  0  0  0  0
   -4.4508    1.6542   -0.2370 C   0  0  0  0  0  0  0  0  0  0  0  0
    1.4524    1.4430   -0.2559 H   0  0  0  0  0  0  0  0  0  0  0  0
    5.0549    0.1093    1.5915 H   0  0  0  0  0  0  0  0  0  0  0  0
    2.2529   -1.0184   -1.1879 H   0  0  0  0  0  0  0  0  0  0  0  0
    3.4394    2.1828    1.3173 H   0  0  0  0  0  0  0  0  0  0  0  0
    2.5598    0.8247    2.0746 H   0  0  0  0  0  0  0  0  0  0  0  0
    3.2977   -1.6258    1.5062 H   0  0  0  0  0  0  0  0  0  0  0  0
    4.1100   -1.8007   -0.0599 H   0  0  0  0  0  0  0  0  0  0  0  0
    3.3051    0.8470   -2.1374 H   0  0  0  0  0  0  0  0  0  0  0  0
    3.5058    2.3812   -1.2719 H   0  0  0  0  0  0  0  0  0  0  0  0
    5.2793    0.0502   -1.1163 H   0  0  0  0  0  0  0  0  0  0  0  0
    5.4478    1.6287   -0.3235 H   0  0  0  0  0  0  0  0  0  0  0  0
    1.0965   -2.1847    0.8311 H   0  0  0  0  0  0  0  0  0  0  0  0
    0.7735   -0.5622    1.4589 H   0  0  0  0  0  0  0  0  0  0  0  0
   -1.2998   -1.8432    1.2623 H   0  0  0  0  0  0  0  0  0  0  0  0
   -2.5609   -1.7958   -1.3898 H   0  0  0  0  0  0  0  0  0  0  0  0
   -3.2313   -2.4080    0.1324 H   0  0  0  0  0  0  0  0  0  0  0  0
   -3.4041    0.8226   -2.0393 H   0  0  0  0  0  0  0  0  0  0  0  0
   -4.0164   -0.4736    1.9106 H   0  0  0  0  0  0  0  0  0  0  0  0
   -4.8627    2.6063   -0.5393 H   0  0  0  0  0  0  0  0  0  0  0  0
  1 13  2  0  0  0  0
  2 13  1  0  0  0  0
  2 14  1  0  0  0  0
  2 31  1  0  0  0  0
  3  4  1  0  0  0  0
  3 15  1  0  0  0  0
  3 35  1  0  0  0  0
  4 17  2  0  0  0  0
  5  7  1  0  0  0  0
  5  8  1  0  0  0  0
  5 10  1  0  0  0  0
  5 18  1  0  0  0  0
  6  8  1  0  0  0  0
  6  9  1  0  0  0  0
  6 11  1  0  0  0  0
  6 19  1  0  0  0  0
  7  9  1  0  0  0  0
  7 12  1  0  0  0  0
  7 20  1  0  0  0  0
  8 21  1  0  0  0  0
  8 22  1  0  0  0  0
  9 23  1  0  0  0  0
  9 24  1  0  0  0  0
 10 11  1  0  0  0  0
 10 25  1  0  0  0  0
 10 26  1  0  0  0  0
 11 27  1  0  0  0  0
 11 28  1  0  0  0  0
 12 13  1  0  0  0  0
 12 29  1  0  0  0  0
 12 30  1  0  0  0  0
 14 15  1  0  0  0  0
 14 32  1  0  0  0  0
 14 33  1  0  0  0  0
 15 16  2  0  0  0  0
 16 17  1  0  0  0  0
 16 34  1  0  0  0  0
 17 36  1  0  0  0  0
M  END
> <PUBCHEM_COMPOUND_CID>
47205094

> <PUBCHEM_CONFORMER_RMSD>
0.8

> <PUBCHEM_CONFORMER_DIVERSEORDER>
1
127
29
195
34
197
124
9
239
182
159
43
216
48
200
86
256
131
10
123
38
215
228
50
244
161
252
16
214
28
89
219
99
122
171
21
201
249
49
188
47
225
230
11
163
20
59
83
203
241
245
14
194
24
196
130
62
184
251
72
103
30
136
91
111
37
80
218
95
141
229
15
33
248
19
202
74
206
175
190
67
165
5
231
3
255
242
12
212
17
27
120
152
221
7
176
149
157
36
227
13
240
41
85
164
75
88
82
238
45
23
145
42
162
40
70
198
97
25
32
142
66
73
78
178
125
53
243
220
39
104
35
254
222
102
133
22
186
135
132
69
226
253
84
57
113
51
187
116
4
147
205
54
65
211
98
192
153
94
8
247
180
150
52
223
139
46
208
199
93
26
60
237
168
143
63
181
170
213
71
156
109
105
6
146
140
209
55
112
173
44
144
148
81
204
232
137
110
115
76
128
246
189
234
210
193
87
2
126
68
107
119
114
18
233
177
185
117
108
191
183
224
92
101
217
56
160
250
58
134
121
100
31
64
179
129
235
155
118
138
166
154
106
207
236
172
90
158
169
77
167
79
151
174
96
61

> <PUBCHEM_MMFF94_PARTIAL_CHARGES>
14
1 -0.57
12 0.06
13 0.57
14 0.48
15 -0.33
16 -0.15
17 0.14
2 -0.73
3 0.3
31 0.37
34 0.15
35 0.27
36 0.15
4 -0.71

> <PUBCHEM_EFFECTIVE_ROTOR_COUNT>
6

> <PUBCHEM_PHARMACOPHORE_FEATURES>
6
1 1 acceptor
1 2 donor
1 3 donor
1 4 acceptor
5 3 4 15 16 17 rings
7 5 6 7 8 9 10 11 rings

> <PUBCHEM_HEAVY_ATOM_COUNT>
17

> <PUBCHEM_ATOM_DEF_STEREO_COUNT>
0

> <PUBCHEM_ATOM_UDEF_STEREO_COUNT>
3

> <PUBCHEM_BOND_DEF_STEREO_COUNT>
0

> <PUBCHEM_BOND_UDEF_STEREO_COUNT>
0

> <PUBCHEM_ISOTOPIC_ATOM_COUNT>
0

> <PUBCHEM_COMPONENT_COUNT>
1

> <PUBCHEM_CACTVS_TAUTO_COUNT>
4

> <PUBCHEM_CONFORMER_ID>
02D04AE600000001

> <PUBCHEM_MMFF94_ENERGY>
33.3732

> <PUBCHEM_FEATURE_SELFOVERLAP>
30.446

> <PUBCHEM_SHAPE_FINGERPRINT>
10498660 4 17967534571096119017
10646746 165 18260831462447551018
11046707 91 10592043557518579823
11089746 13 17822022995053189664
11370993 144 17417538037255006151
11543360 7 13912330057571759251
11552529 35 17059202627727974579
12107183 9 17983024636831809003
12596602 18 16630239243109415041
12633257 1 17489039175446193674
12670546 177 14129069088168469121
13675066 3 16988563536918259007
13911882 115 12607406628577149160
14123255 352 18412547621809313157
14123260 362 18260258655755253521
1420 369 10519695705375130649
14252887 29 14692577632584063010
14576447 43 7925911487167166232
15188451 53 15482382050826905129
15209294 21 18272937119866221295
15239154 128 18411420591924975968
15239191 94 10231759993669947735
15342816 4 8070033285202887770
15880784 105 13973958796742277661
1601671 61 18412261719027398988
1798214 20 7781515901840245577
18186145 218 17168138992828633114
19862831 5 14345791656234901367
200 152 8070031077283963238
20374829 77 9079114441212944213
20403669 9 9655569730239294305
20432913 95 12967130518867332753
20645477 56 18259698983025760007
20645477 70 14707474868373428910
20671657 53 7348883386800922763
21054139 6 7637396333478327860
212847 35 18409731776825468176
21503847 285 17846498145198847900
22646028 28 9439402436813698067
231179 274 18113052727492909166
23402539 116 4967624870832568594
23402655 69 18261393321837994750
23403322 49 8646764491855539305
235170 7 14923946764673606937
23557571 272 17968647221181918743
23559900 14 18042123309816453238
26918003 58 12247413279773569246
27216 239 18272929449687490545
3268164 11 17895485717680680975
351380 3 9871743611748583273
4028521 119 17967533484606471561
4259306 186 8070024446155099617
474 4 18202001018887674219
4921388 177 15430042015863159173
5104073 3 18272376339003180074
602551 16 13758347852311973592
633830 44 18272653437371655926
6430166 295 18409452487623049226
76465 3 7420959638287093140

> <PUBCHEM_SHAPE_MULTIPOLES>
329.04
11.17
1.7
1.15
4.51
0.02
-0.02
-4.89
1.33
0.61
-0.04
-0.07
-0.22
-0.5

> <PUBCHEM_SHAPE_SELFOVERLAP>
700.634

> <PUBCHEM_SHAPE_VOLUME>
188.6

> <PUBCHEM_COORDINATE_TYPE>
2
5
10

$$$$

