17396005
  -OEChem-06241222533D

 30 31  0     0  0  0  0  0  0999 V2000
    1.4534    2.7093    0.3293 Cl  0  0  0  0  0  0  0  0  0  0  0  0
   -1.5161    1.3977    1.5453 O   0  0  0  0  0  0  0  0  0  0  0  0
    0.3007   -2.5152   -0.0778 O   0  0  0  0  0  0  0  0  0  0  0  0
   -2.3625   -2.3919   -0.9382 O   0  0  0  0  0  0  0  0  0  0  0  0
   -0.2238   -0.4487    0.9287 N   0  0  0  0  0  0  0  0  0  0  0  0
   -2.3546   -0.3508    0.2420 N   0  0  0  0  0  0  0  0  0  0  0  0
    1.0196   -0.0820    1.5751 C   0  0  0  0  0  0  0  0  0  0  0  0
   -1.3804    0.3233    0.9711 C   0  0  0  0  0  0  0  0  0  0  0  0
   -0.4251   -1.5852    0.2031 C   0  0  0  0  0  0  0  0  0  0  0  0
    2.1261    0.0792    0.5688 C   0  0  0  0  0  0  0  0  0  0  0  0
   -1.8630   -1.5190   -0.2608 C   0  0  0  0  0  0  0  0  0  0  0  0
   -3.7086    0.1242    0.0437 C   0  0  0  0  0  0  0  0  0  0  0  0
    2.3882    1.3064   -0.0406 C   0  0  0  0  0  0  0  0  0  0  0  0
    2.8990   -1.0372    0.2496 C   0  0  0  0  0  0  0  0  0  0  0  0
   -3.7559    0.9607   -1.1914 C   0  0  0  0  0  0  0  0  0  0  0  0
    3.4235    1.4169   -0.9690 C   0  0  0  0  0  0  0  0  0  0  0  0
    3.9341   -0.9266   -0.6790 C   0  0  0  0  0  0  0  0  0  0  0  0
    4.1963    0.3004   -1.2883 C   0  0  0  0  0  0  0  0  0  0  0  0
   -4.1509    2.2386   -1.2117 C   0  0  0  0  0  0  0  0  0  0  0  0
    1.2756   -0.8967    2.2650 H   0  0  0  0  0  0  0  0  0  0  0  0
    0.8883    0.8079    2.1986 H   0  0  0  0  0  0  0  0  0  0  0  0
   -4.3742   -0.7370   -0.0774 H   0  0  0  0  0  0  0  0  0  0  0  0
   -4.0191    0.6902    0.9285 H   0  0  0  0  0  0  0  0  0  0  0  0
    2.7250   -1.9974    0.7272 H   0  0  0  0  0  0  0  0  0  0  0  0
   -3.4686    0.4934   -2.1302 H   0  0  0  0  0  0  0  0  0  0  0  0
    3.6408    2.3659   -1.4526 H   0  0  0  0  0  0  0  0  0  0  0  0
    4.5388   -1.7947   -0.9242 H   0  0  0  0  0  0  0  0  0  0  0  0
    5.0029    0.3865   -2.0103 H   0  0  0  0  0  0  0  0  0  0  0  0
   -4.1719    2.7922   -2.1440 H   0  0  0  0  0  0  0  0  0  0  0  0
   -4.4564    2.7527   -0.3071 H   0  0  0  0  0  0  0  0  0  0  0  0
  1 13  1  0  0  0  0
  2  8  2  0  0  0  0
  3  9  2  0  0  0  0
  4 11  2  0  0  0  0
  5  7  1  0  0  0  0
  5  8  1  0  0  0  0
  5  9  1  0  0  0  0
  6  8  1  0  0  0  0
  6 11  1  0  0  0  0
  6 12  1  0  0  0  0
  7 10  1  0  0  0  0
  7 20  1  0  0  0  0
  7 21  1  0  0  0  0
  9 11  1  0  0  0  0
 10 13  1  0  0  0  0
 10 14  2  0  0  0  0
 12 15  1  0  0  0  0
 12 22  1  0  0  0  0
 12 23  1  0  0  0  0
 13 16  2  0  0  0  0
 14 17  1  0  0  0  0
 14 24  1  0  0  0  0
 15 19  2  0  0  0  0
 15 25  1  0  0  0  0
 16 18  1  0  0  0  0
 16 26  1  0  0  0  0
 17 18  2  0  0  0  0
 17 27  1  0  0  0  0
 18 28  1  0  0  0  0
 19 29  1  0  0  0  0
 19 30  1  0  0  0  0
M  END
> <PUBCHEM_COMPOUND_CID>
17396005

> <PUBCHEM_CONFORMER_RMSD>
0.6

> <PUBCHEM_CONFORMER_DIVERSEORDER>
2
39
28
86
97
73
60
89
85
15
45
31
88
99
34
57
64
65
37
18
80
67
62
44
76
101
75
53
56
100
83
55
96
70
17
78
92
23
71
61
72
43
90
98
26
48
87
22
9
94
8
79
93
49
40
58
77
82
38
36
27
59
14
11
35
54
95
4
66
16
13
42
69
74
6
21
1
47
41
52
12
33
81
63
29
91
7
3
20
68
5
30
50
25
24
46
51
32
84
10
19

> <PUBCHEM_MMFF94_PARTIAL_CHARGES>
26
1 -0.18
10 -0.14
11 0.63
12 0.44
13 0.18
14 -0.15
15 -0.29
16 -0.15
17 -0.15
18 -0.15
19 -0.3
2 -0.57
24 0.15
25 0.15
26 0.15
27 0.15
28 0.15
29 0.15
3 -0.57
30 0.15
4 -0.57
5 -0.42
6 -0.42
7 0.44
8 0.69
9 0.63

> <PUBCHEM_EFFECTIVE_ROTOR_COUNT>
4.4

> <PUBCHEM_PHARMACOPHORE_FEATURES>
6
1 19 hydrophobe
1 2 acceptor
1 3 acceptor
1 4 acceptor
5 5 6 8 9 11 rings
6 10 13 14 16 17 18 rings

> <PUBCHEM_HEAVY_ATOM_COUNT>
19

> <PUBCHEM_ATOM_DEF_STEREO_COUNT>
0

> <PUBCHEM_ATOM_UDEF_STEREO_COUNT>
0

> <PUBCHEM_BOND_DEF_STEREO_COUNT>
0

> <PUBCHEM_BOND_UDEF_STEREO_COUNT>
0

> <PUBCHEM_ISOTOPIC_ATOM_COUNT>
0

> <PUBCHEM_COMPONENT_COUNT>
1

> <PUBCHEM_CACTVS_TAUTO_COUNT>
1

> <PUBCHEM_CONFORMER_ID>
0109712500000002

> <PUBCHEM_MMFF94_ENERGY>
29.1975

> <PUBCHEM_FEATURE_SELFOVERLAP>
30.45

> <PUBCHEM_SHAPE_FINGERPRINT>
10498660 4 17418385700601503685
10756046 5 18263923233352616804
11796584 16 5184051618958375349
12173636 292 17774720866248969763
12363563 72 15647051560078919368
12670546 177 18261117331455562759
14289901 80 11527676236722584804
15775835 57 18131068216760411180
16752209 62 17822857609861279883
16945 1 17967810565436155611
17134986 127 18340779216319253991
18186145 218 18261111842144421257
192875 21 18040719207502202920
19862831 5 18334296478381667753
19868273 293 18412546500448230938
20645476 183 18342462529925131523
20871999 31 18263364702989309743
21069387 34 15430040950041343183
21864079 5 17632578193258845196
22182313 1 17751660761845785355
23114952 82 18050292771515236711
23402539 116 17822566226405904448
23402655 69 18342734126830099588
23493267 7 18131071575799468003
23557571 272 17824276903157929274
23559900 14 17894913997693918616
25 1 18201440319486488635
26918003 58 7204495467990079628
2748010 2 17824840948549745459
3060560 45 18336560411530672991
4028521 119 18342453746611204300
463206 1 16226042327324463894
49207404 50 11167953462754242684
5161694 15 18335977606249332526
5262128 65 17751057155637052692
74978 22 18334852767109793000
76465 3 15068623846209020724
7832392 63 18342743991911042524
9882013 296 12247678275044894789

> <PUBCHEM_SHAPE_MULTIPOLES>
365.31
7.76
2.56
1.33
1
0.23
-0.13
2.63
3.89
0.76
0.46
0.09
0.3
0.23

> <PUBCHEM_SHAPE_SELFOVERLAP>
771.236

> <PUBCHEM_SHAPE_VOLUME>
205.8

> <PUBCHEM_COORDINATE_TYPE>
2
5
10

$$$$

