47205033
  -OEChem-06241222572D

 34 35  0     1  0  0  0  0  0999 V2000
    2.8660    0.0453    0.0000 O   0  0  0  0  0  0  0  0  0  0  0  0
    2.8660    2.0453    0.0000 O   0  0  0  0  0  0  0  0  0  0  0  0
    4.5981    2.0453    0.0000 N   0  0  0  0  0  0  0  0  0  0  0  0
    5.5686    4.5398    0.0000 N   0  0  0  0  0  0  0  0  0  0  0  0
    6.5468    4.7477    0.0000 N   0  0  0  0  0  0  0  0  0  0  0  0
    2.8660   -4.9547    0.0000 N   0  0  0  0  0  0  0  0  0  0  0  0
    3.7320    0.5453    0.0000 C   0  0  3  0  0  0  0  0  0  0  0  0
    4.5981    3.0453    0.0000 C   0  0  0  0  0  0  0  0  0  0  0  0
    3.7320    1.5453    0.0000 C   0  0  0  0  0  0  0  0  0  0  0  0
    5.4641    3.5453    0.0000 C   0  0  0  0  0  0  0  0  0  0  0  0
    4.5981    0.0453    0.0000 C   0  0  0  0  0  0  0  0  0  0  0  0
    2.8660   -0.9547    0.0000 C   0  0  0  0  0  0  0  0  0  0  0  0
    6.3776    3.1386    0.0000 C   0  0  0  0  0  0  0  0  0  0  0  0
    2.0000   -1.4547    0.0000 C   0  0  0  0  0  0  0  0  0  0  0  0
    3.7320   -1.4547    0.0000 C   0  0  0  0  0  0  0  0  0  0  0  0
    7.0468    3.8817    0.0000 C   0  0  0  0  0  0  0  0  0  0  0  0
    2.0000   -2.4547    0.0000 C   0  0  0  0  0  0  0  0  0  0  0  0
    3.7320   -2.4547    0.0000 C   0  0  0  0  0  0  0  0  0  0  0  0
    2.8660   -2.9547    0.0000 C   0  0  0  0  0  0  0  0  0  0  0  0
    2.8660   -3.9547    0.0000 C   0  0  0  0  0  0  0  0  0  0  0  0
    3.7320   -0.0747    0.0000 H   0  0  0  0  0  0  0  0  0  0  0  0
    4.3860    3.6279    0.0000 H   0  0  0  0  0  0  0  0  0  0  0  0
    3.9875    2.9376    0.0000 H   0  0  0  0  0  0  0  0  0  0  0  0
    5.1350    1.7353    0.0000 H   0  0  0  0  0  0  0  0  0  0  0  0
    4.2881   -0.4916    0.0000 H   0  0  0  0  0  0  0  0  0  0  0  0
    5.1350   -0.2647    0.0000 H   0  0  0  0  0  0  0  0  0  0  0  0
    4.9081    0.5822    0.0000 H   0  0  0  0  0  0  0  0  0  0  0  0
    6.5066    2.5321    0.0000 H   0  0  0  0  0  0  0  0  0  0  0  0
    5.1079    4.9547    0.0000 H   0  0  0  0  0  0  0  0  0  0  0  0
    1.4631   -1.1447    0.0000 H   0  0  0  0  0  0  0  0  0  0  0  0
    4.2690   -1.1447    0.0000 H   0  0  0  0  0  0  0  0  0  0  0  0
    7.6634    3.8169    0.0000 H   0  0  0  0  0  0  0  0  0  0  0  0
    1.4631   -2.7647    0.0000 H   0  0  0  0  0  0  0  0  0  0  0  0
    4.2690   -2.7647    0.0000 H   0  0  0  0  0  0  0  0  0  0  0  0
  1  7  1  0  0  0  0
  1 12  1  0  0  0  0
  2  9  2  0  0  0  0
  3  8  1  0  0  0  0
  3  9  1  0  0  0  0
  3 24  1  0  0  0  0
  4  5  1  0  0  0  0
  4 10  1  0  0  0  0
  4 29  1  0  0  0  0
  5 16  2  0  0  0  0
  6 20  3  0  0  0  0
  7  9  1  0  0  0  0
  7 11  1  0  0  0  0
  7 21  1  0  0  0  0
  8 10  1  0  0  0  0
  8 22  1  0  0  0  0
  8 23  1  0  0  0  0
 10 13  2  0  0  0  0
 11 25  1  0  0  0  0
 11 26  1  0  0  0  0
 11 27  1  0  0  0  0
 12 14  2  0  0  0  0
 12 15  1  0  0  0  0
 13 16  1  0  0  0  0
 13 28  1  0  0  0  0
 14 17  1  0  0  0  0
 14 30  1  0  0  0  0
 15 18  2  0  0  0  0
 15 31  1  0  0  0  0
 16 32  1  0  0  0  0
 17 19  2  0  0  0  0
 17 33  1  0  0  0  0
 18 19  1  0  0  0  0
 18 34  1  0  0  0  0
 19 20  1  0  0  0  0
M  END
> <PUBCHEM_COMPOUND_CID>
47205033

> <PUBCHEM_COMPOUND_CANONICALIZED>
1

> <PUBCHEM_CACTVS_COMPLEXITY>
371

> <PUBCHEM_CACTVS_HBOND_ACCEPTOR>
4

> <PUBCHEM_CACTVS_HBOND_DONOR>
2

> <PUBCHEM_CACTVS_ROTATABLE_BOND>
5

> <PUBCHEM_CACTVS_SUBSKEYS>
AAADccBzsAAAAAAAAAAAAAAAAAAAAWAAAAAwAAAAAAAAAAABwAAAHgAYAAAADBzhngY+hpLjBAC6BzV3UAKyDAAgogAYuaF+bJgO5qKE8d+XvCjk3hGY6A+AwAAOIAAAAAAAAABAAAAAAAAAAAAAAAAAAA==

> <PUBCHEM_IUPAC_OPENEYE_NAME>
2-(4-cyanophenoxy)-N-(1H-pyrazol-5-ylmethyl)propanamide

> <PUBCHEM_IUPAC_CAS_NAME>
2-(4-cyanophenoxy)-N-(1H-pyrazol-5-ylmethyl)propanamide

> <PUBCHEM_IUPAC_NAME>
2-(4-cyanophenoxy)-N-(1H-pyrazol-5-ylmethyl)propanamide

> <PUBCHEM_IUPAC_SYSTEMATIC_NAME>
2-(4-cyanophenoxy)-N-(1H-pyrazol-5-ylmethyl)propanamide

> <PUBCHEM_IUPAC_TRADITIONAL_NAME>
2-(4-cyanophenoxy)-N-(1H-pyrazol-5-ylmethyl)propionamide

> <PUBCHEM_IUPAC_INCHI>
InChI=1S/C14H14N4O2/c1-10(14(19)16-9-12-6-7-17-18-12)20-13-4-2-11(8-15)3-5-13/h2-7,10H,9H2,1H3,(H,16,19)(H,17,18)

> <PUBCHEM_IUPAC_INCHIKEY>
FCSJVFVMSNHDFN-UHFFFAOYSA-N

> <PUBCHEM_XLOGP3_AA>
1.2

> <PUBCHEM_EXACT_MASS>
270.111676

> <PUBCHEM_MOLECULAR_FORMULA>
C14H14N4O2

> <PUBCHEM_MOLECULAR_WEIGHT>
270.28656

> <PUBCHEM_OPENEYE_CAN_SMILES>
CC(C(=O)NCC1=CC=NN1)OC2=CC=C(C=C2)C#N

> <PUBCHEM_OPENEYE_ISO_SMILES>
CC(C(=O)NCC1=CC=NN1)OC2=CC=C(C=C2)C#N

> <PUBCHEM_CACTVS_TPSA>
90.8

> <PUBCHEM_MONOISOTOPIC_WEIGHT>
270.111676

> <PUBCHEM_TOTAL_CHARGE>
0

> <PUBCHEM_HEAVY_ATOM_COUNT>
20

> <PUBCHEM_ATOM_DEF_STEREO_COUNT>
0

> <PUBCHEM_ATOM_UDEF_STEREO_COUNT>
1

> <PUBCHEM_BOND_DEF_STEREO_COUNT>
0

> <PUBCHEM_BOND_UDEF_STEREO_COUNT>
0

> <PUBCHEM_ISOTOPIC_ATOM_COUNT>
0

> <PUBCHEM_COMPONENT_COUNT>
1

> <PUBCHEM_CACTVS_TAUTO_COUNT>
4

> <PUBCHEM_COORDINATE_TYPE>
1
5
255

> <PUBCHEM_BONDANNOTATIONS>
10  13  8
12  14  8
12  15  8
13  16  8
14  17  8
15  18  8
17  19  8
18  19  8
4  10  8
4  5  8
5  16  8
7  11  3

$$$$

