3737
  -OEChem-06251223373D

 29 29  0     0  0  0  0  0  0999 V2000
    0.1226   -3.2057   -0.7012 I   0  0  0  0  0  0  0  0  0  0  0  0
   -3.1638    1.8695    0.1536 I   0  0  0  0  0  0  0  0  0  0  0  0
    2.9204    2.1990   -0.2388 I   0  0  0  0  0  0  0  0  0  0  0  0
   -3.0412   -1.4706   -1.3425 O   0  0  0  0  0  0  0  0  0  0  0  0
   -0.1076    3.4759    1.4052 O   0  0  0  0  0  0  0  0  0  0  0  0
   -0.2757    3.9432   -0.8128 O   0  0  0  0  0  0  0  0  0  0  0  0
    3.0859   -1.4928    1.6116 O   0  0  0  0  0  0  0  0  0  0  0  0
    2.4365   -0.9667   -0.5912 N   0  0  0  0  0  0  0  0  0  0  0  0
   -2.8667   -1.7748    0.9496 N   0  0  0  0  0  0  0  0  0  0  0  0
   -1.2133   -0.4689   -0.2685 C   0  0  0  0  0  0  0  0  0  0  0  0
    1.1940   -0.3375   -0.4261 C   0  0  0  0  0  0  0  0  0  0  0  0
    0.0223   -1.0944   -0.4345 C   0  0  0  0  0  0  0  0  0  0  0  0
   -0.1056    1.6704   -0.0854 C   0  0  0  0  0  0  0  0  0  0  0  0
   -1.2772    0.9135   -0.0938 C   0  0  0  0  0  0  0  0  0  0  0  0
    1.1300    1.0449   -0.2517 C   0  0  0  0  0  0  0  0  0  0  0  0
   -2.4427   -1.2635   -0.2776 C   0  0  0  0  0  0  0  0  0  0  0  0
   -0.1722    3.1213    0.0963 C   0  0  0  0  0  0  0  0  0  0  0  0
    3.2744   -1.4842    0.3994 C   0  0  0  0  0  0  0  0  0  0  0  0
   -4.0462   -2.5964    1.0999 C   0  0  0  0  0  0  0  0  0  0  0  0
    4.5263   -2.0823   -0.1916 C   0  0  0  0  0  0  0  0  0  0  0  0
    2.6921   -1.1450   -1.5600 H   0  0  0  0  0  0  0  0  0  0  0  0
   -2.3080   -1.5918    1.7783 H   0  0  0  0  0  0  0  0  0  0  0  0
   -3.7464   -3.6441    1.0193 H   0  0  0  0  0  0  0  0  0  0  0  0
   -4.7798   -2.3630    0.3245 H   0  0  0  0  0  0  0  0  0  0  0  0
   -4.4733   -2.4107    2.0880 H   0  0  0  0  0  0  0  0  0  0  0  0
    4.2735   -2.9995   -0.7305 H   0  0  0  0  0  0  0  0  0  0  0  0
    5.2352   -2.3189    0.6066 H   0  0  0  0  0  0  0  0  0  0  0  0
    4.9962   -1.3725   -0.8786 H   0  0  0  0  0  0  0  0  0  0  0  0
   -0.1530    4.4487    1.5235 H   0  0  0  0  0  0  0  0  0  0  0  0
  1 12  1  0  0  0  0
  2 14  1  0  0  0  0
  3 15  1  0  0  0  0
  4 16  2  0  0  0  0
  5 17  1  0  0  0  0
  5 29  1  0  0  0  0
  6 17  2  0  0  0  0
  7 18  2  0  0  0  0
  8 11  1  0  0  0  0
  8 18  1  0  0  0  0
  8 21  1  0  0  0  0
  9 16  1  0  0  0  0
  9 19  1  0  0  0  0
  9 22  1  0  0  0  0
 10 12  1  0  0  0  0
 10 14  2  0  0  0  0
 10 16  1  0  0  0  0
 11 12  2  0  0  0  0
 11 15  1  0  0  0  0
 13 14  1  0  0  0  0
 13 15  2  0  0  0  0
 13 17  1  0  0  0  0
 18 20  1  0  0  0  0
 19 23  1  0  0  0  0
 19 24  1  0  0  0  0
 19 25  1  0  0  0  0
 20 26  1  0  0  0  0
 20 27  1  0  0  0  0
 20 28  1  0  0  0  0
M  END
> <PUBCHEM_COMPOUND_CID>
3737

> <PUBCHEM_CONFORMER_RMSD>
0.8

> <PUBCHEM_CONFORMER_DIVERSEORDER>
1
2
4
3

> <PUBCHEM_MMFF94_PARTIAL_CHARGES>
23
1 -0.08
10 0.09
11 0.12
12 0.08
13 0.09
14 0.08
15 0.08
16 0.54
17 0.63
18 0.57
19 0.3
2 -0.08
20 0.06
21 0.37
22 0.37
29 0.5
3 -0.08
4 -0.57
5 -0.65
6 -0.57
7 -0.57
8 -0.55
9 -0.73

> <PUBCHEM_EFFECTIVE_ROTOR_COUNT>
5

> <PUBCHEM_PHARMACOPHORE_FEATURES>
11
1 1 hydrophobe
1 2 hydrophobe
1 3 hydrophobe
1 4 acceptor
1 5 acceptor
1 6 acceptor
1 7 acceptor
1 8 donor
1 9 donor
3 5 6 17 anion
6 10 11 12 13 14 15 rings

> <PUBCHEM_HEAVY_ATOM_COUNT>
20

> <PUBCHEM_ATOM_DEF_STEREO_COUNT>
0

> <PUBCHEM_ATOM_UDEF_STEREO_COUNT>
0

> <PUBCHEM_BOND_DEF_STEREO_COUNT>
0

> <PUBCHEM_BOND_UDEF_STEREO_COUNT>
0

> <PUBCHEM_ISOTOPIC_ATOM_COUNT>
0

> <PUBCHEM_COMPONENT_COUNT>
1

> <PUBCHEM_CACTVS_TAUTO_COUNT>
4

> <PUBCHEM_CONFORMER_ID>
00000E9900000001

> <PUBCHEM_MMFF94_ENERGY>
90.937

> <PUBCHEM_FEATURE_SELFOVERLAP>
55.875

> <PUBCHEM_SHAPE_FINGERPRINT>
10411042 1 18411133623691109159
10967382 1 18121217567401284676
1100329 8 18338513170178591497
11680986 33 18337680719854741897
12553582 1 18268152139566752286
12633257 1 18267281254081757571
12788726 201 18124327257052353675
13140716 1 18408880771631022281
14178342 30 17253990273754280352
14790565 3 17834657319775590317
15042514 8 18267295615919625259
16945 1 18121212340410352172
19591789 44 18337662015087071022
20510252 161 17757557725915030456
20600515 1 18189324844063431492
20739085 24 18265872727534759433
20905425 154 18336260159310833476
21041028 32 18409438177140263123
21421861 104 18198336260896423265
21501502 16 18409450275694072261
21524375 3 16965499330636657916
23184049 29 18410858802129858236
2334 1 18336826398829115861
23402539 116 18047484592715971981
23419403 2 17619967911695627204
23559900 14 18263086677351210222
2748010 2 18408606946033270445
3091708 16 9352822488621725008
31174 14 18125714583260950387
34934 24 18120659033001421286
352729 6 18264487462942626309
458136 41 17548965668674044693
5104073 3 18410016563612380818
7364860 26 18120937200768748846
81228 2 18120651589553941789

> <PUBCHEM_SHAPE_MULTIPOLES>
413.96
6.26
4.93
1.08
1.36
2.22
0.19
-4.05
1.28
-0.51
0.09
-0.15
-0.25
0.04

> <PUBCHEM_SHAPE_SELFOVERLAP>
801.79

> <PUBCHEM_SHAPE_VOLUME>
260

> <PUBCHEM_COORDINATE_TYPE>
2
5
10

$$$$

