47205246
  -OEChem-06241222583D

 40 40  0     1  0  0  0  0  0999 V2000
   -2.4449   -2.6966   -0.3467 O   0  0  0  0  0  0  0  0  0  0  0  0
   -3.6660    1.9155    0.1331 O   0  0  0  0  0  0  0  0  0  0  0  0
    1.3890    0.5876    1.7060 O   0  0  0  0  0  0  0  0  0  0  0  0
    1.7823    0.9401   -0.5910 N   0  0  0  0  0  0  0  0  0  0  0  0
    3.6120   -1.6876    1.3179 N   0  0  0  0  0  0  0  0  0  0  0  0
    3.1749    1.2834   -0.4758 C   0  0  0  0  0  0  0  0  0  0  0  0
    4.1155    0.0763   -0.5749 C   0  0  1  0  0  0  0  0  0  0  0  0
   -0.4111    0.2657    0.3138 C   0  0  0  0  0  0  0  0  0  0  0  0
    1.0004    0.6161    0.5389 C   0  0  0  0  0  0  0  0  0  0  0  0
   -3.0870   -0.3985   -0.1109 C   0  0  0  0  0  0  0  0  0  0  0  0
   -0.7724   -1.0622    0.0869 C   0  0  0  0  0  0  0  0  0  0  0  0
   -1.3876    1.2616    0.3284 C   0  0  0  0  0  0  0  0  0  0  0  0
    1.2187    0.9443   -1.9444 C   0  0  0  0  0  0  0  0  0  0  0  0
   -2.1104   -1.3943   -0.1254 C   0  0  0  0  0  0  0  0  0  0  0  0
   -2.7256    0.9295    0.1162 C   0  0  0  0  0  0  0  0  0  0  0  0
    5.5875    0.4867   -0.5454 C   0  0  0  0  0  0  0  0  0  0  0  0
   -4.5210   -0.7542   -0.3402 C   0  0  0  0  0  0  0  0  0  0  0  0
    3.8341   -0.9102    0.4854 C   0  0  0  0  0  0  0  0  0  0  0  0
   -1.3820   -3.6475   -0.3443 C   0  0  0  0  0  0  0  0  0  0  0  0
   -3.2065    3.2443    0.3725 C   0  0  0  0  0  0  0  0  0  0  0  0
    3.3235    1.7757    0.4943 H   0  0  0  0  0  0  0  0  0  0  0  0
    3.4194    2.0260   -1.2449 H   0  0  0  0  0  0  0  0  0  0  0  0
    3.9363   -0.4184   -1.5386 H   0  0  0  0  0  0  0  0  0  0  0  0
    0.0333   -1.7891    0.0877 H   0  0  0  0  0  0  0  0  0  0  0  0
   -1.0426    2.2742    0.5100 H   0  0  0  0  0  0  0  0  0  0  0  0
    1.8238    0.2865   -2.5756 H   0  0  0  0  0  0  0  0  0  0  0  0
    0.1831    0.6127   -2.0041 H   0  0  0  0  0  0  0  0  0  0  0  0
    1.2760    1.9653   -2.3345 H   0  0  0  0  0  0  0  0  0  0  0  0
    6.2415   -0.3858   -0.6535 H   0  0  0  0  0  0  0  0  0  0  0  0
    5.8134    1.1807   -1.3618 H   0  0  0  0  0  0  0  0  0  0  0  0
    5.8442    0.9789    0.3995 H   0  0  0  0  0  0  0  0  0  0  0  0
   -5.0069   -0.9803    0.6142 H   0  0  0  0  0  0  0  0  0  0  0  0
   -5.0673    0.0604   -0.8274 H   0  0  0  0  0  0  0  0  0  0  0  0
   -4.6225   -1.6226   -0.9996 H   0  0  0  0  0  0  0  0  0  0  0  0
   -0.6703   -3.4606   -1.1558 H   0  0  0  0  0  0  0  0  0  0  0  0
   -0.8945   -3.7068    0.6349 H   0  0  0  0  0  0  0  0  0  0  0  0
   -1.8285   -4.6291   -0.5351 H   0  0  0  0  0  0  0  0  0  0  0  0
   -2.7613    3.3452    1.3682 H   0  0  0  0  0  0  0  0  0  0  0  0
   -2.5371    3.5901   -0.4227 H   0  0  0  0  0  0  0  0  0  0  0  0
   -4.0857    3.8969    0.3516 H   0  0  0  0  0  0  0  0  0  0  0  0
  1 14  1  0  0  0  0
  1 19  1  0  0  0  0
  2 15  1  0  0  0  0
  2 20  1  0  0  0  0
  3  9  2  0  0  0  0
  4  6  1  0  0  0  0
  4  9  1  0  0  0  0
  4 13  1  0  0  0  0
  5 18  3  0  0  0  0
  6  7  1  0  0  0  0
  6 21  1  0  0  0  0
  6 22  1  0  0  0  0
  7 16  1  0  0  0  0
  7 18  1  0  0  0  0
  7 23  1  0  0  0  0
  8  9  1  0  0  0  0
  8 11  2  0  0  0  0
  8 12  1  0  0  0  0
 10 14  2  0  0  0  0
 10 15  1  0  0  0  0
 10 17  1  0  0  0  0
 11 14  1  0  0  0  0
 11 24  1  0  0  0  0
 12 15  2  0  0  0  0
 12 25  1  0  0  0  0
 13 26  1  0  0  0  0
 13 27  1  0  0  0  0
 13 28  1  0  0  0  0
 16 29  1  0  0  0  0
 16 30  1  0  0  0  0
 16 31  1  0  0  0  0
 17 32  1  0  0  0  0
 17 33  1  0  0  0  0
 17 34  1  0  0  0  0
 19 35  1  0  0  0  0
 19 36  1  0  0  0  0
 19 37  1  0  0  0  0
 20 38  1  0  0  0  0
 20 39  1  0  0  0  0
 20 40  1  0  0  0  0
M  END
> <PUBCHEM_COMPOUND_CID>
47205246

> <PUBCHEM_CONFORMER_RMSD>
0.8

> <PUBCHEM_CONFORMER_DIVERSEORDER>
3
154
114
131
6
143
171
108
17
167
174
181
124
141
29
146
188
76
109
151
147
57
64
85
82
100
178
92
187
78
176
48
75
99
49
88
87
117
172
118
32
25
150
103
161
111
126
133
5
105
97
158
189
139
164
18
169
98
132
52
90
86
121
106
72
113
186
70
152
20
79
101
135
81
84
14
182
142
179
71
93
136
68
145
36
74
119
159
62
94
130
129
54
67
110
19
59
120
4
51
50
16
168
140
185
69
83
60
162
112
58
123
8
96
55
160
66
63
116
144
122
148
24
163
89
22
184
127
73
157
175
170
10
173
11
33
125
23
15
38
102
47
35
104
183
21
137
155
138
53
9
166
156
91
43
46
153
31
30
95
39
56
180
28
128
165
134
77
34
27
65
177
115
41
80
42
37
26
61
149
7
1
107
44
12
2
45
40
13

> <PUBCHEM_MMFF94_PARTIAL_CHARGES>
21
1 -0.36
10 -0.14
11 -0.15
12 -0.15
13 0.3
14 0.08
15 0.08
17 0.14
18 0.36
19 0.28
2 -0.36
20 0.28
24 0.15
25 0.15
3 -0.57
4 -0.66
5 -0.56
6 0.3
7 0.2
8 0.09
9 0.54

> <PUBCHEM_EFFECTIVE_ROTOR_COUNT>
6

> <PUBCHEM_PHARMACOPHORE_FEATURES>
6
1 1 acceptor
1 16 hydrophobe
1 2 acceptor
1 3 acceptor
1 5 acceptor
6 8 10 11 12 14 15 rings

> <PUBCHEM_HEAVY_ATOM_COUNT>
20

> <PUBCHEM_ATOM_DEF_STEREO_COUNT>
0

> <PUBCHEM_ATOM_UDEF_STEREO_COUNT>
1

> <PUBCHEM_BOND_DEF_STEREO_COUNT>
0

> <PUBCHEM_BOND_UDEF_STEREO_COUNT>
0

> <PUBCHEM_ISOTOPIC_ATOM_COUNT>
0

> <PUBCHEM_COMPONENT_COUNT>
1

> <PUBCHEM_CACTVS_TAUTO_COUNT>
3

> <PUBCHEM_CONFORMER_ID>
02D04B7E00000003

> <PUBCHEM_MMFF94_ENERGY>
72.7321

> <PUBCHEM_FEATURE_SELFOVERLAP>
30.446

> <PUBCHEM_SHAPE_MULTIPOLES>
384.02
9.15
3.01
1.1
7.56
1.34
0.08
-0.93
0.59
-3.61
0
0.84
-0.13
-1.23

> <PUBCHEM_SHAPE_SELFOVERLAP>
785.759

> <PUBCHEM_SHAPE_VOLUME>
222.6

> <PUBCHEM_COORDINATE_TYPE>
2
5
10

$$$$

