13879
  -OEChem-06241222403D

 23 23  0     0  0  0  0  0  0999 V2000
   -1.5578    0.0738    1.1801 O   0  0  0  0  0  0  0  0  0  0  0  0
   -0.7423   -0.0278   -1.0902 C   0  0  0  0  0  0  0  0  0  0  0  0
    0.6564   -0.0152   -0.5322 C   0  0  0  0  0  0  0  0  0  0  0  0
   -1.8198    0.0067   -0.0202 C   0  0  0  0  0  0  0  0  0  0  0  0
   -3.2499   -0.0502   -0.5325 C   0  0  0  0  0  0  0  0  0  0  0  0
    1.2943    1.1980   -0.3151 C   0  0  0  0  0  0  0  0  0  0  0  0
    1.2875   -1.2168   -0.2434 C   0  0  0  0  0  0  0  0  0  0  0  0
   -4.2763    0.0183    0.5838 C   0  0  0  0  0  0  0  0  0  0  0  0
    2.5901    1.2099    0.2013 C   0  0  0  0  0  0  0  0  0  0  0  0
    2.5832   -1.2050    0.2731 C   0  0  0  0  0  0  0  0  0  0  0  0
    3.2344    0.0083    0.4954 C   0  0  0  0  0  0  0  0  0  0  0  0
   -0.8867    0.8345   -1.7520 H   0  0  0  0  0  0  0  0  0  0  0  0
   -0.8894   -0.9280   -1.6989 H   0  0  0  0  0  0  0  0  0  0  0  0
   -3.3761   -0.9846   -1.0892 H   0  0  0  0  0  0  0  0  0  0  0  0
   -3.4004    0.7901   -1.2182 H   0  0  0  0  0  0  0  0  0  0  0  0
    0.8004    2.1394   -0.5389 H   0  0  0  0  0  0  0  0  0  0  0  0
    0.7884   -2.1670   -0.4110 H   0  0  0  0  0  0  0  0  0  0  0  0
   -4.1559   -0.8178    1.2807 H   0  0  0  0  0  0  0  0  0  0  0  0
   -4.1753    0.9475    1.1544 H   0  0  0  0  0  0  0  0  0  0  0  0
   -5.2897   -0.0224    0.1729 H   0  0  0  0  0  0  0  0  0  0  0  0
    3.0970    2.1545    0.3750 H   0  0  0  0  0  0  0  0  0  0  0  0
    3.0849   -2.1405    0.5028 H   0  0  0  0  0  0  0  0  0  0  0  0
    4.2431    0.0174    0.8979 H   0  0  0  0  0  0  0  0  0  0  0  0
  1  4  2  0  0  0  0
  2  3  1  0  0  0  0
  2  4  1  0  0  0  0
  2 12  1  0  0  0  0
  2 13  1  0  0  0  0
  3  6  2  0  0  0  0
  3  7  1  0  0  0  0
  4  5  1  0  0  0  0
  5  8  1  0  0  0  0
  5 14  1  0  0  0  0
  5 15  1  0  0  0  0
  6  9  1  0  0  0  0
  6 16  1  0  0  0  0
  7 10  2  0  0  0  0
  7 17  1  0  0  0  0
  8 18  1  0  0  0  0
  8 19  1  0  0  0  0
  8 20  1  0  0  0  0
  9 11  2  0  0  0  0
  9 21  1  0  0  0  0
 10 11  1  0  0  0  0
 10 22  1  0  0  0  0
 11 23  1  0  0  0  0
M  END
> <PUBCHEM_COMPOUND_CID>
13879

> <PUBCHEM_CONFORMER_RMSD>
0.6

> <PUBCHEM_CONFORMER_DIVERSEORDER>
1
15
8
11
16
22
12
20
13
5
10
19
17
2
14
6
18
21
3
4
9
7

> <PUBCHEM_MMFF94_PARTIAL_CHARGES>
15
1 -0.57
10 -0.15
11 -0.15
16 0.15
17 0.15
2 0.2
21 0.15
22 0.15
23 0.15
3 -0.14
4 0.45
5 0.06
6 -0.15
7 -0.15
9 -0.15

> <PUBCHEM_EFFECTIVE_ROTOR_COUNT>
3

> <PUBCHEM_PHARMACOPHORE_FEATURES>
3
1 1 acceptor
1 8 hydrophobe
6 3 6 7 9 10 11 rings

> <PUBCHEM_HEAVY_ATOM_COUNT>
11

> <PUBCHEM_ATOM_DEF_STEREO_COUNT>
0

> <PUBCHEM_ATOM_UDEF_STEREO_COUNT>
0

> <PUBCHEM_BOND_DEF_STEREO_COUNT>
0

> <PUBCHEM_BOND_UDEF_STEREO_COUNT>
0

> <PUBCHEM_ISOTOPIC_ATOM_COUNT>
0

> <PUBCHEM_COMPONENT_COUNT>
1

> <PUBCHEM_CACTVS_TAUTO_COUNT>
3

> <PUBCHEM_CONFORMER_ID>
0000363700000001

> <PUBCHEM_MMFF94_ENERGY>
18.1704

> <PUBCHEM_FEATURE_SELFOVERLAP>
15.223

> <PUBCHEM_SHAPE_FINGERPRINT>
10219947 1 18412547608718514020
11062470 55 18260830406086036689
12251169 10 18410577275122897135
12897270 3 8214140763374655631
12932764 1 18411420609394963455
15501101 241 18272936020222692548
15775835 57 17822293444289916008
20201158 50 17989489640548586698
20279233 1 17489588956755546163
20281407 28 17060336357286135899
20645477 70 18340781441381891167
20871998 22 18045501078435559222
23402539 116 17489320659091966607
276578 36 16515680061100620879
29004967 10 18202005451752697124
581208 293 18273218573188708382
69090 78 18202004296554609987
77492 1 17749401342411664991

> <PUBCHEM_SHAPE_MULTIPOLES>
220.51
6.4
1.15
0.94
5.18
0.01
0
0
1.48
-1.05
-0.01
0.34
0
-0.04

> <PUBCHEM_SHAPE_SELFOVERLAP>
446.798

> <PUBCHEM_SHAPE_VOLUME>
128.7

> <PUBCHEM_COORDINATE_TYPE>
2
5
10

$$$$

