17395541
  -OEChem-06241222513D

 29 30  0     0  0  0  0  0  0999 V2000
    4.8759   -1.5570   -0.5692 F   0  0  0  0  0  0  0  0  0  0  0  0
    5.5521    1.0417   -0.0558 F   0  0  0  0  0  0  0  0  0  0  0  0
   -0.0460   -1.7491    0.4669 O   0  0  0  0  0  0  0  0  0  0  0  0
   -0.7360    0.4430   -0.0288 N   0  0  0  0  0  0  0  0  0  0  0  0
   -2.1271    0.3020   -0.0479 C   0  0  0  0  0  0  0  0  0  0  0  0
   -4.9023    0.0202   -0.0861 C   0  0  0  0  0  0  0  0  0  0  0  0
    1.6018   -0.1426    0.1485 C   0  0  0  0  0  0  0  0  0  0  0  0
   -2.7052   -0.9432    0.1994 C   0  0  0  0  0  0  0  0  0  0  0  0
   -2.9366    1.4063   -0.3145 C   0  0  0  0  0  0  0  0  0  0  0  0
    0.2103   -0.5597    0.2203 C   0  0  0  0  0  0  0  0  0  0  0  0
   -4.0926   -1.0841    0.1803 C   0  0  0  0  0  0  0  0  0  0  0  0
   -4.3243    1.2653   -0.3335 C   0  0  0  0  0  0  0  0  0  0  0  0
    2.5912   -1.0684   -0.1824 C   0  0  0  0  0  0  0  0  0  0  0  0
    1.9468    1.1834    0.4103 C   0  0  0  0  0  0  0  0  0  0  0  0
   -6.3855   -0.1310   -0.1075 C   0  0  0  0  0  0  0  0  0  0  0  0
    3.9258   -0.6682   -0.2515 C   0  0  0  0  0  0  0  0  0  0  0  0
    3.2811    1.5836    0.3413 C   0  0  0  0  0  0  0  0  0  0  0  0
    4.2706    0.6579    0.0102 C   0  0  0  0  0  0  0  0  0  0  0  0
   -0.4114    1.3755   -0.2679 H   0  0  0  0  0  0  0  0  0  0  0  0
   -2.1603   -1.8500    0.4144 H   0  0  0  0  0  0  0  0  0  0  0  0
   -2.4999    2.3827   -0.5084 H   0  0  0  0  0  0  0  0  0  0  0  0
   -4.5330   -2.0584    0.3761 H   0  0  0  0  0  0  0  0  0  0  0  0
   -4.9445    2.1334   -0.5407 H   0  0  0  0  0  0  0  0  0  0  0  0
    2.3449   -2.1053   -0.3952 H   0  0  0  0  0  0  0  0  0  0  0  0
    1.2200    1.9317    0.7115 H   0  0  0  0  0  0  0  0  0  0  0  0
   -6.7947    0.0380    0.8935 H   0  0  0  0  0  0  0  0  0  0  0  0
   -6.8459    0.5823   -0.7995 H   0  0  0  0  0  0  0  0  0  0  0  0
   -6.6757   -1.1331   -0.4410 H   0  0  0  0  0  0  0  0  0  0  0  0
    3.5519    2.6136    0.5537 H   0  0  0  0  0  0  0  0  0  0  0  0
  1 16  1  0  0  0  0
  2 18  1  0  0  0  0
  3 10  2  0  0  0  0
  4  5  1  0  0  0  0
  4 10  1  0  0  0  0
  4 19  1  0  0  0  0
  5  8  2  0  0  0  0
  5  9  1  0  0  0  0
  6 11  2  0  0  0  0
  6 12  1  0  0  0  0
  6 15  1  0  0  0  0
  7 10  1  0  0  0  0
  7 13  2  0  0  0  0
  7 14  1  0  0  0  0
  8 11  1  0  0  0  0
  8 20  1  0  0  0  0
  9 12  2  0  0  0  0
  9 21  1  0  0  0  0
 11 22  1  0  0  0  0
 12 23  1  0  0  0  0
 13 16  1  0  0  0  0
 13 24  1  0  0  0  0
 14 17  2  0  0  0  0
 14 25  1  0  0  0  0
 15 26  1  0  0  0  0
 15 27  1  0  0  0  0
 15 28  1  0  0  0  0
 16 18  2  0  0  0  0
 17 18  1  0  0  0  0
 17 29  1  0  0  0  0
M  END
> <PUBCHEM_COMPOUND_CID>
17395541

> <PUBCHEM_CONFORMER_RMSD>
0.6

> <PUBCHEM_CONFORMER_DIVERSEORDER>
1
5
4
6
2
3

> <PUBCHEM_MMFF94_PARTIAL_CHARGES>
26
1 -0.19
10 0.54
11 -0.15
12 -0.15
13 -0.15
14 -0.15
15 0.14
16 0.19
17 -0.15
18 0.19
19 0.37
2 -0.19
20 0.15
21 0.15
22 0.15
23 0.15
24 0.15
25 0.15
29 0.15
3 -0.57
4 -0.55
5 0.12
6 -0.14
7 0.09
8 -0.15
9 -0.15

> <PUBCHEM_EFFECTIVE_ROTOR_COUNT>
3

> <PUBCHEM_PHARMACOPHORE_FEATURES>
4
1 3 acceptor
1 4 donor
6 5 6 8 9 11 12 rings
6 7 13 14 16 17 18 rings

> <PUBCHEM_HEAVY_ATOM_COUNT>
18

> <PUBCHEM_ATOM_DEF_STEREO_COUNT>
0

> <PUBCHEM_ATOM_UDEF_STEREO_COUNT>
0

> <PUBCHEM_BOND_DEF_STEREO_COUNT>
0

> <PUBCHEM_BOND_UDEF_STEREO_COUNT>
0

> <PUBCHEM_ISOTOPIC_ATOM_COUNT>
0

> <PUBCHEM_COMPONENT_COUNT>
1

> <PUBCHEM_CACTVS_TAUTO_COUNT>
2

> <PUBCHEM_CONFORMER_ID>
01096F5500000001

> <PUBCHEM_MMFF94_ENERGY>
51.7698

> <PUBCHEM_FEATURE_SELFOVERLAP>
20.297

> <PUBCHEM_SHAPE_FINGERPRINT>
11287383 113 18409729547378680339
11471102 20 18334857225591736272
12107183 9 17689435314125937825
12236239 1 17603302665830273433
12403259 415 18271813440579082501
12730499 353 18410849958475957666
12916748 109 18343300374827761152
13081056 2 18411702088614140333
13167823 11 18335143085355886687
13533116 47 17167859803027809654
1420 363 18202278100777375515
14251764 18 18272939319464230112
14341114 176 18411131442174179169
15196674 1 18411138051796382408
15788980 27 5978387226880565421
15961568 22 17775001233451621276
17834072 33 18186524289315615031
17834076 25 15123511406527526073
17844677 252 18335695074479058329
18186145 218 18271814535431356092
200 152 17821729442375241473
20645477 56 18341615884665121297
20645477 70 18187080702366151054
21267235 1 18411693297237935643
21652331 79 18413110563141248685
221357 26 18334015007837457761
23402539 116 18337398153433676630
23402655 69 18260830397343218804
23557571 272 17846498188238283189
23559900 14 18410578348880526073
29717793 49 17530961418803070204
3004659 81 18342454885621510966
34797466 226 17895467051167399364
351380 180 18411139121385715897
3545911 37 18409729547384091449
4073 2 18130220467520727050
4214541 1 18410012173797230725
42788 4 18410293618714113789
495365 180 17604159125490806274
4990 188 18334853952515634910
5104073 3 18411138056112469161
5281201 14 18410008853602881932
542803 24 16630526241677338053
633830 44 18343589529206075086
69090 78 18334297534959765255
7495541 125 17095531638897952427
77779 3 18409729560390202189
9709674 26 18340201878115063027

> <PUBCHEM_SHAPE_MULTIPOLES>
345.03
13.31
1.58
0.66
3.83
0.01
0
0.82
1.23
-0.65
-0.02
-0.03
0
0.65

> <PUBCHEM_SHAPE_SELFOVERLAP>
746.617

> <PUBCHEM_SHAPE_VOLUME>
189.4

> <PUBCHEM_COORDINATE_TYPE>
2
5
10

$$$$

