12661
  -OEChem-06261207132D

 10 10  0     0  0  0  0  0  0999 V2000
    3.7071    0.5000    0.0000 O   0  0  0  0  0  0  0  0  0  0  0  0
    2.0000    1.2071    0.0000 O   0  0  0  0  0  0  0  0  0  0  0  0
    2.7071   -0.5000    0.0000 C   0  0  0  0  0  0  0  0  0  0  0  0
    3.7071   -0.5000    0.0000 C   0  0  0  0  0  0  0  0  0  0  0  0
    2.7071    0.5000    0.0000 C   0  0  0  0  0  0  0  0  0  0  0  0
    4.4142   -1.2071    0.0000 C   0  0  0  0  0  0  0  0  0  0  0  0
    2.0871   -0.5000    0.0000 H   0  0  0  0  0  0  0  0  0  0  0  0
    2.7071   -1.1200    0.0000 H   0  0  0  0  0  0  0  0  0  0  0  0
    4.2538   -1.8060    0.0000 H   0  0  0  0  0  0  0  0  0  0  0  0
    5.0131   -1.0466    0.0000 H   0  0  0  0  0  0  0  0  0  0  0  0
  1  4  1  0  0  0  0
  1  5  1  0  0  0  0
  2  5  2  0  0  0  0
  3  4  1  0  0  0  0
  3  5  1  0  0  0  0
  3  7  1  0  0  0  0
  3  8  1  0  0  0  0
  4  6  2  0  0  0  0
  6  9  1  0  0  0  0
  6 10  1  0  0  0  0
M  END
> <PUBCHEM_COMPOUND_CID>
12661

> <PUBCHEM_COMPOUND_CANONICALIZED>
1

> <PUBCHEM_CACTVS_COMPLEXITY>
104

> <PUBCHEM_CACTVS_HBOND_ACCEPTOR>
2

> <PUBCHEM_CACTVS_HBOND_DONOR>
0

> <PUBCHEM_CACTVS_ROTATABLE_BOND>
0

> <PUBCHEM_CACTVS_SUBSKEYS>
AAADcYBgMAAAAAAAAAAAAAAAAABIAAAAAAAAAAAAAAAAAAAAAAAAGgAAAAAACASAgAAACAAABACIAADSCAAACAAgAAAAAAEAAAgAAAQAAQAAAAAAYAAAAAAAAAAAAAAAAAAAAAAAAAAAAAAAAAAAAAAAAA==

> <PUBCHEM_IUPAC_OPENEYE_NAME>
4-methyleneoxetan-2-one

> <PUBCHEM_IUPAC_CAS_NAME>
4-methylene-2-oxetanone

> <PUBCHEM_IUPAC_NAME>
4-methylideneoxetan-2-one

> <PUBCHEM_IUPAC_SYSTEMATIC_NAME>
4-methylideneoxetan-2-one

> <PUBCHEM_IUPAC_TRADITIONAL_NAME>
4-methyleneoxetan-2-one

> <PUBCHEM_IUPAC_INCHI>
InChI=1S/C4H4O2/c1-3-2-4(5)6-3/h1-2H2

> <PUBCHEM_IUPAC_INCHIKEY>
WASQWSOJHCZDFK-UHFFFAOYSA-N

> <PUBCHEM_XLOGP3_AA>
0.3

> <PUBCHEM_EXACT_MASS>
84.021129

> <PUBCHEM_MOLECULAR_FORMULA>
C4H4O2

> <PUBCHEM_MOLECULAR_WEIGHT>
84.07336

> <PUBCHEM_OPENEYE_CAN_SMILES>
C=C1CC(=O)O1

> <PUBCHEM_OPENEYE_ISO_SMILES>
C=C1CC(=O)O1

> <PUBCHEM_CACTVS_TPSA>
26.3

> <PUBCHEM_MONOISOTOPIC_WEIGHT>
84.021129

> <PUBCHEM_TOTAL_CHARGE>
0

> <PUBCHEM_HEAVY_ATOM_COUNT>
6

> <PUBCHEM_ATOM_DEF_STEREO_COUNT>
0

> <PUBCHEM_ATOM_UDEF_STEREO_COUNT>
0

> <PUBCHEM_BOND_DEF_STEREO_COUNT>
0

> <PUBCHEM_BOND_UDEF_STEREO_COUNT>
0

> <PUBCHEM_ISOTOPIC_ATOM_COUNT>
0

> <PUBCHEM_COMPONENT_COUNT>
1

> <PUBCHEM_CACTVS_TAUTO_COUNT>
2

> <PUBCHEM_COORDINATE_TYPE>
1
5
255

$$$$

