582696
  -OEChem-06241222433D

 20 20  0     0  0  0  0  0  0999 V2000
   -0.9909    1.1901    0.0021 S   0  0  0  0  0  0  0  0  0  0  0  0
    2.6553   -0.2714   -0.0034 O   0  0  0  0  0  0  0  0  0  0  0  0
   -4.1385   -1.0715    0.0004 O   0  5  0  0  0  0  0  0  0  0  0  0
   -3.9096    1.1118    0.0026 O   0  0  0  0  0  0  0  0  0  0  0  0
    0.1325   -1.1381   -0.0026 N   0  0  0  0  0  0  0  0  0  0  0  0
   -3.3990   -0.0453    0.0008 N   0  3  0  0  0  0  0  0  0  0  0  0
    1.9236    1.9666    0.0002 N   0  0  0  0  0  0  0  0  0  0  0  0
    0.3437    0.1400   -0.0009 C   0  0  0  0  0  0  0  0  0  0  0  0
    4.0416    0.1011   -0.0043 C   0  0  0  0  0  0  0  0  0  0  0  0
    1.6939    0.6951   -0.0016 C   0  0  0  0  0  0  0  0  0  0  0  0
   -2.0071   -0.1913   -0.0003 C   0  0  0  0  0  0  0  0  0  0  0  0
   -1.2347   -1.3338   -0.0019 C   0  0  0  0  0  0  0  0  0  0  0  0
    4.8891   -1.1533    0.0088 C   0  0  0  0  0  0  0  0  0  0  0  0
    4.2613    0.6830   -0.9058 H   0  0  0  0  0  0  0  0  0  0  0  0
    4.2594    0.6982    0.8877 H   0  0  0  0  0  0  0  0  0  0  0  0
   -1.6142   -2.3475   -0.0031 H   0  0  0  0  0  0  0  0  0  0  0  0
    5.9544   -0.9059    0.0086 H   0  0  0  0  0  0  0  0  0  0  0  0
    4.6668   -1.7593    0.8934 H   0  0  0  0  0  0  0  0  0  0  0  0
    4.6701   -1.7753   -0.8654 H   0  0  0  0  0  0  0  0  0  0  0  0
    2.9241    2.1730   -0.0011 H   0  0  0  0  0  0  0  0  0  0  0  0
  1  8  1  0  0  0  0
  1 11  1  0  0  0  0
  2  9  1  0  0  0  0
  2 10  1  0  0  0  0
  3  6  1  0  0  0  0
  4  6  2  0  0  0  0
  5  8  2  0  0  0  0
  5 12  1  0  0  0  0
  6 11  1  0  0  0  0
  7 10  2  0  0  0  0
  7 20  1  0  0  0  0
  8 10  1  0  0  0  0
  9 13  1  0  0  0  0
  9 14  1  0  0  0  0
  9 15  1  0  0  0  0
 11 12  2  0  0  0  0
 12 16  1  0  0  0  0
 13 17  1  0  0  0  0
 13 18  1  0  0  0  0
 13 19  1  0  0  0  0
M  CHG  2   3  -1   6   1
M  END
> <PUBCHEM_COMPOUND_CID>
582696

> <PUBCHEM_CONFORMER_RMSD>
0.6

> <PUBCHEM_CONFORMER_DIVERSEORDER>
1
8
7
9
10
11
14
13
12
2
3
6
5
16
15
4

> <PUBCHEM_MMFF94_PARTIAL_CHARGES>
14
1 -0.08
10 0.69
11 0.12
12 0.08
16 0.15
2 -0.43
20 0.4
3 -0.52
4 -0.52
5 -0.57
6 0.96
7 -0.85
8 0.29
9 0.28

> <PUBCHEM_EFFECTIVE_ROTOR_COUNT>
4

> <PUBCHEM_PHARMACOPHORE_FEATURES>
6
1 3 acceptor
1 3 anion
1 4 acceptor
1 5 acceptor
1 7 donor
5 1 5 8 11 12 rings

> <PUBCHEM_HEAVY_ATOM_COUNT>
13

> <PUBCHEM_ATOM_DEF_STEREO_COUNT>
0

> <PUBCHEM_ATOM_UDEF_STEREO_COUNT>
0

> <PUBCHEM_BOND_DEF_STEREO_COUNT>
0

> <PUBCHEM_BOND_UDEF_STEREO_COUNT>
0

> <PUBCHEM_ISOTOPIC_ATOM_COUNT>
0

> <PUBCHEM_COMPONENT_COUNT>
1

> <PUBCHEM_CACTVS_TAUTO_COUNT>
1

> <PUBCHEM_CONFORMER_ID>
0008E42800000001

> <PUBCHEM_MMFF94_ENERGY>
21.5239

> <PUBCHEM_FEATURE_SELFOVERLAP>
30.527

> <PUBCHEM_SHAPE_FINGERPRINT>
10130415 120 18409449172224937920
11062470 55 6050447011235808706
11401426 45 18260835911806881253
12032990 46 18341046329004590971
12119455 92 17168148965636913844
12186901 62 17131842013608709285
124424 183 18413670214195523427
12932764 1 16988299580901892152
13675066 3 18259989249346507274
13690532 89 18410575093559085570
13922767 16 18260832592024229264
14115302 16 17846768595036954670
14325111 11 18410573942581781189
14993402 34 15482671264559423690
17804303 29 18410853261347681340
17834072 8 18411140272320907076
18186145 218 17917721171003451973
18511873 20 18408886222160577674
200 152 17894635859104949813
20645477 70 18409446995051260102
20671657 1 18198053686376962276
22485316 2 18409451380101852434
23402539 116 17968103035877160605
23559900 14 18333454227622924576
42 15 18411136952706851762
5104073 3 18409448063843716976
6430166 295 18411983593523733781
7364860 26 18263645057333250240

> <PUBCHEM_SHAPE_MULTIPOLES>
238.83
8.29
1.53
0.58
3.1
0.27
0
-1.94
0.01
0.07
0
0.05
0.01
-0.01

> <PUBCHEM_SHAPE_SELFOVERLAP>
475.667

> <PUBCHEM_SHAPE_VOLUME>
142.5

> <PUBCHEM_COORDINATE_TYPE>
2
5
10

$$$$

