4773
  -OEChem-06261200203D

 42 44  0     0  0  0  0  0  0999 V2000
    1.1725    3.6389    1.7531 O   0  0  0  0  0  0  0  0  0  0  0  0
   -0.1071   -0.2646   -0.7607 N   0  0  0  0  0  0  0  0  0  0  0  0
    2.7595   -2.1432   -0.5731 N   0  0  0  0  0  0  0  0  0  0  0  0
    1.0883   -2.2920    0.9644 N   0  0  0  0  0  0  0  0  0  0  0  0
   -1.4504   -0.1918   -0.5198 C   0  0  0  0  0  0  0  0  0  0  0  0
   -2.1404   -1.4906   -0.1640 C   0  0  0  0  0  0  0  0  0  0  0  0
    0.4754   -1.5183   -1.2539 C   0  0  0  0  0  0  0  0  0  0  0  0
   -3.5058   -1.3321    0.5301 C   0  0  0  0  0  0  0  0  0  0  0  0
    1.4413   -2.0009   -0.2619 C   0  0  0  0  0  0  0  0  0  0  0  0
   -4.2369   -0.0589    0.1847 C   0  0  0  0  0  0  0  0  0  0  0  0
   -2.1614    0.9474   -0.5906 C   0  0  0  0  0  0  0  0  0  0  0  0
    0.8016    0.8051   -0.5130 C   0  0  0  0  0  0  0  0  0  0  0  0
    3.4901   -2.5877    0.5750 C   0  0  0  0  0  0  0  0  0  0  0  0
   -3.5832    0.9852   -0.3501 C   0  0  0  0  0  0  0  0  0  0  0  0
    2.3640   -2.7310    1.6099 C   0  0  0  0  0  0  0  0  0  0  0  0
   -5.7033   -0.0174    0.4902 C   0  0  0  0  0  0  0  0  0  0  0  0
    0.5350    1.7037    0.5101 C   0  0  0  0  0  0  0  0  0  0  0  0
    1.9385    0.9313   -1.2983 C   0  0  0  0  0  0  0  0  0  0  0  0
    1.4242    2.7506    0.7531 C   0  0  0  0  0  0  0  0  0  0  0  0
    2.8275    1.9784   -1.0555 C   0  0  0  0  0  0  0  0  0  0  0  0
    2.5705    2.8880   -0.0297 C   0  0  0  0  0  0  0  0  0  0  0  0
   -2.3123   -2.0579   -1.0885 H   0  0  0  0  0  0  0  0  0  0  0  0
   -1.5217   -2.1094    0.4945 H   0  0  0  0  0  0  0  0  0  0  0  0
   -0.2486   -2.3211   -1.4216 H   0  0  0  0  0  0  0  0  0  0  0  0
    0.9429   -1.3840   -2.2356 H   0  0  0  0  0  0  0  0  0  0  0  0
   -3.3627   -1.3564    1.6183 H   0  0  0  0  0  0  0  0  0  0  0  0
   -4.1249   -2.2014    0.2761 H   0  0  0  0  0  0  0  0  0  0  0  0
   -1.7235    1.8929   -0.8949 H   0  0  0  0  0  0  0  0  0  0  0  0
    4.2281   -1.8435    0.8884 H   0  0  0  0  0  0  0  0  0  0  0  0
    3.9919   -3.5419    0.3907 H   0  0  0  0  0  0  0  0  0  0  0  0
   -4.0998    1.9084   -0.5926 H   0  0  0  0  0  0  0  0  0  0  0  0
    3.1881   -1.9494   -1.4698 H   0  0  0  0  0  0  0  0  0  0  0  0
    2.2638   -3.7711    1.9381 H   0  0  0  0  0  0  0  0  0  0  0  0
    2.5604   -2.1108    2.4908 H   0  0  0  0  0  0  0  0  0  0  0  0
   -5.8732   -0.1912    1.5577 H   0  0  0  0  0  0  0  0  0  0  0  0
   -6.2316   -0.7905   -0.0769 H   0  0  0  0  0  0  0  0  0  0  0  0
   -6.1500    0.9490    0.2338 H   0  0  0  0  0  0  0  0  0  0  0  0
   -0.3196    1.5992    1.1724 H   0  0  0  0  0  0  0  0  0  0  0  0
    2.1661    0.2762   -2.1315 H   0  0  0  0  0  0  0  0  0  0  0  0
    3.7158    2.0908   -1.6702 H   0  0  0  0  0  0  0  0  0  0  0  0
    3.2701    3.7003    0.1479 H   0  0  0  0  0  0  0  0  0  0  0  0
    1.8896    4.2955    1.7791 H   0  0  0  0  0  0  0  0  0  0  0  0
  1 19  1  0  0  0  0
  1 42  1  0  0  0  0
  2  5  1  0  0  0  0
  2  7  1  0  0  0  0
  2 12  1  0  0  0  0
  3  9  1  0  0  0  0
  3 13  1  0  0  0  0
  3 32  1  0  0  0  0
  4  9  2  0  0  0  0
  4 15  1  0  0  0  0
  5  6  1  0  0  0  0
  5 11  2  0  0  0  0
  6  8  1  0  0  0  0
  6 22  1  0  0  0  0
  6 23  1  0  0  0  0
  7  9  1  0  0  0  0
  7 24  1  0  0  0  0
  7 25  1  0  0  0  0
  8 10  1  0  0  0  0
  8 26  1  0  0  0  0
  8 27  1  0  0  0  0
 10 14  2  0  0  0  0
 10 16  1  0  0  0  0
 11 14  1  0  0  0  0
 11 28  1  0  0  0  0
 12 17  2  0  0  0  0
 12 18  1  0  0  0  0
 13 15  1  0  0  0  0
 13 29  1  0  0  0  0
 13 30  1  0  0  0  0
 14 31  1  0  0  0  0
 15 33  1  0  0  0  0
 15 34  1  0  0  0  0
 16 35  1  0  0  0  0
 16 36  1  0  0  0  0
 16 37  1  0  0  0  0
 17 19  1  0  0  0  0
 17 38  1  0  0  0  0
 18 20  2  0  0  0  0
 18 39  1  0  0  0  0
 19 21  2  0  0  0  0
 20 21  1  0  0  0  0
 20 40  1  0  0  0  0
 21 41  1  0  0  0  0
M  END
> <PUBCHEM_COMPOUND_CID>
4773

> <PUBCHEM_CONFORMER_RMSD>
0.8

> <PUBCHEM_CONFORMER_DIVERSEORDER>
1
25
21
18
10
11
9
16
15
17
7
2
3
12
13
24
19
8
6
22
14
20
23
4
5

> <PUBCHEM_MMFF94_PARTIAL_CHARGES>
29
1 -0.53
10 -0.28
11 -0.15
12 0.1
13 0.37
14 -0.15
15 0.25
16 0.14
17 -0.15
18 -0.15
19 0.08
2 -0.57
20 -0.15
21 -0.15
28 0.15
3 -0.82
31 0.15
32 0.4
38 0.15
39 0.15
4 -0.7
40 0.15
41 0.15
42 0.45
5 -0.04
6 0.14
7 0.43
8 0.14
9 0.44

> <PUBCHEM_EFFECTIVE_ROTOR_COUNT>
5

> <PUBCHEM_PHARMACOPHORE_FEATURES>
7
1 1 donor
1 2 cation
1 3 donor
3 3 4 9 cation
5 3 4 9 13 15 rings
6 12 17 18 19 20 21 rings
6 5 6 8 10 11 14 rings

> <PUBCHEM_HEAVY_ATOM_COUNT>
21

> <PUBCHEM_ATOM_DEF_STEREO_COUNT>
0

> <PUBCHEM_ATOM_UDEF_STEREO_COUNT>
0

> <PUBCHEM_BOND_DEF_STEREO_COUNT>
0

> <PUBCHEM_BOND_UDEF_STEREO_COUNT>
0

> <PUBCHEM_ISOTOPIC_ATOM_COUNT>
0

> <PUBCHEM_COMPONENT_COUNT>
1

> <PUBCHEM_CACTVS_TAUTO_COUNT>
3

> <PUBCHEM_CONFORMER_ID>
000012A500000001

> <PUBCHEM_MMFF94_ENERGY>
75.0349

> <PUBCHEM_FEATURE_SELFOVERLAP>
35.525

> <PUBCHEM_SHAPE_FINGERPRINT>
10165383 225 18197766726679555085
10366900 7 18268421352971099489
1100329 8 17905039610068810593
11578080 2 17417264245705783255
12592029 89 18340485565068269272
12644460 14 18337379492249096923
12730499 353 18265884775503561129
13134695 92 18191608516654925173
13140716 1 18119816798341430617
13294875 104 18115596933006916936
133893 2 17910433595076304238
13533116 47 18412545393328019451
13878862 14 18339376244674634477
14022347 108 17760066807217984119
14178342 30 17983013345789996599
14223421 5 18271244924474334119
14787075 74 18201996651491918830
14866123 147 16177349682148308355
14955137 171 18261108608287677238
15375462 189 17915735577442202387
15475509 35 17560787871505515891
15475509 84 18192981845918837881
15490181 7 18046070354252782767
15927050 60 18122341277750850486
17868525 174 18126851723302902513
17980427 23 17678486162498833383
17980427 26 17971768683006251164
18785283 64 18272933782645094220
19078846 21 18189887802722474737
19784866 9 18412543185055478652
20369508 70 18412263978037726351
20600515 1 17623577849045760814
20671657 1 18335423443867576779
20832881 197 18261940870107673900
20905425 154 18410287038502697324
21033648 29 17098078279706065443
21041028 32 18263927811550481308
21120745 212 17761197118483624462
21344244 78 18115317781744254849
21421861 104 18341326777231157552
21501502 16 18409168784149461247
21524375 3 18046622304805586460
23366157 5 18131351886323063391
23419403 2 17836685098310423380
23557571 272 17832150794146580406
23558518 356 17614288757880740836
23559900 14 17917708007419280903
25 1 18115859698795018940
350125 39 18270958072404524821
3759504 43 17839452294373727988
43471831 8 18052827952812325055
5104073 3 18340190961399655267
5265222 85 17838604571357424060
5895379 119 17170374463519557473
5902787 121 18198624517537160767
633830 44 18117836595047962253
6442390 28 17908414762746462161
7364860 26 18409729555979203503
81228 2 17398955367090265932
84936 182 18337104566744266617
9841814 1 18340198708592689867
9999458 23 18268986501483780724

> <PUBCHEM_SHAPE_MULTIPOLES>
411.36
7.4
3.98
1.27
11.17
0.8
-0.21
-1.05
-0.98
-5.42
-1.69
-0.78
0.14
-0.31

> <PUBCHEM_SHAPE_SELFOVERLAP>
881.159

> <PUBCHEM_SHAPE_VOLUME>
228.5

> <PUBCHEM_COORDINATE_TYPE>
2
5
10

$$$$

