14187
  -OEChem-06241222422D

 39 42  0     0  0  0  0  0  0999 V2000
    2.5369    0.8922    0.0000 O   0  0  0  0  0  0  0  0  0  0  0  0
    2.9835   -1.6399    0.0000 O   0  0  0  0  0  0  0  0  0  0  0  0
    4.2690   -0.1078    0.0000 C   0  0  0  0  0  0  0  0  0  0  0  0
    4.2690    0.8922    0.0000 C   0  0  0  0  0  0  0  0  0  0  0  0
    4.6110   -1.0475    0.0000 C   0  0  0  0  0  0  0  0  0  0  0  0
    5.5958   -1.2211    0.0000 C   0  0  0  0  0  0  0  0  0  0  0  0
    5.1350    1.3922    0.0000 C   0  0  0  0  0  0  0  0  0  0  0  0
    5.9378   -2.1608    0.0000 C   0  0  0  0  0  0  0  0  0  0  0  0
    5.1350    2.3922    0.0000 C   0  0  0  0  0  0  0  0  0  0  0  0
    3.4030    1.3922    0.0000 C   0  0  0  0  0  0  0  0  0  0  0  0
    3.9682   -1.8135    0.0000 C   0  0  0  0  0  0  0  0  0  0  0  0
    6.0290    0.8575    0.0000 C   0  0  0  0  0  0  0  0  0  0  0  0
    6.2530   -0.4130    0.0000 C   0  0  0  0  0  0  0  0  0  0  0  0
    5.2950   -2.9269    0.0000 C   0  0  0  0  0  0  0  0  0  0  0  0
    4.2690    2.8922    0.0000 C   0  0  0  0  0  0  0  0  0  0  0  0
    4.3102   -2.7532    0.0000 C   0  0  0  0  0  0  0  0  0  0  0  0
    3.4030    2.3922    0.0000 C   0  0  0  0  0  0  0  0  0  0  0  0
    6.0290    2.9269    0.0000 C   0  0  0  0  0  0  0  0  0  0  0  0
    6.9607   -2.3575    0.0000 C   0  0  0  0  0  0  0  0  0  0  0  0
    6.9350    1.3714    0.0000 C   0  0  0  0  0  0  0  0  0  0  0  0
    7.2802   -0.5859    0.0000 C   0  0  0  0  0  0  0  0  0  0  0  0
    6.9350    2.4130    0.0000 C   0  0  0  0  0  0  0  0  0  0  0  0
    7.6364   -1.5648    0.0000 C   0  0  0  0  0  0  0  0  0  0  0  0
    3.6997    0.1378    0.0000 H   0  0  0  0  0  0  0  0  0  0  0  0
    4.8796   -0.0001    0.0000 H   0  0  0  0  0  0  0  0  0  0  0  0
    6.0342    0.1671    0.0000 H   0  0  0  0  0  0  0  0  0  0  0  0
    6.0218    0.2376    0.0000 H   0  0  0  0  0  0  0  0  0  0  0  0
    5.5071   -3.5095    0.0000 H   0  0  0  0  0  0  0  0  0  0  0  0
    4.2690    3.5122    0.0000 H   0  0  0  0  0  0  0  0  0  0  0  0
    3.9117   -3.2282    0.0000 H   0  0  0  0  0  0  0  0  0  0  0  0
    2.8660    2.7022    0.0000 H   0  0  0  0  0  0  0  0  0  0  0  0
    7.1660   -2.9425    0.0000 H   0  0  0  0  0  0  0  0  0  0  0  0
    6.0218    3.5468    0.0000 H   0  0  0  0  0  0  0  0  0  0  0  0
    7.6768   -0.1095    0.0000 H   0  0  0  0  0  0  0  0  0  0  0  0
    7.4708    1.0593    0.0000 H   0  0  0  0  0  0  0  0  0  0  0  0
    7.4708    2.7251    0.0000 H   0  0  0  0  0  0  0  0  0  0  0  0
    8.2466   -1.6748    0.0000 H   0  0  0  0  0  0  0  0  0  0  0  0
    2.0000    1.2022    0.0000 H   0  0  0  0  0  0  0  0  0  0  0  0
    2.5850   -2.1149    0.0000 H   0  0  0  0  0  0  0  0  0  0  0  0
  1 10  1  0  0  0  0
  1 38  1  0  0  0  0
  2 11  1  0  0  0  0
  2 39  1  0  0  0  0
  3  4  1  0  0  0  0
  3  5  1  0  0  0  0
  3 24  1  0  0  0  0
  3 25  1  0  0  0  0
  4  7  1  0  0  0  0
  4 10  2  0  0  0  0
  5  6  1  0  0  0  0
  5 11  2  0  0  0  0
  6  8  1  0  0  0  0
  6 13  2  0  0  0  0
  7  9  1  0  0  0  0
  7 12  2  0  0  0  0
  8 14  1  0  0  0  0
  8 19  2  0  0  0  0
  9 15  1  0  0  0  0
  9 18  2  0  0  0  0
 10 17  1  0  0  0  0
 11 16  1  0  0  0  0
 12 20  1  0  0  0  0
 12 27  1  0  0  0  0
 13 21  1  0  0  0  0
 13 26  1  0  0  0  0
 14 16  2  0  0  0  0
 14 28  1  0  0  0  0
 15 17  2  0  0  0  0
 15 29  1  0  0  0  0
 16 30  1  0  0  0  0
 17 31  1  0  0  0  0
 18 22  1  0  0  0  0
 18 33  1  0  0  0  0
 19 23  1  0  0  0  0
 19 32  1  0  0  0  0
 20 22  2  0  0  0  0
 20 35  1  0  0  0  0
 21 23  2  0  0  0  0
 21 34  1  0  0  0  0
 22 36  1  0  0  0  0
 23 37  1  0  0  0  0
M  END
> <PUBCHEM_COMPOUND_CID>
14187

> <PUBCHEM_COMPOUND_CANONICALIZED>
1

> <PUBCHEM_CACTVS_COMPLEXITY>
359

> <PUBCHEM_CACTVS_HBOND_ACCEPTOR>
2

> <PUBCHEM_CACTVS_HBOND_DONOR>
2

> <PUBCHEM_CACTVS_ROTATABLE_BOND>
2

> <PUBCHEM_CACTVS_SUBSKEYS>
AAADceB4MAAAAAAAAAAAAAAAAAAAAAAAAAAwYMGAAAAAAADBVAAAGgAACAAADASAmAAwBsAAAgCAAiBCAAACAAAgIAAIiAAGCIgIJiKCERKAcAAkwBEImAeA4PQOoAADAAAYAABAAAYAADAAAAAAAAAAAA==

> <PUBCHEM_IUPAC_OPENEYE_NAME>
1-[(2-hydroxy-1-naphthyl)methyl]naphthalen-2-ol

> <PUBCHEM_IUPAC_CAS_NAME>
1-[(2-hydroxy-1-naphthalenyl)methyl]-2-naphthalenol

> <PUBCHEM_IUPAC_NAME>
1-[(2-hydroxynaphthalen-1-yl)methyl]naphthalen-2-ol

> <PUBCHEM_IUPAC_SYSTEMATIC_NAME>
1-[(2-oxidanylnaphthalen-1-yl)methyl]naphthalen-2-ol

> <PUBCHEM_IUPAC_TRADITIONAL_NAME>
1-[(2-hydroxy-1-naphthyl)methyl]-2-naphthol

> <PUBCHEM_IUPAC_INCHI>
InChI=1S/C21H16O2/c22-20-11-9-14-5-1-3-7-16(14)18(20)13-19-17-8-4-2-6-15(17)10-12-21(19)23/h1-12,22-23H,13H2

> <PUBCHEM_IUPAC_INCHIKEY>
ZPANWZBSGMDWON-UHFFFAOYSA-N

> <PUBCHEM_XLOGP3_AA>
5.6

> <PUBCHEM_EXACT_MASS>
300.11503

> <PUBCHEM_MOLECULAR_FORMULA>
C21H16O2

> <PUBCHEM_MOLECULAR_WEIGHT>
300.35054

> <PUBCHEM_OPENEYE_CAN_SMILES>
C1=CC=C2C(=C1)C=CC(=C2CC3=C(C=CC4=CC=CC=C43)O)O

> <PUBCHEM_OPENEYE_ISO_SMILES>
C1=CC=C2C(=C1)C=CC(=C2CC3=C(C=CC4=CC=CC=C43)O)O

> <PUBCHEM_CACTVS_TPSA>
40.5

> <PUBCHEM_MONOISOTOPIC_WEIGHT>
300.11503

> <PUBCHEM_TOTAL_CHARGE>
0

> <PUBCHEM_HEAVY_ATOM_COUNT>
23

> <PUBCHEM_ATOM_DEF_STEREO_COUNT>
0

> <PUBCHEM_ATOM_UDEF_STEREO_COUNT>
0

> <PUBCHEM_BOND_DEF_STEREO_COUNT>
0

> <PUBCHEM_BOND_UDEF_STEREO_COUNT>
0

> <PUBCHEM_ISOTOPIC_ATOM_COUNT>
0

> <PUBCHEM_COMPONENT_COUNT>
1

> <PUBCHEM_CACTVS_TAUTO_COUNT>
5

> <PUBCHEM_COORDINATE_TYPE>
1
5
255

> <PUBCHEM_BONDANNOTATIONS>
10  17  8
11  16  8
12  20  8
13  21  8
14  16  8
15  17  8
18  22  8
19  23  8
20  22  8
21  23  8
4  10  8
4  7  8
5  11  8
5  6  8
6  13  8
6  8  8
7  12  8
7  9  8
8  14  8
8  19  8
9  15  8
9  18  8

$$$$

